data_POSCAR
  _audit_creation_date              2014-09-24
  _audit_creation_method            'ToBaCCo'
  _symmetry_space_group_name_H-M    'P1'
  _symmetry_Int_Tables_number       1
  _symmetry_cell_setting            triclinic
  loop_
  _symmetry_equiv_pos_as_xyz
 x,y,z
_cell_length_a 76.8576
_cell_length_b 77.0897
_cell_length_c 80.9697
_cell_angle_alpha 90.526400
_cell_angle_beta 89.979300
_cell_angle_gamma 90.202200
loop_
  _atom_site_label
  _atom_site_type_symbol
  _atom_site_fract_x
  _atom_site_fract_y
  _atom_site_fract_z
C1 C 0.39617 -0.01802 0.25141
 C2 C 0.40443 -0.00295 0.24575
 C3 C 0.41293 -0.00309 0.23050
 C4 C 0.41356 -0.01828 0.22088
 C5 C 0.40506 -0.03330 0.22655
 C6 C 0.39607 -0.03347 0.24183
 C7 C 0.40473 0.01289 0.25611
 C8 C 0.41426 0.01307 0.27084
 C9 C 0.41514 0.02806 0.28097
 C10 C 0.40560 0.04279 0.27597
 C11 C 0.39577 0.04270 0.26127
 C12 C 0.39564 0.02770 0.25130
 H13 H 0.38920 -0.01716 0.26299
 H14 H 0.41924 0.00865 0.22625
 H15 H 0.42055 0.00115 0.27442
 H16 H 0.38807 0.02731 0.24001
 H17 H 0.40641 -0.04507 0.21931
 H18 H 0.40639 0.05478 0.28296
 C19 C 0.10608 -0.02086 0.74915
 C20 C 0.09710 -0.00587 0.75400
 C21 C 0.08755 -0.00573 0.76873
 C22 C 0.08674 -0.02056 0.77866
 C23 C 0.09596 -0.03549 0.77375
 C24 C 0.10577 -0.03575 0.75905
 C25 C 0.09730 0.00962 0.74348
 C26 C 0.08804 0.00953 0.72861
 C27 C 0.08776 0.02424 0.71832
 C28 C 0.09759 0.03894 0.72338
 C29 C 0.10713 0.03908 0.73824
 C30 C 0.10670 0.02437 0.74831
 H31 H 0.11362 -0.02072 0.73785
 H32 H 0.08035 0.00582 0.77216
 H33 H 0.08150 -0.00237 0.72503
 H34 H 0.11406 0.02415 0.75972
 H35 H 0.09552 -0.04693 0.78141
 H36 H 0.09724 0.05074 0.71629
 C37 C 0.60669 0.47605 0.25211
 C38 C 0.59797 0.49113 0.25717
 C39 C 0.58912 0.49145 0.27228
 C40 C 0.58867 0.47672 0.28235
 C41 C 0.59766 0.46173 0.27725
 C42 C 0.60683 0.46128 0.26218
 C43 C 0.59791 0.50658 0.24661
 C44 C 0.58907 0.50614 0.23150
 C45 C 0.58841 0.52091 0.22150
 C46 C 0.59722 0.53607 0.22665
 C47 C 0.60635 0.53663 0.24174
 C48 C 0.60641 0.52181 0.25173
 H49 H 0.61376 0.47606 0.24053
 H50 H 0.58255 0.50323 0.27613
 H51 H 0.58264 0.49426 0.22762
 H52 H 0.61346 0.52189 0.26332
 H53 H 0.59719 0.45024 0.28484
 H54 H 0.59660 0.54759 0.21911
 C55 C 0.89261 0.47415 0.74842
 C56 C 0.90150 0.48933 0.74403
 C57 C 0.91078 0.48989 0.72916
 C58 C 0.91143 0.47533 0.71863
 C59 C 0.90230 0.46021 0.72308
 C60 C 0.89273 0.45951 0.73791
 C61 C 0.90155 0.50459 0.75514
 C62 C 0.91033 0.50390 0.77025
 C63 C 0.91125 0.51852 0.78089
 C64 C 0.90243 0.53375 0.77597
 C65 C 0.89337 0.53450 0.76086
 C66 C 0.89322 0.51986 0.75044
 H67 H 0.88526 0.47395 0.75984
 H68 H 0.91793 0.50156 0.72609
 H69 H 0.91608 0.49166 0.77367
 H70 H 0.88627 0.52013 0.73880
 H71 H 0.90263 0.44897 0.71497
 H72 H 0.90328 0.54547 0.78335
 C73 C 0.25691 0.35584 1.02059
 C74 C 0.25790 0.36747 1.00738
 C75 C 0.27249 0.37829 1.00574
 C76 C 0.28616 0.37758 1.01725
 C77 C 0.28489 0.36598 1.03049
 C78 C 0.27044 0.35475 1.03237
 C79 C 0.24425 0.36715 0.99452
 C80 C 0.22952 0.37783 0.99586
 C81 C 0.21640 0.37718 0.98371
 C82 C 0.21824 0.36556 0.97033
 C83 C 0.23288 0.35479 0.96884
 C84 C 0.24585 0.35569 0.98105
 H85 H 0.24589 0.34709 1.02099
 H86 H 0.27338 0.38690 0.99527
 H87 H 0.22837 0.38668 1.00627
 H88 H 0.25729 0.34757 0.98006
 H89 H 0.29501 0.36641 1.03976
 H90 H 0.20793 0.36452 0.96125
 C91 C 0.74040 0.14651 1.01683
 C92 C 0.73935 0.13446 1.00379
 C93 C 0.72502 0.12321 1.00263
 C94 C 0.71162 0.12401 1.01445
 C95 C 0.71296 0.13605 1.02755
 C96 C 0.72724 0.14758 1.02899
 C97 C 0.75287 0.13455 0.99083
 C98 C 0.76732 0.12348 0.99185
 C99 C 0.78092 0.12463 0.98024
 C100 C 0.77964 0.13679 0.96747
 C101 C 0.76533 0.14800 0.96634
 C102 C 0.75195 0.14675 0.97810
 H103 H 0.75123 0.15552 1.01685
 H104 H 0.72410 0.11421 0.99231
 H105 H 0.76820 0.11442 1.00196
 H106 H 0.74099 0.15553 0.97763
 H107 H 0.70310 0.13568 1.03706
 H108 H 0.78977 0.13737 0.95818
 C109 C 0.24694 0.64404 0.52044
 C110 C 0.24663 0.63164 0.50764
 C111 C 0.23292 0.61954 0.50675
 C112 C 0.21946 0.61983 0.51856
 C113 C 0.22005 0.63232 0.53132
 C114 C 0.23376 0.64439 0.53247
 C115 C 0.26063 0.63159 0.49514
 C116 C 0.27407 0.61931 0.49583
 C117 C 0.28788 0.61979 0.48442
 C118 C 0.28793 0.63266 0.47221
 C119 C 0.27458 0.64503 0.47135
 C120 C 0.26098 0.64441 0.48295
 H121 H 0.25767 0.65316 0.52117
 H122 H 0.23278 0.60996 0.49688
 H123 H 0.27379 0.60950 0.50532
 H124 H 0.25074 0.65403 0.48268
 H125 H 0.20951 0.63297 0.54018
 H126 H 0.29850 0.63311 0.46338
 C127 C 0.75620 0.85740 0.52229
 C128 C 0.75682 0.86937 0.50939
 C129 C 0.77062 0.88132 0.50852
 C130 C 0.78406 0.88150 0.52050
 C131 C 0.78298 0.86928 0.53341
 C132 C 0.76920 0.85730 0.53444
 C133 C 0.74333 0.86881 0.49640
 C134 C 0.72917 0.88029 0.49685
 C135 C 0.71611 0.87937 0.48465
 C136 C 0.71752 0.86681 0.47200
 C137 C 0.73164 0.85526 0.47139
 C138 C 0.74447 0.85636 0.48372
 H139 H 0.74548 0.84826 0.52288
 H140 H 0.77048 0.89063 0.49860
 H141 H 0.72838 0.88990 0.50666
 H142 H 0.75530 0.84739 0.48361
 H143 H 0.79343 0.86816 0.54226
 H144 H 0.70755 0.86598 0.46258
 C145 C -0.02453 0.24009 0.33762
 C146 C -0.00710 0.24009 0.34254
 C147 C 0.00036 0.22484 0.34849
 C148 C -0.00949 0.20949 0.34984
 C149 C -0.02701 0.20977 0.34464
 C150 C -0.03486 0.22503 0.33878
 C151 C 0.00305 0.25640 0.34254
 C152 C -0.00416 0.27159 0.34930
 C153 C 0.00587 0.28674 0.35080
 C154 C 0.02314 0.28668 0.34522
 C155 C 0.03051 0.27161 0.33848
 C156 C 0.02034 0.25654 0.33704
 H157 H -0.02979 0.25189 0.33252
 H158 H 0.01390 0.22510 0.35212
 H159 H -0.01737 0.27144 0.35396
 H160 H 0.02594 0.24485 0.33178
 H161 H -0.03515 0.19862 0.34702
 H162 H 0.03120 0.29809 0.34709
 C163 C -0.02809 0.75106 0.14993
 C164 C -0.01063 0.75601 0.14806
 C165 C -0.00662 0.77256 0.14219
 C166 C -0.01985 0.78410 0.13808
 C167 C -0.03727 0.77907 0.13999
 C168 C -0.04173 0.76248 0.14591
 C169 C 0.00351 0.74353 0.15111
 C170 C 0.00255 0.72677 0.14427
 C171 C 0.01671 0.71524 0.14533
 C172 C 0.03166 0.72088 0.15391
 C173 C 0.03279 0.73763 0.16066
 C174 C 0.01862 0.74884 0.15941
 H175 H -0.03083 0.73798 0.15393
 H176 H 0.00685 0.77633 0.14045
 H177 H -0.00875 0.72345 0.13693
 H178 H 0.01956 0.76190 0.16442
 H179 H -0.04723 0.78842 0.13710
 H180 H 0.04251 0.71220 0.15575
 C181 C 0.47337 0.25885 0.66020
 C182 C 0.49120 0.25777 0.65667
 C183 C 0.49988 0.27229 0.65027
 C184 C 0.49086 0.28771 0.64731
 C185 C 0.47305 0.28860 0.65093
 C186 C 0.46418 0.27418 0.65719
 C187 C 0.50048 0.24111 0.65833
 C188 C 0.49283 0.22568 0.65247
 C189 C 0.50229 0.21016 0.65220
 C190 C 0.51941 0.21011 0.65818
 C191 C 0.52721 0.22541 0.66405
 C192 C 0.51759 0.24082 0.66431
 H193 H 0.46662 0.24770 0.66518
 H194 H 0.51354 0.27143 0.64704
 H195 H 0.47980 0.22590 0.64739
 H196 H 0.52354 0.25269 0.66887
 H197 H 0.46584 0.30022 0.64795
 H198 H 0.52711 0.19840 0.65715
 C199 C 0.46967 0.74339 0.84253
 C200 C 0.48760 0.74240 0.84524
 C201 C 0.49462 0.72774 0.85286
 C202 C 0.48385 0.71394 0.85793
 C203 C 0.46584 0.71517 0.85482
 C204 C 0.45871 0.72979 0.84728
 C205 C 0.49896 0.75713 0.84099
 C206 C 0.49496 0.77380 0.84687
 C207 C 0.50667 0.78758 0.84466
 C208 C 0.52211 0.78466 0.83586
 C209 C 0.52634 0.76801 0.83007
 C210 C 0.51462 0.75431 0.83254
 H211 H 0.46428 0.75473 0.83661
 H212 H 0.50855 0.72721 0.85472
 H213 H 0.48333 0.77572 0.85423
 H214 H 0.51784 0.74136 0.82823
 H215 H 0.45697 0.70537 0.85936
 H216 H 0.53136 0.79517 0.83439
 C217 C -0.27019 0.64571 1.00153
 C218 C -0.25515 0.65437 1.00695
 C219 C -0.25505 0.66277 1.02232
 C220 C -0.26997 0.66283 1.03229
 C221 C -0.28495 0.65392 1.02683
 C222 C -0.28535 0.64506 1.01142
 C223 C -0.23967 0.65527 0.99619
 C224 C -0.24068 0.66380 0.98103
 C225 C -0.22606 0.66518 0.97053
 C226 C -0.21037 0.65733 0.97573
 C227 C -0.20927 0.64847 0.99085
 C228 C -0.22398 0.64776 1.00110
 H229 H -0.26999 0.63997 0.98928
 H230 H -0.24350 0.66980 1.02620
 H231 H -0.25281 0.67012 0.97807
 H232 H -0.22346 0.64088 1.01270
 H233 H -0.29591 0.65324 1.03517
 H234 H -0.19900 0.65751 0.96787
 C235 C -0.27082 0.35457 0.49877
 C236 C -0.25624 0.34522 0.49343
 C237 C -0.25681 0.33597 0.47854
 C238 C -0.27197 0.33571 0.46894
 C239 C -0.28651 0.34532 0.47426
 C240 C -0.28623 0.35502 0.48922
 C241 C -0.24046 0.34463 0.50370
 C242 C -0.24042 0.33465 0.51803
 C243 C -0.22540 0.33348 0.52782
 C244 C -0.21045 0.34288 0.52323
 C245 C -0.21035 0.35313 0.50890
 C246 C -0.22544 0.35375 0.49910
 H247 H -0.26958 0.36206 0.51007
 H248 H -0.24540 0.32885 0.47453
 H249 H -0.25217 0.32778 0.52153
 H250 H -0.22573 0.36164 0.48810
 H251 H -0.29832 0.34432 0.46705
 H252 H -0.19874 0.34188 0.53060
 C253 C 0.22225 -0.14452 0.00034
 C254 C 0.23736 -0.15336 -0.00435
 C255 C 0.23784 -0.16249 -0.01938
 C256 C 0.22318 -0.16321 -0.02991
 C257 C 0.20813 -0.15397 -0.02494
 C258 C 0.20760 -0.14454 -0.00997
 C259 C 0.25270 -0.15319 0.00662
 C260 C 0.25172 -0.16104 0.02211
 C261 C 0.26612 -0.16110 0.03296
 C262 C 0.28148 -0.15248 0.02779
 C263 C 0.28253 -0.14433 0.01231
 C264 C 0.26809 -0.14499 0.00171
 H265 H 0.22214 -0.13724 0.01185
 H266 H 0.24995 -0.16865 -0.02283
 H267 H 0.23936 -0.16661 0.02570
 H268 H 0.26856 -0.13863 -0.01016
 H269 H 0.19634 -0.15472 -0.03218
 H270 H 0.29306 -0.15271 0.03535
 C271 C 0.22790 1.14583 0.50028
 C272 C 0.24255 1.15534 0.50536
 C273 C 0.24209 1.16483 0.52017
 C274 C 0.22699 1.16509 0.52995
 C275 C 0.21242 1.15532 0.52483
 C276 C 0.21275 1.14557 0.51003
 C277 C 0.25826 1.15580 0.49494
 C278 C 0.25824 1.16546 0.48041
 C279 C 0.27315 1.16643 0.47023
 C280 C 0.28800 1.15686 0.47503
 C281 C 0.28810 1.14694 0.48957
 C282 C 0.27315 1.14667 0.49954
 H283 H 0.22849 1.13836 0.48889
 H284 H 0.25354 1.17206 0.52400
 H285 H 0.24623 1.17176 0.47699
 H286 H 0.27287 1.13900 0.51069
 H287 H 0.20063 1.15567 0.53215
 H288 H 0.29994 1.15772 0.46802
 C289 C 0.10723 0.51048 0.23128
 C290 C 0.11892 0.51199 0.24452
 C291 C 0.12925 0.52699 0.24620
 C292 C 0.12789 0.54055 0.23472
 C293 C 0.11623 0.53868 0.22143
 C294 C 0.10576 0.52381 0.21963
 C295 C 0.11920 0.49841 0.25728
 C296 C 0.13117 0.48468 0.25640
 C297 C 0.13084 0.47140 0.26825
 C298 C 0.11827 0.47205 0.28087
 C299 C 0.10615 0.48564 0.28184
 C300 C 0.10677 0.49881 0.26997
 H301 H 0.09898 0.49909 0.23031
 H302 H 0.13790 0.52830 0.25671
 H303 H 0.14070 0.48439 0.24654
 H304 H 0.09735 0.50923 0.27036
 H305 H 0.11549 0.54879 0.21225
 H306 H 0.11785 0.46185 0.28997
 C307 C -0.10640 0.99398 0.22911
 C308 C -0.11802 0.99236 0.24233
 C309 C -0.12834 0.97741 0.24375
 C310 C -0.12722 0.96379 0.23198
 C311 C -0.11557 0.96594 0.21861
 C312 C -0.10486 0.98079 0.21701
 C313 C -0.11836 1.00590 0.25536
 C314 C -0.12994 1.01991 0.25434
 C315 C -0.13013 1.03314 0.26661
 C316 C -0.11817 1.03177 0.27981
 C317 C -0.10654 1.01780 0.28095
 C318 C -0.10673 1.00491 0.26862
 H319 H -0.09805 1.00531 0.22889
 H320 H -0.13653 0.97625 0.25455
 H321 H -0.13906 1.02000 0.24417
 H322 H -0.09792 0.99400 0.26935
 H323 H -0.11584 0.95658 0.20862
 H324 H -0.11700 1.04209 0.28888
 C325 C 0.39520 0.49643 -0.26763
 C326 C 0.38237 0.49627 -0.25529
 C327 C 0.37062 0.48234 -0.25441
 C328 C 0.37175 0.46845 -0.26572
 C329 C 0.38450 0.46894 -0.27816
 C330 C 0.39654 0.48278 -0.27934
 C331 C 0.38236 0.51007 -0.24249
 C332 C 0.37052 0.52390 -0.24321
 C333 C 0.37135 0.53783 -0.23168
 C334 C 0.38411 0.53696 -0.21911
 C335 C 0.39602 0.52322 -0.21829
 C336 C 0.39508 0.50986 -0.23011
 H337 H 0.40456 0.50694 -0.26743
 H338 H 0.36108 0.48205 -0.24456
 H339 H 0.36142 0.52406 -0.25340
 H340 H 0.40439 0.49934 -0.22986
 H341 H 0.38438 0.45870 -0.28737
 H342 H 0.38442 0.54655 -0.20929
 C343 C 0.60173 0.00115 -0.26962
 C344 C 0.61417 0.00209 -0.25695
 C345 C 0.62547 0.01639 -0.25593
 C346 C 0.62433 0.02987 -0.26745
 C347 C 0.61194 0.02862 -0.28019
 C348 C 0.60033 0.01440 -0.28150
 C349 C 0.61435 -0.01138 -0.24406
 C350 C 0.62606 -0.02532 -0.24498
 C351 C 0.62567 -0.03851 -0.23304
 C352 C 0.61337 -0.03747 -0.22019
 C353 C 0.60154 -0.02362 -0.21913
 C354 C 0.60216 -0.01062 -0.23118
 H355 H 0.59271 -0.00965 -0.26955
 H356 H 0.63474 0.01726 -0.24587
 H357 H 0.63542 -0.02586 -0.25498
 H358 H 0.59295 -0.00001 -0.23075
 H359 H 0.61206 0.03854 -0.28954
 H360 H 0.61292 -0.04757 -0.21099
 C361 C -0.00115 0.22128 0.89865
 C362 C -0.00260 0.23921 0.89623
 C363 C -0.01747 0.24582 0.88848
 C364 C -0.03085 0.23466 0.88332
 C365 C -0.02922 0.21678 0.88578
 C366 C -0.01442 0.20998 0.89342
 C367 C 0.01161 0.25098 0.90148
 C368 C 0.02894 0.24678 0.89783
 C369 C 0.04245 0.25845 0.90159
 C370 C 0.03847 0.27420 0.90949
 C371 C 0.02117 0.27875 0.91280
 C372 C 0.00782 0.26696 0.90904
 H373 H 0.01015 0.21618 0.90492
 H374 H -0.01861 0.25963 0.88635
 H375 H 0.03176 0.23491 0.89109
 H376 H -0.00558 0.27048 0.91143
 H377 H -0.03932 0.20808 0.88132
 H378 H 0.04881 0.28325 0.91256
 C379 C 0.50602 0.22345 0.08947
 C380 C 0.50727 0.24137 0.09217
 C381 C 0.52311 0.24866 0.09737
 C382 C 0.53760 0.23810 0.10014
 C383 C 0.53624 0.22019 0.09723
 C384 C 0.52050 0.21276 0.09193
 C385 C 0.49175 0.25240 0.09084
 C386 C 0.47665 0.24816 0.09966
 C387 C 0.46262 0.25971 0.10028
 C388 C 0.46353 0.27520 0.09139
 C389 C 0.47856 0.27959 0.08255
 C390 C 0.49262 0.26806 0.08225
 H391 H 0.49377 0.21787 0.08541
 H392 H 0.52396 0.26248 0.09983
 H393 H 0.47634 0.23646 0.10699
 H394 H 0.50439 0.27142 0.07562
 H395 H 0.54719 0.21187 0.09994
 H396 H 0.45283 0.28430 0.09207
 C397 C 0.00732 0.72805 0.58639
 C398 C 0.00778 0.74571 0.59064
 C399 C 0.02343 0.75321 0.59610
 C400 C 0.03847 0.74312 0.59764
 C401 C 0.03783 0.72549 0.59328
 C402 C 0.02229 0.71783 0.58777
 C403 C -0.00835 0.75605 0.59081
 C404 C -0.02337 0.74957 0.59848
 C405 C -0.03835 0.75992 0.60034
 C406 C -0.03800 0.77681 0.59377
 C407 C -0.02303 0.78342 0.58618
 C408 C -0.00831 0.77292 0.58461
 H409 H -0.00475 0.72225 0.58213
 H410 H 0.02374 0.76675 0.59981
 H411 H -0.02315 0.73646 0.60312
 H412 H 0.00331 0.77797 0.57876
 H413 H 0.04917 0.71743 0.59518
 H414 H -0.04874 0.78560 0.59588
 C415 C 0.49589 0.72722 0.41239
 C416 C 0.49685 0.74378 0.40544
 C417 C 0.48416 0.74898 0.39409
 C418 C 0.47080 0.73758 0.38938
 C419 C 0.46981 0.72115 0.39660
 C420 C 0.48238 0.71581 0.40798
 C421 C 0.51222 0.75487 0.40834
 C422 C 0.52886 0.74818 0.40534
 C423 C 0.54345 0.75913 0.40538
 C424 C 0.54133 0.77675 0.40933
 C425 C 0.52478 0.78356 0.41263
 C426 C 0.51024 0.77253 0.41207
 H427 H 0.50601 0.72303 0.42076
 H428 H 0.48533 0.76147 0.38815
 H429 H 0.53029 0.73462 0.40198
 H430 H 0.49734 0.77768 0.41429
 H431 H 0.45929 0.71243 0.39321
 H432 H 0.55239 0.78547 0.40866
 Zr433 Zr 0.01008 -0.02052 1.02343
 O434 O 0.02935 -0.00916 1.03879
 O435 O 0.00568 -0.04416 1.03506
 O436 O 0.00008 -0.01605 1.04745
 O437 O 0.03857 -0.03545 0.99358
 O438 O -0.02466 -0.00055 1.04293
 O439 O 0.03404 -0.03390 1.02139
 O440 O -0.01680 -0.05607 1.02047
 O441 O -0.01695 -0.02318 1.02138
 O442 O 0.00551 -0.03703 1.00324
 O443 O 0.00050 0.00480 1.02053
 O444 O 0.02231 -0.00855 1.00315
 Zr445 Zr -0.02009 -0.00226 0.97663
 Zr446 Zr -0.02635 0.00181 1.01716
 Zr447 Zr 0.01627 -0.02465 0.98288
 Zr448 Zr -0.02132 -0.03889 1.00073
 O449 O 0.03899 -0.01434 0.97185
 O450 O -0.04543 -0.04304 1.01284
 O451 O -0.01061 -0.02777 0.97936
 O452 O -0.03205 -0.01431 0.99691
 O453 O -0.01565 0.01444 0.99675
 O454 O 0.00690 0.00025 0.97892
 C455 C -0.00576 -0.05606 1.03245
 C456 C 0.04317 -0.03819 1.00861
 C457 C -0.01371 -0.00808 1.05248
 O458 O -0.05029 -0.00794 1.02615
 O459 O -0.04705 0.01548 1.00651
 O460 O -0.04318 0.01254 0.97872
 C461 C -0.05163 0.01816 0.99147
 O462 O 0.03159 0.02190 1.01642
 Zr463 Zr 0.01129 0.01603 0.99942
 O464 O -0.01560 0.02149 0.96504
 O465 O -0.02705 0.02687 1.02801
 O466 O 0.00414 0.03935 1.01170
 O467 O 0.03468 0.02167 0.98660
 O468 O 0.00536 0.03423 0.98099
 C469 C -0.00518 0.03405 0.96863
 O470 O -0.04031 -0.01298 0.96196
 O471 O 0.01822 -0.05046 0.97396
 O472 O -0.01126 -0.00853 0.95256
 O473 O 0.01277 -0.02510 0.95714
 O474 O -0.01446 -0.06313 0.99004
 O475 O -0.03974 -0.04599 0.98227
 C476 C 0.00173 -0.01776 0.94754
 H477 H 0.01069 -0.04867 1.00460
 H478 H -0.04475 -0.01547 0.99518
 H479 H 0.01254 0.00526 0.96905
 H480 H 0.00314 0.01208 1.03036
 H481 H -0.04733 -0.05574 1.01341
 H482 H -0.05549 0.00133 1.03311
 H483 H -0.03814 0.02769 1.03422
 H484 H 0.01127 0.04882 1.00697
 H485 H -0.02206 -0.07207 0.99505
 H486 H 0.02925 -0.05120 0.96766
 H487 H 0.04421 -0.02377 0.96511
 H488 H 0.03621 0.03444 0.98672
 H489 H -0.04562 -0.05691 0.98545
 H490 H -0.04284 -0.00452 0.95312
 H491 H 0.03196 -0.01766 1.04757
 H492 H 0.03531 0.03412 1.01503
 Zr493 Zr 0.51944 0.47913 0.53121
 O494 O 0.53719 0.49131 0.54763
 O495 O 0.51734 0.45441 0.54125
 O496 O 0.50849 0.48141 0.55516
 O497 O 0.55013 0.46900 0.50150
 O498 O 0.48248 0.49470 0.55061
 O499 O 0.54451 0.46795 0.52915
 O500 O 0.49703 0.44096 0.52508
 O501 O 0.49285 0.47390 0.52826
 O502 O 0.51711 0.46366 0.50998
 O503 O 0.50743 0.50350 0.52932
 O504 O 0.53105 0.49352 0.51204
 Zr505 Zr 0.48890 0.49726 0.48455
 Zr506 Zr 0.48110 0.49809 0.52497
 Zr507 Zr 0.52718 0.47831 0.49073
 Zr508 Zr 0.49069 0.45920 0.50664
 O509 O 0.54892 0.49172 0.48102
 O510 O 0.46707 0.45193 0.51825
 O511 O 0.50085 0.47271 0.48628
 O512 O 0.47763 0.48281 0.50373
 O513 O 0.49113 0.51292 0.50570
 O514 O 0.51544 0.50237 0.48772
 C515 C 0.50777 0.44133 0.53732
 C516 C 0.55437 0.46536 0.51644
 C517 C 0.49394 0.48796 0.56015
 O518 O 0.45807 0.48542 0.53271
 O519 O 0.45946 0.51043 0.51443
 O520 O 0.46454 0.50977 0.48671
 C521 C 0.45522 0.51382 0.49942
 O522 O 0.53714 0.52358 0.52694
 Zr523 Zr 0.51770 0.51705 0.50926
 O524 O 0.49093 0.52226 0.47473
 O525 O 0.47749 0.52229 0.53701
 O526 O 0.50848 0.53871 0.52298
 O527 O 0.54042 0.52585 0.49699
 O528 O 0.50973 0.53598 0.49231
 C529 C 0.49939 0.53571 0.47981
 O530 O 0.47017 0.48560 0.46877
 O531 O 0.53226 0.45349 0.48045
 O532 O 0.49882 0.49306 0.46045
 O533 O 0.52430 0.47880 0.46497
 O534 O 0.50005 0.43667 0.49436
 O535 O 0.47322 0.45151 0.48757
 C536 C 0.51270 0.48526 0.45539
 H537 H 0.52340 0.45251 0.51074
 H538 H 0.46514 0.48054 0.50156
 H539 H 0.52065 0.50859 0.47827
 H540 H 0.50909 0.51042 0.53957
 H541 H 0.46648 0.43909 0.51811
 H542 H 0.45178 0.49368 0.53999
 H543 H 0.46620 0.52164 0.54291
 H544 H 0.51484 0.54909 0.51906
 H545 H 0.49337 0.42663 0.49861
 H546 H 0.54347 0.45436 0.47446
 H547 H 0.55532 0.48334 0.47395
 H548 H 0.54058 0.53868 0.49782
 H549 H 0.46828 0.43997 0.49015
 H550 H 0.46703 0.49432 0.46035
 H551 H 0.54043 0.48257 0.55599
 H552 H 0.54014 0.53603 0.52601
 Zr553 Zr 0.48282 1.01990 0.52680
 O554 O 0.46345 1.00745 0.54105
 O555 O 0.48569 1.04346 0.53933
 O556 O 0.49216 1.01533 0.55099
 O557 O 0.45491 1.03440 0.49651
 O558 O 0.51754 1.00073 0.54668
 O559 O 0.45850 1.03258 0.52441
 O560 O 0.50803 1.05677 0.52587
 O561 O 0.50980 1.02362 0.52580
 O562 O 0.48751 1.03698 0.50736
 O563 O 0.49349 0.99506 0.52328
 O564 O 0.47179 1.00796 0.50569
 Zr565 Zr 0.51543 1.00381 0.48037
 Zr566 Zr 0.52033 0.99911 0.52092
 Zr567 Zr 0.47801 1.02467 0.48622
 Zr568 Zr 0.51433 1.03995 0.50591
 O569 O 0.45621 1.01369 0.47399
 O570 O 0.53760 1.04468 0.51929
 O571 O 0.50487 1.02888 0.48378
 O572 O 0.52614 1.01587 0.50148
 O573 O 0.51084 0.98658 0.49974
 O574 O 0.48848 1.00024 0.48161
 C575 C 0.49647 1.05604 0.53741
 C576 C 0.44972 1.03682 0.51146
 C577 C 0.50601 1.00767 0.55615
 O578 O 0.54354 1.00953 0.53105
 O579 O 0.54190 0.98637 0.51049
 O580 O 0.53893 0.98975 0.48270
 C581 C 0.54709 0.98410 0.49550
 O582 O 0.46310 0.97700 0.51742
 Zr583 Zr 0.48389 0.98392 0.50143
 O584 O 0.51253 0.97998 0.46798
 O585 O 0.52158 0.97386 0.53087
 O586 O 0.49124 0.96063 0.51324
 O587 O 0.46135 0.97773 0.48744
 O588 O 0.49143 0.96625 0.48279
 C589 C 0.50261 0.96691 0.47096
 O590 O 0.53578 1.01560 0.46681
 O591 O 0.47529 1.05057 0.47820
 O592 O 0.50729 1.01038 0.45625
 O593 O 0.48258 1.02605 0.46071
 O594 O 0.50708 1.06405 0.49558
 O595 O 0.53335 1.04813 0.48856
 C596 C 0.49425 1.01942 0.45119
 H597 H 0.48183 1.04838 0.50890
 H598 H 0.53886 1.01752 0.50024
 H599 H 0.48348 0.99521 0.47136
 H600 H 0.49076 0.98746 0.53274
 H601 H 0.53897 1.05742 0.52043
 H602 H 0.54881 1.00031 0.53787
 H603 H 0.53247 0.97329 0.53740
 H604 H 0.48465 0.95102 0.50793
 H605 H 0.51405 1.07320 0.50117
 H606 H 0.46448 1.05101 0.47155
 H607 H 0.45086 1.02306 0.46744
 H608 H 0.46031 0.96492 0.48701
 H609 H 0.53875 1.05911 0.49247
 H610 H 0.53897 1.00743 0.45778
 H611 H 0.46015 1.01565 0.55002
 H612 H 0.45975 0.96477 0.51533
 Zr613 Zr -0.01381 0.52220 1.02726
 O614 O -0.03316 0.51351 1.04388
 O615 O -0.00753 0.54646 1.03718
 O616 O -0.00326 0.51919 1.05123
 O617 O -0.04244 0.53600 0.99729
 O618 O 0.02030 0.50179 1.04699
 O619 O -0.03706 0.53676 1.02498
 O620 O 0.01523 0.55555 1.02139
 O621 O 0.01324 0.52299 1.02427
 O622 O -0.00899 0.53655 1.00594
 O623 O -0.00584 0.49617 1.02575
 O624 O -0.02745 0.50925 1.00817
 Zr625 Zr 0.01356 0.49792 0.98092
 Zr626 Zr 0.02101 0.49717 1.02141
 Zr627 Zr -0.02114 0.52303 0.98675
 Zr628 Zr 0.01780 0.53653 1.00256
 O629 O -0.04472 0.51311 0.97692
 O630 O 0.04262 0.54027 1.01350
 O631 O 0.00572 0.52415 0.98230
 O632 O 0.02689 0.51106 1.00001
 O633 O 0.00883 0.48343 1.00223
 O634 O -0.01343 0.49729 0.98412
 C635 C 0.00464 0.55725 1.03364
 C636 C -0.04639 0.54037 1.01219
 C637 C 0.01016 0.51077 1.05636
 O638 O 0.04571 0.50629 1.02917
 O639 O 0.04061 0.48148 1.01113
 O640 O 0.03607 0.48231 0.98334
 C641 C 0.04465 0.47738 0.99617
 O642 O -0.03820 0.48095 1.02356
 Zr643 Zr -0.01806 0.48379 1.00578
 O644 O 0.00744 0.47323 0.97143
 O645 O 0.02062 0.47306 1.03369
 O646 O -0.01221 0.46132 1.01960
 O647 O -0.04203 0.47844 0.99376
 O648 O -0.01365 0.46344 0.98884
 C649 C -0.00338 0.46162 0.97640
 O650 O 0.03373 0.50592 0.96484
 O651 O -0.02196 0.54810 0.97633
 O652 O 0.00428 0.50269 0.95675
 O653 O -0.01840 0.52121 0.96100
 O654 O 0.01184 0.56014 0.99060
 O655 O 0.03586 0.54088 0.98313
 C656 C -0.00815 0.51246 0.95155
 H657 H -0.01343 0.54857 1.00671
 H658 H 0.03957 0.51133 0.99786
 H659 H -0.01963 0.49171 0.97475
 H660 H -0.00856 0.48995 1.03608
 H661 H 0.04530 0.55284 1.01314
 H662 H 0.05062 0.49736 1.03655
 H663 H 0.03182 0.47212 1.03967
 H664 H -0.02015 0.45195 1.01580
 H665 H 0.02005 0.56906 0.99486
 H666 H -0.03314 0.54894 0.97030
 H667 H -0.04963 0.52224 0.96978
 H668 H -0.04436 0.46584 0.99482
 H669 H 0.04229 0.55182 0.98529
 H670 H 0.03539 0.49650 0.95656
 H671 H -0.03494 0.52294 1.05213
 H672 H -0.04294 0.46900 1.02295
 Zr673 Zr -0.01359 0.47854 0.47359
 O674 O -0.03215 0.49070 0.45830
 O675 O -0.01099 0.45439 0.46209
 O676 O -0.00340 0.48203 0.44951
 O677 O -0.04294 0.46593 0.50353
 O678 O 0.02228 0.49622 0.45406
 O679 O -0.03829 0.46642 0.47570
 O680 O 0.01035 0.44116 0.47685
 O681 O 0.01322 0.47428 0.47554
 O682 O -0.01008 0.46227 0.49383
 O683 O -0.00232 0.50327 0.47648
 O684 O -0.02499 0.49162 0.49386
 Zr685 Zr 0.01788 0.49595 0.52036
 Zr686 Zr 0.02429 0.49875 0.47981
 Zr687 Zr -0.01995 0.47569 0.51416
 Zr688 Zr 0.01657 0.45878 0.49623
 O689 O -0.04182 0.48772 0.52520
 O690 O 0.04008 0.45294 0.48369
 O691 O 0.00668 0.47101 0.51760
 O692 O 0.02894 0.48276 0.50007
 O693 O 0.01446 0.51239 0.50018
 O694 O -0.00890 0.50005 0.51816
 C695 C -0.00077 0.44162 0.46494
 C696 C -0.04764 0.46290 0.48851
 C697 C 0.01081 0.48927 0.44449
 O698 O 0.04747 0.48738 0.47076
 O699 O 0.04588 0.51145 0.49040
 O700 O 0.04184 0.50942 0.51820
 C701 C 0.05059 0.51431 0.50544
 O702 O -0.03241 0.52213 0.48074
 Zr703 Zr -0.01233 0.51555 0.49757
 O704 O 0.01532 0.52037 0.53168
 O705 O 0.02668 0.52354 0.46901
 O706 O -0.00400 0.53812 0.48501
 O707 O -0.03506 0.52285 0.51072
 O708 O -0.00475 0.53391 0.51562
 C709 C 0.00600 0.53355 0.52780
 O710 O 0.03739 0.48434 0.53499
 O711 O -0.02380 0.45027 0.52316
 O712 O 0.00873 0.49060 0.54446
 O713 O -0.01630 0.47532 0.53984
 O714 O 0.00825 0.43539 0.50740
 O715 O 0.03483 0.45099 0.51439
 C716 C -0.00474 0.48207 0.54945
 H717 H -0.01604 0.45093 0.49259
 H718 H 0.04155 0.48089 0.50177
 H719 H -0.01407 0.50565 0.52805
 H720 H -0.00451 0.51052 0.46667
 H721 H 0.04109 0.44014 0.48309
 H722 H 0.05326 0.49618 0.46378
 H723 H 0.03779 0.52359 0.46279
 H724 H -0.01051 0.54808 0.48971
 H725 H 0.01507 0.42581 0.50237
 H726 H -0.03484 0.45039 0.52949
 H727 H -0.04769 0.47880 0.53198
 H728 H -0.03570 0.53569 0.51062
 H729 H 0.03995 0.43970 0.51110
 H730 H 0.04053 0.49283 0.54378
 H731 H -0.03538 0.48219 0.44955
 H732 H -0.03557 0.53448 0.48231
 Zr733 Zr 0.48193 -0.02401 -0.02691
 O734 O 0.46304 -0.01205 -0.04200
 O735 O 0.48464 -0.04813 -0.03841
 O736 O 0.49180 -0.02072 -0.05114
 O737 O 0.45325 -0.03685 0.00352
 O738 O 0.51738 -0.00620 -0.04704
 O739 O 0.45733 -0.03628 -0.02438
 O740 O 0.50675 -0.06079 -0.02424
 O741 O 0.50881 -0.02792 -0.02531
 O742 O 0.48597 -0.04020 -0.00670
 O743 O 0.49297 0.00087 -0.02430
 O744 O 0.47074 -0.01097 -0.00650
 Zr745 Zr 0.51396 -0.00608 0.01928
 Zr746 Zr 0.51969 -0.00332 -0.02134
 Zr747 Zr 0.47630 -0.02681 0.01376
 Zr748 Zr 0.51270 -0.04333 -0.00467
 O749 O 0.45439 -0.01513 0.02509
 O750 O 0.53628 -0.04889 -0.01722
 O751 O 0.50303 -0.03117 0.01682
 O752 O 0.52487 -0.01920 -0.00111
 O753 O 0.51004 0.01028 -0.00086
 O754 O 0.48711 -0.00230 0.01745
 C755 C 0.49542 -0.06052 -0.03598
 C756 C 0.44825 -0.03985 -0.01141
 C757 C 0.50591 -0.01347 -0.05640
 O758 O 0.54292 -0.01441 -0.03060
 O759 O 0.54124 0.00975 -0.01110
 O760 O 0.53765 0.00778 0.01676
 C761 C 0.54613 0.01276 0.00387
 O762 O 0.46283 0.01949 -0.01972
 Zr763 Zr 0.48318 0.01312 -0.00309
 O764 O 0.51115 0.01821 0.03072
 O765 O 0.52154 0.02139 -0.03239
 O766 O 0.49116 0.03576 -0.01575
 O767 O 0.46050 0.02019 0.01025
 O768 O 0.49072 0.03157 0.01494
 C769 C 0.50157 0.03125 0.02705
 O770 O 0.53388 -0.01743 0.03360
 O771 O 0.47310 -0.05226 0.02289
 O772 O 0.50527 -0.01133 0.04353
 O773 O 0.48027 -0.02680 0.03944
 O774 O 0.50475 -0.06695 0.00629
 O775 O 0.53107 -0.05089 0.01348
 C776 C 0.49190 -0.01980 0.04882
 H777 H 0.48013 -0.05161 -0.00788
 H778 H 0.53753 -0.02089 0.00043
 H779 H 0.48199 0.00326 0.02738
 H780 H 0.49055 0.00803 -0.03413
 H781 H 0.53745 -0.06168 -0.01780
 H782 H 0.54848 -0.00558 -0.03771
 H783 H 0.53256 0.02154 -0.03874
 H784 H 0.48462 0.04566 -0.01097
 H785 H 0.51173 -0.07636 0.00118
 H786 H 0.46217 -0.05231 0.02939
 H787 H 0.44878 -0.02413 0.03196
 H788 H 0.45971 0.03302 0.01015
 H789 H 0.53633 -0.06212 0.01021
 H790 H 0.53706 -0.00890 0.04235
 H791 H 0.45978 -0.02062 -0.05068
 H792 H 0.45961 0.03182 -0.01816
 Zr793 Zr 0.51656 0.52389 -0.02654
 O794 O 0.53425 0.51299 -0.04375
 O795 O 0.51397 0.54907 -0.03533
 O796 O 0.50535 0.52252 -0.05043
 O797 O 0.54748 0.53331 0.00322
 O798 O 0.47960 0.50846 -0.04617
 O799 O 0.54152 0.53542 -0.02429
 O800 O 0.49359 0.56118 -0.01837
 O801 O 0.48994 0.52833 -0.02304
 O802 O 0.51426 0.53823 -0.00461
 O803 O 0.50500 0.49916 -0.02563
 O804 O 0.52868 0.50885 -0.00820
 Zr805 Zr 0.48696 0.50267 0.01959
 Zr806 Zr 0.47865 0.50372 -0.02073
 Zr807 Zr 0.52484 0.52287 0.01382
 Zr808 Zr 0.48782 0.54186 -0.00074
 O809 O 0.54692 0.50950 0.02265
 O810 O 0.46392 0.54912 -0.01172
 O811 O 0.49848 0.52758 0.01883
 O812 O 0.47520 0.51782 0.00123
 O813 O 0.48920 0.48817 -0.00228
 O814 O 0.51354 0.49840 0.01588
 C815 C 0.50422 0.56170 -0.03069
 C816 C 0.55150 0.53767 -0.01162
 C817 C 0.49084 0.51591 -0.05554
 O818 O 0.45530 0.51620 -0.02759
 O819 O 0.45735 0.49033 -0.01055
 O820 O 0.46276 0.48969 0.01711
 C821 C 0.45335 0.48608 0.00432
 O822 O 0.53509 0.47973 -0.02451
 Zr823 Zr 0.51578 0.48489 -0.00634
 O824 O 0.48952 0.47723 0.02818
 O825 O 0.47530 0.48005 -0.03382
 O826 O 0.50676 0.46370 -0.02092
 O827 O 0.53881 0.47606 0.00524
 O828 O 0.50840 0.46495 0.00980
 C829 C 0.49818 0.46429 0.02237
 O830 O 0.46824 0.51303 0.03611
 O831 O 0.52965 0.54728 0.02514
 O832 O 0.49714 0.50598 0.04374
 O833 O 0.52229 0.52109 0.03954
 O834 O 0.49694 0.56399 0.01243
 O835 O 0.47050 0.54814 0.01888
 C836 C 0.51093 0.51392 0.04896
 H837 H 0.52036 0.54955 -0.00492
 H838 H 0.46271 0.51967 0.00365
 H839 H 0.51898 0.49185 0.02497
 H840 H 0.50663 0.49280 -0.03619
 H841 H 0.46310 0.56193 -0.01098
 H842 H 0.44905 0.50816 -0.03518
 H843 H 0.46394 0.48073 -0.03955
 H844 H 0.51336 0.45329 -0.01756
 H845 H 0.49001 0.57406 0.00875
 H846 H 0.54097 0.54639 0.03094
 H847 H 0.55328 0.51768 0.03001
 H848 H 0.53920 0.46328 0.00383
 H849 H 0.46528 0.55966 0.01688
 H850 H 0.46538 0.50380 0.04414
 H851 H 0.53724 0.52223 -0.05172
 H852 H 0.53833 0.46732 -0.02418
 Zr853 Zr 0.01627 1.02105 0.47135
 O854 O 0.03427 1.00834 0.45562
 O855 O 0.01418 1.04523 0.46026
 O856 O 0.00562 1.01779 0.44737
 O857 O 0.04642 1.03290 0.50104
 O858 O -0.02036 1.00431 0.45207
 O859 O 0.04129 1.03255 0.47328
 O860 O -0.00665 1.05901 0.47546
 O861 O -0.01038 1.02604 0.47376
 O862 O 0.01352 1.03744 0.49189
 O863 O 0.00437 0.99664 0.47401
 O864 O 0.02764 1.00769 0.49123
 Zr865 Zr -0.01490 1.00459 0.51829
 Zr866 Zr -0.02206 1.00188 0.47780
 Zr867 Zr 0.02335 1.02378 0.51187
 Zr868 Zr -0.01297 1.04166 0.49472
 O869 O 0.04505 1.01118 0.52240
 O870 O -0.03655 1.04808 0.48268
 O871 O -0.00308 1.02921 0.51576
 O872 O -0.02595 1.01803 0.49838
 O873 O -0.01225 0.98805 0.49780
 O874 O 0.01170 0.99972 0.51564
 C875 C 0.00429 1.05823 0.46338
 C876 C 0.05093 1.03582 0.48601
 C877 C -0.00884 1.01093 0.44244
 O878 O -0.04507 1.01386 0.46931
 O879 O -0.04378 0.98971 0.48854
 O880 O -0.03919 0.99172 0.51630
 C881 C -0.04827 0.98697 0.50362
 O882 O 0.03411 0.97707 0.47758
 Zr883 Zr 0.01438 0.98413 0.49474
 O884 O -0.01296 0.98008 0.52911
 O885 O -0.02529 0.97716 0.46662
 O886 O 0.00539 0.96179 0.48183
 O887 O 0.03700 0.97616 0.50757
 O888 O 0.00638 0.96594 0.51245
 C889 C -0.00422 0.96659 0.52476
 O890 O -0.03387 1.01676 0.53336
 O891 O 0.02802 1.04911 0.52121
 O892 O -0.00529 1.00977 0.54234
 O893 O 0.02012 1.02427 0.53762
 O894 O -0.00385 1.06488 0.50604
 O895 O -0.03067 1.04999 0.51333
 C896 C 0.00849 1.01792 0.54729
 H897 H 0.01976 1.04862 0.49073
 H898 H -0.03847 1.02023 0.50030
 H899 H 0.01683 0.99398 0.52538
 H900 H 0.00621 0.98932 0.46405
 H901 H -0.03722 1.06091 0.48229
 H902 H -0.05121 1.00521 0.46228
 H903 H -0.03651 0.97739 0.46060
 H904 H 0.01171 0.95166 0.48626
 H905 H -0.01052 1.07461 0.50126
 H906 H 0.03914 1.04870 0.52738
 H907 H 0.05128 1.01996 0.52921
 H908 H 0.03726 0.96331 0.50722
 H909 H -0.03557 1.06138 0.51028
 H910 H -0.03713 1.00838 0.54207
 H911 H 0.03760 1.01674 0.44695
 H912 H 0.03703 0.96466 0.47893
 Zr913 Zr 0.72843 0.26392 0.22262
 O914 O 0.74124 0.28252 0.20783
 O915 O 0.70440 0.26174 0.21087
 O916 O 0.73203 0.25408 0.19836
 O917 O 0.71577 0.29282 0.25313
 O918 O 0.74570 0.22824 0.20233
 O919 O 0.71671 0.28864 0.22522
 O920 O 0.69067 0.24014 0.22488
 O921 O 0.72370 0.23721 0.22393
 O922 O 0.71169 0.26025 0.24265
 O923 O 0.75301 0.25240 0.22535
 O924 O 0.74139 0.27485 0.24322
 Zr925 Zr 0.74458 0.23166 0.26870
 Zr926 Zr 0.74799 0.22586 0.22804
 Zr927 Zr 0.72497 0.26964 0.26329
 Zr928 Zr 0.70774 0.23368 0.24441
 O929 O 0.73717 0.29115 0.27495
 O930 O 0.70172 0.21038 0.23148
 O931 O 0.71979 0.24308 0.26608
 O932 O 0.73152 0.22105 0.24810
 O933 O 0.76145 0.23524 0.24871
 O934 O 0.74918 0.25835 0.26715
 C935 C 0.69152 0.25141 0.21322
 C936 C 0.71312 0.29779 0.23821
 C937 C 0.73899 0.23988 0.19303
 O938 O 0.73641 0.20293 0.21850
 O939 O 0.76035 0.20414 0.23823
 O940 O 0.75783 0.20777 0.26609
 C941 C 0.76291 0.19923 0.25319
 O942 O 0.77223 0.28226 0.23047
 Zr943 Zr 0.76512 0.26194 0.24674
 O944 O 0.76893 0.23373 0.28018
 O945 O 0.77294 0.22350 0.21722
 O946 O 0.78783 0.25376 0.23403
 O947 O 0.77268 0.28424 0.26055
 O948 O 0.78316 0.25377 0.26460
 C949 C 0.78241 0.24283 0.27651
 O950 O 0.73235 0.21208 0.28277
 O951 O 0.69937 0.27354 0.27220
 O952 O 0.73903 0.24045 0.29298
 O953 O 0.72414 0.26559 0.28889
 O954 O 0.68416 0.24209 0.25543
 O955 O 0.69927 0.21538 0.26220
 C956 C 0.73062 0.25387 0.29825
 H957 H 0.70044 0.26631 0.24144
 H958 H 0.72945 0.20847 0.24951
 H959 H 0.75473 0.26327 0.27719
 H960 H 0.76045 0.25468 0.21562
 H961 H 0.68887 0.20950 0.23078
 H962 H 0.74526 0.19720 0.21143
 H963 H 0.77292 0.21253 0.21075
 H964 H 0.79783 0.26009 0.23894
 H965 H 0.67456 0.23545 0.25016
 H966 H 0.69956 0.28443 0.27879
 H967 H 0.72818 0.29697 0.28178
 H968 H 0.78557 0.28473 0.26049
 H969 H 0.68789 0.21048 0.25879
 H970 H 0.74066 0.20871 0.29155
 H971 H 0.73292 0.28595 0.19909
 H972 H 0.78463 0.28531 0.23218
 Zr973 Zr 0.77214 0.73210 0.72230
 O974 O 0.76161 0.71353 0.70565
 O975 O 0.79696 0.73585 0.71258
 O976 O 0.76976 0.74270 0.69832
 O977 O 0.78371 0.70265 0.75224
 O978 O 0.75426 0.76751 0.70266
 O979 O 0.78479 0.70782 0.72456
 O980 O 0.80848 0.75743 0.72865
 O981 O 0.77534 0.75895 0.72526
 O982 O 0.78703 0.73579 0.74367
 O983 O 0.74684 0.74226 0.72389
 O984 O 0.75822 0.71976 0.74137
 Zr985 Zr 0.75069 0.76170 0.76872
 Zr986 Zr 0.75021 0.76888 0.72825
 Zr987 Zr 0.77268 0.72500 0.76283
 Zr988 Zr 0.78944 0.76243 0.74700
 O989 O 0.76071 0.70255 0.77261
 O990 O 0.79521 0.78639 0.73552
 O991 O 0.77620 0.75164 0.76726
 O992 O 0.76479 0.77370 0.74964
 O993 O 0.73566 0.75805 0.74740
 O994 O 0.74767 0.73490 0.76554
 C995 C 0.80917 0.74652 0.71648
 C996 C 0.78772 0.69834 0.73733
 C997 C 0.76222 0.75661 0.69323
 O998 O 0.76138 0.79260 0.72054
 O999 O 0.73615 0.78969 0.73856
 O1000 O 0.73662 0.78512 0.76632
 C1001 C 0.73223 0.79396 0.75351
 O1002 O 0.72891 0.71135 0.72609
 Zr1003 Zr 0.73364 0.73129 0.74385
 O1004 O 0.72555 0.75792 0.77820
 O1005 O 0.72596 0.77053 0.71601
 O1006 O 0.71154 0.73878 0.72998
 O1007 O 0.72639 0.70808 0.75596
 O1008 O 0.71382 0.73771 0.76069
 C1009 C 0.71296 0.74822 0.77309
 O1010 O 0.76056 0.78131 0.78466
 O1011 O 0.79773 0.72192 0.77325
 O1012 O 0.75511 0.75237 0.79289
 O1013 O 0.77151 0.72816 0.78857
 O1014 O 0.81242 0.75482 0.75945
 O1015 O 0.79549 0.78052 0.76614
 C1016 C 0.76391 0.73926 0.79806
 H1017 H 0.79864 0.73031 0.74300
 H1018 H 0.76611 0.78630 0.75179
 H1019 H 0.74166 0.72935 0.77493
 H1020 H 0.74027 0.74001 0.71357
 H1021 H 0.80801 0.78793 0.73579
 H1022 H 0.75281 0.79817 0.71316
 H1023 H 0.72591 0.78171 0.71006
 H1024 H 0.70156 0.73169 0.73379
 H1025 H 0.82207 0.76212 0.75526
 H1026 H 0.79760 0.71078 0.77926
 H1027 H 0.76945 0.69692 0.77977
 H1028 H 0.71359 0.70686 0.75499
 H1029 H 0.80680 0.78616 0.76373
 H1030 H 0.75140 0.78385 0.79296
 H1031 H 0.77080 0.71086 0.69742
 H1032 H 0.71663 0.70750 0.72685
 Zr1033 Zr 0.23197 0.23559 0.77616
 O1034 O 0.24578 0.21703 0.79004
 O1035 O 0.20858 0.23715 0.78907
 O1036 O 0.23647 0.24518 0.80040
 O1037 O 0.21814 0.20695 0.74582
 O1038 O 0.24966 0.27133 0.79621
 O1039 O 0.22034 0.21072 0.77372
 O1040 O 0.19404 0.25887 0.77614
 O1041 O 0.22682 0.26222 0.77543
 O1042 O 0.21421 0.23923 0.75695
 O1043 O 0.25622 0.24767 0.77255
 O1044 O 0.24407 0.22528 0.75486
 Zr1045 Zr 0.24541 0.26893 0.72993
 Zr1046 Zr 0.25071 0.27414 0.77047
 Zr1047 Zr 0.22661 0.23045 0.73561
 Zr1048 Zr 0.20983 0.26575 0.75575
 O1049 O 0.23850 0.20931 0.72320
 O1050 O 0.20409 0.28885 0.76905
 O1051 O 0.22093 0.25694 0.73344
 O1052 O 0.23323 0.27893 0.75124
 O1053 O 0.26330 0.26541 0.74909
 O1054 O 0.25045 0.24232 0.73090
 C1055 C 0.19561 0.24746 0.78761
 C1056 C 0.21622 0.20172 0.76076
 C1057 C 0.24346 0.25946 0.80563
 O1058 O 0.23927 0.29666 0.78088
 O1059 O 0.26217 0.29632 0.76009
 O1060 O 0.25838 0.29311 0.73232
 C1061 C 0.26391 0.30156 0.74513
 O1062 O 0.27570 0.21840 0.76616
 Zr1063 Zr 0.26743 0.23875 0.75050
 O1064 O 0.26917 0.26757 0.71733
 O1065 O 0.27612 0.27688 0.78022
 O1066 O 0.29060 0.24733 0.76225
 O1067 O 0.27459 0.21677 0.73613
 O1068 O 0.28440 0.24751 0.73187
 C1069 C 0.28290 0.25861 0.72017
 O1070 O 0.23218 0.28842 0.71669
 O1071 O 0.20067 0.22627 0.72772
 O1072 O 0.23896 0.26034 0.70578
 O1073 O 0.22468 0.23479 0.71011
 O1074 O 0.18577 0.25692 0.74592
 O1075 O 0.20023 0.28397 0.73848
 C1076 C 0.23061 0.24677 0.70065
 H1077 H 0.20310 0.23296 0.75861
 H1078 H 0.23090 0.29149 0.75011
 H1079 H 0.25559 0.23765 0.72057
 H1080 H 0.26415 0.24541 0.78192
 H1081 H 0.19128 0.28944 0.77032
 H1082 H 0.24837 0.30247 0.78764
 H1083 H 0.27624 0.28776 0.78684
 H1084 H 0.30046 0.24133 0.75679
 H1085 H 0.17641 0.26332 0.75175
 H1086 H 0.20066 0.21548 0.72098
 H1087 H 0.22927 0.20340 0.71669
 H1088 H 0.28747 0.21656 0.73556
 H1089 H 0.18890 0.28853 0.74238
 H1090 H 0.23999 0.29212 0.70762
 H1091 H 0.23796 0.21327 0.79908
 H1092 H 0.28807 0.21570 0.76387
 Zr1093 Zr 0.27560 0.76955 0.28264
 O1094 O 0.26759 0.78651 0.30188
 O1095 O 0.30153 0.76509 0.28891
 O1096 O 0.27574 0.75691 0.30581
 O1097 O 0.28336 0.80195 0.25432
 O1098 O 0.26001 0.73226 0.30099
 O1099 O 0.28809 0.79405 0.28103
 O1100 O 0.31079 0.74562 0.26949
 O1101 O 0.27821 0.74311 0.27700
 O1102 O 0.28752 0.76809 0.25944
 O1103 O 0.25019 0.75934 0.28307
 O1104 O 0.25937 0.78355 0.26652
 Zr1105 Zr 0.24807 0.74433 0.23668
 Zr1106 Zr 0.25278 0.73327 0.27606
 Zr1107 Zr 0.27090 0.78059 0.24318
 Zr1108 Zr 0.28930 0.74189 0.25352
 O1109 O 0.25788 0.80377 0.23692
 O1110 O 0.29640 0.71710 0.26236
 O1111 O 0.27363 0.75450 0.23605
 O1112 O 0.26443 0.73068 0.25282
 O1113 O 0.23590 0.74574 0.25980
 O1114 O 0.24569 0.77071 0.24251
 C1115 C 0.31319 0.75528 0.28238
 C1116 C 0.28938 0.80478 0.26893
 C1117 C 0.26881 0.74247 0.31049
 O1118 O 0.26473 0.70904 0.28034
 O1119 O 0.23744 0.71334 0.26571
 O1120 O 0.23418 0.72064 0.23869
 C1121 C 0.23155 0.71049 0.25106
 O1122 O 0.23222 0.79005 0.28582
 Zr1123 Zr 0.23456 0.77206 0.26589
 O1124 O 0.22210 0.74932 0.23032
 O1125 O 0.23026 0.73016 0.29079
 O1126 O 0.21433 0.76285 0.28137
 O1127 O 0.22606 0.79637 0.25696
 O1128 O 0.21270 0.76735 0.25090
 C1129 C 0.21031 0.75844 0.23758
 O1130 O 0.25539 0.72622 0.21815
 O1131 O 0.29442 0.78496 0.23023
 O1132 O 0.24997 0.75571 0.21303
 O1133 O 0.26644 0.77992 0.21761
 O1134 O 0.31038 0.75078 0.23892
 O1135 O 0.29261 0.72557 0.23246
 C1136 C 0.25801 0.76945 0.20806
 H1137 H 0.29915 0.77363 0.25916
 H1138 H 0.26538 0.71834 0.24944
 H1139 H 0.23864 0.77713 0.23439
 H1140 H 0.24496 0.76054 0.29420
 H1141 H 0.30905 0.71570 0.26043
 H1142 H 0.25714 0.70268 0.28813
 H1143 H 0.23090 0.71844 0.29569
 H1144 H 0.20398 0.77018 0.27944
 H1145 H 0.32047 0.74319 0.24119
 H1146 H 0.29359 0.79665 0.22531
 H1147 H 0.26564 0.81018 0.22933
 H1148 H 0.21349 0.79741 0.25953
 H1149 H 0.30403 0.71971 0.23311
 H1150 H 0.24519 0.72452 0.21078
 H1151 H 0.27782 0.78845 0.30914
 H1152 H 0.21994 0.79373 0.28688
 Zr1153 Zr 0.22743 0.76619 0.72337
 O1154 O 0.24061 0.78484 0.70893
 O1155 O 0.20380 0.76382 0.71094
 O1156 O 0.23185 0.75634 0.69924
 O1157 O 0.21351 0.79502 0.75345
 O1158 O 0.24567 0.73065 0.70366
 O1159 O 0.21551 0.79085 0.72558
 O1160 O 0.18975 0.74216 0.72458
 O1161 O 0.22284 0.73945 0.72459
 O1162 O 0.21005 0.76243 0.74291
 O1163 O 0.25198 0.75487 0.72684
 O1164 O 0.23962 0.77722 0.74433
 Zr1165 Zr 0.24229 0.73411 0.76995
 Zr1166 Zr 0.24707 0.72830 0.72943
 Zr1167 Zr 0.22257 0.77193 0.76393
 Zr1168 Zr 0.20624 0.73583 0.74459
 O1169 O 0.23412 0.79365 0.77583
 O1170 O 0.20082 0.71248 0.73150
 O1171 O 0.21750 0.74534 0.76661
 O1172 O 0.22999 0.72339 0.74898
 O1173 O 0.25982 0.73776 0.75048
 O1174 O 0.24671 0.76083 0.76846
 C1175 C 0.19090 0.75343 0.71294
 C1176 C 0.21141 0.79998 0.73845
 C1177 C 0.23914 0.74221 0.69414
 O1178 O 0.23592 0.70531 0.71954
 O1179 O 0.25914 0.70663 0.73998
 O1180 O 0.25583 0.71031 0.76776
 C1181 C 0.26129 0.70176 0.75500
 O1182 O 0.27108 0.78461 0.73232
 Zr1183 Zr 0.26333 0.76450 0.74857
 O1184 O 0.26607 0.73664 0.78237
 O1185 O 0.27238 0.72605 0.71936
 O1186 O 0.28653 0.75612 0.73683
 O1187 O 0.27014 0.78711 0.76225
 O1188 O 0.28064 0.75690 0.76732
 C1189 C 0.27947 0.74614 0.77934
 O1190 O 0.22975 0.71443 0.78365
 O1191 O 0.19666 0.77548 0.77212
 O1192 O 0.23596 0.74289 0.79403
 O1193 O 0.22119 0.76803 0.78955
 O1194 O 0.18222 0.74403 0.75488
 O1195 O 0.19736 0.71750 0.76217
 C1196 C 0.22750 0.75636 0.79910
 H1197 H 0.19880 0.76841 0.74135
 H1198 H 0.22795 0.71079 0.75035
 H1199 H 0.25185 0.76589 0.77862
 H1200 H 0.25973 0.75717 0.71733
 H1201 H 0.18801 0.71150 0.73043
 H1202 H 0.24503 0.69963 0.71274
 H1203 H 0.27262 0.71506 0.71291
 H1204 H 0.29634 0.76250 0.74204
 H1205 H 0.17287 0.73724 0.74936
 H1206 H 0.19650 0.78640 0.77866
 H1207 H 0.22485 0.79938 0.78239
 H1208 H 0.28302 0.78774 0.76266
 H1209 H 0.18617 0.71243 0.75841
 H1210 H 0.23777 0.71115 0.79268
 H1211 H 0.23256 0.78821 0.69995
 H1212 H 0.28344 0.78759 0.73434
 Zr1213 Zr 0.27247 0.23929 0.22523
 O1214 O 0.26074 0.22086 0.20917
 O1215 O 0.29710 0.24203 0.21475
 O1216 O 0.26968 0.24959 0.20120
 O1217 O 0.28395 0.20978 0.25516
 O1218 O 0.25547 0.27514 0.20565
 O1219 O 0.28440 0.21465 0.22741
 O1220 O 0.30992 0.26321 0.23039
 O1221 O 0.27680 0.26602 0.22780
 O1222 O 0.28810 0.24266 0.24616
 O1223 O 0.24764 0.25044 0.22739
 O1224 O 0.25863 0.22772 0.24480
 Zr1225 Zr 0.25360 0.27024 0.27186
 Zr1226 Zr 0.25217 0.27696 0.23132
 Zr1227 Zr 0.27394 0.23261 0.26579
 Zr1228 Zr 0.29163 0.26921 0.24914
 O1229 O 0.26138 0.21072 0.27604
 O1230 O 0.29798 0.29277 0.23720
 O1231 O 0.27862 0.25914 0.26985
 O1232 O 0.26754 0.28147 0.25227
 O1233 O 0.23780 0.26695 0.25100
 O1234 O 0.24943 0.24355 0.26907
 C1235 C 0.30983 0.25222 0.21828
 C1236 C 0.28745 0.20522 0.24019
 C1237 C 0.26262 0.26376 0.19613
 O1238 O 0.26401 0.30014 0.22307
 O1239 O 0.23921 0.29838 0.24177
 O1240 O 0.24029 0.29414 0.26956
 C1241 C 0.23586 0.30296 0.25676
 O1242 O 0.22851 0.22029 0.23047
 Zr1243 Zr 0.23459 0.24026 0.24783
 O1244 O 0.22871 0.26757 0.28215
 O1245 O 0.22768 0.27940 0.21965
 O1246 O 0.21242 0.24847 0.23445
 O1247 O 0.22674 0.21754 0.26043
 O1248 O 0.21556 0.24777 0.26515
 C1249 C 0.21556 0.25839 0.27752
 O1250 O 0.26478 0.28962 0.28726
 O1251 O 0.29911 0.22871 0.27566
 O1252 O 0.25826 0.26096 0.29601
 O1253 O 0.27359 0.23608 0.29152
 O1254 O 0.31466 0.26091 0.26108
 O1255 O 0.29893 0.28729 0.26789
 C1256 C 0.26666 0.24755 0.30108
 H1257 H 0.29948 0.23675 0.24526
 H1258 H 0.26941 0.29403 0.25424
 H1259 H 0.24348 0.23833 0.27867
 H1260 H 0.24068 0.24832 0.21728
 H1261 H 0.31084 0.29381 0.23710
 H1262 H 0.25544 0.30596 0.21586
 H1263 H 0.22789 0.29052 0.21361
 H1264 H 0.20227 0.24188 0.23865
 H1265 H 0.32446 0.26779 0.25656
 H1266 H 0.29872 0.21766 0.28180
 H1267 H 0.27009 0.20481 0.28303
 H1268 H 0.21387 0.21688 0.25985
 H1269 H 0.31034 0.29251 0.26508
 H1270 H 0.25598 0.29264 0.29578
 H1271 H 0.26956 0.21773 0.20072
 H1272 H 0.21611 0.21697 0.23161
 Zr1273 Zr 0.73271 0.73213 0.28109
 O1274 O 0.74495 0.71320 0.29581
 O1275 O 0.70928 0.73575 0.29352
 O1276 O 0.73728 0.74225 0.30510
 O1277 O 0.71756 0.70354 0.25130
 O1278 O 0.75231 0.76730 0.30046
 O1279 O 0.71960 0.70794 0.27914
 O1280 O 0.69663 0.75817 0.27992
 O1281 O 0.72953 0.75902 0.27950
 O1282 O 0.71556 0.73639 0.26151
 O1283 O 0.75783 0.74237 0.27760
 O1284 O 0.74441 0.72035 0.26028
 Zr1285 Zr 0.74933 0.76292 0.23418
 Zr1286 Zr 0.75429 0.76908 0.27465
 Zr1287 Zr 0.72766 0.72612 0.24061
 Zr1288 Zr 0.71314 0.76311 0.25949
 O1289 O 0.73805 0.70377 0.22891
 O1290 O 0.70888 0.78704 0.27194
 O1291 O 0.72397 0.75285 0.23759
 O1292 O 0.73751 0.77443 0.25500
 O1293 O 0.76665 0.75882 0.25372
 O1294 O 0.75235 0.73607 0.23605
 C1295 C 0.69720 0.74701 0.29169
 C1296 C 0.71520 0.69881 0.26634
 C1297 C 0.74500 0.75625 0.31007
 O1298 O 0.74439 0.79273 0.28416
 O1299 O 0.76745 0.79008 0.26385
 O1300 O 0.76391 0.78621 0.23612
 C1301 C 0.76972 0.79473 0.24877
 O1302 O 0.77555 0.71193 0.27263
 Zr1303 Zr 0.76875 0.73198 0.25600
 O1304 O 0.77288 0.75892 0.22167
 O1305 O 0.77961 0.77025 0.28486
 O1306 O 0.79232 0.73979 0.26752
 O1307 O 0.77445 0.70877 0.24285
 O1308 O 0.78633 0.73824 0.23697
 C1309 C 0.78565 0.74869 0.22468
 O1310 O 0.73790 0.78295 0.22018
 O1311 O 0.70160 0.72367 0.23248
 O1312 O 0.74259 0.75413 0.21020
 O1313 O 0.72660 0.72969 0.21492
 O1314 O 0.68864 0.75565 0.24962
 O1315 O 0.70515 0.78131 0.24147
 C1316 C 0.73353 0.74094 0.20526
 H1317 H 0.70402 0.73093 0.26319
 H1318 H 0.73610 0.78707 0.25346
 H1319 H 0.75721 0.73059 0.22597
 H1320 H 0.76539 0.73988 0.28719
 H1321 H 0.69613 0.78860 0.27297
 H1322 H 0.75376 0.79808 0.29094
 H1323 H 0.78039 0.78130 0.29117
 H1324 H 0.80184 0.73297 0.26239
 H1325 H 0.67970 0.76292 0.25510
 H1326 H 0.70086 0.71269 0.22606
 H1327 H 0.72849 0.69837 0.22243
 H1328 H 0.78728 0.70755 0.24251
 H1329 H 0.69413 0.78680 0.24504
 H1330 H 0.74609 0.78571 0.21110
 H1331 H 0.73672 0.71032 0.30483
 H1332 H 0.78784 0.70861 0.27083
 Zr1333 Zr 0.77124 0.26047 0.77196
 O1334 O 0.75977 0.27915 0.78787
 O1335 O 0.79596 0.25790 0.78230
 O1336 O 0.76840 0.25058 0.79615
 O1337 O 0.78274 0.28955 0.74159
 O1338 O 0.75397 0.22500 0.79212
 O1339 O 0.78325 0.28508 0.76940
 O1340 O 0.80853 0.23658 0.76674
 O1341 O 0.77534 0.23371 0.76974
 O1342 O 0.78670 0.25679 0.75098
 O1343 O 0.74630 0.24933 0.77007
 O1344 O 0.75736 0.27177 0.75232
 Zr1345 Zr 0.75184 0.22886 0.72585
 Zr1346 Zr 0.75060 0.22276 0.76649
 Zr1347 Zr 0.77250 0.26657 0.73131
 Zr1348 Zr 0.79000 0.23019 0.74833
 O1349 O 0.76001 0.28826 0.72079
 O1350 O 0.79631 0.20688 0.76063
 O1351 O 0.77695 0.23998 0.72758
 O1352 O 0.76580 0.21791 0.74551
 O1353 O 0.73620 0.23249 0.74677
 O1354 O 0.74790 0.25560 0.72828
 C1355 C 0.80866 0.24776 0.77868
 C1356 C 0.78632 0.29433 0.75649
 C1357 C 0.76120 0.23654 0.80145
 O1358 O 0.76231 0.19971 0.77502
 O1359 O 0.73742 0.20119 0.75642
 O1360 O 0.73833 0.20504 0.72856
 C1361 C 0.73391 0.19641 0.74151
 O1362 O 0.72737 0.27948 0.76666
 Zr1363 Zr 0.73321 0.25922 0.74957
 O1364 O 0.72689 0.23133 0.71571
 O1365 O 0.72613 0.22051 0.77829
 O1366 O 0.71106 0.25129 0.76323
 O1367 O 0.72548 0.28172 0.73664
 O1368 O 0.71399 0.25138 0.73253
 C1369 C 0.71381 0.24052 0.72036
 O1370 O 0.76277 0.20923 0.71067
 O1371 O 0.79765 0.27042 0.72128
 O1372 O 0.75651 0.23774 0.70155
 O1373 O 0.77214 0.26262 0.70565
 O1374 O 0.81294 0.23828 0.73599
 O1375 O 0.79700 0.21173 0.72985
 C1376 C 0.76510 0.25101 0.69628
 H1377 H 0.79812 0.26272 0.75171
 H1378 H 0.76756 0.20532 0.74371
 H1379 H 0.74193 0.26065 0.71863
 H1380 H 0.73940 0.25162 0.78019
 H1381 H 0.80916 0.20584 0.76062
 H1382 H 0.75374 0.19401 0.78235
 H1383 H 0.72628 0.20949 0.78451
 H1384 H 0.70093 0.25782 0.75900
 H1385 H 0.82275 0.23152 0.74053
 H1386 H 0.79728 0.28137 0.71497
 H1387 H 0.76871 0.29405 0.71366
 H1388 H 0.71262 0.28238 0.73725
 H1389 H 0.80843 0.20663 0.73261
 H1390 H 0.75390 0.20608 0.70225
 H1391 H 0.76867 0.28239 0.79623
 H1392 H 0.71502 0.28285 0.76548
 C1393 C 0.44941 1.01680 0.31216
 C1394 C 0.44508 1.02783 0.32528
 C1395 C 0.43109 1.03923 0.32367
 C1396 C 0.42134 1.03949 0.30908
 C1397 C 0.42531 1.02822 0.29571
 C1398 C 0.43971 1.01697 0.29757
 C1399 C 0.45462 1.02707 0.34058
 C1400 C 0.46222 1.02634 0.35360
 C1401 C 0.47047 1.02549 0.36916
 C1402 C 0.47675 1.02492 0.38280
 C1403 C 0.48305 1.02456 0.39956
 C1404 C 0.47636 1.03644 0.41103
 C1405 C 0.48068 1.03518 0.42770
 C1406 C 0.49181 1.02198 0.43323
 C1407 C 0.49913 1.01052 0.42154
 C1408 C 0.49468 1.01176 0.40478
 H1409 H 0.46031 1.00800 0.31321
 H1410 H 0.42751 1.04774 0.33383
 H1411 H 0.41021 1.04801 0.30879
 H1412 H 0.44403 1.00859 0.28762
 H1413 H 0.46734 1.04639 0.40716
 H1414 H 0.47490 1.04429 0.43635
 H1415 H 0.50765 1.00016 0.42542
 H1416 H 0.49988 1.00243 0.39601
 C1417 C -0.05581 0.50544 0.81272
 C1418 C -0.06010 0.51639 0.82592
 C1419 C -0.07375 0.52818 0.82423
 C1420 C -0.08314 0.52899 0.80945
 C1421 C -0.07913 0.51791 0.79594
 C1422 C -0.06515 0.50617 0.79793
 C1423 C -0.05070 0.51535 0.84129
 C1424 C -0.04313 0.51455 0.85432
 C1425 C -0.03479 0.51384 0.86986
 C1426 C -0.02832 0.51360 0.88344
 C1427 C -0.02163 0.51391 0.90009
 C1428 C -0.02709 0.52705 0.91088
 C1429 C -0.02213 0.52684 0.92744
 C1430 C -0.01156 0.51347 0.93355
 C1431 C -0.00556 0.50061 0.92250
 C1432 C -0.01065 0.50080 0.90585
 H1433 H -0.04516 0.49635 0.81382
 H1434 H -0.07730 0.53664 0.83443
 H1435 H -0.09400 0.53785 0.80906
 H1436 H -0.06080 0.49787 0.78793
 H1437 H -0.03558 0.53725 0.90659
 H1438 H -0.02690 0.53702 0.93555
 H1439 H 0.00251 0.49010 0.92684
 H1440 H -0.00638 0.49052 0.89761
 C1441 C 0.06575 -0.00554 0.81880
 C1442 C 0.05562 -0.02000 0.82291
 C1443 C 0.05572 -0.03469 0.81261
 C1444 C 0.06588 -0.03492 0.79827
 C1445 C 0.07611 -0.02044 0.79402
 C1446 C 0.07591 -0.00574 0.80447
 C1447 C 0.04557 -0.01991 0.83795
 C1448 C 0.03756 -0.01984 0.85077
 C1449 C 0.02880 -0.01985 0.86613
 C1450 C 0.02205 -0.02002 0.87959
 C1451 C 0.01510 -0.02049 0.89611
 C1452 C 0.02133 -0.03291 0.90708
 C1453 C 0.01632 -0.03245 0.92365
 C1454 C 0.00493 -0.01954 0.92955
 C1455 C -0.00190 -0.00753 0.91830
 C1456 C 0.00324 -0.00796 0.90168
 H1457 H 0.06588 0.00585 0.82673
 H1458 H 0.04797 -0.04597 0.81568
 H1459 H 0.06556 -0.04634 0.79038
 H1460 H 0.08379 0.00552 0.80167
 H1461 H 0.03053 -0.04265 0.90295
 H1462 H 0.02176 -0.04195 0.93194
 H1463 H -0.01058 0.00265 0.92248
 H1464 H -0.00162 0.00178 0.89330
 C1465 C 0.57653 0.47034 0.32739
 C1466 C 0.56040 0.47869 0.32823
 C1467 C 0.55335 0.48609 0.31402
 C1468 C 0.56245 0.48530 0.29908
 C1469 C 0.57877 0.47710 0.29814
 C1470 C 0.58566 0.46953 0.31245
 C1471 C 0.55131 0.47992 0.34377
 C1472 C 0.54413 0.48090 0.35700
 C1473 C 0.53642 0.48185 0.37282
 C1474 C 0.53062 0.48235 0.38666
 C1475 C 0.52491 0.48244 0.40362
 C1476 C 0.51155 0.49341 0.40910
 C1477 C 0.50708 0.49404 0.42591
 C1478 C 0.51607 0.48379 0.43739
 C1479 C 0.52917 0.47254 0.43160
 C1480 C 0.53352 0.47189 0.41490
 H1481 H 0.58215 0.46461 0.33832
 H1482 H 0.54086 0.49255 0.31451
 H1483 H 0.55668 0.49103 0.28823
 H1484 H 0.59826 0.46329 0.31218
 H1485 H 0.50482 0.50168 0.40046
 H1486 H 0.49698 0.50287 0.42996
 H1487 H 0.53628 0.46437 0.44003
 H1488 H 0.54387 0.46335 0.41082
 C1489 C 0.55303 0.51100 0.18997
 C1490 C 0.55989 0.51862 0.17576
 C1491 C 0.57593 0.52728 0.17655
 C1492 C 0.58514 0.52820 0.19144
 C1493 C 0.57844 0.52043 0.20576
 C1494 C 0.56222 0.51190 0.20487
 C1495 C 0.55069 0.51732 0.16028
 C1496 C 0.54339 0.51632 0.14711
 C1497 C 0.53551 0.51542 0.13136
 C1498 C 0.52956 0.51505 0.11757
 C1499 C 0.52369 0.51527 0.10066
 C1500 C 0.53187 0.52650 0.08964
 C1501 C 0.52734 0.52627 0.07298
 C1502 C 0.51449 0.51478 0.06697
 C1503 C 0.50593 0.50381 0.07819
 C1504 C 0.51058 0.50402 0.09497
 H1505 H 0.54062 0.50431 0.18954
 H1506 H 0.58139 0.53318 0.16561
 H1507 H 0.59766 0.53469 0.19167
 H1508 H 0.55658 0.50601 0.21572
 H1509 H 0.54201 0.53526 0.09389
 H1510 H 0.53412 0.53501 0.06476
 H1511 H 0.49603 0.49480 0.07395
 H1512 H 0.50418 0.49523 0.10340
 C1513 C 0.05377 1.01290 0.68659
 C1514 C 0.05861 1.02358 0.67352
 C1515 C 0.07292 1.03467 0.67531
 C1516 C 0.08244 1.03504 0.69003
 C1517 C 0.07791 1.02418 0.70339
 C1518 C 0.06325 1.01317 0.70133
 C1519 C 0.04920 1.02286 0.65813
 C1520 C 0.04171 1.02225 0.64504
 C1521 C 0.03358 1.02165 0.62938
 C1522 C 0.02739 1.02135 0.61569
 C1523 C 0.02117 1.02137 0.59889
 C1524 C 0.02909 1.03243 0.58755
 C1525 C 0.02447 1.03167 0.57090
 C1526 C 0.01179 1.01980 0.56526
 C1527 C 0.00339 1.00911 0.57683
 C1528 C 0.00813 1.00985 0.59356
 H1529 H 0.04263 1.00433 0.68540
 H1530 H 0.07690 1.04291 0.66520
 H1531 H 0.09381 1.04332 0.69047
 H1532 H 0.05853 1.00510 0.71123
 H1533 H 0.03919 1.04140 0.59150
 H1534 H 0.03113 1.04018 0.56239
 H1535 H -0.00636 0.99979 0.57288
 H1536 H 0.00194 1.00117 0.60224
 C1537 C -0.05779 0.46246 0.68388
 C1538 C -0.05775 0.47746 0.67426
 C1539 C -0.06793 0.49166 0.67903
 C1540 C -0.07805 0.49092 0.69337
 C1541 C -0.07814 0.47593 0.70317
 C1542 C -0.06790 0.46168 0.69824
 C1543 C -0.04770 0.47814 0.65924
 C1544 C -0.03969 0.47868 0.64643
 C1545 C -0.03099 0.47916 0.63106
 C1546 C -0.02434 0.47930 0.61755
 C1547 C -0.01762 0.47904 0.60093
 C1548 C -0.02434 0.46693 0.58966
 C1549 C -0.01952 0.46753 0.57307
 C1550 C -0.00784 0.48027 0.56743
 C1551 C -0.00052 0.49197 0.57894
 C1552 C -0.00548 0.49141 0.59561
 H1553 H -0.05001 0.45135 0.68028
 H1554 H -0.06813 0.50329 0.67162
 H1555 H -0.08595 0.50201 0.69669
 H1556 H -0.06751 0.45005 0.70561
 H1557 H -0.03374 0.45731 0.59360
 H1558 H -0.02531 0.45824 0.56457
 H1559 H 0.00842 0.50199 0.57496
 H1560 H -0.00023 0.50091 0.60423
 C1561 C 0.44901 -0.01046 0.18902
 C1562 C 0.44220 -0.01907 0.17516
 C1563 C 0.42606 -0.02747 0.17624
 C1564 C 0.41675 -0.02725 0.19109
 C1565 C 0.42345 -0.01858 0.20508
 C1566 C 0.43972 -0.01021 0.20388
 C1567 C 0.45160 -0.01915 0.15974
 C1568 C 0.45909 -0.01930 0.14664
 C1569 C 0.46723 -0.01965 0.13098
 C1570 C 0.47345 -0.02015 0.11730
 C1571 C 0.47976 -0.02108 0.10055
 C1572 C 0.47237 -0.03320 0.08966
 C1573 C 0.47693 -0.03321 0.07298
 C1574 C 0.48901 -0.02109 0.06687
 C1575 C 0.49695 -0.00938 0.07801
 C1576 C 0.49227 -0.00934 0.09476
 H1577 H 0.46150 -0.00394 0.18834
 H1578 H 0.42063 -0.03413 0.16558
 H1579 H 0.40419 -0.03364 0.19156
 H1580 H 0.44535 -0.00364 0.21448
 H1581 H 0.46268 -0.04234 0.09397
 H1582 H 0.47063 -0.04247 0.06478
 H1583 H 0.50620 0.00018 0.07368
 H1584 H 0.49804 0.00015 0.10308
 C1585 C 0.33342 0.39234 0.01816
 C1586 C 0.33203 0.40984 0.01394
 C1587 C 0.31564 0.41674 0.01026
 C1588 C 0.30071 0.40624 0.01102
 C1589 C 0.30198 0.38870 0.01554
 C1590 C 0.31856 0.38186 0.01894
 C1591 C 0.34748 0.42059 0.01350
 C1592 C 0.36060 0.42929 0.01317
 C1593 C 0.37615 0.43922 0.01264
 C1594 C 0.38948 0.44757 0.01186
 C1595 C 0.40541 0.45747 0.01030
 C1596 C 0.41008 0.46412 -0.00509
 C1597 C 0.42557 0.47345 -0.00694
 C1598 C 0.43675 0.47635 0.00661
 C1599 C 0.43192 0.46970 0.02211
 C1600 C 0.41636 0.46031 0.02392
 H1601 H 0.34600 0.38679 0.02093
 H1602 H 0.31437 0.43026 0.00695
 H1603 H 0.28815 0.41193 0.00845
 H1604 H 0.32005 0.36835 0.02218
 H1605 H 0.40177 0.46202 -0.01573
 H1606 H 0.42878 0.47836 -0.01906
 H1607 H 0.44021 0.47162 0.03279
 H1608 H 0.41292 0.45521 0.03591
 C1609 C -0.18103 0.91051 0.50318
 C1610 C -0.17145 0.91462 0.51738
 C1611 C -0.17703 0.90844 0.53266
 C1612 C -0.19183 0.89791 0.53374
 C1613 C -0.20149 0.89314 0.51948
 C1614 C -0.19591 0.89999 0.50418
 C1615 C -0.15564 0.92475 0.51629
 C1616 C -0.14226 0.93299 0.51544
 C1617 C -0.12646 0.94244 0.51432
 C1618 C -0.11293 0.95039 0.51306
 C1619 C -0.09678 0.95977 0.51096
 C1620 C -0.08620 0.96392 0.52455
 C1621 C -0.07044 0.97284 0.52227
 C1622 C -0.06504 0.97771 0.50634
 C1623 C -0.07583 0.97347 0.49281
 C1624 C -0.09152 0.96460 0.49512
 H1625 H -0.17681 0.91516 0.49124
 H1626 H -0.16987 0.91170 0.54379
 H1627 H -0.19583 0.89396 0.54595
 H1628 H -0.20233 0.89657 0.49273
 H1629 H -0.09010 0.96022 0.53689
 H1630 H -0.06247 0.97583 0.53296
 H1631 H -0.07217 0.97698 0.48036
 H1632 H -0.09955 0.96147 0.48450
 C1633 C -0.17190 0.11024 0.97852
 C1634 C -0.17329 0.09256 0.98204
 C1635 C -0.18966 0.08539 0.98554
 C1636 C -0.20458 0.09582 0.98528
 C1637 C -0.20330 0.11355 0.98144
 C1638 C -0.18674 0.12065 0.97824
 C1639 C -0.15783 0.08195 0.98206
 C1640 C -0.14463 0.07349 0.98209
 C1641 C -0.12894 0.06392 0.98240
 C1642 C -0.11545 0.05595 0.98314
 C1643 C -0.09931 0.04660 0.98487
 C1644 C -0.09280 0.04352 1.00068
 C1645 C -0.07728 0.03445 1.00273
 C1646 C -0.06789 0.02822 0.98895
 C1647 C -0.07445 0.03148 0.97303
 C1648 C -0.09007 0.04062 0.97102
 H1649 H -0.15932 0.11599 0.97592
 H1650 H -0.19091 0.07173 0.98834
 H1651 H -0.21713 0.08995 0.98770
 H1652 H -0.18525 0.13430 0.97554
 H1653 H -0.09978 0.04811 1.01150
 H1654 H -0.07271 0.03225 1.01518
 H1655 H -0.06758 0.02690 0.96216
 H1656 H -0.09495 0.04296 0.95870
 C1657 C 0.32472 0.58965 0.47177
 C1658 C 0.33235 0.58601 0.48704
 C1659 C 0.32490 0.59270 0.50154
 C1660 C 0.31013 0.60327 0.50076
 C1661 C 0.30263 0.60735 0.48543
 C1662 C 0.30998 0.60021 0.47096
 C1663 C 0.34814 0.57591 0.48777
 C1664 C 0.36149 0.56770 0.48840
 C1665 C 0.37724 0.55826 0.48933
 C1666 C 0.39072 0.55033 0.49047
 C1667 C 0.40682 0.54094 0.49243
 C1668 C 0.41176 0.53539 0.50813
 C1669 C 0.42742 0.52654 0.51033
 C1670 C 0.43848 0.52304 0.49682
 C1671 C 0.43338 0.52861 0.48102
 C1672 C 0.41766 0.53751 0.47886
 H1673 H 0.33031 0.58452 0.46046
 H1674 H 0.33069 0.59002 0.51344
 H1675 H 0.30492 0.60871 0.51210
 H1676 H 0.30439 0.60290 0.45898
 H1677 H 0.40353 0.53796 0.51873
 H1678 H 0.43084 0.52246 0.52267
 H1679 H 0.44157 0.52620 0.47037
 H1680 H 0.41400 0.54177 0.46664
 C1681 C 0.18142 0.59331 0.50173
 C1682 C 0.17437 0.58646 0.51626
 C1683 C 0.18261 0.58977 0.53138
 C1684 C 0.19755 0.60018 0.53204
 C1685 C 0.20450 0.60751 0.51757
 C1686 C 0.19640 0.60373 0.50237
 C1687 C 0.15838 0.57652 0.51578
 C1688 C 0.14488 0.56841 0.51542
 C1689 C 0.12896 0.55909 0.51481
 C1690 C 0.11534 0.55123 0.51391
 C1691 C 0.09908 0.54191 0.51210
 C1692 C 0.08904 0.53744 0.52590
 C1693 C 0.07325 0.52845 0.52386
 C1694 C 0.06729 0.52383 0.50795
 C1695 C 0.07754 0.52843 0.49422
 C1696 C 0.09324 0.53736 0.49629
 H1697 H 0.17516 0.59087 0.48995
 H1698 H 0.17736 0.58452 0.54270
 H1699 H 0.20361 0.60263 0.54391
 H1700 H 0.20130 0.60929 0.49104
 H1701 H 0.09339 0.54091 0.53822
 H1702 H 0.06571 0.52517 0.53470
 H1703 H 0.07346 0.52513 0.48178
 H1704 H 0.10085 0.54074 0.48551
 C1705 C 0.68295 0.08396 0.00854
 C1706 C 0.66649 0.09058 0.01250
 C1707 C 0.66478 0.10817 0.01659
 C1708 C 0.67939 0.11902 0.01695
 C1709 C 0.69604 0.11247 0.01324
 C1710 C 0.69764 0.09483 0.00887
 C1711 C 0.65129 0.07948 0.01241
 C1712 C 0.63834 0.07052 0.01232
 C1713 C 0.62297 0.06031 0.01201
 C1714 C 0.60975 0.05177 0.01134
 C1715 C 0.59390 0.04173 0.00980
 C1716 C 0.58402 0.03733 0.02372
 C1717 C 0.56850 0.02783 0.02192
 C1718 C 0.56266 0.02263 0.00614
 C1719 C 0.57277 0.02711 -0.00772
 C1720 C 0.58821 0.03654 -0.00589
 H1721 H 0.68447 0.07038 0.00532
 H1722 H 0.65212 0.11350 0.01957
 H1723 H 0.67765 0.13258 0.02009
 H1724 H 0.71027 0.08935 0.00608
 H1725 H 0.58826 0.04130 0.03595
 H1726 H 0.56105 0.02466 0.03285
 H1727 H 0.56877 0.02335 -0.02007
 H1728 H 0.59569 0.03986 -0.01676
 C1729 C 0.67894 0.90834 0.47081
 C1730 C 0.67037 0.91171 0.48576
 C1731 C 0.67718 0.90509 0.50046
 C1732 C 0.69227 0.89492 0.50018
 C1733 C 0.70076 0.89117 0.48517
 C1734 C 0.69400 0.89818 0.47051
 C1735 C 0.65439 0.92157 0.48593
 C1736 C 0.64092 0.92965 0.48613
 C1737 C 0.62505 0.93898 0.48660
 C1738 C 0.61148 0.94684 0.48742
 C1739 C 0.59527 0.95617 0.48914
 C1740 C 0.58879 0.95978 0.50493
 C1741 C 0.57317 0.96878 0.50691
 C1742 C 0.56364 0.97440 0.49309
 C1743 C 0.57021 0.97069 0.47720
 C1744 C 0.58592 0.96163 0.47526
 H1745 H 0.67388 0.91343 0.45935
 H1746 H 0.67067 0.90756 0.51211
 H1747 H 0.69700 0.88959 0.51166
 H1748 H 0.70035 0.89578 0.45878
 H1749 H 0.59585 0.95564 0.51578
 H1750 H 0.56861 0.97136 0.51935
 H1751 H 0.56324 0.97477 0.46630
 H1752 H 0.59076 0.95891 0.46294
 C1753 C 0.17616 0.39985 1.00078
 C1754 C 0.16907 0.40702 0.98643
 C1755 C 0.17792 0.40513 0.97142
 C1756 C 0.19351 0.39585 0.97065
 C1757 C 0.20055 0.38824 0.98491
 C1758 C 0.19181 0.39056 1.00005
 C1759 C 0.15255 0.41594 0.98697
 C1760 C 0.13866 0.42328 0.98730
 C1761 C 0.12236 0.43184 0.98780
 C1762 C 0.10848 0.43918 0.98855
 C1763 C 0.09201 0.44806 0.99012
 C1764 C 0.08303 0.45394 0.97618
 C1765 C 0.06739 0.46314 0.97800
 C1766 C 0.06056 0.46663 0.99383
 C1767 C 0.06957 0.46035 1.00770
 C1768 C 0.08511 0.45118 1.00584
 H1769 H 0.16946 0.40120 1.01249
 H1770 H 0.17265 0.41067 0.96024
 H1771 H 0.20004 0.39454 0.95885
 H1772 H 0.19678 0.38474 1.01121
 H1773 H 0.08821 0.45161 0.96392
 H1774 H 0.06084 0.46778 0.96707
 H1775 H 0.06476 0.46270 1.02009
 H1776 H 0.09187 0.44670 1.01673
 C1777 C -0.00084 0.33323 0.36427
 C1778 C -0.00843 0.33091 0.37980
 C1779 C -0.01306 0.31429 0.38505
 C1780 C -0.00932 0.29990 0.37511
 C1781 C -0.00083 0.30203 0.35987
 C1782 C 0.00292 0.31885 0.35433
 C1783 C -0.00952 0.34528 0.39108
 C1784 C -0.00948 0.35722 0.40070
 C1785 C -0.00857 0.37114 0.41198
 C1786 C -0.00737 0.38311 0.42151
 C1787 C -0.00576 0.39760 0.43260
 C1788 C -0.01564 0.41246 0.42987
 C1789 C -0.01392 0.42677 0.44037
 C1790 C -0.00226 0.42642 0.45378
 C1791 C 0.00766 0.41140 0.45641
 C1792 C 0.00591 0.39706 0.44585
 H1793 H 0.00285 0.34606 0.36017
 H1794 H -0.01879 0.31240 0.39712
 H1795 H -0.01213 0.28707 0.37979
 H1796 H 0.00933 0.32082 0.34257
 H1797 H -0.02464 0.41300 0.41959
 H1798 H -0.02176 0.43811 0.43793
 H1799 H 0.01673 0.41070 0.46662
 H1800 H 0.01366 0.38559 0.44799
 C1801 C 0.48469 -0.17365 -0.13528
 C1802 C 0.49870 -0.16625 -0.12668
 C1803 C 0.51535 -0.17325 -0.12827
 C1804 C 0.51799 -0.18793 -0.13807
 C1805 C 0.50397 -0.19578 -0.14648
 C1806 C 0.48732 -0.18838 -0.14517
 C1807 C 0.49608 -0.15214 -0.11535
 C1808 C 0.49471 -0.14062 -0.10536
 C1809 C 0.49390 -0.12742 -0.09335
 C1810 C 0.49367 -0.11618 -0.08299
 C1811 C 0.49370 -0.10266 -0.07075
 C1812 C 0.50574 -0.10293 -0.05779
 C1813 C 0.50621 -0.08934 -0.04626
 C1814 C 0.49463 -0.07535 -0.04764
 C1815 C 0.48244 -0.07537 -0.06064
 C1816 C 0.48201 -0.08894 -0.07211
 H1817 H 0.47174 -0.16830 -0.13406
 H1818 H 0.52622 -0.16766 -0.12154
 H1819 H 0.53088 -0.19354 -0.13848
 H1820 H 0.47633 -0.19414 -0.15157
 H1821 H 0.51487 -0.11354 -0.05671
 H1822 H 0.51574 -0.08971 -0.03643
 H1823 H 0.47333 -0.06481 -0.06210
 H1824 H 0.47269 -0.08862 -0.08214
 C1825 C -0.00042 -0.18189 1.11031
 C1826 C -0.00981 -0.16721 1.11515
 C1827 C -0.02165 -0.16812 1.12823
 C1828 C -0.02452 -0.18388 1.13613
 C1829 C -0.01558 -0.19885 1.13096
 C1830 C -0.00326 -0.19765 1.11819
 C1831 C -0.00840 -0.15166 1.10573
 C1832 C -0.00765 -0.13899 1.09726
 C1833 C -0.00717 -0.12458 1.08684
 C1834 C -0.00696 -0.11250 1.07759
 C1835 C -0.00679 -0.09830 1.06635
 C1836 C -0.01791 -0.09847 1.05268
 C1837 C -0.01761 -0.08472 1.04158
 C1838 C -0.00614 -0.07069 1.04407
 C1839 C 0.00497 -0.07068 1.05790
 C1840 C 0.00463 -0.08442 1.06896
 H1841 H 0.00867 -0.18130 1.10009
 H1842 H -0.02901 -0.15679 1.13200
 H1843 H -0.03393 -0.18446 1.14607
 H1844 H 0.00364 -0.20904 1.11386
 H1845 H -0.02677 -0.10922 1.05059
 H1846 H -0.02633 -0.08512 1.03108
 H1847 H 0.01391 -0.06005 1.06024
 H1848 H 0.01328 -0.08423 1.07953
 C1849 C 0.50165 0.33331 0.63421
 C1850 C 0.51067 0.33013 0.61950
 C1851 C 0.51490 0.31314 0.61486
 C1852 C 0.50934 0.29927 0.62452
 C1853 C 0.49939 0.30232 0.63882
 C1854 C 0.49604 0.31948 0.64385
 C1855 C 0.51348 0.34406 0.60821
 C1856 C 0.51464 0.35578 0.59861
 C1857 C 0.51484 0.36959 0.58742
 C1858 C 0.51431 0.38158 0.57807
 C1859 C 0.51315 0.39618 0.56731
 C1860 C 0.52339 0.41083 0.57043
 C1861 C 0.52164 0.42547 0.56062
 C1862 C 0.50957 0.42566 0.54753
 C1863 C 0.49942 0.41077 0.54439
 C1864 C 0.50120 0.39611 0.55427
 H1865 H 0.49824 0.34644 0.63783
 H1866 H 0.52173 0.31057 0.60339
 H1867 H 0.51191 0.28617 0.62027
 H1868 H 0.48851 0.32213 0.65489
 H1869 H 0.53259 0.41101 0.58057
 H1870 H 0.52972 0.43667 0.56339
 H1871 H 0.49005 0.41048 0.53441
 H1872 H 0.49314 0.38481 0.55186
 C1873 C 0.49491 1.16321 0.64043
 C1874 C 0.48791 1.16496 0.62459
 C1875 C 0.48371 1.18138 0.61863
 C1876 C 0.48738 1.19613 0.62813
 C1877 C 0.49537 1.19457 0.64366
 C1878 C 0.49858 1.17795 0.64996
 C1879 C 0.48717 1.15026 0.61368
 C1880 C 0.48750 1.13820 0.60418
 C1881 C 0.48870 1.12435 0.59286
 C1882 C 0.49010 1.11258 0.58314
 C1883 C 0.49187 1.09846 0.57165
 C1884 C 0.50371 1.09954 0.55855
 C1885 C 0.50537 1.08570 0.54739
 C1886 C 0.49516 1.07067 0.54925
 C1887 C 0.48337 1.06975 0.56255
 C1888 C 0.48176 1.08356 0.57365
 H1889 H 0.49828 1.15052 0.64509
 H1890 H 0.47844 1.18284 0.60631
 H1891 H 0.48500 1.20876 0.62285
 H1892 H 0.50460 1.17641 0.66195
 H1893 H 0.51162 1.11106 0.55696
 H1894 H 0.51454 1.08682 0.53730
 H1895 H 0.47534 1.05836 0.56442
 H1896 H 0.47261 1.08261 0.58379
 C1897 C 0.03142 0.67588 1.12201
 C1898 C 0.01553 0.66796 1.11837
 C1899 C 0.00007 0.67503 1.12441
 C1900 C 0.00043 0.69035 1.13370
 C1901 C 0.01634 0.69895 1.13709
 C1902 C 0.03188 0.69117 1.13130
 C1903 C 0.01502 0.65314 1.10763
 C1904 C 0.01451 0.64100 1.09827
 C1905 C 0.01364 0.62701 1.08711
 C1906 C 0.01253 0.61508 1.07755
 C1907 C 0.01065 0.60075 1.06636
 C1908 C 0.02142 0.59923 1.05249
 C1909 C 0.01941 0.58516 1.04166
 C1910 C 0.00657 0.57251 1.04463
 C1911 C -0.00423 0.57428 1.05859
 C1912 C -0.00218 0.58831 1.06936
 H1913 H 0.04344 0.67051 1.11722
 H1914 H -0.01230 0.66884 1.12173
 H1915 H -0.01181 0.69520 1.13840
 H1916 H 0.04443 0.69732 1.13290
 H1917 H 0.03136 0.60888 1.05010
 H1918 H 0.02794 0.58415 1.03105
 H1919 H -0.01420 0.56477 1.06131
 H1920 H -0.01058 0.58943 1.08007
 C1921 C 0.48740 0.67000 -0.12351
 C1922 C 0.50126 0.67249 -0.11262
 C1923 C 0.51045 0.68815 -0.11252
 C1924 C 0.50528 0.70162 -0.12283
 C1925 C 0.49059 0.69970 -0.13323
 C1926 C 0.48213 0.68340 -0.13374
 C1927 C 0.50493 0.65939 -0.10072
 C1928 C 0.50687 0.64818 -0.09071
 C1929 C 0.50799 0.63472 -0.07921
 C1930 C 0.50824 0.62284 -0.06974
 C1931 C 0.50799 0.60815 -0.05906
 C1932 C 0.49562 0.60700 -0.04643
 C1933 C 0.49446 0.59197 -0.03697
 C1934 C 0.50562 0.57791 -0.04017
 C1935 C 0.51820 0.57939 -0.05274
 C1936 C 0.51934 0.59440 -0.06212
 H1937 H 0.48034 0.65780 -0.12379
 H1938 H 0.52117 0.69018 -0.10403
 H1939 H 0.51209 0.71386 -0.12159
 H1940 H 0.47143 0.68083 -0.14210
 H1941 H 0.48668 0.61758 -0.04409
 H1942 H 0.48467 0.59125 -0.02738
 H1943 H 0.52709 0.56887 -0.05549
 H1944 H 0.52887 0.59515 -0.07196
 C1945 C -0.00451 1.16360 0.36331
 C1946 C 0.00709 1.16565 0.37644
 C1947 C 0.01476 1.18178 0.37957
 C1948 C 0.01010 1.19612 0.37017
 C1949 C -0.00261 1.19459 0.35759
 C1950 C -0.00927 1.17788 0.35392
 C1951 C 0.00941 1.15174 0.38781
 C1952 C 0.01031 1.14022 0.39766
 C1953 C 0.01036 1.12684 0.40930
 C1954 C 0.00982 1.11534 0.41918
 C1955 C 0.00881 1.10139 0.43070
 C1956 C 0.01926 1.08680 0.42841
 C1957 C 0.01782 1.07283 0.43911
 C1958 C 0.00585 1.07326 0.45229
 C1959 C -0.00453 1.08808 0.45458
 C1960 C -0.00306 1.10207 0.44381
 H1961 H -0.01040 1.15107 0.36072
 H1962 H 0.02367 1.18348 0.38983
 H1963 H 0.01544 1.20855 0.37387
 H1964 H -0.01830 1.17572 0.34384
 H1965 H 0.02842 1.08615 0.41824
 H1966 H 0.02605 1.06166 0.43697
 H1967 H -0.01386 1.08883 0.46459
 H1968 H -0.01126 1.11333 0.44560
 C1969 C 0.78649 0.69089 0.93306
 C1970 C 0.77044 0.69259 0.92514
 C1971 C 0.75561 0.68514 0.93211
 C1972 C 0.75674 0.67610 0.94696
 C1973 C 0.77284 0.67424 0.95528
 C1974 C 0.78772 0.68183 0.94792
 C1975 C 0.76924 0.70147 0.90958
 C1976 C 0.76823 0.70850 0.89635
 C1977 C 0.76721 0.71609 0.88055
 C1978 C 0.76665 0.72183 0.86674
 C1979 C 0.76655 0.72754 0.84983
 C1980 C 0.77819 0.71998 0.83866
 C1981 C 0.77758 0.72422 0.82197
 C1982 C 0.76527 0.73617 0.81608
 C1983 C 0.75391 0.74416 0.82746
 C1984 C 0.75451 0.73980 0.84425
 H1985 H 0.79809 0.69663 0.92778
 H1986 H 0.74314 0.68613 0.92595
 H1987 H 0.74497 0.67000 0.95139
 H1988 H 0.80032 0.68149 0.95384
 H1989 H 0.78756 0.71049 0.84280
 H1990 H 0.78662 0.71790 0.81363
 H1991 H 0.74426 0.75335 0.82332
 H1992 H 0.74539 0.74571 0.85279
 C1993 C 0.28374 0.18265 0.42772
 C1994 C 0.27226 0.19658 0.42635
 C1995 C 0.26136 0.20078 0.43956
 C1996 C 0.26175 0.19101 0.45402
 C1997 C 0.27310 0.17667 0.45564
 C1998 C 0.28423 0.17283 0.44216
 C1999 C 0.27134 0.20623 0.41119
 C2000 C 0.27055 0.21392 0.39829
 C2001 C 0.26977 0.22228 0.38284
 C2002 C 0.26940 0.22865 0.36928
 C2003 C 0.26949 0.23504 0.35260
 C2004 C 0.28158 0.22827 0.34141
 C2005 C 0.28098 0.23290 0.32482
 C2006 C 0.26825 0.24446 0.31907
 C2007 C 0.25652 0.25179 0.33049
 C2008 C 0.25708 0.24702 0.34718
 H2009 H 0.29217 0.17917 0.41749
 H2010 H 0.25251 0.21165 0.43871
 H2011 H 0.25347 0.19524 0.46406
 H2012 H 0.29281 0.16175 0.44227
 H2013 H 0.29124 0.21900 0.34543
 H2014 H 0.29031 0.22710 0.31641
 H2015 H 0.24652 0.26064 0.32642
 H2016 H 0.24760 0.25231 0.35573
 C2017 C 0.71922 0.32178 0.42456
 C2018 C 0.72692 0.30534 0.42404
 C2019 C 0.73467 0.29870 0.43826
 C2020 C 0.73488 0.30850 0.45289
 C2021 C 0.72734 0.32512 0.45349
 C2022 C 0.71940 0.33160 0.43918
 C2023 C 0.72719 0.29552 0.40881
 C2024 C 0.72745 0.28769 0.39584
 C2025 C 0.72767 0.27916 0.38031
 C2026 C 0.72768 0.27265 0.36670
 C2027 C 0.72736 0.26609 0.34997
 C2028 C 0.71539 0.27303 0.33887
 C2029 C 0.71603 0.26840 0.32219
 C2030 C 0.72866 0.25671 0.31629
 C2031 C 0.74019 0.24916 0.32763
 C2032 C 0.73959 0.25392 0.34440
 H2033 H 0.71322 0.32708 0.41361
 H2034 H 0.74064 0.28599 0.43803
 H2035 H 0.74086 0.30303 0.46376
 H2036 H 0.71365 0.34441 0.43920
 H2037 H 0.70588 0.28246 0.34301
 H2038 H 0.70688 0.27437 0.31382
 H2039 H 0.75012 0.24021 0.32346
 H2040 H 0.74897 0.24851 0.35288
 C2041 C 0.23508 0.80306 0.93821
 C2042 C 0.22407 0.80743 0.92520
 C2043 C 0.21277 0.82148 0.92698
 C2044 C 0.21245 0.83114 0.94168
 C2045 C 0.22350 0.82699 0.95506
 C2046 C 0.23485 0.81269 0.95295
 C2047 C 0.22450 0.79775 0.90988
 C2048 C 0.22473 0.79006 0.89683
 C2049 C 0.22481 0.78171 0.88121
 C2050 C 0.22469 0.77534 0.86754
 C2051 C 0.22425 0.76886 0.85078
 C2052 C 0.21272 0.77630 0.83956
 C2053 C 0.21329 0.77162 0.82289
 C2054 C 0.22544 0.75935 0.81711
 C2055 C 0.23652 0.75135 0.82857
 C2056 C 0.23598 0.75615 0.84532
 H2057 H 0.24383 0.79213 0.93702
 H2058 H 0.20431 0.82513 0.91690
 H2059 H 0.20396 0.84229 0.94211
 H2060 H 0.24316 0.80831 0.96282
 H2061 H 0.20360 0.78615 0.84362
 H2062 H 0.20451 0.77797 0.81443
 H2063 H 0.24609 0.74195 0.82450
 H2064 H 0.24502 0.75034 0.85389
 C2065 C 0.25191 0.80873 0.06666
 C2066 C 0.26244 0.81420 0.07976
 C2067 C 0.27441 0.82763 0.07736
 C2068 C 0.27579 0.83567 0.06198
 C2069 C 0.26509 0.83051 0.04857
 C2070 C 0.25319 0.81673 0.05127
 C2071 C 0.26077 0.80627 0.09576
 C2072 C 0.25945 0.79997 0.10930
 C2073 C 0.25818 0.79315 0.12542
 C2074 C 0.25752 0.78801 0.13944
 C2075 C 0.25744 0.78291 0.15654
 C2076 C 0.26689 0.79285 0.16795
 C2077 C 0.26701 0.78840 0.18459
 C2078 C 0.25766 0.77384 0.19022
 C2079 C 0.24819 0.76383 0.17866
 C2080 C 0.24808 0.76837 0.16190
 H2081 H 0.24269 0.79822 0.06831
 H2082 H 0.28257 0.83207 0.08747
 H2083 H 0.28473 0.84646 0.06104
 H2084 H 0.24517 0.81153 0.04143
 H2085 H 0.27418 0.80412 0.16397
 H2086 H 0.27449 0.79643 0.19304
 H2087 H 0.24085 0.75257 0.18255
 H2088 H 0.24069 0.76057 0.15317
 C2089 C 0.78151 0.31823 0.57182
 C2090 C 0.77295 0.30216 0.57154
 C2091 C 0.76539 0.29610 0.55686
 C2092 C 0.76617 0.30617 0.54259
 C2093 C 0.77451 0.32247 0.54281
 C2094 C 0.78232 0.32831 0.55756
 C2095 C 0.77155 0.29216 0.58645
 C2096 C 0.77040 0.28424 0.59919
 C2097 C 0.76926 0.27568 0.61452
 C2098 C 0.76864 0.26921 0.62802
 C2099 C 0.76853 0.26279 0.64468
 C2100 C 0.75552 0.25143 0.65022
 C2101 C 0.75475 0.24682 0.66694
 C2102 C 0.76688 0.25372 0.67827
 C2103 C 0.78022 0.26460 0.67239
 C2104 C 0.78102 0.26906 0.65577
 H2105 H 0.78737 0.32308 0.58313
 H2106 H 0.75877 0.28368 0.55647
 H2107 H 0.76026 0.30118 0.53137
 H2108 H 0.78867 0.34086 0.55818
 H2109 H 0.74573 0.24655 0.64174
 H2110 H 0.74429 0.23849 0.67112
 H2111 H 0.78985 0.27002 0.68074
 H2112 H 0.79114 0.27785 0.65165
 C2113 C 0.21835 0.17899 0.57435
 C2114 C 0.22606 0.19548 0.57485
 C2115 C 0.23385 0.20213 0.56061
 C2116 C 0.23405 0.19231 0.54600
 C2117 C 0.22646 0.17566 0.54541
 C2118 C 0.21852 0.16915 0.55975
 C2119 C 0.22629 0.20533 0.59007
 C2120 C 0.22648 0.21316 0.60305
 C2121 C 0.22665 0.22166 0.61859
 C2122 C 0.22667 0.22813 0.63222
 C2123 C 0.22645 0.23467 0.64896
 C2124 C 0.23843 0.24726 0.65433
 C2125 C 0.23926 0.25199 0.67109
 C2126 C 0.22821 0.24401 0.68265
 C2127 C 0.21578 0.23190 0.67696
 C2128 C 0.21491 0.22730 0.66028
 H2129 H 0.21235 0.17367 0.58531
 H2130 H 0.23984 0.21488 0.56082
 H2131 H 0.24004 0.19779 0.53511
 H2132 H 0.21275 0.15632 0.55976
 H2133 H 0.24748 0.25301 0.64568
 H2134 H 0.24904 0.26126 0.67510
 H2135 H 0.20701 0.22558 0.68550
 H2136 H 0.20560 0.21754 0.65630
 C2137 C 0.71573 0.69138 0.06832
 C2138 C 0.73041 0.69090 0.07854
 C2139 C 0.74489 0.68113 0.07373
 C2140 C 0.74475 0.67192 0.05876
 C2141 C 0.73007 0.67234 0.04838
 C2142 C 0.71555 0.68217 0.05334
 C2143 C 0.73049 0.70009 0.09413
 C2144 C 0.73056 0.70745 0.10736
 C2145 C 0.73058 0.71551 0.12311
 C2146 C 0.73050 0.72174 0.13684
 C2147 C 0.73020 0.72817 0.15362
 C2148 C 0.74215 0.74076 0.15905
 C2149 C 0.74276 0.74561 0.17578
 C2150 C 0.73150 0.73779 0.18726
 C2151 C 0.71916 0.72561 0.18152
 C2152 C 0.71853 0.72086 0.16486
 H2153 H 0.70442 0.69887 0.07192
 H2154 H 0.75628 0.68056 0.08159
 H2155 H 0.75605 0.66431 0.05540
 H2156 H 0.70415 0.68295 0.04553
 H2157 H 0.75130 0.74645 0.15047
 H2158 H 0.75248 0.75493 0.17981
 H2159 H 0.71025 0.71938 0.18999
 H2160 H 0.70925 0.71110 0.16082
 C2161 C 0.14028 0.58836 0.23421
 C2162 C 0.15785 0.58788 0.23867
 C2163 C 0.16558 0.57192 0.24235
 C2164 C 0.15583 0.55652 0.24135
 C2165 C 0.13822 0.55687 0.23660
 C2166 C 0.13054 0.57302 0.23320
 C2167 C 0.16783 0.60382 0.23941
 C2168 C 0.17589 0.61732 0.24001
 C2169 C 0.18514 0.63326 0.24088
 C2170 C 0.19299 0.64685 0.24200
 C2171 C 0.20243 0.66299 0.24401
 C2172 C 0.20889 0.66760 0.25959
 C2173 C 0.21818 0.68306 0.26182
 C2174 C 0.22124 0.69429 0.24847
 C2175 C 0.21459 0.68963 0.23283
 C2176 C 0.20526 0.67408 0.23063
 H2177 H 0.13409 0.60060 0.23145
 H2178 H 0.17917 0.57136 0.24584
 H2179 H 0.16216 0.54432 0.24393
 H2180 H 0.11695 0.57382 0.22980
 H2181 H 0.20678 0.65920 0.27006
 H2182 H 0.22303 0.68614 0.27406
 H2183 H 0.21667 0.69793 0.22228
 H2184 H 0.20031 0.67069 0.21849
 C2185 C 0.66434 0.05884 0.73767
 C2186 C 0.65741 0.07522 0.73424
 C2187 C 0.63965 0.07677 0.73082
 C2188 C 0.62892 0.06208 0.73057
 C2189 C 0.63577 0.04551 0.73371
 C2190 C 0.65360 0.04408 0.73744
 C2191 C 0.66837 0.09052 0.73417
 C2192 C 0.67716 0.10356 0.73410
 C2193 C 0.68716 0.11907 0.73422
 C2194 C 0.69551 0.13239 0.73472
 C2195 C 0.70536 0.14836 0.73606
 C2196 C 0.70902 0.15842 0.72213
 C2197 C 0.71837 0.17404 0.72376
 C2198 C 0.72415 0.17981 0.73939
 C2199 C 0.72040 0.16952 0.75326
 C2200 C 0.71112 0.15399 0.75159
 H2201 H 0.67807 0.05745 0.74038
 H2202 H 0.63408 0.08935 0.72826
 H2203 H 0.61522 0.06370 0.72794
 H2204 H 0.65929 0.03151 0.73980
 H2205 H 0.70460 0.15425 0.71002
 H2206 H 0.72096 0.18162 0.71283
 H2207 H 0.72462 0.17345 0.76550
 H2208 H 0.70837 0.14638 0.76248
 C2209 C 0.84116 0.06820 0.24958
 C2210 C 0.83682 0.07743 0.26395
 C2211 C 0.84283 0.07163 0.27919
 C2212 C 0.85339 0.05693 0.28010
 C2213 C 0.85834 0.04760 0.26569
 C2214 C 0.85170 0.05342 0.25041
 C2215 C 0.82655 0.09307 0.26312
 C2216 C 0.81817 0.10629 0.26255
 C2217 C 0.80852 0.12189 0.26182
 C2218 C 0.80040 0.13525 0.26092
 C2219 C 0.79080 0.15123 0.25925
 C2220 C 0.78624 0.16121 0.27315
 C2221 C 0.77710 0.17680 0.27129
 C2222 C 0.77241 0.18262 0.25547
 C2223 C 0.77705 0.17243 0.24162
 C2224 C 0.78614 0.15691 0.24352
 H2225 H 0.83664 0.07260 0.23767
 H2226 H 0.83940 0.07851 0.29045
 H2227 H 0.85716 0.05274 0.29228
 H2228 H 0.85527 0.04724 0.23887
 H2229 H 0.78980 0.15697 0.28541
 H2230 H 0.77380 0.18431 0.28221
 H2231 H 0.77368 0.17643 0.22925
 H2232 H 0.78958 0.14935 0.23266
 C2233 C 0.33234 0.56561 0.75905
 C2234 C 0.33742 0.58150 0.76604
 C2235 C 0.35372 0.58298 0.77351
 C2236 C 0.36484 0.56872 0.77416
 C2237 C 0.35996 0.55240 0.76737
 C2238 C 0.34346 0.55123 0.75964
 C2239 C 0.32617 0.59647 0.76542
 C2240 C 0.31720 0.60932 0.76498
 C2241 C 0.30711 0.62465 0.76433
 C2242 C 0.29876 0.63787 0.76341
 C2243 C 0.28903 0.65375 0.76162
 C2244 C 0.28416 0.66371 0.77544
 C2245 C 0.27504 0.67930 0.77342
 C2246 C 0.27072 0.68515 0.75751
 C2247 C 0.27566 0.67496 0.74375
 C2248 C 0.28471 0.65945 0.74581
 H2249 H 0.31971 0.56427 0.75323
 H2250 H 0.35795 0.59528 0.77874
 H2251 H 0.37757 0.57091 0.77948
 H2252 H 0.33866 0.53910 0.75458
 H2253 H 0.28747 0.65948 0.78776
 H2254 H 0.27150 0.68680 0.78427
 H2255 H 0.27258 0.67896 0.73131
 H2256 H 0.28842 0.65192 0.73501
 C2257 C 0.35572 0.42178 0.73317
 C2258 C 0.33790 0.42374 0.73616
 C2259 C 0.33113 0.44037 0.73905
 C2260 C 0.34211 0.45495 0.73874
 C2261 C 0.36000 0.45307 0.73546
 C2262 C 0.36667 0.43628 0.73285
 C2263 C 0.32678 0.40859 0.73624
 C2264 C 0.31796 0.39557 0.73633
 C2265 C 0.30808 0.38002 0.73666
 C2266 C 0.29995 0.36660 0.73737
 C2267 C 0.29051 0.35045 0.73897
 C2268 C 0.28627 0.34449 0.75473
 C2269 C 0.27757 0.32869 0.75663
 C2270 C 0.27290 0.31849 0.74278
 C2271 C 0.27712 0.32462 0.72693
 C2272 C 0.28589 0.34049 0.72506
 H2273 H 0.36116 0.40900 0.73104
 H2274 H 0.31737 0.44207 0.74141
 H2275 H 0.33657 0.46770 0.74069
 H2276 H 0.38042 0.43433 0.73059
 H2277 H 0.28978 0.35202 0.76560
 H2278 H 0.27454 0.32448 0.76903
 H2279 H 0.27379 0.31710 0.71601
 H2280 H 0.28916 0.34493 0.71278
 C2281 C 0.85821 0.91740 0.22714
 C2282 C 0.84236 0.91750 0.23557
 C2283 C 0.83663 0.93286 0.24310
 C2284 C 0.84662 0.94808 0.24210
 C2285 C 0.86262 0.94832 0.23340
 C2286 C 0.86822 0.93252 0.22608
 C2287 C 0.83218 0.90174 0.23654
 C2288 C 0.82399 0.88836 0.23728
 C2289 C 0.81465 0.87252 0.23828
 C2290 C 0.80685 0.85894 0.23947
 C2291 C 0.79765 0.84272 0.24151
 C2292 C 0.79484 0.83637 0.25741
 C2293 C 0.78590 0.82076 0.25969
 C2294 C 0.77957 0.81114 0.24606
 C2295 C 0.78253 0.81756 0.23007
 C2296 C 0.79152 0.83325 0.22783
 H2297 H 0.86294 0.90554 0.22146
 H2298 H 0.82434 0.93313 0.24965
 H2299 H 0.84129 0.95972 0.24761
 H2300 H 0.88069 0.93144 0.21998
 H2301 H 0.79953 0.84353 0.26811
 H2302 H 0.78391 0.81630 0.27219
 H2303 H 0.77786 0.81052 0.21931
 H2304 H 0.79364 0.83800 0.21544
 C2305 C 0.65535 0.92449 0.77959
 C2306 C 0.65829 0.91608 0.76445
 C2307 C 0.65122 0.92300 0.74999
 C2308 C 0.64100 0.93803 0.75071
 C2309 C 0.63765 0.94633 0.76593
 C2310 C 0.64514 0.93948 0.78033
 C2311 C 0.66816 0.90015 0.76386
 C2312 C 0.67627 0.88673 0.76338
 C2313 C 0.68568 0.87093 0.76265
 C2314 C 0.69367 0.85747 0.76169
 C2315 C 0.70323 0.84143 0.75991
 C2316 C 0.70847 0.83591 0.74419
 C2317 C 0.71779 0.82050 0.74218
 C2318 C 0.72211 0.81024 0.75590
 C2319 C 0.71673 0.81584 0.77171
 C2320 C 0.70736 0.83133 0.77368
 H2321 H 0.66079 0.91934 0.79087
 H2322 H 0.65336 0.91663 0.73819
 H2323 H 0.63529 0.94284 0.73942
 H2324 H 0.64305 0.94569 0.79222
 H2325 H 0.70537 0.84355 0.73342
 H2326 H 0.72167 0.81668 0.72982
 H2327 H 0.71977 0.80829 0.78254
 H2328 H 0.70336 0.83543 0.78593
 C2329 C 0.15711 0.43318 0.25177
 C2330 C 0.16402 0.42640 0.26637
 C2331 C 0.16086 0.43492 0.28140
 C2332 C 0.15054 0.44984 0.28192
 C2333 C 0.14314 0.45649 0.26739
 C2334 C 0.14678 0.44814 0.25226
 C2335 C 0.17385 0.41043 0.26604
 C2336 C 0.18186 0.39695 0.26583
 C2337 C 0.19111 0.38105 0.26541
 C2338 C 0.19892 0.36747 0.26466
 C2339 C 0.20823 0.35126 0.26301
 C2340 C 0.21223 0.34120 0.27684
 C2341 C 0.22122 0.32547 0.27494
 C2342 C 0.22632 0.31959 0.25914
 C2343 C 0.22218 0.32985 0.24537
 C2344 C 0.21324 0.34549 0.24730
 H2345 H 0.15942 0.42671 0.24004
 H2346 H 0.16617 0.42989 0.29278
 H2347 H 0.14822 0.45609 0.29374
 H2348 H 0.14116 0.45282 0.24088
 H2349 H 0.20839 0.34550 0.28909
 H2350 H 0.22413 0.31793 0.28581
 H2351 H 0.22585 0.32583 0.23301
 H2352 H 0.21024 0.35310 0.23649
 C2353 C 0.08319 0.23529 0.88705
 C2354 C 0.09210 0.24894 0.87949
 C2355 C 0.08551 0.26578 0.88035
 C2356 C 0.06970 0.26893 0.88816
 C2357 C 0.06026 0.25525 0.89531
 C2358 C 0.06735 0.23844 0.89500
 C2359 C 0.10696 0.24575 0.86928
 C2360 C 0.11888 0.24411 0.85982
 C2361 C 0.13221 0.24329 0.84799
 C2362 C 0.14322 0.24332 0.83747
 C2363 C 0.15608 0.24397 0.82470
 C2364 C 0.15421 0.25569 0.81173
 C2365 C 0.16695 0.25674 0.79948
 C2366 C 0.18170 0.24604 0.80012
 C2367 C 0.18333 0.23418 0.81317
 C2368 C 0.17059 0.23318 0.82538
 H2369 H 0.08819 0.22218 0.88633
 H2370 H 0.09224 0.27638 0.87435
 H2371 H 0.06447 0.28195 0.88782
 H2372 H 0.06043 0.22769 0.90052
 H2373 H 0.14297 0.26412 0.81116
 H2374 H 0.16531 0.26600 0.78964
 H2375 H 0.19453 0.22576 0.81408
 H2376 H 0.17213 0.22410 0.83540
 C2377 C 0.59176 0.75598 0.39716
 C2378 C 0.59174 0.74655 0.38232
 C2379 C 0.57625 0.73947 0.37620
 C2380 C 0.56062 0.74265 0.38436
 C2381 C 0.56031 0.75297 0.39877
 C2382 C 0.57611 0.75912 0.40541
 C2383 C 0.60698 0.74599 0.37216
 C2384 C 0.61911 0.74606 0.36281
 C2385 C 0.63264 0.74650 0.35118
 C2386 C 0.64390 0.74690 0.34090
 C2387 C 0.65720 0.74713 0.32853
 C2388 C 0.67107 0.73558 0.32963
 C2389 C 0.68397 0.73550 0.31756
 C2390 C 0.68317 0.74702 0.30417
 C2391 C 0.66914 0.75862 0.30315
 C2392 C 0.65620 0.75864 0.31529
 H2393 H 0.60372 0.76156 0.40193
 H2394 H 0.57612 0.73230 0.36462
 H2395 H 0.54868 0.73799 0.37876
 H2396 H 0.57624 0.76697 0.41657
 H2397 H 0.67191 0.72661 0.33982
 H2398 H 0.69461 0.72643 0.31880
 H2399 H 0.66816 0.76766 0.29304
 H2400 H 0.64542 0.76761 0.31435
 C2401 C 0.58488 0.24404 0.11154
 C2402 C 0.58341 0.25449 0.12568
 C2403 C 0.56722 0.26113 0.13037
 C2404 C 0.55235 0.25661 0.12142
 C2405 C 0.55357 0.24531 0.10773
 C2406 C 0.57003 0.23950 0.10257
 C2407 C 0.59799 0.25646 0.13654
 C2408 C 0.60992 0.25716 0.14610
 C2409 C 0.62359 0.25707 0.15759
 C2410 C 0.63518 0.25647 0.16750
 C2411 C 0.64906 0.25542 0.17924
 C2412 C 0.64810 0.24360 0.19223
 C2413 C 0.66187 0.24228 0.20341
 C2414 C 0.67673 0.25280 0.20166
 C2415 C 0.67746 0.26470 0.18857
 C2416 C 0.66372 0.26597 0.17745
 H2417 H 0.59737 0.23878 0.10789
 H2418 H 0.56596 0.26907 0.14141
 H2419 H 0.53982 0.26108 0.12580
 H2420 H 0.57130 0.23091 0.09198
 H2421 H 0.63677 0.23534 0.19365
 H2422 H 0.66089 0.23300 0.21333
 H2423 H 0.68871 0.27299 0.18682
 H2424 H 0.66457 0.27512 0.16739
 C2425 C 0.06753 0.76435 0.62949
 C2426 C 0.08390 0.75876 0.62419
 C2427 C 0.08563 0.74978 0.60919
 C2428 C 0.07086 0.74559 0.59993
 C2429 C 0.05424 0.75027 0.60566
 C2430 C 0.05276 0.76017 0.62027
 C2431 C 0.09848 0.76020 0.63513
 C2432 C 0.11036 0.76046 0.64475
 C2433 C 0.12395 0.75991 0.65631
 C2434 C 0.13546 0.75899 0.66629
 C2435 C 0.14920 0.75765 0.67814
 C2436 C 0.14781 0.74599 0.69123
 C2437 C 0.16136 0.74454 0.70263
 C2438 C 0.17643 0.75479 0.70102
 C2439 C 0.17763 0.76647 0.68778
 C2440 C 0.16410 0.76787 0.67644
 H2441 H 0.06608 0.77115 0.64118
 H2442 H 0.09827 0.74533 0.60505
 H2443 H 0.07235 0.73810 0.58864
 H2444 H 0.04012 0.76373 0.62510
 H2445 H 0.13628 0.73799 0.69259
 H2446 H 0.16002 0.73544 0.71266
 H2447 H 0.18905 0.77454 0.68612
 H2448 H 0.16529 0.77689 0.66631
 C2449 C 0.91672 0.75748 0.61774
 C2450 C 0.91942 0.74685 0.63134
 C2451 C 0.93558 0.73909 0.63376
 C2452 C 0.94934 0.74262 0.62303
 C2453 C 0.94719 0.75426 0.60977
 C2454 C 0.93041 0.76111 0.60701
 C2455 C 0.90597 0.74514 0.64347
 C2456 C 0.89463 0.74449 0.65365
 C2457 C 0.88117 0.74439 0.66537
 C2458 C 0.86934 0.74456 0.67506
 C2459 C 0.85473 0.74474 0.68605
 C2460 C 0.85361 0.75710 0.69878
 C2461 C 0.83885 0.75768 0.70887
 C2462 C 0.82506 0.74592 0.70623
 C2463 C 0.82648 0.73346 0.69346
 C2464 C 0.84121 0.73291 0.68346
 H2465 H 0.90414 0.76338 0.61567
 H2466 H 0.93776 0.73087 0.64434
 H2467 H 0.96188 0.73723 0.62608
 H2468 H 0.92772 0.76933 0.59656
 H2469 H 0.86404 0.76637 0.70079
 H2470 H 0.83816 0.76740 0.71858
 H2471 H 0.81617 0.72417 0.69108
 H2472 H 0.84195 0.72336 0.67359
 C2473 C 0.42847 0.26753 0.13296
 C2474 C 0.42091 0.25110 0.13428
 C2475 C 0.42680 0.23737 0.12436
 C2476 C 0.44033 0.24011 0.11311
 C2477 C 0.44795 0.25664 0.11169
 C2478 C 0.44192 0.27029 0.12178
 C2479 C 0.40701 0.24869 0.14580
 C2480 C 0.39528 0.24763 0.15555
 C2481 C 0.38146 0.24733 0.16688
 C2482 C 0.36946 0.24763 0.17637
 C2483 C 0.35487 0.24839 0.18733
 C2484 C 0.35471 0.26027 0.20049
 C2485 C 0.34008 0.26154 0.21068
 C2486 C 0.32546 0.25094 0.20773
 C2487 C 0.32586 0.23896 0.19449
 C2488 C 0.34047 0.23772 0.18437
 H2489 H 0.42402 0.27821 0.14065
 H2490 H 0.42096 0.22461 0.12531
 H2491 H 0.44475 0.22940 0.10546
 H2492 H 0.44782 0.28305 0.12123
 H2493 H 0.36581 0.26865 0.20279
 H2494 H 0.34020 0.27087 0.22076
 H2495 H 0.31485 0.23057 0.19185
 H2496 H 0.34047 0.22856 0.17414
 C2497 C 0.43839 0.76248 0.36368
 C2498 C 0.43419 0.75007 0.35159
 C2499 C 0.44245 0.73395 0.35146
 C2500 C 0.45458 0.73005 0.36363
 C2501 C 0.45855 0.74222 0.37611
 C2502 C 0.45061 0.75861 0.37588
 C2503 C 0.42031 0.75306 0.34020
 C2504 C 0.40810 0.75470 0.33110
 C2505 C 0.39322 0.75580 0.32113
 C2506 C 0.37997 0.75627 0.31330
 C2507 C 0.36362 0.75654 0.30485
 C2508 C 0.35046 0.76743 0.31068
 C2509 C 0.33407 0.76698 0.30336
 C2510 C 0.33061 0.75557 0.29007
 C2511 C 0.34400 0.74476 0.28418
 C2512 C 0.36042 0.74522 0.29158
 H2513 H 0.43191 0.77494 0.36393
 H2514 H 0.43921 0.72425 0.34218
 H2515 H 0.46078 0.71745 0.36337
 H2516 H 0.45346 0.76817 0.38538
 H2517 H 0.35280 0.77613 0.32104
 H2518 H 0.32412 0.77556 0.30817
 H2519 H 0.34177 0.73587 0.27396
 H2520 H 0.37054 0.73663 0.28710
 C2521 C 0.94071 0.25779 0.85255
 C2522 C 0.92435 0.25102 0.85658
 C2523 C 0.92247 0.24004 0.87011
 C2524 C 0.93702 0.23526 0.87924
 C2525 C 0.95360 0.24142 0.87490
 C2526 C 0.95530 0.25307 0.86174
 C2527 C 0.90975 0.25376 0.84596
 C2528 C 0.89736 0.25491 0.83701
 C2529 C 0.88274 0.25508 0.82664
 C2530 C 0.87011 0.25447 0.81793
 C2531 C 0.85490 0.25311 0.80779
 C2532 C 0.84032 0.26318 0.81147
 C2533 C 0.82524 0.26137 0.80204
 C2534 C 0.82458 0.24941 0.78878
 C2535 C 0.83936 0.23935 0.78518
 C2536 C 0.85444 0.24120 0.79466
 H2537 H 0.94227 0.26619 0.84199
 H2538 H 0.90985 0.23469 0.87325
 H2539 H 0.93539 0.22642 0.88945
 H2540 H 0.96799 0.25786 0.85810
 H2541 H 0.84055 0.27234 0.82170
 H2542 H 0.81411 0.26933 0.80516
 H2543 H 0.83930 0.23007 0.77506
 H2544 H 0.86568 0.23328 0.79182
 C2545 C 0.56976 1.02800 0.68482
 C2546 C 0.56369 1.01200 0.67898
 C2547 C 0.56922 0.99677 0.68658
 C2548 C 0.58099 0.99750 0.69977
 C2549 C 0.58769 1.01356 0.70560
 C2550 C 0.58155 1.02882 0.69794
 C2551 C 0.55260 1.01123 0.66460
 C2552 C 0.54391 1.01070 0.65218
 C2553 C 0.53453 1.01003 0.63714
 C2554 C 0.52740 1.00925 0.62387
 C2555 C 0.52017 1.00789 0.60746
 C2556 C 0.50789 1.01985 0.60173
 C2557 C 0.50251 1.01935 0.58516
 C2558 C 0.50951 1.00698 0.57414
 C2559 C 0.52133 0.99468 0.58023
 C2560 C 0.52658 0.99514 0.59671
 H2561 H 0.56548 1.03991 0.67912
 H2562 H 0.56473 0.98425 0.68206
 H2563 H 0.58544 0.98530 0.70469
 H2564 H 0.58537 1.04158 0.70227
 H2565 H 0.50290 1.02985 0.60991
 H2566 H 0.49350 1.02906 0.58081
 H2567 H 0.52690 0.98493 0.57212
 H2568 H 0.53609 0.98584 0.60096
 C2569 C 0.07227 0.53584 1.18717
 C2570 C 0.07045 0.52022 1.17840
 C2571 C 0.07978 0.50559 1.18340
 C2572 C 0.09105 0.50664 1.19696
 C2573 C 0.09321 0.52238 1.20568
 C2574 C 0.08353 0.53692 1.20072
 C2575 C 0.05967 0.51940 1.16382
 C2576 C 0.05109 0.51870 1.15133
 C2577 C 0.04171 0.51769 1.13632
 C2578 C 0.03442 0.51649 1.12315
 C2579 C 0.02681 0.51447 1.10695
 C2580 C 0.01490 0.52655 1.10080
 C2581 C 0.00883 0.52506 1.08449
 C2582 C 0.01476 0.51155 1.07415
 C2583 C 0.02633 0.49924 1.08066
 C2584 C 0.03226 0.50070 1.09689
 H2585 H 0.06514 0.54724 1.18344
 H2586 H 0.07856 0.49345 1.17666
 H2587 H 0.09841 0.49527 1.20036
 H2588 H 0.08468 0.54915 1.20732
 H2589 H 0.01064 0.53732 1.10846
 H2590 H 0.00003 0.53480 1.07982
 H2591 H 0.03109 0.48862 1.07309
 H2592 H 0.04147 0.49128 1.10147
 C2593 C -0.07646 -0.00000 1.18398
 C2594 C -0.07034 -0.01494 1.17601
 C2595 C -0.07516 -0.03123 1.18189
 C2596 C -0.08628 -0.03264 1.19547
 C2597 C -0.09299 -0.01771 1.20355
 C2598 C -0.08757 -0.00132 1.19763
 C2599 C -0.05985 -0.01364 1.16129
 C2600 C -0.05159 -0.01272 1.14863
 C2601 C -0.04264 -0.01167 1.13341
 C2602 C -0.03577 -0.01066 1.12004
 C2603 C -0.02871 -0.00914 1.10360
 C2604 C -0.01594 -0.02061 1.09776
 C2605 C -0.01043 -0.01989 1.08125
 C2606 C -0.01777 -0.00778 1.07040
 C2607 C -0.03020 0.00399 1.07658
 C2608 C -0.03559 0.00330 1.09302
 H2609 H -0.07294 0.01271 1.17944
 H2610 H -0.07041 -0.04291 1.17589
 H2611 H -0.08914 -0.04556 1.19981
 H2612 H -0.09254 0.01062 1.20287
 H2613 H -0.01057 -0.03037 1.10582
 H2614 H -0.00093 -0.02920 1.07685
 H2615 H -0.03607 0.01354 1.06861
 H2616 H -0.04549 0.01222 1.09736
 C2617 C 0.42896 0.49861 0.68939
 C2618 C 0.43430 0.48301 0.68208
 C2619 C 0.42766 0.46734 0.68791
 C2620 C 0.41549 0.46723 0.70074
 C2621 C 0.40954 0.48288 0.70808
 C2622 C 0.41681 0.49858 0.70227
 C2623 C 0.44570 0.48312 0.66793
 C2624 C 0.45462 0.48326 0.65565
 C2625 C 0.46417 0.48368 0.64073
 C2626 C 0.47136 0.48444 0.62750
 C2627 C 0.47853 0.48602 0.61112
 C2628 C 0.49174 0.47499 0.60536
 C2629 C 0.49735 0.47593 0.58888
 C2630 C 0.48965 0.48779 0.57800
 C2631 C 0.47676 0.49909 0.58411
 C2632 C 0.47129 0.49820 0.60049
 H2633 H 0.43388 0.51086 0.68485
 H2634 H 0.43177 0.45515 0.68242
 H2635 H 0.41120 0.45470 0.70509
 H2636 H 0.41253 0.51104 0.70694
 H2637 H 0.49739 0.46544 0.61347
 H2638 H 0.50724 0.46702 0.58451
 H2639 H 0.47065 0.50849 0.57614
 H2640 H 0.46107 0.50679 0.60477
 C2641 C 0.42487 0.50723 -0.18351
 C2642 C 0.43301 0.52264 -0.17835
 C2643 C 0.42959 0.53808 -0.18667
 C2644 C 0.41785 0.53820 -0.19987
 C2645 C 0.40930 0.52286 -0.20491
 C2646 C 0.41312 0.50732 -0.19671
 C2647 C 0.44399 0.52275 -0.16391
 C2648 C 0.45256 0.52267 -0.15142
 C2649 C 0.46172 0.52222 -0.13629
 C2650 C 0.46860 0.52134 -0.12292
 C2651 C 0.47542 0.51951 -0.10644
 C2652 C 0.48901 0.53003 -0.10048
 C2653 C 0.49452 0.52863 -0.08400
 C2654 C 0.48635 0.51679 -0.07334
 C2655 C 0.47300 0.50607 -0.07964
 C2656 C 0.46763 0.50742 -0.09601
 H2657 H 0.42731 0.49521 -0.17709
 H2658 H 0.43577 0.55010 -0.18278
 H2659 H 0.41538 0.55033 -0.20608
 H2660 H 0.40663 0.49534 -0.20017
 H2661 H 0.49512 0.53948 -0.10845
 H2662 H 0.50478 0.53710 -0.07950
 H2663 H 0.46650 0.49671 -0.07186
 H2664 H 0.45712 0.49921 -0.10045
 C2665 C -0.08782 1.02116 0.32427
 C2666 C -0.07051 1.01625 0.32168
 C2667 C -0.06498 1.01156 0.30577
 C2668 C -0.07669 1.01189 0.29252
 C2669 C -0.09409 1.01694 0.29501
 C2670 C -0.09952 1.02150 0.31107
 C2671 C -0.05869 1.01582 0.33551
 C2672 C -0.04947 1.01543 0.34757
 C2673 C -0.03958 1.01478 0.36228
 C2674 C -0.03209 1.01389 0.37535
 C2675 C -0.02455 1.01227 0.39157
 C2676 C -0.03133 0.99977 0.40221
 C2677 C -0.02567 0.99900 0.41854
 C2678 C -0.01305 1.01072 0.42457
 C2679 C -0.00573 1.02284 0.41366
 C2680 C -0.01155 1.02367 0.39724
 H2681 H -0.09230 1.02470 0.33653
 H2682 H -0.05162 1.00770 0.30361
 H2683 H -0.07207 1.00849 0.28028
 H2684 H -0.11287 1.02520 0.31346
 H2685 H -0.04140 0.99090 0.39801
 H2686 H -0.03148 0.98942 0.42656
 H2687 H 0.00392 1.03210 0.41797
 H2688 H -0.00626 1.03346 0.38913
 C2689 C 0.07706 0.50161 0.31675
 C2690 C 0.06909 0.48617 0.32177
 C2691 C 0.07275 0.47067 0.31334
 C2692 C 0.08453 0.47055 0.30017
 C2693 C 0.09289 0.48595 0.29524
 C2694 C 0.08885 0.50153 0.30356
 C2695 C 0.05799 0.48606 0.33615
 C2696 C 0.04929 0.48606 0.34857
 C2697 C 0.03991 0.48633 0.36361
 C2698 C 0.03280 0.48693 0.37690
 C2699 C 0.02564 0.48829 0.39333
 C2700 C 0.03243 0.50085 0.40411
 C2701 C 0.02707 0.50147 0.42055
 C2702 C 0.01474 0.48955 0.42656
 C2703 C 0.00742 0.47734 0.41553
 C2704 C 0.01293 0.47667 0.39899
 H2705 H 0.07444 0.51367 0.32324
 H2706 H 0.06669 0.45863 0.31711
 H2707 H 0.08714 0.45840 0.29386
 H2708 H 0.09518 0.51356 0.30019
 H2709 H 0.04227 0.50990 0.39991
 H2710 H 0.03288 0.51112 0.42867
 H2711 H -0.00201 0.46793 0.41981
 H2712 H 0.00762 0.46683 0.39076
 C2713 C 0.57336 -0.00635 -0.18407
 C2714 C 0.56517 -0.02152 -0.17862
 C2715 C 0.56847 -0.03728 -0.18672
 C2716 C 0.58007 -0.03793 -0.20005
 C2717 C 0.58860 -0.02280 -0.20545
 C2718 C 0.58496 -0.00697 -0.19739
 C2719 C 0.55410 -0.02102 -0.16421
 C2720 C 0.54535 -0.02046 -0.15182
 C2721 C 0.53584 -0.01951 -0.13686
 C2722 C 0.52856 -0.01831 -0.12368
 C2723 C 0.52111 -0.01627 -0.10740
 C2724 C 0.50861 -0.02790 -0.10137
 C2725 C 0.50289 -0.02658 -0.08493
 C2726 C 0.50979 -0.01371 -0.07434
 C2727 C 0.52187 -0.00176 -0.08075
 C2728 C 0.52744 -0.00303 -0.09711
 H2729 H 0.57101 0.00591 -0.17784
 H2730 H 0.56225 -0.04911 -0.18263
 H2731 H 0.58237 -0.05028 -0.20613
 H2732 H 0.59144 0.00487 -0.20111
 H2733 H 0.50365 -0.03826 -0.10920
 H2734 H 0.49368 -0.03605 -0.08031
 H2735 H 0.52738 0.00837 -0.07298
 H2736 H 0.53712 0.00604 -0.10159
 C2737 C 0.66813 0.63034 0.00727
 C2738 C 0.66975 0.61636 -0.00372
 C2739 C 0.68613 0.61210 -0.01000
 C2740 C 0.70085 0.62162 -0.00521
 C2741 C 0.69958 0.63568 0.00612
 C2742 C 0.68279 0.63989 0.01214
 C2743 C 0.65472 0.60595 -0.00794
 C2744 C 0.64212 0.59706 -0.01092
 C2745 C 0.62731 0.58645 -0.01361
 C2746 C 0.61463 0.57726 -0.01501
 C2747 C 0.59948 0.56615 -0.01535
 C2748 C 0.59648 0.55511 -0.00205
 C2749 C 0.58119 0.54536 -0.00125
 C2750 C 0.56855 0.54645 -0.01378
 C2751 C 0.57192 0.55709 -0.02747
 C2752 C 0.58729 0.56695 -0.02820
 H2753 H 0.65548 0.63384 0.01217
 H2754 H 0.68760 0.60116 -0.01838
 H2755 H 0.71327 0.61721 -0.00987
 H2756 H 0.68068 0.65090 0.02025
 H2757 H 0.60579 0.55436 0.00796
 H2758 H 0.57909 0.53724 0.00942
 H2759 H 0.56240 0.55830 -0.03725
 H2760 H 0.58944 0.57550 -0.03855
 C2761 C 0.17797 1.12392 0.48335
 C2762 C 0.16863 1.11450 0.49513
 C2763 C 0.17362 1.11537 0.51175
 C2764 C 0.18787 1.12554 0.51659
 C2765 C 0.19740 1.13501 0.50486
 C2766 C 0.19226 1.13410 0.48817
 C2767 C 0.15395 1.10387 0.49033
 C2768 C 0.14157 1.09482 0.48696
 C2769 C 0.12694 1.08404 0.48394
 C2770 C 0.11436 1.07474 0.48237
 C2771 C 0.09927 1.06356 0.48197
 C2772 C 0.08725 1.06409 0.46895
 C2773 C 0.07180 1.05435 0.46974
 C2774 C 0.06817 1.04414 0.48366
 C2775 C 0.08066 1.04324 0.49633
 C2776 C 0.09605 1.05284 0.49547
 H2777 H 0.17422 1.12340 0.47046
 H2778 H 0.16653 1.10811 0.52098
 H2779 H 0.19161 1.12575 0.52948
 H2780 H 0.19918 1.14139 0.47887
 H2781 H 0.08957 1.07239 0.45845
 H2782 H 0.06238 1.05540 0.45985
 H2783 H 0.07835 1.03544 0.50717
 H2784 H 0.10521 1.05230 0.50562
 C2785 C 0.17107 -0.12461 1.01564
 C2786 C 0.16206 -0.11522 1.00366
 C2787 C 0.16786 -0.11554 0.98727
 C2788 C 0.18258 -0.12513 0.98285
 C2789 C 0.19176 -0.13459 0.99478
 C2790 C 0.18583 -0.13423 1.01124
 C2791 C 0.14688 -0.10520 1.00799
 C2792 C 0.13410 -0.09662 1.01087
 C2793 C 0.11906 -0.08636 1.01321
 C2794 C 0.10619 -0.07745 1.01411
 C2795 C 0.09087 -0.06671 1.01361
 C2796 C 0.08694 -0.05818 0.99894
 C2797 C 0.07168 -0.04858 0.99758
 C2798 C 0.05998 -0.04728 1.01092
 C2799 C 0.06422 -0.05549 1.02586
 C2800 C 0.07958 -0.06522 1.02716
 H2801 H 0.16669 -0.12452 1.02836
 H2802 H 0.16104 -0.10829 0.97789
 H2803 H 0.18693 -0.12491 0.97013
 H2804 H 0.19249 -0.14151 1.02068
 H2805 H 0.09556 -0.05920 0.98837
 H2806 H 0.06896 -0.04235 0.98593
 H2807 H 0.05547 -0.05479 1.03632
 H2808 H 0.08247 -0.07180 1.03859
 C2809 C 0.67267 0.38127 0.48801
 C2810 C 0.67031 0.38539 0.50470
 C2811 C 0.68213 0.37925 0.51634
 C2812 C 0.69633 0.36917 0.51133
 C2813 C 0.69909 0.36495 0.49445
 C2814 C 0.68681 0.37118 0.48292
 C2815 C 0.65588 0.39616 0.50971
 C2816 C 0.64373 0.40534 0.51334
 C2817 C 0.62940 0.41627 0.51675
 C2818 C 0.61706 0.42573 0.51871
 C2819 C 0.60224 0.43714 0.51964
 C2820 C 0.58993 0.43578 0.53236
 C2821 C 0.57466 0.44571 0.53194
 C2822 C 0.57150 0.45694 0.51867
 C2823 C 0.58431 0.45869 0.50636
 C2824 C 0.59952 0.44890 0.50686
 H2825 H 0.66367 0.38608 0.47884
 H2826 H 0.68037 0.38222 0.52934
 H2827 H 0.70471 0.36426 0.52092
 H2828 H 0.68838 0.36907 0.46979
 H2829 H 0.59186 0.42667 0.54230
 H2830 H 0.56498 0.44399 0.54152
 H2831 H 0.58234 0.46728 0.49602
 H2832 H 0.60891 0.45008 0.49695
 C2833 C -0.17492 0.37486 0.48340
 C2834 C -0.16537 0.38359 0.49565
 C2835 C -0.17037 0.38214 0.51222
 C2836 C -0.18486 0.37213 0.51652
 C2837 C -0.19463 0.36338 0.50431
 C2838 C -0.18944 0.36483 0.48768
 C2839 C -0.15053 0.39418 0.49138
 C2840 C -0.13806 0.40322 0.48839
 C2841 C -0.12337 0.41398 0.48577
 C2842 C -0.11077 0.42328 0.48448
 C2843 C -0.09567 0.43448 0.48437
 C2844 C -0.08398 0.43453 0.47106
 C2845 C -0.06861 0.44442 0.47196
 C2846 C -0.06475 0.45421 0.48626
 C2847 C -0.07691 0.45449 0.49927
 C2848 C -0.09219 0.44473 0.49831
 H2849 H -0.17116 0.37583 0.47054
 H2850 H -0.16313 0.38887 0.52182
 H2851 H -0.18863 0.37150 0.52939
 H2852 H -0.19654 0.35810 0.47800
 H2853 H -0.08650 0.42661 0.46020
 H2854 H -0.05947 0.44386 0.46178
 H2855 H -0.07442 0.46196 0.51043
 H2856 H -0.10111 0.44483 0.50868
 C2857 C 0.31966 -0.12629 -0.01368
 C2858 C 0.32848 -0.11593 -0.00209
 C2859 C 0.32244 -0.11509 0.01422
 C2860 C 0.30764 -0.12444 0.01891
 C2861 C 0.29860 -0.13482 0.00735
 C2862 C 0.30482 -0.13566 -0.00901
 C2863 C 0.34368 -0.10605 -0.00677
 C2864 C 0.35645 -0.09756 -0.01004
 C2865 C 0.37148 -0.08736 -0.01297
 C2866 C 0.38436 -0.07847 -0.01446
 C2867 C 0.39976 -0.06769 -0.01474
 C2868 C 0.40379 -0.05775 -0.00073
 C2869 C 0.41925 -0.04826 -0.00001
 C2870 C 0.43105 -0.04847 -0.01332
 C2871 C 0.42666 -0.05799 -0.02766
 C2872 C 0.41111 -0.06762 -0.02833
 H2873 H 0.32422 -0.12710 -0.02632
 H2874 H 0.32911 -0.10709 0.02330
 H2875 H 0.30307 -0.12328 0.03152
 H2876 H 0.29829 -0.14366 -0.01817
 H2877 H 0.39515 -0.05765 0.00984
 H2878 H 0.42212 -0.04099 0.01118
 H2879 H 0.43550 -0.05849 -0.03807
 H2880 H 0.40814 -0.07530 -0.03925
 C2881 C 0.32767 1.11759 0.48656
 C2882 C 0.33280 1.11651 0.50311
 C2883 C 0.32349 1.12562 0.51525
 C2884 C 0.30907 1.13564 0.51087
 C2885 C 0.30374 1.13671 0.49426
 C2886 C 0.31327 1.12760 0.48215
 C2887 C 0.34752 1.10591 0.50751
 C2888 C 0.35989 1.09686 0.51061
 C2889 C 0.37446 1.08607 0.51339
 C2890 C 0.38696 1.07673 0.51479
 C2891 C 0.40196 1.06550 0.51501
 C2892 C 0.41313 1.06483 0.52870
 C2893 C 0.42839 1.05486 0.52796
 C2894 C 0.43268 1.04561 0.51346
 C2895 C 0.42103 1.04596 0.50004
 C2896 C 0.40585 1.05579 0.50084
 H2897 H 0.33473 1.11058 0.47705
 H2898 H 0.32735 1.12495 0.52809
 H2899 H 0.30216 1.14266 0.52046
 H2900 H 0.30940 1.12793 0.46931
 H2901 H 0.41028 1.07233 0.53974
 H2902 H 0.43713 1.05493 0.53845
 H2903 H 0.42383 1.03891 0.48873
 H2904 H 0.39734 1.05615 0.49018
 C2905 C -0.16855 0.62069 0.98844
 C2906 C -0.16284 0.62098 1.00487
 C2907 C -0.17211 0.63058 1.01669
 C2908 C -0.18707 0.63971 1.01213
 C2909 C -0.19298 0.63937 0.99566
 C2910 C -0.18347 0.62979 0.98386
 C2911 C -0.14766 0.61112 1.00945
 C2912 C -0.13498 0.60254 1.01259
 C2913 C -0.12013 0.59210 1.01528
 C2914 C -0.10752 0.58288 1.01650
 C2915 C -0.09261 0.57154 1.01636
 C2916 C -0.08102 0.57074 1.02972
 C2917 C -0.06614 0.56021 1.02873
 C2918 C -0.06268 0.55050 1.01429
 C2919 C -0.07466 0.55116 1.00115
 C2920 C -0.08943 0.56155 1.00220
 H2921 H -0.16155 0.61326 0.97918
 H2922 H -0.16783 0.63094 1.02943
 H2923 H -0.19398 0.64708 1.02148
 H2924 H -0.18780 0.62899 0.97116
 H2925 H -0.08333 0.57843 1.04077
 H2926 H -0.05716 0.56003 1.03903
 H2927 H -0.07255 0.54378 0.98989
 H2928 H -0.09828 0.56200 0.99179
 C2929 C 0.03467 0.67266 0.57356
 C2930 C 0.02059 0.66296 0.57941
 C2931 C 0.00697 0.67116 0.58780
 C2932 C 0.00743 0.68907 0.59039
 C2933 C 0.02153 0.69895 0.58456
 C2934 C 0.03516 0.69057 0.57613
 C2935 C 0.01968 0.64472 0.57603
 C2936 C 0.01860 0.62957 0.57259
 C2937 C 0.01687 0.61215 0.56764
 C2938 C 0.01494 0.59762 0.56249
 C2939 C 0.01206 0.58089 0.55517
 C2940 C -0.00222 0.57855 0.54470
 C2941 C -0.00439 0.56297 0.53611
 C2942 C 0.00773 0.54949 0.53789
 C2943 C 0.02179 0.55175 0.54885
 C2944 C 0.02398 0.56744 0.55740
 H2945 H 0.04518 0.66640 0.56689
 H2946 H -0.00403 0.66373 0.59228
 H2947 H -0.00310 0.69516 0.59715
 H2948 H 0.04610 0.69791 0.57141
 H2949 H -0.01146 0.58894 0.54286
 H2950 H -0.01541 0.56161 0.52787
 H2951 H 0.03136 0.54162 0.55043
 H2952 H 0.03514 0.56923 0.56541
 C2953 C 0.50309 0.16680 0.09262
 C2954 C 0.51652 0.15785 0.08465
 C2955 C 0.53131 0.16675 0.07925
 C2956 C 0.53264 0.18463 0.08168
 C2957 C 0.51913 0.19379 0.08952
 C2958 C 0.50439 0.18470 0.09508
 C2959 C 0.51461 0.13979 0.08083
 C2960 C 0.51293 0.12488 0.07674
 C2961 C 0.51084 0.10784 0.07082
 C2962 C 0.50889 0.09371 0.06475
 C2963 C 0.50638 0.07748 0.05636
 C2964 C 0.51776 0.06367 0.05898
 C2965 C 0.51606 0.04845 0.04962
 C2966 C 0.50300 0.04698 0.03749
 C2967 C 0.49145 0.06087 0.03521
 C2968 C 0.49315 0.07601 0.04459
 H2969 H 0.49154 0.15999 0.09673
 H2970 H 0.54167 0.15992 0.07288
 H2971 H 0.54404 0.19135 0.07713
 H2972 H 0.49392 0.19142 0.10137
 H2973 H 0.52813 0.06479 0.06799
 H2974 H 0.52516 0.03800 0.05167
 H2975 H 0.48121 0.06015 0.02604
 H2976 H 0.48436 0.08671 0.04244
 C2977 C 0.00429 0.16480 0.89676
 C2978 C -0.01018 0.15558 0.90249
 C2979 C -0.02609 0.16398 0.90478
 C2980 C -0.02752 0.18165 0.90162
 C2981 C -0.01300 0.19112 0.89613
 C2982 C 0.00289 0.18250 0.89356
 C2983 C -0.00843 0.13794 0.90752
 C2984 C -0.00727 0.12348 0.91275
 C2985 C -0.00621 0.10710 0.92006
 C2986 C -0.00550 0.09359 0.92727
 C2987 C -0.00480 0.07815 0.93690
 C2988 C -0.01641 0.06451 0.93383
 C2989 C -0.01653 0.05008 0.94411
 C2990 C -0.00505 0.04922 0.95763
 C2991 C 0.00669 0.06296 0.96047
 C2992 C 0.00679 0.07733 0.95016
 H2993 H 0.01670 0.15839 0.89509
 H2994 H -0.03728 0.15696 0.90943
 H2995 H -0.03984 0.18800 0.90392
 H2996 H 0.01421 0.18947 0.88914
 H2997 H -0.02553 0.06514 0.92365
 H2998 H -0.02570 0.03970 0.94156
 H2999 H 0.01574 0.06270 0.97071
 H3000 H 0.01572 0.08794 0.95269
 C3001 C 0.48570 0.67768 0.43690
 C3002 C 0.48217 0.66384 0.42610
 C3003 C 0.47843 0.66696 0.40951
 C3004 C 0.47834 0.68391 0.40367
 C3005 C 0.48199 0.69793 0.41438
 C3006 C 0.48563 0.69467 0.43107
 C3007 C 0.48306 0.64638 0.43189
 C3008 C 0.48422 0.63178 0.43678
 C3009 C 0.48613 0.61486 0.44275
 C3010 C 0.48826 0.60062 0.44825
 C3011 C 0.49140 0.58403 0.45544
 C3012 C 0.48102 0.56971 0.45127
 C3013 C 0.48382 0.55379 0.45893
 C3014 C 0.49700 0.55213 0.47087
 C3015 C 0.50752 0.56658 0.47472
 C3016 C 0.50471 0.58241 0.46704
 H3017 H 0.48867 0.67533 0.44977
 H3018 H 0.47583 0.65629 0.40106
 H3019 H 0.47580 0.68603 0.39069
 H3020 H 0.48836 0.70524 0.43959
 H3021 H 0.47066 0.57091 0.44229
 H3022 H 0.47546 0.54293 0.45575
 H3023 H 0.51781 0.56574 0.48381
 H3024 H 0.51281 0.59346 0.47032
 C3025 C 0.53296 0.82958 0.42731
 C3026 C 0.51951 0.83843 0.41943
 C3027 C 0.50759 0.82937 0.40954
 C3028 C 0.50916 0.81144 0.40747
 C3029 C 0.52267 0.80243 0.41532
 C3030 C 0.53456 0.81167 0.42526
 C3031 C 0.51752 0.85669 0.42218
 C3032 C 0.51575 0.87186 0.42521
 C3033 C 0.51347 0.88931 0.42981
 C3034 C 0.51126 0.90385 0.43480
 C3035 C 0.50828 0.92057 0.44208
 C3036 C 0.49342 0.92306 0.45175
 C3037 C 0.49136 0.93838 0.46077
 C3038 C 0.50416 0.95143 0.46022
 C3039 C 0.51877 0.94911 0.44995
 C3040 C 0.52085 0.93368 0.44098
 H3041 H 0.54214 0.83650 0.43512
 H3042 H 0.49708 0.83613 0.40348
 H3043 H 0.50000 0.80469 0.39952
 H3044 H 0.54500 0.80502 0.43154
 H3045 H 0.48369 0.91291 0.45273
 H3046 H 0.47990 0.93982 0.46844
 H3047 H 0.52886 0.95892 0.44931
 H3048 H 0.53247 0.93177 0.43363
 C3049 C 0.02097 0.32760 0.91578
 C3050 C 0.00826 0.33043 0.92782
 C3051 C -0.00011 0.31637 0.93527
 C3052 C 0.00420 0.29944 0.93057
 C3053 C 0.01698 0.29650 0.91845
 C3054 C 0.02530 0.31074 0.91110
 C3055 C 0.00423 0.34783 0.93269
 C3056 C 0.00150 0.36259 0.93671
 C3057 C -0.00097 0.37990 0.94159
 C3058 C -0.00252 0.39466 0.94617
 C3059 C -0.00383 0.41204 0.95234
 C3060 C -0.01662 0.41613 0.96397
 C3061 C -0.01677 0.43247 0.97146
 C3062 C -0.00405 0.44491 0.96741
 C3063 C 0.00842 0.44087 0.95525
 C3064 C 0.00854 0.42447 0.94780
 H3065 H 0.02751 0.33843 0.90997
 H3066 H -0.00991 0.31850 0.94468
 H3067 H -0.00235 0.28867 0.93644
 H3068 H 0.03493 0.30885 0.90148
 H3069 H -0.02619 0.40653 0.96759
 H3070 H -0.02662 0.43519 0.98068
 H3071 H 0.01837 0.45015 0.95186
 H3072 H 0.01856 0.42132 0.93885
 C3073 C 0.46706 0.32173 0.06178
 C3074 C 0.48207 0.33152 0.06492
 C3075 C 0.49631 0.32401 0.07281
 C3076 C 0.49540 0.30684 0.07799
 C3077 C 0.48020 0.29702 0.07532
 C3078 C 0.46612 0.30453 0.06695
 C3079 C 0.48280 0.34943 0.06051
 C3080 C 0.48382 0.36448 0.05698
 C3081 C 0.48559 0.38199 0.05274
 C3082 C 0.48766 0.39680 0.04873
 C3083 C 0.49079 0.41411 0.04324
 C3084 C 0.50491 0.41723 0.03282
 C3085 C 0.50758 0.43372 0.02642
 C3086 C 0.49613 0.44732 0.03039
 C3087 C 0.48222 0.44419 0.04128
 C3088 C 0.47954 0.42760 0.04764
 H3089 H 0.45601 0.32747 0.05560
 H3090 H 0.50796 0.33154 0.07529
 H3091 H 0.50631 0.30148 0.08466
 H3092 H 0.45432 0.29718 0.06465
 H3093 H 0.51368 0.40683 0.02938
 H3094 H 0.51847 0.43572 0.01815
 H3095 H 0.47313 0.45439 0.04449
 H3096 H 0.46855 0.42523 0.05571
 C3097 C -0.00744 0.82969 0.58206
 C3098 C -0.02167 0.83734 0.57426
 C3099 C -0.03616 0.82730 0.56987
 C3100 C -0.03651 0.80962 0.57345
 C3101 C -0.02232 0.80186 0.58142
 C3102 C -0.00775 0.81205 0.58564
 C3103 C -0.02107 0.85539 0.57036
 C3104 C -0.02004 0.87043 0.56677
 C3105 C -0.01812 0.88777 0.56195
 C3106 C -0.01583 0.90226 0.55709
 C3107 C -0.01236 0.91898 0.55029
 C3108 C -0.02378 0.93281 0.55293
 C3109 C -0.02088 0.94861 0.54502
 C3110 C -0.00658 0.95058 0.53432
 C3111 C 0.00503 0.93670 0.53214
 C3112 C 0.00215 0.92102 0.54008
 H3113 H 0.00386 0.83739 0.58543
 H3114 H -0.04717 0.83313 0.56369
 H3115 H -0.04783 0.80202 0.57000
 H3116 H 0.00322 0.80645 0.59204
 H3117 H -0.03509 0.93128 0.56077
 H3118 H -0.03009 0.95905 0.54688
 H3119 H 0.01621 0.93783 0.52406
 H3120 H 0.01103 0.91033 0.53796
 C3121 C 0.25304 0.32530 0.06536
 C3122 C 0.26841 0.31982 0.07289
 C3123 C 0.28441 0.32543 0.06672
 C3124 C 0.28509 0.33669 0.05330
 C3125 C 0.26970 0.34275 0.04567
 C3126 C 0.25363 0.33655 0.05188
 C3127 C 0.26781 0.30920 0.08747
 C3128 C 0.26739 0.30087 0.10003
 C3129 C 0.26677 0.29190 0.11519
 C3130 C 0.26595 0.28510 0.12854
 C3131 C 0.26441 0.27826 0.14501
 C3132 C 0.27565 0.26536 0.15079
 C3133 C 0.27475 0.26004 0.16732
 C3134 C 0.26270 0.26772 0.17824
 C3135 C 0.25120 0.28029 0.17211
 C3136 C 0.25205 0.28548 0.15568
 H3137 H 0.24053 0.32118 0.07013
 H3138 H 0.29643 0.32119 0.07237
 H3139 H 0.29785 0.34013 0.04873
 H3140 H 0.24135 0.34098 0.04700
 H3141 H 0.28533 0.25972 0.14266
 H3142 H 0.28383 0.25040 0.17169
 H3143 H 0.24166 0.28639 0.18010
 H3144 H 0.24330 0.29547 0.15138
 C3145 C 0.76398 0.81517 0.55821
 C3146 C 0.76876 0.82046 0.57418
 C3147 C 0.77337 0.83778 0.57716
 C3148 C 0.77334 0.84974 0.56429
 C3149 C 0.76870 0.84457 0.54816
 C3150 C 0.76394 0.82714 0.54528
 C3151 C 0.76866 0.80837 0.58769
 C3152 C 0.76848 0.79890 0.59949
 C3153 C 0.76796 0.78869 0.61392
 C3154 C 0.76704 0.78089 0.62677
 C3155 C 0.76516 0.77294 0.64274
 C3156 C 0.75133 0.77813 0.65282
 C3157 C 0.75011 0.77220 0.66900
 C3158 C 0.76269 0.76090 0.67543
 C3159 C 0.77620 0.75510 0.66504
 C3160 C 0.77748 0.76119 0.64877
 H3161 H 0.76033 0.80181 0.55574
 H3162 H 0.77696 0.84208 0.58948
 H3163 H 0.77682 0.86309 0.56698
 H3164 H 0.76048 0.82270 0.53298
 H3165 H 0.74174 0.78721 0.64834
 H3166 H 0.73947 0.77682 0.67661
 H3167 H 0.78613 0.74649 0.66968
 H3168 H 0.78830 0.75714 0.64110
 C3169 C 0.23969 0.68643 0.55694
 C3170 C 0.23487 0.68120 0.57283
 C3171 C 0.22982 0.66400 0.57549
 C3172 C 0.22953 0.65208 0.56239
 C3173 C 0.23428 0.65717 0.54636
 C3174 C 0.23941 0.67450 0.54378
 C3175 C 0.23538 0.69320 0.58660
 C3176 C 0.23584 0.70250 0.59867
 C3177 C 0.23653 0.71241 0.61344
 C3178 C 0.23739 0.71988 0.62659
 C3179 C 0.23888 0.72738 0.64291
 C3180 C 0.25145 0.72083 0.65363
 C3181 C 0.25193 0.72628 0.67010
 C3182 C 0.23984 0.73843 0.67617
 C3183 C 0.22769 0.74557 0.66517
 C3184 C 0.22715 0.73998 0.64863
 H3185 H 0.24366 0.69971 0.55473
 H3186 H 0.22619 0.65975 0.58774
 H3187 H 0.22580 0.63880 0.56486
 H3188 H 0.24297 0.67887 0.53156
 H3189 H 0.26056 0.71106 0.64939
 H3190 H 0.26153 0.72060 0.67820
 H3191 H 0.21814 0.75486 0.66952
 H3192 H 0.21729 0.74507 0.64046
 C3193 C 0.71420 0.17725 0.06393
 C3194 C 0.73036 0.18319 0.06951
 C3195 C 0.74549 0.17779 0.06141
 C3196 C 0.74451 0.16631 0.04794
 C3197 C 0.72829 0.15981 0.04229
 C3198 C 0.71313 0.16575 0.05051
 C3199 C 0.73145 0.19401 0.08410
 C3200 C 0.73239 0.20251 0.09667
 C3201 C 0.73364 0.21165 0.11184
 C3202 C 0.73496 0.21858 0.12521
 C3203 C 0.73694 0.22558 0.14168
 C3204 C 0.74940 0.21833 0.15209
 C3205 C 0.75045 0.22353 0.16860
 C3206 C 0.73905 0.23615 0.17503
 C3207 C 0.72697 0.24392 0.16436
 C3208 C 0.72587 0.23858 0.14777
 H3209 H 0.70236 0.18141 0.07005
 H3210 H 0.75812 0.18215 0.06574
 H3211 H 0.75666 0.16195 0.04264
 H3212 H 0.70025 0.16203 0.04640
 H3213 H 0.75802 0.20826 0.14756
 H3214 H 0.75997 0.21736 0.17644
 H3215 H 0.71794 0.25357 0.16897
 H3216 H 0.71611 0.24423 0.13984
 C3217 C 0.77928 0.18139 0.93473
 C3218 C 0.76383 0.18390 0.92597
 C3219 C 0.74862 0.17529 0.93089
 C3220 C 0.74896 0.16394 0.94429
 C3221 C 0.76456 0.16098 0.95288
 C3222 C 0.77966 0.17005 0.94810
 C3223 C 0.76385 0.19434 0.91128
 C3224 C 0.76390 0.20242 0.89858
 C3225 C 0.76380 0.21099 0.88322
 C3226 C 0.76336 0.21736 0.86966
 C3227 C 0.76221 0.22357 0.85296
 C3228 C 0.75016 0.21578 0.84228
 C3229 C 0.74962 0.22041 0.82570
 C3230 C 0.76112 0.23298 0.81942
 C3231 C 0.77288 0.24120 0.83031
 C3232 C 0.77347 0.23644 0.84701
 H3233 H 0.79114 0.18794 0.93103
 H3234 H 0.73660 0.17704 0.92414
 H3235 H 0.73718 0.15706 0.94757
 H3236 H 0.79180 0.16826 0.95463
 H3237 H 0.74140 0.20581 0.84671
 H3238 H 0.74029 0.21391 0.81773
 H3239 H 0.78195 0.25087 0.82584
 H3240 H 0.78291 0.24251 0.85516
 C3241 C 0.29109 0.67828 0.44060
 C3242 C 0.27584 0.68229 0.43202
 C3243 C 0.26005 0.67470 0.43677
 C3244 C 0.25955 0.66290 0.44980
 C3245 C 0.27488 0.65846 0.45825
 C3246 C 0.29062 0.66649 0.45363
 C3247 C 0.27652 0.69330 0.41771
 C3248 C 0.27685 0.70190 0.40532
 C3249 C 0.27676 0.71112 0.39029
 C3250 C 0.27607 0.71807 0.37700
 C3251 C 0.27427 0.72498 0.36060
 C3252 C 0.26267 0.71683 0.34973
 C3253 C 0.26091 0.72268 0.33360
 C3254 C 0.27073 0.73690 0.32792
 C3255 C 0.28226 0.74525 0.33896
 C3256 C 0.28405 0.73927 0.35523
 H3257 H 0.30340 0.68403 0.43703
 H3258 H 0.24818 0.67760 0.43016
 H3259 H 0.24727 0.65684 0.45292
 H3260 H 0.30260 0.66357 0.46004
 H3261 H 0.25503 0.70578 0.35371
 H3262 H 0.25181 0.71596 0.32557
 H3263 H 0.29001 0.75620 0.33499
 H3264 H 0.29311 0.74568 0.36353
 C3265 C 0.71932 0.82141 0.43891
 C3266 C 0.73537 0.81835 0.43125
 C3267 C 0.75027 0.82699 0.43701
 C3268 C 0.74911 0.83878 0.45020
 C3269 C 0.73300 0.84216 0.45782
 C3270 C 0.71814 0.83321 0.45211
 C3271 C 0.73643 0.80703 0.41699
 C3272 C 0.73746 0.79805 0.40473
 C3273 C 0.73888 0.78825 0.38993
 C3274 C 0.74037 0.78066 0.37690
 C3275 C 0.74256 0.77277 0.36080
 C3276 C 0.73109 0.75991 0.35500
 C3277 C 0.73237 0.75376 0.33868
 C3278 C 0.74505 0.76057 0.32796
 C3279 C 0.75688 0.77300 0.33414
 C3280 C 0.75564 0.77902 0.35041
 H3281 H 0.70769 0.81484 0.43457
 H3282 H 0.76274 0.82482 0.43111
 H3283 H 0.76075 0.84560 0.45416
 H3284 H 0.70559 0.83532 0.45786
 H3285 H 0.72085 0.75502 0.36291
 H3286 H 0.72299 0.74430 0.33425
 H3287 H 0.76685 0.77846 0.32626
 H3288 H 0.76458 0.78897 0.35472
 C3289 C 0.23048 0.33637 0.92522
 C3290 C 0.23658 0.31947 0.92743
 C3291 C 0.24174 0.31413 0.94317
 C3292 C 0.24070 0.32562 0.95665
 C3293 C 0.23446 0.34261 0.95454
 C3294 C 0.22943 0.34785 0.93864
 C3295 C 0.23770 0.30786 0.91339
 C3296 C 0.23860 0.29878 0.90118
 C3297 C 0.23973 0.28902 0.88634
 C3298 C 0.24091 0.28162 0.87318
 C3299 C 0.24269 0.27412 0.85687
 C3300 C 0.25535 0.28082 0.84628
 C3301 C 0.25605 0.27538 0.82981
 C3302 C 0.24410 0.26307 0.82362
 C3303 C 0.23188 0.25576 0.83451
 C3304 C 0.23112 0.26135 0.85105
 H3305 H 0.22657 0.34071 0.91309
 H3306 H 0.24651 0.30108 0.94504
 H3307 H 0.24449 0.32113 0.96875
 H3308 H 0.22483 0.36091 0.93654
 H3309 H 0.26434 0.29073 0.85060
 H3310 H 0.26568 0.28121 0.82179
 H3311 H 0.22242 0.24637 0.83006
 H3312 H 0.22119 0.25613 0.85911
 C3313 C 0.86354 0.41976 0.73413
 C3314 C 0.86301 0.41395 0.75045
 C3315 C 0.87232 0.42294 0.76270
 C3316 C 0.88206 0.43770 0.75865
 C3317 C 0.88264 0.44367 0.74226
 C3318 C 0.87326 0.43449 0.73006
 C3319 C 0.85285 0.39876 0.75446
 C3320 C 0.84419 0.38600 0.75719
 C3321 C 0.83388 0.37096 0.75951
 C3322 C 0.82497 0.35808 0.76055
 C3323 C 0.81425 0.34266 0.76045
 C3324 C 0.81379 0.33140 0.77396
 C3325 C 0.80419 0.31588 0.77302
 C3326 C 0.79505 0.31144 0.75850
 C3327 C 0.79526 0.32312 0.74523
 C3328 C 0.80475 0.33855 0.74622
 H3329 H 0.85637 0.41296 0.72454
 H3330 H 0.87205 0.41855 0.77537
 H3331 H 0.88927 0.44435 0.76831
 H3332 H 0.87320 0.43886 0.71739
 H3333 H 0.82113 0.33442 0.78504
 H3334 H 0.80437 0.30714 0.78341
 H3335 H 0.78832 0.32021 0.73390
 H3336 H 0.80497 0.34714 0.73570
 C3337 C 0.37205 0.92396 0.24127
 C3338 C 0.36881 0.92146 0.25806
 C3339 C 0.37478 0.93371 0.26956
 C3340 C 0.38385 0.94846 0.26431
 C3341 C 0.38718 0.95134 0.24733
 C3342 C 0.38111 0.93864 0.23594
 C3343 C 0.35894 0.90651 0.26328
 C3344 C 0.35039 0.89395 0.26696
 C3345 C 0.34001 0.87920 0.27033
 C3346 C 0.33081 0.86663 0.27219
 C3347 C 0.31941 0.85174 0.27291
 C3348 C 0.32199 0.83846 0.28438
 C3349 C 0.31168 0.82337 0.28370
 C3350 C 0.29884 0.82140 0.27143
 C3351 C 0.29602 0.83511 0.26038
 C3352 C 0.30619 0.85010 0.26114
 H3353 H 0.36733 0.91465 0.23221
 H3354 H 0.37245 0.93188 0.28263
 H3355 H 0.38869 0.95719 0.27378
 H3356 H 0.38252 0.94025 0.22276
 H3357 H 0.33223 0.83955 0.29352
 H3358 H 0.31423 0.81301 0.29230
 H3359 H 0.28618 0.83409 0.25085
 H3360 H 0.30405 0.86026 0.25221
 C3361 C 0.13487 0.92462 0.76160
 C3362 C 0.13563 0.91923 0.74506
 C3363 C 0.12650 0.92847 0.73306
 C3364 C 0.11671 0.94305 0.73758
 C3365 C 0.11591 0.94859 0.75419
 C3366 C 0.12510 0.93917 0.76615
 C3367 C 0.14584 0.90423 0.74059
 C3368 C 0.15455 0.89159 0.73755
 C3369 C 0.16491 0.87667 0.73499
 C3370 C 0.17383 0.86385 0.73385
 C3371 C 0.18451 0.84849 0.73401
 C3372 C 0.18529 0.83713 0.72040
 C3373 C 0.19466 0.82157 0.72147
 C3374 C 0.20318 0.81718 0.73623
 C3375 C 0.20272 0.82899 0.74959
 C3376 C 0.19349 0.84447 0.74847
 H3377 H 0.14191 0.91761 0.77100
 H3378 H 0.12694 0.92440 0.72022
 H3379 H 0.10963 0.94989 0.72811
 H3380 H 0.12499 0.94322 0.77899
 H3381 H 0.17834 0.84009 0.70914
 H3382 H 0.19470 0.81272 0.71100
 H3383 H 0.20923 0.82612 0.76111
 H3384 H 0.19301 0.85313 0.75908
 C3385 C 0.62684 0.42538 0.23581
 C3386 C 0.63649 0.41634 0.24758
 C3387 C 0.63623 0.42183 0.26411
 C3388 C 0.62648 0.43633 0.26886
 C3389 C 0.61681 0.44558 0.25713
 C3390 C 0.61707 0.43991 0.24054
 C3391 C 0.64675 0.40145 0.24286
 C3392 C 0.65553 0.38892 0.23957
 C3393 C 0.66599 0.37414 0.23664
 C3394 C 0.67503 0.36144 0.23515
 C3395 C 0.68588 0.34620 0.23484
 C3396 C 0.69559 0.34227 0.24889
 C3397 C 0.70497 0.32684 0.24963
 C3398 C 0.70483 0.31500 0.23629
 C3399 C 0.69559 0.31932 0.22190
 C3400 C 0.68608 0.33483 0.22122
 H3401 H 0.62688 0.42123 0.22300
 H3402 H 0.64367 0.41497 0.27333
 H3403 H 0.62678 0.44048 0.28166
 H3404 H 0.60961 0.44662 0.23125
 H3405 H 0.69557 0.35094 0.25950
 H3406 H 0.71203 0.32401 0.26086
 H3407 H 0.69515 0.31044 0.21147
 H3408 H 0.67857 0.33772 0.21028
 C3409 C 0.63541 0.57658 0.24024
 C3410 C 0.63561 0.58188 0.25683
 C3411 C 0.62593 0.57261 0.26846
 C3412 C 0.61624 0.55802 0.26356
 C3413 C 0.61609 0.55250 0.24692
 C3414 C 0.62574 0.56203 0.23531
 C3415 C 0.64595 0.59670 0.26178
 C3416 C 0.65487 0.60914 0.26527
 C3417 C 0.66559 0.62376 0.26840
 C3418 C 0.67495 0.63629 0.27000
 C3419 C 0.68630 0.65124 0.27030
 C3420 C 0.68652 0.66297 0.28366
 C3421 C 0.69658 0.67820 0.28285
 C3422 C 0.70634 0.68188 0.26858
 C3423 C 0.70646 0.66967 0.25554
 C3424 C 0.69656 0.65453 0.25642
 H3425 H 0.64288 0.58361 0.23112
 H3426 H 0.62592 0.57660 0.28133
 H3427 H 0.60879 0.55112 0.27277
 H3428 H 0.62611 0.55800 0.22247
 H3429 H 0.67860 0.66057 0.29447
 H3430 H 0.69617 0.68738 0.29304
 H3431 H 0.71393 0.67201 0.24443
 H3432 H 0.69654 0.64558 0.24601
 C3433 C 0.12868 0.07453 0.76426
 C3434 C 0.13837 0.08337 0.75232
 C3435 C 0.13768 0.07785 0.73581
 C3436 C 0.12744 0.06357 0.73124
 C3437 C 0.11770 0.05453 0.74313
 C3438 C 0.11842 0.06021 0.75970
 C3439 C 0.14905 0.09810 0.75685
 C3440 C 0.15813 0.11052 0.76000
 C3441 C 0.16888 0.12521 0.76277
 C3442 C 0.17810 0.13786 0.76416
 C3443 C 0.18908 0.15309 0.76439
 C3444 C 0.19853 0.15716 0.75018
 C3445 C 0.20793 0.17264 0.74936
 C3446 C 0.20809 0.18438 0.76278
 C3447 C 0.19915 0.17991 0.77732
 C3448 C 0.18961 0.16436 0.77808
 H3449 H 0.12904 0.07870 0.77706
 H3450 H 0.14514 0.08456 0.72646
 H3451 H 0.12739 0.05940 0.71843
 H3452 H 0.11092 0.05367 0.76913
 H3453 H 0.19824 0.14857 0.73951
 H3454 H 0.21474 0.17560 0.73802
 H3455 H 0.19894 0.18873 0.78781
 H3456 H 0.18230 0.16137 0.78914
 C3457 C 0.37463 0.07796 0.23547
 C3458 C 0.36546 0.08731 0.24755
 C3459 C 0.36633 0.08216 0.26406
 C3460 C 0.37624 0.06775 0.26850
 C3461 C 0.38548 0.05822 0.25648
 C3462 C 0.38456 0.06351 0.23990
 C3463 C 0.35509 0.10216 0.24316
 C3464 C 0.34624 0.11467 0.24015
 C3465 C 0.33570 0.12943 0.23752
 C3466 C 0.32658 0.14209 0.23624
 C3467 C 0.31559 0.15724 0.23612
 C3468 C 0.30524 0.16076 0.24994
 C3469 C 0.29561 0.17605 0.25088
 C3470 C 0.29612 0.18817 0.23798
 C3471 C 0.30605 0.18428 0.22381
 C3472 C 0.31580 0.16892 0.22293
 H3473 H 0.37411 0.08183 0.22266
 H3474 H 0.35926 0.08924 0.27352
 H3475 H 0.37644 0.06390 0.28133
 H3476 H 0.39166 0.05659 0.23037
 H3477 H 0.30493 0.15187 0.26022
 H3478 H 0.28804 0.17854 0.26193
 H3479 H 0.30679 0.19338 0.21372
 H3480 H 0.32380 0.16636 0.21217
 C3481 C 0.87494 0.57109 0.73491
 C3482 C 0.86535 0.58041 0.74669
 C3483 C 0.86517 0.57489 0.76312
 C3484 C 0.87441 0.56010 0.76775
 C3485 C 0.88399 0.55056 0.75599
 C3486 C 0.88420 0.55628 0.73951
 C3487 C 0.85548 0.59551 0.74204
 C3488 C 0.84697 0.60816 0.73873
 C3489 C 0.83669 0.62301 0.73573
 C3490 C 0.82766 0.63568 0.73416
 C3491 C 0.81661 0.65078 0.73377
 C3492 C 0.80556 0.65396 0.74716
 C3493 C 0.79575 0.66912 0.74790
 C3494 C 0.79674 0.68147 0.73523
 C3495 C 0.80739 0.67794 0.72145
 C3496 C 0.81734 0.66269 0.72077
 H3497 H 0.87523 0.57524 0.72217
 H3498 H 0.85776 0.58195 0.77236
 H3499 H 0.87378 0.55594 0.78047
 H3500 H 0.89162 0.54937 0.73020
 H3501 H 0.80484 0.64488 0.75727
 H3502 H 0.78760 0.67133 0.75864
 H3503 H 0.80850 0.68722 0.71155
 H3504 H 0.82588 0.66039 0.71034
 C3505 C 0.90979 0.76175 0.14159
 C3506 C 0.90522 0.75034 0.15413
 C3507 C 0.91812 0.74192 0.16311
 C3508 C 0.93563 0.74542 0.16004
 C3509 C 0.94059 0.75761 0.14796
 C3510 C 0.92728 0.76530 0.13844
 C3511 C 0.88745 0.74883 0.15923
 C3512 C 0.87294 0.74812 0.16468
 C3513 C 0.85662 0.74774 0.17243
 C3514 C 0.84331 0.74759 0.18020
 C3515 C 0.82831 0.74741 0.19066
 C3516 C 0.82804 0.73629 0.20418
 C3517 C 0.81420 0.73679 0.21527
 C3518 C 0.80041 0.74847 0.21299
 C3519 C 0.80071 0.75953 0.19925
 C3520 C 0.81465 0.75902 0.18816
 H3521 H 0.89983 0.76828 0.13453
 H3522 H 0.91465 0.73322 0.17303
 H3523 H 0.94506 0.73941 0.16806
 H3524 H 0.93020 0.77397 0.12839
 H3525 H 0.83867 0.72737 0.20627
 H3526 H 0.81437 0.72803 0.22565
 H3527 H 0.79026 0.76862 0.19710
 H3528 H 0.81486 0.76780 0.17779
 C3529 C 0.41932 0.29011 0.66897
 C3530 C 0.40899 0.27609 0.66383
 C3531 C 0.41664 0.26154 0.65644
 C3532 C 0.43463 0.26092 0.65430
 C3533 C 0.44515 0.27485 0.65958
 C3534 C 0.43732 0.28952 0.66682
 C3535 C 0.39076 0.27593 0.66742
 C3536 C 0.37568 0.27509 0.67122
 C3537 C 0.35848 0.27324 0.67675
 C3538 C 0.34429 0.27090 0.68251
 C3539 C 0.32815 0.26726 0.69061
 C3540 C 0.32702 0.25260 0.70058
 C3541 C 0.31212 0.24960 0.70992
 C3542 C 0.29811 0.26125 0.70937
 C3543 C 0.29914 0.27572 0.69892
 C3544 C 0.31416 0.27874 0.68963
 H3545 H 0.41349 0.30132 0.67490
 H3546 H 0.40873 0.25058 0.65256
 H3547 H 0.44031 0.24959 0.64843
 H3548 H 0.44517 0.30037 0.67107
 H3549 H 0.33786 0.24369 0.70145
 H3550 H 0.31171 0.23829 0.71774
 H3551 H 0.28857 0.28495 0.69829
 H3552 H 0.31500 0.29019 0.68200
 C3553 C 0.41291 0.74756 0.84616
 C3554 C 0.40365 0.73309 0.84037
 C3555 C 0.41229 0.71755 0.83696
 C3556 C 0.43023 0.71647 0.83923
 C3557 C 0.43970 0.73098 0.84491
 C3558 C 0.43087 0.74651 0.84846
 C3559 C 0.38555 0.73458 0.83653
 C3560 C 0.37065 0.73590 0.83231
 C3561 C 0.35372 0.73762 0.82613
 C3562 C 0.33977 0.73933 0.81970
 C3563 C 0.32393 0.74170 0.81075
 C3564 C 0.31012 0.72998 0.81238
 C3565 C 0.29544 0.73154 0.80233
 C3566 C 0.29456 0.74477 0.79049
 C3567 C 0.30842 0.75665 0.78922
 C3568 C 0.32299 0.75510 0.79929
 H3569 H 0.40630 0.75969 0.84868
 H3570 H 0.40523 0.70637 0.83225
 H3571 H 0.43676 0.70442 0.83625
 H3572 H 0.43783 0.75779 0.85307
 H3573 H 0.31085 0.71947 0.82114
 H3574 H 0.28499 0.72219 0.80360
 H3575 H 0.30812 0.76704 0.78032
 H3576 H 0.33371 0.76414 0.79789
 C3577 C 0.91963 0.24111 0.33371
 C3578 C 0.91106 0.22597 0.32871
 C3579 C 0.92033 0.21056 0.32673
 C3580 C 0.93817 0.21024 0.32987
 C3581 C 0.94713 0.22540 0.33505
 C3582 C 0.93745 0.24089 0.33685
 C3583 C 0.89290 0.22655 0.32486
 C3584 C 0.87783 0.22757 0.32112
 C3585 C 0.86053 0.22945 0.31597
 C3586 C 0.84610 0.23168 0.31074
 C3587 C 0.82952 0.23503 0.30344
 C3588 C 0.81565 0.22343 0.30539
 C3589 C 0.80004 0.22620 0.29699
 C3590 C 0.79827 0.24053 0.28648
 C3591 C 0.81218 0.25231 0.28497
 C3592 C 0.82768 0.24955 0.29341
 H3593 H 0.91250 0.25312 0.33526
 H3594 H 0.91380 0.19884 0.32255
 H3595 H 0.94494 0.19817 0.32760
 H3596 H 0.94333 0.25277 0.34138
 H3597 H 0.81703 0.21209 0.31308
 H3598 H 0.78957 0.21687 0.29834
 H3599 H 0.81120 0.26352 0.27706
 H3600 H 0.83840 0.25856 0.29181
 C3601 C 0.07739 0.25729 0.33553
 C3602 C 0.08495 0.27137 0.32743
 C3603 C 0.07470 0.28539 0.32261
 C3604 C 0.05689 0.28539 0.32599
 C3605 C 0.04919 0.27132 0.33419
 C3606 C 0.05960 0.25725 0.33891
 C3607 C 0.10311 0.27108 0.32354
 C3608 C 0.11822 0.27041 0.31986
 C3609 C 0.13565 0.26903 0.31487
 C3610 C 0.15024 0.26730 0.30985
 C3611 C 0.16712 0.26457 0.30286
 C3612 C 0.16953 0.25064 0.29196
 C3613 C 0.18543 0.24843 0.28400
 C3614 C 0.19918 0.26017 0.28687
 C3615 C 0.19680 0.27392 0.29820
 C3616 C 0.18079 0.27614 0.30612
 H3617 H 0.08525 0.24635 0.33923
 H3618 H 0.08045 0.29627 0.31619
 H3619 H 0.04912 0.29632 0.32213
 H3620 H 0.05405 0.24638 0.34549
 H3621 H 0.15898 0.24166 0.28936
 H3622 H 0.18685 0.23766 0.27544
 H3623 H 0.20712 0.28320 0.30061
 H3624 H 0.17897 0.28701 0.31451
 C3625 C 0.56920 0.77454 0.80806
 C3626 C 0.57884 0.76071 0.81428
 C3627 C 0.57095 0.74853 0.82457
 C3628 C 0.55356 0.75049 0.82910
 C3629 C 0.54391 0.76468 0.82338
 C3630 C 0.55179 0.77652 0.81257
 C3631 C 0.59701 0.75935 0.81065
 C3632 C 0.61227 0.75818 0.80772
 C3633 C 0.63005 0.75663 0.80409
 C3634 C 0.64510 0.75501 0.80046
 C3635 C 0.66272 0.75265 0.79524
 C3636 C 0.66692 0.73798 0.78584
 C3637 C 0.68351 0.73628 0.77913
 C3638 C 0.69613 0.74926 0.78177
 C3639 C 0.69202 0.76368 0.79179
 C3640 C 0.67532 0.76539 0.79844
 H3641 H 0.57523 0.78398 0.80002
 H3642 H 0.57836 0.73780 0.82944
 H3643 H 0.54791 0.74134 0.83767
 H3644 H 0.54458 0.78750 0.80793
 H3645 H 0.65722 0.72808 0.78330
 H3646 H 0.68631 0.72496 0.77158
 H3647 H 0.70147 0.77391 0.79395
 H3648 H 0.67211 0.77684 0.80567
 C3649 C 0.57111 0.21181 0.68058
 C3650 C 0.58173 0.22518 0.67471
 C3651 C 0.57451 0.23879 0.66577
 C3652 C 0.55670 0.23901 0.66255
 C3653 C 0.54591 0.22559 0.66830
 C3654 C 0.55327 0.21199 0.67737
 C3655 C 0.59997 0.22533 0.67828
 C3656 C 0.61519 0.22605 0.68154
 C3657 C 0.63279 0.22767 0.68590
 C3658 C 0.64757 0.22973 0.69031
 C3659 C 0.66471 0.23295 0.69654
 C3660 C 0.66755 0.24758 0.70650
 C3661 C 0.68371 0.25028 0.71387
 C3662 C 0.69727 0.23835 0.71134
 C3663 C 0.69447 0.22393 0.70088
 C3664 C 0.67821 0.22121 0.69356
 H3665 H 0.57662 0.20129 0.68764
 H3666 H 0.58266 0.24922 0.66123
 H3667 H 0.55143 0.24947 0.65527
 H3668 H 0.54521 0.20155 0.68199
 H3669 H 0.65714 0.25671 0.70888
 H3670 H 0.68546 0.26156 0.72177
 H3671 H 0.70465 0.21448 0.69877
 H3672 H 0.67606 0.20981 0.68590
 C3673 C 0.06524 0.75732 0.19061
 C3674 C 0.08090 0.75347 0.18256
 C3675 C 0.08077 0.74510 0.16719
 C3676 C 0.06505 0.74021 0.15999
 C3677 C 0.04926 0.74362 0.16812
 C3678 C 0.04943 0.75248 0.18337
 C3679 C 0.09724 0.75692 0.19038
 C3680 C 0.11130 0.75885 0.19656
 C3681 C 0.12800 0.76009 0.20345
 C3682 C 0.14238 0.76046 0.20919
 C3683 C 0.15953 0.76031 0.21603
 C3684 C 0.17247 0.75015 0.20865
 C3685 C 0.18905 0.74950 0.21562
 C3686 C 0.19283 0.75903 0.23008
 C3687 C 0.17969 0.76928 0.23734
 C3688 C 0.16315 0.76989 0.23034
 H3689 H 0.06528 0.76371 0.20259
 H3690 H 0.09285 0.74206 0.16091
 H3691 H 0.06521 0.73366 0.14810
 H3692 H 0.03740 0.75519 0.18985
 H3693 H 0.16970 0.74264 0.19757
 H3694 H 0.19886 0.74152 0.20972
 H3695 H 0.18215 0.77681 0.24845
 H3696 H 0.15316 0.77774 0.23614
   
