data_POSCAR
  _audit_creation_date              2014-09-24
  _audit_creation_method            'ToBaCCo'
  _symmetry_space_group_name_H-M    'P1'
  _symmetry_Int_Tables_number       1
  _symmetry_cell_setting            triclinic
  loop_
  _symmetry_equiv_pos_as_xyz
 x,y,z
_cell_length_a 36.3594
_cell_length_b 37.0544
_cell_length_c 47.5379
_cell_angle_alpha 90.346800
_cell_angle_beta 90.205100
_cell_angle_gamma 90.039500
loop_
  _atom_site_label
  _atom_site_type_symbol
  _atom_site_fract_x
  _atom_site_fract_y
  _atom_site_fract_z
Zr1 Zr 0.25302 0.24834 0.30019
 O2 O 0.28128 0.27933 0.33098
 O3 O 0.22048 0.21473 0.32487
 O4 O 0.21624 0.28147 0.32263
 O5 O 0.32154 0.18450 0.29155
 O6 O 0.18268 0.30992 0.28863
 O7 O 0.28851 0.21554 0.32440
 O8 O 0.18618 0.18364 0.29252
 O9 O 0.20411 0.24739 0.27669
 O10 O 0.25355 0.20019 0.27713
 O11 O 0.25386 0.29520 0.27542
 O12 O 0.30215 0.24980 0.27685
 Zr13 Zr 0.25448 0.24638 0.20231
 Zr14 Zr 0.20640 0.29244 0.25021
 Zr15 Zr 0.30053 0.20239 0.25245
 Zr16 Zr 0.20610 0.20020 0.25275
 O17 O 0.35845 0.20788 0.25273
 O18 O 0.14855 0.20934 0.25255
 O19 O 0.25316 0.19917 0.22699
 O20 O 0.20572 0.24497 0.22602
 O21 O 0.25348 0.29502 0.22494
 O22 O 0.30265 0.24747 0.22650
 C23 C 0.19587 0.19142 0.31799
 C24 C 0.31301 0.19206 0.31726
 C25 C 0.19060 0.30310 0.31458
 O26 O 0.14859 0.28740 0.24680
 O27 O 0.18869 0.31338 0.21092
 O28 O 0.22113 0.28144 0.17819
 C29 C 0.19740 0.30579 0.18519
 O30 O 0.32443 0.31711 0.28715
 Zr31 Zr 0.30072 0.29481 0.24998
 O32 O 0.28861 0.27919 0.17791
 O33 O 0.21020 0.34935 0.25251
 O34 O 0.29059 0.35113 0.24875
 O35 O 0.35876 0.28930 0.24899
 O36 O 0.31922 0.31324 0.21053
 C37 C 0.31184 0.30382 0.18499
 O38 O 0.22482 0.21734 0.17115
 O39 O 0.29654 0.14543 0.25322
 O40 O 0.28897 0.21028 0.18002
 O41 O 0.32018 0.18035 0.21448
 O42 O 0.21253 0.14343 0.25521
 O43 O 0.18554 0.17456 0.21580
 C44 C 0.31284 0.18690 0.18848
 H45 H 0.25415 0.17824 0.28887
 H46 H 0.18385 0.24397 0.21358
 H47 H 0.32540 0.24690 0.21514
 H48 H 0.25387 0.31719 0.28735
 H49 H 0.13656 0.18658 0.25838
 H50 H 0.13841 0.31218 0.24762
 H51 H 0.18473 0.35869 0.25113
 H52 H 0.31392 0.36307 0.24344
 H53 H 0.18825 0.13307 0.26007
 H54 H 0.32200 0.13603 0.25451
 H55 H 0.36872 0.18312 0.25244
 H56 H 0.36923 0.31317 0.24415
 H57 H 0.16375 0.15983 0.22062
 H58 H 0.23404 0.22542 0.15260
 H59 H 0.27260 0.27112 0.34964
 H60 H 0.33997 0.33807 0.28220
 Zr61 Zr 0.75929 0.74998 0.29822
 O62 O 0.73049 0.72327 0.33076
 O63 O 0.79908 0.77916 0.32126
 O64 O 0.79156 0.71211 0.31935
 O65 O 0.69597 0.81913 0.29230
 O66 O 0.81730 0.67795 0.28454
 O67 O 0.72821 0.78500 0.32355
 O68 O 0.83306 0.80648 0.28731
 O69 O 0.80609 0.74510 0.27300
 O70 O 0.76248 0.79786 0.27553
 O71 O 0.75050 0.70338 0.27360
 O72 O 0.70867 0.75380 0.27668
 Zr73 Zr 0.75053 0.75132 0.20082
 Zr74 Zr 0.79611 0.70030 0.24689
 Zr75 Zr 0.71382 0.80068 0.25246
 Zr76 Zr 0.80751 0.79214 0.24906
 O77 O 0.65566 0.80232 0.25338
 O78 O 0.86372 0.77743 0.24600
 O79 O 0.75915 0.79836 0.22519
 O80 O 0.80068 0.74724 0.22273
 O81 O 0.74745 0.70294 0.22320
 O82 O 0.70432 0.75588 0.22661
 C83 C 0.82573 0.79951 0.31317
 C84 C 0.70461 0.80962 0.31752
 C85 C 0.81166 0.68588 0.31066
 O86 O 0.85405 0.69895 0.24331
 O87 O 0.80980 0.67847 0.20706
 O88 O 0.77924 0.71387 0.17556
 C89 C 0.80103 0.68762 0.18174
 O90 O 0.67793 0.69135 0.28799
 Zr91 Zr 0.70239 0.70876 0.24986
 O92 O 0.71133 0.72237 0.17750
 O93 O 0.78550 0.64416 0.24743
 O94 O 0.70522 0.65160 0.25005
 O95 O 0.64537 0.72077 0.24937
 O96 O 0.68127 0.68995 0.21099
 C97 C 0.68751 0.69889 0.18531
 O98 O 0.78039 0.77743 0.16863
 O99 O 0.72458 0.85676 0.25474
 O100 O 0.71798 0.78985 0.17995
 O101 O 0.69589 0.82573 0.21527
 O102 O 0.80730 0.84927 0.25207
 O103 O 0.82747 0.81485 0.21110
 C104 C 0.69922 0.81690 0.18919
 H105 H 0.76517 0.81953 0.28765
 H106 H 0.82174 0.74584 0.20963
 H107 H 0.68108 0.75878 0.21595
 H108 H 0.74825 0.68162 0.28545
 H109 H 0.87855 0.79906 0.25080
 H110 H 0.86122 0.67316 0.24328
 H111 H 0.80959 0.63192 0.24550
 H112 H 0.68029 0.64232 0.24559
 H113 H 0.83297 0.85718 0.25558
 H114 H 0.70045 0.86894 0.25664
 H115 H 0.64858 0.82814 0.25380
 H116 H 0.63213 0.69807 0.24482
 H117 H 0.85043 0.82839 0.21499
 H118 H 0.76907 0.77022 0.15042
 H119 H 0.74160 0.73076 0.34900
 H120 H 0.65907 0.67278 0.28380
 Zr121 Zr 0.73930 0.25468 -0.30405
 O122 O 0.70564 0.28255 -0.33315
 O123 O 0.77344 0.22464 -0.33068
 O124 O 0.77030 0.29168 -0.32755
 O125 O 0.67842 0.18423 -0.29368
 O126 O 0.80155 0.32457 -0.29449
 O127 O 0.70594 0.21865 -0.32720
 O128 O 0.81306 0.19733 -0.30017
 O129 O 0.78965 0.25866 -0.28266
 O130 O 0.74525 0.20662 -0.28176
 O131 O 0.73518 0.30108 -0.27856
 O132 O 0.69197 0.25104 -0.27871
 Zr133 Zr 0.74483 0.25208 -0.20629
 Zr134 Zr 0.78434 0.30310 -0.25541
 Zr135 Zr 0.70004 0.20392 -0.25512
 Zr136 Zr 0.79409 0.21136 -0.25941
 O137 O 0.64192 0.20363 -0.25319
 O138 O 0.85039 0.22611 -0.26110
 O139 O 0.74929 0.20537 -0.23174
 O140 O 0.79164 0.25581 -0.23208
 O141 O 0.73924 0.30074 -0.22812
 O142 O 0.69514 0.24850 -0.22845
 C143 C 0.80095 0.20414 -0.32514
 C144 C 0.68453 0.19282 -0.31953
 C145 C 0.79289 0.31685 -0.32023
 O146 O 0.84250 0.30393 -0.25557
 O147 O 0.80342 0.32460 -0.21652
 O148 O 0.77658 0.28972 -0.18294
 C149 C 0.79767 0.31589 -0.19060
 O150 O 0.66135 0.31461 -0.28708
 Zr151 Zr 0.69061 0.29588 -0.25125
 O152 O 0.70855 0.28036 -0.17995
 O153 O 0.77451 0.35936 -0.25544
 O154 O 0.69453 0.35299 -0.25086
 O155 O 0.63372 0.28472 -0.24672
 O156 O 0.67494 0.31394 -0.21087
 C157 C 0.68402 0.30413 -0.18587
 O158 O 0.77944 0.22601 -0.17682
 O159 O 0.70983 0.14767 -0.25681
 O160 O 0.71618 0.21245 -0.18332
 O161 O 0.68498 0.18000 -0.21668
 O162 O 0.79339 0.15426 -0.26273
 O163 O 0.81959 0.18772 -0.22369
 C164 C 0.69391 0.18707 -0.19097
 H165 H 0.74619 0.18480 -0.29383
 H166 H 0.81442 0.25689 -0.22063
 H167 H 0.67344 0.24572 -0.21614
 H168 H 0.73186 0.32300 -0.29010
 H169 H 0.86422 0.20470 -0.26778
 H170 H 0.84993 0.32965 -0.25611
 H171 H 0.79893 0.37125 -0.25516
 H172 H 0.67055 0.36258 -0.24440
 H173 H 0.81827 0.14647 -0.26867
 H174 H 0.68542 0.13577 -0.25735
 H175 H 0.63424 0.17798 -0.25292
 H176 H 0.62151 0.30753 -0.24105
 H177 H 0.84226 0.17501 -0.22959
 H178 H 0.77071 0.23287 -0.15777
 H179 H 0.71373 0.27537 -0.35229
 H180 H 0.64366 0.33351 -0.28127
 Zr181 Zr 0.23503 0.75479 -0.29515
 O182 O 0.25975 0.72569 -0.32859
 O183 O 0.19815 0.78817 -0.31693
 O184 O 0.19655 0.72259 -0.31657
 O185 O 0.30251 0.81985 -0.28806
 O186 O 0.16975 0.68867 -0.28239
 O187 O 0.26931 0.78745 -0.32003
 O188 O 0.16590 0.81604 -0.28215
 O189 O 0.18860 0.75264 -0.26938
 O190 O 0.23592 0.80207 -0.27114
 O191 O 0.24051 0.70688 -0.27199
 O192 O 0.28617 0.75413 -0.27411
 Zr193 Zr 0.24530 0.75269 -0.19779
 Zr194 Zr 0.19539 0.70643 -0.24471
 Zr195 Zr 0.28504 0.80049 -0.24859
 Zr196 Zr 0.19095 0.79892 -0.24435
 O197 O 0.34305 0.79776 -0.25135
 O198 O 0.13387 0.78804 -0.24114
 O199 O 0.24008 0.80088 -0.22088
 O200 O 0.19461 0.75280 -0.21919
 O201 O 0.24447 0.70496 -0.22157
 O202 O 0.29135 0.75448 -0.22397
 C203 C 0.17262 0.80968 -0.30835
 C204 C 0.29380 0.81135 -0.31363
 C205 C 0.17369 0.69848 -0.30821
 O206 O 0.13787 0.70889 -0.23848
 O207 O 0.18329 0.68229 -0.20564
 O208 O 0.21545 0.71533 -0.17338
 C209 C 0.19331 0.68933 -0.18007
 O210 O 0.31130 0.68883 -0.28716
 Zr211 Zr 0.28939 0.70803 -0.24848
 O212 O 0.28215 0.72014 -0.17570
 O213 O 0.20117 0.64983 -0.24892
 O214 O 0.28158 0.65133 -0.24895
 O215 O 0.34714 0.71602 -0.24935
 O216 O 0.31116 0.68806 -0.21015
 C217 C 0.30513 0.69611 -0.18411
 O218 O 0.21736 0.77921 -0.16460
 O219 O 0.27857 0.85723 -0.24801
 O220 O 0.28042 0.78902 -0.17615
 O221 O 0.30722 0.82170 -0.21111
 O222 O 0.19525 0.85596 -0.24592
 O223 O 0.17348 0.82195 -0.20559
 C224 C 0.30264 0.81359 -0.18507
 H225 H 0.23476 0.82427 -0.28259
 H226 H 0.17386 0.75220 -0.20577
 H227 H 0.31494 0.75539 -0.21354
 H228 H 0.24036 0.68553 -0.28462
 H229 H 0.12061 0.81079 -0.24522
 H230 H 0.12874 0.68371 -0.23931
 H231 H 0.17635 0.63927 -0.24647
 H232 H 0.30570 0.64009 -0.24481
 H233 H 0.17016 0.86565 -0.24896
 H234 H 0.30346 0.86773 -0.25025
 H235 H 0.35222 0.82295 -0.25102
 H236 H 0.35888 0.69245 -0.24537
 H237 H 0.15136 0.83694 -0.20884
 H238 H 0.22848 0.77069 -0.14674
 H239 H 0.24898 0.73474 -0.34642
 H240 H 0.32814 0.66840 -0.28345
 Zr241 Zr 1.25449 1.23946 0.79897
 O242 O 1.22812 1.20357 0.82695
 O243 O 1.28461 1.27214 0.82707
 O244 O 1.29319 1.20760 0.82021
 O245 O 1.17828 1.29384 0.79113
 O246 O 1.32788 1.18234 0.78539
 O247 O 1.21480 1.26591 0.82352
 O248 O 1.31737 1.30809 0.79761
 O249 O 1.30389 1.24646 0.77735
 O250 O 1.25046 1.28955 0.77937
 O251 O 1.25792 1.19519 0.77123
 O252 O 1.20679 1.23626 0.77363
 Zr253 Zr 1.25728 1.25078 0.70175
 Zr254 Zr 1.30600 1.20397 0.74818
 Zr255 Zr 1.20513 1.28574 0.75248
 Zr256 Zr 1.29874 1.29559 0.75665
 O257 O 1.14793 1.27674 0.74780
 O258 O 1.35699 1.29260 0.75657
 O259 O 1.25320 1.29536 0.72933
 O260 O 1.30436 1.25360 0.72739
 O261 O 1.26089 1.20026 0.72094
 O262 O 1.20795 1.24351 0.72341
 C263 C 1.30875 1.29673 0.82228
 C264 C 1.18667 1.28487 0.81647
 C265 C 1.31939 1.18721 0.81137
 O266 O 1.36334 1.21375 0.74836
 O267 O 1.32723 1.18878 0.70879
 O268 O 1.29574 1.22296 0.67707
 C269 C 1.32016 1.19941 0.68363
 O270 O 1.18826 1.16702 0.77833
 Zr271 Zr 1.21260 1.19441 0.74393
 O272 O 1.22917 1.21662 0.67357
 O273 O 1.30673 1.14694 0.74558
 O274 O 1.22695 1.13916 0.74003
 O275 O 1.15446 1.19652 0.74063
 O276 O 1.19874 1.17802 0.70262
 C277 C 1.20782 1.18962 0.67811
 O278 O 1.28535 1.28528 0.67364
 O279 O 1.20375 1.34213 0.75968
 O280 O 1.22175 1.28631 0.68081
 O281 O 1.18743 1.31188 0.71570
 O282 O 1.28684 1.35087 0.76396
 O283 O 1.31728 1.32671 0.72207
 C284 C 1.19704 1.30834 0.68980
 H285 H 1.24738 1.30975 0.79288
 H286 H 1.32679 1.25760 0.71607
 H287 H 1.18614 1.24359 0.71089
 H288 H 1.25899 1.17215 0.78165
 H289 H 1.36647 1.31591 0.76393
 H290 H 1.37550 1.18986 0.74726
 H291 H 1.33288 1.13956 0.74442
 H292 H 1.20499 1.12612 0.73288
 H293 H 1.30997 1.36264 0.77024
 H294 H 1.17748 1.34915 0.76022
 H295 H 1.13578 1.30060 0.74943
 H296 H 1.14602 1.17284 0.73325
 H297 H 1.33610 1.34420 0.72862
 H298 H 1.27787 1.27839 0.65423
 H299 H 1.23562 1.21061 0.84631
 H300 H 1.17386 1.14616 0.77122
 Zr301 Zr 0.75485 0.74142 0.79901
 O302 O 0.78605 0.76506 0.83199
 O303 O 0.71777 0.71022 0.82172
 O304 O 0.72202 0.77580 0.82410
 O305 O 0.81754 0.67424 0.78343
 O306 O 0.69454 0.81332 0.79250
 O307 O 0.78858 0.70318 0.81955
 O308 O 0.68003 0.68664 0.78791
 O309 O 0.70609 0.74853 0.77617
 O310 O 0.74967 0.69627 0.77268
 O311 O 0.76111 0.79061 0.77781
 O312 O 0.80323 0.74011 0.77476
 Zr313 Zr 0.75540 0.75163 0.70092
 Zr314 Zr 0.71368 0.79584 0.75305
 Zr315 Zr 0.79574 0.69669 0.74671
 Zr316 Zr 0.70237 0.70434 0.74904
 O317 O 0.85387 0.69474 0.74470
 O318 O 0.64607 0.71921 0.74943
 O319 O 0.74824 0.70191 0.72197
 O320 O 0.70728 0.75187 0.72561
 O321 O 0.76026 0.79690 0.72731
 O322 O 0.80339 0.74431 0.72450
 C323 C 0.68979 0.69156 0.81383
 C324 C 0.81161 0.67984 0.80973
 C325 C 0.70058 0.80226 0.81771
 O326 O 0.65551 0.79720 0.75198
 O327 O 0.69561 0.82163 0.71626
 O328 O 0.72321 0.79115 0.68030
 C329 C 0.70141 0.81575 0.68994
 O330 O 0.83384 0.80190 0.79029
 Zr331 Zr 0.80716 0.78811 0.75184
 O332 O 0.79259 0.78511 0.67921
 O333 O 0.72443 0.85171 0.75751
 O334 O 0.80413 0.84508 0.75566
 O335 O 0.86405 0.77589 0.74937
 O336 O 0.82714 0.81002 0.71441
 C337 C 0.81861 0.80579 0.68836
 O338 O 0.72385 0.72943 0.66752
 O339 O 0.78467 0.64065 0.74492
 O340 O 0.78670 0.71578 0.67563
 O341 O 0.81082 0.67604 0.70714
 O342 O 0.70374 0.64713 0.74799
 O343 O 0.67817 0.68498 0.71107
 C344 C 0.80597 0.68768 0.68196
 H345 H 0.74810 0.67333 0.78318
 H346 H 0.68504 0.75443 0.71373
 H347 H 0.82583 0.74267 0.71284
 H348 H 0.76390 0.81101 0.79120
 H349 H 0.63165 0.69733 0.75398
 H350 H 0.64815 0.82279 0.75430
 H351 H 0.70025 0.86403 0.75768
 H352 H 0.82883 0.85491 0.75138
 H353 H 0.67894 0.63843 0.75329
 H354 H 0.80879 0.62821 0.74493
 H355 H 0.86083 0.66899 0.74271
 H356 H 0.87741 0.79889 0.74652
 H357 H 0.65636 0.67008 0.71553
 H358 H 0.73393 0.73920 0.64974
 H359 H 0.77635 0.75536 0.84991
 H360 H 0.85191 0.82139 0.78693
 Zr361 Zr 1.24546 0.75271 0.19762
 O362 O 1.21506 0.77696 0.16471
 O363 O 1.28392 0.72240 0.17477
 O364 O 1.27865 0.78885 0.17450
 O365 O 1.18330 0.68350 0.20925
 O366 O 1.30349 0.82560 0.20820
 O367 O 1.21396 0.71424 0.17511
 O368 O 1.32026 0.69850 0.20906
 O369 O 1.29298 0.76008 0.22193
 O370 O 1.25028 0.70677 0.22270
 O371 O 1.23673 0.80077 0.22041
 O372 O 1.19594 0.74955 0.22061
 Zr373 Zr 1.24067 0.75874 0.29577
 Zr374 Zr 1.28301 0.80625 0.24639
 Zr375 Zr 1.20292 0.70508 0.24729
 Zr376 Zr 1.29643 0.71494 0.24770
 O377 O 1.14477 0.70230 0.24758
 O378 O 1.35237 0.73112 0.24875
 O379 O 1.24944 0.71017 0.27324
 O380 O 1.28968 0.76142 0.27244
 O381 O 1.23552 0.80505 0.27108
 O382 O 1.19351 0.75140 0.27116
 C383 C 1.31151 0.70348 0.18302
 C384 C 1.19100 0.69001 0.18341
 C385 C 1.29901 0.81559 0.18249
 O386 O 1.34103 0.80915 0.24938
 O387 O 1.29806 0.83163 0.28435
 O388 O 1.27034 0.79840 0.31845
 C389 C 1.29125 0.82435 0.31023
 O390 O 1.16388 0.81147 0.20703
 Zr391 Zr 1.18969 0.79631 0.24536
 O392 O 1.20151 0.78942 0.31796
 O393 O 1.27110 0.86195 0.24301
 O394 O 1.19165 0.85345 0.24347
 O395 O 1.13313 0.78234 0.24624
 O396 O 1.16804 0.81646 0.28338
 C397 C 1.17570 0.81054 0.30940
 O398 O 1.27213 0.73680 0.32914
 O399 O 1.21480 0.64918 0.24756
 O400 O 1.21155 0.71992 0.31913
 O401 O 1.18656 0.68265 0.28584
 O402 O 1.29672 0.65771 0.24725
 O403 O 1.31932 0.69511 0.28579
 C404 C 1.19239 0.69223 0.31155
 H405 H 1.25280 0.68419 0.21165
 H406 H 1.31134 0.76418 0.28495
 H407 H 1.17085 0.74863 0.28243
 H408 H 1.23400 0.82160 0.20763
 H409 H 1.36743 0.70965 0.24405
 H410 H 1.34778 0.83500 0.24802
 H411 H 1.29492 0.87493 0.24408
 H412 H 1.16667 0.86260 0.24776
 H413 H 1.32210 0.64986 0.24275
 H414 H 1.19088 0.63638 0.24663
 H415 H 1.13811 0.67641 0.24871
 H416 H 1.11906 0.80472 0.25010
 H417 H 1.34209 0.68148 0.28161
 H418 H 1.26109 0.74537 0.34705
 H419 H 1.22566 0.76809 0.14674
 H420 H 1.14482 0.82991 0.21091
 Zr421 Zr 0.74957 1.25035 0.20451
 O422 O 0.77780 1.21740 0.17510
 O423 O 0.71710 1.28221 0.17764
 O424 O 0.71325 1.21649 0.18228
 O425 O 0.81975 1.31203 0.21395
 O426 O 0.68053 1.18764 0.21623
 O427 O 0.78824 1.27938 0.18093
 O428 O 0.68188 1.31450 0.20830
 O429 O 0.69990 1.25285 0.22643
 O430 O 0.74963 1.29984 0.22574
 O431 O 0.74979 1.20496 0.23082
 O432 O 0.79746 1.24999 0.22974
 Zr433 Zr 0.74679 1.25791 0.30242
 Zr434 Zr 0.70134 1.20930 0.25418
 Zr435 Zr 0.79515 1.29863 0.25245
 Zr436 Zr 0.70127 1.30133 0.24885
 O437 O 0.85299 1.29370 0.25573
 O438 O 0.64350 1.29346 0.24856
 O439 O 0.74685 1.30368 0.27620
 O440 O 0.69942 1.25798 0.27682
 O441 O 0.74677 1.20813 0.28130
 O442 O 0.79615 1.25518 0.28011
 C443 C 0.69138 1.30500 0.18324
 C444 C 0.81338 1.30193 0.18845
 C445 C 0.68854 1.19401 0.19037
 O446 O 0.64343 1.21475 0.25475
 O447 O 0.68201 1.19079 0.29303
 O448 O 0.71076 1.22563 0.32619
 C449 C 0.68838 1.20037 0.31864
 O450 O 0.82158 1.18304 0.22265
 Zr451 Zr 0.79518 1.20667 0.25807
 O452 O 0.77720 1.22449 0.32919
 O453 O 0.70498 1.15230 0.25473
 O454 O 0.78505 1.15038 0.25992
 O455 O 0.85302 1.21277 0.26162
 O456 O 0.81021 1.18936 0.29883
 C457 C 0.80018 1.19908 0.32373
 O458 O 0.71666 1.28962 0.33148
 O459 O 0.79173 1.35533 0.24800
 O460 O 0.78157 1.29407 0.32472
 O461 O 0.81161 1.32416 0.28992
 O462 O 0.70909 1.35765 0.24381
 O463 O 0.67973 1.32938 0.28427
 C464 C 0.80439 1.31822 0.31595
 H465 H 0.75108 1.32074 0.21292
 H466 H 0.67683 1.25973 0.28832
 H467 H 0.81816 1.25622 0.29240
 H468 H 0.75038 1.18232 0.21966
 H469 H 0.63207 1.31610 0.24182
 H470 H 0.63314 1.18999 0.25501
 H471 H 0.67947 1.14294 0.25565
 H472 H 0.80799 1.13869 0.26651
 H473 H 0.68526 1.36799 0.23769
 H474 H 0.81730 1.36456 0.24753
 H475 H 0.86320 1.31849 0.25525
 H476 H 0.86314 1.18939 0.26806
 H477 H 0.65973 1.34566 0.27809
 H478 H 0.72469 1.28237 0.35060
 H479 H 0.76973 1.22481 0.15602
 H480 H 0.83723 1.16274 0.22893
 O481 O 0.48884 1.06227 0.03402
 O482 O 0.52165 0.93744 0.03720
 O483 O 0.44203 0.98213 0.03409
 O484 O 0.56847 1.01922 0.03589
 O485 O 0.46017 0.93133 0.01914
 O486 O 0.55099 1.06745 0.01704
 O487 O 0.57337 0.95757 0.02322
 O488 O 0.43751 1.04245 0.01881
 C489 C 0.45529 1.05891 0.03744
 C490 C 0.55473 0.94268 0.04184
 C491 C 0.44337 0.94918 0.03727
 C492 C 0.56500 1.05222 0.03760
 O493 O 0.52719 1.05839 -0.03621
 O494 O 0.48652 0.93571 -0.03410
 O495 O 0.44535 1.01887 -0.03616
 O496 O 0.56958 0.97528 -0.03253
 O497 O 0.54770 0.92742 -0.01524
 O498 O 0.46548 1.06786 -0.01960
 O499 O 0.57728 1.03680 -0.02019
 O500 O 0.43611 0.95900 -0.02049
 Co501 Co 0.50790 1.05759 -0.00103
 Co502 Co 0.50420 0.93958 0.00155
 Co503 Co 0.44659 1.00051 -0.00087
 Co504 Co 0.56589 0.99743 0.00150
 O505 O 0.50616 0.99874 0.00028
 C506 C 0.56059 1.05327 -0.03925
 C507 C 0.45334 0.94086 -0.03829
 C508 C 0.45050 1.05143 -0.03933
 C509 C 0.56545 0.94229 -0.03427
 O510 O 0.97446 0.56867 0.52077
 O511 O 1.02742 0.44341 0.54204
 O512 O 0.92245 0.46598 0.50954
 O513 O 1.07073 0.52549 0.53388
 O514 O 0.96589 0.45144 0.53596
 O515 O 1.04065 0.57032 0.51472
 O516 O 1.07737 0.45898 0.52316
 O517 O 0.94770 0.52061 0.53376
 C518 C 0.95444 0.55289 0.53810
 C519 C 1.06110 0.44568 0.54330
 C520 C 0.93258 0.44958 0.53092
 C521 C 1.06007 0.55764 0.53464
 O522 O 1.02918 0.54838 0.45902
 O523 O 0.97004 0.43293 0.47938
 O524 O 0.91460 0.53223 0.48619
 O525 O 1.07425 0.47023 0.47104
 O526 O 1.03775 0.42601 0.48551
 O527 O 0.96565 0.54816 0.46605
 O528 O 1.07847 0.53783 0.48083
 O529 O 0.95152 0.48418 0.46283
 Co530 Co 1.00305 0.55394 0.49118
 Co531 Co 1.00070 0.44300 0.50979
 Co532 Co 0.95223 0.50363 0.49815
 Co533 Co 1.06866 0.49840 0.50219
 O534 O 1.00799 0.49803 0.50141
 C535 C 1.06301 0.54916 0.45939
 C536 C 0.95460 0.45079 0.46005
 C537 C 0.93135 0.55321 0.46846
 C538 C 1.06277 0.43809 0.46912
 O539 O 1.02275 0.45967 0.05210
 O540 O 1.06061 0.50818 -0.03976
 O541 O 1.01399 0.39881 -0.02268
 O542 O 1.04113 0.55702 0.02143
 O543 O 1.04554 0.44511 -0.03676
 O544 O 1.01580 0.52570 0.05543
 O545 O 1.03582 0.55908 -0.03093
 O546 O 1.04659 0.43588 0.01452
 C547 C 1.04827 0.44170 0.04062
 C548 C 1.06198 0.54154 -0.04084
 C549 C 1.03745 0.41203 -0.04026
 C550 C 1.04008 0.54773 0.04670
 O551 O 0.94414 0.51712 0.03702
 O552 O 0.97632 0.45978 -0.05549
 O553 O 0.98370 0.41154 0.02661
 O554 O 0.96476 0.55690 -0.02676
 O555 O 0.99116 0.52341 -0.05912
 O556 O 0.95044 0.45617 0.03332
 O557 O 0.97145 0.56527 0.02585
 O558 O 0.95510 0.43527 -0.01839
 Co559 Co 0.98476 0.48977 0.04109
 Co560 Co 1.01690 0.48480 -0.04385
 Co561 Co 1.00122 0.43829 -0.00280
 Co562 Co 1.00290 0.55301 -0.00252
 O563 O 1.00052 0.49360 -0.00090
 C564 C 0.94526 0.55024 0.03766
 C565 C 0.95147 0.44203 -0.04390
 C566 C 0.95653 0.42417 0.03864
 C567 C 0.96682 0.54617 -0.05175
 O568 O 0.50978 0.96000 0.55864
 O569 O 0.54595 1.03240 0.46442
 O570 O 0.52894 0.91993 0.47326
 O571 O 0.54765 1.04338 0.51496
 O572 O 0.55600 0.96949 0.46430
 O573 O 0.52145 1.02496 0.55325
 O574 O 0.51847 1.08158 0.47736
 O575 O 0.53312 0.92360 0.52649
 C576 C 0.53245 0.93550 0.55136
 C577 C 0.54112 1.06583 0.46023
 C578 C 0.55584 0.93625 0.46323
 C579 C 0.54847 1.03973 0.54118
 O580 O 0.44959 1.03213 0.53442
 O581 O 0.48654 0.95699 0.44392
 O582 O 0.46267 0.92099 0.52937
 O583 O 0.45692 1.04900 0.48241
 O584 O 0.47581 1.02189 0.44560
 O585 O 0.43924 0.97163 0.54011
 O586 O 0.48688 1.07323 0.52631
 O587 O 0.45768 0.92667 0.47649
 Co588 Co 0.48147 0.99679 0.54318
 Co589 Co 0.51434 0.99467 0.45845
 Co590 Co 0.49569 0.92928 0.50123
 Co591 Co 0.50247 1.04365 0.49776
 O592 O 0.49705 0.98899 0.50140
 C593 C 0.45839 1.06395 0.53831
 C594 C 0.46020 0.93688 0.45149
 C595 C 0.43815 0.93851 0.54141
 C596 C 0.45289 1.04239 0.45696
 O597 O 1.07102 1.01993 0.46996
 O598 O 0.91967 1.02640 0.52500
 O599 O 0.96365 1.05852 0.46803
 O600 O 1.03307 1.05529 0.54539
 O601 O 0.91952 1.02235 0.47394
 O602 O 1.07490 1.02493 0.52216
 O603 O 0.96499 1.06098 0.53705
 O604 O 1.02806 1.05767 0.46282
 C605 C 1.06094 1.05021 0.46135
 C606 C 0.93139 1.05646 0.53404
 C607 C 0.93038 1.05285 0.46661
 C608 C 1.06572 1.05063 0.53827
 O609 O 1.05459 0.95741 0.52731
 O610 O 0.94986 0.95494 0.47725
 O611 O 1.02555 0.98926 0.44164
 O612 O 0.95693 0.99534 0.55828
 O613 O 0.94644 0.95673 0.52644
 O614 O 1.04372 0.95330 0.47454
 O615 O 1.02447 0.98756 0.55985
 O616 O 0.95934 0.99120 0.44373
 Co617 Co 1.05461 0.99043 0.49848
 Co618 Co 0.93905 0.99169 0.50067
 Co619 Co 0.99411 1.02266 0.45790
 Co620 Co 0.99469 1.02315 0.54528
 O621 O 0.99624 1.00671 0.50086
 C622 C 1.04470 0.96151 0.55233
 C623 C 0.95127 0.96014 0.45171
 C624 C 1.03793 0.95899 0.44917
 C625 C 0.94752 0.96418 0.55163
 O626 O 0.56045 0.54440 -0.01777
 O627 O 0.43564 0.54705 0.01662
 O628 O 0.47819 0.54212 -0.04924
 O629 O 0.51904 0.54895 0.04614
 O630 O 0.42755 0.52588 -0.03055
 O631 O 0.56948 0.52859 0.03023
 O632 O 0.45797 0.52706 0.05443
 O633 O 0.53932 0.52009 -0.05475
 C634 C 0.55566 0.54587 -0.04350
 C635 C 0.44193 0.55177 0.04193
 C636 C 0.44489 0.54719 -0.04596
 C637 C 0.55257 0.55245 0.04355
 O638 O 0.56160 0.45679 0.01615
 O639 O 0.43347 0.45577 -0.01220
 O640 O 0.51540 0.45186 -0.04592
 O641 O 0.48190 0.45884 0.05060
 O642 O 0.43007 0.47665 0.03474
 O643 O 0.56676 0.47265 -0.03172
 O644 O 0.54365 0.48073 0.05398
 O645 O 0.45337 0.47424 -0.05115
 Co646 Co 0.55810 0.50066 -0.00062
 Co647 Co 0.43810 0.50135 0.00200
 Co648 Co 0.49680 0.49731 -0.04521
 Co649 Co 0.50049 0.50367 0.04626
 O650 O 0.49833 0.50076 0.00060
 C651 C 0.55876 0.45492 0.04194
 C652 C 0.43773 0.45027 -0.03757
 C653 C 0.54913 0.44841 -0.04415
 C654 C 0.44839 0.45393 0.04816
 C655 C 0.37679 1.13120 0.12638
 C656 C 0.38840 1.13152 0.15455
 C657 C 0.36722 1.14923 0.17476
 C658 C 0.33454 1.16694 0.16708
 C659 C 0.32377 1.16577 0.13868
 N660 N 0.34472 1.14797 0.11939
 C661 C 0.39811 1.11239 0.10423
 N662 N 0.37984 1.09763 0.08194
 C663 C 0.39751 1.08008 0.06075
 C664 C 0.43603 1.07709 0.06095
 C665 C 0.45553 1.09238 0.08358
 C666 C 0.43669 1.10990 0.10530
 H667 H 0.37670 1.14936 0.19638
 H668 H 0.29871 1.17885 0.13183
 H669 H 0.38142 1.06888 0.04360
 H670 H 0.48527 1.09085 0.08444
 H671 H 0.41324 1.11777 0.16104
 H672 H 0.45225 1.12201 0.12236
 C673 C 0.86958 0.63226 0.61955
 C674 C 0.85638 0.66718 0.61395
 C675 C 0.83432 0.68487 0.63376
 C676 C 0.82554 0.66799 0.65922
 C677 C 0.83844 0.63267 0.66359
 N678 N 0.85966 0.61596 0.64395
 C679 C 0.89363 0.61250 0.59955
 N680 N 0.89226 0.57575 0.59858
 C681 C 0.91274 0.55595 0.58018
 C682 C 0.93646 0.57318 0.56124
 C683 C 0.93944 0.61093 0.56273
 C684 C 0.91811 0.63064 0.58175
 H685 H 0.82503 0.71207 0.62952
 H686 H 0.83210 0.61848 0.68281
 H687 H 0.90964 0.52689 0.57980
 H688 H 0.95745 0.62537 0.54860
 H689 H 0.86283 0.68070 0.59447
 H690 H 0.92083 0.65971 0.58245
 C691 C 0.63526 0.87674 0.13079
 C692 C 0.65045 0.89457 0.15419
 C693 C 0.67173 0.87513 0.17329
 C694 C 0.67857 0.83835 0.16858
 C695 C 0.66330 0.82173 0.14467
 N696 N 0.64194 0.84099 0.12675
 C697 C 0.61286 0.89607 0.11007
 N698 N 0.58146 0.88057 0.10001
 C699 C 0.56110 0.89604 0.07930
 C700 C 0.57316 0.92808 0.06681
 C701 C 0.60533 0.94451 0.07701
 C702 C 0.62496 0.92888 0.09896
 H703 H 0.68291 0.88878 0.19164
 H704 H 0.66761 0.79331 0.14059
 H705 H 0.53659 0.88247 0.07173
 H706 H 0.61566 0.96903 0.06760
 H707 H 0.64536 0.92301 0.15787
 H708 H 0.65022 0.94136 0.10626
 C709 C 1.14245 0.37321 0.62901
 C710 C 1.17560 0.35610 0.62199
 C711 C 1.19338 0.33497 0.64186
 C712 C 1.17833 0.33090 0.66877
 C713 C 1.14509 0.34844 0.67499
 N714 N 1.12801 0.36866 0.65511
 C715 C 1.12216 0.39454 0.60815
 N716 N 1.08472 0.39436 0.60849
 C717 C 1.06445 0.41150 0.58857
 C718 C 1.08205 0.42983 0.56666
 C719 C 1.12057 0.43158 0.56668
 C720 C 1.14069 0.41406 0.58738
 H721 H 1.21891 0.32183 0.63614
 H722 H 1.13242 0.34572 0.69544
 H723 H 1.03474 0.40998 0.58946
 H724 H 1.13523 0.44593 0.55041
 H725 H 1.18727 0.35823 0.60115
 H726 H 1.17041 0.41563 0.58700
 C727 C 0.64086 1.12610 -0.12641
 C728 C 0.67369 1.14463 -0.12028
 C729 C 0.69118 1.16429 -0.14134
 C730 C 0.67636 1.16528 -0.16862
 C731 C 0.64356 1.14623 -0.17390
 N732 N 0.62670 1.12770 -0.15292
 C733 C 0.62085 1.10583 -0.10447
 N734 N 0.58337 1.10472 -0.10501
 C735 C 0.56344 1.08759 -0.08485
 C736 C 0.58134 1.07005 -0.06256
 C737 C 0.61996 1.06995 -0.06217
 C738 C 0.63973 1.08784 -0.08294
 H739 H 0.71625 1.17877 -0.13626
 H740 H 0.63088 1.14662 -0.19453
 H741 H 0.53370 1.08806 -0.08608
 H742 H 0.63496 1.05656 -0.04551
 H743 H 0.68529 1.14470 -0.09929
 H744 H 0.66949 1.08739 -0.08220
 C745 C 1.14191 0.62832 0.37535
 C746 C 1.17059 0.65205 0.38266
 C747 C 1.18708 0.67297 0.36190
 C748 C 1.17531 0.67014 0.33383
 C749 C 1.14650 0.64610 0.32743
 N750 N 1.13057 0.62633 0.34808
 C751 C 1.12283 0.60642 0.39671
 N752 N 1.08650 0.59857 0.39312
 C753 C 1.06699 0.57959 0.41242
 C754 C 1.08417 0.56719 0.43701
 C755 C 1.12188 0.57398 0.44065
 C756 C 1.14125 0.59359 0.42063
 H757 H 1.20906 0.69127 0.36781
 H758 H 1.13628 0.64332 0.30612
 H759 H 1.03801 0.57470 0.40873
 H760 H 1.13628 0.56471 0.45923
 H761 H 1.17968 0.65509 0.40425
 H762 H 1.17032 0.59847 0.42383
 C763 C 0.37093 0.86789 -0.12488
 C764 C 0.38102 0.86741 -0.15330
 C765 C 0.35838 0.85015 -0.17291
 C766 C 0.32585 0.83301 -0.16430
 C767 C 0.31674 0.83411 -0.13566
 N768 N 0.33903 0.85158 -0.11697
 C769 C 0.39340 0.88676 -0.10344
 N770 N 0.37609 0.90256 -0.08127
 C771 C 0.39475 0.92037 -0.06067
 C772 C 0.43331 0.92251 -0.06136
 C773 C 0.45186 0.90612 -0.08386
 C774 C 0.43198 0.88839 -0.10505
 H775 H 0.36658 0.84990 -0.19479
 H776 H 0.29187 0.82138 -0.12814
 H777 H 0.37938 0.93237 -0.04355
 H778 H 0.48160 0.90700 -0.08503
 H779 H 0.40574 0.88079 -0.16043
 H780 H 0.44668 0.87547 -0.12211
 C781 C 0.86966 0.37854 0.37465
 C782 C 0.86524 0.39101 0.34705
 C783 C 0.84308 0.37181 0.32828
 C784 C 0.82514 0.34013 0.33678
 C785 C 0.82990 0.32873 0.36467
 N786 N 0.85199 0.34779 0.38258
 C787 C 0.89358 0.39769 0.39512
 N788 N 0.91002 0.37866 0.41610
 C789 C 0.93139 0.39473 0.43611
 C790 C 0.93653 0.43230 0.43608
 C791 C 0.92023 0.45236 0.41444
 C792 C 0.89884 0.43522 0.39395
 H793 H 0.84044 0.38156 0.30694
 H794 H 0.81696 0.30423 0.37200
 H795 H 0.94317 0.37830 0.45259
 H796 H 0.92308 0.48145 0.41382
 H797 H 0.87949 0.41476 0.33968
 H798 H 0.88551 0.45147 0.37808
 C799 C 1.14282 0.36505 0.11875
 C800 C 1.17021 0.33957 0.11205
 C801 C 1.18795 0.32043 0.13359
 C802 C 1.17888 0.32639 0.16201
 C803 C 1.15176 0.35246 0.16779
 N804 N 1.13483 0.37064 0.14647
 C805 C 1.12189 0.38600 0.09693
 N806 N 1.10037 0.41400 0.10562
 C807 C 1.07865 0.43328 0.08777
 C808 C 1.07687 0.42461 0.05892
 C809 C 1.09947 0.39648 0.04918
 C810 C 1.12191 0.37716 0.06799
 H811 H 1.20888 0.30093 0.12792
 H812 H 1.14381 0.35832 0.18925
 H813 H 1.06179 0.45470 0.09638
 H814 H 1.09869 0.38844 0.02724
 H815 H 1.17832 0.33441 0.09056
 H816 H 1.13784 0.35487 0.05985
 C817 C 0.63399 0.87546 0.63233
 C818 C 0.63320 0.88359 0.66124
 C819 C 0.65619 0.86504 0.67968
 C820 C 0.68004 0.83805 0.66974
 C821 C 0.68062 0.83119 0.64064
 N822 N 0.65778 0.84958 0.62303
 C823 C 0.60836 0.89264 0.61187
 N824 N 0.60398 0.87719 0.58598
 C825 C 0.58025 0.89040 0.56638
 C826 C 0.55867 0.92091 0.57239
 C827 C 0.56304 0.93762 0.59874
 C828 C 0.58793 0.92387 0.61837
 H829 H 0.65446 0.87127 0.70193
 H830 H 0.69842 0.81057 0.63196
 H831 H 0.57801 0.87678 0.54624
 H832 H 0.54741 0.96154 0.60413
 H833 H 0.61431 0.90305 0.67003
 H834 H 0.59103 0.93801 0.63816
 C835 C 1.15054 0.62448 -0.11630
 C836 C 1.17374 0.65348 -0.10930
 C837 C 1.18846 0.67499 -0.13059
 C838 C 1.17990 0.66817 -0.15915
 C839 C 1.15692 0.63824 -0.16506
 N840 N 1.14325 0.61761 -0.14391
 C841 C 1.13248 0.60211 -0.09446
 N842 N 1.12446 0.56684 -0.10011
 C843 C 1.10481 0.54587 -0.08208
 C844 C 1.09051 0.56074 -0.05718
 C845 C 1.09915 0.59675 -0.05065
 C846 C 1.12039 0.61737 -0.06901
 H847 H 1.20622 0.69720 -0.12446
 H848 H 1.14959 0.63108 -0.18648
 H849 H 1.09838 0.51836 -0.08809
 H850 H 1.08828 0.60936 -0.03181
 H851 H 1.18065 0.65943 -0.08759
 H852 H 1.12539 0.64549 -0.06404
 C853 C 0.62991 1.14247 0.38140
 C854 C 0.63556 1.12683 0.35486
 C855 C 0.65473 1.14584 0.33455
 C856 C 0.66856 1.18037 0.34059
 C857 C 0.66246 1.19513 0.36744
 N858 N 0.64315 1.17618 0.38691
 C859 C 0.60908 1.12292 0.40297
 N860 N 0.58472 1.14097 0.41959
 C861 C 0.56303 1.12355 0.43844
 C862 C 0.56533 1.08593 0.44115
 C863 C 0.59112 1.06715 0.42485
 C864 C 0.61298 1.08550 0.40579
 H865 H 0.65881 1.13340 0.31412
 H866 H 0.67246 1.22183 0.37279
 H867 H 0.54372 1.13898 0.45092
 H868 H 0.59421 1.03819 0.42659
 H869 H 0.62466 1.10042 0.34963
 H870 H 0.63268 1.07052 0.39331
 C871 C 0.85389 0.63024 0.11446
 C872 C 0.83677 0.66345 0.10906
 C873 C 0.81874 0.68171 0.13082
 C874 C 0.81793 0.66722 0.15807
 C875 C 0.83474 0.63356 0.16240
 N876 N 0.85190 0.61617 0.14082
 C877 C 0.87475 0.61043 0.09248
 N878 N 0.87677 0.57378 0.09373
 C879 C 0.89737 0.55399 0.07544
 C880 C 0.91865 0.57115 0.05482
 C881 C 0.91667 0.60888 0.05292
 C882 C 0.89460 0.62857 0.07154
 H883 H 0.80610 0.70753 0.12642
 H884 H 0.83449 0.62116 0.18295
 H885 H 0.89828 0.52497 0.07782
 H886 H 0.93287 0.62320 0.03750
 H887 H 0.83714 0.67518 0.08826
 H888 H 0.89443 0.65772 0.07028
 C889 C 0.37952 1.14981 0.61721
 C890 C 0.36718 1.18533 0.61383
 C891 C 0.34765 1.20180 0.63559
 C892 C 0.34130 1.18306 0.66068
 C893 C 0.35470 1.14784 0.66331
 N894 N 0.37282 1.13214 0.64164
 C895 C 0.39816 1.13008 0.59468
 N896 N 0.39085 1.09432 0.59180
 C897 C 0.40867 1.07330 0.57293
 C898 C 0.43657 1.08797 0.55625
 C899 C 0.44432 1.12494 0.55850
 C900 C 0.42483 1.14628 0.57762
 H901 H 0.33762 1.22908 0.63288
 H902 H 0.35000 1.13244 0.68224
 H903 H 0.40185 1.04489 0.57175
 H904 H 0.46578 1.13707 0.54595
 H905 H 0.37167 1.19974 0.59439
 H906 H 0.43156 1.17462 0.57988
 C907 C 0.85448 0.37648 -0.12565
 C908 C 0.85767 0.38655 -0.15406
 C909 C 0.83900 0.36709 -0.17501
 C910 C 0.81699 0.33727 -0.16811
 C911 C 0.81458 0.32797 -0.13945
 N912 N 0.83320 0.34730 -0.11937
 C913 C 0.87515 0.39587 -0.10274
 N914 N 0.88391 0.37838 -0.07838
 C915 C 0.90553 0.39362 -0.05787
 C916 C 0.92056 0.42823 -0.06158
 C917 C 0.91028 0.44731 -0.08577
 C918 C 0.88744 0.43157 -0.10609
 H919 H 0.84214 0.37527 -0.19670
 H920 H 0.79818 0.30510 -0.13300
 H921 H 0.91290 0.37786 -0.03961
 H922 H 0.92099 0.47414 -0.08942
 H923 H 0.87518 0.40862 -0.16040
 H924 H 0.88023 0.44719 -0.12444
 C925 C 0.35557 0.88278 0.37040
 C926 C 0.34951 0.89748 0.34361
 C927 C 0.32726 0.87911 0.32435
 C928 C 0.31040 0.84646 0.33176
 C929 C 0.31515 0.83389 0.35932
 N930 N 0.33760 0.85190 0.37756
 C931 C 0.38192 0.89888 0.39079
 N932 N 0.38016 0.88866 0.41822
 C933 C 0.40450 0.90063 0.43794
 C934 C 0.43313 0.92406 0.43040
 C935 C 0.43547 0.93505 0.40229
 C936 C 0.41012 0.92248 0.38245
 H937 H 0.32385 0.89015 0.30346
 H938 H 0.30249 0.80894 0.36600
 H939 H 0.40160 0.89152 0.45942
 H940 H 0.45714 0.95306 0.39553
 H941 H 0.36196 0.92262 0.33724
 H942 H 0.41355 0.93050 0.36081
 C943 C 1.14577 1.13329 0.38455
 C944 C 1.18248 1.14424 0.38728
 C945 C 1.19872 1.16365 0.36557
 C946 C 1.17862 1.17144 0.34106
 C947 C 1.14215 1.15961 0.33904
 N948 N 1.12669 1.14145 0.36072
 C949 C 1.12666 1.11397 0.40708
 N950 N 1.09051 1.12127 0.41126
 C951 C 1.06995 1.10280 0.42999
 C952 C 1.08533 1.07403 0.44512
 C953 C 1.12286 1.06653 0.44173
 C954 C 1.14378 1.08673 0.42283
 H955 H 1.22708 1.17222 0.36778
 H956 H 1.12580 1.16528 0.32052
 H957 H 1.04111 1.10957 0.43193
 H958 H 1.13564 1.04443 0.45291
 H959 H 1.19813 1.13855 0.40616
 H960 H 1.17243 1.07999 0.41959
 C961 C 0.62899 0.64020 -0.12054
 C962 C 0.65440 0.66748 -0.11380
 C963 C 0.67381 0.68437 -0.13527
 C964 C 0.66791 0.67457 -0.16356
 C965 C 0.64140 0.64809 -0.16949
 N966 N 0.62309 0.63174 -0.14815
 C967 C 0.60881 0.61954 -0.09882
 N968 N 0.58026 0.59843 -0.10743
 C969 C 0.56191 0.57631 -0.08970
 C970 C 0.57241 0.57388 -0.06133
 C971 C 0.60095 0.59611 -0.05157
 C972 C 0.61935 0.61889 -0.07024
 H973 H 0.69353 0.70513 -0.12965
 H974 H 0.63572 0.63983 -0.19094
 H975 H 0.53981 0.55981 -0.09807
 H976 H 0.61001 0.59477 -0.02987
 H977 H 0.65940 0.67602 -0.09236
 H978 H 0.64233 0.63447 -0.06236
 C979 C 0.85205 1.15047 0.60581
 C980 C 0.87362 1.16216 0.62868
 C981 C 0.85699 1.17968 0.65133
 C982 C 0.81910 1.18626 0.65089
 C983 C 0.79850 1.17451 0.62748
 N984 N 0.81517 1.15662 0.60594
 C985 C 0.86893 1.13003 0.58253
 N986 N 0.85363 1.09834 0.57363
 C987 C 0.87131 1.07570 0.55547
 C988 C 0.90680 1.08424 0.54605
 C989 C 0.92147 1.11816 0.55321
 C990 C 0.90273 1.14099 0.57149
 H991 H 0.87368 1.18822 0.66908
 H992 H 0.76906 1.17874 0.62665
 H993 H 0.85893 1.04994 0.55024
 H994 H 0.94858 1.12608 0.54613
 H995 H 0.90291 1.15695 0.62936
 H996 H 0.91526 1.16626 0.57794
 C997 C 0.37557 0.64984 0.11972
 C998 C 0.38588 0.64747 0.14821
 C999 C 0.36536 0.66537 0.16870
 C1000 C 0.33431 0.68559 0.16114
 C1001 C 0.32493 0.68742 0.13242
 N1002 N 0.34530 0.66955 0.11279
 C1003 C 0.39534 0.62929 0.09749
 N1004 N 0.37715 0.61918 0.07352
 C1005 C 0.39252 0.59689 0.05386
 C1006 C 0.42771 0.58256 0.05840
 C1007 C 0.44759 0.59427 0.08205
 C1008 C 0.43185 0.61797 0.10133
 H1009 H 0.37356 0.66285 0.19052
 H1010 H 0.30111 0.70255 0.12557
 H1011 H 0.37637 0.58847 0.03581
 H1012 H 0.47498 0.58405 0.08616
 H1013 H 0.40878 0.63104 0.15497
 H1014 H 0.44796 0.62640 0.11937
 C1015 C 1.11126 0.86527 0.63176
 C1016 C 1.13840 0.84069 0.62309
 C1017 C 1.15851 0.82167 0.64309
 C1018 C 1.15218 0.82703 0.67205
 C1019 C 1.12436 0.85177 0.67975
 N1020 N 1.10524 0.87007 0.65976
 C1021 C 1.09075 0.88776 0.61133
 N1022 N 1.07610 0.91979 0.62005
 C1023 C 1.05946 0.94308 0.60197
 C1024 C 1.05770 0.93491 0.57314
 C1025 C 1.07106 0.90135 0.56398
 C1026 C 1.08720 0.87764 0.58294
 H1027 H 1.17949 0.80321 0.63563
 H1028 H 1.11803 0.85715 0.70162
 H1029 H 1.04912 0.96854 0.60992
 H1030 H 1.06953 0.89359 0.54200
 H1031 H 1.14515 0.83683 0.60115
 H1032 H 1.09697 0.85190 0.57520
 C1033 C 0.63376 0.35725 0.11590
 C1034 C 0.66244 0.33311 0.10945
 C1035 C 0.68114 0.31561 0.13131
 C1036 C 0.67139 0.32204 0.15949
 C1037 C 0.64211 0.34572 0.16486
 N1038 N 0.62456 0.36239 0.14336
 C1039 C 0.61344 0.37869 0.09458
 N1040 N 0.58518 0.39954 0.10396
 C1041 C 0.56648 0.42252 0.08711
 C1042 C 0.57616 0.42616 0.05877
 C1043 C 0.60425 0.40412 0.04807
 C1044 C 0.62308 0.38036 0.06592
 H1045 H 0.70340 0.29736 0.12615
 H1046 H 0.63326 0.35140 0.18614
 H1047 H 0.54471 0.43871 0.09617
 H1048 H 0.61255 0.40625 0.02629
 H1049 H 0.67069 0.32770 0.08804
 H1050 H 0.64544 0.36465 0.05736
 C1051 C 0.88903 0.85676 0.37494
 C1052 C 0.86245 0.83167 0.38371
 C1053 C 0.84248 0.81210 0.36364
 C1054 C 0.84885 0.81741 0.33486
 C1055 C 0.87637 0.84202 0.32705
 N1056 N 0.89512 0.86104 0.34695
 C1057 C 0.90829 0.88103 0.39496
 N1058 N 0.92089 0.91340 0.38553
 C1059 C 0.93630 0.93845 0.40295
 C1060 C 0.93919 0.93170 0.43186
 C1061 C 0.92800 0.89786 0.44183
 C1062 C 0.91268 0.87245 0.42350
 H1063 H 0.82142 0.79357 0.37066
 H1064 H 0.88233 0.84705 0.30513
 H1065 H 0.94509 0.96401 0.39435
 H1066 H 0.93027 0.89132 0.46395
 H1067 H 0.85586 0.82816 0.40568
 H1068 H 0.90418 0.84663 0.43174
 C1069 C 0.36500 0.34837 -0.10916
 C1070 C 0.33481 0.32587 -0.10337
 C1071 C 0.31650 0.30846 -0.12563
 C1072 C 0.32813 0.31352 -0.15350
 C1073 C 0.35890 0.33549 -0.15815
 N1074 N 0.37609 0.35203 -0.13629
 C1075 C 0.38499 0.36973 -0.08753
 N1076 N 0.41694 0.38573 -0.09551
 C1077 C 0.43531 0.40951 -0.07893
 C1078 C 0.42123 0.41934 -0.05261
 C1079 C 0.38936 0.40201 -0.04304
 C1080 C 0.37099 0.37719 -0.06051
 H1081 H 0.29304 0.29148 -0.12107
 H1082 H 0.36929 0.33986 -0.17917
 H1083 H 0.46014 0.42188 -0.08690
 H1084 H 0.37763 0.40910 -0.02284
 H1085 H 0.32531 0.32163 -0.08213
 H1086 H 0.34540 0.36564 -0.05337
 C1087 C 1.11927 0.32806 -0.11895
 C1088 C 1.10294 0.31684 -0.14429
 C1089 C 1.12493 0.30225 -0.16542
 C1090 C 1.16281 0.29812 -0.16094
 C1091 C 1.17784 0.30853 -0.13494
 N1092 N 1.15607 0.32374 -0.11502
 C1093 C 1.09803 0.34767 -0.09768
 N1094 N 1.11311 0.37763 -0.08567
 C1095 C 1.09435 0.39835 -0.06702
 C1096 C 1.05852 0.38884 -0.05929
 C1097 C 1.04277 0.35752 -0.07075
 C1098 C 1.06237 0.33698 -0.09026
 H1099 H 1.11249 0.29449 -0.18529
 H1100 H 1.20704 0.30595 -0.13089
 H1101 H 1.10740 0.42223 -0.05833
 H1102 H 1.01508 0.34955 -0.06519
 H1103 H 1.07385 0.32074 -0.14815
 H1104 H 1.04992 0.31307 -0.09942
 C1105 C 0.64977 0.86198 0.38587
 C1106 C 0.66773 0.82905 0.39040
 C1107 C 0.68604 0.81225 0.36818
 C1108 C 0.68625 0.82798 0.34135
 C1109 C 0.66839 0.86122 0.33782
 N1110 N 0.65098 0.87722 0.35988
 C1111 C 0.62885 0.88027 0.40837
 N1112 N 0.62657 0.91691 0.40830
 C1113 C 0.60543 0.93542 0.42695
 C1114 C 0.58380 0.91682 0.44654
 C1115 C 0.58629 0.87907 0.44738
 C1116 C 0.60897 0.86071 0.42847
 H1117 H 0.69957 0.78669 0.37191
 H1118 H 0.66823 0.87449 0.31760
 H1119 H 0.60415 0.96453 0.42547
 H1120 H 0.56984 0.86373 0.46203
 H1121 H 0.66788 0.81650 0.41091
 H1122 H 0.60946 0.83151 0.42872
 C1123 C 0.87477 0.61555 -0.13351
 C1124 C 0.88195 0.61413 -0.16246
 C1125 C 0.86106 0.63488 -0.18075
 C1126 C 0.83311 0.65750 -0.17049
 C1127 C 0.82682 0.65836 -0.14140
 N1128 N 0.84761 0.63774 -0.12390
 C1129 C 0.89732 0.59537 -0.11298
 N1130 N 0.89715 0.60637 -0.08563
 C1131 C 0.91840 0.59055 -0.06569
 C1132 C 0.94207 0.56206 -0.07294
 C1133 C 0.94207 0.54963 -0.10082
 C1134 C 0.91951 0.56589 -0.12082
 H1135 H 0.86732 0.63352 -0.20299
 H1136 H 0.80561 0.67543 -0.13255
 H1137 H 0.91728 0.60079 -0.04434
 H1138 H 0.95957 0.52742 -0.10721
 H1139 H 0.90403 0.59810 -0.17112
 H1140 H 0.91965 0.55522 -0.14201
 C1141 C 0.36413 1.12807 0.38200
 C1142 C 0.33784 1.15430 0.38940
 C1143 C 0.32173 1.17565 0.36845
 C1144 C 0.33149 1.17109 0.34004
 C1145 C 0.35782 1.14453 0.33361
 N1146 N 0.37305 1.12413 0.35433
 C1147 C 0.38279 1.10439 0.40304
 N1148 N 0.40135 1.07484 0.39351
 C1149 C 0.42149 1.05318 0.41070
 C1150 C 0.42471 1.06108 0.43955
 C1151 C 0.40488 1.09067 0.45015
 C1152 C 0.38395 1.11234 0.43206
 H1153 H 0.30122 1.19537 0.37450
 H1154 H 0.36612 1.13967 0.31208
 H1155 H 0.43631 1.03071 0.40152
 H1156 H 0.40699 1.09812 0.47217
 H1157 H 0.32911 1.15808 0.41092
 H1158 H 0.37041 1.13583 0.44072
 C1159 C 1.13597 0.62392 0.12258
 C1160 C 1.16788 0.64295 0.11481
 C1161 C 1.18569 0.66491 0.13452
 C1162 C 1.17230 0.66747 0.16204
 C1163 C 1.14103 0.64727 0.16918
 N1164 N 1.12385 0.62653 0.14954
 C1165 C 1.11418 0.60202 0.10240
 N1166 N 1.08779 0.57937 0.11249
 C1167 C 1.06467 0.56046 0.09531
 C1168 C 1.06699 0.56445 0.06609
 C1169 C 1.09454 0.58697 0.05528
 C1170 C 1.11796 0.60581 0.07322
 H1171 H 1.21016 0.67948 0.12832
 H1172 H 1.12987 0.64826 0.19025
 H1173 H 1.04388 0.54331 0.10452
 H1174 H 1.09744 0.59091 0.03283
 H1175 H 1.17943 0.64097 0.09396
 H1176 H 1.13762 0.62407 0.06400
 C1177 C 0.63717 1.12523 0.61607
 C1178 C 0.66192 1.15275 0.60866
 C1179 C 0.67668 1.17523 0.62957
 C1180 C 0.66723 1.17044 0.65795
 C1181 C 0.64262 1.14253 0.66447
 N1182 N 0.62849 1.12113 0.64374
 C1183 C 0.61928 1.10080 0.59507
 N1184 N 0.59894 1.07270 0.60485
 C1185 C 0.57872 1.05090 0.58768
 C1186 C 0.57733 1.05723 0.55861
 C1187 C 0.59938 1.08488 0.54773
 C1188 C 0.62032 1.10674 0.56582
 H1189 H 0.69594 1.19605 0.62348
 H1190 H 0.63468 1.13753 0.68602
 H1191 H 0.56222 1.02982 0.59700
 H1192 H 0.59875 1.09099 0.52548
 H1193 H 0.67037 1.15698 0.58718
 H1194 H 0.63551 1.12884 0.55681
 C1195 C 0.87518 0.35096 0.12328
 C1196 C 0.87180 0.36852 0.14932
 C1197 C 0.85234 0.35204 0.17081
 C1198 C 0.83587 0.31831 0.16626
 C1199 C 0.84049 0.30124 0.14003
 N1200 N 0.85998 0.31774 0.11941
 C1201 C 0.89395 0.36887 0.09999
 N1202 N 0.91961 0.35081 0.08458
 C1203 C 0.93932 0.36742 0.06408
 C1204 C 0.93336 0.40406 0.05836
 C1205 C 0.90591 0.42249 0.07327
 C1206 C 0.88634 0.40507 0.09416
 H1207 H 0.84943 0.36610 0.19072
 H1208 H 0.82851 0.27498 0.13590
 H1209 H 0.96008 0.35232 0.05278
 H1210 H 0.90022 0.45071 0.06934
 H1211 H 0.88403 0.39481 0.15295
 H1212 H 0.86565 0.41980 0.10586
 C1213 C 0.34772 0.86519 0.62166
 C1214 C 0.32426 0.83638 0.61508
 C1215 C 0.30561 0.81864 0.63666
 C1216 C 0.31118 0.82868 0.66510
 C1217 C 0.33562 0.85757 0.67054
 N1218 N 0.35255 0.87493 0.64906
 C1219 C 0.36776 0.88486 0.59949
 N1220 N 0.38282 0.86661 0.57738
 C1221 C 0.40406 0.88333 0.55780
 C1222 C 0.41100 0.92056 0.55983
 C1223 C 0.39444 0.93998 0.58186
 C1224 C 0.37327 0.92217 0.60187
 H1225 H 0.28731 0.79668 0.63094
 H1226 H 0.34102 0.86687 0.69179
 H1227 H 0.41623 0.86742 0.54108
 H1228 H 0.39913 0.96868 0.58434
 H1229 H 0.31994 0.82807 0.59343
 H1230 H 0.36162 0.93733 0.61923
 C1231 C 0.38164 1.13114 -0.12711
 C1232 C 0.36443 1.16375 -0.11987
 C1233 C 0.34407 1.18206 -0.14001
 C1234 C 0.34114 1.16810 -0.16737
 C1235 C 0.35885 1.13546 -0.17384
 N1236 N 0.37814 1.11774 -0.15368
 C1237 C 0.40227 1.11069 -0.10600
 N1238 N 0.39940 1.07406 -0.10540
 C1239 C 0.41562 1.05414 -0.08489
 C1240 C 0.43574 1.07136 -0.06345
 C1241 C 0.44037 1.10890 -0.06457
 C1242 C 0.42367 1.12862 -0.08576
 H1243 H 0.33077 1.20718 -0.13424
 H1244 H 0.35684 1.12374 -0.19471
 H1245 H 0.41194 1.02515 -0.08491
 H1246 H 0.45620 1.12319 -0.04869
 H1247 H 0.36603 1.17460 -0.09870
 H1248 H 0.42715 1.15764 -0.08615
 C1249 C 0.86060 0.62398 0.37613
 C1250 C 0.87602 0.62280 0.34904
 C1251 C 0.85975 0.64234 0.32730
 C1252 C 0.82844 0.66322 0.33264
 C1253 C 0.81319 0.66260 0.35981
 N1254 N 0.82943 0.64329 0.38059
 C1255 C 0.87865 0.60634 0.40016
 N1256 N 0.85812 0.59111 0.42095
 C1257 C 0.87385 0.57474 0.44362
 C1258 C 0.91226 0.57361 0.44621
 C1259 C 0.93357 0.59044 0.42547
 C1260 C 0.91697 0.60657 0.40248
 H1261 H 0.87209 0.64182 0.30660
 H1262 H 0.78853 0.67772 0.36465
 H1263 H 0.85649 0.56221 0.45921
 H1264 H 0.96332 0.59060 0.42664
 H1265 H 0.90049 0.60710 0.34475
 H1266 H 0.93402 0.61948 0.38684
 C1267 C 0.63099 1.13600 0.12612
 C1268 C 0.64918 1.16826 0.11955
 C1269 C 0.66773 1.18720 0.14058
 C1270 C 0.66818 1.17423 0.16823
 C1271 C 0.64963 1.14185 0.17400
 N1272 N 0.63199 1.12359 0.15301
 C1273 C 0.61186 1.11488 0.10413
 N1274 N 0.61185 1.07815 0.10533
 C1275 C 0.59643 1.05736 0.08472
 C1276 C 0.58002 1.07363 0.06124
 C1277 C 0.57857 1.11142 0.06024
 C1278 C 0.59438 1.13207 0.08157
 H1279 H 0.68172 1.21202 0.13517
 H1280 H 0.64963 1.13077 0.19501
 H1281 H 0.59744 1.02831 0.08653
 H1282 H 0.56563 1.12512 0.04275
 H1283 H 0.64982 1.17843 0.09826
 H1284 H 0.59289 1.16120 0.08036
 C1285 C 1.11347 0.64516 0.62636
 C1286 C 1.12633 0.68043 0.62224
 C1287 C 1.14510 0.69809 0.64391
 C1288 C 1.15091 0.68092 0.66980
 C1289 C 1.13652 0.64615 0.67344
 N1290 N 1.11894 0.62917 0.65178
 C1291 C 1.09727 0.62376 0.60305
 N1292 N 1.10200 0.58736 0.60307
 C1293 C 1.09001 0.56591 0.58167
 C1294 C 1.07203 0.58096 0.55831
 C1295 C 1.06579 0.61832 0.55820
 C1296 C 1.07841 0.63982 0.58049
 H1297 H 1.15566 0.72500 0.64022
 H1298 H 1.14051 0.63192 0.69304
 H1299 H 1.09484 0.53714 0.58288
 H1300 H 1.05154 0.63093 0.54080
 H1301 H 1.12347 0.69376 0.60216
 H1302 H 1.07332 0.66857 0.58003
 C1303 C 0.64349 0.85865 -0.11697
 C1304 C 0.65925 0.82483 -0.11125
 C1305 C 0.67826 0.80645 -0.13241
 C1306 C 0.68147 0.82159 -0.15927
 C1307 C 0.66570 0.85566 -0.16397
 N1308 N 0.64756 0.87311 -0.14300
 C1309 C 0.62295 0.87931 -0.09546
 N1310 N 0.62223 0.91602 -0.09694
 C1311 C 0.60385 0.93675 -0.07791
 C1312 C 0.58443 0.92049 -0.05591
 C1313 C 0.58413 0.88267 -0.05439
 C1314 C 0.60335 0.86203 -0.07403
 H1315 H 0.69012 0.78032 -0.12784
 H1316 H 0.66784 0.86855 -0.18427
 H1317 H 0.60456 0.96582 -0.07994
 H1318 H 0.56926 0.86900 -0.03788
 H1319 H 0.65742 0.81285 -0.09060
 H1320 H 0.60232 0.83292 -0.07264
 C1321 C 1.12989 0.35537 0.38030
 C1322 C 1.11245 0.34819 0.35444
 C1323 C 1.13227 0.33155 0.33270
 C1324 C 1.16907 0.32139 0.33694
 C1325 C 1.18522 0.32871 0.36324
 N1326 N 1.16571 0.34568 0.38376
 C1327 C 1.11128 0.37516 0.40336
 N1328 N 1.13135 0.39892 0.41905
 C1329 C 1.11639 0.41865 0.44029
 C1330 C 1.07915 0.41462 0.44725
 C1331 C 1.05801 0.38958 0.43194
 C1332 C 1.07390 0.37005 0.40972
 H1333 H 1.11879 0.32633 0.31274
 H1334 H 1.21359 0.32156 0.36735
 H1335 H 1.13364 0.43755 0.45174
 H1336 H 1.02912 0.38590 0.43663
 H1337 H 1.08421 0.35619 0.35080
 H1338 H 1.05730 0.35099 0.39788
 C1339 C 0.35830 0.87653 0.12144
 C1340 C 0.35322 0.89056 0.14860
 C1341 C 0.33357 0.87073 0.16823
 C1342 C 0.31880 0.83685 0.16105
 C1343 C 0.32435 0.82375 0.13363
 N1344 N 0.34396 0.84353 0.11484
 C1345 C 0.38002 0.89622 0.10024
 N1346 N 0.39845 0.87713 0.08023
 C1347 C 0.41928 0.89343 0.06030
 C1348 C 0.42214 0.93121 0.05959
 C1349 C 0.40315 0.95146 0.07986
 C1350 C 0.38208 0.93411 0.10018
 H1351 H 0.33013 0.88196 0.18915
 H1352 H 0.31372 0.79764 0.12728
 H1353 H 0.43326 0.87683 0.04488
 H1354 H 0.40433 0.98068 0.07986
 H1355 H 0.36505 0.91615 0.15496
 H1356 H 0.36705 0.95032 0.11525
 C1357 C 0.84332 0.37775 0.61362
 C1358 C 0.81334 0.35515 0.60740
 C1359 C 0.79682 0.33548 0.62898
 C1360 C 0.80982 0.33832 0.65683
 C1361 C 0.83951 0.36163 0.66216
 N1362 N 0.85542 0.38010 0.64075
 C1363 C 0.86408 0.39716 0.59148
 N1364 N 0.89974 0.40576 0.59691
 C1365 C 0.92144 0.42261 0.57791
 C1366 C 0.90756 0.43223 0.55136
 C1367 C 0.87060 0.42447 0.54530
 C1368 C 0.84875 0.40678 0.56528
 H1369 H 0.77399 0.31786 0.62378
 H1370 H 0.85057 0.36470 0.68321
 H1371 H 0.94968 0.42838 0.58366
 H1372 H 0.85883 0.43166 0.52515
 H1373 H 0.80339 0.35170 0.58609
 H1374 H 0.82027 0.40113 0.56031
 C1375 C 1.15867 1.13529 0.60830
 C1376 C 1.19565 1.14577 0.60642
 C1377 C 1.21194 1.16419 0.62910
 C1378 C 1.19160 1.17098 0.65363
 C1379 C 1.15496 1.15955 0.65466
 N1380 N 1.13953 1.14268 0.63218
 C1381 C 1.13891 1.11713 0.58518
 N1382 N 1.10327 1.12647 0.58089
 C1383 C 1.08074 1.10750 0.56359
 C1384 C 1.09319 1.07575 0.55044
 C1385 C 1.13052 1.06661 0.55316
 C1386 C 1.15365 1.08749 0.57049
 H1387 H 1.24040 1.17263 0.62768
 H1388 H 1.13836 1.16459 0.67314
 H1389 H 1.05237 1.11601 0.56167
 H1390 H 1.14114 1.04227 0.54345
 H1391 H 1.21138 1.14046 0.58755
 H1392 H 1.18183 1.07913 0.57393
 C1393 C 0.62749 0.64469 0.12093
 C1394 C 0.63330 0.68193 0.11870
 C1395 C 0.65313 0.69982 0.13976
 C1396 C 0.66596 0.68076 0.16323
 C1397 C 0.65877 0.64372 0.16492
 N1398 N 0.64046 0.62668 0.14375
 C1399 C 0.60900 0.62412 0.09860
 N1400 N 0.62472 0.59296 0.08947
 C1401 C 0.60803 0.57106 0.07039
 C1402 C 0.57275 0.57937 0.06035
 C1403 C 0.55614 0.61163 0.06920
 C1404 C 0.57451 0.63445 0.08809
 H1405 H 0.65828 0.72846 0.13784
 H1406 H 0.66859 0.62816 0.18262
 H1407 H 0.62154 0.54621 0.06426
 H1408 H 0.52884 0.61875 0.06194
 H1409 H 0.62352 0.69668 0.10056
 H1410 H 0.56132 0.65895 0.09539
 C1411 C 1.10901 0.86497 0.37038
 C1412 C 1.13608 0.84049 0.37940
 C1413 C 1.15779 0.82263 0.35958
 C1414 C 1.15280 0.82910 0.33077
 C1415 C 1.12542 0.85376 0.32265
 N1416 N 1.10476 0.87095 0.34235
 C1417 C 1.08677 0.88640 0.39046
 N1418 N 1.07270 0.91865 0.38199
 C1419 C 1.05468 0.94129 0.39985
 C1420 C 1.05073 0.93219 0.42827
 C1421 C 1.06313 0.89820 0.43706
 C1422 C 1.08092 0.87519 0.41825
 H1423 H 1.17866 0.80402 0.36685
 H1424 H 1.12057 0.85971 0.30069
 H1425 H 1.04517 0.96709 0.39213
 H1426 H 1.06009 0.88983 0.45872
 H1427 H 1.14137 0.83580 0.40147
 H1428 H 1.09037 0.84925 0.42564
 C1429 C 0.62567 0.35558 -0.11971
 C1430 C 0.62934 0.31794 -0.11935
 C1431 C 0.64938 0.30089 -0.14067
 C1432 C 0.66450 0.32138 -0.16248
 C1433 C 0.65979 0.35884 -0.16216
 N1434 N 0.64116 0.37488 -0.14083
 C1435 C 0.60642 0.37529 -0.09740
 N1436 N 0.62330 0.40446 -0.08575
 C1437 C 0.60602 0.42654 -0.06726
 C1438 C 0.56892 0.42076 -0.06055
 C1439 C 0.55104 0.39040 -0.07191
 C1440 C 0.56997 0.36721 -0.09015
 H1441 H 0.65245 0.27181 -0.14048
 H1442 H 0.67128 0.37537 -0.17866
 H1443 H 0.62080 0.44969 -0.05903
 H1444 H 0.52239 0.38517 -0.06727
 H1445 H 0.61744 0.30215 -0.10258
 H1446 H 0.55584 0.34440 -0.09960
 C1447 C 0.84770 1.14199 0.39235
 C1448 C 0.81114 1.15373 0.39435
 C1449 C 0.79563 1.17300 0.37207
 C1450 C 0.81627 1.17968 0.34773
 C1451 C 0.85260 1.16726 0.34658
 N1452 N 0.86730 1.14932 0.36872
 C1453 C 0.86602 1.12199 0.41508
 N1454 N 0.90241 1.12807 0.41959
 C1455 C 0.92254 1.10809 0.43777
 C1456 C 0.90649 1.07881 0.45180
 C1457 C 0.86865 1.07271 0.44825
 C1458 C 0.84818 1.09453 0.43005
 H1459 H 0.76741 1.18215 0.37362
 H1460 H 0.86943 1.17219 0.32826
 H1461 H 0.95161 1.11387 0.43992
 H1462 H 0.85532 1.05030 0.45861
 H1463 H 0.79503 1.14859 0.41301
 H1464 H 0.81935 1.08868 0.42650
 C1465 C 0.36490 0.63950 -0.12060
 C1466 C 0.33465 0.66087 -0.11304
 C1467 C 0.31531 0.67935 -0.13378
 C1468 C 0.32595 0.67670 -0.16210
 C1469 C 0.35671 0.65546 -0.16873
 N1470 N 0.37520 0.63773 -0.14809
 C1471 C 0.38555 0.61840 -0.09954
 N1472 N 0.42160 0.61067 -0.10432
 C1473 C 0.44165 0.58961 -0.08669
 C1474 C 0.42511 0.57409 -0.06302
 C1475 C 0.38816 0.58211 -0.05746
 C1476 C 0.36833 0.60429 -0.07559
 H1477 H 0.29186 0.69553 -0.12760
 H1478 H 0.36611 0.65295 -0.19023
 H1479 H 0.47005 0.58390 -0.09181
 H1480 H 0.37434 0.57049 -0.03952
 H1481 H 0.32614 0.66366 -0.09135
 H1482 H 0.33948 0.60899 -0.07144
 C1483 C 0.88150 0.86873 0.63110
 C1484 C 0.89322 0.86520 0.65903
 C1485 C 0.87288 0.84421 0.67740
 C1486 C 0.84095 0.82632 0.66809
 C1487 C 0.83097 0.82925 0.63967
 N1488 N 0.85116 0.85027 0.62212
 C1489 C 0.90091 0.89260 0.61140
 N1490 N 0.89918 0.88528 0.58336
 C1491 C 0.91505 0.90705 0.56400
 C1492 C 0.93330 0.93869 0.57255
 C1493 C 0.93569 0.94662 0.60132
 C1494 C 0.91953 0.92370 0.62081
 H1495 H 0.88221 0.84220 0.69899
 H1496 H 0.80680 0.81561 0.63154
 H1497 H 0.91249 0.90009 0.54193
 H1498 H 0.94937 0.97089 0.60871
 H1499 H 0.91788 0.87837 0.66672
 H1500 H 0.92057 0.93107 0.64285
 C1501 C 0.37072 0.35759 0.12000
 C1502 C 0.33962 0.33691 0.11297
 C1503 C 0.32038 0.31921 0.13415
 C1504 C 0.33200 0.32216 0.16227
 C1505 C 0.36362 0.34257 0.16829
 N1506 N 0.38192 0.35946 0.14730
 C1507 C 0.39111 0.37854 0.09890
 N1508 N 0.42714 0.38647 0.10386
 C1509 C 0.44674 0.40866 0.08690
 C1510 C 0.42958 0.42537 0.06397
 C1511 C 0.39277 0.41686 0.05802
 C1512 C 0.37347 0.39337 0.07535
 H1513 H 0.29628 0.30351 0.12854
 H1514 H 0.37389 0.34513 0.18960
 H1515 H 0.47509 0.41458 0.09220
 H1516 H 0.37858 0.42926 0.04048
 H1517 H 0.33034 0.33418 0.09141
 H1518 H 0.34463 0.38851 0.07110
   
