data_POSCAR
  _audit_creation_date              2014-09-24
  _audit_creation_method            'ToBaCCo'
  _symmetry_space_group_name_H-M    'P1'
  _symmetry_Int_Tables_number       1
  _symmetry_cell_setting            triclinic
  loop_
  _symmetry_equiv_pos_as_xyz
 x,y,z
_cell_length_a 50.9387
_cell_length_b 50.7289
_cell_length_c 53.4172
_cell_angle_alpha 89.485600
_cell_angle_beta 89.986900
_cell_angle_gamma 89.738100
loop_
  _atom_site_label
  _atom_site_type_symbol
  _atom_site_fract_x
  _atom_site_fract_y
  _atom_site_fract_z
C1 C 0.43433 0.02087 0.28021
 H2 H 0.43784 0.03562 0.26587
 C3 C 0.45023 0.01999 0.30168
 H4 H 0.46575 0.03428 0.30386
 C5 C 0.40926 -0.01503 0.29544
 H6 H 0.39294 -0.02833 0.29344
 C7 C 0.42443 -0.01640 0.31718
 H8 H 0.41963 -0.03074 0.33158
 N9 N 0.41449 0.00321 0.27727
 C10 C 0.40082 0.00261 0.19583
 H11 H 0.37958 0.00330 0.19575
 C12 C 0.41458 0.00377 0.17322
 H13 H 0.40381 0.00516 0.15578
 C14 C 0.44064 0.00046 0.21861
 H15 H 0.45081 -0.00088 0.23631
 C16 C 0.45521 0.00102 0.19629
 H17 H 0.47643 0.00017 0.19704
 Zn18 Zn 0.39277 0.00381 0.24783
 N19 N 0.41388 0.00180 0.21804
 C20 C 0.37608 0.05396 0.22774
 N21 N 0.37278 0.03647 0.24704
 C22 C 0.35609 0.04225 0.26619
 C23 C 0.34171 0.06595 0.26611
 C24 C 0.36189 0.07769 0.22682
 C25 C 0.38262 -0.05078 0.24876
 C26 C 0.36829 -0.07411 0.25170
 C27 C 0.32865 -0.04814 0.25428
 C28 C 0.34382 -0.02521 0.25149
 N29 N 0.37039 -0.02685 0.24908
 H30 H 0.38999 0.04987 0.21305
 H31 H 0.35398 0.02844 0.28161
 H32 H 0.32856 0.07001 0.28151
 H33 H 0.36479 0.09122 0.21128
 H34 H 0.40375 -0.05171 0.24683
 H35 H 0.37858 -0.09285 0.25165
 H36 H 0.30763 -0.04606 0.25627
 H37 H 0.33429 -0.00614 0.25155
 C38 C 0.44211 0.00309 0.17327
 C39 C 0.44531 0.00109 0.32043
 C40 C 0.34086 -0.07314 0.25459
 C41 C 0.34450 0.08402 0.24618
 C42 C 0.08064 0.01790 0.70541
 H43 H 0.09036 0.03608 0.71009
 C44 C 0.06607 0.01641 0.68328
 H45 H 0.06468 0.03352 0.67105
 C46 C 0.07143 -0.02684 0.71482
 H47 H 0.07393 -0.04374 0.72710
 C48 C 0.05698 -0.02927 0.69268
 H49 H 0.04845 -0.04809 0.68803
 N50 N 0.08322 -0.00363 0.72060
 C51 C 0.09728 -0.00000 0.80078
 H52 H 0.11828 0.00305 0.80055
 C53 C 0.08347 0.00175 0.82326
 H54 H 0.09399 0.00584 0.84040
 C55 C 0.05791 -0.00824 0.77861
 H56 H 0.04797 -0.01157 0.76106
 C57 C 0.04333 -0.00708 0.80089
 H58 H 0.02230 -0.00993 0.80039
 Zn59 Zn 0.10529 -0.00323 0.74940
 N60 N 0.08444 -0.00484 0.77900
 C61 C 0.10964 0.05113 0.75684
 N62 N 0.12431 0.02937 0.75153
 C63 C 0.15097 0.03091 0.75006
 C64 C 0.16369 0.05511 0.75367
 C65 C 0.12156 0.07556 0.76076
 C66 C 0.12532 -0.05323 0.76482
 C67 C 0.13868 -0.07723 0.76220
 C68 C 0.15746 -0.06102 0.72365
 C69 C 0.14357 -0.03726 0.72692
 N70 N 0.12779 -0.03379 0.74726
 H71 H 0.08854 0.04942 0.75835
 H72 H 0.16241 0.01338 0.74631
 H73 H 0.18487 0.05614 0.75224
 H74 H 0.10938 0.09250 0.76482
 H75 H 0.11237 -0.05048 0.78061
 H76 H 0.13621 -0.09222 0.77648
 H77 H 0.16982 -0.06353 0.70734
 H78 H 0.14489 -0.02183 0.71287
 C79 C 0.05621 -0.00188 0.82350
 C80 C 0.05453 -0.00754 0.67646
 C81 C 0.15480 -0.08155 0.74126
 C82 C 0.14894 0.07780 0.75924
 C83 C 0.58023 0.51818 0.20665
 H84 H 0.59025 0.53625 0.21115
 C85 C 0.56513 0.51688 0.18484
 H86 H 0.56365 0.53400 0.17266
 C87 C 0.57072 0.47354 0.21624
 H88 H 0.57326 0.45663 0.22849
 C89 C 0.55572 0.47130 0.19442
 H90 H 0.54686 0.45258 0.18995
 N91 N 0.58289 0.49662 0.22178
 C92 C 0.59738 0.50035 0.30176
 H93 H 0.61847 0.50273 0.30157
 C94 C 0.58355 0.50286 0.32416
 H95 H 0.59413 0.50678 0.34130
 C96 C 0.55782 0.49321 0.27953
 H97 H 0.54782 0.49008 0.26198
 C98 C 0.54321 0.49514 0.30171
 H99 H 0.52209 0.49301 0.30115
 Zn100 Zn 0.60520 0.49676 0.25038
 N101 N 0.58445 0.49570 0.27999
 C102 C 0.61088 0.55129 0.25732
 N103 N 0.62484 0.52896 0.25238
 C104 C 0.65154 0.52951 0.25127
 C105 C 0.66509 0.55325 0.25474
 C106 C 0.62363 0.57534 0.26102
 C107 C 0.62495 0.44647 0.26568
 C108 C 0.63840 0.42251 0.26300
 C109 C 0.65695 0.43880 0.22439
 C110 C 0.64298 0.46249 0.22770
 N111 N 0.62731 0.46593 0.24813
 H112 H 0.58971 0.55034 0.25868
 H113 H 0.66241 0.51153 0.24794
 H114 H 0.68628 0.55326 0.25354
 H115 H 0.61217 0.59291 0.26474
 H116 H 0.61209 0.44923 0.28155
 H117 H 0.63606 0.40749 0.27729
 H118 H 0.66927 0.43636 0.20804
 H119 H 0.64423 0.47795 0.21368
 C120 C 0.55617 0.50019 0.32430
 C121 C 0.55313 0.49307 0.17828
 C122 C 0.65449 0.41828 0.24202
 C123 C 0.65107 0.57658 0.25968
 C124 C 0.92169 0.52619 0.79016
 H125 H 0.91304 0.54478 0.78438
 C126 C 0.93619 0.52465 0.81241
 H127 H 0.93851 0.54219 0.82359
 C128 C 0.92869 0.48073 0.78298
 H129 H 0.92543 0.46359 0.77149
 C130 C 0.94302 0.47821 0.80526
 H131 H 0.95068 0.45903 0.81049
 N132 N 0.91789 0.50431 0.77612
 C133 C 0.90286 0.50370 0.69528
 H134 H 0.88162 0.50386 0.69534
 C135 C 0.91639 0.50496 0.67257
 H136 H 0.90543 0.50582 0.65521
 C137 C 0.94290 0.50323 0.71782
 H138 H 0.95314 0.50305 0.73554
 C139 C 0.95728 0.50394 0.69535
 H140 H 0.97851 0.50399 0.69593
 Zn141 Zn 0.89542 0.50503 0.74746
 N142 N 0.91613 0.50326 0.71740
 C143 C 0.87992 0.55520 0.72709
 N144 N 0.87527 0.53783 0.74624
 C145 C 0.85752 0.54402 0.76441
 C146 C 0.84343 0.56791 0.76336
 C147 C 0.86608 0.57907 0.72520
 C148 C 0.87606 0.45442 0.73299
 C149 C 0.86249 0.43060 0.73587
 C150 C 0.84322 0.44719 0.77379
 C151 C 0.85737 0.47067 0.77035
 N152 N 0.87331 0.47407 0.75006
 H153 H 0.89477 0.55098 0.71330
 H154 H 0.85446 0.53067 0.77997
 H155 H 0.82954 0.57254 0.77804
 H156 H 0.87031 0.59241 0.70983
 H157 H 0.88941 0.45677 0.71744
 H158 H 0.86516 0.41518 0.72220
 H159 H 0.83079 0.44491 0.79009
 H160 H 0.85614 0.48583 0.78436
 C161 C 0.94392 0.50508 0.67240
 C162 C 0.94651 0.50026 0.82066
 C163 C 0.84582 0.42672 0.75646
 C164 C 0.84749 0.58568 0.74343
 C165 C 0.21355 0.39492 0.97778
 H166 H 0.22835 0.39581 0.96327
 C167 C 0.18965 0.40848 0.97457
 H168 H 0.18641 0.42024 0.95782
 C169 C 0.19935 0.37795 1.01688
 H170 H 0.20288 0.36561 1.03314
 C171 C 0.17519 0.39100 1.01432
 H172 H 0.16080 0.38901 1.02908
 N173 N 0.21797 0.37994 0.99869
 C174 C 0.30304 0.36305 1.00550
 H175 H 0.30174 0.34188 1.00776
 C176 C 0.32728 0.37552 1.00849
 H177 H 0.34449 0.36367 1.01252
 C178 C 0.28193 0.40405 0.99812
 H179 H 0.26413 0.41517 0.99464
 C180 C 0.30592 0.41732 1.00076
 H181 H 0.30650 0.43857 0.99881
 Zn182 Zn 0.24865 0.35776 1.00060
 N183 N 0.28091 0.37730 1.00044
 C184 C 0.26738 0.33121 0.95702
 N185 N 0.24671 0.33447 0.97284
 C186 C 0.22312 0.32296 0.96813
 C187 C 0.21936 0.30828 0.94635
 C188 C 0.26458 0.31631 0.93529
 C189 C 0.25544 0.35240 1.05193
 C190 C 0.25923 0.33978 1.07496
 C191 C 0.24931 0.29823 1.05548
 C192 C 0.24618 0.31164 1.03256
 N193 N 0.24915 0.33831 1.03126
 H194 H 0.28585 0.34074 0.96083
 H195 H 0.20691 0.32602 0.98087
 H196 H 0.20024 0.30007 0.94246
 H197 H 0.28102 0.31440 0.92257
 H198 H 0.25812 0.37349 1.05034
 H199 H 0.26445 0.35131 1.09117
 H200 H 0.24674 0.27708 1.05635
 H201 H 0.24168 0.30072 1.01583
 C202 C 0.32893 0.40301 1.00626
 C203 C 0.16994 0.40626 0.99280
 C204 C 0.25609 0.31241 1.07696
 C205 C 0.24017 0.30522 0.92946
 C206 C 0.78662 0.10212 0.97650
 H207 H 0.77150 0.10067 0.96237
 C208 C 0.81028 0.08812 0.97362
 H209 H 0.81271 0.07580 0.95738
 C210 C 0.80192 0.12097 1.01407
 H211 H 0.79891 0.13427 1.02952
 C212 C 0.82596 0.10763 1.01176
 H213 H 0.84101 0.11056 1.02578
 N214 N 0.78276 0.11810 0.99655
 C215 C 0.69685 0.13352 1.00215
 H216 H 0.69727 0.15479 1.00336
 C217 C 0.67295 0.12018 1.00505
 H218 H 0.65505 0.13132 1.00803
 C219 C 0.71967 0.09315 0.99747
 H220 H 0.73794 0.08257 0.99510
 C221 C 0.69614 0.07905 1.00013
 H222 H 0.69669 0.05776 0.99930
 Zn223 Zn 0.75180 0.14013 0.99765
 N224 N 0.71967 0.11999 0.99832
 C225 C 0.73306 0.16606 0.95301
 N226 N 0.75368 0.16287 0.96895
 C227 C 0.77720 0.17458 0.96411
 C228 C 0.78089 0.18958 0.94224
 C229 C 0.73579 0.18124 0.93114
 C230 C 0.74547 0.14734 1.04896
 C231 C 0.74232 0.16089 1.07141
 C232 C 0.75187 0.20157 1.04952
 C233 C 0.75438 0.18725 1.02728
 N234 N 0.75134 0.16057 1.02744
 H235 H 0.71462 0.15642 0.95693
 H236 H 0.79339 0.17164 0.97696
 H237 H 0.79992 0.19809 0.93839
 H238 H 0.71935 0.18321 0.91841
 H239 H 0.74274 0.12621 1.04856
 H240 H 0.73754 0.15005 1.08834
 H241 H 0.75457 0.22271 1.04919
 H242 H 0.75857 0.19750 1.00992
 C243 C 0.67234 0.09258 1.00403
 C244 C 0.83052 0.09082 0.99136
 C245 C 0.74566 0.18830 1.07189
 C246 C 0.76009 0.19276 0.92532
 C247 C 0.28509 0.60477 0.47543
 H248 H 0.27033 0.60330 0.46095
 C249 C 0.30890 0.59095 0.47306
 H250 H 0.31207 0.57861 0.45691
 C251 C 0.29925 0.62335 0.51356
 H252 H 0.29573 0.63641 0.52909
 C253 C 0.32341 0.61015 0.51175
 H254 H 0.33810 0.61284 0.52614
 N255 N 0.28059 0.62054 0.49552
 C256 C 0.19454 0.63472 0.50044
 H257 H 0.19469 0.65596 0.50207
 C258 C 0.17079 0.62105 0.50281
 H259 H 0.15273 0.63190 0.50585
 C260 C 0.21789 0.59474 0.49515
 H261 H 0.23631 0.58443 0.49271
 C262 C 0.19451 0.58030 0.49728
 H263 H 0.19530 0.55905 0.49602
 Zn264 Zn 0.24936 0.64213 0.49639
 N265 N 0.21755 0.62154 0.49655
 C266 C 0.23032 0.66820 0.45204
 N267 N 0.25105 0.66521 0.46789
 C268 C 0.27435 0.67736 0.46309
 C269 C 0.27770 0.69263 0.44133
 C270 C 0.23272 0.68363 0.43031
 C271 C 0.24254 0.64851 0.54771
 C272 C 0.23965 0.66162 0.57042
 C273 C 0.24937 0.70266 0.54922
 C274 C 0.25165 0.68878 0.52670
 N275 N 0.24844 0.66213 0.52642
 H276 H 0.21206 0.65823 0.45592
 H277 H 0.29063 0.67455 0.47585
 H278 H 0.29657 0.70149 0.43747
 H279 H 0.21619 0.68544 0.41764
 H280 H 0.23975 0.62741 0.54695
 H281 H 0.23493 0.65047 0.58719
 H282 H 0.25227 0.72377 0.54926
 H283 H 0.25591 0.69933 0.50952
 C284 C 0.17053 0.59348 0.50121
 C285 C 0.32851 0.59371 0.49130
 C286 C 0.24326 0.68897 0.57139
 C287 C 0.25678 0.69562 0.42450
 C288 C 0.71667 0.89554 0.47651
 H289 H 0.73193 0.89639 0.46245
 C290 C 0.69330 0.90987 0.47295
 H291 H 0.69097 0.92201 0.45634
 C292 C 0.70074 0.87790 0.51475
 H293 H 0.70341 0.86497 0.53075
 C294 C 0.67697 0.89159 0.51173
 H295 H 0.66170 0.88943 0.52570
 N296 N 0.72006 0.88000 0.49722
 C297 C 0.80523 0.86314 0.50394
 H298 H 0.80433 0.84192 0.50587
 C299 C 0.82930 0.87602 0.50680
 H300 H 0.84692 0.86458 0.51045
 C301 C 0.78331 0.90389 0.49760
 H302 H 0.76528 0.91478 0.49467
 C303 C 0.80705 0.91754 0.50016
 H304 H 0.80697 0.93881 0.49865
 Zn305 Zn 0.75051 0.85754 0.49939
 N306 N 0.78279 0.87709 0.49934
 C307 C 0.76889 0.83124 0.45541
 N308 N 0.74846 0.83425 0.47156
 C309 C 0.72483 0.82274 0.46703
 C310 C 0.72075 0.80837 0.44510
 C311 C 0.76576 0.81665 0.43350
 C312 C 0.75665 0.85273 0.55074
 C313 C 0.76041 0.84042 0.57393
 C314 C 0.75125 0.79852 0.55479
 C315 C 0.74813 0.81163 0.53171
 N316 N 0.75078 0.83832 0.53017
 H317 H 0.78739 0.84079 0.45906
 H318 H 0.70879 0.82562 0.48001
 H319 H 0.70158 0.80018 0.44139
 H320 H 0.78200 0.81495 0.42051
 H321 H 0.75907 0.87384 0.54896
 H322 H 0.76533 0.85220 0.59005
 H323 H 0.74899 0.77734 0.55584
 H324 H 0.74396 0.80047 0.51504
 C325 C 0.83045 0.90356 0.50490
 C326 C 0.67300 0.90780 0.49062
 C327 C 0.75765 0.81303 0.57617
 C328 C 0.74127 0.80561 0.42784
 C329 C 0.01846 0.27695 0.41258
 H330 H 0.03576 0.26453 0.41168
 C331 C 0.01831 0.29909 0.42764
 H332 H 0.03561 0.30386 0.43842
 C333 C -0.02438 0.28720 0.39764
 H334 H -0.04052 0.28300 0.38524
 C335 C -0.02528 0.30960 0.41227
 H336 H -0.04212 0.32267 0.41110
 N337 N -0.00255 0.27176 0.39782
 C338 C 0.00048 0.19175 0.37461
 H339 H -0.00180 0.19475 0.35465
 C340 C 0.00132 0.16644 0.38451
 H341 H -0.00032 0.14996 0.37195
 C342 C 0.00532 0.21022 0.41508
 H343 H 0.00650 0.22735 0.42683
 C344 C 0.00646 0.18528 0.42578
 H345 H 0.00875 0.18326 0.44588
 Zn346 Zn 0.00104 0.24536 0.37463
 N347 N 0.00273 0.21283 0.38993
 C348 C 0.04978 0.23211 0.35594
 N349 N 0.03143 0.25154 0.35689
 C350 C 0.03548 0.27578 0.34658
 C351 C 0.05897 0.28113 0.33427
 C352 C 0.07325 0.23651 0.34374
 C353 C -0.04973 0.23509 0.36451
 C354 C -0.07255 0.23358 0.35065
 C355 C -0.04924 0.25186 0.31497
 C356 C -0.02662 0.25263 0.32947
 N357 N -0.02759 0.24480 0.35384
 H358 H 0.04650 0.21329 0.36488
 H359 H 0.02057 0.29092 0.34820
 H360 H 0.06231 0.30041 0.32607
 H361 H 0.08782 0.22090 0.34298
 H362 H -0.04956 0.22876 0.38390
 H363 H -0.09032 0.22618 0.35932
 H364 H -0.04869 0.25867 0.29573
 H365 H -0.00851 0.25972 0.32141
 C366 C 0.00435 0.16312 0.41040
 C367 C -0.00356 0.31580 0.42701
 C368 C -0.07240 0.24251 0.32586
 C369 C 0.07792 0.26120 0.33294
 C370 C 0.02483 0.71179 0.10782
 H371 H 0.04147 0.71964 0.11780
 C372 C 0.02848 0.69140 0.09098
 H373 H 0.04784 0.68298 0.08850
 C374 C -0.02084 0.71315 0.09884
 H375 H -0.03996 0.72171 0.10199
 C376 C -0.01806 0.69301 0.08173
 H377 H -0.03515 0.68566 0.07200
 N378 N 0.00032 0.72152 0.11194
 C379 C -0.01441 0.80133 0.13075
 H380 H -0.02080 0.79959 0.15001
 C381 C -0.01507 0.82561 0.11860
 H382 H -0.02196 0.84279 0.12852
 C383 C 0.00257 0.78081 0.09427
 H384 H 0.00954 0.76328 0.08500
 C385 C 0.00209 0.80461 0.08140
 H386 H 0.00869 0.80554 0.06213
 Zn387 Zn -0.00466 0.74780 0.13521
 N388 N -0.00541 0.77975 0.11850
 C389 C 0.03611 0.76982 0.16198
 N390 N 0.02263 0.74721 0.15811
 C391 C 0.03047 0.72374 0.16817
 C392 C 0.05400 0.72210 0.18131
 C393 C 0.05938 0.76914 0.17525
 C394 C -0.05775 0.75334 0.13873
 C395 C -0.08212 0.75292 0.15006
 C396 C -0.06234 0.73183 0.18637
 C397 C -0.03819 0.73289 0.17434
 N398 N -0.03648 0.74353 0.15100
 H399 H 0.02965 0.78820 0.15373
 H400 H 0.01936 0.70607 0.16449
 H401 H 0.06104 0.70316 0.18802
 H402 H 0.07070 0.78703 0.17727
 H403 H -0.05560 0.76207 0.12031
 H404 H -0.09887 0.76131 0.14028
 H405 H -0.06326 0.72370 0.20512
 H406 H -0.02084 0.72565 0.18379
 C407 C -0.00657 0.82718 0.09376
 C408 C 0.00667 0.68159 0.07831
 C409 C -0.08457 0.74212 0.17416
 C410 C 0.06890 0.74494 0.18406
 C411 C 0.52383 0.21489 0.60463
 H412 H 0.53820 0.23052 0.60390
 C413 C 0.52712 0.19253 0.59010
 H414 H 0.54403 0.19082 0.57795
 C415 C 0.48401 0.19808 0.62143
 H416 H 0.46749 0.20021 0.63390
 C417 C 0.48667 0.17534 0.60751
 H418 H 0.47195 0.16005 0.60895
 N419 N 0.50204 0.21756 0.61908
 C420 C 0.48964 0.30043 0.62555
 H421 H 0.48673 0.30142 0.64558
 C422 C 0.48802 0.32309 0.61101
 H423 H 0.48402 0.34187 0.61975
 C424 C 0.49846 0.27462 0.58957
 H425 H 0.50195 0.25560 0.58131
 C426 C 0.49714 0.29688 0.57429
 H427 H 0.50014 0.29500 0.55434
 Zn428 Zn 0.49768 0.24857 0.63642
 N429 N 0.49550 0.27702 0.61474
 C430 C 0.54171 0.27317 0.65633
 N431 N 0.52600 0.25166 0.65748
 C432 C 0.53197 0.23021 0.67180
 C433 C 0.55546 0.22932 0.68495
 C434 C 0.56512 0.27328 0.66948
 C435 C 0.44470 0.24776 0.64006
 C436 C 0.42041 0.24900 0.65156
 C437 C 0.44236 0.25241 0.69168
 C438 C 0.46633 0.25084 0.67938
 N439 N 0.46687 0.24835 0.65410
 H440 H 0.53679 0.28971 0.64439
 H441 H 0.51903 0.21336 0.67196
 H442 H 0.56067 0.21177 0.69551
 H443 H 0.57809 0.29008 0.66791
 H444 H 0.44607 0.24633 0.61990
 H445 H 0.40270 0.24815 0.64038
 H446 H 0.44192 0.25418 0.71184
 H447 H 0.48440 0.25193 0.68990
 C448 C 0.49231 0.32133 0.58525
 C449 C 0.50803 0.17288 0.59126
 C450 C 0.41928 0.25144 0.67755
 C451 C 0.57242 0.25082 0.68316
 C452 C 0.51775 0.78103 0.90762
 H453 H 0.53441 0.76779 0.90901
 C454 C 0.51730 0.80419 0.92124
 H455 H 0.53352 0.80888 0.93351
 C456 C 0.47686 0.79200 0.88871
 H457 H 0.46163 0.78761 0.87537
 C458 C 0.47574 0.81544 0.90176
 H459 H 0.45931 0.82866 0.89876
 N460 N 0.49773 0.77552 0.89178
 C461 C 0.50189 0.69376 0.87487
 H462 H 0.50030 0.69558 0.85473
 C463 C 0.50259 0.66910 0.88606
 H464 H 0.50157 0.65177 0.87448
 C465 C 0.50498 0.71458 0.91447
 H466 H 0.50540 0.73240 0.92535
 C467 C 0.50596 0.69022 0.92646
 H468 H 0.50739 0.68913 0.94668
 Zn469 Zn 0.50144 0.74675 0.87124
 N470 N 0.50334 0.71572 0.88913
 C471 C 0.55081 0.73289 0.85438
 N472 N 0.53164 0.75149 0.85295
 C473 C 0.53485 0.77452 0.84014
 C474 C 0.55848 0.77961 0.82801
 C475 C 0.57443 0.73699 0.84234
 C476 C 0.45018 0.73799 0.86324
 C477 C 0.42706 0.73524 0.85008
 C478 C 0.45118 0.74252 0.81150
 C479 C 0.47397 0.74539 0.82552
 N480 N 0.47274 0.74360 0.85087
 H481 H 0.54813 0.71512 0.86528
 H482 H 0.51923 0.78904 0.83985
 H483 H 0.56122 0.79802 0.81799
 H484 H 0.58971 0.72210 0.84356
 H485 H 0.45022 0.73629 0.88345
 H486 H 0.40889 0.73188 0.86013
 H487 H 0.45185 0.74481 0.79134
 H488 H 0.49244 0.74926 0.81628
 C489 C 0.50465 0.66736 0.91207
 C490 C 0.49640 0.82180 0.91778
 C491 C 0.42756 0.73767 0.82404
 C492 C 0.57840 0.76063 0.82934
 C493 C -0.23640 0.68696 0.97023
 H494 H -0.22193 0.69026 0.98467
 C495 C -0.23713 0.70346 0.94899
 H496 H -0.22299 0.71920 0.94707
 C497 C -0.27174 0.66186 0.95455
 H498 H -0.28489 0.64534 0.95631
 C499 C -0.27298 0.67767 0.93304
 H500 H -0.28705 0.67311 0.91853
 N501 N -0.25382 0.66680 0.97282
 C502 C -0.25651 0.65170 1.05392
 H503 H -0.25554 0.63039 1.05387
 C504 C -0.25570 0.66515 1.07659
 H505 H -0.25435 0.65393 1.09391
 C506 C -0.25845 0.69201 1.03136
 H507 H -0.25941 0.70249 1.01370
 C508 C -0.25817 0.70632 1.05373
 H509 H -0.25885 0.72762 1.05282
 Zn510 Zn -0.25327 0.64448 1.00208
 N511 N -0.25699 0.66517 1.03180
 C512 C -0.20306 0.63155 1.02303
 N513 N -0.21973 0.62620 1.00375
 C514 C -0.21231 0.60916 0.98545
 C515 C -0.18775 0.59642 0.98651
 C516 C -0.17853 0.61910 1.02490
 C517 C -0.30712 0.63218 1.00055
 C518 C -0.32981 0.61704 0.99742
 C519 C -0.30262 0.57818 0.99475
 C520 C -0.28031 0.59412 0.99773
 N521 N -0.28286 0.62072 1.00028
 H522 H -0.20839 0.64590 1.03693
 H523 H -0.22540 0.60554 0.96992
 H524 H -0.18215 0.58297 0.97180
 H525 H -0.16576 0.62380 1.04040
 H526 H -0.30881 0.65331 1.00263
 H527 H -0.34886 0.62661 0.99744
 H528 H -0.30015 0.55712 0.99269
 H529 H -0.26102 0.58518 0.99775
 C530 C -0.25634 0.69287 1.07680
 C531 C -0.25567 0.69883 0.93013
 C532 C -0.32779 0.58968 0.99436
 C533 C -0.17060 0.60122 1.00655
 C534 C -0.22702 0.33145 0.54210
 H535 H -0.20895 0.34088 0.53643
 C536 C -0.22822 0.31837 0.56400
 H537 H -0.21108 0.31743 0.57598
 C538 C -0.27139 0.32093 0.53210
 H539 H -0.28828 0.32253 0.51993
 C540 C -0.27373 0.30663 0.55623
 H541 H -0.29241 0.29794 0.56116
 N542 N -0.24973 0.33306 0.52615
 C543 C -0.25680 0.34468 0.44558
 H544 H -0.26200 0.36538 0.44502
 C545 C -0.25483 0.33061 0.42335
 H546 H -0.25897 0.34050 0.40573
 C547 C -0.24413 0.30689 0.46911
 H548 H -0.23946 0.29792 0.48701
 C549 C -0.24171 0.29207 0.44712
 H550 H -0.23554 0.27165 0.44821
 Zn551 Zn -0.25070 0.35475 0.49691
 N552 N -0.25134 0.33281 0.46792
 C553 C -0.20389 0.37423 0.47386
 N554 N -0.21944 0.37649 0.49456
 C555 C -0.21212 0.39251 0.51366
 C556 C -0.18850 0.40667 0.51241
 C557 C -0.18031 0.38819 0.47179
 C558 C -0.30388 0.36691 0.48525
 C559 C -0.32858 0.37876 0.48796
 C560 C -0.31046 0.40711 0.51941
 C561 C -0.28599 0.39462 0.51613
 N562 N -0.28298 0.37501 0.49905
 H563 H -0.20931 0.36116 0.45895
 H564 H -0.22416 0.39373 0.53027
 H565 H -0.18300 0.41894 0.52799
 H566 H -0.16821 0.38586 0.45527
 H567 H -0.30175 0.35057 0.47259
 H568 H -0.34456 0.37166 0.47659
 H569 H -0.31237 0.42274 0.53299
 H570 H -0.26957 0.40035 0.52760
 C571 C -0.24686 0.30412 0.42392
 C572 C -0.25321 0.30589 0.57202
 C573 C -0.33226 0.39917 0.50527
 C574 C -0.17217 0.40444 0.49129
 C575 C 0.27324 -0.16756 0.04129
 H576 H 0.29147 -0.15829 0.03587
 C577 C 0.27171 -0.18101 0.06297
 H578 H 0.28874 -0.18237 0.07506
 C579 C 0.22881 -0.17734 0.03084
 H580 H 0.21205 -0.17537 0.01854
 C581 C 0.22611 -0.19202 0.05472
 H582 H 0.20727 -0.20052 0.05938
 N583 N 0.25066 -0.16539 0.02521
 C584 C 0.24192 -0.15425 -0.05514
 H585 H 0.23623 -0.13369 -0.05582
 C586 C 0.24373 -0.16855 -0.07727
 H587 H 0.23891 -0.15900 -0.09491
 C588 C 0.25635 -0.19135 -0.03156
 H589 H 0.26188 -0.19993 -0.01371
 C590 C 0.25865 -0.20637 -0.05342
 H591 H 0.26554 -0.22656 -0.05226
 Zn592 Zn 0.25005 -0.14360 -0.00400
 N593 N 0.24835 -0.16568 -0.03283
 C594 C 0.29637 -0.12485 -0.02830
 N595 N 0.28184 -0.12274 -0.00692
 C596 C 0.29031 -0.10722 0.01212
 C597 C 0.31400 -0.09327 0.01002
 C598 C 0.32001 -0.11114 -0.03120
 C599 C 0.19675 -0.12932 -0.01425
 C600 C 0.17279 -0.11621 -0.01066
 C601 C 0.19374 -0.08847 0.01970
 C602 C 0.21735 -0.10220 0.01559
 N603 N 0.21861 -0.12214 -0.00133
 H604 H 0.29000 -0.13749 -0.04320
 H605 H 0.27913 -0.10616 0.02927
 H606 H 0.32062 -0.08134 0.02548
 H607 H 0.33118 -0.11341 -0.04827
 H608 H 0.19756 -0.14587 -0.02681
 H609 H 0.15569 -0.12239 -0.02110
 H610 H 0.19336 -0.07273 0.03323
 H611 H 0.23452 -0.09718 0.02634
 C612 C 0.25258 -0.19477 -0.07662
 C613 C 0.24650 -0.19333 0.07063
 C614 C 0.17098 -0.09550 0.00654
 C615 C 0.32917 -0.09519 -0.01185
 C616 C 0.27062 1.17212 0.46060
 H617 H 0.28912 1.16351 0.46639
 C618 C 0.26953 1.18827 0.43921
 H619 H 0.28722 1.19176 0.42846
 C620 C 0.22494 1.17774 0.46710
 H621 H 0.20758 1.17339 0.47803
 C622 C 0.22294 1.19378 0.44570
 H623 H 0.20397 1.20153 0.44020
 N624 N 0.24843 1.16692 0.47391
 C625 C 0.24490 1.15084 0.55433
 H626 H 0.24496 1.12951 0.55451
 C627 C 0.24563 1.16451 0.57688
 H628 H 0.24592 1.15357 0.59439
 C629 C 0.24566 1.19098 0.53134
 H630 H 0.24632 1.20122 0.51352
 C631 C 0.24589 1.20549 0.55359
 H632 H 0.24638 1.22680 0.55275
 Zn633 Zn 0.24895 1.14367 0.50221
 N634 N 0.24543 1.16410 0.53208
 C635 C 0.29838 1.12928 0.52418
 N636 N 0.28234 1.12487 0.50418
 C637 C 0.29024 1.10829 0.48566
 C638 C 0.31454 1.09516 0.48716
 C639 C 0.32264 1.11637 0.52652
 C640 C 0.19872 1.12229 0.51517
 C641 C 0.17597 1.10721 0.51207
 C642 C 0.19535 1.08764 0.47552
 C643 C 0.21771 1.10332 0.47914
 N644 N 0.21923 1.12012 0.49890
 H645 H 0.29280 1.14322 0.53834
 H646 H 0.27797 1.10552 0.46944
 H647 H 0.32054 1.08220 0.47219
 H648 H 0.33491 1.12034 0.54256
 H649 H 0.19958 1.13625 0.53028
 H650 H 0.15985 1.10943 0.52511
 H651 H 0.19459 1.07451 0.45969
 H652 H 0.23354 1.10243 0.46576
 C653 C 0.24624 1.19214 0.57668
 C654 C 0.24539 1.19891 0.43130
 C655 C 0.17407 1.08957 0.49209
 C656 C 0.33098 1.09900 0.50790
 C657 C 0.14313 0.47286 0.26968
 H658 H 0.14330 0.48822 0.28361
 C659 C 0.15761 0.44963 0.27379
 H660 H 0.16918 0.44751 0.29067
 C661 C 0.12695 0.45656 0.23132
 H662 H 0.11449 0.45903 0.21507
 C663 C 0.14084 0.43287 0.23487
 H664 H 0.13932 0.41745 0.22107
 N665 N 0.12821 0.47601 0.24867
 C666 C 0.11069 0.56146 0.24253
 H667 H 0.08958 0.56045 0.24056
 C668 C 0.12337 0.58581 0.24010
 H669 H 0.11177 0.60339 0.23671
 C670 C 0.15136 0.53960 0.24868
 H671 H 0.16233 0.52153 0.25141
 C672 C 0.16480 0.56362 0.24656
 H673 H 0.18599 0.56388 0.24817
 Zn674 Zn 0.10544 0.50631 0.24637
 N675 N 0.12469 0.53890 0.24677
 C676 C 0.07889 0.52346 0.29078
 N677 N 0.08215 0.50341 0.27431
 C678 C 0.07103 0.47941 0.27863
 C679 C 0.05687 0.47452 0.30067
 C680 C 0.06449 0.51953 0.31282
 C681 C 0.10017 0.51301 0.19469
 C682 C 0.08750 0.51697 0.17176
 C683 C 0.04612 0.50771 0.19194
 C684 C 0.05962 0.50434 0.21469
 N685 N 0.08621 0.50690 0.21563
 H686 H 0.08814 0.54226 0.28730
 H687 H 0.07412 0.46367 0.26540
 H688 H 0.04905 0.45504 0.30421
 H689 H 0.06265 0.53546 0.32608
 H690 H 0.12122 0.51547 0.19597
 H691 H 0.09908 0.52205 0.15541
 H692 H 0.02502 0.50550 0.19173
 H693 H 0.04876 0.50007 0.23163
 C694 C 0.15079 0.58709 0.24201
 C695 C 0.15638 0.42916 0.25635
 C696 C 0.06010 0.51422 0.17002
 C697 C 0.05391 0.49462 0.31826
 C698 C -0.14213 1.03178 0.27149
 H699 H -0.14384 1.01710 0.28621
 C700 C -0.15472 1.05635 0.27404
 H701 H -0.16652 1.06022 0.29047
 C702 C -0.12417 1.04501 0.23254
 H703 H -0.11184 1.04086 0.21658
 C704 C -0.13627 1.06978 0.23442
 H705 H -0.13358 1.08401 0.21945
 N706 N -0.12708 1.02656 0.25099
 C707 C -0.11325 0.94031 0.24457
 H708 H -0.09212 0.94085 0.24263
 C709 C -0.12651 0.91640 0.24160
 H710 H -0.11532 0.89871 0.23785
 C711 C -0.15333 0.96291 0.25131
 H712 H -0.16379 0.98113 0.25462
 C713 C -0.16738 0.93928 0.24865
 H714 H -0.18856 0.93945 0.25037
 Zn715 Zn -0.10607 0.99486 0.24984
 N716 N -0.12666 0.96302 0.24935
 C717 C -0.08055 0.97441 0.29374
 N718 N -0.08330 0.99565 0.27822
 C719 C -0.07093 1.01879 0.28319
 C720 C -0.05563 1.02143 0.30479
 C721 C -0.06512 0.97610 0.31533
 C722 C -0.09889 0.98839 0.19857
 C723 C -0.08545 0.98556 0.17598
 C724 C -0.04494 0.99530 0.19740
 C725 C -0.05917 0.99748 0.21979
 N726 N -0.08571 0.99426 0.21991
 H727 H -0.09069 0.95629 0.28971
 H728 H -0.07354 1.03546 0.27065
 H729 H -0.04659 1.04018 0.30881
 H730 H -0.06351 0.95920 0.32778
 H731 H -0.11991 0.98552 0.19920
 H732 H -0.09635 0.98081 0.15921
 H733 H -0.02391 0.99822 0.19762
 H734 H -0.04895 1.00166 0.23702
 C735 C -0.15395 0.91566 0.24355
 C736 C -0.15148 1.07590 0.25554
 C737 C -0.05816 0.98926 0.17512
 C738 C -0.05288 0.99997 0.32129
 C739 C 0.35554 0.53045 -0.22758
 H740 H 0.35351 0.51536 -0.21328
 C741 C 0.34232 0.55465 -0.22497
 H742 H 0.32987 0.55776 -0.20885
 C743 C 0.37500 0.54511 -0.26541
 H744 H 0.38822 0.54165 -0.28088
 C745 C 0.36243 0.56966 -0.26334
 H746 H 0.36573 0.58468 -0.27751
 N747 N 0.37149 0.52604 -0.24762
 C748 C 0.38661 0.43847 -0.25321
 H749 H 0.40780 0.43909 -0.25458
 C750 C 0.37405 0.41552 -0.25622
 H751 H 0.38538 0.39784 -0.25968
 C752 C 0.34670 0.46229 -0.24725
 H753 H 0.33603 0.48053 -0.24471
 C754 C 0.33200 0.43720 -0.24990
 H755 H 0.31081 0.43747 -0.24823
 Zn756 Zn 0.39272 0.49445 -0.24859
 N757 N 0.37226 0.46250 -0.24868
 C758 C 0.41776 0.47489 -0.20404
 N759 N 0.41551 0.49569 -0.22017
 C760 C 0.42809 0.51881 -0.21563
 C761 C 0.44303 0.52193 -0.19383
 C762 C 0.43281 0.47705 -0.18224
 C763 C 0.39919 0.48791 -0.29986
 C764 C 0.41229 0.48432 -0.32254
 C765 C 0.45335 0.49267 -0.30158
 C766 C 0.43947 0.49567 -0.27907
 N767 N 0.41282 0.49343 -0.27867
 H768 H 0.40742 0.45679 -0.20773
 H769 H 0.42586 0.53515 -0.22861
 H770 H 0.45221 0.54069 -0.19016
 H771 H 0.43396 0.46052 -0.16932
 H772 H 0.37809 0.48582 -0.29900
 H773 H 0.40112 0.47984 -0.33921
 H774 H 0.47449 0.49475 -0.30171
 H775 H 0.45001 0.49957 -0.26195
 C776 C 0.34499 0.41455 -0.25455
 C777 C 0.34589 0.57472 -0.24291
 C778 C 0.43966 0.48683 -0.32361
 C779 C 0.44519 0.50096 -0.17668
 C780 C 0.64825 -0.02665 -0.22790
 H781 H 0.64932 -0.01112 -0.21418
 C782 C 0.66178 -0.04917 -0.22426
 H783 H 0.67378 -0.05146 -0.20768
 C784 C 0.62987 -0.04171 -0.26621
 H785 H 0.61666 -0.03931 -0.28191
 C786 C 0.64436 -0.06690 -0.26292
 H787 H 0.64211 -0.08213 -0.27684
 N788 N 0.63183 -0.02311 -0.24965
 C789 C 0.61372 0.06225 -0.25561
 H790 H 0.59259 0.06103 -0.25719
 C791 C 0.62609 0.08674 -0.25823
 H792 H 0.61402 0.10404 -0.26129
 C793 C 0.65466 0.04080 -0.25013
 H794 H 0.66582 0.02282 -0.24750
 C795 C 0.66785 0.06494 -0.25249
 H796 H 0.68906 0.06526 -0.25114
 Zn797 Zn 0.60897 0.00711 -0.25148
 N798 N 0.62799 0.03984 -0.25160
 C799 C 0.58285 0.02445 -0.20695
 N800 N 0.58613 0.00425 -0.22326
 C801 C 0.57495 -0.01970 -0.21882
 C802 C 0.56056 -0.02433 -0.19689
 C803 C 0.56826 0.02076 -0.18501
 C804 C 0.60268 0.01335 -0.30302
 C805 C 0.58958 0.01631 -0.32584
 C806 C 0.54881 0.00611 -0.30493
 C807 C 0.56267 0.00376 -0.28231
 N808 N 0.58918 0.00723 -0.28180
 H809 H 0.59213 0.04321 -0.21055
 H810 H 0.57803 -0.03553 -0.23194
 H811 H 0.55259 -0.04373 -0.19328
 H812 H 0.56632 0.03681 -0.17190
 H813 H 0.62366 0.01642 -0.30209
 H814 H 0.60063 0.02130 -0.34254
 H815 H 0.52780 0.00311 -0.30512
 H816 H 0.55220 -0.00061 -0.26518
 C817 C 0.65362 0.08841 -0.25683
 C818 C 0.65972 -0.07080 -0.24269
 C819 C 0.56236 0.01258 -0.32701
 C820 C 0.55746 -0.00404 -0.17951
 C821 C 0.03280 0.27703 0.85582
 H822 H 0.01855 0.29290 0.85511
 C823 C 0.05606 0.27895 0.84238
 H824 H 0.05981 0.29632 0.83106
 C825 C 0.04535 0.23494 0.87178
 H826 H 0.04124 0.21808 0.88358
 C827 C 0.06893 0.23619 0.85895
 H828 H 0.08289 0.22009 0.86052
 N829 N 0.02764 0.25488 0.86941
 C830 C -0.05548 0.24921 0.87427
 H831 H -0.05703 0.24546 0.89418
 C832 C -0.07766 0.24873 0.85940
 H833 H -0.09663 0.24477 0.86777
 C834 C -0.02865 0.25841 0.83885
 H835 H -0.00941 0.26145 0.83093
 C836 C -0.05046 0.25832 0.82324
 H837 H -0.04806 0.26174 0.80335
 Zn838 Zn -0.00406 0.25297 0.88601
 N839 N -0.03174 0.25440 0.86387
 C840 C -0.02576 0.29788 0.90730
 N841 N -0.00532 0.28066 0.90787
 C842 C 0.01650 0.28485 0.92187
 C843 C 0.01908 0.30819 0.93498
 C844 C -0.02422 0.32116 0.92048
 C845 C -0.00830 0.19988 0.88792
 C846 C -0.01087 0.17515 0.89870
 C847 C -0.01233 0.19562 0.93954
 C848 C -0.00951 0.22005 0.92795
 N849 N -0.00710 0.22147 0.90267
 H850 H -0.04266 0.29431 0.89568
 H851 H 0.03246 0.27071 0.92160
 H852 H 0.03702 0.31212 0.94509
 H853 H -0.04010 0.33540 0.91923
 H854 H -0.00680 0.20202 0.86780
 H855 H -0.01088 0.15783 0.88698
 H856 H -0.01344 0.19439 0.95974
 H857 H -0.00907 0.23775 0.93903
 C858 C -0.07513 0.25355 0.83374
 C859 C 0.07404 0.25811 0.84371
 C860 C -0.01269 0.17303 0.92471
 C861 C -0.00119 0.32678 0.93354
 C862 C 0.46773 0.26155 0.16342
 H863 H 0.48143 0.27776 0.16405
 C864 C 0.44503 0.26217 0.17774
 H865 H 0.44113 0.27883 0.18974
 C866 C 0.45517 0.22068 0.14569
 H867 H 0.45889 0.20499 0.13263
 C868 C 0.43212 0.22065 0.15946
 H869 H 0.41837 0.20467 0.15718
 N870 N 0.47209 0.24116 0.14766
 C871 C 0.55288 0.24067 0.12740
 H872 H 0.55053 0.23962 0.10730
 C873 C 0.57772 0.23999 0.13786
 H874 H 0.59468 0.23856 0.12576
 C875 C 0.53325 0.24407 0.16765
 H876 H 0.51582 0.24530 0.17906
 C877 C 0.55779 0.24367 0.17890
 H878 H 0.55940 0.24499 0.19907
 Zn879 Zn 0.49982 0.24395 0.12577
 N880 N 0.53145 0.24313 0.14232
 C881 C 0.51604 0.29298 0.10892
 N882 N 0.49612 0.27532 0.10843
 C883 C 0.47302 0.28055 0.09662
 C884 C 0.46951 0.30442 0.08401
 C885 C 0.51346 0.31683 0.09646
 C886 C 0.50792 0.19283 0.11539
 C887 C 0.51000 0.17029 0.10124
 C888 C 0.49623 0.19553 0.06473
 C889 C 0.49485 0.21786 0.07959
 N890 N 0.50026 0.21583 0.10444
 H891 H 0.53387 0.28876 0.11908
 H892 H 0.45740 0.26617 0.09711
 H893 H 0.45119 0.30856 0.07448
 H894 H 0.52951 0.33077 0.09668
 H895 H 0.51240 0.19217 0.13518
 H896 H 0.51594 0.15190 0.11007
 H897 H 0.49148 0.19694 0.04502
 H898 H 0.48942 0.23662 0.07136
 C899 C 0.58014 0.24178 0.16381
 C900 C 0.42673 0.24195 0.17508
 C901 C 0.50372 0.17158 0.07582
 C902 C 0.49005 0.32259 0.08394
 C903 C -0.02970 0.76343 0.66409
 H904 H -0.01436 0.77811 0.66470
 C905 C -0.05072 0.76565 0.67871
 H906 H -0.05240 0.78219 0.69127
 C907 C -0.04565 0.72391 0.64531
 H908 H -0.04430 0.70862 0.63149
 C909 C -0.06912 0.72560 0.66089
 H910 H -0.08456 0.71120 0.65846
 N911 N -0.02758 0.74179 0.64706
 C912 C 0.05307 0.73629 0.62661
 H913 H 0.05078 0.73563 0.60650
 C914 C 0.07788 0.73515 0.63716
 H915 H 0.09489 0.73375 0.62512
 C916 C 0.03337 0.73952 0.66684
 H917 H 0.01593 0.74093 0.67822
 C918 C 0.05784 0.73865 0.67817
 H919 H 0.05939 0.73987 0.69835
 Zn920 Zn 0.00015 0.74216 0.62500
 N921 N 0.03166 0.73916 0.64149
 C922 C 0.01896 0.79044 0.60802
 N923 N -0.00155 0.77348 0.60748
 C924 C -0.02427 0.77926 0.59526
 C925 C -0.02686 0.80304 0.58239
 C926 C 0.01730 0.81424 0.59527
 C927 C 0.00111 0.69019 0.61490
 C928 C 0.00183 0.66772 0.60053
 C929 C -0.00114 0.69514 0.56319
 C930 C -0.00223 0.71720 0.57839
 N931 N -0.00128 0.71414 0.60367
 H932 H 0.03649 0.78571 0.61849
 H933 H -0.04031 0.76535 0.59564
 H934 H -0.04493 0.80759 0.57260
 H935 H 0.03374 0.82771 0.59558
 H936 H 0.00248 0.68872 0.63508
 H937 H 0.00338 0.64857 0.60956
 H938 H -0.00190 0.69745 0.54305
 H939 H -0.00329 0.73665 0.57004
 C940 C 0.08023 0.73688 0.66313
 C941 C -0.07179 0.74585 0.67665
 C942 C 0.00091 0.67027 0.57450
 C943 C -0.00580 0.82058 0.58243
 C944 C 0.52840 0.77287 0.34857
 H945 H 0.51377 0.78836 0.34760
 C946 C 0.55112 0.77462 0.33427
 H947 H 0.55406 0.79146 0.32204
 C948 C 0.54290 0.73233 0.36657
 H949 H 0.53997 0.71633 0.37971
 C950 C 0.56592 0.73342 0.35286
 H951 H 0.58056 0.71803 0.35512
 N952 N 0.52462 0.75171 0.36390
 C953 C 0.44215 0.74729 0.37694
 H954 H 0.44253 0.74537 0.39712
 C955 C 0.41848 0.74666 0.36424
 H956 H 0.40046 0.74448 0.37474
 C957 C 0.46555 0.75257 0.33873
 H958 H 0.48398 0.75434 0.32893
 C959 C 0.44226 0.75223 0.32526
 H960 H 0.44263 0.75426 0.30506
 Zn961 Zn 0.49477 0.75117 0.38347
 N962 N 0.46488 0.75076 0.36410
 C963 C 0.47588 0.79878 0.40165
 N964 N 0.49569 0.78085 0.40293
 C965 C 0.51828 0.78550 0.41562
 C966 C 0.52200 0.80964 0.42713
 C967 C 0.47862 0.82294 0.41314
 C968 C 0.49162 0.69858 0.38927
 C969 C 0.49062 0.67451 0.40151
 C970 C 0.49276 0.69733 0.44116
 C971 C 0.49404 0.72111 0.42806
 N972 N 0.49383 0.72105 0.40264
 H973 H 0.45843 0.79487 0.39089
 H974 H 0.53377 0.77084 0.41581
 H975 H 0.54029 0.81361 0.43663
 H976 H 0.46302 0.83747 0.41168
 H977 H 0.49107 0.69950 0.36903
 H978 H 0.48962 0.65654 0.39075
 H979 H 0.49343 0.69722 0.46140
 H980 H 0.49525 0.73949 0.43807
 C981 C 0.41856 0.74946 0.33820
 C982 C 0.56997 0.75464 0.33650
 C983 C 0.49125 0.67389 0.42763
 C984 C 0.50213 0.82864 0.42538
 Zr985 Zr 0.02132 -0.02350 1.03455
 O986 O 0.04860 -0.00992 1.06133
 O987 O 0.01496 -0.06192 1.04680
 O988 O 0.00434 -0.02254 1.07097
 O989 O 0.06760 -0.03654 0.98843
 O990 O -0.03383 0.00054 1.06499
 O991 O 0.05883 -0.04185 1.03013
 O992 O -0.01686 -0.07699 1.02044
 O993 O -0.01908 -0.02844 1.02860
 O994 O 0.01711 -0.04312 1.00048
 O995 O 0.00482 0.01459 1.03462
 O996 O 0.04029 0.00039 1.00763
 Zr997 Zr -0.02251 0.01453 0.96571
 Zr998 Zr -0.03514 0.00948 1.02672
 Zr999 Zr 0.03381 -0.01860 0.97346
 Zr1000 Zr -0.02295 -0.04668 0.99398
 O1001 O 0.06771 0.00151 0.96083
 O1002 O -0.06002 -0.05761 1.00878
 O1003 O -0.00612 -0.02382 0.96528
 O1004 O -0.04098 -0.00958 0.99258
 O1005 O -0.01842 0.03422 0.99980
 O1006 O 0.01783 0.01927 0.97187
 C1007 C -0.00144 -0.07920 1.03936
 C1008 C 0.07366 -0.04448 1.01060
 C1009 C -0.01731 -0.01207 1.07879
 O1010 O -0.07039 -0.00973 1.03698
 O1011 O -0.06730 0.03076 1.01226
 O1012 O -0.05901 0.03469 0.97038
 C1013 C -0.07322 0.03874 0.99007
 O1014 O 0.05152 0.04209 1.03393
 Zr1015 Zr 0.02185 0.03743 1.00636
 O1016 O -0.01786 0.05385 0.95506
 O1017 O -0.03943 0.04478 1.04716
 O1018 O 0.00975 0.06849 1.03013
 O1019 O 0.05669 0.05123 0.98897
 O1020 O 0.01115 0.06968 0.98383
 C1021 C -0.00442 0.07223 0.96511
 O1022 O -0.05066 0.00132 0.93959
 O1023 O 0.03974 -0.05491 0.95501
 O1024 O -0.00643 0.01209 0.92899
 O1025 O 0.03029 -0.01332 0.93471
 O1026 O -0.00950 -0.07994 0.97381
 O1027 O -0.04825 -0.05355 0.96311
 C1028 C 0.01413 -0.00025 0.92092
 H1029 H 0.02571 -0.06066 1.00051
 H1030 H -0.05986 -0.01172 0.98877
 H1031 H 0.02641 0.02995 0.95863
 H1032 H 0.00755 0.02325 1.05095
 H1033 H -0.06192 -0.07689 1.00659
 H1034 H -0.07976 0.00209 1.04869
 H1035 H -0.05638 0.04359 1.05621
 H1036 H 0.02036 0.08420 1.02578
 H1037 H -0.02060 -0.09510 0.97881
 H1038 H 0.05671 -0.05360 0.94601
 H1039 H 0.07692 -0.01042 0.94912
 H1040 H 0.05784 0.07041 0.99215
 H1041 H -0.05625 -0.07122 0.96485
 H1042 H -0.05452 0.01638 0.92817
 H1043 H 0.05250 -0.02498 1.07273
 H1044 H 0.05727 0.06070 1.03417
 Zr1045 Zr 0.51881 0.47296 0.53390
 O1046 O 0.54592 0.48380 0.56198
 O1047 O 0.51154 0.43371 0.54332
 O1048 O 0.50139 0.47273 0.57020
 O1049 O 0.56553 0.46189 0.48781
 O1050 O 0.46393 0.49712 0.56485
 O1051 O 0.55620 0.45432 0.52904
 O1052 O 0.47988 0.42115 0.51559
 O1053 O 0.47837 0.46941 0.52712
 O1054 O 0.51471 0.45568 0.49868
 O1055 O 0.50325 0.51142 0.53566
 O1056 O 0.53875 0.49805 0.50862
 Zr1057 Zr 0.47710 0.51622 0.46651
 Zr1058 Zr 0.46328 0.50784 0.52697
 Zr1059 Zr 0.53243 0.48138 0.47335
 Zr1060 Zr 0.47467 0.45352 0.49140
 O1061 O 0.56692 0.50147 0.46224
 O1062 O 0.43727 0.44259 0.50542
 O1063 O 0.49256 0.47761 0.46428
 O1064 O 0.45758 0.49103 0.49176
 O1065 O 0.48103 0.53376 0.50167
 O1066 O 0.51741 0.51963 0.47348
 C1067 C 0.49517 0.41717 0.53433
 C1068 C 0.57124 0.45252 0.50955
 C1069 C 0.48005 0.48362 0.57831
 O1070 O 0.42757 0.48879 0.53589
 O1071 O 0.43171 0.53051 0.51308
 O1072 O 0.44094 0.53673 0.47161
 C1073 C 0.42637 0.53983 0.49120
 O1074 O 0.55035 0.53797 0.53740
 Zr1075 Zr 0.52127 0.53558 0.50899
 O1076 O 0.48299 0.55597 0.45822
 O1077 O 0.45932 0.54209 0.54899
 O1078 O 0.50925 0.56550 0.53406
 O1079 O 0.55694 0.54912 0.49303
 O1080 O 0.51222 0.56942 0.48790
 C1081 C 0.49698 0.57338 0.46913
 O1082 O 0.44904 0.50558 0.43921
 O1083 O 0.53808 0.44609 0.45312
 O1084 O 0.49354 0.51515 0.42985
 O1085 O 0.52956 0.48862 0.43489
 O1086 O 0.48752 0.42151 0.46917
 O1087 O 0.44948 0.44937 0.45997
 C1088 C 0.51383 0.50260 0.42147
 H1089 H 0.52297 0.43801 0.49776
 H1090 H 0.43872 0.48955 0.48757
 H1091 H 0.52646 0.53077 0.46088
 H1092 H 0.50593 0.51911 0.55243
 H1093 H 0.43483 0.42360 0.50198
 H1094 H 0.41823 0.50018 0.54799
 H1095 H 0.44217 0.54082 0.55768
 H1096 H 0.52036 0.58116 0.53082
 H1097 H 0.47590 0.40635 0.47290
 H1098 H 0.55523 0.44759 0.44445
 H1099 H 0.57605 0.49006 0.45001
 H1100 H 0.55865 0.56804 0.49720
 H1101 H 0.44084 0.43194 0.46073
 H1102 H 0.44585 0.52140 0.42856
 H1103 H 0.54919 0.46788 0.57247
 H1104 H 0.55653 0.55639 0.53868
 Zr1105 Zr 0.48272 1.02665 0.53065
 O1106 O 0.45567 1.01377 0.55820
 O1107 O 0.48923 1.06535 0.54131
 O1108 O 0.50003 1.02589 0.56697
 O1109 O 0.43583 1.03921 0.48481
 O1110 O 0.53807 1.00266 0.56123
 O1111 O 0.44524 1.04505 0.52618
 O1112 O 0.52155 1.07965 0.51487
 O1113 O 0.52305 1.03137 0.52413
 O1114 O 0.48653 1.04576 0.49596
 O1115 O 0.49902 0.98850 0.53164
 O1116 O 0.46330 1.00243 0.50473
 Zr1117 Zr 0.52550 0.98749 0.46240
 Zr1118 Zr 0.53889 0.99335 0.52316
 Zr1119 Zr 0.46933 1.02089 0.46991
 Zr1120 Zr 0.52655 1.04909 0.48891
 O1121 O 0.43498 1.00088 0.45866
 O1122 O 0.56409 1.05990 0.50247
 O1123 O 0.50920 1.02589 0.46110
 O1124 O 0.54440 1.01188 0.48838
 O1125 O 0.52177 0.96829 0.49713
 O1126 O 0.48523 0.98299 0.46921
 C1127 C 0.50596 1.08234 0.53357
 C1128 C 0.43008 1.04742 0.50683
 C1129 C 0.52167 1.01533 0.57489
 O1130 O 0.57430 1.01263 0.53238
 O1131 O 0.57068 0.97167 0.50899
 O1132 O 0.56179 0.96697 0.46736
 C1133 C 0.57619 0.96315 0.48703
 O1134 O 0.45248 0.96088 0.53249
 Zr1135 Zr 0.48160 0.96531 0.50427
 O1136 O 0.52018 0.94812 0.45260
 O1137 O 0.54339 0.95836 0.54462
 O1138 O 0.49422 0.93445 0.52854
 O1139 O 0.44629 0.95164 0.48792
 O1140 O 0.49152 0.93285 0.48225
 C1141 C 0.50657 0.93000 0.46323
 O1142 O 0.55373 0.99996 0.43579
 O1143 O 0.46366 1.05685 0.45021
 O1144 O 0.50933 0.99042 0.42567
 O1145 O 0.47168 1.01432 0.43136
 O1146 O 0.51291 1.08239 0.46836
 O1147 O 0.55106 1.05530 0.45722
 C1148 C 0.48823 1.00197 0.41760
 H1149 H 0.47801 1.06333 0.49558
 H1150 H 0.56325 1.01384 0.48428
 H1151 H 0.47641 0.97222 0.45636
 H1152 H 0.49645 0.98004 0.54823
 H1153 H 0.56613 1.07911 0.49958
 H1154 H 0.58381 1.00096 0.54431
 H1155 H 0.56049 0.95960 0.55338
 H1156 H 0.48355 0.91869 0.52477
 H1157 H 0.52437 1.09742 0.47269
 H1158 H 0.44647 1.05563 0.44163
 H1159 H 0.42557 1.01267 0.44675
 H1160 H 0.44508 0.93249 0.49154
 H1161 H 0.55920 1.07294 0.45820
 H1162 H 0.55723 0.98475 0.42471
 H1163 H 0.45204 1.02904 0.56917
 H1164 H 0.44681 0.94225 0.53334
 Zr1165 Zr -0.01787 0.53105 1.02906
 O1166 O -0.04471 0.52101 1.05783
 O1167 O -0.01010 0.57034 1.03717
 O1168 O -0.00021 0.53141 1.06533
 O1169 O -0.06582 0.54066 0.98347
 O1170 O 0.03765 0.50780 1.06001
 O1171 O -0.05532 0.54943 1.02411
 O1172 O 0.02028 0.58296 1.00797
 O1173 O 0.02235 0.53493 1.02142
 O1174 O -0.01470 0.54759 0.99312
 O1175 O -0.00206 0.49278 1.03189
 O1176 O -0.03809 0.50529 1.00503
 Zr1177 Zr 0.02307 0.48678 0.96245
 Zr1178 Zr 0.03766 0.49666 1.02244
 Zr1179 Zr -0.03273 0.52119 0.96901
 Zr1180 Zr 0.02517 0.55001 0.98499
 O1181 O -0.06738 0.50061 0.95965
 O1182 O 0.06278 0.56165 0.99773
 O1183 O 0.00699 0.52514 0.95912
 O1184 O 0.04269 0.51269 0.98652
 O1185 O 0.01979 0.47005 0.99834
 O1186 O -0.01713 0.48315 0.97021
 C1187 C 0.00575 0.58693 1.02717
 C1188 C -0.07099 0.55043 1.00504
 C1189 C 0.02137 0.52083 1.07346
 O1190 O 0.07332 0.51631 1.02990
 O1191 O 0.06882 0.47362 1.00912
 O1192 O 0.05944 0.46641 0.96798
 C1193 C 0.07405 0.46367 0.98767
 O1194 O -0.04890 0.46583 1.03525
 Zr1195 Zr -0.02027 0.46798 1.00636
 O1196 O 0.01712 0.44685 0.95539
 O1197 O 0.04241 0.46299 1.04574
 O1198 O -0.00757 0.43868 1.03229
 O1199 O -0.05601 0.45373 0.99140
 O1200 O -0.01106 0.43390 0.98642
 C1201 C 0.00363 0.42961 0.96741
 O1202 O 0.05095 0.49680 0.93460
 O1203 O -0.03874 0.55586 0.94738
 O1204 O 0.00638 0.48800 0.92582
 O1205 O -0.03117 0.51226 0.93084
 O1206 O 0.01152 0.58141 0.96188
 O1207 O 0.04956 0.55346 0.95285
 C1208 C -0.01474 0.49930 0.91745
 H1209 H -0.02311 0.56518 0.99176
 H1210 H 0.06149 0.51419 0.98202
 H1211 H -0.02626 0.47165 0.95815
 H1212 H -0.00442 0.48534 1.04893
 H1213 H 0.06499 0.58054 0.99337
 H1214 H 0.08307 0.50527 1.04220
 H1215 H 0.05972 0.46457 1.05405
 H1216 H -0.01857 0.42286 1.02978
 H1217 H 0.02323 0.59666 0.96463
 H1218 H -0.05612 0.55415 0.93923
 H1219 H -0.07699 0.51165 0.94725
 H1220 H -0.05740 0.43486 0.99616
 H1221 H 0.05807 0.57098 0.95267
 H1222 H 0.05394 0.48079 0.92443
 H1223 H -0.04775 0.53715 1.06782
 H1224 H -0.05489 0.44738 1.03723
 Zr1225 Zr -0.02074 0.47446 0.46258
 O1226 O -0.04817 0.48546 0.43456
 O1227 O -0.01455 0.43480 0.45429
 O1228 O -0.00418 0.47481 0.42586
 O1229 O -0.06761 0.46508 0.50920
 O1230 O 0.03486 0.49609 0.43104
 O1231 O -0.05827 0.45679 0.46816
 O1232 O 0.01633 0.42131 0.48276
 O1233 O 0.01966 0.46961 0.46921
 O1234 O -0.01680 0.45742 0.49826
 O1235 O -0.00445 0.51244 0.45993
 O1236 O -0.04008 0.50025 0.48739
 Zr1237 Zr 0.02214 0.51703 0.52882
 Zr1238 Zr 0.03545 0.50763 0.46851
 Zr1239 Zr -0.03395 0.48368 0.52308
 Zr1240 Zr 0.02322 0.45408 0.50540
 O1241 O -0.06795 0.50487 0.53388
 O1242 O 0.05996 0.44182 0.49077
 O1243 O 0.00593 0.47889 0.53203
 O1244 O 0.04103 0.49106 0.50411
 O1245 O 0.01835 0.53437 0.49323
 O1246 O -0.01816 0.52143 0.52193
 C1247 C 0.00068 0.41752 0.46436
 C1248 C -0.07334 0.45561 0.48766
 C1249 C 0.01766 0.48446 0.41757
 O1250 O 0.07102 0.48774 0.46040
 O1251 O 0.06721 0.52995 0.48149
 O1252 O 0.05862 0.53670 0.52289
 C1253 C 0.07299 0.53937 0.50304
 O1254 O -0.05057 0.54053 0.45729
 Zr1255 Zr -0.02189 0.53727 0.48607
 O1256 O 0.01654 0.55686 0.53640
 O1257 O 0.03986 0.54125 0.44516
 O1258 O -0.00881 0.56693 0.46082
 O1259 O -0.05768 0.55145 0.50129
 O1260 O -0.01314 0.57080 0.50698
 C1261 C 0.00205 0.57438 0.52575
 O1262 O 0.05025 0.50595 0.55617
 O1263 O -0.04016 0.44868 0.54412
 O1264 O 0.00584 0.51665 0.56563
 O1265 O -0.03069 0.49108 0.56143
 O1266 O 0.01016 0.42301 0.52910
 O1267 O 0.04906 0.44940 0.53638
 C1268 C -0.01465 0.50477 0.57445
 H1269 H -0.02545 0.44004 0.49980
 H1270 H 0.05990 0.48914 0.50823
 H1271 H -0.02705 0.53281 0.53431
 H1272 H -0.00702 0.52020 0.44303
 H1273 H 0.06198 0.42275 0.49452
 H1274 H 0.08049 0.49865 0.44787
 H1275 H 0.05701 0.53943 0.43655
 H1276 H -0.01965 0.58289 0.46367
 H1277 H 0.02133 0.40739 0.52575
 H1278 H -0.05723 0.45071 0.55282
 H1279 H -0.07724 0.49382 0.54642
 H1280 H -0.05926 0.57037 0.49670
 H1281 H 0.05753 0.43180 0.53571
 H1282 H 0.05372 0.52177 0.56641
 H1283 H -0.05172 0.46952 0.42449
 H1284 H -0.05609 0.55918 0.45541
 Zr1285 Zr 0.48020 -0.02331 -0.03652
 O1286 O 0.45316 -0.01092 -0.06437
 O1287 O 0.48608 -0.06262 -0.04599
 O1288 O 0.49717 -0.02257 -0.07302
 O1289 O 0.43287 -0.03357 0.00940
 O1290 O 0.53656 -0.00220 -0.06698
 O1291 O 0.44249 -0.04085 -0.03172
 O1292 O 0.51687 -0.07737 -0.01798
 O1293 O 0.52043 -0.02901 -0.02962
 O1294 O 0.48354 -0.04146 -0.00129
 O1295 O 0.49719 0.01439 -0.03820
 O1296 O 0.46101 0.00213 -0.01131
 Zr1297 Zr 0.52306 0.01668 0.03114
 Zr1298 Zr 0.53688 0.00866 -0.02931
 Zr1299 Zr 0.46652 -0.01558 0.02397
 Zr1300 Zr 0.52341 -0.04564 0.00616
 O1301 O 0.43264 0.00584 0.03472
 O1302 O 0.56039 -0.05793 -0.00790
 O1303 O 0.50621 -0.02127 0.03323
 O1304 O 0.54182 -0.00891 0.00597
 O1305 O 0.52000 0.03498 -0.00409
 O1306 O 0.48293 0.02194 0.02388
 C1307 C 0.50144 -0.08025 -0.03673
 C1308 C 0.42724 -0.04247 -0.01238
 C1309 C 0.51935 -0.01330 -0.08084
 O1310 O 0.57231 -0.01150 -0.03740
 O1311 O 0.56869 0.03030 -0.01556
 O1312 O 0.55975 0.03628 0.02588
 C1313 C 0.57433 0.03924 0.00619
 O1314 O 0.45104 0.04296 -0.04011
 Zr1315 Zr 0.47994 0.03882 -0.01162
 O1316 O 0.51742 0.05615 0.04020
 O1317 O 0.54201 0.04268 -0.05198
 O1318 O 0.49316 0.06853 -0.03676
 O1319 O 0.44486 0.05400 0.00422
 O1320 O 0.49036 0.07186 0.00932
 C1321 C 0.50447 0.07448 0.02899
 O1322 O 0.55085 0.00444 0.05835
 O1323 O 0.45966 -0.05093 0.04426
 O1324 O 0.50634 0.01542 0.06779
 O1325 O 0.46925 -0.00908 0.06249
 O1326 O 0.50943 -0.07743 0.02844
 O1327 O 0.54841 -0.05161 0.03758
 C1328 C 0.48541 0.00386 0.07604
 H1329 H 0.47470 -0.05878 -0.00036
 H1330 H 0.56060 -0.01120 0.01024
 H1331 H 0.47410 0.03318 0.03642
 H1332 H 0.49492 0.02256 -0.05497
 H1333 H 0.56209 -0.07713 -0.00461
 H1334 H 0.58205 -0.00047 -0.04964
 H1335 H 0.55920 0.04076 -0.06049
 H1336 H 0.48258 0.08462 -0.03365
 H1337 H 0.52048 -0.09304 0.02472
 H1338 H 0.44250 -0.04890 0.05281
 H1339 H 0.42300 -0.00536 0.04688
 H1340 H 0.44393 0.07303 -0.00010
 H1341 H 0.55653 -0.06935 0.03671
 H1342 H 0.55440 0.01991 0.06904
 H1343 H 0.44945 -0.02644 -0.07496
 H1344 H 0.44557 0.06167 -0.04149
 Zr1345 Zr 0.52389 0.51380 -0.03370
 O1346 O 0.55109 0.49866 -0.05990
 O1347 O 0.52009 0.55283 -0.04547
 O1348 O 0.50760 0.51327 -0.07049
 O1349 O 0.57035 0.52386 0.01283
 O1350 O 0.46700 0.49533 -0.06445
 O1351 O 0.56190 0.53063 -0.02873
 O1352 O 0.48937 0.56988 -0.01883
 O1353 O 0.48384 0.52177 -0.02795
 O1354 O 0.52060 0.53316 0.00063
 O1355 O 0.50492 0.47703 -0.03410
 O1356 O 0.54110 0.48812 -0.00700
 Zr1357 Zr 0.47719 0.47861 0.03458
 Zr1358 Zr 0.46534 0.48514 -0.02647
 Zr1359 Zr 0.53578 0.50719 0.02732
 Zr1360 Zr 0.48086 0.53971 0.00693
 O1361 O 0.56861 0.48447 0.03891
 O1362 O 0.44478 0.55346 -0.00822
 O1363 O 0.49623 0.51546 0.03542
 O1364 O 0.46037 0.50414 0.00782
 O1365 O 0.48017 0.45892 0.00037
 O1366 O 0.51714 0.47074 0.02862
 C1367 C 0.50514 0.57131 -0.03751
 C1368 C 0.57667 0.53238 -0.00908
 C1369 C 0.48498 0.50533 -0.07836
 O1370 O 0.43101 0.50665 -0.03598
 O1371 O 0.43238 0.46506 -0.01259
 O1372 O 0.43997 0.46045 0.02936
 C1373 C 0.42599 0.45705 0.00945
 O1374 O 0.54912 0.44523 -0.03365
 Zr1375 Zr 0.52009 0.45254 -0.00595
 O1376 O 0.47961 0.43928 0.04570
 O1377 O 0.45920 0.45099 -0.04815
 O1378 O 0.50546 0.42268 -0.02966
 O1379 O 0.55406 0.43616 0.01122
 O1380 O 0.50741 0.42116 0.01691
 C1381 C 0.49201 0.41993 0.03591
 O1382 O 0.44920 0.49355 0.06015
 O1383 O 0.54356 0.54241 0.04691
 O1384 O 0.49261 0.48076 0.07155
 O1385 O 0.53233 0.50077 0.06591
 O1386 O 0.49587 0.57181 0.02759
 O1387 O 0.45591 0.54789 0.03783
 C1388 C 0.51444 0.49037 0.07968
 H1389 H 0.53012 0.55011 0.00102
 H1390 H 0.44161 0.50749 0.01154
 H1391 H 0.52495 0.45940 0.04187
 H1392 H 0.50714 0.46829 -0.05046
 H1393 H 0.44406 0.57280 -0.00582
 H1394 H 0.42103 0.49576 -0.04797
 H1395 H 0.44230 0.45351 -0.05705
 H1396 H 0.51471 0.40605 -0.02524
 H1397 H 0.48549 0.58767 0.02288
 H1398 H 0.56044 0.53976 0.05584
 H1399 H 0.57857 0.49535 0.05091
 H1400 H 0.55382 0.41690 0.00824
 H1401 H 0.44840 0.56583 0.03591
 H1402 H 0.44438 0.47880 0.07154
 H1403 H 0.55588 0.51345 -0.07126
 H1404 H 0.55336 0.42617 -0.03389
 Zr1405 Zr 0.02704 1.01146 0.46362
 O1406 O 0.05456 0.99631 0.43773
 O1407 O 0.02253 1.05019 0.45125
 O1408 O 0.01083 1.01062 0.42684
 O1409 O 0.07317 1.02299 0.51008
 O1410 O -0.02936 0.99180 0.43292
 O1411 O 0.06460 1.02916 0.46845
 O1412 O -0.00877 1.06683 0.47751
 O1413 O -0.01312 1.01875 0.46921
 O1414 O 0.02331 1.03116 0.49773
 O1415 O 0.00879 0.97434 0.46347
 O1416 O 0.04465 0.98641 0.49062
 Zr1417 Zr -0.01929 0.97613 0.53206
 Zr1418 Zr -0.03092 0.98182 0.47093
 Zr1419 Zr 0.03886 1.00577 0.52474
 Zr1420 Zr -0.01655 1.03703 0.50387
 O1421 O 0.07208 0.98381 0.53663
 O1422 O -0.05294 1.04999 0.48876
 O1423 O -0.00089 1.01335 0.53263
 O1424 O -0.03638 1.00112 0.50500
 O1425 O -0.01580 0.95610 0.49806
 O1426 O 0.02085 0.96900 0.52630
 C1427 C 0.00701 1.06835 0.45883
 C1428 C 0.07925 1.03149 0.48809
 C1429 C -0.01165 1.00229 0.41903
 O1430 O -0.06556 1.00260 0.46096
 O1431 O -0.06372 0.96171 0.48489
 O1432 O -0.05647 0.95768 0.52691
 C1433 C -0.07040 0.95413 0.50697
 O1434 O 0.05350 0.94336 0.46435
 Zr1435 Zr 0.02429 0.95045 0.49193
 O1436 O -0.01613 0.93696 0.54350
 O1437 O -0.03636 0.94728 0.44965
 O1438 O 0.01023 0.92005 0.46853
 O1439 O 0.05856 0.93496 0.50928
 O1440 O 0.01230 0.91910 0.51513
 C1441 C -0.00320 0.91777 0.53405
 O1442 O -0.04752 0.99078 0.55754
 O1443 O 0.04588 1.04133 0.54402
 O1444 O -0.00402 0.97894 0.56903
 O1445 O 0.03537 0.99963 0.56341
 O1446 O -0.00208 1.06976 0.52400
 O1447 O -0.04156 1.04513 0.53474
 C1448 C 0.01759 0.98900 0.57718
 H1449 H 0.03247 1.04832 0.49793
 H1450 H -0.05520 1.00425 0.50862
 H1451 H 0.02882 0.95795 0.53967
 H1452 H 0.01121 0.96551 0.44717
 H1453 H -0.05397 1.06935 0.49095
 H1454 H -0.07528 0.99141 0.44903
 H1455 H -0.05323 0.94943 0.44061
 H1456 H 0.01976 0.90364 0.47313
 H1457 H -0.01270 1.08535 0.51898
 H1458 H 0.06279 1.03912 0.55298
 H1459 H 0.08180 0.99503 0.54853
 H1460 H 0.05875 0.91567 0.50645
 H1461 H -0.04925 1.06299 0.53274
 H1462 H -0.05211 0.97602 0.56902
 H1463 H 0.05916 1.01099 0.42616
 H1464 H 0.05803 0.92436 0.46426
 Zr1465 Zr 0.73262 0.26950 0.21307
 O1466 O 0.74522 0.29678 0.18544
 O1467 O 0.69382 0.26315 0.20267
 O1468 O 0.73282 0.25210 0.17688
 O1469 O 0.72099 0.31632 0.25871
 O1470 O 0.75581 0.21376 0.18290
 O1471 O 0.71394 0.30702 0.21753
 O1472 O 0.67979 0.23146 0.23022
 O1473 O 0.72782 0.22899 0.22001
 O1474 O 0.71430 0.26564 0.24799
 O1475 O 0.77054 0.25285 0.21205
 O1476 O 0.75745 0.28875 0.23863
 Zr1477 Zr 0.77244 0.22611 0.28156
 Zr1478 Zr 0.76562 0.21286 0.22090
 Zr1479 Zr 0.73962 0.28276 0.27359
 Zr1480 Zr 0.71084 0.22552 0.25542
 O1481 O 0.76017 0.31707 0.28422
 O1482 O 0.69945 0.18818 0.24166
 O1483 O 0.73442 0.24282 0.28289
 O1484 O 0.74769 0.20734 0.25582
 O1485 O 0.79113 0.22971 0.24670
 O1486 O 0.77721 0.26650 0.27432
 C1487 C 0.67681 0.24693 0.21130
 C1488 C 0.71185 0.32206 0.23692
 C1489 C 0.74314 0.23030 0.16913
 O1490 O 0.74611 0.17740 0.21202
 O1491 O 0.78730 0.18084 0.23516
 O1492 O 0.79224 0.18924 0.27680
 C1493 C 0.79573 0.17486 0.25716
 O1494 O 0.79856 0.29941 0.21082
 Zr1495 Zr 0.79432 0.27002 0.23912
 O1496 O 0.81153 0.23194 0.29138
 O1497 O 0.80009 0.20816 0.19923
 O1498 O 0.82433 0.25722 0.21445
 O1499 O 0.80866 0.30514 0.25537
 O1500 O 0.82713 0.25936 0.26066
 C1501 C 0.82975 0.24496 0.28035
 O1502 O 0.76058 0.19776 0.30854
 O1503 O 0.70429 0.28901 0.29361
 O1504 O 0.76967 0.24216 0.31829
 O1505 O 0.74644 0.28023 0.31206
 O1506 O 0.67836 0.23916 0.27661
 O1507 O 0.70509 0.20053 0.28708
 C1508 C 0.75844 0.26348 0.32613
 H1509 H 0.69683 0.27426 0.24858
 H1510 H 0.74563 0.18842 0.26002
 H1511 H 0.78811 0.27529 0.28709
 H1512 H 0.77871 0.25538 0.19539
 H1513 H 0.68035 0.18628 0.24470
 H1514 H 0.75754 0.16779 0.20013
 H1515 H 0.79863 0.19100 0.19063
 H1516 H 0.84023 0.26775 0.21798
 H1517 H 0.66318 0.22782 0.27254
 H1518 H 0.70590 0.30625 0.30206
 H1519 H 0.74877 0.32666 0.29615
 H1520 H 0.82769 0.30614 0.25164
 H1521 H 0.68757 0.19223 0.28606
 H1522 H 0.77591 0.19428 0.31956
 H1523 H 0.72989 0.30050 0.17449
 H1524 H 0.81712 0.30506 0.20994
 Zr1525 Zr 0.77418 0.73700 0.72058
 O1526 O 0.76111 0.71014 0.69321
 O1527 O 0.81344 0.74174 0.71086
 O1528 O 0.77435 0.75407 0.68399
 O1529 O 0.78419 0.68940 0.76682
 O1530 O 0.75262 0.79315 0.68916
 O1531 O 0.79150 0.69899 0.72556
 O1532 O 0.82876 0.77214 0.73854
 O1533 O 0.78045 0.77729 0.72683
 O1534 O 0.79223 0.74003 0.75563
 O1535 O 0.73685 0.75482 0.71905
 O1536 O 0.74854 0.71836 0.74617
 Zr1537 Zr 0.73525 0.78131 0.78800
 Zr1538 Zr 0.74312 0.79461 0.72723
 Zr1539 Zr 0.76623 0.72349 0.78123
 Zr1540 Zr 0.79707 0.78000 0.76246
 O1541 O 0.74447 0.68977 0.79189
 O1542 O 0.80996 0.81658 0.74751
 O1543 O 0.77265 0.76329 0.78995
 O1544 O 0.76082 0.79942 0.76225
 O1545 O 0.71686 0.77842 0.75304
 O1546 O 0.72919 0.74110 0.78141
 C1547 C 0.83138 0.75640 0.72005
 C1548 C 0.79311 0.68368 0.74500
 C1549 C 0.76446 0.77597 0.67569
 O1550 O 0.76406 0.82925 0.71788
 O1551 O 0.72236 0.82729 0.74089
 O1552 O 0.71609 0.81839 0.78246
 C1553 C 0.71330 0.83298 0.76263
 O1554 O 0.70721 0.70931 0.71809
 Zr1555 Zr 0.71230 0.73829 0.74615
 O1556 O 0.69574 0.77772 0.79739
 O1557 O 0.70892 0.80076 0.70539
 O1558 O 0.68275 0.75230 0.72135
 O1559 O 0.69678 0.70347 0.76259
 O1560 O 0.67989 0.74979 0.76769
 C1561 C 0.67735 0.76492 0.78666
 O1562 O 0.74826 0.80915 0.81448
 O1563 O 0.80105 0.71613 0.80182
 O1564 O 0.73666 0.76489 0.82489
 O1565 O 0.75876 0.72600 0.81962
 O1566 O 0.82849 0.76561 0.78485
 O1567 O 0.80315 0.80524 0.79344
 C1568 C 0.74700 0.74315 0.83317
 H1569 H 0.80935 0.73078 0.75664
 H1570 H 0.76340 0.81826 0.76621
 H1571 H 0.71778 0.73270 0.79416
 H1572 H 0.72864 0.75253 0.70242
 H1573 H 0.82907 0.81785 0.75070
 H1574 H 0.75308 0.83928 0.70576
 H1575 H 0.71106 0.81788 0.69654
 H1576 H 0.66649 0.74234 0.72505
 H1577 H 0.84411 0.77651 0.78102
 H1578 H 0.79880 0.69889 0.81041
 H1579 H 0.75537 0.67977 0.80410
 H1580 H 0.67773 0.70318 0.75886
 H1581 H 0.82076 0.81334 0.79215
 H1582 H 0.73303 0.81330 0.82535
 H1583 H 0.77644 0.70590 0.68248
 H1584 H 0.68845 0.70439 0.71713
 Zr1585 Zr 0.22231 0.22821 0.78695
 O1586 O 0.23405 0.20013 0.81433
 O1587 O 0.18385 0.23598 0.79783
 O1588 O 0.22408 0.24466 0.82346
 O1589 O 0.20911 0.18217 0.74083
 O1590 O 0.24623 0.28325 0.81728
 O1591 O 0.20339 0.19109 0.78232
 O1592 O 0.17059 0.26908 0.77134
 O1593 O 0.21862 0.26896 0.78057
 O1594 O 0.20353 0.23323 0.75235
 O1595 O 0.26067 0.24335 0.78781
 O1596 O 0.24601 0.20830 0.76078
 Zr1597 Zr 0.26278 0.27069 0.71868
 Zr1598 Zr 0.25684 0.28365 0.77945
 Zr1599 Zr 0.22792 0.21555 0.72608
 Zr1600 Zr 0.20132 0.27361 0.74543
 O1601 O 0.24716 0.18083 0.71400
 O1602 O 0.19145 0.31139 0.75939
 O1603 O 0.22411 0.25582 0.71744
 O1604 O 0.23881 0.29022 0.74475
 O1605 O 0.28156 0.26587 0.75334
 O1606 O 0.26611 0.23004 0.72533
 C1607 C 0.16734 0.25329 0.78998
 C1608 C 0.20081 0.17629 0.76286
 C1609 C 0.23422 0.26644 0.83119
 O1610 O 0.23892 0.32013 0.78828
 O1611 O 0.27983 0.31472 0.76541
 O1612 O 0.28392 0.30649 0.72362
 C1613 C 0.28829 0.32040 0.74337
 O1614 O 0.28673 0.19567 0.78851
 Zr1615 Zr 0.28344 0.22534 0.76032
 O1616 O 0.30192 0.26418 0.70900
 O1617 O 0.29128 0.28641 0.80141
 O1618 O 0.31437 0.23664 0.78449
 O1619 O 0.29620 0.18958 0.74391
 O1620 O 0.31620 0.23422 0.73823
 C1621 C 0.31953 0.24962 0.71935
 O1622 O 0.25113 0.29949 0.69195
 O1623 O 0.19183 0.21096 0.70698
 O1624 O 0.26053 0.25458 0.68202
 O1625 O 0.23372 0.21898 0.68741
 O1626 O 0.16806 0.26133 0.72476
 O1627 O 0.19577 0.29905 0.71402
 C1628 C 0.24763 0.23453 0.67381
 H1629 H 0.18584 0.22524 0.75203
 H1630 H 0.23739 0.30926 0.74069
 H1631 H 0.27665 0.22094 0.71243
 H1632 H 0.26896 0.24034 0.80436
 H1633 H 0.17238 0.31413 0.75668
 H1634 H 0.25061 0.32903 0.80036
 H1635 H 0.29040 0.30354 0.81016
 H1636 H 0.32974 0.22530 0.78074
 H1637 H 0.15327 0.27313 0.72927
 H1638 H 0.19279 0.19392 0.69809
 H1639 H 0.23517 0.17206 0.70210
 H1640 H 0.31516 0.18753 0.74764
 H1641 H 0.17838 0.30776 0.71521
 H1642 H 0.26647 0.30269 0.68091
 H1643 H 0.21865 0.19686 0.82529
 H1644 H 0.30512 0.18932 0.78941
 Zr1645 Zr 0.26917 0.77788 0.28224
 O1646 O 0.25623 0.80493 0.30960
 O1647 O 0.30812 0.77205 0.29256
 O1648 O 0.26908 0.76061 0.31884
 O1649 O 0.27871 0.82557 0.23605
 O1650 O 0.24975 0.72059 0.31285
 O1651 O 0.28662 0.81580 0.27719
 O1652 O 0.32309 0.74107 0.26515
 O1653 O 0.27538 0.73759 0.27562
 O1654 O 0.28723 0.77486 0.24716
 O1655 O 0.23193 0.76020 0.28385
 O1656 O 0.24351 0.79684 0.25675
 Zr1657 Zr 0.23004 0.73423 0.21474
 Zr1658 Zr 0.23821 0.72039 0.27530
 Zr1659 Zr 0.26105 0.79164 0.22158
 Zr1660 Zr 0.29203 0.73490 0.24005
 O1661 O 0.23916 0.82545 0.21084
 O1662 O 0.30474 0.69758 0.25372
 O1663 O 0.26746 0.75187 0.21275
 O1664 O 0.25578 0.71570 0.24020
 O1665 O 0.21189 0.73711 0.24981
 O1666 O 0.22395 0.77444 0.22147
 C1667 C 0.32557 0.75619 0.28413
 C1668 C 0.28786 0.83120 0.25776
 C1669 C 0.26067 0.73795 0.32666
 O1670 O 0.25856 0.68486 0.28337
 O1671 O 0.21635 0.68852 0.26173
 O1672 O 0.21073 0.69747 0.22010
 C1673 C 0.20740 0.68305 0.23991
 O1674 O 0.20289 0.80652 0.28483
 Zr1675 Zr 0.20733 0.77723 0.25692
 O1676 O 0.19038 0.73836 0.20564
 O1677 O 0.20473 0.71500 0.29822
 O1678 O 0.17804 0.76413 0.28233
 O1679 O 0.19130 0.81178 0.24015
 O1680 O 0.17459 0.76519 0.23639
 C1681 C 0.17189 0.75032 0.21729
 O1682 O 0.24263 0.70615 0.18818
 O1683 O 0.29594 0.79891 0.20117
 O1684 O 0.23208 0.75031 0.17786
 O1685 O 0.25384 0.78918 0.18309
 O1686 O 0.32395 0.74962 0.21868
 O1687 O 0.29826 0.71068 0.20832
 C1688 C 0.24258 0.77181 0.16952
 H1689 H 0.30441 0.78387 0.24640
 H1690 H 0.25825 0.69686 0.23606
 H1691 H 0.21249 0.78286 0.20872
 H1692 H 0.22388 0.76233 0.30058
 H1693 H 0.32386 0.69619 0.25053
 H1694 H 0.24775 0.67492 0.29562
 H1695 H 0.20687 0.69773 0.30681
 H1696 H 0.16187 0.77449 0.27888
 H1697 H 0.33948 0.73852 0.22266
 H1698 H 0.29363 0.81615 0.19255
 H1699 H 0.25008 0.83541 0.19869
 H1700 H 0.17231 0.81215 0.24418
 H1701 H 0.31602 0.70271 0.20922
 H1702 H 0.22734 0.70229 0.17733
 H1703 H 0.27156 0.80885 0.32038
 H1704 H 0.18429 0.81221 0.28563
 Zr1705 Zr 0.23180 0.76887 0.71300
 O1706 O 0.24424 0.79599 0.68514
 O1707 O 0.19302 0.76218 0.70263
 O1708 O 0.23190 0.75133 0.67693
 O1709 O 0.22046 0.81607 0.75833
 O1710 O 0.25497 0.71303 0.68297
 O1711 O 0.21316 0.80645 0.71727
 O1712 O 0.17933 0.73047 0.73031
 O1713 O 0.22712 0.72840 0.72021
 O1714 O 0.21359 0.76526 0.74798
 O1715 O 0.26973 0.75224 0.71192
 O1716 O 0.25670 0.78836 0.73831
 Zr1717 Zr 0.27198 0.72604 0.78153
 Zr1718 Zr 0.26491 0.71226 0.72100
 Zr1719 Zr 0.23905 0.78258 0.77336
 Zr1720 Zr 0.21028 0.72517 0.75570
 O1721 O 0.25958 0.81695 0.78384
 O1722 O 0.19889 0.68756 0.74259
 O1723 O 0.23395 0.74270 0.78294
 O1724 O 0.24714 0.70702 0.75604
 O1725 O 0.29047 0.72943 0.74656
 O1726 O 0.27669 0.76638 0.77408
 C1727 C 0.17623 0.74570 0.71125
 C1728 C 0.21125 0.82167 0.73654
 C1729 C 0.24220 0.72953 0.66921
 O1730 O 0.24524 0.67686 0.71225
 O1731 O 0.28634 0.68007 0.73548
 O1732 O 0.29163 0.68914 0.77698
 C1733 C 0.29489 0.67444 0.75753
 O1734 O 0.29771 0.79872 0.71010
 Zr1735 Zr 0.29360 0.76972 0.73877
 O1736 O 0.31141 0.73106 0.79046
 O1737 O 0.29942 0.70737 0.69944
 O1738 O 0.32368 0.75666 0.71430
 O1739 O 0.30765 0.80518 0.75456
 O1740 O 0.32646 0.75971 0.76050
 C1741 C 0.32943 0.74449 0.77959
 O1742 O 0.26016 0.69807 0.80888
 O1743 O 0.20374 0.78895 0.79340
 O1744 O 0.26967 0.74251 0.81815
 O1745 O 0.24593 0.78025 0.81181
 O1746 O 0.17771 0.73904 0.77663
 O1747 O 0.20471 0.70068 0.78774
 C1748 C 0.25821 0.76376 0.82592
 H1749 H 0.19611 0.77384 0.74851
 H1750 H 0.24507 0.68814 0.76042
 H1751 H 0.28769 0.77521 0.78674
 H1752 H 0.27785 0.75467 0.69523
 H1753 H 0.17982 0.68566 0.74578
 H1754 H 0.25661 0.66716 0.70039
 H1755 H 0.29788 0.69020 0.69086
 H1756 H 0.33953 0.76731 0.71769
 H1757 H 0.16258 0.72759 0.77267
 H1758 H 0.20536 0.80624 0.80174
 H1759 H 0.24818 0.82659 0.79573
 H1760 H 0.32666 0.80632 0.75076
 H1761 H 0.18715 0.69244 0.78698
 H1762 H 0.27557 0.69458 0.81980
 H1763 H 0.22886 0.79964 0.67424
 H1764 H 0.31626 0.80439 0.70911
 Zr1765 Zr 0.27166 0.23549 0.22108
 O1766 O 0.25788 0.20865 0.19402
 O1767 O 0.31091 0.23955 0.21103
 O1768 O 0.27192 0.25245 0.18445
 O1769 O 0.28165 0.18807 0.26746
 O1770 O 0.25071 0.29181 0.18964
 O1771 O 0.28880 0.19741 0.22611
 O1772 O 0.32676 0.27005 0.23835
 O1773 O 0.27844 0.27573 0.22710
 O1774 O 0.29002 0.23850 0.25598
 O1775 O 0.23452 0.25374 0.21975
 O1776 O 0.24598 0.21728 0.24693
 Zr1777 Zr 0.23382 0.28059 0.28860
 Zr1778 Zr 0.24132 0.29349 0.22771
 Zr1779 Zr 0.26404 0.22237 0.28183
 Zr1780 Zr 0.29540 0.27844 0.26257
 O1781 O 0.24200 0.18888 0.29264
 O1782 O 0.30856 0.31480 0.24734
 O1783 O 0.27103 0.26213 0.29033
 O1784 O 0.25937 0.29829 0.26257
 O1785 O 0.21510 0.27775 0.25380
 O1786 O 0.22722 0.24043 0.28221
 C1787 C 0.32905 0.25413 0.21994
 C1788 C 0.29050 0.18224 0.24565
 C1789 C 0.26232 0.27448 0.17617
 O1790 O 0.26248 0.32796 0.21824
 O1791 O 0.22077 0.32633 0.24127
 O1792 O 0.21470 0.31770 0.28292
 C1793 C 0.21177 0.33215 0.26300
 O1794 O 0.20417 0.20863 0.21924
 Zr1795 Zr 0.20997 0.23767 0.24711
 O1796 O 0.19447 0.27739 0.29852
 O1797 O 0.20714 0.29984 0.20589
 O1798 O 0.18043 0.25199 0.22247
 O1799 O 0.19412 0.20315 0.26382
 O1800 O 0.17789 0.24978 0.26891
 C1801 C 0.17579 0.26486 0.28799
 O1802 O 0.24744 0.30848 0.31474
 O1803 O 0.29888 0.21478 0.30230
 O1804 O 0.23531 0.26427 0.32556
 O1805 O 0.25676 0.22502 0.32023
 O1806 O 0.32690 0.26385 0.28474
 O1807 O 0.30208 0.30375 0.29339
 C1808 C 0.24534 0.24236 0.33382
 H1809 H 0.30706 0.22909 0.25693
 H1810 H 0.26214 0.31713 0.26642
 H1811 H 0.21582 0.23220 0.29506
 H1812 H 0.22618 0.25149 0.20317
 H1813 H 0.32773 0.31583 0.25032
 H1814 H 0.25156 0.33801 0.20609
 H1815 H 0.20940 0.31690 0.19698
 H1816 H 0.16403 0.24235 0.22638
 H1817 H 0.34260 0.27455 0.28068
 H1818 H 0.29654 0.19757 0.31094
 H1819 H 0.25286 0.17882 0.30483
 H1820 H 0.17501 0.20315 0.26031
 H1821 H 0.31974 0.31169 0.29188
 H1822 H 0.23236 0.31287 0.32571
 H1823 H 0.27302 0.20415 0.18315
 H1824 H 0.18533 0.20399 0.21845
 Zr1825 Zr 0.72131 0.72902 0.28525
 O1826 O 0.73265 0.70126 0.31308
 O1827 O 0.68266 0.73680 0.29560
 O1828 O 0.72320 0.74580 0.32166
 O1829 O 0.70870 0.68253 0.23950
 O1830 O 0.74555 0.78424 0.31524
 O1831 O 0.70270 0.69164 0.28087
 O1832 O 0.66935 0.76922 0.26837
 O1833 O 0.71773 0.76974 0.27852
 O1834 O 0.70275 0.73375 0.25050
 O1835 O 0.75972 0.74408 0.28608
 O1836 O 0.74514 0.70889 0.25932
 Zr1837 Zr 0.76227 0.77074 0.21667
 Zr1838 Zr 0.75604 0.78429 0.27736
 Zr1839 Zr 0.72722 0.71583 0.22448
 Zr1840 Zr 0.70066 0.77408 0.24321
 O1841 O 0.74645 0.68103 0.21259
 O1842 O 0.69072 0.81174 0.25741
 O1843 O 0.72354 0.75601 0.21546
 O1844 O 0.73822 0.79056 0.24251
 O1845 O 0.78092 0.76627 0.25146
 O1846 O 0.76540 0.73017 0.22376
 C1847 C 0.66593 0.75356 0.28707
 C1848 C 0.70046 0.67660 0.26153
 C1849 C 0.73355 0.76754 0.32928
 O1850 O 0.73808 0.82085 0.28584
 O1851 O 0.77909 0.81522 0.26316
 O1852 O 0.78378 0.80636 0.22154
 C1853 C 0.78789 0.82055 0.24116
 O1854 O 0.78589 0.69658 0.28746
 Zr1855 Zr 0.78261 0.72581 0.25886
 O1856 O 0.80105 0.76293 0.20643
 O1857 O 0.79044 0.78726 0.29935
 O1858 O 0.81349 0.73761 0.28286
 O1859 O 0.79520 0.68968 0.24305
 O1860 O 0.81538 0.73402 0.23659
 C1861 C 0.81855 0.74835 0.21697
 O1862 O 0.75113 0.79966 0.18986
 O1863 O 0.69111 0.71101 0.20547
 O1864 O 0.75950 0.75456 0.18005
 O1865 O 0.73291 0.71886 0.18580
 O1866 O 0.66787 0.76181 0.22188
 O1867 O 0.69538 0.79978 0.21195
 C1868 C 0.74660 0.73442 0.17201
 H1869 H 0.68510 0.72568 0.25008
 H1870 H 0.73687 0.80956 0.23831
 H1871 H 0.77580 0.72080 0.21093
 H1872 H 0.76797 0.74120 0.30267
 H1873 H 0.67167 0.81452 0.25460
 H1874 H 0.74973 0.82986 0.29788
 H1875 H 0.78960 0.80450 0.30790
 H1876 H 0.82889 0.72623 0.27930
 H1877 H 0.65294 0.77356 0.22611
 H1878 H 0.69204 0.69385 0.19679
 H1879 H 0.73447 0.67217 0.20073
 H1880 H 0.81415 0.68758 0.24683
 H1881 H 0.67803 0.80855 0.21312
 H1882 H 0.76651 0.80250 0.17878
 H1883 H 0.71712 0.69817 0.32392
 H1884 H 0.80432 0.69039 0.28858
 Zr1885 Zr 0.77373 0.27525 0.78336
 O1886 O 0.76218 0.30193 0.81160
 O1887 O 0.81303 0.26883 0.79219
 O1888 O 0.77402 0.25741 0.81971
 O1889 O 0.78293 0.32376 0.73782
 O1890 O 0.75358 0.21799 0.81360
 O1891 O 0.79149 0.31299 0.77866
 O1892 O 0.82697 0.23868 0.76346
 O1893 O 0.77904 0.23499 0.77600
 O1894 O 0.79076 0.27259 0.74777
 O1895 O 0.73616 0.25835 0.78548
 O1896 O 0.74781 0.29520 0.75876
 Zr1897 Zr 0.73204 0.23363 0.71612
 Zr1898 Zr 0.74145 0.21860 0.77623
 Zr1899 Zr 0.76434 0.29037 0.72309
 Zr1900 Zr 0.79464 0.23268 0.73993
 O1901 O 0.74283 0.32474 0.71331
 O1902 O 0.80719 0.19525 0.75344
 O1903 O 0.76972 0.25063 0.71352
 O1904 O 0.75805 0.21418 0.74068
 O1905 O 0.71475 0.23624 0.75159
 O1906 O 0.72697 0.27384 0.72356
 C1907 C 0.83028 0.25355 0.78248
 C1908 C 0.79260 0.32874 0.75949
 C1909 C 0.76511 0.23492 0.82744
 O1910 O 0.76141 0.18264 0.78342
 O1911 O 0.71885 0.18726 0.76268
 O1912 O 0.71230 0.19706 0.72134
 C1913 C 0.70933 0.18228 0.74098
 O1914 O 0.70778 0.30469 0.78830
 Zr1915 Zr 0.71124 0.27635 0.75939
 O1916 O 0.69234 0.23899 0.70788
 O1917 O 0.70834 0.21336 0.79967
 O1918 O 0.68205 0.26271 0.78465
 O1919 O 0.69612 0.31205 0.74411
 O1920 O 0.67790 0.26656 0.73862
 C1921 C 0.67448 0.25193 0.71947
 O1922 O 0.74323 0.20574 0.68881
 O1923 O 0.79887 0.29743 0.70206
 O1924 O 0.73368 0.25016 0.67944
 O1925 O 0.75619 0.28861 0.68469
 O1926 O 0.82582 0.24689 0.71729
 O1927 O 0.79936 0.20835 0.70804
 C1928 C 0.74437 0.27158 0.67114
 H1929 H 0.80803 0.28138 0.74663
 H1930 H 0.76008 0.19538 0.73622
 H1931 H 0.71545 0.28279 0.71118
 H1932 H 0.72851 0.26035 0.80240
 H1933 H 0.82616 0.19352 0.74966
 H1934 H 0.75071 0.17269 0.79576
 H1935 H 0.71034 0.19590 0.80794
 H1936 H 0.66601 0.27344 0.78176
 H1937 H 0.84129 0.23542 0.72047
 H1938 H 0.79667 0.31487 0.69379
 H1939 H 0.75365 0.33469 0.70107
 H1940 H 0.67724 0.31298 0.74851
 H1941 H 0.81685 0.19976 0.70860
 H1942 H 0.72757 0.20243 0.67827
 H1943 H 0.77790 0.30535 0.82202
 H1944 H 0.68922 0.31035 0.78981
 C1945 C 0.49486 0.99058 0.36698
 C1946 C 0.46939 0.97603 0.35920
 C1947 C 0.46000 1.00093 0.34498
 C1948 C 0.48534 1.01549 0.35227
 C1949 C 0.44613 1.01098 0.36864
 C1950 C 0.45548 0.98617 0.38300
 C1951 C 0.48071 1.00072 0.39048
 C1952 C 0.47143 1.02556 0.37615
 H1953 H 0.51500 0.98216 0.36650
 H1954 H 0.46843 0.95556 0.35208
 H1955 H 0.49769 1.02763 0.33956
 H1956 H 0.42600 1.01943 0.36933
 H1957 H 0.44320 0.97401 0.39576
 H1958 H 0.47233 1.04603 0.38325
 C1959 C -0.03126 0.52247 0.87576
 C1960 C -0.01743 0.51234 0.85196
 C1961 C -0.04149 0.49816 0.84505
 C1962 C -0.05592 0.50763 0.86711
 C1963 C -0.03291 0.47377 0.85800
 C1964 C -0.00748 0.48772 0.86673
 C1965 C -0.02205 0.49755 0.89027
 C1966 C -0.04713 0.48298 0.88199
 H1967 H -0.03090 0.54314 0.88242
 H1968 H -0.00579 0.52441 0.83856
 H1969 H -0.07621 0.51574 0.86648
 H1970 H -0.03385 0.45353 0.85037
 H1971 H 0.01265 0.47932 0.86580
 H1972 H -0.06004 0.47051 0.89388
 C1973 C 0.02297 -0.02398 0.87740
 C1974 C 0.01306 -0.00758 0.85461
 C1975 C 0.04176 -0.00072 0.84813
 C1976 C 0.05160 -0.01710 0.87064
 C1977 C 0.04015 0.02414 0.86441
 C1978 C 0.01135 0.01731 0.87140
 C1979 C 0.02146 0.00082 0.89375
 C1980 C 0.05004 0.00774 0.88699
 H1981 H 0.01577 -0.04383 0.88289
 H1982 H -0.00221 -0.01399 0.84119
 H1983 H 0.06823 -0.03131 0.87038
 H1984 H 0.04740 0.04398 0.85893
 H1985 H -0.00531 0.03146 0.87193
 H1986 H 0.06535 0.01414 0.90040
 C1987 C 0.55006 0.51005 0.38775
 C1988 C 0.55086 0.48524 0.37133
 C1989 C 0.54167 0.50200 0.34884
 C1990 C 0.54082 0.52686 0.36518
 C1991 C 0.51272 0.49610 0.35516
 C1992 C 0.52199 0.47931 0.37793
 C1993 C 0.52123 0.50407 0.39436
 C1994 C 0.51175 0.52096 0.37204
 H1995 H 0.56551 0.51589 0.40125
 H1996 H 0.56700 0.47047 0.37111
 H1997 H 0.54875 0.54644 0.35977
 H1998 H 0.49730 0.49024 0.34167
 H1999 H 0.51411 0.45970 0.38331
 H2000 H 0.49557 0.53567 0.37256
 C2001 C 0.50535 0.48176 0.13059
 C2002 C 0.52947 0.46575 0.14026
 C2003 C 0.54001 0.49070 0.15309
 C2004 C 0.51604 0.50667 0.14392
 C2005 C 0.55537 0.49825 0.12931
 C2006 C 0.54485 0.47344 0.11631
 C2007 C 0.52097 0.48944 0.10700
 C2008 C 0.53144 0.51426 0.11999
 H2009 H 0.48467 0.47497 0.13088
 H2010 H 0.52864 0.44560 0.14846
 H2011 H 0.50428 0.52043 0.15549
 H2012 H 0.57605 0.50505 0.12872
 H2013 H 0.55667 0.45968 0.10478
 H2014 H 0.53220 0.53432 0.11154
 C2015 C 0.00795 0.98047 0.62790
 C2016 C 0.03211 0.96482 0.63799
 C2017 C 0.04203 0.98993 0.65098
 C2018 C 0.01802 1.00555 0.64137
 C2019 C 0.05774 0.99768 0.62746
 C2020 C 0.04783 0.97270 0.61429
 C2021 C 0.02391 0.98835 0.60457
 C2022 C 0.03376 1.01334 0.61769
 H2023 H -0.01263 0.97338 0.62784
 H2024 H 0.03141 0.94466 0.64619
 H2025 H 0.00584 1.01915 0.65272
 H2026 H 0.07833 1.00477 0.62723
 H2027 H 0.06007 0.95910 0.60298
 H2028 H 0.03439 1.03339 0.60922
 C2029 C -0.05103 0.51144 0.60823
 C2030 C -0.05004 0.48757 0.62627
 C2031 C -0.04183 0.50604 0.64756
 C2032 C -0.04275 0.52994 0.62957
 C2033 C -0.01259 0.50148 0.64128
 C2034 C -0.02089 0.48297 0.61971
 C2035 C -0.02189 0.50679 0.60166
 C2036 C -0.01341 0.52538 0.62278
 H2037 H -0.06700 0.51566 0.59461
 H2038 H -0.06516 0.47193 0.62759
 H2039 H -0.05192 0.54931 0.63372
 H2040 H 0.00328 0.49726 0.65498
 H2041 H -0.01176 0.46358 0.61556
 H2042 H 0.00174 0.54095 0.62116
 C2043 C 0.47737 -0.01891 0.12059
 C2044 C 0.48591 -0.00136 0.14278
 C2045 C 0.45673 0.00416 0.14863
 C2046 C 0.44827 -0.01335 0.12672
 C2047 C 0.45711 0.02857 0.13126
 C2048 C 0.48640 0.02306 0.12491
 C2049 C 0.47768 0.00543 0.10315
 C2050 C 0.44859 0.01103 0.10929
 H2051 H 0.48585 -0.03850 0.11610
 H2052 H 0.50134 -0.00659 0.15664
 H2053 H 0.43253 -0.02842 0.12734
 H2054 H 0.44859 0.04814 0.13575
 H2055 H 0.50218 0.03805 0.12399
 H2056 H 0.43309 0.01625 0.09548
 C2057 C 0.37392 0.45500 0.00332
 C2058 C 0.36833 0.43095 -0.01340
 C2059 C 0.35505 0.41698 0.00891
 C2060 C 0.36042 0.44093 0.02571
 C2061 C 0.38152 0.40447 0.01678
 C2062 C 0.39491 0.41855 -0.00559
 C2063 C 0.40034 0.44251 0.01112
 C2064 C 0.38723 0.42862 0.03354
 H2065 H 0.37089 0.47595 -0.00218
 H2066 H 0.36054 0.43188 -0.03279
 H2067 H 0.34603 0.45013 0.03860
 H2068 H 0.38516 0.38366 0.02242
 H2069 H 0.40927 0.40932 -0.01850
 H2070 H 0.39515 0.42775 0.05289
 C2071 C -0.10142 0.91092 0.51349
 C2072 C -0.12530 0.91798 0.53026
 C2073 C -0.14334 0.91748 0.50705
 C2074 C -0.11977 0.91024 0.49036
 C2075 C -0.13844 0.94707 0.50232
 C2076 C -0.12010 0.94779 0.52546
 C2077 C -0.09664 0.94048 0.50872
 C2078 C -0.11482 0.93985 0.48559
 H2079 H -0.08605 0.89609 0.51818
 H2080 H -0.12983 0.90888 0.54872
 H2081 H -0.11967 0.89481 0.47576
 H2082 H -0.15325 0.96241 0.49756
 H2083 H -0.12009 0.96325 0.54003
 H2084 H -0.11073 0.94880 0.46695
 C2085 C -0.10683 0.07543 1.00623
 C2086 C -0.11976 0.09103 0.98448
 C2087 C -0.14463 0.07709 0.98914
 C2088 C -0.13364 0.06205 1.01042
 C2089 C -0.13811 0.05614 0.97113
 C2090 C -0.11119 0.06927 0.96588
 C2091 C -0.09899 0.05336 0.98782
 C2092 C -0.12561 0.03966 0.99258
 H2093 H -0.09441 0.08411 1.02109
 H2094 H -0.11841 0.11264 0.98123
 H2095 H -0.14375 0.05943 1.02870
 H2096 H -0.15149 0.04812 0.95672
 H2097 H -0.10248 0.07282 0.94711
 H2098 H -0.12894 0.01832 0.99599
 C2099 C 0.39281 0.57639 0.50766
 C2100 C 0.38140 0.59304 0.48577
 C2101 C 0.35467 0.57937 0.48942
 C2102 C 0.36593 0.56284 0.51128
 C2103 C 0.36266 0.55778 0.47068
 C2104 C 0.38973 0.57126 0.46705
 C2105 C 0.40081 0.55480 0.48901
 C2106 C 0.37410 0.54117 0.49263
 H2107 H 0.40536 0.58408 0.52290
 H2108 H 0.38433 0.61454 0.48297
 H2109 H 0.35610 0.55931 0.52954
 H2110 H 0.35037 0.54981 0.45539
 H2111 H 0.39971 0.57472 0.44885
 H2112 H 0.37118 0.51968 0.49544
 C2113 C 0.10241 0.58390 0.50815
 C2114 C 0.12602 0.57807 0.52576
 C2115 C 0.14470 0.57866 0.50299
 C2116 C 0.12138 0.58467 0.48546
 C2117 C 0.14091 0.54880 0.49930
 C2118 C 0.12195 0.54801 0.52201
 C2119 C 0.09872 0.55408 0.50442
 C2120 C 0.11751 0.55478 0.48172
 H2121 H 0.08650 0.59835 0.51183
 H2122 H 0.12969 0.58775 0.54397
 H2123 H 0.12117 0.59974 0.47027
 H2124 H 0.15636 0.53388 0.49553
 H2125 H 0.12207 0.53291 0.53717
 H2126 H 0.11419 0.54524 0.46337
 C2127 C 0.62341 0.04765 0.02539
 C2128 C 0.64230 0.04823 0.00263
 C2129 C 0.64633 0.07807 0.00619
 C2130 C 0.62772 0.07771 0.02902
 C2131 C 0.62298 0.08418 -0.01128
 C2132 C 0.61890 0.05433 -0.01489
 C2133 C 0.60015 0.05382 0.00786
 C2134 C 0.60407 0.08363 0.01146
 H2135 H 0.62347 0.03262 0.04062
 H2136 H 0.65759 0.03314 -0.00115
 H2137 H 0.63152 0.08743 0.04719
 H2138 H 0.62281 0.09919 -0.02653
 H2139 H 0.61553 0.04477 -0.03322
 H2140 H 0.58822 0.09818 0.01519
 C2141 C 0.60858 0.92616 0.50431
 C2142 C 0.62048 0.90943 0.48303
 C2143 C 0.64727 0.92264 0.48744
 C2144 C 0.63549 0.93927 0.50867
 C2145 C 0.64036 0.94443 0.46815
 C2146 C 0.61319 0.93143 0.46377
 C2147 C 0.60160 0.94798 0.48514
 C2148 C 0.62839 0.96114 0.48949
 H2149 H 0.59536 0.91859 0.51923
 H2150 H 0.61731 0.88799 0.48043
 H2151 H 0.64466 0.94256 0.52722
 H2152 H 0.65340 0.95222 0.45320
 H2153 H 0.60384 0.92824 0.44529
 H2154 H 0.63156 0.98257 0.49212
 C2155 C 0.12345 0.45256 0.96979
 C2156 C 0.14137 0.45074 0.99321
 C2157 C 0.14393 0.42075 0.98978
 C2158 C 0.12633 0.42229 0.96626
 C2159 C 0.11958 0.41611 1.00638
 C2160 C 0.11704 0.44615 1.00990
 C2161 C 0.09925 0.44784 0.98650
 C2162 C 0.10171 0.41787 0.98295
 H2163 H 0.12491 0.46760 0.95463
 H2164 H 0.15775 0.46430 0.99757
 H2165 H 0.13031 0.41231 0.94824
 H2166 H 0.11724 0.40123 1.02156
 H2167 H 0.11355 0.45592 1.02812
 H2168 H 0.08526 0.40437 0.97860
 C2169 C 0.02245 0.37659 0.44174
 C2170 C 0.01721 0.35192 0.45818
 C2171 C -0.00227 0.34220 0.43840
 C2172 C 0.00297 0.36656 0.42183
 C2173 C -0.02519 0.35630 0.45139
 C2174 C -0.00572 0.36639 0.47131
 C2175 C -0.00046 0.39062 0.45466
 C2176 C -0.01994 0.38094 0.43492
 H2177 H 0.04193 0.38546 0.43784
 H2178 H 0.03236 0.33985 0.46794
 H2179 H 0.00655 0.36617 0.40134
 H2180 H -0.04471 0.34755 0.45537
 H2181 H -0.00929 0.36691 0.49180
 H2182 H -0.03510 0.39325 0.42545
 C2183 C 0.51911 -0.12959 -0.04294
 C2184 C 0.49494 -0.14792 -0.04175
 C2185 C 0.49725 -0.15212 -0.07008
 C2186 C 0.52142 -0.13412 -0.07146
 C2187 C 0.47884 -0.12863 -0.07548
 C2188 C 0.47653 -0.12414 -0.04700
 C2189 C 0.50067 -0.10625 -0.04840
 C2190 C 0.50304 -0.11039 -0.07668
 H2191 H 0.53568 -0.12951 -0.02945
 H2192 H 0.49150 -0.16373 -0.02765
 H2193 H 0.53983 -0.13858 -0.08175
 H2194 H 0.46218 -0.12777 -0.08883
 H2195 H 0.45818 -0.11955 -0.03668
 H2196 H 0.50649 -0.09455 -0.09076
 C2197 C 0.00401 -0.13099 1.04389
 C2198 C 0.01945 -0.13673 1.06826
 C2199 C -0.00588 -0.14731 1.08024
 C2200 C -0.02132 -0.14185 1.05604
 C2201 C -0.01280 -0.11989 1.09037
 C2202 C 0.01255 -0.10905 1.07821
 C2203 C -0.00289 -0.10368 1.05402
 C2204 C -0.02822 -0.11411 1.06597
 H2205 H 0.01095 -0.13506 1.02460
 H2206 H 0.03902 -0.14638 1.06950
 H2207 H -0.03531 -0.15570 1.04725
 H2208 H -0.01975 -0.11507 1.10949
 H2209 H 0.02653 -0.09525 1.08708
 H2210 H -0.04773 -0.10434 1.06468
 C2211 C 0.48814 0.38798 0.57469
 C2212 C 0.46941 0.36510 0.56841
 C2213 C 0.49273 0.34590 0.57018
 C2214 C 0.51147 0.36853 0.57659
 C2215 C 0.49853 0.34924 0.54210
 C2216 C 0.47519 0.36881 0.54015
 C2217 C 0.49394 0.39132 0.54669
 C2218 C 0.51726 0.37220 0.54839
 H2219 H 0.48392 0.40433 0.58781
 H2220 H 0.44976 0.36174 0.57682
 H2221 H 0.52639 0.36802 0.59173
 H2222 H 0.50283 0.33334 0.52856
 H2223 H 0.46029 0.36939 0.52499
 H2224 H 0.53689 0.37564 0.53998
 C2225 C 0.48788 1.11364 0.56865
 C2226 C 0.51107 1.12134 0.58560
 C2227 C 0.50940 1.14950 0.57499
 C2228 C 0.48625 1.14199 0.55808
 C2229 C 0.52914 1.14284 0.55417
 C2230 C 0.53075 1.11428 0.56461
 C2231 C 0.50752 1.10687 0.54786
 C2232 C 0.50591 1.13493 0.53710
 H2233 H 0.47082 1.10148 0.57446
 H2234 H 0.51326 1.11607 0.60571
 H2235 H 0.46797 1.15372 0.55560
 H2236 H 0.54619 1.15493 0.54826
 H2237 H 0.54895 1.10241 0.56700
 H2238 H 0.50372 1.14003 0.51695
 C2239 C 0.01651 0.61544 1.06640
 C2240 C 0.03277 0.63983 1.05859
 C2241 C 0.00855 0.65724 1.06342
 C2242 C -0.00763 0.63307 1.07136
 C2243 C -0.00052 0.65449 1.03616
 C2244 C 0.02368 0.63667 1.03109
 C2245 C 0.00739 0.61270 1.03921
 C2246 C -0.01673 0.63008 1.04401
 H2247 H 0.02339 0.59895 1.07858
 H2248 H 0.05323 0.64381 1.06453
 H2249 H -0.02046 0.63186 1.08814
 H2250 H -0.00744 0.67096 1.02400
 H2251 H 0.03647 0.63764 1.01428
 H2252 H -0.03703 0.62561 1.03783
 C2253 C 0.52459 0.60350 -0.07252
 C2254 C 0.50094 0.61439 -0.08758
 C2255 C 0.50507 0.64137 -0.07531
 C2256 C 0.52871 0.63080 -0.06043
 C2257 C 0.48628 0.63414 -0.05387
 C2258 C 0.48218 0.60692 -0.06595
 C2259 C 0.50579 0.59641 -0.05111
 C2260 C 0.50993 0.62325 -0.03881
 H2261 H 0.54035 0.59053 -0.07990
 H2262 H 0.49710 0.61030 -0.10761
 H2263 H 0.54780 0.64104 -0.05843
 H2264 H 0.47052 0.64709 -0.04647
 H2265 H 0.46311 0.59662 -0.06792
 H2266 H 0.51363 0.62633 -0.01857
 C2267 C -0.01694 1.10363 0.43033
 C2268 C -0.01279 1.13092 0.44212
 C2269 C 0.00517 1.13781 0.42156
 C2270 C 0.00151 1.11242 0.40892
 C2271 C 0.02851 1.12858 0.43527
 C2272 C 0.01074 1.12024 0.45733
 C2273 C 0.00703 1.09326 0.44495
 C2274 C 0.02541 1.10114 0.42331
 H2275 H -0.03609 1.09356 0.42803
 H2276 H -0.02852 1.14421 0.44908
 H2277 H -0.00248 1.10939 0.38874
 H2278 H 0.04700 1.14002 0.43656
 H2279 H 0.01462 1.12399 0.47743
 H2280 H 0.04152 1.08913 0.41519
 C2281 C 0.73502 0.74959 0.88388
 C2282 C 0.72000 0.72415 0.89156
 C2283 C 0.74450 0.71408 0.90572
 C2284 C 0.75952 0.73937 0.89855
 C2285 C 0.75449 0.70034 0.88199
 C2286 C 0.73008 0.71036 0.86770
 C2287 C 0.74509 0.73555 0.86031
 C2288 C 0.76952 0.72558 0.87462
 H2289 H 0.72698 0.76994 0.88445
 H2290 H 0.69954 0.72344 0.89869
 H2291 H 0.77171 0.75138 0.91130
 H2292 H 0.76256 0.68000 0.88119
 H2293 H 0.71787 0.69843 0.85489
 H2294 H 0.79000 0.72622 0.86753
 C2295 C 0.23380 0.24885 0.38469
 C2296 C 0.21889 0.22341 0.39262
 C2297 C 0.24363 0.21337 0.40648
 C2298 C 0.25850 0.23864 0.39904
 C2299 C 0.25326 0.19960 0.38261
 C2300 C 0.22865 0.20962 0.36861
 C2301 C 0.24357 0.23480 0.36100
 C2302 C 0.26817 0.22482 0.37502
 H2303 H 0.22580 0.26921 0.38536
 H2304 H 0.19841 0.22286 0.39967
 H2305 H 0.27088 0.25050 0.41176
 H2306 H 0.26128 0.17925 0.38166
 H2307 H 0.21627 0.19767 0.35597
 H2308 H 0.28857 0.22546 0.36771
 C2309 C 0.78254 0.27311 0.37132
 C2310 C 0.77326 0.30123 0.37826
 C2311 C 0.75617 0.28978 0.39944
 C2312 C 0.76549 0.26163 0.39301
 C2313 C 0.73278 0.28716 0.38148
 C2314 C 0.74978 0.29877 0.36033
 C2315 C 0.75899 0.27066 0.35344
 C2316 C 0.74198 0.25901 0.37460
 H2317 H 0.80304 0.26720 0.36700
 H2318 H 0.78611 0.31877 0.37976
 H2319 H 0.77196 0.24633 0.40668
 H2320 H 0.71223 0.29306 0.38564
 H2321 H 0.74325 0.31462 0.34724
 H2322 H 0.72915 0.24148 0.37299
 C2323 C 0.28239 0.77461 0.87081
 C2324 C 0.27226 0.80249 0.87756
 C2325 C 0.25576 0.79072 0.89901
 C2326 C 0.26593 0.76281 0.89276
 C2327 C 0.23229 0.78713 0.88130
 C2328 C 0.24871 0.79906 0.85989
 C2329 C 0.25877 0.77118 0.85318
 C2330 C 0.24235 0.75921 0.87461
 H2331 H 0.30303 0.76933 0.86637
 H2332 H 0.28453 0.82047 0.87877
 H2333 H 0.27302 0.74788 0.90652
 H2334 H 0.21161 0.79240 0.88560
 H2335 H 0.24153 0.81456 0.84673
 H2336 H 0.23009 0.74124 0.87329
 C2337 C 0.26703 0.78763 0.12857
 C2338 C 0.25917 0.77152 0.10531
 C2339 C 0.24389 0.79563 0.09526
 C2340 C 0.25174 0.81175 0.11832
 C2341 C 0.21873 0.78616 0.10867
 C2342 C 0.23406 0.76191 0.11919
 C2343 C 0.24199 0.77822 0.14209
 C2344 C 0.22671 0.80226 0.13193
 H2345 H 0.28699 0.78818 0.13691
 H2346 H 0.27262 0.75894 0.09419
 H2347 H 0.25903 0.83234 0.11805
 H2348 H 0.19857 0.78547 0.10085
 H2349 H 0.22677 0.74133 0.11978
 H2350 H 0.21329 0.81487 0.14306
 C2351 C 0.76821 0.28740 0.62982
 C2352 C 0.75994 0.27112 0.60680
 C2353 C 0.74454 0.29517 0.59680
 C2354 C 0.75279 0.31147 0.61963
 C2355 C 0.71958 0.28587 0.61065
 C2356 C 0.73503 0.26168 0.62110
 C2357 C 0.74337 0.27815 0.64376
 C2358 C 0.72797 0.30214 0.63369
 H2359 H 0.78829 0.28797 0.63787
 H2360 H 0.77318 0.25842 0.59557
 H2361 H 0.76012 0.33204 0.61909
 H2362 H 0.69929 0.28517 0.60312
 H2363 H 0.72771 0.24112 0.62194
 H2364 H 0.71476 0.31485 0.64494
 C2365 C 0.25298 0.19764 0.64060
 C2366 C 0.22905 0.19886 0.62297
 C2367 C 0.24739 0.20658 0.60125
 C2368 C 0.27134 0.20542 0.61883
 C2369 C 0.24342 0.23608 0.60707
 C2370 C 0.22503 0.22828 0.62909
 C2371 C 0.24892 0.22704 0.64671
 C2372 C 0.26738 0.23500 0.62515
 H2373 H 0.25703 0.18167 0.65444
 H2374 H 0.21321 0.18393 0.62216
 H2375 H 0.29041 0.19581 0.61451
 H2376 H 0.23937 0.25195 0.59315
 H2377 H 0.20594 0.23785 0.63343
 H2378 H 0.28315 0.24997 0.62624
 C2379 C 0.75168 0.69738 0.13868
 C2380 C 0.72773 0.69843 0.12113
 C2381 C 0.74498 0.70640 0.10034
 C2382 C 0.76872 0.70528 0.11603
 C2383 C 0.74088 0.73474 0.10509
 C2384 C 0.72310 0.72761 0.12769
 C2385 C 0.74747 0.72687 0.14492
 C2386 C 0.76522 0.73481 0.12265
 H2387 H 0.75631 0.68110 0.15201
 H2388 H 0.71223 0.68318 0.11971
 H2389 H 0.78731 0.69557 0.11023
 H2390 H 0.73619 0.74988 0.09063
 H2391 H 0.70376 0.73678 0.13180
 H2392 H 0.78099 0.74983 0.12253
 C2393 C 0.17706 0.64620 0.21589
 C2394 C 0.18868 0.61862 0.22243
 C2395 C 0.16514 0.61316 0.23986
 C2396 C 0.15329 0.64043 0.23328
 C2397 C 0.18007 0.62504 0.26210
 C2398 C 0.20372 0.63069 0.24475
 C2399 C 0.19192 0.65790 0.23824
 C2400 C 0.16836 0.65243 0.25558
 H2401 H 0.17590 0.65507 0.19685
 H2402 H 0.19704 0.60452 0.20877
 H2403 H 0.13253 0.64488 0.22850
 H2404 H 0.18127 0.61630 0.28120
 H2405 H 0.22462 0.62677 0.24943
 H2406 H 0.15999 0.66653 0.26925
 C2407 C 0.70528 0.12980 0.74572
 C2408 C 0.68142 0.12402 0.76268
 C2409 C 0.66716 0.11332 0.74111
 C2410 C 0.68944 0.11771 0.72398
 C2411 C 0.65516 0.13910 0.73481
 C2412 C 0.67012 0.15169 0.75681
 C2413 C 0.69366 0.15726 0.73927
 C2414 C 0.67845 0.14540 0.71707
 H2415 H 0.72604 0.12506 0.75031
 H2416 H 0.68204 0.11437 0.78142
 H2417 H 0.69674 0.10276 0.71057
 H2418 H 0.63424 0.14283 0.73018
 H2419 H 0.66143 0.16532 0.77073
 H2420 H 0.67673 0.15367 0.69783
 C2421 C 0.81358 0.13157 0.23570
 C2422 C 0.84279 0.12728 0.24223
 C2423 C 0.83520 0.10268 0.25776
 C2424 C 0.80604 0.10698 0.25131
 C2425 C 0.83212 0.11980 0.28137
 C2426 C 0.83951 0.14468 0.26574
 C2427 C 0.81036 0.14888 0.25917
 C2428 C 0.80272 0.12441 0.27480
 H2429 H 0.80603 0.13613 0.21664
 H2430 H 0.85927 0.12907 0.22874
 H2431 H 0.79223 0.09143 0.24525
 H2432 H 0.83987 0.11480 0.30025
 H2433 H 0.85325 0.16032 0.27177
 H2434 H 0.78618 0.12335 0.28831
 C2435 C 0.32480 0.63635 0.78193
 C2436 C 0.31071 0.60961 0.77795
 C2437 C 0.33230 0.60135 0.75927
 C2438 C 0.34658 0.62773 0.76328
 C2439 C 0.31652 0.61355 0.73743
 C2440 C 0.29487 0.62199 0.75601
 C2441 C 0.30910 0.64837 0.75997
 C2442 C 0.33070 0.64007 0.74139
 H2443 H 0.32822 0.64590 0.80025
 H2444 H 0.30218 0.59718 0.79306
 H2445 H 0.36802 0.63002 0.76623
 H2446 H 0.31303 0.60417 0.71904
 H2447 H 0.27343 0.61970 0.75303
 H2448 H 0.33899 0.65273 0.72632
 C2449 C 0.32809 0.35017 0.75842
 C2450 C 0.34275 0.36293 0.73602
 C2451 C 0.33113 0.39000 0.74324
 C2452 C 0.31663 0.37738 0.76558
 C2453 C 0.30723 0.38525 0.72615
 C2454 C 0.31859 0.35784 0.71899
 C2455 C 0.30416 0.34538 0.74144
 C2456 C 0.29262 0.37243 0.74857
 H2457 H 0.33670 0.33558 0.77171
 H2458 H 0.36334 0.35841 0.73073
 H2459 H 0.31579 0.38539 0.78484
 H2460 H 0.29860 0.39984 0.71286
 H2461 H 0.31935 0.34965 0.69980
 H2462 H 0.27184 0.37627 0.75370
 C2463 C 0.82772 0.85012 0.25633
 C2464 C 0.84264 0.86269 0.23402
 C2465 C 0.83119 0.88989 0.24107
 C2466 C 0.81640 0.87743 0.26331
 C2467 C 0.80740 0.88524 0.22383
 C2468 C 0.81861 0.85773 0.21682
 C2469 C 0.80390 0.84544 0.23919
 C2470 C 0.79250 0.87260 0.24616
 H2471 H 0.83612 0.83552 0.26974
 H2472 H 0.86328 0.85814 0.22895
 H2473 H 0.81549 0.88553 0.28253
 H2474 H 0.79901 0.89988 0.21046
 H2475 H 0.81945 0.84950 0.19765
 H2476 H 0.77171 0.87662 0.25113
 C2477 C 0.71192 0.88551 0.75958
 C2478 C 0.69077 0.89272 0.73990
 C2479 C 0.67362 0.90469 0.76068
 C2480 C 0.69470 0.89773 0.78047
 C2481 C 0.66016 0.87790 0.76517
 C2482 C 0.67740 0.86579 0.74434
 C2483 C 0.69851 0.85872 0.76399
 C2484 C 0.68145 0.87052 0.78491
 H2485 H 0.73336 0.88854 0.75732
 H2486 H 0.69469 0.90181 0.72129
 H2487 H 0.70219 0.91071 0.79544
 H2488 H 0.63872 0.87482 0.76741
 H2489 H 0.67024 0.85250 0.72945
 H2490 H 0.67767 0.86122 0.80344
 C2491 C 0.20981 0.38470 0.25939
 C2492 C 0.18855 0.39140 0.23967
 C2493 C 0.17128 0.40346 0.26031
 C2494 C 0.19246 0.39697 0.28014
 C2495 C 0.15817 0.37655 0.26511
 C2496 C 0.17553 0.36437 0.24443
 C2497 C 0.19674 0.35780 0.26415
 C2498 C 0.17954 0.36967 0.28492
 H2499 H 0.23121 0.38798 0.25709
 H2500 H 0.19231 0.40032 0.22096
 H2501 H 0.19970 0.41034 0.29492
 H2502 H 0.13677 0.37326 0.26739
 H2503 H 0.16850 0.35082 0.22969
 H2504 H 0.17587 0.36058 0.30356
 C2505 C 0.13376 0.23525 0.82374
 C2506 C 0.12587 0.25841 0.84076
 C2507 C 0.09849 0.25841 0.82879
 C2508 C 0.10614 0.23529 0.81184
 C2509 C 0.10717 0.27846 0.80872
 C2510 C 0.13493 0.27841 0.82053
 C2511 C 0.14247 0.25524 0.80371
 C2512 C 0.11518 0.25526 0.79164
 H2513 H 0.14493 0.21744 0.82971
 H2514 H 0.12989 0.25980 0.86113
 H2515 H 0.09394 0.21760 0.80844
 H2516 H 0.09621 0.29630 0.80249
 H2517 H 0.14727 0.29602 0.82384
 H2518 H 0.11128 0.25387 0.77125
 C2519 C 0.63184 0.73490 0.32001
 C2520 C 0.62149 0.75820 0.33563
 C2521 C 0.59488 0.75581 0.32236
 C2522 C 0.60500 0.73254 0.30682
 C2523 C 0.60337 0.77558 0.30197
 C2524 C 0.63036 0.77793 0.31509
 C2525 C 0.64036 0.75461 0.29966
 C2526 C 0.61385 0.75225 0.28629
 H2527 H 0.64380 0.71817 0.32729
 H2528 H 0.62424 0.76070 0.35609
 H2529 H 0.59419 0.71393 0.30355
 H2530 H 0.59158 0.79232 0.29449
 H2531 H 0.64130 0.79647 0.31827
 H2532 H 0.61124 0.74975 0.26582
 C2533 C 0.64181 0.22123 0.18480
 C2534 C 0.61478 0.22486 0.19752
 C2535 C 0.60633 0.24271 0.17558
 C2536 C 0.63306 0.23905 0.16266
 C2537 C 0.61617 0.26729 0.18921
 C2538 C 0.62494 0.24946 0.21131
 C2539 C 0.65155 0.24580 0.19837
 C2540 C 0.64319 0.26365 0.17645
 H2541 H 0.65285 0.20240 0.18327
 H2542 H 0.60273 0.20888 0.20590
 H2543 H 0.63675 0.23461 0.14266
 H2544 H 0.60522 0.28617 0.19078
 H2545 H 0.62214 0.25380 0.23147
 H2546 H 0.65522 0.27964 0.16805
 C2547 C 0.14239 0.71854 0.68482
 C2548 C 0.11515 0.72151 0.69727
 C2549 C 0.10634 0.73863 0.67494
 C2550 C 0.13328 0.73562 0.66229
 C2551 C 0.11527 0.76380 0.68820
 C2552 C 0.12437 0.74671 0.71068
 C2553 C 0.15120 0.74370 0.69803
 C2554 C 0.14250 0.76082 0.67572
 H2555 H 0.15406 0.70005 0.68371
 H2556 H 0.10356 0.70529 0.70583
 H2557 H 0.13722 0.73087 0.64240
 H2558 H 0.10369 0.78235 0.68935
 H2559 H 0.12123 0.75137 0.73073
 H2560 H 0.15409 0.77703 0.66715
 C2561 C 0.86479 0.73389 0.68899
 C2562 C 0.87906 0.75584 0.67422
 C2563 C 0.90418 0.74943 0.68905
 C2564 C 0.89015 0.72748 0.70375
 C2565 C 0.89700 0.76987 0.70902
 C2566 C 0.87150 0.77625 0.69434
 C2567 C 0.85755 0.75426 0.70890
 C2568 C 0.88255 0.74791 0.72384
 H2569 H 0.85126 0.71916 0.68086
 H2570 H 0.87800 0.75908 0.65366
 H2571 H 0.89816 0.70745 0.70756
 H2572 H 0.91022 0.78464 0.71751
 H2573 H 0.86329 0.79622 0.69066
 H2574 H 0.88338 0.74471 0.74441
 C2575 C 0.35967 0.25283 0.18012
 C2576 C 0.38417 0.26989 0.18493
 C2577 C 0.40074 0.24455 0.18720
 C2578 C 0.37647 0.22747 0.18222
 C2579 C 0.39602 0.24328 0.21555
 C2580 C 0.37913 0.26863 0.21347
 C2581 C 0.35500 0.25151 0.20842
 C2582 C 0.37145 0.22620 0.21073
 H2583 H 0.34432 0.25693 0.16583
 H2584 H 0.38975 0.28778 0.17409
 H2585 H 0.37494 0.21044 0.16942
 H2586 H 0.41134 0.23919 0.22986
 H2587 H 0.37974 0.28562 0.22641
 H2588 H 0.36569 0.20836 0.22156
 C2589 C 0.37787 0.75863 0.28712
 C2590 C 0.38469 0.77571 0.31005
 C2591 C 0.39359 0.75070 0.32413
 C2592 C 0.38714 0.73358 0.30139
 C2593 C 0.36590 0.74668 0.33492
 C2594 C 0.35676 0.77172 0.32071
 C2595 C 0.35033 0.75462 0.29800
 C2596 C 0.35917 0.72961 0.31200
 H2597 H 0.38227 0.76360 0.26728
 H2598 H 0.39555 0.79463 0.30953
 H2599 H 0.39998 0.71783 0.29378
 H2600 H 0.36046 0.74160 0.35448
 H2601 H 0.34402 0.78750 0.32843
 H2602 H 0.34822 0.71073 0.31249
 C2603 C 0.85929 0.24695 0.82243
 C2604 C 0.88315 0.22936 0.81608
 C2605 C 0.90090 0.25361 0.81824
 C2606 C 0.87728 0.27121 0.82468
 C2607 C 0.89776 0.25984 0.79019
 C2608 C 0.87960 0.23556 0.78786
 C2609 C 0.85609 0.25317 0.79448
 C2610 C 0.87377 0.27742 0.79652
 H2611 H 0.84308 0.24165 0.83541
 H2612 H 0.88744 0.20964 0.82432
 H2613 H 0.87671 0.28589 0.83996
 H2614 H 0.91367 0.26520 0.77691
 H2615 H 0.88004 0.22092 0.77254
 H2616 H 0.86937 0.29712 0.78826
 C2617 C 0.51838 1.03259 0.62423
 C2618 C 0.52023 1.00737 0.64094
 C2619 C 0.54868 1.01456 0.64795
 C2620 C 0.54696 1.03979 0.63173
 C2621 C 0.55923 0.99890 0.62553
 C2622 C 0.53086 0.99170 0.61830
 C2623 C 0.52921 1.01683 0.60198
 C2624 C 0.55754 1.02408 0.60919
 H2625 H 0.50152 1.04651 0.62345
 H2626 H 0.50477 1.00036 0.65401
 H2627 H 0.55373 1.05962 0.63741
 H2628 H 0.57607 0.98494 0.62601
 H2629 H 0.52412 0.97184 0.61264
 H2630 H 0.57293 1.03105 0.59601
 C2631 C 0.05745 0.52733 1.10841
 C2632 C 0.04761 0.54223 1.13171
 C2633 C 0.04752 0.51723 1.14597
 C2634 C 0.05739 0.50204 1.12458
 C2635 C 0.01985 0.51193 1.13970
 C2636 C 0.01872 0.53754 1.12356
 C2637 C 0.02870 0.52197 1.10067
 C2638 C 0.02899 0.49630 1.11654
 H2639 H 0.07374 0.53387 1.09606
 H2640 H 0.05574 0.56092 1.13904
 H2641 H 0.07351 0.48726 1.12579
 H2642 H 0.00451 0.50532 1.15308
 H2643 H 0.00278 0.55252 1.12388
 H2644 H 0.02140 0.47673 1.11094
 C2645 C -0.01446 -0.03006 1.12822
 C2646 C -0.01627 -0.00509 1.14489
 C2647 C -0.04488 -0.01215 1.15157
 C2648 C -0.04319 -0.03713 1.13544
 C2649 C -0.05502 0.00402 1.12903
 C2650 C -0.02649 0.01107 1.12209
 C2651 C -0.02488 -0.01380 1.10585
 C2652 C -0.05336 -0.02092 1.11278
 H2653 H 0.00229 -0.04411 1.12762
 H2654 H -0.00081 0.00157 1.15799
 H2655 H -0.05021 -0.05700 1.14105
 H2656 H -0.07173 0.01814 1.12925
 H2657 H -0.01950 0.03094 1.11645
 H2658 H -0.06867 -0.02753 1.09947
 C2659 C 0.47204 0.50680 0.62158
 C2660 C 0.44341 0.50071 0.62889
 C2661 C 0.45333 0.48440 0.65142
 C2662 C 0.48205 0.49048 0.64432
 C2663 C 0.45400 0.45930 0.63539
 C2664 C 0.44404 0.47567 0.61275
 C2665 C 0.47263 0.48180 0.60543
 C2666 C 0.48285 0.46538 0.62778
 H2667 H 0.47957 0.52643 0.61576
 H2668 H 0.42717 0.51537 0.62928
 H2669 H 0.49779 0.49671 0.65732
 H2670 H 0.44642 0.43971 0.64124
 H2671 H 0.42834 0.46948 0.59966
 H2672 H 0.49912 0.45079 0.62709
 C2673 C 0.46693 0.48159 -0.11795
 C2674 C 0.44322 0.49777 -0.12748
 C2675 C 0.45849 0.50425 -0.15160
 C2676 C 0.48225 0.48813 -0.14216
 C2677 C 0.46964 0.52938 -0.13953
 C2678 C 0.45435 0.52276 -0.11520
 C2679 C 0.47801 0.50659 -0.10565
 C2680 C 0.49356 0.51319 -0.12960
 H2681 H 0.46584 0.46178 -0.10901
 H2682 H 0.42243 0.49136 -0.12651
 H2683 H 0.49363 0.47376 -0.15340
 H2684 H 0.47076 0.54924 -0.14835
 H2685 H 0.44292 0.53712 -0.10399
 H2686 H 0.51435 0.51960 -0.13028
 C2687 C -0.02994 0.97919 0.37915
 C2688 C -0.05395 0.99538 0.37036
 C2689 C -0.03915 1.00267 0.34619
 C2690 C -0.01509 0.98653 0.35487
 C2691 C -0.02803 1.02757 0.35868
 C2692 C -0.04285 1.02014 0.38305
 C2693 C -0.01890 1.00395 0.39186
 C2694 C -0.00381 1.01137 0.36786
 H2695 H -0.03069 0.95915 0.38764
 H2696 H -0.07467 0.98876 0.37148
 H2697 H -0.00376 0.97259 0.34310
 H2698 H -0.02725 1.04766 0.35034
 H2699 H -0.05423 1.03408 0.39479
 H2700 H 0.01691 1.01799 0.36705
 C2701 C 0.04875 0.47027 0.37976
 C2702 C 0.03327 0.46306 0.35579
 C2703 C 0.04183 0.48941 0.34368
 C2704 C 0.05730 0.49648 0.36742
 C2705 C 0.01714 0.50317 0.35398
 C2706 C 0.00841 0.47687 0.36659
 C2707 C 0.02414 0.48407 0.39015
 C2708 C 0.03264 0.51029 0.37779
 H2709 H 0.06172 0.45663 0.39047
 H2710 H 0.03353 0.44345 0.34676
 H2711 H 0.07747 0.50465 0.36786
 H2712 H 0.00422 0.51685 0.34325
 H2713 H -0.01176 0.46870 0.36644
 H2714 H 0.03237 0.52989 0.38688
 C2715 C 0.51088 -0.02076 -0.13189
 C2716 C 0.52027 0.00532 -0.14443
 C2717 C 0.54490 -0.00891 -0.15428
 C2718 C 0.53568 -0.03505 -0.14222
 C2719 C 0.56008 -0.00200 -0.13033
 C2720 C 0.53548 0.01228 -0.12040
 C2721 C 0.52632 -0.01373 -0.10812
 C2722 C 0.55086 -0.02800 -0.11805
 H2723 H 0.49057 -0.02858 -0.13232
 H2724 H 0.50778 0.01917 -0.15543
 H2725 H 0.53576 -0.05471 -0.15117
 H2726 H 0.58039 0.00581 -0.12961
 H2727 H 0.53538 0.03191 -0.11136
 H2728 H 0.56340 -0.04183 -0.10706
 C2729 C 0.62316 0.54406 0.01052
 C2730 C 0.64533 0.54298 -0.00926
 C2731 C 0.64745 0.57329 -0.00826
 C2732 C 0.62540 0.57437 0.01145
 C2733 C 0.62702 0.57602 -0.02949
 C2734 C 0.62455 0.54548 -0.03045
 C2735 C 0.60262 0.54672 -0.01064
 C2736 C 0.60478 0.57698 -0.00970
 H2737 H 0.62172 0.53083 0.02713
 H2738 H 0.66184 0.52864 -0.00898
 H2739 H 0.62572 0.58621 0.02882
 H2740 H 0.62871 0.58933 -0.04601
 H2741 H 0.62408 0.53359 -0.04778
 H2742 H 0.58798 0.59099 -0.00997
 C2743 C 0.11633 1.06282 0.46468
 C2744 C 0.12211 1.08549 0.48321
 C2745 C 0.14931 1.07336 0.48883
 C2746 C 0.14390 1.05086 0.47026
 C2747 C 0.13763 1.05683 0.51040
 C2748 C 0.11033 1.06890 0.50482
 C2749 C 0.10481 1.04636 0.48638
 C2750 C 0.13197 1.03422 0.49195
 H2751 H 0.10745 1.06523 0.44582
 H2752 H 0.11808 1.10672 0.47968
 H2753 H 0.15771 1.04323 0.45595
 H2754 H 0.14637 1.05435 0.52932
 H2755 H 0.09640 1.07638 0.51911
 H2756 H 0.13597 1.01299 0.49551
 C2757 C 0.12565 -0.04469 1.00467
 C2758 C 0.14005 -0.05827 1.02691
 C2759 C 0.14638 -0.08195 1.00991
 C2760 C 0.13221 -0.06842 0.98779
 C2761 C 0.12066 -0.09552 1.01799
 C2762 C 0.11390 -0.07166 1.03491
 C2763 C 0.09990 -0.05821 1.01265
 C2764 C 0.10636 -0.08189 0.99580
 H2765 H 0.12763 -0.02362 0.99921
 H2766 H 0.15371 -0.04819 1.03982
 H2767 H 0.13970 -0.06702 0.96830
 H2768 H 0.11865 -0.11659 1.02342
 H2769 H 0.10621 -0.07294 1.05433
 H2770 H 0.09236 -0.09167 0.98298
 C2771 C 0.61376 0.43490 0.48700
 C2772 C 0.63879 0.44171 0.50186
 C2773 C 0.64269 0.41221 0.50785
 C2774 C 0.61764 0.40536 0.49306
 C2775 C 0.62638 0.41512 0.53207
 C2776 C 0.62210 0.44488 0.52596
 C2777 C 0.59720 0.43793 0.51107
 C2778 C 0.60106 0.40846 0.51717
 H2779 H 0.60893 0.44296 0.46815
 H2780 H 0.65431 0.45547 0.49538
 H2781 H 0.61462 0.38943 0.47928
 H2782 H 0.63172 0.40683 0.55070
 H2783 H 0.62382 0.46116 0.53959
 H2784 H 0.58544 0.39480 0.52362
 C2785 C -0.10660 0.42012 0.50545
 C2786 C -0.13295 0.43426 0.51072
 C2787 C -0.14588 0.41839 0.48961
 C2788 C -0.11964 0.40415 0.48432
 C2789 C -0.13879 0.44006 0.47035
 C2790 C -0.12568 0.45605 0.49154
 C2791 C -0.09947 0.44185 0.48631
 C2792 C -0.11220 0.42602 0.46512
 H2793 H -0.09318 0.41181 0.51991
 H2794 H -0.14091 0.43796 0.52970
 H2795 H -0.11719 0.38263 0.48148
 H2796 H -0.15226 0.44832 0.45593
 H2797 H -0.12810 0.47757 0.49440
 H2798 H -0.10354 0.42268 0.44634
 C2799 C 0.37820 -0.05003 -0.03220
 C2800 C 0.37431 -0.08002 -0.03647
 C2801 C 0.35531 -0.08109 -0.01392
 C2802 C 0.35889 -0.05133 -0.00974
 C2803 C 0.37837 -0.08731 0.00383
 C2804 C 0.39762 -0.08609 -0.01861
 C2805 C 0.40116 -0.05635 -0.01438
 C2806 C 0.38206 -0.05749 0.00808
 H2807 H 0.37826 -0.03464 -0.04710
 H2808 H 0.37134 -0.08923 -0.05501
 H2809 H 0.34285 -0.03701 -0.00600
 H2810 H 0.37841 -0.10267 0.01876
 H2811 H 0.41367 -0.10040 -0.02231
 H2812 H 0.38509 -0.04821 0.02659
 C2813 C 0.38408 1.06152 0.48728
 C2814 C 0.36159 1.05553 0.50588
 C2815 C 0.35751 1.08536 0.50949
 C2816 C 0.37988 1.09140 0.49097
 C2817 C 0.37718 1.08508 0.53151
 C2818 C 0.38157 1.05503 0.52780
 C2819 C 0.40385 1.06117 0.50921
 C2820 C 0.39983 1.09097 0.51288
 H2821 H 0.38676 1.05180 0.46891
 H2822 H 0.34575 1.04093 0.50291
 H2823 H 0.37914 1.10639 0.47571
 H2824 H 0.37453 1.09470 0.54992
 H2825 H 0.38240 1.04002 0.54302
 H2826 H 0.41571 1.10553 0.51584
 C2827 C -0.11762 0.56337 0.98588
 C2828 C -0.13953 0.55800 1.00527
 C2829 C -0.14384 0.58794 1.00778
 C2830 C -0.12205 0.59336 0.98846
 C2831 C -0.12355 0.58883 1.02926
 C2832 C -0.11896 0.55869 1.02665
 C2833 C -0.09725 0.56420 1.00729
 C2834 C -0.10149 0.59411 1.00984
 H2835 H -0.11532 0.55285 0.96787
 H2836 H -0.15528 0.54311 1.00330
 H2837 H -0.12338 0.60765 0.97264
 H2838 H -0.12574 0.59923 1.04733
 H2839 H -0.11755 0.54438 1.04244
 H2840 H -0.08568 0.60895 1.01180
 C2841 C -0.01821 0.62251 0.53186
 C2842 C -0.02091 0.62619 0.56043
 C2843 C 0.00171 0.64605 0.55947
 C2844 C 0.00443 0.64278 0.53103
 C2845 C 0.02195 0.62406 0.56435
 C2846 C -0.00071 0.60400 0.56525
 C2847 C 0.00202 0.60060 0.53689
 C2848 C 0.02467 0.62034 0.53578
 H2849 H -0.03470 0.62139 0.51832
 H2850 H -0.03962 0.62901 0.57075
 H2851 H 0.00661 0.65890 0.51702
 H2852 H 0.03849 0.62507 0.57784
 H2853 H -0.00284 0.58768 0.57909
 H2854 H 0.04331 0.61741 0.52541
 C2855 C 0.48000 0.11719 0.04421
 C2856 C 0.48916 0.12258 0.07118
 C2857 C 0.50411 0.14686 0.06150
 C2858 C 0.49490 0.14180 0.03459
 C2859 C 0.52903 0.13030 0.05746
 C2860 C 0.51409 0.10579 0.06709
 C2861 C 0.50492 0.10067 0.04025
 C2862 C 0.51984 0.12479 0.03037
 H2863 H 0.45989 0.11129 0.03862
 H2864 H 0.47645 0.12201 0.08807
 H2865 H 0.48695 0.15669 0.02124
 H2866 H 0.54914 0.13616 0.06306
 H2867 H 0.52194 0.09068 0.08031
 H2868 H 0.53248 0.12506 0.01344
 C2869 C -0.03266 0.11511 0.95543
 C2870 C -0.01642 0.13918 0.96389
 C2871 C -0.01207 0.14651 0.93625
 C2872 C -0.02836 0.12285 0.92764
 C2873 C 0.01328 0.13002 0.93540
 C2874 C 0.00897 0.12244 0.96314
 C2875 C -0.00726 0.09879 0.95451
 C2876 C -0.00294 0.10605 0.92694
 H2877 H -0.05144 0.10834 0.96381
 H2878 H -0.02217 0.15274 0.97914
 H2879 H -0.04381 0.12352 0.91299
 H2880 H 0.03213 0.13661 0.92705
 H2881 H 0.02444 0.12193 0.97778
 H2882 H 0.00267 0.09198 0.91204
 C2883 C 0.47108 0.61810 0.46142
 C2884 C 0.48924 0.64137 0.46832
 C2885 C 0.49198 0.64793 0.44032
 C2886 C 0.47378 0.62508 0.43332
 C2887 C 0.51625 0.63001 0.43818
 C2888 C 0.51355 0.62309 0.46630
 C2889 C 0.49538 0.60032 0.45917
 C2890 C 0.49810 0.60691 0.43126
 H2891 H 0.45259 0.61260 0.47112
 H2892 H 0.48546 0.65566 0.48353
 H2893 H 0.45735 0.62630 0.41971
 H2894 H 0.53478 0.63536 0.42849
 H2895 H 0.52995 0.62180 0.47994
 H2896 H 0.50180 0.59234 0.41627
 C2897 C 0.51250 0.87859 0.46864
 C2898 C 0.48809 0.86594 0.45659
 C2899 C 0.50566 0.85536 0.43560
 C2900 C 0.53015 0.86767 0.44750
 C2901 C 0.50086 0.88033 0.41969
 C2902 C 0.48323 0.89110 0.44080
 C2903 C 0.50755 0.90344 0.45272
 C2904 C 0.52526 0.89307 0.43176
 H2905 H 0.51731 0.87842 0.48891
 H2906 H 0.47286 0.85441 0.46668
 H2907 H 0.54951 0.85796 0.45028
 H2908 H 0.49605 0.88064 0.39942
 H2909 H 0.46402 0.90119 0.43815
 H2910 H 0.54047 0.90470 0.42175
 C2911 C -0.01994 0.38984 0.94666
 C2912 C -0.00193 0.37789 0.92646
 C2913 C 0.00214 0.35361 0.94350
 C2914 C -0.01582 0.36536 0.96359
 C2915 C 0.02650 0.36616 0.95539
 C2916 C 0.02234 0.39082 0.93849
 C2917 C 0.00428 0.40242 0.95855
 C2918 C 0.00849 0.37829 0.97565
 H2919 H -0.03891 0.40007 0.94314
 H2920 H -0.00623 0.37734 0.90610
 H2921 H -0.03143 0.35448 0.97380
 H2922 H 0.04565 0.35634 0.95906
 H2923 H 0.03795 0.40176 0.92834
 H2924 H 0.01281 0.37907 0.99600
 C2925 C 0.47058 0.38721 0.06972
 C2926 C 0.46448 0.36070 0.05675
 C2927 C 0.48789 0.34816 0.07063
 C2928 C 0.49389 0.37428 0.08375
 C2929 C 0.50650 0.35524 0.04899
 C2930 C 0.48317 0.36817 0.03493
 C2931 C 0.48931 0.39413 0.04816
 C2932 C 0.51256 0.38152 0.06202
 H2933 H 0.45586 0.40079 0.07799
 H2934 H 0.44465 0.35201 0.05467
 H2935 H 0.49825 0.37645 0.10399
 H2936 H 0.52122 0.34171 0.04066
 H2937 H 0.47883 0.36621 0.01467
 H2938 H 0.53229 0.39048 0.06399
 C2939 C -0.02436 0.88530 0.56805
 C2940 C -0.03062 0.85883 0.55514
 C2941 C -0.00729 0.84616 0.56907
 C2942 C -0.00112 0.87227 0.58212
 C2943 C 0.01138 0.85304 0.54743
 C2944 C -0.01187 0.86608 0.53333
 C2945 C -0.00559 0.89204 0.54647
 C2946 C 0.01760 0.87936 0.56037
 H2947 H -0.03900 0.89898 0.57630
 H2948 H -0.05053 0.85036 0.55302
 H2949 H 0.00324 0.87445 0.60236
 H2950 H 0.02601 0.83937 0.53915
 H2951 H -0.01623 0.86409 0.51307
 H2952 H 0.03737 0.88822 0.56231
 C2953 C 0.23756 0.28221 0.13349
 C2954 C 0.24427 0.31049 0.12496
 C2955 C 0.25908 0.29930 0.10228
 C2956 C 0.25236 0.27093 0.11059
 C2957 C 0.28478 0.29819 0.11747
 C2958 C 0.26992 0.30943 0.14026
 C2959 C 0.26317 0.28118 0.14879
 C2960 C 0.27808 0.26969 0.12630
 H2961 H 0.21805 0.27553 0.14023
 H2962 H 0.23023 0.32729 0.12448
 H2963 H 0.24498 0.25501 0.09838
 H2964 H 0.30425 0.30492 0.11068
 H2965 H 0.27725 0.32533 0.15255
 H2966 H 0.29206 0.25286 0.12709
 C2967 C 0.78022 0.77111 0.62586
 C2968 C 0.75449 0.77183 0.61018
 C2969 C 0.76078 0.80023 0.60163
 C2970 C 0.78651 0.79963 0.61681
 C2971 C 0.74582 0.81141 0.62423
 C2972 C 0.73953 0.78310 0.63299
 C2973 C 0.76517 0.78259 0.64828
 C2974 C 0.77150 0.81086 0.63953
 H2975 H 0.79444 0.75449 0.62677
 H2976 H 0.74733 0.75570 0.59810
 H2977 H 0.80587 0.80658 0.60995
 H2978 H 0.73154 0.82800 0.62362
 H2979 H 0.72013 0.77620 0.63981
 H2980 H 0.77861 0.82697 0.65168
 C2981 C 0.23292 0.69354 0.63523
 C2982 C 0.21686 0.70425 0.61277
 C2983 C 0.24169 0.70260 0.59635
 C2984 C 0.25769 0.69192 0.61870
 C2985 C 0.24897 0.73113 0.60316
 C2986 C 0.22416 0.73292 0.62006
 C2987 C 0.24026 0.72196 0.64222
 C2988 C 0.26499 0.72038 0.62572
 H2989 H 0.22622 0.67804 0.64854
 H2990 H 0.19701 0.69747 0.60727
 H2991 H 0.27159 0.67501 0.61818
 H2992 H 0.25572 0.74671 0.58996
 H2993 H 0.21032 0.74985 0.62086
 H2994 H 0.28486 0.72712 0.63120
 C2995 C 0.73431 0.19405 0.13544
 C2996 C 0.71854 0.20430 0.11262
 C2997 C 0.74362 0.20247 0.09657
 C2998 C 0.75933 0.19227 0.11929
 C2999 C 0.75066 0.23116 0.10303
 C3000 C 0.72559 0.23313 0.11958
 C3001 C 0.74140 0.22264 0.14213
 C3002 C 0.76638 0.22088 0.12597
 H3003 H 0.72748 0.17872 0.14887
 H3004 H 0.69881 0.19731 0.10696
 H3005 H 0.77333 0.17543 0.11926
 H3006 H 0.75753 0.24653 0.08967
 H3007 H 0.71165 0.25001 0.11992
 H3008 H 0.78615 0.22782 0.13159
 C3009 C 0.77439 0.24163 0.87858
 C3010 C 0.74901 0.23136 0.89153
 C3011 C 0.76382 0.20641 0.90030
 C3012 C 0.78928 0.21650 0.88784
 C3013 C 0.75620 0.19209 0.87611
 C3014 C 0.74133 0.21700 0.86727
 C3015 C 0.76664 0.22703 0.85457
 C3016 C 0.78151 0.20217 0.86343
 H3017 H 0.78195 0.26208 0.87941
 H3018 H 0.73550 0.24328 0.90322
 H3019 H 0.80919 0.21628 0.89625
 H3020 H 0.74863 0.17164 0.87499
 H3021 H 0.72144 0.21723 0.85877
 H3022 H 0.79500 0.19021 0.85176
 C3023 C 0.26972 0.74501 0.37784
 C3024 C 0.24465 0.73403 0.39081
 C3025 C 0.26016 0.70949 0.39953
 C3026 C 0.28530 0.72029 0.38705
 C3027 C 0.25290 0.69499 0.37534
 C3028 C 0.23733 0.71948 0.36654
 C3029 C 0.26233 0.73022 0.35382
 C3030 C 0.27790 0.70578 0.36265
 H3031 H 0.27671 0.76567 0.37867
 H3032 H 0.23084 0.74556 0.40254
 H3033 H 0.30523 0.72062 0.39544
 H3034 H 0.24590 0.67434 0.37421
 H3035 H 0.21743 0.71917 0.35807
 H3036 H 0.29170 0.69420 0.35094
 C3037 C 0.72523 0.75919 0.38029
 C3038 C 0.75106 0.76826 0.39306
 C3039 C 0.73697 0.79315 0.40258
 C3040 C 0.71109 0.78424 0.39028
 C3041 C 0.74458 0.80834 0.37860
 C3042 C 0.75872 0.78347 0.36899
 C3043 C 0.73297 0.77462 0.35650
 C3044 C 0.71884 0.79943 0.36609
 H3045 H 0.71719 0.73889 0.38078
 H3046 H 0.76443 0.75551 0.40430
 H3047 H 0.69131 0.78456 0.39898
 H3048 H 0.75262 0.82864 0.37783
 H3049 H 0.77845 0.78313 0.36016
 H3050 H 0.70549 0.81221 0.35486
 C3051 C 0.22520 0.25822 0.88212
 C3052 C 0.25074 0.26762 0.89519
 C3053 C 0.23629 0.29246 0.90431
 C3054 C 0.21068 0.28323 0.89172
 C3055 C 0.24415 0.30753 0.88035
 C3056 C 0.25866 0.28272 0.87113
 C3057 C 0.23320 0.27355 0.85834
 C3058 C 0.21869 0.29830 0.86755
 H3059 H 0.21734 0.23786 0.88261
 H3060 H 0.26404 0.25509 0.90672
 H3061 H 0.19077 0.28345 0.90015
 H3062 H 0.25201 0.32790 0.87955
 H3063 H 0.27853 0.28248 0.86258
 H3064 H 0.20540 0.31086 0.85603
 C3065 C 0.79313 0.38162 0.75760
 C3066 C 0.81007 0.39327 0.77892
 C3067 C 0.83126 0.40082 0.75950
 C3068 C 0.81442 0.38939 0.73829
 C3069 C 0.84491 0.37389 0.76340
 C3070 C 0.82354 0.36597 0.78278
 C3071 C 0.80676 0.35472 0.76145
 C3072 C 0.82798 0.36235 0.74216
 H3073 H 0.77168 0.38472 0.75524
 H3074 H 0.80246 0.40594 0.79413
 H3075 H 0.81063 0.39902 0.71989
 H3076 H 0.86635 0.37077 0.76573
 H3077 H 0.82725 0.35618 0.80112
 H3078 H 0.83541 0.34951 0.72697
 C3079 C 0.29985 0.87933 0.27917
 C3080 C 0.33001 0.88339 0.27740
 C3081 C 0.32616 0.90260 0.25683
 C3082 C 0.29732 0.90032 0.25802
 C3083 C 0.32845 0.88218 0.23754
 C3084 C 0.33190 0.86083 0.25811
 C3085 C 0.30178 0.85739 0.25937
 C3086 C 0.29847 0.87833 0.23825
 H3087 H 0.28832 0.87891 0.29680
 H3088 H 0.34353 0.88657 0.29339
 H3089 H 0.28298 0.91684 0.25783
 H3090 H 0.34053 0.88427 0.22032
 H3091 H 0.34700 0.84498 0.25821
 H3092 H 0.28558 0.87723 0.22154
 C3093 C 0.20078 0.87187 0.71793
 C3094 C 0.17054 0.87488 0.71470
 C3095 C 0.16948 0.89248 0.73814
 C3096 C 0.19943 0.88986 0.74125
 C3097 C 0.16520 0.86797 0.75491
 C3098 C 0.16642 0.85014 0.73158
 C3099 C 0.19635 0.84753 0.73484
 C3100 C 0.19516 0.86537 0.75813
 H3101 H 0.21544 0.87337 0.70261
 H3102 H 0.16024 0.87893 0.69676
 H3103 H 0.21306 0.90626 0.74540
 H3104 H 0.15078 0.86538 0.77029
 H3105 H 0.15282 0.83370 0.72746
 H3106 H 0.20526 0.86186 0.77629
 C3107 C 0.70084 0.37222 0.21850
 C3108 C 0.67057 0.37491 0.21538
 C3109 C 0.66940 0.39245 0.23886
 C3110 C 0.69939 0.39013 0.24187
 C3111 C 0.66543 0.36786 0.25560
 C3112 C 0.66676 0.35009 0.23223
 C3113 C 0.69673 0.34779 0.23537
 C3114 C 0.69543 0.36556 0.25871
 H3115 H 0.71542 0.37391 0.20314
 H3116 H 0.66015 0.37890 0.19749
 H3117 H 0.71286 0.40667 0.24601
 H3118 H 0.65108 0.36512 0.27102
 H3119 H 0.65333 0.33352 0.22811
 H3120 H 0.70564 0.36210 0.27682
 C3121 C 0.69392 0.62691 0.28142
 C3122 C 0.66409 0.62150 0.28490
 C3123 C 0.66477 0.60294 0.26215
 C3124 C 0.69436 0.60802 0.25875
 C3125 C 0.65813 0.62622 0.24454
 C3126 C 0.65762 0.64509 0.26718
 C3127 C 0.68719 0.65009 0.26372
 C3128 C 0.68773 0.63133 0.24107
 H3129 H 0.70864 0.62735 0.29672
 H3130 H 0.65425 0.61722 0.30302
 H3131 H 0.70994 0.59317 0.25515
 H3132 H 0.64345 0.62591 0.22919
 H3133 H 0.64253 0.66045 0.27074
 H3134 H 0.69740 0.63507 0.22276
 C3135 C 0.17277 0.13680 0.78704
 C3136 C 0.14914 0.13059 0.76972
 C3137 C 0.16228 0.10427 0.76234
 C3138 C 0.18569 0.11013 0.77971
 C3139 C 0.17632 0.11794 0.74030
 C3140 C 0.16330 0.14435 0.74761
 C3141 C 0.18674 0.15029 0.76487
 C3142 C 0.19983 0.12400 0.75757
 H3143 H 0.17139 0.14469 0.80631
 H3144 H 0.12826 0.13379 0.77480
 H3145 H 0.19491 0.09583 0.79291
 H3146 H 0.17777 0.11019 0.72098
 H3147 H 0.15404 0.15858 0.73436
 H3148 H 0.22084 0.12137 0.75261
 C3149 C 0.32655 0.14876 0.26262
 C3150 C 0.31343 0.12171 0.26717
 C3151 C 0.32971 0.11011 0.24554
 C3152 C 0.34292 0.13705 0.24098
 C3153 C 0.30786 0.11746 0.22670
 C3154 C 0.29145 0.12926 0.24841
 C3155 C 0.30464 0.15613 0.24388
 C3156 C 0.32089 0.14471 0.22219
 H3157 H 0.33431 0.16183 0.27742
 H3158 H 0.31013 0.11277 0.28593
 H3159 H 0.36425 0.14025 0.23804
 H3160 H 0.30014 0.10436 0.21191
 H3161 H 0.27011 0.12614 0.25136
 H3162 H 0.32391 0.15430 0.20366
 C3163 C 0.80234 0.63547 0.72392
 C3164 C 0.83246 0.63214 0.72058
 C3165 C 0.83285 0.61182 0.74231
 C3166 C 0.80293 0.61486 0.74556
 C3167 C 0.83765 0.63399 0.76125
 C3168 C 0.83713 0.65454 0.73961
 C3169 C 0.80724 0.65754 0.74291
 C3170 C 0.80767 0.63718 0.76457
 H3171 H 0.78774 0.63622 0.70851
 H3172 H 0.84256 0.63032 0.70227
 H3173 H 0.78884 0.59843 0.74808
 H3174 H 0.85223 0.63333 0.77669
 H3175 H 0.85117 0.67103 0.73709
 H3176 H 0.79741 0.63917 0.78280
 C3177 C 0.85274 0.75973 0.18028
 C3178 C 0.87867 0.76850 0.19257
 C3179 C 0.89064 0.74307 0.18598
 C3180 C 0.86680 0.73374 0.17339
 C3181 C 0.88358 0.73068 0.21004
 C3182 C 0.86994 0.75655 0.21792
 C3183 C 0.84452 0.74715 0.20537
 C3184 C 0.85778 0.72094 0.19821
 H3185 H 0.84036 0.77191 0.16755
 H3186 H 0.88856 0.78778 0.18980
 H3187 H 0.86677 0.72414 0.15478
 H3188 H 0.89657 0.71839 0.22210
 H3189 H 0.87172 0.76624 0.23639
 H3190 H 0.84941 0.70087 0.20031
 C3191 C 0.35227 0.24573 0.68107
 C3192 C 0.37055 0.26998 0.68135
 C3193 C 0.39326 0.25191 0.68973
 C3194 C 0.37528 0.22771 0.68931
 C3195 C 0.38694 0.25676 0.71743
 C3196 C 0.36383 0.27479 0.70919
 C3197 C 0.34600 0.25054 0.70870
 C3198 C 0.36867 0.23252 0.71713
 H3199 H 0.33757 0.24119 0.66640
 H3200 H 0.37180 0.28542 0.66655
 H3201 H 0.38044 0.20837 0.68102
 H3202 H 0.40114 0.26142 0.73248
 H3203 H 0.35852 0.29408 0.71750
 H3204 H 0.36751 0.21705 0.73192
 C3205 C 0.36119 0.74492 0.81825
 C3206 C 0.37900 0.72025 0.81693
 C3207 C 0.40231 0.73822 0.81054
 C3208 C 0.38471 0.76283 0.81194
 C3209 C 0.39702 0.73563 0.78237
 C3210 C 0.37329 0.71769 0.78864
 C3211 C 0.35584 0.74234 0.79017
 C3212 C 0.37906 0.76028 0.78365
 H3213 H 0.34607 0.74884 0.83274
 H3214 H 0.37935 0.70367 0.83063
 H3215 H 0.38984 0.78134 0.82169
 H3216 H 0.41195 0.73163 0.76774
 H3217 H 0.36797 0.69924 0.77886
 H3218 H 0.37861 0.77681 0.76989
 C3219 C 0.87198 0.26858 0.29731
 C3220 C 0.87827 0.25680 0.32335
 C3221 C 0.90248 0.24312 0.31211
 C3222 C 0.89651 0.25495 0.28615
 C3223 C 0.88639 0.21841 0.30632
 C3224 C 0.86193 0.23207 0.31748
 C3225 C 0.85594 0.24387 0.29158
 C3226 C 0.87999 0.23023 0.28017
 H3227 H 0.86553 0.28916 0.29347
 H3228 H 0.87793 0.26779 0.34123
 H3229 H 0.91077 0.26441 0.27322
 H3230 H 0.89278 0.19782 0.31014
 H3231 H 0.84739 0.22273 0.33021
 H3232 H 0.88007 0.21929 0.26227
 C3233 C 0.13784 0.24220 0.31193
 C3234 C 0.12933 0.25946 0.33414
 C3235 C 0.10342 0.26535 0.32043
 C3236 C 0.11180 0.24816 0.29828
 C3237 C 0.11522 0.29000 0.30796
 C3238 C 0.14155 0.28401 0.32152
 C3239 C 0.14976 0.26666 0.29945
 C3240 C 0.12402 0.27272 0.28563
 H3241 H 0.14752 0.22259 0.31340
 H3242 H 0.13117 0.25401 0.35424
 H3243 H 0.09920 0.23344 0.28889
 H3244 H 0.10569 0.30967 0.30643
 H3245 H 0.15425 0.29872 0.33081
 H3246 H 0.12242 0.27816 0.26551
 C3247 C 0.64155 0.78502 0.81831
 C3248 C 0.61545 0.78901 0.80373
 C3249 C 0.60418 0.76479 0.81739
 C3250 C 0.62985 0.76090 0.83212
 C3251 C 0.61391 0.74645 0.79664
 C3252 C 0.62557 0.77058 0.78281
 C3253 C 0.65108 0.76651 0.79762
 C3254 C 0.63971 0.74248 0.81129
 H3255 H 0.65340 0.80083 0.82695
 H3256 H 0.60525 0.80816 0.80072
 H3257 H 0.63125 0.75692 0.85255
 H3258 H 0.60217 0.73061 0.78789
 H3259 H 0.62439 0.77456 0.76237
 H3260 H 0.65009 0.72341 0.81424
 C3261 C 0.63765 0.23148 0.68984
 C3262 C 0.61316 0.22585 0.70619
 C3263 C 0.59921 0.24947 0.69370
 C3264 C 0.62337 0.25501 0.67722
 C3265 C 0.60927 0.26822 0.71388
 C3266 C 0.62359 0.24466 0.72653
 C3267 C 0.64758 0.25030 0.70998
 C3268 C 0.63366 0.27381 0.69752
 H3269 H 0.64975 0.21647 0.68012
 H3270 H 0.60477 0.20604 0.70986
 H3271 H 0.62289 0.25924 0.65679
 H3272 H 0.59718 0.28322 0.72364
 H3273 H 0.62427 0.24041 0.74694
 H3274 H 0.64259 0.29343 0.69405
 C3275 C 0.13566 0.72991 0.18649
 C3276 C 0.11247 0.72024 0.20292
 C3277 C 0.09608 0.74391 0.19368
 C3278 C 0.11890 0.75346 0.17709
 C3279 C 0.10558 0.76088 0.21547
 C3280 C 0.12234 0.73731 0.22488
 C3281 C 0.14497 0.74701 0.20824
 C3282 C 0.12857 0.77051 0.19898
 H3283 H 0.14848 0.71733 0.17472
 H3284 H 0.10571 0.69953 0.20465
 H3285 H 0.11709 0.76007 0.15730
 H3286 H 0.09284 0.77347 0.22731
 H3287 H 0.12436 0.73070 0.24466
 H3288 H 0.13565 0.79112 0.19739
   
