data_POSCAR
  _audit_creation_date              2014-09-24
  _audit_creation_method            'ToBaCCo'
  _symmetry_space_group_name_H-M    'P1'
  _symmetry_Int_Tables_number       1
  _symmetry_cell_setting            triclinic
  loop_
  _symmetry_equiv_pos_as_xyz
 x,y,z
_cell_length_a 43.9920
_cell_length_b 43.6694
_cell_length_c 38.1371
_cell_angle_alpha 89.971000
_cell_angle_beta 88.893000
_cell_angle_gamma 87.667600
loop_
  _atom_site_label
  _atom_site_type_symbol
  _atom_site_fract_x
  _atom_site_fract_y
  _atom_site_fract_z
C1 C 0.39914 0.02659 0.28447
 H2 H 0.40327 0.03145 0.25704
 C3 C 0.41890 0.03729 0.30944
 H4 H 0.43875 0.04946 0.30111
 C5 C 0.36823 0.00507 0.32887
 H6 H 0.34807 -0.00686 0.33635
 C7 C 0.38701 0.01595 0.35478
 H8 H 0.38192 0.01114 0.38209
 N9 N 0.37530 0.00941 0.29438
 C10 C 0.35574 -0.02951 0.19208
 H11 H 0.33119 -0.02692 0.19324
 C12 C 0.37033 -0.04052 0.16153
 H13 H 0.35658 -0.04653 0.13954
 C14 C 0.40303 -0.02546 0.21982
 H15 H 0.41576 -0.02050 0.24289
 C16 C 0.41865 -0.03545 0.18935
 H17 H 0.44327 -0.03635 0.18910
 Zn18 Zn 0.34948 -0.00463 0.25911
 N19 N 0.37219 -0.02122 0.22006
 C20 C 0.34114 0.05163 0.22558
 N21 N 0.32646 0.03096 0.24569
 C22 C 0.29948 0.03863 0.26205
 C23 C 0.28660 0.06831 0.25906
 C24 C 0.32950 0.08175 0.22264
 C25 C 0.33735 -0.05856 0.29654
 C26 C 0.32220 -0.08540 0.30388
 C27 C 0.28141 -0.06693 0.26721
 C28 C 0.29728 -0.04032 0.26102
 N29 N 0.32478 -0.03661 0.27552
 H30 H 0.36303 0.04529 0.21374
 H31 H 0.28877 0.02235 0.27915
 H32 H 0.26523 0.07376 0.27259
 H33 H 0.34288 0.09810 0.20847
 H34 H 0.35984 -0.05581 0.30675
 H35 H 0.33344 -0.10125 0.32152
 H36 H 0.26077 -0.06879 0.25274
 H37 H 0.28836 -0.02344 0.24275
 C38 C 0.40234 -0.04218 0.15914
 C39 C 0.41312 0.03150 0.34499
 C40 C 0.29393 -0.09104 0.28823
 C41 C 0.30223 0.09082 0.24033
 C42 C 0.11584 0.03882 0.70244
 H43 H 0.11089 0.04779 0.72846
 C44 C 0.09907 0.04984 0.67398
 H45 H 0.08099 0.06708 0.67822
 C46 C 0.14469 0.00460 0.66543
 H47 H 0.16239 -0.01311 0.66221
 C48 C 0.12892 0.01531 0.63623
 H49 H 0.13413 0.00503 0.61086
 N50 N 0.13715 0.01562 0.69791
 C51 C 0.13862 -0.02765 0.80069
 H52 H 0.16302 -0.03069 0.80304
 C53 C 0.11957 -0.03469 0.82889
 H54 H 0.12947 -0.04288 0.85312
 C55 C 0.09622 -0.01161 0.76690
 H56 H 0.08721 -0.00255 0.74272
 C57 C 0.07624 -0.01835 0.79463
 H58 H 0.05206 -0.01343 0.79199
 Zn59 Zn 0.15617 -0.00172 0.73778
 N60 N 0.12687 -0.01496 0.77109
 C61 C 0.16944 0.04250 0.78840
 N62 N 0.17953 0.02884 0.75804
 C63 C 0.20358 0.03959 0.73951
 C64 C 0.21774 0.06584 0.75069
 C65 C 0.18264 0.06900 0.80022
 C66 C 0.16401 -0.05995 0.71164
 C67 C 0.17740 -0.08914 0.70759
 C68 C 0.22419 -0.07042 0.73008
 C69 C 0.20983 -0.04135 0.73369
 N70 N 0.18002 -0.03699 0.72531
 H71 H 0.14974 0.03422 0.80219
 H72 H 0.21060 0.02881 0.71497
 H73 H 0.23551 0.07538 0.73450
 H74 H 0.17297 0.08096 0.82294
 H75 H 0.14022 -0.05592 0.70581
 H76 H 0.16381 -0.10762 0.69861
 H77 H 0.24723 -0.07431 0.73908
 H78 H 0.22187 -0.02296 0.74535
 C79 C 0.08808 -0.02881 0.82656
 C80 C 0.10512 0.03748 0.64049
 C81 C 0.20744 -0.09484 0.71812
 C82 C 0.20652 0.08134 0.78073
 C83 C 0.60345 0.52648 0.19820
 H84 H 0.60136 0.53579 0.22446
 C85 C 0.58354 0.53698 0.17231
 H86 H 0.56572 0.55399 0.17876
 C87 C 0.62903 0.49270 0.15778
 H88 H 0.64697 0.47570 0.15211
 C89 C 0.61018 0.50307 0.13096
 H90 H 0.61315 0.49321 0.10499
 N91 N 0.62482 0.50383 0.19087
 C92 C 0.64288 0.46479 0.29440
 H93 H 0.66745 0.46255 0.29273
 C94 C 0.62768 0.45722 0.32549
 H95 H 0.64080 0.44935 0.34773
 C96 C 0.59613 0.47808 0.26753
 H97 H 0.58378 0.48585 0.24481
 C98 C 0.57998 0.47088 0.29820
 H99 H 0.55548 0.47438 0.29903
 Zn100 Zn 0.65040 0.48924 0.22706
 N101 N 0.62712 0.47631 0.26670
 C102 C 0.67699 0.53299 0.27174
 N103 N 0.67499 0.52208 0.23852
 C104 C 0.68787 0.53667 0.21086
 C105 C 0.70201 0.56432 0.21571
 C106 C 0.69166 0.56019 0.27793
 C107 C 0.65871 0.43048 0.20119
 C108 C 0.67351 0.40202 0.19631
 C109 C 0.72078 0.42419 0.21223
 C110 C 0.70506 0.45258 0.21623
 N111 N 0.67440 0.45481 0.21190
 H112 H 0.66636 0.52127 0.29338
 H113 H 0.68561 0.52766 0.18466
 H114 H 0.71014 0.57640 0.19282
 H115 H 0.69283 0.56845 0.30459
 H116 H 0.63430 0.43284 0.19846
 H117 H 0.66031 0.38252 0.18963
 H118 H 0.74465 0.42202 0.21863
 H119 H 0.71691 0.47220 0.22533
 C120 C 0.59586 0.46137 0.32815
 C121 C 0.58670 0.52495 0.13833
 C122 C 0.70459 0.39828 0.20365
 C123 C 0.70353 0.57689 0.24956
 C124 C 0.90228 0.52376 0.79316
 H125 H 0.91588 0.52178 0.76940
 C126 C 0.91543 0.53479 0.82356
 H127 H 0.93958 0.53840 0.82273
 C128 C 0.85427 0.52269 0.82170
 H129 H 0.83016 0.51896 0.82037
 C130 C 0.86619 0.53409 0.85236
 H131 H 0.85049 0.53924 0.87390
 N132 N 0.87261 0.51610 0.79348
 C133 C 0.86404 0.48600 0.68527
 H134 H 0.84039 0.49321 0.68322
 C135 C 0.88034 0.47693 0.65525
 H136 H 0.86846 0.47649 0.63067
 C137 C 0.90758 0.47731 0.71984
 H138 H 0.91776 0.47579 0.74532
 C139 C 0.92538 0.46988 0.68985
 H140 H 0.94951 0.46482 0.69251
 Zn141 Zn 0.85179 0.50192 0.75386
 N142 N 0.87792 0.48710 0.71667
 C143 C 0.84680 0.56081 0.72801
 N144 N 0.82958 0.53727 0.73869
 C145 C 0.79899 0.54119 0.74375
 C146 C 0.78484 0.57023 0.73973
 C147 C 0.83366 0.59017 0.72395
 C148 C 0.82892 0.45385 0.79668
 C149 C 0.81290 0.42726 0.80285
 C150 C 0.79026 0.43347 0.74606
 C151 C 0.80616 0.46021 0.74134
 N152 N 0.82566 0.46953 0.76604
 H153 H 0.87117 0.55712 0.72487
 H154 H 0.78583 0.52233 0.75299
 H155 H 0.76062 0.57314 0.74495
 H156 H 0.84828 0.60886 0.71776
 H157 H 0.84491 0.46111 0.81582
 H158 H 0.81618 0.41514 0.82732
 H159 H 0.77652 0.42581 0.72481
 H160 H 0.80369 0.47291 0.71722
 C161 C 0.91196 0.47100 0.65671
 C162 C 0.89769 0.53876 0.85463
 C163 C 0.79393 0.41608 0.77686
 C164 C 0.80242 0.59547 0.73096
 C165 C 0.18808 0.42794 0.95345
 H166 H 0.19673 0.41214 0.93355
 C167 C 0.16046 0.44413 0.94828
 H168 H 0.14845 0.44067 0.92420
 C169 C 0.19344 0.45192 1.00844
 H170 H 0.20664 0.45535 1.03158
 C171 C 0.16570 0.46811 1.00471
 H172 H 0.15749 0.48277 1.02601
 N173 N 0.20328 0.43105 0.98390
 C174 C 0.28757 0.41463 1.03567
 H175 H 0.28101 0.39380 1.04853
 C176 C 0.31541 0.42683 1.04339
 H177 H 0.33001 0.41535 1.06227
 C178 C 0.27806 0.45321 0.99302
 H179 H 0.26387 0.46254 0.97244
 C180 C 0.30581 0.46631 1.00009
 H181 H 0.31302 0.48565 0.98469
 Zn182 Zn 0.23719 0.40450 0.99461
 N183 N 0.26999 0.42731 1.01010
 C184 C 0.27893 0.38436 0.94055
 N185 N 0.25051 0.38125 0.95467
 C186 C 0.23173 0.35999 0.94222
 C187 C 0.24171 0.34003 0.91554
 C188 C 0.28959 0.36525 0.91315
 C189 C 0.23365 0.34643 1.02860
 C190 C 0.23081 0.32719 1.05768
 C191 C 0.21197 0.37080 1.09164
 C192 C 0.21492 0.38913 1.06197
 N193 N 0.22640 0.37701 1.03139
 H194 H 0.29360 0.40129 0.95087
 H195 H 0.20932 0.35786 0.95394
 H196 H 0.22668 0.32285 0.90630
 H197 H 0.31225 0.36774 0.90220
 H198 H 0.24379 0.33716 1.00472
 H199 H 0.23873 0.30342 1.05581
 H200 H 0.20486 0.38122 1.11640
 H201 H 0.20999 0.41339 1.06426
 C202 C 0.32528 0.45229 1.02461
 C203 C 0.14820 0.46360 0.97480
 C204 C 0.22091 0.33970 1.08987
 C205 C 0.27103 0.34239 0.90098
 C206 C 0.78191 0.06637 0.94983
 H207 H 0.77030 0.07703 0.92797
 C208 C 0.81037 0.05117 0.94443
 H209 H 0.82049 0.05033 0.91831
 C210 C 0.78429 0.05717 1.01102
 H211 H 0.77433 0.06024 1.03699
 C212 C 0.81309 0.04338 1.00711
 H213 H 0.82498 0.03556 1.03029
 N214 N 0.77020 0.06996 0.98298
 C215 C 0.68025 0.09642 1.02321
 H216 H 0.68285 0.12091 1.02479
 C217 C 0.65321 0.08394 1.03439
 H218 H 0.63535 0.09921 1.04503
 C219 C 0.70101 0.04719 1.00812
 H220 H 0.71985 0.03308 0.99772
 C221 C 0.67350 0.03381 1.01734
 H222 H 0.67114 0.00954 1.01299
 Zn223 Zn 0.73887 0.09849 0.99616
 N224 N 0.70361 0.07808 1.01070
 C225 C 0.71111 0.11374 0.93206
 N226 N 0.72812 0.12490 0.95821
 C227 C 0.73662 0.15446 0.95779
 C228 C 0.72917 0.17364 0.92968
 C229 C 0.70245 0.13241 0.90377
 C230 C 0.73988 0.11875 1.06658
 C231 C 0.75098 0.13309 1.09590
 C232 C 0.79269 0.15102 1.06056
 C233 C 0.78055 0.13632 1.03152
 N234 N 0.75425 0.12093 1.03486
 H235 H 0.70415 0.09028 0.93323
 H236 H 0.74965 0.16324 0.97893
 H237 H 0.73782 0.19646 0.92947
 H238 H 0.68862 0.12292 0.88365
 H239 H 0.72011 0.10523 1.06975
 H240 H 0.73839 0.13147 1.12046
 H241 H 0.81363 0.16302 1.05753
 H242 H 0.79241 0.13677 1.00642
 C243 C 0.64883 0.05243 1.02997
 C244 C 0.82719 0.04157 0.97373
 C245 C 0.77790 0.14924 1.09343
 C246 C 0.71189 0.16282 0.90188
 C247 C 0.29352 0.55342 0.45507
 H248 H 0.27375 0.54074 0.44925
 C249 C 0.32255 0.53983 0.44885
 H250 H 0.32479 0.51643 0.43948
 C251 C 0.31524 0.59937 0.47319
 H252 H 0.31245 0.62250 0.48311
 C253 C 0.34446 0.58698 0.46677
 H254 H 0.36381 0.60062 0.47240
 N255 N 0.29045 0.58221 0.46877
 C256 C 0.19962 0.59346 0.51873
 H257 H 0.20219 0.61776 0.52247
 C258 C 0.17210 0.58068 0.52762
 H259 H 0.15371 0.59533 0.53825
 C260 C 0.21984 0.54551 0.49840
 H261 H 0.23828 0.53170 0.48708
 C262 C 0.19221 0.53178 0.50637
 H263 H 0.18953 0.50791 0.49990
 Zn264 Zn 0.25358 0.60207 0.48577
 N265 N 0.22238 0.57630 0.50283
 C266 C 0.20988 0.62060 0.43551
 N267 N 0.23692 0.62750 0.44987
 C268 C 0.25259 0.65185 0.43831
 C269 C 0.24093 0.67070 0.41178
 C270 C 0.19778 0.63843 0.40827
 C271 C 0.27870 0.60994 0.55066
 C272 C 0.28709 0.62480 0.58106
 C273 C 0.26692 0.67252 0.55710
 C274 C 0.25875 0.65667 0.52710
 N275 N 0.26453 0.62588 0.52463
 H276 H 0.19808 0.60075 0.44445
 H277 H 0.27429 0.65657 0.44958
 H278 H 0.25393 0.68965 0.40229
 H279 H 0.17690 0.63208 0.39610
 H280 H 0.28300 0.58548 0.54793
 H281 H 0.29748 0.61161 0.60204
 H282 H 0.26097 0.69674 0.55951
 H283 H 0.24691 0.66884 0.50648
 C284 C 0.16751 0.54991 0.51956
 C285 C 0.34844 0.55652 0.45559
 C286 C 0.28072 0.65637 0.58475
 C287 C 0.21335 0.66384 0.39634
 C288 C 0.70980 0.91664 0.45523
 H289 H 0.71602 0.89627 0.44027
 C290 C 0.68142 0.93124 0.45040
 H291 H 0.66601 0.92218 0.43155
 C292 C 0.72013 0.95071 0.50159
 H293 H 0.73464 0.95700 0.52276
 C294 C 0.69206 0.96616 0.49738
 H295 H 0.68497 0.98444 0.51529
 N296 N 0.72821 0.92620 0.48096
 C297 C 0.81888 0.90499 0.51764
 H298 H 0.81551 0.88082 0.52157
 C299 C 0.84568 0.91742 0.52805
 H300 H 0.86268 0.90248 0.54019
 C301 C 0.79994 0.95353 0.49820
 H302 H 0.78190 0.96737 0.48651
 C303 C 0.82751 0.96672 0.50639
 H304 H 0.83084 0.99051 0.49999
 Zn305 Zn 0.76150 0.90090 0.49449
 N306 N 0.79639 0.92305 0.50377
 C307 C 0.77635 0.88234 0.42552
 N308 N 0.77285 0.87216 0.45900
 C309 C 0.77812 0.84216 0.46723
 C310 C 0.78513 0.82071 0.44089
 C311 C 0.78269 0.86160 0.39823
 C312 C 0.76281 0.88888 0.56632
 C313 C 0.75785 0.87302 0.59717
 C314 C 0.72162 0.84263 0.56756
 C315 C 0.72842 0.85843 0.53647
 N316 N 0.74941 0.88054 0.53628
 H317 H 0.77285 0.90649 0.41982
 H318 H 0.77659 0.83475 0.49423
 H319 H 0.78869 0.79686 0.44802
 H320 H 0.78309 0.87002 0.37154
 H321 H 0.77793 0.90769 0.56654
 H322 H 0.77130 0.87905 0.61932
 H323 H 0.70485 0.82522 0.56710
 H324 H 0.71736 0.85271 0.51238
 C325 C 0.85102 0.94834 0.52102
 C326 C 0.67217 0.95575 0.47222
 C327 C 0.73684 0.84952 0.59859
 C328 C 0.78633 0.83012 0.40562
 C329 C 0.02486 0.28977 0.42930
 H330 H 0.03906 0.27107 0.43918
 C331 C 0.02111 0.31687 0.44892
 H332 H 0.03138 0.31757 0.47439
 C333 C -0.00471 0.31129 0.38379
 H334 H -0.01443 0.30923 0.35811
 C335 C -0.00772 0.33911 0.40152
 H336 H -0.01904 0.35790 0.38798
 N337 N 0.01098 0.28707 0.39792
 C338 C 0.01918 0.18846 0.37497
 H339 H 0.02088 0.19075 0.34676
 C340 C 0.02028 0.15942 0.39003
 H341 H 0.02426 0.14013 0.37257
 C342 C 0.01305 0.21165 0.43072
 H343 H 0.00854 0.23184 0.44649
 C344 C 0.01404 0.18287 0.44708
 H345 H 0.01042 0.18208 0.47519
 Zn346 Zn 0.01406 0.25132 0.36917
 N347 N 0.01625 0.21396 0.39524
 C348 C 0.07156 0.23300 0.33829
 N349 N 0.04845 0.25470 0.33874
 C350 C 0.04962 0.28009 0.31810
 C351 C 0.07497 0.28469 0.29638
 C352 C 0.09692 0.23630 0.31629
 C353 C -0.04816 0.25094 0.36084
 C354 C -0.07567 0.24796 0.34401
 C355 C -0.04818 0.24239 0.28877
 C356 C -0.02100 0.24578 0.30676
 N357 N -0.02155 0.24965 0.34222
 H358 H 0.07087 0.21348 0.35558
 H359 H 0.03109 0.29712 0.31904
 H360 H 0.07620 0.30549 0.28104
 H361 H 0.11551 0.21927 0.31686
 H362 H -0.04791 0.25402 0.38898
 H363 H -0.09656 0.24931 0.35951
 H364 H -0.04738 0.23841 0.26075
 H365 H 0.00050 0.24444 0.29253
 C366 C 0.01735 0.15586 0.42677
 C367 C 0.00443 0.34231 0.43526
 C368 C -0.07597 0.24291 0.30759
 C369 C 0.09891 0.26256 0.29541
 C370 C 0.00711 0.71334 0.08405
 H371 H 0.02798 0.72548 0.08139
 C372 C 0.00428 0.68527 0.06699
 H373 H 0.02328 0.67560 0.05163
 C374 C -0.04285 0.71077 0.10802
 H375 H -0.06131 0.72083 0.12378
 C376 C -0.04653 0.68265 0.09173
 H377 H -0.06780 0.67127 0.09526
 N378 N -0.01629 0.72543 0.10415
 C379 C -0.01274 0.82444 0.10568
 H380 H -0.01495 0.82821 0.13366
 C381 C -0.00999 0.84925 0.08316
 H382 H -0.01024 0.87217 0.09406
 C383 C -0.00947 0.78995 0.05767
 H384 H -0.00920 0.76673 0.04790
 C385 C -0.00657 0.81433 0.03401
 H386 H -0.00366 0.80976 0.00621
 Zn387 Zn -0.01257 0.76350 0.12701
 N388 N -0.01162 0.79539 0.09288
 C389 C 0.04462 0.78469 0.14646
 N390 N 0.02418 0.76276 0.15323
 C391 C 0.03049 0.73995 0.17675
 C392 C 0.05808 0.73886 0.19468
 C393 C 0.07238 0.78429 0.16345
 C394 C -0.07091 0.78764 0.14343
 C395 C -0.09919 0.78913 0.16045
 C396 C -0.07869 0.75645 0.20591
 C397 C -0.05065 0.75566 0.18787
 N398 N -0.04747 0.77046 0.15672
 H399 H 0.04000 0.80213 0.12708
 H400 H 0.01466 0.72193 0.18072
 H401 H 0.06322 0.72012 0.21249
 H402 H 0.08857 0.80157 0.15703
 H403 H -0.06819 0.79920 0.11860
 H404 H -0.11657 0.80388 0.14888
 H405 H -0.08023 0.74243 0.22915
 H406 H -0.03196 0.74183 0.19799
 C407 C -0.00595 0.84433 0.04695
 C408 C -0.02275 0.66948 0.07106
 C409 C -0.10440 0.77205 0.19145
 C410 C 0.07954 0.76104 0.18761
 C411 C 0.52040 0.21285 0.57056
 H412 H 0.53799 0.22926 0.56712
 C413 C 0.51952 0.18773 0.54801
 H414 H 0.53639 0.18545 0.52706
 C415 C 0.47675 0.19679 0.60160
 H416 H 0.46030 0.20017 0.62277
 C417 C 0.47550 0.17092 0.58030
 H418 H 0.45832 0.15451 0.58605
 N419 N 0.49873 0.21736 0.59612
 C420 C 0.49621 0.31592 0.61133
 H421 H 0.49490 0.31663 0.63968
 C422 C 0.49809 0.34301 0.59230
 H423 H 0.49784 0.36459 0.60630
 C424 C 0.49810 0.28686 0.55886
 H425 H 0.49767 0.26501 0.54579
 C426 C 0.50018 0.31351 0.53870
 H427 H 0.50216 0.31177 0.51043
 Zn428 Zn 0.49927 0.25327 0.62396
 N429 N 0.49754 0.28846 0.59458
 C430 C 0.55635 0.27414 0.64358
 N431 N 0.53593 0.25217 0.65000
 C432 C 0.54231 0.22886 0.67283
 C433 C 0.57030 0.22699 0.68998
 C434 C 0.58433 0.27319 0.66010
 C435 C 0.43759 0.25876 0.63620
 C436 C 0.40994 0.25830 0.65443
 C437 C 0.43725 0.25342 0.70865
 C438 C 0.46464 0.25383 0.68921
 N439 N 0.46421 0.25563 0.65355
 H440 H 0.55145 0.29209 0.62486
 H441 H 0.52595 0.21135 0.67715
 H442 H 0.57538 0.20788 0.70730
 H443 H 0.60017 0.29095 0.65435
 H444 H 0.43795 0.26059 0.60790
 H445 H 0.38897 0.25990 0.63998
 H446 H 0.43772 0.25076 0.73687
 H447 H 0.48609 0.25192 0.70253
 C448 C 0.50126 0.34194 0.55556
 C449 C 0.49686 0.16617 0.55271
 C450 C 0.40953 0.25480 0.69100
 C451 C 0.59193 0.24913 0.68317
 C452 C 0.52017 0.78726 0.92326
 H453 H 0.54033 0.77232 0.92479
 C454 C 0.51803 0.81447 0.94289
 H455 H 0.53676 0.82046 0.95921
 C456 C 0.47219 0.79873 0.89829
 H457 H 0.45468 0.79324 0.88019
 C458 C 0.46905 0.82585 0.91748
 H459 H 0.44881 0.84047 0.91426
 N460 N 0.49760 0.78015 0.90107
 C461 C 0.50710 0.68235 0.87641
 H462 H 0.50811 0.68411 0.84812
 C463 C 0.50700 0.65362 0.89218
 H464 H 0.50898 0.63352 0.87556
 C465 C 0.50337 0.70677 0.93183
 H466 H 0.50137 0.72764 0.94707
 C467 C 0.50241 0.67827 0.94878
 H468 H 0.49953 0.67762 0.97701
 Zn469 Zn 0.50252 0.74552 0.87060
 N470 N 0.50549 0.70822 0.89620
 C471 C 0.55964 0.72772 0.83850
 N472 N 0.53761 0.75042 0.84165
 C473 C 0.54031 0.77765 0.82471
 C474 C 0.56627 0.78310 0.80427
 C475 C 0.58552 0.73191 0.81760
 C476 C 0.44159 0.73689 0.85970
 C477 C 0.41489 0.73326 0.84151
 C478 C 0.44265 0.74068 0.78710
 C479 C 0.46898 0.74457 0.80654
 N480 N 0.46788 0.74267 0.84220
 H481 H 0.55770 0.70656 0.85277
 H482 H 0.52261 0.79542 0.82787
 H483 H 0.56882 0.80529 0.79212
 H484 H 0.60328 0.71401 0.81618
 H485 H 0.44142 0.73524 0.88801
 H486 H 0.39416 0.72953 0.85637
 H487 H 0.44395 0.74176 0.75876
 H488 H 0.49028 0.74864 0.79309
 C489 C 0.50376 0.65112 0.92882
 C490 C 0.49248 0.83455 0.93941
 C491 C 0.41515 0.73464 0.80464
 C492 C 0.58918 0.76000 0.80065
 C493 C -0.22777 0.61657 0.95493
 H494 H -0.21175 0.59944 0.96486
 C495 C -0.21824 0.63709 0.92910
 H496 H -0.19501 0.63540 0.91917
 C497 C -0.27710 0.64048 0.95660
 H498 H -0.29989 0.64192 0.96783
 C499 C -0.26854 0.66144 0.93107
 H500 H -0.28524 0.67846 0.92216
 N501 N -0.25680 0.61865 0.96811
 C502 C -0.30634 0.61409 1.06613
 H503 H -0.31793 0.59292 1.06394
 C504 C -0.31411 0.63401 1.09393
 H505 H -0.33202 0.62761 1.11197
 C506 C -0.26965 0.64785 1.04476
 H507 H -0.25163 0.65277 1.02619
 C508 C -0.27693 0.66856 1.07165
 H509 H -0.26340 0.68861 1.07313
 Zn510 Zn -0.26979 0.59390 1.00616
 N511 N -0.28405 0.62104 1.04256
 C512 C -0.22179 0.57934 1.05157
 N513 N -0.23607 0.56994 1.02237
 C514 C -0.22433 0.54629 1.00249
 C515 C -0.19594 0.53261 1.01029
 C516 C -0.19327 0.56661 1.06001
 C517 C -0.31409 0.57181 0.96005
 C518 C -0.34008 0.55608 0.95184
 C519 C -0.33824 0.53231 1.00898
 C520 C -0.31208 0.54813 1.01584
 N521 N -0.30136 0.56847 0.99215
 H522 H -0.23144 0.59818 1.06700
 H523 H -0.23605 0.53945 0.97926
 H524 H -0.18572 0.51541 0.99279
 H525 H -0.18105 0.57592 1.08169
 H526 H -0.30473 0.58736 0.94107
 H527 H -0.35022 0.55964 0.92645
 H528 H -0.34745 0.51797 1.02941
 H529 H -0.30106 0.54520 1.04079
 C530 C -0.29912 0.66179 1.09750
 C531 C -0.23867 0.66018 0.91721
 C532 C -0.35313 0.53674 0.97691
 C533 C -0.17967 0.54370 1.03855
 C534 C -0.20316 0.35056 0.53781
 H535 H -0.19426 0.34330 0.51239
 C536 C -0.19560 0.33446 0.56651
 H537 H -0.18059 0.31431 0.56371
 C538 C -0.23104 0.38864 0.57123
 H539 H -0.24518 0.40943 0.57300
 C540 C -0.22219 0.37248 0.60363
 H541 H -0.23158 0.38154 0.62811
 N542 N -0.22303 0.37746 0.54066
 C543 C -0.25728 0.38760 0.43366
 H544 H -0.25864 0.41238 0.43299
 C545 C -0.26586 0.37094 0.40451
 H546 H -0.27360 0.38324 0.38148
 C547 C -0.24660 0.34181 0.46506
 H548 H -0.24035 0.33042 0.48909
 C549 C -0.25451 0.32417 0.43619
 H550 H -0.25250 0.29943 0.43793
 Zn551 Zn -0.23717 0.39935 0.50062
 N552 N -0.24696 0.37298 0.46284
 C553 C -0.19067 0.42355 0.45660
 N554 N -0.20674 0.42688 0.48733
 C555 C -0.19894 0.44755 0.51191
 C556 C -0.17312 0.46468 0.50695
 C557 C -0.16453 0.44021 0.45063
 C558 C -0.29687 0.40142 0.52037
 C559 C -0.32666 0.41289 0.52392
 C560 C -0.30893 0.46397 0.51459
 C561 C -0.27930 0.45129 0.51040
 N562 N -0.27411 0.42042 0.51252
 H563 H -0.19678 0.40646 0.43780
 H564 H -0.21173 0.44933 0.53638
 H565 H -0.16587 0.47930 0.52788
 H566 H -0.15049 0.43559 0.42745
 H567 H -0.29195 0.37701 0.52224
 H568 H -0.34427 0.39690 0.52964
 H569 H -0.31269 0.48838 0.51074
 H570 H -0.26084 0.46596 0.50376
 C571 C -0.26364 0.33872 0.40503
 C572 C -0.20628 0.34538 0.60185
 C573 C -0.33345 0.44447 0.51955
 C574 C -0.15515 0.46038 0.47649
 C575 C 0.28456 -0.14161 0.03834
 H576 H 0.29434 -0.14789 0.01297
 C577 C 0.29336 -0.15690 0.06707
 H578 H 0.31051 -0.17529 0.06451
 C579 C 0.25189 -0.10700 0.07125
 H580 H 0.23566 -0.08777 0.07274
 C581 C 0.26167 -0.12238 0.10369
 H582 H 0.25062 -0.11469 0.12789
 N583 N 0.26191 -0.11701 0.04093
 C584 C 0.22704 -0.11225 -0.06491
 H585 H 0.22517 -0.08754 -0.06713
 C586 C 0.22000 -0.13049 -0.09331
 H587 H 0.21311 -0.11963 -0.11760
 C588 C 0.23888 -0.15626 -0.03068
 H589 H 0.24570 -0.16625 -0.00603
 C590 C 0.23232 -0.17548 -0.05871
 H591 H 0.23553 -0.20006 -0.05586
 Zn592 Zn 0.24789 -0.09689 0.00025
 N593 N 0.23743 -0.12524 -0.03484
 C594 C 0.29638 -0.08165 -0.04474
 N595 N 0.27964 -0.07250 -0.01596
 C596 C 0.28858 -0.04948 0.00500
 C597 C 0.31600 -0.03544 -0.00193
 C598 C 0.32423 -0.06864 -0.05220
 C599 C 0.18814 -0.09246 0.01693
 C600 C 0.15852 -0.08039 0.01833
 C601 C 0.17779 -0.02962 0.01139
 C602 C 0.20731 -0.04298 0.00867
 N603 N 0.21165 -0.07399 0.01067
 H604 H 0.28940 -0.10068 -0.06034
 H605 H 0.27546 -0.04348 0.02846
 H606 H 0.32388 -0.01855 0.01622
 H607 H 0.33849 -0.07765 -0.07357
 H608 H 0.19236 -0.11698 0.01876
 H609 H 0.14017 -0.09595 0.02205
 H610 H 0.17455 -0.00510 0.00791
 H611 H 0.22634 -0.02872 0.00328
 C612 C 0.22381 -0.16250 -0.09089
 C613 C 0.28069 -0.14748 0.10213
 C614 C 0.15277 -0.04867 0.01413
 C615 C 0.33455 -0.04585 -0.03008
 C616 C 0.29012 1.12738 0.45472
 H617 H 0.30720 1.11083 0.46354
 C618 C 0.29801 1.14903 0.42947
 H619 H 0.32120 1.14910 0.41948
 C620 C 0.23928 1.14746 0.45696
 H621 H 0.21644 1.14674 0.46790
 C622 C 0.24605 1.16921 0.43163
 H623 H 0.22790 1.18456 0.42263
 N624 N 0.26118 1.12711 0.46805
 C625 C 0.22112 1.10550 0.57024
 H626 H 0.21961 1.08102 0.56925
 C627 C 0.21060 1.12103 0.60031
 H628 H 0.20101 1.10815 0.62182
 C629 C 0.23684 1.15183 0.54479
 H630 H 0.24803 1.16376 0.52372
 C631 C 0.22683 1.16826 0.57453
 H632 H 0.23077 1.19253 0.57598
 Zn633 Zn 0.25040 1.09880 0.50343
 N634 N 0.23418 1.12089 0.54322
 C635 C 0.30780 1.09220 0.53258
 N636 N 0.28606 1.07645 0.51636
 C637 C 0.29133 1.04693 0.50590
 C638 C 0.32005 1.03270 0.50986
 C639 C 0.33696 1.07903 0.53659
 C640 C 0.20693 1.07778 0.45517
 C641 C 0.18125 1.06194 0.44610
 C642 C 0.18586 1.03316 0.49988
 C643 C 0.21167 1.04914 0.50754
 N644 N 0.22065 1.07226 0.48637
 H645 H 0.30304 1.11578 0.54025
 H646 H 0.27383 1.03495 0.49270
 H647 H 0.32403 1.00949 0.50042
 H648 H 0.35447 1.09284 0.54721
 H649 H 0.21505 1.09526 0.43776
 H650 H 0.17013 1.06746 0.42170
 H651 H 0.17797 1.01672 0.51886
 H652 H 0.22394 1.04370 0.53111
 C653 C 0.21414 1.15271 0.60313
 C654 C 0.27583 1.17043 0.41769
 C655 C 0.16950 1.04024 0.46941
 C656 C 0.34371 1.04922 0.52407
 C657 C 0.17462 0.46465 0.28016
 H658 H 0.15826 0.47295 0.29977
 C659 C 0.19138 0.43730 0.28607
 H660 H 0.18790 0.42474 0.31021
 C661 C 0.19641 0.46848 0.22301
 H662 H 0.19737 0.48020 0.19805
 C663 C 0.21329 0.44116 0.22768
 H664 H 0.22713 0.43173 0.20617
 N665 N 0.17690 0.47917 0.24866
 C666 C 0.15287 0.56522 0.19829
 H667 H 0.12964 0.56063 0.19190
 C668 C 0.16466 0.59341 0.18969
 H669 H 0.15042 0.61035 0.17635
 C670 C 0.19876 0.54949 0.22588
 H671 H 0.21139 0.53269 0.24125
 C672 C 0.21135 0.57766 0.21821
 H673 H 0.23360 0.58241 0.22805
 Zn674 Zn 0.14909 0.51083 0.23523
 N675 N 0.16969 0.54428 0.21676
 C676 C 0.14126 0.53389 0.30297
 N677 N 0.12545 0.52604 0.27429
 C678 C 0.09451 0.52925 0.27416
 C679 C 0.07823 0.53661 0.30509
 C680 C 0.12597 0.54164 0.33428
 C681 C 0.13407 0.49601 0.16631
 C682 C 0.11642 0.48481 0.13956
 C683 C 0.08048 0.46804 0.18347
 C684 C 0.09971 0.47822 0.20931
 N685 N 0.12478 0.49381 0.20033
 H686 H 0.16588 0.53252 0.30200
 H687 H 0.08226 0.52529 0.25046
 H688 H 0.05362 0.53657 0.30521
 H689 H 0.13903 0.54605 0.35739
 H690 H 0.15494 0.50718 0.15982
 H691 H 0.12399 0.48906 0.11291
 H692 H 0.06038 0.45636 0.19188
 H693 H 0.09419 0.47423 0.23663
 C694 C 0.19368 0.60048 0.20121
 C695 C 0.21013 0.42490 0.25911
 C696 C 0.08799 0.47211 0.14758
 C697 C 0.09403 0.54143 0.33609
 C698 C -0.15547 1.03525 0.30222
 H699 H -0.13757 1.02592 0.31861
 C700 C -0.16755 1.06497 0.30834
 H701 H -0.15885 1.07855 0.32938
 C702 C -0.18630 1.03054 0.25231
 H703 H -0.19244 1.01749 0.22959
 C704 C -0.19938 1.05980 0.25790
 H705 H -0.21557 1.06930 0.23936
 N706 N -0.16452 1.01904 0.27407
 C707 C -0.15864 0.92305 0.24312
 H708 H -0.13453 0.92071 0.23710
 C709 C -0.17675 0.89780 0.24024
 H710 H -0.16649 0.87601 0.23174
 C711 C -0.20100 0.95392 0.26330
 H712 H -0.21015 0.97563 0.27317
 C713 C -0.21989 0.92896 0.26149
 H714 H -0.24363 0.93170 0.26934
 Zn715 Zn -0.14355 0.98246 0.25949
 N716 N -0.17102 0.95057 0.25382
 C717 C -0.12835 0.95489 0.32193
 N718 N -0.11563 0.96831 0.29340
 C719 C -0.08491 0.97027 0.28983
 C720 C -0.06594 0.96097 0.31725
 C721 C -0.11028 0.94462 0.34940
 C722 C -0.12912 0.97574 0.18748
 C723 C -0.11496 0.98261 0.15572
 C724 C -0.08913 1.02315 0.18424
 C725 C -0.10377 1.01522 0.21573
 N726 N -0.12312 0.99170 0.21682
 H727 H -0.15277 0.95297 0.32375
 H728 H -0.07515 0.98022 0.26648
 H729 H -0.04185 0.96508 0.31540
 H730 H -0.12104 0.93535 0.37266
 H731 H -0.14499 0.95757 0.18845
 H732 H -0.11937 0.96778 0.13390
 H733 H -0.07458 1.04249 0.18441
 H734 H -0.09995 1.02812 0.23934
 C735 C -0.20773 0.90062 0.24951
 C736 C -0.18941 1.07757 0.28562
 C737 C -0.09473 1.00696 0.15314
 C738 C -0.07884 0.94912 0.34808
 C739 C 0.30057 0.52299 -0.23844
 H740 H 0.28566 0.50462 -0.24313
 C741 C 0.28780 0.55234 -0.23115
 H742 H 0.26338 0.55635 -0.23221
 C743 C 0.35015 0.54084 -0.23155
 H744 H 0.37453 0.53647 -0.23252
 C745 C 0.33845 0.57010 -0.22351
 H746 H 0.35405 0.58802 -0.21818
 N747 N 0.33142 0.51838 -0.24090
 C748 C 0.35090 0.42187 -0.27676
 H749 H 0.37505 0.42222 -0.27210
 C750 C 0.33818 0.39529 -0.28324
 H751 H 0.35252 0.37457 -0.28298
 C752 C 0.30398 0.45036 -0.28251
 H753 H 0.29095 0.47165 -0.28392
 C754 C 0.28854 0.42133 -0.28798
 H755 H 0.26421 0.42246 -0.29189
 Zn756 Zn 0.35477 0.48369 -0.25891
 N757 N 0.33273 0.44992 -0.27491
 C758 C 0.36364 0.45309 -0.19607
 N759 N 0.37874 0.46886 -0.22123
 C760 C 0.40871 0.47475 -0.21807
 C761 C 0.42437 0.46541 -0.18807
 C762 C 0.37836 0.44341 -0.16572
 C763 C 0.37100 0.52376 -0.31393
 C764 C 0.38850 0.53441 -0.34207
 C765 C 0.42341 0.49089 -0.33452
 C766 C 0.40500 0.48081 -0.30696
 N767 N 0.37959 0.49751 -0.29679
 H768 H 0.33978 0.44885 -0.19917
 H769 H 0.42014 0.48797 -0.23790
 H770 H 0.44770 0.47180 -0.18500
 H771 H 0.36564 0.43194 -0.14536
 H772 H 0.35030 0.53633 -0.30609
 H773 H 0.38126 0.55520 -0.35556
 H774 H 0.44345 0.47718 -0.34239
 H775 H 0.41110 0.45969 -0.29358
 C776 C 0.30463 0.39433 -0.28730
 C777 C 0.30703 0.57664 -0.22543
 C778 C 0.41521 0.51801 -0.35247
 C779 C 0.40890 0.45027 -0.16102
 C780 C 0.67231 -0.03374 -0.19582
 H781 H 0.66094 -0.02203 -0.17397
 C782 C 0.68785 -0.06048 -0.19068
 H783 H 0.68866 -0.07048 -0.16471
 C784 C 0.68586 -0.03309 -0.25673
 H785 H 0.68449 -0.02269 -0.28243
 C786 C 0.70108 -0.06339 -0.25290
 H787 H 0.71030 -0.07488 -0.27621
 N788 N 0.67054 -0.02075 -0.23052
 C789 C 0.66668 0.06035 -0.28892
 H790 H 0.65003 0.05334 -0.30734
 C791 C 0.68367 0.08597 -0.29655
 H792 H 0.67967 0.09753 -0.32118
 C793 C 0.69328 0.05196 -0.23643
 H794 H 0.69738 0.03826 -0.21329
 C795 C 0.71072 0.07739 -0.24282
 H796 H 0.72662 0.08318 -0.22290
 Zn797 Zn 0.64490 0.01330 -0.24282
 N798 N 0.67060 0.04491 -0.25828
 C799 C 0.63370 0.04075 -0.17596
 N800 N 0.62060 0.02752 -0.20387
 C801 C 0.59001 0.02381 -0.20431
 C802 C 0.57164 0.03218 -0.17535
 C803 C 0.61617 0.04955 -0.14654
 C804 C 0.60008 0.02317 -0.29411
 C805 C 0.58243 0.01599 -0.32271
 C806 C 0.59998 -0.03692 -0.31764
 C807 C 0.61739 -0.02871 -0.28908
 N808 N 0.61829 0.00121 -0.27895
 H809 H 0.65790 0.04353 -0.17576
 H810 H 0.57988 0.01302 -0.22644
 H811 H 0.54774 0.02714 -0.17531
 H812 H 0.62724 0.05877 -0.12395
 H813 H 0.60010 0.04653 -0.28471
 H814 H 0.56956 0.03405 -0.33601
 H815 H 0.60092 -0.06039 -0.32689
 H816 H 0.63063 -0.04626 -0.27566
 C817 C 0.70529 0.09600 -0.27256
 C818 C 0.70126 -0.07738 -0.22142
 C819 C 0.58299 -0.01420 -0.33525
 C820 C 0.58489 0.04433 -0.14556
 C821 C 0.03948 0.27074 0.82844
 H822 H 0.02498 0.29104 0.82472
 C823 C 0.06679 0.26701 0.80911
 H824 H 0.07335 0.28475 0.79096
 C825 C 0.04968 0.22407 0.85846
 H826 H 0.04352 0.20769 0.87831
 C827 C 0.07681 0.21926 0.83950
 H828 H 0.09094 0.19895 0.84474
 N829 N 0.03198 0.24989 0.85344
 C830 C -0.06391 0.27383 0.87614
 H831 H -0.06333 0.27753 0.90401
 C832 C -0.09166 0.27674 0.85928
 H833 H -0.11190 0.28331 0.87452
 C834 C -0.03863 0.25986 0.82282
 H835 H -0.01804 0.25238 0.80889
 C836 C -0.06615 0.26218 0.80487
 H837 H -0.06641 0.25642 0.77727
 Zn838 Zn -0.00220 0.25713 0.88433
 N839 N -0.03808 0.26516 0.85803
 C840 C -0.01452 0.29683 0.94250
 N841 N 0.00463 0.29093 0.91457
 C842 C 0.02748 0.31000 0.90658
 C843 C 0.02995 0.33742 0.92485
 C844 C -0.01256 0.32382 0.96184
 C845 C -0.01741 0.19696 0.89203
 C846 C -0.02202 0.16892 0.90819
 C847 C -0.00875 0.19110 0.96355
 C848 C -0.00375 0.21873 0.94606
 N849 N -0.00836 0.22115 0.91093
 H850 H -0.03198 0.28106 0.94927
 H851 H 0.04301 0.30486 0.88500
 H852 H 0.04693 0.35337 0.91668
 H853 H -0.02906 0.32911 0.98263
 H854 H -0.02044 0.19935 0.86407
 H855 H -0.02797 0.14986 0.89194
 H856 H -0.00538 0.18977 0.99154
 H857 H 0.00413 0.23801 0.96056
 C858 C -0.09328 0.26992 0.82340
 C859 C 0.08632 0.24147 0.81546
 C860 C -0.01808 0.16563 0.94457
 C861 C 0.00916 0.34490 0.95208
 C862 C 0.45426 0.27238 0.17220
 H863 H 0.45657 0.29001 0.15256
 C864 C 0.42875 0.27317 0.19451
 H865 H 0.41148 0.29132 0.19144
 C866 C 0.47306 0.22661 0.19892
 H867 H 0.49034 0.20831 0.20013
 C868 C 0.44762 0.22626 0.22145
 H869 H 0.44545 0.20771 0.24007
 N870 N 0.47536 0.24885 0.17404
 C871 C 0.57149 0.23890 0.14344
 H872 H 0.57016 0.23464 0.11568
 C873 C 0.59993 0.23899 0.15902
 H874 H 0.62010 0.23421 0.14290
 C875 C 0.54705 0.25051 0.19791
 H876 H 0.52642 0.25571 0.21293
 C877 C 0.57518 0.25095 0.21459
 H878 H 0.57585 0.25648 0.24223
 Zn879 Zn 0.50732 0.24599 0.13964
 N880 N 0.54566 0.24466 0.16284
 C881 C 0.52104 0.30547 0.11647
 N882 N 0.50440 0.28067 0.10970
 C883 C 0.48426 0.28088 0.08299
 C884 C 0.47981 0.30706 0.06223
 C885 C 0.51701 0.33220 0.09666
 C886 C 0.48064 0.19054 0.12043
 C887 C 0.47730 0.16379 0.10129
 C888 C 0.51726 0.17909 0.06158
 C889 C 0.52007 0.20561 0.08180
 N890 N 0.50258 0.21034 0.11138
 H891 H 0.53674 0.30483 0.13795
 H892 H 0.47103 0.26097 0.07844
 H893 H 0.46307 0.30735 0.04177
 H894 H 0.52967 0.35216 0.10297
 H895 H 0.46582 0.19504 0.14277
 H896 H 0.46064 0.14765 0.10988
 H897 H 0.53218 0.17488 0.03904
 H898 H 0.53628 0.22232 0.07388
 C899 C 0.60217 0.24558 0.19496
 C900 C 0.42479 0.24948 0.21890
 C901 C 0.49617 0.15750 0.07196
 C902 C 0.49596 0.33322 0.06947
 C903 C -0.03947 0.77061 0.69512
 H904 H -0.02468 0.78973 0.69579
 C905 C -0.06386 0.77036 0.71670
 H906 H -0.06744 0.78925 0.73479
 C907 C -0.04853 0.72109 0.67273
 H908 H -0.04254 0.70183 0.65588
 C909 C -0.07591 0.71987 0.69587
 H910 H -0.08971 0.70016 0.69308
 N911 N -0.03229 0.74536 0.67183
 C912 C 0.06375 0.75677 0.64763
 H913 H 0.06234 0.76049 0.61964
 C914 C 0.09161 0.75848 0.66398
 H915 H 0.11146 0.76273 0.64780
 C916 C 0.03941 0.74517 0.70163
 H917 H 0.01891 0.73989 0.71611
 C918 C 0.06693 0.74739 0.71936
 H919 H 0.06718 0.74415 0.74748
 Zn920 Zn 0.00201 0.74801 0.64017
 N921 N 0.03840 0.74975 0.66632
 C922 C 0.00594 0.81106 0.63064
 N923 N -0.00074 0.78496 0.61355
 C924 C -0.00595 0.78522 0.57843
 C925 C -0.00522 0.81268 0.55937
 C926 C 0.00709 0.83880 0.61268
 C927 C 0.03223 0.69785 0.60572
 C928 C 0.03606 0.67318 0.58277
 C929 C -0.01635 0.68050 0.56621
 C930 C -0.01891 0.70589 0.58881
 N931 N 0.00507 0.71374 0.60859
 H932 H 0.01140 0.81020 0.65813
 H933 H -0.01044 0.76419 0.56497
 H934 H -0.00993 0.81255 0.53162
 H935 H 0.01305 0.85908 0.62692
 H936 H 0.05115 0.70397 0.62140
 H937 H 0.05816 0.66141 0.58093
 H938 H -0.03612 0.67375 0.55213
 H939 H -0.04029 0.71895 0.59117
 C940 C 0.09363 0.75423 0.70049
 C941 C -0.08446 0.74395 0.71672
 C942 C 0.01137 0.66338 0.56343
 C943 C 0.00121 0.84002 0.57659
 C944 C 0.52548 0.73370 0.32168
 H945 H 0.50520 0.72486 0.31075
 C946 C 0.55354 0.72798 0.30437
 H947 H 0.55455 0.71462 0.28043
 C948 C 0.54934 0.76101 0.36643
 H949 H 0.54782 0.77350 0.39090
 C950 C 0.57762 0.75589 0.35009
 H951 H 0.59745 0.76517 0.36190
 N952 N 0.52394 0.74970 0.35241
 C953 C 0.43577 0.78468 0.34744
 H954 H 0.44171 0.80490 0.36162
 C955 C 0.40970 0.78567 0.32695
 H956 H 0.39564 0.80657 0.32582
 C957 C 0.44554 0.73237 0.33315
 H958 H 0.45918 0.71143 0.33630
 C959 C 0.41954 0.73225 0.31282
 H960 H 0.41343 0.71119 0.30024
 Zn961 Zn 0.48751 0.75564 0.37983
 N962 N 0.45300 0.75820 0.35038
 C963 C 0.49721 0.81798 0.38787
 N964 N 0.49102 0.79216 0.40608
 C965 C 0.49039 0.79194 0.44180
 C966 C 0.49690 0.81834 0.46059
 C967 C 0.50362 0.84481 0.40551
 C968 C 0.51099 0.71334 0.42775
 C969 C 0.51284 0.68605 0.44665
 C970 C 0.46039 0.67774 0.43319
 C971 C 0.45954 0.70533 0.41443
 N972 N 0.48502 0.72185 0.41095
 H973 H 0.49790 0.81746 0.35950
 H974 H 0.48563 0.77108 0.45577
 H975 H 0.49707 0.81756 0.48895
 H976 H 0.50823 0.86512 0.39034
 H977 H 0.53080 0.72704 0.42512
 H978 H 0.53421 0.67889 0.45837
 H979 H 0.44058 0.66382 0.43387
 H980 H 0.43889 0.71281 0.40153
 C981 C 0.40106 0.75903 0.30992
 C982 C 0.58013 0.73866 0.31904
 C983 C 0.48771 0.66730 0.44837
 C984 C 0.50418 0.84512 0.44238
 B985 B -0.02852 0.01303 1.01977
 B986 B -0.04309 0.01067 0.97927
 B987 B -0.01733 0.03698 0.98747
 B988 B 0.00854 0.02182 1.01557
 B989 B -0.00154 -0.01458 1.02435
 B990 B -0.03377 -0.02153 1.00178
 B991 B 0.01138 -0.01074 0.95404
 B992 B 0.02598 -0.00800 0.99419
 B993 B 0.00012 -0.03454 0.98649
 B994 B -0.02567 -0.01939 0.95806
 B995 B -0.01553 0.01721 0.94918
 B996 B 0.01658 0.02413 0.97175
 B997 B 0.48750 0.51714 0.52005
 B998 B 0.47356 0.51138 0.47949
 B999 B 0.50152 0.53617 0.48538
 B1000 B 0.52546 0.52185 0.51593
 B1001 B 0.51189 0.48772 0.52916
 B1002 B 0.47945 0.48151 0.50698
 B1003 B 0.52658 0.48309 0.45936
 B1004 B 0.54055 0.48854 0.49941
 B1005 B 0.51240 0.46406 0.49431
 B1006 B 0.48874 0.47831 0.46335
 B1007 B 0.50241 0.51260 0.44997
 B1008 B 0.53469 0.51862 0.47259
 B1009 B 0.52618 0.99064 0.52867
 B1010 B 0.54328 0.99451 0.48923
 B1011 B 0.51582 0.96918 0.49438
 B1012 B 0.48907 0.98411 0.52251
 B1013 B 0.50019 1.01960 0.53440
 B1014 B 0.53407 1.02572 0.51367
 B1015 B 0.49149 1.02007 0.46354
 B1016 B 0.47409 1.01544 0.50304
 B1017 B 0.50161 1.04130 0.49770
 B1018 B 0.52850 1.02630 0.46965
 B1019 B 0.51748 0.99096 0.45787
 B1020 B 0.48360 0.98458 0.47818
 B1021 B 0.00621 0.48941 1.03600
 B1022 B 0.01948 0.50015 0.99609
 B1023 B -0.00664 0.47298 0.99966
 B1024 B -0.03113 0.48242 1.03301
 B1025 B -0.01992 0.51616 1.05004
 B1026 B 0.01172 0.52675 1.02744
 B1027 B -0.03542 0.52629 0.98177
 B1028 B -0.04859 0.51606 1.02160
 B1029 B -0.02227 0.54295 1.01808
 B1030 B 0.00202 0.53338 0.98479
 B1031 B -0.00930 0.49986 0.96773
 B1032 B -0.04087 0.48902 0.99064
 B1033 B 0.02519 0.51870 0.46667
 B1034 B 0.04041 0.51190 0.50616
 B1035 B 0.01250 0.53911 0.50216
 B1036 B -0.01246 0.52718 0.47210
 B1037 B 0.00031 0.49165 0.45832
 B1038 B 0.03326 0.48230 0.47957
 B1039 B -0.01242 0.48864 0.52892
 B1040 B -0.02749 0.49529 0.48931
 B1041 B 0.00044 0.46807 0.49354
 B1042 B 0.02536 0.48006 0.52348
 B1043 B 0.01256 0.51538 0.53718
 B1044 B -0.02022 0.52501 0.51578
 B1045 B 0.51212 0.01630 -0.02151
 B1046 B 0.52485 0.00686 0.01844
 B1047 B 0.49488 0.03180 0.01483
 B1048 B 0.47381 0.02113 -0.01921
 B1049 B 0.49072 -0.01155 -0.03622
 B1050 B 0.52258 -0.02051 -0.01275
 B1051 B 0.47330 -0.02327 0.03163
 B1052 B 0.46071 -0.01345 -0.00837
 B1053 B 0.49045 -0.03873 -0.00455
 B1054 B 0.51189 -0.02795 0.02945
 B1055 B 0.49484 0.00456 0.04638
 B1056 B 0.46299 0.01358 0.02297
 B1057 B 0.46967 0.47137 -0.03023
 B1058 B 0.45387 0.48255 0.00848
 B1059 B 0.48277 0.45602 0.00749
 B1060 B 0.50751 0.46503 -0.02487
 B1061 B 0.49378 0.49793 -0.04389
 B1062 B 0.46022 0.50871 -0.02306
 B1063 B 0.50543 0.51050 0.02481
 B1064 B 0.52127 0.49890 -0.01397
 B1065 B 0.49248 0.52577 -0.01294
 B1066 B 0.46763 0.51686 0.01951
 B1067 B 0.48121 0.48383 0.03836
 B1068 B 0.51469 0.47306 0.01796
 B1069 B -0.00801 0.97661 0.47135
 B1070 B -0.02298 0.98840 0.51014
 B1071 B 0.00623 0.96235 0.50940
 B1072 B 0.02995 0.97056 0.47575
 B1073 B 0.01545 1.00286 0.45604
 B1074 B -0.01766 1.01398 0.47762
 B1075 B 0.02849 1.01762 0.52374
 B1076 B 0.04360 1.00501 0.48488
 B1077 B 0.01450 1.03157 0.48597
 B1078 B -0.00961 1.02321 0.51952
 B1079 B 0.00505 0.99100 0.53912
 B1080 B 0.03819 0.98005 0.51804
 B1081 B 0.78100 0.21913 0.22092
 B1082 B 0.77505 0.20704 0.26242
 B1083 B 0.80000 0.23459 0.25432
 B1084 B 0.78634 0.25738 0.22172
 B1085 B 0.75231 0.24355 0.21021
 B1086 B 0.74534 0.21219 0.23538
 B1087 B 0.74770 0.26182 0.27891
 B1088 B 0.75342 0.27379 0.23752
 B1089 B 0.72856 0.24625 0.24547
 B1090 B 0.74212 0.22364 0.27814
 B1091 B 0.77625 0.23733 0.28969
 B1092 B 0.78328 0.26863 0.26436
 B1093 B 0.74142 0.77852 0.73028
 B1094 B 0.74149 0.79400 0.77077
 B1095 B 0.71739 0.76634 0.76209
 B1096 B 0.73478 0.74087 0.73423
 B1097 B 0.77073 0.75293 0.72618
 B1098 B 0.77463 0.78617 0.74889
 B1099 B 0.76533 0.74067 0.79644
 B1100 B 0.76428 0.72506 0.75579
 B1101 B 0.78915 0.75269 0.76472
 B1102 B 0.77162 0.77848 0.79252
 B1103 B 0.73579 0.76642 0.80045
 B1104 B 0.73159 0.73321 0.77816
 B1105 B 0.26808 0.26141 0.78406
 B1106 B 0.25997 0.27413 0.74320
 B1107 B 0.28527 0.24446 0.74888
 B1108 B 0.27318 0.22277 0.78260
 B1109 B 0.23976 0.23927 0.79781
 B1110 B 0.23184 0.27147 0.77377
 B1111 B 0.23164 0.22200 0.72999
 B1112 B 0.23947 0.20918 0.77046
 B1113 B 0.21444 0.23901 0.76520
 B1114 B 0.22652 0.26060 0.73137
 B1115 B 0.25991 0.24390 0.71599
 B1116 B 0.26774 0.21189 0.74045
 B1117 B 0.22129 0.73651 0.27272
 B1118 B 0.23063 0.72518 0.23155
 B1119 B 0.20605 0.75524 0.23796
 B1120 B 0.21702 0.77521 0.27305
 B1121 B 0.24948 0.75731 0.28821
 B1122 B 0.25756 0.72595 0.26233
 B1123 B 0.26119 0.77695 0.22138
 B1124 B 0.25128 0.78849 0.26259
 B1125 B 0.27628 0.75844 0.25592
 B1126 B 0.26527 0.73825 0.22101
 B1127 B 0.23312 0.75617 0.20582
 B1128 B 0.22463 0.78749 0.23131
 B1129 B 0.26957 0.72176 0.71841
 B1130 B 0.26510 0.70659 0.75864
 B1131 B 0.29128 0.73312 0.75179
 B1132 B 0.27746 0.75910 0.72257
 B1133 B 0.24191 0.74847 0.71200
 B1134 B 0.23427 0.71573 0.73450
 B1135 B 0.24192 0.76116 0.78235
 B1136 B 0.24648 0.77608 0.74206
 B1137 B 0.22017 0.74968 0.74900
 B1138 B 0.23398 0.72363 0.77832
 B1139 B 0.26952 0.73428 0.78885
 B1140 B 0.27723 0.76693 0.76624
 B1141 B 0.25021 0.27491 0.22102
 B1142 B 0.25054 0.29454 0.25880
 B1143 B 0.22572 0.26675 0.25400
 B1144 B 0.24271 0.23817 0.22999
 B1145 B 0.27903 0.24857 0.22050
 B1146 B 0.28364 0.28373 0.23860
 B1147 B 0.27271 0.24398 0.29186
 B1148 B 0.27169 0.22414 0.25378
 B1149 B 0.29699 0.25203 0.25912
 B1150 B 0.27981 0.28080 0.28293
 B1151 B 0.24372 0.27052 0.29219
 B1152 B 0.23898 0.23521 0.27461
 B1153 B 0.75794 0.75663 0.28454
 B1154 B 0.74428 0.77855 0.25155
 B1155 B 0.77261 0.75209 0.24384
 B1156 B 0.76659 0.72101 0.26899
 B1157 B 0.73367 0.72850 0.29221
 B1158 B 0.72011 0.76454 0.28164
 B1159 B 0.71987 0.72905 0.22276
 B1160 B 0.73357 0.70713 0.25571
 B1161 B 0.70517 0.73369 0.26338
 B1162 B 0.71133 0.76475 0.23824
 B1163 B 0.74414 0.75705 0.21505
 B1164 B 0.75778 0.72129 0.22556
 B1165 B 0.72986 0.23671 0.77815
 B1166 B 0.74368 0.22064 0.74037
 B1167 B 0.71661 0.24915 0.73931
 B1168 B 0.72328 0.27465 0.77124
 B1169 B 0.75518 0.26167 0.79217
 B1170 B 0.76743 0.22788 0.77321
 B1171 B 0.77116 0.27300 0.72385
 B1172 B 0.75736 0.28909 0.76160
 B1173 B 0.78441 0.26051 0.76269
 B1174 B 0.77777 0.23506 0.73074
 B1175 B 0.74589 0.24807 0.70979
 B1176 B 0.73354 0.28183 0.72873
 C1177 C 0.42813 1.05261 0.40287
 C1178 C 0.43612 1.03751 0.37140
 C1179 C 0.46526 1.02377 0.36736
 C1180 C 0.48448 1.02140 0.39589
 C1181 C 0.47491 1.03280 0.42907
 C1182 C 0.44793 1.05115 0.43113
 H1183 H 0.40592 1.06399 0.40621
 H1184 H 0.47209 1.01236 0.34307
 H1185 H 0.50581 1.00847 0.39227
 H1186 H 0.44057 1.06199 0.45535
 C1187 C -0.05952 0.55627 0.89036
 C1188 C -0.08874 0.54414 0.88753
 C1189 C -0.10277 0.53373 0.91857
 C1190 C -0.08689 0.53140 0.94955
 C1191 C -0.05669 0.54054 0.95166
 C1192 C -0.04385 0.55471 0.92209
 H1193 H -0.04813 0.56616 0.86796
 H1194 H -0.12466 0.52340 0.91867
 H1195 H -0.09765 0.51886 0.97032
 H1196 H -0.02070 0.56219 0.92246
 C1197 C 0.04080 -0.04136 0.86198
 C1198 C 0.06909 -0.02757 0.85901
 C1199 C 0.07894 -0.00997 0.88684
 C1200 C 0.06089 -0.00550 0.91667
 C1201 C 0.03257 -0.01929 0.92044
 C1202 C 0.02278 -0.03753 0.89272
 H1203 H 0.03263 -0.05481 0.84053
 H1204 H 0.10028 0.00154 0.88493
 H1205 H 0.06927 0.00946 0.93657
 H1206 H 0.00094 -0.04807 0.89436
 C1207 C 0.55058 0.44951 0.36734
 C1208 C 0.58008 0.46051 0.36298
 C1209 C 0.59344 0.47452 0.39152
 C1210 C 0.57718 0.47945 0.42271
 C1211 C 0.54710 0.46985 0.42703
 C1212 C 0.53432 0.45394 0.39918
 H1213 H 0.53972 0.43850 0.34575
 H1214 H 0.61578 0.48392 0.38897
 H1215 H 0.58785 0.49277 0.44254
 H1216 H 0.51117 0.44652 0.40118
 C1217 C 0.53322 0.52699 0.11819
 C1218 C 0.56397 0.53220 0.11133
 C1219 C 0.57334 0.53930 0.07710
 C1220 C 0.55312 0.53735 0.04954
 C1221 C 0.52361 0.52689 0.05540
 C1222 C 0.51315 0.52453 0.09049
 H1223 H 0.52535 0.52190 0.14457
 H1224 H 0.59680 0.54450 0.07141
 H1225 H 0.56144 0.54258 0.02370
 H1226 H 0.49020 0.51794 0.09665
 C1227 C 0.05287 1.04133 0.61626
 C1228 C 0.08431 1.04388 0.61108
 C1229 C 0.09581 1.04709 0.57679
 C1230 C 0.07693 1.04353 0.54818
 C1231 C 0.04649 1.03556 0.55325
 C1232 C 0.03411 1.03742 0.58763
 H1233 H 0.04323 1.03926 0.64246
 H1234 H 0.11984 1.05031 0.57210
 H1235 H 0.08703 1.04526 0.52252
 H1236 H 0.01045 1.03285 0.59290
 C1237 C -0.04125 0.45479 0.61905
 C1238 C -0.06939 0.47122 0.62363
 C1239 C -0.07922 0.49082 0.59675
 C1240 C -0.06190 0.49433 0.56667
 C1241 C -0.03343 0.47874 0.56174
 C1242 C -0.02337 0.45855 0.58828
 H1243 H -0.03286 0.43954 0.63937
 H1244 H -0.09987 0.50503 0.59939
 H1245 H -0.07095 0.51054 0.54775
 H1246 H -0.00143 0.44651 0.58577
 C1247 C 0.40460 -0.03333 0.09454
 C1248 C 0.41828 -0.04609 0.12437
 C1249 C 0.44846 -0.05813 0.12108
 C1250 C 0.46530 -0.05457 0.08971
 C1251 C 0.45231 -0.03888 0.06105
 C1252 C 0.42124 -0.02972 0.06366
 H1253 H 0.38177 -0.02315 0.09574
 H1254 H 0.45963 -0.06874 0.14329
 H1255 H 0.48913 -0.06183 0.08901
 H1256 H 0.41014 -0.01649 0.04337
 C1257 C 0.36651 0.49040 0.02987
 C1258 C 0.35760 0.46015 0.02572
 C1259 C 0.37985 0.43696 0.01913
 C1260 C 0.41027 0.44385 0.01525
 C1261 C 0.41968 0.47411 0.01890
 C1262 C 0.39735 0.49728 0.02694
 H1263 H 0.34960 0.50871 0.03465
 H1264 H 0.37344 0.41359 0.01470
 H1265 H 0.42570 0.42551 0.00665
 H1266 H 0.40344 0.52095 0.02924
 C1267 C -0.09363 0.93842 0.51432
 C1268 C -0.11749 0.95904 0.52374
 C1269 C -0.11061 0.98926 0.53274
 C1270 C -0.08025 0.99851 0.53136
 C1271 C -0.05651 0.97769 0.52077
 C1272 C -0.06404 0.94741 0.51307
 H1273 H -0.09781 0.91549 0.50531
 H1274 H -0.12864 1.00580 0.53998
 H1275 H -0.07561 1.02217 0.53681
 H1276 H -0.04786 0.93087 0.50192
 C1277 C -0.12768 0.01460 0.94687
 C1278 C -0.14129 0.03538 0.97128
 C1279 C -0.12261 0.05072 0.99422
 C1280 C -0.09155 0.04458 0.99410
 C1281 C -0.07806 0.02106 0.97314
 C1282 C -0.09635 0.00675 0.94857
 H1283 H -0.14149 0.00289 0.92831
 H1284 H -0.13202 0.06810 1.01208
 H1285 H -0.07842 0.05752 1.01211
 H1286 H -0.08667 -0.01084 0.93123
 C1287 C 0.38509 0.51389 0.47187
 C1288 C 0.37944 0.54190 0.45470
 C1289 C 0.40415 0.55766 0.44086
 C1290 C 0.43398 0.54691 0.44662
 C1291 C 0.43977 0.52084 0.46748
 C1292 C 0.41493 0.50332 0.47797
 H1293 H 0.36646 0.50117 0.48264
 H1294 H 0.40037 0.57887 0.42659
 H1295 H 0.45241 0.55973 0.43569
 H1296 H 0.41833 0.48240 0.49285
 C1297 C 0.12698 0.51111 0.53204
 C1298 C 0.13591 0.53937 0.51833
 C1299 C 0.11435 0.55819 0.50138
 C1300 C 0.08467 0.54946 0.49830
 C1301 C 0.07492 0.52158 0.51237
 C1302 C 0.09660 0.50236 0.52929
 H1303 H 0.14338 0.49599 0.54491
 H1304 H 0.12069 0.57962 0.48949
 H1305 H 0.06964 0.56466 0.48374
 H1306 H 0.09023 0.48049 0.53990
 C1307 C 0.61124 0.01049 0.04307
 C1308 C 0.61749 0.04079 0.03315
 C1309 C 0.59330 0.06015 0.02264
 C1310 C 0.56419 0.04980 0.02090
 C1311 C 0.55740 0.01940 0.02942
 C1312 C 0.58138 -0.00009 0.04130
 H1313 H 0.62944 -0.00518 0.05123
 H1314 H 0.59698 0.08301 0.01289
 H1315 H 0.54814 0.06534 0.00865
 H1316 H 0.57743 -0.02382 0.04745
 C1317 C 0.62901 0.99301 0.45948
 C1318 C 0.63992 0.96549 0.47435
 C1319 C 0.62007 0.94716 0.49315
 C1320 C 0.58964 0.95627 0.49751
 C1321 C 0.57810 0.98377 0.48263
 C1322 C 0.59821 1.00205 0.46342
 H1323 H 0.64430 1.00749 0.44510
 H1324 H 0.62838 0.92603 0.50520
 H1325 H 0.57539 0.94193 0.51337
 H1326 H 0.59037 1.02353 0.45192
 C1327 C 0.09352 0.46000 0.95746
 C1328 C 0.11636 0.47662 0.97322
 C1329 C 0.10778 0.50412 0.99056
 C1330 C 0.07709 0.51280 0.99551
 C1331 C 0.05411 0.49433 0.98297
 C1332 C 0.06288 0.46915 0.96167
 H1333 H 0.09899 0.43882 0.94361
 H1334 H 0.12470 0.51836 1.00168
 H1335 H 0.07156 0.53319 1.01083
 H1336 H 0.04626 0.45544 0.94960
 C1337 C 0.02007 0.38040 0.48198
 C1338 C 0.00057 0.37228 0.45475
 C1339 C -0.02191 0.39420 0.44466
 C1340 C -0.02247 0.42389 0.45776
 C1341 C -0.00280 0.43237 0.48441
 C1342 C 0.01799 0.40982 0.49702
 H1343 H 0.03796 0.36479 0.49087
 H1344 H -0.03870 0.38923 0.42542
 H1345 H -0.03768 0.44046 0.44543
 H1346 H 0.03415 0.41544 0.51684
 C1347 C 0.50064 -0.12858 -0.01044
 C1348 C 0.49137 -0.13419 -0.04491
 C1349 C 0.48140 -0.10928 -0.06546
 C1350 C 0.48068 -0.07963 -0.05224
 C1351 C 0.48979 -0.07362 -0.01777
 C1352 C 0.49970 -0.09855 0.00310
 H1353 H 0.50846 -0.14739 0.00603
 H1354 H 0.47468 -0.11261 -0.09232
 H1355 H 0.47282 -0.06139 -0.06945
 H1356 H 0.50704 -0.09485 0.02964
 C1357 C -0.01598 -0.12144 0.99440
 C1358 C 0.00105 -0.12927 1.02417
 C1359 C 0.02271 -0.10922 1.03559
 C1360 C 0.02463 -0.08037 1.02086
 C1361 C 0.00592 -0.07079 0.99290
 C1362 C -0.01345 -0.09240 0.97873
 H1363 H -0.03284 -0.13671 0.98503
 H1364 H 0.03643 -0.11485 1.05818
 H1365 H 0.03880 -0.06470 1.03426
 H1366 H -0.02865 -0.08592 0.95776
 C1367 C 0.49312 0.37786 0.50408
 C1368 C 0.50750 0.37034 0.53578
 C1369 C 0.52733 0.39103 0.55002
 C1370 C 0.53066 0.41963 0.53501
 C1371 C 0.51499 0.42839 0.50444
 C1372 C 0.49685 0.40671 0.48851
 H1373 H 0.47777 0.36219 0.49242
 H1374 H 0.53945 0.38560 0.57383
 H1375 H 0.54438 0.43547 0.54888
 H1376 H 0.48407 0.41264 0.46532
 C1377 C 0.46964 1.12268 0.52513
 C1378 C 0.49676 1.13775 0.53098
 C1379 C 0.52419 1.12401 0.51821
 C1380 C 0.52478 1.09487 0.50329
 C1381 C 0.49818 1.07794 0.50191
 C1382 C 0.47038 1.09313 0.51090
 H1383 H 0.44781 1.13316 0.53285
 H1384 H 0.54568 1.13465 0.52182
 H1385 H 0.54677 1.08473 0.49559
 H1386 H 0.44916 1.08212 0.50854
 C1387 C -0.01573 0.63181 1.02136
 C1388 C -0.02551 0.63851 1.05590
 C1389 C -0.03701 0.61503 1.07673
 C1390 C -0.03746 0.58519 1.06398
 C1391 C -0.02680 0.57801 1.02977
 C1392 C -0.01662 0.60189 1.00829
 H1393 H -0.00708 0.64966 1.00465
 H1394 H -0.04453 0.61947 1.10353
 H1395 H -0.04557 0.56761 1.08141
 H1396 H -0.00828 0.59735 0.98184
 C1397 C 0.51128 0.61314 -0.02121
 C1398 C 0.50017 0.62039 -0.05474
 C1399 C 0.48522 0.59775 -0.07305
 C1400 C 0.48290 0.56842 -0.05939
 C1401 C 0.49483 0.56055 -0.02640
 C1402 C 0.50830 0.58365 -0.00704
 H1403 H 0.52271 0.63005 -0.00612
 H1404 H 0.47507 0.60260 -0.09818
 H1405 H 0.47164 0.55185 -0.07516
 H1406 H 0.51671 0.57921 0.01886
 C1407 C 0.02470 1.12050 0.47749
 C1408 C 0.01673 1.12615 0.44218
 C1409 C 0.00755 1.10105 0.42235
 C1410 C 0.00703 1.07182 0.43655
 C1411 C 0.01573 1.06596 0.47132
 C1412 C 0.02423 1.09082 0.49179
 H1413 H 0.03239 1.13863 0.49402
 H1414 H -0.00072 1.10375 0.39598
 H1415 H -0.00063 1.05377 0.41985
 H1416 H 0.03056 1.08751 0.51880
 C1417 C 0.78728 0.67368 0.86001
 C1418 C 0.77032 0.68274 0.89012
 C1419 C 0.75943 0.71327 0.89275
 C1420 C 0.76155 0.73297 0.86415
 C1421 C 0.77427 0.72254 0.83186
 C1422 C 0.78971 0.69368 0.83139
 H1423 H 0.79681 0.65051 0.85754
 H1424 H 0.74765 0.72147 0.91634
 H1425 H 0.75107 0.75571 0.86689
 H1426 H 0.80171 0.68543 0.80822
 C1427 C 0.30181 0.18496 0.36087
 C1428 C 0.28266 0.19294 0.38970
 C1429 C 0.26721 0.22166 0.38972
 C1430 C 0.26677 0.23958 0.35960
 C1431 C 0.28212 0.22937 0.32876
 C1432 C 0.30213 0.20355 0.33094
 H1433 H 0.31468 0.16331 0.36022
 H1434 H 0.25374 0.22942 0.41232
 H1435 H 0.25257 0.26039 0.36011
 H1436 H 0.31571 0.19595 0.30844
 C1437 C 0.72106 0.29131 0.37189
 C1438 C 0.73284 0.32088 0.37210
 C1439 C 0.74451 0.33255 0.34065
 C1440 C 0.74637 0.31471 0.31055
 C1441 C 0.73616 0.28447 0.31023
 C1442 C 0.72259 0.27334 0.34119
 H1443 H 0.71169 0.28168 0.39571
 H1444 H 0.75453 0.35477 0.33975
 H1445 H 0.75828 0.32421 0.28831
 H1446 H 0.71497 0.25009 0.34239
 C1447 C 0.24140 0.82913 0.84806
 C1448 C 0.22445 0.81878 0.87670
 C1449 C 0.21096 0.79014 0.87450
 C1450 C 0.21467 0.77222 0.84386
 C1451 C 0.23237 0.78251 0.81539
 C1452 C 0.24565 0.81126 0.81834
 H1453 H 0.25282 0.85061 0.84923
 H1454 H 0.19797 0.78155 0.89653
 H1455 H 0.20466 0.75000 0.84295
 H1456 H 0.26035 0.82007 0.79800
 C1457 C 0.28370 0.84707 0.16612
 C1458 C 0.28579 0.83423 0.13227
 C1459 C 0.28960 0.80211 0.12954
 C1460 C 0.28568 0.78359 0.15909
 C1461 C 0.27843 0.79670 0.19212
 C1462 C 0.28041 0.82854 0.19553
 H1463 H 0.28343 0.87165 0.16998
 H1464 H 0.29191 0.79088 0.10429
 H1465 H 0.28539 0.75904 0.15523
 H1466 H 0.27769 0.83980 0.22032
 C1467 C 0.79755 0.29467 0.62977
 C1468 C 0.79757 0.32687 0.63214
 C1469 C 0.79850 0.33993 0.66589
 C1470 C 0.79505 0.32195 0.69585
 C1471 C 0.78898 0.29074 0.69309
 C1472 C 0.79299 0.27691 0.65982
 H1473 H 0.79748 0.28322 0.60463
 H1474 H 0.80128 0.36426 0.66930
 H1475 H 0.79595 0.33315 0.72077
 H1476 H 0.78994 0.25262 0.65641
 C1477 C 0.22190 0.15371 0.66732
 C1478 C 0.21006 0.16826 0.63756
 C1479 C 0.19908 0.19888 0.64033
 C1480 C 0.20231 0.21528 0.67158
 C1481 C 0.21707 0.20147 0.70034
 C1482 C 0.22573 0.17010 0.69795
 H1483 H 0.23114 0.13035 0.66599
 H1484 H 0.18962 0.21060 0.61776
 H1485 H 0.19558 0.23940 0.67204
 H1486 H 0.23842 0.15850 0.71827
 C1487 C 0.70400 0.71216 0.12584
 C1488 C 0.69613 0.68119 0.12725
 C1489 C 0.68627 0.66976 0.16009
 C1490 C 0.68952 0.68687 0.19077
 C1491 C 0.70328 0.71533 0.18947
 C1492 C 0.70751 0.72892 0.15641
 H1493 H 0.70873 0.72341 0.10117
 H1494 H 0.67891 0.64658 0.16313
 H1495 H 0.68343 0.67663 0.21558
 H1496 H 0.71581 0.75181 0.15385
 C1497 C 0.18109 0.65521 0.21358
 C1498 C 0.20262 0.63281 0.20195
 C1499 C 0.23281 0.64109 0.19596
 C1500 C 0.24138 0.67107 0.20284
 C1501 C 0.22002 0.69313 0.21644
 C1502 C 0.18966 0.68468 0.22099
 H1503 H 0.15789 0.64937 0.21973
 H1504 H 0.24993 0.62416 0.18712
 H1505 H 0.26506 0.67641 0.19928
 H1506 H 0.17268 0.69953 0.23345
 C1507 C 0.70529 0.14881 0.70392
 C1508 C 0.71912 0.12482 0.72366
 C1509 C 0.74561 0.13158 0.74211
 C1510 C 0.75502 0.16163 0.74485
 C1511 C 0.73829 0.18596 0.72926
 C1512 C 0.71495 0.17878 0.70650
 H1513 H 0.68526 0.14557 0.68865
 H1514 H 0.75900 0.11394 0.75529
 H1515 H 0.77430 0.16584 0.76111
 H1516 H 0.70290 0.19640 0.69192
 C1517 C 0.82339 0.13025 0.27005
 C1518 C 0.80289 0.11069 0.28587
 C1519 C 0.77411 0.12239 0.29689
 C1520 C 0.76586 0.15342 0.29155
 C1521 C 0.78599 0.17301 0.27428
 C1522 C 0.81494 0.16077 0.26382
 H1523 H 0.84535 0.12136 0.26042
 H1524 H 0.75779 0.10734 0.30858
 H1525 H 0.74321 0.16161 0.29947
 H1526 H 0.83055 0.17400 0.24846
 C1527 C 0.26882 0.62024 0.78964
 C1528 C 0.29572 0.60909 0.77259
 C1529 C 0.31207 0.62911 0.75152
 C1530 C 0.30234 0.65942 0.74778
 C1531 C 0.27577 0.67130 0.76497
 C1532 C 0.25901 0.65121 0.78600
 H1533 H 0.25560 0.60514 0.80583
 H1534 H 0.33230 0.62113 0.73705
 H1535 H 0.31586 0.67341 0.73068
 H1536 H 0.23828 0.65929 0.79935
 C1537 C 0.30615 0.33910 0.70060
 C1538 C 0.29046 0.36578 0.71314
 C1539 C 0.26164 0.36253 0.72934
 C1540 C 0.25105 0.33345 0.73691
 C1541 C 0.26872 0.30688 0.72802
 C1542 C 0.29501 0.31017 0.70717
 H1543 H 0.32725 0.34042 0.68569
 H1544 H 0.24843 0.38215 0.73941
 H1545 H 0.22995 0.33198 0.75175
 H1546 H 0.30775 0.29048 0.69674
 C1547 C 0.77452 0.85547 0.21735
 C1548 C 0.77356 0.87339 0.24780
 C1549 C 0.75752 0.86324 0.27748
 C1550 C 0.74549 0.83404 0.27776
 C1551 C 0.75003 0.81442 0.24866
 C1552 C 0.76239 0.82653 0.21760
 H1553 H 0.78586 0.86337 0.19375
 H1554 H 0.75618 0.87693 0.30118
 H1555 H 0.73490 0.82599 0.30173
 H1556 H 0.76407 0.81327 0.19375
 C1557 C 0.69574 0.87116 0.75748
 C1558 C 0.70919 0.89123 0.78063
 C1559 C 0.73049 0.87922 0.80461
 C1560 C 0.74075 0.84826 0.80226
 C1561 C 0.72839 0.82860 0.77745
 C1562 C 0.70422 0.84030 0.75703
 H1563 H 0.67823 0.87937 0.73977
 H1564 H 0.74077 0.89413 0.82328
 H1565 H 0.75869 0.83998 0.81928
 H1566 H 0.69280 0.82604 0.73872
 C1567 C 0.20650 0.37175 0.23902
 C1568 C 0.22072 0.39257 0.26039
 C1569 C 0.24411 0.38215 0.28240
 C1570 C 0.25370 0.35109 0.28215
 C1571 C 0.23963 0.33005 0.26030
 C1572 C 0.21557 0.34096 0.23922
 H1573 H 0.18806 0.37938 0.22228
 H1574 H 0.25516 0.39806 0.29928
 H1575 H 0.27211 0.34367 0.29898
 H1576 H 0.20339 0.32580 0.22269
 C1577 C 0.14164 0.23104 0.82349
 C1578 C 0.11796 0.23970 0.80107
 C1579 C 0.12515 0.24767 0.76619
 C1580 C 0.15560 0.24686 0.75414
 C1581 C 0.17930 0.23839 0.77692
 C1582 C 0.17169 0.23043 0.81172
 H1583 H 0.13704 0.22541 0.85068
 H1584 H 0.10728 0.25446 0.74832
 H1585 H 0.16056 0.25320 0.72726
 H1586 H 0.18891 0.22356 0.83034
 C1587 C 0.61635 0.73463 0.26689
 C1588 C 0.61067 0.73165 0.30311
 C1589 C 0.63509 0.72432 0.32504
 C1590 C 0.66474 0.72272 0.31180
 C1591 C 0.67101 0.72755 0.27591
 C1592 C 0.64630 0.73266 0.25340
 H1593 H 0.59790 0.74030 0.24935
 H1594 H 0.63138 0.72115 0.35295
 H1595 H 0.68281 0.71922 0.33041
 H1596 H 0.65011 0.73712 0.22579
 C1597 C 0.65542 0.26277 0.19133
 C1598 C 0.63269 0.24849 0.21074
 C1599 C 0.63993 0.23643 0.24400
 C1600 C 0.66988 0.23714 0.25645
 C1601 C 0.69302 0.25006 0.23593
 C1602 C 0.68496 0.26328 0.20343
 H1603 H 0.65054 0.27311 0.16613
 H1604 H 0.62280 0.22536 0.25969
 H1605 H 0.67511 0.22658 0.28142
 H1606 H 0.70168 0.27354 0.18645
 C1607 C 0.14515 0.77626 0.70349
 C1608 C 0.12365 0.75675 0.71787
 C1609 C 0.13223 0.73834 0.74672
 C1610 C 0.16219 0.73810 0.75912
 C1611 C 0.18434 0.75583 0.74255
 C1612 C 0.17502 0.77498 0.71465
 H1613 H 0.13940 0.79170 0.68221
 H1614 H 0.11637 0.72288 0.75853
 H1615 H 0.16842 0.72257 0.78017
 H1616 H 0.19109 0.78813 0.69982
 C1617 C 0.87116 0.71844 0.74385
 C1618 C 0.88720 0.74511 0.73591
 C1619 C 0.87313 0.77343 0.74617
 C1620 C 0.84324 0.77519 0.75940
 C1621 C 0.82592 0.74885 0.76267
 C1622 C 0.84124 0.72037 0.75729
 H1623 H 0.88137 0.69579 0.73954
 H1624 H 0.88375 0.79492 0.74137
 H1625 H 0.83307 0.79777 0.76455
 H1626 H 0.83005 0.69932 0.76200
 C1627 C 0.37966 0.22046 0.23898
 C1628 C 0.39550 0.24774 0.23857
 C1629 C 0.38123 0.27433 0.25274
 C1630 C 0.35071 0.27448 0.26340
 C1631 C 0.33348 0.24815 0.25954
 C1632 C 0.34900 0.22068 0.24947
 H1633 H 0.39024 0.19945 0.22862
 H1634 H 0.39315 0.29552 0.25355
 H1635 H 0.34012 0.29610 0.27187
 H1636 H 0.33740 0.19961 0.24769
 C1637 C 0.35145 0.73497 0.30305
 C1638 C 0.37110 0.75796 0.29309
 C1639 C 0.36113 0.78034 0.26895
 C1640 C 0.33171 0.77984 0.25540
 C1641 C 0.31139 0.75760 0.26677
 C1642 C 0.32205 0.73490 0.29035
 H1643 H 0.35844 0.71766 0.32193
 H1644 H 0.37598 0.79835 0.26092
 H1645 H 0.32453 0.79780 0.23757
 H1646 H 0.30750 0.71731 0.30016
 C1647 C 0.85276 0.25489 0.82591
 C1648 C 0.87651 0.26794 0.80686
 C1649 C 0.87103 0.27820 0.77248
 C1650 C 0.84210 0.27593 0.75785
 C1651 C 0.81813 0.26339 0.77739
 C1652 C 0.82417 0.25272 0.81155
 H1653 H 0.85632 0.24589 0.85204
 H1654 H 0.88897 0.28830 0.75709
 H1655 H 0.83871 0.28403 0.73144
 H1656 H 0.80675 0.24255 0.82765
 C1657 C 0.54236 0.96707 0.62537
 C1658 C 0.57077 0.97988 0.62991
 C1659 C 0.58673 0.99074 0.60085
 C1660 C 0.57364 0.99124 0.56807
 C1661 C 0.54422 0.98040 0.56315
 C1662 C 0.52917 0.96723 0.59207
 H1663 H 0.52973 0.95866 0.64778
 H1664 H 0.60864 1.00080 0.60400
 H1665 H 0.58590 1.00261 0.54735
 H1666 H 0.50640 0.95909 0.58956
 C1667 C 0.03600 0.46923 1.12835
 C1668 C 0.06778 0.46675 1.12176
 C1669 C 0.07755 0.46160 1.08666
 C1670 C 0.05705 0.46379 1.05925
 C1671 C 0.02661 0.47314 1.06570
 C1672 C 0.01584 0.47295 1.10067
 H1673 H 0.02648 0.47255 1.15448
 H1674 H 0.10116 0.45601 1.08001
 H1675 H 0.06572 0.45940 1.03316
 H1676 H -0.00789 0.47827 1.10700
 C1677 C -0.09344 0.00467 1.08894
 C1678 C -0.08050 0.01408 1.12039
 C1679 C -0.05255 0.02910 1.11776
 C1680 C -0.03705 0.03164 1.08527
 C1681 C -0.04898 0.01926 1.05468
 C1682 C -0.07764 0.00613 1.05735
 H1683 H -0.11581 -0.00463 1.08820
 H1684 H -0.04125 0.03691 1.14081
 H1685 H -0.01481 0.04141 1.08460
 H1686 H -0.08778 -0.00467 1.03520
 C1687 C 0.41957 0.53427 0.58464
 C1688 C 0.43354 0.52751 0.61664
 C1689 C 0.46538 0.52649 0.61785
 C1690 C 0.48283 0.52843 0.58701
 C1691 C 0.46882 0.53025 0.55403
 C1692 C 0.43707 0.53576 0.55370
 H1693 H 0.39501 0.53598 0.58307
 H1694 H 0.47677 0.52228 0.64242
 H1695 H 0.50728 0.52527 0.58894
 H1696 H 0.42525 0.53949 0.52964
 C1697 C 0.40603 0.45908 -0.09694
 C1698 C 0.42255 0.44719 -0.12589
 C1699 C 0.45299 0.43710 -0.12152
 C1700 C 0.46714 0.44089 -0.08919
 C1701 C 0.45135 0.45571 -0.06105
 C1702 C 0.42029 0.46380 -0.06534
 H1703 H 0.38275 0.46768 -0.09966
 H1704 H 0.46622 0.42782 -0.14356
 H1705 H 0.49113 0.43470 -0.08737
 H1706 H 0.40730 0.47683 -0.04586
 C1707 C -0.07536 0.96482 0.40952
 C1708 C -0.06180 0.94898 0.38118
 C1709 C -0.03143 0.93782 0.38378
 C1710 C -0.01480 0.94347 0.41419
 C1711 C -0.02809 0.96110 0.44185
 C1712 C -0.05874 0.97140 0.43864
 H1713 H -0.09827 0.97477 0.40797
 H1714 H -0.02033 0.92585 0.36190
 H1715 H 0.00893 0.93595 0.41495
 H1716 H -0.06984 0.98696 0.45720
 C1717 C 0.09062 0.52221 0.39706
 C1718 C 0.07801 0.54074 0.37070
 C1719 C 0.04908 0.55503 0.37665
 C1720 C 0.03281 0.54997 0.40812
 C1721 C 0.04506 0.53018 0.43384
 C1722 C 0.07437 0.51673 0.42776
 H1723 H 0.11243 0.51017 0.39311
 H1724 H 0.03876 0.56941 0.35665
 H1725 H 0.01022 0.56042 0.41158
 H1726 H 0.08467 0.50074 0.44611
 C1727 C 0.53723 0.05539 -0.10886
 C1728 C 0.56788 0.04498 -0.11171
 C1729 C 0.58127 0.03001 -0.08318
 C1730 C 0.56399 0.02311 -0.05374
 C1731 C 0.53288 0.03213 -0.05086
 C1732 C 0.51994 0.04931 -0.07846
 H1733 H 0.52634 0.06686 -0.13074
 H1734 H 0.60454 0.02091 -0.08488
 H1735 H 0.57492 0.00843 -0.03457
 H1736 H 0.49599 0.05609 -0.07776
 C1737 C 0.59355 0.54006 -0.04634
 C1738 C 0.61666 0.52343 -0.02862
 C1739 C 0.60958 0.49543 -0.01295
 C1740 C 0.57960 0.48629 -0.01114
 C1741 C 0.55583 0.50486 -0.02511
 C1742 C 0.56355 0.53053 -0.04517
 H1743 H 0.59808 0.56156 -0.05915
 H1744 H 0.62699 0.48125 -0.00048
 H1745 H 0.57502 0.46553 0.00317
 H1746 H 0.54631 0.54450 -0.05803
 C1747 C 0.11521 1.04596 0.44995
 C1748 C 0.13886 1.02771 0.46454
 C1749 C 0.13185 0.99907 0.47865
 C1750 C 0.10167 0.99084 0.48245
 C1751 C 0.07768 1.01087 0.47182
 C1752 C 0.08503 1.03730 0.45294
 H1753 H 0.11956 1.06803 0.43841
 H1754 H 0.14954 0.98364 0.48856
 H1755 H 0.09725 0.96947 0.49562
 H1756 H 0.06763 1.05249 0.44238
 C1757 C 0.11157 -0.00890 1.02273
 C1758 C 0.12271 -0.03734 1.00921
 C1759 C 0.10318 -0.05467 0.98924
 C1760 C 0.07350 -0.04454 0.98365
 C1761 C 0.06120 -0.01768 0.99966
 C1762 C 0.08084 0.00046 1.01873
 H1763 H 0.12606 0.00531 1.03788
 H1764 H 0.11118 -0.07571 0.97643
 H1765 H 0.06012 -0.05838 0.96683
 H1766 H 0.07255 0.02183 1.03050
 C1767 C 0.62612 0.48527 0.52732
 C1768 C 0.63597 0.45541 0.51690
 C1769 C 0.61468 0.43669 0.50142
 C1770 C 0.58506 0.44735 0.49607
 C1771 C 0.57467 0.47656 0.50761
 C1772 C 0.59568 0.49549 0.52332
 H1773 H 0.64162 0.50051 0.53946
 H1774 H 0.62127 0.41433 0.49090
 H1775 H 0.57067 0.43266 0.48157
 H1776 H 0.58884 0.51844 0.53183
 C1777 C -0.10285 0.45113 0.49574
 C1778 C -0.12331 0.46953 0.47683
 C1779 C -0.11320 0.49612 0.46032
 C1780 C -0.08270 0.50431 0.46337
 C1781 C -0.06208 0.48594 0.48292
 C1782 C -0.07289 0.45916 0.49879
 H1783 H -0.11028 0.43056 0.50871
 H1784 H -0.12891 0.51067 0.44567
 H1785 H -0.07545 0.52513 0.45092
 H1786 H -0.05831 0.44416 0.51421
 C1787 C 0.37581 -0.00818 -0.03700
 C1788 C 0.36681 -0.03819 -0.03118
 C1789 C 0.38844 -0.06077 -0.02148
 C1790 C 0.41835 -0.05328 -0.01580
 C1791 C 0.42783 -0.02315 -0.02095
 C1792 C 0.40620 -0.00080 -0.03248
 H1793 H 0.35918 0.00965 -0.04397
 H1794 H 0.38164 -0.08386 -0.01581
 H1795 H 0.43310 -0.07086 -0.00467
 H1796 H 0.41224 0.02278 -0.03609
 C1797 C 0.39708 1.04444 0.54723
 C1798 C 0.37582 1.03714 0.52175
 C1799 C 0.38605 1.02035 0.49212
 C1800 C 0.41682 1.01252 0.48714
 C1801 C 0.43855 1.02235 0.51084
 C1802 C 0.42806 1.03679 0.54203
 H1803 H 0.38988 1.05664 0.57086
 H1804 H 0.37054 1.01440 0.47176
 H1805 H 0.42361 0.99992 0.46365
 H1806 H 0.44389 1.04342 0.56177
 C1807 C -0.13465 0.50678 1.04536
 C1808 C -0.14667 0.53671 1.04064
 C1809 C -0.12694 0.56032 1.03363
 C1810 C -0.09587 0.55406 1.02939
 C1811 C -0.08327 0.52411 1.03344
 C1812 C -0.10313 0.50061 1.04238
 H1813 H -0.14966 0.48816 1.05036
 H1814 H -0.13588 0.58341 1.02886
 H1815 H -0.08256 0.57254 1.01986
 H1816 H -0.09460 0.47713 1.04496
 C1817 C 0.03183 0.60955 0.55828
 C1818 C 0.01407 0.63365 0.54404
 C1819 C -0.00191 0.62809 0.51310
 C1820 C -0.00075 0.59872 0.49763
 C1821 C 0.01643 0.57442 0.51281
 C1822 C 0.03307 0.58076 0.54304
 H1823 H 0.04371 0.61228 0.58260
 H1824 H -0.01578 0.64621 0.50130
 H1825 H -0.01431 0.59475 0.47480
 H1826 H 0.04604 0.56298 0.55655
 C1827 C 0.49111 0.12197 0.02012
 C1828 C 0.49635 0.12670 0.05594
 C1829 C 0.50144 0.10140 0.07774
 C1830 C 0.50096 0.07189 0.06449
 C1831 C 0.49510 0.06650 0.02880
 C1832 C 0.49021 0.09200 0.00667
 H1833 H 0.48719 0.14135 0.00284
 H1834 H 0.50602 0.10451 0.10530
 H1835 H 0.50556 0.05339 0.08272
 H1836 H 0.48585 0.08879 -0.02089
 C1837 C -0.04330 0.11532 0.94756
 C1838 C -0.02251 0.13529 0.96159
 C1839 C -0.00417 0.12467 0.98930
 C1840 C -0.00496 0.09409 1.00055
 C1841 C -0.02355 0.07330 0.98377
 C1842 C -0.04309 0.08472 0.95756
 H1843 H -0.05866 0.12278 0.92715
 H1844 H 0.01221 0.13930 1.00082
 H1845 H 0.01074 0.08627 1.02047
 H1846 H -0.05695 0.06977 0.94270
 C1847 C 0.51669 0.61747 0.44858
 C1848 C 0.49164 0.63533 0.46102
 C1849 C 0.47015 0.62180 0.48324
 C1850 C 0.47374 0.59076 0.49258
 C1851 C 0.49833 0.57250 0.47895
 C1852 C 0.51994 0.58663 0.45722
 H1853 H 0.53332 0.62710 0.43087
 H1854 H 0.45053 0.63515 0.49309
 H1855 H 0.45660 0.58092 0.50920
 H1856 H 0.53924 0.57389 0.44576
 C1857 C 0.53409 0.89240 0.44653
 C1858 C 0.51213 0.87349 0.46111
 C1859 C 0.49629 0.88332 0.49173
 C1860 C 0.50025 0.91268 0.50535
 C1861 C 0.51987 0.93291 0.48834
 C1862 C 0.53761 0.92176 0.45960
 H1863 H 0.54743 0.88517 0.42363
 H1864 H 0.47930 0.86922 0.50375
 H1865 H 0.48608 0.92030 0.52743
 H1866 H 0.55269 0.93643 0.44526
 C1867 C 0.00978 0.38386 1.00075
 C1868 C 0.00646 0.37660 0.96522
 C1869 C -0.00128 0.39983 0.94146
 C1870 C -0.00563 0.42991 0.95275
 C1871 C -0.00123 0.43794 0.98806
 C1872 C 0.00615 0.41442 1.01209
 H1873 H 0.01522 0.36597 1.01955
 H1874 H -0.00464 0.39454 0.91408
 H1875 H -0.01219 0.44687 0.93333
 H1876 H 0.00859 0.41938 1.03962
 C1877 C 0.49625 0.36710 0.01603
 C1878 C 0.48882 0.36257 0.05158
 C1879 C 0.47579 0.38694 0.07116
 C1880 C 0.47168 0.41585 0.05617
 C1881 C 0.48100 0.42136 0.02120
 C1882 C 0.49250 0.39636 0.00095
 H1883 H 0.50620 0.34839 0.00046
 H1884 H 0.46950 0.38375 0.09849
 H1885 H 0.46217 0.43411 0.07267
 H1886 H 0.49980 0.39962 -0.02602
 C1887 C -0.01063 0.89629 0.57501
 C1888 C 0.00123 0.86997 0.55783
 C1889 C 0.01357 0.87298 0.52365
 C1890 C 0.01483 0.90198 0.50764
 C1891 C 0.00380 0.92845 0.52555
 C1892 C -0.00911 0.92493 0.55940
 H1893 H -0.02114 0.89482 0.60083
 H1894 H 0.02295 0.85307 0.50970
 H1895 H 0.02481 0.90371 0.48158
 H1896 H -0.01851 0.94436 0.57416
 C1897 C 0.21252 0.29556 0.13118
 C1898 C 0.22686 0.32278 0.12256
 C1899 C 0.24867 0.33392 0.14484
 C1900 C 0.25616 0.31836 0.17532
 C1901 C 0.24144 0.29147 0.18504
 C1902 C 0.21953 0.28013 0.16252
 H1903 H 0.19581 0.28651 0.11391
 H1904 H 0.26031 0.35464 0.13832
 H1905 H 0.27320 0.32806 0.19158
 H1906 H 0.20796 0.25941 0.16903
 C1907 C 0.73990 0.84600 0.66386
 C1908 C 0.73220 0.83234 0.63215
 C1909 C 0.72318 0.80165 0.63312
 C1910 C 0.72350 0.78498 0.66477
 C1911 C 0.73405 0.79824 0.69567
 C1912 C 0.74296 0.82878 0.69405
 H1913 H 0.74521 0.86989 0.66551
 H1914 H 0.71719 0.78999 0.60939
 H1915 H 0.71730 0.76125 0.66452
 H1916 H 0.75314 0.83977 0.71604
 C1917 C 0.26992 0.65735 0.64844
 C1918 C 0.28350 0.67107 0.61932
 C1919 C 0.29631 0.69982 0.62315
 C1920 C 0.29459 0.71499 0.65562
 C1921 C 0.27935 0.70194 0.68442
 C1922 C 0.26736 0.67272 0.68020
 H1923 H 0.25929 0.63552 0.64602
 H1924 H 0.30677 0.71086 0.60081
 H1925 H 0.30361 0.73762 0.65753
 H1926 H 0.25434 0.66210 0.70088
 C1927 C 0.78546 0.14969 0.15791
 C1928 C 0.78934 0.16414 0.12543
 C1929 C 0.79935 0.19432 0.12496
 C1930 C 0.80158 0.21077 0.15646
 C1931 C 0.79295 0.19760 0.18880
 C1932 C 0.78615 0.16633 0.18886
 H1933 H 0.77869 0.12614 0.15929
 H1934 H 0.80283 0.20607 0.10029
 H1935 H 0.80674 0.23477 0.15494
 H1936 H 0.77769 0.15508 0.21194
 C1937 C 0.70408 0.16945 0.83661
 C1938 C 0.70626 0.18246 0.87020
 C1939 C 0.70612 0.21463 0.87260
 C1940 C 0.70921 0.23258 0.84250
 C1941 C 0.71224 0.21892 0.80908
 C1942 C 0.70610 0.18767 0.80652
 H1943 H 0.70292 0.14496 0.83312
 H1944 H 0.70555 0.22598 0.89783
 H1945 H 0.71186 0.25695 0.84585
 H1946 H 0.70453 0.17661 0.78155
 C1947 C 0.19542 0.71146 0.36504
 C1948 C 0.20415 0.68022 0.36424
 C1949 C 0.21032 0.66597 0.33200
 C1950 C 0.21172 0.68333 0.30144
 C1951 C 0.20588 0.71538 0.30211
 C1952 C 0.19552 0.72876 0.33406
 H1953 H 0.19073 0.72287 0.38989
 H1954 H 0.21756 0.64195 0.33099
 H1955 H 0.22121 0.67177 0.27861
 H1956 H 0.19101 0.75326 0.33605
 C1957 C 0.77065 0.78044 0.38070
 C1958 C 0.78696 0.80720 0.37668
 C1959 C 0.80002 0.81348 0.34360
 C1960 C 0.79397 0.79525 0.31452
 C1961 C 0.77427 0.77077 0.31783
 C1962 C 0.76460 0.76239 0.35182
 H1963 H 0.76018 0.77466 0.40561
 H1964 H 0.81343 0.83349 0.33973
 H1965 H 0.80244 0.80222 0.28907
 H1966 H 0.75009 0.74330 0.35620
 C1967 C 0.28812 0.33213 0.83914
 C1968 C 0.28131 0.32112 0.87275
 C1969 C 0.27990 0.28948 0.87801
 C1970 C 0.28123 0.26953 0.84944
 C1971 C 0.28261 0.28101 0.81487
 C1972 C 0.28899 0.31215 0.81043
 H1973 H 0.29019 0.35646 0.83467
 H1974 H 0.27549 0.28044 0.90400
 H1975 H 0.27768 0.24552 0.85446
 H1976 H 0.29287 0.32174 0.78490
 C1977 C 0.79624 0.36111 0.79741
 C1978 C 0.78065 0.38515 0.77981
 C1979 C 0.75391 0.37844 0.76215
 C1980 C 0.74514 0.34818 0.75869
 C1981 C 0.76280 0.32379 0.77301
 C1982 C 0.78702 0.33097 0.79464
 H1983 H 0.81672 0.36506 0.81169
 H1984 H 0.74036 0.39641 0.74963
 H1985 H 0.72552 0.34388 0.74301
 H1986 H 0.79997 0.31334 0.80821
 C1987 C 0.25093 0.87647 0.27816
 C1988 C 0.28067 0.88088 0.29054
 C1989 C 0.29654 0.85422 0.30329
 C1990 C 0.28565 0.82494 0.29801
 C1991 C 0.25920 0.82101 0.27902
 C1992 C 0.24050 0.84714 0.27245
 H1993 H 0.23534 0.89531 0.27195
 H1994 H 0.31852 0.85473 0.31517
 H1995 H 0.29891 0.80543 0.30749
 H1996 H 0.21850 0.84521 0.26058
 C1997 C 0.20116 0.85463 0.74517
 C1998 C 0.21841 0.87320 0.72335
 C1999 C 0.24540 0.86105 0.70768
 C2000 C 0.25441 0.83020 0.71311
 C2001 C 0.23677 0.81133 0.73474
 C2002 C 0.21029 0.82437 0.75101
 H2003 H 0.18058 0.86372 0.75811
 H2004 H 0.25915 0.87525 0.69095
 H2005 H 0.27515 0.82123 0.70049
 H2006 H 0.19623 0.81124 0.76848
 C2007 C 0.70120 0.34773 0.23171
 C2008 C 0.71762 0.36701 0.20984
 C2009 C 0.74617 0.35657 0.19634
 C2010 C 0.75762 0.32680 0.20421
 C2011 C 0.74090 0.30742 0.22619
 C2012 C 0.71265 0.31872 0.23990
 H2013 H 0.67961 0.35546 0.24345
 H2014 H 0.75943 0.37130 0.17971
 H2015 H 0.77961 0.31918 0.19350
 H2016 H 0.69926 0.30552 0.25796
 C2017 C 0.70179 0.62778 0.28070
 C2018 C 0.71479 0.60834 0.25458
 C2019 C 0.73688 0.62013 0.23168
 C2020 C 0.74391 0.65101 0.23308
 C2021 C 0.72924 0.67093 0.25766
 C2022 C 0.70935 0.65845 0.28254
 H2023 H 0.68468 0.61983 0.29890
 H2024 H 0.74825 0.60572 0.21197
 H2025 H 0.76004 0.65938 0.21394
 H2026 H 0.69871 0.67246 0.30288
 C2027 C 0.19185 0.13620 0.77988
 C2028 C 0.21426 0.11344 0.78628
 C2029 C 0.24409 0.12184 0.79259
 C2030 C 0.25148 0.15280 0.79128
 C2031 C 0.22939 0.17566 0.78225
 C2032 C 0.19937 0.16668 0.77713
 H2033 H 0.16889 0.13006 0.77391
 H2034 H 0.26180 0.10442 0.79713
 H2035 H 0.27496 0.15845 0.79474
 H2036 H 0.18193 0.18222 0.76751
 C2037 C 0.27669 0.13585 0.27212
 C2038 C 0.29195 0.12391 0.24204
 C2039 C 0.29880 0.14430 0.21466
 C2040 C 0.29224 0.17581 0.21819
 C2041 C 0.27887 0.18793 0.24933
 C2042 C 0.26952 0.16719 0.27522
 H2043 H 0.27093 0.12124 0.29396
 H2044 H 0.30949 0.13605 0.19049
 H2045 H 0.29840 0.19070 0.19674
 H2046 H 0.25720 0.17516 0.29852
 C2047 C 0.76831 0.63556 0.76030
 C2048 C 0.78939 0.62745 0.73341
 C2049 C 0.79994 0.65071 0.71130
 C2050 C 0.79124 0.68146 0.71747
 C2051 C 0.77239 0.68978 0.74647
 C2052 C 0.75952 0.66619 0.76630
 H2053 H 0.75968 0.61842 0.77797
 H2054 H 0.81553 0.64522 0.68969
 H2055 H 0.80046 0.69879 0.70047
 H2056 H 0.74378 0.67135 0.78786
 C2057 C 0.86122 0.75923 0.24015
 C2058 C 0.86678 0.76931 0.20528
 C2059 C 0.84100 0.77463 0.18416
 C2060 C 0.81178 0.76950 0.19664
 C2061 C 0.80639 0.75994 0.23125
 C2062 C 0.83158 0.75458 0.25276
 H2063 H 0.87940 0.75556 0.25851
 H2064 H 0.84286 0.78025 0.15665
 H2065 H 0.79357 0.77194 0.17811
 H2066 H 0.82850 0.74635 0.27932
 C2067 C 0.36054 0.22898 0.69570
 C2068 C 0.38015 0.25014 0.70945
 C2069 C 0.37063 0.26743 0.73902
 C2070 C 0.34110 0.26481 0.75318
 C2071 C 0.32070 0.24489 0.73791
 C2072 C 0.33137 0.22637 0.70962
 H2073 H 0.36756 0.21490 0.67336
 H2074 H 0.38551 0.28386 0.75016
 H2075 H 0.33408 0.27929 0.77497
 H2076 H 0.31686 0.21049 0.69694
 C2077 C 0.36584 0.70909 0.79904
 C2078 C 0.38657 0.72974 0.78544
 C2079 C 0.37827 0.74731 0.75589
 C2080 C 0.34883 0.74604 0.74233
 C2081 C 0.32708 0.72749 0.75838
 C2082 C 0.33647 0.70863 0.78650
 H2083 H 0.37169 0.69443 0.82100
 H2084 H 0.39375 0.76346 0.74468
 H2085 H 0.34251 0.76126 0.72104
 H2086 H 0.32065 0.69476 0.80079
 C2087 C 0.88714 0.24979 0.25754
 C2088 C 0.89475 0.23707 0.29033
 C2089 C 0.87320 0.21985 0.30819
 C2090 C 0.84405 0.21762 0.29545
 C2091 C 0.83550 0.23151 0.26354
 C2092 C 0.85775 0.24700 0.24423
 H2093 H 0.90333 0.26318 0.24308
 H2094 H 0.87851 0.20891 0.33295
 H2095 H 0.82784 0.20584 0.31171
 H2096 H 0.85204 0.25836 0.21985
 C2097 C 0.14547 0.29203 0.28962
 C2098 C 0.12787 0.26859 0.27716
 C2099 C 0.14030 0.24820 0.25183
 C2100 C 0.17071 0.25010 0.24077
 C2101 C 0.18944 0.27178 0.25581
 C2102 C 0.17600 0.29327 0.27963
 H2103 H 0.13638 0.30766 0.30962
 H2104 H 0.12699 0.22980 0.24213
 H2105 H 0.18008 0.23286 0.22278
 H2106 H 0.18950 0.30956 0.29308
 C2107 C 0.63707 0.78735 0.80146
 C2108 C 0.61897 0.76656 0.78464
 C2109 C 0.63138 0.74902 0.75662
 C2110 C 0.66205 0.75140 0.74658
 C2111 C 0.68102 0.77059 0.76524
 C2112 C 0.66776 0.78886 0.79248
 H2113 H 0.62808 0.80058 0.82363
 H2114 H 0.61772 0.73253 0.74362
 H2115 H 0.67133 0.73656 0.72596
 H2116 H 0.68138 0.80291 0.80879
 C2117 C 0.64806 0.25298 0.67610
 C2118 C 0.62306 0.24662 0.69783
 C2119 C 0.62822 0.23912 0.73319
 C2120 C 0.65778 0.23914 0.74667
 C2121 C 0.68274 0.24629 0.72492
 C2122 C 0.67724 0.25308 0.68939
 H2123 H 0.64503 0.25820 0.64859
 H2124 H 0.60931 0.23424 0.75063
 H2125 H 0.66084 0.23431 0.77419
 H2126 H 0.69551 0.25888 0.67148
 C2127 C 0.11649 0.75671 0.23767
 C2128 C 0.11074 0.75827 0.20154
 C2129 C 0.13532 0.75808 0.17774
 C2130 C 0.16503 0.75688 0.18947
 C2131 C 0.17131 0.75602 0.22561
 C2132 C 0.14659 0.75590 0.24966
 H2133 H 0.09775 0.75685 0.25651
 H2134 H 0.13149 0.75887 0.14977
 H2135 H 0.18296 0.75677 0.16968
 H2136 H 0.15052 0.75518 0.27758
   
