data_POSCAR
  _audit_creation_date              2014-09-24
  _audit_creation_method            'ToBaCCo'
  _symmetry_space_group_name_H-M    'P1'
  _symmetry_Int_Tables_number       1
  _symmetry_cell_setting            triclinic
  loop_
  _symmetry_equiv_pos_as_xyz
 x,y,z
_cell_length_a 36.8785
_cell_length_b 36.7851
_cell_length_c 36.1545
_cell_angle_alpha 90.213300
_cell_angle_beta 89.900800
_cell_angle_gamma 90.013800
loop_
  _atom_site_label
  _atom_site_type_symbol
  _atom_site_fract_x
  _atom_site_fract_y
  _atom_site_fract_z
C1 C 0.36644 1.36496 0.31707
 C2 C 0.33331 1.37666 0.33302
 C3 C 0.31299 1.35493 0.35786
 C4 C 0.32819 1.32106 0.36795
 C5 C 0.36373 1.31106 0.35741
 C6 C 0.38264 1.33385 0.33303
 H7 H 0.32389 1.40350 0.32731
 H8 H 0.31228 1.30182 0.38345
 H9 H 0.41058 1.32738 0.32779
 C10 C 0.35892 0.86472 0.81685
 C11 C 0.32238 0.87060 0.82624
 C12 C 0.30552 0.85300 0.85652
 C13 C 0.32469 0.82327 0.87197
 C14 C 0.36113 0.81567 0.86261
 C15 C 0.37850 0.83856 0.83715
 H16 H 0.30694 0.88772 0.80829
 H17 H 0.31129 0.80491 0.89045
 H18 H 0.40725 0.83518 0.83269
 C19 C 0.86665 1.37000 0.81904
 C20 C 0.88099 1.33678 0.83222
 C21 C 0.86169 1.31441 0.85677
 C22 C 0.82679 1.32558 0.86784
 C23 C 0.81293 1.36030 0.85898
 C24 C 0.83412 1.38243 0.83540
 H25 H 0.90736 1.32782 0.82391
 H26 H 0.81003 1.30637 0.88244
 H27 H 0.82597 1.41005 0.83077
 C28 C 0.85934 0.85942 0.31352
 C29 C 0.82352 0.86716 0.32474
 C30 C 0.80751 0.85083 0.35601
 C31 C 0.82621 0.82121 0.37198
 C32 C 0.86145 0.81097 0.36026
 C33 C 0.87834 0.83223 0.33309
 H34 H 0.80731 0.88451 0.30762
 H35 H 0.81317 0.80548 0.39301
 H36 H 0.90677 0.82765 0.32790
 C37 C 0.64351 0.63768 0.30974
 C38 C 0.62008 0.66202 0.32898
 C39 C 0.63157 0.68143 0.36048
 C40 C 0.66516 0.67083 0.37640
 C41 C 0.68732 0.64396 0.36022
 C42 C 0.67746 0.63031 0.32525
 H43 H 0.59267 0.66603 0.31966
 H44 H 0.67470 0.68317 0.40142
 H45 H 0.69657 0.61396 0.30990
 C46 C 0.64862 0.13876 0.80824
 C47 C 0.67846 0.12580 0.82879
 C48 C 0.68673 0.13925 0.86459
 C49 C 0.66435 0.16648 0.87947
 C50 C 0.63797 0.18441 0.85766
 C51 C 0.63143 0.17071 0.82195
 H52 H 0.69575 0.10548 0.81688
 H53 H 0.66814 0.17377 0.90813
 H54 H 0.61404 0.18641 0.80433
 C55 C 1.14399 0.63920 0.81035
 C56 C 1.12064 0.66287 0.83033
 C57 C 1.13286 0.68295 0.86105
 C58 C 1.16739 0.67394 0.87567
 C59 C 1.18966 0.64746 0.85918
 C60 C 1.17884 0.63310 0.82463
 H61 H 1.09275 0.66595 0.82215
 H62 H 1.17747 0.68745 0.89984
 H63 H 1.19783 0.61726 0.80861
 C64 C 1.14808 0.13893 0.30959
 C65 C 1.13162 0.17170 0.32231
 C66 C 1.13809 0.18601 0.35780
 C67 C 1.16386 0.16802 0.38024
 C68 C 1.18519 0.13915 0.36676
 C69 C 1.17635 0.12469 0.33145
 H70 H 1.11478 0.18743 0.30413
 H71 H 1.16701 0.17579 0.40884
 H72 H 1.19227 0.10285 0.32044
 C73 C 0.63223 1.36331 0.68426
 C74 C 0.66757 1.37610 0.67545
 C75 C 0.68799 1.36182 0.64564
 C76 C 0.67437 1.32940 0.62914
 C77 C 0.63917 1.31650 0.63604
 C78 C 0.61758 1.33566 0.66191
 H79 H 0.67972 1.39644 0.69261
 H80 H 0.69156 1.31262 0.61219
 H81 H 0.58946 1.32843 0.66544
 C82 C 0.63080 0.87066 1.18077
 C83 C 0.66560 0.88435 1.17177
 C84 C 0.68762 0.86821 1.14462
 C85 C 0.67548 0.83483 1.12901
 C86 C 0.64022 0.82150 1.13529
 C87 C 0.61755 0.84133 1.15967
 H88 H 0.67633 0.90723 1.18634
 H89 H 0.69366 0.81837 1.11272
 H90 H 0.58956 0.83352 1.16280
 C91 C 1.13450 1.36554 1.18369
 C92 C 1.12081 1.33640 1.16246
 C93 C 1.14253 1.31745 1.13645
 C94 C 1.17718 1.33131 1.12873
 C95 C 1.18998 1.36446 1.14435
 C96 C 1.16917 1.37942 1.17342
 H97 H 1.09295 1.32843 1.16607
 H98 H 1.19473 1.31486 1.11176
 H99 H 1.18087 1.40115 1.18891
 C100 C 1.13024 0.86554 0.68175
 C101 C 1.16583 0.87787 0.67343
 C102 C 1.18658 0.86291 0.64431
 C103 C 1.17280 0.83093 0.62740
 C104 C 1.13728 0.81860 0.63362
 C105 C 1.11558 0.83798 0.65928
 H106 H 1.17814 0.89819 0.69054
 H107 H 1.18989 0.81417 0.61044
 H108 H 1.08733 0.83109 0.66254
 C109 C 0.35365 0.64070 0.68843
 C110 C 0.37551 0.66703 0.67019
 C111 C 0.36186 0.68853 0.64128
 C112 C 0.32759 0.67893 0.62649
 C113 C 0.30781 0.64869 0.63933
 C114 C 0.31960 0.63294 0.67298
 H115 H 0.40327 0.67129 0.67824
 H116 H 0.31620 0.69509 0.60494
 H117 H 0.30161 0.61548 0.68816
 C118 C 0.35212 0.13903 1.19178
 C119 C 0.36740 0.17236 1.17998
 C120 C 0.36083 0.18630 1.14445
 C121 C 0.33647 0.16683 1.12130
 C122 C 0.31638 0.13689 1.13436
 C123 C 0.32526 0.12309 1.16964
 H124 H 0.38422 0.18773 1.19874
 H125 H 0.33297 0.17483 1.09288
 H126 H 0.31136 0.09982 1.18037
 C127 C 0.84916 0.63954 1.19135
 C128 C 0.86546 0.67235 1.17886
 C129 C 0.85857 0.68673 1.14352
 C130 C 0.83360 0.66779 1.12069
 C131 C 0.81258 0.63880 1.13431
 C132 C 0.82050 0.62555 1.17001
 H133 H 0.88248 0.68783 1.19727
 H134 H 0.83009 0.67561 1.09221
 H135 H 0.80443 0.60390 1.18103
 C136 C 0.85954 0.13690 0.68761
 C137 C 0.87439 0.17103 0.67735
 C138 C 0.85950 0.19222 0.64887
 C139 C 0.82649 0.18005 0.63291
 C140 C 0.81216 0.14511 0.63977
 C141 C 0.83046 0.12354 0.66635
 H142 H 0.89683 0.18216 0.69232
 H143 H 0.81110 0.19845 0.61609
 H144 H 0.82361 0.09531 0.66965
 C145 C 1.35348 0.35697 0.69300
 C146 C 1.37023 0.32494 0.67911
 C147 C 1.36328 0.31140 0.64328
 C148 C 1.33720 0.33040 0.62172
 C149 C 1.31611 0.35874 0.63648
 C150 C 1.32493 0.37179 0.67215
 H151 H 1.38733 0.30925 0.69697
 H152 H 1.33335 0.32395 0.59288
 H153 H 1.30902 0.39325 0.68394
 C154 C 1.35338 0.85982 1.19012
 C155 C 1.32420 0.87342 1.16933
 C156 C 1.31454 0.85853 1.13450
 C157 C 1.33566 0.82979 1.12074
 C158 C 1.36229 0.81204 1.14274
 C159 C 1.36991 0.82724 1.17762
 H160 H 1.30872 0.89541 1.18069
 H161 H 1.33142 0.82198 1.09230
 H162 H 1.38752 0.81260 1.19593
 C163 C 0.85649 0.35917 1.18970
 C164 C 0.87361 0.32733 1.17596
 C165 C 0.86660 0.31339 1.14031
 C166 C 0.83996 0.33179 1.11886
 C167 C 0.81829 0.35962 1.13378
 C168 C 0.82728 0.37307 1.16924
 H169 H 0.89107 0.31214 1.19390
 H170 H 0.83599 0.32524 1.09008
 H171 H 0.81100 0.39405 1.18134
 C172 C 0.85193 0.85816 0.68959
 C173 C 0.82345 0.87279 0.66830
 C174 C 0.81414 0.85851 0.63302
 C175 C 0.83549 0.82995 0.61898
 C176 C 0.86134 0.81172 0.64131
 C177 C 0.86773 0.82536 0.67694
 H178 H 0.80807 0.89488 0.67966
 H179 H 0.83154 0.82203 0.59053
 H180 H 0.88450 0.80953 0.69508
 C181 C 0.63174 0.63502 0.68295
 C182 C 0.66244 0.62092 0.66443
 C183 C 0.68410 0.64273 0.64101
 C184 C 0.67195 0.67826 0.63355
 C185 C 0.63807 0.69098 0.64651
 C186 C 0.61920 0.66959 0.67218
 H187 H 0.66942 0.59277 0.66831
 H188 H 0.68901 0.69635 0.61786
 H189 H 0.59465 0.68028 0.68369
 C190 C 0.64015 1.13474 1.18199
 C191 C 0.67096 1.12034 1.16411
 C192 C 0.69241 1.14161 1.14027
 C193 C 0.67981 1.17659 1.13101
 C194 C 0.64582 1.18982 1.14333
 C195 C 0.62761 1.16918 1.17047
 H196 H 0.67844 1.09245 1.16894
 H197 H 0.69736 1.19422 1.11538
 H198 H 0.60327 1.17970 1.18237
 C199 C 0.13523 0.63242 1.18291
 C200 C 0.12197 0.66613 1.16997
 C201 C 0.14100 0.68738 1.14413
 C202 C 0.17544 0.67486 1.13249
 C203 C 0.18835 0.64006 1.14167
 C204 C 0.16704 0.61872 1.16579
 H205 H 0.09656 0.67615 1.17977
 H206 H 0.19291 0.69290 1.11724
 H207 H 0.17490 0.59096 1.17040
 C208 C 0.13646 1.13739 0.68216
 C209 C 0.12425 1.17231 0.67169
 C210 C 0.14103 1.19243 0.64327
 C211 C 0.17429 1.17862 0.62926
 C212 C 0.18681 1.14340 0.63782
 C213 C 0.16575 1.12236 0.66237
 H214 H 0.10139 1.18377 0.68555
 H215 H 0.19133 1.19602 0.61287
 H216 H 0.17228 1.09415 0.66647
 C217 C 1.37127 0.63628 0.32046
 C218 C 1.38104 0.66956 0.33668
 C219 C 1.35840 0.68796 0.36227
 C220 C 1.32527 0.67122 0.37177
 C221 C 1.31664 0.63533 0.36046
 C222 C 1.34076 0.61795 0.33585
 H223 H 1.40711 0.68057 0.33002
 H224 H 1.30556 0.68694 0.38693
 H225 H 1.33556 0.58992 0.32928
 C226 C 1.36389 1.14020 0.81538
 C227 C 1.37316 1.17320 0.83237
 C228 C 1.36022 1.18292 0.86800
 C229 C 1.33352 1.16014 0.88383
 C230 C 1.31832 1.13010 0.86432
 C231 C 1.33662 1.11869 0.83222
 H232 H 1.38962 1.19173 0.81667
 H233 H 1.32559 1.16517 0.91197
 H234 H 1.32958 1.09284 0.82048
 C235 C 0.86049 0.64496 0.81187
 C236 C 0.86953 0.67819 0.82852
 C237 C 0.85701 0.68765 0.86429
 C238 C 0.83072 0.66492 0.88067
 C239 C 0.81530 0.63484 0.86143
 C240 C 0.83327 0.62347 0.82902
 H241 H 0.88623 0.69669 0.81302
 H242 H 0.82289 0.67066 0.90870
 H243 H 0.82616 0.59758 0.81743
 C244 C 0.87252 1.13529 0.32235
 C245 C 0.88554 1.16463 0.34340
 C246 C 0.86262 1.18431 0.36760
 C247 C 0.82751 1.17083 0.37399
 C248 C 0.81555 1.13732 0.35876
 C249 C 0.83757 1.12149 0.33120
 H250 H 0.91349 1.17264 0.34019
 H251 H 0.80928 1.18753 0.38988
 H252 H 0.82677 1.09905 0.31594
 C253 C 0.64153 0.35939 0.31033
 C254 C 0.66913 0.37430 0.33243
 C255 C 0.68707 0.35377 0.36003
 C256 C 0.67393 0.31867 0.36727
 C257 C 0.64186 0.30478 0.35059
 C258 C 0.62792 0.32457 0.32039
 H259 H 0.67566 0.40252 0.32846
 H260 H 0.68984 0.30168 0.38508
 H261 H 0.60728 0.31225 0.30377
 C262 C 0.63841 0.86627 0.81270
 C263 C 0.66583 0.88120 0.83486
 C264 C 0.68467 0.85999 0.86114
 C265 C 0.67222 0.82436 0.86740
 C266 C 0.64013 0.81070 0.85071
 C267 C 0.62531 0.83118 0.82158
 H268 H 0.67236 0.90950 0.83099
 H269 H 0.68839 0.80706 0.88462
 H270 H 0.60403 0.81949 0.80518
 C271 C 0.14826 0.35924 0.80737
 C272 C 0.17631 0.37431 0.82886
 C273 C 0.18441 0.36136 0.86474
 C274 C 0.16369 0.33220 0.87844
 C275 C 0.13927 0.31264 0.85556
 C276 C 0.13263 0.32627 0.82000
 H277 H 0.19154 0.39657 0.81782
 H278 H 0.16695 0.32475 0.90705
 H279 H 0.11614 0.31032 0.80145
 C280 C 0.13834 0.86206 0.31003
 C281 C 0.16707 0.87592 0.33150
 C282 C 0.18527 0.85454 0.35837
 C283 C 0.17196 0.81936 0.36485
 C284 C 0.13932 0.80661 0.34869
 C285 C 0.12414 0.82758 0.32018
 H286 H 0.17418 0.90403 0.32775
 H287 H 0.18774 0.80171 0.38211
 H288 H 0.10212 0.81606 0.30484
 O289 O 0.95423 0.87028 0.82331
 O290 O 0.95412 0.83047 0.77792
 C291 C 0.94177 0.85920 0.79256
 C292 C 0.91143 0.87816 0.77399
 C293 C 0.89888 0.86508 0.73997
 H294 H 0.91571 0.84555 0.72581
 O295 O 1.03287 1.12484 0.81451
 O296 O 1.03234 1.16473 0.76935
 C297 C 1.04470 1.13592 0.78355
 C298 C 1.07444 1.11669 0.76442
 C299 C 1.08648 1.12900 0.72987
 H300 H 1.06969 1.14838 0.71565
 O301 O 0.81372 0.96452 0.87866
 O302 O 0.76981 0.96606 0.83763
 C303 C 0.78405 0.95218 0.86607
 C304 C 0.76604 0.92068 0.88334
 C305 C 0.73626 0.90469 0.86570
 H306 H 0.72845 0.91529 0.83913
 O307 O 1.18247 1.02728 0.86415
 O308 O 1.22309 1.02517 0.81921
 C309 C 1.21217 1.03835 0.85002
 C310 C 1.23204 1.06828 0.86974
 C311 C 1.26673 1.08134 0.85885
 H312 H 1.28017 1.06749 0.83635
 O313 O 0.86267 0.81970 0.97299
 O314 O 0.81927 0.77837 0.97551
 C315 C 0.84842 0.79040 0.96098
 C316 C 0.86638 0.77140 0.92936
 C317 C 0.85283 0.73878 0.91362
 H318 H 0.82787 0.72771 0.92446
 O319 O 1.12986 1.17808 0.95549
 O320 O 1.17265 1.21953 0.95278
 C321 C 1.14289 1.20673 0.94128
 C322 C 1.12418 1.22563 0.91076
 C323 C 1.13892 1.25783 0.89681
 H324 H 1.16443 1.26705 0.90800
 O325 O 0.85915 1.03563 0.82411
 O326 O 0.81517 1.03680 0.78286
 C327 C 0.84573 1.04818 0.79430
 C328 C 0.86647 1.07628 0.77346
 C329 C 0.85334 1.09178 0.73756
 H330 H 0.82628 1.08443 0.72884
 O331 O 1.12027 0.96237 0.81892
 O332 O 1.16040 0.96042 0.77419
 C333 C 1.13041 0.95042 0.78767
 C334 C 1.10925 0.92298 0.76700
 C335 C 1.12065 0.91293 0.73145
 H336 H 1.13976 0.93045 0.71759
 O337 O 1.02606 0.81427 0.86515
 O338 O 1.02436 0.77323 0.82041
 C339 C 1.03784 0.78489 0.85062
 C340 C 1.06736 0.76503 0.87013
 C341 C 1.08337 0.73263 0.85632
 H342 H 1.07513 0.72285 0.82940
 O343 O 0.96279 1.17969 0.86092
 O344 O 0.96186 1.21925 0.81518
 C345 C 0.94994 1.20831 0.84624
 C346 C 0.92066 1.22835 0.86590
 C347 C 0.90511 1.26024 0.85137
 H348 H 0.91415 1.26949 0.82456
 O349 O 0.82261 1.14008 0.96694
 O350 O 0.78189 1.18414 0.96907
 C351 C 0.79275 1.15384 0.95590
 C352 C 0.77140 1.13335 0.92763
 C353 C 0.73855 1.14634 0.91211
 H354 H 0.72895 1.17310 0.91986
 O355 O 1.17180 0.85804 0.95943
 O356 O 1.21199 0.81369 0.95731
 C357 C 1.19984 0.84364 0.94507
 C358 C 1.21807 0.86201 0.91368
 C359 C 1.25328 0.84833 0.89893
 H360 H 1.26412 0.82487 0.91266
 O361 O 0.96225 1.12380 0.81716
 O362 O 0.96239 1.16329 0.77173
 C363 C 0.94994 1.13476 0.78646
 C364 C 0.91941 1.11619 0.76816
 C365 C 0.90943 1.12648 0.73418
 H366 H 0.92805 1.14287 0.71831
 O367 O 1.02521 0.86624 0.81708
 O368 O 1.02285 0.82398 0.77360
 C369 C 1.03660 0.85318 0.78649
 C370 C 1.06629 0.87274 0.76678
 C371 C 1.08147 0.86023 0.73297
 H372 H 1.07201 0.83469 0.72169
 O373 O 1.17466 0.95618 0.86464
 O374 O 1.21499 0.95412 0.81978
 C375 C 1.20264 0.94197 0.85002
 C376 C 1.22059 0.91040 0.86753
 C377 C 1.25285 0.89843 0.85513
 H378 H 1.26590 0.91461 0.83428
 O379 O 0.81505 1.03599 0.88101
 O380 O 0.77125 1.03691 0.83997
 C381 C 0.78522 1.04878 0.86954
 C382 C 0.76719 1.07937 0.88863
 C383 C 0.73294 1.09056 0.87675
 H384 H 0.71783 1.07246 0.85893
 O385 O 0.87653 1.18569 0.96467
 O386 O 0.83411 1.22782 0.96507
 C387 C 0.86296 1.21464 0.95145
 C388 C 0.87959 1.23208 0.91869
 C389 C 0.86599 1.26507 0.90514
 H390 H 0.84601 1.27941 0.92152
 O391 O 1.11776 0.81290 0.96462
 O392 O 1.15771 0.76872 0.96313
 C393 C 1.12816 0.78231 0.95228
 C394 C 1.10796 0.76294 0.92303
 C395 C 1.11986 0.72858 0.91169
 H396 H 1.13798 0.71425 0.92986
 O397 O 1.13077 1.03224 0.81594
 O398 O 1.17125 1.02948 0.77101
 C399 C 1.14333 1.04394 0.78536
 C400 C 1.12473 1.07426 0.76639
 C401 C 1.13877 1.08968 0.73366
 H402 H 1.16482 1.08028 0.72388
 O403 O 0.85781 0.96487 0.82393
 O404 O 0.81346 0.96549 0.78290
 C405 C 0.84322 0.95226 0.79468
 C406 C 0.86145 0.92145 0.77535
 C407 C 0.84719 0.90543 0.74284
 H408 H 0.82187 0.91583 0.73243
 O409 O 1.03364 1.18005 0.85994
 O410 O 1.03323 1.22001 0.81451
 C411 C 1.04598 1.20897 0.84525
 C412 C 1.07654 1.22822 0.86412
 C413 C 1.09055 1.26198 0.85181
 H414 H 1.07671 1.27576 0.82958
 O415 O 0.95654 0.82118 0.87521
 O416 O 0.95349 0.77953 0.83173
 C417 C 0.94336 0.79175 0.86286
 C418 C 0.91479 0.77193 0.88336
 C419 C 0.90336 0.73784 0.87073
 H420 H 0.91985 0.72460 0.85002
 O421 O 1.17807 1.12630 0.95724
 O422 O 1.22068 1.16783 0.95458
 C423 C 1.20782 1.13770 0.94398
 C424 C 1.22826 1.11683 0.91571
 C425 C 1.26201 1.12982 0.90403
 H426 H 1.27097 1.15503 0.91597
 O427 O 0.81229 0.86876 0.97359
 O428 O 0.77030 0.82596 0.97533
 C429 C 0.78261 0.85526 0.96162
 C430 C 0.76385 0.87361 0.93038
 C431 C 0.73209 0.85934 0.91379
 H432 H 0.71918 0.83617 0.92651
 Cu433 Cu 0.99118 0.84741 0.84959
 Cu434 Cu 0.98617 0.79788 0.79781
 Cu435 Cu 0.99811 1.14830 0.84307
 Cu436 Cu 0.99725 1.19488 0.78801
 Cu437 Cu 0.84111 1.00046 0.85601
 Cu438 Cu 0.78769 1.00197 0.80786
 Cu439 Cu 1.14818 0.99504 0.84580
 Cu440 Cu 1.19571 0.99095 0.79186
 C441 C 0.89308 0.90678 0.79109
 H442 H 0.90322 0.91719 0.81716
 C443 C 0.86560 0.87642 0.72468
 C444 C 1.09304 1.08867 0.78195
 H445 H 1.08317 1.07860 0.80823
 C446 C 1.11995 1.11768 0.71485
 C447 C 0.77970 0.90502 0.91546
 H448 H 0.80361 0.91675 0.92813
 C449 C 0.71776 0.87482 0.88088
 C450 C 1.21383 1.08591 0.89901
 H451 H 1.18728 1.07672 0.90779
 C452 C 1.28274 1.11241 0.87647
 C453 C 0.89692 0.78796 0.91323
 H454 H 0.90637 0.81408 0.92324
 C455 C 0.87116 0.72151 0.88361
 C456 C 1.09313 1.21108 0.89442
 H457 H 1.08266 1.18548 0.90462
 C458 C 1.12214 1.27741 0.86829
 C459 C 0.89748 1.08918 0.78804
 H460 H 0.90714 1.07974 0.81461
 C461 C 0.87328 1.11703 0.71875
 C462 C 1.08133 0.90365 0.78387
 H463 H 1.07226 0.91208 0.81109
 C464 C 1.10960 0.88007 0.71502
 C465 C 1.08097 0.78036 0.90296
 H466 H 1.07142 0.80662 0.91249
 C467 C 1.11074 0.71420 0.87683
 C468 C 0.90739 1.21448 0.89939
 H469 H 0.91813 1.18923 0.91011
 C470 C 0.87781 1.27944 0.87103
 C471 C 0.78566 1.10018 0.91474
 H472 H 0.81193 1.09087 0.92414
 C473 C 0.71917 1.12511 0.88567
 C474 C 1.20273 0.89133 0.89826
 H475 H 1.17692 0.90146 0.90825
 C476 C 1.27073 0.86498 0.87039
 O477 O 1.03690 0.87690 1.17868
 O478 O 1.03790 0.83800 1.22446
 C479 C 1.04983 0.86661 1.20933
 C480 C 1.08020 0.88600 1.22753
 C481 C 1.09178 0.87355 1.26447
 H482 H 1.07261 0.85714 1.27963
 O483 O 0.97631 1.13613 1.18616
 O484 O 0.97943 1.17774 1.23021
 C485 C 0.96543 1.14882 1.21712
 C486 C 0.93623 1.12897 1.23717
 C487 C 0.92127 1.14124 1.27115
 H488 H 0.93025 1.16708 1.28209
 O489 O 0.82860 1.04367 1.13770
 O490 O 0.78861 1.04667 1.18278
 C491 C 0.80039 1.05780 1.15185
 C492 C 0.78110 1.08737 1.13216
 C493 C 0.74767 1.10061 1.14526
 H494 H 0.73717 1.08982 1.17088
 O495 O 1.18608 0.96167 1.11789
 O496 O 1.23046 0.96156 1.15836
 C497 C 1.21603 0.94904 1.12924
 C498 C 1.23389 0.91822 1.11026
 C499 C 1.26819 0.90717 1.12202
 H500 H 1.28326 0.92554 1.13952
 O501 O 1.12446 0.81392 1.03637
 O502 O 1.16466 0.76968 1.03447
 C503 C 1.13704 0.78436 1.04900
 C504 C 1.12059 0.76744 1.08177
 C505 C 1.13684 0.73410 1.09741
 H506 H 1.15674 0.72021 1.08056
 O507 O 0.88206 1.18164 1.03755
 O508 O 0.84146 1.22497 1.03908
 C509 C 0.87030 1.21112 1.05122
 C510 C 0.88839 1.22985 1.08232
 C511 C 0.87096 1.26269 1.09796
 H512 H 0.84494 1.26973 1.08658
 O513 O 0.87461 0.97006 1.18766
 O514 O 0.83407 0.97243 1.23261
 C515 C 0.86204 0.95815 1.21811
 C516 C 0.87937 0.92651 1.23584
 C517 C 0.86300 0.90949 1.26924
 H518 H 0.84146 0.92425 1.28292
 O519 O 1.14476 1.03507 1.17333
 O520 O 1.18929 1.03502 1.21404
 C521 C 1.15939 1.04801 1.20246
 C522 C 1.14075 1.07855 1.22217
 C523 C 1.15454 1.09435 1.25784
 H524 H 1.18022 1.08417 1.26746
 O525 O 0.96619 0.81825 1.13755
 O526 O 0.96737 0.77854 1.18320
 C527 C 0.95399 0.78943 1.15256
 C528 C 0.92266 0.77047 1.13427
 C529 C 0.90817 0.73692 1.14682
 H530 H 0.92203 0.72288 1.16886
 O531 O 1.04611 1.18105 1.12952
 O532 O 1.04913 1.22246 1.17335
 C533 C 1.05977 1.21005 1.14252
 C534 C 1.08856 1.22980 1.12240
 C535 C 1.10273 1.26191 1.13738
 H536 H 1.09309 1.27048 1.16423
 O537 O 0.82145 0.87795 1.04451
 O538 O 0.77870 0.83664 1.04727
 C539 C 0.79197 0.86650 1.05809
 C540 C 0.77307 0.88620 1.08794
 C541 C 0.73904 0.87394 1.09937
 H542 H 0.72539 0.85453 1.08184
 O543 O 1.18388 1.13432 1.02847
 O544 O 1.22697 1.17588 1.02515
 C545 C 1.21418 1.14703 1.03943
 C546 C 1.23424 1.12723 1.06874
 C547 C 1.26636 1.14100 1.08496
 H548 H 1.27561 1.16771 1.07692
 O549 O 1.04647 1.12885 1.17768
 O550 O 1.04894 1.17019 1.22153
 C551 C 1.06003 1.14065 1.20755
 C552 C 1.09034 1.12180 1.22589
 C553 C 1.10101 1.13296 1.25942
 H554 H 1.08313 1.15086 1.27453
 O555 O 0.96610 0.87124 1.18521
 O556 O 0.96618 0.82992 1.22911
 C557 C 0.95339 0.85863 1.21525
 C558 C 0.92304 0.87670 1.23426
 C559 C 0.90669 0.86041 1.26297
 H560 H 0.91538 0.83341 1.27049
 O561 O 1.18847 1.03264 1.11715
 O562 O 1.23286 1.03198 1.15765
 C563 C 1.21891 1.04441 1.12834
 C564 C 1.23748 1.07457 1.10913
 C565 C 1.27138 1.08640 1.12170
 H566 H 1.28595 1.06874 1.14018
 O567 O 0.82162 0.97270 1.14193
 O568 O 0.78230 0.97372 1.18811
 C569 C 0.79299 0.96046 1.15733
 C570 C 0.77354 0.92988 1.13862
 C571 C 0.74081 0.91454 1.15213
 H572 H 0.73007 0.92519 1.17772
 O573 O 1.13517 1.18517 1.02790
 O574 O 1.17819 1.22681 1.02468
 C575 C 1.14909 1.21491 1.03930
 C576 C 1.13157 1.23392 1.07128
 C577 C 1.14413 1.26759 1.08562
 H578 H 1.16520 1.28185 1.07074
 O579 O 0.86685 0.82371 1.04586
 O580 O 0.82550 0.78068 1.04602
 C581 C 0.85474 0.79387 1.05854
 C582 C 0.87395 0.77418 1.08851
 C583 C 0.85905 0.74205 1.10260
 H584 H 0.83317 0.73335 1.09185
 O585 O 1.14212 0.96413 1.17467
 O586 O 1.18669 0.96337 1.21532
 C587 C 1.15583 0.95194 1.20447
 C588 C 1.13492 0.92416 1.22578
 C589 C 1.14689 0.90962 1.25801
 H590 H 1.17305 0.91797 1.26849
 O591 O 0.88204 1.04004 1.18530
 O592 O 0.84363 1.03979 1.23175
 C593 C 0.87284 1.05079 1.21731
 C594 C 0.89433 1.07797 1.23776
 C595 C 0.88377 1.08741 1.27366
 H596 H 0.86568 1.06919 1.28795
 O597 O 0.97574 1.18600 1.13584
 O598 O 0.97889 1.22796 1.17960
 C599 C 0.96468 1.21580 1.14990
 C600 C 0.93403 1.23471 1.13124
 C601 C 0.91881 1.26583 1.14427
 H602 H 0.93131 1.27904 1.16772
 O603 O 1.03726 0.81781 1.13889
 O604 O 1.03711 0.77755 1.18404
 C605 C 1.04958 0.78885 1.15345
 C606 C 1.07901 0.76891 1.13439
 C607 C 1.09550 0.73999 1.14976
 H608 H 1.08749 0.73226 1.17737
 O609 O 1.17895 0.85772 1.03124
 O610 O 1.21921 0.81330 1.02958
 C611 C 1.20868 0.84387 1.04240
 C612 C 1.23003 0.86446 1.07077
 C613 C 1.26276 0.85142 1.08658
 H614 H 1.27224 0.82464 1.07884
 O615 O 0.82734 1.13736 1.03853
 O616 O 0.78506 1.17981 1.03855
 C617 C 0.79774 1.15019 1.05113
 C618 C 0.77887 1.13116 1.08172
 C619 C 0.74435 1.14240 1.09373
 H620 H 0.73028 1.16269 1.07769
 Cu621 Cu 1.00139 0.84985 1.15515
 Cu622 Cu 1.00356 0.80402 1.21020
 Cu623 Cu 1.01040 1.15377 1.15278
 Cu624 Cu 1.01559 1.20326 1.20519
 Cu625 Cu 0.84542 0.85163 1.00857
 Cu626 Cu 0.79434 0.80271 1.01359
 Cu627 Cu 1.14433 0.84041 0.99820
 Cu628 Cu 1.19139 0.78675 0.99537
 Cu629 Cu 0.85640 1.15658 1.00137
 Cu630 Cu 0.80893 1.20921 1.00476
 Cu631 Cu 1.15210 1.15192 0.99298
 Cu632 Cu 1.20336 1.20124 0.98781
 Cu633 Cu 0.85557 1.00642 1.15821
 Cu634 Cu 0.80830 1.01059 1.21237
 Cu635 Cu 1.16063 0.99835 1.14188
 Cu636 Cu 1.21448 0.99773 1.18946
 C637 C 1.10029 0.91065 1.20968
 H638 H 1.09239 0.91918 1.18221
 C639 C 1.12479 0.88146 1.27845
 C640 C 0.92141 1.09790 1.22028
 H641 H 0.93003 1.08977 1.19281
 C642 C 0.89388 1.12075 1.28961
 C643 C 0.79650 1.10298 1.10053
 H644 H 0.82290 1.09387 1.09115
 C645 C 0.72836 1.12780 1.12601
 C646 C 1.21557 0.89749 1.08391
 H647 H 1.18932 0.90679 1.07446
 C648 C 1.28207 0.87264 1.11321
 C649 C 1.09240 0.78303 1.09878
 H650 H 1.08029 0.80737 1.08740
 C651 C 1.12570 0.72032 1.13013
 C652 C 0.91831 1.21684 1.09803
 H653 H 0.93062 1.19237 1.08696
 C654 C 0.88499 1.28145 1.12671
 C655 C 0.90867 0.91126 1.22022
 H656 H 0.92107 0.92315 1.19591
 C657 C 0.87545 0.87738 1.28258
 C658 C 1.11072 1.09292 1.20693
 H659 H 1.10058 1.08315 1.18061
 C660 C 1.13612 1.12146 1.27593
 C661 C 0.90562 0.78805 1.10436
 H662 H 0.91629 0.81351 1.09406
 C663 C 0.87603 0.72199 1.13079
 C664 C 1.10291 1.21614 1.08946
 H665 H 1.09255 1.19064 1.07877
 C666 C 1.12954 1.28223 1.11905
 C667 C 0.78968 0.91459 1.10694
 H668 H 0.81583 0.92414 1.09735
 C669 C 0.72300 0.88579 1.13252
 C670 C 1.21969 1.09444 1.08191
 H671 H 1.19382 1.08475 1.07172
 C672 C 1.28519 1.12093 1.11241
 O673 O 0.95800 0.37278 0.32356
 O674 O 0.95534 0.33130 0.27988
 C675 C 0.94445 0.36100 0.29365
 C676 C 0.91424 0.37989 0.27505
 C677 C 0.90267 0.36712 0.24055
 H678 H 0.92040 0.34862 0.22609
 O679 O 1.02890 0.61830 0.31214
 O680 O 1.02860 0.65793 0.26673
 C681 C 1.04093 0.62914 0.28116
 C682 C 1.07127 0.60992 0.26267
 C683 C 1.08521 0.62354 0.22675
 H684 H 1.06747 0.64175 0.21220
 O685 O 0.81219 0.46225 0.38073
 O686 O 0.76840 0.46227 0.33965
 C687 C 0.78304 0.44888 0.36806
 C688 C 0.76611 0.41654 0.38476
 C689 C 0.73758 0.39945 0.36616
 H690 H 0.73037 0.40980 0.33935
 O691 O 1.18404 0.52898 0.36415
 O692 O 1.22409 0.52754 0.31869
 C693 C 1.21286 0.54125 0.34915
 C694 C 1.23189 0.57244 0.36777
 C695 C 1.26520 0.58725 0.35499
 H696 H 1.27721 0.57600 0.33019
 O697 O 0.86594 0.31808 0.47346
 O698 O 0.82441 0.27491 0.47669
 C699 C 0.85309 0.28787 0.46211
 C700 C 0.87132 0.26914 0.43057
 C701 C 0.85958 0.23500 0.41691
 H702 H 0.83860 0.22058 0.43177
 O703 O 1.12589 0.67633 0.45358
 O704 O 1.16786 0.71841 0.45048
 C705 C 1.13832 0.70506 0.43920
 C706 C 1.11995 0.72299 0.40808
 C707 C 1.13285 0.75651 0.39565
 H708 H 1.15207 0.77046 0.41304
 O709 O 0.85453 0.53439 0.32514
 O710 O 0.81036 0.53405 0.28396
 C711 C 0.84036 0.54677 0.29563
 C712 C 0.85948 0.57646 0.27558
 C713 C 0.84384 0.59429 0.24198
 H714 H 0.81694 0.58591 0.23407
 O715 O 1.12411 0.46011 0.32158
 O716 O 1.16389 0.45864 0.27653
 C717 C 1.13425 0.44811 0.29036
 C718 C 1.11307 0.42084 0.26956
 C719 C 1.12526 0.41068 0.23197
 H720 H 1.14328 0.42963 0.21866
 O721 O 1.02809 0.31495 0.36601
 O722 O 1.02474 0.27287 0.32239
 C723 C 1.03916 0.28509 0.35196
 C724 C 1.07032 0.26635 0.37015
 C725 C 1.08637 0.23405 0.35599
 H726 H 1.07344 0.22038 0.33302
 O727 O 0.96249 0.67564 0.36127
 O728 O 0.96125 0.71532 0.31567
 C729 C 0.95016 0.70483 0.34732
 C730 C 0.92228 0.72582 0.36851
 C731 C 0.90693 0.75836 0.35493
 H732 H 0.91512 0.76774 0.32787
 O733 O 0.81956 0.63800 0.46599
 O734 O 0.78035 0.68341 0.46592
 C735 C 0.79095 0.65284 0.45342
 C736 C 0.77039 0.63349 0.42416
 C737 C 0.73971 0.64883 0.40688
 H738 H 0.73177 0.67614 0.41440
 O739 O 1.17918 0.36261 0.46082
 O740 O 1.21881 0.31764 0.46023
 C741 C 1.20782 0.34805 0.44780
 C742 C 1.22734 0.36651 0.41703
 C743 C 1.26223 0.35211 0.40200
 H744 H 1.27492 0.33054 0.41743
 O745 O 0.95771 0.62119 0.31594
 O746 O 0.95801 0.66062 0.27052
 C747 C 0.94451 0.63305 0.28597
 C748 C 0.91180 0.61688 0.26947
 C749 C 0.89884 0.63049 0.23785
 H750 H 0.91590 0.64879 0.22234
 O751 O 1.02832 0.36497 0.31613
 O752 O 1.02501 0.32311 0.27232
 C753 C 1.03943 0.35179 0.28549
 C754 C 1.06973 0.37063 0.26626
 C755 C 1.08436 0.35877 0.23392
 H756 H 1.07374 0.33411 0.22182
 O757 O 1.18083 0.45657 0.36428
 O758 O 1.22242 0.45709 0.32047
 C759 C 1.20988 0.44384 0.35021
 C760 C 1.22877 0.41300 0.36842
 C761 C 1.25882 0.39815 0.35361
 H762 H 1.26774 0.40823 0.32712
 O763 O 0.81065 0.53430 0.38097
 O764 O 0.76684 0.53355 0.33984
 C765 C 0.78108 0.54697 0.36861
 C766 C 0.76439 0.57956 0.38547
 C767 C 0.73237 0.59378 0.37068
 H768 H 0.71732 0.57714 0.35137
 O769 O 0.87511 0.68141 0.46633
 O770 O 0.83586 0.72637 0.46738
 C771 C 0.86415 0.71181 0.45407
 C772 C 0.88250 0.72976 0.42249
 C773 C 0.86990 0.76357 0.41012
 H774 H 0.85094 0.77823 0.42739
 O775 O 1.12439 0.31867 0.46099
 O776 O 1.16383 0.27407 0.46149
 C777 C 1.13585 0.28866 0.44808
 C778 C 1.11797 0.27018 0.41662
 C779 C 1.13493 0.24001 0.40048
 H780 H 1.16151 0.23272 0.41039
 O781 O 1.13152 0.52952 0.31588
 O782 O 1.17352 0.52930 0.27238
 C783 C 1.14415 0.54171 0.28557
 C784 C 1.12433 0.57029 0.26540
 C785 C 1.13824 0.58515 0.23445
 H786 H 1.16484 0.57648 0.22568
 O787 O 0.85667 0.46378 0.32595
 O788 O 0.81258 0.46265 0.28468
 C789 C 0.84286 0.45073 0.29653
 C790 C 0.86260 0.42103 0.27694
 C791 C 0.84932 0.40506 0.24399
 H792 H 0.82363 0.41463 0.23377
 O793 O 1.03292 0.67459 0.35498
 O794 O 1.03233 0.71429 0.30929
 C795 C 1.04583 0.70284 0.33943
 C796 C 1.07698 0.72158 0.35732
 C797 C 1.09273 0.75371 0.34294
 H798 H 1.08217 0.76395 0.31723
 O799 O 0.95774 0.32138 0.37277
 O800 O 0.95459 0.27972 0.32923
 C801 C 0.94393 0.29240 0.35993
 C802 C 0.91503 0.27290 0.38009
 C803 C 0.90162 0.24020 0.36572
 H804 H 0.91186 0.23097 0.33931
 O805 O 1.17882 0.62891 0.45637
 O806 O 1.22235 0.66978 0.45628
 C807 C 1.20953 0.63980 0.44482
 C808 C 1.23014 0.61877 0.41656
 C809 C 1.26466 0.63056 0.40581
 H810 H 1.27746 0.65128 0.42248
 O811 O 0.81363 0.36527 0.47391
 O812 O 0.77332 0.32090 0.47593
 C813 C 0.78443 0.35070 0.46212
 C814 C 0.76503 0.36869 0.43099
 C815 C 0.73403 0.35349 0.41364
 H816 H 0.72191 0.32968 0.42589
 Cu817 Cu 0.99375 0.34778 0.34909
 Cu818 Cu 0.98825 0.29807 0.29694
 Cu819 Cu 0.99569 0.64351 0.34086
 Cu820 Cu 0.99459 0.68995 0.28573
 Cu821 Cu 0.83804 0.49891 0.35741
 Cu822 Cu 0.78472 0.49797 0.30908
 Cu823 Cu 1.15151 0.49429 0.34674
 Cu824 Cu 1.19832 0.49117 0.29253
 C825 C 0.89468 0.40739 0.29265
 H826 H 0.90408 0.41752 0.31913
 C827 C 0.86912 0.37727 0.22527
 C828 C 1.08953 0.58380 0.28029
 H829 H 1.08015 0.57404 0.30687
 C830 C 1.11839 0.61400 0.21351
 C831 C 0.77972 0.40108 0.41693
 H832 H 0.80283 0.41374 0.43022
 C833 C 0.71965 0.36895 0.38061
 C834 C 1.21451 0.58921 0.39814
 H835 H 1.18801 0.57995 0.40697
 C836 C 1.28207 0.61694 0.37387
 C837 C 0.89987 0.28714 0.41243
 H838 H 0.90957 0.31307 0.42271
 C839 C 0.87485 0.21997 0.38415
 C840 C 1.09168 0.70608 0.38936
 H841 H 1.08145 0.68043 0.39968
 C842 C 1.12150 0.77172 0.36195
 C843 C 0.89148 0.58831 0.28870
 H844 H 0.90321 0.57675 0.31346
 C845 C 0.86222 0.62110 0.22371
 C846 C 1.08602 0.40248 0.28522
 H847 H 1.07741 0.40960 0.31298
 C848 C 1.11515 0.37919 0.21558
 C849 C 1.08586 0.28317 0.40139
 H850 H 1.07373 0.30735 0.41328
 C851 C 1.11909 0.22016 0.37144
 C852 C 0.90931 0.71165 0.40214
 H853 H 0.91916 0.68569 0.41197
 C854 C 0.88030 0.77773 0.37557
 C855 C 0.78266 0.59911 0.41273
 H856 H 0.80723 0.58780 0.42436
 C857 C 0.72027 0.62908 0.37962
 C858 C 1.21272 0.39631 0.40167
 H859 H 1.18760 0.40747 0.41233
 C860 C 1.27840 0.36714 0.37178
 O861 O 1.04110 0.37916 0.68105
 O862 O 1.04129 0.34049 0.72720
 C863 C 1.05470 0.36776 0.71104
 C864 C 1.08755 0.38422 0.72711
 C865 C 1.10197 0.36873 0.76166
 H866 H 1.08381 0.35140 0.77708
 O867 O 0.97412 0.63513 0.68408
 O868 O 0.97514 0.67860 0.72638
 C869 C 0.96164 0.64925 0.71378
 C870 C 0.92937 0.63218 0.73142
 C871 C 0.91301 0.64619 0.76407
 H872 H 0.92693 0.66732 0.77928
 O873 O 0.81789 0.54186 0.63316
 O874 O 0.77811 0.54414 0.67871
 C875 C 0.78940 0.55535 0.64754
 C876 C 0.77018 0.58532 0.62842
 C877 C 0.73773 0.59957 0.64270
 H878 H 0.72738 0.58823 0.66812
 O879 O 1.19015 0.46519 0.61780
 O880 O 1.23439 0.46615 0.65843
 C881 C 1.22031 0.45319 0.62934
 C882 C 1.23811 0.42191 0.61100
 C883 C 1.27151 0.40934 0.62411
 H884 H 1.28660 0.42678 0.64260
 O885 O 1.12546 0.31916 0.53455
 O886 O 1.16518 0.27466 0.53431
 C887 C 1.13719 0.28952 0.54785
 C888 C 1.11981 0.27260 0.58050
 C889 C 1.13557 0.23890 0.59608
 H890 H 1.15496 0.22480 0.57885
 O891 O 0.87508 0.67913 0.53936
 O892 O 0.83525 0.72345 0.53939
 C893 C 0.86329 0.70880 0.55259
 C894 C 0.88109 0.72714 0.58388
 C895 C 0.86424 0.75750 0.59959
 H896 H 0.83759 0.76479 0.58987
 O897 O 0.87099 0.47390 0.68438
 O898 O 0.83125 0.47627 0.72988
 C899 C 0.85987 0.46307 0.71579
 C900 C 0.87998 0.43431 0.73569
 C901 C 0.86592 0.41889 0.76840
 H902 H 0.83991 0.42852 0.77784
 O903 O 1.14350 0.53416 0.67460
 O904 O 1.18776 0.53528 0.71567
 C905 C 1.15712 0.54682 0.70431
 C906 C 1.13727 0.57646 0.72412
 C907 C 1.14916 0.59086 0.75842
 H908 H 1.17154 0.57772 0.77224
 O909 O 0.96558 0.32516 0.64296
 O910 O 0.96626 0.28613 0.68919
 C911 C 0.95276 0.29701 0.65876
 C912 C 0.92182 0.27766 0.64065
 C913 C 0.90616 0.24534 0.65493
 H914 H 0.91632 0.23528 0.68090
 O915 O 1.04309 0.68100 0.62715
 O916 O 1.04277 0.72461 0.66890
 C917 C 1.05465 0.71142 0.63889
 C918 C 1.08272 0.73170 0.61845
 C919 C 1.09632 0.76410 0.63331
 H920 H 1.08619 0.77290 0.65991
 O921 O 0.82133 0.37405 0.54504
 O922 O 0.78049 0.33079 0.54868
 C923 C 0.79258 0.36129 0.55921
 C924 C 0.77303 0.38080 0.58896
 C925 C 0.73781 0.36656 0.60186
 H926 H 0.72561 0.34656 0.58401
 O927 O 1.18052 0.63684 0.52828
 O928 O 1.22230 0.67985 0.52553
 C929 C 1.20972 0.65112 0.54033
 C930 C 1.22850 0.63350 0.57187
 C931 C 1.26040 0.65058 0.59068
 H932 H 1.26810 0.67722 0.58120
 O933 O 1.04489 0.62805 0.67442
 O934 O 1.04730 0.67014 0.71737
 C935 C 1.05904 0.64077 0.70358
 C936 C 1.08982 0.62263 0.72208
 C937 C 1.10367 0.63799 0.75455
 H938 H 1.09234 0.66344 0.76390
 O939 O 0.97018 0.38181 0.68630
 O940 O 0.97115 0.34274 0.73213
 C941 C 0.95901 0.37158 0.71782
 C942 C 0.92992 0.39150 0.73741
 C943 C 0.91728 0.37851 0.77156
 H944 H 0.93319 0.35778 0.78461
 O945 O 1.18807 0.53684 0.61938
 O946 O 1.23209 0.53705 0.66024
 C947 C 1.21738 0.55018 0.63174
 C948 C 1.23375 0.58275 0.61499
 C949 C 1.26401 0.59689 0.62954
 H950 H 1.27881 0.58059 0.64912
 O951 O 0.81628 0.47064 0.63957
 O952 O 0.77660 0.47290 0.68539
 C953 C 0.78791 0.45842 0.65545
 C954 C 0.76956 0.42636 0.63837
 C955 C 0.73873 0.41121 0.65190
 H956 H 0.72681 0.42359 0.67609
 O957 O 1.13152 0.68666 0.52508
 O958 O 1.17458 0.72835 0.52340
 C959 C 1.14499 0.71648 0.53690
 C960 C 1.12658 0.73557 0.56817
 C961 C 1.13882 0.76931 0.58249
 H962 H 1.16022 0.78345 0.56800
 O963 O 0.87092 0.32384 0.54576
 O964 O 0.83162 0.27897 0.54614
 C965 C 0.86026 0.29352 0.55840
 C966 C 0.87942 0.27542 0.58911
 C967 C 0.86699 0.24168 0.60143
 H968 H 0.84817 0.22732 0.58389
 O969 O 1.14659 0.46373 0.67425
 O970 O 1.19122 0.46415 0.71492
 C971 C 1.16112 0.45143 0.70357
 C972 C 1.14197 0.42216 0.72395
 C973 C 1.15620 0.40572 0.75407
 H974 H 1.18306 0.41361 0.76278
 O975 O 0.87299 0.54468 0.67691
 O976 O 0.83319 0.54638 0.72198
 C977 C 0.86134 0.55871 0.70668
 C978 C 0.87933 0.58973 0.72474
 C979 C 0.86175 0.60657 0.75448
 H980 H 0.83412 0.59883 0.76031
 O981 O 0.97264 0.68414 0.63323
 O982 O 0.97513 0.72633 0.67684
 C983 C 0.96092 0.71374 0.64734
 C984 C 0.92933 0.73181 0.62943
 C985 C 0.91342 0.76431 0.64314
 H986 H 0.92671 0.77854 0.66554
 O987 O 1.03650 0.32334 0.63815
 O988 O 1.03771 0.28469 0.68471
 C989 C 1.04921 0.29482 0.65315
 C990 C 1.07839 0.27438 0.63362
 C991 C 1.09477 0.24517 0.64884
 H992 H 1.08625 0.23726 0.67618
 O993 O 1.18202 0.36161 0.53230
 O994 O 1.22150 0.31644 0.53214
 C995 C 1.21126 0.34733 0.54423
 C996 C 1.23275 0.36771 0.57239
 C997 C 1.26471 0.35370 0.58866
 H998 H 1.27334 0.32651 0.58134
 O999 O 0.81912 0.63632 0.53770
 O1000 O 0.77945 0.68126 0.53793
 C1001 C 0.79005 0.65064 0.55014
 C1002 C 0.76985 0.63177 0.58029
 C1003 C 0.73616 0.64450 0.59371
 H1004 H 0.72330 0.66670 0.57932
 Cu1005 Cu 1.00293 0.35613 0.65716
 Cu1006 Cu 1.00424 0.31061 0.71313
 Cu1007 Cu 1.00813 0.65263 0.65032
 Cu1008 Cu 1.01262 0.70244 0.70193
 Cu1009 Cu 0.84729 0.34974 0.50881
 Cu1010 Cu 0.79852 0.29843 0.51430
 Cu1011 Cu 1.14867 0.34514 0.49743
 Cu1012 Cu 1.19485 0.29085 0.49678
 Cu1013 Cu 0.85121 0.65397 0.50217
 Cu1014 Cu 0.80498 0.70843 0.50290
 Cu1015 Cu 1.14984 0.65280 0.49131
 Cu1016 Cu 1.19944 0.70337 0.48627
 Cu1017 Cu 0.84834 0.50711 0.65350
 Cu1018 Cu 0.80176 0.51083 0.70853
 Cu1019 Cu 1.16250 0.49977 0.64237
 Cu1020 Cu 1.21618 0.50079 0.69028
 C1021 C 1.10630 0.40997 0.70961
 H1022 H 1.09602 0.42101 0.68395
 C1023 C 1.13544 0.37661 0.77442
 C1024 C 0.91289 0.60270 0.71312
 H1025 H 0.92550 0.59049 0.68902
 C1026 C 0.87882 0.63284 0.77642
 C1027 C 0.78583 0.60153 0.59727
 H1028 H 0.81157 0.59139 0.58710
 C1029 C 0.71952 0.62866 0.62529
 C1030 C 1.21959 0.40159 0.58444
 H1031 H 1.19398 0.41176 0.57411
 C1032 C 1.28438 0.37431 0.61530
 C1033 C 1.09199 0.28861 0.59789
 H1034 H 1.08047 0.31335 0.58680
 C1035 C 1.12508 0.22535 0.62921
 C1036 C 0.91338 0.71437 0.59883
 H1037 H 0.92544 0.69004 0.58717
 C1038 C 0.88041 0.77775 0.62790
 C1039 C 0.91180 0.42009 0.72025
 H1040 H 0.92167 0.43025 0.69400
 C1041 C 0.88413 0.39034 0.78702
 C1042 C 1.10668 0.59197 0.70700
 H1043 H 1.09673 0.58111 0.68104
 C1044 C 1.13218 0.62198 0.77427
 C1045 C 0.90720 0.29283 0.60829
 H1046 H 0.91707 0.31867 0.59813
 C1047 C 0.87781 0.22692 0.63552
 C1048 C 1.09773 0.71779 0.58592
 H1049 H 1.08785 0.69204 0.57536
 C1050 C 1.12368 0.78408 0.61555
 C1051 C 0.78757 0.40949 0.60591
 H1052 H 0.81358 0.41970 0.59663
 C1053 C 0.72136 0.37855 0.63317
 C1054 C 1.21566 0.60170 0.58456
 H1055 H 1.19206 0.58903 0.57220
 C1056 C 1.27744 0.63377 0.61944
 O1057 O 0.45678 0.87443 0.32192
 O1058 O 0.45503 0.83440 0.27684
 C1059 C 0.44365 0.86349 0.29147
 C1060 C 0.41317 0.88241 0.27331
 C1061 C 0.40103 0.86957 0.23904
 H1062 H 0.41865 0.85134 0.22403
 O1063 O 0.53212 1.11962 0.31051
 O1064 O 0.53045 1.15875 0.26469
 C1065 C 0.54353 1.13044 0.27925
 C1066 C 0.57432 1.11199 0.26092
 C1067 C 0.58778 1.12502 0.22710
 H1068 H 0.57119 1.14409 0.21219
 O1069 O 0.31089 0.96199 0.38086
 O1070 O 0.26727 0.96278 0.33951
 C1071 C 0.28178 0.94888 0.36776
 C1072 C 0.26472 0.91635 0.38395
 C1073 C 0.23628 0.89949 0.36501
 H1074 H 0.22923 0.91010 0.33824
 O1075 O 0.68439 1.02937 0.36470
 O1076 O 0.72379 1.02869 0.31857
 C1077 C 0.71277 1.04207 0.34919
 C1078 C 0.73120 1.07373 0.36709
 C1079 C 0.76378 1.08921 0.35344
 H1080 H 0.77554 1.07717 0.32899
 O1081 O 0.36500 0.81879 0.46978
 O1082 O 0.32378 0.77531 0.47272
 C1083 C 0.35194 0.78892 0.45778
 C1084 C 0.36928 0.77114 0.42526
 C1085 C 0.35500 0.73648 0.40916
 H1086 H 0.33486 0.72191 0.42501
 O1087 O 0.62789 1.17588 0.45606
 O1088 O 0.66912 1.21880 0.45285
 C1089 C 0.63978 1.20486 0.44155
 C1090 C 0.62098 1.22243 0.41024
 C1091 C 0.63487 1.25756 0.39662
 H1092 H 0.65295 1.27168 0.41512
 O1093 O 0.35433 1.03532 0.32763
 O1094 O 0.31014 1.03584 0.28651
 C1095 C 0.34029 1.04807 0.29825
 C1096 C 0.35998 1.07711 0.27791
 C1097 C 0.34521 1.09421 0.24632
 H1098 H 0.31800 1.08708 0.23802
 O1099 O 0.62355 0.96252 0.32093
 O1100 O 0.66272 0.96236 0.27521
 C1101 C 0.63303 0.95188 0.28899
 C1102 C 0.61113 0.92574 0.26765
 C1103 C 0.62131 0.91740 0.23132
 H1104 H 0.63973 0.93580 0.21778
 O1105 O 0.52632 0.81503 0.36332
 O1106 O 0.52381 0.77430 0.31836
 C1107 C 0.53744 0.78538 0.34879
 C1108 C 0.56657 0.76475 0.36861
 C1109 C 0.58241 0.73204 0.35505
 H1110 H 0.57404 0.72217 0.32821
 O1111 O 0.46502 1.17612 0.35955
 O1112 O 0.46295 1.21518 0.31341
 C1113 C 0.45213 1.20489 0.34514
 C1114 C 0.42382 1.22555 0.36577
 C1115 C 0.40819 1.25771 0.35169
 H1116 H 0.41674 1.26725 0.32479
 O1117 O 0.32124 1.13964 0.46630
 O1118 O 0.28036 1.18353 0.46837
 C1119 C 0.29113 1.15305 0.45559
 C1120 C 0.26915 1.13183 0.42844
 C1121 C 0.23413 1.14541 0.41260
 H1122 H 0.22619 1.17298 0.41923
 O1123 O 0.67189 0.85714 0.45816
 O1124 O 0.71132 0.81204 0.45732
 C1125 C 0.70001 0.84217 0.44457
 C1126 C 0.71950 0.86052 0.41386
 C1127 C 0.75193 0.84626 0.39910
 H1128 H 0.76133 0.82078 0.41004
 O1129 O 0.46100 1.11931 0.31737
 O1130 O 0.46013 1.15832 0.27161
 C1131 C 0.44717 1.13070 0.28754
 C1132 C 0.41422 1.11424 0.27171
 C1133 C 0.40070 1.12823 0.23859
 H1134 H 0.41793 1.14604 0.22263
 O1135 O 0.52716 0.86792 0.31619
 O1136 O 0.52484 0.82753 0.27096
 C1137 C 0.53857 0.85598 0.28521
 C1138 C 0.56808 0.87596 0.26628
 C1139 C 0.58242 0.86463 0.23182
 H1140 H 0.57263 0.83947 0.22002
 O1141 O 0.67747 0.95724 0.36709
 O1142 O 0.71992 0.95670 0.32430
 C1143 C 0.70639 0.94374 0.35370
 C1144 C 0.72352 0.91163 0.37136
 C1145 C 0.75699 0.89833 0.35864
 H1146 H 0.77137 0.91501 0.33908
 O1147 O 0.30969 1.03379 0.38338
 O1148 O 0.26584 1.03360 0.34229
 C1149 C 0.27974 1.04609 0.37166
 C1150 C 0.26199 1.07722 0.39000
 C1151 C 0.22916 1.08806 0.37886
 H1152 H 0.21323 1.06961 0.36218
 O1153 O 0.37806 1.18193 0.46430
 O1154 O 0.33840 1.22635 0.46549
 C1155 C 0.36638 1.21185 0.45166
 C1156 C 0.38365 1.22937 0.41932
 C1157 C 0.37006 1.26253 0.40612
 H1158 H 0.35024 1.27696 0.42264
 O1159 O 0.61708 0.81272 0.46326
 O1160 O 0.65629 0.76786 0.46295
 C1161 C 0.62719 0.78186 0.45133
 C1162 C 0.60716 0.76258 0.42171
 C1163 C 0.61895 0.72813 0.41047
 H1164 H 0.63694 0.71397 0.42884
 O1165 O 0.63273 1.03147 0.31648
 O1166 O 0.67521 1.03031 0.27333
 C1167 C 0.64598 1.04344 0.28630
 C1168 C 0.62666 1.07239 0.26610
 C1169 C 0.64158 1.08819 0.23411
 H1170 H 0.66862 1.08018 0.22607
 O1171 O 0.35528 0.96465 0.32616
 O1172 O 0.31123 0.96454 0.28481
 C1173 C 0.34140 0.95223 0.29647
 C1174 C 0.36102 0.92283 0.27633
 C1175 C 0.34706 0.90648 0.24383
 H1176 H 0.32084 0.91532 0.23426
 O1177 O 0.53560 1.17439 0.35556
 O1178 O 0.53421 1.21369 0.30953
 C1179 C 0.54796 1.20275 0.33986
 C1180 C 0.57885 1.22209 0.35787
 C1181 C 0.59417 1.25260 0.34381
 H1182 H 0.58343 1.26283 0.31818
 O1183 O 0.45588 0.82150 0.36895
 O1184 O 0.45342 0.78132 0.32383
 C1185 C 0.44209 0.79316 0.35471
 C1186 C 0.41252 0.77362 0.37376
 C1187 C 0.39737 0.74430 0.35805
 H1188 H 0.40539 0.73725 0.33019
 O1189 O 0.67972 1.12775 0.45775
 O1190 O 0.72106 1.17066 0.45490
 C1191 C 0.70905 1.14012 0.44437
 C1192 C 0.72911 1.12021 0.41520
 C1193 C 0.76281 1.13321 0.40340
 H1194 H 0.77512 1.15420 0.41997
 O1195 O 0.31210 0.86469 0.47272
 O1196 O 0.27224 0.81991 0.47448
 C1197 C 0.28292 0.84999 0.46092
 C1198 C 0.26330 0.86816 0.42987
 C1199 C 0.23240 0.85307 0.41206
 H1200 H 0.22021 0.82906 0.42387
 Cu1201 Cu 0.49229 0.84878 0.34730
 Cu1202 Cu 0.48800 0.80100 0.29320
 Cu1203 Cu 0.49876 1.14347 0.34055
 Cu1204 Cu 0.49647 1.18935 0.28495
 Cu1205 Cu 0.33711 0.99911 0.35871
 Cu1206 Cu 0.28384 0.99944 0.31022
 Cu1207 Cu 0.65085 0.99562 0.34760
 Cu1208 Cu 0.69858 0.99126 0.29434
 C1209 C 0.39363 0.90964 0.29132
 H1210 H 0.40349 0.91988 0.31757
 C1211 C 0.36682 0.87893 0.22478
 C1212 C 0.59332 1.08491 0.27954
 H1213 H 0.58264 1.07436 0.30529
 C1214 C 0.62247 1.11495 0.21394
 C1215 C 0.27801 0.90069 0.41615
 H1216 H 0.30098 0.91332 0.42972
 C1217 C 0.21814 0.86899 0.37912
 C1218 C 0.71397 1.09014 0.39758
 H1219 H 0.68804 1.08008 0.40724
 C1220 C 0.78021 1.11971 0.37142
 C1221 C 0.39775 0.78743 0.40895
 H1222 H 0.40900 0.81230 0.42025
 C1223 C 0.36890 0.72255 0.37719
 C1224 C 0.59401 1.20605 0.39215
 H1225 H 0.58408 1.18003 0.40181
 C1226 C 0.62490 1.27181 0.36368
 C1227 C 0.39418 1.08822 0.29085
 H1228 H 0.40510 1.07706 0.31618
 C1229 C 0.36555 1.12041 0.22627
 C1230 C 0.58363 0.90589 0.28443
 H1231 H 0.57526 0.91310 0.31224
 C1232 C 0.61010 0.88499 0.21400
 C1233 C 0.58029 0.78005 0.40147
 H1234 H 0.57093 0.80640 0.41093
 C1235 C 0.60972 0.71340 0.37574
 C1236 C 0.41099 1.21161 0.39949
 H1237 H 0.42149 1.18612 0.40988
 C1238 C 0.38110 1.27678 0.37184
 C1239 C 0.28214 1.09960 0.41666
 H1240 H 0.30788 1.08934 0.42652
 C1241 C 0.21518 1.12511 0.38749
 C1242 C 0.70536 0.89285 0.39934
 H1243 H 0.67975 0.90329 0.40955
 C1244 C 0.77155 0.86485 0.37116
 O1245 O 0.53479 0.88166 0.68266
 O1246 O 0.53530 0.84273 0.72856
 C1247 C 0.54743 0.87122 0.71340
 C1248 C 0.57833 0.88993 0.73106
 C1249 C 0.58949 0.87855 0.76613
 H1250 H 0.57140 0.86159 0.78206
 O1251 O 0.47448 1.13380 0.68528
 O1252 O 0.47718 1.17534 0.72943
 C1253 C 0.46301 1.14675 0.71586
 C1254 C 0.43123 1.12915 0.73362
 C1255 C 0.41566 1.14213 0.76702
 H1256 H 0.43001 1.16269 0.78264
 O1257 O 0.32035 1.04180 0.63251
 O1258 O 0.27909 1.04428 0.67654
 C1259 C 0.29150 1.05549 0.64591
 C1260 C 0.27297 1.08565 0.62649
 C1261 C 0.24023 1.09987 0.64013
 H1262 H 0.22951 1.08843 0.66532
 O1263 O 0.68650 0.96321 0.61493
 O1264 O 0.72998 0.96229 0.65615
 C1265 C 0.71615 0.95023 0.62659
 C1266 C 0.73410 0.91921 0.60787
 C1267 C 0.76810 0.90764 0.62030
 H1268 H 0.78310 0.92573 0.63818
 O1269 O 0.62231 0.81597 0.53567
 O1270 O 0.66173 0.77111 0.53475
 C1271 C 0.63445 0.78658 0.54906
 C1272 C 0.61836 0.77091 0.58273
 C1273 C 0.63237 0.73857 0.59717
 H1274 H 0.65162 0.72340 0.58067
 O1275 O 0.37886 1.18175 0.53785
 O1276 O 0.33721 1.22424 0.54071
 C1277 C 0.36627 1.21044 0.55263
 C1278 C 0.38410 1.22824 0.58452
 C1279 C 0.36671 1.26071 0.60089
 H1280 H 0.34047 1.26782 0.59002
 O1281 O 0.36957 0.97313 0.68668
 O1282 O 0.32860 0.97619 0.73107
 C1283 C 0.35736 0.96243 0.71777
 C1284 C 0.37591 0.93227 0.73719
 C1285 C 0.36163 0.91695 0.76990
 H1286 H 0.33903 0.93036 0.78323
 O1287 O 0.64397 1.03441 0.67262
 O1288 O 0.68778 1.03337 0.71426
 C1289 C 0.65806 1.04665 0.70235
 C1290 C 0.63934 1.07705 0.72208
 C1291 C 0.65373 1.09332 0.75724
 H1292 H 0.67918 1.08269 0.76695
 O1293 O 0.46521 0.82306 0.64036
 O1294 O 0.46607 0.78335 0.68601
 C1295 C 0.45333 0.79397 0.65509
 C1296 C 0.42422 0.77351 0.63512
 C1297 C 0.40934 0.74022 0.64791
 H1298 H 0.41823 0.72981 0.67430
 O1299 O 0.54362 1.17971 0.62903
 O1300 O 0.54642 1.22093 0.67305
 C1301 C 0.55692 1.20884 0.64205
 C1302 C 0.58519 1.22902 0.62175
 C1303 C 0.59887 1.26142 0.63658
 H1304 H 0.58898 1.27013 0.66330
 O1305 O 0.32193 0.87249 0.54405
 O1306 O 0.28153 0.82885 0.54749
 C1307 C 0.29350 0.85931 0.55842
 C1308 C 0.27407 0.87853 0.58859
 C1309 C 0.24052 0.86538 0.60066
 H1310 H 0.22878 0.84392 0.58442
 O1311 O 0.68417 1.13513 0.52916
 O1312 O 0.72571 1.17827 0.52604
 C1313 C 0.71387 1.14898 0.54043
 C1314 C 0.73351 1.13051 0.57120
 C1315 C 0.76581 1.14699 0.59008
 H1316 H 0.77780 1.17055 0.57722
 O1317 O 0.54502 1.12754 0.67752
 O1318 O 0.54718 1.16860 0.72160
 C1319 C 0.55857 1.13928 0.70745
 C1320 C 0.58921 1.12066 0.72566
 C1321 C 0.60060 1.13245 0.75876
 H1322 H 0.58303 1.15075 0.77370
 O1323 O 0.46382 0.87789 0.68545
 O1324 O 0.46509 0.83822 0.73082
 C1325 C 0.45167 0.86622 0.71607
 C1326 C 0.42117 0.88440 0.73478
 C1327 C 0.40529 0.86813 0.76582
 H1328 H 0.41532 0.84193 0.77443
 O1329 O 0.68947 1.03537 0.61898
 O1330 O 0.73126 1.03552 0.66232
 C1331 C 0.71788 1.04903 0.63324
 C1332 C 0.73512 1.08174 0.61727
 C1333 C 0.76171 1.09868 0.63578
 H1334 H 0.76819 1.08896 0.66308
 O1335 O 0.31813 0.97026 0.63818
 O1336 O 0.27707 0.97286 0.68272
 C1337 C 0.28932 0.95811 0.65324
 C1338 C 0.27145 0.92579 0.63594
 C1339 C 0.23853 0.91079 0.64924
 H1340 H 0.22598 0.92394 0.67266
 O1341 O 0.63371 1.18417 0.52818
 O1342 O 0.67500 1.22745 0.52455
 C1343 C 0.64641 1.21456 0.53923
 C1344 C 0.62826 1.23339 0.57081
 C1345 C 0.64043 1.26719 0.58501
 H1346 H 0.66146 1.28158 0.57021
 O1347 O 0.37192 0.82187 0.54182
 O1348 O 0.33311 0.77658 0.54191
 C1349 C 0.36221 0.79083 0.55347
 C1350 C 0.38299 0.77156 0.58243
 C1351 C 0.37243 0.73653 0.59267
 H1352 H 0.35485 0.72197 0.57399
 O1353 O 0.64282 0.96396 0.67277
 O1354 O 0.68549 0.96447 0.71552
 C1355 C 0.65523 0.95270 0.70359
 C1356 C 0.63344 0.92615 0.72540
 C1357 C 0.64599 0.91126 0.75911
 H1358 H 0.67299 0.91805 0.76853
 O1359 O 0.37455 1.04333 0.67766
 O1360 O 0.33335 1.04570 0.72131
 C1361 C 0.36236 1.05732 0.70719
 C1362 C 0.38087 1.08732 0.72636
 C1363 C 0.36398 1.10312 0.75709
 H1364 H 0.33646 1.09529 0.76322
 O1365 O 0.47325 1.18442 0.63619
 O1366 O 0.47647 1.22608 0.68027
 C1367 C 0.46194 1.21399 0.65068
 C1368 C 0.43064 1.23276 0.63278
 C1369 C 0.41536 1.26363 0.64642
 H1370 H 0.42806 1.27673 0.66984
 O1371 O 0.53590 0.82478 0.64024
 O1372 O 0.53739 0.78581 0.68649
 C1373 C 0.54923 0.79661 0.65540
 C1374 C 0.57877 0.77668 0.63624
 C1375 C 0.59511 0.74567 0.65183
 H1376 H 0.58682 0.73757 0.67924
 O1377 O 0.67831 0.85802 0.52983
 O1378 O 0.71771 0.81282 0.52946
 C1379 C 0.70780 0.84394 0.54140
 C1380 C 0.72962 0.86484 0.56922
 C1381 C 0.76225 0.85168 0.58521
 H1382 H 0.77151 0.82472 0.57782
 O1383 O 0.32361 1.13776 0.53734
 O1384 O 0.28336 1.18226 0.53734
 C1385 C 0.29425 1.15171 0.54950
 C1386 C 0.27371 1.13247 0.57895
 C1387 C 0.23960 1.14489 0.59138
 H1388 H 0.22704 1.16698 0.57659
 Cu1389 Cu 0.49968 0.85568 0.65728
 Cu1390 Cu 0.50132 0.80961 0.71278
 Cu1391 Cu 0.50853 1.15208 0.65252
 Cu1392 Cu 0.51348 1.20124 0.70525
 Cu1393 Cu 0.34689 0.84898 0.50656
 Cu1394 Cu 0.29875 0.79710 0.51190
 Cu1395 Cu 0.64348 0.84068 0.49683
 Cu1396 Cu 0.68953 0.78619 0.49563
 Cu1397 Cu 0.35469 1.15569 0.50112
 Cu1398 Cu 0.30848 1.20957 0.50235
 Cu1399 Cu 0.65203 1.15144 0.49348
 Cu1400 Cu 0.70119 1.20280 0.48811
 Cu1401 Cu 0.34959 1.00644 0.65389
 Cu1402 Cu 0.30122 1.01099 0.70711
 Cu1403 Cu 0.66123 0.99897 0.64048
 Cu1404 Cu 0.71383 0.99712 0.68885
 C1405 C 0.59981 0.91448 0.71136
 H1406 H 0.59080 0.92350 0.68441
 C1407 C 0.62422 0.88659 0.77960
 C1408 C 0.41429 1.10042 0.71465
 H1409 H 0.42635 1.08903 0.68984
 C1410 C 0.38164 1.12863 0.77952
 C1411 C 0.28943 1.10215 0.59599
 H1412 H 0.31545 1.09217 0.58642
 C1413 C 0.22232 1.12902 0.62250
 C1414 C 0.71570 0.89838 0.58164
 H1415 H 0.68962 0.90790 0.57192
 C1416 C 0.78177 0.87292 0.61166
 C1417 C 0.59111 0.78934 0.60194
 H1418 H 0.57991 0.81401 0.59035
 C1419 C 0.62194 0.72580 0.63219
 C1420 C 0.41442 1.21519 0.59961
 H1421 H 0.42689 1.19110 0.58790
 C1422 C 0.38126 1.27933 0.62948
 C1423 C 0.40639 0.91631 0.72062
 H1424 H 0.41789 0.92796 0.69575
 C1425 C 0.37583 0.88411 0.78439
 C1426 C 0.60916 1.09129 0.70700
 H1427 H 0.59864 1.08115 0.68098
 C1428 C 0.63594 1.12100 0.77498
 C1429 C 0.40963 0.78931 0.60297
 H1430 H 0.41820 0.81614 0.59434
 C1431 C 0.38238 0.72147 0.62695
 C1432 C 0.59980 1.21534 0.58893
 H1433 H 0.58987 1.18962 0.57834
 C1434 C 0.62574 1.28172 0.61835
 C1435 C 0.28906 0.90884 0.60596
 H1436 H 0.31493 0.91897 0.59619
 C1437 C 0.22247 0.87972 0.63194
 C1438 C 0.72069 1.09845 0.58348
 H1439 H 0.69788 1.08538 0.57008
 C1440 C 0.78036 1.13160 0.62108
 O1441 O 0.64309 0.53252 1.17400
 O1442 O 0.68767 0.53392 1.21467
 C1443 C 0.65715 0.54560 1.20333
 C1444 C 0.63788 0.57574 1.22278
 C1445 C 0.64935 0.58956 1.25750
 H1446 H 0.67092 0.57563 1.27184
 O1447 O 0.37518 0.47022 1.18476
 O1448 O 0.33558 0.47237 1.23043
 C1449 C 0.36379 0.45875 1.21583
 C1450 C 0.38279 0.42851 1.23458
 C1451 C 0.36807 0.41302 1.26960
 H1452 H 0.34481 0.42678 1.28082
 O1453 O 0.54414 0.68462 1.12851
 O1454 O 0.54706 0.72523 1.17325
 C1455 C 0.55750 0.71363 1.14197
 C1456 C 0.58606 0.73380 1.12181
 C1457 C 0.60008 0.76611 1.13656
 H1458 H 0.58999 0.77512 1.16311
 O1459 O 0.46837 0.31763 1.13782
 O1460 O 0.46959 0.27791 1.18344
 C1461 C 0.45615 0.28885 1.15293
 C1462 C 0.42480 0.26988 1.13483
 C1463 C 0.41026 0.23648 1.14768
 H1464 H 0.42405 0.22256 1.16985
 O1465 O 0.68040 0.63586 1.02845
 O1466 O 0.72347 0.67744 1.02527
 C1467 C 0.71062 0.64856 1.03949
 C1468 C 0.73057 0.62879 1.06887
 C1469 C 0.76256 0.64281 1.08508
 H1470 H 0.77170 0.66962 1.07718
 O1471 O 0.32281 0.37513 1.04386
 O1472 O 0.28025 0.33362 1.04707
 C1473 C 0.29337 0.36363 1.05758
 C1474 C 0.27421 0.38372 1.08703
 C1475 C 0.23870 0.37013 1.09976
 H1476 H 0.22547 0.35112 1.08147
 O1477 O 0.47672 0.63521 1.18455
 O1478 O 0.48002 0.67569 1.22958
 C1479 C 0.46623 0.64691 1.21606
 C1480 C 0.43657 0.62720 1.23568
 C1481 C 0.42236 0.63896 1.27026
 H1482 H 0.43546 0.66175 1.28343
 O1483 O 0.53983 0.37516 1.17918
 O1484 O 0.54081 0.33589 1.22473
 C1485 C 0.55285 0.36443 1.20969
 C1486 C 0.58345 0.38331 1.22782
 C1487 C 0.59536 0.37024 1.26441
 H1488 H 0.57647 0.35337 1.27943
 O1489 O 0.68817 0.46142 1.11871
 O1490 O 0.73263 0.46278 1.15909
 C1491 C 0.71854 0.44976 1.13005
 C1492 C 0.73705 0.41938 1.11107
 C1493 C 0.77136 0.40832 1.12296
 H1494 H 0.78607 0.42631 1.14119
 O1495 O 0.32470 0.54196 1.13605
 O1496 O 0.28479 0.54375 1.18144
 C1497 C 0.29622 0.55540 1.15050
 C1498 C 0.27663 0.58517 1.13128
 C1499 C 0.24348 0.59849 1.14503
 H1500 H 0.23319 0.58720 1.17050
 O1501 O 0.37760 0.68069 1.04059
 O1502 O 0.33709 0.72431 1.04229
 C1503 C 0.36553 0.70985 1.05475
 C1504 C 0.38318 0.72778 1.08642
 C1505 C 0.36522 0.75978 1.10284
 H1506 H 0.33832 0.76577 1.09295
 O1507 O 0.62841 0.31530 1.03313
 O1508 O 0.67104 0.27340 1.03355
 C1509 C 0.64207 0.28668 1.04688
 C1510 C 0.62538 0.26962 1.07980
 C1511 C 0.64181 0.23651 1.09603
 H1512 H 0.66210 0.22289 1.07949
 O1513 O 0.37996 0.54061 1.18102
 O1514 O 0.33995 0.54212 1.22584
 C1515 C 0.36918 0.55322 1.21176
 C1516 C 0.38931 0.58145 1.23213
 C1517 C 0.37526 0.59373 1.26593
 H1518 H 0.35029 0.58178 1.27510
 O1519 O 0.64396 0.46188 1.17517
 O1520 O 0.68861 0.46255 1.21576
 C1521 C 0.65811 0.45012 1.20494
 C1522 C 0.63787 0.42179 1.22619
 C1523 C 0.65008 0.40705 1.25824
 H1524 H 0.67619 0.41554 1.26874
 O1525 O 0.53961 0.31867 1.13601
 O1526 O 0.54117 0.27950 1.18205
 C1527 C 0.55297 0.29042 1.15098
 C1528 C 0.58300 0.27086 1.13209
 C1529 C 0.59965 0.24215 1.14778
 H1530 H 0.59116 0.23441 1.17520
 O1531 O 0.47361 0.68664 1.13576
 O1532 O 0.47663 0.72750 1.18061
 C1533 C 0.46205 0.71571 1.15093
 C1534 C 0.43036 0.73399 1.13354
 C1535 C 0.41494 0.76490 1.14687
 H1536 H 0.42778 0.77856 1.16987
 O1537 O 0.32300 0.63628 1.03829
 O1538 O 0.28248 0.68038 1.04014
 C1539 C 0.29394 0.64977 1.05156
 C1540 C 0.27467 0.63034 1.08191
 C1541 C 0.24041 0.64183 1.09470
 H1542 H 0.22663 0.66282 1.07936
 O1543 O 0.68305 0.35971 1.03094
 O1544 O 0.72402 0.31583 1.02907
 C1545 C 0.71287 0.34601 1.04220
 C1546 C 0.73376 0.36625 1.07087
 C1547 C 0.76660 0.35329 1.08624
 H1548 H 0.77636 0.32676 1.07795
 O1549 O 0.46893 0.37248 1.18358
 O1550 O 0.47079 0.33266 1.22875
 C1551 C 0.45756 0.36110 1.21465
 C1552 C 0.42814 0.38022 1.23457
 C1553 C 0.41416 0.36604 1.26576
 H1554 H 0.42525 0.34062 1.27496
 O1555 O 0.54681 0.62961 1.17278
 O1556 O 0.54939 0.67019 1.21721
 C1557 C 0.56112 0.64145 1.20220
 C1558 C 0.59180 0.62298 1.22011
 C1559 C 0.60569 0.63811 1.25260
 H1560 H 0.59530 0.66407 1.26161
 O1561 O 0.32050 0.47068 1.14017
 O1562 O 0.28092 0.47256 1.18610
 C1563 C 0.29179 0.45878 1.15568
 C1564 C 0.27239 0.42798 1.13760
 C1565 C 0.24155 0.41297 1.15125
 H1566 H 0.23076 0.42435 1.17647
 O1567 O 0.68654 0.53249 1.11724
 O1568 O 0.73095 0.53335 1.15764
 C1569 C 0.71655 0.54533 1.12837
 C1570 C 0.73436 0.57597 1.10910
 C1571 C 0.76826 0.58803 1.12137
 H1572 H 0.78338 0.57045 1.13954
 O1573 O 0.36928 0.32213 1.04586
 O1574 O 0.32819 0.27886 1.04609
 C1575 C 0.35722 0.29240 1.05873
 C1576 C 0.37623 0.27319 1.08900
 C1577 C 0.36117 0.24134 1.10345
 H1578 H 0.33524 0.23261 1.09287
 O1579 O 0.63338 0.68819 1.02805
 O1580 O 0.67628 0.72994 1.02456
 C1581 C 0.64726 0.71806 1.03930
 C1582 C 0.62971 0.73732 1.07111
 C1583 C 0.64240 0.77097 1.08536
 H1584 H 0.66385 0.78499 1.07080
 Cu1585 Cu 0.66075 0.49683 1.14235
 Cu1586 Cu 0.71468 0.49829 1.18980
 Cu1587 Cu 0.35383 0.50551 1.15543
 Cu1588 Cu 0.30718 0.50877 1.21048
 Cu1589 Cu 0.50950 0.65500 1.15072
 Cu1590 Cu 0.51463 0.70303 1.20451
 Cu1591 Cu 0.50384 0.34973 1.15419
 Cu1592 Cu 0.50602 0.30347 1.20935
 C1593 C 0.60800 0.59198 1.20516
 H1594 H 0.59804 0.58137 1.17911
 C1595 C 0.63282 0.62107 1.27310
 C1596 C 0.41188 0.41316 1.21873
 H1597 H 0.42278 0.42378 1.19310
 C1598 C 0.38247 0.38275 1.28544
 C1599 C 0.60078 0.71986 1.08912
 H1600 H 0.59051 0.69428 1.07854
 C1601 C 0.62737 0.78606 1.11834
 C1602 C 0.40790 0.28718 1.10471
 H1603 H 0.41867 0.31248 1.09411
 C1604 C 0.37813 0.22152 1.13174
 C1605 C 0.71620 0.59586 1.08208
 H1606 H 0.69034 0.58601 1.07200
 C1607 C 0.78153 0.62281 1.11236
 C1608 C 0.28957 0.41170 1.10441
 H1609 H 0.31583 0.42137 1.09526
 C1610 C 0.22316 0.38134 1.13173
 C1611 C 0.42011 0.59777 1.21747
 H1612 H 0.43018 0.58853 1.19089
 C1613 C 0.39105 0.62216 1.28617
 C1614 C 0.60326 0.40825 1.21019
 H1615 H 0.59498 0.41717 1.18296
 C1616 C 0.62822 0.37845 1.27845
 C1617 C 0.71904 0.39894 1.08434
 H1618 H 0.69278 0.40815 1.07482
 C1619 C 0.78569 0.37413 1.11317
 C1620 C 0.29192 0.60135 1.09985
 H1621 H 0.31813 0.59212 1.09004
 C1622 C 0.22431 0.62645 1.12674
 C1623 C 0.41404 0.71570 1.10087
 H1624 H 0.42695 0.69197 1.08887
 C1625 C 0.38030 0.77963 1.13014
 C1626 C 0.59676 0.28498 1.09650
 H1627 H 0.58452 0.30917 1.08493
 C1628 C 0.63040 0.22268 1.12879
 O1629 O 0.62092 0.46075 0.82135
 O1630 O 0.66034 0.46026 0.77602
 C1631 C 0.63111 0.44893 0.79007
 C1632 C 0.61083 0.42051 0.76977
 C1633 C 0.62258 0.41040 0.73434
 H1634 H 0.64157 0.42805 0.72050
 O1635 O 0.35678 0.53386 0.82292
 O1636 O 0.31238 0.53354 0.78202
 C1637 C 0.34294 0.54567 0.79297
 C1638 C 0.36244 0.57527 0.77271
 C1639 C 0.34949 0.59061 0.73922
 H1640 H 0.32651 0.57790 0.72598
 O1641 O 0.46294 0.68158 0.86456
 O1642 O 0.46141 0.72107 0.81878
 C1643 C 0.45074 0.71084 0.85060
 C1644 C 0.42318 0.73196 0.87184
 C1645 C 0.40767 0.76433 0.85817
 H1646 H 0.41603 0.77405 0.83126
 O1647 O 0.52720 0.31247 0.86718
 O1648 O 0.52458 0.27102 0.82282
 C1649 C 0.53879 0.28304 0.85257
 C1650 C 0.57015 0.26452 0.87039
 C1651 C 0.58595 0.23205 0.85643
 H1652 H 0.57273 0.21822 0.83373
 O1653 O 0.67808 0.36302 0.95955
 O1654 O 0.72045 0.32069 0.95945
 C1655 C 0.70773 0.35033 0.94696
 C1656 C 0.72676 0.36993 0.91681
 C1657 C 0.76248 0.35719 0.90279
 H1658 H 0.77579 0.33625 0.91862
 O1659 O 0.32173 0.64126 0.96626
 O1660 O 0.28171 0.68593 0.96792
 C1661 C 0.29290 0.65610 0.95408
 C1662 C 0.27299 0.63754 0.92362
 C1663 C 0.24216 0.65280 0.90633
 H1664 H 0.23353 0.67962 0.91481
 O1665 O 0.52746 0.62270 0.81478
 O1666 O 0.52640 0.66211 0.76922
 C1667 C 0.53866 0.63318 0.78336
 C1668 C 0.56824 0.61359 0.76409
 C1669 C 0.58053 0.62592 0.72955
 H1670 H 0.56374 0.64518 0.71515
 O1671 O 0.45528 0.36989 0.82724
 O1672 O 0.45271 0.32849 0.78364
 C1673 C 0.44140 0.35790 0.79760
 C1674 C 0.41074 0.37635 0.77925
 C1675 C 0.39903 0.36347 0.74479
 H1676 H 0.41646 0.34453 0.73057
 O1677 O 0.68107 0.52959 0.86402
 O1678 O 0.72092 0.52865 0.81831
 C1679 C 0.71012 0.54165 0.84924
 C1680 C 0.72957 0.57225 0.86837
 C1681 C 0.76396 0.58570 0.85693
 H1682 H 0.77726 0.57190 0.83432
 O1683 O 0.31068 0.46727 0.88301
 O1684 O 0.26653 0.46698 0.84232
 C1685 C 0.28034 0.45517 0.87192
 C1686 C 0.26183 0.42502 0.89124
 C1687 C 0.22843 0.41247 0.87795
 H1688 H 0.21381 0.42966 0.85902
 O1689 O 0.62658 0.68031 0.95599
 O1690 O 0.66924 0.72192 0.95318
 C1691 C 0.63942 0.70905 0.94184
 C1692 C 0.62109 0.72711 0.91061
 C1693 C 0.63438 0.76029 0.89767
 H1694 H 0.65412 0.77390 0.91470
 O1695 O 0.36480 0.31640 0.97323
 O1696 O 0.32170 0.27479 0.97598
 C1697 C 0.35091 0.28675 0.96158
 C1698 C 0.36935 0.26731 0.93048
 C1699 C 0.35598 0.23187 0.91502
 H1700 H 0.33075 0.22154 0.92595
 O1701 O 0.35571 0.46307 0.82800
 O1702 O 0.31139 0.46198 0.78705
 C1703 C 0.34123 0.44937 0.79925
 C1704 C 0.35991 0.41847 0.78053
 C1705 C 0.34658 0.40269 0.74750
 H1706 H 0.32131 0.41293 0.73687
 O1707 O 0.62763 0.53091 0.81681
 O1708 O 0.66918 0.53171 0.77291
 C1709 C 0.63994 0.54382 0.78668
 C1710 C 0.61990 0.57283 0.76731
 C1711 C 0.63377 0.58813 0.73456
 H1712 H 0.66029 0.57958 0.72537
 O1713 O 0.45705 0.31664 0.87474
 O1714 O 0.45729 0.27344 0.83254
 C1715 C 0.44567 0.28618 0.86293
 C1716 C 0.41739 0.26603 0.88341
 C1717 C 0.40739 0.23273 0.87240
 H1718 H 0.42449 0.21892 0.85258
 O1719 O 0.53330 0.67872 0.85826
 O1720 O 0.53236 0.71820 0.81240
 C1721 C 0.54620 0.70685 0.84246
 C1722 C 0.57768 0.72566 0.86002
 C1723 C 0.59342 0.75778 0.84551
 H1724 H 0.58245 0.76828 0.82008
 O1725 O 0.31508 0.36626 0.97302
 O1726 O 0.27325 0.32331 0.97474
 C1727 C 0.28539 0.35278 0.96120
 C1728 C 0.26543 0.37231 0.93159
 C1729 C 0.23390 0.35793 0.91472
 H1730 H 0.22497 0.33103 0.92251
 O1731 O 0.67613 0.62967 0.95673
 O1732 O 0.71855 0.67138 0.95395
 C1733 C 0.70572 0.64130 0.94320
 C1734 C 0.72596 0.62078 0.91442
 C1735 C 0.75948 0.63409 0.90223
 H1736 H 0.76851 0.65927 0.91421
 O1737 O 0.52588 0.36372 0.81861
 O1738 O 0.52493 0.32103 0.77551
 C1739 C 0.53806 0.35049 0.78840
 C1740 C 0.56809 0.37005 0.76923
 C1741 C 0.58358 0.35760 0.73557
 H1742 H 0.57421 0.33207 0.72421
 O1743 O 0.45633 0.62584 0.82113
 O1744 O 0.45606 0.66529 0.77577
 C1745 C 0.44252 0.63784 0.79151
 C1746 C 0.41025 0.62098 0.77442
 C1747 C 0.39512 0.63756 0.74334
 H1748 H 0.40601 0.66345 0.73507
 O1749 O 0.31379 0.53857 0.87941
 O1750 O 0.26968 0.53771 0.83860
 C1751 C 0.28451 0.55165 0.86682
 C1752 C 0.26829 0.58464 0.88325
 C1753 C 0.23625 0.59867 0.86848
 H1754 H 0.22150 0.58199 0.84899
 O1755 O 0.67814 0.45804 0.86370
 O1756 O 0.71923 0.45915 0.81938
 C1757 C 0.70736 0.44598 0.84945
 C1758 C 0.72723 0.41613 0.86800
 C1759 C 0.75867 0.40314 0.85437
 H1760 H 0.76869 0.41433 0.82874
 O1761 O 0.62450 0.31747 0.96018
 O1762 O 0.66517 0.27416 0.95932
 C1763 C 0.63639 0.28785 0.94692
 C1764 C 0.61814 0.26874 0.91624
 C1765 C 0.63477 0.23814 0.90057
 H1766 H 0.66127 0.23067 0.91053
 O1767 O 0.37635 0.68573 0.96792
 O1768 O 0.33630 0.72998 0.97051
 C1769 C 0.36475 0.71628 0.95661
 C1770 C 0.38278 0.73508 0.92535
 C1771 C 0.36944 0.76853 0.91270
 H1772 H 0.34950 0.78260 0.92936
 Cu1773 Cu 0.64818 0.49519 0.84658
 Cu1774 Cu 0.69445 0.49310 0.79187
 Cu1775 Cu 0.33889 0.50074 0.85732
 Cu1776 Cu 0.28529 0.49982 0.80946
 Cu1777 Cu 0.64952 0.65444 0.99296
 Cu1778 Cu 0.70072 0.70377 0.98785
 Cu1779 Cu 0.64923 0.34346 0.99636
 Cu1780 Cu 0.69697 0.29098 0.99358
 Cu1781 Cu 0.35368 0.65630 1.00281
 Cu1782 Cu 0.30647 0.70974 1.00588
 Cu1783 Cu 0.34766 0.34909 1.00823
 Cu1784 Cu 0.29670 0.29996 1.01341
 Cu1785 Cu 0.49528 0.64834 0.84452
 Cu1786 Cu 0.49368 0.69453 0.78919
 Cu1787 Cu 0.49191 0.34499 0.85150
 Cu1788 Cu 0.48721 0.29613 0.79902
 C1789 C 0.58291 0.40100 0.78649
 H1790 H 0.57347 0.40949 0.81357
 C1791 C 0.61173 0.37754 0.71777
 C1792 C 0.39384 0.59006 0.78904
 H1793 H 0.40493 0.57834 0.81402
 C1794 C 0.36613 0.62220 0.72375
 C1795 C 0.41026 0.71767 0.90538
 H1796 H 0.42053 0.69191 0.91530
 C1797 C 0.38039 0.78303 0.87839
 C1798 C 0.58601 0.28165 0.90120
 H1799 H 0.57414 0.30609 0.91283
 C1800 C 0.61876 0.21821 0.87174
 C1801 C 0.71094 0.39866 0.90076
 H1802 H 0.68490 0.40836 0.91059
 C1803 C 0.77851 0.37254 0.87276
 C1804 C 0.28607 0.60379 0.91113
 H1805 H 0.31058 0.59241 0.92280
 C1806 C 0.22335 0.63343 0.87813
 C1807 C 0.58744 0.58620 0.78219
 H1808 H 0.57776 0.57620 0.80857
 C1809 C 0.61450 0.61515 0.71507
 C1810 C 0.39156 0.40426 0.79659
 H1811 H 0.40112 0.41454 0.82294
 C1812 C 0.36594 0.37444 0.72901
 C1813 C 0.71154 0.58975 0.89783
 H1814 H 0.68523 0.58022 0.90696
 C1815 C 0.77995 0.61695 0.87422
 C1816 C 0.27952 0.40547 0.91879
 H1817 H 0.30504 0.41565 0.92943
 C1818 C 0.21519 0.37768 0.88696
 C1819 C 0.59252 0.71032 0.89212
 H1820 H 0.58213 0.68484 0.90267
 C1821 C 0.62260 0.77563 0.86410
 C1822 C 0.39807 0.28338 0.91434
 H1823 H 0.40767 0.30964 0.92380
 C1824 C 0.37353 0.21507 0.88632
   
