data_POSCAR
  _audit_creation_date              2014-09-24
  _audit_creation_method            'ToBaCCo'
  _symmetry_space_group_name_H-M    'P1'
  _symmetry_Int_Tables_number       1
  _symmetry_cell_setting            triclinic
  loop_
  _symmetry_equiv_pos_as_xyz
 x,y,z
_cell_length_a 81.8575
_cell_length_b 81.7675
_cell_length_c 82.5800
_cell_angle_alpha 89.947600
_cell_angle_beta 90.059700
_cell_angle_gamma 90.198000
loop_
  _atom_site_label
  _atom_site_type_symbol
  _atom_site_fract_x
  _atom_site_fract_y
  _atom_site_fract_z
N1 N 0.34300 0.34480 0.34309
 N2 N 0.34681 0.84279 -0.15620
 N3 N 0.84500 0.34247 -0.15633
 N4 N 0.84404 0.84533 0.34391
 N5 N 0.65739 0.65693 0.34512
 N6 N 0.65786 0.15796 -0.15707
 N7 N 0.15749 0.65577 -0.15342
 N8 N 0.15632 0.15584 0.34412
 N9 N 0.65674 0.34558 0.65467
 N10 N 0.65382 0.84287 1.15427
 N11 N 0.15253 0.34357 1.15384
 N12 N 0.15778 0.84499 0.65610
 N13 N 0.34230 0.65237 0.65357
 N14 N 0.34584 0.15729 1.15563
 N15 N 0.84571 0.65764 1.15313
 N16 N 0.84183 0.15463 0.65477
 N17 N 0.34271 0.34374 0.65661
 N18 N 0.34551 0.84465 0.15683
 N19 N 0.84362 0.34416 0.15615
 N20 N 0.84531 0.84361 0.65764
 N21 N 0.65699 0.65400 0.65354
 N22 N 0.65492 0.15662 0.15469
 N23 N 0.15510 0.65718 0.15403
 N24 N 0.15845 0.15582 0.65624
 N25 N 0.34202 0.65485 0.34456
 N26 N 0.34654 0.15718 0.84622
 N27 N 0.84616 0.65617 0.84662
 N28 N 0.84262 0.15459 0.34497
 N29 N 0.65655 0.34694 0.34532
 N30 N 0.65329 0.84195 0.84413
 N31 N 0.15320 0.34229 0.84627
 N32 N 0.15541 0.84658 0.34628
 O33 O 0.25420 1.01616 0.22921
 O34 O 0.23067 0.98534 0.25205
 O35 O 0.23166 1.01717 0.25132
 O36 O 0.25311 0.98423 0.22983
 O37 O 0.27277 0.98491 0.24813
 O38 O 0.25003 1.01618 0.27087
 O39 O 0.25030 0.98432 0.27035
 O40 O 0.27261 1.01677 0.24873
 Cu41 Cu 0.24052 1.00074 0.23868
 Cu42 Cu 0.26334 1.00053 0.26142
 C43 C 0.26729 1.02196 0.23522
 C44 C 0.23659 0.97938 0.26499
 C45 C 0.23709 1.02220 0.26485
 C46 C 0.26666 0.97901 0.23524
 O47 O 0.22723 0.48251 0.75392
 O48 O 0.24982 0.51368 0.73077
 O49 O 0.24949 0.48193 0.73131
 O50 O 0.22774 0.51428 0.75353
 O51 O 0.24722 0.51445 0.77203
 O52 O 0.26873 0.48187 0.75006
 O53 O 0.26915 0.51385 0.74942
 O54 O 0.24665 0.48247 0.77248
 Cu55 Cu 0.23662 0.49810 0.74052
 Cu56 Cu 0.25988 0.49817 0.76287
 C57 C 0.23311 0.47709 0.76710
 C58 C 0.26331 0.51914 0.73616
 C59 C 0.26278 0.47631 0.73695
 C60 C 0.23382 0.51996 0.76654
 O61 O 0.74645 -0.01674 0.22852
 O62 O 0.76812 0.01589 0.25055
 O63 O 0.76853 -0.01599 0.25114
 O64 O 0.74596 0.01513 0.22797
 O65 O 0.72726 0.01595 0.24718
 O66 O 0.74865 -0.01678 0.26914
 O67 O 0.74940 0.01504 0.26975
 O68 O 0.72654 -0.01593 0.24649
 Cu69 Cu 0.75921 -0.00042 0.23767
 Cu70 Cu 0.73601 -0.00044 0.26000
 C71 C 0.73273 -0.02183 0.23367
 C72 C 0.76255 0.02094 0.26400
 C73 C 0.76232 -0.02189 0.26398
 C74 C 0.73288 0.02106 0.23376
 O75 O 0.73112 0.51597 0.74915
 O76 O 0.75336 0.48402 0.77144
 O77 O 0.75337 0.51589 0.77193
 O78 O 0.73139 0.48412 0.74895
 O79 O 0.75055 0.48477 0.73018
 O80 O 0.77263 0.51641 0.75326
 O81 O 0.77277 0.48448 0.75292
 O82 O 0.75064 0.51662 0.73074
 Cu83 Cu 0.74037 0.50001 0.76224
 Cu84 Cu 0.76360 0.50058 0.73992
 C85 C 0.73709 0.52179 0.73616
 C86 C 0.76680 0.47868 0.76592
 C87 C 0.76673 0.52163 0.76649
 C88 C 0.73723 0.47898 0.73566
 O89 O 0.22724 0.51617 0.24642
 O90 O 0.24911 0.48373 0.26845
 O91 O 0.24962 0.51543 0.26873
 O92 O 0.22648 0.48423 0.24612
 O93 O 0.24584 0.48359 0.22756
 O94 O 0.26829 0.51582 0.24948
 O95 O 0.26828 0.48381 0.24967
 O96 O 0.24583 0.51543 0.22711
 Cu97 Cu 0.23618 0.49988 0.25930
 Cu98 Cu 0.25898 0.49968 0.23657
 C99 C 0.23279 0.52133 0.23298
 C100 C 0.26247 0.47826 0.26284
 C101 C 0.26283 0.52107 0.26290
 C102 C 0.23229 0.47843 0.23308
 O103 O 0.74650 1.01442 0.77155
 O104 O 0.76924 0.98274 0.74948
 O105 O 0.76911 1.01475 0.74940
 O106 O 0.74661 0.98256 0.77134
 O107 O 0.72739 0.98302 0.75259
 O108 O 0.75058 1.01417 0.72997
 O109 O 0.75023 0.98248 0.73050
 O110 O 0.72805 1.01497 0.75205
 Cu111 Cu 0.75977 0.99864 0.76235
 Cu112 Cu 0.73714 0.99863 0.73939
 C113 C 0.73349 1.02025 0.76549
 C114 C 0.76356 0.97710 0.73629
 C115 C 0.76372 1.01990 0.73589
 C116 C 0.73313 0.97730 0.76572
 O117 O 0.73056 0.48642 0.25113
 O118 O 0.75322 0.51814 0.22877
 O119 O 0.75291 0.48625 0.22852
 O120 O 0.73121 0.51829 0.25118
 O121 O 0.75036 0.51771 0.27000
 O122 O 0.77206 0.48571 0.24734
 O123 O 0.77265 0.51760 0.24731
 O124 O 0.74998 0.48585 0.26968
 Cu125 Cu 0.74004 0.50227 0.23802
 Cu126 Cu 0.76320 0.50173 0.26045
 C127 C 0.73642 0.48066 0.26419
 C128 C 0.76677 0.52336 0.23425
 C129 C 0.76615 0.48045 0.23411
 C130 C 0.73711 0.52351 0.26444
 O131 O 0.27340 0.01658 0.75333
 O132 O 0.25109 -0.01546 0.73104
 O133 O 0.25095 0.01623 0.73106
 O134 O 0.27358 -0.01542 0.75348
 O135 O 0.25425 -0.01592 0.77207
 O136 O 0.23223 0.01652 0.75027
 O137 O 0.23194 -0.01550 0.74984
 O138 O 0.25473 0.01590 0.77258
 Cu139 Cu 0.26420 0.00049 0.74037
 Cu140 Cu 0.24136 0.00026 0.76307
 C141 C 0.26788 0.02173 0.76676
 C142 C 0.23769 -0.02094 0.73662
 C143 C 0.23778 0.02188 0.73691
 C144 C 0.26767 -0.02124 0.76650
 O145 O 0.25185 0.22887 0.98463
 O146 O 0.22856 0.25052 1.01609
 O147 O 0.22874 0.25036 0.98439
 O148 O 0.25174 0.22883 1.01618
 O149 O 0.26976 0.24895 1.01674
 O150 O 0.24722 0.27008 0.98434
 O151 O 0.24664 0.27060 1.01571
 O152 O 0.27055 0.24837 0.98513
 Cu153 Cu 0.23836 0.23767 1.00034
 Cu154 Cu 0.26042 0.26146 1.00047
 C155 C 0.26519 0.23491 0.97952
 C156 C 0.23359 0.26429 1.02123
 C157 C 0.23411 0.26383 0.97884
 C158 C 0.26460 0.23527 1.02201
 O159 O 0.22785 0.75240 0.51512
 O160 O 0.24994 0.72911 0.48393
 O161 O 0.24954 0.72916 0.51563
 O162 O 0.22838 0.75212 0.48355
 O163 O 0.24771 0.77100 0.48429
 O164 O 0.26962 0.74725 0.51533
 O165 O 0.26951 0.74775 0.48395
 O166 O 0.24798 0.77040 0.51592
 Cu167 Cu 0.23696 0.73884 0.49957
 Cu168 Cu 0.26066 0.76098 0.49988
 C169 C 0.23423 0.76529 0.52098
 C170 C 0.26343 0.73454 0.47850
 C171 C 0.26325 0.73422 0.52090
 C172 C 0.23442 0.76548 0.47844
 O173 O 0.27379 0.75240 -0.01490
 O174 O 0.25021 0.73048 0.01630
 O175 O 0.25092 0.72999 -0.01525
 O176 O 0.27283 0.75260 0.01667
 O177 O 0.25413 0.77196 0.01578
 O178 O 0.23235 0.74946 -0.01629
 O179 O 0.23124 0.74957 0.01530
 O180 O 0.25495 0.77161 -0.01574
 Cu181 Cu 0.26383 0.73944 0.00074
 Cu182 Cu 0.24127 0.76258 -0.00028
 C183 C 0.26839 0.76574 -0.02069
 C184 C 0.23672 0.73631 0.02119
 C185 C 0.23795 0.73591 -0.02130
 C186 C 0.26718 0.76611 0.02173
 O187 O 0.27123 0.25276 0.48376
 O188 O 0.24964 0.22953 0.51544
 O189 O 0.24942 0.22955 0.48366
 O190 O 0.27136 0.25279 0.51514
 O191 O 0.25153 0.27101 0.51540
 O192 O 0.22962 0.24779 0.48395
 O193 O 0.22982 0.24775 0.51531
 O194 O 0.25142 0.27100 0.48361
 Cu195 Cu 0.26236 0.23928 0.49949
 Cu196 Cu 0.23866 0.26127 0.49957
 C197 C 0.26499 0.26582 0.47822
 C198 C 0.23608 0.23470 0.52084
 C199 C 0.23579 0.23473 0.47839
 C200 C 0.26515 0.26583 0.52071
 O201 O 0.74561 0.77060 0.98360
 O202 O 0.76858 0.74957 1.01578
 O203 O 0.76922 0.74917 0.98415
 O204 O 0.74512 0.77086 1.01501
 O205 O 0.72745 0.75041 1.01543
 O206 O 0.75071 0.72949 0.98352
 O207 O 0.75097 0.72908 1.01501
 O208 O 0.72734 0.75067 0.98367
 Cu209 Cu 0.75897 0.76204 0.99962
 Cu210 Cu 0.73727 0.73793 0.99942
 C211 C 0.73254 0.76423 0.97815
 C212 C 0.76372 0.73572 1.02087
 C213 C 0.76398 0.73571 0.97841
 C214 C 0.73228 0.76423 1.02065
 O215 O 0.74823 0.27141 0.48378
 O216 O 0.76983 0.24784 0.51516
 O217 O 0.77000 0.24813 0.48378
 O218 O 0.74815 0.27095 0.51541
 O219 O 0.72803 0.25293 0.51448
 O220 O 0.75045 0.22948 0.48370
 O221 O 0.74976 0.22975 0.51537
 O222 O 0.72892 0.25252 0.48294
 Cu223 Cu 0.76100 0.26147 0.49955
 Cu224 Cu 0.73731 0.23931 0.49912
 C225 C 0.73500 0.26587 0.47783
 C226 C 0.76340 0.23485 0.52075
 C227 C 0.76399 0.23488 0.47836
 C228 C 0.73434 0.26586 0.52034
 O229 O 0.77195 0.25300 -0.01502
 O230 O 0.74917 0.22998 0.01597
 O231 O 0.74984 0.23010 -0.01579
 O232 O 0.77126 0.25291 0.01634
 O233 O 0.75165 0.27137 0.01622
 O234 O 0.73035 0.24868 -0.01601
 O235 O 0.72960 0.24847 0.01535
 O236 O 0.75249 0.27160 -0.01553
 Cu237 Cu 0.76247 0.23958 0.00041
 Cu238 Cu 0.73911 0.26194 -0.00004
 C239 C 0.76611 0.26622 -0.02060
 C240 C 0.73553 0.23531 0.02101
 C241 C 0.73646 0.23553 -0.02144
 C242 C 0.76506 0.26599 0.02182
 O243 O 0.77310 0.75364 0.48494
 O244 O 0.75049 0.72991 0.51556
 O245 O 0.75084 0.73093 0.48397
 O246 O 0.77282 0.75279 0.51634
 O247 O 0.75368 0.77173 0.51652
 O248 O 0.73120 0.74933 0.48485
 O249 O 0.73157 0.74905 0.51637
 O250 O 0.75354 0.77214 0.48481
 Cu251 Cu 0.76373 0.73991 0.50018
 Cu252 Cu 0.74058 0.76247 0.50064
 C253 C 0.76711 0.76687 0.47953
 C254 C 0.73726 0.73552 0.52133
 C255 C 0.73724 0.73637 0.47891
 C256 C 0.76701 0.76601 0.52196
 O257 O 0.98263 0.24784 0.27188
 O258 O 1.01490 0.26906 0.24898
 O259 O 0.98314 0.26975 0.24901
 O260 O 1.01464 0.24731 0.27175
 O261 O 1.01436 0.22787 0.25323
 O262 O 0.98198 0.24973 0.23114
 O263 O 1.01386 0.24985 0.23025
 O264 O 0.98267 0.22784 0.25395
 Cu265 Cu 0.99886 0.26043 0.26227
 Cu266 Cu 0.99818 0.23687 0.24029
 C267 C 0.97717 0.23419 0.26686
 C268 C 1.01985 0.26313 0.23566
 C269 C 0.97707 0.26351 0.23627
 C270 C 1.02002 0.23385 0.26629
 O271 O 0.51647 0.23127 0.75267
 O272 O 0.48442 0.25282 0.72986
 O273 O 0.51647 0.25293 0.72959
 O274 O 0.48483 0.23125 0.75304
 O275 O 0.48484 0.25128 0.77095
 O276 O 0.51650 0.27289 0.74756
 O277 O 0.48486 0.27282 0.74779
 O278 O 0.51690 0.25123 0.77064
 Cu279 Cu 0.50052 0.24011 0.73944
 Cu280 Cu 0.50081 0.26401 0.76109
 C281 C 0.52220 0.23758 0.76553
 C282 C 0.47912 0.26647 0.73495
 C283 C 0.52193 0.26659 0.73460
 C284 C 0.47938 0.23761 0.76597
 O285 O -0.01615 0.26815 0.75023
 O286 O 0.01590 0.24627 0.72781
 O287 O -0.01611 0.24630 0.72736
 O288 O 0.01566 0.26800 0.75058
 O289 O 0.01485 0.24869 0.76926
 O290 O -0.01599 0.22635 0.74538
 O291 O 0.01571 0.22676 0.74629
 O292 O -0.01700 0.24817 0.76820
 Cu293 Cu -0.00015 0.25913 0.73713
 Cu294 Cu -0.00062 0.23553 0.75913
 C295 C -0.02216 0.26184 0.76297
 C296 C 0.02139 0.23285 0.73329
 C297 C -0.02146 0.23261 0.73239
 C298 C 0.02065 0.26208 0.76392
 O299 O 0.51703 0.25027 0.23049
 O300 O 0.48503 0.27269 0.25245
 O301 O 0.51689 0.27243 0.25280
 O302 O 0.48520 0.25023 0.22993
 O303 O 0.48459 0.23115 0.24884
 O304 O 0.51629 0.25334 0.27170
 O305 O 0.48443 0.25334 0.27109
 O306 O 0.51642 0.23091 0.24911
 Cu307 Cu 0.50104 0.26334 0.23954
 Cu308 Cu 0.50044 0.24026 0.26207
 C309 C 0.52223 0.23678 0.23607
 C310 C 0.47919 0.26681 0.26548
 C311 C 0.52206 0.26665 0.26613
 C312 C 0.47942 0.23693 0.23551
 O313 O 0.98609 0.75139 0.73105
 O314 O 1.01842 0.72993 0.75357
 O315 O 0.98663 0.72931 0.75380
 O316 O 1.01808 0.75183 0.73092
 O317 O 1.01813 0.77117 0.74954
 O318 O 0.98589 0.74919 0.77183
 O319 O 1.01778 0.74905 0.77240
 O320 O 0.98644 0.77122 0.74916
 Cu321 Cu 1.00230 0.73868 0.74046
 Cu322 Cu 1.00207 0.76210 0.76261
 C323 C 0.98078 0.76500 0.73623
 C324 C 1.02359 0.73579 0.76687
 C325 C 0.98077 0.73548 0.76665
 C326 C 1.02359 0.76528 0.73639
 O327 O 0.48411 0.74716 0.27309
 O328 O 0.51562 0.76951 0.25010
 O329 O 0.48371 0.76923 0.25055
 O330 O 0.51611 0.74759 0.27274
 O331 O 0.51588 0.72804 0.25433
 O332 O 0.48372 0.74992 0.23189
 O333 O 0.51541 0.75014 0.23151
 O334 O 0.48411 0.72770 0.25459
 Cu335 Cu 0.49990 0.76031 0.26350
 Cu336 Cu 0.49977 0.73698 0.24124
 C337 C 0.47867 0.73364 0.26772
 C338 C 0.52091 0.76363 0.23688
 C339 C 0.47819 0.76329 0.23743
 C340 C 0.52159 0.73416 0.26730
 O341 O -0.01528 0.77285 0.25142
 O342 O 0.01705 0.75074 0.22963
 O343 O -0.01475 0.75066 0.22868
 O344 O 0.01660 0.77271 0.25214
 O345 O 0.01587 0.75341 0.27082
 O346 O -0.01558 0.73142 0.24743
 O347 O 0.01624 0.73117 0.24805
 O348 O -0.01596 0.75337 0.26992
 Cu349 Cu 0.00093 0.76370 0.23862
 Cu350 Cu 0.00014 0.74040 0.26092
 C351 C -0.02122 0.76684 0.26435
 C352 C 0.02218 0.73718 0.23513
 C353 C -0.02058 0.73731 0.23408
 C354 C 0.02166 0.76679 0.26545
 O355 O 0.48417 0.72512 0.74441
 O356 O 0.51483 0.74819 0.76779
 O357 O 0.48305 0.74737 0.76686
 O358 O 0.51601 0.72604 0.74525
 O359 O 0.51519 0.74471 0.72595
 O360 O 0.48391 0.76723 0.74878
 O361 O 0.51575 0.76689 0.74852
 O362 O 0.48335 0.74500 0.72633
 Cu363 Cu 0.49952 0.73473 0.75795
 Cu364 Cu 0.49957 0.75789 0.73552
 C365 C 0.47831 0.73125 0.73152
 C366 C 0.52071 0.76137 0.76204
 C367 C 0.47794 0.76103 0.76159
 C368 C 0.52114 0.73165 0.73183
 C369 C 0.38501 0.32371 0.32092
 C370 C 0.38466 0.32667 0.33772
 C371 C 0.37087 0.33354 0.34498
 C372 C 0.35727 0.33785 0.33559
 C373 C 0.35762 0.33512 0.31883
 C374 C 0.37128 0.32803 0.31158
 C375 C 0.39950 0.31597 0.31319
 C376 C 0.40428 0.32031 0.29740
 C377 C 0.41750 0.31262 0.28994
 C378 C 0.42647 0.30053 0.29814
 C379 C 0.42190 0.29642 0.31406
 C380 C 0.40853 0.30394 0.32143
 C381 C 0.44030 0.29202 0.29003
 C382 C 0.44333 0.27536 0.29306
 C383 C 0.45611 0.26728 0.28528
 C384 C 0.46604 0.27557 0.27409
 C385 C 0.46308 0.29220 0.27102
 C386 C 0.45045 0.30036 0.27899
 H387 H 0.39508 0.32381 0.34527
 H388 H 0.37085 0.33567 0.35791
 H389 H 0.34716 0.33820 0.31141
 H390 H 0.37092 0.32564 0.29870
 H391 H 0.39782 0.32971 0.29076
 H392 H 0.42049 0.31598 0.27761
 H393 H 0.42866 0.28738 0.32088
 H394 H 0.40513 0.30009 0.33351
 H395 H 0.43561 0.26842 0.30120
 H396 H 0.45801 0.25442 0.28779
 H397 H 0.47062 0.29893 0.26253
 H398 H 0.44872 0.31325 0.27657
 C399 C 0.38618 0.81911 0.81966
 C400 C 0.38748 0.82347 0.83610
 C401 C 0.37454 0.83118 0.84400
 C402 C 0.36014 0.83490 0.83559
 C403 C 0.35877 0.83063 0.81920
 C404 C 0.37163 0.82276 0.81132
 C405 C 0.39990 0.81075 0.81127
 C406 C 0.40344 0.81420 0.79496
 C407 C 0.41620 0.80622 0.78703
 C408 C 0.42588 0.79470 0.79526
 C409 C 0.42242 0.79136 0.81161
 C410 C 0.40955 0.79921 0.81948
 C411 C 0.43941 0.78614 0.78678
 C412 C 0.44285 0.76964 0.79017
 C413 C 0.45548 0.76156 0.78214
 C414 C 0.46485 0.76972 0.77038
 C415 C 0.46145 0.78619 0.76696
 C416 C 0.44895 0.79433 0.77514
 H417 H 0.39858 0.82112 0.84284
 H418 H 0.37578 0.83445 0.85665
 H419 H 0.34763 0.83322 0.81260
 H420 H 0.37005 0.81930 0.79877
 H421 H 0.39642 0.82318 0.78831
 H422 H 0.41834 0.80895 0.77438
 H423 H 0.42974 0.78274 0.81840
 H424 H 0.40706 0.79608 0.83198
 H425 H 0.43559 0.76284 0.79884
 H426 H 0.45773 0.74882 0.78494
 H427 H 0.46854 0.79284 0.75805
 H428 H 0.44686 0.80711 0.77243
 C429 C -0.11519 0.31884 0.82015
 C430 C -0.11419 0.32315 0.83663
 C431 C -0.12728 0.33080 0.84433
 C432 C -0.14154 0.33452 0.83569
 C433 C -0.14264 0.33026 0.81928
 C434 C -0.12963 0.32244 0.81160
 C435 C -0.10127 0.31063 0.81193
 C436 C -0.09751 0.31419 0.79569
 C437 C -0.08456 0.30637 0.78792
 C438 C -0.07490 0.29491 0.79623
 C439 C -0.07857 0.29145 0.81251
 C440 C -0.09163 0.29914 0.82024
 C441 C -0.06115 0.28651 0.78791
 C442 C -0.05760 0.27003 0.79127
 C443 C -0.04481 0.26209 0.78333
 C444 C -0.03539 0.27039 0.77171
 C445 C -0.03889 0.28685 0.76834
 C446 C -0.05155 0.29484 0.77641
 H447 H -0.10319 0.32082 0.84353
 H448 H -0.12625 0.33407 0.85700
 H449 H -0.15366 0.33284 0.81251
 H450 H -0.13099 0.31901 0.79901
 H451 H -0.10450 0.32314 0.78898
 H452 H -0.08225 0.30919 0.77532
 H453 H -0.07127 0.28286 0.81937
 H454 H -0.09428 0.29593 0.83268
 H455 H -0.06489 0.26313 0.79982
 H456 H -0.04249 0.24936 0.78610
 H457 H -0.03176 0.29360 0.75952
 H458 H -0.05371 0.30761 0.77373
 C459 C -0.11514 0.82317 0.32070
 C460 C -0.11436 0.82767 0.33714
 C461 C -0.12778 0.83485 0.34474
 C462 C -0.14216 0.83790 0.33603
 C463 C -0.14302 0.83350 0.31965
 C464 C -0.12968 0.82614 0.31207
 C465 C -0.10093 0.81532 0.31263
 C466 C -0.09726 0.81873 0.29634
 C467 C -0.08411 0.81111 0.28867
 C468 C -0.07418 0.80000 0.29715
 C469 C -0.07773 0.79676 0.31351
 C470 C -0.09098 0.80425 0.32111
 C471 C -0.06037 0.79164 0.28891
 C472 C -0.05659 0.77528 0.29260
 C473 C -0.04375 0.76734 0.28478
 C474 C -0.03449 0.77548 0.27292
 C475 C -0.03822 0.79181 0.26919
 C476 C -0.05095 0.79983 0.27716
 H477 H -0.10331 0.82583 0.34410
 H478 H -0.12693 0.83824 0.35739
 H479 H -0.15411 0.83558 0.31282
 H480 H -0.13086 0.82255 0.29951
 H481 H -0.10449 0.82737 0.28948
 H482 H -0.08190 0.81375 0.27602
 H483 H -0.07022 0.78847 0.32050
 H484 H -0.09354 0.80116 0.33361
 H485 H -0.06375 0.76847 0.30134
 H486 H -0.04127 0.75470 0.28782
 H487 H -0.03124 0.79843 0.26018
 H488 H -0.05331 0.81250 0.27421
 C489 C 0.61603 0.67852 0.32246
 C490 C 0.61572 0.67477 0.33905
 C491 C 0.62932 0.66771 0.34651
 C492 C 0.64328 0.66397 0.33740
 C493 C 0.64349 0.66745 0.32076
 C494 C 0.63003 0.67481 0.31337
 C495 C 0.60190 0.68654 0.31466
 C496 C 0.60417 0.70081 0.30546
 C497 C 0.59083 0.70852 0.29819
 C498 C 0.57506 0.70191 0.29974
 C499 C 0.57280 0.68754 0.30880
 C500 C 0.58610 0.68001 0.31636
 C501 C 0.56103 0.71000 0.29184
 C502 C 0.55047 0.70110 0.28173
 C503 C 0.53761 0.70893 0.27374
 C504 C 0.53490 0.72574 0.27601
 C505 C 0.54529 0.73455 0.28641
 C506 C 0.55833 0.72678 0.29412
 H507 H 0.60508 0.67762 0.34629
 H508 H 0.62899 0.66507 0.35935
 H509 H 0.65420 0.66472 0.31359
 H510 H 0.63048 0.67753 0.30054
 H511 H 0.61624 0.70609 0.30407
 H512 H 0.59285 0.71954 0.29118
 H513 H 0.56072 0.68228 0.31019
 H514 H 0.58411 0.66897 0.32335
 H515 H 0.55239 0.68815 0.27975
 H516 H 0.52976 0.70185 0.26583
 H517 H 0.54352 0.74753 0.28832
 H518 H 0.56630 0.73386 0.30194
 C519 C 0.61643 0.18052 0.82099
 C520 C 0.62984 0.17556 0.81154
 C521 C 0.64330 0.16798 0.81871
 C522 C 0.64378 0.16540 0.83550
 C523 C 0.63050 0.17037 0.84499
 C524 C 0.61692 0.17774 0.83781
 C525 C 0.60209 0.18862 0.81332
 C526 C 0.59355 0.20105 0.82145
 C527 C 0.58019 0.20874 0.81416
 C528 C 0.57513 0.20435 0.79847
 C529 C 0.58369 0.19193 0.79035
 C530 C 0.59689 0.18409 0.79771
 C531 C 0.56115 0.21279 0.79050
 C532 C 0.55066 0.20421 0.77998
 C533 C 0.53798 0.21225 0.77196
 C534 C 0.53529 0.22901 0.77446
 C535 C 0.54547 0.23755 0.78525
 C536 C 0.55834 0.22957 0.79308
 H537 H 0.63010 0.17778 0.79863
 H538 H 0.65353 0.16440 0.81122
 H539 H 0.63062 0.16837 0.85795
 H540 H 0.60672 0.18109 0.84544
 H541 H 0.59731 0.20504 0.83338
 H542 H 0.57379 0.21807 0.82090
 H543 H 0.58035 0.18837 0.77816
 H544 H 0.60296 0.17440 0.79116
 H545 H 0.55218 0.19123 0.77796
 H546 H 0.53021 0.20532 0.76383
 H547 H 0.54376 0.25051 0.78732
 H548 H 0.56630 0.23666 0.80086
 C549 C 1.11587 0.67891 0.82567
 C550 C 1.12972 0.68813 0.83012
 C551 C 1.14322 0.68059 0.83724
 C552 C 1.14329 0.66364 0.83986
 C553 C 1.12953 0.65438 0.83550
 C554 C 1.11590 0.66194 0.82860
 C555 C 1.10164 0.68692 0.81768
 C556 C 1.09267 0.67870 0.80563
 C557 C 1.07961 0.68634 0.79783
 C558 C 1.07528 0.70251 0.80168
 C559 C 1.08418 0.71069 0.81382
 C560 C 1.09710 0.70296 0.82179
 C561 C 1.06179 0.71089 0.79286
 C562 C 1.05169 0.72224 0.80079
 C563 C 1.03931 0.73037 0.79236
 C564 C 1.03658 0.72715 0.77588
 C565 C 1.04650 0.71569 0.76798
 C566 C 1.05904 0.70776 0.77632
 H567 H 1.13032 0.70114 0.82777
 H568 H 1.15382 0.68790 0.84036
 H569 H 1.12934 0.64130 0.83754
 H570 H 1.10537 0.65448 0.82565
 H571 H 1.09591 0.66643 0.80195
 H572 H 1.07288 0.67952 0.78876
 H573 H 1.08138 0.72321 0.81699
 H574 H 1.10351 0.70960 0.83119
 H575 H 1.05322 0.72476 0.81357
 H576 H 1.03176 0.73906 0.79879
 H577 H 1.04478 0.71307 0.75523
 H578 H 1.06675 0.69939 0.76970
 C579 C 1.11434 0.17714 0.32197
 C580 C 1.11473 0.17416 0.33877
 C581 C 1.12850 0.16720 0.34601
 C582 C 1.14205 0.16283 0.33661
 C583 C 1.14166 0.16559 0.31985
 C584 C 1.12802 0.17277 0.31262
 C585 C 1.09985 0.18494 0.31426
 C586 C 1.09500 0.18059 0.29849
 C587 C 1.08175 0.18829 0.29104
 C588 C 1.07282 0.20038 0.29924
 C589 C 1.07748 0.20452 0.31512
 C590 C 1.09088 0.19699 0.32248
 C591 C 1.05892 0.20884 0.29114
 C592 C 1.05585 0.22550 0.29409
 C593 C 1.04304 0.23352 0.28625
 C594 C 1.03313 0.22516 0.27508
 C595 C 1.03610 0.20852 0.27214
 C596 C 1.04875 0.20042 0.28017
 H597 H 1.10434 0.17705 0.34633
 H598 H 1.12855 0.16505 0.35895
 H599 H 1.15209 0.16248 0.31243
 H600 H 1.12835 0.17518 0.29974
 H601 H 1.10141 0.17118 0.29186
 H602 H 1.07871 0.18491 0.27873
 H603 H 1.07076 0.21358 0.32193
 H604 H 1.09434 0.20084 0.33454
 H605 H 1.06358 0.23249 0.30219
 H606 H 1.04112 0.24639 0.28865
 H607 H 1.02857 0.20173 0.26369
 H608 H 1.05049 0.18752 0.27784
 C609 C 0.61529 0.32367 0.67736
 C610 C 0.61544 0.32653 0.66055
 C611 C 0.62902 0.33373 0.65313
 C612 C 0.64262 0.33845 0.66237
 C613 C 0.64246 0.33582 0.67915
 C614 C 0.62900 0.32841 0.68656
 C615 C 0.60100 0.31565 0.68527
 C616 C 0.59623 0.32012 0.70101
 C617 C 0.58312 0.31230 0.70862
 C618 C 0.57425 0.29995 0.70062
 C619 C 0.57887 0.29563 0.68479
 C620 C 0.59212 0.30331 0.67726
 C621 C 0.56041 0.29148 0.70886
 C622 C 0.55742 0.27472 0.70628
 C623 C 0.54470 0.26670 0.71437
 C624 C 0.53485 0.27520 0.72541
 C625 C 0.53771 0.29195 0.72792
 C626 C 0.55024 0.30002 0.71965
 H627 H 0.60501 0.32335 0.65311
 H628 H 0.62890 0.33577 0.64017
 H629 H 0.65293 0.33919 0.68646
 H630 H 0.62951 0.32611 0.69946
 H631 H 0.60257 0.32974 0.70748
 H632 H 0.58012 0.31580 0.72089
 H633 H 0.57220 0.28636 0.67815
 H634 H 0.59555 0.29936 0.66523
 H635 H 0.56514 0.26766 0.69829
 H636 H 0.54285 0.25375 0.71229
 H637 H 0.53020 0.29885 0.73624
 H638 H 0.55191 0.31300 0.72168
 C639 C 0.61258 0.82016 0.17654
 C640 C 0.61270 0.83709 0.17338
 C641 C 0.62620 0.84451 0.16604
 C642 C 0.63974 0.83515 0.16145
 C643 C 0.63959 0.81824 0.16431
 C644 C 0.62622 0.81084 0.17189
 C645 C 0.59846 0.81230 0.18488
 C646 C 0.59368 0.79623 0.18101
 C647 C 0.58082 0.78864 0.18924
 C648 C 0.57221 0.79698 0.20141
 C649 C 0.57679 0.81316 0.20507
 C650 C 0.58981 0.82066 0.19701
 C651 C 0.55872 0.78875 0.21041
 C652 C 0.55616 0.79198 0.22695
 C653 C 0.54370 0.78404 0.23547
 C654 C 0.53368 0.77247 0.22773
 C655 C 0.53616 0.76922 0.21122
 C656 C 0.54844 0.77737 0.20263
 H657 H 0.60232 0.84463 0.17648
 H658 H 0.62608 0.85756 0.16381
 H659 H 0.65003 0.81086 0.16103
 H660 H 0.62677 0.79786 0.17441
 H661 H 0.59984 0.78947 0.17156
 H662 H 0.57784 0.77610 0.18622
 H663 H 0.57030 0.82008 0.21417
 H664 H 0.59325 0.83296 0.20051
 H665 H 0.56399 0.80041 0.23346
 H666 H 0.54214 0.78668 0.24823
 H667 H 0.52852 0.76047 0.20491
 H668 H 0.54979 0.77480 0.18985
 C669 C 1.11137 0.32021 0.17558
 C670 C 1.11130 0.33716 0.17250
 C671 C 1.12478 0.34479 0.16535
 C672 C 1.13850 0.33563 0.16089
 C673 C 1.13855 0.31872 0.16368
 C674 C 1.12519 0.31110 0.17105
 C675 C 1.09728 0.31213 0.18377
 C676 C 1.09271 0.29602 0.17981
 C677 C 1.07991 0.28823 0.18796
 C678 C 1.07117 0.29642 0.20014
 C679 C 1.07551 0.31265 0.20385
 C680 C 1.08846 0.32035 0.19587
 C681 C 1.05781 0.28799 0.20915
 C682 C 1.05530 0.29117 0.22570
 C683 C 1.04285 0.28324 0.23422
 C684 C 1.03278 0.27171 0.22648
 C685 C 1.03528 0.26842 0.20999
 C686 C 1.04757 0.27656 0.20138
 H687 H 1.10078 0.34453 0.17551
 H688 H 1.12451 0.35785 0.16318
 H689 H 1.14912 0.31149 0.16048
 H690 H 1.12587 0.29811 0.17351
 H691 H 1.09902 0.28938 0.17038
 H692 H 1.07708 0.27568 0.18488
 H693 H 1.06889 0.31946 0.21295
 H694 H 1.09173 0.33267 0.19943
 H695 H 1.06313 0.29960 0.23220
 H696 H 1.04131 0.28591 0.24697
 H697 H 1.02761 0.25968 0.20368
 H698 H 1.04893 0.27399 0.18860
 C699 C 1.11648 0.82312 0.67909
 C700 C 1.11645 0.82612 0.66229
 C701 C 1.13000 0.83328 0.65477
 C702 C 1.14374 0.83782 0.66389
 C703 C 1.14376 0.83505 0.68065
 C704 C 1.13034 0.82768 0.68816
 C705 C 1.10224 0.81511 0.68710
 C706 C 1.09773 0.81938 0.70297
 C707 C 1.08472 0.81149 0.71068
 C708 C 1.07568 0.79928 0.70266
 C709 C 1.08001 0.79521 0.68668
 C710 C 1.09318 0.80293 0.67905
 C711 C 1.06200 0.79066 0.71101
 C712 C 1.05895 0.77397 0.70811
 C713 C 1.04631 0.76581 0.71615
 C714 C 1.03657 0.77407 0.72747
 C715 C 1.03955 0.79073 0.73038
 C716 C 1.05202 0.79897 0.72215
 H717 H 1.10591 0.82309 0.65495
 H718 H 1.12974 0.83544 0.64183
 H719 H 1.15434 0.83830 0.68785
 H720 H 1.13099 0.82526 0.70103
 H721 H 1.10422 0.82888 0.70947
 H722 H 1.08193 0.81482 0.72305
 H723 H 1.07320 0.78606 0.68001
 H724 H 1.09639 0.79913 0.66692
 H725 H 1.06655 0.76706 0.69988
 H726 H 1.04438 0.75292 0.71377
 H727 H 1.03214 0.79745 0.73894
 H728 H 1.05375 0.81188 0.72446
 C729 C 0.38445 0.67369 0.67556
 C730 C 0.38390 0.67096 0.65873
 C731 C 0.37007 0.66399 0.65153
 C732 C 0.35663 0.65936 0.66101
 C733 C 0.35718 0.66186 0.67780
 C734 C 0.37088 0.66906 0.68499
 C735 C 0.39896 0.68155 0.68323
 C736 C 0.40400 0.67700 0.69888
 C737 C 0.41723 0.68479 0.70633
 C738 C 0.42595 0.69719 0.69824
 C739 C 0.42112 0.70151 0.68246
 C740 C 0.40774 0.69388 0.67510
 C741 C 0.43978 0.70579 0.70637
 C742 C 0.44254 0.72258 0.70370
 C743 C 0.45525 0.73076 0.71163
 C744 C 0.46534 0.72241 0.72261
 C745 C 0.46269 0.70565 0.72525
 C746 C 0.45014 0.69740 0.71713
 H747 H 0.39420 0.67408 0.65111
 H748 H 0.36989 0.66203 0.63856
 H749 H 0.34683 0.65855 0.68529
 H750 H 0.37067 0.67127 0.69790
 H751 H 0.39773 0.66738 0.70543
 H752 H 0.42041 0.68127 0.71856
 H753 H 0.42768 0.71081 0.67573
 H754 H 0.40413 0.69788 0.66312
 H755 H 0.43465 0.72954 0.69576
 H756 H 0.45692 0.74372 0.70945
 H757 H 0.47038 0.69887 0.73354
 H758 H 0.44863 0.68442 0.71924
 C759 C 0.38694 0.18090 0.17693
 C760 C 0.38812 0.16465 0.17154
 C761 C 0.37465 0.15690 0.16443
 C762 C 0.35993 0.16538 0.16237
 C763 C 0.35887 0.18173 0.16737
 C764 C 0.37222 0.18939 0.17472
 C765 C 0.40083 0.18887 0.18527
 C766 C 0.39838 0.19685 0.20011
 C767 C 0.41145 0.20429 0.20815
 C768 C 0.42716 0.20411 0.20136
 C769 C 0.42962 0.19625 0.18645
 C770 C 0.41658 0.18854 0.17854
 C771 C 0.44092 0.21212 0.20990
 C772 C 0.45113 0.22323 0.20175
 C773 C 0.46368 0.23131 0.21005
 C774 C 0.46641 0.22819 0.22657
 C775 C 0.45638 0.21681 0.23461
 C776 C 0.44367 0.20896 0.22639
 H777 H 0.39933 0.15785 0.17321
 H778 H 0.37562 0.14428 0.16060
 H779 H 0.34756 0.18840 0.16590
 H780 H 0.37107 0.20195 0.17868
 H781 H 0.38636 0.19716 0.20558
 H782 H 0.40926 0.21036 0.21959
 H783 H 0.44166 0.19590 0.18104
 H784 H 0.41872 0.18251 0.16707
 H785 H 0.44916 0.22591 0.18905
 H786 H 0.47126 0.23998 0.20355
 H787 H 0.45817 0.21419 0.24735
 H788 H 0.43600 0.20036 0.23288
 C789 C -0.11252 0.68062 0.17417
 C790 C -0.12629 0.68988 0.16972
 C791 C -0.13983 0.68239 0.16253
 C792 C -0.14003 0.66546 0.15985
 C793 C -0.12634 0.65617 0.16419
 C794 C -0.11267 0.66367 0.17114
 C795 C -0.09827 0.68855 0.18226
 C796 C -0.08943 0.68023 0.19432
 C797 C -0.07637 0.68781 0.20225
 C798 C -0.07193 0.70402 0.19854
 C799 C -0.08068 0.71230 0.18639
 C800 C -0.09360 0.70463 0.17828
 C801 C -0.05848 0.71235 0.20753
 C802 C -0.04826 0.72379 0.19977
 C803 C -0.03596 0.73193 0.20838
 C804 C -0.03343 0.72861 0.22487
 C805 C -0.04345 0.71703 0.23260
 C806 C -0.05591 0.70910 0.22408
 H807 H -0.12680 0.70288 0.17214
 H808 H -0.15037 0.68973 0.15944
 H809 H -0.12625 0.64310 0.16208
 H810 H -0.10220 0.65618 0.17407
 H811 H -0.09278 0.66793 0.19789
 H812 H -0.06976 0.68093 0.21132
 H813 H -0.07778 0.72484 0.18332
 H814 H -0.09991 0.71134 0.16889
 H815 H -0.04965 0.72640 0.18699
 H816 H -0.02833 0.74071 0.20208
 H817 H -0.04189 0.71434 0.24535
 H818 H -0.06372 0.70066 0.23058
 C819 C -0.11598 0.17622 0.67642
 C820 C -0.12951 0.17165 0.68594
 C821 C -0.14323 0.16440 0.67886
 C822 C -0.14384 0.16177 0.66210
 C823 C -0.13045 0.16636 0.65252
 C824 C -0.11661 0.17340 0.65961
 C825 C -0.10137 0.18399 0.68401
 C826 C -0.09253 0.19624 0.67582
 C827 C -0.07902 0.20374 0.68310
 C828 C -0.07411 0.19934 0.69884
 C829 C -0.08293 0.18705 0.70698
 C830 C -0.09628 0.17940 0.69963
 C831 C -0.06010 0.20773 0.70687
 C832 C -0.04981 0.19915 0.71755
 C833 C -0.03719 0.20721 0.72573
 C834 C -0.03437 0.22397 0.72322
 C835 C -0.04433 0.23248 0.71225
 C836 C -0.05713 0.22449 0.70426
 H837 H -0.12965 0.17394 0.69885
 H838 H -0.15354 0.16111 0.68641
 H839 H -0.13069 0.16432 0.63957
 H840 H -0.10634 0.17647 0.65193
 H841 H -0.09619 0.20027 0.66387
 H842 H -0.07241 0.21297 0.67634
 H843 H -0.07970 0.18348 0.71920
 H844 H -0.10259 0.16983 0.70621
 H845 H -0.05147 0.18618 0.71960
 H846 H -0.02960 0.20030 0.73401
 H847 H -0.04251 0.24544 0.71018
 H848 H -0.06494 0.23158 0.69637
 C849 C 0.31976 0.38575 0.32098
 C850 C 0.31064 0.37186 0.32556
 C851 C 0.31823 0.35856 0.33301
 C852 C 0.33512 0.35872 0.33583
 C853 C 0.34429 0.37248 0.33126
 C854 C 0.33669 0.38591 0.32404
 C855 C 0.31167 0.39987 0.31288
 C856 C 0.31984 0.40889 0.30083
 C857 C 0.31216 0.42197 0.29306
 C858 C 0.29600 0.42624 0.29694
 C859 C 0.28784 0.41724 0.30902
 C860 C 0.29561 0.40432 0.31696
 C861 C 0.28762 0.43984 0.28828
 C862 C 0.27628 0.44984 0.29636
 C863 C 0.26810 0.46229 0.28810
 C864 C 0.27125 0.46523 0.27164
 C865 C 0.28273 0.45546 0.26360
 C866 C 0.29072 0.44283 0.27178
 H867 H 0.29767 0.37110 0.32311
 H868 H 0.31099 0.34795 0.33629
 H869 H 0.35733 0.37284 0.33346
 H870 H 0.34407 0.39648 0.32099
 H871 H 0.33212 0.40571 0.29718
 H872 H 0.31895 0.42875 0.28403
 H873 H 0.27533 0.41998 0.31220
 H874 H 0.28900 0.39786 0.32635
 H875 H 0.27381 0.44815 0.30913
 H876 H 0.25940 0.46973 0.29464
 H877 H 0.28530 0.45736 0.25087
 H878 H 0.29910 0.43521 0.26504
 C879 C 0.32400 -0.11534 0.82250
 C880 C 0.31499 -0.12618 0.83229
 C881 C 0.32244 -0.13979 0.83932
 C882 C 0.33916 -0.14285 0.83691
 C883 C 0.34825 -0.13183 0.82738
 C884 C 0.34075 -0.11831 0.82020
 C885 C 0.31590 -0.10118 0.81452
 C886 C 0.32416 -0.08618 0.81262
 C887 C 0.31655 -0.07298 0.80494
 C888 C 0.30047 -0.07444 0.79917
 C889 C 0.29218 -0.08937 0.80111
 C890 C 0.29983 -0.10261 0.80861
 C891 C 0.29232 -0.06047 0.79112
 C892 C 0.27621 -0.05633 0.79521
 C893 C 0.26833 -0.04341 0.78739
 C894 C 0.27632 -0.03448 0.77518
 C895 C 0.29248 -0.03857 0.77115
 C896 C 0.30044 -0.05137 0.77912
 H897 H 0.30214 -0.12414 0.83457
 H898 H 0.31504 -0.14806 0.84648
 H899 H 0.36117 -0.13374 0.82540
 H900 H 0.34805 -0.11036 0.81259
 H901 H 0.33643 -0.08454 0.81725
 H902 H 0.32314 -0.06153 0.80374
 H903 H 0.27986 -0.09088 0.79656
 H904 H 0.29322 -0.11406 0.80953
 H905 H 0.26973 -0.06305 0.80452
 H906 H 0.25587 -0.04058 0.79076
 H907 H 0.29897 -0.03189 0.76181
 H908 H 0.31283 -0.05440 0.77568
 C909 C 0.82253 0.38425 0.82189
 C910 C 0.81334 0.37336 0.83145
 C911 C 0.82067 0.35975 0.83860
 C912 C 0.83745 0.35677 0.83656
 C913 C 0.84671 0.36781 0.82723
 C914 C 0.83933 0.38133 0.81992
 C915 C 0.81456 0.39844 0.81384
 C916 C 0.82282 0.41348 0.81220
 C917 C 0.81531 0.42673 0.80453
 C918 C 0.79933 0.42530 0.79852
 C919 C 0.79104 0.41033 0.80016
 C920 C 0.79860 0.39703 0.80764
 C921 C 0.79125 0.43933 0.79051
 C922 C 0.77510 0.44343 0.79448
 C923 C 0.76729 0.45639 0.78669
 C924 C 0.77539 0.46541 0.77461
 C925 C 0.79160 0.46138 0.77071
 C926 C 0.79949 0.44852 0.77867
 H927 H 0.80044 0.37536 0.83348
 H928 H 0.81315 0.35144 0.84559
 H929 H 0.85968 0.36594 0.82553
 H930 H 0.84677 0.38932 0.81248
 H931 H 0.83501 0.41510 0.81705
 H932 H 0.82189 0.43820 0.80355
 H933 H 0.77879 0.40884 0.79541
 H934 H 0.79200 0.38556 0.80835
 H935 H 0.76854 0.43662 0.80368
 H936 H 0.75479 0.45918 0.78995
 H937 H 0.79816 0.46813 0.76148
 H938 H 0.81191 0.44553 0.77533
 C939 C 0.82006 -0.11389 0.32188
 C940 C 0.81124 -0.12509 0.33143
 C941 C 0.81908 -0.13837 0.33868
 C942 C 0.83597 -0.14070 0.33672
 C943 C 0.84484 -0.12935 0.32739
 C944 C 0.83697 -0.11616 0.31999
 C945 C 0.81160 -0.10006 0.31372
 C946 C 0.81931 -0.08473 0.31207
 C947 C 0.81142 -0.07185 0.30417
 C948 C 0.79560 -0.07394 0.29792
 C949 C 0.78783 -0.08918 0.29964
 C950 C 0.79577 -0.10211 0.30737
 C951 C 0.78723 -0.06034 0.28950
 C952 C 0.77085 -0.05672 0.29301
 C953 C 0.76284 -0.04408 0.28488
 C954 C 0.77099 -0.03493 0.27293
 C955 C 0.78739 -0.03852 0.26946
 C956 C 0.79546 -0.05104 0.27774
 H957 H 0.79826 -0.12359 0.33338
 H958 H 0.81185 -0.14693 0.34568
 H959 H 0.85788 -0.13072 0.32575
 H960 H 0.84413 -0.10792 0.31255
 H961 H 0.83136 -0.08262 0.31706
 H962 H 0.81760 -0.06016 0.30316
 H963 H 0.77572 -0.09117 0.29472
 H964 H 0.78959 -0.11381 0.30810
 H965 H 0.76428 -0.06363 0.30213
 H966 H 0.75019 -0.04162 0.28781
 H967 H 0.79400 -0.03166 0.26033
 H968 H 0.80806 -0.05367 0.27474
 C969 C 0.31965 0.61103 0.67581
 C970 C 0.33651 0.61106 0.67244
 C971 C 0.34390 0.62459 0.66510
 C972 C 0.33458 0.63825 0.66073
 C973 C 0.31774 0.63820 0.66380
 C974 C 0.31036 0.62479 0.67136
 C975 C 0.31182 0.59688 0.68415
 C976 C 0.29570 0.59220 0.68040
 C977 C 0.28816 0.57929 0.68863
 C978 C 0.29659 0.57053 0.70067
 C979 C 0.31281 0.57501 0.70421
 C980 C 0.32028 0.58808 0.69614
 C981 C 0.28841 0.55699 0.70966
 C982 C 0.29178 0.55430 0.72617
 C983 C 0.28385 0.54182 0.73469
 C984 C 0.27218 0.53190 0.72698
 C985 C 0.26882 0.53449 0.71051
 C986 C 0.27694 0.54679 0.70191
 H987 H 0.34400 0.60059 0.67538
 H988 H 0.35691 0.62440 0.66271
 H989 H 0.31039 0.64873 0.66069
 H990 H 0.29744 0.62540 0.67404
 H991 H 0.28887 0.59848 0.67107
 H992 H 0.27559 0.57638 0.68571
 H993 H 0.31980 0.56841 0.71320
 H994 H 0.33262 0.59144 0.69953
 H995 H 0.30029 0.56207 0.73265
 H996 H 0.28659 0.54018 0.74742
 H997 H 0.25999 0.52692 0.70421
 H998 H 0.27427 0.54823 0.68915
 C999 C 0.32463 1.11536 0.17863
 C1000 C 0.32249 1.11808 0.16194
 C1001 C 0.32966 1.13161 0.15439
 C1002 C 0.33901 1.14289 0.16334
 C1003 C 0.34130 1.14006 0.17999
 C1004 C 0.33429 1.12644 0.18751
 C1005 C 0.31660 1.10124 0.18681
 C1006 C 0.31040 1.10285 0.20261
 C1007 C 0.30281 1.08966 0.21032
 C1008 C 0.30105 1.07460 0.20236
 C1009 C 0.30713 1.07294 0.18656
 C1010 C 0.31490 1.08609 0.17889
 C1011 C 0.29280 1.06072 0.21054
 C1012 C 0.28082 1.05151 0.20242
 C1013 C 0.27257 1.03885 0.21039
 C1014 C 0.27631 1.03502 0.22658
 C1015 C 0.28852 1.04405 0.23458
 C1016 C 0.29661 1.05683 0.22667
 H1017 H 0.31499 1.10992 0.15475
 H1018 H 0.32779 1.13332 0.14152
 H1019 H 0.34835 1.14850 0.18730
 H1020 H 0.33646 1.12459 0.20031
 H1021 H 0.31115 1.11441 0.20896
 H1022 H 0.29801 1.09133 0.22243
 H1023 H 0.30607 1.06139 0.18022
 H1024 H 0.31976 1.08431 0.16684
 H1025 H 0.27758 1.05435 0.19002
 H1026 H 0.26324 1.03209 0.20390
 H1027 H 0.29166 1.04141 0.24705
 H1028 H 0.30590 1.06365 0.23315
 C1029 C 0.82454 0.61607 0.17640
 C1030 C 0.82701 0.61623 0.15952
 C1031 C 0.83392 0.62987 0.15191
 C1032 C 0.83877 0.64351 0.16101
 C1033 C 0.83655 0.64335 0.17785
 C1034 C 0.82940 0.62985 0.18545
 C1035 C 0.81669 0.60178 0.18450
 C1036 C 0.82131 0.59711 0.20025
 C1037 C 0.81350 0.58411 0.20809
 C1038 C 0.80100 0.57524 0.20031
 C1039 C 0.79664 0.57967 0.18443
 C1040 C 0.80428 0.59283 0.17668
 C1041 C 0.79234 0.56167 0.20883
 C1042 C 0.77558 0.55890 0.20617
 C1043 C 0.76737 0.54631 0.21425
 C1044 C 0.77565 0.53636 0.22541
 C1045 C 0.79236 0.53910 0.22815
 C1046 C 0.80065 0.55152 0.21986
 H1047 H 0.82373 0.60576 0.15218
 H1048 H 0.83565 0.62975 0.13891
 H1049 H 0.84004 0.65386 0.18505
 H1050 H 0.82739 0.63037 0.19839
 H1051 H 0.83100 0.60349 0.20658
 H1052 H 0.81708 0.58122 0.22038
 H1053 H 0.78729 0.57298 0.17791
 H1054 H 0.80021 0.59616 0.16465
 H1055 H 0.76866 0.56665 0.19806
 H1056 H 0.75444 0.54459 0.21201
 H1057 H 0.79908 0.53152 0.23660
 H1058 H 0.81361 0.55306 0.22201
 C1059 C 0.81959 1.11313 0.67714
 C1060 C 0.81014 1.12670 0.67249
 C1061 C 0.81739 1.14017 0.66492
 C1062 C 0.83427 1.14047 0.66203
 C1063 C 0.84376 1.12700 0.66663
 C1064 C 0.83650 1.11341 0.67400
 C1065 C 0.81187 1.09885 0.68538
 C1066 C 0.82027 1.09023 0.69755
 C1067 C 0.81291 1.07700 0.70545
 C1068 C 0.79689 1.07215 0.70154
 C1069 C 0.78851 1.08076 0.68936
 C1070 C 0.79594 1.09384 0.68131
 C1071 C 0.78884 1.05835 0.71026
 C1072 C 0.77785 1.04791 0.70214
 C1073 C 0.76978 1.03539 0.71046
 C1074 C 0.77268 1.03283 0.72703
 C1075 C 0.78391 1.04296 0.73510
 C1076 C 0.79181 1.05566 0.72684
 H1077 H 0.79718 1.12710 0.67500
 H1078 H 0.80990 1.15055 0.66163
 H1079 H 0.85679 1.12699 0.66439
 H1080 H 0.84412 1.10309 0.67711
 H1081 H 0.83246 1.09385 0.70119
 H1082 H 0.81985 1.07053 0.71459
 H1083 H 0.77608 1.07757 0.68616
 H1084 H 0.78918 1.09999 0.67184
 H1085 H 0.77552 1.04934 0.68932
 H1086 H 0.76130 1.02766 0.70389
 H1087 H 0.78630 1.04134 0.74790
 H1088 H 0.79995 1.06359 0.73357
 C1089 C 0.68049 0.61582 0.32325
 C1090 C 0.66353 0.61581 0.32612
 C1091 C 0.65598 0.62928 0.33328
 C1092 C 0.66523 0.64293 0.33799
 C1093 C 0.68216 0.64294 0.33539
 C1094 C 0.68970 0.62959 0.32799
 C1095 C 0.68850 0.60170 0.31513
 C1096 C 0.70450 0.59706 0.31929
 C1097 C 0.71221 0.58418 0.31128
 C1098 C 0.70405 0.57540 0.29904
 C1099 C 0.68794 0.57984 0.29510
 C1100 C 0.68032 0.59288 0.30294
 C1101 C 0.71238 0.56188 0.29026
 C1102 C 0.70931 0.55917 0.27370
 C1103 C 0.71718 0.54658 0.26540
 C1104 C 0.72853 0.53656 0.27337
 C1105 C 0.73170 0.53924 0.28987
 C1106 C 0.72362 0.55167 0.29826
 H1107 H 0.65608 0.60533 0.32295
 H1108 H 0.64291 0.62904 0.33530
 H1109 H 0.68946 0.65346 0.33877
 H1110 H 0.70270 0.63024 0.32570
 H1111 H 0.71111 0.60336 0.32879
 H1112 H 0.72468 0.58129 0.31453
 H1113 H 0.68114 0.57321 0.28596
 H1114 H 0.66809 0.59620 0.29922
 H1115 H 0.70103 0.56697 0.26702
 H1116 H 0.71461 0.54490 0.25264
 H1117 H 0.74030 0.53161 0.29635
 H1118 H 0.72608 0.55315 0.31105
 C1119 C 0.67919 1.11568 0.82145
 C1120 C 0.68894 1.12916 0.82592
 C1121 C 0.68197 1.14291 0.83313
 C1122 C 0.66507 1.14361 0.83582
 C1123 C 0.65526 1.13027 0.83132
 C1124 C 0.66225 1.11640 0.82433
 C1125 C 0.68664 1.10105 0.81370
 C1126 C 0.67818 1.09225 0.80168
 C1127 C 0.68530 1.07869 0.79423
 C1128 C 0.70117 1.07367 0.79844
 C1129 C 0.70960 1.08244 0.81050
 C1130 C 0.70240 1.09585 0.81810
 C1131 C 0.70901 1.05957 0.79012
 C1132 C 0.71975 1.04917 0.79854
 C1133 C 0.72763 1.03637 0.79057
 C1134 C 0.72476 1.03346 0.77405
 C1135 C 0.71377 1.04357 0.76569
 C1136 C 0.70609 1.05655 0.77359
 H1137 H 0.70195 1.12925 0.82359
 H1138 H 0.68970 1.15318 0.83635
 H1139 H 0.64221 1.13057 0.83342
 H1140 H 0.65438 1.10617 0.82135
 H1141 H 0.66612 1.09599 0.79779
 H1142 H 0.67831 1.07211 0.78519
 H1143 H 0.72192 1.07913 0.81392
 H1144 H 0.70920 1.10212 0.82749
 H1145 H 0.72205 1.05087 0.81134
 H1146 H 0.73593 1.02868 0.79736
 H1147 H 0.71142 1.04170 0.75291
 H1148 H 0.69815 1.06443 0.76661
 C1149 C 0.17820 0.61402 0.82357
 C1150 C 0.17347 0.62776 0.81443
 C1151 C 0.16646 0.64133 0.82195
 C1152 C 0.16427 0.64158 0.83878
 C1153 C 0.16900 0.62797 0.84797
 C1154 C 0.17576 0.61427 0.84045
 C1155 C 0.18586 0.59963 0.81555
 C1156 C 0.19816 0.59065 0.82341
 C1157 C 0.20555 0.57735 0.81578
 C1158 C 0.20104 0.57280 0.79997
 C1159 C 0.18869 0.58174 0.79213
 C1160 C 0.18112 0.59489 0.79986
 C1161 C 0.20935 0.55899 0.79161
 C1162 C 0.20074 0.54885 0.78076
 C1163 C 0.20868 0.53620 0.77259
 C1164 C 0.22534 0.53320 0.77528
 C1165 C 0.23391 0.54313 0.78627
 C1166 C 0.22606 0.55595 0.79423
 H1167 H 0.17546 0.62821 0.80148
 H1168 H 0.16307 0.65181 0.81468
 H1169 H 0.16728 0.62792 0.86097
 H1170 H 0.17894 0.60383 0.84786
 H1171 H 0.20232 0.59404 0.83540
 H1172 H 0.21480 0.57061 0.82234
 H1173 H 0.18501 0.57879 0.77988
 H1174 H 0.17151 0.60131 0.79350
 H1175 H 0.18781 0.55058 0.77865
 H1176 H 0.20173 0.52865 0.76428
 H1177 H 0.24681 0.54120 0.78848
 H1178 H 0.23320 0.56367 0.80221
 C1179 C 0.17957 1.11482 0.32226
 C1180 C 0.18872 1.12863 0.32698
 C1181 C 0.18112 1.14198 0.33430
 C1182 C 0.16419 1.14192 0.33688
 C1183 C 0.15498 1.12823 0.33216
 C1184 C 0.16260 1.11476 0.32504
 C1185 C 0.18768 1.10066 0.31432
 C1186 C 0.17966 1.09177 0.30207
 C1187 C 0.18738 1.07868 0.29441
 C1188 C 0.20343 1.07425 0.29861
 C1189 C 0.21142 1.08309 0.31091
 C1190 C 0.20362 1.09604 0.31873
 C1191 C 0.21187 1.06066 0.29005
 C1192 C 0.22290 1.05044 0.29831
 C1193 C 0.23111 1.03797 0.29013
 C1194 C 0.22831 1.03527 0.27357
 C1195 C 0.21716 1.04530 0.26534
 C1196 C 0.20913 1.05792 0.27344
 H1197 H 0.20173 1.12930 0.32474
 H1198 H 0.18839 1.15252 0.33770
 H1199 H 0.14192 1.12794 0.33417
 H1200 H 0.15519 1.10425 0.32187
 H1201 H 0.16748 1.09508 0.29818
 H1202 H 0.18072 1.07201 0.28520
 H1203 H 0.22384 1.08020 0.31435
 H1204 H 0.21009 1.10239 0.32828
 H1205 H 0.22509 1.05196 0.31115
 H1206 H 0.23955 1.03034 0.29682
 H1207 H 0.21486 1.04360 0.25253
 H1208 H 0.20101 1.06572 0.26658
 C1209 C 0.68000 0.38685 0.67642
 C1210 C 0.66305 0.38682 0.67349
 C1211 C 0.65544 0.37329 0.66636
 C1212 C 0.66463 0.35963 0.66175
 C1213 C 0.68156 0.35968 0.66440
 C1214 C 0.68915 0.37308 0.67176
 C1215 C 0.68807 0.40101 0.68454
 C1216 C 0.70411 0.40565 0.68045
 C1217 C 0.71188 0.41855 0.68849
 C1218 C 0.70375 0.42733 0.70069
 C1219 C 0.68760 0.42290 0.70454
 C1220 C 0.67991 0.40985 0.69667
 C1221 C 0.71217 0.44082 0.70955
 C1222 C 0.70906 0.44348 0.72610
 C1223 C 0.71704 0.45601 0.73448
 C1224 C 0.72852 0.46602 0.72661
 C1225 C 0.73171 0.46339 0.71012
 C1226 C 0.72353 0.45102 0.70165
 H1227 H 0.65564 0.39729 0.67659
 H1228 H 0.64238 0.37349 0.66429
 H1229 H 0.68882 0.34916 0.66109
 H1230 H 0.70214 0.37247 0.67410
 H1231 H 0.71071 0.39935 0.67099
 H1232 H 0.72439 0.42143 0.68531
 H1233 H 0.68082 0.42952 0.71365
 H1234 H 0.66765 0.40653 0.70034
 H1235 H 0.70068 0.43569 0.73271
 H1236 H 0.71444 0.45765 0.74724
 H1237 H 0.74042 0.47100 0.70371
 H1238 H 0.72603 0.44957 0.68887
 C1239 C 0.67564 -0.11549 0.17677
 C1240 C 0.67301 -0.11583 0.15991
 C1241 C 0.66593 -0.12951 0.15254
 C1242 C 0.66109 -0.14302 0.16187
 C1243 C 0.66355 -0.14269 0.17868
 C1244 C 0.67085 -0.12914 0.18604
 C1245 C 0.68349 -0.10107 0.18465
 C1246 C 0.67884 -0.09619 0.20030
 C1247 C 0.68658 -0.08303 0.20793
 C1248 C 0.69903 -0.07422 0.20003
 C1249 C 0.70345 -0.07890 0.18425
 C1250 C 0.69587 -0.09221 0.17671
 C1251 C 0.70755 -0.06044 0.20833
 C1252 C 0.72432 -0.05762 0.20580
 C1253 C 0.73241 -0.04491 0.21382
 C1254 C 0.72399 -0.03488 0.22476
 C1255 C 0.70725 -0.03761 0.22730
 C1256 C 0.69909 -0.05016 0.21909
 H1257 H 0.67626 -0.10546 0.15241
 H1258 H 0.66402 -0.12952 0.13957
 H1259 H 0.66008 -0.15309 0.18605
 H1260 H 0.67299 -0.12951 0.19897
 H1261 H 0.66917 -0.10251 0.20671
 H1262 H 0.68297 -0.07996 0.22016
 H1263 H 0.71279 -0.07227 0.17766
 H1264 H 0.69994 -0.09571 0.16474
 H1265 H 0.73134 -0.06545 0.19788
 H1266 H 0.74536 -0.04318 0.21172
 H1267 H 0.70042 -0.02997 0.23557
 H1268 H 0.68612 -0.05172 0.22111
 C1269 C 0.17389 0.38536 0.17651
 C1270 C 0.16933 0.37158 0.18571
 C1271 C 0.16211 0.35801 0.17831
 C1272 C 0.15951 0.35779 0.16152
 C1273 C 0.16403 0.37145 0.15227
 C1274 C 0.17103 0.38515 0.15969
 C1275 C 0.18184 0.39972 0.18439
 C1276 C 0.19406 0.40868 0.17630
 C1277 C 0.20180 0.42190 0.18384
 C1278 C 0.19772 0.42638 0.19977
 C1279 C 0.18543 0.41748 0.20782
 C1280 C 0.17752 0.40442 0.20019
 C1281 C 0.20646 0.44003 0.20806
 C1282 C 0.19829 0.45019 0.21914
 C1283 C 0.20666 0.46266 0.22728
 C1284 C 0.22333 0.46543 0.22433
 C1285 C 0.23147 0.45549 0.21310
 C1286 C 0.22318 0.44286 0.20516
 H1287 H 0.17164 0.37110 0.19861
 H1288 H 0.15887 0.34749 0.18562
 H1289 H 0.16200 0.37153 0.13931
 H1290 H 0.17407 0.39562 0.15224
 H1291 H 0.19789 0.40533 0.16422
 H1292 H 0.21099 0.42861 0.17713
 H1293 H 0.18208 0.42040 0.22016
 H1294 H 0.16799 0.39801 0.20672
 H1295 H 0.18537 0.44862 0.22147
 H1296 H 0.20004 0.47023 0.23578
 H1297 H 0.24436 0.45724 0.21069
 H1298 H 0.22999 0.43511 0.19699
 C1299 C 0.18077 -0.11362 0.67790
 C1300 C 0.19002 -0.12731 0.67319
 C1301 C 0.18252 -0.14073 0.66578
 C1302 C 0.16560 -0.14089 0.66313
 C1303 C 0.15631 -0.12731 0.66777
 C1304 C 0.16382 -0.11375 0.67495
 C1305 C 0.18874 -0.09942 0.68605
 C1306 C 0.18051 -0.09064 0.69819
 C1307 C 0.18808 -0.07750 0.70604
 C1308 C 0.20419 -0.07293 0.70215
 C1309 C 0.21240 -0.08168 0.68999
 C1310 C 0.20474 -0.09466 0.68197
 C1311 C 0.21247 -0.05927 0.71089
 C1312 C 0.22374 -0.04906 0.70287
 C1313 C 0.23191 -0.03661 0.71122
 C1314 C 0.22880 -0.03388 0.72771
 C1315 C 0.21735 -0.04383 0.73569
 C1316 C 0.20938 -0.05646 0.72743
 H1317 H 0.20302 -0.12784 0.67554
 H1318 H 0.18985 -0.15120 0.66245
 H1319 H 0.14325 -0.12719 0.66571
 H1320 H 0.15634 -0.10334 0.67808
 H1321 H 0.16828 -0.09406 0.70185
 H1322 H 0.18125 -0.07091 0.71513
 H1323 H 0.22488 -0.07871 0.68680
 H1324 H 0.21140 -0.10092 0.67252
 H1325 H 0.22620 -0.05059 0.69009
 H1326 H 0.24058 -0.02903 0.70472
 H1327 H 0.21481 -0.04209 0.74845
 H1328 H 0.20105 -0.06423 0.73412
 C1329 C 0.32144 0.32238 0.38460
 C1330 C 0.32631 0.31289 0.37124
 C1331 C 0.33361 0.32021 0.35777
 C1332 C 0.33598 0.33719 0.35723
 C1333 C 0.33112 0.34673 0.37046
 C1334 C 0.32405 0.33941 0.38407
 C1335 C 0.31352 0.31457 0.39892
 C1336 C 0.30114 0.32269 0.40752
 C1337 C 0.29357 0.31526 0.42080
 C1338 C 0.29802 0.29941 0.42573
 C1339 C 0.31041 0.29131 0.41713
 C1340 C 0.31813 0.29883 0.40400
 C1341 C 0.28964 0.29126 0.43960
 C1342 C 0.29824 0.28059 0.44988
 C1343 C 0.29025 0.27240 0.46246
 C1344 C 0.27353 0.27491 0.46525
 C1345 C 0.26497 0.28584 0.45527
 C1346 C 0.27290 0.29383 0.44251
 H1347 H 0.32421 0.29982 0.37103
 H1348 H 0.33710 0.31268 0.34757
 H1349 H 0.33297 0.35985 0.37029
 H1350 H 0.32076 0.34709 0.39421
 H1351 H 0.29707 0.33472 0.40385
 H1352 H 0.28427 0.32200 0.42725
 H1353 H 0.31402 0.27901 0.42037
 H1354 H 0.32779 0.29228 0.39787
 H1355 H 0.31120 0.27857 0.44828
 H1356 H 0.29719 0.26416 0.47007
 H1357 H 0.25204 0.28791 0.45706
 H1358 H 0.26579 0.30171 0.43470
 C1359 C 0.32724 0.82095 -0.11348
 C1360 C 0.33183 0.83757 -0.11360
 C1361 C 0.33832 0.84473 -0.12758
 C1362 C 0.34050 0.83539 -0.14164
 C1363 C 0.33622 0.81877 -0.14150
 C1364 C 0.32957 0.81165 -0.12762
 C1365 C 0.31967 0.81340 -0.09886
 C1366 C 0.32281 0.79700 -0.09480
 C1367 C 0.31499 0.78964 -0.08163
 C1368 C 0.30396 0.79853 -0.07205
 C1369 C 0.30116 0.81506 -0.07584
 C1370 C 0.30884 0.82237 -0.08913
 C1371 C 0.29506 0.79047 -0.05847
 C1372 C 0.27872 0.79454 -0.05515
 C1373 C 0.27017 0.78668 -0.04272
 C1374 C 0.27768 0.77442 -0.03345
 C1375 C 0.29402 0.77036 -0.03668
 C1376 C 0.30264 0.77837 -0.04898
 H1377 H 0.33048 0.84504 -0.10287
 H1378 H 0.34170 0.85754 -0.12748
 H1379 H 0.33771 0.81143 -0.15230
 H1380 H 0.32589 0.79893 -0.12811
 H1381 H 0.33128 0.78979 -0.10184
 H1382 H 0.31732 0.77685 -0.07921
 H1383 H 0.29297 0.82238 -0.06858
 H1384 H 0.30597 0.83497 -0.09197
 H1385 H 0.27236 0.80355 -0.06238
 H1386 H 0.25755 0.78999 -0.04061
 H1387 H 0.30017 0.76104 -0.02964
 H1388 H 0.31528 0.77511 -0.05099
 C1389 C 0.82459 0.32120 -0.11371
 C1390 C 0.82904 0.33785 -0.11401
 C1391 C 0.83586 0.34480 -0.12794
 C1392 C 0.83849 0.33524 -0.14178
 C1393 C 0.83435 0.31859 -0.14145
 C1394 C 0.82739 0.31166 -0.12761
 C1395 C 0.81679 0.31383 -0.09914
 C1396 C 0.82016 0.29760 -0.09466
 C1397 C 0.81227 0.29040 -0.08145
 C1398 C 0.80095 0.29931 -0.07222
 C1399 C 0.79783 0.31566 -0.07648
 C1400 C 0.80560 0.32281 -0.08981
 C1401 C 0.79220 0.29142 -0.05845
 C1402 C 0.77573 0.29507 -0.05526
 C1403 C 0.76734 0.28715 -0.04275
 C1404 C 0.77518 0.27526 -0.03326
 C1405 C 0.79168 0.27175 -0.03628
 C1406 C 0.80012 0.27981 -0.04864
 H1407 H 0.82733 0.34549 -0.10346
 H1408 H 0.83911 0.35765 -0.12798
 H1409 H 0.83617 0.31107 -0.15207
 H1410 H 0.82385 0.29890 -0.12796
 H1411 H 0.82889 0.29039 -0.10139
 H1412 H 0.81484 0.27773 -0.07869
 H1413 H 0.78937 0.32297 -0.06952
 H1414 H 0.80255 0.33528 -0.09300
 H1415 H 0.76915 0.30374 -0.06271
 H1416 H 0.75460 0.29005 -0.04077
 H1417 H 0.79809 0.26275 -0.02906
 H1418 H 0.81288 0.27693 -0.05050
 C1419 C 0.82426 0.82340 0.38649
 C1420 C 0.82820 0.84018 0.38621
 C1421 C 0.83481 0.84736 0.37229
 C1422 C 0.83774 0.83789 0.35845
 C1423 C 0.83412 0.82113 0.35876
 C1424 C 0.82735 0.81397 0.37258
 C1425 C 0.81665 0.81579 0.40105
 C1426 C 0.82041 0.79963 0.40547
 C1427 C 0.81271 0.79219 0.41865
 C1428 C 0.80118 0.80079 0.42793
 C1429 C 0.79767 0.81708 0.42373
 C1430 C 0.80525 0.82446 0.41041
 C1431 C 0.79262 0.79264 0.44166
 C1432 C 0.77608 0.79597 0.44491
 C1433 C 0.76789 0.78785 0.45742
 C1434 C 0.77597 0.77607 0.46684
 C1435 C 0.79251 0.77285 0.46374
 C1436 C 0.80077 0.78112 0.45139
 H1437 H 0.82627 0.84776 0.39677
 H1438 H 0.83767 0.86030 0.37227
 H1439 H 0.83617 0.81368 0.34812
 H1440 H 0.82418 0.80111 0.37220
 H1441 H 0.82932 0.79266 0.39871
 H1442 H 0.81558 0.77957 0.42136
 H1443 H 0.78905 0.82416 0.43072
 H1444 H 0.80189 0.83686 0.40728
 H1445 H 0.76932 0.80454 0.43753
 H1446 H 0.75510 0.79051 0.45946
 H1447 H 0.79911 0.76395 0.47091
 H1448 H 0.81358 0.77849 0.44949
 C1449 C 0.67781 0.32302 0.61312
 C1450 C 0.67519 0.34002 0.61352
 C1451 C 0.66832 0.34741 0.62715
 C1452 C 0.66367 0.33794 0.64055
 C1453 C 0.66607 0.32097 0.64016
 C1454 C 0.67317 0.31360 0.62665
 C1455 C 0.68553 0.31514 0.59880
 C1456 C 0.68083 0.29934 0.59392
 C1457 C 0.68848 0.29171 0.58084
 C1458 C 0.70089 0.29977 0.57214
 C1459 C 0.70536 0.31570 0.57682
 C1460 C 0.69787 0.32324 0.59004
 C1461 C 0.70934 0.29146 0.55847
 C1462 C 0.72612 0.29403 0.55573
 C1463 C 0.73415 0.28596 0.54315
 C1464 C 0.72566 0.27491 0.53318
 C1465 C 0.70890 0.27235 0.53583
 C1466 C 0.70081 0.28062 0.54825
 H1467 H 0.67832 0.34764 0.60325
 H1468 H 0.66644 0.36051 0.62722
 H1469 H 0.66275 0.31349 0.65048
 H1470 H 0.67529 0.30055 0.62696
 H1471 H 0.67120 0.29281 0.60018
 H1472 H 0.68484 0.27936 0.57777
 H1473 H 0.71467 0.32241 0.57027
 H1474 H 0.70198 0.33533 0.59354
 H1475 H 0.73318 0.30202 0.56351
 H1476 H 0.74710 0.28807 0.54148
 H1477 H 0.70202 0.26401 0.52824
 H1478 H 0.68783 0.27857 0.54977
 C1479 C 0.67604 0.82048 1.11339
 C1480 C 0.65928 0.82408 1.11327
 C1481 C 0.65199 0.83145 1.12670
 C1482 C 0.66141 0.83564 1.14029
 C1483 C 0.67822 0.83232 1.14030
 C1484 C 0.68545 0.82466 1.12701
 C1485 C 0.68368 0.81217 1.09944
 C1486 C 0.69319 0.79812 1.10186
 C1487 C 0.70040 0.79021 1.08871
 C1488 C 0.69848 0.79639 1.07296
 C1489 C 0.68905 0.81050 1.07054
 C1490 C 0.68156 0.81824 1.08367
 C1491 C 0.70656 0.78827 1.05915
 C1492 C 0.71638 0.79732 1.04846
 C1493 C 0.72469 0.78952 1.03588
 C1494 C 0.72304 0.77257 1.03358
 C1495 C 0.71289 0.76358 1.04404
 C1496 C 0.70485 0.77134 1.05682
 H1497 H 0.65179 0.82088 1.10292
 H1498 H 0.63901 0.83394 1.12652
 H1499 H 0.68563 0.83538 1.15074
 H1500 H 0.69842 0.82207 1.12732
 H1501 H 0.69490 0.79319 1.11392
 H1502 H 0.70771 0.77940 1.09085
 H1503 H 0.68738 0.81544 1.05848
 H1504 H 0.67432 0.82910 1.08156
 H1505 H 0.71794 0.81038 1.05010
 H1506 H 0.73240 0.79674 1.02796
 H1507 H 0.71146 0.75049 1.04258
 H1508 H 0.69727 0.76414 1.06488
 C1509 C 0.17552 0.32186 1.11285
 C1510 C 0.18481 0.32686 1.12634
 C1511 C 0.17730 0.33422 1.13964
 C1512 C 0.16034 0.33653 1.13987
 C1513 C 0.15101 0.33156 1.12648
 C1514 C 0.15852 0.32442 1.11306
 C1515 C 0.18353 0.31385 1.09876
 C1516 C 0.17555 0.30129 1.09018
 C1517 C 0.18320 0.29357 1.07714
 C1518 C 0.19911 0.29805 1.07247
 C1519 C 0.20706 0.31064 1.08102
 C1520 C 0.19933 0.31851 1.09390
 C1521 C 0.20751 0.28948 1.05892
 C1522 C 0.21833 0.29799 1.04867
 C1523 C 0.22673 0.28982 1.03640
 C1524 C 0.22431 0.27300 1.03390
 C1525 C 0.21325 0.26453 1.04384
 C1526 C 0.20504 0.27264 1.05629
 H1527 H 0.19785 0.32480 1.12680
 H1528 H 0.18467 0.33778 1.14996
 H1529 H 0.13791 0.33336 1.12641
 H1530 H 0.15101 0.32103 1.10280
 H1531 H 0.16347 0.29719 1.09368
 H1532 H 0.17658 0.28411 1.07071
 H1533 H 0.21940 0.31428 1.07796
 H1534 H 0.20577 0.32830 1.10002
 H1535 H 0.22028 0.31101 1.05007
 H1536 H 0.23507 0.29669 1.02881
 H1537 H 0.21124 0.25153 1.04226
 H1538 H 0.19704 0.26560 1.06409
 C1539 C 0.17865 0.82240 0.61444
 C1540 C 0.17401 0.81299 0.62797
 C1541 C 0.16700 0.82037 0.64152
 C1542 C 0.16468 0.83735 0.64196
 C1543 C 0.16934 0.84682 0.62856
 C1544 C 0.17613 0.83943 0.61489
 C1545 C 0.18626 0.81451 0.60005
 C1546 C 0.19856 0.82257 0.59120
 C1547 C 0.20593 0.81503 0.57792
 C1548 C 0.20136 0.79912 0.57324
 C1549 C 0.18899 0.79109 0.58203
 C1550 C 0.18147 0.79873 0.59517
 C1551 C 0.20966 0.79080 0.55948
 C1552 C 0.20101 0.77999 0.54931
 C1553 C 0.20897 0.77174 0.53679
 C1554 C 0.22569 0.77429 0.53396
 C1555 C 0.23430 0.78529 0.54388
 C1556 C 0.22641 0.79335 0.55656
 H1557 H 0.17607 0.79992 0.62824
 H1558 H 0.16366 0.81288 0.65182
 H1559 H 0.16752 0.85993 0.62865
 H1560 H 0.17925 0.84705 0.60462
 H1561 H 0.20274 0.83464 0.59469
 H1562 H 0.21520 0.82171 0.57130
 H1563 H 0.18528 0.77876 0.57896
 H1564 H 0.17185 0.79223 0.60149
 H1565 H 0.18805 0.77796 0.55096
 H1566 H 0.20199 0.76343 0.52925
 H1567 H 0.24724 0.78740 0.54208
 H1568 H 0.23357 0.80131 0.56429
 C1569 C 0.32008 0.67566 0.61292
 C1570 C 0.32260 0.65863 0.61304
 C1571 C 0.32985 0.65100 0.62638
 C1572 C 0.33496 0.66025 0.63976
 C1573 C 0.33262 0.67723 0.63965
 C1574 C 0.32516 0.68484 0.62645
 C1575 C 0.31209 0.68380 0.59886
 C1576 C 0.31681 0.69964 0.59409
 C1577 C 0.30902 0.70749 0.58120
 C1578 C 0.29645 0.69962 0.57254
 C1579 C 0.29190 0.68368 0.57715
 C1580 C 0.29953 0.67592 0.59019
 C1581 C 0.28801 0.70811 0.55894
 C1582 C 0.27121 0.70569 0.55616
 C1583 C 0.26323 0.71394 0.54362
 C1584 C 0.27180 0.72499 0.53373
 C1585 C 0.28858 0.72738 0.53641
 C1586 C 0.29662 0.71894 0.54878
 H1587 H 0.31914 0.65118 0.60276
 H1588 H 0.33166 0.63789 0.62622
 H1589 H 0.33630 0.68454 0.64997
 H1590 H 0.32312 0.69790 0.62699
 H1591 H 0.32660 0.70602 0.60027
 H1592 H 0.31273 0.71984 0.57820
 H1593 H 0.28245 0.67712 0.57063
 H1594 H 0.29539 0.66382 0.59362
 H1595 H 0.26410 0.69770 0.56389
 H1596 H 0.25026 0.71195 0.54190
 H1597 H 0.29554 0.73571 0.52887
 H1598 H 0.30962 0.72086 0.55029
 C1599 C 0.32225 0.17971 1.11532
 C1600 C 0.33895 0.17570 1.11466
 C1601 C 0.34666 0.16840 1.12791
 C1602 C 0.33781 0.16474 1.14198
 C1603 C 0.32118 0.16868 1.14273
 C1604 C 0.31348 0.17615 1.12956
 C1605 C 0.31404 0.18762 1.10128
 C1606 C 0.29775 0.18377 1.09737
 C1607 C 0.28996 0.19136 1.08433
 C1608 C 0.29830 0.20289 1.07473
 C1609 C 0.31464 0.20662 1.07854
 C1610 C 0.32238 0.19915 1.09169
 C1611 C 0.28994 0.21109 1.06094
 C1612 C 0.29316 0.22760 1.05730
 C1613 C 0.28512 0.23537 1.04451
 C1614 C 0.27353 0.22687 1.03517
 C1615 C 0.27032 0.21037 1.03873
 C1616 C 0.27850 0.20254 1.05140
 H1617 H 0.34603 0.17800 1.10383
 H1618 H 0.35951 0.16540 1.12716
 H1619 H 0.31424 0.16615 1.15361
 H1620 H 0.30071 0.17936 1.13065
 H1621 H 0.29101 0.17477 1.10433
 H1622 H 0.27730 0.18834 1.08192
 H1623 H 0.32153 0.21526 1.07130
 H1624 H 0.33485 0.20259 1.09445
 H1625 H 0.30165 0.23465 1.06455
 H1626 H 0.28776 0.24814 1.04214
 H1627 H 0.26154 0.20347 1.03166
 H1628 H 0.27594 0.18974 1.05362
 C1629 C 0.82185 0.67963 1.11286
 C1630 C 0.83865 0.67627 1.11225
 C1631 C 0.84648 0.66905 1.12549
 C1632 C 0.83758 0.66477 1.13938
 C1633 C 0.82073 0.66787 1.13987
 C1634 C 0.81296 0.67538 1.12678
 C1635 C 0.81364 0.68780 1.09911
 C1636 C 0.80400 0.70171 1.10176
 C1637 C 0.79634 0.70954 1.08879
 C1638 C 0.79792 0.70342 1.07299
 C1639 C 0.80745 0.68942 1.07035
 C1640 C 0.81539 0.68177 1.08329
 C1641 C 0.78956 0.71159 1.05935
 C1642 C 0.77966 0.70255 1.04870
 C1643 C 0.77125 0.71039 1.03617
 C1644 C 0.77287 0.72735 1.03388
 C1645 C 0.78305 0.73632 1.04435
 C1646 C 0.79119 0.72853 1.05706
 H1647 H 0.84575 0.67954 1.10167
 H1648 H 0.85949 0.66672 1.12492
 H1649 H 0.81370 0.66474 1.15054
 H1650 H 0.79997 0.67779 1.12746
 H1651 H 0.80257 0.70661 1.11385
 H1652 H 0.78897 0.72027 1.09110
 H1653 H 0.80888 0.68454 1.05825
 H1654 H 0.82272 0.67102 1.08100
 H1655 H 0.77817 0.68948 1.05030
 H1656 H 0.76352 0.70318 1.02825
 H1657 H 0.78447 0.74941 1.04289
 H1658 H 0.79883 0.73571 1.06509
 C1659 C 0.81956 0.17738 0.61386
 C1660 C 0.82218 0.16037 0.61414
 C1661 C 0.82943 0.15292 0.62757
 C1662 C 0.83444 0.16232 0.64089
 C1663 C 0.83198 0.17928 0.64063
 C1664 C 0.82451 0.18672 0.62732
 C1665 C 0.81162 0.18536 0.59967
 C1666 C 0.81632 0.20116 0.59478
 C1667 C 0.80861 0.20883 0.58174
 C1668 C 0.79615 0.20082 0.57305
 C1669 C 0.79161 0.18492 0.57779
 C1670 C 0.79916 0.17733 0.59099
 C1671 C 0.78783 0.20913 0.55926
 C1672 C 0.77106 0.20664 0.55634
 C1673 C 0.76319 0.21475 0.54364
 C1674 C 0.77185 0.22572 0.53373
 C1675 C 0.78860 0.22815 0.53654
 C1676 C 0.79653 0.21986 0.54907
 H1677 H 0.81881 0.15281 0.60391
 H1678 H 0.83134 0.13982 0.62754
 H1679 H 0.83557 0.18671 0.65089
 H1680 H 0.82239 0.19977 0.62774
 H1681 H 0.82604 0.20764 0.60097
 H1682 H 0.81230 0.22117 0.57863
 H1683 H 0.78224 0.17826 0.57127
 H1684 H 0.79504 0.16525 0.59451
 H1685 H 0.76389 0.19871 0.56408
 H1686 H 0.75024 0.21273 0.54181
 H1687 H 0.79561 0.23642 0.52899
 H1688 H 0.80951 0.22181 0.55069
 C1689 C 0.67899 0.67972 0.38640
 C1690 C 0.67407 0.68909 0.37295
 C1691 C 0.66674 0.68165 0.35955
 C1692 C 0.66439 0.66466 0.35919
 C1693 C 0.66926 0.65524 0.37253
 C1694 C 0.67636 0.66269 0.38606
 C1695 C 0.68706 0.68765 0.40056
 C1696 C 0.69953 0.67958 0.40912
 C1697 C 0.70732 0.68713 0.42221
 C1698 C 0.70303 0.70307 0.42695
 C1699 C 0.69053 0.71112 0.41842
 C1700 C 0.68257 0.70346 0.40549
 C1701 C 0.71172 0.71136 0.44054
 C1702 C 0.70341 0.72219 0.45086
 C1703 C 0.71169 0.73032 0.46331
 C1704 C 0.72842 0.72761 0.46589
 C1705 C 0.73671 0.71662 0.45579
 C1706 C 0.72850 0.70869 0.44318
 H1707 H 0.67619 0.70216 0.37259
 H1708 H 0.66324 0.68910 0.34928
 H1709 H 0.66742 0.64212 0.37250
 H1710 H 0.67968 0.65511 0.39628
 H1711 H 0.70350 0.66749 0.40558
 H1712 H 0.71669 0.68043 0.42862
 H1713 H 0.68702 0.72347 0.42154
 H1714 H 0.67286 0.70998 0.39939
 H1715 H 0.69044 0.72431 0.44944
 H1716 H 0.70495 0.73862 0.47100
 H1717 H 0.74964 0.71440 0.45742
 H1718 H 0.73541 0.70072 0.43532
 C1719 C 0.68024 0.17998 -0.11577
 C1720 C 0.67706 0.16304 -0.11613
 C1721 C 0.66977 0.15583 -0.12969
 C1722 C 0.66528 0.16541 -0.14306
 C1723 C 0.66829 0.18230 -0.14272
 C1724 C 0.67580 0.18949 -0.12929
 C1725 C 0.68820 0.18768 -0.10144
 C1726 C 0.68394 0.20358 -0.09656
 C1727 C 0.69165 0.21097 -0.08335
 C1728 C 0.70367 0.20259 -0.07447
 C1729 C 0.70779 0.18660 -0.07921
 C1730 C 0.70024 0.17929 -0.09257
 C1731 C 0.71198 0.21058 -0.06048
 C1732 C 0.72861 0.20765 -0.05723
 C1733 C 0.73648 0.21548 -0.04434
 C1734 C 0.72799 0.22662 -0.03457
 C1735 C 0.71138 0.22949 -0.03770
 C1736 C 0.70344 0.22146 -0.05041
 H1737 H 0.68001 0.15536 -0.10587
 H1738 H 0.66743 0.14279 -0.12971
 H1739 H 0.66510 0.18985 -0.15302
 H1740 H 0.67836 0.20248 -0.12963
 H1741 H 0.67455 0.21034 -0.10290
 H1742 H 0.68831 0.22337 -0.08026
 H1743 H 0.71681 0.17966 -0.07255
 H1744 H 0.70402 0.16713 -0.09607
 H1745 H 0.73567 0.19958 -0.06486
 H1746 H 0.74933 0.21313 -0.04228
 H1747 H 0.70448 0.23790 -0.03026
 H1748 H 0.69056 0.22376 -0.05227
 C1749 C 0.18164 0.67774 -0.11326
 C1750 C 0.19044 0.67358 -0.12724
 C1751 C 0.18257 0.66607 -0.14030
 C1752 C 0.16572 0.66290 -0.13970
 C1753 C 0.15691 0.66708 -0.12575
 C1754 C 0.16484 0.67429 -0.11255
 C1755 C 0.18992 0.68599 -0.09959
 C1756 C 0.18832 0.67995 -0.08375
 C1757 C 0.19619 0.68780 -0.07086
 C1758 C 0.20548 0.70201 -0.07359
 C1759 C 0.20697 0.70810 -0.08942
 C1760 C 0.19939 0.70007 -0.10233
 C1761 C 0.21353 0.71055 -0.05997
 C1762 C 0.21129 0.72742 -0.05780
 C1763 C 0.21901 0.73559 -0.04505
 C1764 C 0.22938 0.72710 -0.03442
 C1765 C 0.23166 0.71022 -0.03663
 C1766 C 0.22366 0.70198 -0.04920
 H1767 H 0.20342 0.67608 -0.12801
 H1768 H 0.18952 0.66301 -0.15101
 H1769 H 0.14390 0.66469 -0.12512
 H1770 H 0.15781 0.67750 -0.10193
 H1771 H 0.18112 0.66907 -0.08139
 H1772 H 0.19483 0.68294 -0.05873
 H1773 H 0.21415 0.71899 -0.09179
 H1774 H 0.20070 0.70498 -0.11445
 H1775 H 0.20345 0.73424 -0.06593
 H1776 H 0.21708 0.74861 -0.04368
 H1777 H 0.23955 0.70338 -0.02858
 H1778 H 0.22561 0.68898 -0.05071
 C1779 C 0.17815 0.17821 0.38550
 C1780 C 0.17326 0.18771 0.37213
 C1781 C 0.16585 0.18041 0.35870
 C1782 C 0.16338 0.16344 0.35823
 C1783 C 0.16823 0.15389 0.37150
 C1784 C 0.17542 0.16120 0.38505
 C1785 C 0.18622 0.18599 0.39974
 C1786 C 0.19865 0.17782 0.40827
 C1787 C 0.20638 0.18524 0.42147
 C1788 C 0.20206 0.20112 0.42637
 C1789 C 0.18962 0.20927 0.41784
 C1790 C 0.18173 0.20176 0.40480
 C1791 C 0.21062 0.20926 0.44012
 C1792 C 0.20217 0.21996 0.45046
 C1793 C 0.21033 0.22815 0.46292
 C1794 C 0.22709 0.22563 0.46554
 C1795 C 0.23550 0.21466 0.45552
 C1796 C 0.22739 0.20666 0.44287
 H1797 H 0.17545 0.20077 0.37186
 H1798 H 0.16237 0.18794 0.34848
 H1799 H 0.16631 0.14079 0.37137
 H1800 H 0.17871 0.15352 0.39522
 H1801 H 0.20261 0.16577 0.40462
 H1802 H 0.21572 0.17847 0.42786
 H1803 H 0.18611 0.22159 0.42107
 H1804 H 0.17205 0.20835 0.39872
 H1805 H 0.18919 0.22200 0.44898
 H1806 H 0.20350 0.23642 0.47058
 H1807 H 0.24845 0.21257 0.45718
 H1808 H 0.23439 0.19875 0.43502
 C1809 C 0.31905 0.38391 0.67924
 C1810 C 0.31018 0.36976 0.67520
 C1811 C 0.31790 0.35669 0.66751
 C1812 C 0.33466 0.35744 0.66403
 C1813 C 0.34355 0.37155 0.66812
 C1814 C 0.33576 0.38477 0.67552
 C1815 C 0.31090 0.39764 0.68756
 C1816 C 0.31220 0.41363 0.68147
 C1817 C 0.30435 0.42656 0.68931
 C1818 C 0.29540 0.42374 0.70354
 C1819 C 0.29425 0.40778 0.70971
 C1820 C 0.30180 0.39481 0.70169
 C1821 C 0.28728 0.43741 0.71199
 C1822 C 0.28986 0.43988 0.72861
 C1823 C 0.28210 0.45271 0.73666
 C1824 C 0.27135 0.46308 0.72829
 C1825 C 0.26871 0.46055 0.71166
 C1826 C 0.27675 0.44793 0.70354
 H1827 H 0.29726 0.36889 0.67791
 H1828 H 0.31090 0.34585 0.66451
 H1829 H 0.35649 0.37230 0.66549
 H1830 H 0.34284 0.39554 0.67862
 H1831 H 0.31911 0.41606 0.67055
 H1832 H 0.30544 0.43881 0.68440
 H1833 H 0.28733 0.40533 0.72063
 H1834 H 0.30072 0.38257 0.70663
 H1835 H 0.29799 0.43195 0.73533
 H1836 H 0.28430 0.45434 0.74949
 H1837 H 0.26053 0.46841 0.70492
 H1838 H 0.27454 0.44617 0.69072
 C1839 C 0.32362 0.88558 0.17989
 C1840 C 0.32742 0.88616 0.16332
 C1841 C 0.33461 0.87271 0.15575
 C1842 C 0.33841 0.85863 0.16469
 C1843 C 0.33488 0.85816 0.18132
 C1844 C 0.32741 0.87147 0.18883
 C1845 C 0.31543 0.89954 0.18780
 C1846 C 0.30120 0.89699 0.19694
 C1847 C 0.29330 0.91017 0.20427
 C1848 C 0.29969 0.92606 0.20284
 C1849 C 0.31402 0.92859 0.19384
 C1850 C 0.32174 0.91545 0.18623
 C1851 C 0.29137 0.93993 0.21076
 C1852 C 0.30011 0.95062 0.22089
 C1853 C 0.29209 0.96335 0.22886
 C1854 C 0.27526 0.96580 0.22657
 C1855 C 0.26661 0.95529 0.21617
 C1856 C 0.27457 0.94237 0.20846
 H1857 H 0.32450 0.89689 0.15619
 H1858 H 0.33727 0.87325 0.14292
 H1859 H 0.33765 0.84735 0.18837
 H1860 H 0.32464 0.87081 0.20164
 H1861 H 0.29608 0.88483 0.19822
 H1862 H 0.28231 0.90793 0.21123
 H1863 H 0.31910 0.94077 0.19254
 H1864 H 0.33275 0.91766 0.17928
 H1865 H 0.31307 0.94889 0.22288
 H1866 H 0.29906 0.97131 0.23678
 H1867 H 0.25362 0.95686 0.21424
 H1868 H 0.26762 0.93431 0.20063
 C1869 C 0.82153 0.38639 0.17692
 C1870 C 0.83849 0.38591 0.17411
 C1871 C 0.84573 0.37205 0.16734
 C1872 C 0.83614 0.35851 0.16298
 C1873 C 0.81922 0.35900 0.16552
 C1874 C 0.81200 0.37272 0.17253
 C1875 C 0.81383 0.40092 0.18463
 C1876 C 0.79794 0.40579 0.18032
 C1877 C 0.79047 0.41900 0.18804
 C1878 C 0.79877 0.42788 0.20011
 C1879 C 0.81480 0.42325 0.20414
 C1880 C 0.82218 0.40988 0.19661
 C1881 C 0.79064 0.44165 0.20869
 C1882 C 0.79374 0.44454 0.22520
 C1883 C 0.78598 0.45729 0.23335
 C1884 C 0.77470 0.46730 0.22527
 C1885 C 0.77151 0.46446 0.20880
 C1886 C 0.77949 0.45187 0.20056
 H1887 H 0.84619 0.39628 0.17702
 H1888 H 0.85879 0.37191 0.16533
 H1889 H 0.81166 0.34858 0.16239
 H1890 H 0.79898 0.37246 0.17481
 H1891 H 0.79121 0.39940 0.17097
 H1892 H 0.77805 0.42204 0.18473
 H1893 H 0.82172 0.42994 0.21315
 H1894 H 0.83434 0.40641 0.20042
 H1895 H 0.80195 0.43675 0.23198
 H1896 H 0.78855 0.45909 0.24609
 H1897 H 0.76296 0.47208 0.20224
 H1898 H 0.77701 0.45025 0.18779
 C1899 C 0.82180 0.88451 0.67946
 C1900 C 0.83878 0.88466 0.67668
 C1901 C 0.84648 0.87123 0.66958
 C1902 C 0.83736 0.85749 0.66487
 C1903 C 0.82043 0.85733 0.66744
 C1904 C 0.81275 0.87062 0.67477
 C1905 C 0.81359 0.89865 0.68737
 C1906 C 0.79759 0.90308 0.68301
 C1907 C 0.78969 0.91601 0.69077
 C1908 C 0.79767 0.92505 0.70293
 C1909 C 0.81378 0.92081 0.70709
 C1910 C 0.82158 0.90772 0.69950
 C1911 C 0.78914 0.93866 0.71140
 C1912 C 0.79203 0.94171 0.72793
 C1913 C 0.78390 0.95434 0.73593
 C1914 C 0.77249 0.96405 0.72768
 C1915 C 0.76954 0.96105 0.71119
 C1916 C 0.77787 0.94859 0.70311
 H1917 H 0.84612 0.89522 0.67983
 H1918 H 0.85954 0.87159 0.66758
 H1919 H 0.81323 0.84674 0.66404
 H1920 H 0.79974 0.86987 0.67701
 H1921 H 0.79112 0.89659 0.67354
 H1922 H 0.77722 0.91872 0.68737
 H1923 H 0.82044 0.92763 0.71619
 H1924 H 0.83381 0.90457 0.70336
 H1925 H 0.80034 0.93414 0.73483
 H1926 H 0.78631 0.95629 0.74868
 H1927 H 0.76091 0.96844 0.70449
 H1928 H 0.77556 0.94686 0.69032
 C1929 C 0.67894 0.61335 0.67743
 C1930 C 0.67400 0.62720 0.68625
 C1931 C 0.66661 0.64041 0.67844
 C1932 C 0.66421 0.64018 0.66163
 C1933 C 0.66914 0.62645 0.65275
 C1934 C 0.67631 0.61311 0.66057
 C1935 C 0.68700 0.59935 0.68575
 C1936 C 0.69946 0.59050 0.67804
 C1937 C 0.70723 0.57757 0.68597
 C1938 C 0.70293 0.57328 0.70190
 C1939 C 0.69041 0.58209 0.70958
 C1940 C 0.68248 0.59486 0.70158
 C1941 C 0.71161 0.55988 0.71055
 C1942 C 0.70329 0.54973 0.72161
 C1943 C 0.71157 0.53740 0.72998
 C1944 C 0.72829 0.53477 0.72730
 C1945 C 0.73659 0.54474 0.71615
 C1946 C 0.72839 0.55723 0.70797
 H1947 H 0.67612 0.62801 0.69916
 H1948 H 0.66305 0.65099 0.68546
 H1949 H 0.66727 0.62604 0.63978
 H1950 H 0.67965 0.60257 0.65341
 H1951 H 0.70345 0.59370 0.66596
 H1952 H 0.71661 0.57091 0.67954
 H1953 H 0.68688 0.57932 0.72192
 H1954 H 0.67275 0.60119 0.70782
 H1955 H 0.69033 0.55117 0.72369
 H1956 H 0.70483 0.52981 0.73842
 H1957 H 0.74952 0.54309 0.71395
 H1958 H 0.73530 0.56498 0.69984
 C1959 C 0.67722 0.11468 0.17590
 C1960 C 0.68670 0.12831 0.17131
 C1961 C 0.67942 0.14193 0.16413
 C1962 C 0.66248 0.14233 0.16159
 C1963 C 0.65296 0.12881 0.16614
 C1964 C 0.66026 0.11506 0.17310
 C1965 C 0.68497 0.10027 0.18382
 C1966 C 0.67669 0.09149 0.19598
 C1967 C 0.68410 0.07821 0.20366
 C1968 C 0.70008 0.07348 0.19959
 C1969 C 0.70832 0.08221 0.18737
 C1970 C 0.70083 0.09534 0.17952
 C1971 C 0.70821 0.05973 0.20823
 C1972 C 0.71918 0.04938 0.20009
 C1973 C 0.72719 0.03681 0.20837
 C1974 C 0.72422 0.03414 0.22490
 C1975 C 0.71310 0.04427 0.23301
 C1976 C 0.70529 0.05700 0.22481
 H1977 H 0.69972 0.12864 0.17357
 H1978 H 0.68693 0.15235 0.16086
 H1979 H 0.63988 0.12889 0.16415
 H1980 H 0.65260 0.10470 0.17616
 H1981 H 0.66457 0.09503 0.19979
 H1982 H 0.67724 0.07163 0.21280
 H1983 H 0.72071 0.07910 0.18404
 H1984 H 0.70750 0.10161 0.17004
 H1985 H 0.72150 0.05088 0.18728
 H1986 H 0.73561 0.02910 0.20178
 H1987 H 0.71069 0.04259 0.24580
 H1988 H 0.69721 0.06489 0.23159
 C1989 C 0.17734 0.61518 0.17522
 C1990 C 0.18685 0.62876 0.17055
 C1991 C 0.17960 0.64239 0.16334
 C1992 C 0.16266 0.64285 0.16086
 C1993 C 0.15310 0.62937 0.16547
 C1994 C 0.16037 0.61562 0.17245
 C1995 C 0.18505 0.60078 0.18319
 C1996 C 0.17676 0.59206 0.19539
 C1997 C 0.18411 0.57876 0.20309
 C1998 C 0.20006 0.57393 0.19899
 C1999 C 0.20832 0.58261 0.18675
 C2000 C 0.20088 0.59576 0.17888
 C2001 C 0.20813 0.56012 0.20760
 C2002 C 0.21902 0.54972 0.19941
 C2003 C 0.22700 0.53712 0.20764
 C2004 C 0.22409 0.53443 0.22419
 C2005 C 0.21302 0.54459 0.23234
 C2006 C 0.20523 0.55736 0.22418
 H2007 H 0.19988 0.62905 0.17277
 H2008 H 0.18714 0.65277 0.16003
 H2009 H 0.14002 0.62949 0.16353
 H2010 H 0.15268 0.60530 0.17557
 H2011 H 0.16466 0.59567 0.19922
 H2012 H 0.17724 0.57223 0.21225
 H2013 H 0.22069 0.57943 0.18339
 H2014 H 0.20756 0.60198 0.16938
 H2015 H 0.22131 0.55123 0.18659
 H2016 H 0.23537 0.52939 0.20102
 H2017 H 0.21064 0.54289 0.24513
 H2018 H 0.19720 0.56527 0.23099
 C2019 C 0.18124 0.11475 0.67861
 C2020 C 0.19053 0.12847 0.67388
 C2021 C 0.18309 0.14181 0.66632
 C2022 C 0.16619 0.14184 0.66356
 C2023 C 0.15685 0.12824 0.66827
 C2024 C 0.16430 0.11478 0.67560
 C2025 C 0.18917 0.10060 0.68681
 C2026 C 0.18093 0.09181 0.69899
 C2027 C 0.18845 0.07868 0.70683
 C2028 C 0.20451 0.07410 0.70286
 C2029 C 0.21273 0.08288 0.69067
 C2030 C 0.20512 0.09586 0.68268
 C2031 C 0.21272 0.06040 0.71151
 C2032 C 0.22379 0.05017 0.70336
 C2033 C 0.23190 0.03766 0.71161
 C2034 C 0.22894 0.03490 0.72813
 C2035 C 0.21768 0.04487 0.73625
 C2036 C 0.20976 0.05756 0.72807
 H2037 H 0.20351 0.12908 0.67628
 H2038 H 0.19046 0.15229 0.66294
 H2039 H 0.14380 0.12802 0.66611
 H2040 H 0.15680 0.10434 0.67877
 H2041 H 0.16873 0.09522 0.70269
 H2042 H 0.18162 0.07207 0.71596
 H2043 H 0.22518 0.07991 0.68742
 H2044 H 0.21178 0.10214 0.67319
 H2045 H 0.22613 0.05172 0.69056
 H2046 H 0.24041 0.03006 0.70501
 H2047 H 0.21526 0.04310 0.74902
 H2048 H 0.20158 0.06534 0.73484
 C2049 C 0.31937 0.61371 0.32197
 C2050 C 0.31004 0.62732 0.32673
 C2051 C 0.31743 0.64066 0.33438
 C2052 C 0.33432 0.64082 0.33723
 C2053 C 0.34369 0.62731 0.33251
 C2054 C 0.33629 0.61384 0.32507
 C2055 C 0.31150 0.59956 0.31364
 C2056 C 0.31980 0.59095 0.30144
 C2057 C 0.31232 0.57782 0.29348
 C2058 C 0.29626 0.57308 0.29736
 C2059 C 0.28798 0.58169 0.30957
 C2060 C 0.29553 0.59466 0.31768
 C2061 C 0.28810 0.55937 0.28860
 C2062 C 0.27702 0.54900 0.29667
 C2063 C 0.26888 0.53654 0.28833
 C2064 C 0.27181 0.53397 0.27178
 C2065 C 0.28312 0.54405 0.26375
 C2066 C 0.29108 0.55669 0.27203
 H2067 H 0.29707 0.62784 0.32426
 H2068 H 0.31003 0.65107 0.33775
 H2069 H 0.35673 0.62719 0.33472
 H2070 H 0.34382 0.60348 0.32189
 H2071 H 0.33202 0.59448 0.29782
 H2072 H 0.31920 0.57135 0.28432
 H2073 H 0.27552 0.57859 0.31275
 H2074 H 0.28884 0.60080 0.32718
 H2075 H 0.27468 0.55042 0.30949
 H2076 H 0.26034 0.52885 0.29487
 H2077 H 0.28553 0.54242 0.25096
 H2078 H 0.29928 0.56457 0.26532
 C2079 C 0.32414 0.11537 0.82459
 C2080 C 0.31467 0.12882 0.82951
 C2081 C 0.32198 0.14239 0.83682
 C2082 C 0.33895 0.14295 0.83915
 C2083 C 0.34847 0.12963 0.83425
 C2084 C 0.34114 0.11591 0.82717
 C2085 C 0.31633 0.10097 0.81661
 C2086 C 0.32449 0.09238 0.80430
 C2087 C 0.31705 0.07909 0.79660
 C2088 C 0.30113 0.07415 0.80082
 C2089 C 0.29300 0.08270 0.81318
 C2090 C 0.30054 0.09583 0.82105
 C2091 C 0.29294 0.06036 0.79220
 C2092 C 0.28203 0.04990 0.80040
 C2093 C 0.27392 0.03734 0.79215
 C2094 C 0.27673 0.03475 0.77558
 C2095 C 0.28783 0.04496 0.76743
 C2096 C 0.29574 0.05769 0.77560
 H2097 H 0.30161 0.12904 0.82743
 H2098 H 0.31446 0.15266 0.84035
 H2099 H 0.36157 0.12981 0.83607
 H2100 H 0.34881 0.10570 0.82386
 H2101 H 0.33656 0.09608 0.80037
 H2102 H 0.32382 0.07266 0.78735
 H2103 H 0.28066 0.07944 0.81664
 H2104 H 0.29396 0.10193 0.83065
 H2105 H 0.27981 0.05132 0.81324
 H2106 H 0.26553 0.02956 0.79878
 H2107 H 0.29013 0.04335 0.75461
 H2108 H 0.30377 0.06565 0.76877
 C2109 C 0.82326 0.61443 0.82536
 C2110 C 0.84020 0.61462 0.82837
 C2111 C 0.84769 0.62829 0.83536
 C2112 C 0.83838 0.64195 0.83974
 C2113 C 0.82147 0.64174 0.83703
 C2114 C 0.81400 0.62819 0.82981
 C2115 C 0.81534 0.60013 0.81734
 C2116 C 0.79930 0.59543 0.82137
 C2117 C 0.79164 0.58242 0.81339
 C2118 C 0.79990 0.57358 0.80133
 C2119 C 0.81606 0.57806 0.79755
 C2120 C 0.82362 0.59122 0.80535
 C2121 C 0.79160 0.55998 0.79251
 C2122 C 0.79484 0.55720 0.77601
 C2123 C 0.78694 0.54459 0.76766
 C2124 C 0.77541 0.53463 0.77552
 C2125 C 0.77211 0.53737 0.79198
 C2126 C 0.78021 0.54981 0.80041
 H2127 H 0.84770 0.60416 0.82543
 H2128 H 0.86074 0.62821 0.83748
 H2129 H 0.81412 0.65225 0.84017
 H2130 H 0.80101 0.62869 0.82740
 H2131 H 0.79260 0.60179 0.83073
 H2132 H 0.77913 0.57951 0.81651
 H2133 H 0.82294 0.57138 0.78854
 H2134 H 0.83589 0.59457 0.80173
 H2135 H 0.80324 0.56496 0.76940
 H2136 H 0.78962 0.54286 0.75494
 H2137 H 0.76337 0.52978 0.79838
 H2138 H 0.77762 0.55135 0.81317
 C2139 C 0.81963 0.11335 0.32289
 C2140 C 0.81037 0.12696 0.32779
 C2141 C 0.81788 0.14035 0.33525
 C2142 C 0.83482 0.14055 0.33776
 C2143 C 0.84413 0.12707 0.33288
 C2144 C 0.83662 0.11355 0.32565
 C2145 C 0.81164 0.09917 0.31474
 C2146 C 0.81974 0.09056 0.30241
 C2147 C 0.81212 0.07746 0.29455
 C2148 C 0.79609 0.07277 0.29862
 C2149 C 0.78802 0.08134 0.31099
 C2150 C 0.79573 0.09428 0.31902
 C2151 C 0.78774 0.05919 0.28983
 C2152 C 0.77667 0.04879 0.29789
 C2153 C 0.76848 0.03638 0.28951
 C2154 C 0.77137 0.03390 0.27294
 C2155 C 0.78260 0.04407 0.26491
 C2156 C 0.79058 0.05665 0.27322
 H2157 H 0.79735 0.12744 0.32558
 H2158 H 0.81052 0.15074 0.33875
 H2159 H 0.85722 0.12699 0.33483
 H2160 H 0.84411 0.10320 0.32235
 H2161 H 0.83190 0.09408 0.29861
 H2162 H 0.81885 0.07100 0.28529
 H2163 H 0.77560 0.07827 0.31434
 H2164 H 0.78919 0.10042 0.32863
 H2165 H 0.77441 0.05013 0.31073
 H2166 H 0.75999 0.02863 0.29604
 H2167 H 0.78495 0.04253 0.25210
 H2168 H 0.79874 0.06458 0.26650
 C2169 C 0.67799 0.38830 0.32196
 C2170 C 0.67301 0.37456 0.31294
 C2171 C 0.66575 0.36113 0.32057
 C2172 C 0.66353 0.36102 0.33740
 C2173 C 0.66848 0.37465 0.34648
 C2174 C 0.67550 0.38821 0.33884
 C2175 C 0.68600 0.40250 0.31385
 C2176 C 0.69849 0.41133 0.32167
 C2177 C 0.70625 0.42442 0.31393
 C2178 C 0.70194 0.42889 0.29805
 C2179 C 0.68939 0.42012 0.29025
 C2180 C 0.68145 0.40719 0.29808
 C2181 C 0.71068 0.44242 0.28956
 C2182 C 0.70242 0.45264 0.27854
 C2183 C 0.71077 0.46503 0.27028
 C2184 C 0.72750 0.46768 0.27303
 C2185 C 0.73573 0.45767 0.28416
 C2186 C 0.72746 0.44511 0.29223
 H2187 H 0.67502 0.37399 0.30000
 H2188 H 0.66218 0.35063 0.31339
 H2189 H 0.66675 0.37481 0.35947
 H2190 H 0.67887 0.39866 0.34617
 H2191 H 0.70251 0.40798 0.33371
 H2192 H 0.71565 0.43104 0.32046
 H2193 H 0.68585 0.42303 0.27795
 H2194 H 0.67171 0.40089 0.29175
 H2195 H 0.68946 0.45117 0.27639
 H2196 H 0.70409 0.47266 0.26184
 H2197 H 0.74867 0.45933 0.28641
 H2198 H 0.73433 0.43732 0.30032
 C2199 C 0.67490 0.88378 0.82176
 C2200 C 0.67202 0.88347 0.83857
 C2201 C 0.66497 0.86974 0.84589
 C2202 C 0.66040 0.85616 0.83655
 C2203 C 0.66306 0.85647 0.81978
 C2204 C 0.67034 0.87007 0.81247
 C2205 C 0.68285 0.89820 0.81396
 C2206 C 0.67854 0.90299 0.79817
 C2207 C 0.68641 0.91613 0.79063
 C2208 C 0.69866 0.92502 0.79877
 C2209 C 0.70273 0.92044 0.81469
 C2210 C 0.69503 0.90714 0.82214
 C2211 C 0.70737 0.93876 0.79058
 C2212 C 0.72406 0.94164 0.79357
 C2213 C 0.73232 0.95433 0.78570
 C2214 C 0.72418 0.96428 0.77445
 C2215 C 0.70753 0.96147 0.77142
 C2216 C 0.69918 0.94894 0.77949
 H2217 H 0.67506 0.89388 0.84608
 H2218 H 0.66290 0.86974 0.85884
 H2219 H 0.65980 0.84601 0.81241
 H2220 H 0.67268 0.86967 0.79959
 H2221 H 0.66903 0.89661 0.79158
 H2222 H 0.68308 0.91912 0.77830
 H2223 H 0.71189 0.92713 0.82146
 H2224 H 0.69885 0.90372 0.83422
 H2225 H 0.73088 0.93388 0.80174
 H2226 H 0.74521 0.95612 0.78817
 H2227 H 0.70091 0.96904 0.76290
 H2228 H 0.68627 0.94733 0.77710
 C2229 C 0.17482 0.38408 0.82383
 C2230 C 0.16998 0.37047 0.81453
 C2231 C 0.16265 0.35691 0.82185
 C2232 C 0.16022 0.35652 0.83865
 C2233 C 0.16503 0.37001 0.84801
 C2234 C 0.17213 0.38371 0.84067
 C2235 C 0.18284 0.39844 0.81603
 C2236 C 0.19522 0.40720 0.82409
 C2237 C 0.20298 0.42046 0.81663
 C2238 C 0.19874 0.42518 0.80079
 C2239 C 0.18630 0.41647 0.79276
 C2240 C 0.17838 0.40337 0.80032
 C2241 C 0.20744 0.43890 0.79257
 C2242 C 0.19916 0.44918 0.78164
 C2243 C 0.20748 0.46161 0.77342
 C2244 C 0.22421 0.46425 0.77614
 C2245 C 0.23245 0.45427 0.78729
 C2246 C 0.22420 0.44166 0.79531
 H2247 H 0.17215 0.37012 0.80161
 H2248 H 0.15921 0.34651 0.81447
 H2249 H 0.16314 0.36995 0.86098
 H2250 H 0.17539 0.39404 0.84820
 H2251 H 0.19916 0.40366 0.83611
 H2252 H 0.21230 0.42701 0.82332
 H2253 H 0.18284 0.41956 0.78048
 H2254 H 0.16872 0.39713 0.79381
 H2255 H 0.18619 0.44770 0.77946
 H2256 H 0.20079 0.46923 0.76499
 H2257 H 0.24539 0.45594 0.78952
 H2258 H 0.23108 0.43384 0.80338
 C2259 C 0.17717 0.88774 0.32286
 C2260 C 0.17202 0.87405 0.31384
 C2261 C 0.16464 0.86070 0.32149
 C2262 C 0.16246 0.86061 0.33833
 C2263 C 0.16756 0.87420 0.34739
 C2264 C 0.17470 0.88768 0.33974
 C2265 C 0.18534 0.90184 0.31473
 C2266 C 0.19797 0.91049 0.32252
 C2267 C 0.20589 0.92347 0.31476
 C2268 C 0.20158 0.92801 0.29889
 C2269 C 0.18889 0.91942 0.29113
 C2270 C 0.18080 0.90660 0.29898
 C2271 C 0.21047 0.94143 0.29039
 C2272 C 0.20230 0.95179 0.27945
 C2273 C 0.21077 0.96409 0.27117
 C2274 C 0.22756 0.96649 0.27383
 C2275 C 0.23570 0.95634 0.28490
 C2276 C 0.22730 0.94388 0.29298
 H2277 H 0.17400 0.87346 0.30090
 H2278 H 0.16096 0.85023 0.31432
 H2279 H 0.16586 0.87437 0.36039
 H2280 H 0.17820 0.89810 0.34705
 H2281 H 0.20198 0.90707 0.33455
 H2282 H 0.21540 0.92995 0.32126
 H2283 H 0.18535 0.92239 0.27885
 H2284 H 0.17096 0.90043 0.29268
 H2285 H 0.18930 0.95051 0.27737
 H2286 H 0.20415 0.97183 0.26280
 H2287 H 0.24867 0.95781 0.28708
 H2288 H 0.23411 0.93596 0.30102
 C2289 C 0.38469 0.32246 0.67878
 C2290 C 0.38426 0.32532 0.66196
 C2291 C 0.37051 0.33229 0.65471
 C2292 C 0.35699 0.33677 0.66412
 C2293 C 0.35742 0.33412 0.68090
 C2294 C 0.37106 0.32694 0.68814
 C2295 C 0.39918 0.31469 0.68652
 C2296 C 0.40412 0.31923 0.70220
 C2297 C 0.41738 0.31160 0.70967
 C2298 C 0.42624 0.29936 0.70159
 C2299 C 0.42147 0.29501 0.68580
 C2300 C 0.40806 0.30249 0.67840
 C2301 C 0.44020 0.29104 0.70971
 C2302 C 0.44321 0.27431 0.70707
 C2303 C 0.45605 0.26641 0.71502
 C2304 C 0.46602 0.27498 0.72597
 C2305 C 0.46312 0.29169 0.72857
 C2306 C 0.45045 0.29965 0.72044
 H2307 H 0.39462 0.32232 0.65440
 H2308 H 0.37043 0.33435 0.64176
 H2309 H 0.34703 0.33731 0.68834
 H2310 H 0.37077 0.32462 0.70104
 H2311 H 0.39778 0.32875 0.70874
 H2312 H 0.42051 0.31513 0.72192
 H2313 H 0.42812 0.28583 0.67909
 H2314 H 0.40452 0.29850 0.66641
 H2315 H 0.43543 0.26719 0.69914
 H2316 H 0.45793 0.25349 0.71287
 H2317 H 0.47071 0.29865 0.73683
 H2318 H 0.44876 0.31260 0.72252
 C2319 C 0.38626 0.82101 0.17883
 C2320 C 0.37248 0.81193 0.17388
 C2321 C 0.35926 0.81965 0.16643
 C2322 C 0.35939 0.83663 0.16400
 C2323 C 0.37305 0.84575 0.16892
 C2324 C 0.38641 0.83802 0.17612
 C2325 C 0.40027 0.81279 0.18699
 C2326 C 0.40910 0.82080 0.19929
 C2327 C 0.42206 0.81302 0.20713
 C2328 C 0.42639 0.79690 0.20309
 C2329 C 0.41759 0.78890 0.19077
 C2330 C 0.40480 0.79678 0.18275
 C2331 C 0.43986 0.78840 0.21183
 C2332 C 0.44996 0.77714 0.20377
 C2333 C 0.46235 0.76892 0.21209
 C2334 C 0.46513 0.77198 0.22859
 C2335 C 0.45522 0.78335 0.23663
 C2336 C 0.44265 0.79136 0.22840
 H2337 H 0.37173 0.79890 0.17605
 H2338 H 0.34872 0.81245 0.16289
 H2339 H 0.37338 0.85885 0.16702
 H2340 H 0.39690 0.84538 0.17945
 H2341 H 0.40586 0.83304 0.20308
 H2342 H 0.42870 0.81970 0.21634
 H2343 H 0.42039 0.77642 0.18745
 H2344 H 0.39849 0.79030 0.17317
 H2345 H 0.44843 0.77477 0.19096
 H2346 H 0.46990 0.76031 0.20555
 H2347 H 0.45699 0.78584 0.24940
 H2348 H 0.43495 0.79965 0.23513
 C2349 C 0.88455 0.32179 0.17917
 C2350 C 0.87106 0.32709 0.18832
 C2351 C 0.85777 0.33464 0.18080
 C2352 C 0.85754 0.33683 0.16395
 C2353 C 0.87090 0.33153 0.15476
 C2354 C 0.88433 0.32421 0.16228
 C2355 C 0.89865 0.31361 0.18719
 C2356 C 0.90710 0.30091 0.17938
 C2357 C 0.92018 0.29309 0.18700
 C2358 C 0.92504 0.29758 0.20273
 C2359 C 0.91660 0.31030 0.21052
 C2360 C 0.90368 0.31828 0.20281
 C2361 C 0.93866 0.28892 0.21106
 C2362 C 0.94919 0.29735 0.22167
 C2363 C 0.96165 0.28910 0.22985
 C2364 C 0.96406 0.27229 0.22742
 C2365 C 0.95377 0.26388 0.21663
 C2366 C 0.94114 0.27207 0.20865
 H2367 H 0.87060 0.32515 0.20127
 H2368 H 0.84748 0.33846 0.18808
 H2369 H 0.87098 0.33323 0.14175
 H2370 H 0.89458 0.32059 0.15486
 H2371 H 0.90347 0.29680 0.16745
 H2372 H 0.92652 0.28354 0.18050
 H2373 H 0.91980 0.31397 0.22271
 H2374 H 0.89767 0.32817 0.20912
 H2375 H 0.94790 0.31037 0.22360
 H2376 H 0.96950 0.29593 0.23799
 H2377 H 0.95525 0.25089 0.21462
 H2378 H 0.93311 0.26508 0.20084
 C2379 C 0.88698 0.82196 0.68000
 C2380 C 0.87334 0.82654 0.68929
 C2381 C 0.85980 0.83386 0.68200
 C2382 C 0.85950 0.83656 0.66523
 C2383 C 0.87303 0.83201 0.65588
 C2384 C 0.88669 0.82490 0.66319
 C2385 C 0.90134 0.81401 0.68778
 C2386 C 0.91016 0.80178 0.67964
 C2387 C 0.92347 0.79414 0.68705
 C2388 C 0.92821 0.79838 0.70288
 C2389 C 0.91941 0.81063 0.71100
 C2390 C 0.90624 0.81842 0.70351
 C2391 C 0.94208 0.78992 0.71101
 C2392 C 0.95235 0.79842 0.72180
 C2393 C 0.96495 0.79034 0.72993
 C2394 C 0.96776 0.77363 0.72725
 C2395 C 0.95778 0.76518 0.71622
 C2396 C 0.94501 0.77320 0.70828
 H2397 H 0.87294 0.82418 0.70219
 H2398 H 0.84938 0.83711 0.68938
 H2399 H 0.87305 0.83410 0.64294
 H2400 H 0.89706 0.82184 0.65568
 H2401 H 0.90663 0.79788 0.66761
 H2402 H 0.93008 0.78495 0.68031
 H2403 H 0.92250 0.81408 0.72328
 H2404 H 0.89995 0.82795 0.71007
 H2405 H 0.95073 0.81137 0.72395
 H2406 H 0.97255 0.79721 0.73825
 H2407 H 0.95959 0.75226 0.71401
 H2408 H 0.93721 0.76616 0.70029
 C2409 C 0.61470 0.32383 0.32455
 C2410 C 0.62847 0.31460 0.32905
 C2411 C 0.64205 0.32213 0.33612
 C2412 C 0.64228 0.33909 0.33864
 C2413 C 0.62861 0.34837 0.33422
 C2414 C 0.61490 0.34082 0.32738
 C2415 C 0.60038 0.31583 0.31665
 C2416 C 0.59145 0.32402 0.30457
 C2417 C 0.57831 0.31637 0.29683
 C2418 C 0.57387 0.30021 0.30078
 C2419 C 0.58271 0.29206 0.31295
 C2420 C 0.59571 0.29981 0.32085
 C2421 C 0.56031 0.29180 0.29201
 C2422 C 0.55015 0.28046 0.30000
 C2423 C 0.53775 0.27226 0.29161
 C2424 C 0.53504 0.27541 0.27511
 C2425 C 0.54500 0.28688 0.26715
 C2426 C 0.55756 0.29488 0.27546
 H2427 H 0.62895 0.30157 0.32677
 H2428 H 0.65257 0.31480 0.33928
 H2429 H 0.62854 0.36146 0.33620
 H2430 H 0.60444 0.34830 0.32440
 H2431 H 0.59479 0.33627 0.30082
 H2432 H 0.57163 0.32316 0.28775
 H2433 H 0.57982 0.27956 0.31619
 H2434 H 0.60209 0.29319 0.33028
 H2435 H 0.55167 0.27799 0.31279
 H2436 H 0.53017 0.26356 0.29808
 H2437 H 0.54329 0.28944 0.25439
 H2438 H 0.56532 0.30324 0.26879
 C2439 C 0.61221 0.81881 0.82195
 C2440 C 0.61229 0.83579 0.82480
 C2441 C 0.62573 0.84335 0.83211
 C2442 C 0.63927 0.83409 0.83696
 C2443 C 0.63916 0.81714 0.83440
 C2444 C 0.62584 0.80959 0.82687
 C2445 C 0.59815 0.81078 0.81364
 C2446 C 0.59333 0.79479 0.81781
 C2447 C 0.58053 0.78705 0.80962
 C2448 C 0.57200 0.79515 0.79720
 C2449 C 0.57662 0.81125 0.79324
 C2450 C 0.58958 0.81892 0.80127
 C2451 C 0.55856 0.78676 0.78826
 C2452 C 0.55613 0.78966 0.77163
 C2453 C 0.54368 0.78161 0.76319
 C2454 C 0.53353 0.77027 0.77110
 C2455 C 0.53589 0.76735 0.78770
 C2456 C 0.54817 0.77560 0.79621
 H2457 H 0.60191 0.84325 0.82148
 H2458 H 0.62557 0.85644 0.83410
 H2459 H 0.64958 0.80982 0.83789
 H2460 H 0.62641 0.79657 0.82459
 H2461 H 0.59944 0.78822 0.82744
 H2462 H 0.57751 0.77458 0.81288
 H2463 H 0.57019 0.81800 0.78394
 H2464 H 0.59305 0.83114 0.79755
 H2465 H 0.56405 0.79790 0.76501
 H2466 H 0.54222 0.78400 0.75036
 H2467 H 0.52815 0.75879 0.79414
 H2468 H 0.54943 0.77329 0.80906
 C2469 C 0.11184 0.31920 0.82456
 C2470 C 0.12559 0.30999 0.82915
 C2471 C 0.13900 0.31752 0.83653
 C2472 C 0.13909 0.33444 0.83926
 C2473 C 0.12543 0.34369 0.83475
 C2474 C 0.11188 0.33614 0.82760
 C2475 C 0.09771 0.31120 0.81633
 C2476 C 0.08894 0.31947 0.80419
 C2477 C 0.07599 0.31182 0.79613
 C2478 C 0.07160 0.29559 0.79982
 C2479 C 0.08028 0.28737 0.81205
 C2480 C 0.09307 0.29511 0.82027
 C2481 C 0.05827 0.28719 0.79072
 C2482 C 0.04804 0.27570 0.79841
 C2483 C 0.03584 0.26750 0.78972
 C2484 C 0.03342 0.27081 0.77320
 C2485 C 0.04345 0.28242 0.76554
 C2486 C 0.05581 0.29042 0.77416
 H2487 H 0.12619 0.29700 0.82671
 H2488 H 0.14952 0.31021 0.83975
 H2489 H 0.12525 0.35675 0.83689
 H2490 H 0.10142 0.34359 0.82455
 H2491 H 0.09226 0.33179 0.80064
 H2492 H 0.06943 0.31867 0.78700
 H2493 H 0.07741 0.27481 0.81511
 H2494 H 0.09933 0.28843 0.82973
 H2495 H 0.04934 0.27311 0.81120
 H2496 H 0.02820 0.25870 0.79596
 H2497 H 0.04196 0.28511 0.75278
 H2498 H 0.06363 0.29890 0.76771
 C2499 C 0.11361 0.82360 0.32528
 C2500 C 0.11381 0.84057 0.32821
 C2501 C 0.12749 0.84807 0.33515
 C2502 C 0.14113 0.83876 0.33957
 C2503 C 0.14089 0.82181 0.33699
 C2504 C 0.12734 0.81433 0.32981
 C2505 C 0.09935 0.81566 0.31721
 C2506 C 0.09465 0.79960 0.32125
 C2507 C 0.08174 0.79191 0.31315
 C2508 C 0.07301 0.80015 0.30096
 C2509 C 0.07746 0.81634 0.29720
 C2510 C 0.09053 0.82394 0.30511
 C2511 C 0.05956 0.79179 0.29197
 C2512 C 0.05699 0.79501 0.27542
 C2513 C 0.04453 0.78707 0.26691
 C2514 C 0.03451 0.77550 0.27465
 C2515 C 0.03705 0.77220 0.29115
 C2516 C 0.04934 0.78035 0.29975
 H2517 H 0.10337 0.84808 0.32521
 H2518 H 0.12743 0.86116 0.33718
 H2519 H 0.15140 0.81446 0.34015
 H2520 H 0.12782 0.80132 0.32746
 H2521 H 0.10094 0.79292 0.33068
 H2522 H 0.07883 0.77938 0.31627
 H2523 H 0.07087 0.82320 0.28810
 H2524 H 0.09389 0.83622 0.30149
 H2525 H 0.06480 0.80345 0.26891
 H2526 H 0.04296 0.78975 0.25416
 H2527 H 0.02942 0.76342 0.29746
 H2528 H 0.05073 0.77776 0.31253
 C2529 C 0.61490 0.67624 0.67434
 C2530 C 0.61536 0.65925 0.67159
 C2531 C 0.62914 0.65199 0.66473
 C2532 C 0.64263 0.66156 0.66022
 C2533 C 0.64214 0.67852 0.66265
 C2534 C 0.62848 0.68578 0.66974
 C2535 C 0.60048 0.68394 0.68222
 C2536 C 0.59549 0.69979 0.67787
 C2537 C 0.58235 0.70725 0.68569
 C2538 C 0.57367 0.69897 0.69791
 C2539 C 0.57847 0.68300 0.70204
 C2540 C 0.59176 0.67564 0.69439
 C2541 C 0.55990 0.70707 0.70651
 C2542 C 0.55716 0.70415 0.72309
 C2543 C 0.54441 0.71193 0.73122
 C2544 C 0.53425 0.72301 0.72306
 C2545 C 0.53692 0.72596 0.70651
 C2546 C 0.54951 0.71798 0.69830
 H2547 H 0.60504 0.65155 0.67466
 H2548 H 0.62928 0.63889 0.66283
 H2549 H 0.65253 0.68607 0.65942
 H2550 H 0.62876 0.69882 0.67195
 H2551 H 0.60171 0.70648 0.66837
 H2552 H 0.57919 0.71963 0.68231
 H2553 H 0.57194 0.67612 0.71120
 H2554 H 0.59535 0.66352 0.69825
 H2555 H 0.56508 0.69611 0.72991
 H2556 H 0.54273 0.70953 0.74402
 H2557 H 0.52918 0.73434 0.69988
 H2558 H 0.55100 0.72029 0.68548
 C2559 C 0.61415 0.17864 0.17819
 C2560 C 0.61398 0.17587 0.16135
 C2561 C 0.62736 0.16871 0.15365
 C2562 C 0.64108 0.16392 0.16264
 C2563 C 0.64126 0.16647 0.17943
 C2564 C 0.62800 0.17386 0.18711
 C2565 C 0.60008 0.18666 0.18638
 C2566 C 0.59562 0.18224 0.20225
 C2567 C 0.58279 0.19015 0.21014
 C2568 C 0.57389 0.20254 0.20230
 C2569 C 0.57815 0.20674 0.18633
 C2570 C 0.59114 0.19899 0.17852
 C2571 C 0.56044 0.21123 0.21083
 C2572 C 0.55767 0.22797 0.20803
 C2573 C 0.54514 0.23618 0.21609
 C2574 C 0.53524 0.22793 0.22734
 C2575 C 0.53799 0.21125 0.23023
 C2576 C 0.55036 0.20295 0.22198
 H2577 H 0.60343 0.17909 0.15411
 H2578 H 0.62698 0.16672 0.14070
 H2579 H 0.65183 0.16302 0.18653
 H2580 H 0.62877 0.17609 0.20000
 H2581 H 0.60201 0.17261 0.20861
 H2582 H 0.58004 0.18670 0.22250
 H2583 H 0.57143 0.21601 0.17978
 H2584 H 0.59432 0.20291 0.16640
 H2585 H 0.56536 0.23486 0.19983
 H2586 H 0.54340 0.24909 0.21372
 H2587 H 0.53046 0.20455 0.23875
 H2588 H 0.55190 0.19001 0.22424
 C2589 C 0.11431 0.67916 0.17749
 C2590 C 0.11418 0.67647 0.16065
 C2591 C 0.12757 0.66930 0.15297
 C2592 C 0.14124 0.66443 0.16197
 C2593 C 0.14137 0.66690 0.17877
 C2594 C 0.12811 0.67429 0.18644
 C2595 C 0.10025 0.68720 0.18567
 C2596 C 0.09569 0.68271 0.20148
 C2597 C 0.08284 0.69062 0.20934
 C2598 C 0.07404 0.70310 0.20153
 C2599 C 0.07841 0.70738 0.18561
 C2600 C 0.09141 0.69963 0.17783
 C2601 C 0.06055 0.71176 0.21002
 C2602 C 0.05785 0.72853 0.20733
 C2603 C 0.04528 0.73671 0.21534
 C2604 C 0.03526 0.72839 0.22644
 C2605 C 0.03794 0.71167 0.22922
 C2606 C 0.05036 0.70342 0.22101
 H2607 H 0.10367 0.67975 0.15339
 H2608 H 0.12723 0.66737 0.14000
 H2609 H 0.15191 0.66339 0.18589
 H2610 H 0.12884 0.67646 0.19935
 H2611 H 0.10201 0.67302 0.20782
 H2612 H 0.08000 0.68711 0.22167
 H2613 H 0.07177 0.71672 0.17908
 H2614 H 0.09467 0.70360 0.16575
 H2615 H 0.06564 0.73547 0.19924
 H2616 H 0.04359 0.74964 0.21307
 H2617 H 0.03031 0.70492 0.23761
 H2618 H 0.05184 0.69045 0.22317
 C2619 C 0.11643 0.17714 0.67815
 C2620 C 0.11685 0.17414 0.66136
 C2621 C 0.13064 0.16720 0.65419
 C2622 C 0.14419 0.16288 0.66365
 C2623 C 0.14378 0.16568 0.68040
 C2624 C 0.13011 0.17283 0.68756
 C2625 C 0.10189 0.18485 0.68580
 C2626 C 0.09702 0.18043 0.70154
 C2627 C 0.08370 0.18801 0.70892
 C2628 C 0.07470 0.20005 0.70068
 C2629 C 0.07938 0.20427 0.68483
 C2630 C 0.09286 0.19685 0.67753
 C2631 C 0.06068 0.20834 0.70869
 C2632 C 0.05747 0.22498 0.70576
 C2633 C 0.04453 0.23285 0.71352
 C2634 C 0.03465 0.22434 0.72460
 C2635 C 0.03776 0.20772 0.72752
 C2636 C 0.05054 0.19978 0.71957
 H2637 H 0.10646 0.17699 0.65376
 H2638 H 0.13072 0.16501 0.64126
 H2639 H 0.15420 0.16259 0.68787
 H2640 H 0.13041 0.17526 0.70043
 H2641 H 0.10348 0.17105 0.70820
 H2642 H 0.08064 0.18458 0.72122
 H2643 H 0.07261 0.21329 0.67799
 H2644 H 0.09633 0.20075 0.66549
 H2645 H 0.06517 0.23208 0.69773
 H2646 H 0.04250 0.24571 0.71113
 H2647 H 0.03025 0.20082 0.73589
 H2648 H 0.05239 0.18689 0.72189
 C2649 C 0.38423 0.67644 0.32298
 C2650 C 0.38368 0.67341 0.33976
 C2651 C 0.36983 0.66636 0.34683
 C2652 C 0.35636 0.66196 0.33725
 C2653 C 0.35691 0.66478 0.32051
 C2654 C 0.37063 0.67205 0.31346
 C2655 C 0.39882 0.68429 0.31545
 C2656 C 0.40380 0.67995 0.29974
 C2657 C 0.41712 0.68770 0.29244
 C2658 C 0.42601 0.69984 0.30072
 C2659 C 0.42122 0.70397 0.31655
 C2660 C 0.40774 0.69638 0.32377
 C2661 C 0.43998 0.70836 0.29276
 C2662 C 0.44302 0.72506 0.29566
 C2663 C 0.45582 0.73317 0.28781
 C2664 C 0.46571 0.72485 0.27667
 C2665 C 0.46281 0.70816 0.27383
 C2666 C 0.45019 0.69998 0.28188
 H2667 H 0.39400 0.67633 0.34745
 H2668 H 0.36965 0.66416 0.35976
 H2669 H 0.34654 0.66165 0.31296
 H2670 H 0.37043 0.67450 0.30058
 H2671 H 0.39742 0.67051 0.29304
 H2672 H 0.42026 0.68434 0.28015
 H2673 H 0.42790 0.71307 0.32342
 H2674 H 0.40418 0.70021 0.33580
 H2675 H 0.43527 0.73201 0.30371
 H2676 H 0.45770 0.74607 0.29014
 H2677 H 0.47035 0.70140 0.26542
 H2678 H 0.44848 0.68706 0.27959
 C2679 C 0.38707 0.18022 0.82330
 C2680 C 0.38764 0.17645 0.83989
 C2681 C 0.37432 0.16889 0.84742
 C2682 C 0.36039 0.16467 0.83841
 C2683 C 0.35993 0.16817 0.82177
 C2684 C 0.37311 0.17603 0.81431
 C2685 C 0.40092 0.18869 0.81541
 C2686 C 0.39822 0.20284 0.80617
 C2687 C 0.41128 0.21091 0.79872
 C2688 C 0.42722 0.20477 0.80013
 C2689 C 0.42992 0.19055 0.80930
 C2690 C 0.41689 0.18267 0.81703
 C2691 C 0.44093 0.21308 0.79185
 C2692 C 0.45145 0.20422 0.78174
 C2693 C 0.46398 0.21219 0.77334
 C2694 C 0.46642 0.22911 0.77517
 C2695 C 0.45611 0.23789 0.78558
 C2696 C 0.44337 0.22997 0.79371
 H2697 H 0.39827 0.17966 0.84706
 H2698 H 0.37485 0.16625 0.86026
 H2699 H 0.34923 0.16509 0.81467
 H2700 H 0.37246 0.17875 0.80149
 H2701 H 0.38601 0.20774 0.80485
 H2702 H 0.40892 0.22180 0.79163
 H2703 H 0.44213 0.18565 0.81058
 H2704 H 0.41922 0.17173 0.82405
 H2705 H 0.44972 0.19119 0.78006
 H2706 H 0.47178 0.20511 0.76544
 H2707 H 0.45767 0.25095 0.78716
 H2708 H 0.43543 0.23702 0.80152
 C2709 C 0.88765 0.67779 0.82374
 C2710 C 0.87397 0.67290 0.81457
 C2711 C 0.86049 0.66560 0.82204
 C2712 C 0.86028 0.66324 0.83886
 C2713 C 0.87384 0.66811 0.84808
 C2714 C 0.88744 0.67519 0.84060
 C2715 C 0.90193 0.68577 0.81577
 C2716 C 0.91073 0.69823 0.82368
 C2717 C 0.92393 0.70593 0.81608
 C2718 C 0.92856 0.70155 0.80028
 C2719 C 0.91980 0.68904 0.79240
 C2720 C 0.90675 0.68118 0.80008
 C2721 C 0.94226 0.71015 0.79195
 C2722 C 0.95254 0.70173 0.78116
 C2723 C 0.96504 0.70994 0.77296
 C2724 C 0.96775 0.72671 0.77554
 C2725 C 0.95771 0.73509 0.78650
 C2726 C 0.94504 0.72695 0.79451
 H2727 H 0.87351 0.67500 0.80164
 H2728 H 0.85005 0.66209 0.81476
 H2729 H 0.87391 0.66627 0.86107
 H2730 H 0.89784 0.67849 0.84803
 H2731 H 0.90728 0.70227 0.83567
 H2732 H 0.93053 0.71530 0.82266
 H2733 H 0.92283 0.68546 0.78015
 H2734 H 0.90047 0.67147 0.79369
 H2735 H 0.95101 0.68874 0.77911
 H2736 H 0.97269 0.70314 0.76467
 H2737 H 0.95942 0.74805 0.78863
 H2738 H 0.93721 0.73393 0.80246
 C2739 C 0.88381 0.17709 0.32271
 C2740 C 0.88410 0.17322 0.33928
 C2741 C 0.87058 0.16579 0.34658
 C2742 C 0.85672 0.16182 0.33736
 C2743 C 0.85654 0.16541 0.32074
 C2744 C 0.86993 0.17312 0.31350
 C2745 C 0.89785 0.18550 0.31508
 C2746 C 0.89539 0.19974 0.30590
 C2747 C 0.90863 0.20776 0.29872
 C2748 C 0.92449 0.20149 0.30034
 C2749 C 0.92694 0.18719 0.30943
 C2750 C 0.91374 0.17934 0.31690
 C2751 C 0.93839 0.20974 0.29230
 C2752 C 0.94897 0.20086 0.28228
 C2753 C 0.96163 0.20880 0.27405
 C2754 C 0.96413 0.22570 0.27597
 C2755 C 0.95376 0.23450 0.28631
 C2756 C 0.94090 0.22662 0.29428
 H2757 H 0.89466 0.17626 0.34661
 H2758 H 0.87088 0.16310 0.35942
 H2759 H 0.84590 0.16252 0.31348
 H2760 H 0.86949 0.17593 0.30068
 H2761 H 0.88324 0.20474 0.30443
 H2762 H 0.90646 0.21872 0.29167
 H2763 H 0.93909 0.18218 0.31087
 H2764 H 0.91587 0.16834 0.32388
 H2765 H 0.94719 0.18785 0.28052
 H2766 H 0.96948 0.20172 0.26619
 H2767 H 0.95538 0.24755 0.28796
 H2768 H 0.93291 0.23367 0.30202
 C2769 C 0.32142 0.32179 0.61474
 C2770 C 0.32392 0.33882 0.61549
 C2771 C 0.33089 0.34600 0.62923
 C2772 C 0.33575 0.33630 0.64238
 C2773 C 0.33347 0.31932 0.64163
 C2774 C 0.32628 0.31214 0.62802
 C2775 C 0.31362 0.31413 0.60029
 C2776 C 0.31835 0.29848 0.59506
 C2777 C 0.31069 0.29108 0.58183
 C2778 C 0.29826 0.29921 0.57327
 C2779 C 0.29374 0.31498 0.57831
 C2780 C 0.30123 0.32229 0.59170
 C2781 C 0.28989 0.29115 0.55935
 C2782 C 0.27313 0.29366 0.55649
 C2783 C 0.26518 0.28574 0.54371
 C2784 C 0.27374 0.27490 0.53366
 C2785 C 0.29048 0.27244 0.53640
 C2786 C 0.29850 0.28057 0.54900
 H2787 H 0.32064 0.34663 0.60542
 H2788 H 0.33266 0.35912 0.62957
 H2789 H 0.33696 0.31166 0.65176
 H2790 H 0.32424 0.29906 0.62807
 H2791 H 0.32802 0.29191 0.60117
 H2792 H 0.31436 0.27883 0.57849
 H2793 H 0.28441 0.32175 0.57189
 H2794 H 0.29709 0.33426 0.59547
 H2795 H 0.26601 0.30146 0.56435
 H2796 H 0.25223 0.28776 0.54196
 H2797 H 0.29741 0.26427 0.52874
 H2798 H 0.31147 0.27860 0.55057
 C2799 C 0.32311 0.82385 0.11495
 C2800 C 0.31364 0.82844 0.12841
 C2801 C 0.32095 0.83551 0.14201
 C2802 C 0.33792 0.83791 0.14257
 C2803 C 0.34743 0.83337 0.12921
 C2804 C 0.34011 0.82654 0.11549
 C2805 C 0.31532 0.81601 0.10058
 C2806 C 0.32351 0.80375 0.09187
 C2807 C 0.31605 0.79610 0.07866
 C2808 C 0.30010 0.80032 0.07392
 C2809 C 0.29195 0.81266 0.08256
 C2810 C 0.29950 0.82048 0.09563
 C2811 C 0.29188 0.79166 0.06027
 C2812 C 0.28095 0.79995 0.04999
 C2813 C 0.27291 0.79166 0.03749
 C2814 C 0.27581 0.77497 0.03480
 C2815 C 0.28688 0.76672 0.04488
 C2816 C 0.29472 0.77492 0.05754
 H2817 H 0.30059 0.82626 0.12862
 H2818 H 0.31343 0.83876 0.15229
 H2819 H 0.36053 0.83525 0.12940
 H2820 H 0.34777 0.82348 0.10526
 H2821 H 0.33560 0.79981 0.09542
 H2822 H 0.32284 0.78688 0.07215
 H2823 H 0.27959 0.81611 0.07944
 H2824 H 0.29291 0.83005 0.10184
 H2825 H 0.27868 0.81289 0.05150
 H2826 H 0.26452 0.79836 0.02982
 H2827 H 0.28924 0.75381 0.04319
 H2828 H 0.30276 0.76802 0.06537
 C2829 C 0.82133 0.32164 0.11526
 C2830 C 0.82499 0.31239 0.12913
 C2831 C 0.83260 0.31972 0.14243
 C2832 C 0.83639 0.33647 0.14219
 C2833 C 0.83272 0.34573 0.12835
 C2834 C 0.82539 0.33834 0.11491
 C2835 C 0.81309 0.31392 0.10128
 C2836 C 0.81951 0.31562 0.08560
 C2837 C 0.81180 0.30811 0.07244
 C2838 C 0.79736 0.29907 0.07471
 C2839 C 0.79083 0.29755 0.09035
 C2840 C 0.79872 0.30478 0.10355
 C2841 C 0.78921 0.29105 0.06084
 C2842 C 0.77243 0.29329 0.05811
 C2843 C 0.76465 0.28542 0.04520
 C2844 C 0.77344 0.27491 0.03499
 C2845 C 0.79024 0.27270 0.03773
 C2846 C 0.79808 0.28083 0.05044
 H2847 H 0.82203 0.29948 0.12961
 H2848 H 0.83527 0.31243 0.15306
 H2849 H 0.83558 0.35866 0.12799
 H2850 H 0.82260 0.34570 0.10437
 H2851 H 0.83062 0.32257 0.08361
 H2852 H 0.81700 0.30947 0.06046
 H2853 H 0.77977 0.29055 0.09238
 H2854 H 0.79352 0.30340 0.11553
 H2855 H 0.76538 0.30119 0.06595
 H2856 H 0.75168 0.28730 0.04340
 H2857 H 0.79732 0.26470 0.03001
 H2858 H 0.81102 0.27887 0.05239
 C2859 C 0.82409 0.82145 0.61584
 C2860 C 0.82855 0.81191 0.62934
 C2861 C 0.83573 0.81915 0.64292
 C2862 C 0.83838 0.83609 0.64342
 C2863 C 0.83394 0.84567 0.63004
 C2864 C 0.82700 0.83842 0.61634
 C2865 C 0.81624 0.81374 0.60145
 C2866 C 0.80414 0.82207 0.59262
 C2867 C 0.79656 0.81473 0.57930
 C2868 C 0.80067 0.79874 0.57459
 C2869 C 0.81281 0.79042 0.58338
 C2870 C 0.82057 0.79787 0.59654
 C2871 C 0.79216 0.79066 0.56076
 C2872 C 0.80051 0.77968 0.55062
 C2873 C 0.79235 0.77169 0.53801
 C2874 C 0.77574 0.77470 0.53507
 C2875 C 0.76743 0.78587 0.54496
 C2876 C 0.77551 0.79365 0.55774
 H2877 H 0.82621 0.79888 0.62958
 H2878 H 0.83891 0.81159 0.65322
 H2879 H 0.83602 0.85876 0.63020
 H2880 H 0.82404 0.84613 0.60609
 H2881 H 0.80030 0.83421 0.59613
 H2882 H 0.78748 0.82163 0.57269
 H2883 H 0.81617 0.77802 0.58029
 H2884 H 0.83001 0.79115 0.60284
 H2885 H 0.81339 0.77731 0.55233
 H2886 H 0.79909 0.76324 0.53047
 H2887 H 0.75458 0.78831 0.54306
 H2888 H 0.76857 0.80175 0.56545
 C2889 C 0.32009 0.67745 0.38565
 C2890 C 0.32274 0.66045 0.38533
 C2891 C 0.32988 0.65304 0.37184
 C2892 C 0.33474 0.66249 0.35850
 C2893 C 0.33227 0.67945 0.35880
 C2894 C 0.32492 0.68684 0.37217
 C2895 C 0.31220 0.68537 0.39988
 C2896 C 0.31680 0.70122 0.40472
 C2897 C 0.30907 0.70886 0.41774
 C2898 C 0.29670 0.70076 0.42648
 C2899 C 0.29231 0.68479 0.42182
 C2900 C 0.29987 0.67725 0.40864
 C2901 C 0.28828 0.70905 0.44018
 C2902 C 0.27155 0.70632 0.44311
 C2903 C 0.26356 0.71436 0.45574
 C2904 C 0.27204 0.72552 0.46558
 C2905 C 0.28874 0.72824 0.46276
 C2906 C 0.29680 0.71999 0.45030
 H2907 H 0.31949 0.65285 0.39558
 H2908 H 0.33180 0.63995 0.37184
 H2909 H 0.33577 0.68691 0.34853
 H2910 H 0.32276 0.69989 0.37178
 H2911 H 0.32642 0.70777 0.39848
 H2912 H 0.31265 0.72123 0.42078
 H2913 H 0.28304 0.67805 0.42838
 H2914 H 0.29583 0.66513 0.40517
 H2915 H 0.26449 0.69824 0.43542
 H2916 H 0.25064 0.71213 0.45756
 H2917 H 0.29562 0.73667 0.47026
 H2918 H 0.30974 0.72216 0.44867
 C2919 C 0.32499 0.17937 0.88773
 C2920 C 0.32934 0.18884 0.87414
 C2921 C 0.33664 0.18160 0.86066
 C2922 C 0.33952 0.16471 0.86035
 C2923 C 0.33521 0.15519 0.87382
 C2924 C 0.32815 0.16245 0.88743
 C2925 C 0.31692 0.18708 0.90196
 C2926 C 0.30490 0.17858 0.91079
 C2927 C 0.29701 0.18596 0.92386
 C2928 C 0.30073 0.20215 0.92833
 C2929 C 0.31284 0.21061 0.91959
 C2930 C 0.32091 0.20314 0.90667
 C2931 C 0.29176 0.21029 0.94178
 C2932 C 0.29963 0.22175 0.95186
 C2933 C 0.29102 0.22976 0.96412
 C2934 C 0.27442 0.22629 0.96676
 C2935 C 0.26660 0.21468 0.95690
 C2936 C 0.27512 0.20688 0.94447
 H2937 H 0.32680 0.20181 0.87373
 H2938 H 0.33971 0.18911 0.85029
 H2939 H 0.33746 0.14215 0.87383
 H2940 H 0.32528 0.15481 0.89775
 H2941 H 0.30133 0.16628 0.90743
 H2942 H 0.28797 0.17894 0.93046
 H2943 H 0.31592 0.22315 0.92250
 H2944 H 0.33030 0.20999 0.90038
 H2945 H 0.31249 0.22448 0.95038
 H2946 H 0.29739 0.23857 0.97163
 H2947 H 0.25377 0.21188 0.95855
 H2948 H 0.26853 0.19842 0.93678
 C2949 C 0.82442 0.67932 0.88751
 C2950 C 0.82893 0.68850 0.87377
 C2951 C 0.83630 0.68094 0.86050
 C2952 C 0.83909 0.66403 0.86055
 C2953 C 0.83465 0.65482 0.87418
 C2954 C 0.82752 0.66239 0.88758
 C2955 C 0.81621 0.68732 0.90151
 C2956 C 0.80410 0.67899 0.91036
 C2957 C 0.79610 0.68661 0.92323
 C2958 C 0.79978 0.70287 0.92745
 C2959 C 0.81198 0.71117 0.91867
 C2960 C 0.82016 0.70347 0.90596
 C2961 C 0.79071 0.71121 0.94071
 C2962 C 0.79850 0.72278 0.95074
 C2963 C 0.78983 0.73081 0.96294
 C2964 C 0.77325 0.72726 0.96558
 C2965 C 0.76549 0.71561 0.95571
 C2966 C 0.77407 0.70779 0.94335
 H2967 H 0.82645 0.70147 0.87309
 H2968 H 0.83949 0.68822 0.85000
 H2969 H 0.83684 0.64177 0.87445
 H2970 H 0.82454 0.65496 0.89803
 H2971 H 0.80054 0.66664 0.90720
 H2972 H 0.78701 0.67969 0.92987
 H2973 H 0.81503 0.72376 0.92141
 H2974 H 0.82960 0.71020 0.89962
 H2975 H 0.81136 0.72553 0.94928
 H2976 H 0.79615 0.73966 0.97045
 H2977 H 0.75267 0.71275 0.95735
 H2978 H 0.76753 0.69926 0.93568
 C2979 C 0.82114 0.17727 0.38623
 C2980 C 0.82384 0.16027 0.38595
 C2981 C 0.83085 0.15284 0.37241
 C2982 C 0.83555 0.16226 0.35899
 C2983 C 0.83306 0.17922 0.35927
 C2984 C 0.82582 0.18663 0.37268
 C2985 C 0.81330 0.18520 0.40047
 C2986 C 0.81786 0.20108 0.40523
 C2987 C 0.81010 0.20877 0.41819
 C2988 C 0.79772 0.20071 0.42693
 C2989 C 0.79339 0.18469 0.42238
 C2990 C 0.80099 0.17709 0.40926
 C2991 C 0.78919 0.20908 0.44051
 C2992 C 0.77244 0.20636 0.44331
 C2993 C 0.76434 0.21451 0.45580
 C2994 C 0.77272 0.22577 0.46561
 C2995 C 0.78944 0.22848 0.46290
 C2996 C 0.79762 0.22013 0.45059
 H2997 H 0.82068 0.15269 0.39624
 H2998 H 0.83279 0.13975 0.37242
 H2999 H 0.83642 0.18666 0.34894
 H3000 H 0.82362 0.19966 0.37227
 H3001 H 0.82748 0.20762 0.39895
 H3002 H 0.81363 0.22118 0.42115
 H3003 H 0.78411 0.17798 0.42897
 H3004 H 0.79698 0.16494 0.40585
 H3005 H 0.76546 0.19820 0.43563
 H3006 H 0.75141 0.21228 0.45753
 H3007 H 0.79625 0.23699 0.47039
 H3008 H 0.81057 0.22230 0.44905
 C3009 C 0.68034 0.32500 0.38565
 C3010 C 0.68921 0.32901 0.37164
 C3011 C 0.68147 0.33652 0.35853
 C3012 C 0.66467 0.33985 0.35911
 C3013 C 0.65579 0.33586 0.37309
 C3014 C 0.66360 0.32864 0.38634
 C3015 C 0.68846 0.31668 0.39935
 C3016 C 0.68701 0.32278 0.41517
 C3017 C 0.69468 0.31482 0.42809
 C3018 C 0.70360 0.30044 0.42542
 C3019 C 0.70496 0.29429 0.40961
 C3020 C 0.69759 0.30244 0.39666
 C3021 C 0.71139 0.29174 0.43908
 C3022 C 0.70859 0.27495 0.44133
 C3023 C 0.71605 0.26663 0.45411
 C3024 C 0.72670 0.27488 0.46469
 C3025 C 0.72953 0.29168 0.46241
 C3026 C 0.72179 0.30008 0.44981
 H3027 H 0.70215 0.32636 0.37089
 H3028 H 0.68847 0.33943 0.34779
 H3029 H 0.64283 0.33837 0.37371
 H3030 H 0.65652 0.32556 0.39700
 H3031 H 0.68007 0.33379 0.41748
 H3032 H 0.69343 0.31972 0.44020
 H3033 H 0.71186 0.28326 0.40728
 H3034 H 0.69878 0.29747 0.38456
 H3035 H 0.70054 0.26831 0.43323
 H3036 H 0.71371 0.25366 0.45555
 H3037 H 0.73765 0.29834 0.47042
 H3038 H 0.72415 0.31303 0.44823
 C3039 C 0.67599 0.81994 0.88504
 C3040 C 0.68524 0.82401 0.87129
 C3041 C 0.67784 0.83153 0.85799
 C3042 C 0.66102 0.83480 0.85810
 C3043 C 0.65176 0.83070 0.87181
 C3044 C 0.65921 0.82347 0.88526
 C3045 C 0.68380 0.81178 0.89901
 C3046 C 0.68195 0.81806 0.91472
 C3047 C 0.68958 0.81046 0.92786
 C3048 C 0.69889 0.79626 0.92553
 C3049 C 0.70056 0.78987 0.90985
 C3050 C 0.69321 0.79766 0.89668
 C3051 C 0.70702 0.78819 0.93938
 C3052 C 0.70502 0.77133 0.94199
 C3053 C 0.71303 0.76361 0.95483
 C3054 C 0.72345 0.77256 0.96508
 C3055 C 0.72541 0.78944 0.96248
 C3056 C 0.71713 0.79721 0.94983
 H3057 H 0.69821 0.82145 0.87091
 H3058 H 0.68514 0.83452 0.84746
 H3059 H 0.63877 0.83316 0.87206
 H3060 H 0.65185 0.82035 0.89571
 H3061 H 0.67479 0.82899 0.91676
 H3062 H 0.68811 0.81555 0.93987
 H3063 H 0.70776 0.77898 0.90778
 H3064 H 0.69472 0.79257 0.88467
 H3065 H 0.69722 0.76416 0.93410
 H3066 H 0.71135 0.75058 0.95653
 H3067 H 0.73333 0.79663 0.97023
 H3068 H 0.71890 0.81021 0.94797
 C3069 C 0.17666 0.32004 0.88660
 C3070 C 0.18564 0.32416 0.87270
 C3071 C 0.17799 0.33174 0.85958
 C3072 C 0.16119 0.33503 0.86003
 C3073 C 0.15218 0.33087 0.87389
 C3074 C 0.15990 0.32358 0.88716
 C3075 C 0.18474 0.31183 0.90038
 C3076 C 0.18320 0.31806 0.91614
 C3077 C 0.19108 0.31039 0.92911
 C3078 C 0.20031 0.29619 0.92655
 C3079 C 0.20168 0.28986 0.91081
 C3080 C 0.19409 0.29771 0.89781
 C3081 C 0.20862 0.28802 0.94021
 C3082 C 0.20653 0.27117 0.94279
 C3083 C 0.21458 0.26337 0.95555
 C3084 C 0.22513 0.27222 0.96575
 C3085 C 0.22723 0.28908 0.96314
 C3086 C 0.21890 0.29694 0.95058
 H3087 H 0.19860 0.32159 0.87206
 H3088 H 0.18509 0.33478 0.84893
 H3089 H 0.13921 0.33335 0.87441
 H3090 H 0.15274 0.32042 0.89774
 H3091 H 0.17610 0.32898 0.91836
 H3092 H 0.18982 0.31543 0.94117
 H3093 H 0.20882 0.27897 0.90857
 H3094 H 0.19536 0.29267 0.88575
 H3095 H 0.19859 0.26408 0.93497
 H3096 H 0.21280 0.25035 0.95725
 H3097 H 0.23525 0.29620 0.97086
 H3098 H 0.22074 0.30994 0.94874
 C3099 C 0.17926 0.82458 0.38654
 C3100 C 0.18809 0.82854 0.37250
 C3101 C 0.18033 0.83606 0.35941
 C3102 C 0.16354 0.83944 0.36003
 C3103 C 0.15469 0.83548 0.37404
 C3104 C 0.16253 0.82825 0.38728
 C3105 C 0.18741 0.81626 0.40023
 C3106 C 0.18605 0.82241 0.41604
 C3107 C 0.19378 0.81447 0.42894
 C3108 C 0.20268 0.80008 0.42625
 C3109 C 0.20395 0.79389 0.41045
 C3110 C 0.19651 0.80201 0.39752
 C3111 C 0.21052 0.79139 0.43988
 C3112 C 0.20771 0.77461 0.44217
 C3113 C 0.21526 0.76628 0.45490
 C3114 C 0.22601 0.77452 0.46539
 C3115 C 0.22885 0.79132 0.46308
 C3116 C 0.22102 0.79973 0.45053
 H3117 H 0.20102 0.82586 0.37171
 H3118 H 0.18730 0.83895 0.34864
 H3119 H 0.14174 0.83803 0.37470
 H3120 H 0.15547 0.82520 0.39796
 H3121 H 0.17914 0.83343 0.41836
 H3122 H 0.19261 0.81940 0.44105
 H3123 H 0.21082 0.78285 0.40811
 H3124 H 0.19763 0.79701 0.38543
 H3125 H 0.19959 0.76798 0.43414
 H3126 H 0.21290 0.75332 0.45635
 H3127 H 0.23705 0.79796 0.47101
 H3128 H 0.22340 0.81267 0.44892
 C3129 C 0.68011 0.67565 0.61247
 C3130 C 0.68928 0.67124 0.62622
 C3131 C 0.68174 0.66390 0.63956
 C3132 C 0.66484 0.66103 0.63955
 C3133 C 0.65563 0.66538 0.62590
 C3134 C 0.66318 0.67249 0.61244
 C3135 C 0.68811 0.68378 0.59839
 C3136 C 0.67988 0.69590 0.58950
 C3137 C 0.68752 0.70384 0.57656
 C3138 C 0.70370 0.70005 0.57229
 C3139 C 0.71190 0.68785 0.58110
 C3140 C 0.70417 0.67974 0.59390
 C3141 C 0.71209 0.70902 0.55894
 C3142 C 0.72347 0.70108 0.54891
 C3143 C 0.73166 0.70967 0.53670
 C3144 C 0.72848 0.72632 0.53408
 C3145 C 0.71697 0.73423 0.54390
 C3146 C 0.70897 0.72572 0.55626
 H3147 H 0.70225 0.67377 0.62686
 H3148 H 0.68903 0.66080 0.65007
 H3149 H 0.64258 0.66313 0.62566
 H3150 H 0.65576 0.67540 0.60199
 H3151 H 0.66759 0.69952 0.59270
 H3152 H 0.68070 0.71295 0.56990
 H3153 H 0.72442 0.68472 0.57833
 H3154 H 0.71082 0.67029 0.60026
 H3155 H 0.72598 0.68818 0.55039
 H3156 H 0.74039 0.70323 0.52923
 H3157 H 0.71437 0.74710 0.54226
 H3158 H 0.70057 0.73236 0.56392
 C3159 C 0.67664 0.17900 0.11326
 C3160 C 0.67209 0.18846 0.12675
 C3161 C 0.66470 0.18116 0.14020
 C3162 C 0.66192 0.16423 0.14056
 C3163 C 0.66640 0.15474 0.12715
 C3164 C 0.67357 0.16205 0.11359
 C3165 C 0.68478 0.18676 0.09904
 C3166 C 0.69699 0.17842 0.09041
 C3167 C 0.70484 0.18583 0.07728
 C3168 C 0.70087 0.20185 0.07255
 C3169 C 0.68861 0.21016 0.08115
 C3170 C 0.68060 0.20268 0.09413
 C3171 C 0.70963 0.20999 0.05892
 C3172 C 0.70146 0.22101 0.04865
 C3173 C 0.70985 0.22916 0.03630
 C3174 C 0.72655 0.22628 0.03373
 C3175 C 0.73467 0.21502 0.04371
 C3176 C 0.72635 0.20706 0.05623
 H3177 H 0.67454 0.20147 0.12711
 H3178 H 0.66150 0.18866 0.15051
 H3179 H 0.66424 0.14167 0.12718
 H3180 H 0.67660 0.15441 0.10334
 H3181 H 0.70071 0.16624 0.09395
 H3182 H 0.71402 0.17893 0.07082
 H3183 H 0.68536 0.22260 0.07804
 H3184 H 0.67109 0.20940 0.10029
 H3185 H 0.68853 0.22333 0.05010
 H3186 H 0.70323 0.23767 0.02869
 H3187 H 0.74758 0.21265 0.04209
 H3188 H 0.73315 0.19890 0.06404
 C3189 C 0.17671 0.67998 0.11275
 C3190 C 0.17232 0.68927 0.12641
 C3191 C 0.16500 0.68184 0.13981
 C3192 C 0.16212 0.66492 0.13997
 C3193 C 0.16644 0.65558 0.12641
 C3194 C 0.17354 0.66304 0.11289
 C3195 C 0.18484 0.68787 0.09860
 C3196 C 0.19691 0.67952 0.08979
 C3197 C 0.20484 0.68705 0.07678
 C3198 C 0.20112 0.70324 0.07237
 C3199 C 0.18897 0.71155 0.08110
 C3200 C 0.18086 0.70393 0.09396
 C3201 C 0.21011 0.71151 0.05896
 C3202 C 0.20224 0.72290 0.04884
 C3203 C 0.21086 0.73097 0.03657
 C3204 C 0.22748 0.72766 0.03398
 C3205 C 0.23531 0.71615 0.04392
 C3206 C 0.22677 0.70827 0.05633
 H3207 H 0.17486 0.70226 0.12692
 H3208 H 0.16192 0.68921 0.15024
 H3209 H 0.16419 0.64253 0.12629
 H3210 H 0.17643 0.65552 0.10251
 H3211 H 0.20049 0.66723 0.09310
 H3212 H 0.21391 0.68014 0.07019
 H3213 H 0.18589 0.72408 0.07822
 H3214 H 0.17145 0.71066 0.10026
 H3215 H 0.18937 0.72550 0.05028
 H3216 H 0.20448 0.73971 0.02902
 H3217 H 0.24815 0.71346 0.04231
 H3218 H 0.23336 0.69988 0.06406
 C3219 C 0.18008 0.17811 0.61470
 C3220 C 0.17744 0.16109 0.61526
 C3221 C 0.17038 0.15380 0.62889
 C3222 C 0.16557 0.16337 0.64213
 C3223 C 0.16801 0.18034 0.64157
 C3224 C 0.17529 0.18763 0.62807
 C3225 C 0.18790 0.18590 0.60033
 C3226 C 0.18325 0.20164 0.59526
 C3227 C 0.19090 0.20916 0.58208
 C3228 C 0.20324 0.20105 0.57342
 C3229 C 0.20771 0.18520 0.57832
 C3230 C 0.20023 0.17778 0.59165
 C3231 C 0.21155 0.20921 0.55952
 C3232 C 0.22828 0.20665 0.55655
 C3233 C 0.23616 0.21465 0.54377
 C3234 C 0.22758 0.22560 0.53383
 C3235 C 0.21086 0.22810 0.53668
 C3236 C 0.20291 0.21990 0.54928
 H3237 H 0.18066 0.15339 0.60511
 H3238 H 0.16848 0.14069 0.62908
 H3239 H 0.16456 0.18790 0.65176
 H3240 H 0.17743 0.20069 0.62827
 H3241 H 0.17364 0.20819 0.60144
 H3242 H 0.18727 0.22145 0.57886
 H3243 H 0.21697 0.17846 0.57182
 H3244 H 0.20431 0.16575 0.59529
 H3245 H 0.23543 0.19876 0.56432
 H3246 H 0.24909 0.21259 0.54193
 H3247 H 0.20390 0.23635 0.52910
 H3248 H 0.18996 0.22191 0.55093
   
