data_POSCAR
  _audit_creation_date              2014-09-24
  _audit_creation_method            'ToBaCCo'
  _symmetry_space_group_name_H-M    'P1'
  _symmetry_Int_Tables_number       1
  _symmetry_cell_setting            triclinic
  loop_
  _symmetry_equiv_pos_as_xyz
 x,y,z
_cell_length_a 72.1733
_cell_length_b 71.8482
_cell_length_c 71.7541
_cell_angle_alpha 89.492200
_cell_angle_beta 90.130000
_cell_angle_gamma 89.682600
loop_
  _atom_site_label
  _atom_site_type_symbol
  _atom_site_fract_x
  _atom_site_fract_y
  _atom_site_fract_z
C1 C 0.11968 -0.00338 0.23601
 C2 C 0.12960 0.01530 0.23779
 C3 C 0.13941 0.01736 0.25381
 C4 C 0.13917 -0.00001 0.26651
 C5 C 0.13543 -0.01770 0.23801
 C6 C 0.14549 -0.01614 0.25399
 C7 C 0.10838 -0.00537 0.25395
 C8 C 0.11845 -0.00364 0.26996
 H9 H 0.12908 0.02603 0.22710
 H10 H 0.14764 0.00134 0.27935
 H11 H 0.13819 -0.02855 0.22804
 H12 H 0.09351 -0.00729 0.25383
 C13 C 0.38415 -0.00615 0.73506
 C14 C 0.37146 -0.02273 0.73892
 C15 C 0.36076 -0.02091 0.75435
 C16 C 0.36379 -0.00249 0.76472
 C17 C 0.37128 0.01075 0.73446
 C18 C 0.36092 0.01310 0.75006
 C19 C 0.39480 -0.00425 0.75220
 C20 C 0.38373 -0.00218 0.76874
 H21 H 0.37251 -0.03586 0.73171
 H22 H 0.35445 -0.00075 0.77679
 H23 H 0.37166 0.02093 0.72323
 H24 H 0.40965 -0.00638 0.75255
 C25 C 0.88220 0.50079 0.22936
 C26 C 0.86922 0.48425 0.23111
 C27 C 0.85859 0.48412 0.24668
 C28 C 0.86151 0.50116 0.25917
 C29 C 0.86970 0.51794 0.23085
 C30 C 0.85905 0.51840 0.24646
 C31 C 0.89327 0.50076 0.24776
 C32 C 0.88245 0.50097 0.26338
 H33 H 0.86953 0.47275 0.22143
 H34 H 0.85255 0.50138 0.27172
 H35 H 0.87061 0.52959 0.22121
 H36 H 0.90818 0.50137 0.24857
 C37 C 0.61765 0.50013 0.73460
 C38 C 0.63087 0.51658 0.73523
 C39 C 0.64149 0.51744 0.75087
 C40 C 0.63846 0.50103 0.76446
 C41 C 0.62996 0.48296 0.73730
 C42 C 0.64082 0.48325 0.75282
 C43 C 0.60668 0.50125 0.75294
 C44 C 0.61752 0.50180 0.76854
 H45 H 0.63066 0.52753 0.72474
 H46 H 0.64736 0.50148 0.77709
 H47 H 0.62939 0.47108 0.72812
 H48 H 0.59178 0.50022 0.75384
 C49 C 0.23420 0.11304 1.00369
 C50 C 0.23319 0.12858 1.01801
 C51 C 0.24772 0.14049 1.01774
 C52 C 0.26231 0.13577 1.00291
 C53 C 0.23692 0.12299 0.98495
 C54 C 0.25151 0.13490 0.98445
 C55 C 0.25300 0.10348 1.00741
 C56 C 0.26773 0.11534 1.00692
 H57 H 0.22234 0.12924 1.02841
 H58 H 0.27418 0.14552 1.00264
 H59 H 0.22801 0.12064 0.97304
 H60 H 0.25493 0.08857 1.00817
 C61 C 0.72896 0.38577 0.99568
 C62 C 0.73032 0.37357 0.97974
 C63 C 0.74596 0.36119 0.97999
 C64 C 0.75694 0.36280 0.99731
 C65 C 0.72823 0.37287 1.01131
 C66 C 0.74392 0.36061 1.01308
 C67 C 0.74684 0.39494 0.99706
 C68 C 0.76253 0.38247 0.99790
 H69 H 0.71887 0.37142 0.97026
 H70 H 0.76869 0.35304 0.99810
 H71 H 0.71581 0.37120 1.01958
 H72 H 0.74809 0.40991 0.99584
 C73 C 0.23301 0.88665 0.49954
 C74 C 0.23435 0.87305 0.48342
 C75 C 0.25004 0.86255 0.48319
 C76 C 0.26305 0.86615 0.49980
 C77 C 0.23545 0.87471 0.51710
 C78 C 0.25112 0.86410 0.51747
 C79 C 0.25112 0.89794 0.49847
 C80 C 0.26684 0.88723 0.49865
 H81 H 0.22433 0.87299 0.47214
 H82 H 0.27572 0.85730 0.49981
 H83 H 0.22627 0.87581 0.52897
 H84 H 0.25174 0.91293 0.49924
 C85 C 0.73241 0.61428 0.50300
 C86 C 0.73559 0.62617 0.52022
 C87 C 0.75124 0.63655 0.51974
 C88 C 0.76257 0.63422 0.50176
 C89 C 0.73323 0.62786 0.48659
 C90 C 0.74901 0.63809 0.48560
 C91 C 0.75034 0.60265 0.50156
 C92 C 0.76612 0.61308 0.50087
 H93 H 0.72684 0.62534 0.53245
 H94 H 0.77532 0.64278 0.50139
 H95 H 0.72251 0.62851 0.47601
 H96 H 0.75075 0.58762 0.50166
 C97 C -0.00118 0.22923 0.11787
 C98 C 0.01454 0.23055 0.13220
 C99 C 0.01428 0.24632 0.14256
 C100 C -0.00203 0.25945 0.13787
 C101 C -0.01870 0.23134 0.12975
 C102 C -0.01923 0.24707 0.14017
 C103 C -0.00002 0.24724 0.10645
 C104 C -0.00038 0.26310 0.11673
 H105 H 0.02507 0.21989 0.13397
 H106 H -0.00236 0.27213 0.14658
 H107 H -0.02936 0.22086 0.13076
 H108 H 0.00059 0.24727 0.09137
 C109 C 0.00101 0.73468 0.38295
 C110 C -0.01428 0.73417 0.36993
 C111 C -0.01611 0.75019 0.35808
 C112 C -0.00168 0.76404 0.36149
 C113 C 0.01823 0.73823 0.37101
 C114 C 0.01686 0.75345 0.35975
 C115 C -0.00156 0.75301 0.39368
 C116 C -0.00295 0.76845 0.38247
 H117 H -0.02478 0.72350 0.37096
 H118 H -0.00226 0.77643 0.35221
 H119 H 0.03091 0.73017 0.37230
 H120 H -0.00029 0.75408 0.40865
 C121 C 0.50154 0.23706 0.88404
 C122 C 0.48551 0.23716 0.87013
 C123 C 0.48489 0.25220 0.85851
 C124 C 0.50062 0.26619 0.86197
 C125 C 0.51895 0.23950 0.87214
 C126 C 0.51851 0.25455 0.86061
 C127 C 0.49964 0.25570 0.89433
 C128 C 0.49912 0.27097 0.88283
 H129 H 0.47497 0.22648 0.87017
 H130 H 0.50029 0.27837 0.85237
 H131 H 0.53097 0.23045 0.87329
 H132 H 0.50037 0.25703 0.90929
 C133 C 0.50481 0.73446 0.61679
 C134 C 0.52207 0.73673 0.62892
 C135 C 0.52152 0.75149 0.64059
 C136 C 0.50385 0.76345 0.63852
 C137 C 0.48860 0.73459 0.63046
 C138 C 0.48796 0.74965 0.64179
 C139 C 0.50328 0.75311 0.60625
 C140 C 0.50264 0.76834 0.61753
 H141 H 0.53382 0.72731 0.62834
 H142 H 0.50336 0.77554 0.64803
 H143 H 0.47799 0.72398 0.63050
 H144 H 0.50393 0.75436 0.59126
 C145 C 0.88379 1.00503 0.77051
 C146 C 0.86980 1.01956 0.76895
 C147 C 0.85842 1.01865 0.75253
 C148 C 0.86321 1.00275 0.74069
 C149 C 0.87259 0.98703 0.76932
 C150 C 0.86221 0.98547 0.75358
 C151 C 0.89471 1.00587 0.75223
 C152 C 0.88408 1.00459 0.73660
 H153 H 0.86834 1.03039 0.77915
 H154 H 0.85462 1.00110 0.72800
 H155 H 0.87284 0.97633 0.78004
 H156 H 0.90968 1.00688 0.75181
 C157 C 0.38220 0.50528 0.26897
 C158 C 0.36864 0.52146 0.26546
 C159 C 0.35835 0.51977 0.24966
 C160 C 0.36222 0.50181 0.23878
 C161 C 0.36984 0.48807 0.26882
 C162 C 0.35985 0.48580 0.25294
 C163 C 0.39357 0.50406 0.25098
 C164 C 0.38323 0.50238 0.23514
 H165 H 0.36730 0.53352 0.27423
 H166 H 0.35359 0.50052 0.22604
 H167 H 0.36972 0.47795 0.28011
 H168 H 0.40856 0.50453 0.25096
 C169 C 0.61428 1.00542 0.26773
 C170 C 0.62336 0.98631 0.26523
 C171 C 0.63483 0.98515 0.25025
 C172 C 0.63619 1.00348 0.23900
 C173 C 0.62942 1.01847 0.26808
 C174 C 0.64150 1.01778 0.25236
 C175 C 0.60439 1.00901 0.24894
 C176 C 0.61586 1.00785 0.23384
 H177 H 0.62045 0.97454 0.27428
 H178 H 0.64556 1.00224 0.22684
 H179 H 0.62978 1.02962 0.27814
 H180 H 0.58953 1.00985 0.24732
 C181 C 0.11378 0.50207 0.76338
 C182 C 0.12354 0.48317 0.76212
 C183 C 0.13491 0.48125 0.74715
 C184 C 0.13569 0.49874 0.73461
 C185 C 0.12929 0.51633 0.76262
 C186 C 0.14085 0.51474 0.74781
 C187 C 0.10385 0.50419 0.74448
 C188 C 0.11520 0.50220 0.72939
 H189 H 0.12109 0.47201 0.77206
 H190 H 0.14511 0.49725 0.72251
 H191 H 0.13040 0.52747 0.77264
 H192 H 0.08908 0.50595 0.74291
 C193 C 0.76890 0.88514 0.00361
 C194 C 0.76669 0.87104 0.01958
 C195 C 0.75169 0.85978 0.01797
 C196 C 0.73987 0.86379 0.00051
 C197 C 0.76857 0.87356 -0.01405
 C198 C 0.75367 0.86223 -0.01578
 C199 C 0.75041 0.89581 0.00340
 C200 C 0.73515 0.88473 0.00184
 H201 H 0.77572 0.87067 0.03165
 H202 H 0.72771 0.85448 -0.00068
 H203 H 0.77937 0.87444 -0.02448
 H204 H 0.74935 0.91070 0.00497
 C205 C 0.26769 0.38224 0.50345
 C206 C 0.26545 0.36802 0.51926
 C207 C 0.25021 0.35710 0.51779
 C208 C 0.23843 0.36122 0.50034
 C209 C 0.26709 0.37082 0.48561
 C210 C 0.25216 0.35952 0.48402
 C211 C 0.24931 0.39312 0.50304
 C212 C 0.23392 0.38222 0.50160
 H213 H 0.27466 0.36745 0.53120
 H214 H 0.22620 0.35202 0.49915
 H215 H 0.27766 0.37181 0.47496
 H216 H 0.24842 0.40812 0.50268
 C217 C 0.26090 0.61239 0.00419
 C218 C 0.26017 0.62469 -0.01327
 C219 C 0.24478 0.63553 -0.01474
 C220 C 0.23129 0.63338 0.00171
 C221 C 0.25835 0.62577 0.02045
 C222 C 0.24323 0.63704 0.01911
 C223 C 0.24265 0.60142 0.00389
 C224 C 0.22706 0.61231 0.00262
 H225 H 0.27066 0.62419 -0.02404
 H226 H 0.21897 0.64263 0.00070
 H227 H 0.26752 0.62591 0.03243
 H228 H 0.24208 0.58642 0.00468
 C229 C 0.76489 0.11416 0.50032
 C230 C 0.76209 0.12313 0.48228
 C231 C 0.74663 0.13574 0.48136
 C232 C 0.73663 0.13674 0.49921
 C233 C 0.76595 0.12916 0.51363
 C234 C 0.75043 0.14163 0.51347
 C235 C 0.74721 0.10500 0.50412
 C236 C 0.73138 0.11735 0.50330
 H237 H 0.77135 0.12076 0.47068
 H238 H 0.72483 0.14654 0.49894
 H239 H 0.77624 0.12905 0.52466
 H240 H 0.74543 0.09014 0.50308
 C241 C 1.00655 0.76571 0.88410
 C242 C 1.02336 0.76330 0.87125
 C243 C 1.02216 0.74855 0.85957
 C244 C 1.00415 0.73741 0.86159
 C245 C 0.99020 0.76685 0.87046
 C246 C 0.98875 0.75209 0.85880
 C247 C 1.00439 0.74693 0.89402
 C248 C 1.00308 0.73208 0.88239
 H249 H 1.03465 0.77308 0.87025
 H250 H 1.00317 0.72552 0.85187
 H251 H 0.98036 0.77828 0.87033
 H252 H 1.00428 0.74557 0.90906
 C253 C 0.49645 0.27029 0.38331
 C254 C 0.51478 0.26831 0.37272
 C255 C 0.51578 0.25323 0.36139
 C256 C 0.49795 0.24158 0.36124
 C257 C 0.48186 0.27059 0.36774
 C258 C 0.48242 0.25557 0.35632
 C259 C 0.49385 0.25158 0.39325
 C260 C 0.49468 0.23654 0.38186
 H261 H 0.52577 0.27847 0.37352
 H262 H 0.49853 0.22938 0.35188
 H263 H 0.47169 0.28156 0.36595
 H264 H 0.49244 0.25038 0.40824
 C265 C 1.00162 0.26587 0.61434
 C266 C 0.98442 0.26547 0.62688
 C267 C 0.98341 0.25033 0.63837
 C268 C 1.00008 0.23700 0.63670
 C269 C 1.01772 0.26449 0.62823
 C270 C 1.01707 0.24949 0.63990
 C271 C 1.00154 0.24716 0.60434
 C272 C 1.00057 0.23199 0.61586
 H273 H 0.97361 0.27597 0.62630
 H274 H 0.99933 0.22492 0.64641
 H275 H 1.02843 0.27488 0.62941
 H276 H 1.00209 0.24618 0.58931
 C277 C 0.49920 0.76803 0.11613
 C278 C 0.48216 0.76733 0.12888
 C279 C 0.48142 0.75204 0.14020
 C280 C 0.49819 0.73887 0.13816
 C281 C 0.51546 0.76664 0.12981
 C282 C 0.51510 0.75150 0.14130
 C283 C 0.49917 0.74946 0.10590
 C284 C 0.49846 0.73413 0.11723
 H285 H 0.47132 0.77780 0.12871
 H286 H 0.49766 0.72666 0.14771
 H287 H 0.52606 0.77715 0.13095
 H288 H 0.49953 0.74868 0.09084
 O289 O -0.00609 0.98653 0.94927
 O290 O 0.02445 0.99512 0.94904
 O291 O -0.00732 0.94405 0.99294
 O292 O -0.00261 0.94201 1.02337
 O293 O -0.04956 0.98818 0.99080
 O294 O -0.04951 1.01983 0.99946
 O295 O 0.03921 0.99249 1.04323
 O296 O 0.04119 0.96354 1.02984
 O297 O 0.04397 1.03204 1.00077
 O298 O 0.02908 1.03720 0.97040
 O299 O 0.00094 1.03685 1.03873
 O300 O -0.02860 1.02231 1.04341
 O301 O 0.01339 1.00666 1.05463
 O302 O -0.02038 0.99805 1.05449
 O303 O 0.01480 1.04857 1.01283
 O304 O 0.00584 1.04930 0.97933
 O305 O 0.05494 1.00601 1.01528
 O306 O 0.05456 0.97460 1.00117
 O307 O -0.03175 1.00111 0.96058
 O308 O -0.03554 1.03044 0.97637
 O309 O -0.03861 0.96182 1.00474
 O310 O -0.02289 0.95876 1.03561
 O311 O 0.00581 0.95569 0.96658
 O312 O 0.03663 0.97085 0.96547
 Zr313 Zr 0.01115 0.98374 0.97279
 O314 O 0.02879 1.00032 0.98902
 Zr315 Zr -0.01052 0.96726 1.01022
 O316 O 0.00667 0.98261 1.02800
 Zr317 Zr -0.02620 1.00540 0.98902
 O318 O -0.01018 1.02256 1.00627
 Zr319 Zr 0.03231 0.98777 1.01529
 O320 O 0.01605 0.97012 0.99849
 Zr321 Zr 0.01618 1.02604 0.99447
 O322 O -0.00054 1.01041 0.97622
 Zr323 Zr -0.00502 1.00911 1.03191
 O324 O -0.02333 0.99303 1.01556
 O325 O -0.01496 0.97922 0.98415
 O326 O 0.02103 1.01400 1.02055
 C327 C -0.02221 0.99401 0.94726
 C328 C -0.00076 0.94224 0.97643
 C329 C -0.05172 0.97172 0.99756
 C330 C 0.02980 0.99981 1.05649
 C331 C 0.05692 1.02259 1.00882
 C332 C 0.00837 1.05019 1.02940
 H333 H 0.04081 1.00176 0.98259
 H334 H -0.01672 1.03456 1.00788
 H335 H -0.02286 0.97147 0.97605
 H336 H 0.00830 0.97566 1.03985
 H337 H 0.03840 0.95286 1.02170
 H338 H 0.00935 0.94435 1.02962
 H339 H -0.00563 1.05358 0.98554
 H340 H -0.02576 1.03436 0.96754
 H341 H 0.06560 0.97487 1.00941
 H342 H 0.03484 0.96370 0.95383
 H343 H -0.03329 1.03139 1.03408
 H344 H -0.05132 1.01532 1.01240
 H345 H 0.02085 1.00842 0.94836
 H346 H 0.03905 1.02852 0.96667
 H347 H -0.03309 0.96763 1.03816
 H348 H -0.01390 0.98670 1.05900
 O349 O 0.48869 0.48808 0.45006
 O350 O 0.51881 0.49768 0.44851
 O351 O 0.48934 0.44735 0.49490
 O352 O 0.49676 0.44642 0.52492
 O353 O 0.44638 0.48939 0.49259
 O354 O 0.44529 0.52139 0.50031
 O355 O 0.53632 0.49944 0.54208
 O356 O 0.53920 0.47018 0.52974
 O357 O 0.53839 0.53731 0.49736
 O358 O 0.52170 0.54104 0.46788
 O359 O 0.49538 0.54216 0.53694
 O360 O 0.46718 0.52596 0.54346
 O361 O 0.51062 0.51365 0.55366
 O362 O 0.47741 0.50299 0.55539
 O363 O 0.50942 0.55327 0.51085
 O364 O 0.49861 0.55272 0.47776
 O365 O 0.55055 0.51268 0.51336
 O366 O 0.55120 0.48077 0.50029
 O367 O 0.46279 0.50214 0.46147
 O368 O 0.45812 0.53176 0.47639
 O369 O 0.45860 0.46467 0.50843
 O370 O 0.47603 0.46263 0.53797
 O371 O 0.50213 0.45843 0.46813
 O372 O 0.53237 0.47469 0.46561
 Zr373 Zr 0.50660 0.48687 0.47311
 O374 O 0.52397 0.50484 0.48805
 Zr375 Zr 0.48680 0.47095 0.51179
 O376 O 0.50385 0.48770 0.52839
 Zr377 Zr 0.46888 0.50760 0.48962
 O378 O 0.48466 0.52607 0.50572
 Zr379 Zr 0.52880 0.49345 0.51462
 O380 O 0.51284 0.47443 0.49908
 Zr381 Zr 0.51050 0.53025 0.49297
 O382 O 0.49394 0.51319 0.47587
 Zr383 Zr 0.49117 0.51382 0.53166
 O384 O 0.47310 0.49638 0.51652
 O385 O 0.48105 0.48174 0.48546
 O386 O 0.51662 0.51939 0.51929
 C387 C 0.47230 0.49494 0.44818
 C388 C 0.49572 0.44517 0.47835
 C389 C 0.44499 0.47356 0.50090
 C390 C 0.52727 0.50731 0.55527
 C391 C 0.55182 0.52879 0.50563
 C392 C 0.50265 0.55530 0.52724
 H393 H 0.53570 0.50650 0.48114
 H394 H 0.47766 0.53783 0.50712
 H395 H 0.47313 0.47343 0.47795
 H396 H 0.50617 0.48134 0.54045
 H397 H 0.53667 0.45908 0.52208
 H398 H 0.50829 0.44981 0.53149
 H399 H 0.48740 0.55689 0.48449
 H400 H 0.46763 0.53596 0.46739
 H401 H 0.56246 0.48186 0.50815
 H402 H 0.53056 0.46692 0.45439
 H403 H 0.46163 0.53432 0.53392
 H404 H 0.44384 0.51698 0.51333
 H405 H 0.51454 0.51075 0.44725
 H406 H 0.53174 0.53254 0.46390
 H407 H 0.46606 0.47158 0.54113
 H408 H 0.48483 0.49240 0.56029
 O409 O 0.46119 -0.03583 0.49886
 O410 O 0.47597 -0.03916 0.47049
 O411 O 0.50620 -0.03625 0.53854
 O412 O 0.53208 -0.02007 0.54338
 O413 O 0.46352 0.00592 0.54211
 O414 O 0.45669 0.03346 0.52528
 O415 O 0.55057 0.01645 0.48832
 O416 O 0.55386 -0.01325 0.50023
 O417 O 0.50799 0.01444 0.44823
 O418 O 0.47638 0.00276 0.44773
 O419 O 0.50734 0.05579 0.48817
 O420 O 0.49805 0.05745 0.52094
 O421 O 0.53734 0.04164 0.50204
 O422 O 0.52075 0.04600 0.53219
 O423 O 0.49317 0.04269 0.46329
 O424 O 0.46394 0.02415 0.46052
 O425 O 0.53504 0.00315 0.46010
 O426 O 0.53779 -0.02808 0.47519
 O427 O 0.44787 -0.01046 0.51224
 O428 O 0.44495 0.02154 0.50176
 O429 O 0.49012 -0.00645 0.55400
 O430 O 0.52176 0.00627 0.55294
 O431 O 0.49197 -0.04947 0.51371
 O432 O 0.50407 -0.04906 0.48125
 Zr433 Zr 0.48872 -0.02752 0.49428
 O434 O 0.50381 -0.01061 0.47566
 Zr435 Zr 0.50818 -0.00794 0.53113
 O436 O 0.52450 0.00936 0.51407
 Zr437 Zr 0.46912 0.00956 0.51360
 O438 O 0.48370 0.02804 0.49613
 Zr439 Zr 0.52898 -0.00308 0.48811
 O440 O 0.51476 -0.02162 0.50616
 Zr441 Zr 0.48980 0.01466 0.47099
 O442 O 0.47354 -0.00318 0.48775
 Zr443 Zr 0.50976 0.03392 0.50777
 O444 O 0.49407 0.01742 0.52653
 O445 O 0.48282 -0.01521 0.51972
 O446 O 0.51543 0.02196 0.48210
 C447 C 0.44720 -0.02712 0.50577
 C448 C 0.49934 -0.05032 0.53004
 C449 C 0.47346 -0.00033 0.55569
 C450 C 0.55119 0.03315 0.49463
 C451 C 0.52506 0.00961 0.44664
 C452 C 0.50037 0.05662 0.47167
 H453 H 0.50596 -0.01744 0.46395
 H454 H 0.47622 0.03944 0.49412
 H455 H 0.47552 -0.02339 0.52806
 H456 H 0.53637 0.01185 0.52046
 H457 H 0.55077 -0.02514 0.50654
 H458 H 0.54274 -0.01619 0.53569
 H459 H 0.46014 0.03513 0.46785
 H460 H 0.44315 0.01555 0.48952
 H461 H 0.54983 -0.02566 0.46901
 H462 H 0.49773 -0.06109 0.48352
 H463 H 0.48580 0.05988 0.51519
 H464 H 0.46648 0.03965 0.53263
 H465 H 0.46765 -0.02946 0.46522
 H466 H 0.48294 -0.00895 0.44471
 H467 H 0.51438 0.01762 0.55548
 H468 H 0.53188 0.03874 0.53587
 O469 O -0.04228 0.45600 0.99239
 O470 O -0.02755 0.45340 0.96380
 O471 O 0.00277 0.45574 1.03186
 O472 O 0.02794 0.47234 1.03776
 O473 O -0.04086 0.49722 1.03563
 O474 O -0.04758 0.52509 1.01924
 O475 O 0.04682 0.50910 0.98294
 O476 O 0.05009 0.47922 0.99435
 O477 O 0.00455 0.50746 0.94235
 O478 O -0.02686 0.49583 0.94129
 O479 O 0.00355 0.54821 0.98289
 O480 O -0.00595 0.54984 1.01513
 O481 O 0.03333 0.53404 0.99688
 O482 O 0.01606 0.53766 1.02718
 O483 O -0.01054 0.53557 0.95771
 O484 O -0.03975 0.51671 0.95455
 O485 O 0.03160 0.49634 0.95437
 O486 O 0.03427 0.46480 0.96890
 O487 O -0.05596 0.48131 1.00549
 O488 O -0.05897 0.51349 0.99531
 O489 O -0.01417 0.48526 1.04768
 O490 O 0.01755 0.49828 1.04697
 O491 O -0.01135 0.44258 1.00693
 O492 O 0.00067 0.44355 0.97443
 Zr493 Zr -0.01486 0.46477 0.98776
 O494 O 0.00024 0.48205 0.96946
 Zr495 Zr 0.00417 0.48415 1.02499
 O496 O 0.02057 0.50164 1.00827
 Zr497 Zr -0.03488 0.50147 1.00730
 O498 O -0.02022 0.52030 0.99025
 Zr499 Zr 0.02529 0.48953 0.98219
 O500 O 0.01104 0.47075 0.99993
 Zr501 Zr -0.01383 0.50733 0.96497
 O502 O -0.03013 0.48910 0.98133
 Zr503 Zr 0.00571 0.52615 1.00220
 O504 O -0.01014 0.50940 1.02058
 O505 O -0.02102 0.47675 1.01329
 O506 O 0.01166 0.51459 0.97642
 C507 C -0.05640 0.46458 0.99919
 C508 C -0.00384 0.44167 1.02319
 C509 C -0.03096 0.49104 1.04926
 C510 C 0.04730 0.52570 0.98951
 C511 C 0.02170 0.50288 0.94090
 C512 C -0.00329 0.54932 0.96637
 H513 H 0.00252 0.47539 0.95767
 H514 H -0.02774 0.53170 0.98833
 H515 H -0.02825 0.46837 1.02150
 H516 H 0.03237 0.50407 1.01482
 H517 H 0.04699 0.46719 1.00039
 H518 H 0.03854 0.47535 1.02960
 H519 H -0.04353 0.52774 0.96181
 H520 H -0.06071 0.50751 0.98306
 H521 H 0.04634 0.46737 0.96285
 H522 H -0.00559 0.43145 0.97651
 H523 H -0.01858 0.55163 1.01004
 H524 H -0.03793 0.53118 1.02685
 H525 H -0.03601 0.46309 0.95873
 H526 H -0.02062 0.48387 0.93857
 H527 H 0.00984 0.50932 1.04988
 H528 H 0.02761 0.53091 1.03050
 O529 O 0.01092 0.44530 0.50383
 O530 O -0.00109 0.44542 0.47401
 O531 O 0.05325 0.48705 0.50203
 O532 O 0.05520 0.51729 0.49451
 O533 O 0.01436 0.48651 0.54727
 O534 O -0.01697 0.49609 0.55042
 O535 O 0.00117 0.53942 0.45881
 O536 O 0.02917 0.52519 0.45372
 O537 O -0.03914 0.49730 0.45793
 O538 O -0.04308 0.46752 0.47405
 O539 O -0.03897 0.53590 0.50142
 O540 O -0.02105 0.53979 0.52972
 O541 O -0.01054 0.55094 0.48578
 O542 O 0.00181 0.55075 0.51852
 O543 O -0.05213 0.51076 0.48789
 O544 O -0.05258 0.47725 0.49831
 O545 O -0.01466 0.51185 0.44449
 O546 O 0.01642 0.49699 0.44166
 O547 O -0.00115 0.45666 0.53075
 O548 O -0.02932 0.47337 0.53771
 O549 O 0.03918 0.50043 0.53376
 O550 O 0.04130 0.53059 0.51726
 O551 O 0.04013 0.46155 0.48907
 O552 O 0.02209 0.46135 0.45952
 Zr553 Zr 0.01190 0.46872 0.48620
 O554 O -0.00629 0.48536 0.47016
 Zr555 Zr 0.03096 0.50554 0.50604
 O556 O 0.01402 0.52374 0.49034
 Zr557 Zr -0.00541 0.48532 0.52568
 O558 O -0.02400 0.50303 0.51127
 Zr559 Zr 0.00601 0.51130 0.46524
 O560 O 0.02515 0.49402 0.47979
 Zr561 Zr -0.03036 0.49141 0.48530
 O562 O -0.01324 0.47277 0.50055
 Zr563 Zr -0.01093 0.52829 0.50463
 O564 O 0.00685 0.51151 0.52137
 O565 O 0.01919 0.47987 0.51184
 O566 O -0.01867 0.51715 0.47911
 C567 C 0.00499 0.44328 0.52061
 C568 C 0.05416 0.47054 0.49531
 C569 C 0.03085 0.49320 0.54785
 C570 C -0.00521 0.55278 0.46876
 C571 C -0.03122 0.50538 0.44406
 C572 C -0.05292 0.52729 0.49454
 H573 H -0.00907 0.47898 0.45832
 H574 H -0.03520 0.50497 0.51893
 H575 H 0.02750 0.47157 0.51916
 H576 H 0.02082 0.53543 0.48796
 H577 H 0.03999 0.51684 0.45562
 H578 H 0.05122 0.52516 0.48385
 H579 H -0.05601 0.48418 0.50965
 H580 H -0.03472 0.46513 0.52817
 H581 H 0.01487 0.50523 0.43060
 H582 H 0.02906 0.44944 0.46063
 H583 H -0.03009 0.53094 0.53504
 H584 H -0.01212 0.50889 0.55167
 H585 H -0.01368 0.44469 0.47939
 H586 H -0.03546 0.46331 0.46343
 H587 H 0.03323 0.53386 0.52789
 H588 H 0.01244 0.55489 0.51088
 O589 O 0.51538 0.98924 0.05145
 O590 O 0.48556 1.00019 0.05471
 O591 O 0.51047 0.94856 0.00754
 O592 O 0.50259 0.94785 -0.02234
 O593 O 0.55465 0.98940 0.00697
 O594 O 0.55582 1.02127 -0.00237
 O595 O 0.46204 1.00135 -0.03780
 O596 O 0.45956 0.97236 -0.02438
 O597 O 0.46329 1.04000 0.00566
 O598 O 0.48131 1.04329 0.03419
 O599 O 0.50315 1.04317 -0.03643
 O600 O 0.53078 1.02709 -0.04421
 O601 O 0.48724 1.01464 -0.05133
 O602 O 0.52056 1.00328 -0.05434
 O603 O 0.49185 1.05492 -0.00946
 O604 O 0.50435 1.05403 0.02312
 O605 O 0.44979 1.01538 -0.00849
 O606 O 0.44961 0.98344 0.00543
 O607 O 0.54027 1.00347 0.03825
 O608 O 0.54470 1.03251 0.02182
 O609 O 0.54128 0.96450 -0.00683
 O610 O 0.52273 0.96374 -0.03631
 O611 O 0.49994 0.96008 0.03496
 O612 O 0.47044 0.97735 0.03925
 Zr613 Zr 0.49584 0.98870 0.02967
 O614 O 0.47776 1.00696 0.01532
 Zr615 Zr 0.51316 0.97208 -0.00977
 O616 O 0.49522 0.98906 -0.02572
 Zr617 Zr 0.53269 1.00843 0.01028
 O618 O 0.51614 1.02714 -0.00530
 Zr619 Zr 0.47118 0.99551 -0.01062
 O620 O 0.48794 0.97628 0.00438
 Zr621 Zr 0.49121 1.03200 0.00892
 O622 O 0.50860 1.01470 0.02541
 Zr623 Zr 0.50792 1.01487 -0.03047
 O624 O 0.52679 0.99715 -0.01603
 O625 O 0.52050 0.98290 0.01591
 O626 O 0.48334 1.02111 -0.01669
 C627 C 0.53179 0.99613 0.05223
 C628 C 0.50514 0.94659 0.02451
 C629 C 0.55538 0.97305 -0.00015
 C630 C 0.47043 1.00875 -0.05178
 C631 C 0.44923 1.03176 -0.00147
 C632 C 0.49703 1.05664 -0.02649
 H633 H 0.46648 1.00898 0.02286
 H634 H 0.52315 1.03874 -0.00745
 H635 H 0.52858 0.97440 0.02327
 H636 H 0.49212 0.98264 -0.03744
 H637 H 0.46263 0.96125 -0.01669
 H638 H 0.49033 0.95125 -0.02753
 H639 H 0.51504 1.05810 0.01554
 H640 H 0.53592 1.03712 0.03134
 H641 H 0.43787 0.98489 -0.00166
 H642 H 0.47286 0.96976 0.05063
 H643 H 0.53761 1.03442 -0.03487
 H644 H 0.55652 1.01641 -0.01522
 H645 H 0.49023 1.01310 0.05531
 H646 H 0.47162 1.03488 0.03908
 H647 H 0.53325 0.97192 -0.03957
 H648 H 0.51267 0.99297 -0.05869
 O649 O 0.44463 0.50974 0.01109
 O650 O 0.44499 0.48012 -0.00152
 O651 O 0.48631 0.50783 0.05355
 O652 O 0.51643 0.50078 0.05571
 O653 O 0.48502 0.55343 0.01448
 O654 O 0.49480 0.55714 -0.01689
 O655 O 0.53873 0.46585 0.00112
 O656 O 0.52482 0.46029 0.02935
 O657 O 0.49608 0.46484 -0.03922
 O658 O 0.46693 0.48107 -0.04372
 O659 O 0.53488 0.50882 -0.03876
 O660 O 0.53843 0.53695 -0.02089
 O661 O 0.54990 0.49324 -0.01018
 O662 O 0.54928 0.52581 0.00239
 O663 O 0.51016 0.49485 -0.05221
 O664 O 0.47664 0.50545 -0.05306
 O665 O 0.51113 0.45131 -0.01473
 O666 O 0.49667 0.44810 0.01657
 O667 O 0.45557 0.53654 -0.00194
 O668 O 0.47245 0.54447 -0.02965
 O669 O 0.49927 0.53989 0.03943
 O670 O 0.52950 0.52364 0.04174
 O671 O 0.46108 0.49459 0.04022
 O672 O 0.46095 0.46545 0.02197
 Zr673 Zr 0.46809 0.49232 0.01183
 O674 O 0.48477 0.47672 -0.00640
 Zr675 Zr 0.50459 0.51233 0.03122
 O676 O 0.52282 0.49701 0.01431
 Zr677 Zr 0.48424 0.53213 -0.00551
 O678 O 0.50199 0.51818 -0.02408
 Zr679 Zr 0.51068 0.47188 0.00607
 O680 O 0.49339 0.48602 0.02525
 Zr681 Zr 0.49065 0.49219 -0.03059
 O682 O 0.47197 0.50696 -0.01346
 Zr683 Zr 0.52717 0.51171 -0.01071
 O684 O 0.51034 0.52802 0.00704
 O685 O 0.47896 0.51797 0.01922
 O686 O 0.51633 0.48616 -0.01866
 C687 C 0.44243 0.52633 0.00456
 C688 C 0.46998 0.50080 0.05439
 C689 C 0.49179 0.55394 0.03107
 C690 C 0.55192 0.47614 -0.00510
 C691 C 0.50421 0.45094 -0.03126
 C692 C 0.52655 0.50172 -0.05282
 H693 H 0.47844 0.46490 -0.00922
 H694 H 0.50389 0.52595 -0.03534
 H695 H 0.47063 0.52506 0.02753
 H696 H 0.53449 0.49469 0.02121
 H697 H 0.51658 0.46195 0.04024
 H698 H 0.52415 0.49011 0.05181
 H699 H 0.48390 0.51648 -0.05687
 H700 H 0.46468 0.53482 -0.03549
 H701 H 0.50494 0.43715 0.01507
 H702 H 0.44903 0.46633 0.02878
 H703 H 0.52947 0.54236 -0.02991
 H704 H 0.50748 0.55850 -0.01181
 H705 H 0.44390 0.48608 -0.01397
 H706 H 0.46232 0.47080 -0.03575
 H707 H 0.53254 0.53453 0.03379
 H708 H 0.55365 0.51800 0.01296
 O709 O -0.05502 0.00733 0.51264
 O710 O -0.05528 -0.02235 0.50044
 O711 O -0.01285 0.00519 0.55471
 O712 O 0.01716 -0.00257 0.55655
 O713 O -0.01380 0.05047 0.51543
 O714 O -0.00463 0.05390 0.48391
 O715 O 0.03822 -0.03803 0.50173
 O716 O 0.02464 -0.04320 0.53022
 O717 O -0.00478 -0.03841 0.46197
 O718 O -0.03379 -0.02185 0.45777
 O719 O 0.03455 0.00501 0.46183
 O720 O 0.03886 0.03305 0.47962
 O721 O 0.04972 -0.01088 0.49017
 O722 O 0.04981 0.02174 0.50277
 O723 O 0.00945 -0.00854 0.44866
 O724 O -0.02395 0.00245 0.44832
 O725 O 0.01026 -0.05210 0.48636
 O726 O -0.00387 -0.05499 0.51786
 O727 O -0.04374 0.03417 0.50008
 O728 O -0.02741 0.04128 0.47157
 O729 O 0.00048 0.03685 0.54032
 O730 O 0.03049 0.02011 0.54230
 O731 O -0.03842 -0.00782 0.54181
 O732 O -0.03914 -0.03713 0.52365
 Zr733 Zr -0.03180 -0.01040 0.51332
 O734 O -0.01560 -0.02628 0.49491
 Zr735 Zr 0.00526 0.00915 0.53216
 O736 O 0.02304 -0.00653 0.51509
 Zr737 Zr -0.01529 0.02909 0.49563
 O738 O 0.00205 0.01484 0.47690
 Zr739 Zr 0.01038 -0.03147 0.50709
 O740 O -0.00643 -0.01701 0.52645
 Zr741 Zr -0.00978 -0.01098 0.47059
 O742 O -0.02805 0.00409 0.48793
 Zr743 Zr 0.02730 0.00801 0.48997
 O744 O 0.01093 0.02466 0.50784
 O745 O -0.02042 0.01510 0.52047
 O746 O 0.01595 -0.01737 0.48223
 C747 C -0.05702 0.02411 0.50655
 C748 C -0.02927 -0.00157 0.55580
 C749 C -0.00688 0.05096 0.53195
 C750 C 0.05148 -0.02802 0.49523
 C751 C 0.00322 -0.05240 0.46989
 C752 C 0.02593 -0.00190 0.44785
 H753 H -0.02213 -0.03802 0.49220
 H754 H 0.00392 0.02257 0.46561
 H755 H -0.02852 0.02236 0.52886
 H756 H 0.03476 -0.00903 0.52183
 H757 H 0.01658 -0.04136 0.54121
 H758 H 0.02478 -0.01328 0.55256
 H759 H -0.01668 0.01348 0.44452
 H760 H -0.03576 0.03181 0.46625
 H761 H 0.00421 -0.06607 0.51628
 H762 H -0.05088 -0.03605 0.53076
 H763 H 0.02988 0.03860 0.47072
 H764 H 0.00818 0.05508 0.48869
 H765 H -0.05634 -0.01663 0.48788
 H766 H -0.03842 -0.03204 0.46582
 H767 H 0.03360 0.03091 0.53426
 H768 H 0.05424 0.01382 0.51324
 O769 O 0.69508 0.23671 0.25415
 O770 O 0.69630 0.24703 0.22369
 O771 O 0.74088 0.19751 0.25781
 O772 O 0.77135 0.19742 0.25694
 O773 O 0.73236 0.24080 0.30051
 O774 O 0.73961 0.27299 0.30113
 O775 O 0.79086 0.24979 0.21555
 O776 O 0.77958 0.22003 0.21285
 O777 O 0.74707 0.28657 0.20702
 O778 O 0.71659 0.29077 0.21960
 O779 O 0.78088 0.29319 0.25528
 O780 O 0.78517 0.27756 0.28378
 O781 O 0.79952 0.26488 0.24187
 O782 O 0.79772 0.25408 0.27582
 O783 O 0.75660 0.30377 0.23791
 O784 O 0.72237 0.30210 0.24423
 O785 O 0.76365 0.26149 0.19744
 O786 O 0.75140 0.22934 0.19725
 O787 O 0.70360 0.25230 0.28023
 O788 O 0.71734 0.28255 0.28515
 O789 O 0.74838 0.21537 0.29089
 O790 O 0.78077 0.21485 0.27766
 O791 O 0.71517 0.20770 0.24238
 O792 O 0.71474 0.22415 0.21199
 Zr793 Zr 0.71967 0.23646 0.23833
 O794 O 0.73621 0.25428 0.22193
 Zr795 Zr 0.75606 0.22173 0.26315
 O796 O 0.77411 0.23826 0.24712
 Zr797 Zr 0.73187 0.25835 0.27692
 O798 O 0.74933 0.27665 0.26224
 Zr799 Zr 0.76309 0.24322 0.22045
 O800 O 0.74625 0.22443 0.23554
 Zr801 Zr 0.73956 0.28017 0.23479
 O802 O 0.72095 0.26320 0.25013
 Zr803 Zr 0.77580 0.26471 0.25912
 O804 O 0.75902 0.24756 0.27630
 O805 O 0.72928 0.23208 0.26538
 O806 O 0.76631 0.26957 0.23204
 C807 C 0.69154 0.24396 0.27010
 C808 C 0.72536 0.19472 0.24951
 C809 C 0.73952 0.22461 0.30335
 C810 C 0.80285 0.25830 0.22557
 C811 C 0.75629 0.27758 0.19464
 C812 C 0.77178 0.30622 0.24695
 H813 H 0.73064 0.25556 0.20937
 H814 H 0.74976 0.28851 0.26909
 H815 H 0.72114 0.22358 0.27253
 H816 H 0.78634 0.23206 0.24631
 H817 H 0.77198 0.20882 0.21519
 H818 H 0.77758 0.19984 0.24492
 H819 H 0.72766 0.30671 0.25603
 H820 H 0.70898 0.28599 0.27470
 H821 H 0.76032 0.23010 0.18678
 H822 H 0.70341 0.21642 0.21279
 H823 H 0.77465 0.28480 0.28880
 H824 H 0.75215 0.26849 0.30461
 H825 H 0.69443 0.26000 0.22785
 H826 H 0.71262 0.28101 0.21085
 H827 H 0.78167 0.22344 0.28833
 H828 H 0.80389 0.24396 0.26889
 O829 O 0.75730 0.71317 0.71105
 O830 O 0.78507 0.70923 0.72493
 O831 O 0.71981 0.70892 0.75926
 O832 O 0.71336 0.72493 0.78452
 O833 O 0.71148 0.75250 0.71655
 O834 O 0.72626 0.78084 0.71029
 O835 O 0.76778 0.76086 0.80276
 O836 O 0.75845 0.73107 0.80507
 O837 O 0.80646 0.76232 0.75796
 O838 O 0.80594 0.75290 0.72575
 O839 O 0.76418 0.80295 0.76018
 O840 O 0.73231 0.80417 0.75374
 O841 O 0.75296 0.78649 0.79115
 O842 O 0.72160 0.79002 0.77522
 O843 O 0.78875 0.79143 0.74421
 O844 O 0.79166 0.77373 0.71470
 O845 O 0.79653 0.74950 0.78518
 O846 O 0.78297 0.71792 0.78709
 O847 O 0.74198 0.73833 0.69899
 O848 O 0.74978 0.77085 0.69735
 O849 O 0.70136 0.73943 0.74356
 O850 O 0.70367 0.75055 0.77609
 O851 O 0.74374 0.69720 0.74243
 O852 O 0.77653 0.69862 0.75325
 Zr853 Zr 0.76166 0.72005 0.73902
 O854 O 0.78009 0.73700 0.75389
 Zr855 Zr 0.72505 0.73760 0.76065
 O856 O 0.74205 0.75457 0.77709
 Zr857 Zr 0.73980 0.75705 0.72143
 O858 O 0.75685 0.77553 0.73622
 Zr859 Zr 0.76864 0.74290 0.78000
 O860 O 0.75077 0.72452 0.76581
 Zr861 Zr 0.78284 0.76305 0.74079
 O862 O 0.76632 0.74522 0.72451
 Zr863 Zr 0.74644 0.77999 0.76320
 O864 O 0.72787 0.76362 0.74733
 O865 O 0.73543 0.73148 0.73441
 O866 O 0.77287 0.76886 0.76739
 C867 C 0.75005 0.72240 0.69743
 C868 C 0.72860 0.69538 0.75164
 C869 C 0.69861 0.74618 0.72715
 C870 C 0.76066 0.77717 0.80452
 C871 C 0.80922 0.75634 0.77467
 C872 C 0.77980 0.80483 0.75184
 H873 H 0.79213 0.73047 0.75518
 H874 H 0.75779 0.78727 0.72901
 H875 H 0.72728 0.72321 0.72711
 H876 H 0.73605 0.75616 0.78935
 H877 H 0.75252 0.71916 0.80171
 H878 H 0.72278 0.72576 0.79449
 H879 H 0.78342 0.78428 0.71130
 H880 H 0.76218 0.76555 0.69473
 H881 H 0.78962 0.71988 0.79902
 H882 H 0.77432 0.68659 0.74696
 H883 H 0.73493 0.80557 0.74028
 H884 H 0.71881 0.78615 0.72054
 H885 H 0.79045 0.71969 0.71774
 H886 H 0.80985 0.74096 0.73154
 H887 H 0.69985 0.76185 0.76904
 H888 H 0.71950 0.78300 0.78694
 O889 O 0.25062 0.21523 0.79460
 O890 O 0.22080 0.21104 0.78313
 O891 O 0.28617 0.20703 0.74837
 O892 O 0.29001 0.21880 0.71979
 O893 O 0.29319 0.25541 0.78319
 O894 O 0.27714 0.28408 0.78593
 O895 O 0.23363 0.25299 0.69831
 O896 O 0.24529 0.22334 0.69912
 O897 O 0.19684 0.25771 0.74337
 O898 O 0.19877 0.25266 0.77669
 O899 O 0.23817 0.29912 0.73463
 O900 O 0.27093 0.30097 0.74048
 O901 O 0.24787 0.27994 0.70629
 O902 O 0.28008 0.28536 0.71939
 O903 O 0.21349 0.28870 0.75117
 O904 O 0.21223 0.27573 0.78371
 O905 O 0.20676 0.24220 0.71776
 O906 O 0.22193 0.21104 0.71958
 O907 O 0.26446 0.24224 0.80316
 O908 O 0.25439 0.27443 0.80109
 O909 O 0.30329 0.23965 0.75779
 O910 O 0.29986 0.24619 0.72413
 O911 O 0.26176 0.19678 0.76549
 O912 O 0.22889 0.19629 0.75627
 Zr913 Zr 0.24354 0.21961 0.76658
 O914 O 0.22429 0.23418 0.74991
 Zr915 Zr 0.27924 0.23491 0.74180
 O916 O 0.26133 0.24958 0.72359
 Zr917 Zr 0.26458 0.25868 0.77853
 O918 O 0.24656 0.27492 0.76179
 Zr919 Zr 0.23507 0.23717 0.72295
 O920 O 0.25378 0.22092 0.73914
 Zr921 Zr 0.22090 0.26147 0.75951
 O922 O 0.23838 0.24612 0.77780
 Zr923 Zr 0.25643 0.27626 0.73425
 O924 O 0.27584 0.26222 0.75166
 O925 O 0.26946 0.23199 0.76881
 O926 O 0.23033 0.26421 0.73223
 C927 C 0.25840 0.22573 0.80669
 C928 C 0.27750 0.19431 0.75756
 C929 C 0.30609 0.24812 0.77326
 C930 C 0.23938 0.26950 0.69457
 C931 C 0.19402 0.24987 0.72759
 C932 C 0.22205 0.30134 0.74184
 H933 H 0.21250 0.22724 0.74982
 H934 H 0.24531 0.28744 0.76727
 H935 H 0.27822 0.22487 0.77681
 H936 H 0.26679 0.25002 0.71097
 H937 H 0.25175 0.21199 0.70368
 H938 H 0.28132 0.22031 0.70922
 H939 H 0.22017 0.28681 0.78514
 H940 H 0.24220 0.26911 0.80442
 H941 H 0.21493 0.21142 0.70767
 H942 H 0.23112 0.18547 0.76469
 H943 H 0.26707 0.30492 0.75306
 H944 H 0.28444 0.28815 0.77497
 H945 H 0.21699 0.22188 0.79066
 H946 H 0.19578 0.23971 0.77326
 H947 H 0.30288 0.25867 0.72900
 H948 H 0.28178 0.27710 0.70857
 O949 O 0.25007 0.69681 0.23552
 O950 O 0.22043 0.69985 0.24782
 O951 O 0.25389 0.74247 0.19651
 O952 O 0.25343 0.77321 0.19659
 O953 O 0.29843 0.73208 0.23769
 O954 O 0.30115 0.73790 0.27001
 O955 O 0.21783 0.79504 0.25186
 O956 O 0.21269 0.78446 0.22193
 O957 O 0.20939 0.75098 0.28849
 O958 O 0.22056 0.71931 0.29137
 O959 O 0.25908 0.78197 0.29274
 O960 O 0.28751 0.78382 0.27490
 O961 O 0.24548 0.80174 0.26544
 O962 O 0.27789 0.79866 0.25339
 O963 O 0.24122 0.75848 0.30393
 O964 O 0.24587 0.72387 0.30187
 O965 O 0.19932 0.76864 0.26405
 O966 O 0.19615 0.75704 0.23184
 O967 O 0.27769 0.70363 0.24914
 O968 O 0.28473 0.71607 0.27964
 O969 O 0.28798 0.74891 0.21284
 O970 O 0.27617 0.78156 0.21263
 O971 O 0.23786 0.71760 0.20762
 O972 O 0.20855 0.71928 0.22532
 Zr973 Zr 0.23563 0.72238 0.23645
 O974 O 0.22143 0.73976 0.25522
 Zr975 Zr 0.26108 0.75757 0.22049
 O976 O 0.24748 0.77644 0.23818
 Zr977 Zr 0.27596 0.73195 0.25626
 O978 O 0.26354 0.75000 0.27559
 Zr979 Zr 0.22077 0.76700 0.24448
 O980 O 0.23341 0.74935 0.22472
 Zr981 Zr 0.23604 0.74181 0.28043
 O982 O 0.24917 0.72249 0.26250
 Zr983 Zr 0.26117 0.77690 0.26402
 O984 O 0.27598 0.75935 0.24564
 O985 O 0.26266 0.73050 0.23062
 O986 O 0.23416 0.76895 0.27020
 C987 C 0.26642 0.69231 0.24124
 C988 C 0.24486 0.72726 0.19425
 C989 C 0.30064 0.73960 0.22155
 C990 C 0.22901 0.80622 0.26003
 C991 C 0.19715 0.76125 0.28024
 C992 C 0.25088 0.77329 0.30607
 H993 H 0.20875 0.73495 0.25710
 H994 H 0.27106 0.74985 0.28712
 H995 H 0.26894 0.72217 0.22168
 H996 H 0.24694 0.78887 0.23219
 H997 H 0.21366 0.77686 0.21052
 H998 H 0.24287 0.78117 0.20027
 H999 H 0.25825 0.72830 0.30570
 H1000 H 0.27407 0.70832 0.28345
 H1001 H 0.18637 0.76668 0.23327
 H1002 H 0.20823 0.70784 0.21768
 H1003 H 0.29120 0.77381 0.28372
 H1004 H 0.30475 0.75059 0.26598
 H1005 H 0.22566 0.69721 0.26033
 H1006 H 0.21072 0.71640 0.28225
 H1007 H 0.28681 0.78243 0.22131
 H1008 H 0.27124 0.80455 0.24280
 O1009 O 0.20069 0.73304 0.75332
 O1010 O 0.20261 0.74421 0.72313
 O1011 O 0.24515 0.69245 0.75645
 O1012 O 0.27566 0.69154 0.75517
 O1013 O 0.23782 0.73451 0.80022
 O1014 O 0.24544 0.76640 0.80213
 O1015 O 0.29711 0.74529 0.71618
 O1016 O 0.28537 0.71585 0.71231
 O1017 O 0.25470 0.78340 0.70903
 O1018 O 0.22386 0.78755 0.72100
 O1019 O 0.28764 0.78727 0.75774
 O1020 O 0.29129 0.77000 0.78570
 O1021 O 0.30579 0.75926 0.74312
 O1022 O 0.30377 0.74707 0.77646
 O1023 O 0.26379 0.79894 0.74042
 O1024 O 0.22945 0.79778 0.74625
 O1025 O 0.27009 0.75805 0.69825
 O1026 O 0.25742 0.72613 0.69688
 O1027 O 0.20928 0.74728 0.78016
 O1028 O 0.22364 0.77699 0.78629
 O1029 O 0.25347 0.70906 0.79006
 O1030 O 0.28566 0.70793 0.77672
 O1031 O 0.21983 0.70405 0.74131
 O1032 O 0.22068 0.72109 0.71112
 Zr1033 Zr 0.22545 0.73262 0.73784
 O1034 O 0.24255 0.75063 0.72228
 Zr1035 Zr 0.26117 0.71604 0.76244
 O1036 O 0.27978 0.73277 0.74723
 Zr1037 Zr 0.23773 0.75280 0.77731
 O1038 O 0.25577 0.77118 0.76356
 Zr1039 Zr 0.26918 0.73898 0.72063
 O1040 O 0.25174 0.72002 0.73484
 Zr1041 Zr 0.24634 0.77590 0.73619
 O1042 O 0.22716 0.75885 0.75064
 Zr1043 Zr 0.28199 0.75872 0.76023
 O1044 O 0.26461 0.74133 0.77654
 O1045 O 0.23466 0.72704 0.76483
 O1046 O 0.27285 0.76478 0.73328
 C1047 C 0.19713 0.73970 0.76953
 C1048 C 0.22944 0.69053 0.74822
 C1049 C 0.24480 0.71821 0.80274
 C1050 C 0.30914 0.75330 0.72658
 C1051 C 0.26357 0.77461 0.69626
 C1052 C 0.27887 0.80076 0.74978
 H1053 H 0.23715 0.75250 0.70972
 H1054 H 0.25637 0.78275 0.77088
 H1055 H 0.22627 0.71857 0.77171
 H1056 H 0.29188 0.72635 0.74628
 H1057 H 0.27758 0.70468 0.71416
 H1058 H 0.28245 0.69445 0.74357
 H1059 H 0.23473 0.80187 0.75826
 H1060 H 0.21540 0.78095 0.77593
 H1061 H 0.26642 0.72710 0.68650
 H1062 H 0.20913 0.71366 0.71154
 H1063 H 0.28110 0.77777 0.79064
 H1064 H 0.25793 0.76167 0.80550
 H1065 H 0.20104 0.75711 0.72760
 H1066 H 0.22003 0.77836 0.71159
 H1067 H 0.28698 0.71635 0.78748
 H1068 H 0.30965 0.73702 0.76918
 O1069 O 0.24710 0.21622 0.20813
 O1070 O 0.27615 0.21152 0.21993
 O1071 O 0.21258 0.21197 0.25783
 O1072 O 0.20784 0.22733 0.28387
 O1073 O 0.20443 0.25715 0.21687
 O1074 O 0.21991 0.28560 0.21165
 O1075 O 0.26434 0.25996 0.30113
 O1076 O 0.25398 0.23042 0.30252
 O1077 O 0.30138 0.26159 0.25471
 O1078 O 0.29935 0.25373 0.22248
 O1079 O 0.26092 0.30390 0.26022
 O1080 O 0.22891 0.30667 0.25526
 O1081 O 0.25041 0.28669 0.29100
 O1082 O 0.21860 0.29221 0.27676
 O1083 O 0.28441 0.29199 0.24297
 O1084 O 0.28509 0.27521 0.21244
 O1085 O 0.29192 0.24838 0.28191
 O1086 O 0.27720 0.21719 0.28299
 O1087 O 0.23389 0.24319 0.19768
 O1088 O 0.24220 0.27543 0.19704
 O1089 O 0.19482 0.24355 0.24382
 O1090 O 0.19886 0.25363 0.27662
 O1091 O 0.23545 0.19987 0.23983
 O1092 O 0.26869 0.19954 0.24825
 Zr1093 Zr 0.25393 0.22218 0.23592
 O1094 O 0.27369 0.23765 0.25075
 Zr1095 Zr 0.21906 0.24033 0.25994
 O1096 O 0.23747 0.25586 0.27627
 Zr1097 Zr 0.23301 0.26081 0.22097
 O1098 O 0.25153 0.27785 0.23566
 Zr1099 Zr 0.26362 0.24297 0.27757
 O1100 O 0.24441 0.22601 0.26337
 Zr1101 Zr 0.27709 0.26407 0.23861
 O1102 O 0.25909 0.24773 0.22231
 Zr1103 Zr 0.24239 0.28160 0.26319
 O1104 O 0.22241 0.26674 0.24757
 O1105 O 0.22808 0.23491 0.23305
 O1106 O 0.26846 0.26921 0.26582
 C1107 C 0.24022 0.22663 0.19516
 C1108 C 0.22061 0.19833 0.24959
 C1109 C 0.19175 0.25075 0.22765
 C1110 C 0.25811 0.27653 0.30373
 C1111 C 0.30449 0.25507 0.27115
 C1112 C 0.27630 0.30545 0.25138
 H1113 H 0.28548 0.23059 0.25129
 H1114 H 0.25269 0.28982 0.22888
 H1115 H 0.21930 0.22722 0.22584
 H1116 H 0.23205 0.25720 0.28883
 H1117 H 0.24739 0.21896 0.29888
 H1118 H 0.21769 0.22742 0.29345
 H1119 H 0.27761 0.28658 0.21009
 H1120 H 0.25443 0.27011 0.19373
 H1121 H 0.28447 0.21840 0.29467
 H1122 H 0.26593 0.18802 0.24126
 H1123 H 0.23084 0.30836 0.24172
 H1124 H 0.21266 0.29035 0.22231
 H1125 H 0.28089 0.22199 0.21229
 H1126 H 0.30219 0.24097 0.22695
 H1127 H 0.19521 0.26526 0.27006
 H1128 H 0.21662 0.28471 0.28820
 O1129 O 0.74784 0.71931 0.29675
 O1130 O 0.71815 0.71530 0.28483
 O1131 O 0.78375 0.71037 0.25063
 O1132 O 0.78771 0.72193 0.22197
 O1133 O 0.79132 0.75882 0.28522
 O1134 O 0.77542 0.78771 0.28782
 O1135 O 0.73219 0.75716 0.20003
 O1136 O 0.74358 0.72728 0.20097
 O1137 O 0.69506 0.76199 0.24491
 O1138 O 0.69696 0.75691 0.27846
 O1139 O 0.73696 0.80302 0.23645
 O1140 O 0.76985 0.80441 0.24282
 O1141 O 0.74688 0.78376 0.20831
 O1142 O 0.77878 0.78900 0.22158
 O1143 O 0.71197 0.79282 0.25266
 O1144 O 0.71021 0.78018 0.28513
 O1145 O 0.70503 0.74651 0.21930
 O1146 O 0.71981 0.71525 0.22117
 O1147 O 0.76226 0.74606 0.30515
 O1148 O 0.75272 0.77818 0.30310
 O1149 O 0.80122 0.74265 0.26001
 O1150 O 0.79818 0.74923 0.22645
 O1151 O 0.75914 0.70046 0.26765
 O1152 O 0.72638 0.70033 0.25818
 Zr1153 Zr 0.74119 0.72353 0.26853
 O1154 O 0.72226 0.73830 0.25161
 Zr1155 Zr 0.77720 0.73829 0.24392
 O1156 O 0.75965 0.75327 0.22561
 Zr1157 Zr 0.76270 0.76236 0.28050
 O1158 O 0.74489 0.77877 0.26371
 Zr1159 Zr 0.73325 0.74120 0.22470
 O1160 O 0.75158 0.72469 0.24111
 Zr1161 Zr 0.71909 0.76560 0.26120
 O1162 O 0.73633 0.75014 0.27962
 Zr1163 Zr 0.75501 0.77999 0.23629
 O1164 O 0.77417 0.76566 0.25373
 O1165 O 0.76726 0.73557 0.27089
 O1166 O 0.72877 0.76828 0.23401
 C1167 C 0.75571 0.72979 0.30883
 C1168 C 0.77489 0.69779 0.25980
 C1169 C 0.80413 0.75124 0.27539
 C1170 C 0.73834 0.77357 0.19643
 C1171 C 0.69227 0.75420 0.22909
 C1172 C 0.72076 0.80536 0.24341
 H1173 H 0.71040 0.73147 0.25144
 H1174 H 0.74372 0.79129 0.26918
 H1175 H 0.77586 0.72836 0.27900
 H1176 H 0.76523 0.75367 0.21304
 H1177 H 0.74979 0.71581 0.20559
 H1178 H 0.77939 0.72399 0.21118
 H1179 H 0.71845 0.79100 0.28677
 H1180 H 0.74024 0.77333 0.30607
 H1181 H 0.71300 0.71570 0.20915
 H1182 H 0.72838 0.68952 0.26667
 H1183 H 0.76554 0.80871 0.25514
 H1184 H 0.78292 0.79160 0.27693
 H1185 H 0.71442 0.72619 0.29232
 H1186 H 0.69351 0.74418 0.27468
 H1187 H 0.80121 0.76173 0.23122
 H1188 H 0.78075 0.78048 0.21101
 O1189 O 0.76039 0.28148 0.79105
 O1190 O 0.78794 0.28292 0.77535
 O1191 O 0.72011 0.29485 0.74794
 O1192 O 0.71167 0.28361 0.72037
 O1193 O 0.71039 0.24888 0.78533
 O1194 O 0.72213 0.21805 0.78732
 O1195 O 0.75907 0.24268 0.69424
 O1196 O 0.75285 0.27373 0.69574
 O1197 O 0.80035 0.23197 0.73545
 O1198 O 0.80299 0.23799 0.76872
 O1199 O 0.75349 0.19724 0.73251
 O1200 O 0.72222 0.19918 0.74158
 O1201 O 0.74234 0.21791 0.70455
 O1202 O 0.71171 0.21688 0.72241
 O1203 O 0.78097 0.20429 0.74612
 O1204 O 0.78728 0.21703 0.77802
 O1205 O 0.78992 0.24854 0.71043
 O1206 O 0.78017 0.28169 0.71274
 O1207 O 0.74340 0.25700 0.80172
 O1208 O 0.74772 0.22372 0.79940
 O1209 O 0.70021 0.26606 0.76062
 O1210 O 0.69852 0.25805 0.72723
 O1211 O 0.74687 0.30208 0.76288
 O1212 O 0.77835 0.29808 0.74914
 Zr1213 Zr 0.76235 0.27699 0.76223
 O1214 O 0.77747 0.25969 0.74414
 Zr1215 Zr 0.72252 0.26645 0.74189
 O1216 O 0.73604 0.24942 0.72243
 Zr1217 Zr 0.73758 0.24111 0.77771
 O1218 O 0.75126 0.22245 0.75973
 Zr1219 Zr 0.76350 0.25809 0.71854
 O1220 O 0.74910 0.27687 0.73603
 Zr1221 Zr 0.77809 0.23221 0.75428
 O1222 O 0.76501 0.24996 0.77367
 Zr1223 Zr 0.73836 0.22233 0.73340
 O1224 O 0.72308 0.23899 0.75230
 O1225 O 0.73547 0.26821 0.76767
 O1226 O 0.76546 0.23067 0.72820
 C1227 C 0.75286 0.27195 0.80424
 C1228 C 0.73082 0.30639 0.75623
 C1229 C 0.69783 0.25835 0.77664
 C1230 C 0.75033 0.22738 0.69155
 C1231 C 0.80243 0.23901 0.71908
 C1232 C 0.76992 0.19294 0.73804
 H1233 H 0.79006 0.26480 0.74250
 H1234 H 0.75144 0.20990 0.76548
 H1235 H 0.72892 0.27647 0.77649
 H1236 H 0.72904 0.24981 0.71057
 H1237 H 0.74868 0.28583 0.70079
 H1238 H 0.71884 0.28079 0.70902
 H1239 H 0.77842 0.20681 0.78032
 H1240 H 0.76092 0.22695 0.80115
 H1241 H 0.78560 0.28016 0.70016
 H1242 H 0.77822 0.30933 0.75707
 H1243 H 0.72566 0.19604 0.75458
 H1244 H 0.71313 0.21515 0.77734
 H1245 H 0.79200 0.27133 0.78175
 H1246 H 0.80796 0.24980 0.76367
 H1247 H 0.69403 0.24654 0.73336
 H1248 H 0.70980 0.22513 0.71145
 C1249 C 0.08707 0.99450 1.18495
 C1250 C 0.09579 0.97832 1.19188
 C1251 C 0.10586 0.97868 1.20853
 C1252 C 0.10766 0.99534 1.21857
 C1253 C 0.09753 1.01104 1.21240
 C1254 C 0.08770 1.01075 1.19566
 C1255 C 0.07791 0.99467 1.16637
 C1256 C 0.06203 1.00563 1.16304
 C1257 C 0.05423 1.00676 1.14524
 C1258 C 0.06194 0.99674 1.13038
 C1259 C 0.07755 0.98543 1.13382
 C1260 C 0.08551 0.98451 1.15156
 C1261 C 0.05376 0.99809 1.11138
 C1262 C 0.06514 0.99761 1.09548
 C1263 C 0.05740 0.99836 1.07763
 C1264 C 0.03814 0.99990 1.07529
 C1265 C 0.02678 1.00078 1.09112
 C1266 C 0.03448 0.99974 1.10896
 H1267 H 0.09489 0.96533 1.18440
 H1268 H 0.11212 0.96585 1.21340
 H1269 H 0.09759 1.02381 1.22029
 H1270 H 0.08109 1.02348 1.19088
 H1271 H 0.05562 1.01342 1.17416
 H1272 H 0.04233 1.01577 1.14308
 H1273 H 0.08366 0.97724 1.12281
 H1274 H 0.09788 0.97612 1.15353
 H1275 H 0.08007 0.99677 1.09681
 H1276 H 0.06650 0.99781 1.06566
 H1277 H 0.01186 1.00175 1.08974
 H1278 H 0.02527 0.99982 1.12083
 C1279 C 0.58828 0.50228 0.68163
 C1280 C 0.60690 0.49665 0.68267
 C1281 C 0.61602 0.49574 0.69980
 C1282 C 0.60672 0.50014 0.71643
 C1283 C 0.58810 0.50607 0.71529
 C1284 C 0.57898 0.50702 0.69810
 C1285 C 0.57882 0.50358 0.66332
 C1286 C 0.56731 0.51884 0.65891
 C1287 C 0.55897 0.52032 0.64135
 C1288 C 0.56201 0.50657 0.62788
 C1289 C 0.57331 0.49119 0.63241
 C1290 C 0.58164 0.48972 0.64992
 C1291 C 0.55342 0.50810 0.60915
 C1292 C 0.56355 0.50313 0.59324
 C1293 C 0.55520 0.50339 0.57570
 C1294 C 0.53651 0.50867 0.57364
 C1295 C 0.52655 0.51427 0.58947
 C1296 C 0.53493 0.51398 0.60705
 H1297 H 0.61457 0.49337 0.67016
 H1298 H 0.63054 0.49186 0.70002
 H1299 H 0.58054 0.51049 0.72745
 H1300 H 0.56463 0.51148 0.69768
 H1301 H 0.56509 0.52985 0.66889
 H1302 H 0.55046 0.53240 0.63819
 H1303 H 0.57558 0.48018 0.62245
 H1304 H 0.59018 0.47765 0.65305
 H1305 H 0.57794 0.49891 0.59439
 H1306 H 0.56334 0.49918 0.56378
 H1307 H 0.51213 0.51838 0.58838
 H1308 H 0.52675 0.51778 0.61908
 C1309 C 0.41437 -0.00584 0.68272
 C1310 C 0.42020 0.00524 0.69763
 C1311 C 0.41083 0.00465 0.71464
 C1312 C 0.39559 -0.00726 0.71728
 C1313 C 0.38980 -0.01823 0.70218
 C1314 C 0.39924 -0.01774 0.68529
 C1315 C 0.42340 -0.00445 0.66425
 C1316 C 0.41263 -0.00475 0.64792
 C1317 C 0.42098 -0.00377 0.63046
 C1318 C 0.44030 -0.00229 0.62890
 C1319 C 0.45110 -0.00178 0.64522
 C1320 C 0.44273 -0.00285 0.66273
 C1321 C 0.44907 -0.00145 0.61026
 C1322 C 0.46568 -0.01109 0.60681
 C1323 C 0.47364 -0.01069 0.58910
 C1324 C 0.46510 -0.00072 0.57445
 C1325 C 0.44854 0.00899 0.57794
 C1326 C 0.44065 0.00868 0.59567
 H1327 H 0.43157 0.01487 0.69593
 H1328 H 0.41518 0.01393 0.72560
 H1329 H 0.37758 -0.02679 0.70295
 H1330 H 0.39445 -0.02650 0.67408
 H1331 H 0.39767 -0.00564 0.64862
 H1332 H 0.41229 -0.00443 0.61817
 H1333 H 0.46602 -0.00042 0.64445
 H1334 H 0.45139 -0.00269 0.67507
 H1335 H 0.47234 -0.01925 0.61770
 H1336 H 0.48637 -0.01838 0.58684
 H1337 H 0.44171 0.01696 0.56701
 H1338 H 0.42802 0.01652 0.59798
 C1339 C -0.08933 0.49642 1.17630
 C1340 C -0.07945 0.49338 1.19294
 C1341 C -0.08825 0.49506 1.21017
 C1342 C -0.10713 0.50008 1.21113
 C1343 C -0.11692 0.50301 1.19436
 C1344 C -0.10812 0.50136 1.17721
 C1345 C -0.08022 0.49419 1.15799
 C1346 C -0.08964 0.48556 1.14328
 C1347 C -0.08145 0.48415 1.12576
 C1348 C -0.06366 0.49129 1.12262
 C1349 C -0.05405 0.49955 1.13743
 C1350 C -0.06226 0.50100 1.15496
 C1351 C -0.05538 0.49061 1.10381
 C1352 C -0.03665 0.48585 1.10149
 C1353 C -0.02877 0.48572 1.08375
 C1354 C -0.03947 0.49045 1.06797
 C1355 C -0.05827 0.49503 1.07032
 C1356 C -0.06614 0.49508 1.08805
 H1357 H -0.06502 0.48919 1.19261
 H1358 H -0.08025 0.49184 1.22250
 H1359 H -0.13156 0.50641 1.19453
 H1360 H -0.11606 0.50395 1.16462
 H1361 H -0.10334 0.47984 1.14532
 H1362 H -0.08902 0.47743 1.11467
 H1363 H -0.04039 0.50535 1.13531
 H1364 H -0.05477 0.50789 1.16599
 H1365 H -0.02811 0.48216 1.11341
 H1366 H -0.01425 0.48211 1.08244
 H1367 H -0.06690 0.49873 1.05848
 H1368 H -0.08058 0.49900 1.08948
 C1369 C -0.09517 0.50479 0.31892
 C1370 C -0.11143 0.49464 0.31555
 C1371 C -0.11869 0.49339 0.29751
 C1372 C -0.10983 0.50224 0.28248
 C1373 C -0.09366 0.51249 0.28588
 C1374 C -0.08640 0.51371 0.30387
 C1375 C -0.08715 0.50583 0.33798
 C1376 C -0.07917 0.52242 0.34435
 C1377 C -0.07085 0.52315 0.36193
 C1378 C -0.07041 0.50734 0.37357
 C1379 C -0.07868 0.49085 0.36736
 C1380 C -0.08694 0.49009 0.34975
 C1381 C -0.06089 0.50783 0.39191
 C1382 C -0.06870 0.49903 0.40756
 C1383 C -0.05927 0.49863 0.42459
 C1384 C -0.04175 0.50694 0.42634
 C1385 C -0.03413 0.51610 0.41076
 C1386 C -0.04361 0.51656 0.39375
 H1387 H -0.11862 0.48775 0.32687
 H1388 H -0.13108 0.48527 0.29531
 H1389 H -0.08668 0.51976 0.27467
 H1390 H -0.07374 0.52145 0.30594
 H1391 H -0.07940 0.53488 0.33575
 H1392 H -0.06482 0.53612 0.36646
 H1393 H -0.07832 0.47836 0.37592
 H1394 H -0.09271 0.47703 0.34516
 H1395 H -0.08210 0.49241 0.40662
 H1396 H -0.06561 0.49152 0.43629
 H1397 H -0.02069 0.52267 0.41160
 H1398 H -0.03717 0.52330 0.38189
 C1399 C 0.40717 1.00386 -0.17713
 C1400 C 0.38881 0.99793 -0.17925
 C1401 C 0.38105 0.99590 -0.19697
 C1402 C 0.39148 0.99970 -0.21319
 C1403 C 0.40999 1.00555 -0.21087
 C1404 C 0.41766 1.00765 -0.19313
 C1405 C 0.41547 1.00584 -0.15831
 C1406 C 0.42690 1.02105 -0.15420
 C1407 C 0.43513 1.02262 -0.13664
 C1408 C 0.43216 1.00898 -0.12281
 C1409 C 0.42056 0.99389 -0.12687
 C1410 C 0.41229 0.99235 -0.14441
 C1411 C 0.44157 1.01014 -0.10441
 C1412 C 0.43231 1.00489 -0.08800
 C1413 C 0.44153 1.00487 -0.07085
 C1414 C 0.46024 1.01014 -0.06971
 C1415 C 0.46933 1.01591 -0.08606
 C1416 C 0.46012 1.01588 -0.10321
 H1417 H 0.38037 0.99491 -0.16714
 H1418 H 0.36708 0.99066 -0.19764
 H1419 H 0.41859 1.00915 -0.22266
 H1420 H 0.43192 1.01210 -0.19195
 H1421 H 0.42936 1.03181 -0.16455
 H1422 H 0.44376 1.03456 -0.13386
 H1423 H 0.41825 0.98298 -0.11664
 H1424 H 0.40378 0.98034 -0.14725
 H1425 H 0.41792 1.00071 -0.08842
 H1426 H 0.43403 1.00049 -0.05853
 H1427 H 0.48374 1.02001 -0.08572
 H1428 H 0.46771 1.01981 -0.11562
 C1429 C 0.59287 0.50233 -0.17691
 C1430 C 0.58540 0.51316 -0.19153
 C1431 C 0.59360 0.51319 -0.20911
 C1432 C 0.60956 0.50249 -0.21249
 C1433 C 0.61743 0.49210 -0.19780
 C1434 C 0.60913 0.49196 -0.18018
 C1435 C 0.58344 0.50162 -0.15850
 C1436 C 0.59369 0.50111 -0.14181
 C1437 C 0.58467 0.50070 -0.12457
 C1438 C 0.56520 0.50082 -0.12361
 C1439 C 0.55499 0.50122 -0.14031
 C1440 C 0.56398 0.50155 -0.15751
 C1441 C 0.55552 0.50074 -0.10532
 C1442 C 0.53905 0.49065 -0.10285
 C1443 C 0.52964 0.49101 -0.08586
 C1444 C 0.53653 0.50136 -0.07085
 C1445 C 0.55312 0.51127 -0.07324
 C1446 C 0.56247 0.51101 -0.09028
 H1447 H 0.57318 0.52169 -0.18938
 H1448 H 0.58745 0.52163 -0.22010
 H1449 H 0.62964 0.48360 -0.20009
 H1450 H 0.61514 0.48332 -0.16929
 H1451 H 0.60868 0.50130 -0.14207
 H1452 H 0.59297 0.50016 -0.11198
 H1453 H 0.53999 0.50156 -0.14011
 H1454 H 0.55565 0.50163 -0.17007
 H1455 H 0.53348 0.48233 -0.11403
 H1456 H 0.51701 0.48305 -0.08446
 H1457 H 0.55880 0.51944 -0.06199
 H1458 H 0.57496 0.51916 -0.09177
 C1459 C 0.09282 -0.00478 0.32421
 C1460 C 0.10851 0.00627 0.32083
 C1461 C 0.11695 0.00647 0.30330
 C1462 C 0.10994 -0.00441 0.28876
 C1463 C 0.09445 -0.01570 0.29222
 C1464 C 0.08597 -0.01585 0.30970
 C1465 C 0.08338 -0.00450 0.34262
 C1466 C 0.07582 -0.02086 0.35031
 C1467 C 0.06650 -0.02047 0.36736
 C1468 C 0.06462 -0.00374 0.37719
 C1469 C 0.07230 0.01258 0.36962
 C1470 C 0.08152 0.01222 0.35252
 C1471 C 0.05468 -0.00329 0.39527
 C1472 C 0.06187 0.00679 0.41030
 C1473 C 0.05254 0.00722 0.42734
 C1474 C 0.03572 -0.00231 0.42971
 C1475 C 0.02850 -0.01234 0.41462
 C1476 C 0.03791 -0.01289 0.39762
 H1477 H 0.11429 0.01478 0.33175
 H1478 H 0.12869 0.01551 0.30107
 H1479 H 0.08885 -0.02447 0.28141
 H1480 H 0.07380 -0.02437 0.31173
 H1481 H 0.07727 -0.03403 0.34323
 H1482 H 0.06097 -0.03331 0.37300
 H1483 H 0.07085 0.02571 0.37677
 H1484 H 0.08686 0.02513 0.34686
 H1485 H 0.07485 0.01415 0.40895
 H1486 H 0.05852 0.01508 0.43864
 H1487 H 0.01561 -0.01988 0.41597
 H1488 H 0.03196 -0.02062 0.38621
 C1489 C 0.18265 1.08236 1.00788
 C1490 C 0.19937 1.07357 1.01296
 C1491 C 0.21622 1.08300 1.01131
 C1492 C 0.21668 1.10137 1.00429
 C1493 C 0.19986 1.10994 0.99904
 C1494 C 0.18312 1.10056 1.00070
 C1495 C 0.16463 1.07286 1.01025
 C1496 C 0.14923 1.08276 1.01699
 C1497 C 0.13190 1.07435 1.01805
 C1498 C 0.12958 1.05585 1.01245
 C1499 C 0.14510 1.04571 1.00631
 C1500 C 0.16248 1.05414 1.00523
 C1501 C 0.11089 1.04746 1.01225
 C1502 C 0.10818 1.02903 1.01828
 C1503 C 0.09060 1.02105 1.01749
 C1504 C 0.07538 1.03129 1.01053
 C1505 C 0.07809 1.04981 1.00471
 C1506 C 0.09564 1.05779 1.00558
 H1507 H 0.19935 1.05960 1.01875
 H1508 H 0.22860 1.07595 1.01610
 H1509 H 0.19963 1.12417 0.99392
 H1510 H 0.17050 1.10761 0.99641
 H1511 H 0.15058 1.09708 1.02137
 H1512 H 0.12026 1.08237 1.02319
 H1513 H 0.14366 1.03146 1.00174
 H1514 H 0.17409 1.04624 0.99987
 H1515 H 0.11967 1.02083 1.02366
 H1516 H 0.08899 1.00676 1.02212
 H1517 H 0.06670 1.05811 0.99928
 H1518 H 0.09737 1.07195 1.00061
 C1519 C 0.67867 0.58714 0.50338
 C1520 C 0.68071 0.60563 0.50914
 C1521 C 0.69801 0.61407 0.50889
 C1522 C 0.71396 0.60414 0.50350
 C1523 C 0.71190 0.58566 0.49750
 C1524 C 0.69445 0.57725 0.49751
 C1525 C 0.66006 0.57842 0.50335
 C1526 C 0.65785 0.55961 0.50833
 C1527 C 0.64023 0.55165 0.50876
 C1528 C 0.62441 0.56237 0.50439
 C1529 C 0.62667 0.58115 0.49934
 C1530 C 0.64427 0.58903 0.49867
 C1531 C 0.60564 0.55403 0.50503
 C1532 C 0.59204 0.55938 0.49193
 C1533 C 0.57442 0.55152 0.49245
 C1534 C 0.57007 0.53793 0.50589
 C1535 C 0.58358 0.53261 0.51905
 C1536 C 0.60113 0.54067 0.51870
 H1537 H 0.66894 0.61364 0.51395
 H1538 H 0.69892 0.62852 0.51296
 H1539 H 0.72350 0.57771 0.49233
 H1540 H 0.69326 0.56313 0.49252
 H1541 H 0.66969 0.55109 0.51218
 H1542 H 0.63904 0.53706 0.51241
 H1543 H 0.61481 0.58990 0.49611
 H1544 H 0.64547 0.60347 0.49443
 H1545 H 0.59511 0.56936 0.48100
 H1546 H 0.56435 0.55573 0.48200
 H1547 H 0.58055 0.52225 0.52966
 H1548 H 0.61113 0.53651 0.52923
 C1549 C 0.68110 0.42143 -0.00491
 C1550 C 0.69060 0.41764 0.01179
 C1551 C 0.70676 0.40686 0.01182
 C1552 C 0.71359 0.39901 -0.00483
 C1553 C 0.70513 0.40478 -0.02175
 C1554 C 0.68895 0.41552 -0.02174
 C1555 C 0.66257 0.43051 -0.00472
 C1556 C 0.65730 0.44325 -0.01877
 C1557 C 0.63937 0.45068 -0.01921
 C1558 C 0.62631 0.44556 -0.00561
 C1559 C 0.63170 0.43308 0.00861
 C1560 C 0.64959 0.42563 0.00903
 C1561 C 0.60716 0.45318 -0.00620
 C1562 C 0.59195 0.44183 -0.00175
 C1563 C 0.57397 0.44916 -0.00169
 C1564 C 0.57080 0.46800 -0.00613
 C1565 C 0.58599 0.47924 -0.01094
 C1566 C 0.60395 0.47192 -0.01094
 H1567 H 0.68533 0.42272 0.02493
 H1568 H 0.71353 0.40407 0.02504
 H1569 H 0.71064 0.40071 -0.03513
 H1570 H 0.68220 0.41853 -0.03492
 H1571 H 0.66702 0.44741 -0.02947
 H1572 H 0.63561 0.46017 -0.03042
 H1573 H 0.62206 0.42908 0.01945
 H1574 H 0.65312 0.41566 0.01989
 H1575 H 0.59394 0.42724 0.00164
 H1576 H 0.56259 0.44008 0.00196
 H1577 H 0.58409 0.49384 -0.01438
 H1578 H 0.61537 0.48107 -0.01423
 C1579 C 0.17929 -0.08562 0.49636
 C1580 C 0.18089 -0.10453 0.50116
 C1581 C 0.19824 -0.11306 0.50236
 C1582 C 0.21457 -0.10293 0.49906
 C1583 C 0.21295 -0.08394 0.49420
 C1584 C 0.19550 -0.07539 0.49297
 C1585 C 0.16072 -0.07676 0.49477
 C1586 C 0.15757 -0.05873 0.50155
 C1587 C 0.13988 -0.05075 0.50069
 C1588 C 0.12496 -0.06063 0.49306
 C1589 C 0.12817 -0.07852 0.48600
 C1590 C 0.14585 -0.08648 0.48680
 C1591 C 0.10604 -0.05247 0.49284
 C1592 C 0.09065 -0.06339 0.49765
 C1593 C 0.07290 -0.05556 0.49816
 C1594 C 0.07013 -0.03662 0.49381
 C1595 C 0.08552 -0.02581 0.48864
 C1596 C 0.10326 -0.03364 0.48821
 H1597 H 0.16870 -0.11276 0.50408
 H1598 H 0.19892 -0.12777 0.50576
 H1599 H 0.22491 -0.07564 0.49084
 H1600 H 0.19468 -0.06086 0.48890
 H1601 H 0.16869 -0.05098 0.50796
 H1602 H 0.13777 -0.03702 0.50645
 H1603 H 0.11701 -0.08633 0.47975
 H1604 H 0.14791 -0.10024 0.48111
 H1605 H 0.09239 -0.07792 0.50147
 H1606 H 0.06138 -0.06430 0.50218
 H1607 H 0.08392 -0.01119 0.48515
 H1608 H 0.11483 -0.02495 0.48421
 C1609 C 0.32139 -0.08873 0.50119
 C1610 C 0.31724 -0.10505 0.51131
 C1611 C 0.29961 -0.11298 0.51028
 C1612 C 0.28570 -0.10472 0.49922
 C1613 C 0.28984 -0.08852 0.48899
 C1614 C 0.30749 -0.08066 0.48991
 C1615 C 0.34004 -0.08003 0.50254
 C1616 C 0.34187 -0.06055 0.50262
 C1617 C 0.35934 -0.05233 0.50373
 C1618 C 0.37548 -0.06335 0.50489
 C1619 C 0.37366 -0.08283 0.50493
 C1620 C 0.35617 -0.09107 0.50374
 C1621 C 0.39409 -0.05451 0.50579
 C1622 C 0.40926 -0.06225 0.49627
 C1623 C 0.42657 -0.05357 0.49656
 C1624 C 0.42911 -0.03686 0.50629
 C1625 C 0.41402 -0.02927 0.51604
 C1626 C 0.39675 -0.03801 0.51584
 H1627 H 0.32750 -0.11147 0.52036
 H1628 H 0.29674 -0.12529 0.51856
 H1629 H 0.27946 -0.08201 0.48013
 H1630 H 0.31029 -0.06833 0.48163
 H1631 H 0.32976 -0.05161 0.50199
 H1632 H 0.36021 -0.03729 0.50340
 H1633 H 0.38575 -0.09176 0.50603
 H1634 H 0.35531 -0.10610 0.50352
 H1635 H 0.40767 -0.07478 0.48818
 H1636 H 0.43785 -0.05977 0.48881
 H1637 H 0.41550 -0.01651 0.52381
 H1638 H 0.38549 -0.03185 0.52363
 C1639 C -0.18193 0.40246 1.00070
 C1640 C -0.18552 0.38439 0.99439
 C1641 C -0.20369 0.37764 0.99360
 C1642 C -0.21889 0.38889 0.99893
 C1643 C -0.21503 0.40703 1.00526
 C1644 C -0.19691 0.41364 1.00616
 C1645 C -0.16273 0.40989 1.00135
 C1646 C -0.15693 0.42080 1.01642
 C1647 C -0.13934 0.42885 1.01654
 C1648 C -0.12709 0.42624 1.00157
 C1649 C -0.13269 0.41490 0.98671
 C1650 C -0.15030 0.40680 0.98662
 C1651 C -0.10884 0.43583 1.00121
 C1652 C -0.09291 0.42687 0.99436
 C1653 C -0.07587 0.43611 0.99379
 C1654 C -0.07436 0.45455 1.00004
 C1655 C -0.09030 0.46345 1.00696
 C1656 C -0.10729 0.45423 1.00752
 H1657 H -0.17424 0.37541 0.99009
 H1658 H -0.20560 0.36387 0.98802
 H1659 H -0.22589 0.41618 1.01014
 H1660 H -0.19464 0.42770 1.01095
 H1661 H -0.16604 0.42315 1.02815
 H1662 H -0.13534 0.43716 1.02839
 H1663 H -0.12369 0.41277 0.97486
 H1664 H -0.15443 0.39863 0.97472
 H1665 H -0.09357 0.41263 0.98958
 H1666 H -0.06390 0.42878 0.98842
 H1667 H -0.08973 0.47766 1.01183
 H1668 H -0.11932 0.46167 1.01259
 C1669 C -0.17927 0.58879 0.49817
 C1670 C -0.19315 0.58054 0.50916
 C1671 C -0.21086 0.58841 0.51002
 C1672 C -0.21509 0.60477 0.50002
 C1673 C -0.20122 0.61320 0.48922
 C1674 C -0.18350 0.60526 0.48825
 C1675 C -0.16053 0.58014 0.49701
 C1676 C -0.14452 0.59119 0.49644
 C1677 C -0.12693 0.58296 0.49555
 C1678 C -0.12494 0.56348 0.49525
 C1679 C -0.14097 0.55246 0.49577
 C1680 C -0.15852 0.56067 0.49657
 C1681 C -0.10627 0.55462 0.49458
 C1682 C -0.10331 0.53845 0.48408
 C1683 C -0.08599 0.52968 0.48398
 C1684 C -0.07114 0.53693 0.49429
 C1685 C -0.07397 0.55331 0.50450
 C1686 C -0.09135 0.56202 0.50469
 H1687 H -0.19026 0.56810 0.51730
 H1688 H -0.22117 0.58182 0.51877
 H1689 H -0.20417 0.62571 0.48120
 H1690 H -0.17323 0.61183 0.47945
 H1691 H -0.14555 0.60621 0.49694
 H1692 H -0.11490 0.59187 0.49496
 H1693 H -0.13996 0.53742 0.49582
 H1694 H -0.17056 0.55174 0.49672
 H1695 H -0.11438 0.53259 0.47583
 H1696 H -0.08425 0.51721 0.47579
 H1697 H -0.06284 0.55923 0.51264
 H1698 H -0.09320 0.57431 0.51312
 C1699 C 0.32347 1.09378 0.00673
 C1700 C 0.31013 1.08631 0.01890
 C1701 C 0.29216 1.09361 0.01930
 C1702 C 0.28715 1.10861 0.00763
 C1703 C 0.30060 1.11649 -0.00409
 C1704 C 0.31857 1.10913 -0.00456
 C1705 C 0.34218 1.08514 0.00536
 C1706 C 0.35806 1.09616 0.00305
 C1707 C 0.37558 1.08790 0.00143
 C1708 C 0.37760 1.06843 0.00206
 C1709 C 0.36171 1.05743 0.00442
 C1710 C 0.34423 1.06568 0.00601
 C1711 C 0.39617 1.05954 0.00043
 C1712 C 0.39843 1.04298 -0.00963
 C1713 C 0.41568 1.03413 -0.01048
 C1714 C 0.43114 1.04166 -0.00135
 C1715 C 0.42898 1.05845 0.00836
 C1716 C 0.41169 1.06727 0.00926
 H1717 H 0.31357 1.07474 0.02806
 H1718 H 0.28214 1.08745 0.02868
 H1719 H 0.29706 1.12787 -0.01346
 H1720 H 0.32843 1.11506 -0.01426
 H1721 H 0.35697 1.11120 0.00265
 H1722 H 0.38751 1.09676 -0.00053
 H1723 H 0.36280 1.04241 0.00523
 H1724 H 0.33227 1.05676 0.00749
 H1725 H 0.38683 1.03685 -0.01689
 H1726 H 0.41686 1.02131 -0.01823
 H1727 H 0.44057 1.06463 0.01560
 H1728 H 0.41039 1.07989 0.01729
 C1729 C 0.00211 1.17826 1.08570
 C1730 C -0.01520 1.18618 1.08990
 C1731 C -0.01637 1.20287 1.09967
 C1732 C -0.00022 1.21190 1.10578
 C1733 C 0.01705 1.20479 1.10004
 C1734 C 0.01823 1.18803 1.09043
 C1735 C 0.00337 1.15961 1.07703
 C1736 C 0.01721 1.15557 1.06390
 C1737 C 0.01879 1.13774 1.05642
 C1738 C 0.00650 1.12358 1.06183
 C1739 C -0.00745 1.12769 1.07481
 C1740 C -0.00895 1.14546 1.08237
 C1741 C 0.00800 1.10466 1.05379
 C1742 C 0.00458 1.08879 1.06483
 C1743 C 0.00504 1.07105 1.05703
 C1744 C 0.00910 1.06879 1.03804
 C1745 C 0.01303 1.08462 1.02712
 C1746 C 0.01242 1.10235 1.03489
 H1747 H -0.02790 1.17941 1.08572
 H1748 H -0.02998 1.20854 1.10242
 H1749 H 0.02978 1.21193 1.10337
 H1750 H 0.03181 1.18246 1.08724
 H1751 H 0.02680 1.16619 1.05934
 H1752 H 0.02979 1.13500 1.04658
 H1753 H -0.01733 1.11720 1.07905
 H1754 H -0.01959 1.14801 1.09266
 H1755 H 0.00151 1.09006 1.07953
 H1756 H 0.00210 1.05913 1.06585
 H1757 H 0.01610 1.08339 1.01242
 H1758 H 0.01489 1.11429 1.02594
 C1759 C 0.50428 0.68207 0.58681
 C1760 C 0.49871 0.69858 0.57766
 C1761 C 0.49908 0.71563 0.58695
 C1762 C 0.50513 0.71656 0.60560
 C1763 C 0.51036 0.69991 0.61471
 C1764 C 0.51027 0.68302 0.60539
 C1765 C 0.50345 0.66377 0.57735
 C1766 C 0.49846 0.64772 0.58745
 C1767 C 0.49836 0.63036 0.57897
 C1768 C 0.50286 0.62857 0.56002
 C1769 C 0.50755 0.64465 0.54978
 C1770 C 0.50791 0.66206 0.55837
 C1771 C 0.50267 0.60995 0.55116
 C1772 C 0.51581 0.60515 0.53753
 C1773 C 0.51580 0.58742 0.52963
 C1774 C 0.50284 0.57407 0.53542
 C1775 C 0.48970 0.57886 0.54897
 C1776 C 0.48950 0.59663 0.55660
 H1777 H 0.49360 0.69825 0.56348
 H1778 H 0.49408 0.72784 0.57959
 H1779 H 0.51448 0.69992 0.62923
 H1780 H 0.51490 0.67068 0.61284
 H1781 H 0.49457 0.64853 0.60198
 H1782 H 0.49497 0.61829 0.58739
 H1783 H 0.51085 0.64383 0.53511
 H1784 H 0.51195 0.67411 0.55022
 H1785 H 0.52632 0.61495 0.53320
 H1786 H 0.52612 0.58405 0.51924
 H1787 H 0.47934 0.56895 0.55346
 H1788 H 0.47888 0.59995 0.56669
 C1789 C 0.00141 0.68178 0.41288
 C1790 C 0.00801 0.68319 0.39455
 C1791 C 0.00827 0.70033 0.38534
 C1792 C 0.00221 0.71665 0.39425
 C1793 C -0.00449 0.71518 0.41263
 C1794 C -0.00478 0.69795 0.42186
 C1795 C 0.00031 0.66330 0.42214
 C1796 C -0.01544 0.65826 0.43247
 C1797 C -0.01696 0.64038 0.44012
 C1798 C -0.00277 0.62718 0.43757
 C1799 C 0.01314 0.63236 0.42759
 C1800 C 0.01466 0.65022 0.41997
 C1801 C -0.00448 0.60803 0.44519
 C1802 C 0.00125 0.59270 0.43461
 C1803 C 0.00052 0.57471 0.44206
 C1804 C -0.00593 0.57165 0.46030
 C1805 C -0.01216 0.58697 0.47069
 C1806 C -0.01146 0.60496 0.46320
 H1807 H 0.01241 0.67092 0.38708
 H1808 H 0.01280 0.70076 0.37097
 H1809 H -0.01008 0.72709 0.41982
 H1810 H -0.01000 0.69724 0.43598
 H1811 H -0.02684 0.66796 0.43415
 H1812 H -0.02944 0.63671 0.44762
 H1813 H 0.02447 0.62261 0.42575
 H1814 H 0.02710 0.65381 0.41235
 H1815 H 0.00637 0.59462 0.42055
 H1816 H 0.00533 0.56324 0.43362
 H1817 H -0.01722 0.58513 0.48478
 H1818 H -0.01587 0.61654 0.47171
 C1819 C 0.50113 1.18450 -0.08540
 C1820 C 0.50562 1.18534 -0.10439
 C1821 C 0.50585 1.20234 -0.11384
 C1822 C 0.50184 1.21907 -0.10458
 C1823 C 0.49712 1.21818 -0.08554
 C1824 C 0.49682 1.20107 -0.07607
 C1825 C 0.50058 1.16625 -0.07565
 C1826 C 0.48593 1.16180 -0.06357
 C1827 C 0.48488 1.14411 -0.05537
 C1828 C 0.49848 1.13056 -0.05908
 C1829 C 0.51334 1.13520 -0.07080
 C1830 C 0.51437 1.15284 -0.07900
 C1831 C 0.49718 1.11157 -0.05092
 C1832 C 0.50176 1.09595 -0.06165
 C1833 C 0.50134 1.07810 -0.05384
 C1834 C 0.49630 1.07545 -0.03509
 C1835 C 0.49128 1.09105 -0.02448
 C1836 C 0.49172 1.10892 -0.03232
 H1837 H 0.50857 1.17276 -0.11207
 H1838 H 0.50899 1.20242 -0.12860
 H1839 H 0.49328 1.23046 -0.07787
 H1840 H 0.49324 1.20079 -0.06142
 H1841 H 0.47500 1.17180 -0.06091
 H1842 H 0.47318 1.14087 -0.04651
 H1843 H 0.52425 1.12520 -0.07359
 H1844 H 0.52599 1.15600 -0.08800
 H1845 H 0.50567 1.09753 -0.07614
 H1846 H 0.50516 1.06641 -0.06247
 H1847 H 0.48735 1.08953 -0.00999
 H1848 H 0.48825 1.12071 -0.02367
 C1849 C 0.49983 0.32638 -0.09470
 C1850 C 0.50919 0.32240 -0.11134
 C1851 C 0.50843 0.30458 -0.11900
 C1852 C 0.49867 0.29027 -0.10993
 C1853 C 0.48900 0.29440 -0.09347
 C1854 C 0.48949 0.31229 -0.08600
 C1855 C 0.50105 0.34507 -0.08625
 C1856 C 0.48497 0.35426 -0.08015
 C1857 C 0.48613 0.37175 -0.07187
 C1858 C 0.50340 0.38026 -0.06925
 C1859 C 0.51950 0.37105 -0.07526
 C1860 C 0.51832 0.35368 -0.08384
 C1861 C 0.50451 0.39867 -0.06017
 C1862 C 0.51699 0.40170 -0.04545
 C1863 C 0.51715 0.41877 -0.03617
 C1864 C 0.50505 0.43322 -0.04166
 C1865 C 0.49299 0.43031 -0.05678
 C1866 C 0.49264 0.41319 -0.06583
 H1867 H 0.51708 0.33310 -0.11842
 H1868 H 0.51589 0.30196 -0.13176
 H1869 H 0.48106 0.28379 -0.08632
 H1870 H 0.48214 0.31501 -0.07315
 H1871 H 0.47150 0.34794 -0.08192
 H1872 H 0.47353 0.37851 -0.06723
 H1873 H 0.53296 0.37739 -0.07346
 H1874 H 0.53092 0.34680 -0.08829
 H1875 H 0.52623 0.39067 -0.04079
 H1876 H 0.52663 0.42059 -0.02462
 H1877 H 0.48344 0.44111 -0.06134
 H1878 H 0.48302 0.41125 -0.07725
 C1879 C -0.00214 -0.17657 0.40582
 C1880 C 0.00707 -0.18026 0.38903
 C1881 C 0.00628 -0.19795 0.38110
 C1882 C -0.00341 -0.21240 0.39002
 C1883 C -0.01289 -0.20859 0.40666
 C1884 C -0.01236 -0.19082 0.41441
 C1885 C -0.00085 -0.15801 0.41454
 C1886 C -0.01686 -0.14893 0.42093
 C1887 C -0.01563 -0.13152 0.42936
 C1888 C 0.00166 -0.12299 0.43182
 C1889 C 0.01770 -0.13211 0.42554
 C1890 C 0.01643 -0.14940 0.41682
 C1891 C 0.00287 -0.10464 0.44098
 C1892 C 0.01556 -0.10167 0.45552
 C1893 C 0.01591 -0.08462 0.46481
 C1894 C 0.00377 -0.07013 0.45951
 C1895 C -0.00853 -0.07299 0.44459
 C1896 C -0.00907 -0.09009 0.43553
 H1897 H 0.01489 -0.16944 0.38205
 H1898 H 0.01370 -0.20038 0.36827
 H1899 H -0.02068 -0.21937 0.41372
 H1900 H -0.01956 -0.18832 0.42739
 H1901 H -0.03035 -0.15526 0.41927
 H1902 H -0.02818 -0.12482 0.43421
 H1903 H 0.03117 -0.12577 0.42720
 H1904 H 0.02899 -0.15621 0.41213
 H1905 H 0.02485 -0.11272 0.46002
 H1906 H 0.02557 -0.08283 0.47622
 H1907 H -0.01811 -0.06215 0.44019
 H1908 H -0.01885 -0.09199 0.42424
 C1909 C 0.49940 -0.17587 0.59487
 C1910 C 0.49096 -0.19078 0.58566
 C1911 C 0.49178 -0.20876 0.59316
 C1912 C 0.50115 -0.21235 0.61004
 C1913 C 0.50925 -0.19738 0.61946
 C1914 C 0.50844 -0.17935 0.61193
 C1915 C 0.49910 -0.15689 0.58642
 C1916 C 0.51491 -0.14557 0.58697
 C1917 C 0.51490 -0.12809 0.57823
 C1918 C 0.49908 -0.12156 0.56870
 C1919 C 0.48317 -0.13274 0.56842
 C1920 C 0.48317 -0.15019 0.57719
 C1921 C 0.49925 -0.10330 0.55881
 C1922 C 0.49102 -0.10134 0.54113
 C1923 C 0.49117 -0.08421 0.53176
 C1924 C 0.49952 -0.06859 0.53986
 C1925 C 0.50778 -0.07057 0.55756
 C1926 C 0.50768 -0.08774 0.56690
 H1927 H 0.48401 -0.18863 0.57242
 H1928 H 0.48502 -0.21986 0.58570
 H1929 H 0.51658 -0.19956 0.63244
 H1930 H 0.51488 -0.16812 0.61950
 H1931 H 0.52749 -0.15043 0.59373
 H1932 H 0.52744 -0.11990 0.57850
 H1933 H 0.47066 -0.12795 0.56149
 H1934 H 0.47065 -0.15841 0.57680
 H1935 H 0.48465 -0.11314 0.53442
 H1936 H 0.48469 -0.08323 0.51816
 H1937 H 0.51429 -0.05884 0.56425
 H1938 H 0.51397 -0.08877 0.58059
 C1939 C 0.00105 0.31724 1.09028
 C1940 C -0.00861 0.31453 1.10708
 C1941 C -0.00866 0.29712 1.11593
 C1942 C 0.00073 0.28193 1.10809
 C1943 C 0.01084 0.28477 1.09158
 C1944 C 0.01102 0.30220 1.08281
 C1945 C 0.00048 0.33553 1.08040
 C1946 C -0.00040 0.33639 1.06082
 C1947 C -0.00105 0.35353 1.05149
 C1948 C -0.00097 0.37026 1.06148
 C1949 C -0.00016 0.36941 1.08106
 C1950 C 0.00061 0.35226 1.09040
 C1951 C -0.00165 0.38852 1.05154
 C1952 C 0.00863 0.40368 1.05811
 C1953 C 0.00792 0.42087 1.04889
 C1954 C -0.00299 0.42332 1.03278
 C1955 C -0.01318 0.40814 1.02611
 C1956 C -0.01257 0.39096 1.03543
 H1957 H -0.01657 0.32575 1.11315
 H1958 H -0.01651 0.29550 1.12861
 H1959 H 0.01871 0.27354 1.08543
 H1960 H 0.01904 0.30390 1.07018
 H1961 H -0.00080 0.32378 1.05268
 H1962 H -0.00143 0.35366 1.03640
 H1963 H -0.00032 0.38201 1.08922
 H1964 H 0.00146 0.35213 1.10546
 H1965 H 0.01745 0.40221 1.07026
 H1966 H 0.01605 0.43223 1.05434
 H1967 H -0.02183 0.40958 1.01383
 H1968 H -0.02089 0.37967 1.03015
 C1969 C 0.75223 0.32974 0.06371
 C1970 C 0.73945 0.34440 0.06253
 C1971 C 0.73690 0.35429 0.04600
 C1972 C 0.74699 0.34995 0.02969
 C1973 C 0.76026 0.33542 0.03104
 C1974 C 0.76284 0.32546 0.04787
 C1975 C 0.75420 0.31949 0.08174
 C1976 C 0.77169 0.31558 0.08957
 C1977 C 0.77315 0.30847 0.10783
 C1978 C 0.75715 0.30526 0.11855
 C1979 C 0.73973 0.30827 0.11031
 C1980 C 0.73828 0.31520 0.09215
 C1981 C 0.75833 0.29919 0.13839
 C1982 C 0.74684 0.30751 0.15181
 C1983 C 0.74674 0.30100 0.17023
 C1984 C 0.75802 0.28589 0.17568
 C1985 C 0.77001 0.27800 0.16239
 C1986 C 0.77023 0.28465 0.14398
 H1987 H 0.73156 0.34856 0.07464
 H1988 H 0.72738 0.36590 0.04662
 H1989 H 0.76836 0.33122 0.01915
 H1990 H 0.77287 0.31420 0.04841
 H1991 H 0.78420 0.31882 0.08193
 H1992 H 0.78677 0.30621 0.11382
 H1993 H 0.72716 0.30545 0.11803
 H1994 H 0.72460 0.31766 0.08636
 H1995 H 0.73773 0.31895 0.14797
 H1996 H 0.73736 0.30743 0.18005
 H1997 H 0.77896 0.26639 0.16612
 H1998 H 0.77921 0.27798 0.13394
 C1999 C 0.26404 0.83672 0.56934
 C2000 C 0.25926 0.85568 0.56873
 C2001 C 0.25596 0.86465 0.55177
 C2002 C 0.25736 0.85492 0.53494
 C2003 C 0.26340 0.83632 0.53531
 C2004 C 0.26669 0.82724 0.55245
 C2005 C 0.26499 0.82694 0.58766
 C2006 C 0.27941 0.81443 0.59206
 C2007 C 0.28034 0.80599 0.60975
 C2008 C 0.26680 0.80983 0.62332
 C2009 C 0.25218 0.82199 0.61865
 C2010 C 0.25130 0.83044 0.60110
 C2011 C 0.26758 0.80115 0.64225
 C2012 C 0.26214 0.81136 0.65799
 C2013 C 0.26128 0.80289 0.67557
 C2014 C 0.26599 0.78401 0.67791
 C2015 C 0.27217 0.77398 0.66232
 C2016 C 0.27292 0.78245 0.64469
 H2017 H 0.25763 0.86349 0.58147
 H2018 H 0.25182 0.87916 0.55182
 H2019 H 0.26467 0.82861 0.52247
 H2020 H 0.27044 0.81262 0.55253
 H2021 H 0.29017 0.81153 0.58198
 H2022 H 0.29184 0.79675 0.61293
 H2023 H 0.24122 0.82486 0.62851
 H2024 H 0.23977 0.83966 0.59797
 H2025 H 0.25835 0.82591 0.65669
 H2026 H 0.25668 0.81110 0.68728
 H2027 H 0.27590 0.75940 0.66361
 H2028 H 0.27705 0.77414 0.63287
 C2029 C 0.76365 0.66549 0.57013
 C2030 C 0.75973 0.64636 0.57033
 C2031 C 0.75690 0.63685 0.55379
 C2032 C 0.75768 0.64622 0.53659
 C2033 C 0.76260 0.66506 0.53609
 C2034 C 0.76550 0.67469 0.55279
 C2035 C 0.76435 0.67570 0.58806
 C2036 C 0.75618 0.69341 0.58977
 C2037 C 0.75449 0.70174 0.60727
 C2038 C 0.76075 0.69245 0.62348
 C2039 C 0.76950 0.67502 0.62158
 C2040 C 0.77150 0.66691 0.60413
 C2041 C 0.75788 0.70052 0.64235
 C2042 C 0.77078 0.69697 0.65669
 C2043 C 0.76778 0.70363 0.67461
 C2044 C 0.75207 0.71444 0.67864
 C2045 C 0.73930 0.71842 0.66435
 C2046 C 0.74206 0.71133 0.64643
 H2047 H 0.75789 0.63882 0.58331
 H2048 H 0.75332 0.62224 0.55449
 H2049 H 0.76328 0.67251 0.52292
 H2050 H 0.76875 0.68937 0.55216
 H2051 H 0.75041 0.70053 0.57772
 H2052 H 0.74806 0.71535 0.60809
 H2053 H 0.77431 0.66723 0.63365
 H2054 H 0.77820 0.65343 0.60331
 H2055 H 0.78339 0.68923 0.65407
 H2056 H 0.77811 0.70073 0.68524
 H2057 H 0.72711 0.72681 0.66710
 H2058 H 0.73164 0.71412 0.63588
 C2059 C 0.25113 0.17712 0.06434
 C2060 C 0.23448 0.17528 0.05435
 C2061 C 0.23376 0.16447 0.03836
 C2062 C 0.24961 0.15506 0.03203
 C2063 C 0.26657 0.15790 0.04112
 C2064 C 0.26733 0.16885 0.05716
 C2065 C 0.25099 0.18607 0.08296
 C2066 C 0.26141 0.17842 0.09776
 C2067 C 0.25955 0.18531 0.11582
 C2068 C 0.24708 0.19991 0.11958
 C2069 C 0.23710 0.20794 0.10467
 C2070 C 0.23913 0.20120 0.08658
 C2071 C 0.24436 0.20658 0.13897
 C2072 C 0.24111 0.22554 0.14248
 C2073 C 0.23897 0.23187 0.16070
 C2074 C 0.24027 0.21945 0.17590
 C2075 C 0.24318 0.20045 0.17243
 C2076 C 0.24507 0.19407 0.15418
 H2077 H 0.22169 0.18127 0.05947
 H2078 H 0.22054 0.16272 0.03142
 H2079 H 0.27898 0.15077 0.03653
 H2080 H 0.28046 0.17029 0.06432
 H2081 H 0.27052 0.16662 0.09557
 H2082 H 0.26779 0.17906 0.12686
 H2083 H 0.22728 0.21912 0.10701
 H2084 H 0.23110 0.20762 0.07548
 H2085 H 0.24075 0.23563 0.13119
 H2086 H 0.23698 0.24664 0.16288
 H2087 H 0.24418 0.19052 0.18384
 H2088 H 0.24710 0.17931 0.15199
 C2089 C 0.26097 0.16597 0.93408
 C2090 C 0.25686 0.14691 0.93352
 C2091 C 0.25464 0.13671 0.94992
 C2092 C 0.25646 0.14531 0.96731
 C2093 C 0.26176 0.16408 0.96799
 C2094 C 0.26399 0.17438 0.95144
 C2095 C 0.26081 0.17697 0.91651
 C2096 C 0.27499 0.18959 0.91212
 C2097 C 0.27523 0.19860 0.89469
 C2098 C 0.26126 0.19512 0.88148
 C2099 C 0.24666 0.18322 0.88635
 C2100 C 0.24645 0.17425 0.90361
 C2101 C 0.26203 0.20304 0.86234
 C2102 C 0.25762 0.19171 0.84714
 C2103 C 0.25685 0.19908 0.82915
 C2104 C 0.26056 0.21800 0.82580
 C2105 C 0.26571 0.22925 0.84090
 C2106 C 0.26645 0.22181 0.85903
 H2107 H 0.25495 0.13998 0.92032
 H2108 H 0.25109 0.12212 0.94900
 H2109 H 0.26325 0.17099 0.98125
 H2110 H 0.26721 0.18905 0.95222
 H2111 H 0.28619 0.19195 0.92188
 H2112 H 0.28664 0.20773 0.89129
 H2113 H 0.23544 0.18067 0.87667
 H2114 H 0.23509 0.16497 0.90683
 H2115 H 0.25460 0.17709 0.84919
 H2116 H 0.25315 0.18989 0.81786
 H2117 H 0.26870 0.24386 0.83877
 H2118 H 0.26990 0.23085 0.87052
 C2119 C 0.75749 0.67177 0.43668
 C2120 C 0.76368 0.67816 0.45408
 C2121 C 0.76162 0.66699 0.47012
 C2122 C 0.75336 0.64938 0.46884
 C2123 C 0.74834 0.64267 0.45122
 C2124 C 0.75032 0.65373 0.43538
 C2125 C 0.75744 0.68377 0.41981
 C2126 C 0.74132 0.68483 0.40886
 C2127 C 0.74153 0.69371 0.39155
 C2128 C 0.75788 0.70174 0.38472
 C2129 C 0.77375 0.70177 0.39615
 C2130 C 0.77352 0.69283 0.41363
 C2131 C 0.75838 0.70884 0.36525
 C2132 C 0.76657 0.72597 0.36070
 C2133 C 0.76597 0.73278 0.34232
 C2134 C 0.75730 0.72248 0.32818
 C2135 C 0.74963 0.70509 0.33277
 C2136 C 0.75017 0.69839 0.35103
 H2137 H 0.76938 0.69200 0.45535
 H2138 H 0.76573 0.67238 0.48354
 H2139 H 0.74256 0.62889 0.44969
 H2140 H 0.74592 0.64830 0.42206
 H2141 H 0.72865 0.67826 0.41349
 H2142 H 0.72897 0.69390 0.38325
 H2143 H 0.78652 0.70788 0.39121
 H2144 H 0.78611 0.69218 0.42187
 H2145 H 0.77299 0.73429 0.37141
 H2146 H 0.77207 0.74619 0.33926
 H2147 H 0.74297 0.69668 0.32228
 H2148 H 0.74408 0.68495 0.35406
 C2149 C 0.26097 0.83220 0.43294
 C2150 C 0.26423 0.82371 0.45045
 C2151 C 0.26153 0.83373 0.46699
 C2152 C 0.25528 0.85225 0.46620
 C2153 C 0.25273 0.86085 0.44873
 C2154 C 0.25544 0.85097 0.43237
 C2155 C 0.26233 0.82166 0.41520
 C2156 C 0.26896 0.83047 0.39899
 C2157 C 0.26787 0.82175 0.38173
 C2158 C 0.26041 0.80378 0.38016
 C2159 C 0.25456 0.79458 0.39652
 C2160 C 0.25547 0.80344 0.41384
 C2161 C 0.25828 0.79511 0.36144
 C2162 C 0.24289 0.78389 0.35726
 C2163 C 0.24048 0.77664 0.33935
 C2164 C 0.25325 0.78069 0.32514
 C2165 C 0.26869 0.79171 0.32935
 C2166 C 0.27126 0.79867 0.34728
 H2167 H 0.26867 0.80931 0.45135
 H2168 H 0.26362 0.82685 0.48033
 H2169 H 0.24817 0.87522 0.44772
 H2170 H 0.25253 0.85793 0.41923
 H2171 H 0.27462 0.84438 0.39956
 H2172 H 0.27233 0.82944 0.36952
 H2173 H 0.24906 0.78062 0.39594
 H2174 H 0.25015 0.79629 0.42603
 H2175 H 0.23244 0.78106 0.36769
 H2176 H 0.22844 0.76818 0.33651
 H2177 H 0.27898 0.79479 0.31882
 H2178 H 0.28353 0.80681 0.35001
 C2179 C 0.75821 0.32946 0.93150
 C2180 C 0.74687 0.34528 0.93065
 C2181 C 0.74307 0.35547 0.94654
 C2182 C 0.75043 0.35030 0.96414
 C2183 C 0.76215 0.33448 0.96495
 C2184 C 0.76576 0.32402 0.94881
 C2185 C 0.76169 0.31910 0.91400
 C2186 C 0.75852 0.29987 0.91287
 C2187 C 0.75859 0.29099 0.89550
 C2188 C 0.76195 0.30118 0.87897
 C2189 C 0.76600 0.32024 0.88038
 C2190 C 0.76594 0.32903 0.89763
 C2191 C 0.76039 0.29247 0.86021
 C2192 C 0.77206 0.29819 0.84560
 C2193 C 0.76954 0.29152 0.82755
 C2194 C 0.75543 0.27872 0.82359
 C2195 C 0.74412 0.27247 0.83828
 C2196 C 0.74651 0.27934 0.85637
 H2197 H 0.74076 0.34980 0.91755
 H2198 H 0.73476 0.36790 0.94459
 H2199 H 0.76804 0.32970 0.97802
 H2200 H 0.77458 0.31180 0.94981
 H2201 H 0.75510 0.29191 0.92527
 H2202 H 0.75570 0.27624 0.89497
 H2203 H 0.76841 0.32865 0.86804
 H2204 H 0.76853 0.34386 0.89810
 H2205 H 0.78316 0.30794 0.84807
 H2206 H 0.77875 0.29638 0.81667
 H2207 H 0.73315 0.26259 0.83572
 H2208 H 0.73711 0.27478 0.86720
 C2209 C 0.82861 0.43375 0.25749
 C2210 C 0.81980 0.45114 0.25988
 C2211 C 0.82970 0.46776 0.25735
 C2212 C 0.84843 0.46716 0.25219
 C2213 C 0.85734 0.44984 0.25062
 C2214 C 0.84758 0.43339 0.25315
 C2215 C 0.81824 0.41592 0.25847
 C2216 C 0.82683 0.39989 0.26590
 C2217 C 0.81845 0.38253 0.26446
 C2218 C 0.80100 0.38068 0.25592
 C2219 C 0.79199 0.39685 0.24923
 C2220 C 0.80054 0.41427 0.25045
 C2221 C 0.79266 0.36186 0.25372
 C2222 C 0.78214 0.35732 0.23783
 C2223 C 0.77520 0.33929 0.23552
 C2224 C 0.77896 0.32536 0.24887
 C2225 C 0.78927 0.32994 0.26479
 C2226 C 0.79583 0.34795 0.26729
 H2227 H 0.80524 0.45187 0.26342
 H2228 H 0.82260 0.48100 0.25864
 H2229 H 0.87185 0.44902 0.24686
 H2230 H 0.85479 0.42035 0.25092
 H2231 H 0.84033 0.40068 0.27245
 H2232 H 0.82602 0.37047 0.26956
 H2233 H 0.77841 0.39603 0.24287
 H2234 H 0.79359 0.42632 0.24447
 H2235 H 0.77960 0.36757 0.22696
 H2236 H 0.76722 0.33614 0.22315
 H2237 H 0.79201 0.31962 0.27556
 H2238 H 0.80334 0.35096 0.27996
 C2239 C 0.33143 0.92932 0.76787
 C2240 C 0.35089 0.92944 0.76697
 C2241 C 0.36042 0.94600 0.76414
 C2242 C 0.35078 0.96286 0.76192
 C2243 C 0.33149 0.96317 0.76408
 C2244 C 0.32185 0.94649 0.76703
 C2245 C 0.32147 0.91120 0.76789
 C2246 C 0.30517 0.90891 0.75738
 C2247 C 0.29740 0.89125 0.75515
 C2248 C 0.30588 0.87537 0.76313
 C2249 C 0.32179 0.87783 0.77421
 C2250 C 0.32929 0.89549 0.77676
 C2251 C 0.29861 0.85629 0.75959
 C2252 C 0.30069 0.84211 0.77311
 C2253 C 0.29475 0.82404 0.76956
 C2254 C 0.28609 0.81971 0.75263
 C2255 C 0.28358 0.83382 0.73920
 C2256 C 0.28999 0.85186 0.74254
 H2257 H 0.35882 0.91661 0.76725
 H2258 H 0.37534 0.94550 0.76256
 H2259 H 0.32384 0.97609 0.76236
 H2260 H 0.30689 0.94695 0.76800
 H2261 H 0.29881 0.92062 0.75020
 H2262 H 0.28490 0.89005 0.74691
 H2263 H 0.32894 0.86606 0.78046
 H2264 H 0.34160 0.89671 0.78529
 H2265 H 0.30671 0.84494 0.78660
 H2266 H 0.29647 0.81352 0.78034
 H2267 H 0.27690 0.83083 0.72604
 H2268 H 0.28842 0.86223 0.73161
 C2269 C 0.18082 0.93751 0.26728
 C2270 C 0.18209 0.94646 0.24984
 C2271 C 0.17147 0.96232 0.24592
 C2272 C 0.15944 0.96964 0.25938
 C2273 C 0.15913 0.96155 0.27725
 C2274 C 0.16966 0.94554 0.28114
 C2275 C 0.18955 0.91891 0.27010
 C2276 C 0.17941 0.90437 0.27836
 C2277 C 0.18638 0.88618 0.27853
 C2278 C 0.20367 0.88212 0.27053
 C2279 C 0.21423 0.89680 0.26312
 C2280 C 0.20722 0.91499 0.26286
 C2281 C 0.21011 0.86253 0.26878
 C2282 C 0.22875 0.85767 0.27188
 C2283 C 0.23487 0.83936 0.26930
 C2284 C 0.22249 0.82553 0.26339
 C2285 C 0.20380 0.83038 0.26050
 C2286 C 0.19768 0.84864 0.26320
 H2287 H 0.19043 0.94057 0.23881
 H2288 H 0.17205 0.96841 0.23208
 H2289 H 0.14987 0.96688 0.28783
 H2290 H 0.16856 0.93904 0.29477
 H2291 H 0.16568 0.90689 0.28388
 H2292 H 0.17804 0.87520 0.28456
 H2293 H 0.22756 0.89410 0.25677
 H2294 H 0.21541 0.92593 0.25654
 H2295 H 0.23861 0.86805 0.27632
 H2296 H 0.24935 0.83610 0.27169
 H2297 H 0.19386 0.82010 0.25603
 H2298 H 0.18328 0.85199 0.26045
 C2299 C 0.67358 0.43425 0.76265
 C2300 C 0.68139 0.45185 0.76578
 C2301 C 0.67049 0.46804 0.76372
 C2302 C 0.65177 0.46669 0.75852
 C2303 C 0.64379 0.44900 0.75688
 C2304 C 0.65456 0.43300 0.75888
 C2305 C 0.68509 0.41715 0.76158
 C2306 C 0.68322 0.40565 0.74599
 C2307 C 0.69208 0.38841 0.74541
 C2308 C 0.70295 0.38211 0.76048
 C2309 C 0.70572 0.39405 0.77568
 C2310 C 0.69686 0.41151 0.77621
 C2311 C 0.71023 0.36271 0.76049
 C2312 C 0.72837 0.35838 0.76633
 C2313 C 0.73513 0.34006 0.76523
 C2314 C 0.72383 0.32575 0.75831
 C2315 C 0.70554 0.33012 0.75303
 C2316 C 0.69885 0.34829 0.75414
 H2317 H 0.69603 0.45311 0.76878
 H2318 H 0.67690 0.48156 0.76511
 H2319 H 0.62927 0.44757 0.75334
 H2320 H 0.64815 0.41958 0.75681
 H2321 H 0.67452 0.40988 0.73436
 H2322 H 0.69009 0.37979 0.73327
 H2323 H 0.71404 0.38956 0.78748
 H2324 H 0.69852 0.42019 0.78835
 H2325 H 0.73745 0.36923 0.77129
 H2326 H 0.74927 0.33716 0.76948
 H2327 H 0.69630 0.31949 0.74790
 H2328 H 0.68466 0.35106 0.74998
 C2329 C 0.67067 0.56829 0.76164
 C2330 C 0.65247 0.56850 0.75469
 C2331 C 0.64299 0.55198 0.75182
 C2332 C 0.65147 0.53471 0.75560
 C2333 C 0.66942 0.53432 0.76315
 C2334 C 0.67903 0.55102 0.76603
 C2335 C 0.68081 0.58616 0.76335
 C2336 C 0.69936 0.58770 0.75766
 C2337 C 0.70796 0.60512 0.75685
 C2338 C 0.69816 0.62140 0.76164
 C2339 C 0.67985 0.61966 0.76804
 C2340 C 0.67137 0.60229 0.76904
 C2341 C 0.70659 0.64018 0.75936
 C2342 C 0.70209 0.65460 0.77172
 C2343 C 0.70900 0.67252 0.76897
 C2344 C 0.72089 0.67645 0.75399
 C2345 C 0.72577 0.66202 0.74183
 C2346 C 0.71859 0.64412 0.74439
 H2347 H 0.64567 0.58146 0.75089
 H2348 H 0.62900 0.55274 0.74637
 H2349 H 0.67618 0.52116 0.76626
 H2350 H 0.69299 0.55043 0.77156
 H2351 H 0.70700 0.57556 0.75310
 H2352 H 0.72220 0.60586 0.75222
 H2353 H 0.67174 0.63181 0.77167
 H2354 H 0.65717 0.60157 0.77381
 H2355 H 0.69327 0.65205 0.78364
 H2356 H 0.70526 0.68324 0.77880
 H2357 H 0.73492 0.66464 0.73016
 H2358 H 0.72213 0.63349 0.73440
 C2359 C 0.16512 0.07024 0.26350
 C2360 C 0.17432 0.05366 0.26880
 C2361 C 0.16576 0.03634 0.26643
 C2362 C 0.14799 0.03537 0.25854
 C2363 C 0.13858 0.05196 0.25399
 C2364 C 0.14704 0.06913 0.25636
 C2365 C 0.17440 0.08866 0.26426
 C2366 C 0.16420 0.10470 0.26882
 C2367 C 0.17204 0.12234 0.26704
 C2368 C 0.19041 0.12443 0.26092
 C2369 C 0.20091 0.10832 0.25719
 C2370 C 0.19298 0.09064 0.25880
 C2371 C 0.19830 0.14335 0.25799
 C2372 C 0.21047 0.14700 0.24311
 C2373 C 0.21758 0.16487 0.24020
 C2374 C 0.21248 0.17957 0.25196
 C2375 C 0.20022 0.17597 0.26673
 C2376 C 0.19333 0.15809 0.26978
 H2377 H 0.18820 0.05409 0.27453
 H2378 H 0.17327 0.02373 0.27008
 H2379 H 0.12471 0.05166 0.24819
 H2380 H 0.13960 0.08152 0.25189
 H2381 H 0.14995 0.10367 0.27337
 H2382 H 0.16344 0.13436 0.26989
 H2383 H 0.21521 0.10937 0.25281
 H2384 H 0.20120 0.07858 0.25506
 H2385 H 0.21433 0.13610 0.23353
 H2386 H 0.22699 0.16719 0.22869
 H2387 H 0.19624 0.18691 0.27623
 H2388 H 0.18429 0.15578 0.28158
 C2389 C 0.33485 0.06601 0.76064
 C2390 C 0.35222 0.06495 0.75196
 C2391 C 0.36060 0.04779 0.74877
 C2392 C 0.35180 0.03116 0.75404
 C2393 C 0.33462 0.03209 0.76312
 C2394 C 0.32613 0.04940 0.76627
 C2395 C 0.32584 0.08447 0.76302
 C2396 C 0.30693 0.08701 0.75900
 C2397 C 0.29902 0.10483 0.75917
 C2398 C 0.30986 0.12046 0.76333
 C2399 C 0.32859 0.11783 0.76802
 C2400 C 0.33647 0.10004 0.76793
 C2401 C 0.30181 0.13950 0.76227
 C2402 C 0.31171 0.15414 0.75387
 C2403 C 0.30392 0.17197 0.75238
 C2404 C 0.28609 0.17556 0.75936
 C2405 C 0.27631 0.16092 0.76795
 C2406 C 0.28406 0.14311 0.76933
 H2407 H 0.35922 0.07741 0.74723
 H2408 H 0.37408 0.04758 0.74219
 H2409 H 0.32763 0.01947 0.76741
 H2410 H 0.31278 0.04981 0.77312
 H2411 H 0.29844 0.07533 0.75497
 H2412 H 0.28457 0.10645 0.75537
 H2413 H 0.33718 0.12957 0.77166
 H2414 H 0.35100 0.09849 0.77146
 H2415 H 0.32536 0.15171 0.74811
 H2416 H 0.31184 0.18289 0.74569
 H2417 H 0.26255 0.16314 0.77352
 H2418 H 0.27619 0.13216 0.77605
 C2419 C 0.83234 0.56977 0.26147
 C2420 C 0.85040 0.56958 0.25425
 C2421 C 0.85907 0.55286 0.24984
 C2422 C 0.84989 0.53583 0.25240
 C2423 C 0.83211 0.53582 0.26024
 C2424 C 0.82331 0.55269 0.26461
 C2425 C 0.82289 0.58790 0.26459
 C2426 C 0.80439 0.59064 0.25903
 C2427 C 0.79634 0.60839 0.25958
 C2428 C 0.80666 0.62375 0.26563
 C2429 C 0.82487 0.62086 0.27196
 C2430 C 0.83287 0.60313 0.27152
 C2431 C 0.79872 0.64282 0.26466
 C2432 C 0.80927 0.65768 0.25759
 C2433 C 0.80160 0.67555 0.25603
 C2434 C 0.78327 0.67896 0.26165
 C2435 C 0.77283 0.66410 0.26894
 C2436 C 0.78044 0.64623 0.27035
 H2437 H 0.85768 0.58243 0.25143
 H2438 H 0.87298 0.55328 0.24425
 H2439 H 0.82485 0.52284 0.26245
 H2440 H 0.80945 0.55241 0.27033
 H2441 H 0.79641 0.57926 0.25342
 H2442 H 0.78230 0.61024 0.25452
 H2443 H 0.83301 0.63237 0.27705
 H2444 H 0.84703 0.60140 0.27627
 H2445 H 0.82334 0.65539 0.25290
 H2446 H 0.81003 0.68666 0.25038
 H2447 H 0.75865 0.66620 0.27342
 H2448 H 0.77206 0.63507 0.27599
 C2449 C 0.93260 0.25566 0.17394
 C2450 C 0.94228 0.23865 0.17463
 C2451 C 0.95847 0.23621 0.16436
 C2452 C 0.96541 0.25076 0.15325
 C2453 C 0.95652 0.26816 0.15355
 C2454 C 0.94020 0.27060 0.16378
 C2455 C 0.91388 0.25712 0.18235
 C2456 C 0.90815 0.27319 0.19184
 C2457 C 0.89016 0.27450 0.19905
 C2458 C 0.87756 0.25985 0.19668
 C2459 C 0.88339 0.24377 0.18733
 C2460 C 0.90130 0.24243 0.18025
 C2461 C 0.85828 0.26113 0.20368
 C2462 C 0.84357 0.25480 0.19262
 C2463 C 0.82556 0.25439 0.19959
 C2464 C 0.82178 0.26029 0.21783
 C2465 C 0.83639 0.26732 0.22867
 C2466 C 0.85447 0.26776 0.22164
 H2467 H 0.93702 0.22702 0.18269
 H2468 H 0.96531 0.22275 0.16467
 H2469 H 0.96151 0.27952 0.14503
 H2470 H 0.93299 0.28384 0.16291
 H2471 H 0.91758 0.28470 0.19370
 H2472 H 0.88598 0.28708 0.20614
 H2473 H 0.87408 0.23216 0.18552
 H2474 H 0.90518 0.22999 0.17276
 H2475 H 0.84603 0.24996 0.17859
 H2476 H 0.81465 0.24912 0.19073
 H2477 H 0.83395 0.27202 0.24275
 H2478 H 0.86557 0.27265 0.23048
 C2479 C 0.43928 0.75576 0.67530
 C2480 C 0.44924 0.73891 0.67528
 C2481 C 0.46563 0.73726 0.66518
 C2482 C 0.47254 0.75247 0.65500
 C2483 C 0.46341 0.76973 0.65609
 C2484 C 0.44685 0.77136 0.66614
 C2485 C 0.42038 0.75643 0.68345
 C2486 C 0.41415 0.77185 0.69366
 C2487 C 0.39609 0.77231 0.70082
 C2488 C 0.38389 0.75745 0.69770
 C2489 C 0.39021 0.74205 0.68756
 C2490 C 0.40817 0.74156 0.68051
 C2491 C 0.36459 0.75779 0.70482
 C2492 C 0.35003 0.75132 0.69363
 C2493 C 0.33204 0.75022 0.70060
 C2494 C 0.32811 0.75559 0.71898
 C2495 C 0.34257 0.76264 0.73002
 C2496 C 0.36063 0.76375 0.72299
 H2497 H 0.44403 0.72678 0.68260
 H2498 H 0.47264 0.72390 0.66483
 H2499 H 0.46845 0.78162 0.64828
 H2500 H 0.43946 0.78451 0.66586
 H2501 H 0.42327 0.78348 0.69620
 H2502 H 0.39156 0.78440 0.70852
 H2503 H 0.38124 0.73028 0.68513
 H2504 H 0.41241 0.72962 0.67244
 H2505 H 0.35259 0.74697 0.67945
 H2506 H 0.32126 0.74494 0.69160
 H2507 H 0.34002 0.76694 0.74421
 H2508 H 0.37159 0.76870 0.73197
 C2509 C 0.43683 0.25769 0.82329
 C2510 C 0.44483 0.27358 0.83135
 C2511 C 0.46111 0.27209 0.84200
 C2512 C 0.46963 0.25468 0.84482
 C2513 C 0.46226 0.23906 0.83586
 C2514 C 0.44606 0.24052 0.82534
 C2515 C 0.41832 0.25850 0.81400
 C2516 C 0.41424 0.24675 0.79897
 C2517 C 0.39623 0.24564 0.79186
 C2518 C 0.38182 0.25646 0.79939
 C2519 C 0.38610 0.26889 0.81381
 C2520 C 0.40408 0.26983 0.82108
 C2521 C 0.36237 0.25434 0.79264
 C2522 C 0.34737 0.25584 0.80506
 C2523 C 0.32914 0.25370 0.79881
 C2524 C 0.32543 0.24973 0.78004
 C2525 C 0.34038 0.24800 0.76764
 C2526 C 0.35860 0.25041 0.77383
 H2527 H 0.43826 0.28709 0.82980
 H2528 H 0.46648 0.28435 0.84878
 H2529 H 0.46871 0.22550 0.83751
 H2530 H 0.44031 0.22793 0.81957
 H2531 H 0.42490 0.23807 0.79290
 H2532 H 0.39353 0.23580 0.78086
 H2533 H 0.37550 0.27776 0.81970
 H2534 H 0.40662 0.27893 0.83274
 H2535 H 0.34969 0.25842 0.81972
 H2536 H 0.31794 0.25501 0.80875
 H2537 H 0.33797 0.24518 0.75303
 H2538 H 0.36970 0.24945 0.76376
 C2539 C 0.93527 0.75609 0.32479
 C2540 C 0.94239 0.73848 0.32951
 C2541 C 0.95872 0.73666 0.33974
 C2542 C 0.96854 0.75242 0.34584
 C2543 C 0.96191 0.77013 0.34022
 C2544 C 0.94538 0.77192 0.32998
 C2545 C 0.91689 0.75761 0.31541
 C2546 C 0.90380 0.77098 0.32104
 C2547 C 0.88573 0.77081 0.31389
 C2548 C 0.88030 0.75724 0.30097
 C2549 C 0.89362 0.74433 0.29484
 C2550 C 0.91168 0.74458 0.30188
 C2551 C 0.86073 0.75607 0.29434
 C2552 C 0.85671 0.75070 0.27597
 C2553 C 0.83838 0.74888 0.26995
 C2554 C 0.82355 0.75259 0.28207
 C2555 C 0.82753 0.75813 0.30039
 C2556 C 0.84588 0.75976 0.30647
 H2557 H 0.93500 0.72595 0.32583
 H2558 H 0.96357 0.72268 0.34272
 H2559 H 0.96869 0.78274 0.34460
 H2560 H 0.94034 0.78571 0.32637
 H2561 H 0.90730 0.78112 0.33152
 H2562 H 0.87595 0.78119 0.31866
 H2563 H 0.88998 0.73357 0.28505
 H2564 H 0.92148 0.73426 0.29701
 H2565 H 0.86774 0.74806 0.26613
 H2566 H 0.83583 0.74483 0.25568
 H2567 H 0.81644 0.76105 0.31010
 H2568 H 0.84842 0.76360 0.32080
 C2569 C 0.06791 0.76665 0.33297
 C2570 C 0.05558 0.75395 0.32484
 C2571 C 0.03830 0.75055 0.33292
 C2572 C 0.03297 0.75994 0.34908
 C2573 C 0.04486 0.77317 0.35680
 C2574 C 0.06218 0.77655 0.34879
 C2575 C 0.08714 0.76842 0.32580
 C2576 C 0.10224 0.76899 0.33821
 C2577 C 0.12043 0.76918 0.33153
 C2578 C 0.12394 0.76889 0.31229
 C2579 C 0.10882 0.76873 0.29987
 C2580 C 0.09065 0.76848 0.30655
 C2581 C 0.14324 0.76812 0.30510
 C2582 C 0.14819 0.77833 0.28911
 C2583 C 0.16587 0.77654 0.28146
 C2584 C 0.17909 0.76446 0.28959
 C2585 C 0.17437 0.75476 0.30599
 C2586 C 0.15663 0.75657 0.31366
 H2587 H 0.05967 0.74590 0.31283
 H2588 H 0.02943 0.73996 0.32707
 H2589 H 0.04119 0.78011 0.36962
 H2590 H 0.07131 0.78650 0.35528
 H2591 H 0.10001 0.76872 0.35313
 H2592 H 0.13176 0.76946 0.34144
 H2593 H 0.11106 0.76830 0.28496
 H2594 H 0.07931 0.76816 0.29664
 H2595 H 0.13830 0.78760 0.28240
 H2596 H 0.16904 0.78439 0.26893
 H2597 H 0.18418 0.74533 0.31260
 H2598 H 0.15320 0.74841 0.32592
 C2599 C 0.56911 0.26395 0.83129
 C2600 C 0.55713 0.24958 0.82591
 C2601 C 0.54009 0.24721 0.83479
 C2602 C 0.53461 0.25928 0.84900
 C2603 C 0.54615 0.27407 0.85394
 C2604 C 0.56328 0.27640 0.84515
 C2605 C 0.58807 0.26507 0.82335
 C2606 C 0.60343 0.26813 0.83499
 C2607 C 0.62142 0.26784 0.82778
 C2608 C 0.62443 0.26461 0.80874
 C2609 C 0.60903 0.26190 0.79704
 C2610 C 0.59107 0.26208 0.80427
 C2611 C 0.64352 0.26375 0.80107
 C2612 C 0.64752 0.27201 0.78376
 C2613 C 0.66521 0.27051 0.77606
 C2614 C 0.67938 0.26065 0.78546
 C2615 C 0.67547 0.25268 0.80298
 C2616 C 0.65774 0.25424 0.81071
 H2617 H 0.56132 0.23962 0.81547
 H2618 H 0.53147 0.23550 0.83108
 H2619 H 0.54242 0.28314 0.86529
 H2620 H 0.57219 0.28764 0.84952
 H2621 H 0.60158 0.27024 0.84980
 H2622 H 0.63299 0.27014 0.83709
 H2623 H 0.61090 0.25920 0.78234
 H2624 H 0.57950 0.25978 0.79494
 H2625 H 0.63694 0.27966 0.77613
 H2626 H 0.66768 0.27693 0.76259
 H2627 H 0.68603 0.24499 0.81060
 H2628 H 0.65502 0.24759 0.82402
 C2629 C 0.56837 0.75742 0.67685
 C2630 C 0.55938 0.74024 0.67507
 C2631 C 0.54353 0.73870 0.66414
 C2632 C 0.53630 0.75425 0.65457
 C2633 C 0.54449 0.77169 0.65717
 C2634 C 0.56047 0.77326 0.66818
 C2635 C 0.58671 0.75816 0.68631
 C2636 C 0.60116 0.76878 0.67866
 C2637 C 0.61913 0.76734 0.68589
 C2638 C 0.62310 0.75514 0.70083
 C2639 C 0.60847 0.74514 0.70897
 C2640 C 0.59049 0.74674 0.70188
 C2641 C 0.64248 0.75240 0.70753
 C2642 C 0.64624 0.74928 0.72654
 C2643 C 0.66442 0.74661 0.73278
 C2644 C 0.67931 0.74722 0.72021
 C2645 C 0.67558 0.75017 0.70118
 C2646 C 0.65737 0.75260 0.69490
 H2647 H 0.56512 0.72770 0.68131
 H2648 H 0.53730 0.72512 0.66257
 H2649 H 0.53916 0.78386 0.64994
 H2650 H 0.56693 0.78675 0.66950
 H2651 H 0.59880 0.77760 0.66657
 H2652 H 0.62997 0.77559 0.67955
 H2653 H 0.61097 0.73553 0.72041
 H2654 H 0.57962 0.73859 0.70831
 H2655 H 0.63518 0.74930 0.73671
 H2656 H 0.66685 0.74463 0.74757
 H2657 H 0.68674 0.75065 0.69113
 H2658 H 0.65498 0.75452 0.68011
 C2659 C 0.06081 0.25577 0.17850
 C2660 C 0.05238 0.23820 0.17780
 C2661 C 0.03658 0.23547 0.16701
 C2662 C 0.02889 0.25016 0.15648
 C2663 C 0.03652 0.26800 0.15801
 C2664 C 0.05238 0.27079 0.16892
 C2665 C 0.07915 0.25777 0.18778
 C2666 C 0.09304 0.26875 0.17959
 C2667 C 0.11105 0.26859 0.18679
 C2668 C 0.11568 0.25727 0.20223
 C2669 C 0.10159 0.24692 0.21090
 C2670 C 0.08353 0.24727 0.20385
 C2671 C 0.13522 0.25568 0.20880
 C2672 C 0.13932 0.25331 0.22785
 C2673 C 0.15765 0.25131 0.23390
 C2674 C 0.17233 0.25189 0.22109
 C2675 C 0.16828 0.25432 0.20207
 C2676 C 0.14995 0.25605 0.19598
 H2677 H 0.05852 0.22626 0.18479
 H2678 H 0.03076 0.22163 0.16639
 H2679 H 0.03086 0.27956 0.15002
 H2680 H 0.05834 0.28457 0.16942
 H2681 H 0.09024 0.27688 0.16712
 H2682 H 0.12143 0.27708 0.18002
 H2683 H 0.10460 0.23796 0.22274
 H2684 H 0.07311 0.23891 0.21072
 H2685 H 0.12840 0.25325 0.23816
 H2686 H 0.16034 0.24971 0.24869
 H2687 H 0.17930 0.25474 0.19184
 H2688 H 0.14733 0.25742 0.18117
 C2689 C -0.08080 1.00530 0.81984
 C2690 C -0.08344 0.98898 0.80958
 C2691 C -0.09425 0.98923 0.79345
 C2692 C -0.10339 1.00562 0.78748
 C2693 C -0.09950 1.02225 0.79697
 C2694 C -0.08850 1.02205 0.81303
 C2695 C -0.07079 1.00461 0.83795
 C2696 C -0.07698 1.01539 0.85298
 C2697 C -0.06860 1.01371 0.87046
 C2698 C -0.05395 1.00104 0.87343
 C2699 C -0.04744 0.99059 0.85830
 C2700 C -0.05570 0.99243 0.84075
 C2701 C -0.04579 0.99852 0.89232
 C2702 C -0.02668 0.99535 0.89468
 C2703 C -0.01907 0.99335 0.91252
 C2704 C -0.03038 0.99469 0.92837
 C2705 C -0.04950 0.99757 0.92601
 C2706 C -0.05713 0.99933 0.90821
 H2707 H -0.07764 0.97583 0.81427
 H2708 H -0.09574 0.97637 0.78586
 H2709 H -0.10482 1.03552 0.79211
 H2710 H -0.08605 1.03503 0.82016
 H2711 H -0.08869 1.02476 0.85141
 H2712 H -0.07371 1.02226 0.88170
 H2713 H -0.03626 0.98063 0.86010
 H2714 H -0.05037 0.98414 0.82941
 H2715 H -0.01751 0.99486 0.88278
 H2716 H -0.00425 0.99129 0.91392
 H2717 H -0.05860 0.99847 0.93796
 H2718 H -0.07197 1.00128 0.90690
 C2719 C 0.41493 0.50467 0.32001
 C2720 C 0.41412 0.48904 0.30843
 C2721 C 0.40427 0.48978 0.29170
 C2722 C 0.39443 0.50594 0.28632
 C2723 C 0.39624 0.52194 0.29737
 C2724 C 0.40635 0.52128 0.31399
 C2725 C 0.42402 0.50339 0.33860
 C2726 C 0.41650 0.51289 0.35389
 C2727 C 0.42444 0.51106 0.37157
 C2728 C 0.43995 0.49948 0.37448
 C2729 C 0.44756 0.49007 0.35917
 C2730 C 0.43977 0.49210 0.34143
 C2731 C 0.44818 0.49733 0.39340
 C2732 C 0.46746 0.49557 0.39573
 C2733 C 0.47522 0.49418 0.41352
 C2734 C 0.46391 0.49480 0.42941
 C2735 C 0.44463 0.49628 0.42714
 C2736 C 0.43684 0.49738 0.40933
 H2737 H 0.42052 0.47598 0.31255
 H2738 H 0.40377 0.47740 0.28321
 H2739 H 0.38998 0.53506 0.29344
 H2740 H 0.40733 0.53380 0.32221
 H2741 H 0.40421 0.52148 0.35233
 H2742 H 0.41842 0.51881 0.38294
 H2743 H 0.45939 0.48089 0.36091
 H2744 H 0.44610 0.48479 0.32994
 H2745 H 0.47665 0.49578 0.38382
 H2746 H 0.49015 0.49324 0.41486
 H2747 H 0.43557 0.49662 0.43914
 H2748 H 0.42192 0.49826 0.40807
 C2749 C 0.58435 0.01025 0.31997
 C2750 C 0.57555 0.01548 0.30324
 C2751 C 0.58479 0.01376 0.28620
 C2752 C 0.60295 0.00650 0.28557
 C2753 C 0.61156 0.00119 0.30245
 C2754 C 0.60238 0.00296 0.31937
 C2755 C 0.57496 0.01244 0.33813
 C2756 C 0.58480 0.01921 0.35353
 C2757 C 0.57648 0.02003 0.37102
 C2758 C 0.55814 0.01410 0.37348
 C2759 C 0.54809 0.00789 0.35795
 C2760 C 0.55642 0.00709 0.34041
 C2761 C 0.54982 0.01368 0.39232
 C2762 C 0.53132 0.01912 0.39502
 C2763 C 0.52335 0.01805 0.41271
 C2764 C 0.53372 0.01147 0.42806
 C2765 C 0.55232 0.00628 0.42536
 C2766 C 0.56027 0.00737 0.40769
 H2767 H 0.56171 0.02137 0.30338
 H2768 H 0.57773 0.01863 0.27380
 H2769 H 0.62563 -0.00414 0.30253
 H2770 H 0.60943 -0.00140 0.33203
 H2771 H 0.59900 0.02378 0.35207
 H2772 H 0.58443 0.02524 0.38267
 H2773 H 0.53398 0.00305 0.35948
 H2774 H 0.54858 0.00168 0.32879
 H2775 H 0.52302 0.02425 0.38346
 H2776 H 0.50901 0.02225 0.41429
 H2777 H 0.56070 0.00114 0.43686
 H2778 H 0.57450 0.00285 0.40597
 C2779 C 0.08355 0.50744 0.81545
 C2780 C 0.07427 0.51060 0.79848
 C2781 C 0.08365 0.50893 0.78154
 C2782 C 0.10255 0.50390 0.78121
 C2783 C 0.11174 0.50089 0.79832
 C2784 C 0.10238 0.50257 0.81517
 C2785 C 0.07368 0.50891 0.83346
 C2786 C 0.08239 0.51701 0.84890
 C2787 C 0.07368 0.51721 0.86623
 C2788 C 0.05605 0.50937 0.86847
 C2789 C 0.04708 0.50177 0.85291
 C2790 C 0.05581 0.50153 0.83557
 C2791 C 0.04735 0.50845 0.88711
 C2792 C 0.02837 0.51218 0.88929
 C2793 C 0.02008 0.51061 0.90680
 C2794 C 0.03060 0.50519 0.92248
 C2795 C 0.04966 0.50170 0.92030
 C2796 C 0.05793 0.50333 0.90281
 H2797 H 0.05979 0.51463 0.79832
 H2798 H 0.07593 0.51182 0.76896
 H2799 H 0.12630 0.49718 0.79861
 H2800 H 0.10986 0.49979 0.82800
 H2801 H 0.09602 0.52313 0.84759
 H2802 H 0.08076 0.52346 0.87792
 H2803 H 0.03356 0.49544 0.85430
 H2804 H 0.04885 0.49501 0.82396
 H2805 H 0.01994 0.51634 0.87745
 H2806 H 0.00539 0.51347 0.90798
 H2807 H 0.05818 0.49754 0.93207
 H2808 H 0.07256 0.50017 0.90149
 C2809 C 0.09388 0.49713 0.67348
 C2810 C 0.11125 0.50531 0.67663
 C2811 C 0.11823 0.50695 0.69476
 C2812 C 0.10790 0.50064 0.71011
 C2813 C 0.09060 0.49231 0.70688
 C2814 C 0.08367 0.49063 0.68882
 C2815 C 0.08616 0.49557 0.65435
 C2816 C 0.07654 0.47950 0.64900
 C2817 C 0.06825 0.47846 0.63144
 C2818 C 0.06941 0.49344 0.61879
 C2819 C 0.07939 0.50934 0.62397
 C2820 C 0.08769 0.51039 0.64155
 C2821 C 0.05983 0.49270 0.60047
 C2822 C 0.06831 0.49984 0.58435
 C2823 C 0.05901 0.49974 0.56725
 C2824 C 0.04098 0.49253 0.56586
 C2825 C 0.03260 0.48514 0.58196
 C2826 C 0.04192 0.48522 0.59906
 H2827 H 0.11952 0.51028 0.66506
 H2828 H 0.13160 0.51333 0.69674
 H2829 H 0.08245 0.48681 0.71828
 H2830 H 0.07017 0.48442 0.68689
 H2831 H 0.07542 0.46771 0.65843
 H2832 H 0.06095 0.46589 0.62773
 H2833 H 0.08033 0.52121 0.61462
 H2834 H 0.09480 0.52304 0.64535
 H2835 H 0.08219 0.50546 0.58495
 H2836 H 0.06595 0.50548 0.55514
 H2837 H 0.01873 0.47951 0.58143
 H2838 H 0.03492 0.47982 0.61127
 C2839 C 0.59334 1.00508 0.17838
 C2840 C 0.60844 0.99377 0.18369
 C2841 C 0.61607 0.99504 0.20154
 C2842 C 0.60873 1.00762 0.21449
 C2843 C 0.59390 1.01921 0.20910
 C2844 C 0.58632 1.01799 0.19122
 C2845 C 0.58464 1.00309 0.15972
 C2846 C 0.59556 0.99993 0.14385
 C2847 C 0.58730 0.99788 0.12635
 C2848 C 0.56795 0.99898 0.12431
 C2849 C 0.55704 1.00209 0.14019
 C2850 C 0.56528 1.00409 0.15769
 C2851 C 0.55915 0.99732 0.10565
 C2852 C 0.54229 0.98786 0.10350
 C2853 C 0.53357 0.98712 0.08610
 C2854 C 0.54155 0.99579 0.07044
 C2855 C 0.55864 1.00487 0.07253
 C2856 C 0.56731 1.00565 0.08992
 H2857 H 0.61399 0.98349 0.17425
 H2858 H 0.62725 0.98566 0.20540
 H2859 H 0.58812 1.02917 0.21875
 H2860 H 0.57493 1.02716 0.18745
 H2861 H 0.61051 0.99924 0.14491
 H2862 H 0.59608 0.99532 0.11442
 H2863 H 0.54212 1.00326 0.13908
 H2864 H 0.55646 1.00624 0.16967
 H2865 H 0.53581 0.98102 0.11528
 H2866 H 0.52048 0.97992 0.08499
 H2867 H 0.56517 1.01176 0.06080
 H2868 H 0.58016 1.01325 0.09114
 C2869 C 0.40726 0.50129 0.18019
 C2870 C 0.41554 0.51155 0.19453
 C2871 C 0.40775 0.51188 0.21231
 C2872 C 0.39153 0.50187 0.21625
 C2873 C 0.38325 0.49154 0.20197
 C2874 C 0.39103 0.49125 0.18412
 C2875 C 0.41564 0.50110 0.16128
 C2876 C 0.41621 0.48466 0.15079
 C2877 C 0.42472 0.48442 0.13329
 C2878 C 0.43291 0.50058 0.12594
 C2879 C 0.43209 0.51707 0.13629
 C2880 C 0.42352 0.51734 0.15371
 C2881 C 0.44250 0.50028 0.10768
 C2882 C 0.45955 0.50934 0.10540
 C2883 C 0.46855 0.50931 0.08818
 C2884 C 0.46065 0.50031 0.07279
 C2885 C 0.44362 0.49115 0.07511
 C2886 C 0.43468 0.49107 0.09239
 H2887 H 0.42818 0.51923 0.19208
 H2888 H 0.41434 0.52021 0.22290
 H2889 H 0.37088 0.48350 0.20460
 H2890 H 0.38423 0.48333 0.17335
 H2891 H 0.41048 0.47185 0.15631
 H2892 H 0.42529 0.47147 0.12570
 H2893 H 0.43798 0.52983 0.13082
 H2894 H 0.42298 0.53033 0.16122
 H2895 H 0.46603 0.51634 0.11700
 H2896 H 0.48164 0.51652 0.08693
 H2897 H 0.43713 0.48407 0.06356
 H2898 H 0.42148 0.48410 0.09371
 C2899 C -0.09156 0.00099 0.68201
 C2900 C -0.08383 -0.00879 0.69723
 C2901 C -0.09180 -0.00763 0.71490
 C2902 C -0.10778 0.00319 0.71775
 C2903 C -0.11579 0.01264 0.70254
 C2904 C -0.10772 0.01164 0.68486
 C2905 C -0.08256 0.00031 0.66338
 C2906 C -0.09323 0.00004 0.64695
 C2907 C -0.08467 -0.00045 0.62949
 C2908 C -0.06524 -0.00076 0.62802
 C2909 C -0.05460 -0.00060 0.64445
 C2910 C -0.06314 0.00001 0.66188
 C2911 C -0.05605 -0.00107 0.60947
 C2912 C -0.03967 0.00898 0.60639
 C2913 C -0.03092 0.00865 0.58906
 C2914 C -0.03841 -0.00162 0.57429
 C2915 C -0.05484 -0.01161 0.57730
 C2916 C -0.06352 -0.01140 0.59471
 H2917 H -0.07166 -0.01748 0.69549
 H2918 H -0.08555 -0.01538 0.72632
 H2919 H -0.12796 0.02123 0.70439
 H2920 H -0.11390 0.01956 0.67352
 H2921 H -0.10822 0.00005 0.64759
 H2922 H -0.09330 -0.00034 0.61712
 H2923 H -0.03962 -0.00109 0.64388
 H2924 H -0.05447 0.00048 0.67420
 H2925 H -0.03371 0.01738 0.61731
 H2926 H -0.01839 0.01668 0.58718
 H2927 H -0.06095 -0.01972 0.56624
 H2928 H -0.07597 -0.01952 0.59666
 C2929 C -0.17872 0.91459 1.00242
 C2930 C -0.17963 0.89579 1.00776
 C2931 C -0.19660 0.88673 1.00867
 C2932 C -0.21325 0.89627 1.00468
 C2933 C -0.21233 0.91520 0.99949
 C2934 C -0.19525 0.92428 0.99853
 C2935 C -0.16048 0.92371 1.00030
 C2936 C -0.15765 0.94196 1.00654
 C2937 C -0.14016 0.95011 1.00518
 C2938 C -0.12520 0.94015 0.99759
 C2939 C -0.12817 0.92210 0.99093
 C2940 C -0.14562 0.91399 0.99224
 C2941 C -0.10640 0.94824 0.99714
 C2942 C -0.09099 0.93734 1.00233
 C2943 C -0.07325 0.94492 1.00229
 C2944 C -0.07049 0.96358 0.99699
 C2945 C -0.08591 0.97444 0.99161
 C2946 C -0.10369 0.96686 0.99175
 H2947 H -0.16714 0.88798 1.01101
 H2948 H -0.19664 0.87202 1.01206
 H2949 H -0.22455 0.92296 0.99539
 H2950 H -0.19492 0.93871 0.99404
 H2951 H -0.16883 0.94972 1.01292
 H2952 H -0.13819 0.96400 1.01056
 H2953 H -0.11697 0.91425 0.98469
 H2954 H -0.14749 0.90007 0.98690
 H2955 H -0.09271 0.92301 1.00677
 H2956 H -0.06171 0.93615 1.00654
 H2957 H -0.08427 0.98887 0.98746
 H2958 H -0.11533 0.97551 0.98752
 C2959 C 0.31996 0.41185 0.50749
 C2960 C 0.31934 0.39285 0.50314
 C2961 C 0.30250 0.38356 0.50238
 C2962 C 0.28566 0.39305 0.50531
 C2963 C 0.28630 0.41197 0.51024
 C2964 C 0.30326 0.42125 0.51127
 C2965 C 0.33798 0.42173 0.50777
 C2966 C 0.33937 0.44016 0.50119
 C2967 C 0.35655 0.44902 0.50052
 C2968 C 0.37275 0.43959 0.50622
 C2969 C 0.37128 0.42124 0.51299
 C2970 C 0.35411 0.41250 0.51393
 C2971 C 0.39117 0.44866 0.50492
 C2972 C 0.40491 0.44485 0.51836
 C2973 C 0.42244 0.45276 0.51684
 C2974 C 0.42653 0.46497 0.50206
 C2975 C 0.41278 0.46910 0.48878
 C2976 C 0.39531 0.46090 0.49010
 H2977 H 0.33185 0.38516 0.49995
 H2978 H 0.30259 0.36887 0.49910
 H2979 H 0.27392 0.41972 0.51357
 H2980 H 0.30330 0.43576 0.51520
 H2981 H 0.32726 0.44762 0.49615
 H2982 H 0.35711 0.46326 0.49553
 H2983 H 0.38345 0.41342 0.51726
 H2984 H 0.35353 0.39844 0.51942
 H2985 H 0.40211 0.43587 0.53020
 H2986 H 0.43271 0.44957 0.52745
 H2987 H 0.41563 0.47843 0.47721
 H2988 H 0.38519 0.46391 0.47932
 C2989 C 0.31411 0.58343 0.00460
 C2990 C 0.29803 0.57404 -0.00110
 C2991 C 0.28073 0.58299 -0.00089
 C2992 C 0.27909 0.60152 0.00518
 C2993 C 0.29532 0.61090 0.01050
 C2994 C 0.31244 0.60191 0.01059
 C2995 C 0.33268 0.57437 0.00387
 C2996 C 0.34839 0.58487 -0.00088
 C2997 C 0.36598 0.57677 -0.00082
 C2998 C 0.36838 0.55782 0.00359
 C2999 C 0.35264 0.54717 0.00797
 C3000 C 0.33500 0.55537 0.00819
 C3001 C 0.38726 0.54936 0.00369
 C3002 C 0.39215 0.53544 0.01676
 C3003 C 0.41004 0.52787 0.01703
 C3004 C 0.42351 0.53427 0.00444
 C3005 C 0.41867 0.54814 -0.00860
 C3006 C 0.40073 0.55546 -0.00910
 H3007 H 0.29888 0.55995 -0.00625
 H3008 H 0.26888 0.57550 -0.00607
 H3009 H 0.29486 0.62540 0.01445
 H3010 H 0.32442 0.60956 0.01531
 H3011 H 0.34714 0.59944 -0.00469
 H3012 H 0.37774 0.58552 -0.00399
 H3013 H 0.35390 0.53246 0.01116
 H3014 H 0.32324 0.54689 0.01204
 H3015 H 0.38226 0.53062 0.02701
 H3016 H 0.41343 0.51722 0.02728
 H3017 H 0.42869 0.55312 -0.01867
 H3018 H 0.39740 0.56580 -0.01966
 C3019 C -0.18427 0.08276 0.50247
 C3020 C -0.20070 0.07465 0.50901
 C3021 C -0.21747 0.08455 0.50839
 C3022 C -0.21828 0.10286 0.50095
 C3023 C -0.20144 0.11100 0.49509
 C3024 C -0.18483 0.10109 0.49568
 C3025 C -0.16639 0.07250 0.50298
 C3026 C -0.15404 0.07399 0.48794
 C3027 C -0.13656 0.06568 0.48885
 C3028 C -0.13100 0.05566 0.50482
 C3029 C -0.14355 0.05362 0.51964
 C3030 C -0.16110 0.06197 0.51873
 C3031 C -0.11200 0.04775 0.50602
 C3032 C -0.10889 0.02982 0.51337
 C3033 C -0.09102 0.02222 0.51382
 C3034 C -0.07586 0.03244 0.50698
 C3035 C -0.07897 0.05053 0.50001
 C3036 C -0.09682 0.05808 0.49953
 H3037 H -0.20059 0.06057 0.51455
 H3038 H -0.22951 0.07776 0.51412
 H3039 H -0.20111 0.12527 0.49009
 H3040 H -0.17229 0.10795 0.49111
 H3041 H -0.15788 0.08171 0.47548
 H3042 H -0.12735 0.06712 0.47704
 H3043 H -0.13960 0.04606 0.53216
 H3044 H -0.17028 0.06073 0.53059
 H3045 H -0.12035 0.02149 0.51836
 H3046 H -0.08913 0.00824 0.51929
 H3047 H -0.06764 0.05885 0.49472
 H3048 H -0.09874 0.07207 0.49411
 C3049 C 0.67674 0.09516 0.50100
 C3050 C 0.69100 0.08573 0.51060
 C3051 C 0.70878 0.09323 0.51165
 C3052 C 0.71293 0.11057 0.50331
 C3053 C 0.69837 0.12034 0.49433
 C3054 C 0.68061 0.11268 0.49309
 C3055 C 0.65808 0.08656 0.49898
 C3056 C 0.64187 0.09752 0.49927
 C3057 C 0.62441 0.08933 0.49748
 C3058 C 0.62265 0.06995 0.49549
 C3059 C 0.63887 0.05902 0.49508
 C3060 C 0.65632 0.06721 0.49671
 C3061 C 0.60404 0.06107 0.49437
 C3062 C 0.60111 0.04531 0.48324
 C3063 C 0.58391 0.03640 0.48306
 C3064 C 0.56913 0.04314 0.49385
 C3065 C 0.57190 0.05918 0.50457
 C3066 C 0.58913 0.06797 0.50490
 H3067 H 0.68842 0.07249 0.51740
 H3068 H 0.71918 0.08545 0.51938
 H3069 H 0.70067 0.13340 0.48715
 H3070 H 0.67007 0.12025 0.48534
 H3071 H 0.64263 0.11242 0.50116
 H3072 H 0.61226 0.09824 0.49760
 H3073 H 0.63812 0.04404 0.49383
 H3074 H 0.66847 0.05834 0.49607
 H3075 H 0.61214 0.03981 0.47466
 H3076 H 0.58221 0.02417 0.47452
 H3077 H 0.56088 0.06470 0.51316
 H3078 H 0.59089 0.07987 0.51387
 C3079 C 0.17231 0.58839 0.99866
 C3080 C 0.18638 0.57937 1.00895
 C3081 C 0.20398 0.58726 1.01053
 C3082 C 0.20800 0.60444 1.00191
 C3083 C 0.19372 0.61378 0.99223
 C3084 C 0.17616 0.60580 0.99049
 C3085 C 0.15378 0.57958 0.99633
 C3086 C 0.13751 0.59044 0.99599
 C3087 C 0.12016 0.58213 0.99383
 C3088 C 0.11859 0.56271 0.99209
 C3089 C 0.13487 0.55186 0.99234
 C3090 C 0.15222 0.56019 0.99435
 C3091 C 0.10006 0.55374 0.99055
 C3092 C 0.09750 0.53789 0.97946
 C3093 C 0.08032 0.52895 0.97882
 C3094 C 0.06523 0.53574 0.98914
 C3095 C 0.06766 0.55186 0.99984
 C3096 C 0.08485 0.56068 1.00060
 H3097 H 0.18379 0.56622 1.01591
 H3098 H 0.21437 0.57990 1.01866
 H3099 H 0.19610 0.62706 0.98554
 H3100 H 0.16575 0.61312 0.98233
 H3101 H 0.13811 0.60538 0.99767
 H3102 H 0.10796 0.59096 0.99346
 H3103 H 0.13423 0.53686 0.99129
 H3104 H 0.16445 0.55139 0.99422
 H3105 H 0.10878 0.53235 0.97124
 H3106 H 0.07890 0.51666 0.97032
 H3107 H 0.05639 0.55742 1.00807
 H3108 H 0.08633 0.57265 1.00953
 C3109 C 0.17911 0.40641 0.49954
 C3110 C 0.18279 0.38944 0.49065
 C3111 C 0.20048 0.38139 0.49154
 C3112 C 0.21485 0.39014 0.50132
 C3113 C 0.21092 0.40681 0.51071
 C3114 C 0.19331 0.41486 0.50976
 C3115 C 0.16066 0.41551 0.49799
 C3116 C 0.15932 0.43482 0.49499
 C3117 C 0.14204 0.44360 0.49401
 C3118 C 0.12567 0.43331 0.49610
 C3119 C 0.12699 0.41393 0.49884
 C3120 C 0.14431 0.40512 0.49973
 C3121 C 0.10733 0.44284 0.49572
 C3122 C 0.09201 0.43466 0.48695
 C3123 C 0.07478 0.44366 0.48672
 C3124 C 0.07249 0.46109 0.49522
 C3125 C 0.08784 0.46928 0.50394
 C3126 C 0.10502 0.46026 0.50422
 H3127 H 0.17211 0.38265 0.48260
 H3128 H 0.20294 0.36860 0.48413
 H3129 H 0.22143 0.41366 0.51891
 H3130 H 0.19076 0.42771 0.51714
 H3131 H 0.17167 0.44314 0.49324
 H3132 H 0.14151 0.45848 0.49149
 H3133 H 0.11465 0.40563 0.50074
 H3134 H 0.14494 0.39024 0.50223
 H3135 H 0.09338 0.42137 0.48007
 H3136 H 0.06327 0.43697 0.47983
 H3137 H 0.08657 0.48261 0.51076
 H3138 H 0.11645 0.46680 0.51138
 C3139 C 0.68006 0.90825 0.00180
 C3140 C 0.68382 0.89183 -0.00802
 C3141 C 0.70161 0.88394 -0.00772
 C3142 C 0.71597 0.89233 0.00238
 C3143 C 0.71195 0.90836 0.01277
 C3144 C 0.69425 0.91625 0.01242
 C3145 C 0.66159 0.91737 0.00075
 C3146 C 0.66023 0.93679 -0.00131
 C3147 C 0.64295 0.94559 -0.00184
 C3148 C 0.62658 0.93520 -0.00023
 C3149 C 0.62792 0.91572 0.00155
 C3150 C 0.64525 0.90689 0.00199
 C3151 C 0.60825 0.94476 -0.00017
 C3152 C 0.59292 0.93705 -0.00937
 C3153 C 0.57576 0.94620 -0.00938
 C3154 C 0.57355 0.96331 -0.00023
 C3155 C 0.58888 0.97097 0.00901
 C3156 C 0.60599 0.96179 0.00907
 H3157 H 0.67315 0.88539 -0.01637
 H3158 H 0.70418 0.87162 -0.01586
 H3159 H 0.72245 0.91485 0.02126
 H3160 H 0.69164 0.92864 0.02051
 H3161 H 0.67257 0.94519 -0.00268
 H3162 H 0.64241 0.96056 -0.00365
 H3163 H 0.61558 0.90733 0.00304
 H3164 H 0.64590 0.89191 0.00373
 H3165 H 0.59426 0.92407 -0.01681
 H3166 H 0.56427 0.93992 -0.01668
 H3167 H 0.58767 0.98403 0.01634
 H3168 H 0.61741 0.96795 0.01659
 C3169 C 0.00669 0.81430 0.91983
 C3170 C 0.02350 0.80695 0.91326
 C3171 C 0.02375 0.79092 0.90238
 C3172 C 0.00711 0.78195 0.89762
 C3173 C -0.00946 0.78835 0.90574
 C3174 C -0.00973 0.80448 0.91642
 C3175 C 0.00613 0.83261 0.92927
 C3176 C -0.00651 0.83607 0.94374
 C3177 C -0.00789 0.85376 0.95157
 C3178 C 0.00342 0.86836 0.94521
 C3179 C 0.01636 0.86476 0.93108
 C3180 C 0.01763 0.84714 0.92314
 C3181 C 0.00168 0.88731 0.95314
 C3182 C 0.00355 0.90315 0.94165
 C3183 C 0.00253 0.92098 0.94915
 C3184 C -0.00059 0.92340 0.96829
 C3185 C -0.00289 0.90760 0.97973
 C3186 C -0.00168 0.88975 0.97225
 H3187 H 0.03651 0.81372 0.91634
 H3188 H 0.03703 0.78578 0.89775
 H3189 H -0.02241 0.78126 0.90323
 H3190 H -0.02294 0.80963 0.92136
 H3191 H -0.01541 0.82514 0.94895
 H3192 H -0.01811 0.85609 0.96234
 H3193 H 0.02552 0.87558 0.92609
 H3194 H 0.02733 0.84507 0.91186
 H3195 H 0.00573 0.90178 0.92680
 H3196 H 0.00420 0.93288 0.93994
 H3197 H -0.00518 0.90898 0.99456
 H3198 H -0.00295 0.87787 0.98153
 C3199 C 0.49591 0.31800 0.42023
 C3200 C 0.51194 0.30703 0.41832
 C3201 C 0.51186 0.29138 0.40693
 C3202 C 0.49589 0.28657 0.39677
 C3203 C 0.47946 0.29671 0.40000
 C3204 C 0.47954 0.31237 0.41137
 C3205 C 0.49649 0.33576 0.43057
 C3206 C 0.48151 0.34141 0.44170
 C3207 C 0.48154 0.35886 0.45015
 C3208 C 0.49653 0.37101 0.44760
 C3209 C 0.51172 0.36513 0.43691
 C3210 C 0.51170 0.34772 0.42847
 C3211 C 0.49613 0.38997 0.45553
 C3212 C 0.50239 0.40521 0.44493
 C3213 C 0.50214 0.42311 0.45230
 C3214 C 0.49558 0.42621 0.47045
 C3215 C 0.48917 0.41097 0.48101
 C3216 C 0.48943 0.39304 0.47361
 H3217 H 0.52460 0.31064 0.42552
 H3218 H 0.52445 0.28322 0.40584
 H3219 H 0.46646 0.29277 0.39372
 H3220 H 0.46689 0.32040 0.41275
 H3221 H 0.46969 0.33240 0.44372
 H3222 H 0.46960 0.36305 0.45823
 H3223 H 0.52359 0.37409 0.43493
 H3224 H 0.52335 0.34386 0.41983
 H3225 H 0.50732 0.40332 0.43083
 H3226 H 0.50710 0.43451 0.44373
 H3227 H 0.48407 0.41284 0.49505
 H3228 H 0.48466 0.38153 0.48215
 C3229 C 0.00242 0.31466 0.57799
 C3230 C -0.01412 0.30493 0.58113
 C3231 C -0.01418 0.28885 0.59220
 C3232 C 0.00221 0.28236 0.60082
 C3233 C 0.01898 0.29123 0.59622
 C3234 C 0.01904 0.30731 0.58518
 C3235 C 0.00225 0.33289 0.56813
 C3236 C 0.01663 0.33783 0.55591
 C3237 C 0.01714 0.35559 0.54783
 C3238 C 0.00327 0.36876 0.55181
 C3239 C -0.01135 0.36365 0.56366
 C3240 C -0.01184 0.34593 0.57174
 C3241 C 0.00416 0.38788 0.54390
 C3242 C -0.00056 0.40329 0.55488
 C3243 C -0.00006 0.42128 0.54741
 C3244 C 0.00523 0.42428 0.52878
 C3245 C 0.01022 0.40887 0.51789
 C3246 C 0.00968 0.39087 0.52537
 H3247 H -0.02706 0.30987 0.57518
 H3248 H -0.02718 0.28171 0.59432
 H3249 H 0.03216 0.28599 0.60122
 H3250 H 0.03207 0.31433 0.58281
 H3251 H 0.02758 0.32802 0.55270
 H3252 H 0.02864 0.35915 0.53884
 H3253 H -0.02239 0.37340 0.56675
 H3254 H -0.02300 0.34263 0.58126
 H3255 H -0.00454 0.40145 0.56932
 H3256 H -0.00390 0.43282 0.55623
 H3257 H 0.01429 0.41066 0.50347
 H3258 H 0.01322 0.37926 0.51652
 C3259 C 0.50019 0.81741 0.08057
 C3260 C 0.48342 0.80832 0.08436
 C3261 C 0.48319 0.79205 0.09515
 C3262 C 0.49969 0.78471 0.10283
 C3263 C 0.51658 0.79292 0.09752
 C3264 C 0.51681 0.80920 0.08677
 C3265 C 0.50031 0.83581 0.07102
 C3266 C 0.51431 0.84039 0.05821
 C3267 C 0.51512 0.85823 0.05034
 C3268 C 0.50195 0.87186 0.05511
 C3269 C 0.48773 0.86713 0.06759
 C3270 C 0.48693 0.84933 0.07547
 C3271 C 0.50316 0.89101 0.04734
 C3272 C 0.49945 0.90647 0.05863
 C3273 C 0.50029 0.92451 0.05129
 C3274 C 0.50491 0.92751 0.03249
 C3275 C 0.50887 0.91204 0.02126
 C3276 C 0.50798 0.89400 0.02860
 H3277 H 0.47043 0.81392 0.07913
 H3278 H 0.47001 0.78542 0.09771
 H3279 H 0.52973 0.78701 0.10183
 H3280 H 0.53001 0.81569 0.08388
 H3281 H 0.52470 0.83022 0.05435
 H3282 H 0.52632 0.86148 0.04086
 H3283 H 0.47721 0.87723 0.07132
 H3284 H 0.47611 0.84631 0.08546
 H3285 H 0.49603 0.90463 0.07321
 H3286 H 0.49726 0.93609 0.06037
 H3287 H 0.51241 0.91382 0.00670
 H3288 H 0.51073 0.88237 0.01951
 C3289 C 0.49366 0.67859 0.09531
 C3290 C 0.50281 0.68164 0.11233
 C3291 C 0.50425 0.69962 0.11956
 C3292 C 0.49670 0.71495 0.10986
 C3293 C 0.48731 0.71182 0.09298
 C3294 C 0.48585 0.69390 0.08579
 C3295 C 0.49255 0.65963 0.08720
 C3296 C 0.47639 0.65380 0.07800
 C3297 C 0.47570 0.63640 0.06947
 C3298 C 0.49112 0.62438 0.06998
 C3299 C 0.50715 0.63005 0.07949
 C3300 C 0.50787 0.64748 0.08799
 C3301 C 0.49065 0.60618 0.06030
 C3302 C 0.49865 0.59025 0.06856
 C3303 C 0.49877 0.57328 0.05919
 C3304 C 0.49093 0.57181 0.04129
 C3305 C 0.48271 0.58771 0.03313
 C3306 C 0.48255 0.60468 0.04254
 H3307 H 0.50879 0.67010 0.12012
 H3308 H 0.51156 0.70149 0.13256
 H3309 H 0.48091 0.72321 0.08532
 H3310 H 0.47887 0.69210 0.07256
 H3311 H 0.46424 0.66269 0.07743
 H3312 H 0.46304 0.63230 0.06254
 H3313 H 0.51936 0.62122 0.07992
 H3314 H 0.52061 0.65165 0.09472
 H3315 H 0.50478 0.59090 0.08233
 H3316 H 0.50517 0.56133 0.06596
 H3317 H 0.47657 0.58713 0.01937
 H3318 H 0.47646 0.61675 0.03572
 C3319 C -0.00441 0.17616 0.59480
 C3320 C -0.01195 0.19138 0.58491
 C3321 C -0.01042 0.20940 0.59181
 C3322 C -0.00123 0.21273 0.60876
 C3323 C 0.00605 0.19749 0.61882
 C3324 C 0.00454 0.17941 0.61188
 C3325 C -0.00559 0.15709 0.58704
 C3326 C 0.00966 0.14488 0.58809
 C3327 C 0.00889 0.12733 0.57985
 C3328 C -0.00714 0.12161 0.57038
 C3329 C -0.02252 0.13367 0.56967
 C3330 C -0.02176 0.15120 0.57792
 C3331 C -0.00763 0.10335 0.56084
 C3332 C -0.01571 0.10179 0.54308
 C3333 C -0.01564 0.08478 0.53379
 C3334 C -0.00750 0.06889 0.54205
 C3335 C 0.00036 0.07041 0.55993
 C3336 C 0.00032 0.08745 0.56919
 H3337 H -0.01878 0.18939 0.57163
 H3338 H -0.01660 0.22072 0.58387
 H3339 H 0.01318 0.19949 0.63189
 H3340 H 0.01031 0.16795 0.61994
 H3341 H 0.02240 0.14910 0.59479
 H3342 H 0.02106 0.11845 0.58043
 H3343 H -0.03518 0.12953 0.56276
 H3344 H -0.03387 0.16015 0.57717
 H3345 H -0.02174 0.11385 0.53617
 H3346 H -0.02180 0.08415 0.52004
 H3347 H 0.00669 0.05847 0.56676
 H3348 H 0.00644 0.08815 0.58296
 C3349 C 0.49519 0.18133 0.40547
 C3350 C 0.50649 0.18572 0.39012
 C3351 C 0.50587 0.20350 0.38201
 C3352 C 0.49403 0.21724 0.38916
 C3353 C 0.48232 0.21269 0.40410
 C3354 C 0.48285 0.19493 0.41213
 C3355 C 0.49661 0.16289 0.41493
 C3356 C 0.49563 0.16155 0.43446
 C3357 C 0.49684 0.14428 0.44346
 C3358 C 0.49916 0.12789 0.43316
 C3359 C 0.50031 0.12922 0.41362
 C3360 C 0.49904 0.14652 0.40461
 C3361 C 0.50001 0.10949 0.44278
 C3362 C 0.49109 0.09399 0.43513
 C3363 C 0.49136 0.07683 0.44442
 C3364 C 0.50052 0.07475 0.46165
 C3365 C 0.50961 0.09021 0.46922
 C3366 C 0.50939 0.10737 0.45988
 H3367 H 0.51627 0.17563 0.38477
 H3368 H 0.51521 0.20670 0.37065
 H3369 H 0.47282 0.22293 0.40968
 H3370 H 0.47364 0.19187 0.42363
 H3371 H 0.49405 0.17391 0.44285
 H3372 H 0.49568 0.14374 0.45849
 H3373 H 0.50231 0.11688 0.40529
 H3374 H 0.49973 0.14705 0.38954
 H3375 H 0.48352 0.09521 0.42212
 H3376 H 0.48417 0.06525 0.43819
 H3377 H 0.51692 0.08908 0.48239
 H3378 H 0.51665 0.11896 0.46600
 C3379 C -0.00182 0.67633 0.90437
 C3380 C -0.01107 0.69129 0.91287
 C3381 C -0.00975 0.70928 0.90553
 C3382 C 0.00073 0.71277 0.88941
 C3383 C 0.00933 0.69776 0.88043
 C3384 C 0.00817 0.67974 0.88789
 C3385 C -0.00214 0.65745 0.91306
 C3386 C -0.00291 0.64137 0.90207
 C3387 C -0.00292 0.62367 0.91040
 C3388 C -0.00221 0.62166 0.92991
 C3389 C -0.00156 0.63777 0.94086
 C3390 C -0.00143 0.65540 0.93256
 C3391 C -0.00215 0.60291 0.93889
 C3392 C 0.00860 0.59944 0.95493
 C3393 C 0.00824 0.58206 0.96379
 C3394 C -0.00274 0.56764 0.95674
 C3395 C -0.01324 0.57097 0.94050
 C3396 C -0.01300 0.58843 0.93172
 H3397 H -0.01932 0.68910 0.92528
 H3398 H -0.01697 0.72047 0.91249
 H3399 H 0.01748 0.69998 0.86800
 H3400 H 0.01558 0.66859 0.88105
 H3401 H -0.00365 0.64244 0.88703
 H3402 H -0.00325 0.61157 0.90153
 H3403 H -0.00128 0.63677 0.95592
 H3404 H -0.00053 0.66745 0.94146
 H3405 H 0.01742 0.61014 0.96061
 H3406 H 0.01668 0.57992 0.97613
 H3407 H -0.02190 0.56017 0.93474
 H3408 H -0.02161 0.59068 0.91953
 C3409 C 0.23835 0.66461 0.93324
 C3410 C 0.22444 0.65252 0.93964
 C3411 C 0.22595 0.64387 0.95713
 C3412 C 0.24142 0.64708 0.96847
 C3413 C 0.25505 0.65957 0.96237
 C3414 C 0.25348 0.66835 0.94498
 C3415 C 0.23775 0.67247 0.91403
 C3416 C 0.24275 0.69106 0.91062
 C3417 C 0.24318 0.69816 0.89243
 C3418 C 0.23872 0.68681 0.87721
 C3419 C 0.23358 0.66826 0.88062
 C3420 C 0.23302 0.66119 0.89884
 C3421 C 0.23959 0.69436 0.85789
 C3422 C 0.24757 0.68395 0.84343
 C3423 C 0.24911 0.69152 0.82544
 C3424 C 0.24259 0.70963 0.82151
 C3425 C 0.23426 0.71982 0.83595
 C3426 C 0.23282 0.71230 0.85388
 H3427 H 0.21259 0.64946 0.93092
 H3428 H 0.21559 0.63388 0.96129
 H3429 H 0.26722 0.66205 0.97084
 H3430 H 0.26452 0.67742 0.94037
 H3431 H 0.24637 0.70010 0.92204
 H3432 H 0.24736 0.71246 0.89024
 H3433 H 0.22993 0.65924 0.86919
 H3434 H 0.22933 0.64674 0.90102
 H3435 H 0.25305 0.67013 0.84615
 H3436 H 0.25560 0.68328 0.81468
 H3437 H 0.22900 0.73378 0.83349
 H3438 H 0.22636 0.72055 0.86466
 C3439 C 0.73335 0.16362 0.43032
 C3440 C 0.72731 0.17101 0.44736
 C3441 C 0.73108 0.16166 0.46426
 C3442 C 0.74143 0.14491 0.46451
 C3443 C 0.74697 0.13750 0.44721
 C3444 C 0.74300 0.14667 0.43050
 C3445 C 0.73052 0.17361 0.41228
 C3446 C 0.72577 0.16364 0.39620
 C3447 C 0.72589 0.17226 0.37868
 C3448 C 0.73073 0.19109 0.37678
 C3449 C 0.73450 0.20135 0.39296
 C3450 C 0.73439 0.19269 0.41055
 C3451 C 0.73267 0.19967 0.35792
 C3452 C 0.72644 0.21790 0.35430
 C3453 C 0.72858 0.22595 0.33660
 C3454 C 0.73711 0.21599 0.32211
 C3455 C 0.74334 0.19775 0.32576
 C3456 C 0.74113 0.18969 0.34342
 H3457 H 0.71978 0.18409 0.44762
 H3458 H 0.72667 0.16817 0.47704
 H3459 H 0.75406 0.12426 0.44624
 H3460 H 0.74793 0.14061 0.41765
 H3461 H 0.72239 0.14899 0.39714
 H3462 H 0.72248 0.16408 0.36655
 H3463 H 0.73836 0.21586 0.39195
 H3464 H 0.73826 0.20069 0.42265
 H3465 H 0.71974 0.22589 0.36512
 H3466 H 0.72358 0.24003 0.33432
 H3467 H 0.74999 0.18966 0.31498
 H3468 H 0.74634 0.17571 0.34583
 C3469 C 0.24918 0.32628 0.43465
 C3470 C 0.26585 0.32798 0.44461
 C3471 C 0.26644 0.33790 0.46117
 C3472 C 0.25045 0.34660 0.46815
 C3473 C 0.23354 0.34410 0.45887
 C3474 C 0.23290 0.33405 0.44221
 C3475 C 0.24931 0.31759 0.41590
 C3476 C 0.23870 0.32523 0.40124
 C3477 C 0.24043 0.31839 0.38313
 C3478 C 0.25294 0.30386 0.37921
 C3479 C 0.26316 0.29590 0.39399
 C3480 C 0.26125 0.30257 0.41210
 C3481 C 0.25539 0.29709 0.35980
 C3482 C 0.25875 0.27812 0.35638
 C3483 C 0.26054 0.27165 0.33818
 C3484 C 0.25875 0.28392 0.32291
 C3485 C 0.25579 0.30294 0.32628
 C3486 C 0.25426 0.30946 0.34452
 H3487 H 0.27870 0.32241 0.43920
 H3488 H 0.27963 0.33927 0.46824
 H3489 H 0.22103 0.35060 0.46396
 H3490 H 0.21977 0.33272 0.43505
 H3491 H 0.22951 0.33693 0.40359
 H3492 H 0.23202 0.32459 0.37220
 H3493 H 0.27303 0.28480 0.39153
 H3494 H 0.26941 0.29613 0.42310
 H3495 H 0.25942 0.26812 0.36773
 H3496 H 0.26258 0.25688 0.33608
 H3497 H 0.25442 0.31275 0.31480
 H3498 H 0.25214 0.32422 0.34662
 C3499 C 0.75075 0.82945 0.93452
 C3500 C 0.73447 0.83711 0.94217
 C3501 C 0.73509 0.84699 0.95893
 C3502 C 0.75200 0.84946 0.96823
 C3503 C 0.76801 0.84091 0.96113
 C3504 C 0.76744 0.83117 0.94446
 C3505 C 0.75085 0.82068 0.91580
 C3506 C 0.76286 0.80570 0.91208
 C3507 C 0.76466 0.79882 0.89405
 C3508 C 0.75421 0.80647 0.87925
 C3509 C 0.74169 0.82101 0.88309
 C3510 C 0.74009 0.82809 0.90113
 C3511 C 0.75645 0.79924 0.85998
 C3512 C 0.75500 0.81116 0.84434
 C3513 C 0.75679 0.80416 0.82627
 C3514 C 0.76036 0.78515 0.82347
 C3515 C 0.76220 0.77334 0.83909
 C3516 C 0.76011 0.78025 0.85706
 H3517 H 0.72132 0.83576 0.93502
 H3518 H 0.72255 0.85339 0.96410
 H3519 H 0.78121 0.84224 0.96819
 H3520 H 0.78030 0.82570 0.93899
 H3521 H 0.77113 0.79942 0.92308
 H3522 H 0.77460 0.78777 0.89168
 H3523 H 0.73314 0.82701 0.87214
 H3524 H 0.73085 0.83976 0.90343
 H3525 H 0.75256 0.82592 0.84603
 H3526 H 0.75531 0.81361 0.81451
 H3527 H 0.76463 0.75856 0.83743
 H3528 H 0.76093 0.77054 0.86866
 C3529 C 0.74112 0.82490 0.06532
 C3530 C 0.72645 0.83485 0.05686
 C3531 C 0.72947 0.84528 0.04053
 C3532 C 0.74721 0.84595 0.03259
 C3533 C 0.76144 0.83490 0.04025
 C3534 C 0.75841 0.82442 0.05637
 C3535 C 0.73921 0.81673 0.08430
 C3536 C 0.75343 0.81934 0.09742
 C3537 C 0.75184 0.81233 0.11549
 C3538 C 0.73596 0.80256 0.12102
 C3539 C 0.72174 0.79973 0.10793
 C3540 C 0.72330 0.80688 0.08973
 C3541 C 0.73454 0.79554 0.14048
 C3542 C 0.72856 0.77734 0.14440
 C3543 C 0.72923 0.77027 0.16267
 C3544 C 0.73587 0.78131 0.17734
 C3545 C 0.74101 0.79979 0.17344
 C3546 C 0.74034 0.80679 0.15527
 H3547 H 0.71299 0.83551 0.06347
 H3548 H 0.71833 0.85377 0.03486
 H3549 H 0.77516 0.83500 0.03416
 H3550 H 0.76984 0.81651 0.06228
 H3551 H 0.76573 0.82713 0.09380
 H3552 H 0.76314 0.81452 0.12518
 H3553 H 0.70932 0.79228 0.11185
 H3554 H 0.71214 0.80465 0.07990
 H3555 H 0.72407 0.76835 0.13325
 H3556 H 0.72510 0.75601 0.16520
 H3557 H 0.74593 0.80881 0.18438
 H3558 H 0.74466 0.82100 0.15273
 C3559 C 0.23669 0.32245 0.56471
 C3560 C 0.22277 0.33291 0.55562
 C3561 C 0.22689 0.34338 0.53962
 C3562 C 0.24505 0.34379 0.53268
 C3563 C 0.25874 0.33273 0.54129
 C3564 C 0.25459 0.32210 0.55708
 C3565 C 0.23320 0.31324 0.58294
 C3566 C 0.24057 0.29548 0.58685
 C3567 C 0.23947 0.28789 0.60481
 C3568 C 0.23111 0.29796 0.61926
 C3569 C 0.22307 0.31539 0.61517
 C3570 C 0.22403 0.32292 0.59717
 C3571 C 0.23193 0.29086 0.63873
 C3572 C 0.23703 0.30276 0.65328
 C3573 C 0.23922 0.29588 0.67143
 C3574 C 0.23622 0.27695 0.67548
 C3575 C 0.23063 0.26515 0.66100
 C3576 C 0.22861 0.27201 0.64280
 H3577 H 0.20883 0.33333 0.56117
 H3578 H 0.21614 0.35191 0.53326
 H3579 H 0.27283 0.33275 0.53610
 H3580 H 0.26563 0.31433 0.56386
 H3581 H 0.24761 0.28769 0.57610
 H3582 H 0.24588 0.27448 0.60757
 H3583 H 0.21638 0.32336 0.62601
 H3584 H 0.21838 0.33670 0.59460
 H3585 H 0.23989 0.31730 0.65052
 H3586 H 0.24345 0.30538 0.68226
 H3587 H 0.22817 0.25050 0.66363
 H3588 H 0.22452 0.26256 0.63188
 C3589 C 0.74466 0.17714 0.56025
 C3590 C 0.72885 0.17143 0.55033
 C3591 C 0.73057 0.16067 0.53413
 C3592 C 0.74819 0.15502 0.52774
 C3593 C 0.76390 0.16188 0.53713
 C3594 C 0.76217 0.17263 0.55309
 C3595 C 0.74327 0.18667 0.57859
 C3596 C 0.75626 0.20027 0.58363
 C3597 C 0.75671 0.20735 0.60170
 C3598 C 0.74402 0.20123 0.61526
 C3599 C 0.73046 0.18825 0.60999
 C3600 C 0.73012 0.18104 0.59190
 C3601 C 0.74534 0.20798 0.63487
 C3602 C 0.74151 0.19603 0.65003
 C3603 C 0.74320 0.20225 0.66840
 C3604 C 0.74896 0.22051 0.67211
 C3605 C 0.75284 0.23243 0.65698
 C3606 C 0.75095 0.22629 0.63864
 H3607 H 0.71514 0.17491 0.55533
 H3608 H 0.71801 0.15578 0.52761
 H3609 H 0.77778 0.15886 0.53230
 H3610 H 0.77469 0.17672 0.56028
 H3611 H 0.76642 0.20516 0.57368
 H3612 H 0.76746 0.21718 0.60518
 H3613 H 0.72022 0.18348 0.61991
 H3614 H 0.72000 0.17050 0.58858
 H3615 H 0.73750 0.18174 0.64774
 H3616 H 0.74015 0.19268 0.67972
 H3617 H 0.75707 0.24666 0.65929
 H3618 H 0.75369 0.23603 0.62739
 C3619 C 0.23459 0.67440 0.06477
 C3620 C 0.21937 0.66525 0.05665
 C3621 C 0.22182 0.65386 0.04101
 C3622 C 0.23953 0.65135 0.03339
 C3623 C 0.25445 0.66133 0.04083
 C3624 C 0.25205 0.67261 0.05633
 C3625 C 0.23293 0.68451 0.08277
 C3626 C 0.24400 0.70014 0.08634
 C3627 C 0.24482 0.70781 0.10415
 C3628 C 0.23433 0.70028 0.11887
 C3629 C 0.22238 0.68536 0.11501
 C3630 C 0.22176 0.67751 0.09722
 C3631 C 0.23656 0.70736 0.13825
 C3632 C 0.23555 0.69513 0.15365
 C3633 C 0.23822 0.70159 0.17179
 C3634 C 0.24227 0.72040 0.17500
 C3635 C 0.24336 0.73265 0.15968
 C3636 C 0.24040 0.72625 0.14155
 H3637 H 0.20568 0.66653 0.06264
 H3638 H 0.21011 0.64630 0.03551
 H3639 H 0.26823 0.65985 0.03505
 H3640 H 0.26416 0.67916 0.06223
 H3641 H 0.25251 0.70616 0.07547
 H3642 H 0.25428 0.71919 0.10649
 H3643 H 0.21374 0.67945 0.12583
 H3644 H 0.21315 0.66543 0.09507
 H3645 H 0.23307 0.68043 0.15172
 H3646 H 0.23739 0.69177 0.18329
 H3647 H 0.24622 0.74727 0.16171
 H3648 H 0.24096 0.73619 0.13015
 C3649 C 0.17731 0.56095 0.74202
 C3650 C 0.17633 0.55107 0.75891
 C3651 C 0.16580 0.53493 0.76026
 C3652 C 0.15579 0.52847 0.74481
 C3653 C 0.15806 0.53740 0.72749
 C3654 C 0.16882 0.55357 0.72608
 C3655 C 0.18517 0.57991 0.74184
 C3656 C 0.19915 0.58506 0.72927
 C3657 C 0.20660 0.60305 0.72974
 C3658 C 0.19980 0.61620 0.74246
 C3659 C 0.18560 0.61108 0.75475
 C3660 C 0.17847 0.59308 0.75454
 C3661 C 0.20750 0.63523 0.74320
 C3662 C 0.19562 0.65078 0.74292
 C3663 C 0.20275 0.66875 0.74440
 C3664 C 0.22189 0.67150 0.74658
 C3665 C 0.23378 0.65592 0.74689
 C3666 C 0.22666 0.63796 0.74503
 H3667 H 0.18300 0.55638 0.77131
 H3668 H 0.16454 0.52811 0.77372
 H3669 H 0.15044 0.53277 0.71541
 H3670 H 0.16941 0.56102 0.71291
 H3671 H 0.20448 0.57511 0.71936
 H3672 H 0.21750 0.60676 0.72009
 H3673 H 0.18022 0.62094 0.76474
 H3674 H 0.16757 0.58944 0.76425
 H3675 H 0.18079 0.64899 0.74149
 H3676 H 0.19326 0.68048 0.74413
 H3677 H 0.24860 0.65763 0.74840
 H3678 H 0.23605 0.62615 0.74543
 C3679 C 0.67799 0.06322 0.24454
 C3680 C 0.67375 0.05661 0.26246
 C3681 C 0.66263 0.04103 0.26490
 C3682 C 0.65519 0.03154 0.24950
 C3683 C 0.66065 0.03730 0.23149
 C3684 C 0.67174 0.05312 0.22906
 C3685 C 0.68752 0.08140 0.24238
 C3686 C 0.68120 0.09461 0.22924
 C3687 C 0.68813 0.11277 0.22925
 C3688 C 0.70150 0.11812 0.24244
 C3689 C 0.70842 0.10462 0.25498
 C3690 C 0.70160 0.08648 0.25488
 C3691 C 0.70767 0.13782 0.24372
 C3692 C 0.72606 0.14200 0.24854
 C3693 C 0.73166 0.16044 0.25067
 C3694 C 0.71908 0.17520 0.24781
 C3695 C 0.70074 0.17109 0.24275
 C3696 C 0.69508 0.15261 0.24082
 H3697 H 0.67829 0.06400 0.27472
 H3698 H 0.65973 0.03663 0.27906
 H3699 H 0.65531 0.03063 0.21916
 H3700 H 0.67500 0.05777 0.21506
 H3701 H 0.67027 0.09119 0.21952
 H3702 H 0.68277 0.12270 0.21915
 H3703 H 0.71859 0.10821 0.26544
 H3704 H 0.70695 0.07656 0.26501
 H3705 H 0.73622 0.13103 0.25055
 H3706 H 0.74596 0.16310 0.25431
 H3707 H 0.69071 0.18214 0.24046
 H3708 H 0.68073 0.14991 0.23743
 C3709 C 0.82145 0.06332 0.73987
 C3710 C 0.82788 0.05172 0.72562
 C3711 C 0.83912 0.03624 0.72978
 C3712 C 0.84485 0.03246 0.74827
 C3713 C 0.83738 0.04367 0.76252
 C3714 C 0.82585 0.05878 0.75837
 C3715 C 0.81143 0.08093 0.73567
 C3716 C 0.79562 0.08591 0.74591
 C3717 C 0.78783 0.10369 0.74399
 C3718 C 0.79586 0.11692 0.73200
 C3719 C 0.81122 0.11168 0.72119
 C3720 C 0.81884 0.09380 0.72290
 C3721 C 0.78916 0.13648 0.73196
 C3722 C 0.80183 0.15113 0.73380
 C3723 C 0.79558 0.16948 0.73551
 C3724 C 0.77652 0.17362 0.73517
 C3725 C 0.76387 0.15902 0.73271
 C3726 C 0.77012 0.14061 0.73129
 H3727 H 0.82449 0.05486 0.71121
 H3728 H 0.84410 0.02814 0.71823
 H3729 H 0.84022 0.04087 0.77707
 H3730 H 0.82096 0.06741 0.76967
 H3731 H 0.78964 0.07622 0.75582
 H3732 H 0.77607 0.10740 0.75257
 H3733 H 0.81758 0.12159 0.71175
 H3734 H 0.83113 0.09035 0.71498
 H3735 H 0.81657 0.14831 0.73456
 H3736 H 0.80568 0.18042 0.73727
 H3737 H 0.74910 0.16176 0.73242
 H3738 H 0.76009 0.12956 0.72982
 C3739 C 0.32451 0.56620 0.23255
 C3740 C 0.34327 0.56855 0.23713
 C3741 C 0.35425 0.55332 0.24215
 C3742 C 0.34680 0.53534 0.24261
 C3743 C 0.32828 0.53272 0.23731
 C3744 C 0.31711 0.54811 0.23251
 C3745 C 0.31278 0.58293 0.22919
 C3746 C 0.29573 0.58507 0.23840
 C3747 C 0.28659 0.60233 0.23829
 C3748 C 0.29438 0.61769 0.22899
 C3749 C 0.31065 0.61511 0.21861
 C3750 C 0.31973 0.59792 0.21868
 C3751 C 0.28684 0.63674 0.23166
 C3752 C 0.29899 0.65128 0.23598
 C3753 C 0.29227 0.66918 0.23917
 C3754 C 0.27320 0.67309 0.23800
 C3755 C 0.26097 0.65858 0.23357
 C3756 C 0.26773 0.64051 0.23059
 H3757 H 0.34932 0.58230 0.23755
 H3758 H 0.36857 0.55563 0.24602
 H3759 H 0.32231 0.51892 0.23757
 H3760 H 0.30270 0.54593 0.22898
 H3761 H 0.29012 0.57378 0.24670
 H3762 H 0.27408 0.60396 0.24644
 H3763 H 0.31674 0.62663 0.21100
 H3764 H 0.33266 0.59657 0.21118
 H3765 H 0.31375 0.64872 0.23721
 H3766 H 0.30210 0.68001 0.24245
 H3767 H 0.24621 0.66116 0.23257
 H3768 H 0.25808 0.62952 0.22729
 C3769 C 0.33320 0.43329 0.24345
 C3770 C 0.32465 0.44994 0.23733
 C3771 C 0.33342 0.46714 0.23991
 C3772 C 0.35070 0.46790 0.24887
 C3773 C 0.35938 0.45121 0.25448
 C3774 C 0.35073 0.43419 0.25190
 C3775 C 0.32390 0.41497 0.24190
 C3776 C 0.33433 0.39895 0.23777
 C3777 C 0.32636 0.38134 0.23877
 C3778 C 0.30763 0.37925 0.24367
 C3779 C 0.29695 0.39534 0.24698
 C3780 C 0.30501 0.41301 0.24613
 C3781 C 0.29954 0.36033 0.24574
 C3782 C 0.28655 0.35644 0.25983
 C3783 C 0.27920 0.33857 0.26191
 C3784 C 0.28483 0.32411 0.25009
 C3785 C 0.29795 0.32795 0.23615
 C3786 C 0.30511 0.34584 0.23392
 H3787 H 0.31120 0.44966 0.23063
 H3788 H 0.32652 0.47982 0.23538
 H3789 H 0.37291 0.45128 0.26102
 H3790 H 0.35762 0.42173 0.25702
 H3791 H 0.34886 0.40000 0.23417
 H3792 H 0.33508 0.36932 0.23629
 H3793 H 0.28240 0.39427 0.25042
 H3794 H 0.29663 0.42507 0.24948
 H3795 H 0.28220 0.36716 0.26942
 H3796 H 0.26912 0.33605 0.27280
 H3797 H 0.30237 0.31721 0.22661
 H3798 H 0.31481 0.34835 0.22272
 C3799 C 0.83534 0.93326 0.74319
 C3800 C 0.85337 0.93392 0.75052
 C3801 C 0.86213 0.95087 0.75322
 C3802 C 0.85306 0.96771 0.74889
 C3803 C 0.83528 0.96722 0.74097
 C3804 C 0.82641 0.95010 0.73824
 C3805 C 0.82592 0.91497 0.74167
 C3806 C 0.80725 0.91291 0.74681
 C3807 C 0.79921 0.89522 0.74765
 C3808 C 0.80968 0.87921 0.74348
 C3809 C 0.82815 0.88142 0.73771
 C3810 C 0.83608 0.89905 0.73666
 C3811 C 0.80170 0.86021 0.74557
 C3812 C 0.80701 0.84588 0.73344
 C3813 C 0.80022 0.82787 0.73582
 C3814 C 0.78768 0.82374 0.75020
 C3815 C 0.78214 0.83805 0.76222
 C3816 C 0.78918 0.85605 0.76003
 H3817 H 0.86059 0.92133 0.75476
 H3818 H 0.87601 0.95078 0.75900
 H3819 H 0.82804 0.98003 0.73748
 H3820 H 0.81257 0.95002 0.73239
 H3821 H 0.79906 0.92487 0.75086
 H3822 H 0.78484 0.89410 0.75178
 H3823 H 0.83676 0.86948 0.73457
 H3824 H 0.85040 0.90016 0.73233
 H3825 H 0.81627 0.84859 0.72190
 H3826 H 0.80450 0.81724 0.72609
 H3827 H 0.77248 0.83528 0.77343
 H3828 H 0.78502 0.86662 0.76985
 C3829 C 0.66071 0.93251 0.23929
 C3830 C 0.67061 0.94908 0.23628
 C3831 C 0.66201 0.96641 0.23900
 C3832 C 0.64347 0.96731 0.24481
 C3833 C 0.63334 0.95076 0.24661
 C3834 C 0.64186 0.93358 0.24390
 C3835 C 0.67004 0.91407 0.23893
 C3836 C 0.66641 0.90103 0.25313
 C3837 C 0.67462 0.88344 0.25291
 C3838 C 0.68664 0.87837 0.23842
 C3839 C 0.69055 0.89153 0.22433
 C3840 C 0.68236 0.90926 0.22462
 C3841 C 0.69510 0.85946 0.23833
 C3842 C 0.71369 0.85683 0.23316
 C3843 C 0.72192 0.83919 0.23437
 C3844 C 0.71175 0.82380 0.24088
 C3845 C 0.69301 0.82634 0.24553
 C3846 C 0.68478 0.84393 0.24419
 H3847 H 0.68517 0.94862 0.23270
 H3848 H 0.67006 0.97900 0.23747
 H3849 H 0.61886 0.95109 0.25053
 H3850 H 0.63377 0.92105 0.24581
 H3851 H 0.65730 0.90451 0.26458
 H3852 H 0.67171 0.87387 0.26425
 H3853 H 0.69967 0.88801 0.21292
 H3854 H 0.68534 0.91905 0.21348
 H3855 H 0.72207 0.86851 0.22874
 H3856 H 0.73639 0.83771 0.23069
 H3857 H 0.68471 0.81476 0.25035
 H3858 H 0.67031 0.84540 0.24787
 C3859 C 0.16157 0.42842 0.73841
 C3860 C 0.17095 0.44501 0.73401
 C3861 C 0.16213 0.46231 0.73617
 C3862 C 0.14386 0.46322 0.74279
 C3863 C 0.13424 0.44659 0.74616
 C3864 C 0.14298 0.42943 0.74402
 C3865 C 0.17112 0.41009 0.73815
 C3866 C 0.16840 0.39741 0.75289
 C3867 C 0.17666 0.37983 0.75264
 C3868 C 0.18781 0.37440 0.73760
 C3869 C 0.19086 0.38721 0.72297
 C3870 C 0.18262 0.40492 0.72327
 C3871 C 0.19624 0.35547 0.73743
 C3872 C 0.21449 0.35270 0.73121
 C3873 C 0.22273 0.33504 0.73222
 C3874 C 0.21293 0.31977 0.73955
 C3875 C 0.19451 0.32246 0.74528
 C3876 C 0.18626 0.34006 0.74417
 H3877 H 0.18530 0.44461 0.72963
 H3878 H 0.16981 0.47495 0.73343
 H3879 H 0.11994 0.44683 0.75071
 H3880 H 0.13525 0.41688 0.74702
 H3881 H 0.15995 0.40116 0.76475
 H3882 H 0.17443 0.37053 0.76437
 H3883 H 0.19929 0.38342 0.71113
 H3884 H 0.18487 0.41441 0.71169
 H3885 H 0.22261 0.36428 0.72609
 H3886 H 0.23695 0.33349 0.72769
 H3887 H 0.18648 0.31098 0.75079
 H3888 H 0.17204 0.34163 0.74869
 C3889 C 0.06763 0.74128 0.82215
 C3890 C 0.06141 0.72619 0.83306
 C3891 C 0.04580 0.72812 0.84447
 C3892 C 0.03631 0.74516 0.84520
 C3893 C 0.04176 0.75981 0.83342
 C3894 C 0.05717 0.75785 0.82192
 C3895 C 0.08588 0.74056 0.81264
 C3896 C 0.09771 0.75601 0.81348
 C3897 C 0.11540 0.75525 0.80580
 C3898 C 0.12181 0.73901 0.79714
 C3899 C 0.10989 0.72367 0.79582
 C3900 C 0.09210 0.72440 0.80360
 C3901 C 0.14114 0.73812 0.79020
 C3902 C 0.14535 0.73050 0.77274
 C3903 C 0.16357 0.73076 0.76601
 C3904 C 0.17790 0.73857 0.77668
 C3905 C 0.17366 0.74569 0.79437
 C3906 C 0.15554 0.74547 0.80102
 H3907 H 0.06923 0.71330 0.83365
 H3908 H 0.04190 0.71673 0.85358
 H3909 H 0.03444 0.77301 0.83363
 H3910 H 0.06133 0.76957 0.81334
 H3911 H 0.09351 0.76857 0.82060
 H3912 H 0.12417 0.76739 0.80680
 H3913 H 0.11452 0.71095 0.78927
 H3914 H 0.08326 0.71232 0.80265
 H3915 H 0.13449 0.72480 0.76410
 H3916 H 0.16636 0.72509 0.75236
 H3917 H 0.18431 0.75166 0.80309
 H3918 H 0.15278 0.75110 0.81469
 C3919 C 0.56522 0.24459 0.32928
 C3920 C 0.54791 0.23975 0.32178
 C3921 C 0.53173 0.24190 0.33239
 C3922 C 0.53271 0.24887 0.35061
 C3923 C 0.55017 0.25263 0.35835
 C3924 C 0.56619 0.25056 0.34782
 C3925 C 0.58231 0.24442 0.31787
 C3926 C 0.59433 0.25968 0.31860
 C3927 C 0.61139 0.25916 0.30960
 C3928 C 0.61693 0.24333 0.29968
 C3929 C 0.60452 0.22839 0.29806
 C3930 C 0.58730 0.22894 0.30708
 C3931 C 0.63603 0.24230 0.29210
 C3932 C 0.63962 0.23550 0.27414
 C3933 C 0.65769 0.23570 0.26696
 C3934 C 0.67246 0.24263 0.27767
 C3935 C 0.66882 0.24883 0.29583
 C3936 C 0.65089 0.24864 0.30293
 H3937 H 0.54683 0.23507 0.30752
 H3938 H 0.51844 0.23889 0.32610
 H3939 H 0.55144 0.25747 0.37255
 H3940 H 0.57941 0.25391 0.35410
 H3941 H 0.59064 0.27196 0.32645
 H3942 H 0.62044 0.27109 0.31068
 H3943 H 0.60845 0.21602 0.29049
 H3944 H 0.57823 0.21701 0.30629
 H3945 H 0.62841 0.23053 0.26550
 H3946 H 0.66003 0.23077 0.25294
 H3947 H 0.67982 0.25403 0.30462
 H3948 H 0.64863 0.25354 0.31698
 C3949 C 0.56190 0.74529 0.17793
 C3950 C 0.55432 0.72958 0.16915
 C3951 C 0.53829 0.73122 0.15814
 C3952 C 0.52962 0.74859 0.15569
 C3953 C 0.53643 0.76395 0.16550
 C3954 C 0.55239 0.76236 0.17637
 C3955 C 0.58036 0.74452 0.18732
 C3956 C 0.58417 0.75590 0.20270
 C3957 C 0.60214 0.75721 0.20986
 C3958 C 0.61679 0.74694 0.20203
 C3959 C 0.61279 0.73485 0.18724
 C3960 C 0.59485 0.73373 0.17992
 C3961 C 0.63618 0.74919 0.20893
 C3962 C 0.65127 0.74818 0.19657
 C3963 C 0.66945 0.75010 0.20304
 C3964 C 0.67300 0.75340 0.22198
 C3965 C 0.65795 0.75481 0.23429
 C3966 C 0.63979 0.75259 0.22788
 H3967 H 0.56108 0.71613 0.17033
 H3968 H 0.53332 0.71918 0.15074
 H3969 H 0.52983 0.77747 0.16412
 H3970 H 0.55779 0.77483 0.18271
 H3971 H 0.57332 0.76416 0.20901
 H3972 H 0.60462 0.76677 0.22115
 H3973 H 0.62358 0.72637 0.18112
 H3974 H 0.59254 0.72494 0.16797
 H3975 H 0.64907 0.74604 0.18182
 H3976 H 0.68075 0.74904 0.19319
 H3977 H 0.66024 0.75709 0.24902
 H3978 H 0.62862 0.75317 0.23790
 C3979 C 0.06352 0.24267 0.67682
 C3980 C 0.05559 0.22703 0.66825
 C3981 C 0.03966 0.22892 0.65714
 C3982 C 0.03146 0.24647 0.65439
 C3983 C 0.03860 0.26180 0.66401
 C3984 C 0.05446 0.25996 0.67498
 C3985 C 0.08193 0.24155 0.68623
 C3986 C 0.08600 0.25299 0.70150
 C3987 C 0.10400 0.25396 0.70864
 C3988 C 0.11840 0.24329 0.70089
 C3989 C 0.11413 0.23114 0.68623
 C3990 C 0.09617 0.23036 0.67893
 C3991 C 0.13783 0.24521 0.70771
 C3992 C 0.15285 0.24392 0.69530
 C3993 C 0.17108 0.24566 0.70168
 C3994 C 0.17473 0.24904 0.72058
 C3995 C 0.15975 0.25067 0.73295
 C3996 C 0.14154 0.24865 0.72663
 H3997 H 0.06200 0.21343 0.66966
 H3998 H 0.03444 0.21690 0.64990
 H3999 H 0.03235 0.27546 0.66241
 H4000 H 0.06016 0.27236 0.68117
 H4001 H 0.07533 0.26157 0.70772
 H4002 H 0.10670 0.26357 0.71983
 H4003 H 0.12474 0.22237 0.68019
 H4004 H 0.09365 0.22151 0.66707
 H4005 H 0.15056 0.24173 0.68057
 H4006 H 0.18232 0.24443 0.69178
 H4007 H 0.16212 0.25303 0.74765
 H4008 H 0.13041 0.24944 0.73667
 C4009 C 0.93179 0.24128 0.66645
 C4010 C 0.94127 0.22628 0.65825
 C4011 C 0.95867 0.22893 0.65004
 C4012 C 0.96679 0.24664 0.64980
 C4013 C 0.95781 0.26135 0.65891
 C4014 C 0.94056 0.25868 0.66721
 C4015 C 0.91245 0.23925 0.67326
 C4016 C 0.89945 0.25356 0.66999
 C4017 C 0.88131 0.25201 0.67646
 C4018 C 0.87560 0.23605 0.68630
 C4019 C 0.88851 0.22158 0.68936
 C4020 C 0.90673 0.22315 0.68287
 C4021 C 0.85647 0.23501 0.69391
 C4022 C 0.85330 0.22766 0.71183
 C4023 C 0.83562 0.22835 0.71971
 C4024 C 0.82067 0.23646 0.70990
 C4025 C 0.82369 0.24313 0.69169
 C4026 C 0.84136 0.24237 0.68378
 H4027 H 0.93487 0.21272 0.65738
 H4028 H 0.96526 0.21742 0.64296
 H4029 H 0.96395 0.27507 0.65919
 H4030 H 0.93389 0.27039 0.67388
 H4031 H 0.90327 0.26599 0.66232
 H4032 H 0.87184 0.26353 0.67408
 H4033 H 0.88451 0.20903 0.69674
 H4034 H 0.91643 0.21190 0.68565
 H4035 H 0.86463 0.22206 0.72008
 H4036 H 0.83382 0.22306 0.73377
 H4037 H 0.81249 0.24931 0.68366
 H4038 H 0.84326 0.24781 0.66980
 C4039 C 0.43028 0.74283 0.16908
 C4040 C 0.43951 0.72790 0.16046
 C4041 C 0.45680 0.73057 0.15201
 C4042 C 0.46505 0.74821 0.15195
 C4043 C 0.45636 0.76280 0.16151
 C4044 C 0.43923 0.76012 0.17005
 C4045 C 0.41098 0.74087 0.17606
 C4046 C 0.39809 0.75537 0.17319
 C4047 C 0.37997 0.75386 0.17974
 C4048 C 0.37416 0.73776 0.18927
 C4049 C 0.38696 0.72312 0.19198
 C4050 C 0.40517 0.72464 0.18540
 C4051 C 0.35500 0.73666 0.19682
 C4052 C 0.35172 0.72892 0.21455
 C4053 C 0.33397 0.72935 0.22232
 C4054 C 0.31906 0.73760 0.21257
 C4055 C 0.32221 0.74476 0.19456
 C4056 C 0.33995 0.74426 0.18678
 H4057 H 0.43296 0.71442 0.15942
 H4058 H 0.46318 0.71915 0.14459
 H4059 H 0.46261 0.77646 0.16193
 H4060 H 0.43276 0.77176 0.17704
 H4061 H 0.40198 0.76791 0.16574
 H4062 H 0.37059 0.76550 0.17763
 H4063 H 0.38288 0.71046 0.19912
 H4064 H 0.41476 0.71325 0.18788
 H4065 H 0.36301 0.72313 0.22274
 H4066 H 0.33209 0.72370 0.23622
 H4067 H 0.31104 0.75107 0.18658
 H4068 H 0.34192 0.75001 0.17293
 C4069 C 0.43587 0.24903 0.31980
 C4070 C 0.44486 0.26627 0.32116
 C4071 C 0.46081 0.26806 0.33196
 C4072 C 0.46809 0.25272 0.34184
 C4073 C 0.45998 0.23519 0.33949
 C4074 C 0.44400 0.23336 0.32856
 C4075 C 0.41730 0.24797 0.31080
 C4076 C 0.40330 0.23692 0.31872
 C4077 C 0.38521 0.23768 0.31175
 C4078 C 0.38059 0.24964 0.29681
 C4079 C 0.39473 0.26020 0.28847
 C4080 C 0.41287 0.25928 0.29530
 C4081 C 0.36105 0.25144 0.29026
 C4082 C 0.35698 0.25425 0.27127
 C4083 C 0.33864 0.25596 0.26517
 C4084 C 0.32390 0.25467 0.27787
 C4085 C 0.32793 0.25200 0.29687
 C4086 C 0.34628 0.25053 0.30301
 H4087 H 0.43900 0.27869 0.31478
 H4088 H 0.46699 0.28169 0.33326
 H4089 H 0.46530 0.22314 0.34697
 H4090 H 0.43764 0.21979 0.32749
 H4091 H 0.40611 0.22820 0.33079
 H4092 H 0.37478 0.22903 0.31825
 H4093 H 0.39172 0.26965 0.27702
 H4094 H 0.42335 0.26776 0.28866
 H4095 H 0.36794 0.25475 0.26101
 H4096 H 0.33601 0.25778 0.25040
 H4097 H 0.31688 0.25104 0.30703
 H4098 H 0.34887 0.24881 0.31779
 C4099 C 0.93996 0.74885 0.82473
 C4100 C 0.94784 0.73256 0.83251
 C4101 C 0.96433 0.73338 0.84279
 C4102 C 0.97317 0.75049 0.84550
 C4103 C 0.96591 0.76652 0.83678
 C4104 C 0.94948 0.76574 0.82661
 C4105 C 0.92128 0.74871 0.81595
 C4106 C 0.91710 0.76062 0.80084
 C4107 C 0.89902 0.76210 0.79400
 C4108 C 0.88467 0.75153 0.80194
 C4109 C 0.88899 0.73910 0.81659
 C4110 C 0.90704 0.73776 0.82356
 C4111 C 0.86529 0.75360 0.79509
 C4112 C 0.85027 0.75251 0.80753
 C4113 C 0.83204 0.75387 0.80100
 C4114 C 0.82842 0.75660 0.78193
 C4115 C 0.84342 0.75821 0.76957
 C4116 C 0.86162 0.75661 0.77605
 H4117 H 0.94102 0.71927 0.83104
 H4118 H 0.96961 0.72081 0.84940
 H4119 H 0.97264 0.77986 0.83833
 H4120 H 0.94379 0.77860 0.82100
 H4121 H 0.92778 0.76904 0.79445
 H4122 H 0.89622 0.77192 0.78280
 H4123 H 0.87837 0.73046 0.82278
 H4124 H 0.90969 0.72860 0.83534
 H4125 H 0.85258 0.75062 0.82233
 H4126 H 0.82079 0.75266 0.81089
 H4127 H 0.84112 0.76008 0.75475
 H4128 H 0.87279 0.75725 0.76603
   
