data_POSCAR
  _audit_creation_date              2014-09-24
  _audit_creation_method            'ToBaCCo'
  _symmetry_space_group_name_H-M    'P1'
  _symmetry_Int_Tables_number       1
  _symmetry_cell_setting            triclinic
  loop_
  _symmetry_equiv_pos_as_xyz
 x,y,z
_cell_length_a 43.9257
_cell_length_b 44.6696
_cell_length_c 53.9609
_cell_angle_alpha 89.243700
_cell_angle_beta 90.032600
_cell_angle_gamma 89.958200
loop_
  _atom_site_label
  _atom_site_type_symbol
  _atom_site_fract_x
  _atom_site_fract_y
  _atom_site_fract_z
B1 B 0.25169 0.23198 0.27107
 B2 B 0.21633 0.22531 0.26073
 B3 B 0.22724 0.26067 0.26627
 B4 B 0.26414 0.26452 0.25807
 B5 B 0.27585 0.23085 0.24706
 B6 B 0.24604 0.20634 0.24884
 B7 B 0.22993 0.25178 0.21704
 B8 B 0.26548 0.25844 0.22719
 B9 B 0.25445 0.22310 0.22180
 B10 B 0.21770 0.21931 0.23003
 B11 B 0.20596 0.25299 0.24102
 B12 B 0.23573 0.27754 0.23919
 B13 B 0.73947 0.77196 0.27107
 B14 B 0.77500 0.78234 0.26345
 B15 B 0.76858 0.74745 0.27421
 B16 B 0.73462 0.73563 0.26322
 B17 B 0.72030 0.76403 0.24515
 B18 B 0.74558 0.79306 0.24525
 B19 B 0.77386 0.74541 0.22438
 B20 B 0.73836 0.73451 0.23219
 B21 B 0.74478 0.76958 0.22139
 B22 B 0.77873 0.78132 0.23240
 B23 B 0.79298 0.75322 0.25054
 B24 B 0.76802 0.72394 0.25009
 B25 B 0.74725 0.23097 -0.22039
 B26 B 0.73835 0.26590 -0.23069
 B27 B 0.77492 0.25655 -0.22478
 B28 B 0.78075 0.22098 -0.23330
 B29 B 0.74721 0.20794 -0.24462
 B30 B 0.72069 0.23569 -0.24278
 B31 B 0.76582 0.25462 -0.27429
 B32 B 0.77458 0.21992 -0.26412
 B33 B 0.73808 0.22895 -0.26982
 B34 B 0.73227 0.26480 -0.26141
 B35 B 0.76607 0.27785 -0.24999
 B36 B 0.79230 0.24975 -0.25200
 B37 B 0.25158 0.76658 -0.27171
 B38 B 0.21624 0.77342 -0.26138
 B39 B 0.22711 0.73798 -0.26672
 B40 B 0.26404 0.73412 -0.25852
 B41 B 0.27581 0.76786 -0.24772
 B42 B 0.24602 0.79243 -0.24962
 B43 B 0.22994 0.74731 -0.21756
 B44 B 0.26545 0.74045 -0.22768
 B45 B 0.25446 0.77586 -0.22250
 B46 B 0.21772 0.77968 -0.23074
 B47 B 0.20591 0.74593 -0.24150
 B48 B 0.23565 0.72132 -0.23954
 B49 B 1.22993 1.25623 0.73105
 B50 B 1.22443 1.22064 0.74092
 B51 B 1.25975 1.23265 0.73371
 B52 B 1.26351 1.26852 0.74278
 B53 B 1.22977 1.27881 0.75571
 B54 B 1.20537 1.24911 0.75445
 B55 B 1.25341 1.23249 0.78348
 B56 B 1.25918 1.26801 0.77400
 B57 B 1.22376 1.25635 0.78071
 B58 B 1.22013 1.22041 0.77176
 B59 B 1.25402 1.21016 0.75881
 B60 B 1.27822 1.23998 0.76035
 B61 B 0.77286 0.75028 0.77808
 B62 B 0.73712 0.74219 0.76948
 B63 B 0.74671 0.77785 0.77507
 B64 B 0.78261 0.78360 0.76526
 B65 B 0.79509 0.75091 0.75306
 B66 B 0.76673 0.72496 0.75565
 B67 B 0.74625 0.77052 0.72559
 B68 B 0.78200 0.77863 0.73440
 B69 B 0.77243 0.74298 0.72864
 B70 B 0.73641 0.73711 0.73853
 B71 B 0.72388 0.76994 0.75081
 B72 B 0.75233 0.79588 0.74803
 B73 B 1.23011 0.74334 0.27039
 B74 B 1.22498 0.77908 0.26077
 B75 B 1.26016 0.76661 0.26795
 B76 B 1.26357 0.73081 0.25861
 B77 B 1.22973 0.72104 0.24555
 B78 B 1.20564 0.75099 0.24700
 B79 B 1.25389 0.76740 0.21817
 B80 B 1.25927 0.73171 0.22739
 B81 B 1.22398 0.74386 0.22072
 B82 B 1.22072 0.77972 0.22994
 B83 B 1.25469 0.78943 0.24302
 B84 B 1.27859 0.75936 0.24128
 B85 B 0.77442 1.24884 0.22144
 B86 B 0.73856 1.25624 0.23022
 B87 B 0.74846 1.22102 0.22326
 B88 B 0.78440 1.21494 0.23297
 B89 B 0.79659 1.24696 0.24649
 B90 B 0.76800 1.27283 0.24482
 B91 B 0.74781 1.22550 0.27299
 B92 B 0.78360 1.21811 0.26398
 B93 B 0.77382 1.25331 0.27112
 B94 B 0.73770 1.25952 0.26139
 B95 B 0.72547 1.22739 0.24777
 B96 B 0.75415 1.20155 0.24953
 N97 N 0.47007 1.03567 -0.04217
 N98 N 0.44768 1.04188 -0.05775
 N99 N 0.53437 1.05471 -0.02482
 N100 N 0.55653 1.07432 -0.02809
 N101 N 0.53427 1.03512 -0.04273
 N102 N 0.55642 1.04076 -0.05862
 N103 N 0.47046 1.05494 -0.02402
 N104 N 0.44861 1.07496 -0.02688
 C105 C 0.43441 1.06640 -0.04790
 C106 C 0.57022 1.06521 -0.04920
 N107 N 0.53613 1.02775 0.04436
 N108 N 0.55900 1.03108 0.06001
 N109 N 0.47135 1.05019 0.02932
 N110 N 0.44869 1.06867 0.03420
 N111 N 0.47205 1.02804 0.04554
 N112 N 0.44993 1.03077 0.06183
 N113 N 0.53536 1.05005 0.02829
 N114 N 0.55755 1.06912 0.03253
 Mn115 Mn 0.50283 1.05282 0.00223
 C116 C 0.57226 1.05697 0.05226
 C117 C 0.43545 1.05614 0.05452
 N118 N 0.53373 0.97079 -0.04570
 N119 N 0.55631 0.96748 -0.06160
 N120 N 0.46922 0.94944 -0.02901
 N121 N 0.44653 0.93096 -0.03375
 N122 N 0.46966 0.97162 -0.04519
 N123 N 0.44732 0.96893 -0.06130
 N124 N 0.53323 0.94847 -0.02965
 N125 N 0.55535 0.92936 -0.03417
 Mn126 Mn 0.50198 1.00332 -0.04425
 C127 C 0.56966 0.94153 -0.05407
 C128 C 0.43295 0.94358 -0.05390
 N129 N 0.47124 0.96390 0.04254
 N130 N 0.44953 0.95790 0.05879
 N131 N 0.53435 0.94375 0.02344
 N132 N 0.55598 0.92346 0.02621
 N133 N 0.53550 0.96333 0.04134
 N134 N 0.55810 0.95702 0.05668
 N135 N 0.47050 0.94470 0.02435
 N136 N 0.44856 0.92496 0.02782
 Mn137 Mn 0.50380 0.99574 0.04376
 Mn138 Mn 0.50175 0.94625 -0.00275
 Cl139 Cl 0.50259 0.99953 -0.00025
 C140 C 0.43548 0.93360 0.04928
 C141 C 0.57078 0.93216 0.04693
 N142 N 1.05346 0.52867 0.52795
 N143 N 1.07500 0.54770 0.53441
 N144 N 1.03223 0.46468 0.54289
 N145 N 1.03909 0.44449 0.56009
 N146 N 1.05372 0.46598 0.52596
 N147 N 1.07581 0.44689 0.53138
 N148 N 1.03191 0.52762 0.54481
 N149 N 1.03816 0.54603 0.56304
 C150 C 1.06492 0.55869 0.55621
 C151 C 1.06616 0.43328 0.55253
 N152 N 0.94535 0.46511 0.52539
 N153 N 0.92324 0.44600 0.53067
 N154 N 0.96609 0.52737 0.54454
 N155 N 0.95964 0.54622 0.56241
 N156 N 0.94473 0.52802 0.52750
 N157 N 0.92312 0.54723 0.53342
 N158 N 0.96613 0.46461 0.54293
 N159 N 0.95837 0.44552 0.56073
 Mn160 Mn 0.99911 0.49607 0.54396
 C161 C 0.93190 0.43361 0.55260
 C162 C 0.93292 0.55870 0.55512
 N163 N 1.05394 0.46940 0.47220
 N164 N 1.07557 0.45036 0.46588
 N165 N 1.03240 0.53342 0.45731
 N166 N 1.03925 0.55370 0.44018
 N167 N 1.05382 0.53210 0.47430
 N168 N 1.07586 0.55128 0.46901
 N169 N 1.03258 0.47050 0.45516
 N170 N 1.03900 0.45211 0.43697
 Mn171 Mn 1.05396 0.49902 0.50011
 C172 C 1.06570 0.43942 0.44398
 C173 C 1.06624 0.56495 0.44785
 N174 N 0.94493 0.53158 0.47398
 N175 N 0.92315 0.55118 0.46899
 N176 N 0.96686 0.47016 0.45487
 N177 N 0.96070 0.45148 0.43679
 N178 N 0.94554 0.46888 0.47190
 N179 N 0.92424 0.44948 0.46576
 N180 N 0.96645 0.53315 0.45712
 N181 N 0.95994 0.55399 0.44035
 Mn182 Mn 0.94493 0.49837 0.49969
 Mn183 Mn 0.99957 0.50185 0.45593
 Cl184 Cl 0.99940 0.49881 0.49993
 C185 C 0.93302 0.56532 0.44813
 C186 C 0.93420 0.43850 0.44394
 N187 N 1.05127 0.53044 0.02869
 N188 N 1.06991 0.55294 0.03282
 N189 N 1.03043 0.46598 0.04265
 N190 N 1.03572 0.44316 0.05787
 N191 N 1.05169 0.46777 0.02562
 N192 N 1.07208 0.44640 0.02885
 N193 N 1.02995 0.52908 0.04569
 N194 N 1.03344 0.55080 0.06184
 C195 C 1.05852 0.56551 0.05354
 C196 C 1.06172 0.43104 0.04891
 N197 N 0.94365 0.46720 0.02504
 N198 N 0.92359 0.44546 0.02819
 N199 N 0.96443 0.52852 0.04528
 N200 N 0.96011 0.54940 0.06195
 N201 N 0.94330 0.52997 0.02810
 N202 N 0.92392 0.55182 0.03268
 N203 N 0.96488 0.46562 0.04216
 N204 N 0.95999 0.44263 0.05726
 Mn205 Mn 0.99741 0.49726 0.04426
 C206 C 0.93423 0.43013 0.04824
 C207 C 0.93480 0.56381 0.05385
 N208 N 1.05204 0.47242 -0.02753
 N209 N 1.07089 0.45000 -0.03152
 N210 N 1.03090 0.53687 -0.04162
 N211 N 1.03627 0.55974 -0.05675
 N212 N 1.05192 0.53510 -0.02439
 N213 N 1.07224 0.55655 -0.02736
 N214 N 1.03104 0.47380 -0.04482
 N215 N 1.03491 0.45215 -0.06097
 Mn216 Mn 1.05203 0.50142 0.00060
 C217 C 1.05991 0.43749 -0.05242
 C218 C 1.06206 0.57193 -0.04749
 N219 N 0.94376 0.53489 -0.02527
 N220 N 0.92365 0.55658 -0.02852
 N221 N 0.96567 0.47394 -0.04530
 N222 N 0.96202 0.45314 -0.06213
 N223 N 0.94427 0.47208 -0.02839
 N224 N 0.92534 0.44998 -0.03333
 N225 N 0.96534 0.53677 -0.04205
 N226 N 0.96058 0.55989 -0.05706
 Mn227 Mn 0.94336 0.50102 -0.00014
 Mn228 Mn 0.99823 0.50541 -0.04375
 Cl229 Cl 0.99773 0.50127 0.00025
 C230 C 0.93457 0.57217 -0.04832
 C231 C 0.93683 0.43831 -0.05442
 N232 N 0.46174 1.05208 0.52788
 N233 N 0.44244 1.07345 0.53412
 N234 N 0.52576 1.03075 0.54507
 N235 N 0.54508 1.03699 0.56302
 N236 N 0.52570 1.05230 0.52823
 N237 N 0.54486 1.07372 0.53439
 N238 N 0.46178 1.03053 0.54471
 N239 N 0.44261 1.03677 0.56274
 C240 C 0.43031 1.06338 0.55577
 C241 C 0.55714 1.06368 0.55597
 N242 N 0.52671 0.94585 0.52680
 N243 N 0.54643 0.92436 0.53226
 N244 N 0.46197 0.96570 0.54384
 N245 N 0.44209 0.95830 0.56122
 N246 N 0.46263 0.94528 0.52654
 N247 N 0.44337 0.92342 0.53182
 N248 N 0.52595 0.96574 0.54452
 N249 N 0.54474 0.95799 0.56263
 Mn250 Mn 0.49386 0.99820 0.54469
 C251 C 0.55779 0.93244 0.55454
 C252 C 0.43037 0.93202 0.55333
 N253 N 0.52628 1.05434 0.47446
 N254 N 0.54605 1.07582 0.46913
 N255 N 0.46244 1.03367 0.45687
 N256 N 0.44281 1.04087 0.43921
 N257 N 0.46239 1.05406 0.47421
 N258 N 0.44295 1.07570 0.46867
 N259 N 0.52664 1.03381 0.45725
 N260 N 0.54682 1.04063 0.43997
 Mn261 Mn 0.49403 1.05340 0.50121
 C262 C 0.55904 1.06674 0.44769
 C263 C 0.43054 1.06698 0.44695
 N264 N 0.46279 0.94733 0.47291
 N265 N 0.44347 0.92600 0.46671
 N266 N 0.52688 0.96910 0.45640
 N267 N 0.54640 0.96292 0.43858
 N268 N 0.52676 0.94758 0.47322
 N269 N 0.54605 0.92618 0.46719
 N270 N 0.46288 0.96883 0.45604
 N271 N 0.44374 0.96259 0.43797
 Mn272 Mn 0.49473 0.94632 0.49987
 Mn273 Mn 0.49470 1.00137 0.45647
 Cl274 Cl 0.49434 0.99982 0.50056
 C275 C 0.43141 0.93602 0.44500
 C276 C 0.55851 0.93625 0.44571
 N277 N 1.03856 0.95442 0.46658
 N278 N 1.04247 0.94047 0.44547
 N279 N 1.05914 0.96290 0.52131
 N280 N 1.07427 0.95732 0.54199
 N281 N 1.03822 0.94240 0.51775
 N282 N 1.03880 0.92222 0.53578
 N283 N 1.06000 0.97441 0.46989
 N284 N 1.07927 0.97447 0.45112
 C285 C 1.06790 0.95324 0.43599
 C286 C 1.06151 0.93168 0.55064
 N287 N 1.03802 1.04617 0.53349
 N288 N 1.04181 1.06045 0.55447
 N289 N 1.05957 1.03758 0.47905
 N290 N 1.07493 1.04298 0.45847
 N291 N 1.03859 1.05812 0.48231
 N292 N 1.03937 1.07815 0.46419
 N293 N 1.05948 1.02611 0.53050
 N294 N 1.07865 1.02632 0.54935
 Mn295 Mn 1.06001 1.00024 0.50020
 C296 C 1.06719 1.04779 0.56422
 C297 C 1.06226 1.06857 0.44957
 N298 N 0.97287 0.94244 0.51735
 N299 N 0.97173 0.92222 0.53535
 N300 N 0.95203 0.97457 0.46925
 N301 N 0.93247 0.97429 0.45070
 N302 N 0.97336 0.95444 0.46605
 N303 N 0.96904 0.94001 0.44516
 N304 N 0.95201 0.96309 0.52058
 N305 N 0.93635 0.95764 0.54097
 Mn306 Mn 1.00577 0.94805 0.49183
 C307 C 0.94872 0.93192 0.54981
 C308 C 0.94349 0.95277 0.43572
 N309 N 0.97321 1.05815 0.48185
 N310 N 0.97284 1.07788 0.46346
 N311 N 0.95154 1.02612 0.52978
 N312 N 0.93153 1.02668 0.54798
 N313 N 0.97283 1.04623 0.53317
 N314 N 0.96805 1.06090 0.55386
 N315 N 0.95236 1.03754 0.47845
 N316 N 0.93753 1.04254 0.45758
 Mn317 Mn 1.00567 1.05254 0.50780
 Mn318 Mn 0.95160 1.00033 0.49953
 Cl319 Cl 1.00577 1.00029 0.49984
 C320 C 0.95033 1.06795 0.44860
 C321 C 0.94226 1.04834 0.56297
 N322 N 0.55965 0.53340 0.02595
 N323 N 0.58221 0.55137 0.03242
 N324 N 0.53739 0.47227 0.04588
 N325 N 0.54290 0.45419 0.06476
 N326 N 0.55924 0.47072 0.02934
 N327 N 0.58037 0.45146 0.03673
 N328 N 0.53739 0.53495 0.04215
 N329 N 0.54396 0.55420 0.05961
 C330 C 0.57171 0.56469 0.05322
 C331 C 0.56953 0.44108 0.05879
 N332 N 0.45061 0.47056 0.02917
 N333 N 0.42964 0.45101 0.03631
 N334 N 0.47220 0.53477 0.04215
 N335 N 0.46491 0.55299 0.06017
 N336 N 0.45011 0.53333 0.02577
 N337 N 0.42708 0.55052 0.03258
 N338 N 0.47230 0.47218 0.04585
 N339 N 0.46679 0.45391 0.06463
 Mn340 Mn 0.50484 0.50356 0.04403
 C341 C 0.44035 0.44058 0.05842
 C342 C 0.43699 0.56311 0.05388
 N343 N 0.55976 0.46702 -0.02453
 N344 N 0.58227 0.44887 -0.03082
 N345 N 0.53741 0.52812 -0.04451
 N346 N 0.54272 0.54644 -0.06326
 N347 N 0.55922 0.52972 -0.02793
 N348 N 0.58013 0.54927 -0.03516
 N349 N 0.53754 0.46545 -0.04077
 N350 N 0.54406 0.44600 -0.05810
 Mn351 Mn 0.55985 0.50022 0.00070
 C352 C 0.57176 0.43543 -0.05157
 C353 C 0.56919 0.55975 -0.05717
 N354 N 0.45060 0.52976 -0.02811
 N355 N 0.42953 0.54917 -0.03540
 N356 N 0.47237 0.46556 -0.04103
 N357 N 0.46514 0.44737 -0.05910
 N358 N 0.45024 0.46698 -0.02471
 N359 N 0.42724 0.44981 -0.03161
 N360 N 0.47236 0.52815 -0.04472
 N361 N 0.46679 0.54629 -0.06359
 Mn362 Mn 0.45004 0.50016 0.00053
 Mn363 Mn 0.50495 0.49679 -0.04278
 Cl364 Cl 0.50490 0.50018 0.00062
 C365 C 0.44025 0.55954 -0.05750
 C366 C 0.43721 0.43725 -0.05289
 C367 C 0.29659 1.16509 0.16537
 C368 C 0.31129 1.17070 0.18785
 C369 C 0.29801 1.18918 0.20532
 C370 C 0.26925 1.20227 0.20107
 C371 C 0.25417 1.19600 0.17869
 C372 C 0.26799 1.17805 0.16077
 C373 C 0.31169 1.14580 0.14716
 N374 N 0.30971 1.15157 0.12242
 N375 N 0.32598 1.13564 0.10639
 C376 C 0.34456 1.11319 0.11451
 N377 N 0.34594 1.10714 0.13919
 N378 N 0.32997 1.12318 0.15517
 C379 C 0.36479 1.09697 0.09739
 C380 C 0.37798 1.06971 0.10501
 C381 C 0.40012 1.05600 0.09056
 C382 C 0.40979 1.06936 0.06824
 C383 C 0.39574 1.09594 0.05999
 C384 C 0.37328 1.10959 0.07441
 H385 H 0.33346 1.16114 0.19181
 H386 H 0.31056 1.19293 0.22224
 H387 H 0.23188 1.20504 0.17486
 H388 H 0.25613 1.17382 0.14357
 H389 H 0.37171 1.05927 0.12251
 H390 H 0.41034 1.03537 0.09729
 H391 H 0.40266 1.10660 0.04276
 H392 H 0.36356 1.13062 0.06809
 C393 C 0.81686 0.69107 0.66908
 C394 C 0.83390 0.70589 0.68715
 C395 C 0.81967 0.72215 0.70554
 C396 C 0.78772 0.72458 0.70656
 C397 C 0.77043 0.71016 0.68828
 C398 C 0.78489 0.69352 0.66968
 C399 C 0.83315 0.67279 0.65048
 N400 N 0.81823 0.65817 0.63216
 N401 N 0.83354 0.64124 0.61616
 C402 C 0.86432 0.63823 0.61790
 N403 N 0.87907 0.65300 0.63610
 N404 N 0.86386 0.66987 0.65196
 C405 C 0.88176 0.61865 0.60100
 C406 C 0.91245 0.61201 0.60621
 C407 C 0.92903 0.59288 0.59108
 C408 C 0.91548 0.58010 0.57022
 C409 C 0.88502 0.58710 0.56459
 C410 C 0.86824 0.60610 0.57993
 H411 H 0.85852 0.70482 0.68733
 H412 H 0.83416 0.73305 0.71888
 H413 H 0.74583 0.71147 0.68846
 H414 H 0.77107 0.68236 0.65600
 H415 H 0.92367 0.62121 0.62228
 H416 H 0.95247 0.58795 0.59585
 H417 H 0.87400 0.57748 0.54860
 H418 H 0.84471 0.61084 0.57534
 C419 C 0.70732 0.81117 0.15300
 C420 C 0.68939 0.79216 0.16777
 C421 C 0.70145 0.77869 0.18902
 C422 C 0.73213 0.78269 0.19558
 C423 C 0.75043 0.80096 0.18015
 C424 C 0.73801 0.81539 0.15925
 C425 C 0.69283 0.82829 0.13263
 N426 N 0.70005 0.85748 0.12846
 N427 N 0.68399 0.87409 0.11243
 C428 C 0.66029 0.86205 0.09979
 N429 N 0.65363 0.83266 0.10352
 N430 N 0.66945 0.81617 0.11972
 C431 C 0.64020 0.88096 0.08414
 C432 C 0.62254 0.86806 0.06538
 C433 C 0.60083 0.88510 0.05255
 C434 C 0.59592 0.91518 0.05861
 C435 C 0.61419 0.92837 0.07682
 C436 C 0.63637 0.91149 0.08930
 H437 H 0.66546 0.78906 0.16369
 H438 H 0.68606 0.76637 0.20081
 H439 H 0.77412 0.80488 0.18456
 H440 H 0.75226 0.83009 0.14813
 H441 H 0.62510 0.84461 0.06097
 H442 H 0.58708 0.87440 0.03856
 H443 H 0.61094 0.95160 0.08172
 H444 H 0.64953 0.92198 0.10377
 C445 C 1.18706 0.29980 0.66537
 C446 C 1.17111 0.27902 0.68008
 C447 C 1.18518 0.26448 0.69994
 C448 C 1.21593 0.26968 0.70572
 C449 C 1.23246 0.28956 0.69033
 C450 C 1.21818 0.30445 0.67033
 C451 C 1.17022 0.31765 0.64633
 N452 N 1.18459 0.33723 0.63078
 N453 N 1.16868 0.35418 0.61481
 C454 C 1.13777 0.35236 0.61386
 N455 N 1.12355 0.33263 0.62926
 N456 N 1.13940 0.31568 0.64507
 C457 C 1.11952 0.37220 0.59725
 C458 C 1.08812 0.37578 0.60145
 C459 C 1.07082 0.39530 0.58670
 C460 C 1.08436 0.41143 0.56715
 C461 C 1.11558 0.40740 0.56247
 C462 C 1.13306 0.38814 0.57751
 H463 H 1.14718 0.27467 0.67691
 H464 H 1.17114 0.25032 0.71144
 H465 H 1.25614 0.29434 0.69418
 H466 H 1.23121 0.32031 0.65933
 H467 H 1.07691 0.36394 0.61652
 H468 H 1.04681 0.39792 0.59072
 H469 H 1.12663 0.41963 0.54754
 H470 H 1.15714 0.38580 0.57371
 C471 C 0.71295 1.18298 -0.15352
 C472 C 0.70361 1.21244 -0.15859
 C473 C 0.71538 1.22827 -0.17887
 C474 C 0.73734 1.21547 -0.19447
 C475 C 0.74812 1.18655 -0.18823
 C476 C 0.73589 1.17044 -0.16820
 C477 C 0.69695 1.16478 -0.13447
 N478 N 0.69764 1.13441 -0.13522
 N479 N 0.68058 1.11801 -0.11982
 C480 C 0.66223 1.13130 -0.10294
 N481 N 0.66207 1.16165 -0.10182
 N482 N 0.67899 1.17805 -0.11732
 C483 C 0.64097 1.11331 -0.08753
 C484 C 0.62608 1.12611 -0.06718
 C485 C 0.60379 1.11008 -0.05414
 C486 C 0.59568 1.08110 -0.06142
 C487 C 0.61117 1.06793 -0.08124
 C488 C 0.63374 1.08379 -0.09407
 H489 H 0.68608 1.22290 -0.14755
 H490 H 0.70677 1.25036 -0.18212
 H491 H 0.76507 1.17560 -0.19951
 H492 H 0.74383 1.14783 -0.16463
 H493 H 0.63125 1.14874 -0.06160
 H494 H 0.59225 1.12073 -0.03887
 H495 H 0.60548 1.04553 -0.08712
 H496 H 0.64473 1.07328 -0.10967
 C497 C 1.18698 0.69929 0.33571
 C498 C 1.21813 0.69472 0.33086
 C499 C 1.23249 0.70978 0.31100
 C500 C 1.21601 0.72977 0.29564
 C501 C 1.18523 0.73494 0.30133
 C502 C 1.17106 0.72021 0.32104
 C503 C 1.17010 0.68127 0.35459
 N504 N 1.13925 0.68306 0.35567
 N505 N 1.12342 0.66598 0.37138
 C506 C 1.13767 0.64631 0.38685
 N507 N 1.16860 0.64467 0.38606
 N508 N 1.18450 0.66174 0.37020
 C509 C 1.11945 0.62636 0.40338
 C510 C 1.13301 0.61039 0.42313
 C511 C 1.11558 0.59103 0.43809
 C512 C 1.08439 0.58692 0.43333
 C513 C 1.07083 0.60308 0.41378
 C514 C 1.08807 0.62270 0.39910
 H515 H 1.23114 0.67879 0.34183
 H516 H 1.25619 0.70503 0.30723
 H517 H 1.17124 0.74925 0.28987
 H518 H 1.14712 0.72452 0.32415
 H519 H 1.15707 0.61278 0.42699
 H520 H 1.12666 0.57878 0.45301
 H521 H 1.04684 0.60041 0.40970
 H522 H 1.07685 0.63455 0.38404
 C523 C 0.29654 0.83364 -0.16593
 C524 C 0.31183 0.82714 -0.18798
 C525 C 0.29856 0.80874 -0.20553
 C526 C 0.26927 0.79669 -0.20179
 C527 C 0.25367 0.80384 -0.17985
 C528 C 0.26743 0.82168 -0.16185
 C529 C 0.31148 0.85292 -0.14765
 N530 N 0.30853 0.84769 -0.12290
 N531 N 0.32441 0.86373 -0.10669
 C532 C 0.34352 0.88577 -0.11466
 N533 N 0.34591 0.89127 -0.13937
 N534 N 0.33034 0.87510 -0.15552
 C535 C 0.36318 0.90222 -0.09728
 C536 C 0.37603 0.92966 -0.10472
 C537 C 0.39778 0.94358 -0.09004
 C538 C 0.40742 0.93024 -0.06769
 C539 C 0.39363 0.90348 -0.05960
 C540 C 0.37152 0.88963 -0.07424
 H541 H 0.33441 0.83594 -0.19151
 H542 H 0.31155 0.80420 -0.22208
 H543 H 0.23097 0.79564 -0.17645
 H544 H 0.25512 0.82663 -0.14501
 H545 H 0.36983 0.94005 -0.12226
 H546 H 0.40780 0.96434 -0.09666
 H547 H 0.40055 0.89284 -0.04235
 H548 H 0.36202 0.86845 -0.06807
 C549 C 0.81843 0.30424 0.33118
 C550 C 0.78643 0.30382 0.32943
 C551 C 0.77188 0.28719 0.31090
 C552 C 0.78907 0.27060 0.29388
 C553 C 0.82103 0.27085 0.29614
 C554 C 0.83536 0.28715 0.31449
 C555 C 0.83482 0.32303 0.34937
 N556 N 0.86555 0.32575 0.34788
 N557 N 0.88079 0.34306 0.36342
 C558 C 0.86604 0.35844 0.38127
 N559 N 0.83525 0.35565 0.38297
 N560 N 0.81992 0.33833 0.36729
 C561 C 0.88344 0.37832 0.39795
 C562 C 0.87000 0.39057 0.41917
 C563 C 0.88667 0.40965 0.43447
 C564 C 0.91695 0.41711 0.42867
 C565 C 0.93042 0.40473 0.40760
 C566 C 0.91393 0.38546 0.39249
 H567 H 0.77269 0.31682 0.34200
 H568 H 0.74732 0.28790 0.30959
 H569 H 0.83541 0.25844 0.28365
 H570 H 0.85999 0.28661 0.31528
 H571 H 0.84662 0.38543 0.42395
 H572 H 0.87570 0.41896 0.45061
 H573 H 0.95372 0.41004 0.40269
 H574 H 0.92504 0.37650 0.37629
 C575 C 1.18453 0.29050 0.15088
 C576 C 1.17544 0.26251 0.16036
 C577 C 1.19113 0.24921 0.18022
 C578 C 1.21612 0.26373 0.19122
 C579 C 1.22503 0.29177 0.18145
 C580 C 1.20995 0.30460 0.16122
 C581 C 1.16612 0.30648 0.13199
 N582 N 1.17901 0.32782 0.11726
 N583 N 1.16199 0.34452 0.10204
 C584 C 1.13133 0.34079 0.10112
 N585 N 1.11846 0.31917 0.11562
 N586 N 1.13554 0.30227 0.13069
 C587 C 1.11237 0.36150 0.08606
 C588 C 1.08171 0.36658 0.09222
 C589 C 1.06493 0.38881 0.07981
 C590 C 1.07837 0.40597 0.06078
 C591 C 1.10854 0.39992 0.05388
 C592 C 1.12544 0.37808 0.06651
 H593 H 1.15576 0.25125 0.15281
 H594 H 1.18277 0.22811 0.18757
 H595 H 1.24275 0.30476 0.19011
 H596 H 1.21706 0.32653 0.15467
 H597 H 1.07106 0.35422 0.10728
 H598 H 1.04163 0.39293 0.08540
 H599 H 1.11946 0.41275 0.03921
 H600 H 1.14895 0.37454 0.06124
 C601 C 0.69542 0.80895 0.66171
 C602 C 0.72094 0.82374 0.67115
 C603 C 0.73779 0.81104 0.69060
 C604 C 0.73057 0.78246 0.70035
 C605 C 0.70575 0.76709 0.68992
 C606 C 0.68812 0.78038 0.67108
 C607 C 0.67508 0.82462 0.64391
 N608 N 0.64445 0.82426 0.64733
 N609 N 0.62616 0.84055 0.63274
 C610 C 0.63774 0.85755 0.61393
 N611 N 0.66834 0.85756 0.61024
 N612 N 0.68667 0.84164 0.62510
 C613 C 0.61752 0.87672 0.59855
 C614 C 0.62118 0.87862 0.57271
 C615 C 0.60157 0.89652 0.55828
 C616 C 0.57879 0.91371 0.56958
 C617 C 0.57562 0.91229 0.59546
 C618 C 0.59445 0.89358 0.60976
 H619 H 0.72670 0.84604 0.66457
 H620 H 0.75557 0.82445 0.69871
 H621 H 0.69886 0.74541 0.69712
 H622 H 0.66840 0.76859 0.66415
 H623 H 0.63880 0.86579 0.56366
 H624 H 0.60442 0.89726 0.53835
 H625 H 0.55810 0.92517 0.60459
 H626 H 0.59131 0.89262 0.62967
 C627 C 1.18500 0.71011 -0.15068
 C628 C 1.21017 0.69558 -0.16103
 C629 C 1.22506 0.70787 -0.18156
 C630 C 1.21619 0.73579 -0.19163
 C631 C 1.19138 0.75068 -0.18069
 C632 C 1.17593 0.73794 -0.16051
 C633 C 1.16673 0.69472 -0.13143
 N634 N 1.13624 0.69943 -0.12989
 N635 N 1.11917 0.68302 -0.11449
 C636 C 1.13197 0.66142 -0.09989
 N637 N 1.16255 0.65722 -0.10105
 N638 N 1.17956 0.67343 -0.11659
 C639 C 1.11292 0.64111 -0.08462
 C640 C 1.12596 0.62454 -0.06503
 C641 C 1.10897 0.60286 -0.05233
 C642 C 1.07876 0.59699 -0.05924
 C643 C 1.06534 0.61422 -0.07826
 C644 C 1.08221 0.63628 -0.09072
 H645 H 1.21725 0.67374 -0.15421
 H646 H 1.24261 0.69461 -0.19016
 H647 H 1.18299 0.77165 -0.18829
 H648 H 1.15640 0.74950 -0.15299
 H649 H 1.14951 0.62791 -0.05982
 H650 H 1.11985 0.58997 -0.03767
 H651 H 1.04201 0.61023 -0.08383
 H652 H 1.07158 0.64864 -0.10580
 C653 C 0.69995 1.18277 0.33675
 C654 C 0.69565 1.21344 0.33145
 C655 C 0.71188 1.22763 0.31215
 C656 C 0.73297 1.21155 0.29786
 C657 C 0.73788 1.18115 0.30393
 C658 C 0.72182 1.16710 0.32308
 C659 C 0.68072 1.16635 0.35517
 N660 N 0.68125 1.13594 0.35613
 N661 N 0.66320 1.12073 0.37158
 C662 C 0.64379 1.13518 0.38691
 N663 N 0.64339 1.16565 0.38620
 N664 N 0.66140 1.18092 0.37060
 C665 C 0.62285 1.11775 0.40331
 C666 C 0.60731 1.13130 0.42303
 C667 C 0.58714 1.11462 0.43793
 C668 C 0.58173 1.08421 0.43316
 C669 C 0.59741 1.07068 0.41360
 C670 C 0.61784 1.08715 0.39899
 H671 H 0.67893 1.22622 0.34158
 H672 H 0.70694 1.25085 0.30784
 H673 H 0.75351 1.16764 0.29335
 H674 H 0.72599 1.14354 0.32664
 H675 H 0.61072 1.15477 0.42693
 H676 H 0.57531 1.12567 0.45285
 H677 H 0.59378 1.04728 0.40949
 H678 H 0.62929 1.07594 0.38396
 C679 C 0.82700 0.70579 0.16309
 C680 C 0.79728 0.71625 0.15870
 C681 C 0.78062 0.72970 0.17768
 C682 C 0.79308 0.73247 0.20161
 C683 C 0.82318 0.72263 0.20557
 C684 C 0.83989 0.70970 0.18661
 C685 C 0.84417 0.68925 0.14401
 N686 N 0.87377 0.68191 0.14798
 N687 N 0.88879 0.66486 0.13210
 C688 C 0.87489 0.65434 0.11152
 N689 N 0.84539 0.66211 0.10725
 N690 N 0.83033 0.67924 0.12317
 C691 C 0.89106 0.63314 0.09523
 C692 C 0.87686 0.62132 0.07414
 C693 C 0.89139 0.59931 0.06020
 C694 C 0.92026 0.58862 0.06719
 C695 C 0.93484 0.60108 0.08775
 C696 C 0.92046 0.62314 0.10156
 H697 H 0.78668 0.71355 0.14075
 H698 H 0.75750 0.73651 0.17378
 H699 H 0.83399 0.72420 0.22352
 H700 H 0.86270 0.70189 0.19073
 H701 H 0.85428 0.62859 0.06870
 H702 H 0.87970 0.59012 0.04434
 H703 H 0.95721 0.59344 0.09344
 H704 H 0.93218 0.63179 0.11761
 C705 C 0.31187 1.18897 0.67356
 C706 C 0.28447 1.20388 0.66798
 C707 C 0.26831 1.21886 0.68656
 C708 C 0.27939 1.21957 0.71108
 C709 C 0.30757 1.20567 0.71612
 C710 C 0.32343 1.19057 0.69774
 C711 C 0.32789 1.17041 0.65500
 N712 N 0.34741 1.14862 0.66272
 N713 N 0.36182 1.13150 0.64649
 C714 C 0.35752 1.13544 0.62176
 N715 N 0.33803 1.15731 0.61392
 N716 N 0.32337 1.17435 0.63023
 C717 C 0.37421 1.11631 0.60400
 C718 C 0.37889 1.12545 0.57925
 C719 C 0.39666 1.10805 0.56330
 C720 C 0.40967 1.08099 0.57172
 C721 C 0.40404 1.07141 0.59617
 C722 C 0.38672 1.08892 0.61214
 H723 H 0.27486 1.20289 0.64953
 H724 H 0.24646 1.22840 0.68184
 H725 H 0.31716 1.20535 0.73460
 H726 H 0.34462 1.17961 0.70267
 H727 H 0.36958 1.14645 0.57242
 H728 H 0.40058 1.11596 0.54452
 H729 H 0.41368 1.05067 0.60323
 H730 H 0.38335 1.08105 0.63101
 C731 C 0.83049 0.29785 -0.16573
 C732 C 0.84132 0.29619 -0.19014
 C733 C 0.82390 0.28279 -0.20850
 C734 C 0.79521 0.27029 -0.20299
 C735 C 0.78491 0.27117 -0.17833
 C736 C 0.80222 0.28492 -0.15996
 C737 C 0.84800 0.31441 -0.14692
 N738 N 0.83541 0.32142 -0.12474
 N739 N 0.85049 0.33827 -0.10865
 C740 C 0.87879 0.34872 -0.11407
 N741 N 0.89151 0.34127 -0.13606
 N742 N 0.87644 0.32451 -0.15214
 C743 C 0.89471 0.36949 -0.09729
 C744 C 0.92361 0.38065 -0.10367
 C745 C 0.93754 0.40244 -0.08931
 C746 C 0.92295 0.41353 -0.06822
 C747 C 0.89462 0.40163 -0.06118
 C748 C 0.88059 0.37981 -0.07561
 H749 H 0.86297 0.30600 -0.19531
 H750 H 0.83294 0.28286 -0.22714
 H751 H 0.76295 0.26252 -0.17319
 H752 H 0.79316 0.28587 -0.14133
 H753 H 0.93526 0.37310 -0.12013
 H754 H 0.95953 0.41103 -0.09505
 H755 H 0.88296 0.40974 -0.04491
 H756 H 0.85837 0.37162 -0.07013
 C757 C 0.31245 0.80980 0.32817
 C758 C 0.32426 0.80767 0.30412
 C759 C 0.30837 0.79262 0.28575
 C760 C 0.27990 0.77929 0.29067
 C761 C 0.26862 0.78037 0.31511
 C762 C 0.28481 0.79533 0.33369
 C763 C 0.32845 0.82853 0.34660
 N764 N 0.32380 0.82500 0.37139
 N765 N 0.33849 0.84219 0.38757
 C766 C 0.35812 0.86381 0.37957
 N767 N 0.36255 0.86734 0.35482
 N768 N 0.34812 0.85007 0.33873
 C769 C 0.37490 0.88305 0.39718
 C770 C 0.38759 0.91025 0.38882
 C771 C 0.40505 0.92780 0.40465
 C772 C 0.41064 0.91844 0.42917
 C773 C 0.39744 0.89159 0.43780
 C774 C 0.37953 0.87416 0.42200
 H775 H 0.34566 0.81824 0.29927
 H776 H 0.31815 0.79259 0.26735
 H777 H 0.24658 0.77120 0.31971
 H778 H 0.27503 0.79671 0.35205
 H779 H 0.38426 0.91792 0.36989
 H780 H 0.41484 0.94838 0.39744
 H781 H 0.40132 0.88386 0.45664
 H782 H 0.37009 0.85331 0.42898
 C783 C 1.14924 1.17754 0.30758
 C784 C 1.16677 1.20073 0.31729
 C785 C 1.18801 1.21553 0.30258
 C786 C 1.19145 1.20846 0.27741
 C787 C 1.17346 1.18532 0.26762
 C788 C 1.15281 1.16971 0.28270
 C789 C 1.12920 1.16053 0.32430
 N790 N 1.12796 1.13021 0.32333
 N791 N 1.11361 1.11458 0.34097
 C792 C 1.09980 1.12873 0.36006
 N793 N 1.10029 1.15908 0.36053
 N794 N 1.11485 1.17467 0.34307
 C795 C 1.08751 1.11178 0.38139
 C796 C 1.06706 1.12556 0.39767
 C797 C 1.05846 1.11119 0.41964
 C798 C 1.07046 1.08297 0.42587
 C799 C 1.09014 1.06872 0.40928
 C800 C 1.09846 1.08295 0.38710
 H801 H 1.16506 1.20655 0.33667
 H802 H 1.20239 1.23175 0.31145
 H803 H 1.17567 1.17877 0.24847
 H804 H 1.13964 1.15159 0.27496
 H805 H 1.05818 1.14772 0.39365
 H806 H 1.04297 1.12250 0.43201
 H807 H 1.09939 1.04677 0.41357
 H808 H 1.11440 1.07190 0.37495
 C809 C 0.67986 0.68919 -0.17864
 C810 C 0.69910 0.71171 -0.16999
 C811 C 0.71626 0.72880 -0.18643
 C812 C 0.71500 0.72395 -0.21215
 C813 C 0.69504 0.70186 -0.22093
 C814 C 0.67754 0.68470 -0.20432
 C815 C 0.66315 0.67029 -0.16058
 N816 N 0.63982 0.65252 -0.16779
 N817 N 0.62495 0.63568 -0.15124
 C818 C 0.63291 0.63581 -0.12689
 N819 N 0.65634 0.65345 -0.11974
 N820 N 0.67109 0.67036 -0.13625
 C821 C 0.61642 0.61713 -0.10854
 C822 C 0.62838 0.61202 -0.08464
 C823 C 0.61295 0.59366 -0.06761
 C824 C 0.58524 0.58039 -0.07418
 C825 C 0.57305 0.58603 -0.09786
 C826 C 0.58852 0.60407 -0.11489
 H827 H 0.70127 0.71600 -0.15036
 H828 H 0.73131 0.74523 -0.17856
 H829 H 0.69330 0.69741 -0.24055
 H830 H 0.66279 0.66747 -0.21154
 H831 H 0.64988 0.62181 -0.07921
 H832 H 0.62280 0.58964 -0.04946
 H833 H 0.55166 0.57613 -0.10346
 H834 H 0.57857 0.60775 -0.13304
 C835 C 0.82556 1.15494 0.69051
 C836 C 0.83338 1.15921 0.71541
 C837 C 0.81705 1.17945 0.72984
 C838 C 0.79291 1.19628 0.71951
 C839 C 0.78578 1.19224 0.69434
 C840 C 0.80154 1.17154 0.68017
 C841 C 0.84296 1.13429 0.67485
 N842 N 0.82946 1.12125 0.65512
 N843 N 0.84552 1.10434 0.63979
 C844 C 0.87577 1.09998 0.64345
 N845 N 0.88925 1.11277 0.66335
 N846 N 0.87311 1.12948 0.67885
 C847 C 0.89388 1.08379 0.62491
 C848 C 0.92492 1.09026 0.62163
 C849 C 0.94097 1.07806 0.60182
 C850 C 0.92636 1.05881 0.58525
 C851 C 0.89582 1.05102 0.58935
 C852 C 0.87964 1.06361 0.60887
 H853 H 0.85198 1.14675 0.72377
 H854 H 0.82366 1.18202 0.74901
 H855 H 0.76865 1.20564 0.68512
 H856 H 0.79552 1.16922 0.66082
 H857 H 0.93644 1.10581 0.63367
 H858 H 0.96460 1.08422 0.59913
 H859 H 0.88408 1.03613 0.57688
 H860 H 0.85579 1.05808 0.61109
 C861 C 0.30980 0.67184 0.17672
 C862 C 0.28753 0.69157 0.16770
 C863 C 0.27163 0.70994 0.18372
 C864 C 0.27678 0.70887 0.20950
 C865 C 0.29881 0.68867 0.21867
 C866 C 0.31531 0.67046 0.20242
 C867 C 0.32776 0.65408 0.15892
 N868 N 0.35498 0.64189 0.16542
 N869 N 0.37186 0.62772 0.14873
 C870 C 0.36221 0.62511 0.12489
 N871 N 0.33482 0.63694 0.11852
 N872 N 0.31802 0.65119 0.13516
 C873 C 0.38141 0.61019 0.10613
 C874 C 0.36962 0.60284 0.08270
 C875 C 0.38778 0.58819 0.06528
 C876 C 0.41809 0.58087 0.07094
 C877 C 0.43003 0.58894 0.09408
 C878 C 0.41189 0.60328 0.11150
 H879 H 0.28296 0.69363 0.14803
 H880 H 0.25587 0.72567 0.17543
 H881 H 0.30376 0.68729 0.23830
 H882 H 0.33244 0.65545 0.20993
 H883 H 0.34622 0.60794 0.07795
 H884 H 0.37799 0.58216 0.04762
 H885 H 0.45334 0.58364 0.09901
 H886 H 0.42181 0.60888 0.12921
 C887 C 1.14893 0.82105 0.69176
 C888 C 1.15267 0.82900 0.71660
 C889 C 1.17338 0.81344 0.73168
 C890 C 1.19127 0.79018 0.72194
 C891 C 1.18762 0.78290 0.69682
 C892 C 1.16633 0.79770 0.68210
 C893 C 1.12890 0.83814 0.67504
 N894 N 1.12724 0.86842 0.67639
 N895 N 1.11278 0.88421 0.65888
 C896 C 1.09928 0.87026 0.63954
 N897 N 1.10020 0.83994 0.63868
 N898 N 1.11486 0.82420 0.65601
 C899 C 1.08686 0.88748 0.61839
 C900 C 1.06663 0.87382 0.60187
 C901 C 1.05793 0.88853 0.58006
 C902 C 1.06964 0.91696 0.57424
 C903 C 1.08909 0.93108 0.59108
 C904 C 1.09748 0.91652 0.61310
 H905 H 1.13961 0.84722 0.72431
 H906 H 1.17573 0.82013 0.75078
 H907 H 1.20190 0.76655 0.68800
 H908 H 1.16449 0.79176 0.66276
 H909 H 1.05800 0.85150 0.60556
 H910 H 1.04264 0.87730 0.56747
 H911 H 1.09812 0.95318 0.58710
 H912 H 1.11325 0.92749 0.62545
 C913 C 0.68150 0.31139 0.17958
 C914 C 0.67889 0.31475 0.20539
 C915 C 0.69636 0.29693 0.22162
 C916 C 0.71655 0.27535 0.21232
 C917 C 0.71815 0.27173 0.18646
 C918 C 0.70104 0.28942 0.17042
 C919 C 0.66477 0.33080 0.16187
 N920 N 0.67294 0.33153 0.13760
 N921 N 0.65807 0.34865 0.12130
 C922 C 0.63427 0.36573 0.12858
 N923 N 0.62609 0.36512 0.15289
 N924 N 0.64109 0.34804 0.16925
 C925 C 0.61758 0.38447 0.11036
 C926 C 0.58961 0.39738 0.11674
 C927 C 0.57387 0.41521 0.09968
 C928 C 0.58587 0.42078 0.07593
 C929 C 0.61369 0.40773 0.06936
 C930 C 0.62938 0.38960 0.08641
 H931 H 0.66391 0.33154 0.21299
 H932 H 0.69439 0.30046 0.24137
 H933 H 0.73337 0.25575 0.17818
 H934 H 0.70346 0.28597 0.15070
 H935 H 0.57979 0.39370 0.13493
 H936 H 0.55241 0.42498 0.10528
 H937 H 0.62341 0.41171 0.05117
 H938 H 0.65093 0.37994 0.08094
 C939 C 0.82742 0.84762 0.30738
 C940 C 0.83294 0.84488 0.28192
 C941 C 0.81608 0.82460 0.26788
 C942 C 0.79389 0.80620 0.27920
 C943 C 0.78933 0.80860 0.30491
 C944 C 0.80543 0.82938 0.31869
 C945 C 0.84491 0.86857 0.32266
 N946 N 0.83152 0.88171 0.34239
 N947 N 0.84768 0.89856 0.35768
 C948 C 0.87794 0.90273 0.35401
 N949 N 0.89132 0.88986 0.33409
 N950 N 0.87506 0.87323 0.31860
 C951 C 0.89609 0.91867 0.37269
 C952 C 0.92687 0.91141 0.37656
 C953 C 0.94266 0.92315 0.39673
 C954 C 0.92806 0.94273 0.41305
 C955 C 0.89786 0.95135 0.40832
 C956 C 0.88195 0.93922 0.38845
 H957 H 0.85001 0.85865 0.27286
 H958 H 0.82071 0.82323 0.24824
 H959 H 0.77365 0.79413 0.31475
 H960 H 0.80125 0.83057 0.33844
 H961 H 0.93829 0.89553 0.36475
 H962 H 0.96603 0.91636 0.39990
 H963 H 0.88612 0.96653 0.42055
 H964 H 0.85830 0.94536 0.38578
 C965 C 0.31023 0.32788 -0.17562
 C966 C 0.31581 0.32894 -0.20131
 C967 C 0.29917 0.31072 -0.21748
 C968 C 0.27693 0.29085 -0.20823
 C969 C 0.27174 0.29010 -0.18245
 C970 C 0.28777 0.30846 -0.16653
 C971 C 0.32824 0.34571 -0.15788
 N972 N 0.31846 0.34885 -0.13416
 N973 N 0.33523 0.36320 -0.11756
 C974 C 0.36267 0.37489 -0.12392
 N975 N 0.37237 0.37203 -0.14772
 N976 N 0.35550 0.35775 -0.16437
 C977 C 0.38181 0.38996 -0.10520
 C978 C 0.41226 0.39699 -0.11055
 C979 C 0.43033 0.41143 -0.09314
 C980 C 0.41837 0.41948 -0.07000
 C981 C 0.38810 0.41206 -0.06436
 C982 C 0.37001 0.39732 -0.08177
 H983 H 0.33309 0.34370 -0.20888
 H984 H 0.30417 0.31185 -0.23711
 H985 H 0.25581 0.27462 -0.17408
 H986 H 0.28312 0.30665 -0.14686
 H987 H 0.42219 0.39141 -0.12826
 H988 H 0.45361 0.41682 -0.09806
 H989 H 0.37829 0.41806 -0.04670
 H990 H 0.34664 0.39214 -0.07702
 C991 C 1.17032 0.29606 -0.15846
 C992 C 1.18776 0.31398 -0.17441
 C993 C 1.20389 0.30130 -0.19376
 C994 C 1.20426 0.27005 -0.19706
 C995 C 1.18641 0.25203 -0.18113
 C996 C 1.16924 0.26502 -0.16211
 C997 C 1.15344 0.31065 -0.13843
 N998 N 1.12286 0.30718 -0.13608
 N999 N 1.10714 0.32406 -0.12036
 C1000 C 1.12148 0.34483 -0.10631
 N1001 N 1.15213 0.34771 -0.10835
 N1002 N 1.16775 0.33114 -0.12422
 C1003 C 1.10419 0.36586 -0.09073
 C1004 C 1.11875 0.38035 -0.07105
 C1005 C 1.10389 0.40293 -0.05810
 C1006 C 1.07435 0.41186 -0.06484
 C1007 C 1.05936 0.39679 -0.08400
 C1008 C 1.07407 0.37379 -0.09670
 H1009 H 1.18852 0.33803 -0.17214
 H1010 H 1.21669 0.31620 -0.20581
 H1011 H 1.18552 0.22803 -0.18342
 H1012 H 1.15563 0.25087 -0.15002
 H1013 H 1.14191 0.37463 -0.06596
 H1014 H 1.11595 0.41406 -0.04334
 H1015 H 1.03647 0.40312 -0.08942
 H1016 H 1.06236 0.36312 -0.11188
 C1017 C 0.68808 0.81810 0.33036
 C1018 C 0.70337 0.83413 0.31165
 C1019 C 0.71945 0.81936 0.29335
 C1020 C 0.72123 0.78786 0.29309
 C1021 C 0.70611 0.77161 0.31190
 C1022 C 0.68972 0.78660 0.33041
 C1023 C 0.67018 0.83488 0.34899
 N1024 N 0.65560 0.82086 0.36810
 N1025 N 0.63917 0.83654 0.38423
 C1026 C 0.63662 0.86683 0.38188
 N1027 N 0.65131 0.88070 0.36286
 N1028 N 0.66770 0.86511 0.34685
 C1029 C 0.61763 0.88462 0.39906
 C1030 C 0.61172 0.91502 0.39377
 C1031 C 0.59297 0.93183 0.40918
 C1032 C 0.57984 0.91877 0.43038
 C1033 C 0.58622 0.88860 0.43610
 C1034 C 0.60482 0.87164 0.42052
 H1035 H 0.70287 0.85835 0.31092
 H1036 H 0.73075 0.83306 0.27948
 H1037 H 0.70660 0.74741 0.31219
 H1038 H 0.67810 0.77354 0.34455
 H1039 H 0.62116 0.92584 0.37743
 H1040 H 0.58851 0.95503 0.40433
 H1041 H 0.57634 0.87794 0.45233
 H1042 H 0.60900 0.84836 0.42521
 C1043 C 0.81875 0.71248 -0.15531
 C1044 C 0.79720 0.69586 -0.16837
 C1045 C 0.78268 0.70808 -0.18906
 C1046 C 0.78799 0.73792 -0.19668
 C1047 C 0.80927 0.75484 -0.18325
 C1048 C 0.82480 0.74210 -0.16291
 C1049 C 0.83587 0.69763 -0.13503
 N1050 N 0.86623 0.70223 -0.13219
 N1051 N 0.88230 0.68560 -0.11614
 C1052 C 0.86858 0.66392 -0.10218
 N1053 N 0.83811 0.65993 -0.10462
 N1054 N 0.82213 0.67630 -0.12080
 C1055 C 0.88657 0.64311 -0.08632
 C1056 C 0.87222 0.62619 -0.06754
 C1057 C 0.88820 0.60393 -0.05450
 C1058 C 0.91871 0.59779 -0.06026
 C1059 C 0.93341 0.61535 -0.07842
 C1060 C 0.91756 0.63797 -0.09120
 H1061 H 0.79254 0.67278 -0.16327
 H1062 H 0.76748 0.69370 -0.19925
 H1063 H 0.81468 0.77756 -0.18886
 H1064 H 0.84159 0.75527 -0.15322
 H1065 H 0.84842 0.62972 -0.06326
 H1066 H 0.87632 0.59081 -0.04054
 H1067 H 0.95699 0.61120 -0.08312
 H1068 H 0.92923 0.65053 -0.10562
 C1069 C 0.29502 1.18985 0.33693
 C1070 C 0.30259 1.21942 0.33004
 C1071 C 0.28752 1.23384 0.31023
 C1072 C 0.26431 1.21914 0.29710
 C1073 C 0.25605 1.19005 0.30497
 C1074 C 0.27094 1.17580 0.32461
 C1075 C 0.31339 1.17244 0.35524
 N1076 N 0.31081 1.14215 0.35642
 N1077 N 0.32825 1.12590 0.37163
 C1078 C 0.34904 1.13919 0.38647
 N1079 N 0.35149 1.16956 0.38555
 N1080 N 0.33412 1.18585 0.37017
 C1081 C 0.36920 1.12067 0.40259
 C1082 C 0.38477 1.13326 0.42269
 C1083 C 0.40414 1.11564 0.43750
 C1084 C 0.40875 1.08523 0.43224
 C1085 C 0.39313 1.07263 0.41223
 C1086 C 0.37339 1.09007 0.39771
 H1087 H 0.32115 1.23087 0.33910
 H1088 H 0.29521 1.25585 0.30443
 H1089 H 0.23911 1.17729 0.29515
 H1090 H 0.26431 1.15312 0.32944
 H1091 H 0.38194 1.15670 0.42701
 H1092 H 0.41597 1.12597 0.45278
 H1093 H 0.39623 1.04925 0.40776
 H1094 H 0.36185 1.07967 0.38232
 C1095 C 1.16968 0.70579 0.15971
 C1096 C 1.16906 0.73678 0.16364
 C1097 C 1.18658 0.74925 0.18268
 C1098 C 1.20431 0.73075 0.19836
 C1099 C 1.20354 0.69957 0.19475
 C1100 C 1.18706 0.68740 0.17537
 C1101 C 1.15243 0.69173 0.13966
 N1102 N 1.16659 0.67193 0.12471
 N1103 N 1.15072 0.65560 0.10885
 C1104 C 1.11996 0.65803 0.10755
 N1105 N 1.10576 0.67813 0.12234
 N1106 N 1.12172 0.69477 0.13807
 C1107 C 1.10252 0.63715 0.09196
 C1108 C 1.07266 0.62872 0.09831
 C1109 C 1.05798 0.60574 0.08556
 C1110 C 1.07275 0.59119 0.06602
 C1111 C 1.10197 0.60066 0.05892
 C1112 C 1.11678 0.62323 0.07187
 H1113 H 1.15552 0.75128 0.15175
 H1114 H 1.18601 0.77323 0.18520
 H1115 H 1.21625 0.68434 0.20660
 H1116 H 1.18748 0.66338 0.17284
 H1117 H 1.06118 0.63895 0.11381
 H1118 H 1.03534 0.59899 0.09127
 H1119 H 1.11385 0.58996 0.04385
 H1120 H 1.13971 0.62936 0.06647
 C1121 C 0.68523 1.18234 0.67204
 C1122 C 0.69838 1.16667 0.69203
 C1123 C 0.71470 1.18156 0.71012
 C1124 C 0.71874 1.21284 0.70894
 C1125 C 0.70566 1.22875 0.68892
 C1126 C 0.68906 1.21364 0.67061
 C1127 C 0.66749 1.16545 0.65338
 N1128 N 0.65447 1.17913 0.63336
 N1129 N 0.63825 1.16336 0.61715
 C1130 C 0.63440 1.13331 0.62032
 N1131 N 0.64754 1.11977 0.64026
 N1132 N 0.66370 1.13545 0.65636
 C1133 C 0.61568 1.11544 0.60299
 C1134 C 0.60927 1.08521 0.60856
 C1135 C 0.59074 1.06836 0.59303
 C1136 C 0.57828 1.08120 0.57144
 C1137 C 0.58516 1.11117 0.56546
 C1138 C 0.60360 1.12818 0.58114
 H1139 H 0.69613 1.14261 0.69386
 H1140 H 0.72445 1.16806 0.72489
 H1141 H 0.70821 1.25279 0.68740
 H1142 H 0.67918 1.22642 0.65543
 H1143 H 0.61817 1.07456 0.62518
 H1144 H 0.58590 1.04531 0.59809
 H1145 H 0.57582 1.12166 0.54893
 H1146 H 0.60816 1.15132 0.57624
 C1147 C 0.81957 0.28949 0.15569
 C1148 C 0.79867 0.30578 0.16970
 C1149 C 0.78446 0.29274 0.19018
 C1150 C 0.78950 0.26247 0.19665
 C1151 C 0.81016 0.24593 0.18229
 C1152 C 0.82535 0.25944 0.16216
 C1153 C 0.83625 0.30492 0.13548
 N1154 N 0.86631 0.29957 0.13161
 N1155 N 0.88210 0.31633 0.11550
 C1156 C 0.86837 0.33886 0.10248
 N1157 N 0.83817 0.34365 0.10597
 N1158 N 0.82249 0.32715 0.12223
 C1159 C 0.88619 0.35960 0.08651
 C1160 C 0.87161 0.37689 0.06805
 C1161 C 0.88758 0.39899 0.05488
 C1162 C 0.91831 0.40463 0.06021
 C1163 C 0.93319 0.38673 0.07807
 C1164 C 0.91736 0.36423 0.09094
 H1165 H 0.79420 0.32914 0.16544
 H1166 H 0.76959 0.30672 0.20107
 H1167 H 0.81530 0.22285 0.18697
 H1168 H 0.84162 0.24649 0.15170
 H1169 H 0.84764 0.37374 0.06415
 H1170 H 0.87556 0.41242 0.04117
 H1171 H 0.95694 0.39051 0.08244
 H1172 H 0.92919 0.35137 0.10511
 C1173 C 0.29473 0.80833 0.66227
 C1174 C 0.27049 0.82233 0.67442
 C1175 C 0.25567 0.80818 0.69411
 C1176 C 0.26411 0.77920 0.70218
 C1177 C 0.28746 0.76451 0.68920
 C1178 C 0.30250 0.77886 0.66936
 C1179 C 0.31308 0.82575 0.64398
 N1180 N 0.33429 0.81247 0.62943
 N1181 N 0.35166 0.82883 0.61413
 C1182 C 0.34872 0.85915 0.61293
 N1183 N 0.32744 0.87231 0.62738
 N1184 N 0.31000 0.85599 0.64250
 C1185 C 0.36891 0.87780 0.59698
 C1186 C 0.37248 0.90850 0.60174
 C1187 C 0.39225 0.92611 0.58743
 C1188 C 0.40853 0.91357 0.56776
 C1189 C 0.40454 0.88305 0.56260
 C1190 C 0.38514 0.86527 0.57721
 H1191 H 0.26370 0.84493 0.66945
 H1192 H 0.23865 0.82097 0.70383
 H1193 H 0.29528 0.74259 0.69516
 H1194 H 0.32118 0.76744 0.66043
 H1195 H 0.36043 0.91887 0.61689
 H1196 H 0.39485 0.94956 0.59182
 H1197 H 0.41690 0.87278 0.54757
 H1198 H 0.38279 0.84175 0.57300
 C1199 C 0.29375 1.18816 -0.15055
 C1200 C 0.30976 1.21051 -0.16351
 C1201 C 0.29663 1.22501 -0.18387
 C1202 C 0.26659 1.21857 -0.19121
 C1203 C 0.25016 1.19691 -0.17754
 C1204 C 0.26374 1.18162 -0.15758
 C1205 C 0.30954 1.17031 -0.13127
 N1206 N 0.30385 1.14057 -0.12850
 N1207 N 0.32072 1.12372 -0.11321
 C1208 C 0.34373 1.13604 -0.09995
 N1209 N 0.34891 1.16590 -0.10232
 N1210 N 0.33228 1.18265 -0.11778
 C1211 C 0.36444 1.11716 -0.08483
 C1212 C 0.38135 1.12978 -0.06550
 C1213 C 0.40331 1.11285 -0.05287
 C1214 C 0.40920 1.08318 -0.05966
 C1215 C 0.39175 1.07026 -0.07852
 C1216 C 0.36934 1.08702 -0.09084
 H1217 H 0.33310 1.21568 -0.15873
 H1218 H 0.31051 1.24078 -0.19423
 H1219 H 0.22725 1.19079 -0.18280
 H1220 H 0.25098 1.16434 -0.14789
 H1221 H 0.37796 1.15292 -0.06041
 H1222 H 0.41641 1.12334 -0.03836
 H1223 H 0.39576 1.04735 -0.08400
 H1224 H 0.35675 1.07676 -0.10575
 C1225 C 0.81276 0.70415 0.33927
 C1226 C 0.82803 0.72600 0.32509
 C1227 C 0.81340 0.74084 0.30557
 C1228 C 0.78280 0.73468 0.29968
 C1229 C 0.76704 0.71375 0.31461
 C1230 C 0.78181 0.69876 0.33425
 C1231 C 0.82997 0.68581 0.35775
 N1232 N 0.81567 0.66614 0.37326
 N1233 N 0.83165 0.64858 0.38870
 C1234 C 0.86260 0.64981 0.38914
 N1235 N 0.87680 0.66962 0.37377
 N1236 N 0.86085 0.68723 0.35848
 C1237 C 0.88073 0.62919 0.40519
 C1238 C 0.91197 0.62497 0.40061
 C1239 C 0.92896 0.60453 0.41478
 C1240 C 0.91525 0.58809 0.43410
 C1241 C 0.88424 0.59279 0.43917
 C1242 C 0.86709 0.61296 0.42474
 H1243 H 0.85179 0.73096 0.32845
 H1244 H 0.82673 0.75630 0.29445
 H1245 H 0.74374 0.70782 0.31045
 H1246 H 0.76935 0.68202 0.34478
 H1247 H 0.92324 0.63701 0.38568
 H1248 H 0.95282 0.60143 0.41048
 H1249 H 0.87306 0.58037 0.45394
 H1250 H 0.84313 0.61576 0.42883
 C1251 C 0.70845 1.17039 0.16145
 C1252 C 0.73966 1.16782 0.16657
 C1253 C 0.75274 1.18441 0.18570
 C1254 C 0.73461 1.20324 0.20036
 C1255 C 0.70315 1.20477 0.19550
 C1256 C 0.69041 1.18913 0.17596
 C1257 C 0.69394 1.15331 0.14157
 N1258 N 0.67176 1.16627 0.12760
 N1259 N 0.65619 1.15036 0.11127
 C1260 C 0.66186 1.12073 0.10846
 N1261 N 0.68427 1.10775 0.12229
 N1262 N 0.70015 1.12380 0.13847
 C1263 C 0.64217 1.10292 0.09212
 C1264 C 0.63615 1.07262 0.09746
 C1265 C 0.61389 1.05723 0.08410
 C1266 C 0.59775 1.07181 0.06498
 C1267 C 0.60504 1.10157 0.05880
 C1268 C 0.62684 1.11703 0.07235
 H1269 H 0.75391 1.15327 0.15562
 H1270 H 0.77688 1.18208 0.18918
 H1271 H 0.68818 1.21834 0.20665
 H1272 H 0.66617 1.19107 0.17259
 H1273 H 0.64757 1.06126 0.11269
 H1274 H 0.60881 1.03421 0.08910
 H1275 H 0.59308 1.11334 0.04405
 H1276 H 0.63118 1.14031 0.06774
 C1277 C 1.18148 0.68430 0.67529
 C1278 C 1.16514 0.69635 0.69514
 C1279 C 1.17975 0.71282 0.71329
 C1280 C 1.21135 0.71806 0.71230
 C1281 C 1.22793 0.70582 0.69254
 C1282 C 1.21313 0.68916 0.67417
 C1283 C 1.16494 0.66675 0.65632
 N1284 N 1.17931 0.65515 0.63629
 N1285 N 1.16388 0.63924 0.61967
 C1286 C 1.13348 0.63430 0.62241
 N1287 N 1.11926 0.64600 0.64238
 N1288 N 1.13461 0.66185 0.65889
 C1289 C 1.11595 0.61600 0.60456
 C1290 C 1.08532 0.60890 0.60951
 C1291 C 1.06876 0.59078 0.59352
 C1292 C 1.08227 0.57941 0.57206
 C1293 C 1.11264 0.58697 0.56667
 C1294 C 1.12937 0.60502 0.58282
 H1295 H 1.14078 0.69322 0.69675
 H1296 H 1.16578 0.72182 0.72791
 H1297 H 1.25225 0.70909 0.69123
 H1298 H 1.22645 0.68007 0.65916
 H1299 H 1.07412 0.61694 0.62600
 H1300 H 1.04538 0.58543 0.59814
 H1301 H 1.12364 0.57846 0.55025
 H1302 H 1.15285 0.61015 0.57839
 C1303 C 0.70624 0.82978 -0.16411
 C1304 C 0.73752 0.83214 -0.16899
 C1305 C 0.75071 0.81535 -0.18795
 C1306 C 0.73262 0.79654 -0.20266
 C1307 C 0.70108 0.79535 -0.19812
 C1308 C 0.68823 0.81121 -0.17877
 C1309 C 0.69167 0.84664 -0.14414
 N1310 N 0.66967 0.83342 -0.13021
 N1311 N 0.65403 0.84909 -0.11376
 C1312 C 0.65946 0.87873 -0.11080
 N1313 N 0.68171 0.89197 -0.12459
 N1314 N 0.69767 0.87616 -0.14089
 C1315 C 0.63967 0.89626 -0.09433
 C1316 C 0.63344 0.92658 -0.09947
 C1317 C 0.61111 0.94172 -0.08600
 C1318 C 0.59510 0.92687 -0.06697
 C1319 C 0.60258 0.89708 -0.06100
 C1320 C 0.62445 0.88187 -0.07467
 H1321 H 0.75175 0.84654 -0.15791
 H1322 H 0.77493 0.81735 -0.19118
 H1323 H 0.68617 0.78172 -0.20926
 H1324 H 0.66395 0.80942 -0.17555
 H1325 H 0.64476 0.93815 -0.11463
 H1326 H 0.60589 0.96476 -0.09083
 H1327 H 0.59072 0.88512 -0.04633
 H1328 H 0.62896 0.85857 -0.07021
 C1329 C 1.18190 0.31390 0.32468
 C1330 C 1.16542 0.30181 0.30491
 C1331 C 1.17994 0.28550 0.28662
 C1332 C 1.21158 0.28044 0.28740
 C1333 C 1.22830 0.29273 0.30706
 C1334 C 1.21360 0.30924 0.32557
 C1335 C 1.16546 0.33131 0.34379
 N1336 N 1.18002 0.34322 0.36361
 N1337 N 1.16467 0.35906 0.38033
 C1338 C 1.13416 0.36362 0.37789
 N1339 N 1.11975 0.35159 0.35815
 N1340 N 1.13501 0.33581 0.34154
 C1341 C 1.11670 0.38192 0.39577
 C1342 C 1.08597 0.38878 0.39098
 C1343 C 1.06944 0.40695 0.40694
 C1344 C 1.08308 0.41862 0.42823
 C1345 C 1.11356 0.41128 0.43350
 C1346 C 1.13027 0.39318 0.41736
 H1347 H 1.14102 0.30480 0.30348
 H1348 H 1.16587 0.27646 0.27207
 H1349 H 1.25266 0.28961 0.30819
 H1350 H 1.22703 0.31837 0.34050
 H1351 H 1.07465 0.38052 0.37461
 H1352 H 1.04598 0.41211 0.40242
 H1353 H 1.12465 0.42003 0.44980
 H1354 H 1.15384 0.38825 0.42167
 C1355 C 0.29501 0.81248 0.15293
 C1356 C 0.26508 0.81933 0.15998
 C1357 C 0.25120 0.80377 0.17965
 C1358 C 0.26727 0.78153 0.19301
 C1359 C 0.29723 0.77478 0.18564
 C1360 C 0.31063 0.78956 0.16555
 C1361 C 0.31109 0.83048 0.13393
 N1362 N 0.33347 0.81798 0.12014
 N1363 N 0.35025 0.83472 0.10481
 C1364 C 0.34559 0.86471 0.10286
 N1365 N 0.32299 0.87720 0.11646
 N1366 N 0.30597 0.86039 0.13162
 C1367 C 0.36628 0.88342 0.08763
 C1368 C 0.37195 0.91337 0.09384
 C1369 C 0.39417 0.92994 0.08114
 C1370 C 0.41063 0.91703 0.06170
 C1371 C 0.40401 0.88755 0.05480
 C1372 C 0.38228 0.87081 0.06780
 H1373 H 0.25261 0.83703 0.15054
 H1374 H 0.22838 0.81013 0.18495
 H1375 H 0.31085 0.75858 0.19579
 H1376 H 0.33390 0.78413 0.16075
 H1377 H 0.36008 0.92361 0.10914
 H1378 H 0.39876 0.95270 0.08672
 H1379 H 0.41633 0.87706 0.03986
 H1380 H 0.37827 0.84783 0.06254
 C1381 C 0.80342 0.30193 0.65996
 C1382 C 0.77479 0.30986 0.66937
 C1383 C 0.76160 0.29325 0.68880
 C1384 C 0.77717 0.26884 0.69976
 C1385 C 0.80575 0.26093 0.68989
 C1386 C 0.81829 0.27676 0.66987
 C1387 C 0.81937 0.32142 0.64183
 N1388 N 0.83604 0.30949 0.62317
 N1389 N 0.85264 0.32701 0.60822
 C1390 C 0.85370 0.35706 0.61167
 N1391 N 0.83702 0.36897 0.63031
 N1392 N 0.82004 0.35152 0.64499
 C1393 C 0.87383 0.37627 0.59637
 C1394 C 0.89219 0.39788 0.60768
 C1395 C 0.91176 0.41584 0.59346
 C1396 C 0.91256 0.41323 0.56757
 C1397 C 0.89394 0.39187 0.55617
 C1398 C 0.87516 0.37311 0.57052
 H1399 H 0.76297 0.32936 0.66208
 H1400 H 0.73995 0.30065 0.69608
 H1401 H 0.81949 0.24357 0.69840
 H1402 H 0.84069 0.27057 0.66328
 H1403 H 0.89169 0.40057 0.62760
 H1404 H 0.92573 0.43230 0.60264
 H1405 H 0.89417 0.38952 0.53622
 H1406 H 0.86118 0.35658 0.56142
 C1407 C 1.17429 1.15201 0.69880
 C1408 C 1.20622 1.15144 0.69979
 C1409 C 1.22207 1.17263 0.71353
 C1410 C 1.20647 1.19548 0.72598
 C1411 C 1.17446 1.19438 0.72657
 C1412 C 1.15858 1.17323 0.71288
 C1413 C 1.15745 1.13157 0.68237
 N1414 N 1.12677 1.13389 0.68002
 N1415 N 1.11178 1.11741 0.66369
 C1416 C 1.12681 1.09785 0.64903
 N1417 N 1.15743 1.09506 0.65171
 N1418 N 1.17244 1.11159 0.66805
 C1419 C 1.11052 1.08206 0.62909
 C1420 C 1.12562 1.06102 0.61431
 C1421 C 1.11113 1.04885 0.59368
 C1422 C 1.08144 1.05774 0.58739
 C1423 C 1.06589 1.07771 0.60274
 C1424 C 1.08022 1.08964 0.62343
 H1425 H 1.21905 1.13484 0.68974
 H1426 H 1.24655 1.17080 0.71438
 H1427 H 1.16144 1.21005 0.73741
 H1428 H 1.13394 1.17383 0.71311
 H1429 H 1.14890 1.05456 0.61826
 H1430 H 1.12354 1.03335 0.58218
 H1431 H 1.04285 1.08470 0.59843
 H1432 H 1.06784 1.10566 0.63445
 C1433 C 0.68695 0.67337 0.18368
 C1434 C 0.67151 0.69339 0.19916
 C1435 C 0.68757 0.71111 0.21583
 C1436 C 0.71955 0.70998 0.21694
 C1437 C 0.73441 0.68718 0.20384
 C1438 C 0.71845 0.66957 0.18696
 C1439 C 0.67036 0.65744 0.16380
 N1440 N 0.68554 0.64134 0.14651
 N1441 N 0.67060 0.62819 0.12807
 C1442 C 0.63985 0.63068 0.12610
 N1443 N 0.62474 0.64673 0.14342
 N1444 N 0.63964 0.65989 0.16179
 C1445 C 0.62282 0.61571 0.10593
 C1446 C 0.59083 0.61558 0.10619
 C1447 C 0.57447 0.59997 0.08838
 C1448 C 0.58957 0.58427 0.06967
 C1449 C 0.62150 0.58533 0.06861
 C1450 C 0.63801 0.60082 0.08667
 H1451 H 0.64708 0.69618 0.19785
 H1452 H 0.67487 0.72663 0.22708
 H1453 H 0.75859 0.68346 0.20594
 H1454 H 0.73093 0.65344 0.17613
 H1455 H 0.57829 0.62689 0.12059
 H1456 H 0.54985 0.59964 0.08961
 H1457 H 0.63370 0.57329 0.05444
 H1458 H 0.66263 0.60065 0.08580
 C1459 C 1.17530 0.84839 0.30246
 C1460 C 1.20724 0.84858 0.30165
 C1461 C 1.22296 0.82708 0.28815
 C1462 C 1.20721 0.80429 0.27577
 C1463 C 1.17521 0.80563 0.27512
 C1464 C 1.15947 0.82711 0.28854
 C1465 C 1.15854 0.86929 0.31851
 N1466 N 1.12777 0.86767 0.32033
 N1467 N 1.11275 0.88450 0.33638
 C1468 C 1.12784 0.90373 0.35128
 N1469 N 1.15857 0.90585 0.34911
 N1470 N 1.17362 0.88897 0.33305
 C1471 C 1.11146 0.91968 0.37107
 C1472 C 1.12667 0.94024 0.38621
 C1473 C 1.11209 0.95226 0.40685
 C1474 C 1.08222 0.94368 0.41276
 C1475 C 1.06655 0.92431 0.39699
 C1476 C 1.08095 0.91254 0.37629
 H1477 H 1.22017 0.86518 0.31161
 H1478 H 1.24747 0.82865 0.28738
 H1479 H 1.16208 0.78999 0.26433
 H1480 H 1.13483 0.82676 0.28820
 H1481 H 1.15011 0.94636 0.38258
 H1482 H 1.12458 0.96733 0.41868
 H1483 H 1.04335 0.91761 0.40100
 H1484 H 1.06849 0.89690 0.36496
 C1485 C 0.68652 0.32625 -0.18185
 C1486 C 0.71792 0.33050 -0.18534
 C1487 C 0.73401 0.31303 -0.20222
 C1488 C 0.71937 0.29004 -0.21522
 C1489 C 0.68741 0.28815 -0.21371
 C1490 C 0.67125 0.30579 -0.19703
 C1491 C 0.66995 0.34210 -0.16193
 N1492 N 0.63930 0.33931 -0.15967
 N1493 N 0.62445 0.35246 -0.14127
 C1494 C 0.63958 0.36883 -0.12416
 N1495 N 0.67026 0.37165 -0.12638
 N1496 N 0.68513 0.35852 -0.14485
 C1497 C 0.62264 0.38385 -0.10398
 C1498 C 0.63791 0.39901 -0.08492
 C1499 C 0.62148 0.41465 -0.06691
 C1500 C 0.58955 0.41560 -0.06784
 C1501 C 0.57436 0.39960 -0.08633
 C1502 C 0.59065 0.38383 -0.10409
 H1503 H 0.73024 0.34690 -0.17468
 H1504 H 0.75808 0.31712 -0.20446
 H1505 H 0.67495 0.27173 -0.22424
 H1506 H 0.64692 0.30245 -0.19535
 H1507 H 0.66254 0.39930 -0.08418
 H1508 H 0.63374 0.42693 -0.05291
 H1509 H 0.54973 0.39985 -0.08745
 H1510 H 0.57805 0.37231 -0.11833
 C1511 C 0.85045 1.16952 0.31023
 C1512 C 0.82934 1.18883 0.32102
 C1513 C 0.80742 1.20303 0.30655
 C1514 C 0.80675 1.19919 0.28073
 C1515 C 0.82761 1.17917 0.27002
 C1516 C 0.84909 1.16416 0.28474
 C1517 C 0.87306 1.15469 0.32610
 N1518 N 0.87947 1.12519 0.32349
 N1519 N 0.89675 1.11093 0.34016
 C1520 C 0.90848 1.12578 0.35980
 N1521 N 0.90281 1.15548 0.36187
 N1522 N 0.88532 1.16964 0.34539
 C1523 C 0.92324 1.10953 0.38039
 C1524 C 0.94208 1.12487 0.39698
 C1525 C 0.95178 1.11096 0.41887
 C1526 C 0.94232 1.08173 0.42466
 C1527 C 0.92465 1.06591 0.40757
 C1528 C 0.91539 1.07963 0.38548
 H1529 H 0.82953 1.19266 0.34081
 H1530 H 0.79135 1.21740 0.31577
 H1531 H 0.82766 1.17523 0.25028
 H1532 H 0.86506 1.14900 0.27618
 H1533 H 0.94852 1.14792 0.39338
 H1534 H 0.96571 1.12345 0.43168
 H1535 H 0.91747 1.04315 0.41152
 H1536 H 0.90074 1.06737 0.37306
 C1537 C 0.32795 0.69079 -0.17744
 C1538 C 0.32726 0.68429 -0.20287
 C1539 C 0.30840 0.70069 -0.21906
 C1540 C 0.29002 0.72403 -0.21016
 C1541 C 0.29205 0.73114 -0.18486
 C1542 C 0.31059 0.71477 -0.16879
 C1543 C 0.34534 0.67203 -0.15958
 N1544 N 0.33949 0.67365 -0.13490
 N1545 N 0.35445 0.65645 -0.11866
 C1546 C 0.37601 0.63695 -0.12641
 N1547 N 0.38196 0.63536 -0.15109
 N1548 N 0.36686 0.65247 -0.16736
 C1549 C 0.39260 0.61776 -0.10837
 C1550 C 0.41943 0.60313 -0.11547
 C1551 C 0.43501 0.58473 -0.09869
 C1552 C 0.42397 0.58021 -0.07449
 C1553 C 0.39724 0.59489 -0.06723
 C1554 C 0.38178 0.61367 -0.08399
 H1555 H 0.34048 0.66592 -0.21012
 H1556 H 0.30761 0.69443 -0.23835
 H1557 H 0.27789 0.74809 -0.17679
 H1558 H 0.31063 0.72052 -0.14935
 H1559 H 0.42849 0.60594 -0.13401
 H1560 H 0.45557 0.57370 -0.10484
 H1561 H 0.38828 0.59178 -0.04868
 H1562 H 0.36111 0.62461 -0.07798
 C1563 C 0.84841 0.82623 0.68698
 C1564 C 0.84596 0.83336 0.71210
 C1565 C 0.82485 0.81844 0.72716
 C1566 C 0.80538 0.79662 0.71718
 C1567 C 0.80732 0.79063 0.69170
 C1568 C 0.82891 0.80483 0.67692
 C1569 C 0.87012 0.84173 0.67069
 N1570 N 0.88254 0.82716 0.65125
 N1571 N 0.89945 0.84180 0.63468
 C1572 C 0.90438 0.87162 0.63680
 N1573 N 0.89245 0.88611 0.65653
 N1574 N 0.87575 0.87139 0.67328
 C1575 C 0.91910 0.88827 0.61643
 C1576 C 0.91127 0.91827 0.61170
 C1577 C 0.92123 0.93263 0.59010
 C1578 C 0.93960 0.91735 0.57317
 C1579 C 0.94882 0.88792 0.57854
 C1580 C 0.93842 0.87338 0.59992
 H1581 H 0.86067 0.85010 0.72013
 H1582 H 0.82390 0.82408 0.74659
 H1583 H 0.79202 0.77514 0.68289
 H1584 H 0.82982 0.79959 0.65739
 H1585 H 0.89625 0.93019 0.62406
 H1586 H 0.91418 0.95551 0.58646
 H1587 H 0.96323 0.87581 0.56583
 H1588 H 0.94487 0.85026 0.60324
 C1589 C 0.32812 0.30830 0.17733
 C1590 C 0.32747 0.31453 0.20281
 C1591 C 0.30856 0.29808 0.21887
 C1592 C 0.29007 0.27494 0.20980
 C1593 C 0.29204 0.26808 0.18445
 C1594 C 0.31064 0.28450 0.16851
 C1595 C 0.34558 0.32713 0.15962
 N1596 N 0.33978 0.32572 0.13492
 N1597 N 0.35476 0.34303 0.11881
 C1598 C 0.37631 0.36244 0.12672
 N1599 N 0.38220 0.36382 0.15142
 N1600 N 0.36708 0.34660 0.16756
 C1601 C 0.39288 0.38180 0.10882
 C1602 C 0.41961 0.39645 0.11608
 C1603 C 0.43515 0.41504 0.09945
 C1604 C 0.42415 0.41972 0.07524
 C1605 C 0.39753 0.40500 0.06782
 C1606 C 0.38211 0.38604 0.08444
 H1607 H 0.34077 0.33276 0.21020
 H1608 H 0.30781 0.30414 0.23822
 H1609 H 0.27780 0.25131 0.17626
 H1610 H 0.31065 0.27896 0.14903
 H1611 H 0.42863 0.39353 0.13464
 H1612 H 0.45563 0.42610 0.10572
 H1613 H 0.38860 0.40822 0.04927
 H1614 H 0.36151 0.37508 0.07830
   
