data_POSCAR
  _audit_creation_date              2014-09-24
  _audit_creation_method            'ToBaCCo'
  _symmetry_space_group_name_H-M    'P1'
  _symmetry_Int_Tables_number       1
  _symmetry_cell_setting            triclinic
  loop_
  _symmetry_equiv_pos_as_xyz
 x,y,z
_cell_length_a 68.2627
_cell_length_b 69.3407
_cell_length_c 69.1065
_cell_angle_alpha 87.120700
_cell_angle_beta 86.876100
_cell_angle_gamma 87.412600
loop_
  _atom_site_label
  _atom_site_type_symbol
  _atom_site_fract_x
  _atom_site_fract_y
  _atom_site_fract_z
C1 C 0.78783 0.64329 1.00422
 C2 C 0.79309 0.62917 0.98816
 C3 C 0.77842 0.61740 0.98445
 C4 C 0.75972 0.62064 0.99753
 C5 C 0.76895 0.65409 0.99748
 C6 C 0.75427 0.64222 0.99396
 C7 C 0.78103 0.63058 1.02179
 C8 C 0.76626 0.61885 1.01851
 H9 H 0.80687 0.62947 0.97964
 H10 H 0.74764 0.61111 0.99487
 H11 H 0.76788 0.66937 0.99360
 H12 H 0.78722 0.63127 1.03583
 C13 C 0.78693 0.36756 0.48365
 C14 C 0.79079 0.38023 0.50044
 C15 C 0.77534 0.39216 0.50598
 C16 C 0.75700 0.39002 0.49434
 C17 C 0.76859 0.35667 0.49096
 C18 C 0.75277 0.36833 0.49627
 C19 C 0.77975 0.38171 0.46757
 C20 C 0.76410 0.39342 0.47301
 H21 H 0.80448 0.37931 0.50772
 H22 H 0.74451 0.39991 0.49867
 H23 H 0.76835 0.34115 0.49301
 H24 H 0.78587 0.38154 0.45278
 C25 C 0.28751 -0.13516 -0.01590
 C26 C 0.29148 -0.12413 0.00076
 C27 C 0.27559 -0.11120 0.00699
 C28 C 0.25838 -0.11231 -0.00477
 C29 C 0.26972 -0.14526 -0.00961
 C30 C 0.25343 -0.13275 -0.00346
 C31 C 0.28148 -0.12091 -0.03080
 C32 C 0.26521 -0.10833 -0.02502
 H33 H 0.30540 -0.12544 0.00756
 H34 H 0.24617 -0.10251 -0.00019
 H35 H 0.26986 -0.16059 -0.00586
 H36 H 0.28717 -0.12159 -0.04571
 C37 C 0.28841 0.13625 0.50260
 C38 C 0.29208 0.12035 0.48794
 C39 C 0.27616 0.10971 0.48555
 C40 C 0.25793 0.11589 0.49816
 C41 C 0.27063 0.14811 0.49489
 C42 C 0.25463 0.13751 0.49266
 C43 C 0.28054 0.12581 0.52123
 C44 C 0.26460 0.11521 0.51907
 H45 H 0.30498 0.11946 0.47816
 H46 H 0.24504 0.10714 0.49627
 H47 H 0.27092 0.16343 0.49109
 H48 H 0.28725 0.12673 0.53498
 C49 C 0.13712 0.50585 0.28015
 C50 C 0.12229 0.49005 0.28464
 C51 C 0.11098 0.48665 0.26964
 C52 C 0.11547 0.49955 0.25133
 C53 C 0.14888 0.49903 0.26187
 C54 C 0.13758 0.49560 0.24680
 C55 C 0.12487 0.52352 0.27304
 C56 C 0.11345 0.52041 0.25809
 H57 H 0.12222 0.48102 0.29790
 H58 H 0.10596 0.49681 0.23934
 H59 H 0.16450 0.49578 0.26121
 H60 H 0.12586 0.53757 0.27902
 C61 C -0.14003 -0.01359 0.28721
 C62 C -0.12626 0.00277 0.29019
 C63 C -0.11444 0.00761 0.27433
 C64 C -0.11793 -0.00423 0.25659
 C65 C -0.15162 -0.00604 0.26971
 C66 C -0.14016 -0.00140 0.25348
 C67 C -0.12739 -0.02934 0.28011
 C68 C -0.11514 -0.02452 0.26322
 H69 H -0.12653 0.01048 0.30345
 H70 H -0.10885 0.00010 0.24354
 H71 H -0.16739 -0.00367 0.27030
 H72 H -0.12651 -0.04322 0.28797
 C73 C 0.36196 0.48657 0.78133
 C74 C 0.37492 0.50334 0.78497
 C75 C 0.38712 0.50874 0.76960
 C76 C 0.38488 0.49700 0.75154
 C77 C 0.35095 0.49369 0.76328
 C78 C 0.36286 0.49888 0.74755
 C79 C 0.37627 0.47050 0.77417
 C80 C 0.38822 0.47581 0.75860
 H81 H 0.37407 0.51062 0.79851
 H82 H 0.39493 0.50124 0.73907
 H83 H 0.33518 0.49557 0.76308
 H84 H 0.37601 0.45581 0.78027
 C85 C 0.63681 1.00602 0.78340
 C86 C 0.62157 0.99051 0.78751
 C87 C 0.61068 0.98736 0.77214
 C88 C 0.61601 1.00020 0.75395
 C89 C 0.64904 0.99874 0.76557
 C90 C 0.63815 0.99569 0.75010
 C91 C 0.62581 1.02302 0.77628
 C92 C 0.61423 1.02017 0.76006
 H93 H 0.62100 0.98141 0.80071
 H94 H 0.60703 0.99695 0.74179
 H95 H 0.66455 0.99489 0.76553
 H96 H 0.62805 1.03706 0.78173
 C97 C -0.02109 0.27857 -0.13993
 C98 C -0.00499 0.28329 -0.12654
 C99 C 0.00088 0.26833 -0.11443
 C100 C -0.00998 0.24973 -0.11676
 C101 C -0.01278 0.26071 -0.15049
 C102 C -0.00669 0.24565 -0.13847
 C103 C -0.03761 0.27066 -0.12632
 C104 C -0.03195 0.25576 -0.11399
 H105 H 0.00177 0.29717 -0.12730
 H106 H -0.00519 0.23779 -0.10662
 H107 H -0.01278 0.25942 -0.16597
 H108 H -0.05269 0.27609 -0.12697
 C109 C 0.50135 0.28687 0.13997
 C110 C 0.48462 0.29189 0.12627
 C111 C 0.47971 0.27698 0.11565
 C112 C 0.49244 0.25845 0.11919
 C113 C 0.49474 0.26883 0.15197
 C114 C 0.48991 0.25402 0.14114
 C115 C 0.51826 0.27950 0.12636
 C116 C 0.51379 0.26448 0.11569
 H117 H 0.47750 0.30604 0.12449
 H118 H 0.48878 0.24636 0.11032
 H119 H 0.49292 0.26837 0.16765
 H120 H 0.53285 0.28507 0.12600
 C121 C 1.00627 0.78287 0.64219
 C122 C 0.98998 0.78791 0.62998
 C123 C 0.98419 0.77256 0.61866
 C124 C 0.99649 0.75482 0.62171
 C125 C 1.00041 0.76569 0.65386
 C126 C 0.99459 0.75010 0.64274
 C127 C 1.02210 0.77564 0.62917
 C128 C 1.01699 0.76019 0.61759
 H129 H 0.98345 0.80242 0.62900
 H130 H 0.99209 0.74329 0.61289
 H131 H 1.00345 0.76350 0.66901
 H132 H 1.03714 0.77949 0.63054
 C133 C 0.48308 0.78110 0.35885
 C134 C 0.49956 0.78500 0.37208
 C135 C 0.50538 0.76957 0.38364
 C136 C 0.49388 0.75137 0.38108
 C137 C 0.49089 0.76341 0.34766
 C138 C 0.49656 0.74789 0.35927
 C139 C 0.46660 0.77318 0.37252
 C140 C 0.47205 0.75761 0.38409
 H141 H 0.50629 0.79887 0.37193
 H142 H 0.49866 0.73877 0.39044
 H143 H 0.49102 0.76252 0.33212
 H144 H 0.45169 0.77923 0.37254
 C145 C 0.38091 -0.00321 0.25965
 H146 H 0.37981 0.01048 0.26656
 C147 C 0.39218 -0.01862 0.26762
 H148 H 0.39999 -0.01656 0.28053
 C149 C 0.37177 -0.02252 0.23456
 H150 H 0.36341 -0.02415 0.22196
 C151 C 0.38286 -0.03830 0.24204
 H152 H 0.38289 -0.05194 0.23506
 N153 N 0.37103 -0.00539 0.24340
 C154 C 0.36002 0.05276 0.21818
 H155 H 0.34430 0.05263 0.21689
 C156 C 0.37018 0.06914 0.21192
 H157 H 0.36211 0.08168 0.20602
 C158 C 0.38949 0.03658 0.22779
 H159 H 0.39701 0.02378 0.23375
 C160 C 0.40024 0.05266 0.22173
 H161 H 0.41599 0.05203 0.22307
 Zn162 Zn 0.35463 0.01561 0.23462
 N163 N 0.36970 0.03702 0.22620
 C164 C 0.33714 0.04010 0.26291
 N165 N 0.33738 0.02211 0.25591
 C166 C 0.32694 0.00782 0.26519
 C167 C 0.31596 0.01129 0.28243
 C168 C 0.32630 0.04423 0.28001
 C169 C 0.35161 0.00539 0.19660
 C170 C 0.34270 -0.00033 0.18027
 C171 C 0.31143 0.00087 0.19842
 C172 C 0.32096 0.00666 0.21444
 N173 N 0.34075 0.00850 0.21331
 H174 H 0.34594 0.05113 0.25569
 H175 H 0.32767 -0.00647 0.25951
 H176 H 0.30799 -0.00032 0.28979
 H177 H 0.32691 0.05845 0.28568
 H178 H 0.36731 0.00709 0.19610
 H179 H 0.35172 -0.00326 0.16728
 H180 H 0.29569 -0.00065 0.19956
 H181 H 0.31256 0.00953 0.22776
 C182 C 0.39056 0.06928 0.21377
 C183 C 0.39315 -0.03651 0.25887
 C184 C 0.32236 -0.00282 0.18108
 C185 C 0.31577 0.02965 0.29018
 C186 C 0.09277 1.02534 0.77949
 H187 H 0.09203 1.01114 0.78665
 C188 C 0.08201 1.04099 0.78730
 H189 H 0.07272 1.03865 0.80033
 C190 C 0.10617 1.04568 0.75401
 H191 H 0.11604 1.04760 0.74139
 C192 C 0.09565 1.06169 0.76129
 H193 H 0.09755 1.07576 0.75409
 N194 N 0.10457 1.02794 0.76315
 C195 C 0.11561 0.97138 0.73906
 H196 H 0.13148 0.97125 0.73792
 C197 C 0.10579 0.95611 0.73225
 H198 H 0.11426 0.94410 0.72611
 C199 C 0.08540 0.98730 0.74852
 H200 H 0.07754 0.99966 0.75457
 C201 C 0.07495 0.97225 0.74190
 H202 H 0.05905 0.97317 0.74291
 Zn203 Zn 0.12058 1.00671 0.75463
 N204 N 0.10538 0.98653 0.74706
 C205 C 0.13443 0.97965 0.78336
 N206 N 0.13596 0.99796 0.77557
 C207 C 0.14738 1.01079 0.78342
 C208 C 0.15798 1.00531 0.79968
 C209 C 0.14474 0.97359 0.79962
 C210 C 0.12699 1.01941 0.71617
 C211 C 0.13751 1.02495 0.69908
 C212 C 0.16756 1.01959 0.71586
 C213 C 0.15644 1.01412 0.73267
 N214 N 0.13651 1.01434 0.73256
 H215 H 0.12495 0.96979 0.77722
 H216 H 0.14799 1.02539 0.77719
 H217 H 0.16675 1.01580 0.80592
 H218 H 0.14342 0.95891 0.80551
 H219 H 0.11114 1.01924 0.71645
 H220 H 0.12959 1.02932 0.68632
 H221 H 0.18342 1.01924 0.71616
 H222 H 0.16375 1.00959 0.74571
 C223 C 0.08518 0.95645 0.73352
 C224 C 0.08350 1.05951 0.77825
 C225 C 0.15808 1.02514 0.69877
 C226 C 0.15662 0.98651 0.80807
 C227 C 0.59360 0.52805 0.27562
 H228 H 0.59289 0.51404 0.28319
 C229 C 0.58312 0.54398 0.28320
 H230 H 0.57439 0.54210 0.29666
 C231 C 0.60684 0.54768 0.24950
 H232 H 0.61645 0.54919 0.23663
 C233 C 0.59663 0.56397 0.25656
 H234 H 0.59817 0.57779 0.24873
 N235 N 0.60521 0.53017 0.25909
 C236 C 0.61567 0.47261 0.23705
 H237 H 0.63153 0.47252 0.23545
 C238 C 0.60573 0.45673 0.23179
 H239 H 0.61406 0.44450 0.22593
 C240 C 0.58563 0.48902 0.24619
 H241 H 0.57789 0.50170 0.25170
 C242 C 0.57506 0.47341 0.24103
 H243 H 0.55919 0.47412 0.24286
 Zn244 Zn 0.62101 0.50857 0.25109
 N245 N 0.60559 0.48821 0.24433
 C246 C 0.63426 0.48225 0.28065
 N247 N 0.63631 0.50025 0.27224
 C248 C 0.64809 0.51304 0.27966
 C249 C 0.65856 0.50780 0.29608
 C250 C 0.64439 0.47644 0.29708
 C251 C 0.62761 0.52024 0.21227
 C252 C 0.63827 0.52520 0.19508
 C253 C 0.66821 0.51969 0.21201
 C254 C 0.65695 0.51481 0.22891
 N255 N 0.63701 0.51540 0.22878
 H256 H 0.62447 0.47243 0.27491
 H257 H 0.64911 0.52742 0.27295
 H258 H 0.66764 0.51825 0.30196
 H259 H 0.64264 0.46200 0.30346
 H260 H 0.61174 0.52036 0.21253
 H261 H 0.63044 0.52943 0.18223
 H262 H 0.68406 0.51906 0.21234
 H263 H 0.66417 0.51045 0.24204
 C264 C 0.58516 0.45692 0.23386
 C265 C 0.58477 0.56231 0.27377
 C266 C 0.65886 0.52503 0.19480
 C267 C 0.65664 0.48932 0.30509
 C268 C 0.89081 0.49525 0.74865
 H269 H 0.89732 0.50917 0.74729
 C270 C 0.90211 0.47908 0.75498
 H271 H 0.91719 0.48079 0.75845
 C272 C 0.86361 0.47589 0.74532
 H273 H 0.84867 0.47467 0.74124
 C274 C 0.87436 0.45936 0.75152
 H275 H 0.86735 0.44563 0.75267
 N276 N 0.87176 0.49347 0.74439
 C277 C 0.86987 0.54486 0.71100
 H278 H 0.86114 0.53867 0.70053
 C279 C 0.88040 0.56122 0.70555
 H280 H 0.87994 0.56716 0.69078
 C281 C 0.88095 0.54483 0.74289
 H282 H 0.88075 0.53859 0.75756
 C283 C 0.89173 0.56121 0.73805
 H284 H 0.89981 0.56744 0.74907
 Zn285 Zn 0.85530 0.51499 0.73662
 N286 N 0.87040 0.53691 0.72938
 C287 C 0.83485 0.53985 0.76271
 N288 N 0.83722 0.52117 0.75756
 C289 C 0.82792 0.50680 0.76801
 C290 C 0.81674 0.51078 0.78500
 C291 C 0.82379 0.54448 0.77955
 C292 C 0.85333 0.50044 0.70017
 C293 C 0.84477 0.49467 0.68368
 C294 C 0.81286 0.50358 0.69827
 C295 C 0.82208 0.50930 0.71452
 N296 N 0.84198 0.50772 0.71508
 H297 H 0.84199 0.55117 0.75406
 H298 H 0.82963 0.49210 0.76357
 H299 H 0.80988 0.49907 0.79339
 H300 H 0.82291 0.55932 0.78383
 H301 H 0.86910 0.49916 0.70114
 H302 H 0.85408 0.48875 0.67205
 H303 H 0.79703 0.50507 0.69791
 H304 H 0.81339 0.51506 0.72662
 C305 C 0.89150 0.56964 0.71915
 C306 C 0.89382 0.46086 0.75667
 C307 C 0.82429 0.49626 0.68254
 C308 C 0.81497 0.52978 0.79122
 C309 C 0.25582 0.38020 -0.00614
 H310 H 0.26235 0.37902 0.00781
 C311 C 0.26438 0.39150 -0.02132
 H312 H 0.27735 0.39926 -0.01884
 C313 C 0.23108 0.37126 -0.02631
 H314 H 0.21839 0.36298 -0.02835
 C315 C 0.23916 0.38239 -0.04189
 H316 H 0.23254 0.38254 -0.05578
 N317 N 0.23945 0.37040 -0.00885
 C318 C 0.21212 0.35906 0.04890
 H319 H 0.21073 0.34358 0.04872
 C320 C 0.20541 0.36896 0.06524
 H321 H 0.19868 0.36100 0.07755
 C322 C 0.22225 0.38820 0.03282
 H323 H 0.22870 0.39568 0.02013
 C324 C 0.21571 0.39868 0.04884
 H325 H 0.21754 0.41413 0.04840
 Zn326 Zn 0.22989 0.35405 0.01195
 N327 N 0.22065 0.36870 0.03326
 C328 C 0.25756 0.33678 0.03737
 N329 N 0.25119 0.33722 0.01904
 C330 C 0.26109 0.32719 0.00488
 C331 C 0.27831 0.31639 0.00886
 C332 C 0.27461 0.32610 0.04200
 C333 C 0.19185 0.35065 0.00054
 C334 C 0.17555 0.34162 -0.00550
 C335 C 0.19397 0.31106 -0.00352
 C336 C 0.20994 0.32069 0.00256
 N337 N 0.20867 0.34018 0.00420
 H338 H 0.24987 0.34525 0.04829
 H339 H 0.25590 0.32807 -0.00966
 H340 H 0.28618 0.30873 -0.00264
 H341 H 0.27978 0.32649 0.05650
 H342 H 0.19123 0.36612 0.00210
 H343 H 0.16248 0.35031 -0.00881
 H344 H 0.19521 0.29555 -0.00481
 H345 H 0.22333 0.31260 0.00588
 C346 C 0.20731 0.38903 0.06541
 C347 C 0.25611 0.39260 -0.03954
 C348 C 0.17651 0.32157 -0.00772
 C349 C 0.28539 0.31595 0.02759
 C350 C 0.77242 0.08616 1.03105
 H351 H 0.77957 0.08556 1.01671
 C352 C 0.78035 0.07544 1.04663
 H353 H 0.79346 0.06634 1.04411
 C354 C 0.74689 0.09914 1.05177
 H355 H 0.73420 0.10883 1.05386
 C356 C 0.75430 0.08867 1.06773
 H357 H 0.74714 0.09043 1.08194
 N358 N 0.75600 0.09774 1.03386
 C359 C 0.73192 0.10914 0.97709
 H360 H 0.73055 0.12474 0.97723
 C361 C 0.72593 0.09970 0.96124
 H362 H 0.71975 0.10816 0.94928
 C363 C 0.74123 0.07925 0.99287
 H364 H 0.74709 0.07136 1.00530
 C365 C 0.73533 0.06918 0.97729
 H366 H 0.73695 0.05356 0.97774
 Zn367 Zn 0.74742 0.11367 1.01266
 N368 N 0.73966 0.09889 0.99235
 C369 C 0.77662 0.12718 0.98530
 N370 N 0.76875 0.12887 1.00368
 C371 C 0.77673 0.14038 1.01627
 C372 C 0.79313 0.15100 1.01041
 C373 C 0.79300 0.13747 0.97888
 C374 C 0.70857 0.12000 1.02588
 C375 C 0.69143 0.13041 1.03153
 C376 C 0.70869 0.15995 1.02547
 C377 C 0.72555 0.14895 1.01995
 N378 N 0.72524 0.12932 1.02046
 H379 H 0.77044 0.11761 0.97564
 H380 H 0.77046 0.14113 1.03094
 H381 H 0.79944 0.15991 1.02067
 H382 H 0.79892 0.13604 0.96413
 H383 H 0.70864 0.10440 1.02578
 H384 H 0.67829 0.12269 1.03566
 H385 H 0.70929 0.17553 1.02529
 H386 H 0.73881 0.15611 1.01520
 C387 C 0.72772 0.07946 0.96112
 C388 C 0.77136 0.07676 1.06532
 C389 C 0.69135 0.15067 1.03145
 C390 C 0.80154 0.14952 0.99150
 C391 C 0.27547 0.58756 0.52542
 H392 H 0.28249 0.58725 0.51101
 C393 C 0.28374 0.57678 0.54078
 H394 H 0.29697 0.56793 0.53802
 C395 C 0.24994 0.59987 0.54655
 H396 H 0.23711 0.60932 0.54889
 C397 C 0.25767 0.58932 0.56231
 H398 H 0.25063 0.59078 0.57661
 N399 N 0.25890 0.59884 0.52855
 C400 C 0.23427 0.61050 0.47208
 H401 H 0.23286 0.62610 0.47226
 C402 C 0.22813 0.60107 0.45629
 H403 H 0.22179 0.60952 0.44441
 C404 C 0.24380 0.58061 0.48773
 H405 H 0.24978 0.57272 0.50009
 C406 C 0.23775 0.57054 0.47221
 H407 H 0.23940 0.55493 0.47265
 Zn408 Zn 0.24995 0.61493 0.50763
 N409 N 0.24217 0.60025 0.48725
 C410 C 0.27908 0.62861 0.48031
 N411 N 0.27116 0.63033 0.49867
 C412 C 0.27930 0.64162 0.51135
 C413 C 0.29605 0.65180 0.50569
 C414 C 0.29580 0.63847 0.47408
 C415 C 0.21117 0.62047 0.52110
 C416 C 0.19388 0.63044 0.52710
 C417 C 0.21058 0.66038 0.52180
 C418 C 0.22761 0.64980 0.51589
 N419 N 0.22763 0.63019 0.51586
 H420 H 0.27277 0.61921 0.47057
 H421 H 0.27299 0.64238 0.52601
 H422 H 0.30255 0.66043 0.51608
 H423 H 0.30182 0.63693 0.45939
 H424 H 0.21152 0.60489 0.52059
 H425 H 0.18092 0.62239 0.53107
 H426 H 0.21090 0.67596 0.52205
 H427 H 0.24074 0.65729 0.51131
 C428 C 0.22993 0.58083 0.45615
 C429 C 0.27492 0.57773 0.55958
 C430 C 0.19343 0.65067 0.52760
 C431 C 0.30464 0.65011 0.48687
 C432 C 0.75809 0.87659 0.49984
 H433 H 0.76472 0.87540 0.51374
 C434 C 0.76645 0.88805 0.48466
 H435 H 0.77939 0.89588 0.48707
 C436 C 0.73320 0.86767 0.47985
 H437 H 0.72051 0.85939 0.47786
 C438 C 0.74107 0.87896 0.46428
 H439 H 0.73429 0.87919 0.45046
 N440 N 0.74170 0.86679 0.49724
 C441 C 0.71379 0.85624 0.55490
 H442 H 0.71228 0.84078 0.55495
 C443 C 0.70693 0.86646 0.57098
 H444 H 0.69999 0.85875 0.58334
 C445 C 0.72430 0.88508 0.53848
 H446 H 0.73093 0.89233 0.52573
 C447 C 0.71762 0.89587 0.55423
 H448 H 0.71954 0.91130 0.55354
 Zn449 Zn 0.73186 0.85062 0.51812
 N450 N 0.72257 0.86559 0.53920
 C451 C 0.75921 0.83352 0.54392
 N452 N 0.75296 0.83364 0.52556
 C453 C 0.76301 0.82342 0.51164
 C454 C 0.78032 0.81285 0.51587
 C455 C 0.77633 0.82309 0.54880
 C456 C 0.69387 0.84810 0.50669
 C457 C 0.67764 0.83984 0.49958
 C458 C 0.69546 0.80892 0.50033
 C459 C 0.71142 0.81781 0.50747
 N460 N 0.71045 0.83716 0.51010
 H461 H 0.75142 0.84215 0.55466
 H462 H 0.75795 0.82405 0.49704
 H463 H 0.78833 0.80509 0.50453
 H464 H 0.78142 0.82382 0.56330
 H465 H 0.69344 0.86341 0.50913
 H466 H 0.66465 0.84889 0.49682
 H467 H 0.69667 0.79365 0.49769
 H468 H 0.72467 0.80934 0.51050
 C469 C 0.70893 0.88654 0.57084
 C470 C 0.75794 0.88930 0.46655
 C471 C 0.67841 0.82007 0.49596
 C472 C 0.78733 0.81284 0.53461
 C473 C 0.00018 0.25921 0.37891
 H474 H 0.01443 0.26552 0.37794
 C475 C -0.01536 0.26792 0.38973
 H476 H -0.01296 0.28100 0.39703
 C477 C -0.02045 0.23506 0.36965
 H478 H -0.02253 0.22250 0.36151
 C479 C -0.03638 0.24329 0.38029
 H480 H -0.05045 0.23665 0.38053
 N481 N -0.00259 0.24307 0.36917
 C482 C 0.05511 0.21463 0.35911
 H483 H 0.05507 0.21303 0.34362
 C484 C 0.07122 0.20765 0.36935
 H485 H 0.08350 0.20052 0.36163
 C486 C 0.03887 0.22557 0.38797
 H487 H 0.02620 0.23245 0.39519
 C488 C 0.05468 0.21877 0.39879
 H489 H 0.05411 0.22082 0.41424
 Zn490 Zn 0.01858 0.23316 0.35325
 N491 N 0.03951 0.22368 0.36844
 C492 C 0.04557 0.25974 0.33643
 N493 N 0.02683 0.25390 0.33633
 C494 C 0.01305 0.26424 0.32619
 C495 C 0.01775 0.28159 0.31618
 C496 C 0.05091 0.27689 0.32655
 C497 C 0.00616 0.19605 0.35061
 C498 C -0.00112 0.18018 0.34222
 C499 C 0.00086 0.19769 0.31109
 C500 C 0.00811 0.21333 0.32013
 N501 N 0.01023 0.21232 0.33962
 H502 H 0.05626 0.25159 0.34482
 H503 H -0.00186 0.25948 0.32669
 H504 H 0.00634 0.29008 0.30897
 H505 H 0.06584 0.28143 0.32711
 H506 H 0.00823 0.19559 0.36604
 H507 H -0.00441 0.16742 0.35128
 H508 H -0.00132 0.19888 0.29567
 H509 H 0.01167 0.22634 0.31165
 C510 C 0.07122 0.20984 0.38944
 C511 C -0.03400 0.26003 0.39038
 C512 C -0.00418 0.18097 0.32226
 C513 C 0.03679 0.28836 0.31671
 C514 C 1.03035 0.78411 0.09457
 H515 H 1.01603 0.79137 0.09381
 C516 C 1.04657 0.79197 0.08436
 H517 H 1.04461 0.80535 0.07578
 C518 C 1.05042 0.75841 0.10760
 H519 H 1.05198 0.74558 0.11700
 C520 C 1.06701 0.76576 0.09766
 H521 H 1.08110 0.75820 0.09920
 N522 N 1.03254 0.76763 0.10591
 C523 C 0.97437 0.74436 0.11496
 H524 H 0.97376 0.74277 0.13064
 C525 C 0.95879 0.73860 0.10472
 H526 H 0.94627 0.73241 0.11263
 C527 C 0.99183 0.75382 0.08569
 H528 H 1.00483 0.75959 0.07836
 C529 C 0.97656 0.74816 0.07482
 H530 H 0.97783 0.74988 0.05915
 Zn531 Zn 1.01047 0.75897 0.12110
 N532 N 0.99035 0.75200 0.10540
 C533 C 0.98301 0.78771 0.13440
 N534 N 1.00131 0.77959 0.13661
 C535 C 1.01385 0.78704 0.14864
 C536 C 1.00807 0.80324 0.15914
 C537 C 0.97666 0.80391 0.14456
 C538 C 1.02278 0.72054 0.12648
 C539 C 1.02817 0.70327 0.13638
 C540 C 1.02220 0.71911 0.16662
 C541 C 1.01691 0.73615 0.15610
 N542 N 1.01755 0.73659 0.13638
 H543 H 0.97341 0.78195 0.12443
 H544 H 1.02849 0.78058 0.14979
 H545 H 1.01834 0.80918 0.16840
 H546 H 0.96200 0.81008 0.14264
 H547 H 1.02280 0.72123 0.11080
 H548 H 1.03219 0.69066 0.12819
 H549 H 1.02198 0.71909 0.18230
 H550 H 1.01234 0.74895 0.16371
 C551 C 0.95972 0.74053 0.08438
 C552 C 1.06525 0.78287 0.08601
 C553 C 1.02807 0.70242 0.15672
 C554 C 0.98930 0.81199 0.15700
 C555 C 0.52948 0.28066 0.59086
 H556 H 0.51502 0.28762 0.59015
 C557 C 0.54548 0.28881 0.58052
 H558 H 0.54320 0.30211 0.57190
 C559 C 0.55014 0.25544 0.60389
 H560 H 0.55202 0.24269 0.61334
 C561 C 0.56651 0.26308 0.59381
 H562 H 0.58076 0.25581 0.59530
 N563 N 0.53207 0.26428 0.60227
 C564 C 0.47455 0.23967 0.61173
 H565 H 0.47401 0.23820 0.62740
 C566 C 0.45913 0.23343 0.60157
 H567 H 0.44680 0.22698 0.60956
 C568 C 0.49171 0.24935 0.58235
 H569 H 0.50454 0.25540 0.57495
 C570 C 0.47660 0.24320 0.57157
 H571 H 0.47780 0.24484 0.55590
 Zn572 Zn 0.51028 0.25524 0.61763
 N573 N 0.49031 0.24765 0.60207
 C574 C 0.48217 0.28344 0.63101
 N575 N 0.50070 0.27580 0.63304
 C576 C 0.51316 0.28369 0.64484
 C577 C 0.50709 0.29985 0.65527
 C578 C 0.47552 0.29958 0.64111
 C579 C 0.52353 0.21709 0.62329
 C580 C 0.52934 0.20004 0.63334
 C581 C 0.52299 0.21608 0.66343
 C582 C 0.51730 0.23289 0.65276
 N583 N 0.51792 0.23314 0.63304
 H584 H 0.47262 0.27733 0.62122
 H585 H 0.52797 0.27761 0.64585
 H586 H 0.51733 0.30615 0.66431
 H587 H 0.46070 0.30537 0.63933
 H588 H 0.52353 0.21761 0.60762
 H589 H 0.53366 0.18741 0.62527
 H590 H 0.52277 0.21622 0.67909
 H591 H 0.51243 0.24569 0.66025
 C592 C 0.45998 0.23522 0.58122
 C593 C 0.56435 0.28011 0.58210
 C594 C 0.52925 0.19939 0.65369
 C595 C 0.48808 0.30811 0.65332
 C596 C 0.49857 0.75779 0.87792
 H597 H 0.51256 0.76460 0.87724
 C598 C 0.48265 0.76574 0.88880
 H599 H 0.48449 0.77876 0.89639
 C600 C 0.47901 0.73309 0.86796
 H601 H 0.47754 0.72057 0.85956
 C602 C 0.46270 0.74055 0.87864
 H603 H 0.44892 0.73343 0.87863
 N604 N 0.49651 0.74174 0.86782
 C605 C 0.55529 0.71558 0.85835
 H606 H 0.55576 0.71439 0.84278
 C607 C 0.57139 0.70906 0.86884
 H608 H 0.58418 0.70268 0.86123
 C609 C 0.53783 0.72507 0.88714
 H610 H 0.52470 0.73123 0.89424
 C611 C 0.55359 0.71868 0.89821
 H612 H 0.55251 0.72030 0.91374
 Zn613 Zn 0.51828 0.73294 0.85205
 N614 N 0.53910 0.72374 0.86754
 C615 C 0.54469 0.76076 0.83663
 N616 N 0.52620 0.75440 0.83593
 C617 C 0.51240 0.76457 0.82565
 C618 C 0.51683 0.78220 0.81605
 C619 C 0.54976 0.77821 0.82720
 C620 C 0.50769 0.69539 0.84776
 C621 C 0.50185 0.67940 0.83846
 C622 C 0.50346 0.69824 0.80807
 C623 C 0.50940 0.71390 0.81798
 N624 N 0.51111 0.71226 0.83752
 H625 H 0.55538 0.75275 0.84514
 H626 H 0.49768 0.75940 0.82566
 H627 H 0.50541 0.79050 0.80867
 H628 H 0.56449 0.78311 0.82819
 H629 H 0.50924 0.69449 0.86328
 H630 H 0.49870 0.66628 0.84700
 H631 H 0.50203 0.69977 0.79253
 H632 H 0.51245 0.72738 0.81009
 C633 C 0.57074 0.71075 0.88903
 C634 C 0.46437 0.75718 0.88914
 C635 C 0.49952 0.68072 0.81837
 C636 C 0.53561 0.78944 0.81716
 C637 C 0.46149 -0.16800 0.34777
 C638 C 0.46288 -0.16642 0.32752
 C639 C 0.47126 -0.18175 0.31707
 C640 C 0.47804 -0.19873 0.32682
 C641 C 0.47639 -0.20067 0.34728
 C642 C 0.46823 -0.18491 0.35755
 C643 C 0.45532 -0.14918 0.31753
 C644 C 0.44864 -0.13473 0.30948
 C645 C 0.44040 -0.11782 0.30040
 C646 C 0.43299 -0.10340 0.29293
 C647 C 0.42371 -0.08625 0.28435
 C648 C 0.42474 -0.08280 0.26419
 C649 C 0.41504 -0.06649 0.25589
 C650 C 0.40416 -0.05341 0.26765
 C651 C 0.40341 -0.05692 0.28791
 C652 C 0.41312 -0.07322 0.29618
 H653 H 0.45507 -0.15620 0.35603
 H654 H 0.47249 -0.18062 0.30136
 H655 H 0.48450 -0.21003 0.31809
 H656 H 0.46694 -0.18579 0.37325
 H657 H 0.43291 -0.09278 0.25490
 H658 H 0.41607 -0.06407 0.24027
 H659 H 0.39493 -0.04731 0.29735
 H660 H 0.41214 -0.07581 0.31179
 C661 C 0.96981 0.31513 0.81713
 C662 C 0.95985 0.33022 0.82674
 C663 C 0.95633 0.32861 0.84685
 C664 C 0.96257 0.31191 0.85730
 C665 C 0.97228 0.29637 0.84783
 C666 C 0.97609 0.29837 0.82756
 C667 C 0.95310 0.34736 0.81605
 C668 C 0.94711 0.36178 0.80741
 C669 C 0.93968 0.37869 0.79767
 C670 C 0.93292 0.39313 0.78966
 C671 C 0.92431 0.41032 0.78050
 C672 C 0.92642 0.42832 0.78827
 C673 C 0.91691 0.44486 0.78021
 C674 C 0.90510 0.44358 0.76429
 C675 C 0.90345 0.42548 0.75632
 C676 C 0.91298 0.40897 0.76439
 H677 H 0.97279 0.31633 0.80157
 H678 H 0.94874 0.34026 0.85447
 H679 H 0.95979 0.31109 0.87289
 H680 H 0.98412 0.28736 0.81954
 H681 H 0.93507 0.42951 0.80081
 H682 H 0.91827 0.45853 0.78682
 H683 H 0.89468 0.42407 0.74391
 H684 H 0.91125 0.39510 0.75827
 C685 C 0.02064 1.20984 0.82868
 C686 C 0.01862 1.19246 0.83962
 C687 C 0.00881 1.19247 0.85791
 C688 C 0.00079 1.20975 0.86514
 C689 C 0.00234 1.22729 0.85414
 C690 C 0.01263 1.22713 0.83588
 C691 C 0.02648 1.17462 0.83200
 C692 C 0.03301 1.15970 0.82550
 C693 C 0.04070 1.14231 0.81777
 C694 C 0.04738 1.12755 0.81107
 C695 C 0.05559 1.11007 0.80294
 C696 C 0.06368 1.09533 0.81500
 C697 C 0.07240 1.07869 0.80702
 C698 C 0.07318 1.07662 0.78683
 C699 C 0.06473 1.09140 0.77487
 C700 C 0.05600 1.10801 0.78288
 H701 H 0.02837 1.21004 0.81456
 H702 H 0.00722 1.17910 0.86654
 H703 H -0.00684 1.20914 0.87919
 H704 H 0.01469 1.24035 0.82717
 H705 H 0.06351 1.09681 0.83054
 H706 H 0.07902 1.06771 0.81659
 H707 H 0.06489 1.09012 0.75931
 H708 H 0.04975 1.11932 0.77342
 C709 C 0.50664 0.69410 0.35398
 C710 C 0.51835 0.69395 0.33671
 C711 C 0.52294 0.71141 0.32684
 C712 C 0.51587 0.72896 0.33417
 C713 C 0.50408 0.72927 0.35151
 C714 C 0.49955 0.71165 0.36136
 C715 C 0.52581 0.67595 0.32908
 C716 C 0.53234 0.66110 0.32245
 C717 C 0.54036 0.64396 0.31443
 C718 C 0.54758 0.62956 0.30741
 C719 C 0.55668 0.61265 0.29886
 C720 C 0.57565 0.61348 0.29021
 C721 C 0.58470 0.59715 0.28197
 C722 C 0.57489 0.57971 0.28224
 C723 C 0.55579 0.57901 0.29096
 C724 C 0.54675 0.59540 0.29920
 H725 H 0.50296 0.68066 0.36172
 H726 H 0.53206 0.71147 0.31350
 H727 H 0.51984 0.74228 0.32640
 H728 H 0.49027 0.71141 0.37457
 H729 H 0.58351 0.62673 0.28993
 H730 H 0.59953 0.59809 0.27568
 H731 H 0.54779 0.56586 0.29124
 H732 H 0.53204 0.59461 0.30582
 C733 C 0.50127 0.33425 0.16691
 C734 C 0.51951 0.33245 0.17521
 C735 C 0.53119 0.31552 0.17313
 C736 C 0.52495 0.30074 0.16221
 C737 C 0.50712 0.30281 0.15276
 C738 C 0.49500 0.31951 0.15596
 C739 C 0.52655 0.34830 0.18515
 C740 C 0.53267 0.36183 0.19292
 C741 C 0.54017 0.37784 0.20142
 C742 C 0.54697 0.39158 0.20822
 C743 C 0.55564 0.40795 0.21583
 C744 C 0.57249 0.40522 0.22645
 C745 C 0.58182 0.42114 0.23268
 C746 C 0.57445 0.44005 0.22832
 C747 C 0.55723 0.44265 0.21803
 C748 C 0.54792 0.42668 0.21178
 H749 H 0.49194 0.34717 0.16873
 H750 H 0.54525 0.31385 0.17971
 H751 H 0.53428 0.28778 0.16082
 H752 H 0.48062 0.32142 0.15024
 H753 H 0.57860 0.39079 0.22966
 H754 H 0.59489 0.41866 0.24083
 H755 H 0.55132 0.45703 0.21430
 H756 H 0.53494 0.42896 0.20347
 C757 C 0.00979 0.81840 0.68184
 C758 C 0.02111 0.83250 0.67208
 C759 C 0.02702 0.83055 0.65260
 C760 C 0.02206 0.81438 0.64299
 C761 C 0.01146 0.79940 0.65279
 C762 C 0.00475 0.80215 0.67227
 C763 C 0.02690 0.84898 0.68191
 C764 C 0.03241 0.86285 0.68958
 C765 C 0.03963 0.87911 0.69792
 C766 C 0.04651 0.89294 0.70447
 C767 C 0.05558 0.90932 0.71162
 C768 C 0.07184 0.91696 0.70124
 C769 C 0.08127 0.93242 0.70826
 C770 C 0.07458 0.94049 0.72582
 C771 C 0.05801 0.93294 0.73603
 C772 C 0.04860 0.91740 0.72898
 H773 H 0.00477 0.82000 0.69684
 H774 H 0.03551 0.84156 0.64478
 H775 H 0.02659 0.81360 0.62777
 H776 H -0.00465 0.79205 0.68022
 H777 H 0.07733 0.91087 0.68776
 H778 H 0.09378 0.93812 0.69990
 H779 H 0.05263 0.93875 0.74967
 H780 H 0.03603 0.91156 0.73716
 C781 C 0.97739 0.69930 0.64917
 C782 C 0.97080 0.69863 0.66865
 C783 C 0.97267 0.71467 0.67973
 C784 C 0.98084 0.73143 0.67129
 C785 C 0.98728 0.73260 0.65144
 C786 C 0.98553 0.71600 0.64064
 C787 C 0.96144 0.68173 0.67697
 C788 C 0.95326 0.66760 0.68349
 C789 C 0.94331 0.65108 0.69062
 C790 C 0.93451 0.63702 0.69627
 C791 C 0.92364 0.62031 0.70251
 C792 C 0.93197 0.60572 0.71461
 C793 C 0.92148 0.58929 0.72018
 C794 C 0.90254 0.58724 0.71366
 C795 C 0.89426 0.60208 0.70165
 C796 C 0.90475 0.61847 0.69612
 H797 H 0.97610 0.68689 0.64046
 H798 H 0.96746 0.71438 0.69483
 H799 H 0.98116 0.74365 0.68036
 H800 H 0.99061 0.71533 0.62567
 H801 H 0.94661 0.60697 0.71959
 H802 H 0.92832 0.57804 0.72928
 H803 H 0.87960 0.60108 0.69663
 H804 H 0.89814 0.62969 0.68679
 C805 C 0.47974 0.21025 0.17487
 C806 C 0.46528 0.20156 0.16509
 C807 C 0.45885 0.21009 0.14766
 C808 C 0.46686 0.22717 0.13996
 C809 C 0.48146 0.23597 0.14958
 C810 C 0.48778 0.22740 0.16718
 C811 C 0.45686 0.18394 0.17279
 C812 C 0.44940 0.16921 0.17873
 C813 C 0.44024 0.15203 0.18517
 C814 C 0.43208 0.13744 0.19031
 C815 C 0.42197 0.12014 0.19609
 C816 C 0.40719 0.11410 0.18480
 C817 C 0.39707 0.09750 0.19046
 C818 C 0.40161 0.08669 0.20753
 C819 C 0.41659 0.09280 0.21872
 C820 C 0.42668 0.10943 0.21303
 H821 H 0.48482 0.20377 0.18838
 H822 H 0.44758 0.20356 0.14003
 H823 H 0.46135 0.23362 0.12663
 H824 H 0.49910 0.23379 0.17483
 H825 H 0.40346 0.12226 0.17162
 H826 H 0.38581 0.09303 0.18140
 H827 H 0.42025 0.08492 0.23206
 H828 H 0.43806 0.11401 0.22191
 C829 C 0.34886 0.46886 -0.16647
 C830 C 0.32900 0.46499 -0.16709
 C831 C 0.31949 0.46831 -0.18444
 C832 C 0.32977 0.47549 -0.20113
 C833 C 0.34978 0.47970 -0.20067
 C834 C 0.35918 0.47603 -0.18310
 C835 C 0.31864 0.45686 -0.15014
 C836 C 0.31019 0.44975 -0.13595
 C837 C 0.30059 0.44107 -0.11936
 C838 C 0.29262 0.43334 -0.10523
 C839 C 0.28341 0.42373 -0.08842
 C840 C 0.26295 0.42450 -0.08551
 C841 C 0.25404 0.41457 -0.06950
 C842 C 0.26551 0.40374 -0.05618
 C843 C 0.28609 0.40322 -0.05915
 C844 C 0.29495 0.41314 -0.07516
 H845 H 0.35646 0.46610 -0.15318
 H846 H 0.30418 0.46504 -0.18515
 H847 H 0.32198 0.47711 -0.21431
 H848 H 0.37466 0.47851 -0.18232
 H849 H 0.25388 0.43266 -0.09569
 H850 H 0.23818 0.41543 -0.06749
 H851 H 0.29532 0.39478 -0.04934
 H852 H 0.31080 0.41237 -0.07733
 C853 C 0.84617 0.97144 0.34017
 C854 C 0.82723 0.96492 0.33895
 C855 C 0.81857 0.96574 0.32103
 C856 C 0.82881 0.97304 0.30437
 C857 C 0.84781 0.98002 0.30542
 C858 C 0.85645 0.97873 0.32356
 C859 C 0.81718 0.95641 0.35590
 C860 C 0.80912 0.94895 0.37012
 C861 C 0.80003 0.93983 0.38676
 C862 C 0.79253 0.93173 0.40093
 C863 C 0.78383 0.92170 0.41776
 C864 C 0.76341 0.92209 0.42106
 C865 C 0.75498 0.91175 0.43705
 C866 C 0.76688 0.90087 0.44997
 C867 C 0.78741 0.90076 0.44663
 C868 C 0.79580 0.91109 0.43063
 H869 H 0.85319 0.97050 0.35390
 H870 H 0.80406 0.96032 0.31985
 H871 H 0.82198 0.97259 0.29067
 H872 H 0.87137 0.98293 0.32487
 H873 H 0.75401 0.93026 0.41120
 H874 H 0.73915 0.91232 0.43936
 H875 H 0.79696 0.89232 0.45613
 H876 H 0.81163 0.91062 0.42816
 C877 C 0.85373 0.02317 1.20356
 C878 C 0.83552 0.01672 1.19891
 C879 C 0.82532 0.00427 1.21199
 C880 C 0.83322 -0.00163 1.22968
 C881 C 0.85147 0.00492 1.23462
 C882 C 0.86167 0.01729 1.22124
 C883 C 0.82723 0.02310 1.18085
 C884 C 0.82027 0.02866 1.16579
 C885 C 0.81211 0.03548 1.14827
 C886 C 0.80512 0.04162 1.13342
 C887 C 0.79674 0.04938 1.11584
 C888 C 0.77641 0.04967 1.11406
 C889 C 0.76816 0.05819 1.09745
 C890 C 0.78017 0.06655 1.08239
 C891 C 0.80064 0.06585 1.08417
 C892 C 0.80884 0.05734 1.10080
 H893 H 0.86176 0.03285 1.19355
 H894 H 0.81124 -0.00090 1.20851
 H895 H 0.82512 -0.01153 1.23934
 H896 H 0.87563 0.02271 1.22440
 H897 H 0.76690 0.04354 1.12562
 H898 H 0.75239 0.05830 1.09642
 H899 H 0.81026 0.07239 1.07297
 H900 H 0.82460 0.05727 1.10206
 C901 C 0.35801 0.52369 0.69758
 C902 C 0.34020 0.51688 0.69223
 C903 C 0.32995 0.50397 0.70477
 C904 C 0.33736 0.49805 0.72267
 C905 C 0.35514 0.50504 0.72837
 C906 C 0.36546 0.51777 0.71548
 C907 C 0.33222 0.52343 0.67407
 C908 C 0.32535 0.52913 0.65902
 C909 C 0.31713 0.53607 0.64157
 C910 C 0.30998 0.54230 0.62683
 C911 C 0.30131 0.55015 0.60945
 C912 C 0.28096 0.55009 0.60787
 C913 C 0.27239 0.55868 0.59147
 C914 C 0.28408 0.56748 0.57641
 C915 C 0.30457 0.56714 0.57798
 C916 C 0.31310 0.55855 0.59441
 H917 H 0.36607 0.53371 0.68798
 H918 H 0.31619 0.49851 0.70074
 H919 H 0.32923 0.48782 0.73192
 H920 H 0.37910 0.52348 0.71923
 H921 H 0.27169 0.54363 0.61942
 H922 H 0.25661 0.55852 0.59058
 H923 H 0.31395 0.57402 0.56679
 H924 H 0.32886 0.55877 0.59553
 C925 C 0.14745 0.51854 0.33170
 C926 C 0.16780 0.52022 0.33066
 C927 C 0.17854 0.51704 0.31321
 C928 C 0.16899 0.51219 0.29683
 C929 C 0.14846 0.51025 0.29772
 C930 C 0.13786 0.51371 0.31539
 C931 C 0.17745 0.52607 0.34728
 C932 C 0.18522 0.53140 0.36120
 C933 C 0.19396 0.53819 0.37746
 C934 C 0.20115 0.54452 0.39124
 C935 C 0.20941 0.55278 0.40750
 C936 C 0.22028 0.56939 0.40454
 C937 C 0.22728 0.57827 0.42034
 C938 C 0.22348 0.57066 0.43936
 C939 C 0.21291 0.55369 0.44218
 C940 C 0.20588 0.54484 0.42633
 H941 H 0.13893 0.52122 0.34506
 H942 H 0.19429 0.51862 0.31217
 H943 H 0.17782 0.51052 0.28356
 H944 H 0.12204 0.51286 0.31649
 H945 H 0.22311 0.57565 0.39003
 H946 H 0.23562 0.59114 0.41768
 H947 H 0.20959 0.54761 0.45666
 H948 H 0.19739 0.53203 0.42879
 C949 C 0.64680 0.01714 0.83558
 C950 C 0.66701 0.01976 0.83446
 C951 C 0.67771 0.01778 0.81678
 C952 C 0.66827 0.01314 0.80027
 C953 C 0.64792 0.01013 0.80125
 C954 C 0.63732 0.01252 0.81913
 C955 C 0.67651 0.02541 0.85125
 C956 C 0.68414 0.03058 0.86533
 C957 C 0.69272 0.03720 0.88175
 C958 C 0.69978 0.04340 0.89567
 C959 C 0.70787 0.05155 0.91208
 C960 C 0.71884 0.06812 0.90931
 C961 C 0.72564 0.07693 0.92524
 C962 C 0.72152 0.06931 0.94421
 C963 C 0.71089 0.05238 0.94685
 C964 C 0.70406 0.04359 0.93086
 H965 H 0.63829 0.01895 0.84912
 H966 H 0.69332 0.02017 0.81567
 H967 H 0.67696 0.01251 0.78678
 H968 H 0.62157 0.01102 0.82032
 H969 H 0.72189 0.07440 0.89484
 H970 H 0.73404 0.08978 0.92273
 H971 H 0.70735 0.04629 0.96128
 H972 H 0.69549 0.03082 0.93317
 C973 C 0.64565 0.98259 0.69756
 C974 C 0.66018 0.96776 0.69876
 C975 C 0.66798 0.96245 0.71667
 C976 C 0.66111 0.97178 0.73335
 C977 C 0.64633 0.98655 0.73231
 C978 C 0.63876 0.99193 0.71422
 C979 C 0.66674 0.95764 0.68175
 C980 C 0.67211 0.94898 0.66758
 C981 C 0.67831 0.93865 0.65109
 C982 C 0.68356 0.92969 0.63709
 C983 C 0.68983 0.91887 0.62045
 C984 C 0.69912 0.90058 0.62298
 C985 C 0.70525 0.89003 0.60687
 C986 C 0.70218 0.89766 0.58796
 C987 C 0.69279 0.91605 0.58557
 C988 C 0.68666 0.92657 0.60172
 H989 H 0.63953 0.98685 0.68377
 H990 H 0.67916 0.95091 0.71779
 H991 H 0.66699 0.96703 0.74711
 H992 H 0.62758 1.00339 0.71292
 H993 H 0.70169 0.89450 0.63742
 H994 H 0.71268 0.87605 0.60919
 H995 H 0.69000 0.92222 0.57123
 H996 H 0.67942 0.94069 0.59959
 C997 C 0.14347 0.48122 0.19445
 C998 C 0.15924 0.46766 0.19519
 C999 C 0.16825 0.46351 0.21271
 C1000 C 0.16144 0.47278 0.22944
 C1001 C 0.14550 0.48640 0.22887
 C1002 C 0.13663 0.49049 0.21116
 C1003 C 0.16586 0.45772 0.17809
 C1004 C 0.17124 0.44929 0.16378
 C1005 C 0.17739 0.43930 0.14707
 C1006 C 0.18257 0.43067 0.13283
 C1007 C 0.18873 0.42025 0.11590
 C1008 C 0.19818 0.40199 0.11795
 C1009 C 0.20416 0.39181 0.10154
 C1010 C 0.20077 0.39979 0.08283
 C1011 C 0.19124 0.41816 0.08092
 C1012 C 0.18526 0.42831 0.09736
 H1013 H 0.13636 0.48454 0.18096
 H1014 H 0.18039 0.45292 0.21349
 H1015 H 0.16835 0.46886 0.24289
 H1016 H 0.12445 0.50087 0.21010
 H1017 H 0.20098 0.39564 0.13223
 H1018 H 0.21170 0.37783 0.10349
 H1019 H 0.18821 0.42459 0.06674
 H1020 H 0.17790 0.44241 0.09561
 C1021 C -0.16032 0.35452 0.46585
 C1022 C -0.16130 0.33507 0.46177
 C1023 C -0.17907 0.32585 0.46490
 C1024 C -0.19583 0.33601 0.47214
 C1025 C -0.19501 0.35558 0.47663
 C1026 C -0.17703 0.36472 0.47307
 C1027 C -0.14427 0.32478 0.45365
 C1028 C -0.13008 0.31627 0.44655
 C1029 C -0.11360 0.30642 0.43788
 C1030 C -0.09965 0.29810 0.43014
 C1031 C -0.08320 0.28824 0.42046
 C1032 C -0.06487 0.28686 0.42867
 C1033 C -0.04885 0.27759 0.41898
 C1034 C -0.05100 0.26957 0.40094
 C1035 C -0.06953 0.27099 0.39287
 C1036 C -0.08550 0.28026 0.40257
 H1037 H -0.14670 0.36189 0.46321
 H1038 H -0.18007 0.31087 0.46145
 H1039 H -0.20936 0.32848 0.47360
 H1040 H -0.17597 0.37989 0.47572
 H1041 H -0.06294 0.29298 0.44253
 H1042 H -0.03483 0.27655 0.42565
 H1043 H -0.07160 0.26526 0.37887
 H1044 H -0.09960 0.28134 0.39604
 C1045 C 0.33921 0.85006 0.96704
 C1046 C 0.33698 0.83137 0.96113
 C1047 C 0.31845 0.82348 0.96267
 C1048 C 0.30221 0.83414 0.97029
 C1049 C 0.30424 0.85289 0.97704
 C1050 C 0.32305 0.86078 0.97466
 C1051 C 0.35355 0.82061 0.95273
 C1052 C 0.36747 0.81182 0.94547
 C1053 C 0.38377 0.80178 0.93670
 C1054 C 0.39769 0.79342 0.92896
 C1055 C 0.41428 0.78370 0.91937
 C1056 C 0.43255 0.78260 0.92770
 C1057 C 0.44882 0.77377 0.91801
 C1058 C 0.44700 0.76594 0.89983
 C1059 C 0.42851 0.76696 0.89168
 C1060 C 0.41228 0.77579 0.90139
 H1061 H 0.35343 0.85649 0.96550
 H1062 H 0.31648 0.80918 0.95764
 H1063 H 0.28810 0.82769 0.97025
 H1064 H 0.32526 0.87546 0.97848
 H1065 H 0.43425 0.78867 0.94163
 H1066 H 0.46280 0.77301 0.92475
 H1067 H 0.42668 0.76134 0.87758
 H1068 H 0.39822 0.77666 0.89476
 C1069 C 1.20410 0.86408 0.02304
 C1070 C 1.19901 0.84556 0.01869
 C1071 C 1.21181 0.83431 0.00701
 C1072 C 1.22968 0.84148 -0.00027
 C1073 C 1.23518 0.86018 0.00397
 C1074 C 1.22196 0.87136 0.01578
 C1075 C 1.18085 0.83791 0.02657
 C1076 C 1.16580 0.83132 0.03337
 C1077 C 1.14839 0.82342 0.04159
 C1078 C 1.13371 0.81652 0.04892
 C1079 C 1.11647 0.80810 0.05808
 C1080 C 1.09904 0.80816 0.04828
 C1081 C 1.08235 0.79993 0.05731
 C1082 C 1.08292 0.79151 0.07624
 C1083 C 1.10052 0.79157 0.08594
 C1084 C 1.11715 0.79980 0.07691
 H1085 H 1.19438 0.87284 0.03228
 H1086 H 1.20797 0.81995 0.00349
 H1087 H 1.23883 0.83242 -0.00968
 H1088 H 1.22546 0.88541 0.02032
 H1089 H 1.09836 0.81452 0.03368
 H1090 H 1.06907 0.79995 0.04942
 H1091 H 1.10135 0.78551 0.10063
 H1092 H 1.13054 0.79975 0.08464
 C1093 C 0.70229 0.36350 0.52182
 C1094 C 0.69693 0.34566 0.51568
 C1095 C 0.70954 0.33542 0.50286
 C1096 C 0.72757 0.34287 0.49642
 C1097 C 0.73335 0.36065 0.50281
 C1098 C 0.72031 0.37098 0.51538
 C1099 C 0.67877 0.33758 0.52299
 C1100 C 0.66376 0.33066 0.52946
 C1101 C 0.64645 0.32238 0.53746
 C1102 C 0.63191 0.31516 0.54471
 C1103 C 0.61488 0.30637 0.55391
 C1104 C 0.59744 0.30604 0.54419
 C1105 C 0.58096 0.29747 0.55330
 C1106 C 0.58178 0.28909 0.57223
 C1107 C 0.59940 0.28954 0.58185
 C1108 C 0.61580 0.29811 0.57273
 H1109 H 0.69263 0.37155 0.53175
 H1110 H 0.70550 0.32163 0.49792
 H1111 H 0.73687 0.33472 0.48629
 H1112 H 0.72403 0.38465 0.52061
 H1113 H 0.59657 0.31238 0.52960
 H1114 H 0.56767 0.29720 0.54547
 H1115 H 0.60041 0.28352 0.59654
 H1116 H 0.62921 0.29835 0.58042
 C1117 C 0.31871 0.17642 0.52026
 C1118 C 0.33794 0.16925 0.51650
 C1119 C 0.34125 0.15154 0.50782
 C1120 C 0.32542 0.14098 0.50293
 C1121 C 0.30593 0.14816 0.50634
 C1122 C 0.30285 0.16590 0.51539
 C1123 C 0.35422 0.17946 0.52265
 C1124 C 0.36782 0.18772 0.52830
 C1125 C 0.38365 0.19704 0.53553
 C1126 C 0.39704 0.20472 0.54229
 C1127 C 0.41280 0.21352 0.55110
 C1128 C 0.43224 0.21051 0.54398
 C1129 C 0.44762 0.21798 0.55347
 C1130 C 0.44370 0.22844 0.57028
 C1131 C 0.42408 0.23175 0.57704
 C1132 C 0.40876 0.22432 0.56752
 H1133 H 0.31596 0.18994 0.52733
 H1134 H 0.35609 0.14564 0.50525
 H1135 H 0.32862 0.12696 0.49708
 H1136 H 0.28812 0.17149 0.51906
 H1137 H 0.43554 0.20208 0.53134
 H1138 H 0.46258 0.21504 0.54805
 H1139 H 0.42060 0.23999 0.58977
 H1140 H 0.39377 0.22673 0.57315
 C1141 C 0.83923 0.65632 0.01695
 C1142 C 0.83696 0.67619 0.01944
 C1143 C 0.81873 0.68570 0.01680
 C1144 C 0.80279 0.67539 0.01167
 C1145 C 0.80493 0.65537 0.00887
 C1146 C 0.82336 0.64600 0.01185
 C1147 C 0.85313 0.68652 0.02565
 C1148 C 0.86671 0.69478 0.03132
 C1149 C 0.88261 0.70401 0.03854
 C1150 C 0.89610 0.71152 0.04528
 C1151 C 0.91205 0.72005 0.05408
 C1152 C 0.90822 0.73089 0.07050
 C1153 C 0.92372 0.73794 0.08007
 C1154 C 0.94328 0.73423 0.07334
 C1155 C 0.94698 0.72376 0.05651
 C1156 C 0.93143 0.71667 0.04697
 H1157 H 0.85321 0.64874 0.01924
 H1158 H 0.81673 0.70103 0.01906
 H1159 H 0.78883 0.68319 0.01048
 H1160 H 0.82541 0.63055 0.01043
 H1161 H 0.89328 0.73359 0.07613
 H1162 H 0.92040 0.74620 0.09282
 H1163 H 0.96189 0.72051 0.05111
 H1164 H 0.93456 0.70820 0.03433
 C1165 C 0.70924 0.67368 0.98179
 C1166 C 0.70097 0.66272 0.96810
 C1167 C 0.71004 0.64507 0.96300
 C1168 C 0.72732 0.63839 0.97150
 C1169 C 0.73578 0.64929 0.98524
 C1170 C 0.72656 0.66702 0.99031
 C1171 C 0.68338 0.66963 0.95896
 C1172 C 0.66878 0.67518 0.95094
 C1173 C 0.65186 0.68146 0.94117
 C1174 C 0.63758 0.68670 0.93249
 C1175 C 0.62074 0.69289 0.92177
 C1176 C 0.62334 0.70262 0.90365
 C1177 C 0.60709 0.70841 0.89301
 C1178 C 0.58797 0.70453 0.90037
 C1179 C 0.58549 0.69479 0.91864
 C1180 C 0.60179 0.68899 0.92926
 H1181 H 0.70233 0.68737 0.98583
 H1182 H 0.70384 0.63653 0.95233
 H1183 H 0.73427 0.62490 0.96695
 H1184 H 0.73268 0.67565 1.00094
 H1185 H 0.63795 0.70574 0.89774
 H1186 H 0.60947 0.71613 0.87913
 H1187 H 0.57098 0.69142 0.92460
 H1188 H 0.59961 0.68139 0.94324
 C1189 C 0.20082 0.14527 0.48238
 C1190 C 0.20156 0.15970 0.46749
 C1191 C 0.21959 0.16729 0.46120
 C1192 C 0.23685 0.16034 0.46961
 C1193 C 0.23628 0.14566 0.48442
 C1194 C 0.21807 0.13828 0.49080
 C1195 C 0.18394 0.16638 0.45827
 C1196 C 0.16933 0.17190 0.45025
 C1197 C 0.15240 0.17831 0.44054
 C1198 C 0.13812 0.18378 0.43196
 C1199 C 0.12128 0.19034 0.42141
 C1200 C 0.10229 0.18765 0.42948
 C1201 C 0.08597 0.19397 0.41911
 C1202 C 0.08847 0.20304 0.40051
 C1203 C 0.10764 0.20568 0.39256
 C1204 C 0.12391 0.19937 0.40295
 H1205 H 0.18693 0.13931 0.48738
 H1206 H 0.22035 0.17840 0.44962
 H1207 H 0.25067 0.16609 0.46415
 H1208 H 0.21713 0.12718 0.50236
 H1209 H 0.10009 0.18062 0.44374
 H1210 H 0.07141 0.19154 0.42553
 H1211 H 0.11006 0.21286 0.37841
 H1212 H 0.13855 0.20156 0.39659
 C1213 C 0.58681 0.04983 0.72240
 C1214 C 0.58330 0.06719 0.73166
 C1215 C 0.58909 0.06866 0.75056
 C1216 C 0.59881 0.05306 0.76001
 C1217 C 0.60318 0.03551 0.75072
 C1218 C 0.59651 0.03412 0.73182
 C1219 C 0.57454 0.08381 0.72159
 C1220 C 0.56772 0.09804 0.71323
 C1221 C 0.56031 0.11497 0.70346
 C1222 C 0.55445 0.12956 0.69503
 C1223 C 0.54797 0.14706 0.68474
 C1224 C 0.53181 0.15816 0.69197
 C1225 C 0.52573 0.17525 0.68195
 C1226 C 0.53575 0.18142 0.66456
 C1227 C 0.55201 0.17017 0.65748
 C1228 C 0.55806 0.15313 0.66750
 H1229 H 0.58240 0.04853 0.70771
 H1230 H 0.58625 0.08198 0.75798
 H1231 H 0.60250 0.05494 0.77478
 H1232 H 0.59934 0.02137 0.72364
 H1233 H 0.52389 0.15359 0.70530
 H1234 H 0.51303 0.18347 0.68766
 H1235 H 0.56022 0.17468 0.64430
 H1236 H 0.57066 0.14472 0.66184
 C1237 C 1.08217 0.56672 0.25156
 C1238 C 1.08017 0.56774 0.23150
 C1239 C 1.08792 0.55267 0.22029
 C1240 C 1.09815 0.53691 0.22903
 C1241 C 1.10091 0.53609 0.24906
 C1242 C 1.09241 0.55100 0.26030
 C1243 C 1.07132 0.58482 0.22229
 C1244 C 1.06455 0.59939 0.21453
 C1245 C 1.05732 0.61668 0.20529
 C1246 C 1.05170 0.63156 0.19719
 C1247 C 1.04562 0.64935 0.18718
 C1248 C 1.05583 0.65541 0.17001
 C1249 C 1.05018 0.67270 0.16020
 C1250 C 1.03418 0.68421 0.16742
 C1251 C 1.02405 0.67806 0.18477
 C1252 C 1.02974 0.66073 0.19457
 H1253 H 1.07619 0.57828 0.26039
 H1254 H 1.08651 0.55334 0.20473
 H1255 H 1.10450 0.52583 0.21994
 H1256 H 1.09386 0.55065 0.27583
 H1257 H 1.06822 0.64679 0.16422
 H1258 H 1.05847 0.67716 0.14706
 H1259 H 1.01156 0.68650 0.19058
 H1260 H 1.02174 0.65618 0.20787
 C1261 C 0.92562 0.95358 0.23157
 C1262 C 0.92241 0.93390 0.23487
 C1263 C 0.90714 0.92803 0.24774
 C1264 C 0.89496 0.94169 0.25717
 C1265 C 0.89772 0.96172 0.25392
 C1266 C 0.91345 0.96738 0.24098
 C1267 C 0.93422 0.91956 0.22467
 C1268 C 0.94338 0.90702 0.21619
 C1269 C 0.95324 0.89184 0.20626
 C1270 C 0.96094 0.87856 0.19769
 C1271 C 0.96926 0.86244 0.18726
 C1272 C 0.96535 0.86096 0.16774
 C1273 C 0.97215 0.84470 0.15785
 C1274 C 0.98293 0.82963 0.16736
 C1275 C 0.98716 0.83141 0.18687
 C1276 C 0.98030 0.84771 0.19677
 H1277 H 0.93753 0.95828 0.22169
 H1278 H 0.90439 0.91281 0.25026
 H1279 H 0.88289 0.93628 0.26632
 H1280 H 0.91699 0.98233 0.23839
 H1281 H 0.95680 0.87226 0.16024
 H1282 H 0.96894 0.84390 0.14274
 H1283 H 0.99529 0.81998 0.19461
 H1284 H 0.98330 0.84865 0.21192
 C1285 C 0.41591 0.44874 0.71863
 C1286 C 0.42508 0.43350 0.72926
 C1287 C 0.42303 0.43267 0.74954
 C1288 C 0.41147 0.44675 0.75913
 C1289 C 0.40179 0.46183 0.74855
 C1290 C 0.40436 0.46286 0.72821
 C1291 C 0.43557 0.41809 0.71939
 C1292 C 0.44380 0.40483 0.71118
 C1293 C 0.45280 0.38901 0.70156
 C1294 C 0.45995 0.37531 0.69323
 C1295 C 0.46782 0.35883 0.68308
 C1296 C 0.47923 0.34440 0.69261
 C1297 C 0.48606 0.32797 0.68290
 C1298 C 0.48145 0.32576 0.66355
 C1299 C 0.47019 0.34048 0.65405
 C1300 C 0.46342 0.35687 0.66377
 H1301 H 0.41729 0.44945 0.70292
 H1302 H 0.43004 0.42094 0.75791
 H1303 H 0.40996 0.44572 0.77483
 H1304 H 0.39686 0.47412 0.71965
 H1305 H 0.48264 0.34572 0.70760
 H1306 H 0.49455 0.31682 0.69064
 H1307 H 0.46667 0.33937 0.63907
 H1308 H 0.45461 0.36795 0.65625
 C1309 C 0.41774 0.55226 0.75591
 C1310 C 0.42607 0.55525 0.77352
 C1311 C 0.42236 0.54256 0.78953
 C1312 C 0.41004 0.52721 0.78811
 C1313 C 0.40117 0.52435 0.77062
 C1314 C 0.40543 0.53685 0.75444
 C1315 C 0.43766 0.57178 0.77562
 C1316 C 0.44700 0.58569 0.77823
 C1317 C 0.45750 0.60196 0.78227
 C1318 C 0.46612 0.61579 0.78659
 C1319 C 0.47596 0.63215 0.79282
 C1320 C 0.49086 0.62928 0.80591
 C1321 C 0.49902 0.64510 0.81370
 C1322 C 0.49234 0.66406 0.80853
 C1323 C 0.47784 0.66684 0.79482
 C1324 C 0.46966 0.65097 0.78707
 H1325 H 0.42046 0.56204 0.74342
 H1326 H 0.42877 0.54469 0.80323
 H1327 H 0.40743 0.51762 0.80075
 H1328 H 0.39880 0.53516 0.74085
 H1329 H 0.49582 0.61478 0.81050
 H1330 H 0.51034 0.64251 0.82402
 H1331 H 0.47226 0.68125 0.79072
 H1332 H 0.45803 0.65336 0.77705
 C1333 C -0.08389 0.05085 0.25925
 C1334 C -0.07492 0.05387 0.27652
 C1335 C -0.07792 0.04108 0.29260
 C1336 C -0.09029 0.02571 0.29165
 C1337 C -0.09995 0.02292 0.27459
 C1338 C -0.09626 0.03540 0.25826
 C1339 C -0.06380 0.07076 0.27844
 C1340 C -0.05506 0.08502 0.28116
 C1341 C -0.04551 0.10174 0.28564
 C1342 C -0.03795 0.11595 0.29059
 C1343 C -0.02968 0.13272 0.29787
 C1344 C -0.03694 0.13940 0.31574
 C1345 C -0.02877 0.15520 0.32348
 C1346 C -0.01313 0.16460 0.31348
 C1347 C -0.00610 0.15803 0.29534
 C1348 C -0.01431 0.14211 0.28760
 H1349 H -0.08175 0.06072 0.24674
 H1350 H -0.07104 0.04324 0.30604
 H1351 H -0.09248 0.01613 0.30437
 H1352 H -0.10346 0.03375 0.24498
 H1353 H -0.04887 0.13229 0.32377
 H1354 H -0.03475 0.16013 0.33730
 H1355 H 0.00600 0.16491 0.28737
 H1356 H -0.00855 0.13704 0.27376
 C1357 C 0.08810 0.44112 0.25517
 C1358 C 0.07834 0.43512 0.27264
 C1359 C 0.07791 0.44682 0.28859
 C1360 C 0.08781 0.46406 0.28736
 C1361 C 0.09831 0.46983 0.27012
 C1362 C 0.09797 0.45843 0.25389
 C1363 C 0.07045 0.41619 0.27494
 C1364 C 0.06462 0.40009 0.27779
 C1365 C 0.05867 0.38108 0.28224
 C1366 C 0.05429 0.36481 0.28703
 C1367 C 0.04989 0.34549 0.29398
 C1368 C 0.05730 0.33833 0.31152
 C1369 C 0.05316 0.31973 0.31873
 C1370 C 0.04155 0.30790 0.30848
 C1371 C 0.03415 0.31519 0.29081
 C1372 C 0.03833 0.33389 0.28359
 H1373 H 0.08869 0.43209 0.24279
 H1374 H 0.07048 0.44228 0.30221
 H1375 H 0.08769 0.47266 0.30003
 H1376 H 0.10617 0.46234 0.24051
 H1377 H 0.06618 0.34720 0.31973
 H1378 H 0.05873 0.31475 0.33256
 H1379 H 0.02525 0.30641 0.28255
 H1380 H 0.03254 0.33930 0.26998
 C1381 C 0.58791 0.94201 0.75707
 C1382 C 0.57734 0.93633 0.77418
 C1383 C 0.57635 0.94820 0.79002
 C1384 C 0.58649 0.96530 0.78905
 C1385 C 0.59778 0.97074 0.77220
 C1386 C 0.59802 0.95917 0.75604
 C1387 C 0.56923 0.91749 0.77634
 C1388 C 0.56324 0.90144 0.77908
 C1389 C 0.55713 0.88247 0.78343
 C1390 C 0.55265 0.86621 0.78815
 C1391 C 0.54820 0.84689 0.79503
 C1392 C 0.55511 0.83984 0.81282
 C1393 C 0.55107 0.82117 0.81987
 C1394 C 0.54007 0.80915 0.80921
 C1395 C 0.53309 0.81635 0.79133
 C1396 C 0.53718 0.83512 0.78426
 H1397 H 0.58895 0.93283 0.74479
 H1398 H 0.56831 0.94390 0.80338
 H1399 H 0.58595 0.97402 0.80166
 H1400 H 0.60685 0.96280 0.74299
 H1401 H 0.56357 0.84884 0.82131
 H1402 H 0.55630 0.81625 0.83387
 H1403 H 0.52467 0.80741 0.78276
 H1404 H 0.53178 0.84043 0.77045
 C1405 C 0.73915 0.57822 0.04571
 C1406 C 0.73703 0.58518 0.06443
 C1407 C 0.74444 0.60303 0.06806
 C1408 C 0.75395 0.61391 0.05314
 C1409 C 0.75627 0.60706 0.03429
 C1410 C 0.74869 0.58913 0.03069
 C1411 C 0.72713 0.57436 0.08006
 C1412 C 0.71889 0.56612 0.09375
 C1413 C 0.70929 0.55735 0.11031
 C1414 C 0.70107 0.55054 0.12478
 C1415 C 0.69116 0.54315 0.14235
 C1416 C 0.69702 0.54848 0.16036
 C1417 C 0.68675 0.54230 0.17744
 C1418 C 0.67041 0.53073 0.17673
 C1419 C 0.66485 0.52518 0.15856
 C1420 C 0.67515 0.53137 0.14149
 H1421 H 0.73345 0.56441 0.04273
 H1422 H 0.74277 0.60863 0.08245
 H1423 H 0.75917 0.62785 0.05635
 H1424 H 0.75036 0.58342 0.01638
 H1425 H 0.70932 0.55769 0.16119
 H1426 H 0.69125 0.54702 0.19116
 H1427 H 0.65251 0.51607 0.15755
 H1428 H 0.67049 0.52717 0.12763
 C1429 C 0.23602 1.07731 0.54881
 C1430 C 0.23496 1.08508 0.56718
 C1431 C 0.24342 1.10270 0.56974
 C1432 C 0.25299 1.11250 0.55409
 C1433 C 0.25428 1.10479 0.53559
 C1434 C 0.24561 1.08713 0.53308
 C1435 C 0.22520 1.07517 0.58352
 C1436 C 0.21714 1.06741 0.59759
 C1437 C 0.20774 1.05893 0.61440
 C1438 C 0.19967 1.05213 0.62896
 C1439 C 0.18988 1.04453 0.64650
 C1440 C 0.19566 1.04976 0.66457
 C1441 C 0.18556 1.04318 0.68161
 C1442 C 0.16947 1.03132 0.68077
 C1443 C 0.16397 1.02589 0.66254
 C1444 C 0.17411 1.03248 0.64553
 H1445 H 0.22952 1.06367 0.54667
 H1446 H 0.24258 1.10891 0.58386
 H1447 H 0.25917 1.12625 0.55645
 H1448 H 0.24653 1.08073 0.51907
 H1449 H 0.20780 1.05916 0.66549
 H1450 H 0.19000 1.04780 0.69539
 H1451 H 0.15183 1.01656 0.66143
 H1452 H 0.16951 1.02833 0.63162
 C1453 C 0.25596 0.92257 0.93020
 C1454 C 0.23608 0.92780 0.93318
 C1455 C 0.22605 0.92206 0.95053
 C1456 C 0.23571 0.91068 0.96467
 C1457 C 0.25566 0.90463 0.96162
 C1458 C 0.26567 0.91117 0.94423
 C1459 C 0.22572 0.93789 0.91787
 C1460 C 0.21707 0.94570 0.90468
 C1461 C 0.20690 0.95413 0.88892
 C1462 C 0.19814 0.96076 0.87526
 C1463 C 0.18754 0.96800 0.85878
 C1464 C 0.16820 0.96272 0.85701
 C1465 C 0.15811 0.96890 0.84061
 C1466 C 0.16723 0.98043 0.82572
 C1467 C 0.18659 0.98590 0.82775
 C1468 C 0.19669 0.97967 0.84417
 H1469 H 0.26392 0.92703 0.91685
 H1470 H 0.21057 0.92588 0.95291
 H1471 H 0.22692 0.90576 0.97727
 H1472 H 0.28113 0.90772 0.94136
 H1473 H 0.16098 0.95369 0.86823
 H1474 H 0.14312 0.96471 0.83963
 H1475 H 0.19407 0.99461 0.81645
 H1476 H 0.21170 0.98375 0.84534
 C1477 C 0.75489 0.42778 0.42974
 C1478 C 0.73438 0.42973 0.43079
 C1479 C 0.72365 0.42063 0.44621
 C1480 C 0.73336 0.40925 0.46030
 C1481 C 0.75394 0.40679 0.45906
 C1482 C 0.76463 0.41640 0.44379
 C1483 C 0.72433 0.44001 0.41539
 C1484 C 0.71594 0.44804 0.40215
 C1485 C 0.70606 0.45675 0.38634
 C1486 C 0.69750 0.46360 0.37264
 C1487 C 0.68705 0.47104 0.35614
 C1488 C 0.66746 0.46652 0.35460
 C1489 C 0.65751 0.47271 0.33813
 C1490 C 0.66705 0.48349 0.32291
 C1491 C 0.68666 0.48829 0.32473
 C1492 C 0.69661 0.48204 0.34124
 H1493 H 0.76334 0.43474 0.41785
 H1494 H 0.70775 0.42192 0.44708
 H1495 H 0.72471 0.40180 0.47170
 H1496 H 0.78050 0.41496 0.44259
 H1497 H 0.65992 0.45802 0.36605
 H1498 H 0.64233 0.46906 0.33730
 H1499 H 0.69443 0.49643 0.31318
 H1500 H 0.71182 0.48554 0.34224
 C1501 C 0.76179 0.42115 0.55032
 C1502 C 0.77965 0.42941 0.55329
 C1503 C 0.79576 0.42625 0.54028
 C1504 C 0.79420 0.41452 0.52464
 C1505 C 0.77647 0.40570 0.52181
 C1506 C 0.76019 0.40942 0.53462
 C1507 C 0.78193 0.44025 0.57018
 C1508 C 0.78467 0.44892 0.58441
 C1509 C 0.78886 0.45861 0.60108
 C1510 C 0.79333 0.46650 0.61525
 C1511 C 0.79976 0.47546 0.63200
 C1512 C 0.81616 0.48693 0.63009
 C1513 C 0.82376 0.49416 0.64648
 C1514 C 0.81509 0.48998 0.66506
 C1515 C 0.79822 0.47896 0.66681
 C1516 C 0.79065 0.47168 0.65036
 H1517 H 0.74924 0.42342 0.56035
 H1518 H 0.80966 0.43260 0.54241
 H1519 H 0.80692 0.41228 0.51483
 H1520 H 0.74644 0.40279 0.53298
 H1521 H 0.82335 0.48993 0.61595
 H1522 H 0.83659 0.50284 0.64466
 H1523 H 0.79134 0.47538 0.68095
 H1524 H 0.77802 0.46271 0.65202
 C1525 C 0.26523 -0.07120 0.04133
 C1526 C 0.27904 -0.07592 0.05519
 C1527 C 0.29150 -0.09229 0.05318
 C1528 C 0.29031 -0.10386 0.03738
 C1529 C 0.27653 -0.09938 0.02310
 C1530 C 0.26393 -0.08278 0.02546
 C1531 C 0.28092 -0.06397 0.07137
 C1532 C 0.28340 -0.05447 0.08510
 C1533 C 0.28732 -0.04392 0.10130
 C1534 C 0.29153 -0.03540 0.11517
 C1535 C 0.29758 -0.02579 0.13170
 C1536 C 0.29123 -0.03204 0.15049
 C1537 C 0.29878 -0.02410 0.16659
 C1538 C 0.31288 -0.00988 0.16409
 C1539 C 0.31870 -0.00327 0.14515
 C1540 C 0.31111 -0.01120 0.12908
 H1541 H 0.25562 -0.05841 0.04264
 H1542 H 0.30219 -0.09616 0.06390
 H1543 H 0.29990 -0.11667 0.03698
 H1544 H 0.25357 -0.07799 0.01477
 H1545 H 0.28088 -0.04344 0.15269
 H1546 H 0.29418 -0.02964 0.18097
 H1547 H 0.32933 0.00785 0.14276
 H1548 H 0.31618 -0.00629 0.11462
 C1549 C 0.25925 0.08572 0.44170
 C1550 C 0.27628 0.07508 0.43587
 C1551 C 0.29269 0.07451 0.44719
 C1552 C 0.29237 0.08511 0.46388
 C1553 C 0.27560 0.09646 0.46944
 C1554 C 0.25888 0.09631 0.45843
 C1555 C 0.27767 0.06630 0.41738
 C1556 C 0.27958 0.05970 0.40155
 C1557 C 0.28271 0.05279 0.38272
 C1558 C 0.28618 0.04755 0.36647
 C1559 C 0.29133 0.04206 0.34698
 C1560 C 0.30055 0.02399 0.34368
 C1561 C 0.30776 0.01961 0.32501
 C1562 C 0.30594 0.03332 0.30941
 C1563 C 0.29599 0.05116 0.31276
 C1564 C 0.28877 0.05549 0.33142
 H1565 H 0.24652 0.08641 0.43294
 H1566 H 0.30598 0.06639 0.44277
 H1567 H 0.30539 0.08484 0.47218
 H1568 H 0.24586 0.10514 0.46214
 H1569 H 0.30276 0.01356 0.35564
 H1570 H 0.31556 0.00586 0.32296
 H1571 H 0.29418 0.06191 0.30100
 H1572 H 0.28172 0.06955 0.33382
 C1573 C 0.76936 0.57744 0.95072
 C1574 C 0.77941 0.58403 0.93362
 C1575 C 0.78932 0.60126 0.93328
 C1576 C 0.78917 0.61192 0.94985
 C1577 C 0.77916 0.60549 0.96716
 C1578 C 0.76919 0.58815 0.96741
 C1579 C 0.77980 0.57345 0.91620
 C1580 C 0.78100 0.56554 0.90101
 C1581 C 0.78344 0.55730 0.88273
 C1582 C 0.78645 0.55105 0.86683
 C1583 C 0.79119 0.54443 0.84765
 C1584 C 0.78705 0.55649 0.83140
 C1585 C 0.79404 0.55135 0.81289
 C1586 C 0.80534 0.53409 0.81040
 C1587 C 0.80874 0.52170 0.82675
 C1588 C 0.80175 0.52687 0.84525
 H1589 H 0.76165 0.56410 0.95115
 H1590 H 0.79705 0.60655 0.92010
 H1591 H 0.79653 0.62546 0.94891
 H1592 H 0.76141 0.58280 0.98051
 H1593 H 0.77897 0.57016 0.83310
 H1594 H 0.79098 0.56108 0.80057
 H1595 H 0.81762 0.50845 0.82538
 H1596 H 0.80523 0.51753 0.85775
 C1597 C 0.06367 0.74926 0.58847
 C1598 C 0.06115 0.73031 0.58349
 C1599 C 0.04339 0.72162 0.58856
 C1600 C 0.02844 0.73161 0.59915
 C1601 C 0.03110 0.75046 0.60520
 C1602 C 0.04885 0.75925 0.59908
 C1603 C 0.07729 0.71957 0.57423
 C1604 C 0.09129 0.71078 0.56710
 C1605 C 0.10812 0.70064 0.55940
 C1606 C 0.12273 0.69200 0.55333
 C1607 C 0.14034 0.68161 0.54662
 C1608 C 0.14607 0.66411 0.55609
 C1609 C 0.16334 0.65411 0.54993
 C1610 C 0.17517 0.66147 0.53419
 C1611 C 0.16932 0.67910 0.52479
 C1612 C 0.15201 0.68909 0.53097
 H1613 H 0.07727 0.75625 0.58442
 H1614 H 0.04128 0.70691 0.58478
 H1615 H 0.01543 0.72387 0.60329
 H1616 H 0.05148 0.77399 0.60224
 H1617 H 0.13724 0.65825 0.56831
 H1618 H 0.16757 0.64073 0.55767
 H1619 H 0.17797 0.68503 0.51250
 H1620 H 0.14773 0.70264 0.52356
 C1621 C 0.55934 0.25331 1.08366
 C1622 C 0.55934 0.23313 1.08367
 C1623 C 0.54380 0.22332 1.09313
 C1624 C 0.52858 0.23361 1.10298
 C1625 C 0.52878 0.25384 1.10356
 C1626 C 0.54416 0.26361 1.09351
 C1627 C 0.57590 0.22246 1.07508
 C1628 C 0.59006 0.21354 1.06845
 C1629 C 0.60691 0.20308 1.06128
 C1630 C 0.62143 0.19407 1.05561
 C1631 C 0.63887 0.18317 1.04933
 C1632 C 0.64419 0.16584 1.05933
 C1633 C 0.66125 0.15531 1.05353
 C1634 C 0.67327 0.16197 1.03762
 C1635 C 0.66782 0.17943 1.02767
 C1636 C 0.65072 0.18995 1.03350
 H1637 H 0.57130 0.26105 1.07640
 H1638 H 0.54372 0.20769 1.09334
 H1639 H 0.51713 0.22564 1.11081
 H1640 H 0.54458 0.27920 1.09350
 H1641 H 0.63519 0.16051 1.07168
 H1642 H 0.66518 0.14207 1.06167
 H1643 H 0.67663 0.18483 1.01523
 H1644 H 0.64675 0.20336 1.02566
 C1645 C 0.94213 0.21750 0.91789
 C1646 C 0.92585 0.22816 0.92546
 C1647 C 0.92392 0.24803 0.92101
 C1648 C 0.93793 0.25710 0.90863
 C1649 C 0.95404 0.24639 0.90039
 C1650 C 0.95616 0.22656 0.90551
 C1651 C 0.91053 0.21851 0.93674
 C1652 C 0.89743 0.21024 0.94557
 C1653 C 0.88182 0.20032 0.95517
 C1654 C 0.86833 0.19160 0.96273
 C1655 C 0.85209 0.18085 0.97097
 C1656 C 0.83737 0.18979 0.98274
 C1657 C 0.82105 0.17953 0.98974
 C1658 C 0.81924 0.16023 0.98494
 C1659 C 0.83430 0.15130 0.97339
 C1660 C 0.85058 0.16156 0.96646
 H1661 H 0.94374 0.20209 0.92118
 H1662 H 0.91140 0.25645 0.92682
 H1663 H 0.93604 0.27249 0.90542
 H1664 H 0.96823 0.21784 0.89950
 H1665 H 0.83834 0.20476 0.98624
 H1666 H 0.80961 0.18683 0.99846
 H1667 H 0.83349 0.13637 0.96971
 H1668 H 0.86189 0.15449 0.95737
 C1669 C 0.44934 0.72745 0.42627
 C1670 C 0.43007 0.72629 0.42055
 C1671 C 0.42466 0.73515 0.40291
 C1672 C 0.43833 0.74524 0.39109
 C1673 C 0.45769 0.74671 0.39675
 C1674 C 0.46310 0.73756 0.41441
 C1675 C 0.41565 0.71599 0.43245
 C1676 C 0.40288 0.70752 0.44162
 C1677 C 0.38731 0.69771 0.45144
 C1678 C 0.37362 0.68932 0.45906
 C1679 C 0.35693 0.67919 0.46725
 C1680 C 0.35461 0.66004 0.46264
 C1681 C 0.33776 0.65052 0.46929
 C1682 C 0.32292 0.66004 0.48063
 C1683 C 0.32557 0.67916 0.48556
 C1684 C 0.34245 0.68869 0.47885
 H1685 H 0.45370 0.72059 0.43990
 H1686 H 0.40985 0.73422 0.39824
 H1687 H 0.43375 0.75164 0.37736
 H1688 H 0.47782 0.73847 0.41921
 H1689 H 0.36570 0.65255 0.45365
 H1690 H 0.33631 0.63570 0.46553
 H1691 H 0.31434 0.68691 0.49414
 H1692 H 0.34404 0.70356 0.48240
 C1693 C 0.55432 0.78217 0.40190
 C1694 C 0.55408 0.77247 0.42014
 C1695 C 0.53813 0.76128 0.42630
 C1696 C 0.52234 0.76003 0.41433
 C1697 C 0.52231 0.77012 0.39616
 C1698 C 0.53861 0.78099 0.38999
 C1699 C 0.56999 0.77487 0.43254
 C1700 C 0.58359 0.77800 0.44221
 C1701 C 0.59969 0.78293 0.45269
 C1702 C 0.61349 0.78821 0.46091
 C1703 C 0.62990 0.79579 0.46985
 C1704 C 0.63956 0.78519 0.48456
 C1705 C 0.65544 0.79297 0.49307
 C1706 C 0.66175 0.81147 0.48698
 C1707 C 0.65200 0.82186 0.47209
 C1708 C 0.63621 0.81409 0.46363
 H1709 H 0.56660 0.79082 0.39693
 H1710 H 0.53776 0.75376 0.44043
 H1711 H 0.51000 0.75162 0.41950
 H1712 H 0.53927 0.78856 0.37590
 H1713 H 0.63480 0.77100 0.48949
 H1714 H 0.66258 0.78468 0.50459
 H1715 H 0.65671 0.83596 0.46680
 H1716 H 0.62893 0.82237 0.45219
 C1717 C 0.03504 0.28908 -0.08023
 C1718 C 0.04875 0.27370 -0.07756
 C1719 C 0.04636 0.25622 -0.08630
 C1720 C 0.03048 0.25427 -0.09795
 C1721 C 0.01692 0.26984 -0.10106
 C1722 C 0.01923 0.28718 -0.09188
 C1723 C 0.06571 0.27639 -0.06665
 C1724 C 0.07991 0.27954 -0.05785
 C1725 C 0.09646 0.28422 -0.04794
 C1726 C 0.11050 0.28905 -0.03982
 C1727 C 0.12710 0.29579 -0.03052
 C1728 C 0.14622 0.28984 -0.03661
 C1729 C 0.16234 0.29780 -0.02879
 C1730 C 0.15951 0.31191 -0.01484
 C1731 C 0.14023 0.31740 -0.00845
 C1732 C 0.12416 0.30940 -0.01626
 H1733 H 0.03674 0.30267 -0.07354
 H1734 H 0.05696 0.24426 -0.08442
 H1735 H 0.02922 0.24084 -0.10503
 H1736 H 0.00886 0.29933 -0.09379
 H1737 H 0.14867 0.27942 -0.04776
 H1738 H 0.17699 0.29344 -0.03415
 H1739 H 0.13759 0.32802 0.00246
 H1740 H 0.10943 0.31415 -0.01146
 C1741 C 0.42881 0.28964 0.09845
 C1742 C 0.42870 0.27913 0.08172
 C1743 C 0.44545 0.26810 0.07578
 C1744 C 0.46223 0.26754 0.08664
 C1745 C 0.46240 0.27806 0.10352
 C1746 C 0.44548 0.28911 0.10928
 C1747 C 0.41115 0.27980 0.07104
 C1748 C 0.39587 0.28121 0.06303
 C1749 C 0.37746 0.28387 0.05472
 C1750 C 0.36141 0.28702 0.04849
 C1751 C 0.34203 0.29185 0.04206
 C1752 C 0.33958 0.30123 0.02389
 C1753 C 0.32095 0.30832 0.01879
 C1754 C 0.30458 0.30621 0.03189
 C1755 C 0.30708 0.29607 0.04979
 C1756 C 0.32569 0.28897 0.05483
 H1757 H 0.41591 0.29814 0.10324
 H1758 H 0.44552 0.25993 0.06282
 H1759 H 0.47507 0.25903 0.08176
 H1760 H 0.44493 0.29701 0.12242
 H1761 H 0.35215 0.30372 0.01397
 H1762 H 0.31954 0.31626 0.00501
 H1763 H 0.29471 0.29404 0.06007
 H1764 H 0.32743 0.28181 0.06897
 C1765 C 0.94716 0.76247 0.58245
 C1766 C 0.93254 0.77664 0.58661
 C1767 C 0.93533 0.78977 0.60075
 C1768 C 0.95245 0.78862 0.61096
 C1769 C 0.96732 0.77417 0.60735
 C1770 C 0.96440 0.76124 0.59264
 C1771 C 0.91436 0.77771 0.57687
 C1772 C 0.89872 0.77934 0.56951
 C1773 C 0.88003 0.78212 0.56174
 C1774 C 0.86386 0.78526 0.55579
 C1775 C 0.84438 0.78995 0.54947
 C1776 C 0.82811 0.78717 0.56237
 C1777 C 0.80939 0.79388 0.55723
 C1778 C 0.80669 0.80352 0.53910
 C1779 C 0.82302 0.80557 0.52593
 C1780 C 0.84174 0.79888 0.53112
 H1781 H 0.94524 0.75234 0.57134
 H1782 H 0.92405 0.80076 0.60418
 H1783 H 0.95330 0.79864 0.62232
 H1784 H 0.97546 0.75042 0.58839
 H1785 H 0.82997 0.78034 0.57663
 H1786 H 0.79708 0.79190 0.56759
 H1787 H 0.82147 0.81315 0.51198
 H1788 H 0.85425 0.80126 0.52108
   
