data_POSCAR
  _audit_creation_date              2014-09-24
  _audit_creation_method            'ToBaCCo'
  _symmetry_space_group_name_H-M    'P1'
  _symmetry_Int_Tables_number       1
  _symmetry_cell_setting            triclinic
  loop_
  _symmetry_equiv_pos_as_xyz
 x,y,z
_cell_length_a 88.9774
_cell_length_b 89.0939
_cell_length_c 89.1684
_cell_angle_alpha 89.977900
_cell_angle_beta 89.974700
_cell_angle_gamma 89.962200
loop_
  _atom_site_label
  _atom_site_type_symbol
  _atom_site_fract_x
  _atom_site_fract_y
  _atom_site_fract_z
N1 N 0.36285 0.32130 0.33186
 N2 N 0.36281 0.33180 0.32152
 C3 C 0.37440 0.32944 0.31210
 C4 C 0.38222 0.31680 0.31683
 C5 C 0.37448 0.31196 0.32942
 H6 H 0.37695 0.33649 0.30258
 H7 H 0.37715 0.30245 0.33644
 Cu8 Cu 0.34775 0.34767 0.32154
 Cu9 Cu 0.34797 0.32044 0.34782
 Cu10 Cu 0.32047 0.34790 0.34780
 N11 N 0.33188 0.36272 0.32149
 N12 N 0.32135 0.36277 0.33182
 C13 C 0.31200 0.37438 0.32935
 C14 C 0.31687 0.38210 0.31676
 C15 C 0.32954 0.37429 0.31206
 H16 H 0.30245 0.37702 0.33635
 H17 H 0.33661 0.37685 0.30256
 N18 N 0.32147 0.33190 0.36301
 N19 N 0.33195 0.32144 0.36302
 C20 C 0.32963 0.31218 0.37473
 C21 C 0.31704 0.31700 0.38254
 C22 C 0.31219 0.32957 0.37472
 H23 H 0.33667 0.30266 0.37735
 H24 H 0.30262 0.33656 0.37731
 H25 H 0.33124 0.33119 0.33578
 H26 H 0.34322 0.34316 0.34815
 N27 N 0.36324 0.82149 -0.16847
 N28 N 0.36315 0.83197 -0.17882
 C29 C 0.37480 0.82970 -0.18821
 C30 C 0.38272 0.81707 -0.18347
 C31 C 0.37490 0.81219 -0.17087
 H32 H 0.37726 0.83680 -0.19771
 H33 H 0.37744 0.80264 -0.16383
 Cu34 Cu 0.34783 0.84761 -0.17881
 Cu35 Cu 0.34832 0.82063 -0.15250
 Cu36 Cu 0.32079 0.84820 -0.15242
 N37 N 0.33215 0.86290 -0.17883
 N38 N 0.32173 0.86310 -0.16839
 C39 C 0.31245 0.87477 -0.17079
 C40 C 0.31724 0.88246 -0.18349
 C41 C 0.32981 0.87446 -0.18829
 H42 H 0.30292 0.87735 -0.16373
 H43 H 0.33687 0.87685 -0.19785
 N44 N 0.32178 0.83211 -0.13727
 N45 N 0.33226 0.82163 -0.13729
 C46 C 0.32991 0.81234 -0.12561
 C47 C 0.31733 0.81717 -0.11779
 C48 C 0.31249 0.82975 -0.12559
 H49 H 0.33692 0.80279 -0.12301
 H50 H 0.30289 0.83671 -0.12300
 H51 H 0.33129 0.83133 -0.16423
 H52 H 0.34340 0.84334 -0.15212
 N53 N 0.86279 0.32180 -0.16810
 N54 N 0.86246 0.33211 -0.17863
 C55 C 0.87408 0.32987 -0.18806
 C56 C 0.88219 0.31748 -0.18316
 C57 C 0.87458 0.31266 -0.17046
 H58 H 0.87654 0.33685 -0.19765
 H59 H 0.87734 0.30319 -0.16343
 Cu60 Cu 0.84700 0.34758 -0.17855
 Cu61 Cu 0.84802 0.32091 -0.15195
 Cu62 Cu 0.81914 0.34712 -0.15346
 N63 N 0.83167 0.36320 -0.17845
 N64 N 0.82094 0.36308 -0.16833
 C65 C 0.81183 0.37490 -0.17056
 C66 C 0.81703 0.38301 -0.18285
 C67 C 0.82971 0.37514 -0.18753
 H68 H 0.80207 0.37723 -0.16375
 H69 H 0.83699 0.37780 -0.19684
 N70 N 0.82090 0.33203 -0.13736
 N71 N 0.83181 0.32201 -0.13687
 C72 C 0.82970 0.31307 -0.12488
 C73 C 0.81689 0.31771 -0.11734
 C74 C 0.81165 0.32982 -0.12561
 H75 H 0.83690 0.30375 -0.12199
 H76 H 0.80184 0.33656 -0.12329
 H77 H 0.83133 0.33030 -0.16420
 H78 H 0.84209 0.34345 -0.15201
 N79 N 0.86254 0.82151 0.33176
 N80 N 0.86274 0.83226 0.32168
 C81 C 0.87479 0.83035 0.31272
 C82 C 0.88259 0.81768 0.31743
 C83 C 0.87443 0.81244 0.32961
 H84 H 0.87749 0.83750 0.30332
 H85 H 0.87677 0.80265 0.33637
 Cu86 Cu 0.84681 0.84726 0.32089
 Cu87 Cu 0.84623 0.81935 0.34614
 Cu88 Cu 0.82206 0.84976 0.34922
 N89 N 0.83122 0.86264 0.32114
 N90 N 0.82143 0.86338 0.33214
 C91 C 0.81225 0.87516 0.32985
 C92 C 0.81650 0.88237 0.31667
 C93 C 0.82862 0.87396 0.31147
 H94 H 0.80334 0.87829 0.33746
 H95 H 0.83528 0.87601 0.30156
 N96 N 0.82189 0.83271 0.36335
 N97 N 0.83127 0.82129 0.36230
 C98 C 0.82867 0.81174 0.37371
 C99 C 0.81694 0.81729 0.38233
 C100 C 0.81292 0.83062 0.37533
 H101 H 0.83500 0.80157 0.37561
 H102 H 0.80409 0.83825 0.37864
 H103 H 0.82950 0.83252 0.33623
 H104 H 0.84425 0.84202 0.34765
 N105 N 0.63756 0.67902 0.33161
 N106 N 0.63652 0.66760 0.32227
 C107 C 0.62452 0.66967 0.31332
 C108 C 0.61750 0.68300 0.31730
 C109 C 0.62613 0.68857 0.32899
 H110 H 0.62122 0.66202 0.30453
 H111 H 0.62421 0.69875 0.33528
 Cu112 Cu 0.65067 0.65057 0.32246
 Cu113 Cu 0.65375 0.68095 0.34652
 Cu114 Cu 0.67905 0.65304 0.34717
 N115 N 0.66781 0.63698 0.32182
 N116 N 0.67878 0.63765 0.33165
 C117 C 0.68843 0.62629 0.32906
 C118 C 0.68327 0.61804 0.31691
 C119 C 0.67014 0.62525 0.31262
 H120 H 0.69828 0.62402 0.33577
 H121 H 0.66265 0.62215 0.30360
 N122 N 0.67823 0.66804 0.36303
 N123 N 0.66815 0.67881 0.36279
 C124 C 0.67030 0.68790 0.37464
 C125 C 0.68248 0.68262 0.38281
 C126 C 0.68717 0.66993 0.37507
 H127 H 0.66357 0.69772 0.37695
 H128 H 0.69654 0.66272 0.37780
 H129 H 0.66371 0.66774 0.32985
 H130 H 0.65225 0.65825 0.34460
 N131 N 0.63755 0.17867 -0.16840
 N132 N 0.63759 0.16811 -0.17867
 C133 C 0.62569 0.17011 -0.18779
 C134 C 0.61770 0.18261 -0.18297
 C135 C 0.62566 0.18772 -0.17059
 H136 H 0.62309 0.16300 -0.19725
 H137 H 0.62311 0.19735 -0.16369
 Cu138 Cu 0.65320 0.15277 -0.17877
 Cu139 Cu 0.65342 0.18035 -0.15342
 Cu140 Cu 0.67959 0.15145 -0.15182
 N141 N 0.66878 0.13742 -0.17886
 N142 N 0.67879 0.13677 -0.16806
 C143 C 0.68781 0.12488 -0.17033
 C144 C 0.68329 0.11753 -0.18332
 C145 C 0.67116 0.12597 -0.18844
 H146 H 0.69702 0.12193 -0.16300
 H147 H 0.66438 0.12387 -0.19826
 N148 N 0.67843 0.16761 -0.13670
 N149 N 0.66841 0.17852 -0.13725
 C150 C 0.67059 0.18777 -0.12551
 C151 C 0.68268 0.18256 -0.11719
 C152 C 0.68733 0.16972 -0.12467
 H153 H 0.66385 0.19759 -0.12326
 H154 H 0.69665 0.16253 -0.12173
 H155 H 0.67042 0.16822 -0.16415
 H156 H 0.65712 0.15740 -0.15214
 N157 N 0.13681 0.67841 -0.16782
 N158 N 0.13680 0.66778 -0.17803
 C159 C 0.12512 0.66999 -0.18739
 C160 C 0.11738 0.68273 -0.18282
 C161 C 0.12519 0.68773 -0.17033
 H162 H 0.12253 0.66288 -0.19684
 H163 H 0.12265 0.69739 -0.16348
 Cu164 Cu 0.15225 0.65232 -0.17802
 Cu165 Cu 0.15191 0.67954 -0.15203
 Cu166 Cu 0.17949 0.65194 -0.15202
 N167 N 0.16772 0.63686 -0.17803
 N168 N 0.17835 0.63685 -0.16781
 C169 C 0.18765 0.62522 -0.17031
 C170 C 0.18265 0.61742 -0.18280
 C171 C 0.16991 0.62518 -0.18738
 H172 H 0.19732 0.62267 -0.16344
 H173 H 0.16279 0.62259 -0.19684
 N174 N 0.17865 0.66820 -0.13704
 N175 N 0.16818 0.67869 -0.13705
 C176 C 0.17059 0.68802 -0.12542
 C177 C 0.18319 0.68319 -0.11764
 C178 C 0.18798 0.67058 -0.12541
 H179 H 0.16362 0.69759 -0.12282
 H180 H 0.19751 0.66355 -0.12277
 H181 H 0.16880 0.66883 -0.16378
 H182 H 0.15682 0.65690 -0.15143
 N183 N 0.13713 0.17871 0.33193
 N184 N 0.13744 0.16837 0.32144
 C185 C 0.12584 0.17061 0.31200
 C186 C 0.11776 0.18303 0.31685
 C187 C 0.12536 0.18787 0.32954
 H188 H 0.12339 0.16362 0.30241
 H189 H 0.12260 0.19735 0.33656
 Cu190 Cu 0.15290 0.15292 0.32142
 Cu191 Cu 0.15191 0.17952 0.34803
 Cu192 Cu 0.17954 0.15195 0.34801
 N193 N 0.16839 0.13750 0.32139
 N194 N 0.17875 0.13720 0.33188
 C195 C 0.18793 0.12544 0.32946
 C196 C 0.18309 0.11786 0.31677
 C197 C 0.17064 0.12592 0.31194
 H198 H 0.19743 0.12268 0.33649
 H199 H 0.16364 0.12349 0.30236
 N200 N 0.17836 0.16789 0.36331
 N201 N 0.16788 0.17836 0.36331
 C202 C 0.17020 0.18761 0.37502
 C203 C 0.18277 0.18276 0.38283
 C204 C 0.18761 0.17019 0.37502
 H205 H 0.16324 0.19720 0.37760
 H206 H 0.19718 0.16321 0.37762
 H207 H 0.16907 0.16909 0.33644
 H208 H 0.15683 0.15685 0.34821
 N209 N 0.63723 0.32130 0.66813
 N210 N 0.63670 0.33232 0.67790
 C211 C 0.62472 0.33030 0.68693
 C212 C 0.61729 0.31732 0.68256
 C213 C 0.62561 0.31196 0.67055
 H214 H 0.62182 0.33761 0.69615
 H215 H 0.62354 0.30194 0.66406
 Cu216 Cu 0.65197 0.34799 0.67805
 Cu217 Cu 0.65354 0.31925 0.65374
 Cu218 Cu 0.67770 0.34960 0.65053
 N219 N 0.66814 0.36272 0.67836
 N220 N 0.67830 0.36313 0.66768
 C221 C 0.68777 0.37461 0.67025
 C222 C 0.68329 0.38195 0.68324
 C223 C 0.67079 0.37398 0.68809
 H224 H 0.69707 0.37748 0.66301
 H225 H 0.66388 0.37639 0.69775
 N226 N 0.67790 0.33249 0.63651
 N227 N 0.66854 0.32107 0.63760
 C228 C 0.67117 0.31147 0.62624
 C229 C 0.68289 0.31700 0.61760
 C230 C 0.68688 0.33035 0.62454
 H231 H 0.66487 0.30129 0.62438
 H232 H 0.69571 0.33797 0.62122
 H233 H 0.66985 0.33287 0.66382
 H234 H 0.65551 0.34193 0.65153
 N235 N 0.63724 0.82137 1.16814
 N236 N 0.63712 0.83205 1.17828
 C237 C 0.62510 0.83013 1.18727
 C238 C 0.61727 0.81751 1.18255
 C239 C 0.62536 0.81231 1.17032
 H240 H 0.62239 0.83729 1.19667
 H241 H 0.62295 0.80257 1.16352
 Cu242 Cu 0.65287 0.84723 1.17893
 Cu243 Cu 0.65329 0.81945 1.15348
 Cu244 Cu 0.67946 0.84819 1.15203
 N245 N 0.66828 0.86275 1.17855
 N246 N 0.67858 0.86305 1.16801
 C247 C 0.68773 0.87483 1.17033
 C248 C 0.68292 0.88246 1.18301
 C249 C 0.67050 0.87441 1.18791
 H250 H 0.69718 0.87758 1.16325
 H251 H 0.66354 0.87685 1.19754
 N252 N 0.67850 0.83198 1.13702
 N253 N 0.66847 0.82110 1.13752
 C254 C 0.67072 0.81182 1.12582
 C255 C 0.68285 0.81701 1.11755
 C256 C 0.68749 0.82982 1.12507
 H257 H 0.66397 0.80202 1.12352
 H258 H 0.69683 0.83700 1.12219
 H259 H 0.67002 0.83148 1.16439
 H260 H 0.65678 0.84234 1.15231
 N261 N 0.13722 0.32144 1.16804
 N262 N 0.13688 0.33230 1.17800
 C263 C 0.12480 0.33041 1.18690
 C264 C 0.11714 0.31764 1.18231
 C265 C 0.12540 0.31231 1.17024
 H266 H 0.12200 0.33763 1.19622
 H267 H 0.12316 0.30244 1.16358
 Cu268 Cu 0.15276 0.34733 1.17869
 Cu269 Cu 0.15359 0.31919 1.15375
 Cu270 Cu 0.17769 0.34962 1.15058
 N271 N 0.16834 0.36268 1.17852
 N272 N 0.17828 0.36327 1.16763
 C273 C 0.18752 0.37498 1.16997
 C274 C 0.18315 0.38226 1.18303
 C275 C 0.17091 0.37405 1.18813
 H276 H 0.19656 0.37807 1.16250
 H277 H 0.16417 0.37631 1.19795
 N278 N 0.17795 0.33250 1.13656
 N279 N 0.16861 0.32107 1.13764
 C280 C 0.17128 0.31146 1.12631
 C281 C 0.18301 0.31700 1.11768
 C282 C 0.18697 0.33036 1.12462
 H283 H 0.16501 0.30126 1.12446
 H284 H 0.19581 0.33798 1.12132
 H285 H 0.17008 0.33246 1.16357
 H286 H 0.15539 0.34184 1.15196
 N287 N 0.13710 0.82150 0.66790
 N288 N 0.13683 0.83234 0.67787
 C289 C 0.12492 0.83032 0.68699
 C290 C 0.11729 0.81750 0.68249
 C291 C 0.12540 0.81226 0.67028
 H292 H 0.12222 0.83751 0.69636
 H293 H 0.12310 0.80239 0.66363
 Cu294 Cu 0.15240 0.84769 0.67801
 Cu295 Cu 0.15323 0.81949 0.65326
 Cu296 Cu 0.17949 0.84824 0.65181
 N297 N 0.16796 0.86303 0.67814
 N298 N 0.17847 0.86315 0.66779
 C299 C 0.18778 0.87476 0.67029
 C300 C 0.18288 0.88246 0.68290
 C301 C 0.17023 0.87462 0.68758
 H302 H 0.19740 0.87736 0.66337
 H303 H 0.16319 0.87711 0.69713
 N304 N 0.17854 0.83196 0.63682
 N305 N 0.16846 0.82111 0.63730
 C306 C 0.17066 0.81186 0.62557
 C307 C 0.18282 0.81702 0.61731
 C308 C 0.18751 0.82980 0.62485
 H309 H 0.16384 0.80212 0.62323
 H310 H 0.19684 0.83697 0.62195
 H311 H 0.16985 0.83164 0.66426
 H312 H 0.15692 0.84223 0.65166
 N313 N 0.36293 0.67867 0.66825
 N314 N 0.36265 0.66831 0.67872
 C315 C 0.37425 0.67058 0.68817
 C316 C 0.38230 0.68302 0.68331
 C317 C 0.37468 0.68785 0.67063
 H318 H 0.37668 0.66361 0.69778
 H319 H 0.37742 0.69733 0.66360
 Cu320 Cu 0.34715 0.65291 0.67874
 Cu321 Cu 0.34812 0.67951 0.65214
 Cu322 Cu 0.32053 0.65193 0.65215
 N323 N 0.33173 0.63742 0.67875
 N324 N 0.32136 0.63714 0.66828
 C325 C 0.31217 0.62540 0.67068
 C326 C 0.31702 0.61778 0.68336
 C327 C 0.32947 0.62582 0.68820
 H328 H 0.30268 0.62266 0.66365
 H329 H 0.33646 0.62338 0.69779
 N330 N 0.32167 0.66789 0.63686
 N331 N 0.33213 0.67838 0.63686
 C332 C 0.32979 0.68763 0.62515
 C333 C 0.31722 0.68279 0.61734
 C334 C 0.31241 0.67021 0.62514
 H335 H 0.33673 0.69723 0.62258
 H336 H 0.30286 0.66322 0.62253
 H337 H 0.33096 0.66908 0.66374
 H338 H 0.34322 0.65684 0.65196
 N339 N 0.36323 0.17828 1.16778
 N340 N 0.36251 0.16845 1.17874
 C341 C 0.37387 0.17100 1.18836
 C342 C 0.38220 0.18312 1.18319
 C343 C 0.37502 0.18744 1.17008
 H344 H 0.37609 0.16428 1.19820
 H345 H 0.37819 0.19643 1.16259
 Cu346 Cu 0.34711 0.15291 1.17906
 Cu347 Cu 0.34967 0.17764 1.15067
 Cu348 Cu 0.31922 0.15356 1.15383
 N349 N 0.33212 0.13700 1.17824
 N350 N 0.32133 0.13725 1.16820
 C351 C 0.31225 0.12538 1.17036
 C352 C 0.31754 0.11719 1.18250
 C353 C 0.33024 0.12495 1.18717
 H354 H 0.30240 0.12310 1.16366
 H355 H 0.33748 0.12219 1.19649
 N356 N 0.32119 0.16847 1.13764
 N357 N 0.33263 0.17780 1.13657
 C358 C 0.33056 0.18674 1.12456
 C359 C 0.31722 0.18274 1.11758
 C360 C 0.31165 0.17106 1.12622
 H361 H 0.33822 0.19554 1.12124
 H362 H 0.30146 0.16475 1.12433
 H363 H 0.33252 0.17030 1.16368
 H364 H 0.34202 0.15552 1.15227
 N365 N 0.86285 0.67869 1.16818
 N366 N 0.86298 0.66798 1.17831
 C367 C 0.87479 0.67008 1.18752
 C368 C 0.88255 0.68280 1.18289
 C369 C 0.87456 0.68793 1.17055
 H370 H 0.87743 0.66296 1.19696
 H371 H 0.87697 0.69768 1.16376
 Cu372 Cu 0.84777 0.65221 1.17828
 Cu373 Cu 0.84699 0.68040 1.15324
 Cu374 Cu 0.81959 0.65294 1.15327
 N375 N 0.83205 0.63696 1.17833
 N376 N 0.82130 0.63708 1.16823
 C377 C 0.81207 0.62537 1.17063
 C378 C 0.81726 0.61737 1.18295
 C379 C 0.83000 0.62514 1.18753
 H380 H 0.80227 0.62298 1.16391
 H381 H 0.83720 0.62248 1.19691
 N382 N 0.82117 0.66831 1.13741
 N383 N 0.83164 0.67879 1.13740
 C384 C 0.82968 0.68768 1.12535
 C385 C 0.81731 0.68263 1.11736
 C386 C 0.81228 0.67026 1.12536
 H387 H 0.83672 0.69718 1.12270
 H388 H 0.80276 0.66322 1.12274
 H389 H 0.83076 0.66928 1.16532
 H390 H 0.84238 0.65772 1.15219
 N391 N 0.86302 0.17845 0.66790
 N392 N 0.86289 0.16798 0.67828
 C393 C 0.87444 0.17033 0.68775
 C394 C 0.88229 0.18295 0.68305
 C395 C 0.87461 0.18779 0.67041
 H396 H 0.87692 0.16334 0.69733
 H397 H 0.87724 0.19736 0.66345
 Cu398 Cu 0.84784 0.15211 0.67811
 Cu399 Cu 0.84818 0.17940 0.65190
 Cu400 Cu 0.81951 0.15317 0.65339
 N401 N 0.83220 0.13681 0.67804
 N402 N 0.82131 0.13714 0.66810
 C403 C 0.81203 0.12547 0.67049
 C404 C 0.81732 0.11729 0.68264
 C405 C 0.83018 0.12489 0.68712
 H406 H 0.80210 0.12325 0.66389
 H407 H 0.83748 0.12208 0.69638
 N408 N 0.82111 0.16833 0.63739
 N409 N 0.83197 0.17839 0.63690
 C410 C 0.82983 0.18732 0.62491
 C411 C 0.81705 0.18263 0.61737
 C412 C 0.81187 0.17050 0.62565
 H413 H 0.83702 0.19664 0.62200
 H414 H 0.80211 0.16369 0.62333
 H415 H 0.83192 0.16978 0.66459
 H416 H 0.84250 0.15694 0.65180
 N417 N 0.32128 0.36300 0.66796
 N418 N 0.33182 0.36286 0.67826
 C419 C 0.32960 0.37449 0.68766
 C420 C 0.31706 0.38246 0.68293
 C421 C 0.31211 0.37477 0.67032
 H422 H 0.33675 0.37701 0.69708
 H423 H 0.30250 0.37743 0.66339
 Cu424 Cu 0.34722 0.34732 0.67845
 Cu425 Cu 0.32033 0.34806 0.65205
 Cu426 Cu 0.34793 0.32046 0.65205
 N427 N 0.36276 0.33190 0.67826
 N428 N 0.36289 0.32139 0.66795
 C429 C 0.37466 0.31220 0.67031
 C430 C 0.38236 0.31713 0.68292
 C431 C 0.37439 0.32966 0.68766
 H432 H 0.37732 0.30262 0.66336
 H433 H 0.37690 0.33678 0.69711
 N434 N 0.33180 0.32146 0.63694
 N435 N 0.32133 0.33195 0.63693
 C436 C 0.31206 0.32961 0.62525
 C437 C 0.31687 0.31702 0.61747
 C438 C 0.32945 0.31219 0.62527
 H439 H 0.30253 0.33664 0.62259
 H440 H 0.33645 0.30264 0.62264
 H441 H 0.33089 0.33104 0.66373
 H442 H 0.34305 0.34316 0.65173
 N443 N 0.32152 0.86317 0.16771
 N444 N 0.33191 0.86297 0.17818
 C445 C 0.32973 0.87470 0.18744
 C446 C 0.31722 0.88266 0.18261
 C447 C 0.31233 0.87494 0.17003
 H448 H 0.33678 0.87722 0.19697
 H449 H 0.30284 0.87765 0.16297
 Cu450 Cu 0.34749 0.84764 0.17848
 Cu451 Cu 0.32062 0.84824 0.15182
 Cu452 Cu 0.34807 0.82078 0.15186
 N453 N 0.36281 0.83205 0.17822
 N454 N 0.36302 0.82168 0.16774
 C455 C 0.37478 0.81249 0.17007
 C456 C 0.38248 0.81734 0.18269
 C457 C 0.37452 0.82984 0.18751
 H458 H 0.37751 0.80303 0.16299
 H459 H 0.37701 0.83685 0.19707
 N460 N 0.33201 0.82171 0.13673
 N461 N 0.32156 0.83219 0.13671
 C462 C 0.31225 0.82982 0.12504
 C463 C 0.31705 0.81721 0.11728
 C464 C 0.32964 0.81239 0.12509
 H465 H 0.30269 0.83682 0.12242
 H466 H 0.33660 0.80280 0.12252
 H467 H 0.33121 0.83143 0.16376
 H468 H 0.34348 0.84364 0.15178
 N469 N 0.82115 0.36278 0.16820
 N470 N 0.83177 0.36278 0.17842
 C471 C 0.82976 0.37464 0.18757
 C472 C 0.81723 0.38260 0.18278
 C473 C 0.81209 0.37466 0.17042
 H474 H 0.83691 0.37723 0.19701
 H475 H 0.80242 0.37718 0.16355
 Cu476 Cu 0.84716 0.34724 0.17852
 Cu477 Cu 0.81944 0.34693 0.15324
 Cu478 Cu 0.84829 0.32072 0.15178
 N479 N 0.86253 0.33173 0.17861
 N480 N 0.86297 0.32150 0.16801
 C481 C 0.87479 0.31240 0.17038
 C482 C 0.88229 0.31717 0.18315
 C483 C 0.87409 0.32946 0.18809
 H484 H 0.87766 0.30301 0.16327
 H485 H 0.87646 0.33640 0.19773
 N486 N 0.83218 0.32190 0.13661
 N487 N 0.82127 0.33193 0.13710
 C488 C 0.81205 0.32975 0.12534
 C489 C 0.81729 0.31766 0.11706
 C490 C 0.83010 0.31300 0.12460
 H491 H 0.80223 0.33649 0.12304
 H492 H 0.83731 0.30369 0.12170
 H493 H 0.83153 0.33006 0.16406
 H494 H 0.84237 0.34323 0.15193
 N495 N 0.82165 0.86342 0.66762
 N496 N 0.83229 0.86341 0.67783
 C497 C 0.83012 0.87510 0.68718
 C498 C 0.81738 0.88287 0.68261
 C499 C 0.81236 0.87506 0.67012
 H500 H 0.83725 0.87769 0.69663
 H501 H 0.80267 0.87760 0.66328
 Cu502 Cu 0.84776 0.84795 0.67784
 Cu503 Cu 0.82052 0.84832 0.65182
 Cu504 Cu 0.84811 0.82071 0.65183
 N505 N 0.86320 0.83247 0.67782
 N506 N 0.86320 0.82184 0.66762
 C507 C 0.87483 0.81253 0.67013
 C508 C 0.88264 0.81753 0.68262
 C509 C 0.87488 0.83027 0.68719
 H510 H 0.87738 0.80286 0.66329
 H511 H 0.87747 0.83738 0.69665
 N512 N 0.83185 0.82156 0.63683
 N513 N 0.82137 0.83205 0.63683
 C514 C 0.81204 0.82966 0.62519
 C515 C 0.81685 0.81706 0.61741
 C516 C 0.82945 0.81224 0.62520
 H517 H 0.80250 0.83667 0.62257
 H518 H 0.83644 0.80268 0.62258
 H519 H 0.83121 0.83142 0.66358
 H520 H 0.84319 0.84336 0.65125
 N521 N 0.67880 0.63704 0.66816
 N522 N 0.66857 0.63747 0.67880
 C523 C 0.67085 0.62591 0.68827
 C524 C 0.68316 0.61771 0.68331
 C525 C 0.68791 0.62522 0.67052
 H526 H 0.66392 0.62352 0.69794
 H527 H 0.69730 0.62237 0.66339
 Cu528 Cu 0.65303 0.65285 0.67876
 Cu529 Cu 0.67959 0.65172 0.65193
 Cu530 Cu 0.65339 0.68057 0.65345
 N531 N 0.63751 0.66827 0.67866
 N532 N 0.63753 0.67889 0.66843
 C533 C 0.62567 0.68797 0.67068
 C534 C 0.61770 0.68286 0.68304
 C535 C 0.62563 0.67030 0.68781
 H536 H 0.62318 0.69765 0.66381
 H537 H 0.62299 0.66317 0.69726
 N538 N 0.66838 0.67875 0.63727
 N539 N 0.67841 0.66784 0.63676
 C540 C 0.68731 0.66993 0.62472
 C541 C 0.68265 0.68274 0.61719
 C542 C 0.67055 0.68796 0.62550
 H543 H 0.69664 0.66274 0.62181
 H544 H 0.66380 0.69777 0.62320
 H545 H 0.67029 0.66845 0.66425
 H546 H 0.65706 0.65765 0.65214
 N547 N 0.67853 0.13660 0.16777
 N548 N 0.66789 0.13658 0.17800
 C549 C 0.67008 0.12489 0.18733
 C550 C 0.68281 0.11714 0.18273
 C551 C 0.68783 0.12497 0.17025
 H552 H 0.66295 0.12227 0.19679
 H553 H 0.69750 0.12243 0.16338
 Cu554 Cu 0.65241 0.15200 0.17798
 Cu555 Cu 0.67968 0.15169 0.15198
 Cu556 Cu 0.65207 0.17924 0.15202
 N557 N 0.63695 0.16744 0.17803
 N558 N 0.63697 0.17808 0.16781
 C559 C 0.62533 0.18737 0.17031
 C560 C 0.61750 0.18236 0.18279
 C561 C 0.62525 0.16963 0.18737
 H562 H 0.62281 0.19704 0.16346
 H563 H 0.62263 0.16249 0.19681
 N564 N 0.66835 0.17843 0.13703
 N565 N 0.67883 0.16796 0.13701
 C566 C 0.68816 0.17037 0.12536
 C567 C 0.68335 0.18298 0.11760
 C568 C 0.67075 0.18778 0.12540
 H569 H 0.69770 0.16337 0.12271
 H570 H 0.66375 0.19734 0.12281
 H571 H 0.66898 0.16853 0.16376
 H572 H 0.65703 0.15659 0.15141
 N573 N 0.17859 0.63707 0.16789
 N574 N 0.16837 0.63750 0.17851
 C575 C 0.17060 0.62590 0.18795
 C576 C 0.18290 0.61771 0.18298
 C577 C 0.18769 0.62524 0.17022
 H578 H 0.16366 0.62353 0.19761
 H579 H 0.19710 0.62239 0.16311
 Cu580 Cu 0.15284 0.65288 0.17845
 Cu581 Cu 0.17943 0.65177 0.15169
 Cu582 Cu 0.15326 0.68064 0.15323
 N583 N 0.13735 0.66833 0.17841
 N584 N 0.13737 0.67893 0.16816
 C585 C 0.12551 0.68802 0.17040
 C586 C 0.11755 0.68291 0.18277
 C587 C 0.12546 0.67035 0.18755
 H588 H 0.12301 0.69768 0.16352
 H589 H 0.12287 0.66326 0.19703
 N590 N 0.16828 0.67883 0.13708
 N591 N 0.17830 0.66791 0.13655
 C592 C 0.18721 0.67000 0.12453
 C593 C 0.18257 0.68282 0.11702
 C594 C 0.17047 0.68806 0.12533
 H595 H 0.19652 0.66279 0.12161
 H596 H 0.16374 0.69788 0.12304
 H597 H 0.17014 0.66848 0.16404
 H598 H 0.15692 0.65774 0.15189
 N599 N 0.17854 0.13681 0.66813
 N600 N 0.16832 0.13725 0.67876
 C601 C 0.17056 0.12565 0.68820
 C602 C 0.18286 0.11744 0.68323
 C603 C 0.18764 0.12497 0.67047
 H604 H 0.16362 0.12327 0.69786
 H605 H 0.19704 0.12213 0.66335
 Cu606 Cu 0.15276 0.15263 0.67870
 Cu607 Cu 0.17933 0.15152 0.65192
 Cu608 Cu 0.15313 0.18039 0.65345
 N609 N 0.13725 0.16807 0.67864
 N610 N 0.13726 0.17868 0.66841
 C611 C 0.12540 0.18777 0.67065
 C612 C 0.11743 0.18265 0.68301
 C613 C 0.12536 0.17008 0.68778
 H614 H 0.12290 0.19744 0.66378
 H615 H 0.12274 0.16296 0.69723
 N616 N 0.16814 0.17857 0.63729
 N617 N 0.17816 0.16767 0.63677
 C618 C 0.18706 0.16976 0.62473
 C619 C 0.18241 0.18258 0.61723
 C620 C 0.17031 0.18780 0.62553
 H621 H 0.19639 0.16257 0.62181
 H622 H 0.16356 0.19762 0.62325
 H623 H 0.17002 0.16827 0.66424
 H624 H 0.15680 0.15749 0.65212
 N625 N 0.32142 0.63686 0.33188
 N626 N 0.33184 0.63705 0.32145
 C627 C 0.32967 0.62535 0.31214
 C628 C 0.31715 0.61739 0.31696
 C629 C 0.31224 0.62511 0.32954
 H630 H 0.33671 0.62284 0.30259
 H631 H 0.30270 0.62245 0.33654
 Cu632 Cu 0.34717 0.65262 0.32110
 Cu633 Cu 0.32042 0.65178 0.34778
 Cu634 Cu 0.34793 0.67931 0.34772
 N635 N 0.36270 0.66800 0.32137
 N636 N 0.36287 0.67840 0.33180
 C637 C 0.37461 0.68759 0.32945
 C638 C 0.38235 0.68273 0.31685
 C639 C 0.37440 0.67021 0.31204
 H640 H 0.37728 0.69709 0.33647
 H641 H 0.37691 0.66321 0.30247
 N642 N 0.33185 0.67833 0.36287
 N643 N 0.32137 0.66788 0.36289
 C644 C 0.31204 0.67030 0.37453
 C645 C 0.31687 0.68288 0.38229
 C646 C 0.32947 0.68766 0.37449
 H647 H 0.30240 0.66339 0.37709
 H648 H 0.33646 0.69722 0.37706
 H649 H 0.33091 0.66873 0.33610
 H650 H 0.34320 0.65651 0.34790
 N651 N 0.32133 0.13665 0.83201
 N652 N 0.33176 0.13687 0.82157
 C653 C 0.32958 0.12520 0.81221
 C654 C 0.31709 0.11721 0.81704
 C655 C 0.31218 0.12490 0.82964
 H656 H 0.33663 0.12268 0.80267
 H657 H 0.30259 0.12228 0.83659
 Cu658 Cu 0.34707 0.15244 0.82156
 Cu659 Cu 0.32030 0.15156 0.84798
 Cu660 Cu 0.34791 0.17912 0.84798
 N661 N 0.36269 0.16770 0.82159
 N662 N 0.36288 0.17812 0.83202
 C663 C 0.37465 0.18727 0.82965
 C664 C 0.38239 0.18237 0.81708
 C665 C 0.37441 0.16987 0.81226
 H666 H 0.37722 0.19689 0.83656
 H667 H 0.37697 0.16281 0.80275
 N668 N 0.33177 0.17813 0.86311
 N669 N 0.32129 0.16767 0.86313
 C670 C 0.31198 0.17006 0.87479
 C671 C 0.31679 0.18265 0.88255
 C672 C 0.32939 0.18745 0.87475
 H673 H 0.30241 0.16309 0.87742
 H674 H 0.33635 0.19703 0.87731
 H675 H 0.33077 0.16867 0.83644
 H676 H 0.34297 0.15646 0.84827
 N677 N 0.82143 0.63694 0.83198
 N678 N 0.83165 0.63737 0.82135
 C679 C 0.82939 0.62582 0.81188
 C680 C 0.81708 0.61762 0.81685
 C681 C 0.81232 0.62512 0.82963
 H682 H 0.83630 0.62346 0.80221
 H683 H 0.80293 0.62227 0.83676
 Cu684 Cu 0.84713 0.65280 0.82141
 Cu685 Cu 0.82060 0.65163 0.84820
 Cu686 Cu 0.84674 0.68050 0.84668
 N687 N 0.86266 0.66821 0.82147
 N688 N 0.86262 0.67880 0.83171
 C689 C 0.87445 0.68791 0.82947
 C690 C 0.88241 0.68283 0.81709
 C691 C 0.87452 0.67027 0.81231
 H692 H 0.87695 0.69756 0.83636
 H693 H 0.87711 0.66319 0.80282
 N694 N 0.83175 0.67866 0.86284
 N695 N 0.82174 0.66775 0.86336
 C696 C 0.81285 0.66982 0.87540
 C697 C 0.81748 0.68264 0.88292
 C698 C 0.82956 0.68787 0.87460
 H699 H 0.80354 0.66262 0.87833
 H700 H 0.83630 0.69769 0.87689
 H701 H 0.82987 0.66838 0.83587
 H702 H 0.84311 0.65759 0.84798
 N703 N 0.82144 0.13680 0.33183
 N704 N 0.83168 0.13724 0.32122
 C705 C 0.82943 0.12567 0.31175
 C706 C 0.81712 0.11750 0.31671
 C707 C 0.81234 0.12500 0.32948
 H708 H 0.83636 0.12331 0.30208
 H709 H 0.80293 0.12216 0.33659
 Cu710 Cu 0.84714 0.15264 0.32127
 Cu711 Cu 0.82059 0.15145 0.34806
 Cu712 Cu 0.84674 0.18030 0.34655
 N713 N 0.86267 0.16802 0.32134
 N714 N 0.86262 0.17861 0.33158
 C715 C 0.87444 0.18772 0.32935
 C716 C 0.88243 0.18264 0.31698
 C717 C 0.87455 0.17007 0.31219
 H718 H 0.87690 0.19740 0.33621
 H719 H 0.87718 0.16298 0.30273
 N720 N 0.83174 0.17845 0.36271
 N721 N 0.82173 0.16755 0.36322
 C722 C 0.81282 0.16962 0.37526
 C723 C 0.81746 0.18243 0.38278
 C724 C 0.82955 0.18766 0.37448
 H725 H 0.80351 0.16242 0.37817
 H726 H 0.83629 0.19748 0.37676
 H727 H 0.82984 0.16819 0.33575
 H728 H 0.84309 0.15738 0.34784
 N729 N 0.67854 0.36312 0.33207
 N730 N 0.66804 0.36301 0.32172
 C731 C 0.67035 0.37458 0.31228
 C732 C 0.68298 0.38242 0.31697
 C733 C 0.68786 0.37472 0.32958
 H734 H 0.66331 0.37711 0.30274
 H735 H 0.69746 0.37731 0.33651
 Cu736 Cu 0.65223 0.34793 0.32185
 Cu737 Cu 0.67952 0.34826 0.34806
 Cu738 Cu 0.65332 0.31958 0.34658
 N739 N 0.63696 0.33226 0.32190
 N740 N 0.63729 0.32140 0.33185
 C741 C 0.62563 0.31212 0.32948
 C742 C 0.61746 0.31736 0.31731
 C743 C 0.62505 0.33021 0.31280
 H744 H 0.62337 0.30224 0.33613
 H745 H 0.62225 0.33744 0.30348
 N746 N 0.66851 0.32116 0.36255
 N747 N 0.67854 0.33203 0.36304
 C748 C 0.68751 0.32989 0.37501
 C749 C 0.68286 0.31708 0.38254
 C750 C 0.67073 0.31189 0.37427
 H751 H 0.69681 0.33709 0.37791
 H752 H 0.66396 0.30211 0.37658
 H753 H 0.66989 0.33197 0.33537
 H754 H 0.65701 0.34250 0.34817
 N755 N 0.67860 0.86327 0.83221
 N756 N 0.66809 0.86317 0.82188
 C757 C 0.67041 0.87472 0.81240
 C758 C 0.68308 0.88253 0.81706
 C759 C 0.68796 0.87485 0.82967
 H760 H 0.66338 0.87724 0.80286
 H761 H 0.69755 0.87745 0.83661
 Cu762 Cu 0.65226 0.84810 0.82205
 Cu763 Cu 0.67958 0.84842 0.84820
 Cu764 Cu 0.65335 0.81977 0.84678
 N765 N 0.63696 0.83246 0.82212
 N766 N 0.63730 0.82159 0.83208
 C767 C 0.62563 0.81231 0.82971
 C768 C 0.61746 0.81756 0.81753
 C769 C 0.62506 0.83041 0.81302
 H770 H 0.62336 0.80245 0.83638
 H771 H 0.62227 0.83763 0.80370
 N772 N 0.66855 0.82134 0.86273
 N773 N 0.67861 0.83220 0.86320
 C774 C 0.68756 0.83007 0.87518
 C775 C 0.68290 0.81727 0.88272
 C776 C 0.67076 0.81209 0.87447
 H777 H 0.69687 0.83727 0.87807
 H778 H 0.66397 0.80233 0.87680
 H779 H 0.66992 0.83211 0.83552
 H780 H 0.65709 0.84266 0.84834
 N781 N 0.17850 0.36288 0.83217
 N782 N 0.16787 0.36293 0.82194
 C783 C 0.16981 0.37490 0.81291
 C784 C 0.18238 0.38280 0.81770
 C785 C 0.18754 0.37477 0.83000
 H786 H 0.16269 0.37755 0.80348
 H787 H 0.19723 0.37727 0.83685
 Cu788 Cu 0.15258 0.34724 0.82135
 Cu789 Cu 0.18032 0.34693 0.84697
 Cu790 Cu 0.15292 0.31949 0.84695
 N791 N 0.13690 0.33196 0.82194
 N792 N 0.13697 0.32132 0.83216
 C793 C 0.12507 0.31228 0.83000
 C794 C 0.11702 0.31745 0.81771
 C795 C 0.12491 0.33002 0.81293
 H796 H 0.12259 0.30259 0.83684
 H797 H 0.12224 0.33715 0.80350
 N798 N 0.16840 0.32096 0.86269
 N799 N 0.17888 0.33143 0.86269
 C800 C 0.18783 0.32942 0.87469
 C801 C 0.18278 0.31705 0.88270
 C802 C 0.17040 0.31202 0.87470
 H803 H 0.19737 0.33642 0.87731
 H804 H 0.16334 0.30253 0.87735
 H805 H 0.16933 0.33053 0.83526
 H806 H 0.15743 0.34235 0.84781
 N807 N 0.17865 0.86290 0.33184
 N808 N 0.16797 0.86305 0.32168
 C809 C 0.16996 0.87501 0.31266
 C810 C 0.18259 0.88281 0.31742
 C811 C 0.18775 0.87474 0.32968
 H812 H 0.16284 0.87770 0.30321
 H813 H 0.19746 0.87715 0.33652
 Cu814 Cu 0.15274 0.84736 0.32108
 Cu815 Cu 0.18054 0.84687 0.34651
 Cu816 Cu 0.15174 0.82080 0.34800
 N817 N 0.13718 0.83202 0.32147
 N818 N 0.13687 0.82172 0.33202
 C819 C 0.12506 0.81260 0.32970
 C820 C 0.11744 0.81741 0.31701
 C821 C 0.12552 0.82979 0.31210
 H822 H 0.12231 0.80316 0.33678
 H823 H 0.12310 0.83674 0.30246
 N824 N 0.16796 0.82174 0.36300
 N825 N 0.17887 0.83174 0.36248
 C826 C 0.18815 0.82950 0.37419
 C827 C 0.18293 0.81741 0.38248
 C828 C 0.17008 0.81280 0.37499
 H829 H 0.19797 0.83624 0.37646
 H830 H 0.16286 0.80352 0.37791
 H831 H 0.16842 0.83016 0.33556
 H832 H 0.15757 0.84340 0.34767
 C833 C 0.24438 0.95278 0.25519
 C834 C 0.25554 0.95278 0.24460
 C835 C 0.25893 0.96769 0.24166
 N836 N 0.25016 0.97673 0.25012
 C837 C 0.24125 0.96769 0.25843
 C838 C 0.26984 0.97252 0.23112
 C839 C 0.27317 0.98772 0.22769
 C840 C 0.28304 0.99228 0.21653
 C841 C 0.28297 1.00773 0.21649
 C842 C 0.27306 1.01227 0.22762
 N843 N 0.26737 0.99999 0.23452
 C844 C 0.26964 1.02747 0.23100
 C845 C 0.25878 1.03227 0.24162
 C846 C 0.25564 1.04717 0.24486
 C847 C 0.24446 1.04717 0.25542
 C848 C 0.24103 1.03226 0.25833
 N849 N 0.24983 1.02323 0.24989
 C850 C 0.23009 1.02743 0.26885
 C851 C 0.22679 1.01223 0.27231
 C852 C 0.21688 1.00767 0.28343
 C853 C 0.21699 0.99222 0.28351
 C854 C 0.22695 0.98769 0.27241
 N855 N 0.23263 0.99997 0.26552
 C856 C 0.23043 0.97250 0.26907
 H857 H 0.23918 0.94288 0.25993
 H858 H 0.26051 0.94288 0.23960
 H859 H 0.23947 0.99996 0.25620
 H860 H 0.28960 0.98521 0.20914
 H861 H 0.28948 1.01480 0.20906
 H862 H 0.26085 1.05708 0.24012
 H863 H 0.23949 1.05706 0.26042
 H864 H 0.21047 0.98514 0.29092
 H865 H 0.26060 1.00000 0.24389
 H866 H 0.21026 1.01472 0.29079
 C867 C 0.24406 0.54714 0.75518
 C868 C 0.25526 0.54717 0.74463
 C869 C 0.25875 0.53227 0.74173
 N870 N 0.24998 0.52321 0.75018
 C871 C 0.24098 0.53222 0.75842
 C872 C 0.26973 0.52749 0.73123
 C873 C 0.27310 0.51230 0.72780
 C874 C 0.28314 0.50776 0.71679
 C875 C 0.28312 0.49231 0.71675
 C876 C 0.27308 0.48775 0.72776
 N877 N 0.26723 0.50002 0.73455
 C878 C 0.26967 0.47256 0.73112
 C879 C 0.25878 0.46771 0.74167
 C880 C 0.25541 0.45279 0.74460
 C881 C 0.24427 0.45276 0.75519
 C882 C 0.24112 0.46766 0.75846
 N883 N 0.25002 0.47672 0.75017
 C884 C 0.23029 0.47244 0.76909
 C885 C 0.22686 0.48763 0.77247
 C886 C 0.21713 0.49217 0.78376
 C887 C 0.21709 0.50762 0.78374
 C888 C 0.22680 0.51218 0.77245
 N889 N 0.23244 0.49991 0.76547
 C890 C 0.23014 0.52738 0.76904
 H891 H 0.23880 0.55703 0.75990
 H892 H 0.26019 0.55708 0.73962
 H893 H 0.23898 0.49993 0.75593
 H894 H 0.28980 0.51483 0.70948
 H895 H 0.28976 0.48525 0.70942
 H896 H 0.26039 0.44291 0.73958
 H897 H 0.23908 0.44284 0.75993
 H898 H 0.21066 0.51468 0.79126
 H899 H 0.26024 0.49999 0.74375
 H900 H 0.21074 0.48509 0.79129
 C901 C 0.75539 0.04702 0.25579
 C902 C 0.74436 0.04704 0.24507
 C903 C 0.74139 0.03214 0.24167
 N904 N 0.75030 0.02311 0.24998
 C905 C 0.75889 0.03211 0.25864
 C906 C 0.73063 0.02733 0.23096
 C907 C 0.72723 0.01215 0.22753
 C908 C 0.71716 0.00761 0.21655
 C909 C 0.71711 -0.00785 0.21661
 C910 C 0.72716 -0.01241 0.22761
 N911 N 0.73309 -0.00013 0.23426
 C912 C 0.73049 -0.02760 0.23112
 C913 C 0.74127 -0.03244 0.24181
 C914 C 0.74440 -0.04735 0.24503
 C915 C 0.75545 -0.04737 0.25574
 C916 C 0.75879 -0.03247 0.25877
 N917 N 0.75011 -0.02343 0.25021
 C918 C 0.76967 -0.02767 0.26937
 C919 C 0.77314 -0.01248 0.27274
 C920 C 0.78372 -0.00794 0.28322
 C921 C 0.78376 0.00752 0.28317
 C922 C 0.77320 0.01208 0.27265
 N923 N 0.76687 -0.00020 0.26639
 C924 C 0.76981 0.02727 0.26919
 H925 H 0.76021 0.05691 0.26093
 H926 H 0.73913 0.05695 0.24036
 H927 H 0.75888 -0.00019 0.25811
 H928 H 0.71052 0.01469 0.20924
 H929 H 0.71040 -0.01492 0.20937
 H930 H 0.73930 -0.05724 0.24017
 H931 H 0.76042 -0.05728 0.26071
 H932 H 0.79080 0.01459 0.29010
 H933 H 0.74025 -0.00014 0.24328
 H934 H 0.79073 -0.01501 0.29019
 C935 C 0.74473 0.54707 0.74452
 C936 C 0.75560 0.54707 0.75540
 C937 C 0.75878 0.53216 0.75861
 N938 N 0.75012 0.52314 0.75002
 C939 C 0.74152 0.53216 0.74138
 C940 C 0.76955 0.52734 0.76932
 C941 C 0.77284 0.51213 0.77285
 C942 C 0.78361 0.50756 0.78313
 C943 C 0.78355 0.49209 0.78318
 C944 C 0.77275 0.48756 0.77291
 N945 N 0.76624 0.49986 0.76684
 C946 C 0.76935 0.47237 0.76947
 C947 C 0.75864 0.46756 0.75869
 C948 C 0.75564 0.45265 0.75534
 C949 C 0.74482 0.45265 0.74441
 C950 C 0.74148 0.46756 0.74137
 N951 N 0.74995 0.47658 0.75013
 C952 C 0.73070 0.47238 0.73066
 C953 C 0.72732 0.48759 0.72724
 C954 C 0.71631 0.49216 0.71722
 C955 C 0.71632 0.50762 0.71722
 C956 C 0.72734 0.51215 0.72725
 N957 N 0.73407 0.49986 0.73310
 C958 C 0.73071 0.52734 0.73072
 H959 H 0.73977 0.55697 0.73952
 H960 H 0.76057 0.55697 0.76037
 H961 H 0.74310 0.49985 0.74026
 H962 H 0.79082 0.51461 0.78990
 H963 H 0.79070 0.48501 0.78999
 H964 H 0.76075 0.44275 0.76020
 H965 H 0.74001 0.44275 0.73928
 H966 H 0.70899 0.51470 0.71060
 H967 H 0.75755 0.49986 0.75927
 H968 H 0.70897 0.48510 0.71059
 C969 C 0.24465 0.45283 0.24438
 C970 C 0.25562 0.45280 0.25516
 C971 C 0.25880 0.46770 0.25837
 N972 N 0.25006 0.47674 0.24986
 C973 C 0.24140 0.46774 0.24127
 C974 C 0.26960 0.47251 0.26905
 C975 C 0.27297 0.48769 0.27254
 C976 C 0.28340 0.49224 0.28318
 C977 C 0.28339 0.50771 0.28318
 C978 C 0.27294 0.51226 0.27255
 N979 N 0.26674 0.49998 0.26617
 C980 C 0.26957 0.52745 0.26905
 C981 C 0.25880 0.53230 0.25835
 C982 C 0.25568 0.54722 0.25512
 C983 C 0.24470 0.54725 0.24436
 C984 C 0.24137 0.53235 0.24130
 N985 N 0.25002 0.52331 0.24988
 C986 C 0.23050 0.52754 0.23069
 C987 C 0.22712 0.51235 0.22722
 C988 C 0.21644 0.50781 0.21684
 C989 C 0.21647 0.49235 0.21681
 C990 C 0.22715 0.48778 0.22719
 N991 N 0.23355 0.50006 0.23338
 C992 C 0.23058 0.47258 0.23061
 H993 H 0.23967 0.44294 0.23940
 H994 H 0.26067 0.44289 0.26007
 H995 H 0.24187 0.50004 0.24134
 H996 H 0.29033 0.48517 0.29022
 H997 H 0.29032 0.51478 0.29021
 H998 H 0.26077 0.55711 0.26000
 H999 H 0.23976 0.55716 0.23936
 H1000 H 0.20937 0.48529 0.20994
 H1001 H 0.25882 0.50000 0.25783
 H1002 H 0.20934 0.51489 0.20998
 C1003 C 0.75555 0.95296 0.74503
 C1004 C 0.74443 0.95301 0.75566
 C1005 C 0.74115 0.96794 0.75868
 N1006 N 0.74994 0.97693 0.75020
 C1007 C 0.75878 0.96786 0.74185
 C1008 C 0.73030 0.97279 0.76928
 C1009 C 0.72682 0.98798 0.77263
 C1010 C 0.71670 0.99252 0.78357
 C1011 C 0.71662 1.00797 0.78351
 C1012 C 0.72672 1.01252 0.77255
 N1013 N 0.73267 1.00025 0.76587
 C1014 C 0.73006 1.02771 0.76910
 C1015 C 0.74104 1.03250 0.75859
 C1016 C 0.74452 1.04739 0.75568
 C1017 C 0.75569 1.04736 0.74511
 C1018 C 0.75876 1.03244 0.74185
 N1019 N 0.74977 1.02344 0.75011
 C1020 C 0.76956 1.02759 0.73119
 C1021 C 0.77294 1.01240 0.72779
 C1022 C 0.78273 1.00785 0.71656
 C1023 C 0.78275 0.99240 0.71657
 C1024 C 0.77298 0.98785 0.72781
 N1025 N 0.76730 1.00013 0.73474
 C1026 C 0.76962 0.97265 0.73122
 H1027 H 0.76064 0.94304 0.74020
 H1028 H 0.73937 0.94313 0.76060
 H1029 H 0.76065 1.00015 0.74420
 H1030 H 0.71004 0.98545 0.79087
 H1031 H 0.70990 1.01504 0.79076
 H1032 H 0.73960 1.05731 0.76070
 H1033 H 0.76094 1.05724 0.74037
 H1034 H 0.78922 0.98533 0.70909
 H1035 H 0.73980 1.00022 0.75679
 H1036 H 0.78919 1.01491 0.70908
 C1037 C 0.74423 0.45283 0.25533
 C1038 C 0.75547 0.45280 0.24484
 C1039 C 0.75883 0.46770 0.24182
 N1040 N 0.74996 0.47678 0.25015
 C1041 C 0.74101 0.46776 0.25842
 C1042 C 0.76979 0.47249 0.23133
 C1043 C 0.77322 0.48769 0.22801
 C1044 C 0.78303 0.49223 0.21680
 C1045 C 0.78303 0.50767 0.21681
 C1046 C 0.77323 0.51222 0.22803
 N1047 N 0.76756 0.49995 0.23497
 C1048 C 0.76980 0.52742 0.23136
 C1049 C 0.75891 0.53225 0.24192
 C1050 C 0.75549 0.54717 0.24482
 C1051 C 0.74434 0.54719 0.25540
 C1052 C 0.74125 0.53229 0.25870
 N1053 N 0.75018 0.52323 0.25044
 C1054 C 0.73045 0.52750 0.26936
 C1055 C 0.72702 0.51230 0.27266
 C1056 C 0.71751 0.50774 0.28411
 C1057 C 0.71741 0.49230 0.28400
 C1058 C 0.72689 0.48778 0.27250
 N1059 N 0.73241 0.50006 0.26544
 C1060 C 0.73018 0.47260 0.26902
 H1061 H 0.73908 0.44295 0.26016
 H1062 H 0.76056 0.44289 0.23999
 H1063 H 0.73865 0.50007 0.25569
 H1064 H 0.78946 0.48516 0.20930
 H1065 H 0.78948 0.51474 0.20932
 H1066 H 0.76043 0.55705 0.23977
 H1067 H 0.73912 0.55710 0.26011
 H1068 H 0.71113 0.48522 0.29162
 H1069 H 0.76090 0.49996 0.24444
 H1070 H 0.71133 0.51479 0.29184
 C1071 C 0.24484 -0.04750 0.74455
 C1072 C 0.25589 -0.04756 0.75525
 C1073 C 0.25920 -0.03266 0.75836
 N1074 N 0.25048 -0.02360 0.74987
 C1075 C 0.24168 -0.03258 0.74139
 C1076 C 0.27003 -0.02788 0.76902
 C1077 C 0.27337 -0.01271 0.77255
 C1078 C 0.28370 -0.00818 0.78329
 C1079 C 0.28361 0.00729 0.78339
 C1080 C 0.27324 0.01185 0.77269
 N1081 N 0.26718 -0.00041 0.76615
 C1082 C 0.26978 0.02704 0.76930
 C1083 C 0.25897 0.03192 0.75865
 C1084 C 0.25590 0.04685 0.75542
 C1085 C 0.24487 0.04692 0.74470
 C1086 C 0.24147 0.03203 0.74167
 N1087 N 0.25012 0.02296 0.75022
 C1088 C 0.23058 0.02726 0.73106
 C1089 C 0.22725 0.01207 0.72754
 C1090 C 0.21675 0.00753 0.71697
 C1091 C 0.21683 -0.00793 0.71689
 C1092 C 0.22736 -0.01250 0.72743
 N1093 N 0.23357 -0.00023 0.73382
 C1094 C 0.23080 -0.02770 0.73080
 H1095 H 0.23971 -0.05738 0.73968
 H1096 H 0.26085 -0.05748 0.76021
 H1097 H 0.24151 -0.00027 0.74214
 H1098 H 0.29061 -0.01527 0.79034
 H1099 H 0.29043 0.01435 0.79053
 H1100 H 0.26107 0.05672 0.76025
 H1101 H 0.23998 0.05685 0.73968
 H1102 H 0.20988 -0.01499 0.70987
 H1103 H 0.25950 -0.00036 0.75758
 H1104 H 0.20973 0.01461 0.71003
 C1105 C 0.24502 0.25574 0.95295
 C1106 C 0.25589 0.24484 0.95297
 C1107 C 0.25884 0.24144 0.96787
 N1108 N 0.25003 0.24989 0.97688
 C1109 C 0.24162 0.25872 0.96785
 C1110 C 0.26946 0.23057 0.97269
 C1111 C 0.27267 0.22696 0.98786
 C1112 C 0.28250 0.21574 0.99239
 C1113 C 0.28241 0.21565 1.00783
 C1114 C 0.27257 0.22684 1.01239
 N1115 N 0.26686 0.23372 1.00013
 C1116 C 0.26928 0.23038 1.02756
 C1117 C 0.25879 0.24139 1.03235
 C1118 C 0.25626 0.24523 1.04722
 C1119 C 0.24546 0.25619 1.04721
 C1120 C 0.24164 0.25876 1.03234
 N1121 N 0.24978 0.24964 1.02334
 C1122 C 0.23073 0.26934 1.02754
 C1123 C 0.22720 0.27265 1.01236
 C1124 C 0.21605 0.28255 1.00781
 C1125 C 0.21608 0.28257 0.99236
 C1126 C 0.22724 0.27268 0.98782
 N1127 N 0.23401 0.26687 1.00010
 C1128 C 0.23079 0.26939 0.97265
 H1129 H 0.24018 0.26085 0.94306
 H1130 H 0.26100 0.23997 0.94308
 H1131 H 0.24315 0.25984 1.00011
 H1132 H 0.28906 0.20836 0.98531
 H1133 H 0.28890 0.20818 1.01489
 H1134 H 0.26170 0.24071 1.05709
 H1135 H 0.24101 0.26170 1.05708
 H1136 H 0.20869 0.28913 0.98528
 H1137 H 0.25987 0.24289 1.00013
 H1138 H 0.20864 0.28910 1.01487
 C1139 C 0.24482 0.75562 0.54705
 C1140 C 0.25566 0.74470 0.54706
 C1141 C 0.25868 0.74134 0.53216
 N1142 N 0.24998 0.74990 0.52315
 C1143 C 0.24147 0.75864 0.53216
 C1144 C 0.26935 0.73053 0.52734
 C1145 C 0.27277 0.72711 0.51216
 C1146 C 0.28340 0.71665 0.50762
 C1147 C 0.28344 0.71671 0.49217
 C1148 C 0.27283 0.72718 0.48763
 N1149 N 0.26641 0.73337 0.49990
 C1150 C 0.26942 0.73064 0.47246
 C1151 C 0.25868 0.74141 0.46763
 C1152 C 0.25535 0.74443 0.45273
 C1153 C 0.24454 0.75540 0.45272
 C1154 C 0.24156 0.75880 0.46761
 N1155 N 0.25022 0.75021 0.47663
 C1156 C 0.23090 0.76965 0.47243
 C1157 C 0.22742 0.77300 0.48761
 C1158 C 0.21675 0.78341 0.49217
 C1159 C 0.21668 0.78331 0.50762
 C1160 C 0.22732 0.77286 0.51216
 N1161 N 0.23378 0.76673 0.49988
 C1162 C 0.23068 0.76935 0.52733
 H1163 H 0.24000 0.76077 0.55695
 H1164 H 0.26077 0.73983 0.55695
 H1165 H 0.24218 0.75886 0.49988
 H1166 H 0.29043 0.70970 0.51468
 H1167 H 0.29050 0.70979 0.48509
 H1168 H 0.26014 0.73925 0.44284
 H1169 H 0.23941 0.76024 0.44283
 H1170 H 0.20958 0.79018 0.51470
 H1171 H 0.25806 0.74129 0.49989
 H1172 H 0.20972 0.79037 0.48512
 C1173 C 0.24493 0.74456 0.04700
 C1174 C 0.25572 0.75553 0.04695
 C1175 C 0.25870 0.75887 0.03204
 N1176 N 0.25003 0.75026 0.02306
 C1177 C 0.24159 0.74150 0.03211
 C1178 C 0.26938 0.76965 0.02718
 C1179 C 0.27283 0.77301 0.01200
 C1180 C 0.28370 0.78320 0.00744
 C1181 C 0.28378 0.78310 -0.00801
 C1182 C 0.27295 0.77286 -0.01253
 N1183 N 0.26629 0.76693 -0.00025
 C1184 C 0.26958 0.76938 -0.02770
 C1185 C 0.25888 0.75860 -0.03248
 C1186 C 0.25565 0.75542 -0.04737
 C1187 C 0.24485 0.74446 -0.04732
 C1188 C 0.24177 0.74122 -0.03241
 N1189 N 0.25037 0.74990 -0.02343
 C1190 C 0.23105 0.73049 -0.02755
 C1191 C 0.22757 0.72715 -0.01237
 C1192 C 0.21657 0.71710 -0.00781
 C1193 C 0.21650 0.71719 0.00763
 C1194 C 0.22747 0.72728 0.01216
 N1195 N 0.23423 0.73311 -0.00011
 C1196 C 0.23082 0.73078 0.02733
 H1197 H 0.24015 0.73942 0.05691
 H1198 H 0.26083 0.76041 0.05683
 H1199 H 0.24323 0.74032 -0.00013
 H1200 H 0.29086 0.79000 0.01450
 H1201 H 0.29102 0.78982 -0.01508
 H1202 H 0.26053 0.76047 -0.05728
 H1203 H 0.23980 0.73951 -0.05719
 H1204 H 0.20917 0.71057 0.01471
 H1205 H 0.25747 0.75951 -0.00023
 H1206 H 0.20931 0.71039 -0.01486
 C1207 C 0.24457 0.24435 0.45295
 C1208 C 0.25531 0.25536 0.45292
 C1209 C 0.25848 0.25857 0.46781
 N1210 N 0.24998 0.24985 0.47685
 C1211 C 0.24146 0.24112 0.46785
 C1212 C 0.26915 0.26937 0.47261
 C1213 C 0.27254 0.27284 0.48777
 C1214 C 0.28336 0.28309 0.49229
 C1215 C 0.28334 0.28314 0.50774
 C1216 C 0.27251 0.27290 0.51230
 N1217 N 0.26594 0.26685 0.50005
 C1218 C 0.26911 0.26949 0.52748
 C1219 C 0.25845 0.25869 0.53233
 C1220 C 0.25549 0.25532 0.54723
 C1221 C 0.24470 0.24435 0.54726
 C1222 C 0.24136 0.24131 0.53237
 N1223 N 0.24979 0.25010 0.52333
 C1224 C 0.23060 0.23060 0.52757
 C1225 C 0.22723 0.22712 0.51240
 C1226 C 0.21623 0.21706 0.50788
 C1227 C 0.21629 0.21697 0.49244
 C1228 C 0.22731 0.22701 0.48788
 N1229 N 0.23400 0.23293 0.50013
 C1230 C 0.23078 0.23034 0.47271
 H1231 H 0.23959 0.23935 0.44307
 H1232 H 0.26021 0.26041 0.44302
 H1233 H 0.24307 0.24006 0.50012
 H1234 H 0.29055 0.28986 0.48521
 H1235 H 0.29051 0.28994 0.51479
 H1236 H 0.26059 0.26020 0.55711
 H1237 H 0.23992 0.23920 0.55716
 H1238 H 0.20901 0.21029 0.48538
 H1239 H 0.25715 0.25939 0.50006
 H1240 H 0.20888 0.21045 0.51495
 C1241 C 0.74497 0.75571 1.04724
 C1242 C 0.75543 0.74444 1.04723
 C1243 C 0.75834 0.74103 1.03233
 N1244 N 0.74996 0.74987 1.02329
 C1245 C 0.74175 0.75886 1.03234
 C1246 C 0.76885 0.73009 1.02752
 C1247 C 0.77220 0.72669 1.01235
 C1248 C 0.78355 0.71702 1.00782
 C1249 C 0.78365 0.71713 0.99239
 C1250 C 0.77233 0.72683 0.98785
 N1251 N 0.76522 0.73233 1.00009
 C1252 C 0.76911 0.73036 0.97267
 C1253 C 0.75850 0.74121 0.96786
 C1254 C 0.75541 0.74447 0.95296
 C1255 C 0.74484 0.75563 0.95296
 C1256 C 0.74174 0.75889 0.96786
 N1257 N 0.75012 0.75005 0.97690
 C1258 C 0.73112 0.76971 0.97267
 C1259 C 0.72781 0.77313 0.98786
 C1260 C 0.71632 0.78262 0.99240
 C1261 C 0.71632 0.78262 1.00783
 C1262 C 0.72782 0.77313 1.01236
 N1263 N 0.73498 0.76770 1.00010
 C1264 C 0.73114 0.76970 1.02754
 H1265 H 0.74027 0.76096 1.05713
 H1266 H 0.76038 0.73941 1.05712
 H1267 H 0.74476 0.76144 1.00011
 H1268 H 0.79111 0.71064 1.01488
 H1269 H 0.79129 0.71084 0.98534
 H1270 H 0.76026 0.73935 0.94307
 H1271 H 0.73996 0.76072 0.94306
 H1272 H 0.70862 0.78882 1.01489
 H1273 H 0.75561 0.73884 1.00008
 H1274 H 0.70860 0.78881 0.98535
 C1275 C 0.74491 0.25567 0.45282
 C1276 C 0.75554 0.24455 0.45281
 C1277 C 0.75858 0.24123 0.46770
 N1278 N 0.75009 0.24997 0.47675
 C1279 C 0.74173 0.25883 0.46772
 C1280 C 0.76915 0.23033 0.47250
 C1281 C 0.77231 0.22671 0.48768
 C1282 C 0.78328 0.21662 0.49223
 C1283 C 0.78312 0.21647 0.50766
 C1284 C 0.77210 0.22651 0.51219
 N1285 N 0.76542 0.23247 0.49993
 C1286 C 0.76872 0.22992 0.52737
 C1287 C 0.75828 0.24095 0.53218
 C1288 C 0.75569 0.24465 0.54707
 C1289 C 0.74516 0.25586 0.54710
 C1290 C 0.74160 0.25871 0.53222
 N1291 N 0.74964 0.24957 0.52317
 C1292 C 0.73085 0.26945 0.52744
 C1293 C 0.72748 0.27280 0.51225
 C1294 C 0.71585 0.28211 0.50769
 C1295 C 0.71591 0.28216 0.49226
 C1296 C 0.72757 0.27287 0.48773
 N1297 N 0.73478 0.26752 0.50000
 C1298 C 0.73101 0.26957 0.47254
 H1299 H 0.74004 0.26076 0.44292
 H1300 H 0.76043 0.23949 0.44291
 H1301 H 0.74471 0.26151 0.50001
 H1302 H 0.79070 0.21007 0.48517
 H1303 H 0.79041 0.20978 0.51472
 H1304 H 0.76093 0.23988 0.55694
 H1305 H 0.74070 0.26131 0.55699
 H1306 H 0.70814 0.28826 0.48519
 H1307 H 0.75625 0.23954 0.49992
 H1308 H 0.70802 0.28817 0.51474
 C1309 C 0.74486 0.24438 0.04710
 C1310 C 0.75579 0.25520 0.04711
 C1311 C 0.75880 0.25857 0.03221
 N1312 N 0.75001 0.25014 0.02319
 C1313 C 0.74148 0.24141 0.03220
 C1314 C 0.76945 0.26939 0.02739
 C1315 C 0.77279 0.27286 0.01221
 C1316 C 0.78259 0.28408 0.00766
 C1317 C 0.78253 0.28412 -0.00778
 C1318 C 0.77270 0.27293 -0.01231
 N1319 N 0.76705 0.26601 -0.00005
 C1320 C 0.76929 0.26950 -0.02748
 C1321 C 0.75862 0.25871 -0.03230
 C1322 C 0.75577 0.25521 -0.04719
 C1323 C 0.74478 0.24444 -0.04720
 C1324 C 0.74120 0.24165 -0.03231
 N1325 N 0.74967 0.25041 -0.02329
 C1326 C 0.73033 0.23103 -0.02750
 C1327 C 0.72693 0.22761 -0.01232
 C1328 C 0.71643 0.21704 -0.00775
 C1329 C 0.71654 0.21694 0.00769
 C1330 C 0.72709 0.22748 0.01221
 N1331 N 0.73326 0.23390 -0.00006
 C1332 C 0.73067 0.23076 0.02738
 H1333 H 0.73998 0.23929 0.05699
 H1334 H 0.76092 0.26002 0.05700
 H1335 H 0.74123 0.24222 -0.00006
 H1336 H 0.78911 0.29151 0.01472
 H1337 H 0.78900 0.29159 -0.01485
 H1338 H 0.76108 0.25986 -0.05708
 H1339 H 0.74006 0.23921 -0.05708
 H1340 H 0.70963 0.20989 0.01477
 H1341 H 0.76025 0.25669 -0.00006
 H1342 H 0.70941 0.21008 -0.01480
 C1343 C 0.75498 0.75578 0.45272
 C1344 C 0.74452 0.74453 0.45275
 C1345 C 0.74166 0.74109 0.46766
 N1346 N 0.75008 0.74990 0.47668
 C1347 C 0.75826 0.75889 0.46760
 C1348 C 0.73114 0.73019 0.47249
 C1349 C 0.72783 0.72680 0.48768
 C1350 C 0.71633 0.71733 0.49225
 C1351 C 0.71628 0.71742 0.50767
 C1352 C 0.72776 0.72693 0.51218
 N1353 N 0.73496 0.73229 0.49992
 C1354 C 0.73104 0.73041 0.52736
 C1355 C 0.74164 0.74126 0.53212
 C1356 C 0.74486 0.74443 0.54701
 C1357 C 0.75534 0.75566 0.54698
 C1358 C 0.75824 0.75905 0.53207
 N1359 N 0.74986 0.75021 0.52305
 C1360 C 0.76878 0.76993 0.52723
 C1361 C 0.77215 0.77324 0.51204
 C1362 C 0.78373 0.78261 0.50748
 C1363 C 0.78378 0.78253 0.49207
 C1364 C 0.77221 0.77314 0.48755
 N1365 N 0.76497 0.76782 0.49980
 C1366 C 0.76889 0.76971 0.47237
 H1367 H 0.75962 0.76105 0.44281
 H1368 H 0.73952 0.73953 0.44288
 H1369 H 0.75511 0.76168 0.49981
 H1370 H 0.70863 0.71112 0.48521
 H1371 H 0.70853 0.71130 0.51474
 H1372 H 0.74017 0.73920 0.55692
 H1373 H 0.76032 0.76067 0.55685
 H1374 H 0.79158 0.78859 0.48500
 H1375 H 0.74473 0.73856 0.49991
 H1376 H 0.79149 0.78874 0.51453
 C1377 C 1.04727 0.25593 0.24508
 C1378 C 1.04725 0.24484 0.25573
 C1379 C 1.03232 0.24133 0.25854
 N1380 N 1.02330 0.24997 0.24992
 C1381 C 1.03235 0.25891 0.24166
 C1382 C 1.02747 0.23038 0.26904
 C1383 C 1.01225 0.22702 0.27248
 C1384 C 1.00768 0.21668 0.28318
 C1385 C 0.99220 0.21676 0.28324
 C1386 C 0.98766 0.22713 0.27254
 N1387 N 0.99997 0.23320 0.26603
 C1388 C 0.97246 0.23058 0.26913
 C1389 C 0.96765 0.24145 0.25852
 C1390 C 0.95273 0.24459 0.25527
 C1391 C 0.95275 0.25568 0.24462
 C1392 C 0.96769 0.25905 0.24167
 N1393 N 0.97671 0.25030 0.25017
 C1394 C 0.97255 0.26994 0.23111
 C1395 C 0.98777 0.27325 0.22762
 C1396 C 0.99234 0.28335 0.21668
 C1397 C 1.00782 0.28326 0.21662
 C1398 C 1.01235 0.27313 0.22755
 N1399 N 1.00005 0.26727 0.23426
 C1400 C 1.02755 0.26966 0.23095
 H1401 H 1.05719 0.26121 0.24044
 H1402 H 1.05715 0.24000 0.26086
 H1403 H 1.00004 0.26008 0.24326
 H1404 H 1.01475 0.20976 0.29025
 H1405 H 0.98511 0.20992 0.29035
 H1406 H 0.94281 0.23943 0.26004
 H1407 H 0.94285 0.26062 0.23958
 H1408 H 1.01491 0.28993 0.20935
 H1409 H 0.99998 0.24079 0.25737
 H1410 H 0.98527 0.29009 0.20945
 C1411 C 0.45269 0.24438 0.75537
 C1412 C 0.45270 0.25561 0.74488
 C1413 C 0.46764 0.25886 0.74182
 N1414 N 0.47668 0.24993 0.75010
 C1415 C 0.46761 0.24105 0.75841
 C1416 C 0.47248 0.26974 0.73127
 C1417 C 0.48770 0.27305 0.72784
 C1418 C 0.49225 0.28267 0.71648
 C1419 C 0.50772 0.28259 0.71642
 C1420 C 0.51226 0.27295 0.72777
 N1421 N 0.49998 0.26746 0.73485
 C1422 C 0.52748 0.26951 0.73110
 C1423 C 0.53228 0.25874 0.74178
 C1424 C 0.54721 0.25564 0.74506
 C1425 C 0.54719 0.24450 0.75565
 C1426 C 0.53226 0.24109 0.75855
 N1427 N 0.52322 0.24982 0.75005
 C1428 C 0.52743 0.23016 0.76906
 C1429 C 0.51221 0.22676 0.77240
 C1430 C 0.50764 0.21686 0.78352
 C1431 C 0.49217 0.21684 0.78348
 C1432 C 0.48763 0.22674 0.77235
 N1433 N 0.49993 0.23250 0.76551
 C1434 C 0.47242 0.23011 0.76893
 H1435 H 0.44277 0.23929 0.76021
 H1436 H 0.44280 0.26075 0.74004
 H1437 H 0.49994 0.23928 0.75615
 H1438 H 0.48518 0.28904 0.70893
 H1439 H 0.51479 0.28889 0.70881
 H1440 H 0.55712 0.26084 0.74033
 H1441 H 0.55709 0.23954 0.76067
 H1442 H 0.48508 0.21030 0.79087
 H1443 H 0.49998 0.26105 0.74449
 H1444 H 0.51470 0.21035 0.79096
 C1445 C 0.04710 0.24438 0.74480
 C1446 C 0.04711 0.25554 0.75535
 C1447 C 0.03218 0.25870 0.75856
 N1448 N 0.02312 0.24981 0.75028
 C1449 C 0.03217 0.24102 0.74185
 C1450 C 0.02736 0.26955 0.76915
 C1451 C 0.01214 0.27305 0.77242
 C1452 C 0.00758 0.28286 0.78361
 C1453 C -0.00789 0.28301 0.78348
 C1454 C -0.01243 0.27324 0.77224
 N1455 N -0.00013 0.26749 0.76539
 C1456 C -0.02764 0.26997 0.76877
 C1457 C -0.03246 0.25899 0.75832
 C1458 C -0.04739 0.25559 0.75539
 C1459 C -0.04739 0.24431 0.74497
 C1460 C -0.03246 0.24111 0.74182
 N1461 N -0.02341 0.25010 0.75001
 C1462 C -0.02763 0.23021 0.73129
 C1463 C -0.01242 0.22678 0.72795
 C1464 C -0.00787 0.21698 0.71674
 C1465 C 0.00759 0.21696 0.71675
 C1466 C 0.01214 0.22674 0.72796
 N1467 N -0.00015 0.23242 0.73490
 C1468 C 0.02735 0.23014 0.73131
 H1469 H 0.05701 0.23939 0.73982
 H1470 H 0.05702 0.26072 0.76011
 H1471 H -0.00016 0.23906 0.74437
 H1472 H 0.01464 0.28925 0.79115
 H1473 H -0.01497 0.28953 0.79089
 H1474 H -0.05731 0.26064 0.76031
 H1475 H -0.05730 0.23908 0.74027
 H1476 H 0.01467 0.21052 0.70926
 H1477 H -0.00011 0.26088 0.75590
 H1478 H -0.01495 0.21053 0.70927
 C1479 C 0.45285 0.24451 0.24460
 C1480 C 0.45287 0.25574 0.25509
 C1481 C 0.46780 0.25881 0.25834
 N1482 N 0.47683 0.24976 0.25018
 C1483 C 0.46777 0.24099 0.24174
 C1484 C 0.47264 0.26968 0.26890
 C1485 C 0.48786 0.27298 0.27236
 C1486 C 0.49242 0.28277 0.28357
 C1487 C 0.50789 0.28270 0.28360
 C1488 C 0.51244 0.27289 0.27239
 N1489 N 0.50014 0.26727 0.26546
 C1490 C 0.52765 0.26945 0.26901
 C1491 C 0.53246 0.25867 0.25834
 C1492 C 0.54738 0.25551 0.25509
 C1493 C 0.54736 0.24442 0.24446
 C1494 C 0.53242 0.24110 0.24148
 N1495 N 0.52340 0.24983 0.25000
 C1496 C 0.52758 0.23021 0.23095
 C1497 C 0.51237 0.22670 0.22769
 C1498 C 0.50781 0.21646 0.21689
 C1499 C 0.49234 0.21637 0.21700
 C1500 C 0.48779 0.22661 0.22783
 N1501 N 0.50009 0.23265 0.23437
 C1502 C 0.47258 0.23000 0.23126
 H1503 H 0.44293 0.23959 0.23960
 H1504 H 0.44296 0.26103 0.25977
 H1505 H 0.50011 0.23998 0.24328
 H1506 H 0.48535 0.28927 0.29101
 H1507 H 0.51498 0.28914 0.29107
 H1508 H 0.55730 0.26062 0.25989
 H1509 H 0.55726 0.23940 0.23950
 H1510 H 0.48526 0.20955 0.20987
 H1511 H 0.50013 0.26061 0.25603
 H1512 H 0.51488 0.20973 0.20965
 C1513 C 1.04717 0.74454 0.75533
 C1514 C 1.04720 0.75586 0.74496
 C1515 C 1.03227 0.75914 0.74186
 N1516 N 1.02318 0.75018 0.75006
 C1517 C 1.03224 0.74122 0.75831
 C1518 C 1.02749 0.77005 0.73133
 C1519 C 1.01229 0.77346 0.72800
 C1520 C 1.00776 0.78287 0.71645
 C1521 C 0.99231 0.78287 0.71642
 C1522 C 0.98774 0.77347 0.72795
 N1523 N 1.00000 0.76808 0.73517
 C1524 C 0.97253 0.77010 0.73126
 C1525 C 0.96769 0.75918 0.74175
 C1526 C 0.95274 0.75592 0.74478
 C1527 C 0.95272 0.74461 0.75517
 C1528 C 0.96764 0.74126 0.75819
 N1529 N 0.97673 0.75020 0.74997
 C1530 C 0.97243 0.73032 0.76868
 C1531 C 0.98764 0.72694 0.77205
 C1532 C 0.99216 0.71748 0.78356
 C1533 C 1.00761 0.71746 0.78358
 C1534 C 1.01218 0.72691 0.77208
 N1535 N 0.99992 0.73235 0.76490
 C1536 C 1.02740 0.73028 0.76877
 H1537 H 1.05708 0.73939 0.76016
 H1538 H 1.05712 0.76104 0.74021
 H1539 H 0.99995 0.73856 0.75511
 H1540 H 1.01485 0.78897 0.70870
 H1541 H 0.98525 0.78898 0.70864
 H1542 H 0.94284 0.76110 0.73998
 H1543 H 0.94280 0.73949 0.75998
 H1544 H 1.01467 0.71131 0.79132
 H1545 H 0.99997 0.76191 0.74499
 H1546 H 0.98507 0.71134 0.79128
 C1547 C 0.54712 0.74437 0.25513
 C1548 C 0.54714 0.75561 0.24467
 C1549 C 0.53221 0.75910 0.24181
 N1550 N 0.52314 0.75034 0.25025
 C1551 C 0.53220 0.74131 0.25841
 C1552 C 0.52742 0.77005 0.23132
 C1553 C 0.51222 0.77357 0.22805
 C1554 C 0.50769 0.78336 0.21683
 C1555 C 0.49223 0.78336 0.21679
 C1556 C 0.48766 0.77357 0.22800
 N1557 N 0.49992 0.76792 0.23500
 C1558 C 0.47245 0.77011 0.23126
 C1559 C 0.46761 0.75908 0.24164
 C1560 C 0.45268 0.75568 0.24454
 C1561 C 0.45266 0.74435 0.25491
 C1562 C 0.46759 0.74112 0.25805
 N1563 N 0.47667 0.75015 0.24992
 C1564 C 0.47239 0.73025 0.26861
 C1565 C 0.48759 0.72700 0.27211
 C1566 C 0.49210 0.71772 0.28377
 C1567 C 0.50755 0.71781 0.28390
 C1568 C 0.51214 0.72712 0.27231
 N1569 N 0.49990 0.73237 0.26496
 C1570 C 0.52737 0.73052 0.26904
 H1571 H 0.55703 0.73907 0.25977
 H1572 H 0.55705 0.76057 0.23969
 H1573 H 0.49994 0.73837 0.25503
 H1574 H 0.51478 0.78976 0.20932
 H1575 H 0.48517 0.78975 0.20925
 H1576 H 0.44278 0.76081 0.23969
 H1577 H 0.44274 0.73916 0.25965
 H1578 H 0.51459 0.71181 0.29177
 H1579 H 0.49990 0.76127 0.24448
 H1580 H 0.48499 0.71162 0.29150
 C1581 C -0.04727 0.74442 0.24487
 C1582 C -0.04729 0.75567 0.25532
 C1583 C -0.03236 0.75896 0.25837
 N1584 N -0.02329 0.75007 0.25009
 C1585 C -0.03233 0.74115 0.24181
 C1586 C -0.02757 0.76988 0.26888
 C1587 C -0.01236 0.77336 0.27215
 C1588 C -0.00781 0.78309 0.28340
 C1589 C 0.00765 0.78315 0.28335
 C1590 C 0.01220 0.77342 0.27208
 N1591 N -0.00008 0.76779 0.26511
 C1592 C 0.02742 0.77005 0.26870
 C1593 C 0.03226 0.75912 0.25822
 C1594 C 0.04720 0.75574 0.25527
 C1595 C 0.04722 0.74447 0.24484
 C1596 C 0.03229 0.74125 0.24170
 N1597 N 0.02321 0.75024 0.24990
 C1598 C 0.02749 0.73034 0.23120
 C1599 C 0.01228 0.72692 0.22788
 C1600 C 0.00774 0.71730 0.21653
 C1601 C -0.00772 0.71727 0.21656
 C1602 C -0.01228 0.72687 0.22793
 N1603 N -0.00000 0.73242 0.23497
 C1604 C -0.02750 0.73027 0.23127
 H1605 H -0.05717 0.73928 0.24006
 H1606 H -0.05721 0.76080 0.26012
 H1607 H -0.00000 0.73881 0.24463
 H1608 H -0.01489 0.78945 0.29096
 H1609 H 0.01472 0.78956 0.29085
 H1610 H 0.05710 0.76079 0.26019
 H1611 H 0.05714 0.73926 0.24011
 H1612 H -0.01479 0.71096 0.20898
 H1613 H -0.00007 0.76126 0.25556
 H1614 H 0.01482 0.71102 0.20891
 C1615 C 0.45278 0.74482 0.74472
 C1616 C 0.45278 0.75599 0.75527
 C1617 C 0.46771 0.75913 0.75847
 N1618 N 0.47675 0.75018 0.75020
 C1619 C 0.46770 0.74140 0.74177
 C1620 C 0.47254 0.76996 0.76909
 C1621 C 0.48776 0.77327 0.77254
 C1622 C 0.49230 0.78303 0.78378
 C1623 C 0.50778 0.78298 0.78382
 C1624 C 0.51234 0.77321 0.77258
 N1625 N 0.50005 0.76760 0.76562
 C1626 C 0.52756 0.76979 0.76921
 C1627 C 0.53238 0.75901 0.75854
 C1628 C 0.54731 0.75591 0.75526
 C1629 C 0.54730 0.74480 0.74464
 C1630 C 0.53238 0.74142 0.74170
 N1631 N 0.52333 0.75013 0.75023
 C1632 C 0.52755 0.73052 0.73116
 C1633 C 0.51234 0.72709 0.72780
 C1634 C 0.50778 0.71696 0.71690
 C1635 C 0.49231 0.71695 0.71693
 C1636 C 0.48775 0.72708 0.72784
 N1637 N 0.50004 0.73302 0.73450
 C1638 C 0.47253 0.73045 0.73126
 H1639 H 0.44286 0.73984 0.73975
 H1640 H 0.44287 0.76117 0.76005
 H1641 H 0.50004 0.74020 0.74353
 H1642 H 0.48522 0.78949 0.79125
 H1643 H 0.51485 0.78940 0.79132
 H1644 H 0.55722 0.76108 0.76002
 H1645 H 0.55721 0.73984 0.73964
 H1646 H 0.48524 0.71023 0.70969
 H1647 H 0.50005 0.76100 0.75614
 H1648 H 0.51487 0.71027 0.70964
 C1649 C 0.42223 0.29778 0.29762
 C1650 C 0.41586 0.29110 0.31038
 C1651 C 0.40277 0.29732 0.31660
 C1652 C 0.39604 0.31016 0.31017
 C1653 C 0.40267 0.31667 0.29736
 C1654 C 0.41574 0.31055 0.29106
 C1655 C 0.43581 0.29115 0.29085
 C1656 C 0.44200 0.29769 0.27790
 C1657 C 0.45453 0.29098 0.27113
 C1658 C 0.46074 0.27782 0.27722
 C1659 C 0.45466 0.27155 0.29035
 C1660 C 0.44213 0.27818 0.29723
 C1661 C 0.42238 0.31691 0.27826
 C1662 C 0.43529 0.31059 0.27178
 C1663 C 0.42265 0.27827 0.31660
 C1664 C 0.43556 0.27192 0.31012
 H1665 H 0.41749 0.32680 0.27314
 H1666 H 0.43997 0.31576 0.26182
 H1667 H 0.41789 0.27303 0.32648
 H1668 H 0.44037 0.26194 0.31517
 H1669 H 0.39789 0.29207 0.32640
 H1670 H 0.39772 0.32648 0.29218
 H1671 H 0.45916 0.29563 0.26088
 H1672 H 0.45941 0.26128 0.29485
 C1673 C 0.42206 0.79820 0.79762
 C1674 C 0.41558 0.81094 0.79100
 C1675 C 0.40251 0.81713 0.79727
 C1676 C 0.39583 0.81072 0.81016
 C1677 C 0.40259 0.79784 0.81658
 C1678 C 0.41566 0.79158 0.81038
 C1679 C 0.43566 0.79152 0.79091
 C1680 C 0.44197 0.77857 0.79736
 C1681 C 0.45452 0.77190 0.79054
 C1682 C 0.46064 0.77812 0.77739
 C1683 C 0.45444 0.79125 0.77124
 C1684 C 0.44189 0.79800 0.77795
 C1685 C 0.42244 0.77878 0.81667
 C1686 C 0.43536 0.77237 0.81026
 C1687 C 0.42227 0.81722 0.77817
 C1688 C 0.43519 0.81086 0.77175
 H1689 H 0.41765 0.77360 0.82658
 H1690 H 0.44014 0.76243 0.81538
 H1691 H 0.41742 0.82710 0.77299
 H1692 H 0.43991 0.81598 0.76179
 H1693 H 0.39765 0.82691 0.79195
 H1694 H 0.39780 0.79254 0.82639
 H1695 H 0.45924 0.76165 0.79509
 H1696 H 0.45909 0.79585 0.76098
 C1697 C -0.07789 0.29848 0.79741
 C1698 C -0.08348 0.29261 0.81091
 C1699 C -0.09648 0.29889 0.81723
 C1700 C -0.10398 0.31091 0.81012
 C1701 C -0.09814 0.31662 0.79656
 C1702 C -0.08511 0.31047 0.79018
 C1703 C -0.06439 0.29175 0.79057
 C1704 C -0.05897 0.29746 0.77691
 C1705 C -0.04646 0.29068 0.77017
 C1706 C -0.03954 0.27824 0.77695
 C1707 C -0.04492 0.27274 0.79072
 C1708 C -0.05739 0.27948 0.79761
 C1709 C -0.07923 0.31600 0.77663
 C1710 C -0.06638 0.30961 0.77011
 C1711 C -0.07602 0.28050 0.81776
 C1712 C -0.06322 0.27401 0.81120
 H1713 H -0.08468 0.32529 0.77097
 H1714 H -0.06229 0.31412 0.75959
 H1715 H -0.08020 0.27590 0.82821
 H1716 H -0.05792 0.26457 0.81674
 H1717 H -0.10068 0.29434 0.82767
 H1718 H -0.10371 0.32578 0.79085
 H1719 H -0.04239 0.29469 0.75943
 H1720 H -0.03966 0.26299 0.79576
 C1721 C -0.07788 0.79807 0.29778
 C1722 C -0.08351 0.81161 0.29203
 C1723 C -0.09639 0.81799 0.29850
 C1724 C -0.10370 0.81091 0.31064
 C1725 C -0.09787 0.79725 0.31618
 C1726 C -0.08497 0.79081 0.30982
 C1727 C -0.06440 0.79128 0.29095
 C1728 C -0.05887 0.77762 0.29659
 C1729 C -0.04633 0.77097 0.28973
 C1730 C -0.03948 0.77788 0.27731
 C1731 C -0.04497 0.79165 0.27192
 C1732 C -0.05747 0.79841 0.27870
 C1733 C -0.07905 0.77721 0.31522
 C1734 C -0.06621 0.77074 0.30873
 C1735 C -0.07619 0.81849 0.27986
 C1736 C -0.06341 0.81198 0.27329
 H1737 H -0.08442 0.77150 0.32452
 H1738 H -0.06206 0.76020 0.31319
 H1739 H -0.08044 0.82894 0.27530
 H1740 H -0.05818 0.81758 0.26385
 H1741 H -0.10065 0.82844 0.29402
 H1742 H -0.10334 0.79151 0.32537
 H1743 H -0.04217 0.76024 0.29369
 H1744 H -0.03976 0.79678 0.26220
 C1745 C 0.57767 0.70246 0.29812
 C1746 C 0.58250 0.68828 0.29327
 C1747 C 0.59549 0.68196 0.29958
 C1748 C 0.60372 0.68975 0.31064
 C1749 C 0.59867 0.70403 0.31530
 C1750 C 0.58564 0.71040 0.30913
 C1751 C 0.56412 0.70923 0.29138
 C1752 C 0.55941 0.72352 0.29611
 C1753 C 0.54688 0.73015 0.28925
 C1754 C 0.53926 0.72263 0.27766
 C1755 C 0.54389 0.70822 0.27325
 C1756 C 0.55637 0.70144 0.28008
 C1757 C 0.58047 0.72459 0.31370
 C1758 C 0.56755 0.73102 0.30733
 C1759 C 0.57429 0.68072 0.28212
 C1760 C 0.56147 0.68721 0.27561
 H1761 H 0.58650 0.73081 0.32223
 H1762 H 0.56401 0.74203 0.31110
 H1763 H 0.57788 0.66975 0.27830
 H1764 H 0.55557 0.68109 0.26693
 H1765 H 0.59910 0.67099 0.29583
 H1766 H 0.60486 0.71030 0.32364
 H1767 H 0.54334 0.74134 0.29248
 H1768 H 0.53807 0.70256 0.26419
 C1769 C 0.57772 0.20171 0.79776
 C1770 C 0.58416 0.18892 0.79120
 C1771 C 0.59717 0.18269 0.79755
 C1772 C 0.60381 0.18916 0.81039
 C1773 C 0.59709 0.20200 0.81681
 C1774 C 0.58408 0.20832 0.81055
 C1775 C 0.56420 0.20848 0.79096
 C1776 C 0.55795 0.22148 0.79736
 C1777 C 0.54545 0.22820 0.79050
 C1778 C 0.53933 0.22199 0.77736
 C1779 C 0.54552 0.20884 0.77123
 C1780 C 0.55801 0.20203 0.77798
 C1781 C 0.57738 0.22119 0.81675
 C1782 C 0.56455 0.22767 0.81025
 C1783 C 0.57752 0.18268 0.77833
 C1784 C 0.56468 0.18913 0.77182
 H1785 H 0.58218 0.22638 0.82664
 H1786 H 0.55984 0.23769 0.81530
 H1787 H 0.58237 0.17279 0.77316
 H1788 H 0.56002 0.18406 0.76182
 H1789 H 0.60210 0.17287 0.79239
 H1790 H 0.60195 0.20720 0.82664
 H1791 H 0.54076 0.23847 0.79503
 H1792 H 0.54087 0.20425 0.76097
 C1793 C 1.07774 0.70216 0.79762
 C1794 C 1.08476 0.70939 0.80971
 C1795 C 1.09774 0.70305 0.81599
 C1796 C 1.10371 0.68950 0.81033
 C1797 C 1.09649 0.68246 0.79814
 C1798 C 1.08353 0.68874 0.79174
 C1799 C 1.06419 0.70888 0.79085
 C1800 C 1.05735 0.70178 0.77855
 C1801 C 1.04484 0.70852 0.77178
 C1802 C 1.03927 0.72223 0.77722
 C1803 C 1.04600 0.72907 0.78974
 C1804 C 1.05854 0.72244 0.79660
 C1805 C 1.07626 0.68187 0.77956
 C1806 C 1.06340 0.68829 0.77306
 C1807 C 1.07867 0.72285 0.81526
 C1808 C 1.06577 0.72926 0.80883
 H1809 H 1.08060 0.67149 0.77494
 H1810 H 1.05821 0.68270 0.76360
 H1811 H 1.08396 0.72852 0.82463
 H1812 H 1.06150 0.73969 0.81339
 H1813 H 1.10314 0.70877 0.82522
 H1814 H 1.10086 0.67210 0.79356
 H1815 H 1.03970 0.70343 0.76200
 H1816 H 1.04176 0.73974 0.79376
 C1817 C 1.07774 0.20182 0.29751
 C1818 C 1.08310 0.20745 0.31119
 C1819 C 1.09615 0.20125 0.31747
 C1820 C 1.10391 0.18953 0.31015
 C1821 C 1.09830 0.18405 0.29641
 C1822 C 1.08522 0.19012 0.29007
 C1823 C 1.06420 0.20849 0.29070
 C1824 C 1.05900 0.20302 0.27687
 C1825 C 1.04650 0.20983 0.27014
 C1826 C 1.03936 0.22203 0.27713
 C1827 C 1.04448 0.22723 0.29109
 C1828 C 1.05695 0.22048 0.29796
 C1829 C 1.07954 0.18479 0.27636
 C1830 C 1.06664 0.19113 0.26988
 C1831 C 1.07537 0.21926 0.31826
 C1832 C 1.06254 0.22570 0.31173
 H1833 H 1.08518 0.17571 0.27055
 H1834 H 1.06272 0.18679 0.25923
 H1835 H 1.07936 0.22366 0.32886
 H1836 H 1.05703 0.23491 0.31744
 H1837 H 1.10018 0.20561 0.32805
 H1838 H 1.10410 0.17515 0.29052
 H1839 H 1.04260 0.20603 0.25926
 H1840 H 1.03904 0.23680 0.29630
 C1841 C 0.57773 0.29768 0.70210
 C1842 C 0.58286 0.31161 0.70733
 C1843 C 0.59577 0.31798 0.70092
 C1844 C 0.60362 0.31050 0.68937
 C1845 C 0.59830 0.29645 0.68436
 C1846 C 0.58535 0.29002 0.69064
 C1847 C 0.56424 0.29087 0.70889
 C1848 C 0.55922 0.27682 0.70377
 C1849 C 0.54671 0.27017 0.71064
 C1850 C 0.53939 0.27744 0.72258
 C1851 C 0.54433 0.29161 0.72740
 C1852 C 0.55681 0.29839 0.72059
 C1853 C 0.57991 0.27606 0.68571
 C1854 C 0.56705 0.26958 0.69215
 C1855 C 0.57501 0.31888 0.71893
 C1856 C 0.56222 0.31236 0.72546
 H1857 H 0.58568 0.27006 0.67685
 H1858 H 0.56329 0.25876 0.68809
 H1859 H 0.57884 0.32965 0.72306
 H1860 H 0.55658 0.31827 0.73448
 H1861 H 0.59961 0.32876 0.70497
 H1862 H 0.60419 0.29040 0.67564
 H1863 H 0.54293 0.25916 0.70709
 H1864 H 0.53874 0.29705 0.73674
 C1865 C 0.57769 0.79808 0.20223
 C1866 C 0.58344 0.81153 0.20804
 C1867 C 0.59631 0.81786 0.20153
 C1868 C 0.60352 0.81081 0.18932
 C1869 C 0.59756 0.79725 0.18370
 C1870 C 0.58466 0.79085 0.19010
 C1871 C 0.56422 0.79132 0.20912
 C1872 C 0.55857 0.77775 0.20343
 C1873 C 0.54605 0.77115 0.21033
 C1874 C 0.53934 0.77802 0.22286
 C1875 C 0.54494 0.79170 0.22829
 C1876 C 0.55743 0.79842 0.22146
 C1877 C 0.57863 0.77733 0.18465
 C1878 C 0.56579 0.77090 0.19120
 C1879 C 0.57626 0.81836 0.22031
 C1880 C 0.56349 0.81191 0.22692
 H1881 H 0.58391 0.77163 0.17530
 H1882 H 0.56156 0.76041 0.18672
 H1883 H 0.58061 0.82874 0.22491
 H1884 H 0.55837 0.81746 0.23645
 H1885 H 0.60066 0.82824 0.20605
 H1886 H 0.60293 0.79155 0.17442
 H1887 H 0.54177 0.76048 0.20633
 H1888 H 0.53984 0.79681 0.23808
 C1889 C 1.07777 0.29790 0.20205
 C1890 C 1.08521 0.29038 0.19037
 C1891 C 1.09805 0.29687 0.18398
 C1892 C 1.10348 0.31084 0.18911
 C1893 C 1.09582 0.31818 0.20088
 C1894 C 1.08301 0.31175 0.20740
 C1895 C 1.06434 0.29106 0.20890
 C1896 C 1.05707 0.29845 0.22079
 C1897 C 1.04459 0.29167 0.22759
 C1898 C 1.03948 0.27764 0.22254
 C1899 C 1.04667 0.27047 0.21047
 C1900 C 1.05919 0.27712 0.20362
 C1901 C 1.07537 0.31886 0.21923
 C1902 C 1.06263 0.31231 0.22583
 C1903 C 1.07968 0.27648 0.18536
 C1904 C 1.06687 0.26998 0.19186
 H1905 H 1.07932 0.32954 0.22349
 H1906 H 1.05715 0.31810 0.23501
 H1907 H 1.08534 0.27056 0.17637
 H1908 H 1.06302 0.25922 0.18771
 H1909 H 1.10380 0.29093 0.17510
 H1910 H 1.09976 0.32889 0.20501
 H1911 H 1.03911 0.29701 0.23704
 H1912 H 1.04277 0.25956 0.20678
 C1913 C 1.07777 0.79801 0.70220
 C1914 C 1.08517 0.79043 0.69055
 C1915 C 1.09810 0.79681 0.68420
 C1916 C 1.10362 0.81074 0.68934
 C1917 C 1.09599 0.81814 0.70108
 C1918 C 1.08310 0.81182 0.70756
 C1919 C 1.06427 0.79127 0.70904
 C1920 C 1.05704 0.79872 0.72092
 C1921 C 1.04456 0.79200 0.72777
 C1922 C 1.03940 0.77796 0.72280
 C1923 C 1.04651 0.77076 0.71069
 C1924 C 1.05903 0.77736 0.70379
 C1925 C 1.07547 0.81901 0.71935
 C1926 C 1.06268 0.81256 0.72593
 C1927 C 1.07953 0.77658 0.68552
 C1928 C 1.06666 0.77017 0.69201
 H1929 H 1.07948 0.82968 0.72358
 H1930 H 1.05721 0.81841 0.73508
 H1931 H 1.08514 0.77063 0.67652
 H1932 H 1.06273 0.75944 0.68785
 H1933 H 1.10384 0.79082 0.67534
 H1934 H 1.10000 0.82882 0.70523
 H1935 H 1.03913 0.79738 0.73723
 H1936 H 1.04256 0.75985 0.70704
 C1937 C 0.42228 0.70189 0.70267
 C1938 C 0.41492 0.69007 0.71003
 C1939 C 0.40186 0.68397 0.70369
 C1940 C 0.39615 0.68955 0.69002
 C1941 C 0.40379 0.70139 0.68277
 C1942 C 0.41683 0.70761 0.68906
 C1943 C 0.43581 0.70858 0.70949
 C1944 C 0.44295 0.72068 0.70232
 C1945 C 0.45540 0.72745 0.70921
 C1946 C 0.46062 0.72214 0.72312
 C1947 C 0.45358 0.70982 0.73001
 C1948 C 0.44110 0.70301 0.72326
 C1949 C 0.42445 0.71953 0.68207
 C1950 C 0.43727 0.72598 0.68861
 C1951 C 0.42069 0.68464 0.72366
 C1952 C 0.43357 0.69100 0.73016
 H1953 H 0.42039 0.72401 0.67152
 H1954 H 0.44270 0.73528 0.68294
 H1955 H 0.41515 0.67547 0.72942
 H1956 H 0.43757 0.68658 0.74076
 H1957 H 0.39615 0.67497 0.70951
 H1958 H 0.39968 0.70584 0.67226
 H1959 H 0.46076 0.73708 0.70406
 H1960 H 0.45755 0.70592 0.74082
 C1961 C 0.42232 0.20164 0.20258
 C1962 C 0.41442 0.19040 0.21028
 C1963 C 0.40131 0.18446 0.20393
 C1964 C 0.39608 0.18958 0.18989
 C1965 C 0.40427 0.20082 0.18228
 C1966 C 0.41737 0.20691 0.18860
 C1967 C 0.43589 0.20822 0.20944
 C1968 C 0.44356 0.21978 0.20193
 C1969 C 0.45600 0.22651 0.20887
 C1970 C 0.46068 0.22169 0.22314
 C1971 C 0.45316 0.20984 0.23033
 C1972 C 0.44068 0.20310 0.22355
 C1973 C 0.42555 0.21825 0.18127
 C1974 C 0.43840 0.22460 0.18784
 C1975 C 0.41972 0.18539 0.22426
 C1976 C 0.43265 0.19161 0.23077
 H1977 H 0.42190 0.22235 0.17042
 H1978 H 0.44426 0.23346 0.18190
 H1979 H 0.41377 0.17665 0.23026
 H1980 H 0.43628 0.18752 0.24162
 H1981 H 0.39518 0.17595 0.21004
 H1982 H 0.40054 0.20489 0.17148
 H1983 H 0.46177 0.23576 0.20346
 H1984 H 0.45675 0.20630 0.24140
 C1985 C -0.07770 0.70210 0.20229
 C1986 C -0.08487 0.70946 0.19036
 C1987 C -0.09785 0.70312 0.18410
 C1988 C -0.10369 0.68947 0.18963
 C1989 C -0.09627 0.68225 0.20161
 C1990 C -0.08330 0.68853 0.20800
 C1991 C -0.06420 0.70885 0.20910
 C1992 C -0.05723 0.70166 0.22128
 C1993 C -0.04477 0.70843 0.22810
 C1994 C -0.03938 0.72227 0.22281
 C1995 C -0.04624 0.72922 0.21042
 C1996 C -0.05874 0.72257 0.20353
 C1997 C -0.07589 0.68155 0.22005
 C1998 C -0.06309 0.68802 0.22660
 C1999 C -0.07896 0.72306 0.18498
 C2000 C -0.06611 0.72950 0.19145
 H2001 H -0.08009 0.67106 0.22454
 H2002 H -0.05781 0.68237 0.23598
 H2003 H -0.08437 0.72883 0.17574
 H2004 H -0.06200 0.74007 0.18704
 H2005 H -0.10339 0.70895 0.17500
 H2006 H -0.10050 0.67177 0.20605
 H2007 H -0.03954 0.70326 0.23779
 H2008 H -0.04214 0.74000 0.20654
 C2009 C -0.07788 0.20210 0.70239
 C2010 C -0.08471 0.20920 0.69011
 C2011 C -0.09774 0.20294 0.68388
 C2012 C -0.10396 0.18962 0.68980
 C2013 C -0.09688 0.18267 0.70213
 C2014 C -0.08387 0.18886 0.70847
 C2015 C -0.06434 0.20879 0.70918
 C2016 C -0.05772 0.20185 0.72170
 C2017 C -0.04525 0.20860 0.72852
 C2018 C -0.03951 0.22217 0.72289
 C2019 C -0.04602 0.22884 0.71017
 C2020 C -0.05851 0.22220 0.70326
 C2021 C -0.07677 0.18211 0.72084
 C2022 C -0.06393 0.18851 0.72735
 C2023 C -0.07841 0.22247 0.68435
 C2024 C -0.06553 0.22886 0.69082
 H2025 H -0.08125 0.17186 0.72559
 H2026 H -0.05890 0.18305 0.73698
 H2027 H -0.08353 0.22802 0.67482
 H2028 H -0.06111 0.23918 0.68612
 H2029 H -0.10300 0.20855 0.67449
 H2030 H -0.10142 0.17246 0.70687
 H2031 H -0.04028 0.20365 0.73845
 H2032 H -0.04164 0.23941 0.70601
 C2033 C 0.29781 0.42204 0.29751
 C2034 C 0.31038 0.41537 0.29075
 C2035 C 0.31652 0.40231 0.29705
 C2036 C 0.31020 0.39589 0.31006
 C2037 C 0.29754 0.40280 0.31668
 C2038 C 0.29131 0.41586 0.31046
 C2039 C 0.29118 0.43563 0.29077
 C2040 C 0.27840 0.44214 0.29737
 C2041 C 0.27176 0.45468 0.29055
 C2042 C 0.27782 0.46059 0.27725
 C2043 C 0.29080 0.45419 0.27092
 C2044 C 0.29753 0.44164 0.27764
 C2045 C 0.27866 0.42282 0.31687
 C2046 C 0.27231 0.43574 0.31042
 C2047 C 0.31655 0.42183 0.27776
 C2048 C 0.31023 0.43474 0.27131
 H2049 H 0.27355 0.41820 0.32689
 H2050 H 0.26247 0.44068 0.31563
 H2051 H 0.32629 0.41679 0.27248
 H2052 H 0.31525 0.43928 0.26121
 H2053 H 0.32617 0.39720 0.29171
 H2054 H 0.29245 0.39809 0.32665
 H2055 H 0.26164 0.45958 0.29524
 H2056 H 0.29529 0.45869 0.26055
 C2057 C 0.29832 -0.07837 0.79740
 C2058 C 0.31064 -0.08528 0.79040
 C2059 C 0.31685 -0.09829 0.79675
 C2060 C 0.31086 -0.10451 0.81007
 C2061 C 0.29836 -0.09735 0.81683
 C2062 C 0.29211 -0.08431 0.81058
 C2063 C 0.29166 -0.06479 0.79065
 C2064 C 0.27916 -0.05802 0.79752
 C2065 C 0.27252 -0.04545 0.79073
 C2066 C 0.27828 -0.03980 0.77718
 C2067 C 0.29096 -0.04649 0.77057
 C2068 C 0.29770 -0.05904 0.77726
 C2069 C 0.27973 -0.07709 0.81725
 C2070 C 0.27336 -0.06418 0.81082
 C2071 C 0.31648 -0.07908 0.77713
 C2072 C 0.31011 -0.06620 0.77066
 H2073 H 0.27486 -0.08152 0.82747
 H2074 H 0.26376 -0.05903 0.81625
 H2075 H 0.32601 -0.08429 0.77164
 H2076 H 0.31489 -0.06186 0.76036
 H2077 H 0.32628 -0.10350 0.79113
 H2078 H 0.29342 -0.10175 0.82700
 H2079 H 0.26261 -0.04035 0.79564
 H2080 H 0.29520 -0.04220 0.76001
 C2081 C 0.79798 0.42213 0.79803
 C2082 C 0.81102 0.41597 0.79170
 C2083 C 0.81734 0.40303 0.79809
 C2084 C 0.81072 0.39613 0.81078
 C2085 C 0.79756 0.40262 0.81691
 C2086 C 0.79117 0.41555 0.81059
 C2087 C 0.79115 0.43560 0.79121
 C2088 C 0.77791 0.44158 0.79739
 C2089 C 0.77118 0.45407 0.79057
 C2090 C 0.77758 0.46045 0.77766
 C2091 C 0.79095 0.45451 0.77168
 C2092 C 0.79779 0.44202 0.77842
 C2093 C 0.77802 0.42196 0.81656
 C2094 C 0.77150 0.43475 0.81006
 C2095 C 0.81745 0.42282 0.77901
 C2096 C 0.81093 0.43561 0.77248
 H2097 H 0.77266 0.41698 0.82627
 H2098 H 0.76128 0.43925 0.81492
 H2099 H 0.82753 0.41818 0.77402
 H2100 H 0.81616 0.44045 0.76262
 H2101 H 0.82739 0.39842 0.79305
 H2102 H 0.79211 0.39770 0.82657
 H2103 H 0.76074 0.45856 0.79496
 H2104 H 0.79569 0.45935 0.76158
 C2105 C 0.79797 -0.07816 0.29775
 C2106 C 0.79186 -0.08398 0.31103
 C2107 C 0.79800 -0.09709 0.31724
 C2108 C 0.81025 -0.10448 0.31030
 C2109 C 0.81618 -0.09835 0.29690
 C2110 C 0.81011 -0.08523 0.29063
 C2111 C 0.79136 -0.06453 0.29103
 C2112 C 0.79730 -0.05889 0.27756
 C2113 C 0.79055 -0.04634 0.27086
 C2114 C 0.77795 -0.03958 0.27754
 C2115 C 0.77231 -0.04510 0.29119
 C2116 C 0.77898 -0.05764 0.29800
 C2117 C 0.81591 -0.07909 0.27730
 C2118 C 0.80961 -0.06615 0.27088
 C2119 C 0.77964 -0.07661 0.31782
 C2120 C 0.77330 -0.06367 0.31141
 H2121 H 0.82533 -0.08441 0.27172
 H2122 H 0.81433 -0.06188 0.26052
 H2123 H 0.77485 -0.08095 0.32812
 H2124 H 0.76379 -0.05844 0.31692
 H2125 H 0.79309 -0.10143 0.32745
 H2126 H 0.82549 -0.10367 0.29120
 H2127 H 0.79472 -0.04212 0.26024
 H2128 H 0.76247 -0.03993 0.29617
 C2129 C 0.29820 0.57777 0.70268
 C2130 C 0.31000 0.58516 0.71005
 C2131 C 0.31608 0.59823 0.70372
 C2132 C 0.31050 0.60393 0.69005
 C2133 C 0.29867 0.59627 0.68279
 C2134 C 0.29247 0.58323 0.68907
 C2135 C 0.29153 0.56423 0.70948
 C2136 C 0.27945 0.55707 0.70230
 C2137 C 0.27271 0.54461 0.70917
 C2138 C 0.27802 0.53939 0.72308
 C2139 C 0.29032 0.54645 0.72998
 C2140 C 0.29711 0.55894 0.72324
 C2141 C 0.28057 0.57558 0.68206
 C2142 C 0.27414 0.56275 0.68858
 C2143 C 0.31543 0.57938 0.72369
 C2144 C 0.30910 0.56649 0.73017
 H2145 H 0.27610 0.57964 0.67151
 H2146 H 0.26486 0.55731 0.68290
 H2147 H 0.32458 0.58494 0.72945
 H2148 H 0.31352 0.56249 0.74076
 H2149 H 0.32506 0.60395 0.70956
 H2150 H 0.29422 0.60038 0.67228
 H2151 H 0.26308 0.53923 0.70402
 H2152 H 0.29422 0.54248 0.74080
 C2153 C 0.29799 1.07767 0.20216
 C2154 C 0.31106 1.08382 0.20845
 C2155 C 0.31741 1.09670 0.20198
 C2156 C 0.31080 1.10348 0.18928
 C2157 C 0.29761 1.09712 0.18319
 C2158 C 0.29118 1.08424 0.18958
 C2159 C 0.29119 1.06422 0.20902
 C2160 C 0.27796 1.05821 0.20287
 C2161 C 0.27127 1.04572 0.20975
 C2162 C 0.27774 1.03937 0.22266
 C2163 C 0.29110 1.04533 0.22855
 C2164 C 0.29788 1.05781 0.22178
 C2165 C 0.27803 1.07782 0.18366
 C2166 C 0.27153 1.06503 0.19019
 C2167 C 0.31750 1.07702 0.22114
 C2168 C 0.31101 1.06423 0.22769
 H2169 H 0.27266 1.08278 0.17394
 H2170 H 0.26134 1.06050 0.18533
 H2171 H 0.32758 1.08166 0.22610
 H2172 H 0.31627 1.05940 0.23753
 H2173 H 0.32746 1.10139 0.20693
 H2174 H 0.29225 1.10214 0.17353
 H2175 H 0.26084 1.04120 0.20539
 H2176 H 0.29589 1.04050 0.23864
 C2177 C 0.79807 0.57760 0.20243
 C2178 C 0.81115 0.58376 0.20869
 C2179 C 0.81739 0.59673 0.20230
 C2180 C 0.81063 0.60360 0.18972
 C2181 C 0.79747 0.59720 0.18363
 C2182 C 0.79116 0.58422 0.18993
 C2183 C 0.79133 0.56410 0.20926
 C2184 C 0.77806 0.55811 0.20316
 C2185 C 0.77138 0.54564 0.21006
 C2186 C 0.77789 0.53929 0.22296
 C2187 C 0.79130 0.54520 0.22877
 C2188 C 0.79808 0.55766 0.22197
 C2189 C 0.77802 0.57779 0.18402
 C2190 C 0.77157 0.56496 0.19052
 C2191 C 0.81769 0.57688 0.22129
 C2192 C 0.81125 0.56406 0.22783
 H2193 H 0.77260 0.58278 0.17434
 H2194 H 0.76136 0.56044 0.18570
 H2195 H 0.82780 0.58150 0.22622
 H2196 H 0.81656 0.55919 0.23762
 H2197 H 0.82745 0.60143 0.20721
 H2198 H 0.79203 0.60226 0.17404
 H2199 H 0.76091 0.54114 0.20576
 H2200 H 0.79612 0.54037 0.23884
 C2201 C 0.79787 1.07770 0.70223
 C2202 C 0.81114 1.08366 0.70830
 C2203 C 0.81745 1.09657 0.70186
 C2204 C 0.81059 1.10358 0.68943
 C2205 C 0.79723 1.09740 0.68353
 C2206 C 0.79085 1.08448 0.68987
 C2207 C 0.79109 1.06424 0.70907
 C2208 C 0.77767 1.05844 0.70315
 C2209 C 0.77097 1.04599 0.71007
 C2210 C 0.77763 1.03946 0.72279
 C2211 C 0.79119 1.04519 0.72845
 C2212 C 0.79798 1.05764 0.72163
 C2213 C 0.77753 1.07824 0.68414
 C2214 C 0.77105 1.06544 0.69067
 C2215 C 0.81780 1.07662 0.72074
 C2216 C 0.81133 1.06384 0.72731
 H2217 H 0.77202 1.08335 0.67458
 H2218 H 0.76071 1.06106 0.68598
 H2219 H 0.82806 1.08109 0.72552
 H2220 H 0.81675 1.05884 0.73697
 H2221 H 0.82765 1.10110 0.70663
 H2222 H 0.79169 1.10260 0.67407
 H2223 H 0.76039 1.04163 0.70590
 H2224 H 0.79612 1.04023 0.73840
 C2225 C 0.70247 0.57793 0.29814
 C2226 C 0.71033 0.58577 0.30931
 C2227 C 0.70406 0.59890 0.31533
 C2228 C 0.68997 0.60419 0.31036
 C2229 C 0.68225 0.59608 0.29916
 C2230 C 0.68845 0.58299 0.29300
 C2231 C 0.70917 0.56430 0.29152
 C2232 C 0.70147 0.55669 0.28006
 C2233 C 0.70822 0.54418 0.27329
 C2234 C 0.72253 0.53938 0.27792
 C2235 C 0.72993 0.54683 0.28969
 C2236 C 0.72332 0.55939 0.29650
 C2237 C 0.68096 0.57490 0.28173
 C2238 C 0.68737 0.56199 0.27534
 C2239 C 0.72435 0.58035 0.31417
 C2240 C 0.73072 0.56737 0.30789
 H2241 H 0.67010 0.57865 0.27771
 H2242 H 0.68131 0.55619 0.26655
 H2243 H 0.73049 0.58626 0.32284
 H2244 H 0.74161 0.56365 0.31188
 H2245 H 0.71027 0.60499 0.32379
 H2246 H 0.67140 0.59987 0.29519
 H2247 H 0.70265 0.53847 0.26411
 H2248 H 0.74103 0.54315 0.29310
 C2249 C 0.70170 1.07810 0.79761
 C2250 C 0.70739 1.08347 0.81125
 C2251 C 0.70127 1.09656 0.81752
 C2252 C 0.68945 1.10436 0.81029
 C2253 C 0.68389 1.09864 0.79657
 C2254 C 0.68997 1.08558 0.79021
 C2255 C 0.70832 1.06453 0.79080
 C2256 C 0.70284 1.05937 0.77696
 C2257 C 0.70959 1.04685 0.77023
 C2258 C 0.72175 1.03962 0.77723
 C2259 C 0.72697 1.04471 0.79121
 C2260 C 0.72028 1.05722 0.79806
 C2261 C 0.68464 1.07993 0.77649
 C2262 C 0.69097 1.06706 0.76997
 C2263 C 0.71919 1.07570 0.81831
 C2264 C 0.72554 1.06281 0.81182
 H2265 H 0.67556 1.08558 0.77067
 H2266 H 0.68664 1.06318 0.75930
 H2267 H 0.72364 1.07969 0.82889
 H2268 H 0.73473 1.05727 0.81755
 H2269 H 0.70580 1.10051 0.82805
 H2270 H 0.67494 1.10431 0.79064
 H2271 H 0.70578 1.04299 0.75935
 H2272 H 0.73649 1.03921 0.79645
 C2273 C 0.20203 0.57775 0.79775
 C2274 C 0.20936 0.58487 0.80971
 C2275 C 0.20304 0.59786 0.81595
 C2276 C 0.18940 0.60374 0.81038
 C2277 C 0.18225 0.59641 0.79831
 C2278 C 0.18852 0.58344 0.79195
 C2279 C 0.20874 0.56418 0.79103
 C2280 C 0.20155 0.55724 0.77884
 C2281 C 0.20829 0.54471 0.77209
 C2282 C 0.22209 0.53925 0.77746
 C2283 C 0.22901 0.54608 0.78987
 C2284 C 0.22239 0.55862 0.79669
 C2285 C 0.18156 0.57605 0.77989
 C2286 C 0.18797 0.56318 0.77343
 C2287 C 0.22291 0.57887 0.81520
 C2288 C 0.22930 0.56596 0.80881
 H2289 H 0.17110 0.58031 0.77534
 H2290 H 0.18231 0.55791 0.76406
 H2291 H 0.22865 0.58424 0.82447
 H2292 H 0.23980 0.56175 0.81331
 H2293 H 0.20884 0.60336 0.82507
 H2294 H 0.17181 0.60071 0.79381
 H2295 H 0.20314 0.53950 0.76239
 H2296 H 0.23975 0.54191 0.79383
 C2297 C 0.20183 1.07784 0.29740
 C2298 C 0.20764 1.08330 0.31096
 C2299 C 0.20148 1.09636 0.31725
 C2300 C 0.18961 1.10402 0.31004
 C2301 C 0.18396 1.09832 0.29641
 C2302 C 0.19000 1.08524 0.29006
 C2303 C 0.20843 1.06426 0.29061
 C2304 C 0.20277 1.05895 0.27689
 C2305 C 0.20948 1.04640 0.27017
 C2306 C 0.22180 1.03932 0.27704
 C2307 C 0.22721 1.04457 0.29089
 C2308 C 0.22054 1.05708 0.29775
 C2309 C 0.18451 1.07946 0.27646
 C2310 C 0.19078 1.06654 0.26999
 C2311 C 0.21958 1.07566 0.31792
 C2312 C 0.22595 1.06279 0.31140
 H2313 H 0.17535 1.08505 0.27072
 H2314 H 0.18631 1.06254 0.25942
 H2315 H 0.22413 1.07974 0.32842
 H2316 H 0.23527 1.05735 0.31703
 H2317 H 0.20598 1.10047 0.32774
 H2318 H 0.17495 1.10404 0.29060
 H2319 H 0.20553 1.04243 0.25938
 H2320 H 0.23686 1.03918 0.29601
 C2321 C 0.70207 0.42203 0.70246
 C2322 C 0.69042 0.41453 0.70998
 C2323 C 0.68440 0.40140 0.70372
 C2324 C 0.68987 0.39576 0.68996
 C2325 C 0.70154 0.40354 0.68257
 C2326 C 0.70768 0.41665 0.68877
 C2327 C 0.70870 0.43563 0.70918
 C2328 C 0.72062 0.44290 0.70183
 C2329 C 0.72738 0.45539 0.70863
 C2330 C 0.72227 0.46050 0.72264
 C2331 C 0.71008 0.45336 0.72970
 C2332 C 0.70326 0.44085 0.72302
 C2333 C 0.71939 0.42443 0.68159
 C2334 C 0.72578 0.43731 0.68803
 C2335 C 0.68509 0.42027 0.72367
 C2336 C 0.69139 0.43321 0.73008
 H2337 H 0.72375 0.42044 0.67097
 H2338 H 0.73492 0.44286 0.68222
 H2339 H 0.67602 0.41465 0.72953
 H2340 H 0.68704 0.43718 0.74071
 H2341 H 0.67554 0.39560 0.70966
 H2342 H 0.70589 0.39950 0.67199
 H2343 H 0.73689 0.46084 0.70334
 H2344 H 0.70631 0.45727 0.74059
 C2345 C 0.70209 -0.07778 0.20245
 C2346 C 0.68942 -0.08435 0.20913
 C2347 C 0.68321 -0.09732 0.20275
 C2348 C 0.68955 -0.10376 0.18975
 C2349 C 0.70228 -0.09693 0.18321
 C2350 C 0.70859 -0.08397 0.18952
 C2351 C 0.70882 -0.06429 0.20927
 C2352 C 0.72169 -0.05789 0.20274
 C2353 C 0.72839 -0.04542 0.20961
 C2354 C 0.72229 -0.03948 0.22288
 C2355 C 0.70926 -0.04579 0.22914
 C2356 C 0.70247 -0.05826 0.22238
 C2357 C 0.72134 -0.07713 0.18319
 C2358 C 0.72779 -0.06431 0.18970
 C2359 C 0.68328 -0.07789 0.22214
 C2360 C 0.68969 -0.06506 0.22865
 H2361 H 0.72644 -0.08178 0.17319
 H2362 H 0.73770 -0.05948 0.18456
 H2363 H 0.67348 -0.08284 0.22739
 H2364 H 0.68469 -0.06051 0.23875
 H2365 H 0.67348 -0.10236 0.20800
 H2366 H 0.70738 -0.10164 0.17326
 H2367 H 0.73857 -0.04060 0.20497
 H2368 H 0.70475 -0.04125 0.23949
 C2369 C 0.20207 0.42230 0.20219
 C2370 C 0.20825 0.41638 0.18898
 C2371 C 0.20204 0.40332 0.18278
 C2372 C 0.18972 0.39611 0.18969
 C2373 C 0.18368 0.40230 0.20296
 C2374 C 0.18979 0.41538 0.20924
 C2375 C 0.20875 0.43586 0.20893
 C2376 C 0.20273 0.44161 0.22233
 C2377 C 0.20955 0.45410 0.22905
 C2378 C 0.22228 0.46071 0.22246
 C2379 C 0.22800 0.45507 0.20889
 C2380 C 0.22127 0.44259 0.20206
 C2381 C 0.18392 0.42161 0.22248
 C2382 C 0.19028 0.43450 0.22892
 C2383 C 0.22060 0.42359 0.18229
 C2384 C 0.22701 0.43646 0.18873
 H2385 H 0.17440 0.41641 0.22799
 H2386 H 0.18551 0.43886 0.23922
 H2387 H 0.22544 0.41917 0.17204
 H2388 H 0.23663 0.44158 0.18330
 H2389 H 0.20690 0.39881 0.17261
 H2390 H 0.17427 0.39699 0.20851
 H2391 H 0.20531 0.45841 0.23960
 H2392 H 0.23793 0.46013 0.20398
 C2393 C 0.20214 -0.07779 0.70226
 C2394 C 0.18927 -0.08413 0.70879
 C2395 C 0.18303 -0.09712 0.70246
 C2396 C 0.18955 -0.10381 0.68967
 C2397 C 0.20248 -0.09720 0.68329
 C2398 C 0.20880 -0.08422 0.68953
 C2399 C 0.20892 -0.06430 0.70902
 C2400 C 0.22198 -0.05815 0.70264
 C2401 C 0.22876 -0.04571 0.70949
 C2402 C 0.22254 -0.03955 0.72260
 C2403 C 0.20931 -0.04560 0.72872
 C2404 C 0.20243 -0.05804 0.72196
 C2405 C 0.22172 -0.07760 0.68332
 C2406 C 0.22820 -0.06478 0.68977
 C2407 C 0.18296 -0.07739 0.72158
 C2408 C 0.18943 -0.06457 0.72806
 H2409 H 0.22691 -0.08242 0.67344
 H2410 H 0.23824 -0.06010 0.68471
 H2411 H 0.17298 -0.08213 0.72668
 H2412 H 0.18429 -0.05982 0.73800
 H2413 H 0.17315 -0.10198 0.70759
 H2414 H 0.20775 -0.10211 0.67353
 H2415 H 0.23908 -0.04110 0.70497
 H2416 H 0.20471 -0.04090 0.73895
 C2417 C 0.29769 0.29766 0.42230
 C2418 C 0.31034 0.29090 0.41575
 C2419 C 0.31658 0.29722 0.40275
 C2420 C 0.31030 0.31026 0.39627
 C2421 C 0.29755 0.31683 0.40304
 C2422 C 0.29122 0.31059 0.41604
 C2423 C 0.29096 0.29094 0.43584
 C2424 C 0.27812 0.29756 0.44222
 C2425 C 0.27141 0.29079 0.45473
 C2426 C 0.27744 0.27751 0.46073
 C2427 C 0.29046 0.27116 0.45446
 C2428 C 0.29728 0.27784 0.44195
 C2429 C 0.27850 0.31700 0.42286
 C2430 C 0.27206 0.31059 0.43573
 C2431 C 0.31646 0.27791 0.42230
 C2432 C 0.31004 0.27149 0.43518
 H2433 H 0.27342 0.32700 0.41817
 H2434 H 0.26218 0.31581 0.44058
 H2435 H 0.32625 0.27261 0.41738
 H2436 H 0.31504 0.26141 0.43981
 H2437 H 0.32628 0.29190 0.39773
 H2438 H 0.29247 0.32677 0.39828
 H2439 H 0.26124 0.29550 0.45953
 H2440 H 0.29492 0.26081 0.45906
 C2441 C 0.29809 0.79779 -0.07801
 C2442 C 0.31056 0.79090 -0.08476
 C2443 C 0.31675 0.79724 -0.09776
 C2444 C 0.31062 0.81043 -0.10405
 C2445 C 0.29806 0.81715 -0.09707
 C2446 C 0.29176 0.81088 -0.08408
 C2447 C 0.29137 0.79102 -0.06448
 C2448 C 0.27869 0.79776 -0.05791
 C2449 C 0.27199 0.79095 -0.04541
 C2450 C 0.27787 0.77752 -0.03960
 C2451 C 0.29074 0.77104 -0.04607
 C2452 C 0.29754 0.77775 -0.05858
 C2453 C 0.27921 0.81741 -0.07706
 C2454 C 0.27278 0.81096 -0.06420
 C2455 C 0.31655 0.77775 -0.07840
 C2456 C 0.31015 0.77129 -0.06554
 H2457 H 0.27424 0.82754 -0.08160
 H2458 H 0.26302 0.81626 -0.05922
 H2459 H 0.32620 0.77235 -0.08348
 H2460 H 0.31503 0.76108 -0.06107
 H2461 H 0.32632 0.79182 -0.10293
 H2462 H 0.29312 0.82725 -0.10167
 H2463 H 0.26196 0.79577 -0.04046
 H2464 H 0.29510 0.76058 -0.04163
 C2465 C 0.79747 0.29844 -0.07763
 C2466 C 0.81136 0.29311 -0.08284
 C2467 C 0.81768 0.29947 -0.09578
 C2468 C 0.81018 0.31106 -0.10357
 C2469 C 0.79619 0.31620 -0.09814
 C2470 C 0.78982 0.30997 -0.08517
 C2471 C 0.79069 0.29166 -0.06414
 C2472 C 0.77667 0.29686 -0.05906
 C2473 C 0.77001 0.28999 -0.04658
 C2474 C 0.77726 0.27797 -0.03936
 C2475 C 0.79139 0.27306 -0.04436
 C2476 C 0.79818 0.27987 -0.05680
 C2477 C 0.77590 0.31498 -0.07965
 C2478 C 0.76944 0.30855 -0.06679
 C2479 C 0.81862 0.28145 -0.07507
 C2480 C 0.81213 0.27492 -0.06229
 H2481 H 0.76990 0.32390 -0.08535
 H2482 H 0.75864 0.31267 -0.06296
 H2483 H 0.82936 0.27724 -0.07897
 H2484 H 0.81801 0.26584 -0.05672
 H2485 H 0.82841 0.29534 -0.09969
 H2486 H 0.79014 0.32495 -0.10400
 H2487 H 0.75902 0.29359 -0.04275
 H2488 H 0.79680 0.26366 -0.03883
 C2489 C 0.79789 0.79782 0.42214
 C2490 C 0.80892 0.78989 0.41414
 C2491 C 0.81504 0.79626 0.40111
 C2492 C 0.81031 0.81053 0.39609
 C2493 C 0.79923 0.81830 0.40433
 C2494 C 0.79296 0.81199 0.41732
 C2495 C 0.79119 0.79104 0.43567
 C2496 C 0.77986 0.79881 0.44345
 C2497 C 0.77304 0.79202 0.45590
 C2498 C 0.77748 0.77761 0.46049
 C2499 C 0.78912 0.77011 0.45287
 C2500 C 0.79598 0.77676 0.44036
 C2501 C 0.78180 0.81953 0.42555
 C2502 C 0.77534 0.81304 0.43837
 C2503 C 0.81357 0.77572 0.41930
 C2504 C 0.80723 0.76928 0.43221
 H2505 H 0.77793 0.83050 0.42198
 H2506 H 0.76664 0.81916 0.44429
 H2507 H 0.82212 0.76952 0.41326
 H2508 H 0.81106 0.75829 0.43575
 H2509 H 0.82340 0.79000 0.39491
 H2510 H 0.79542 0.82925 0.40073
 H2511 H 0.76396 0.79767 0.46174
 H2512 H 0.79240 0.75893 0.45640
 C2513 C 0.70191 0.29751 0.57777
 C2514 C 0.70673 0.31174 0.58249
 C2515 C 0.70049 0.31805 0.59549
 C2516 C 0.68953 0.31022 0.60384
 C2517 C 0.68490 0.29590 0.59891
 C2518 C 0.69100 0.28953 0.58586
 C2519 C 0.70859 0.29074 0.56421
 C2520 C 0.70391 0.27640 0.55961
 C2521 C 0.71075 0.26976 0.54709
 C2522 C 0.72225 0.27733 0.53934
 C2523 C 0.72659 0.29180 0.54385
 C2524 C 0.71979 0.29857 0.55633
 C2525 C 0.68645 0.27531 0.58079
 C2526 C 0.69278 0.26886 0.56787
 C2527 C 0.71777 0.31934 0.57415
 C2528 C 0.72422 0.31285 0.56132
 H2529 H 0.67798 0.26906 0.58690
 H2530 H 0.68903 0.25783 0.56441
 H2531 H 0.72155 0.33035 0.57766
 H2532 H 0.73282 0.31902 0.55533
 H2533 H 0.70421 0.32905 0.59902
 H2534 H 0.67663 0.28960 0.60519
 H2535 H 0.70756 0.25854 0.54364
 H2536 H 0.73558 0.29750 0.53794
 C2537 C 0.70205 0.79771 1.07775
 C2538 C 0.69044 0.79010 1.08523
 C2539 C 0.68421 0.79644 1.09823
 C2540 C 0.68946 0.81033 1.10375
 C2541 C 0.70110 0.81778 1.09600
 C2542 C 0.70745 0.81151 1.08305
 C2543 C 0.70884 0.79097 1.06425
 C2544 C 0.72072 0.79842 1.05699
 C2545 C 0.72756 0.79168 1.04453
 C2546 C 0.72259 0.77763 1.03942
 C2547 C 0.71049 0.77042 1.04657
 C2548 C 0.70359 0.77703 1.05907
 C2549 C 0.71920 0.81872 1.07536
 C2550 C 0.72575 0.81227 1.06258
 C2551 C 0.68538 0.77626 1.07961
 C2552 C 0.69183 0.76984 1.06675
 H2553 H 0.72346 0.82939 1.07934
 H2554 H 0.73490 0.81811 1.05708
 H2555 H 0.67640 0.77029 1.08527
 H2556 H 0.68767 0.75910 1.06286
 H2557 H 0.67538 0.79044 1.10403
 H2558 H 0.70529 0.82846 1.09997
 H2559 H 0.73703 0.79705 1.03908
 H2560 H 0.70685 0.75948 1.04267
 C2561 C 0.20200 0.29753 1.07785
 C2562 C 0.19105 0.28958 1.08593
 C2563 C 0.18496 0.29594 1.09897
 C2564 C 0.18964 0.31023 1.10393
 C2565 C 0.20063 0.31805 1.09560
 C2566 C 0.20687 0.31173 1.08260
 C2567 C 0.20866 0.29075 1.06431
 C2568 C 0.21992 0.29854 1.05646
 C2569 C 0.22670 0.29174 1.04398
 C2570 C 0.22225 0.27731 1.03944
 C2571 C 0.21072 0.26979 1.04717
 C2572 C 0.20392 0.27644 1.05969
 C2573 C 0.21795 0.31930 1.07429
 C2574 C 0.22440 0.31280 1.06147
 C2575 C 0.18646 0.27537 1.08084
 C2576 C 0.19277 0.26893 1.06793
 H2577 H 0.22177 0.33029 1.07781
 H2578 H 0.23305 0.31893 1.05550
 H2579 H 0.17797 0.26914 1.08694
 H2580 H 0.18899 0.25791 1.06445
 H2581 H 0.17666 0.28965 1.10522
 H2582 H 0.20437 0.32903 1.09915
 H2583 H 0.23573 0.29738 1.03808
 H2584 H 0.20747 0.25859 1.04370
 C2585 C 0.20195 0.79760 0.57754
 C2586 C 0.19029 0.79008 0.58501
 C2587 C 0.18409 0.79645 0.59800
 C2588 C 0.18942 0.81031 0.60352
 C2589 C 0.20113 0.81768 0.59579
 C2590 C 0.20746 0.81136 0.58285
 C2591 C 0.20869 0.79081 0.56404
 C2592 C 0.22063 0.79816 0.55679
 C2593 C 0.22740 0.79136 0.54432
 C2594 C 0.22228 0.77737 0.53920
 C2595 C 0.21013 0.77027 0.54634
 C2596 C 0.20331 0.77693 0.55885
 C2597 C 0.21926 0.81848 0.57516
 C2598 C 0.22576 0.81198 0.56237
 C2599 C 0.18511 0.77628 0.57939
 C2600 C 0.19150 0.76982 0.56652
 H2601 H 0.22360 0.82912 0.57914
 H2602 H 0.23496 0.81775 0.55687
 H2603 H 0.17610 0.77037 0.58504
 H2604 H 0.18725 0.75912 0.56261
 H2605 H 0.17523 0.79050 0.60379
 H2606 H 0.20539 0.82832 0.59978
 H2607 H 0.23692 0.79665 0.53887
 H2608 H 0.20638 0.75938 0.54243
 C2609 C 0.29778 0.70213 0.57765
 C2610 C 0.31080 0.70852 0.58380
 C2611 C 0.31708 0.70219 0.59678
 C2612 C 0.31044 0.68954 0.60364
 C2613 C 0.29730 0.68337 0.59729
 C2614 C 0.29095 0.68959 0.58430
 C2615 C 0.29103 0.70884 0.56411
 C2616 C 0.27784 0.70259 0.55811
 C2617 C 0.27115 0.70937 0.54559
 C2618 C 0.27755 0.72229 0.53921
 C2619 C 0.29091 0.72826 0.54512
 C2620 C 0.29771 0.72158 0.55763
 C2621 C 0.27787 0.68355 0.57787
 C2622 C 0.27143 0.68994 0.56499
 C2623 C 0.31726 0.72114 0.57688
 C2624 C 0.31082 0.72756 0.56402
 H2625 H 0.27251 0.67385 0.58287
 H2626 H 0.26128 0.68500 0.56045
 H2627 H 0.32734 0.72615 0.58150
 H2628 H 0.31608 0.73736 0.55911
 H2629 H 0.32711 0.70719 0.60145
 H2630 H 0.29192 0.67376 0.60238
 H2631 H 0.26074 0.70496 0.54108
 H2632 H 0.29565 0.73835 0.54024
 C2633 C 0.29766 0.20171 1.07780
 C2634 C 0.31191 0.20655 1.08248
 C2635 C 0.31827 0.20032 1.09546
 C2636 C 0.31046 0.18936 1.10382
 C2637 C 0.29612 0.18472 1.09893
 C2638 C 0.28971 0.19080 1.08591
 C2639 C 0.29082 0.20835 1.06427
 C2640 C 0.27646 0.20363 1.05973
 C2641 C 0.26975 0.21042 1.04723
 C2642 C 0.27726 0.22191 1.03945
 C2643 C 0.29175 0.22632 1.04390
 C2644 C 0.29860 0.21956 1.05636
 C2645 C 0.27546 0.18623 1.08090
 C2646 C 0.26896 0.19251 1.06801
 C2647 C 0.31947 0.21760 1.07412
 C2648 C 0.31291 0.22402 1.06130
 H2649 H 0.26924 0.17777 1.08705
 H2650 H 0.25791 0.18874 1.06458
 H2651 H 0.33049 0.22141 1.07758
 H2652 H 0.31904 0.23263 1.05528
 H2653 H 0.32929 0.20405 1.09897
 H2654 H 0.28982 0.17647 1.10522
 H2655 H 0.25851 0.20719 1.04382
 H2656 H 0.29740 0.23530 1.03795
 C2657 C 0.79781 0.70191 1.07769
 C2658 C 0.81050 0.70867 1.08413
 C2659 C 0.81688 0.70230 1.09705
 C2660 C 0.81065 0.68926 1.10355
 C2661 C 0.79788 0.68269 1.09687
 C2662 C 0.79142 0.68897 1.08398
 C2663 C 0.79094 0.70865 1.06423
 C2664 C 0.77806 0.70203 1.05796
 C2665 C 0.77126 0.70876 1.04548
 C2666 C 0.77724 0.72201 1.03939
 C2667 C 0.79027 0.72841 1.04559
 C2668 C 0.79717 0.72177 1.05809
 C2669 C 0.77861 0.68260 1.07732
 C2670 C 0.77204 0.68902 1.06453
 C2671 C 0.81650 0.72171 1.07759
 C2672 C 0.80995 0.72815 1.06478
 H2673 H 0.77357 0.67261 1.08209
 H2674 H 0.76211 0.68383 1.05981
 H2675 H 0.82629 0.72704 1.08246
 H2676 H 0.81486 0.73828 1.06016
 H2677 H 0.82661 0.70761 1.10199
 H2678 H 0.79284 0.67274 1.10166
 H2679 H 0.76109 0.70403 1.04077
 H2680 H 0.79469 0.73876 1.04095
 C2681 C 0.79749 0.20159 0.57758
 C2682 C 0.81124 0.20719 0.58285
 C2683 C 0.81762 0.20094 0.59582
 C2684 C 0.81031 0.18920 0.60357
 C2685 C 0.79647 0.18380 0.59807
 C2686 C 0.79004 0.18992 0.58508
 C2687 C 0.79061 0.20824 0.56407
 C2688 C 0.77673 0.20276 0.55894
 C2689 C 0.76996 0.20949 0.54645
 C2690 C 0.77694 0.22165 0.53924
 C2691 C 0.79095 0.22688 0.54429
 C2692 C 0.79787 0.22019 0.55676
 C2693 C 0.77626 0.18463 0.57951
 C2694 C 0.76972 0.19093 0.56665
 C2695 C 0.81828 0.21901 0.57511
 C2696 C 0.81169 0.22542 0.56230
 H2697 H 0.77042 0.17561 0.58520
 H2698 H 0.75903 0.18661 0.56279
 H2699 H 0.82891 0.22342 0.57905
 H2700 H 0.81741 0.23461 0.55676
 H2701 H 0.82825 0.20527 0.59980
 H2702 H 0.79057 0.17492 0.60388
 H2703 H 0.75907 0.20566 0.54259
 H2704 H 0.79617 0.23640 0.53878
 C2705 C 0.70213 0.70209 0.42231
 C2706 C 0.70815 0.68877 0.41643
 C2707 C 0.70169 0.68246 0.40355
 C2708 C 0.68928 0.68936 0.39650
 C2709 C 0.68347 0.70280 0.40257
 C2710 C 0.68984 0.70919 0.41547
 C2711 C 0.70897 0.70883 0.43579
 C2712 C 0.70309 0.72229 0.44155
 C2713 C 0.70997 0.72891 0.45406
 C2714 C 0.72265 0.72217 0.46064
 C2715 C 0.72825 0.70858 0.45494
 C2716 C 0.72146 0.70185 0.44246
 C2717 C 0.68418 0.72257 0.42164
 C2718 C 0.69068 0.72900 0.43447
 C2719 C 0.72056 0.68205 0.42350
 C2720 C 0.72710 0.68849 0.43629
 H2721 H 0.67469 0.72816 0.41646
 H2722 H 0.68603 0.73937 0.43880
 H2723 H 0.72531 0.67178 0.41906
 H2724 H 0.73673 0.68301 0.44134
 H2725 H 0.70640 0.67220 0.39908
 H2726 H 0.67406 0.70839 0.39732
 H2727 H 0.70583 0.73950 0.45840
 H2728 H 0.73815 0.70356 0.45996
 C2729 C 0.70188 0.20234 -0.07764
 C2730 C 0.70736 0.18850 -0.08278
 C2731 C 0.70103 0.18205 -0.09567
 C2732 C 0.68933 0.18938 -0.10348
 C2733 C 0.68407 0.20333 -0.09812
 C2734 C 0.69026 0.20982 -0.08521
 C2735 C 0.70858 0.20924 -0.06418
 C2736 C 0.70321 0.22320 -0.05916
 C2737 C 0.70996 0.22996 -0.04668
 C2738 C 0.72203 0.22290 -0.03938
 C2739 C 0.72715 0.20882 -0.04434
 C2740 C 0.72045 0.20192 -0.05679
 C2741 C 0.68510 0.22370 -0.07976
 C2742 C 0.69145 0.23027 -0.06694
 C2743 C 0.71911 0.18141 -0.07498
 C2744 C 0.72557 0.18802 -0.06222
 H2745 H 0.67612 0.22958 -0.08550
 H2746 H 0.68721 0.24102 -0.06317
 H2747 H 0.72344 0.17072 -0.07883
 H2748 H 0.73471 0.18226 -0.05662
 H2749 H 0.70527 0.17135 -0.09955
 H2750 H 0.67523 0.20926 -0.10398
 H2751 H 0.70621 0.24091 -0.04290
 H2752 H 0.73660 0.20353 -0.03876
 C2753 C 0.20241 0.70221 -0.07774
 C2754 C 0.18946 0.70871 -0.08395
 C2755 C 0.18324 0.70247 -0.09699
 C2756 C 0.18987 0.68982 -0.10385
 C2757 C 0.20289 0.68350 -0.09740
 C2758 C 0.20919 0.68963 -0.08436
 C2759 C 0.20916 0.70888 -0.06419
 C2760 C 0.22230 0.70254 -0.05816
 C2761 C 0.22905 0.70930 -0.04568
 C2762 C 0.22276 0.72231 -0.03938
 C2763 C 0.20944 0.72838 -0.04529
 C2764 C 0.20257 0.72169 -0.05776
 C2765 C 0.22219 0.68347 -0.07786
 C2766 C 0.22864 0.68982 -0.06498
 C2767 C 0.18304 0.72137 -0.07705
 C2768 C 0.18950 0.72776 -0.06418
 H2769 H 0.22750 0.67372 -0.08283
 H2770 H 0.23875 0.68481 -0.06040
 H2771 H 0.17301 0.72645 -0.08170
 H2772 H 0.18429 0.73761 -0.05930
 H2773 H 0.17327 0.70756 -0.10172
 H2774 H 0.20824 0.67385 -0.10246
 H2775 H 0.23943 0.70482 -0.04115
 H2776 H 0.20476 0.73852 -0.04046
 C2777 C 0.20222 0.20205 0.42248
 C2778 C 0.18923 0.20850 0.41630
 C2779 C 0.18295 0.20219 0.40334
 C2780 C 0.18954 0.18950 0.39652
 C2781 C 0.20264 0.18326 0.40291
 C2782 C 0.20900 0.18947 0.41588
 C2783 C 0.20898 0.20874 0.43601
 C2784 C 0.22213 0.20243 0.44204
 C2785 C 0.22885 0.20918 0.45454
 C2786 C 0.22252 0.22216 0.46086
 C2787 C 0.20919 0.22821 0.45494
 C2788 C 0.20236 0.22154 0.44245
 C2789 C 0.22204 0.18335 0.42234
 C2790 C 0.22850 0.18972 0.43521
 C2791 C 0.18281 0.22117 0.42318
 C2792 C 0.18928 0.22759 0.43603
 H2793 H 0.22736 0.17361 0.41736
 H2794 H 0.23862 0.18474 0.43978
 H2795 H 0.17276 0.22624 0.41854
 H2796 H 0.18405 0.23743 0.44092
 H2797 H 0.17295 0.20724 0.39863
 H2798 H 0.20799 0.17360 0.39785
 H2799 H 0.23923 0.20471 0.45907
 H2800 H 0.20450 0.23834 0.45979
 C2801 C 0.29801 0.42227 0.70247
 C2802 C 0.29163 0.41622 0.68943
 C2803 C 0.29788 0.40322 0.68313
 C2804 C 0.31046 0.39621 0.68976
 C2805 C 0.31668 0.40249 0.70290
 C2806 C 0.31052 0.41551 0.70928
 C2807 C 0.29131 0.43581 0.70926
 C2808 C 0.29754 0.44171 0.72249
 C2809 C 0.29076 0.45421 0.72923
 C2810 C 0.27787 0.46068 0.72285
 C2811 C 0.27189 0.45486 0.70948
 C2812 C 0.27859 0.44238 0.70262
 C2813 C 0.31656 0.42188 0.72239
 C2814 C 0.31018 0.43476 0.72887
 C2815 C 0.27904 0.42324 0.68297
 C2816 C 0.27263 0.43609 0.68945
 H2817 H 0.32623 0.41680 0.72775
 H2818 H 0.31509 0.43923 0.73905
 H2819 H 0.27404 0.41869 0.67287
 H2820 H 0.26284 0.44106 0.68420
 H2821 H 0.29288 0.39865 0.67307
 H2822 H 0.32628 0.39730 0.70826
 H2823 H 0.29517 0.45865 0.73966
 H2824 H 0.26182 0.45981 0.70473
 C2825 C 0.29820 0.92246 0.20209
 C2826 C 0.31074 0.91569 0.20884
 C2827 C 0.31689 0.90272 0.20242
 C2828 C 0.31064 0.89646 0.18931
 C2829 C 0.29807 0.90349 0.18267
 C2830 C 0.29181 0.91647 0.18902
 C2831 C 0.29148 0.93591 0.20901
 C2832 C 0.27873 0.94249 0.20244
 C2833 C 0.27202 0.95491 0.20941
 C2834 C 0.27802 0.96065 0.22281
 C2835 C 0.29094 0.95416 0.22912
 C2836 C 0.29773 0.94172 0.22226
 C2837 C 0.27920 0.92351 0.18263
 C2838 C 0.27276 0.93629 0.18924
 C2839 C 0.31681 0.92196 0.22196
 C2840 C 0.31041 0.93476 0.22856
 H2841 H 0.27419 0.91903 0.17250
 H2842 H 0.26295 0.94129 0.18404
 H2843 H 0.32652 0.91687 0.22724
 H2844 H 0.31536 0.93916 0.23875
 H2845 H 0.32648 0.89752 0.20776
 H2846 H 0.29306 0.89892 0.17261
 H2847 H 0.26191 0.95985 0.20474
 H2848 H 0.29536 0.95851 0.23957
 C2849 C 0.79817 0.42245 0.20220
 C2850 C 0.81116 0.41616 0.20854
 C2851 C 0.81738 0.40319 0.20212
 C2852 C 0.81069 0.39645 0.18946
 C2853 C 0.79766 0.40302 0.18324
 C2854 C 0.79137 0.41600 0.18957
 C2855 C 0.79141 0.43590 0.20911
 C2856 C 0.77821 0.44201 0.20295
 C2857 C 0.77149 0.45442 0.20994
 C2858 C 0.77789 0.46060 0.22295
 C2859 C 0.79123 0.45457 0.22884
 C2860 C 0.79805 0.44216 0.22196
 C2861 C 0.77832 0.42258 0.18358
 C2862 C 0.77184 0.43535 0.19016
 C2863 C 0.81762 0.42289 0.22125
 C2864 C 0.81116 0.43566 0.22786
 H2865 H 0.77299 0.41773 0.17379
 H2866 H 0.76170 0.43998 0.18528
 H2867 H 0.82767 0.41816 0.22621
 H2868 H 0.81640 0.44040 0.23774
 H2869 H 0.82735 0.39838 0.20711
 H2870 H 0.79229 0.39807 0.17356
 H2871 H 0.76108 0.45900 0.20559
 H2872 H 0.79597 0.45927 0.23900
 C2873 C 0.79796 0.92249 0.70222
 C2874 C 0.81137 0.91667 0.70812
 C2875 C 0.81766 0.90372 0.70171
 C2876 C 0.81064 0.89656 0.68946
 C2877 C 0.79713 0.90260 0.68375
 C2878 C 0.79078 0.91556 0.69005
 C2879 C 0.79119 0.93598 0.70905
 C2880 C 0.77763 0.94165 0.70329
 C2881 C 0.77093 0.95410 0.71022
 C2882 C 0.77769 0.96075 0.72281
 C2883 C 0.79141 0.95517 0.72829
 C2884 C 0.79823 0.94273 0.72144
 C2885 C 0.77735 0.92170 0.68445
 C2886 C 0.77090 0.93454 0.69094
 C2887 C 0.81821 0.92389 0.72036
 C2888 C 0.81174 0.93669 0.72691
 H2889 H 0.77174 0.91650 0.67501
 H2890 H 0.76049 0.93885 0.68634
 H2891 H 0.82861 0.91955 0.72497
 H2892 H 0.81731 0.94183 0.73641
 H2893 H 0.82800 0.89930 0.70632
 H2894 H 0.79144 0.89726 0.67447
 H2895 H 0.76026 0.95836 0.70617
 H2896 H 0.79646 0.96024 0.73812
 C2897 C 0.70189 0.57760 0.70250
 C2898 C 0.70741 0.58291 0.68875
 C2899 C 0.70121 0.59597 0.68251
 C2900 C 0.68961 0.60381 0.68996
 C2901 C 0.68421 0.59824 0.70376
 C2902 C 0.69028 0.58514 0.71006
 C2903 C 0.70859 0.56406 0.70927
 C2904 C 0.70325 0.55890 0.72318
 C2905 C 0.71011 0.54640 0.72986
 C2906 C 0.72224 0.53923 0.72274
 C2907 C 0.72730 0.54431 0.70870
 C2908 C 0.72050 0.55677 0.70189
 C2909 C 0.68507 0.57950 0.72383
 C2910 C 0.69144 0.56660 0.73028
 C2911 C 0.71912 0.57513 0.68156
 C2912 C 0.72559 0.56231 0.68805
 H2913 H 0.67607 0.58517 0.72974
 H2914 H 0.68720 0.56271 0.74099
 H2915 H 0.72343 0.57908 0.67090
 H2916 H 0.73474 0.55677 0.68224
 H2917 H 0.70549 0.59996 0.67188
 H2918 H 0.67539 0.60409 0.70973
 H2919 H 0.70641 0.54254 0.74078
 H2920 H 0.73680 0.53885 0.70340
 C2921 C 0.70228 0.07754 0.20219
 C2922 C 0.70963 0.08472 0.19026
 C2923 C 0.70327 0.09769 0.18402
 C2924 C 0.68957 0.10347 0.18954
 C2925 C 0.68239 0.09607 0.20156
 C2926 C 0.68870 0.08312 0.20792
 C2927 C 0.70906 0.06403 0.20895
 C2928 C 0.70187 0.05703 0.22112
 C2929 C 0.70869 0.04457 0.22791
 C2930 C 0.72256 0.03922 0.22259
 C2931 C 0.72948 0.04611 0.21021
 C2932 C 0.72278 0.05859 0.20334
 C2933 C 0.68171 0.07566 0.21994
 C2934 C 0.68819 0.06285 0.22644
 C2935 C 0.72323 0.07881 0.18482
 C2936 C 0.72969 0.06595 0.19124
 H2937 H 0.67118 0.07982 0.22442
 H2938 H 0.68251 0.05751 0.23577
 H2939 H 0.72897 0.08421 0.17555
 H2940 H 0.74023 0.06181 0.18677
 H2941 H 0.70909 0.10324 0.17494
 H2942 H 0.67189 0.10030 0.20600
 H2943 H 0.70353 0.03931 0.23759
 H2944 H 0.74027 0.04202 0.20629
 C2945 C 0.20161 0.57761 0.20220
 C2946 C 0.18992 0.58509 0.20968
 C2947 C 0.18385 0.59817 0.20336
 C2948 C 0.18934 0.60380 0.18962
 C2949 C 0.20099 0.59600 0.18223
 C2950 C 0.20719 0.58295 0.18848
 C2951 C 0.20835 0.56412 0.20902
 C2952 C 0.22035 0.55689 0.20174
 C2953 C 0.22721 0.54451 0.20864
 C2954 C 0.22209 0.53943 0.22265
 C2955 C 0.20986 0.54654 0.22967
 C2956 C 0.20296 0.55896 0.22291
 C2957 C 0.21897 0.57521 0.18136
 C2958 C 0.22547 0.56243 0.18790
 C2959 C 0.18462 0.57941 0.22340
 C2960 C 0.19103 0.56656 0.22991
 H2961 H 0.22331 0.57916 0.17071
 H2962 H 0.23467 0.55692 0.18215
 H2963 H 0.17553 0.58502 0.22923
 H2964 H 0.18672 0.56265 0.24058
 H2965 H 0.17497 0.60398 0.20929
 H2966 H 0.20534 0.60002 0.17163
 H2967 H 0.23678 0.53910 0.20340
 H2968 H 0.20612 0.54267 0.24058
 C2969 C 0.20161 0.07734 0.70250
 C2970 C 0.18997 0.08487 0.71001
 C2971 C 0.18389 0.09795 0.70368
 C2972 C 0.18930 0.10352 0.68988
 C2973 C 0.20089 0.09565 0.68244
 C2974 C 0.20711 0.08260 0.68872
 C2975 C 0.20838 0.06386 0.70935
 C2976 C 0.22033 0.05658 0.70202
 C2977 C 0.22721 0.04421 0.70894
 C2978 C 0.22217 0.03919 0.72301
 C2979 C 0.21000 0.04636 0.73007
 C2980 C 0.20307 0.05877 0.72329
 C2981 C 0.21882 0.07480 0.68155
 C2982 C 0.22535 0.06204 0.68812
 C2983 C 0.18475 0.07925 0.72379
 C2984 C 0.19119 0.06642 0.73032
 H2985 H 0.22309 0.07869 0.67086
 H2986 H 0.23450 0.05648 0.68233
 H2987 H 0.17570 0.08489 0.72965
 H2988 H 0.18693 0.06255 0.74103
 H2989 H 0.17506 0.10380 0.70963
 H2990 H 0.20517 0.09962 0.67180
 H2991 H 0.23673 0.03875 0.70366
 H2992 H 0.20631 0.04254 0.74101
 C2993 C 0.29795 0.57769 0.29752
 C2994 C 0.29169 0.58365 0.31068
 C2995 C 0.29802 0.59660 0.31699
 C2996 C 0.31051 0.60364 0.31023
 C2997 C 0.31659 0.59746 0.29699
 C2998 C 0.31037 0.58450 0.29061
 C2999 C 0.29124 0.56419 0.29073
 C3000 C 0.29736 0.55838 0.27741
 C3001 C 0.29060 0.54588 0.27070
 C3002 C 0.27781 0.53933 0.27722
 C3003 C 0.27193 0.54507 0.29066
 C3004 C 0.27861 0.55756 0.29749
 C3005 C 0.31628 0.57826 0.27739
 C3006 C 0.30989 0.56542 0.27090
 C3007 C 0.27918 0.57659 0.31722
 C3008 C 0.27273 0.56377 0.31072
 H3009 H 0.32588 0.58340 0.27196
 H3010 H 0.31471 0.56104 0.26063
 H3011 H 0.27426 0.58107 0.32740
 H3012 H 0.26300 0.55876 0.31604
 H3013 H 0.29312 0.60111 0.32714
 H3014 H 0.32610 0.60269 0.29154
 H3015 H 0.29491 0.54151 0.26020
 H3016 H 0.26192 0.54008 0.29548
 C3017 C 0.29789 0.07747 0.79767
 C3018 C 0.31077 0.08381 0.79118
 C3019 C 0.31697 0.09681 0.79751
 C3020 C 0.31040 0.10350 0.81027
 C3021 C 0.29738 0.09696 0.81654
 C3022 C 0.29111 0.08396 0.81031
 C3023 C 0.29124 0.06389 0.79097
 C3024 C 0.27817 0.05771 0.79730
 C3025 C 0.27157 0.04515 0.79054
 C3026 C 0.27795 0.03890 0.77755
 C3027 C 0.29116 0.04500 0.77146
 C3028 C 0.29786 0.05757 0.77813
 C3029 C 0.27814 0.07735 0.81643
 C3030 C 0.27177 0.06445 0.81003
 C3031 C 0.31718 0.07706 0.77845
 C3032 C 0.31082 0.06417 0.77202
 H3033 H 0.27281 0.08225 0.82621
 H3034 H 0.26169 0.05979 0.81501
 H3035 H 0.32714 0.08185 0.77335
 H3036 H 0.31602 0.05940 0.76211
 H3037 H 0.32691 0.10163 0.79245
 H3038 H 0.29206 0.10191 0.82626
 H3039 H 0.26124 0.04050 0.79502
 H3040 H 0.29586 0.04025 0.76130
 C3041 C 0.79838 0.57753 0.79764
 C3042 C 0.81003 0.58503 0.79013
 C3043 C 0.81609 0.59812 0.79643
 C3044 C 0.81064 0.60373 0.81020
 C3045 C 0.79900 0.59592 0.81761
 C3046 C 0.79281 0.58286 0.81136
 C3047 C 0.79167 0.56401 0.79085
 C3048 C 0.77972 0.55676 0.79818
 C3049 C 0.77291 0.54433 0.79134
 C3050 C 0.77800 0.53923 0.77732
 C3051 C 0.79018 0.54637 0.77025
 C3052 C 0.79705 0.55884 0.77696
 C3053 C 0.78106 0.57511 0.81851
 C3054 C 0.77459 0.56231 0.81201
 C3055 C 0.81529 0.57936 0.77638
 C3056 C 0.80891 0.56649 0.76991
 H3057 H 0.77672 0.57907 0.82916
 H3058 H 0.76542 0.55679 0.81779
 H3059 H 0.82434 0.58500 0.77052
 H3060 H 0.81320 0.56259 0.75923
 H3061 H 0.82495 0.60394 0.79049
 H3062 H 0.79468 0.59992 0.82821
 H3063 H 0.76337 0.53890 0.79662
 H3064 H 0.79392 0.54250 0.75934
 C3065 C 0.79847 0.07745 0.29752
 C3066 C 0.79299 0.08268 0.31131
 C3067 C 0.79917 0.09573 0.31755
 C3068 C 0.81069 0.10363 0.31007
 C3069 C 0.81605 0.09813 0.29623
 C3070 C 0.81001 0.08504 0.28993
 C3071 C 0.79179 0.06392 0.29074
 C3072 C 0.79710 0.05885 0.27679
 C3073 C 0.79027 0.04637 0.27009
 C3074 C 0.77820 0.03914 0.27723
 C3075 C 0.77316 0.04414 0.29130
 C3076 C 0.77994 0.05657 0.29814
 C3077 C 0.81518 0.07948 0.27611
 C3078 C 0.80884 0.06659 0.26966
 C3079 C 0.78135 0.07485 0.31853
 C3080 C 0.77489 0.06204 0.31203
 H3081 H 0.82414 0.08520 0.27019
 H3082 H 0.81305 0.06276 0.25891
 H3083 H 0.77707 0.07874 0.32923
 H3084 H 0.76579 0.05645 0.31786
 H3085 H 0.79493 0.09966 0.32822
 H3086 H 0.82481 0.10403 0.29023
 H3087 H 0.79394 0.04257 0.25914
 H3088 H 0.76369 0.03862 0.29662
 C3089 C 0.70208 0.42228 0.29770
 C3090 C 0.68907 0.41606 0.29136
 C3091 C 0.68290 0.40303 0.29766
 C3092 C 0.68964 0.39617 0.31024
 C3093 C 0.70273 0.40262 0.31641
 C3094 C 0.70898 0.41566 0.31021
 C3095 C 0.70875 0.43585 0.29097
 C3096 C 0.72195 0.44190 0.29715
 C3097 C 0.72859 0.45441 0.29030
 C3098 C 0.72209 0.46074 0.27740
 C3099 C 0.70873 0.45480 0.27152
 C3100 C 0.70200 0.44228 0.27826
 C3101 C 0.72205 0.42217 0.31622
 C3102 C 0.72843 0.43506 0.30979
 C3103 C 0.68252 0.42296 0.27877
 C3104 C 0.68889 0.43584 0.27232
 H3105 H 0.72744 0.41719 0.32591
 H3106 H 0.73859 0.43964 0.31467
 H3107 H 0.67245 0.41829 0.27380
 H3108 H 0.68358 0.44072 0.26253
 H3109 H 0.67288 0.39830 0.29269
 H3110 H 0.70817 0.39755 0.32601
 H3111 H 0.73902 0.45895 0.29464
 H3112 H 0.70393 0.45962 0.26143
 C3113 C 0.70222 0.92238 0.79778
 C3114 C 0.68919 0.91619 0.79144
 C3115 C 0.68300 0.90315 0.79774
 C3116 C 0.68975 0.89626 0.81030
 C3117 C 0.70288 0.90267 0.81644
 C3118 C 0.70914 0.91571 0.81025
 C3119 C 0.70887 0.93597 0.79110
 C3120 C 0.72208 0.94200 0.79728
 C3121 C 0.72869 0.95456 0.79049
 C3122 C 0.72219 0.96093 0.77762
 C3123 C 0.70882 0.95500 0.77172
 C3124 C 0.70210 0.94246 0.77842
 C3125 C 0.72223 0.92218 0.81625
 C3126 C 0.72859 0.93510 0.80987
 C3127 C 0.68263 0.92312 0.77888
 C3128 C 0.68899 0.93603 0.77247
 H3129 H 0.72765 0.91715 0.82590
 H3130 H 0.73877 0.93965 0.81475
 H3131 H 0.67255 0.91847 0.77391
 H3132 H 0.68368 0.94094 0.76270
 H3133 H 0.67296 0.89845 0.79279
 H3134 H 0.70834 0.89757 0.82600
 H3135 H 0.73912 0.95908 0.79484
 H3136 H 0.70402 0.95987 0.76166
 C3137 C 0.20198 0.42228 0.79806
 C3138 C 0.18827 0.41684 0.79250
 C3139 C 0.18185 0.40401 0.79901
 C3140 C 0.18909 0.39653 0.81095
 C3141 C 0.20288 0.40219 0.81632
 C3142 C 0.20936 0.41504 0.80994
 C3143 C 0.20883 0.43570 0.79119
 C3144 C 0.22265 0.44101 0.79664
 C3145 C 0.22933 0.45350 0.78977
 C3146 C 0.22229 0.46052 0.77752
 C3147 C 0.20837 0.45523 0.77230
 C3148 C 0.20157 0.44277 0.77910
 C3149 C 0.22313 0.42075 0.81514
 C3150 C 0.22966 0.43352 0.80861
 C3151 C 0.18129 0.42430 0.78047
 C3152 C 0.18784 0.43703 0.77387
 H3153 H 0.22894 0.41525 0.82430
 H3154 H 0.24033 0.43749 0.81290
 H3155 H 0.17072 0.42020 0.77606
 H3156 H 0.18217 0.44235 0.76453
 H3157 H 0.17125 0.39992 0.79470
 H3158 H 0.20873 0.39661 0.82537
 H3159 H 0.24017 0.45751 0.79359
 H3160 H 0.20313 0.46057 0.76271
 C3161 C 0.20218 0.92232 0.29792
 C3162 C 0.18854 0.91682 0.29226
 C3163 C 0.18215 0.90396 0.29871
 C3164 C 0.18934 0.89652 0.31069
 C3165 C 0.20308 0.90223 0.31616
 C3166 C 0.20952 0.91512 0.30984
 C3167 C 0.20900 0.93577 0.29110
 C3168 C 0.22276 0.94114 0.29664
 C3169 C 0.22943 0.95365 0.28979
 C3170 C 0.22243 0.96061 0.27749
 C3171 C 0.20857 0.95526 0.27219
 C3172 C 0.20179 0.94279 0.27896
 C3173 C 0.22323 0.92089 0.31514
 C3174 C 0.22973 0.93369 0.30866
 C3175 C 0.18159 0.92424 0.28020
 C3176 C 0.18812 0.93699 0.27364
 H3177 H 0.22901 0.91541 0.32433
 H3178 H 0.24036 0.93772 0.31301
 H3179 H 0.17106 0.92010 0.27572
 H3180 H 0.18248 0.94230 0.26427
 H3181 H 0.17161 0.89982 0.29433
 H3182 H 0.20888 0.89666 0.32525
 H3183 H 0.24023 0.95771 0.29367
 H3184 H 0.20338 0.96055 0.26254
 C3185 C 0.42217 0.29803 0.70250
 C3186 C 0.41553 0.31066 0.70919
 C3187 C 0.40251 0.31684 0.70279
 C3188 C 0.39611 0.31050 0.68976
 C3189 C 0.40300 0.29780 0.68326
 C3190 C 0.41599 0.29153 0.68957
 C3191 C 0.43571 0.29132 0.70932
 C3192 C 0.44215 0.27848 0.70280
 C3193 C 0.45465 0.27179 0.70969
 C3194 C 0.46059 0.27789 0.72296
 C3195 C 0.45423 0.29090 0.72920
 C3196 C 0.44172 0.29767 0.72243
 C3197 C 0.42290 0.27883 0.68324
 C3198 C 0.43575 0.27241 0.68974
 C3199 C 0.42201 0.31680 0.72219
 C3200 C 0.43489 0.31042 0.72869
 H3201 H 0.41825 0.27374 0.67323
 H3202 H 0.44063 0.26253 0.68459
 H3203 H 0.41702 0.32657 0.72745
 H3204 H 0.43944 0.31542 0.73879
 H3205 H 0.39743 0.32654 0.70805
 H3206 H 0.39831 0.29271 0.67330
 H3207 H 0.45950 0.26164 0.70504
 H3208 H 0.45877 0.29542 0.73953
 C3209 C 0.42228 0.79828 0.20220
 C3210 C 0.41576 0.81106 0.20870
 C3211 C 0.40279 0.81723 0.20227
 C3212 C 0.39627 0.81073 0.18941
 C3213 C 0.40302 0.79788 0.18304
 C3214 C 0.41601 0.79162 0.18939
 C3215 C 0.43577 0.79159 0.20909
 C3216 C 0.44211 0.77860 0.20276
 C3217 C 0.45458 0.77196 0.20972
 C3218 C 0.46058 0.77822 0.22288
 C3219 C 0.45433 0.79137 0.22893
 C3220 C 0.44186 0.79811 0.22209
 C3221 C 0.42279 0.77876 0.18325
 C3222 C 0.43562 0.77235 0.18983
 C3223 C 0.42229 0.81737 0.22158
 C3224 C 0.43512 0.81100 0.22817
 H3225 H 0.41808 0.77353 0.17334
 H3226 H 0.44042 0.76236 0.18483
 H3227 H 0.41737 0.82726 0.22668
 H3228 H 0.43971 0.81614 0.23817
 H3229 H 0.39782 0.82705 0.20739
 H3230 H 0.39822 0.79266 0.17320
 H3231 H 0.45935 0.76170 0.20524
 H3232 H 0.45890 0.79601 0.23920
 C3233 C 0.92238 0.29852 0.20248
 C3234 C 0.91486 0.31020 0.20993
 C3235 C 0.90177 0.31624 0.20358
 C3236 C 0.89619 0.31074 0.18983
 C3237 C 0.90401 0.29908 0.18249
 C3238 C 0.91706 0.29291 0.18878
 C3239 C 0.93590 0.29185 0.20932
 C3240 C 0.94318 0.27986 0.20208
 C3241 C 0.95560 0.27309 0.20899
 C3242 C 0.96068 0.27828 0.22297
 C3243 C 0.95353 0.29049 0.22994
 C3244 C 0.94105 0.29730 0.22318
 C3245 C 0.92483 0.28112 0.18171
 C3246 C 0.93764 0.27468 0.18827
 C3247 C 0.92050 0.31551 0.22365
 C3248 C 0.93338 0.30917 0.23016
 H3249 H 0.92087 0.27674 0.17109
 H3250 H 0.94316 0.26547 0.18256
 H3251 H 0.91483 0.32457 0.22947
 H3252 H 0.93727 0.31349 0.24084
 H3253 H 0.89594 0.32511 0.20947
 H3254 H 0.90001 0.29472 0.17189
 H3255 H 0.96106 0.26353 0.20378
 H3256 H 0.95740 0.29428 0.24083
 C3257 C 0.92227 0.79817 0.70223
 C3258 C 0.91651 0.81163 0.70804
 C3259 C 0.90355 0.81789 0.70163
 C3260 C 0.89630 0.81078 0.68949
 C3261 C 0.90224 0.79720 0.68390
 C3262 C 0.91523 0.79087 0.69020
 C3263 C 0.93581 0.79146 0.70903
 C3264 C 0.94143 0.77785 0.70337
 C3265 C 0.95393 0.77123 0.71027
 C3266 C 0.96067 0.77811 0.72276
 C3267 C 0.95516 0.79188 0.72811
 C3268 C 0.94267 0.79862 0.72129
 C3269 C 0.92129 0.77737 0.68471
 C3270 C 0.93418 0.77098 0.69117
 C3271 C 0.92382 0.81857 0.72017
 C3272 C 0.93667 0.81216 0.72669
 H3273 H 0.91599 0.77166 0.67538
 H3274 H 0.93844 0.76051 0.68667
 H3275 H 0.91951 0.82899 0.72472
 H3276 H 0.94188 0.81780 0.73611
 H3277 H 0.89921 0.82829 0.70614
 H3278 H 0.89681 0.79143 0.67471
 H3279 H 0.95816 0.76052 0.70631
 H3280 H 0.96031 0.79702 0.73785
 C3281 C 0.57791 0.29774 0.29783
 C3282 C 0.58537 0.29022 0.30948
 C3283 C 0.59829 0.29666 0.31575
 C3284 C 0.60377 0.31058 0.31053
 C3285 C 0.59608 0.31793 0.29879
 C3286 C 0.58318 0.31155 0.29239
 C3287 C 0.56443 0.29091 0.29105
 C3288 C 0.55715 0.29828 0.27916
 C3289 C 0.54467 0.29148 0.27238
 C3290 C 0.53957 0.27744 0.27744
 C3291 C 0.54676 0.27031 0.28954
 C3292 C 0.55927 0.27699 0.29637
 C3293 C 0.57548 0.31867 0.28060
 C3294 C 0.56271 0.31214 0.27408
 C3295 C 0.57979 0.27638 0.31460
 C3296 C 0.56695 0.26988 0.30817
 H3297 H 0.57943 0.32935 0.27632
 H3298 H 0.55719 0.31793 0.26492
 H3299 H 0.58543 0.27049 0.32362
 H3300 H 0.56308 0.25915 0.31238
 H3301 H 0.60406 0.29072 0.32463
 H3302 H 0.60005 0.32860 0.29459
 H3303 H 0.53920 0.29680 0.26291
 H3304 H 0.54288 0.25939 0.29325
 C3305 C 0.57785 0.79800 0.79807
 C3306 C 0.58528 0.79049 0.80975
 C3307 C 0.59822 0.79691 0.81602
 C3308 C 0.60375 0.81079 0.81077
 C3309 C 0.59608 0.81815 0.79902
 C3310 C 0.58317 0.81179 0.79262
 C3311 C 0.56435 0.79120 0.79130
 C3312 C 0.55710 0.79858 0.77939
 C3313 C 0.54462 0.79179 0.77260
 C3314 C 0.53948 0.77777 0.77767
 C3315 C 0.54664 0.77063 0.78978
 C3316 C 0.55916 0.77730 0.79663
 C3317 C 0.57549 0.81892 0.78082
 C3318 C 0.56270 0.81241 0.77430
 C3319 C 0.57966 0.77667 0.81489
 C3320 C 0.56681 0.77019 0.80845
 H3321 H 0.57947 0.82958 0.77652
 H3322 H 0.55721 0.81820 0.76512
 H3323 H 0.58528 0.77078 0.82392
 H3324 H 0.56291 0.75948 0.81268
 H3325 H 0.60397 0.79096 0.82491
 H3326 H 0.60009 0.82880 0.79480
 H3327 H 0.53917 0.79711 0.76312
 H3328 H 0.54274 0.75972 0.79349
 C3329 C 0.07751 0.29786 0.79811
 C3330 C 0.08480 0.29045 0.80994
 C3331 C 0.09766 0.29692 0.81631
 C3332 C 0.10328 0.31075 0.81098
 C3333 C 0.09574 0.31801 0.79908
 C3334 C 0.08290 0.31159 0.79259
 C3335 C 0.06409 0.29100 0.79125
 C3336 C 0.05696 0.29828 0.77921
 C3337 C 0.04450 0.29149 0.77241
 C3338 C 0.03926 0.27754 0.77758
 C3339 C 0.04633 0.27048 0.78980
 C3340 C 0.05882 0.27716 0.79666
 C3341 C 0.07539 0.31859 0.78061
 C3342 C 0.06266 0.31204 0.77402
 C3343 C 0.07915 0.27665 0.81511
 C3344 C 0.06637 0.27013 0.80859
 H3345 H 0.07945 0.32918 0.77622
 H3346 H 0.05729 0.31773 0.76471
 H3347 H 0.08470 0.27082 0.82422
 H3348 H 0.06244 0.25943 0.81285
 H3349 H 0.10330 0.29106 0.82532
 H3350 H 0.09979 0.32863 0.79482
 H3351 H 0.03912 0.29675 0.76285
 H3352 H 0.04235 0.25962 0.79359
 C3353 C 0.07762 0.79833 0.29754
 C3354 C 0.08356 0.79206 0.31070
 C3355 C 0.09654 0.79834 0.31703
 C3356 C 0.10364 0.81081 0.31028
 C3357 C 0.09744 0.81692 0.29706
 C3358 C 0.08446 0.81074 0.29066
 C3359 C 0.06413 0.79162 0.29068
 C3360 C 0.05836 0.79776 0.27736
 C3361 C 0.04587 0.79101 0.27057
 C3362 C 0.03930 0.77821 0.27700
 C3363 C 0.04501 0.77229 0.29046
 C3364 C 0.05748 0.77898 0.29738
 C3365 C 0.07824 0.81668 0.27745
 C3366 C 0.06540 0.81029 0.27090
 C3367 C 0.07647 0.77955 0.31720
 C3368 C 0.06366 0.77310 0.31064
 H3369 H 0.08339 0.82628 0.27205
 H3370 H 0.06104 0.81513 0.26064
 H3371 H 0.08093 0.77462 0.32738
 H3372 H 0.05863 0.76337 0.31593
 H3373 H 0.10106 0.79344 0.32717
 H3374 H 0.10269 0.82643 0.29164
 H3375 H 0.04154 0.79535 0.26007
 H3376 H 0.04000 0.76228 0.29524
 C3377 C 0.57781 0.70205 0.70241
 C3378 C 0.58422 0.70871 0.68966
 C3379 C 0.59721 0.70238 0.68337
 C3380 C 0.60385 0.68946 0.68972
 C3381 C 0.59718 0.68295 0.70253
 C3382 C 0.58419 0.68920 0.70891
 C3383 C 0.56431 0.70883 0.70923
 C3384 C 0.55809 0.70233 0.72218
 C3385 C 0.54560 0.70915 0.72896
 C3386 C 0.53947 0.72235 0.72287
 C3387 C 0.54563 0.72860 0.70977
 C3388 C 0.55811 0.72188 0.70289
 C3389 C 0.57752 0.68291 0.72174
 C3390 C 0.56470 0.68937 0.72828
 C3391 C 0.57758 0.72164 0.68352
 C3392 C 0.56475 0.72812 0.69003
 H3393 H 0.58231 0.67296 0.72685
 H3394 H 0.56000 0.68426 0.73825
 H3395 H 0.58240 0.72687 0.67365
 H3396 H 0.56008 0.73818 0.68503
 H3397 H 0.60210 0.70762 0.67357
 H3398 H 0.60206 0.67307 0.70764
 H3399 H 0.54092 0.70452 0.73920
 H3400 H 0.54097 0.73890 0.70527
 C3401 C 0.57787 0.20184 0.20229
 C3402 C 0.58487 0.20900 0.19014
 C3403 C 0.59785 0.20263 0.18389
 C3404 C 0.60383 0.18913 0.18963
 C3405 C 0.59663 0.18215 0.20189
 C3406 C 0.58366 0.18846 0.20825
 C3407 C 0.56433 0.20861 0.20902
 C3408 C 0.55750 0.20160 0.22139
 C3409 C 0.54500 0.20841 0.22814
 C3410 C 0.53945 0.22209 0.22259
 C3411 C 0.54615 0.22881 0.20999
 C3412 C 0.55867 0.22212 0.20317
 C3413 C 0.57639 0.18167 0.22050
 C3414 C 0.56354 0.18814 0.22697
 C3415 C 0.57877 0.22241 0.18448
 C3416 C 0.56588 0.22885 0.19087
 H3417 H 0.58073 0.17132 0.22518
 H3418 H 0.55835 0.18262 0.23647
 H3419 H 0.58406 0.22802 0.17507
 H3420 H 0.56159 0.23925 0.18623
 H3421 H 0.60323 0.20830 0.17461
 H3422 H 0.60102 0.17182 0.20653
 H3423 H 0.53987 0.20340 0.23797
 H3424 H 0.54189 0.23945 0.20588
 C3425 C 0.07768 0.70208 0.20216
 C3426 C 0.08449 0.70916 0.18986
 C3427 C 0.09749 0.70285 0.18357
 C3428 C 0.10371 0.68952 0.18946
 C3429 C 0.09662 0.68257 0.20181
 C3430 C 0.08364 0.68881 0.20820
 C3431 C 0.06418 0.70884 0.20901
 C3432 C 0.05756 0.70191 0.22154
 C3433 C 0.04510 0.70870 0.22838
 C3434 C 0.03938 0.72229 0.22279
 C3435 C 0.04592 0.72897 0.21007
 C3436 C 0.05839 0.72228 0.20314
 C3437 C 0.07657 0.68210 0.22061
 C3438 C 0.06377 0.68856 0.22718
 C3439 C 0.07824 0.72249 0.18416
 C3440 C 0.06541 0.72894 0.19069
 H3441 H 0.08105 0.67184 0.22536
 H3442 H 0.05876 0.68312 0.23683
 H3443 H 0.08338 0.72804 0.17464
 H3444 H 0.06104 0.73930 0.18604
 H3445 H 0.10274 0.70845 0.17416
 H3446 H 0.10115 0.67234 0.20653
 H3447 H 0.04012 0.70373 0.23831
 H3448 H 0.04156 0.73955 0.20594
 C3449 C 0.07754 0.20179 0.70239
 C3450 C 0.08406 0.20859 0.68978
 C3451 C 0.09705 0.20228 0.68348
 C3452 C 0.10358 0.18924 0.68969
 C3453 C 0.09679 0.18257 0.70236
 C3454 C 0.08380 0.18880 0.70875
 C3455 C 0.06404 0.20855 0.70923
 C3456 C 0.05771 0.20190 0.72206
 C3457 C 0.04524 0.20870 0.72888
 C3458 C 0.03924 0.22203 0.72296
 C3459 C 0.04549 0.22843 0.70996
 C3460 C 0.05796 0.22173 0.70305
 C3461 C 0.07701 0.18237 0.72145
 C3462 C 0.06420 0.18882 0.72801
 C3463 C 0.07752 0.22165 0.68378
 C3464 C 0.06470 0.22811 0.69031
 H3465 H 0.08172 0.17233 0.72645
 H3466 H 0.05941 0.18360 0.73789
 H3467 H 0.08244 0.22698 0.67402
 H3468 H 0.06011 0.23826 0.68542
 H3469 H 0.10205 0.20764 0.67380
 H3470 H 0.10156 0.17259 0.70735
 H3471 H 0.04048 0.20397 0.73902
 H3472 H 0.04091 0.23882 0.70559
 C3473 C 0.42212 0.70200 0.29743
 C3474 C 0.41573 0.68917 0.29092
 C3475 C 0.40276 0.68292 0.29731
 C3476 C 0.39613 0.68940 0.31014
 C3477 C 0.40276 0.70231 0.31650
 C3478 C 0.41573 0.70864 0.31020
 C3479 C 0.43563 0.70874 0.29061
 C3480 C 0.44185 0.72177 0.29695
 C3481 C 0.45434 0.72845 0.29005
 C3482 C 0.46048 0.72216 0.27695
 C3483 C 0.45434 0.70898 0.27089
 C3484 C 0.44184 0.70222 0.27767
 C3485 C 0.42240 0.72155 0.31635
 C3486 C 0.43523 0.72801 0.30983
 C3487 C 0.42239 0.68287 0.27809
 C3488 C 0.43522 0.68929 0.27157
 H3489 H 0.41760 0.72677 0.32622
 H3490 H 0.43993 0.73804 0.31484
 H3491 H 0.41757 0.67295 0.27298
 H3492 H 0.43992 0.68417 0.26160
 H3493 H 0.39789 0.67306 0.29219
 H3494 H 0.39788 0.70753 0.32630
 H3495 H 0.45903 0.73874 0.29454
 H3496 H 0.45901 0.70433 0.26067
 C3497 C 0.42211 0.20169 0.79757
 C3498 C 0.41604 0.20801 0.81065
 C3499 C 0.40307 0.20166 0.81696
 C3500 C 0.39613 0.18908 0.81030
 C3501 C 0.40241 0.18296 0.79712
 C3502 C 0.41539 0.18920 0.79073
 C3503 C 0.43562 0.20843 0.79076
 C3504 C 0.44152 0.20226 0.77751
 C3505 C 0.45403 0.20904 0.77076
 C3506 C 0.46050 0.22191 0.77716
 C3507 C 0.45464 0.22786 0.79055
 C3508 C 0.44215 0.22114 0.79742
 C3509 C 0.42174 0.18323 0.77759
 C3510 C 0.43458 0.18965 0.77109
 C3511 C 0.42302 0.22058 0.81712
 C3512 C 0.43585 0.22706 0.81060
 H3513 H 0.41668 0.17356 0.77224
 H3514 H 0.43904 0.18478 0.76088
 H3515 H 0.41847 0.22553 0.82725
 H3516 H 0.44079 0.23684 0.81586
 H3517 H 0.39847 0.20660 0.82705
 H3518 H 0.39726 0.17338 0.79174
 H3519 H 0.45847 0.20467 0.76032
 H3520 H 0.45956 0.23792 0.79530
 C3521 C 0.92224 0.70205 0.79769
 C3522 C 0.91551 0.70903 0.81010
 C3523 C 0.90253 0.70270 0.81640
 C3524 C 0.89624 0.68946 0.81040
 C3525 C 0.90324 0.68262 0.79795
 C3526 C 0.91620 0.68887 0.79155
 C3527 C 0.93572 0.70882 0.79083
 C3528 C 0.94226 0.70199 0.77821
 C3529 C 0.95472 0.70878 0.77138
 C3530 C 0.96052 0.72227 0.77708
 C3531 C 0.95406 0.72887 0.78988
 C3532 C 0.94159 0.72218 0.79681
 C3533 C 0.92318 0.68227 0.77904
 C3534 C 0.93598 0.68873 0.77247
 C3535 C 0.92183 0.72227 0.81589
 C3536 C 0.93465 0.72874 0.80935
 H3537 H 0.91864 0.67208 0.77421
 H3538 H 0.94092 0.68336 0.76274
 H3539 H 0.91676 0.72775 0.82549
 H3540 H 0.93907 0.73903 0.81408
 H3541 H 0.89736 0.70820 0.82590
 H3542 H 0.89865 0.67246 0.79314
 H3543 H 0.95964 0.70388 0.76139
 H3544 H 0.95848 0.73939 0.79409
 C3545 C 0.92224 0.20196 0.29769
 C3546 C 0.91575 0.20862 0.31039
 C3547 C 0.90278 0.20224 0.31665
 C3548 C 0.89625 0.18928 0.31031
 C3549 C 0.90300 0.18276 0.29755
 C3550 C 0.91597 0.18906 0.29120
 C3551 C 0.93572 0.20878 0.29090
 C3552 C 0.94204 0.20229 0.27799
 C3553 C 0.95452 0.20914 0.27125
 C3554 C 0.96054 0.22238 0.27734
 C3555 C 0.95428 0.22864 0.29039
 C3556 C 0.94181 0.22188 0.29723
 C3557 C 0.92273 0.18277 0.27841
 C3558 C 0.93554 0.18928 0.27191
 C3559 C 0.92228 0.22160 0.31652
 C3560 C 0.93509 0.22812 0.31004
 H3561 H 0.91801 0.17280 0.27331
 H3562 H 0.94031 0.18417 0.26196
 H3563 H 0.91739 0.22682 0.32635
 H3564 H 0.93969 0.23821 0.31503
 H3565 H 0.89782 0.20749 0.32640
 H3566 H 0.89820 0.17284 0.29246
 H3567 H 0.95928 0.20452 0.26106
 H3568 H 0.95887 0.23897 0.29488
 C3569 C 0.29762 0.29783 0.57770
 C3570 C 0.29091 0.31051 0.58420
 C3571 C 0.29721 0.31671 0.59720
 C3572 C 0.31018 0.31034 0.60373
 C3573 C 0.31673 0.29758 0.59700
 C3574 C 0.31050 0.29129 0.58400
 C3575 C 0.29089 0.29113 0.56416
 C3576 C 0.29744 0.27825 0.55783
 C3577 C 0.29062 0.27156 0.54534
 C3578 C 0.27737 0.27768 0.53932
 C3579 C 0.27111 0.29075 0.54554
 C3580 C 0.27783 0.29753 0.55803
 C3581 C 0.31686 0.27854 0.57722
 C3582 C 0.31044 0.27213 0.56435
 C3583 C 0.27796 0.31671 0.57762
 C3584 C 0.27154 0.31033 0.56474
 H3585 H 0.32684 0.27342 0.58195
 H3586 H 0.31562 0.26223 0.55954
 H3587 H 0.27271 0.32653 0.58250
 H3588 H 0.26149 0.31538 0.56009
 H3589 H 0.29192 0.32642 0.60219
 H3590 H 0.32662 0.29244 0.60182
 H3591 H 0.29526 0.26137 0.54058
 H3592 H 0.26079 0.29527 0.54093
 C3593 C 0.29781 0.79799 0.07746
 C3594 C 0.29106 0.81064 0.08399
 C3595 C 0.29734 0.81683 0.09702
 C3596 C 0.31034 0.81050 0.10354
 C3597 C 0.31691 0.79776 0.09678
 C3598 C 0.31070 0.79148 0.08376
 C3599 C 0.29110 0.79131 0.06390
 C3600 C 0.29768 0.77845 0.05755
 C3601 C 0.29088 0.77176 0.04505
 C3602 C 0.27762 0.77786 0.03903
 C3603 C 0.27133 0.79089 0.04527
 C3604 C 0.27802 0.79767 0.05778
 C3605 C 0.31710 0.77876 0.07695
 C3606 C 0.31070 0.77235 0.06407
 C3607 C 0.27811 0.81682 0.07740
 C3608 C 0.27170 0.81045 0.06452
 H3609 H 0.32709 0.77366 0.08167
 H3610 H 0.31590 0.76247 0.05925
 H3611 H 0.27282 0.82662 0.08231
 H3612 H 0.26163 0.81547 0.05987
 H3613 H 0.29202 0.82653 0.10201
 H3614 H 0.32683 0.79264 0.10158
 H3615 H 0.29555 0.76158 0.04028
 H3616 H 0.26099 0.79539 0.04067
 C3617 C 0.79771 0.29829 0.07750
 C3618 C 0.81152 0.29283 0.08279
 C3619 C 0.81789 0.29923 0.09567
 C3620 C 0.81052 0.31098 0.10334
 C3621 C 0.79661 0.31623 0.09785
 C3622 C 0.79018 0.30996 0.08493
 C3623 C 0.79090 0.29149 0.06405
 C3624 C 0.77697 0.29682 0.05888
 C3625 C 0.77030 0.28997 0.04640
 C3626 C 0.77744 0.27784 0.03926
 C3627 C 0.79149 0.27278 0.04437
 C3628 C 0.79829 0.27957 0.05681
 C3629 C 0.77633 0.31508 0.07934
 C3630 C 0.76984 0.30864 0.06652
 C3631 C 0.81867 0.28102 0.07515
 C3632 C 0.81215 0.27448 0.06239
 H3633 H 0.77041 0.32410 0.08496
 H3634 H 0.75911 0.31285 0.06263
 H3635 H 0.82934 0.27671 0.07912
 H3636 H 0.81795 0.26530 0.05691
 H3637 H 0.82856 0.29500 0.09965
 H3638 H 0.79065 0.32511 0.10361
 H3639 H 0.75937 0.29368 0.04249
 H3640 H 0.79683 0.26329 0.03892
 C3641 C 0.79761 0.79804 0.57748
 C3642 C 0.81039 0.79135 0.58386
 C3643 C 0.81662 0.79758 0.59691
 C3644 C 0.81017 0.81041 0.60361
 C3645 C 0.79733 0.81692 0.59698
 C3646 C 0.79102 0.81080 0.58394
 C3647 C 0.79085 0.79139 0.56392
 C3648 C 0.77788 0.79792 0.55773
 C3649 C 0.77111 0.79120 0.54524
 C3650 C 0.77719 0.77803 0.53907
 C3651 C 0.79035 0.77175 0.54515
 C3652 C 0.79724 0.77840 0.55764
 C3653 C 0.77819 0.81715 0.57729
 C3654 C 0.77173 0.81081 0.56440
 C3655 C 0.81662 0.77852 0.57710
 C3656 C 0.81015 0.77215 0.56422
 H3657 H 0.77303 0.82703 0.58214
 H3658 H 0.76175 0.81597 0.55971
 H3659 H 0.82652 0.77329 0.58188
 H3660 H 0.81522 0.76217 0.55947
 H3661 H 0.82643 0.79233 0.60178
 H3662 H 0.79213 0.82673 0.60191
 H3663 H 0.76085 0.79585 0.54060
 H3664 H 0.79487 0.76148 0.54044
 C3665 C 0.29782 0.70219 0.42217
 C3666 C 0.31014 0.70919 0.41527
 C3667 C 0.31626 0.70288 0.40222
 C3668 C 0.31020 0.68961 0.39605
 C3669 C 0.29781 0.68277 0.40319
 C3670 C 0.29159 0.68901 0.41623
 C3671 C 0.29117 0.70894 0.43573
 C3672 C 0.27861 0.70211 0.44244
 C3673 C 0.27191 0.70894 0.45493
 C3674 C 0.27769 0.72247 0.46059
 C3675 C 0.29046 0.72901 0.45401
 C3676 C 0.29724 0.72229 0.44151
 C3677 C 0.27919 0.68237 0.42340
 C3678 C 0.27280 0.68883 0.43627
 C3679 C 0.31605 0.72241 0.42152
 C3680 C 0.30971 0.72885 0.43442
 H3681 H 0.27430 0.67217 0.41895
 H3682 H 0.26314 0.68344 0.44137
 H3683 H 0.32560 0.72788 0.41633
 H3684 H 0.31452 0.73912 0.43879
 H3685 H 0.32568 0.70841 0.39692
 H3686 H 0.29295 0.67261 0.39868
 H3687 H 0.26195 0.70408 0.45997
 H3688 H 0.29473 0.73954 0.45835
 C3689 C 0.29767 0.20192 0.92242
 C3690 C 0.31068 0.20827 0.91619
 C3691 C 0.31685 0.20196 0.90316
 C3692 C 0.31012 0.18937 0.89631
 C3693 C 0.29703 0.18318 0.90278
 C3694 C 0.29078 0.18940 0.91582
 C3695 C 0.29101 0.20866 0.93598
 C3696 C 0.27781 0.20247 0.94204
 C3697 C 0.27114 0.20933 0.95453
 C3698 C 0.27759 0.22226 0.96083
 C3699 C 0.29097 0.22815 0.95489
 C3700 C 0.29774 0.22139 0.94240
 C3701 C 0.27772 0.18338 0.92235
 C3702 C 0.27135 0.18981 0.93524
 C3703 C 0.31723 0.22086 0.92307
 C3704 C 0.31086 0.22732 0.93595
 H3705 H 0.27233 0.17368 0.91739
 H3706 H 0.26120 0.18491 0.93984
 H3707 H 0.32730 0.22584 0.91839
 H3708 H 0.31617 0.23711 0.94082
 H3709 H 0.32685 0.20696 0.89842
 H3710 H 0.29160 0.17359 0.89771
 H3711 H 0.26073 0.20496 0.95909
 H3712 H 0.29577 0.23823 0.95972
 C3713 C 0.79817 0.70217 0.92256
 C3714 C 0.79280 0.68831 0.91736
 C3715 C 0.79919 0.68196 0.90445
 C3716 C 0.81082 0.68939 0.89666
 C3717 C 0.81598 0.70336 0.90207
 C3718 C 0.80973 0.70976 0.91502
 C3719 C 0.79138 0.70897 0.93604
 C3720 C 0.79661 0.72295 0.94112
 C3721 C 0.78972 0.72961 0.95361
 C3722 C 0.77765 0.72241 0.96082
 C3723 C 0.77273 0.70831 0.95581
 C3724 C 0.77955 0.70152 0.94337
 C3725 C 0.81476 0.72366 0.92053
 C3726 C 0.80833 0.73013 0.93338
 C3727 C 0.78110 0.68111 0.92512
 C3728 C 0.77456 0.68762 0.93789
 H3729 H 0.82370 0.72963 0.91482
 H3730 H 0.81248 0.74090 0.93720
 H3731 H 0.77686 0.67040 0.92122
 H3732 H 0.76546 0.68177 0.94345
 H3733 H 0.79503 0.67125 0.90055
 H3734 H 0.82477 0.70936 0.89621
 H3735 H 0.79335 0.74057 0.95745
 H3736 H 0.76330 0.70293 0.96133
 C3737 C 0.79813 0.20201 0.42240
 C3738 C 0.79270 0.18819 0.41716
 C3739 C 0.79909 0.18182 0.40426
 C3740 C 0.81079 0.18919 0.39652
 C3741 C 0.81601 0.20312 0.40196
 C3742 C 0.80977 0.20954 0.41490
 C3743 C 0.79135 0.20883 0.43586
 C3744 C 0.79666 0.22277 0.44098
 C3745 C 0.78979 0.22946 0.45346
 C3746 C 0.77765 0.22234 0.46063
 C3747 C 0.77265 0.20827 0.45559
 C3748 C 0.77946 0.20145 0.44316
 C3749 C 0.81487 0.22340 0.42044
 C3750 C 0.80844 0.22989 0.43328
 C3751 C 0.78093 0.18105 0.42488
 C3752 C 0.77440 0.18758 0.43764
 H3753 H 0.82386 0.22931 0.41476
 H3754 H 0.81265 0.24063 0.43713
 H3755 H 0.77664 0.17037 0.42095
 H3756 H 0.76524 0.18179 0.44317
 H3757 H 0.79488 0.17114 0.40033
 H3758 H 0.82485 0.20908 0.39614
 H3759 H 0.79349 0.24039 0.45733
 H3760 H 0.76318 0.20294 0.46108
 C3761 C 0.70206 0.29769 0.42231
 C3762 C 0.69037 0.29017 0.41489
 C3763 C 0.68416 0.29654 0.40190
 C3764 C 0.68949 0.31037 0.39632
 C3765 C 0.70123 0.31773 0.40399
 C3766 C 0.70757 0.31143 0.41694
 C3767 C 0.70882 0.29093 0.43582
 C3768 C 0.72076 0.29830 0.44303
 C3769 C 0.72755 0.29153 0.45551
 C3770 C 0.72248 0.27753 0.46067
 C3771 C 0.71032 0.27040 0.45356
 C3772 C 0.70346 0.27705 0.44105
 C3773 C 0.71939 0.31857 0.42459
 C3774 C 0.72589 0.31210 0.43739
 C3775 C 0.68520 0.27639 0.42056
 C3776 C 0.69162 0.26994 0.43343
 H3777 H 0.72373 0.32919 0.42057
 H3778 H 0.73509 0.31788 0.44286
 H3779 H 0.67616 0.27049 0.41495
 H3780 H 0.68737 0.25925 0.43736
 H3781 H 0.67526 0.29060 0.39616
 H3782 H 0.70552 0.32835 0.39996
 H3783 H 0.73707 0.29685 0.46092
 H3784 H 0.70660 0.25950 0.45749
 C3785 C 0.70210 0.79788 0.92249
 C3786 C 0.70764 0.81160 0.91710
 C3787 C 0.70130 0.81790 0.90415
 C3788 C 0.68953 0.81056 0.89651
 C3789 C 0.68417 0.79674 0.90211
 C3790 C 0.69039 0.79038 0.91510
 C3791 C 0.70887 0.79111 0.93600
 C3792 C 0.70349 0.77725 0.94125
 C3793 C 0.71037 0.77059 0.95375
 C3794 C 0.72258 0.77768 0.96081
 C3795 C 0.72766 0.79168 0.95563
 C3796 C 0.72085 0.79846 0.94318
 C3797 C 0.68518 0.77662 0.92080
 C3798 C 0.69161 0.77018 0.93367
 C3799 C 0.71949 0.81872 0.92472
 C3800 C 0.72599 0.81224 0.93752
 H3801 H 0.67612 0.77074 0.91522
 H3802 H 0.68733 0.75950 0.93762
 H3803 H 0.72385 0.82932 0.92068
 H3804 H 0.73521 0.81801 0.94297
 H3805 H 0.70562 0.82850 0.90010
 H3806 H 0.67525 0.79082 0.89638
 H3807 H 0.70663 0.75971 0.95770
 H3808 H 0.73719 0.79698 0.96103
 C3809 C 0.20202 0.29785 0.92253
 C3810 C 0.20830 0.31094 0.91643
 C3811 C 0.20191 0.31723 0.90350
 C3812 C 0.18934 0.31049 0.89658
 C3813 C 0.18319 0.29736 0.90295
 C3814 C 0.18949 0.29099 0.91589
 C3815 C 0.20885 0.29104 0.93598
 C3816 C 0.20273 0.27777 0.94191
 C3817 C 0.20960 0.27105 0.95437
 C3818 C 0.22249 0.27752 0.96076
 C3819 C 0.22837 0.29092 0.95489
 C3820 C 0.22160 0.29774 0.94243
 C3821 C 0.18359 0.27781 0.92224
 C3822 C 0.19010 0.27130 0.93503
 C3823 C 0.22095 0.31741 0.92330
 C3824 C 0.22750 0.31091 0.93608
 H3825 H 0.17391 0.27241 0.91722
 H3826 H 0.18529 0.26106 0.93948
 H3827 H 0.22591 0.32751 0.91869
 H3828 H 0.23734 0.31616 0.94093
 H3829 H 0.20683 0.32731 0.89886
 H3830 H 0.17359 0.29194 0.89786
 H3831 H 0.20527 0.26059 0.95883
 H3832 H 0.23845 0.29571 0.95976
 C3833 C 0.20241 0.79833 0.42226
 C3834 C 0.20993 0.80995 0.41475
 C3835 C 0.20354 0.81612 0.40176
 C3836 C 0.18965 0.81081 0.39627
 C3837 C 0.18227 0.79914 0.40403
 C3838 C 0.18861 0.79284 0.41699
 C3839 C 0.20923 0.79160 0.43576
 C3840 C 0.20188 0.77970 0.44305
 C3841 C 0.20874 0.77293 0.45550
 C3842 C 0.22280 0.77802 0.46055
 C3843 C 0.22988 0.79015 0.45337
 C3844 C 0.22316 0.79696 0.44088
 C3845 C 0.18147 0.78109 0.42473
 C3846 C 0.18801 0.77461 0.43752
 C3847 C 0.22377 0.81512 0.42033
 C3848 C 0.23026 0.80875 0.43319
 H3849 H 0.17080 0.77677 0.42080
 H3850 H 0.18222 0.76545 0.44306
 H3851 H 0.22967 0.82411 0.41465
 H3852 H 0.24099 0.81299 0.43705
 H3853 H 0.20950 0.82495 0.39595
 H3854 H 0.17160 0.79488 0.40007
 H3855 H 0.20344 0.76345 0.46099
 H3856 H 0.24081 0.79388 0.45723
 C3857 C 0.70201 0.70231 0.57757
 C3858 C 0.69048 0.70994 0.58514
 C3859 C 0.68421 0.70352 0.59808
 C3860 C 0.68932 0.68951 0.60344
 C3861 C 0.70092 0.68205 0.59563
 C3862 C 0.70732 0.68841 0.58274
 C3863 C 0.70881 0.70911 0.56409
 C3864 C 0.72058 0.70161 0.55672
 C3865 C 0.72739 0.70837 0.54425
 C3866 C 0.72250 0.72250 0.53925
 C3867 C 0.71050 0.72977 0.54653
 C3868 C 0.70363 0.72313 0.55903
 C3869 C 0.71899 0.68117 0.57495
 C3870 C 0.72553 0.68768 0.56218
 C3871 C 0.68551 0.72388 0.57966
 C3872 C 0.69195 0.73036 0.56682
 H3873 H 0.72319 0.67043 0.57883
 H3874 H 0.73461 0.68180 0.55660
 H3875 H 0.67660 0.72988 0.58539
 H3876 H 0.68785 0.74116 0.56302
 H3877 H 0.67544 0.70955 0.60395
 H3878 H 0.70503 0.67130 0.59949
 H3879 H 0.73678 0.70295 0.53871
 H3880 H 0.70691 0.74076 0.54271
 C3881 C 0.70246 0.20218 0.07769
 C3882 C 0.68950 0.20861 0.08396
 C3883 C 0.68333 0.20231 0.09699
 C3884 C 0.69000 0.18966 0.10381
 C3885 C 0.70304 0.18339 0.09730
 C3886 C 0.70929 0.18959 0.08425
 C3887 C 0.70914 0.20891 0.06413
 C3888 C 0.72229 0.20264 0.05802
 C3889 C 0.72894 0.20947 0.04551
 C3890 C 0.72254 0.22246 0.03925
 C3891 C 0.70924 0.22845 0.04526
 C3892 C 0.70247 0.22171 0.05776
 C3893 C 0.72230 0.18350 0.07769
 C3894 C 0.72869 0.18992 0.06479
 C3895 C 0.68302 0.22127 0.07712
 C3896 C 0.68941 0.22772 0.06425
 H3897 H 0.72765 0.17375 0.08262
 H3898 H 0.73881 0.18497 0.06017
 H3899 H 0.67299 0.22631 0.08182
 H3900 H 0.68416 0.23757 0.05941
 H3901 H 0.67335 0.20736 0.10176
 H3902 H 0.70842 0.17374 0.10233
 H3903 H 0.73932 0.20504 0.04092
 H3904 H 0.70450 0.23859 0.04047
 C3905 C 0.20194 0.70246 0.07746
 C3906 C 0.19041 0.71007 0.08505
 C3907 C 0.18414 0.70362 0.09797
 C3908 C 0.18925 0.68961 0.10330
 C3909 C 0.20086 0.68216 0.09547
 C3910 C 0.20726 0.68855 0.08259
 C3911 C 0.20873 0.70930 0.06401
 C3912 C 0.22051 0.70184 0.05662
 C3913 C 0.22732 0.70866 0.04417
 C3914 C 0.22238 0.72280 0.03922
 C3915 C 0.21037 0.73001 0.04650
 C3916 C 0.20352 0.72332 0.05899
 C3917 C 0.21894 0.68134 0.07478
 C3918 C 0.22547 0.68789 0.06203
 C3919 C 0.18541 0.72402 0.07961
 C3920 C 0.19184 0.73052 0.06678
 H3921 H 0.22314 0.67059 0.07863
 H3922 H 0.23456 0.68203 0.05643
 H3923 H 0.17650 0.72999 0.08536
 H3924 H 0.18773 0.74133 0.06301
 H3925 H 0.17538 0.70964 0.10386
 H3926 H 0.20497 0.67140 0.09932
 H3927 H 0.23671 0.70327 0.03860
 H3928 H 0.20675 0.74100 0.04271
 C3929 C 0.20175 0.20225 0.57767
 C3930 C 0.19018 0.20983 0.58525
 C3931 C 0.18393 0.20338 0.59816
 C3932 C 0.18908 0.18938 0.60351
 C3933 C 0.20071 0.18196 0.59570
 C3934 C 0.20710 0.18836 0.58282
 C3935 C 0.20852 0.20910 0.56422
 C3936 C 0.22034 0.20166 0.55685
 C3937 C 0.22713 0.20849 0.54441
 C3938 C 0.22216 0.22261 0.53945
 C3939 C 0.21012 0.22980 0.54671
 C3940 C 0.20328 0.22310 0.55919
 C3941 C 0.21881 0.18118 0.57503
 C3942 C 0.22534 0.18773 0.56228
 C3943 C 0.18516 0.22376 0.57979
 C3944 C 0.19158 0.23027 0.56696
 H3945 H 0.22304 0.17044 0.57889
 H3946 H 0.23444 0.18190 0.55669
 H3947 H 0.17623 0.22972 0.58553
 H3948 H 0.18744 0.24107 0.56318
 H3949 H 0.17515 0.20937 0.60404
 H3950 H 0.20485 0.17122 0.59956
 H3951 H 0.23654 0.20312 0.53885
 H3952 H 0.20648 0.24077 0.54290
   
