data_POSCAR
  _audit_creation_date              2014-09-24
  _audit_creation_method            'ToBaCCo'
  _symmetry_space_group_name_H-M    'P1'
  _symmetry_Int_Tables_number       1
  _symmetry_cell_setting            triclinic
  loop_
  _symmetry_equiv_pos_as_xyz
 x,y,z
_cell_length_a 83.6143
_cell_length_b 83.7370
_cell_length_c 83.2090
_cell_angle_alpha 89.996500
_cell_angle_beta 89.985200
_cell_angle_gamma 89.947000
loop_
  _atom_site_label
  _atom_site_type_symbol
  _atom_site_fract_x
  _atom_site_fract_y
  _atom_site_fract_z
C1 C 0.32705 0.44387 0.92272
 C2 C 0.32010 0.44993 0.90865
 C3 C 0.30626 0.44293 0.90211
 C4 C 0.29960 0.42945 0.90968
 C5 C 0.30654 0.42313 0.92368
 C6 C 0.32023 0.43049 0.93029
 C7 C 0.34086 0.45091 0.92915
 C8 C 0.34809 0.44490 0.94329
 C9 C 0.34081 0.43165 0.95089
 C10 C 0.32714 0.42439 0.94443
 C11 C 0.32039 0.41101 0.95190
 C12 C 0.30706 0.40323 0.94518
 C13 C 0.30012 0.40950 0.93110
 H14 H 0.32558 0.46005 0.90270
 H15 H 0.28889 0.42400 0.90484
 H16 H 0.34626 0.46065 0.92256
 H17 H 0.34539 0.42709 0.96215
 H18 H 0.32562 0.40657 0.96294
 H19 H 0.28996 0.40357 0.92566
 C20 C 0.44477 0.82607 0.42643
 C21 C 0.44984 0.84080 0.43266
 C22 C 0.44226 0.84779 0.44618
 C23 C 0.42899 0.83966 0.45290
 C24 C 0.42364 0.82507 0.44660
 C25 C 0.43178 0.81809 0.43356
 C26 C 0.45229 0.81941 0.41290
 C27 C 0.44734 0.80456 0.40667
 C28 C 0.43480 0.79638 0.41441
 C29 C 0.42675 0.80322 0.42748
 C30 C 0.41343 0.79561 0.43422
 C31 C 0.40462 0.80290 0.44663
 C32 C 0.41006 0.81750 0.45299
 H33 H 0.45937 0.84695 0.42644
 H34 H 0.42302 0.84418 0.46349
 H35 H 0.46176 0.82602 0.40701
 H36 H 0.43107 0.78475 0.41015
 H37 H 0.40968 0.78414 0.42950
 H38 H 0.40338 0.82334 0.46248
 C39 C 0.94712 0.92485 0.82443
 C40 C 0.95429 0.91141 0.81737
 C41 C 0.94809 0.90449 0.80313
 C42 C 0.93465 0.91192 0.79596
 C43 C 0.92723 0.92519 0.80305
 C44 C 0.93343 0.93161 0.81739
 C45 C 0.95341 0.93149 0.83859
 C46 C 0.94607 0.94475 0.84618
 C47 C 0.93207 0.95108 0.83902
 C48 C 0.92586 0.94473 0.82474
 C49 C 0.91200 0.95123 0.81783
 C50 C 0.90575 0.94501 0.80343
 C51 C 0.91358 0.93206 0.79605
 H52 H 0.96421 0.90596 0.82365
 H53 H 0.92998 0.90773 0.78460
 H54 H 0.96444 0.92652 0.84318
 H55 H 0.92547 0.96063 0.84473
 H56 H 0.90595 0.96101 0.82381
 H57 H 0.90905 0.92728 0.78484
 C58 C 0.44486 -0.07651 0.32667
 C59 C 0.45255 -0.08935 0.31906
 C60 C 0.44672 -0.09550 0.30445
 C61 C 0.43338 -0.08818 0.29723
 C62 C 0.42541 -0.07553 0.30486
 C63 C 0.43105 -0.06977 0.31972
 C64 C 0.45057 -0.07057 0.34133
 C65 C 0.44245 -0.05822 0.34942
 C66 C 0.42846 -0.05180 0.34254
 C67 C 0.42275 -0.05745 0.32773
 C68 C 0.40868 -0.05121 0.32098
 C69 C 0.40294 -0.05689 0.30612
 C70 C 0.41164 -0.06885 0.29802
 H71 H 0.46273 -0.09494 0.32486
 H72 H 0.42899 -0.09251 0.28578
 H73 H 0.46143 -0.07554 0.34638
 H74 H 0.42186 -0.04257 0.34883
 H75 H 0.40202 -0.04221 0.32752
 H76 H 0.40761 -0.07312 0.28642
 C77 C 0.82241 0.30325 0.32289
 C78 C 0.81585 0.29824 0.33757
 C79 C 0.80204 0.30562 0.34384
 C80 C 0.79505 0.31837 0.33530
 C81 C 0.80167 0.32371 0.32078
 C82 C 0.81519 0.31591 0.31439
 C83 C 0.83635 0.29609 0.31680
 C84 C 0.84300 0.30116 0.30209
 C85 C 0.83525 0.31336 0.29342
 C86 C 0.82170 0.32100 0.29965
 C87 C 0.81493 0.33407 0.29161
 C88 C 0.80208 0.34259 0.29839
 C89 C 0.79526 0.33705 0.31282
 H90 H 0.82167 0.28877 0.34424
 H91 H 0.78438 0.32413 0.33990
 H92 H 0.84224 0.28687 0.32376
 H93 H 0.83992 0.31717 0.28190
 H94 H 0.82002 0.33790 0.28027
 H95 H 0.78543 0.34350 0.31828
 C96 C -0.19648 0.82420 0.82178
 C97 C -0.20325 0.83758 0.81427
 C98 C -0.19575 0.84500 0.80096
 C99 C -0.18155 0.83797 0.79493
 C100 C -0.17475 0.82449 0.80226
 C101 C -0.18210 0.81772 0.81587
 C102 C -0.20380 0.81733 0.83529
 C103 C -0.19668 0.80433 0.84330
 C104 C -0.18223 0.79805 0.83736
 C105 C -0.17498 0.80456 0.82366
 C106 C -0.16058 0.79826 0.81779
 C107 C -0.15325 0.80477 0.80406
 C108 C -0.16048 0.81789 0.79635
 H109 H -0.21460 0.84191 0.81875
 H110 H -0.17508 0.84341 0.78510
 H111 H -0.21504 0.82216 0.83961
 H112 H -0.17643 0.78825 0.84357
 H113 H -0.15498 0.78840 0.82408
 H114 H -0.15508 0.82291 0.78565
 C115 C 0.92514 0.32419 0.44788
 C116 C 0.93253 0.33733 0.45526
 C117 C 0.94606 0.34477 0.44831
 C118 C 0.95241 0.33806 0.43406
 C119 C 0.94516 0.32489 0.42663
 C120 C 0.93134 0.31808 0.43340
 C121 C 0.91145 0.31723 0.45466
 C122 C 0.90350 0.30458 0.44688
 C123 C 0.90971 0.29872 0.43230
 C124 C 0.92363 0.30527 0.42559
 C125 C 0.92978 0.29942 0.41103
 C126 C 0.94369 0.30605 0.40424
 C127 C 0.95135 0.31872 0.41225
 H128 H 0.92775 0.34147 0.46660
 H129 H 0.96242 0.34356 0.42799
 H130 H 0.90698 0.32173 0.46602
 H131 H 0.90356 0.28924 0.42596
 H132 H 0.92354 0.28988 0.40486
 H133 H 0.96220 0.32381 0.40731
 C134 C 0.42648 0.44611 0.82355
 C135 C 0.43412 0.45350 0.83656
 C136 C 0.44756 0.44646 0.84385
 C137 C 0.45389 0.43231 0.83725
 C138 C 0.44653 0.42494 0.82401
 C139 C 0.43258 0.43170 0.81734
 C140 C 0.41256 0.45273 0.81697
 C141 C 0.40421 0.44488 0.80460
 C142 C 0.41042 0.43049 0.79842
 C143 C 0.42460 0.42393 0.80462
 C144 C 0.43073 0.40954 0.79855
 C145 C 0.44489 0.40286 0.80484
 C146 C 0.45271 0.41073 0.81758
 H147 H 0.42938 0.46464 0.84119
 H148 H 0.46418 0.42667 0.84277
 H149 H 0.40811 0.46397 0.82165
 H150 H 0.40402 0.42418 0.78905
 H151 H 0.42432 0.40343 0.78906
 H152 H 0.46369 0.40588 0.82246
 C153 C 0.82491 0.92664 0.94543
 C154 C 0.81790 0.91305 0.95238
 C155 C 0.80413 0.90586 0.94565
 C156 C 0.79752 0.91293 0.93168
 C157 C 0.80449 0.92641 0.92456
 C158 C 0.81819 0.93334 0.93150
 C159 C 0.83870 0.93344 0.95217
 C160 C 0.84615 0.94692 0.94515
 C161 C 0.83904 0.95356 0.93123
 C162 C 0.82523 0.94689 0.92441
 C163 C 0.81854 0.95342 0.91040
 C164 C 0.80499 0.94646 0.90320
 C165 C 0.79802 0.93297 0.91047
 H166 H 0.82384 0.90775 0.96262
 H167 H 0.78658 0.90841 0.92646
 H168 H 0.84319 0.92839 0.96325
 H169 H 0.84459 0.96347 0.92502
 H170 H 0.82387 0.96399 0.90514
 H171 H 0.78777 0.92729 0.90493
 C172 C 0.32672 0.82602 0.30327
 C173 C 0.31969 0.83932 0.29578
 C174 C 0.30557 0.84640 0.30192
 C175 C 0.29862 0.83949 0.31579
 C176 C 0.30553 0.82621 0.32336
 C177 C 0.31963 0.81946 0.31712
 C178 C 0.34084 0.81928 0.29716
 C179 C 0.34797 0.80596 0.30464
 C180 C 0.34073 0.79949 0.31847
 C181 C 0.32672 0.80622 0.32484
 C182 C 0.31983 0.80007 0.33893
 C183 C 0.30583 0.80689 0.34539
 C184 C 0.29866 0.81982 0.33732
 H185 H 0.32510 0.84369 0.28482
 H186 H 0.28826 0.84486 0.32140
 H187 H 0.34645 0.82463 0.28674
 H188 H 0.34591 0.78911 0.32425
 H189 H 0.32564 0.79026 0.34510
 H190 H 0.28767 0.82496 0.34191
 C191 C 0.82405 0.42709 0.44574
 C192 C 0.81626 0.41465 0.45389
 C193 C 0.80278 0.40712 0.44717
 C194 C 0.79676 0.41274 0.43241
 C195 C 0.80422 0.42540 0.42431
 C196 C 0.81804 0.43247 0.43090
 C197 C 0.83788 0.43405 0.45218
 C198 C 0.84619 0.44627 0.44392
 C199 C 0.83985 0.45158 0.42906
 C200 C 0.82592 0.44481 0.42257
 C201 C 0.81992 0.45000 0.40768
 C202 C 0.80600 0.44317 0.40109
 C203 C 0.79822 0.43088 0.40958
 H204 H 0.82083 0.41073 0.46542
 H205 H 0.78655 0.40695 0.42692
 H206 H 0.84180 0.43011 0.46392
 H207 H 0.84607 0.46047 0.42200
 H208 H 0.82626 0.45921 0.40113
 H209 H 0.78738 0.42564 0.40481
 C210 C 0.94803 0.82354 -0.07340
 C211 C 0.95443 0.83743 -0.06651
 C212 C 0.94670 0.84506 -0.05359
 C213 C 0.93255 0.83836 -0.04740
 C214 C 0.92624 0.82427 -0.05390
 C215 C 0.93397 0.81685 -0.06698
 C216 C 0.95542 0.81637 -0.08671
 C217 C 0.94889 0.80261 -0.09407
 C218 C 0.93499 0.79584 -0.08712
 C219 C 0.92756 0.80283 -0.07372
 C220 C 0.91360 0.79616 -0.06717
 C221 C 0.90578 0.80348 -0.05411
 C222 C 0.91218 0.81762 -0.04764
 H223 H 0.96547 0.84230 -0.07126
 H224 H 0.92626 0.84425 -0.03767
 H225 H 0.96651 0.82148 -0.09099
 H226 H 0.92923 0.78561 -0.09255
 H227 H 0.90890 0.78518 -0.07218
 H228 H 0.90609 0.82362 -0.03785
 C229 C 0.32717 0.32664 0.80634
 C230 C 0.32098 0.34031 0.79884
 C231 C 0.30796 0.34863 0.80555
 C232 C 0.30094 0.34282 0.81977
 C233 C 0.30687 0.32903 0.82727
 C234 C 0.32009 0.32096 0.82060
 C235 C 0.34050 0.31875 0.79992
 C236 C 0.34688 0.30512 0.80748
 C237 C 0.33962 0.29942 0.82163
 C238 C 0.32634 0.30730 0.82828
 C239 C 0.31936 0.30186 0.84261
 C240 C 0.30610 0.30981 0.84934
 C241 C 0.29989 0.32334 0.84147
 H242 H 0.32633 0.34445 0.78773
 H243 H 0.29112 0.34925 0.82529
 H244 H 0.34615 0.32349 0.78921
 H245 H 0.34424 0.28881 0.82746
 H246 H 0.32449 0.29162 0.84869
 H247 H 0.28952 0.32943 0.84633
 C248 C 0.17919 0.55001 0.56926
 C249 C 0.16574 0.54263 0.56241
 C250 C 0.15892 0.54859 0.54813
 C251 C 0.16628 0.56159 0.54038
 C252 C 0.17943 0.56931 0.54730
 C253 C 0.18582 0.56364 0.56188
 C254 C 0.18578 0.54429 0.58366
 C255 C 0.19862 0.55228 0.59110
 C256 C 0.20486 0.56612 0.58382
 C257 C 0.19862 0.57180 0.56925
 C258 C 0.20463 0.58581 0.56220
 C259 C 0.19820 0.59164 0.54769
 C260 C 0.18586 0.58302 0.54015
 H261 H 0.16019 0.53269 0.56859
 H262 H 0.16149 0.56602 0.52912
 H263 H 0.18090 0.53356 0.58901
 H264 H 0.21441 0.57269 0.58962
 H265 H 0.21396 0.59241 0.56829
 H266 H 0.18099 0.58717 0.52882
 C267 C 0.57277 0.69918 0.07255
 C268 C 0.58708 0.70526 0.06623
 C269 C 0.59461 0.69783 0.05306
 C270 C 0.58755 0.68414 0.04626
 C271 C 0.57308 0.67811 0.05226
 C272 C 0.56561 0.68571 0.06539
 C273 C 0.56569 0.70618 0.08612
 C274 C 0.55141 0.69999 0.09258
 C275 C 0.54399 0.68700 0.08488
 C276 C 0.55109 0.67970 0.07149
 C277 C 0.54406 0.66626 0.06437
 C278 C 0.55161 0.65834 0.05150
 C279 C 0.56613 0.66442 0.04551
 H280 H 0.59226 0.71589 0.07152
 H281 H 0.59340 0.67802 0.03641
 H282 H 0.57163 0.71608 0.09198
 H283 H 0.53278 0.68236 0.08946
 H284 H 0.53275 0.66190 0.06895
 H285 H 0.57223 0.65832 0.03580
 C286 C 0.69784 0.17675 0.67701
 C287 C 0.70380 0.18368 0.66288
 C288 C 0.69548 0.19614 0.65520
 C289 C 0.68117 0.20182 0.66205
 C290 C 0.67526 0.19525 0.67637
 C291 C 0.68363 0.18266 0.68388
 C292 C 0.70579 0.16384 0.68420
 C293 C 0.69965 0.15633 0.69813
 C294 C 0.68567 0.16286 0.70515
 C295 C 0.67769 0.17587 0.69814
 C296 C 0.66359 0.18189 0.70499
 C297 C 0.65500 0.19432 0.69753
 C298 C 0.66096 0.20089 0.68315
 H299 H 0.71493 0.17933 0.65785
 H300 H 0.67448 0.21120 0.65610
 H301 H 0.71695 0.15994 0.67893
 H302 H 0.68021 0.15733 0.71554
 H303 H 0.65933 0.17685 0.71619
 H304 H 0.65434 0.21019 0.67701
 C305 C 1.07083 0.04995 0.17936
 C306 C 1.08516 0.04385 0.18567
 C307 C 1.09286 0.05144 0.19863
 C308 C 1.08590 0.06522 0.20533
 C309 C 1.07146 0.07130 0.19932
 C310 C 1.06389 0.06363 0.18630
 C311 C 1.06362 0.04278 0.16595
 C312 C 1.04942 0.04906 0.15915
 C313 C 1.04229 0.06241 0.16678
 C314 C 1.04949 0.06977 0.18008
 C315 C 1.04262 0.08341 0.18707
 C316 C 1.05022 0.09135 0.19988
 C317 C 1.06466 0.08514 0.20593
 H318 H 1.09027 0.03312 0.18050
 H319 H 1.09187 0.07142 0.21506
 H320 H 1.06981 0.03290 0.16036
 H321 H 1.03095 0.06709 0.16265
 H322 H 1.03138 0.08791 0.18243
 H323 H 1.07084 0.09127 0.21556
 C324 C 0.05014 0.17774 1.07151
 C325 C 0.04440 0.16338 1.06509
 C326 C 0.05172 0.15615 1.05158
 C327 C 0.06539 0.16368 1.04494
 C328 C 0.07132 0.17804 1.05133
 C329 C 0.06347 0.18522 1.06447
 C330 C 0.04300 0.18445 1.08522
 C331 C 0.04881 0.19879 1.09182
 C332 C 0.06162 0.20658 1.08417
 C333 C 0.06917 0.19973 1.07081
 C334 C 0.08272 0.20691 1.06412
 C335 C 0.09120 0.19947 1.05157
 C336 C 0.08519 0.18517 1.04500
 H337 H 0.03458 0.15759 1.07122
 H338 H 0.07121 0.15884 1.03440
 H339 H 0.03325 0.17820 1.09105
 H340 H 0.06599 0.21784 1.08883
 H341 H 0.08693 0.21814 1.06901
 H342 H 0.09162 0.17924 1.03540
 C343 C 0.18072 0.68025 0.70090
 C344 C 0.16743 0.68769 0.70791
 C345 C 0.15986 0.70067 0.70030
 C346 C 0.16648 0.70679 0.68600
 C347 C 0.18001 0.69967 0.67903
 C348 C 0.18696 0.68615 0.68633
 C349 C 0.18755 0.66669 0.70801
 C350 C 0.20027 0.65859 0.70052
 C351 C 0.20646 0.66459 0.68599
 C352 C 0.19996 0.67835 0.67891
 C353 C 0.20599 0.68417 0.66432
 C354 C 0.19938 0.69785 0.65706
 C355 C 0.18640 0.70557 0.66461
 H356 H 0.16276 0.68312 0.71915
 H357 H 0.16073 0.71670 0.67992
 H358 H 0.18281 0.66233 0.71931
 H359 H 0.21608 0.65832 0.67995
 H360 H 0.21567 0.67781 0.65847
 H361 H 0.18125 0.71622 0.65932
 C362 C 1.19987 0.17796 0.18123
 C363 C 1.20681 0.16463 0.18867
 C364 C 1.19988 0.15759 0.20246
 C365 C 1.18588 0.16473 0.20882
 C366 C 1.17881 0.17807 0.20145
 C367 C 1.18580 0.18467 0.18757
 C368 C 1.20656 0.18431 0.16717
 C369 C 1.19919 0.19709 0.15906
 C370 C 1.18526 0.20392 0.16565
 C371 C 1.17856 0.19783 0.17986
 C372 C 1.16451 0.20445 0.18626
 C373 C 1.15734 0.19788 0.20008
 C374 C 1.16465 0.18469 0.20759
 H375 H 1.21710 0.15927 0.18292
 H376 H 1.18053 0.16028 0.21978
 H377 H 1.21749 0.17916 0.16245
 H378 H 1.17929 0.21362 0.15945
 H379 H 1.15919 0.21474 0.18044
 H380 H 1.15908 0.17925 0.21800
 C381 C 0.67478 1.07587 0.55215
 C382 C 0.66053 1.06915 0.54634
 C383 C 0.65437 1.05498 0.55303
 C384 C 0.66259 1.04772 0.56585
 C385 C 0.67671 1.05442 0.57193
 C386 C 0.68292 1.06846 0.56495
 C387 C 0.68081 1.09005 0.54551
 C388 C 0.69512 1.09706 0.55129
 C389 C 0.70325 1.08917 0.56394
 C390 C 0.69718 1.07516 0.57087
 C391 C 0.70510 1.06785 0.58381
 C392 C 0.69874 1.05413 0.59122
 C393 C 0.68459 1.04742 0.58504
 H394 H 0.65413 1.07508 0.53672
 H395 H 0.65810 1.03672 0.57102
 H396 H 0.67379 1.09587 0.53630
 H397 H 0.71462 1.09355 0.56829
 H398 H 0.71617 1.07295 0.58820
 H399 H 0.67940 1.03700 0.59072
 C400 C 0.55110 0.57250 0.17887
 C401 C 0.54361 0.56582 0.16534
 C402 C 0.55015 0.55235 0.15761
 C403 C 0.56417 0.54542 0.16387
 C404 C 0.57168 0.55187 0.17744
 C405 C 0.56520 0.56550 0.18494
 C406 C 0.54492 0.58629 0.18616
 C407 C 0.55255 0.59318 0.19957
 C408 C 0.56651 0.58593 0.20567
 C409 C 0.57297 0.57227 0.19835
 C410 C 0.58732 0.56553 0.20396
 C411 C 0.59398 0.55202 0.19641
 C412 C 0.58585 0.54512 0.18334
 H413 H 0.53269 0.57116 0.16083
 H414 H 0.56958 0.53529 0.15786
 H415 H 0.53440 0.59190 0.18107
 H416 H 0.57239 0.59089 0.21613
 H417 H 0.59354 0.57116 0.21388
 H418 H 0.59060 0.53450 0.17762
 C419 C 0.67976 0.69903 0.17891
 C420 C 0.66636 0.70586 0.18637
 C421 C 0.65994 0.69921 0.20051
 C422 C 0.66741 0.68571 0.20728
 C423 C 0.68068 0.67861 0.19981
 C424 C 0.68688 0.68528 0.18556
 C425 C 0.68583 0.70547 0.16461
 C426 C 0.69863 0.69810 0.15646
 C427 C 0.70573 0.68442 0.16329
 C428 C 0.70000 0.67803 0.17780
 C429 C 0.70690 0.66423 0.18442
 C430 C 0.70060 0.65726 0.19848
 C431 C 0.68752 0.66466 0.20612
 H432 H 0.66059 0.71603 0.18079
 H433 H 0.66286 0.68061 0.21834
 H434 H 0.68045 0.71622 0.15979
 H435 H 0.71538 0.67837 0.15708
 H436 H 0.71716 0.65891 0.17853
 H437 H 0.68226 0.65929 0.21672
 C438 C 0.17790 0.05245 1.07078
 C439 C 0.16464 0.04491 1.06373
 C440 C 0.15745 0.05102 1.04961
 C441 C 0.16461 0.06449 1.04230
 C442 C 0.17770 0.07223 1.04935
 C443 C 0.18429 0.06629 1.06371
 C444 C 0.18456 0.04652 1.08506
 C445 C 0.19745 0.05435 1.09276
 C446 C 0.20357 0.06837 1.08549
 C447 C 0.19712 0.07432 1.07111
 C448 C 0.20302 0.08849 1.06427
 C449 C 0.19643 0.09458 1.04994
 C450 C 0.18401 0.08610 1.04240
 H451 H 0.15942 0.03488 1.07001
 H452 H 0.16022 0.06904 1.03096
 H453 H 0.17987 0.03542 1.08974
 H454 H 0.21291 0.07521 1.09126
 H455 H 0.21244 0.09499 1.07035
 H456 H 0.17903 0.09044 1.03120
 C457 C 0.57236 0.17683 0.55391
 C458 C 0.58660 0.18328 0.54782
 C459 C 0.59339 0.19706 0.55468
 C460 C 0.58585 0.20418 0.56801
 C461 C 0.57171 0.19773 0.57437
 C462 C 0.56483 0.18414 0.56716
 C463 C 0.56572 0.16299 0.54714
 C464 C 0.55146 0.15646 0.55326
 C465 C 0.54380 0.16413 0.56621
 C466 C 0.55051 0.17774 0.57334
 C467 C 0.54330 0.18480 0.58679
 C468 C 0.55042 0.19795 0.59451
 C469 C 0.56453 0.20449 0.58802
 H470 H 0.59251 0.17742 0.53783
 H471 H 0.59087 0.21486 0.57335
 H472 H 0.57189 0.15711 0.53733
 H473 H 0.53266 0.15943 0.57088
 H474 H 0.53223 0.17987 0.59139
 H475 H 0.57026 0.21451 0.59390
 C476 C 0.07109 0.54988 0.67908
 C477 C 0.08482 0.54309 0.68594
 C478 C 0.09289 0.55077 0.69860
 C479 C 0.08665 0.56517 0.70471
 C480 C 0.07271 0.57191 0.69821
 C481 C 0.06498 0.56432 0.68525
 C482 C 0.06365 0.54263 0.66588
 C483 C 0.05042 0.54986 0.65834
 C484 C 0.04414 0.56407 0.66485
 C485 C 0.05126 0.57128 0.67829
 C486 C 0.04509 0.58552 0.68466
 C487 C 0.05265 0.59317 0.69769
 C488 C 0.06656 0.58629 0.70427
 H489 H 0.08930 0.53185 0.68129
 H490 H 0.09285 0.57136 0.71430
 H491 H 0.06836 0.53146 0.66131
 H492 H 0.03406 0.56988 0.65912
 H493 H 0.03431 0.59057 0.67952
 H494 H 0.07277 0.59225 0.71400
 C495 C 0.67948 0.57301 0.04787
 C496 C 0.66559 0.56622 0.04137
 C497 C 0.65807 0.55320 0.04896
 C498 C 0.66497 0.54673 0.06295
 C499 C 0.67908 0.55317 0.06937
 C500 C 0.68631 0.56642 0.06187
 C501 C 0.68641 0.58653 0.04079
 C502 C 0.69989 0.59386 0.04774
 C503 C 0.70686 0.58693 0.06147
 C504 C 0.70021 0.57325 0.06852
 C505 C 0.70706 0.56652 0.08234
 C506 C 0.69995 0.55329 0.08994
 C507 C 0.68587 0.54677 0.08338
 H508 H 0.66058 0.57117 0.03045
 H509 H 0.65918 0.53690 0.06910
 H510 H 0.68114 0.59150 0.03000
 H511 H 0.71713 0.59252 0.06708
 H512 H 0.71798 0.57159 0.08711
 H513 H 0.68000 0.53686 0.08932
 C514 C 0.04924 0.67896 0.56955
 C515 C 0.04214 0.68595 0.58309
 C516 C 0.04946 0.69888 0.59102
 C517 C 0.06347 0.70551 0.58442
 C518 C 0.07046 0.69893 0.57057
 C519 C 0.06352 0.68537 0.56333
 C520 C 0.04254 0.66531 0.56250
 C521 C 0.05023 0.65754 0.54964
 C522 C 0.06443 0.66412 0.54340
 C523 C 0.07103 0.67804 0.55007
 C524 C 0.08527 0.68448 0.54396
 C525 C 0.09209 0.69827 0.55081
 C526 C 0.08454 0.70540 0.56414
 H527 H 0.03109 0.68099 0.58771
 H528 H 0.06938 0.71536 0.59040
 H529 H 0.03144 0.66059 0.56724
 H530 H 0.07062 0.65818 0.53365
 H531 H 0.09119 0.67856 0.53402
 H532 H 0.08955 0.71607 0.56950
 C533 C 0.55068 1.07059 0.68109
 C534 C 0.54327 1.06396 0.66752
 C535 C 0.54965 1.05032 0.65980
 C536 C 0.56358 1.04332 0.66642
 C537 C 0.57112 1.04990 0.67993
 C538 C 0.56470 1.06360 0.68728
 C539 C 0.54441 1.08434 0.68838
 C540 C 0.55192 1.09122 0.70184
 C541 C 0.56592 1.08409 0.70795
 C542 C 0.57245 1.07046 0.70066
 C543 C 0.58683 1.06384 0.70627
 C544 C 0.59354 1.05033 0.69878
 C545 C 0.58534 1.04324 0.68584
 H546 H 0.53223 1.06931 0.66336
 H547 H 0.56930 1.03328 0.66058
 H548 H 0.53387 1.08992 0.68327
 H549 H 0.57175 1.08912 0.71841
 H550 H 0.59307 1.06960 0.71610
 H551 H 0.59012 1.03259 0.68020
 C552 C 0.42235 0.32883 0.94544
 C553 C 0.42926 0.34282 0.95167
 C554 C 0.44400 0.34871 0.94568
 C555 C 0.45180 0.33970 0.93360
 C556 C 0.44482 0.32599 0.92702
 C557 C 0.43002 0.32056 0.93287
 C558 C 0.40771 0.32312 0.95140
 C559 C 0.40067 0.30923 0.94499
 C560 C 0.40831 0.30129 0.93221
 C561 C 0.42286 0.30691 0.92606
 C562 C 0.43025 0.29918 0.91306
 C563 C 0.44498 0.30464 0.90698
 C564 C 0.45237 0.31780 0.91443
 H565 H 0.42259 0.34939 0.96062
 H566 H 0.46353 0.34307 0.92931
 H567 H 0.40173 0.32956 0.96097
 H568 H 0.40310 0.29053 0.92724
 H569 H 0.42424 0.28918 0.90742
 H570 H 0.46395 0.32189 0.91028
 C571 C 0.92571 0.44551 0.32401
 C572 C 0.93242 0.45217 0.33793
 C573 C 0.94592 0.44520 0.34545
 C574 C 0.95256 0.43132 0.33837
 C575 C 0.94591 0.42452 0.32449
 C576 C 0.93246 0.43165 0.31726
 C577 C 0.91213 0.45240 0.31693
 C578 C 0.90506 0.44552 0.30324
 C579 C 0.91202 0.43177 0.29647
 C580 C 0.92568 0.42483 0.30336
 C581 C 0.93249 0.41103 0.29668
 C582 C 0.94583 0.40368 0.30389
 C583 C 0.95246 0.41058 0.31781
 H584 H 0.92646 0.46235 0.34323
 H585 H 0.96330 0.42594 0.34321
 H586 H 0.90709 0.46317 0.32207
 H587 H 0.90658 0.42618 0.28608
 H588 H 0.92740 0.40607 0.28580
 H589 H 0.96252 0.40490 0.32371
 C590 C 0.32597 0.94379 0.42400
 C591 C 0.31947 0.94988 0.40969
 C592 C 0.30647 0.94228 0.40214
 C593 C 0.30003 0.92841 0.40914
 C594 C 0.30625 0.92231 0.42353
 C595 C 0.31926 0.93003 0.43100
 C596 C 0.33920 0.95114 0.43125
 C597 C 0.34599 0.94503 0.44558
 C598 C 0.33870 0.93149 0.45265
 C599 C 0.32559 0.92394 0.44542
 C600 C 0.31877 0.91030 0.45241
 C601 C 0.30589 0.90243 0.44499
 C602 C 0.29973 0.90853 0.43050
 H603 H 0.32444 0.96068 0.40455
 H604 H 0.29025 0.92222 0.40330
 H605 H 0.34460 0.96115 0.42508
 H606 H 0.34283 0.92690 0.46407
 H607 H 0.32349 0.90583 0.46368
 H608 H 0.28998 0.90243 0.42452
 O609 O 0.24920 0.54399 0.73041
 O610 O 0.27705 0.53880 0.73114
 O611 O 0.23104 0.50267 0.70581
 O612 O 0.23214 0.47610 0.70908
 O613 O 0.20749 0.51948 0.74823
 O614 O 0.21303 0.51777 0.77612
 O615 O 0.27348 0.46000 0.74926
 O616 O 0.27067 0.46501 0.72127
 O617 O 0.29186 0.49938 0.77075
 O618 O 0.28575 0.52863 0.76990
 O619 O 0.25255 0.47804 0.78966
 O620 O 0.22328 0.47903 0.78383
 O621 O 0.25340 0.45814 0.76759
 O622 O 0.22393 0.46300 0.76556
 O623 O 0.27019 0.49861 0.79133
 O624 O 0.26803 0.52787 0.78631
 O625 O 0.29341 0.48149 0.75028
 O626 O 0.28840 0.48476 0.72101
 O627 O 0.22914 0.54258 0.74885
 O628 O 0.23065 0.53566 0.77720
 O629 O 0.20854 0.50153 0.72774
 O630 O 0.21558 0.47290 0.72956
 O631 O 0.24968 0.52245 0.70670
 O632 O 0.27796 0.52143 0.71310
 Zr633 Zr 0.25921 0.52097 0.73015
 O634 O 0.27481 0.50706 0.74424
 Zr635 Zr 0.23195 0.49217 0.72870
 O636 O 0.24660 0.47671 0.74229
 Zr637 Zr 0.23067 0.51914 0.75798
 O638 O 0.24482 0.50477 0.77311
 Zr639 Zr 0.27078 0.48283 0.73927
 O640 O 0.25629 0.49679 0.72384
 Zr641 Zr 0.26904 0.50968 0.76867
 O642 O 0.25484 0.52532 0.75472
 Zr643 Zr 0.24207 0.48059 0.76683
 O644 O 0.22618 0.49487 0.75316
 O645 O 0.23507 0.51627 0.73360
 O646 O 0.26623 0.48551 0.76371
 C647 C 0.23751 0.55013 0.73833
 C648 C 0.23872 0.51439 0.69949
 C649 C 0.20117 0.51196 0.73636
 C650 C 0.26573 0.45254 0.76028
 C651 C 0.29919 0.48850 0.76272
 C652 C 0.26328 0.48616 0.79708
 H653 H 0.28599 0.51020 0.74207
 H654 H 0.24190 0.50678 0.78443
 H655 H 0.22815 0.52319 0.72692
 H656 H 0.24470 0.46549 0.73913
 H657 H 0.26539 0.46975 0.71174
 H658 H 0.23872 0.46680 0.71225
 H659 H 0.25854 0.52586 0.79311
 H660 H 0.24082 0.54167 0.77647
 H661 H 0.29523 0.49408 0.72342
 H662 H 0.27748 0.51118 0.70721
 H663 H 0.22449 0.48798 0.79149
 H664 H 0.20886 0.50672 0.77584
 H665 H 0.27713 0.54279 0.74234
 H666 H 0.29340 0.52735 0.76093
 H667 H 0.20918 0.47422 0.73949
 H668 H 0.22608 0.45627 0.75603
 O669 O 0.20792 0.02012 0.24856
 O670 O 0.21404 0.01794 0.27669
 O671 O 0.25009 0.04317 0.23027
 O672 O 0.27637 0.03832 0.22939
 O673 O 0.22988 0.00239 0.20599
 O674 O 0.23133 -0.02591 0.21085
 O675 O 0.29246 -0.00249 0.26918
 O676 O 0.28794 0.02544 0.26737
 O677 O 0.25189 -0.02225 0.28990
 O678 O 0.22263 -0.02038 0.28422
 O679 O 0.27097 -0.04209 0.24849
 O680 O 0.26940 -0.03537 0.21936
 O681 O 0.29197 -0.02132 0.24953
 O682 O 0.28656 -0.01831 0.22004
 O683 O 0.25158 -0.04279 0.26762
 O684 O 0.22259 -0.03687 0.26664
 O685 O 0.27180 -0.00377 0.29012
 O686 O 0.26922 0.02564 0.28629
 O687 O 0.20795 0.00195 0.22822
 O688 O 0.21350 -0.02638 0.22895
 O689 O 0.24914 0.02154 0.20654
 O690 O 0.27782 0.01839 0.21242
 O691 O 0.23040 0.04232 0.24914
 O692 O 0.23198 0.03551 0.27719
 Zr693 Zr 0.23126 0.01887 0.25811
 O694 O 0.24532 0.00416 0.27299
 Zr695 Zr 0.25925 0.01973 0.22969
 O696 O 0.27464 0.00514 0.24342
 Zr697 Zr 0.23096 -0.00815 0.22890
 O698 O 0.24505 -0.02407 0.24243
 Zr699 Zr 0.26965 0.00802 0.26796
 O700 O 0.25564 0.02417 0.25438
 Zr701 Zr 0.24132 -0.01987 0.26704
 O702 O 0.22572 -0.00521 0.25347
 Zr703 Zr 0.26938 -0.01896 0.23872
 O704 O 0.25525 -0.00433 0.22355
 O705 O 0.23507 0.01583 0.23365
 O706 O 0.26561 -0.01605 0.26324
 C707 C 0.20116 0.01278 0.23679
 C708 C 0.23870 0.04963 0.23842
 C709 C 0.23781 0.01385 0.19950
 C710 C 0.29877 -0.01411 0.26132
 C711 C 0.26389 -0.01526 0.29652
 C712 C 0.26319 -0.04913 0.25977
 H713 H 0.24272 0.00630 0.28436
 H714 H 0.24240 -0.03517 0.23940
 H715 H 0.22827 0.02302 0.22712
 H716 H 0.28593 0.00777 0.24107
 H717 H 0.28316 0.03521 0.26266
 H718 H 0.28564 0.03470 0.23581
 H719 H 0.22371 -0.04323 0.25669
 H720 H 0.20815 -0.02590 0.23955
 H721 H 0.26032 0.02323 0.29371
 H722 H 0.24273 0.04043 0.27690
 H723 H 0.25993 -0.04235 0.22057
 H724 H 0.24194 -0.02521 0.20561
 H725 H 0.20883 0.00736 0.27589
 H726 H 0.22427 -0.01137 0.29172
 H727 H 0.27604 0.00851 0.20614
 H728 H 0.29387 -0.00927 0.22218
 O729 O 0.54525 0.73007 0.25065
 O730 O 0.53953 0.73172 0.27889
 O731 O 0.50314 0.70734 0.23234
 O732 O 0.47696 0.71203 0.23168
 O733 O 0.52260 0.74924 0.20864
 O734 O 0.52160 0.77711 0.21440
 O735 O 0.46118 0.75244 0.27304
 O736 O 0.46539 0.72431 0.27023
 O737 O 0.50171 0.77142 0.29353
 O738 O 0.53049 0.77033 0.28765
 O739 O 0.48157 0.79180 0.25290
 O740 O 0.48336 0.78602 0.22344
 O741 O 0.46061 0.77047 0.25263
 O742 O 0.46648 0.76885 0.22355
 O743 O 0.50137 0.79251 0.27159
 O744 O 0.53070 0.78657 0.26986
 O745 O 0.48238 0.75237 0.29382
 O746 O 0.48421 0.72351 0.28894
 O747 O 0.54532 0.74928 0.23129
 O748 O 0.53922 0.77740 0.23225
 O749 O 0.50400 0.72943 0.20924
 O750 O 0.47521 0.73242 0.21536
 O751 O 0.52324 0.70793 0.25077
 O752 O 0.52154 0.71398 0.27916
 Zr753 Zr 0.52211 0.73111 0.26050
 O754 O 0.50817 0.74547 0.27584
 Zr755 Zr 0.49394 0.73073 0.23242
 O756 O 0.47856 0.74485 0.24664
 Zr757 Zr 0.52203 0.75890 0.23199
 O758 O 0.50785 0.77438 0.24596
 Zr759 Zr 0.48380 0.74159 0.27108
 O760 O 0.49773 0.72575 0.25697
 Zr761 Zr 0.51187 0.76969 0.27043
 O762 O 0.52743 0.75537 0.25644
 Zr763 Zr 0.48354 0.76908 0.24235
 O764 O 0.49771 0.75495 0.22678
 O765 O 0.51814 0.73476 0.23615
 O766 O 0.48754 0.76579 0.26681
 C767 C 0.55210 0.73807 0.23939
 C768 C 0.51480 0.70082 0.24001
 C769 C 0.51482 0.73771 0.20209
 C770 C 0.45428 0.76344 0.26478
 C771 C 0.49019 0.76386 0.30036
 C772 C 0.48948 0.79878 0.26410
 H773 H 0.51094 0.74307 0.28712
 H774 H 0.51035 0.78557 0.24316
 H775 H 0.52497 0.72785 0.22935
 H776 H 0.46728 0.74215 0.24433
 H777 H 0.47005 0.71465 0.26519
 H778 H 0.46777 0.71534 0.23838
 H779 H 0.52888 0.79373 0.26059
 H780 H 0.54460 0.77686 0.24283
 H781 H 0.49400 0.72487 0.29546
 H782 H 0.51103 0.70860 0.27843
 H783 H 0.49241 0.79342 0.22514
 H784 H 0.51075 0.77695 0.20964
 H785 H 0.54470 0.74233 0.27823
 H786 H 0.52966 0.76058 0.29430
 H787 H 0.47719 0.74217 0.20893
 H788 H 0.45971 0.75927 0.22498
 O789 O 0.04378 0.72932 0.74836
 O790 O 0.03855 0.73082 0.77670
 O791 O 0.00189 0.70724 0.72980
 O792 O -0.02471 0.71160 0.73102
 O793 O 0.02091 0.74847 0.70688
 O794 O 0.01951 0.77660 0.71268
 O795 O -0.04011 0.75116 0.77182
 O796 O -0.03556 0.72334 0.76901
 O797 O 0.00060 0.77064 0.79212
 O798 O 0.02986 0.76883 0.78586
 O799 O -0.01907 0.79162 0.75177
 O800 O -0.01845 0.78576 0.72263
 O801 O -0.04014 0.77070 0.75285
 O802 O -0.03538 0.76853 0.72313
 O803 O 0.00060 0.79174 0.77057
 O804 O 0.02959 0.78583 0.76877
 O805 O -0.01833 0.75119 0.79273
 O806 O -0.01673 0.72257 0.78753
 O807 O 0.04374 0.74887 0.72934
 O808 O 0.03762 0.77684 0.73020
 O809 O 0.00166 0.72930 0.70764
 O810 O -0.02673 0.73215 0.71415
 O811 O 0.02130 0.70709 0.74898
 O812 O 0.02070 0.71319 0.77724
 Zr813 Zr 0.02081 0.73036 0.75861
 O814 O 0.00713 0.74459 0.77429
 Zr815 Zr -0.00779 0.73039 0.73097
 O816 O -0.02287 0.74448 0.74551
 Zr817 Zr 0.02041 0.75837 0.73023
 O818 O 0.00660 0.77380 0.74466
 Zr819 Zr -0.01730 0.74078 0.76981
 O820 O -0.00361 0.72507 0.75537
 Zr821 Zr 0.01085 0.76884 0.76905
 O822 O 0.02613 0.75464 0.75461
 Zr823 Zr -0.01779 0.76874 0.74143
 O824 O -0.00401 0.75464 0.72546
 O825 O 0.01649 0.73425 0.73437
 O826 O -0.01353 0.76505 0.76579
 C827 C 0.05057 0.73754 0.73722
 C828 C 0.01319 0.70038 0.73771
 C829 C 0.01277 0.73711 0.70042
 C830 C -0.04667 0.76294 0.76442
 C831 C -0.01062 0.76280 0.79916
 C832 C -0.01109 0.79836 0.76307
 H833 H 0.01003 0.74208 0.78551
 H834 H 0.00916 0.78500 0.74193
 H835 H 0.02324 0.72738 0.72746
 H836 H -0.03420 0.74189 0.74333
 H837 H -0.03090 0.71377 0.76380
 H838 H -0.03420 0.71535 0.73703
 H839 H 0.02809 0.79271 0.75922
 H840 H 0.04294 0.77650 0.74082
 H841 H -0.00680 0.72378 0.79387
 H842 H 0.01011 0.70793 0.77688
 H843 H -0.00875 0.79244 0.72351
 H844 H 0.00879 0.77596 0.70767
 H845 H 0.04357 0.74151 0.77617
 H846 H 0.02830 0.75968 0.79321
 H847 H -0.02522 0.74230 0.70824
 H848 H -0.04271 0.75950 0.72525
 O849 O 0.00170 0.04228 0.02077
 O850 O -0.02638 0.03671 0.01978
 O851 O 0.02011 0.00000 0.04355
 O852 O 0.02046 -0.02620 0.03881
 O853 O 0.04302 0.01959 0.00143
 O854 O 0.03713 0.01822 -0.02675
 O855 O -0.02075 -0.04193 -0.00039
 O856 O -0.01836 -0.03709 0.02742
 O857 O -0.04162 -0.00096 -0.02009
 O858 O -0.03553 0.02791 -0.01886
 O859 O -0.00137 -0.02093 -0.04138
 O860 O 0.02772 -0.01996 -0.03569
 O861 O -0.00204 -0.04186 -0.02021
 O862 O 0.02748 -0.03681 -0.01827
 O863 O -0.02022 -0.00139 -0.04152
 O864 O -0.01831 0.02779 -0.03571
 O865 O -0.04161 -0.02074 -0.00139
 O866 O -0.03670 -0.01813 0.02804
 O867 O 0.02122 0.04195 0.00171
 O868 O 0.01931 0.03620 -0.02672
 O869 O 0.04293 0.00045 0.02082
 O870 O 0.03637 -0.02814 0.01812
 O871 O 0.00157 0.01990 0.04332
 O872 O -0.02663 0.01881 0.03742
 Zr873 Zr -0.00820 0.01916 0.02003
 O874 O -0.02375 0.00536 0.00582
 Zr875 Zr 0.01965 -0.00922 0.02001
 O876 O 0.00517 -0.02441 0.00599
 Zr877 Zr 0.01983 0.01889 -0.00823
 O878 O 0.00563 0.00491 -0.02367
 Zr879 Zr -0.01907 -0.01900 0.00969
 O880 O -0.00469 -0.00521 0.02536
 Zr881 Zr -0.01862 0.00908 -0.01860
 O882 O -0.00441 0.02450 -0.00439
 Zr883 Zr 0.00909 -0.01941 -0.01846
 O884 O 0.02492 -0.00544 -0.00444
 O885 O 0.01596 0.01498 0.01610
 O886 O -0.01515 -0.01524 -0.01472
 C887 C 0.01316 0.04889 0.01287
 C888 C 0.01237 0.01146 0.05033
 C889 C 0.04980 0.01158 0.01270
 C890 C -0.01341 -0.04848 -0.01225
 C891 C -0.04825 -0.01272 -0.01274
 C892 C -0.01274 -0.01309 -0.04813
 H893 H -0.03494 0.00818 0.00835
 H894 H 0.00830 0.00743 -0.03495
 H895 H 0.02282 0.02169 0.02304
 H896 H 0.00743 -0.03569 0.00867
 H897 H -0.01309 -0.03240 0.03698
 H898 H 0.01355 -0.03524 0.03562
 H899 H -0.00896 0.02613 -0.04281
 H900 H 0.00888 0.04173 -0.02584
 H901 H -0.04398 -0.00909 0.02582
 H902 H -0.02629 0.00811 0.04248
 H903 H 0.02658 -0.01041 -0.04260
 H904 H 0.04213 0.00751 -0.02628
 H905 H -0.02600 0.04176 0.00903
 H906 H -0.04236 0.02680 -0.00922
 H907 H 0.04240 -0.02645 0.00802
 H908 H 0.02551 -0.04408 -0.00911
 O909 O 0.00145 0.54192 0.52079
 O910 O -0.02673 0.53661 0.51917
 O911 O 0.02026 0.50034 0.54276
 O912 O 0.01974 0.47391 0.53846
 O913 O 0.04250 0.51979 0.50115
 O914 O 0.03691 0.51827 0.47297
 O915 O -0.02137 0.45809 0.49860
 O916 O -0.01876 0.46253 0.52655
 O917 O -0.04191 0.49885 0.47918
 O918 O -0.03618 0.52746 0.48028
 O919 O -0.00183 0.47869 0.45823
 O920 O 0.02728 0.47998 0.46361
 O921 O -0.00175 0.45769 0.47970
 O922 O 0.02753 0.46340 0.48120
 O923 O -0.02043 0.49849 0.45787
 O924 O -0.01837 0.52790 0.46401
 O925 O -0.04203 0.47917 0.49797
 O926 O -0.03704 0.48165 0.52744
 O927 O 0.02008 0.54212 0.50085
 O928 O 0.01903 0.53592 0.47256
 O929 O 0.04261 0.50017 0.52007
 O930 O 0.03596 0.47173 0.51773
 O931 O 0.00073 0.51929 0.54304
 O932 O -0.02732 0.51858 0.53673
 Zr933 Zr -0.00868 0.51893 0.51957
 O934 O -0.02416 0.50517 0.50522
 Zr935 Zr 0.01927 0.49069 0.51946
 O936 O 0.00482 0.47546 0.50545
 Zr937 Zr 0.01938 0.51885 0.49128
 O938 O 0.00530 0.50478 0.47580
 Zr939 Zr -0.01947 0.48082 0.50905
 O940 O -0.00511 0.49456 0.52481
 Zr941 Zr -0.01895 0.50892 0.48082
 O942 O -0.00488 0.52435 0.49514
 Zr943 Zr 0.00882 0.48046 0.48102
 O944 O 0.02456 0.49453 0.49504
 O945 O 0.01550 0.51489 0.51559
 O946 O -0.01544 0.48460 0.48466
 C947 C 0.01238 0.54882 0.51242
 C948 C 0.01207 0.51134 0.54976
 C949 C 0.04939 0.51151 0.51218
 C950 C -0.01350 0.45125 0.48726
 C951 C -0.04860 0.48713 0.48652
 C952 C -0.01307 0.48665 0.45139
 H953 H -0.03537 0.50797 0.50773
 H954 H 0.00797 0.50732 0.46452
 H955 H 0.02236 0.52163 0.52251
 H956 H 0.00711 0.46419 0.50814
 H957 H -0.01352 0.46712 0.53617
 H958 H 0.01315 0.46469 0.53511
 H959 H -0.00950 0.52584 0.45642
 H960 H 0.00856 0.54141 0.47321
 H961 H -0.04443 0.49059 0.52517
 H962 H -0.02706 0.50788 0.54178
 H963 H 0.02611 0.48956 0.45677
 H964 H 0.04174 0.50748 0.47332
 H965 H -0.02612 0.54178 0.50849
 H966 H -0.04244 0.52687 0.49035
 H967 H 0.04206 0.47336 0.50767
 H968 H 0.02578 0.45621 0.49047
 O969 O 0.50023 0.04289 0.52198
 O970 O 0.47206 0.03793 0.52032
 O971 O 0.51758 0.00114 0.54569
 O972 O 0.51857 -0.02501 0.54157
 O973 O 0.54136 0.01947 0.50298
 O974 O 0.53565 0.01769 0.47501
 O975 O 0.47635 -0.04103 0.50197
 O976 O 0.47917 -0.03611 0.52995
 O977 O 0.45665 -0.00078 0.48150
 O978 O 0.46292 0.02772 0.48148
 O979 O 0.49671 -0.02238 0.46160
 O980 O 0.52585 -0.02113 0.46707
 O981 O 0.49618 -0.04239 0.48335
 O982 O 0.52576 -0.03709 0.48543
 O983 O 0.47807 -0.00264 0.46039
 O984 O 0.48090 0.02714 0.46522
 O985 O 0.45621 -0.01979 0.50100
 O986 O 0.46121 -0.01658 0.53041
 O987 O 0.51930 0.04228 0.50246
 O988 O 0.51784 0.03539 0.47414
 O989 O 0.54066 0.00151 0.52349
 O990 O 0.53414 -0.02752 0.52091
 O991 O 0.49942 0.02136 0.54476
 O992 O 0.47114 0.02027 0.53842
 Zr993 Zr 0.48989 0.02004 0.52137
 O994 O 0.47436 0.00605 0.50733
 Zr995 Zr 0.51752 -0.00848 0.52238
 O996 O 0.50297 -0.02401 0.50883
 Zr997 Zr 0.51814 0.01881 0.49330
 O998 O 0.50406 0.00433 0.47819
 Zr999 Zr 0.47876 -0.01819 0.51205
 O1000 O 0.49316 -0.00417 0.52745
 Zr1001 Zr 0.47980 0.00892 0.48283
 O1002 O 0.49391 0.02466 0.49680
 Zr1003 Zr 0.50727 -0.01983 0.48431
 O1004 O 0.52306 -0.00543 0.49791
 O1005 O 0.51404 0.01561 0.51771
 O1006 O 0.48305 -0.01525 0.48762
 C1007 C 0.51154 0.04935 0.51377
 C1008 C 0.50999 0.01289 0.55209
 C1009 C 0.54781 0.01210 0.51488
 C1010 C 0.48404 -0.04827 0.49075
 C1011 C 0.44980 -0.01216 0.48924
 C1012 C 0.48534 -0.01485 0.45450
 H1013 H 0.46318 0.00908 0.50966
 H1014 H 0.50683 0.00640 0.46683
 H1015 H 0.52087 0.02246 0.52454
 H1016 H 0.50505 -0.03523 0.51189
 H1017 H 0.48450 -0.03139 0.53945
 H1018 H 0.51117 -0.03382 0.53893
 H1019 H 0.48958 0.02443 0.45762
 H1020 H 0.50747 0.04107 0.47477
 H1021 H 0.45403 -0.00752 0.52791
 H1022 H 0.47164 0.00991 0.54414
 H1023 H 0.52467 -0.01194 0.45970
 H1024 H 0.54014 0.00676 0.47537
 H1025 H 0.47279 0.04277 0.50949
 H1026 H 0.45664 0.02764 0.49155
 H1027 H 0.54079 -0.02560 0.51126
 H1028 H 0.52356 -0.04417 0.49469
 O1029 O 0.54250 0.52308 0.00068
 O1030 O 0.53714 0.52156 -0.02765
 O1031 O 0.50059 0.54448 0.01966
 O1032 O 0.47411 0.53977 0.01911
 O1033 O 0.52025 0.50291 0.04211
 O1034 O 0.51954 0.47500 0.03599
 O1035 O 0.45869 0.50048 -0.02206
 O1036 O 0.46297 0.52822 -0.01939
 O1037 O 0.50009 0.48190 -0.04326
 O1038 O 0.52870 0.48300 -0.03706
 O1039 O 0.48023 0.46006 -0.00252
 O1040 O 0.48124 0.46569 0.02663
 O1041 O 0.45903 0.48083 -0.00322
 O1042 O 0.46419 0.48289 0.02653
 O1043 O 0.49916 0.46058 -0.02207
 O1044 O 0.52879 0.46635 -0.01956
 O1045 O 0.47975 0.49993 -0.04292
 O1046 O 0.48195 0.52928 -0.03788
 O1047 O 0.54295 0.50328 0.01943
 O1048 O 0.53721 0.47515 0.01815
 O1049 O 0.50109 0.52222 0.04186
 O1050 O 0.47251 0.51905 0.03559
 O1051 O 0.51969 0.54494 0.00019
 O1052 O 0.51895 0.53891 -0.02804
 Zr1053 Zr 0.51949 0.52171 -0.00945
 O1054 O 0.50583 0.50744 -0.02508
 Zr1055 Zr 0.49126 0.52118 0.01861
 O1056 O 0.47616 0.50710 0.00410
 Zr1057 Zr 0.51978 0.49344 0.01864
 O1058 O 0.50590 0.47799 0.00434
 Zr1059 Zr 0.48142 0.51095 -0.02027
 O1060 O 0.49505 0.52669 -0.00583
 Zr1061 Zr 0.50990 0.48321 -0.02002
 O1062 O 0.52519 0.49747 -0.00575
 Zr1063 Zr 0.48150 0.48286 0.00796
 O1064 O 0.49539 0.49692 0.02383
 O1065 O 0.51553 0.51758 0.01482
 O1066 O 0.48553 0.48675 -0.01640
 C1067 C 0.54950 0.51485 0.01167
 C1068 C 0.51164 0.55152 0.01157
 C1069 C 0.51219 0.51417 0.04884
 C1070 C 0.45231 0.48859 -0.01472
 C1071 C 0.48805 0.48893 -0.04975
 C1072 C 0.48774 0.45372 -0.01438
 H1073 H 0.50859 0.51005 -0.03632
 H1074 H 0.50856 0.46678 0.00693
 H1075 H 0.52223 0.52448 0.02173
 H1076 H 0.46483 0.50960 0.00641
 H1077 H 0.46751 0.53777 -0.01406
 H1078 H 0.46478 0.53617 0.01278
 H1079 H 0.52654 0.45857 -0.01091
 H1080 H 0.54235 0.47568 0.00745
 H1081 H 0.49087 0.52711 -0.04537
 H1082 H 0.50815 0.54375 -0.02780
 H1083 H 0.49092 0.45900 0.02548
 H1084 H 0.50879 0.47520 0.04097
 H1085 H 0.54259 0.51108 -0.02696
 H1086 H 0.52796 0.49298 -0.04338
 H1087 H 0.47434 0.50899 0.04156
 H1088 H 0.45667 0.49178 0.02447
 O1089 O 0.78954 0.25389 0.47908
 O1090 O 0.78322 0.22608 0.47901
 O1091 O 0.74791 0.27499 0.45809
 O1092 O 0.72142 0.27466 0.46265
 O1093 O 0.76830 0.29500 0.50022
 O1094 O 0.76706 0.28819 0.52826
 O1095 O 0.70507 0.23266 0.50083
 O1096 O 0.70940 0.23629 0.47298
 O1097 O 0.74547 0.21040 0.51910
 O1098 O 0.77460 0.21563 0.51762
 O1099 O 0.72738 0.25067 0.54229
 O1100 O 0.72834 0.27943 0.53736
 O1101 O 0.70589 0.25047 0.52144
 O1102 O 0.71144 0.28016 0.51998
 O1103 O 0.74567 0.23062 0.54104
 O1104 O 0.77514 0.23235 0.53511
 O1105 O 0.72600 0.21123 0.50008
 O1106 O 0.72786 0.21755 0.47117
 O1107 O 0.78998 0.27255 0.49896
 O1108 O 0.78448 0.26982 0.52742
 O1109 O 0.74849 0.29621 0.48152
 O1110 O 0.71987 0.29017 0.48412
 O1111 O 0.76674 0.25537 0.45685
 O1112 O 0.76496 0.22695 0.46171
 Zr1113 Zr 0.76612 0.24466 0.47978
 O1114 O 0.75213 0.22894 0.49364
 Zr1115 Zr 0.73843 0.27315 0.48141
 O1116 O 0.72304 0.25850 0.49503
 Zr1117 Zr 0.76698 0.27154 0.50917
 O1118 O 0.75279 0.25716 0.52424
 Zr1119 Zr 0.72783 0.23433 0.49028
 O1120 O 0.74175 0.24899 0.47496
 Zr1121 Zr 0.75623 0.23305 0.51820
 O1122 O 0.77186 0.24735 0.50428
 Zr1123 Zr 0.72846 0.26141 0.51952
 O1124 O 0.74270 0.27739 0.50596
 O1125 O 0.76261 0.26868 0.48480
 O1126 O 0.73195 0.23726 0.51477
 C1127 C 0.79656 0.26481 0.48736
 C1128 C 0.75892 0.26713 0.45071
 C1129 C 0.76012 0.30242 0.48947
 C1130 C 0.69890 0.23957 0.51315
 C1131 C 0.73375 0.20414 0.51136
 C1132 C 0.73465 0.23854 0.54829
 H1133 H 0.75466 0.21781 0.49065
 H1134 H 0.75553 0.25935 0.53558
 H1135 H 0.76946 0.27565 0.47812
 H1136 H 0.71176 0.26111 0.49262
 H1137 H 0.71405 0.24182 0.46356
 H1138 H 0.71195 0.26842 0.46600
 H1139 H 0.77345 0.24112 0.54289
 H1140 H 0.78963 0.25925 0.52614
 H1141 H 0.73723 0.21046 0.47245
 H1142 H 0.75435 0.22805 0.45655
 H1143 H 0.73841 0.27847 0.54352
 H1144 H 0.75659 0.29372 0.52793
 H1145 H 0.78825 0.22572 0.48977
 H1146 H 0.77314 0.20916 0.50779
 H1147 H 0.72168 0.29564 0.49451
 H1148 H 0.70357 0.27819 0.51133
 O1149 O 0.75074 0.77252 -0.04296
 O1150 O 0.72263 0.77121 -0.03714
 O1151 O 0.77003 0.79423 -0.00101
 O1152 O 0.77043 0.78955 0.02543
 O1153 O 0.79194 0.75274 -0.02158
 O1154 O 0.78629 0.72470 -0.01986
 O1155 O 0.72890 0.75024 0.04152
 O1156 O 0.73172 0.77804 0.03724
 O1157 O 0.70758 0.73160 0.00053
 O1158 O 0.71319 0.73239 -0.02811
 O1159 O 0.74872 0.70970 0.01974
 O1160 O 0.77730 0.71548 0.01903
 O1161 O 0.74811 0.73103 0.04159
 O1162 O 0.77753 0.73288 0.03570
 O1163 O 0.72880 0.71021 0.00115
 O1164 O 0.73090 0.71606 -0.02864
 O1165 O 0.70799 0.74997 0.02063
 O1166 O 0.71319 0.77918 0.01831
 O1167 O 0.76932 0.75265 -0.04350
 O1168 O 0.76807 0.72443 -0.03735
 O1169 O 0.79244 0.77147 -0.00176
 O1170 O 0.78624 0.76878 0.02715
 O1171 O 0.75098 0.79432 -0.02055
 O1172 O 0.72264 0.78865 -0.01874
 Zr1173 Zr 0.74099 0.77129 -0.01968
 O1174 O 0.72558 0.75712 -0.00570
 Zr1175 Zr 0.76930 0.77087 0.00835
 O1176 O 0.75494 0.75697 0.02381
 Zr1177 Zr 0.76883 0.74298 -0.02014
 O1178 O 0.75485 0.72768 -0.00582
 Zr1179 Zr 0.73063 0.76076 0.01873
 O1180 O 0.74492 0.77639 0.00480
 Zr1181 Zr 0.73056 0.73286 -0.00962
 O1182 O 0.74453 0.74702 -0.02531
 Zr1183 Zr 0.75874 0.73268 0.01865
 O1184 O 0.77438 0.74657 0.00429
 O1185 O 0.76517 0.76713 -0.01594
 O1186 O 0.73443 0.73650 0.01484
 C1187 C 0.76163 0.76426 -0.05005
 C1188 C 0.76219 0.80105 -0.01243
 C1189 C 0.79897 0.76370 -0.01340
 C1190 C 0.73651 0.73869 0.04821
 C1191 C 0.70115 0.73886 0.01250
 C1192 C 0.73693 0.70327 0.01224
 H1193 H 0.71437 0.75972 -0.00837
 H1194 H 0.75745 0.71648 -0.00849
 H1195 H 0.77196 0.77398 -0.02282
 H1196 H 0.75734 0.75958 0.03514
 H1197 H 0.73699 0.78757 0.03260
 H1198 H 0.76368 0.78637 0.03465
 H1199 H 0.73953 0.70827 -0.02645
 H1200 H 0.75752 0.72519 -0.04270
 H1201 H 0.70585 0.77722 0.00921
 H1202 H 0.72345 0.79383 -0.00808
 H1203 H 0.77676 0.70943 0.00884
 H1204 H 0.79171 0.72537 -0.00931
 H1205 H 0.72316 0.76069 -0.04255
 H1206 H 0.70722 0.74258 -0.02767
 H1207 H 0.79233 0.75882 0.02521
 H1208 H 0.77563 0.74186 0.04318
 O1209 O 1.00056 0.20599 0.23076
 O1210 O 0.97244 0.21153 0.23274
 O1211 O 1.01912 0.24715 0.20775
 O1212 O 1.01926 0.27356 0.21175
 O1213 O 1.04227 0.22846 0.24988
 O1214 O 1.03665 0.22987 0.27790
 O1215 O 0.97847 0.29021 0.25217
 O1216 O 0.98096 0.28558 0.22407
 O1217 O 0.95785 0.24977 0.27191
 O1218 O 0.96379 0.22130 0.27170
 O1219 O 0.99836 0.27060 0.29200
 O1220 O 1.02766 0.26845 0.28644
 O1221 O 0.99880 0.29100 0.27028
 O1222 O 1.02783 0.28484 0.26862
 O1223 O 0.97947 0.25113 0.29309
 O1224 O 0.98176 0.22140 0.28787
 O1225 O 0.95769 0.26912 0.25276
 O1226 O 0.96253 0.26667 0.22350
 O1227 O 1.01965 0.20597 0.25026
 O1228 O 1.01863 0.21249 0.27858
 O1229 O 1.04174 0.24681 0.22970
 O1230 O 1.03580 0.27562 0.23228
 O1231 O 0.99975 0.22809 0.20816
 O1232 O 0.97173 0.22928 0.21485
 Zr1233 Zr 0.99061 0.22905 0.23175
 O1234 O 0.97545 0.24319 0.24607
 Zr1235 Zr 1.01873 0.25699 0.23094
 O1236 O 1.00462 0.27263 0.24486
 Zr1237 Zr 1.01906 0.22935 0.25967
 O1238 O 1.00529 0.24386 0.27507
 Zr1239 Zr 0.98026 0.26743 0.24173
 O1240 O 0.99426 0.25327 0.22599
 Zr1241 Zr 0.98092 0.23986 0.27049
 O1242 O 0.99469 0.22404 0.25623
 Zr1243 Zr 1.00895 0.26803 0.26929
 O1244 O 1.02437 0.25354 0.25533
 O1245 O 1.01486 0.23292 0.23533
 O1246 O 0.98459 0.26406 0.26610
 C1247 C 1.01170 0.19917 0.23892
 C1248 C 1.01093 0.23597 0.20111
 C1249 C 1.04879 0.23600 0.23811
 C1250 C 0.98672 0.29725 0.26311
 C1251 C 0.95110 0.26128 0.26426
 C1252 C 0.98693 0.26316 0.29908
 H1253 H 0.96421 0.24041 0.24373
 H1254 H 1.00806 0.24157 0.28638
 H1255 H 1.02156 0.22601 0.22843
 H1256 H 1.00695 0.28383 0.24194
 H1257 H 0.98616 0.28087 0.21447
 H1258 H 1.01289 0.28295 0.21507
 H1259 H 0.99051 0.22384 0.29547
 H1260 H 1.00808 0.20716 0.27808
 H1261 H 0.95553 0.25737 0.22553
 H1262 H 0.97218 0.23978 0.20940
 H1263 H 1.02593 0.25953 0.29403
 H1264 H 1.04126 0.24075 0.27773
 H1265 H 0.97332 0.20637 0.24340
 H1266 H 0.95759 0.22150 0.26158
 H1267 H 1.04224 0.27373 0.24208
 H1268 H 1.02627 0.29162 0.25901
 O1269 O 0.73296 1.00121 0.70375
 O1270 O 0.73407 0.97306 0.70953
 O1271 O 0.70932 1.01959 0.74590
 O1272 O 0.71357 1.01924 0.77250
 O1273 O 0.75137 1.04263 0.72713
 O1274 O 0.77958 1.03673 0.72895
 O1275 O 0.75268 0.97920 0.78911
 O1276 O 0.72450 0.98160 0.78307
 O1277 O 0.77273 0.95796 0.74792
 O1278 O 0.77184 0.96419 0.71889
 O1279 O 0.79394 0.99871 0.76793
 O1280 O 0.78768 1.02773 0.76702
 O1281 O 0.77270 0.99755 0.78896
 O1282 O 0.77054 1.02696 0.78413
 O1283 O 0.79385 0.97900 0.74915
 O1284 O 0.78895 0.98133 0.71951
 O1285 O 0.75419 0.95818 0.76787
 O1286 O 0.72721 0.96093 0.76469
 O1287 O 0.75161 1.02096 0.70454
 O1288 O 0.77971 1.01918 0.71060
 O1289 O 0.73193 1.04228 0.74627
 O1290 O 0.73366 1.03553 0.77488
 O1291 O 0.71026 1.00147 0.72556
 O1292 O 0.71613 0.97271 0.72644
 Zr1293 Zr 0.73322 0.99133 0.72706
 O1294 O 0.74710 0.97589 0.74136
 Zr1295 Zr 0.73256 1.01894 0.75571
 O1296 O 0.74656 1.00475 0.77123
 Zr1297 Zr 0.76116 1.01948 0.72786
 O1298 O 0.77640 1.00526 0.74206
 Zr1299 Zr 0.74306 0.98056 0.76581
 O1300 O 0.72741 0.99460 0.75153
 Zr1301 Zr 0.77144 0.98100 0.73789
 O1302 O 0.75759 0.99524 0.72213
 Zr1303 Zr 0.77093 1.00879 0.76644
 O1304 O 0.75691 1.02446 0.75228
 O1305 O 0.73694 1.01544 0.73141
 O1306 O 0.76735 0.98457 0.76230
 C1307 C 0.74072 1.01283 0.69733
 C1308 C 0.70301 1.01214 0.73395
 C1309 C 0.74008 1.04930 0.73522
 C1310 C 0.76460 0.98636 0.79568
 C1311 C 0.76544 0.95144 0.75982
 C1312 C 0.80047 0.98688 0.76060
 H1313 H 0.74445 0.96468 0.73875
 H1314 H 0.78765 1.00793 0.73964
 H1315 H 0.73019 1.02237 0.72457
 H1316 H 0.74374 1.00704 0.78253
 H1317 H 0.71468 0.98493 0.77731
 H1318 H 0.71655 1.01191 0.78132
 H1319 H 0.79615 0.99048 0.72152
 H1320 H 0.77932 1.00856 0.70539
 H1321 H 0.71832 0.96420 0.75761
 H1322 H 0.70841 0.97470 0.73523
 H1323 H 0.79480 1.02654 0.75760
 H1324 H 0.77860 1.04203 0.73954
 H1325 H 0.74470 0.97380 0.70434
 H1326 H 0.76225 0.95738 0.71995
 H1327 H 0.74393 1.04131 0.77378
 H1328 H 0.76130 1.02496 0.79128
 O1329 O 0.74953 0.54201 0.22760
 O1330 O 0.77767 0.53699 0.22973
 O1331 O 0.73278 0.50048 0.20287
 O1332 O 0.73217 0.47423 0.20661
 O1333 O 0.70797 0.51821 0.24512
 O1334 O 0.71303 0.51586 0.27326
 O1335 O 0.77323 0.45784 0.24691
 O1336 O 0.77094 0.46319 0.21888
 O1337 O 0.79211 0.49731 0.26869
 O1338 O 0.78590 0.52651 0.26807
 O1339 O 0.75231 0.47594 0.28715
 O1340 O 0.72316 0.47727 0.28124
 O1341 O 0.75276 0.45604 0.26481
 O1342 O 0.72348 0.46159 0.26278
 O1343 O 0.77030 0.49616 0.28908
 O1344 O 0.76812 0.52550 0.28447
 O1345 O 0.79362 0.47953 0.24809
 O1346 O 0.78902 0.48241 0.21915
 O1347 O 0.73001 0.54110 0.24667
 O1348 O 0.73063 0.53377 0.27481
 O1349 O 0.70936 0.50034 0.22457
 O1350 O 0.71590 0.47146 0.22681
 O1351 O 0.75069 0.52085 0.20453
 O1352 O 0.77886 0.51970 0.21126
 Zr1353 Zr 0.75987 0.51915 0.22803
 O1354 O 0.77519 0.50502 0.24219
 Zr1355 Zr 0.73251 0.49052 0.22605
 O1356 O 0.74679 0.47490 0.23978
 Zr1357 Zr 0.73097 0.51745 0.25543
 O1358 O 0.74488 0.50289 0.27067
 Zr1359 Zr 0.77104 0.48082 0.23708
 O1360 O 0.75693 0.49502 0.22154
 Zr1361 Zr 0.76921 0.50756 0.26658
 O1362 O 0.75525 0.52341 0.25257
 Zr1363 Zr 0.74198 0.47876 0.26428
 O1364 O 0.72639 0.49322 0.25043
 O1365 O 0.73568 0.51457 0.23109
 O1366 O 0.76626 0.48341 0.26149
 C1367 C 0.73806 0.54835 0.23568
 C1368 C 0.74032 0.51245 0.19686
 C1369 C 0.70190 0.51086 0.23300
 C1370 C 0.76505 0.45028 0.25755
 C1371 C 0.79946 0.48658 0.26048
 C1372 C 0.76321 0.48375 0.29468
 H1373 H 0.78640 0.50810 0.24013
 H1374 H 0.74188 0.50485 0.28199
 H1375 H 0.72897 0.52152 0.22423
 H1376 H 0.74479 0.46373 0.23653
 H1377 H 0.76583 0.46809 0.20934
 H1378 H 0.73922 0.46519 0.20953
 H1379 H 0.75863 0.52339 0.29124
 H1380 H 0.74102 0.53941 0.27461
 H1381 H 0.79532 0.49220 0.22109
 H1382 H 0.77841 0.50950 0.20526
 H1383 H 0.72424 0.48634 0.28877
 H1384 H 0.70865 0.50491 0.27258
 H1385 H 0.77692 0.54141 0.24073
 H1386 H 0.79338 0.52551 0.25891
 H1387 H 0.70909 0.47314 0.23641
 H1388 H 0.72549 0.45496 0.25314
 O1389 O 0.50098 0.20464 0.73388
 O1390 O 0.47312 0.21060 0.73439
 O1391 O 0.51977 0.24674 0.71022
 O1392 O 0.52100 0.27284 0.71475
 O1393 O 0.54252 0.22713 0.75269
 O1394 O 0.53675 0.22932 0.78084
 O1395 O 0.47900 0.28935 0.75343
 O1396 O 0.48180 0.28420 0.72566
 O1397 O 0.45843 0.24971 0.77425
 O1398 O 0.46381 0.22026 0.77271
 O1399 O 0.49834 0.26895 0.79477
 O1400 O 0.52727 0.26802 0.78930
 O1401 O 0.49778 0.28964 0.77316
 O1402 O 0.52742 0.28424 0.77127
 O1403 O 0.47969 0.24926 0.79537
 O1404 O 0.48094 0.22030 0.78979
 O1405 O 0.45794 0.26795 0.75401
 O1406 O 0.46346 0.26537 0.72499
 O1407 O 0.52059 0.20525 0.75284
 O1408 O 0.51866 0.21157 0.78126
 O1409 O 0.54269 0.24583 0.73286
 O1410 O 0.53647 0.27480 0.73560
 O1411 O 0.50152 0.22658 0.71086
 O1412 O 0.47315 0.22829 0.71652
 Zr1413 Zr 0.49147 0.22794 0.73402
 O1414 O 0.47595 0.24209 0.74796
 Zr1415 Zr 0.51957 0.25606 0.73370
 O1416 O 0.50506 0.27162 0.74732
 Zr1417 Zr 0.51939 0.22847 0.76239
 O1418 O 0.50527 0.24286 0.77751
 Zr1419 Zr 0.48080 0.26632 0.74359
 O1420 O 0.49522 0.25217 0.72826
 Zr1421 Zr 0.48101 0.23880 0.77245
 O1422 O 0.49514 0.22300 0.75857
 Zr1423 Zr 0.50885 0.26708 0.77188
 O1424 O 0.52469 0.25268 0.75823
 O1425 O 0.51563 0.23197 0.73799
 O1426 O 0.48461 0.26302 0.76810
 C1427 C 0.51245 0.19815 0.74186
 C1428 C 0.51219 0.23505 0.70369
 C1429 C 0.54935 0.23463 0.74110
 C1430 C 0.48637 0.29613 0.76512
 C1431 C 0.45159 0.26081 0.76610
 C1432 C 0.48713 0.26108 0.80174
 H1433 H 0.46475 0.23932 0.74545
 H1434 H 0.50791 0.24049 0.78884
 H1435 H 0.52239 0.22504 0.73116
 H1436 H 0.50738 0.28284 0.74444
 H1437 H 0.48728 0.27940 0.71628
 H1438 H 0.51390 0.28187 0.71757
 H1439 H 0.49058 0.22158 0.79654
 H1440 H 0.50835 0.20586 0.78025
 H1441 H 0.45660 0.25593 0.72679
 H1442 H 0.47401 0.23866 0.71088
 H1443 H 0.52649 0.25826 0.79594
 H1444 H 0.54187 0.23995 0.78011
 H1445 H 0.47293 0.20620 0.74543
 H1446 H 0.45632 0.22206 0.76370
 H1447 H 0.54274 0.27284 0.74550
 H1448 H 0.52538 0.29149 0.76212
 O1449 O 0.24701 0.70577 0.51658
 O1450 O 0.27512 0.71077 0.51510
 O1451 O 0.22958 0.74695 0.54156
 O1452 O 0.23060 0.77352 0.53850
 O1453 O 0.20556 0.73060 0.49912
 O1454 O 0.21100 0.73276 0.47106
 O1455 O 0.27145 0.79005 0.49810
 O1456 O 0.26878 0.78464 0.52617
 O1457 O 0.29005 0.75044 0.47646
 O1458 O 0.28358 0.72138 0.47673
 O1459 O 0.25048 0.77236 0.45785
 O1460 O 0.22112 0.77112 0.46375
 O1461 O 0.25093 0.79207 0.48029
 O1462 O 0.22180 0.78705 0.48195
 O1463 O 0.26837 0.75202 0.45585
 O1464 O 0.26589 0.72264 0.46030
 O1465 O 0.29156 0.76827 0.49699
 O1466 O 0.28672 0.76514 0.52599
 O1467 O 0.22711 0.70754 0.49801
 O1468 O 0.22842 0.71462 0.46981
 O1469 O 0.20686 0.74822 0.51988
 O1470 O 0.21373 0.77683 0.51824
 O1471 O 0.24821 0.72715 0.54031
 O1472 O 0.27629 0.72779 0.53356
 Zr1473 Zr 0.25738 0.72870 0.51672
 O1474 O 0.27289 0.74282 0.50273
 Zr1475 Zr 0.23021 0.75761 0.51874
 O1476 O 0.24470 0.77318 0.50517
 Zr1477 Zr 0.22867 0.73101 0.48914
 O1478 O 0.24280 0.74544 0.47405
 Zr1479 Zr 0.26891 0.76705 0.50793
 O1480 O 0.25458 0.75285 0.52331
 Zr1481 Zr 0.26705 0.74048 0.47829
 O1482 O 0.25287 0.72471 0.49212
 Zr1483 Zr 0.24000 0.76951 0.48063
 O1484 O 0.22421 0.75520 0.49431
 O1485 O 0.23325 0.73357 0.51352
 O1486 O 0.26423 0.76462 0.48350
 C1487 C 0.23524 0.69985 0.50862
 C1488 C 0.23735 0.73520 0.54772
 C1489 C 0.19940 0.73792 0.51121
 C1490 C 0.26330 0.79768 0.48748
 C1491 C 0.29744 0.76115 0.48465
 C1492 C 0.26138 0.76453 0.45032
 H1493 H 0.28407 0.73963 0.50483
 H1494 H 0.23983 0.74358 0.46272
 H1495 H 0.22638 0.72664 0.52024
 H1496 H 0.24276 0.78436 0.50846
 H1497 H 0.26363 0.77974 0.53568
 H1498 H 0.23697 0.78293 0.53528
 H1499 H 0.25644 0.72487 0.45352
 H1500 H 0.23872 0.70880 0.47020
 H1501 H 0.29315 0.75545 0.52385
 H1502 H 0.27608 0.73805 0.53946
 H1503 H 0.22251 0.76244 0.45582
 H1504 H 0.20666 0.74374 0.47171
 H1505 H 0.27455 0.70650 0.50402
 H1506 H 0.29098 0.72219 0.48597
 H1507 H 0.20721 0.77557 0.50839
 H1508 H 0.22355 0.79332 0.49187
 O1509 O 0.23004 0.24865 1.04526
 O1510 O 0.23185 0.27688 1.04136
 O1511 O 0.20473 0.23401 1.00251
 O1512 O 0.20835 0.23568 0.97596
 O1513 O 0.24648 0.20797 1.01845
 O1514 O 0.27459 0.21289 1.01652
 O1515 O 0.24947 0.27649 0.96179
 O1516 O 0.22131 0.27399 0.96687
 O1517 O 0.27118 0.29254 1.00217
 O1518 O 0.26977 0.28492 1.03162
 O1519 O 0.28894 0.25418 0.97891
 O1520 O 0.28249 0.22469 0.97893
 O1521 O 0.26692 0.25584 0.95895
 O1522 O 0.26472 0.22665 0.96248
 O1523 O 0.29104 0.27059 1.00056
 O1524 O 0.28626 0.26734 1.02960
 O1525 O 0.25073 0.29539 0.98441
 O1526 O 0.22177 0.29116 0.98721
 O1527 O 0.24790 0.22829 1.04260
 O1528 O 0.27601 0.22922 1.03576
 O1529 O 0.22599 0.21062 1.00067
 O1530 O 0.22813 0.21870 0.97220
 O1531 O 0.20669 0.25085 1.02388
 O1532 O 0.21350 0.27890 1.02426
 Zr1533 Zr 0.23012 0.25993 1.02263
 O1534 O 0.24436 0.27582 1.00924
 Zr1535 Zr 0.22773 0.23429 0.99225
 O1536 O 0.24174 0.24915 0.97739
 Zr1537 Zr 0.25695 0.23080 1.01914
 O1538 O 0.27236 0.24533 1.00550
 Zr1539 Zr 0.23934 0.27304 0.98466
 O1540 O 0.22365 0.25845 0.99819
 Zr1541 Zr 0.26851 0.26937 1.01159
 O1542 O 0.25443 0.25467 1.02665
 Zr1543 Zr 0.26607 0.24383 0.98109
 O1544 O 0.25192 0.22768 0.99456
 O1545 O 0.23281 0.23603 1.01659
 O1546 O 0.26352 0.26778 0.98716
 C1547 C 0.23758 0.23638 1.05069
 C1548 C 0.19891 0.24096 1.01501
 C1549 C 0.23434 0.20248 1.01076
 C1550 C 0.26007 0.26861 0.95387
 C1551 C 0.26330 0.30052 0.99161
 C1552 C 0.29655 0.26435 0.98760
 H1553 H 0.24247 0.28687 1.01293
 H1554 H 0.28357 0.24207 1.00736
 H1555 H 0.22594 0.22901 1.02321
 H1556 H 0.23857 0.24782 0.96602
 H1557 H 0.21167 0.26897 0.97158
 H1558 H 0.21173 0.24256 0.96692
 H1559 H 0.29239 0.25745 1.02749
 H1560 H 0.27579 0.23920 1.04213
 H1561 H 0.22383 0.29694 0.99736
 H1562 H 0.20773 0.27922 1.01387
 H1563 H 0.29058 0.22582 0.98752
 H1564 H 0.27382 0.20905 1.00529
 H1565 H 0.24286 0.27605 1.04563
 H1566 H 0.26152 0.29329 1.03027
 H1567 H 0.23782 0.21198 0.97325
 H1568 H 0.25481 0.22873 0.95634
 C1569 C 0.29100 0.39251 0.78408
 C1570 C 0.28014 0.38194 0.79163
 C1571 C 0.28565 0.36750 0.79820
 C1572 C 0.30200 0.36361 0.79797
 C1573 C 0.31276 0.37436 0.79084
 C1574 C 0.30737 0.38854 0.78392
 C1575 C 0.28463 0.40772 0.77706
 C1576 C 0.29424 0.41844 0.76830
 C1577 C 0.28791 0.43272 0.76249
 C1578 C 0.27186 0.43675 0.76529
 C1579 C 0.26205 0.42594 0.77360
 C1580 C 0.26825 0.41140 0.77928
 C1581 C 0.26393 0.38601 0.79289
 C1582 C 0.25817 0.40055 0.78710
 H1583 H 0.25562 0.37797 0.79875
 H1584 H 0.24559 0.40328 0.78867
 H1585 H 0.27714 0.35932 0.80356
 H1586 H 0.32549 0.37199 0.79088
 H1587 H 0.29576 0.44084 0.75613
 H1588 H 0.24957 0.42885 0.77565
 H1589 H 0.31626 0.39636 0.77883
 H1590 H 0.30667 0.41607 0.76581
 C1591 C 0.28517 -0.11120 0.28183
 C1592 C 0.30146 -0.11490 0.27920
 C1593 C 0.30807 -0.12896 0.28562
 C1594 C 0.29871 -0.13977 0.29467
 C1595 C 0.28230 -0.13619 0.29652
 C1596 C 0.27568 -0.12222 0.29027
 C1597 C 0.27880 -0.09563 0.27559
 C1598 C 0.26311 -0.09025 0.27871
 C1599 C 0.25799 -0.07533 0.27327
 C1600 C 0.26825 -0.06544 0.26441
 C1601 C 0.28377 -0.07083 0.26094
 C1602 C 0.28920 -0.08564 0.26670
 C1603 C 0.31113 -0.10445 0.27034
 C1604 C 0.30509 -0.09024 0.26407
 H1605 H 0.32360 -0.10730 0.26822
 H1606 H 0.31309 -0.08255 0.25734
 H1607 H 0.32079 -0.13087 0.28415
 H1608 H 0.27422 -0.14438 0.30242
 H1609 H 0.24596 -0.07146 0.27615
 H1610 H 0.29188 -0.06323 0.25426
 H1611 H 0.26305 -0.12036 0.29211
 H1612 H 0.25472 -0.09719 0.28563
 C1613 C 0.78693 0.88887 0.78112
 C1614 C 0.78300 0.88443 0.79702
 C1615 C 0.78857 0.86994 0.80340
 C1616 C 0.79801 0.85935 0.79417
 C1617 C 0.80135 0.86372 0.77813
 C1618 C 0.79595 0.87817 0.77174
 C1619 C 0.78131 0.90478 0.77502
 C1620 C 0.78542 0.91078 0.75973
 C1621 C 0.78016 0.92583 0.75477
 C1622 C 0.77055 0.93525 0.76484
 C1623 C 0.76636 0.92936 0.78007
 C1624 C 0.77180 0.91437 0.78527
 C1625 C 0.77364 0.89456 0.80659
 C1626 C 0.76802 0.90912 0.80079
 H1627 H 0.77055 0.89115 0.81877
 H1628 H 0.76080 0.91649 0.80867
 H1629 H 0.78609 0.86748 0.81592
 H1630 H 0.80776 0.85582 0.77012
 H1631 H 0.78365 0.93010 0.74300
 H1632 H 0.75917 0.93663 0.78809
 H1633 H 0.79888 0.88066 0.75937
 H1634 H 0.79286 0.90416 0.75150
 C1635 C 0.46731 0.86103 0.28545
 C1636 C 0.45071 0.86405 0.28402
 C1637 C 0.44418 0.87827 0.29005
 C1638 C 0.45394 0.88988 0.29727
 C1639 C 0.47049 0.88712 0.29809
 C1640 C 0.47710 0.87291 0.29230
 C1641 C 0.47364 0.84527 0.27966
 C1642 C 0.48968 0.84047 0.28178
 C1643 C 0.49484 0.82545 0.27661
 C1644 C 0.48424 0.81493 0.26898
 C1645 C 0.46830 0.81964 0.26670
 C1646 C 0.46288 0.83453 0.27220
 C1647 C 0.44069 0.85283 0.27665
 C1648 C 0.44668 0.83849 0.27067
 H1649 H 0.42800 0.85520 0.27544
 H1650 H 0.43843 0.83023 0.26504
 H1651 H 0.43135 0.88009 0.28947
 H1652 H 0.47839 0.89599 0.30323
 H1653 H 0.50719 0.82205 0.27859
 H1654 H 0.45992 0.81146 0.26112
 H1655 H 0.48988 0.87148 0.29328
 H1656 H 0.49834 0.84800 0.28767
 C1657 C -0.03200 0.86100 0.78481
 C1658 C -0.04774 0.86560 0.78072
 C1659 C -0.05417 0.87993 0.78667
 C1660 C -0.04510 0.89028 0.79653
 C1661 C -0.02914 0.88582 0.79984
 C1662 C -0.02275 0.87147 0.79417
 C1663 C -0.02593 0.84515 0.77898
 C1664 C -0.01097 0.83882 0.78355
 C1665 C -0.00610 0.82378 0.77819
 C1666 C -0.01591 0.81467 0.76804
 C1667 C -0.03075 0.82096 0.76328
 C1668 C -0.03591 0.83592 0.76886
 C1669 C -0.05705 0.85585 0.77074
 C1670 C -0.05116 0.84147 0.76472
 H1671 H -0.06907 0.85943 0.76743
 H1672 H -0.05879 0.83445 0.75693
 H1673 H -0.06660 0.88243 0.78409
 H1674 H -0.02116 0.89355 0.80646
 H1675 H 0.00538 0.81922 0.78212
 H1676 H -0.03855 0.81400 0.75561
 H1677 H -0.01045 0.86891 0.79713
 H1678 H -0.00299 0.84514 0.79148
 C1679 C -0.03552 -0.11060 -0.03385
 C1680 C -0.03388 -0.11395 -0.05044
 C1681 C -0.03973 -0.12834 -0.05677
 C1682 C -0.04685 -0.13982 -0.04676
 C1683 C -0.04790 -0.13670 -0.03021
 C1684 C -0.04239 -0.12229 -0.02383
 C1685 C -0.02974 -0.09479 -0.02771
 C1686 C -0.03210 -0.08967 -0.01174
 C1687 C -0.02671 -0.07469 -0.00670
 C1688 C -0.01864 -0.06455 -0.01738
 C1689 C -0.01622 -0.06954 -0.03329
 C1690 C -0.02194 -0.08438 -0.03858
 C1691 C -0.02633 -0.10298 -0.06062
 C1692 C -0.02025 -0.08864 -0.05476
 H1693 H -0.02495 -0.10559 -0.07331
 H1694 H -0.01437 -0.08064 -0.06309
 H1695 H -0.03893 -0.13046 -0.06959
 H1696 H -0.05290 -0.14548 -0.02208
 H1697 H -0.02884 -0.07105 0.00561
 H1698 H -0.01031 -0.06165 -0.04173
 H1699 H -0.04349 -0.12063 -0.01102
 H1700 H -0.03831 -0.09690 -0.00302
 C1701 C -0.03439 0.38837 0.46642
 C1702 C -0.05034 0.38406 0.46997
 C1703 C -0.05661 0.36956 0.46430
 C1704 C -0.04724 0.35892 0.45505
 C1705 C -0.03112 0.36312 0.45225
 C1706 C -0.02483 0.37752 0.45780
 C1707 C -0.02842 0.40435 0.47195
 C1708 C -0.01312 0.41024 0.46802
 C1709 C -0.00828 0.42537 0.47311
 C1710 C -0.01847 0.43499 0.48237
 C1711 C -0.03371 0.42920 0.48641
 C1712 C -0.03881 0.41413 0.48111
 C1713 C -0.06004 0.39435 0.47901
 C1714 C -0.05435 0.40897 0.48460
 H1715 H -0.07226 0.39104 0.48183
 H1716 H -0.06234 0.41647 0.49156
 H1717 H -0.06914 0.36716 0.46646
 H1718 H -0.02301 0.35512 0.44610
 H1719 H 0.00352 0.42955 0.46976
 H1720 H -0.04182 0.43662 0.49333
 H1721 H -0.01241 0.37987 0.45525
 H1722 H -0.00478 0.40349 0.46083
 C1723 C 0.45889 -0.10828 0.46655
 C1724 C 0.46917 -0.11776 0.45703
 C1725 C 0.46371 -0.13224 0.45050
 C1726 C 0.44779 -0.13748 0.45280
 C1727 C 0.43756 -0.12755 0.46191
 C1728 C 0.44299 -0.11331 0.46868
 C1729 C 0.46530 -0.09311 0.47362
 C1730 C 0.45640 -0.08346 0.48422
 C1731 C 0.46274 -0.06922 0.49014
 C1732 C 0.47808 -0.06412 0.48559
 C1733 C 0.48723 -0.07390 0.47541
 C1734 C 0.48105 -0.08839 0.46959
 C1735 C 0.48483 -0.11267 0.45392
 C1736 C 0.49055 -0.09818 0.45983
 H1737 H 0.49273 -0.11987 0.44655
 H1738 H 0.50266 -0.09465 0.45684
 H1739 H 0.47225 -0.13957 0.44410
 H1740 H 0.42502 -0.13027 0.46343
 H1741 H 0.45542 -0.06201 0.49805
 H1742 H 0.49918 -0.07022 0.47195
 H1743 H 0.43442 -0.10626 0.47528
 H1744 H 0.44452 -0.08666 0.48811
 C1745 C 0.46421 0.39280 -0.03802
 C1746 C 0.45328 0.38438 -0.02823
 C1747 C 0.44680 0.36978 -0.03349
 C1748 C 0.45068 0.36338 -0.04873
 C1749 C 0.46127 0.37226 -0.05849
 C1750 C 0.46793 0.38658 -0.05324
 C1751 C 0.47105 0.40820 -0.03191
 C1752 C 0.48268 0.41698 -0.04040
 C1753 C 0.48832 0.43149 -0.03447
 C1754 C 0.48256 0.43770 -0.01991
 C1755 C 0.47128 0.42882 -0.01113
 C1756 C 0.46562 0.41411 -0.01695
 C1757 C 0.44873 0.39067 -0.01329
 C1758 C 0.45459 0.40531 -0.00788
 H1759 H 0.44030 0.38430 -0.00577
 H1760 H 0.45048 0.40977 0.00363
 H1761 H 0.43911 0.36332 -0.02531
 H1762 H 0.46403 0.36868 -0.07066
 H1763 H 0.49703 0.43801 -0.04152
 H1764 H 0.46681 0.43338 0.00021
 H1765 H 0.47571 0.39275 -0.06150
 H1766 H 0.48759 0.41290 -0.05166
 C1767 C 0.78190 0.36475 0.46822
 C1768 C 0.79845 0.36784 0.46981
 C1769 C 0.80510 0.38171 0.46311
 C1770 C 0.79546 0.39294 0.45511
 C1771 C 0.77891 0.39021 0.45430
 C1772 C 0.77220 0.37631 0.46069
 C1773 C 0.77551 0.34920 0.47446
 C1774 C 0.75961 0.34418 0.47196
 C1775 C 0.75451 0.32917 0.47720
 C1776 C 0.76503 0.31887 0.48527
 C1777 C 0.78077 0.32393 0.48818
 C1778 C 0.78614 0.33879 0.48257
 C1779 C 0.80832 0.35704 0.47799
 C1780 C 0.80224 0.34296 0.48447
 H1781 H 0.82097 0.35950 0.47941
 H1782 H 0.81036 0.33502 0.49072
 H1783 H 0.81792 0.38349 0.46377
 H1784 H 0.77106 0.39884 0.44866
 H1785 H 0.74232 0.32553 0.47475
 H1786 H 0.78910 0.31596 0.49414
 H1787 H 0.75943 0.37487 0.45962
 H1788 H 0.75104 0.35146 0.46561
 C1789 C 0.78477 0.86308 -0.03395
 C1790 C 0.78174 0.86706 -0.05017
 C1791 C 0.78809 0.88112 -0.05679
 C1792 C 0.79734 0.89179 -0.04747
 C1793 C 0.79973 0.88789 -0.03113
 C1794 C 0.79362 0.87383 -0.02452
 C1795 C 0.77846 0.84752 -0.02760
 C1796 C 0.78183 0.84184 -0.01201
 C1797 C 0.77625 0.82694 -0.00695
 C1798 C 0.76699 0.81740 -0.01720
 C1799 C 0.76330 0.82310 -0.03263
 C1800 C 0.76914 0.83788 -0.03796
 C1801 C 0.77246 0.85694 -0.05979
 C1802 C 0.76613 0.84278 -0.05376
 H1803 H 0.77002 0.86002 -0.07220
 H1804 H 0.75900 0.83540 -0.06169
 H1805 H 0.78630 0.88316 -0.06949
 H1806 H 0.80591 0.89589 -0.02305
 H1807 H 0.77934 0.82280 0.00499
 H1808 H 0.75638 0.81574 -0.04079
 H1809 H 0.79586 0.87171 -0.01193
 H1810 H 0.78905 0.84854 -0.00365
 C1811 C 0.78169 0.29024 0.38909
 C1812 C 0.78894 0.27904 0.37866
 C1813 C 0.79527 0.28404 0.36385
 C1814 C 0.79508 0.30025 0.35943
 C1815 C 0.78834 0.31138 0.37011
 C1816 C 0.78167 0.30648 0.38466
 C1817 C 0.77482 0.28439 0.40466
 C1818 C 0.76623 0.29435 0.41524
 C1819 C 0.76064 0.28851 0.42990
 C1820 C 0.76353 0.27264 0.43447
 C1821 C 0.77159 0.26246 0.42378
 C1822 C 0.77701 0.26815 0.40885
 C1823 C 0.79012 0.26296 0.38320
 C1824 C 0.78456 0.25770 0.39810
 H1825 H 0.79576 0.25437 0.37527
 H1826 H 0.78609 0.24522 0.40120
 H1827 H 0.80034 0.27525 0.35576
 H1828 H 0.78844 0.32401 0.36736
 H1829 H 0.75443 0.29663 0.43790
 H1830 H 0.77365 0.25011 0.42708
 H1831 H 0.77685 0.31563 0.39238
 H1832 H 0.76372 0.30667 0.41245
 C1833 C 0.78344 0.78491 -0.11291
 C1834 C 0.78220 0.80143 -0.11628
 C1835 C 0.78860 0.80765 -0.13056
 C1836 C 0.79597 0.79759 -0.14188
 C1837 C 0.79656 0.78112 -0.13879
 C1838 C 0.79044 0.77485 -0.12452
 C1839 C 0.77729 0.77891 -0.09709
 C1840 C 0.77928 0.76299 -0.09192
 C1841 C 0.77392 0.75817 -0.07678
 C1842 C 0.76624 0.76901 -0.06651
 C1843 C 0.76397 0.78482 -0.07164
 C1844 C 0.76969 0.78990 -0.08664
 C1845 C 0.77464 0.81169 -0.10536
 C1846 C 0.76831 0.80600 -0.09097
 H1847 H 0.77355 0.82432 -0.10800
 H1848 H 0.76254 0.81441 -0.08295
 H1849 H 0.78812 0.82041 -0.13268
 H1850 H 0.80176 0.77300 -0.14748
 H1851 H 0.77590 0.74594 -0.07305
 H1852 H 0.75835 0.79338 -0.06365
 H1853 H 0.79127 0.76210 -0.12286
 H1854 H 0.78526 0.75417 -0.09921
 C1855 C 0.28614 0.46314 0.85877
 C1856 C 0.28599 0.44641 0.86122
 C1857 C 0.29245 0.43987 0.87537
 C1858 C 0.29887 0.44980 0.88736
 C1859 C 0.29839 0.46641 0.88512
 C1860 C 0.29217 0.47300 0.87105
 C1861 C 0.27986 0.46959 0.84317
 C1862 C 0.28075 0.48589 0.83901
 C1863 C 0.27517 0.49125 0.82415
 C1864 C 0.26837 0.48057 0.81314
 C1865 C 0.26731 0.46433 0.81719
 C1866 C 0.27324 0.45874 0.83195
 C1867 C 0.27941 0.43630 0.84955
 C1868 C 0.27299 0.44235 0.83533
 H1869 H 0.27918 0.42350 0.85146
 H1870 H 0.26802 0.43403 0.82670
 H1871 H 0.29275 0.42702 0.87689
 H1872 H 0.30280 0.47440 0.89434
 H1873 H 0.27622 0.50381 0.82125
 H1874 H 0.26239 0.45592 0.80860
 H1875 H 0.29214 0.48584 0.87010
 H1876 H 0.28597 0.49466 0.84690
 C1877 C 0.28644 -0.03935 0.35792
 C1878 C 0.30310 -0.03843 0.36082
 C1879 C 0.30955 -0.04452 0.37515
 C1880 C 0.29961 -0.05123 0.38697
 C1881 C 0.28305 -0.05168 0.38423
 C1882 C 0.27654 -0.04589 0.36993
 C1883 C 0.28010 -0.03314 0.34225
 C1884 C 0.26392 -0.03459 0.33766
 C1885 C 0.25866 -0.02874 0.32285
 C1886 C 0.26931 -0.02111 0.31236
 C1887 C 0.28543 -0.01965 0.31678
 C1888 C 0.29093 -0.02581 0.33146
 C1889 C 0.31322 -0.03134 0.34946
 C1890 C 0.30724 -0.02497 0.33520
 H1891 H 0.32597 -0.03055 0.35171
 H1892 H 0.31556 -0.01949 0.32687
 H1893 H 0.32237 -0.04417 0.37700
 H1894 H 0.27502 -0.05638 0.39328
 H1895 H 0.24618 -0.03013 0.31962
 H1896 H 0.29384 -0.01411 0.30857
 H1897 H 0.26373 -0.04650 0.36860
 H1898 H 0.25519 -0.04039 0.34520
 C1899 C -0.03553 -0.03505 -0.11031
 C1900 C -0.03155 -0.05085 -0.11474
 C1901 C -0.03767 -0.05747 -0.12899
 C1902 C -0.04755 -0.04850 -0.13943
 C1903 C -0.05085 -0.03252 -0.13508
 C1904 C -0.04504 -0.02596 -0.12082
 C1905 C -0.02939 -0.02870 -0.09462
 C1906 C -0.03372 -0.01360 -0.08850
 C1907 C -0.02808 -0.00846 -0.07358
 C1908 C -0.01787 -0.01814 -0.06440
 C1909 C -0.01331 -0.03311 -0.07050
 C1910 C -0.01916 -0.03853 -0.08534
 C1911 C -0.02145 -0.06000 -0.10494
 C1912 C -0.01518 -0.05387 -0.09071
 H1913 H -0.01824 -0.07207 -0.10838
 H1914 H -0.00728 -0.06137 -0.08366
 H1915 H -0.03512 -0.06990 -0.13139
 H1916 H -0.05748 -0.02462 -0.14289
 H1917 H -0.03185 0.00312 -0.06918
 H1918 H -0.00559 -0.04081 -0.06346
 H1919 H -0.04796 -0.01365 -0.11839
 H1920 H -0.04168 -0.00570 -0.09488
 C1921 C -0.03556 0.46497 0.38905
 C1922 C -0.03289 0.44875 0.38520
 C1923 C -0.03892 0.44233 0.37084
 C1924 C -0.04757 0.45184 0.35981
 C1925 C -0.04967 0.46813 0.36362
 C1926 C -0.04383 0.47456 0.37793
 C1927 C -0.02950 0.47118 0.40483
 C1928 C -0.03245 0.48686 0.41026
 C1929 C -0.02693 0.49191 0.42525
 C1930 C -0.01819 0.48155 0.43517
 C1931 C -0.01506 0.46596 0.42981
 C1932 C -0.02081 0.46067 0.41489
 C1933 C -0.02428 0.43894 0.39577
 C1934 C -0.01823 0.44481 0.41020
 H1935 H -0.02215 0.42652 0.39281
 H1936 H -0.01165 0.43673 0.41794
 H1937 H -0.03740 0.42966 0.36881
 H1938 H -0.05539 0.47630 0.35536
 H1939 H -0.02957 0.50398 0.42912
 H1940 H -0.00856 0.45775 0.43749
 H1941 H -0.04579 0.48713 0.37995
 H1942 H -0.03920 0.49535 0.40325
 C1943 C 0.46118 -0.04096 0.39462
 C1944 C 0.45368 -0.03029 0.38380
 C1945 C 0.44765 -0.03592 0.36909
 C1946 C 0.44856 -0.05222 0.36511
 C1947 C 0.45541 -0.06283 0.37622
 C1948 C 0.46168 -0.05731 0.39071
 C1949 C 0.46799 -0.03441 0.40991
 C1950 C 0.47685 -0.04381 0.42076
 C1951 C 0.48274 -0.03726 0.43497
 C1952 C 0.47990 -0.02119 0.43884
 C1953 C 0.47135 -0.01161 0.42798
 C1954 C 0.46562 -0.01803 0.41346
 C1955 C 0.45210 -0.01410 0.38780
 C1956 C 0.45770 -0.00817 0.40243
 H1957 H 0.44625 -0.00593 0.37959
 H1958 H 0.45597 0.00439 0.40505
 H1959 H 0.44241 -0.02755 0.36066
 H1960 H 0.45582 -0.07552 0.37378
 H1961 H 0.48926 -0.04495 0.44315
 H1962 H 0.46926 0.00086 0.43076
 H1963 H 0.46669 -0.06610 0.39874
 H1964 H 0.47945 -0.05622 0.41851
 C1965 C 0.46710 0.46577 -0.11209
 C1966 C 0.45049 0.46654 -0.11523
 C1967 C 0.44429 0.46023 -0.12954
 C1968 C 0.45441 0.45345 -0.14119
 C1969 C 0.47094 0.45314 -0.13826
 C1970 C 0.47722 0.45917 -0.12391
 C1971 C 0.47311 0.47204 -0.09630
 C1972 C 0.48919 0.47069 -0.09140
 C1973 C 0.49407 0.47633 -0.07637
 C1974 C 0.48311 0.48368 -0.06596
 C1975 C 0.46711 0.48519 -0.07077
 C1976 C 0.46199 0.47921 -0.08566
 C1977 C 0.44011 0.47360 -0.10408
 C1978 C 0.44577 0.47999 -0.08972
 H1979 H 0.42740 0.47428 -0.10654
 H1980 H 0.43724 0.48538 -0.08152
 H1981 H 0.43148 0.46037 -0.13146
 H1982 H 0.47910 0.44831 -0.14712
 H1983 H 0.50647 0.47493 -0.07288
 H1984 H 0.45847 0.49053 -0.06266
 H1985 H 0.49002 0.45863 -0.12238
 H1986 H 0.49813 0.46507 -0.09884
 C1987 C 0.46834 0.78616 0.36279
 C1988 C 0.45227 0.78270 0.36680
 C1989 C 0.44555 0.78886 0.38094
 C1990 C 0.45475 0.79790 0.39177
 C1991 C 0.47093 0.80064 0.38810
 C1992 C 0.47761 0.79498 0.37378
 C1993 C 0.47472 0.78018 0.34704
 C1994 C 0.48990 0.78442 0.34102
 C1995 C 0.49502 0.77896 0.32599
 C1996 C 0.48524 0.76898 0.31667
 C1997 C 0.47020 0.76453 0.32269
 C1998 C 0.46478 0.77028 0.33755
 C1999 C 0.44301 0.77298 0.35677
 C2000 C 0.44927 0.76659 0.34266
 H2001 H 0.43078 0.77010 0.35997
 H2002 H 0.44172 0.75889 0.33547
 H2003 H 0.43299 0.78675 0.38332
 H2004 H 0.47854 0.80712 0.39635
 H2005 H 0.50665 0.78264 0.32162
 H2006 H 0.46242 0.75700 0.31555
 H2007 H 0.49009 0.79748 0.37164
 H2008 H 0.49783 0.79221 0.34756
 C2009 C -0.03203 0.78331 0.86233
 C2010 C -0.02918 0.79941 0.86652
 C2011 C -0.03526 0.80562 0.88098
 C2012 C -0.04423 0.79605 0.89169
 C2013 C -0.04644 0.77985 0.88756
 C2014 C -0.04049 0.77361 0.87320
 C2015 C -0.02606 0.77739 0.84639
 C2016 C -0.02919 0.76187 0.84064
 C2017 C -0.02394 0.75713 0.82545
 C2018 C -0.01528 0.76764 0.81562
 C2019 C -0.01185 0.78303 0.82133
 C2020 C -0.01735 0.78803 0.83648
 C2021 C -0.02044 0.80932 0.85618
 C2022 C -0.01454 0.80372 0.84156
 H2023 H -0.01816 0.82165 0.85941
 H2024 H -0.00790 0.81190 0.83397
 H2025 H -0.03361 0.81823 0.88327
 H2026 H -0.05240 0.77163 0.89559
 H2027 H -0.02675 0.74518 0.82136
 H2028 H -0.00537 0.79134 0.81375
 H2029 H -0.04260 0.76112 0.87091
 H2030 H -0.03592 0.75328 0.84753
 C2031 C 0.39216 0.78665 0.28567
 C2032 C 0.38919 0.78660 0.30241
 C2033 C 0.37487 0.79296 0.30850
 C2034 C 0.36307 0.79902 0.29812
 C2035 C 0.36583 0.79849 0.28148
 C2036 C 0.38016 0.79247 0.27532
 C2037 C 0.40791 0.78039 0.27973
 C2038 C 0.41267 0.78128 0.26350
 C2039 C 0.42763 0.77562 0.25866
 C2040 C 0.43814 0.76868 0.26979
 C2041 C 0.43349 0.76765 0.28596
 C2042 C 0.41866 0.77372 0.29104
 C2043 C 0.40048 0.78010 0.31300
 C2044 C 0.41476 0.77357 0.30740
 H2045 H 0.39817 0.77993 0.32582
 H2046 H 0.42303 0.76859 0.31607
 H2047 H 0.37304 0.79337 0.32138
 H2048 H 0.35681 0.80262 0.27311
 H2049 H 0.43100 0.77666 0.24613
 H2050 H 0.44167 0.76264 0.29472
 H2051 H 0.38152 0.79233 0.26243
 H2052 H 0.40516 0.78659 0.25441
 C2053 C -0.10865 0.78498 0.78678
 C2054 C -0.11164 0.80159 0.78572
 C2055 C -0.12608 0.80795 0.79148
 C2056 C -0.13796 0.79797 0.79791
 C2057 C -0.13515 0.78144 0.79845
 C2058 C -0.12071 0.77502 0.79303
 C2059 C -0.09283 0.77876 0.78101
 C2060 C -0.08810 0.76268 0.78279
 C2061 C -0.07315 0.75754 0.77737
 C2062 C -0.06265 0.76822 0.76983
 C2063 C -0.06722 0.78424 0.76804
 C2064 C -0.08203 0.78962 0.77382
 C2065 C -0.10027 0.81176 0.77881
 C2066 C -0.08589 0.80586 0.77276
 H2067 H -0.10259 0.82446 0.77789
 H2068 H -0.07756 0.81419 0.76738
 H2069 H -0.12797 0.82075 0.79108
 H2070 H -0.14423 0.77336 0.80292
 H2071 H -0.06981 0.74514 0.77900
 H2072 H -0.05902 0.79266 0.76256
 H2073 H -0.11931 0.76223 0.79368
 H2074 H -0.09565 0.75395 0.78854
 C2075 C 0.85935 0.28514 0.46569
 C2076 C 0.86309 0.30148 0.46781
 C2077 C 0.87741 0.30770 0.46164
 C2078 C 0.88848 0.29781 0.45372
 C2079 C 0.88500 0.28146 0.45223
 C2080 C 0.87064 0.27521 0.45805
 C2081 C 0.84351 0.27918 0.47169
 C2082 C 0.83793 0.26355 0.46881
 C2083 C 0.82280 0.25881 0.47413
 C2084 C 0.81298 0.26941 0.48266
 C2085 C 0.81852 0.28491 0.48579
 C2086 C 0.83349 0.28995 0.48012
 C2087 C 0.85256 0.31154 0.47612
 C2088 C 0.83822 0.30582 0.48238
 H2089 H 0.85550 0.32401 0.47791
 H2090 H 0.83055 0.31405 0.48882
 H2091 H 0.87976 0.32037 0.46279
 H2092 H 0.89346 0.27341 0.44662
 H2093 H 0.81875 0.24681 0.47148
 H2094 H 0.81089 0.29332 0.49208
 H2095 H 0.86868 0.26257 0.45655
 H2096 H 0.84488 0.25494 0.46217
 C2097 C 0.86171 0.78474 -0.03452
 C2098 C 0.86497 0.78351 -0.05116
 C2099 C 0.87932 0.78956 -0.05745
 C2100 C 0.89080 0.79658 -0.04735
 C2101 C 0.88778 0.79718 -0.03076
 C2102 C 0.87345 0.79141 -0.02441
 C2103 C 0.84586 0.77890 -0.02842
 C2104 C 0.84084 0.78088 -0.01236
 C2105 C 0.82572 0.77574 -0.00743
 C2106 C 0.81533 0.76828 -0.01830
 C2107 C 0.82029 0.76608 -0.03426
 C2108 C 0.83527 0.77157 -0.03945
 C2109 C 0.85389 0.77626 -0.06146
 C2110 C 0.83947 0.77021 -0.05569
 H2111 H 0.85644 0.77518 -0.07419
 H2112 H 0.83132 0.76469 -0.06415
 H2113 H 0.88139 0.78907 -0.07030
 H2114 H 0.89657 0.80208 -0.02259
 H2115 H 0.82212 0.77766 0.00493
 H2116 H 0.81220 0.76063 -0.04285
 H2117 H 0.87186 0.79221 -0.01158
 H2118 H 0.84824 0.78667 -0.00349
 C2119 C -0.11033 -0.03372 -0.03603
 C2120 C -0.11457 -0.04976 -0.03295
 C2121 C -0.12890 -0.05603 -0.03909
 C2122 C -0.13950 -0.04656 -0.04828
 C2123 C -0.13527 -0.03044 -0.05086
 C2124 C -0.12100 -0.02416 -0.04488
 C2125 C -0.09463 -0.02767 -0.02976
 C2126 C -0.08887 -0.01216 -0.03293
 C2127 C -0.07396 -0.00728 -0.02721
 C2128 C -0.06443 -0.01763 -0.01804
 C2129 C -0.07013 -0.03304 -0.01465
 C2130 C -0.08498 -0.03817 -0.02058
 C2131 C -0.10442 -0.05955 -0.02385
 C2132 C -0.09003 -0.05384 -0.01768
 H2133 H -0.10768 -0.07184 -0.02142
 H2134 H -0.08263 -0.06191 -0.01072
 H2135 H -0.13123 -0.06860 -0.03722
 H2136 H -0.14318 -0.02229 -0.05705
 H2137 H -0.06985 0.00466 -0.03005
 H2138 H -0.06277 -0.04125 -0.00780
 H2139 H -0.11865 -0.01172 -0.04723
 H2140 H -0.09557 -0.00369 -0.04000
 C2141 C -0.11029 0.46582 0.46245
 C2142 C -0.11516 0.45024 0.46675
 C2143 C -0.12949 0.44391 0.46068
 C2144 C -0.13941 0.45284 0.45025
 C2145 C -0.13445 0.46844 0.44623
 C2146 C -0.12021 0.47481 0.45221
 C2147 C -0.09470 0.47197 0.46891
 C2148 C -0.08852 0.48713 0.46495
 C2149 C -0.07373 0.49211 0.47091
 C2150 C -0.06473 0.48220 0.48108
 C2151 C -0.07090 0.46718 0.48531
 C2152 C -0.08567 0.46197 0.47921
 C2153 C -0.10564 0.44095 0.47699
 C2154 C -0.09126 0.44671 0.48315
 H2155 H -0.10936 0.42900 0.48032
 H2156 H -0.08434 0.43903 0.49100
 H2157 H -0.13237 0.43166 0.46361
 H2158 H -0.14179 0.47619 0.43890
 H2159 H -0.06929 0.50375 0.46743
 H2160 H -0.06402 0.45932 0.49301
 H2161 H -0.11729 0.48686 0.44872
 H2162 H -0.09478 0.49526 0.45712
 C2163 C 0.38847 -0.03431 0.46527
 C2164 C 0.38442 -0.05034 0.46863
 C2165 C 0.37042 -0.05702 0.46221
 C2166 C 0.35993 -0.04797 0.45247
 C2167 C 0.36393 -0.03183 0.44964
 C2168 C 0.37791 -0.02515 0.45588
 C2169 C 0.40391 -0.02787 0.47180
 C2170 C 0.40960 -0.01242 0.46825
 C2171 C 0.42434 -0.00722 0.47415
 C2172 C 0.43370 -0.01719 0.48391
 C2173 C 0.42800 -0.03248 0.48774
 C2174 C 0.41340 -0.03796 0.48157
 C2175 C 0.39441 -0.05973 0.47831
 C2176 C 0.40850 -0.05362 0.48477
 H2177 H 0.39128 -0.07201 0.48096
 H2178 H 0.41582 -0.06139 0.49217
 H2179 H 0.36829 -0.06959 0.46429
 H2180 H 0.35607 -0.02399 0.44300
 H2181 H 0.42848 0.00462 0.47097
 H2182 H 0.43521 -0.04039 0.49508
 H2183 H 0.38011 -0.01272 0.45331
 H2184 H 0.40303 -0.00427 0.46069
 C2185 C 0.39122 0.46552 -0.03848
 C2186 C 0.38729 0.44948 -0.03500
 C2187 C 0.37311 0.44279 -0.04100
 C2188 C 0.36235 0.45182 -0.05044
 C2189 C 0.36633 0.46791 -0.05354
 C2190 C 0.38045 0.47462 -0.04770
 C2191 C 0.40671 0.47207 -0.03220
 C2192 C 0.41211 0.48763 -0.03567
 C2193 C 0.42678 0.49304 -0.02980
 C2194 C 0.43639 0.48315 -0.02020
 C2195 C 0.43107 0.46766 -0.01660
 C2196 C 0.41647 0.46202 -0.02265
 C2197 C 0.39757 0.44013 -0.02559
 C2198 C 0.41177 0.44630 -0.01944
 H2199 H 0.39456 0.42783 -0.02288
 H2200 H 0.41929 0.43857 -0.01221
 H2201 H 0.37098 0.43023 -0.03878
 H2202 H 0.35830 0.47573 -0.06001
 H2203 H 0.43064 0.50501 -0.03285
 H2204 H 0.43852 0.45979 -0.00944
 H2205 H 0.38259 0.48702 -0.05042
 H2206 H 0.40534 0.49577 -0.04305
 C2207 C 0.35945 0.46460 0.78771
 C2208 C 0.36981 0.45667 0.77688
 C2209 C 0.38445 0.45041 0.78234
 C2210 C 0.38877 0.45149 0.79864
 C2211 C 0.37810 0.45881 0.80941
 C2212 C 0.36372 0.46533 0.80406
 C2213 C 0.34416 0.47151 0.78138
 C2214 C 0.33374 0.48072 0.79093
 C2215 C 0.31943 0.48653 0.78465
 C2216 C 0.31504 0.48330 0.76870
 C2217 C 0.32553 0.47449 0.75894
 C2218 C 0.34013 0.46879 0.76509
 C2219 C 0.36537 0.45483 0.76075
 C2220 C 0.35073 0.46051 0.75504
 H2221 H 0.37323 0.44866 0.75244
 H2222 H 0.34774 0.45854 0.74253
 H2223 H 0.39251 0.44478 0.77386
 H2224 H 0.38076 0.45934 0.82213
 H2225 H 0.31159 0.49329 0.79248
 H2226 H 0.32236 0.47208 0.74654
 H2227 H 0.35604 0.47065 0.81298
 H2228 H 0.33640 0.48361 0.80326
 C2229 C 0.35864 -0.03949 0.28569
 C2230 C 0.36841 -0.02918 0.29489
 C2231 C 0.38294 -0.03477 0.30128
 C2232 C 0.38765 -0.05077 0.29922
 C2233 C 0.37747 -0.06110 0.29072
 C2234 C 0.36326 -0.05556 0.28396
 C2235 C 0.34353 -0.03296 0.27859
 C2236 C 0.33391 -0.04177 0.26791
 C2237 C 0.31971 -0.03536 0.26196
 C2238 C 0.31460 -0.02007 0.26658
 C2239 C 0.32437 -0.01098 0.27682
 C2240 C 0.33889 -0.01720 0.28260
 C2241 C 0.36346 -0.01347 0.29791
 C2242 C 0.34886 -0.00772 0.29220
 H2243 H 0.37085 -0.00558 0.30509
 H2244 H 0.34541 0.00441 0.29516
 H2245 H 0.39059 -0.02659 0.30781
 H2246 H 0.38035 -0.07365 0.28944
 H2247 H 0.31254 -0.04259 0.25396
 H2248 H 0.32069 0.00096 0.28027
 H2249 H 0.35593 -0.06414 0.27771
 H2250 H 0.33715 -0.05360 0.26394
 C2251 C 0.13760 0.53236 0.71708
 C2252 C 0.13376 0.53077 0.70060
 C2253 C 0.11921 0.53676 0.69471
 C2254 C 0.10809 0.54405 0.70504
 C2255 C 0.11172 0.54510 0.72148
 C2256 C 0.12626 0.53939 0.72744
 C2257 C 0.15364 0.52655 0.72271
 C2258 C 0.15917 0.52875 0.73856
 C2259 C 0.17446 0.52371 0.74303
 C2260 C 0.18457 0.51618 0.73191
 C2261 C 0.17907 0.51366 0.71618
 C2262 C 0.16386 0.51902 0.71145
 C2263 C 0.14444 0.52325 0.69007
 C2264 C 0.15907 0.51731 0.69542
 H2265 H 0.14143 0.52190 0.67747
 H2266 H 0.16688 0.51154 0.68680
 H2267 H 0.11671 0.53598 0.68195
 H2268 H 0.10325 0.55029 0.72983
 H2269 H 0.17843 0.52584 0.75523
 H2270 H 0.18687 0.50809 0.70740
 H2271 H 0.12832 0.54054 0.74017
 H2272 H 0.15204 0.53462 0.74760
 C2273 C 0.13802 0.03407 0.21705
 C2274 C 0.13447 0.03300 0.20045
 C2275 C 0.11982 0.03872 0.19455
 C2276 C 0.10830 0.04518 0.20499
 C2277 C 0.11167 0.04574 0.22151
 C2278 C 0.12631 0.04033 0.22748
 C2279 C 0.15408 0.02839 0.22275
 C2280 C 0.15934 0.03013 0.23876
 C2281 C 0.17456 0.02494 0.24337
 C2282 C 0.18480 0.01767 0.23221
 C2283 C 0.17965 0.01583 0.21626
 C2284 C 0.16456 0.02137 0.21142
 C2285 C 0.14551 0.02616 0.18982
 C2286 C 0.16014 0.02027 0.19522
 H2287 H 0.14276 0.02524 0.17713
 H2288 H 0.16822 0.01499 0.18653
 H2289 H 0.11750 0.03832 0.18175
 H2290 H 0.10289 0.05026 0.22993
 H2291 H 0.17833 0.02661 0.25571
 H2292 H 0.18762 0.01056 0.20744
 H2293 H 0.12815 0.04102 0.24029
 H2294 H 0.15203 0.03572 0.24785
 C2295 C 0.61562 0.71826 0.21937
 C2296 C 0.61918 0.70180 0.22081
 C2297 C 0.63363 0.69573 0.21477
 C2298 C 0.64501 0.70588 0.20769
 C2299 C 0.64178 0.72234 0.20708
 C2300 C 0.62729 0.72846 0.21275
 C2301 C 0.59956 0.72405 0.22494
 C2302 C 0.59411 0.73979 0.22241
 C2303 C 0.57878 0.74440 0.22727
 C2304 C 0.56862 0.73352 0.23500
 C2305 C 0.57401 0.71789 0.23774
 C2306 C 0.58919 0.71300 0.23249
 C2307 C 0.60830 0.69146 0.22825
 C2308 C 0.59377 0.69701 0.23425
 H2309 H 0.61110 0.67889 0.22955
 H2310 H 0.58583 0.68856 0.24002
 H2311 H 0.63578 0.68298 0.21526
 H2312 H 0.65049 0.73057 0.20219
 H2313 H 0.57485 0.75651 0.22494
 H2314 H 0.56613 0.70929 0.24341
 H2315 H 0.62549 0.74118 0.21191
 H2316 H 0.60133 0.74861 0.21637
 C2317 C 0.11456 0.71887 0.71754
 C2318 C 0.11846 0.70250 0.71918
 C2319 C 0.13321 0.69676 0.71360
 C2320 C 0.14453 0.70711 0.70675
 C2321 C 0.14086 0.72345 0.70569
 C2322 C 0.12609 0.72926 0.71096
 C2323 C 0.09830 0.72432 0.72288
 C2324 C 0.09263 0.74001 0.72048
 C2325 C 0.07720 0.74433 0.72525
 C2326 C 0.06712 0.73321 0.73274
 C2327 C 0.07269 0.71762 0.73530
 C2328 C 0.08800 0.71303 0.73019
 C2329 C 0.10764 0.69192 0.72635
 C2330 C 0.09284 0.69712 0.73195
 H2331 H 0.11069 0.67941 0.72772
 H2332 H 0.08491 0.68847 0.73746
 H2333 H 0.13569 0.68407 0.71432
 H2334 H 0.14946 0.73180 0.70081
 H2335 H 0.07313 0.75643 0.72307
 H2336 H 0.06486 0.70884 0.74079
 H2337 H 0.12397 0.74192 0.70984
 H2338 H 0.09981 0.74903 0.71468
 C2339 C 0.63725 0.21626 0.53506
 C2340 C 0.63438 0.21670 0.55182
 C2341 C 0.62014 0.21039 0.55813
 C2342 C 0.60841 0.20390 0.54797
 C2343 C 0.61111 0.20395 0.53132
 C2344 C 0.62531 0.20998 0.52493
 C2345 C 0.65288 0.22256 0.52887
 C2346 C 0.65743 0.22151 0.51258
 C2347 C 0.67229 0.22720 0.50749
 C2348 C 0.68288 0.23427 0.51842
 C2349 C 0.67843 0.23548 0.53464
 C2350 C 0.66369 0.22945 0.53996
 C2351 C 0.64569 0.22349 0.56218
 C2352 C 0.65993 0.22991 0.55636
 H2353 H 0.64345 0.22393 0.57501
 H2354 H 0.66826 0.23508 0.56488
 H2355 H 0.61832 0.21035 0.57103
 H2356 H 0.60213 0.19943 0.52312
 H2357 H 0.67550 0.22605 0.49493
 H2358 H 0.68670 0.24062 0.54325
 H2359 H 0.62662 0.20974 0.51204
 H2360 H 0.64986 0.21610 0.50363
 C2361 C 0.63905 0.71610 0.03376
 C2362 C 0.63581 0.71712 0.05042
 C2363 C 0.62145 0.71101 0.05664
 C2364 C 0.60987 0.70427 0.04644
 C2365 C 0.61292 0.70380 0.02985
 C2366 C 0.62730 0.70955 0.02358
 C2367 C 0.65480 0.72220 0.02770
 C2368 C 0.65982 0.72041 0.01162
 C2369 C 0.67477 0.72598 0.00667
 C2370 C 0.68498 0.73372 0.01753
 C2371 C 0.68004 0.73568 0.03351
 C2372 C 0.66526 0.72968 0.03874
 C2373 C 0.64684 0.72436 0.06078
 C2374 C 0.66113 0.73074 0.05502
 H2375 H 0.64432 0.72525 0.07352
 H2376 H 0.66921 0.73633 0.06351
 H2377 H 0.61939 0.71137 0.06949
 H2378 H 0.60408 0.69913 0.02159
 H2379 H 0.67836 0.72422 -0.00571
 H2380 H 0.68794 0.74139 0.04205
 H2381 H 0.62888 0.70892 0.01073
 H2382 H 0.65255 0.71445 0.00276
 C2383 C 0.11338 0.03153 0.03242
 C2384 C 0.11775 0.04740 0.02871
 C2385 C 0.13234 0.05362 0.03418
 C2386 C 0.14309 0.04429 0.04334
 C2387 C 0.13878 0.02829 0.04646
 C2388 C 0.12424 0.02203 0.04112
 C2389 C 0.09729 0.02565 0.02704
 C2390 C 0.09130 0.01041 0.03103
 C2391 C 0.07598 0.00576 0.02620
 C2392 C 0.06634 0.01607 0.01712
 C2393 C 0.07229 0.03117 0.01291
 C2394 C 0.08750 0.03609 0.01796
 C2395 C 0.10746 0.05712 0.01970
 C2396 C 0.09274 0.05154 0.01432
 H2397 H 0.11084 0.06927 0.01678
 H2398 H 0.08521 0.05955 0.00742
 H2399 H 0.13471 0.06612 0.03192
 H2400 H 0.14679 0.02024 0.05267
 H2401 H 0.07166 -0.00594 0.02965
 H2402 H 0.06486 0.03937 0.00612
 H2403 H 0.12178 0.00970 0.04389
 H2404 H 0.09810 0.00202 0.03810
 C2405 C 0.11347 0.53024 0.53147
 C2406 C 0.11735 0.54658 0.52966
 C2407 C 0.13212 0.55236 0.53508
 C2408 C 0.14353 0.54207 0.54192
 C2409 C 0.13987 0.52575 0.54318
 C2410 C 0.12505 0.51990 0.53808
 C2411 C 0.09719 0.52476 0.52625
 C2412 C 0.09153 0.50910 0.52881
 C2413 C 0.07608 0.50476 0.52412
 C2414 C 0.06597 0.51582 0.51655
 C2415 C 0.07153 0.53139 0.51386
 C2416 C 0.08685 0.53600 0.51889
 C2417 C 0.10649 0.55712 0.52247
 C2418 C 0.09167 0.55189 0.51698
 H2419 H 0.10952 0.56961 0.52097
 H2420 H 0.08372 0.56051 0.51143
 H2421 H 0.13457 0.56504 0.53423
 H2422 H 0.14851 0.51743 0.54807
 H2423 H 0.07202 0.49269 0.52642
 H2424 H 0.06369 0.54014 0.50833
 H2425 H 0.12294 0.50725 0.53934
 H2426 H 0.09873 0.50013 0.53466
 C2427 C 0.61036 0.03494 0.53460
 C2428 C 0.61389 0.03418 0.55122
 C2429 C 0.62818 0.04075 0.55713
 C2430 C 0.63930 0.04788 0.54670
 C2431 C 0.63595 0.04818 0.53017
 C2432 C 0.62170 0.04185 0.52419
 C2433 C 0.59464 0.02841 0.52888
 C2434 C 0.58945 0.02966 0.51281
 C2435 C 0.57442 0.02402 0.50823
 C2436 C 0.56424 0.01679 0.51947
 C2437 C 0.56941 0.01517 0.53544
 C2438 C 0.58435 0.02115 0.54026
 C2439 C 0.60316 0.02688 0.56185
 C2440 C 0.58880 0.02036 0.55646
 H2441 H 0.60591 0.02619 0.57456
 H2442 H 0.58090 0.01486 0.56519
 H2443 H 0.63049 0.04053 0.56994
 H2444 H 0.64446 0.05320 0.52176
 H2445 H 0.57068 0.02546 0.49585
 H2446 H 0.56152 0.00987 0.54429
 H2447 H 0.61987 0.04242 0.51137
 H2448 H 0.59665 0.03525 0.50365
 C2449 C 0.61300 0.53461 0.03167
 C2450 C 0.61652 0.55109 0.03040
 C2451 C 0.63117 0.55702 0.03604
 C2452 C 0.64274 0.54673 0.04260
 C2453 C 0.63943 0.53031 0.04329
 C2454 C 0.62478 0.52431 0.03796
 C2455 C 0.59688 0.52890 0.02623
 C2456 C 0.59163 0.51303 0.02827
 C2457 C 0.57632 0.50844 0.02341
 C2458 C 0.56595 0.51948 0.01618
 C2459 C 0.57110 0.53527 0.01398
 C2460 C 0.58630 0.54011 0.01919
 C2461 C 0.60542 0.56158 0.02351
 C2462 C 0.59073 0.55617 0.01781
 H2463 H 0.60817 0.57418 0.02242
 H2464 H 0.58259 0.56476 0.01252
 H2465 H 0.63342 0.56975 0.03555
 H2466 H 0.64825 0.52201 0.04789
 H2467 H 0.57257 0.49621 0.02531
 H2468 H 0.56304 0.54397 0.00871
 H2469 H 0.62298 0.51159 0.03877
 H2470 H 0.59903 0.50405 0.03385
 C2471 C 0.03175 0.03024 0.11474
 C2472 C 0.02792 0.04598 0.11953
 C2473 C 0.03349 0.05198 0.13426
 C2474 C 0.04289 0.04255 0.14472
 C2475 C 0.04602 0.02664 0.14005
 C2476 C 0.04059 0.02061 0.12538
 C2477 C 0.02637 0.02464 0.09847
 C2478 C 0.03052 0.00960 0.09208
 C2479 C 0.02576 0.00524 0.07659
 C2480 C 0.01662 0.01567 0.06710
 C2481 C 0.01222 0.03057 0.07347
 C2482 C 0.01717 0.03519 0.08890
 C2483 C 0.01873 0.05579 0.10948
 C2484 C 0.01334 0.05046 0.09458
 H2485 H 0.01568 0.06783 0.11317
 H2486 H 0.00633 0.05855 0.08724
 H2487 H 0.03112 0.06440 0.13694
 H2488 H 0.05234 0.01846 0.14784
 H2489 H 0.02936 -0.00632 0.07199
 H2490 H 0.00534 0.03885 0.06621
 H2491 H 0.04341 0.00834 0.12264
 H2492 H 0.03766 0.00114 0.09870
 C2493 C 0.03156 0.53154 0.61358
 C2494 C 0.04803 0.53012 0.61721
 C2495 C 0.05400 0.53604 0.63179
 C2496 C 0.04378 0.54304 0.64321
 C2497 C 0.02734 0.54384 0.63983
 C2498 C 0.02130 0.53823 0.62522
 C2499 C 0.02585 0.52589 0.59745
 C2500 C 0.01004 0.52812 0.59199
 C2501 C 0.00551 0.52319 0.57661
 C2502 C 0.01654 0.51569 0.56638
 C2503 C 0.03224 0.51323 0.57177
 C2504 C 0.03703 0.51853 0.58702
 C2505 C 0.05848 0.52284 0.60629
 C2506 C 0.05306 0.51695 0.59162
 H2507 H 0.07107 0.52162 0.60915
 H2508 H 0.06163 0.51139 0.58360
 H2509 H 0.06675 0.53548 0.63405
 H2510 H 0.01907 0.54879 0.64852
 H2511 H -0.00666 0.52530 0.57267
 H2512 H 0.04094 0.50775 0.56383
 H2513 H 0.00857 0.53918 0.62332
 H2514 H 0.00109 0.53394 0.59926
 C2515 C 0.53042 0.03196 0.61595
 C2516 C 0.52777 0.04804 0.62035
 C2517 C 0.53381 0.05395 0.63494
 C2518 C 0.54263 0.04409 0.64551
 C2519 C 0.54461 0.02791 0.64119
 C2520 C 0.53864 0.02197 0.62674
 C2521 C 0.52457 0.02637 0.59987
 C2522 C 0.52751 0.01087 0.59395
 C2523 C 0.52247 0.00646 0.57861
 C2524 C 0.51422 0.01729 0.56877
 C2525 C 0.51092 0.03266 0.57467
 C2526 C 0.51620 0.03732 0.58999
 C2527 C 0.51931 0.05826 0.61005
 C2528 C 0.51355 0.05298 0.59526
 H2529 H 0.51718 0.07058 0.61344
 H2530 H 0.50716 0.06138 0.58771
 H2531 H 0.53232 0.06654 0.63745
 H2532 H 0.55043 0.01950 0.64914
 H2533 H 0.52518 -0.00547 0.57437
 H2534 H 0.50474 0.04122 0.56711
 H2535 H 0.54059 0.00947 0.62430
 H2536 H 0.53395 0.00204 0.60082
 C2537 C 0.53142 0.53374 0.11294
 C2538 C 0.53032 0.55024 0.11645
 C2539 C 0.53620 0.55619 0.13108
 C2540 C 0.54287 0.54588 0.14260
 C2541 C 0.54310 0.52941 0.13942
 C2542 C 0.53753 0.52340 0.12480
 C2543 C 0.52608 0.52805 0.09671
 C2544 C 0.52830 0.51222 0.09134
 C2545 C 0.52365 0.50768 0.07587
 C2546 C 0.51644 0.51871 0.06547
 C2547 C 0.51404 0.53445 0.07074
 C2548 C 0.51909 0.53926 0.08608
 C2549 C 0.52343 0.56074 0.10532
 C2550 C 0.51767 0.55531 0.09058
 H2551 H 0.52241 0.57335 0.10806
 H2552 H 0.51238 0.56390 0.08242
 H2553 H 0.53596 0.56894 0.13325
 H2554 H 0.54767 0.52107 0.14825
 H2555 H 0.52571 0.49549 0.07203
 H2556 H 0.50880 0.54315 0.06266
 H2557 H 0.53808 0.51065 0.12305
 H2558 H 0.53391 0.50326 0.09876
 C2559 C 0.21792 0.53569 0.63642
 C2560 C 0.20145 0.53392 0.63290
 C2561 C 0.19526 0.53950 0.61827
 C2562 C 0.20529 0.54640 0.60664
 C2563 C 0.22172 0.54764 0.60996
 C2564 C 0.22795 0.54245 0.62464
 C2565 C 0.22391 0.53012 0.65247
 C2566 C 0.23973 0.53264 0.65780
 C2567 C 0.24460 0.52745 0.67302
 C2568 C 0.23392 0.51940 0.68316
 C2569 C 0.21817 0.51683 0.67795
 C2570 C 0.21303 0.52237 0.66291
 C2571 C 0.19126 0.52645 0.64394
 C2572 C 0.19698 0.52056 0.65849
 H2573 H 0.17867 0.52497 0.64120
 H2574 H 0.18865 0.51471 0.66653
 H2575 H 0.18252 0.53858 0.61604
 H2576 H 0.22987 0.55249 0.60111
 H2577 H 0.25678 0.52970 0.67685
 H2578 H 0.20970 0.51097 0.68586
 H2579 H 0.24067 0.54366 0.62645
 H2580 H 0.24844 0.53882 0.65054
 C2581 C 0.21680 0.03683 0.13703
 C2582 C 0.20096 0.03308 0.13248
 C2583 C 0.19466 0.03892 0.11798
 C2584 C 0.20392 0.04842 0.10747
 C2585 C 0.21981 0.05182 0.11209
 C2586 C 0.22611 0.04617 0.12655
 C2587 C 0.22290 0.03068 0.15284
 C2588 C 0.23821 0.03439 0.15889
 C2589 C 0.24313 0.02872 0.17389
 C2590 C 0.23302 0.01907 0.18319
 C2591 C 0.21783 0.01514 0.17717
 C2592 C 0.21266 0.02101 0.16226
 C2593 C 0.19141 0.02353 0.14243
 C2594 C 0.19718 0.01751 0.15692
 H2595 H 0.17928 0.02059 0.13894
 H2596 H 0.18932 0.01014 0.16414
 H2597 H 0.18222 0.03650 0.11541
 H2598 H 0.22781 0.05838 0.10431
 H2599 H 0.25489 0.03197 0.17826
 H2600 H 0.20979 0.00789 0.18433
 H2601 H 0.23838 0.04912 0.12919
 H2602 H 0.24648 0.04184 0.15237
 C2603 C 0.71280 0.21619 0.61060
 C2604 C 0.71455 0.19968 0.61381
 C2605 C 0.70880 0.19324 0.62827
 C2606 C 0.70160 0.20305 0.63991
 C2607 C 0.70028 0.21948 0.63685
 C2608 C 0.70574 0.22598 0.62241
 C2609 C 0.71864 0.22249 0.59478
 C2610 C 0.71642 0.23847 0.58992
 C2611 C 0.72180 0.24367 0.57493
 C2612 C 0.72969 0.23317 0.56446
 C2613 C 0.73205 0.21726 0.56921
 C2614 C 0.72637 0.21181 0.58411
 C2615 C 0.72210 0.18970 0.60262
 C2616 C 0.72806 0.19567 0.58819
 H2617 H 0.72353 0.17707 0.60511
 H2618 H 0.73390 0.18748 0.57999
 H2619 H 0.70978 0.18050 0.63035
 H2620 H 0.69514 0.22741 0.64574
 H2621 H 0.71975 0.25599 0.57151
 H2622 H 0.73786 0.20896 0.56108
 H2623 H 0.70445 0.23869 0.62084
 H2624 H 0.71035 0.24708 0.59738
 C2625 C 0.71388 0.71644 0.11027
 C2626 C 0.72503 0.70891 0.12056
 C2627 C 0.72015 0.70328 0.13572
 C2628 C 0.70405 0.70435 0.14056
 C2629 C 0.69293 0.71113 0.12987
 C2630 C 0.69775 0.71718 0.11504
 C2631 C 0.71962 0.72283 0.09448
 C2632 C 0.70990 0.73213 0.08434
 C2633 C 0.71564 0.73755 0.06960
 C2634 C 0.73113 0.73367 0.06440
 C2635 C 0.74111 0.72478 0.07463
 C2636 C 0.73558 0.71966 0.08976
 C2637 C 0.74088 0.70675 0.11550
 C2638 C 0.74594 0.71166 0.10028
 H2639 H 0.74943 0.70084 0.12328
 H2640 H 0.75822 0.70939 0.09680
 H2641 H 0.72895 0.69808 0.14372
 H2642 H 0.68033 0.71154 0.13281
 H2643 H 0.70777 0.74463 0.06212
 H2644 H 0.75323 0.72203 0.07092
 H2645 H 0.68859 0.72207 0.10735
 H2646 H 0.69788 0.73552 0.08762
 C2647 C 0.53387 0.71851 0.13779
 C2648 C 0.53231 0.70210 0.13404
 C2649 C 0.53790 0.69624 0.11928
 C2650 C 0.54475 0.70652 0.10784
 C2651 C 0.54566 0.72289 0.11134
 C2652 C 0.54034 0.72883 0.12610
 C2653 C 0.52861 0.72409 0.15410
 C2654 C 0.53096 0.73984 0.15961
 C2655 C 0.52634 0.74429 0.17511
 C2656 C 0.51906 0.73323 0.18544
 C2657 C 0.51651 0.71758 0.18002
 C2658 C 0.52147 0.71287 0.16462
 C2659 C 0.52526 0.69160 0.14505
 C2660 C 0.51974 0.69692 0.15991
 H2661 H 0.52394 0.67906 0.14211
 H2662 H 0.51435 0.68831 0.16799
 H2663 H 0.53724 0.68354 0.11689
 H2664 H 0.55050 0.73119 0.10263
 H2665 H 0.52849 0.75643 0.17905
 H2666 H 0.51117 0.70885 0.18802
 H2667 H 0.54138 0.74151 0.12808
 H2668 H 0.53661 0.74882 0.15226
 C2669 C 0.03182 0.71465 0.63728
 C2670 C 0.03901 0.72572 0.62668
 C2671 C 0.04427 0.72071 0.61141
 C2672 C 0.04308 0.70459 0.60676
 C2673 C 0.03643 0.69362 0.61763
 C2674 C 0.03078 0.69854 0.63257
 C2675 C 0.02616 0.72042 0.65333
 C2676 C 0.01759 0.71063 0.66404
 C2677 C 0.01302 0.71631 0.67907
 C2678 C 0.01691 0.73187 0.68395
 C2679 C 0.02506 0.74192 0.67321
 C2680 C 0.02943 0.73639 0.65784
 C2681 C 0.04130 0.74158 0.63156
 C2682 C 0.03691 0.74671 0.64692
 H2683 H 0.04692 0.75007 0.62351
 H2684 H 0.03927 0.75900 0.65024
 H2685 H 0.04939 0.72938 0.60324
 H2686 H 0.03590 0.68102 0.61479
 H2687 H 0.00666 0.70830 0.68704
 H2688 H 0.02788 0.75406 0.67675
 H2689 H 0.02604 0.68944 0.64040
 H2690 H 0.01422 0.69856 0.66105
 C2691 C 0.53425 0.63755 0.21905
 C2692 C 0.55086 0.63429 0.21921
 C2693 C 0.55671 0.61987 0.21291
 C2694 C 0.54623 0.60823 0.20681
 C2695 C 0.52970 0.61122 0.20738
 C2696 C 0.52378 0.62567 0.21333
 C2697 C 0.52860 0.65352 0.22497
 C2698 C 0.51257 0.65863 0.22373
 C2699 C 0.50805 0.67388 0.22885
 C2700 C 0.51931 0.68431 0.23559
 C2701 C 0.53525 0.67926 0.23708
 C2702 C 0.54002 0.66416 0.23152
 C2703 C 0.56155 0.64543 0.22568
 C2704 C 0.55621 0.65991 0.23197
 H2705 H 0.57426 0.64288 0.22598
 H2706 H 0.56496 0.66808 0.23691
 H2707 H 0.56951 0.61789 0.21248
 H2708 H 0.52124 0.60233 0.20327
 H2709 H 0.49571 0.67755 0.22747
 H2710 H 0.54412 0.68737 0.24193
 H2711 H 0.51097 0.62724 0.21345
 H2712 H 0.50342 0.65120 0.21850
 C2713 C 0.03452 0.63767 0.71694
 C2714 C 0.03325 0.63431 0.70032
 C2715 C 0.03924 0.61989 0.69413
 C2716 C 0.04616 0.60840 0.70431
 C2717 C 0.04686 0.61157 0.72087
 C2718 C 0.04120 0.62599 0.72711
 C2719 C 0.02863 0.65353 0.72294
 C2720 C 0.03068 0.65867 0.73895
 C2721 C 0.02544 0.67377 0.74380
 C2722 C 0.01778 0.68401 0.73292
 C2723 C 0.01551 0.67893 0.71701
 C2724 C 0.02115 0.66399 0.71188
 C2725 C 0.02594 0.64530 0.68997
 C2726 C 0.01980 0.65971 0.69567
 H2727 H 0.02484 0.64268 0.67726
 H2728 H 0.01420 0.66778 0.68717
 H2729 H 0.03870 0.61774 0.68130
 H2730 H 0.05168 0.60280 0.72912
 H2731 H 0.02744 0.67748 0.75611
 H2732 H 0.00992 0.68690 0.70841
 H2733 H 0.04203 0.62767 0.73993
 H2734 H 0.03662 0.65138 0.74782
 C2735 C 0.03322 0.11202 0.03357
 C2736 C 0.04937 0.11621 0.03084
 C2737 C 0.05540 0.13080 0.03661
 C2738 C 0.04557 0.14163 0.04513
 C2739 C 0.02933 0.13748 0.04716
 C2740 C 0.02329 0.12301 0.04154
 C2741 C 0.02743 0.09604 0.02789
 C2742 C 0.01188 0.09032 0.03102
 C2743 C 0.00722 0.07514 0.02592
 C2744 C 0.01785 0.06531 0.01743
 C2745 C 0.03331 0.07095 0.01410
 C2746 C 0.03823 0.08608 0.01945
 C2747 C 0.05948 0.10574 0.02248
 C2748 C 0.05399 0.09108 0.01677
 H2749 H 0.07185 0.10894 0.02029
 H2750 H 0.06229 0.08343 0.01037
 H2751 H 0.06802 0.13318 0.03504
 H2752 H 0.02089 0.14561 0.05267
 H2753 H -0.00476 0.07106 0.02870
 H2754 H 0.04174 0.06334 0.00780
 H2755 H 0.01074 0.12076 0.04347
 H2756 H 0.00320 0.09723 0.03761
 C2757 C 0.03275 0.61240 0.53142
 C2758 C 0.03119 0.61629 0.54789
 C2759 C 0.03689 0.63095 0.55368
 C2760 C 0.04383 0.64219 0.54325
 C2761 C 0.04487 0.63851 0.52682
 C2762 C 0.03946 0.62383 0.52097
 C2763 C 0.02719 0.59627 0.52589
 C2764 C 0.02942 0.59066 0.51007
 C2765 C 0.02444 0.57535 0.50567
 C2766 C 0.01691 0.56531 0.51685
 C2767 C 0.01450 0.57083 0.53258
 C2768 C 0.01981 0.58604 0.53724
 C2769 C 0.02394 0.60554 0.55853
 C2770 C 0.01817 0.59084 0.55327
 H2771 H 0.02262 0.60857 0.57112
 H2772 H 0.01261 0.58298 0.56198
 H2773 H 0.03616 0.63346 0.56644
 H2774 H 0.04980 0.64705 0.51840
 H2775 H 0.02652 0.57133 0.49348
 H2776 H 0.00898 0.56305 0.54140
 H2777 H 0.04056 0.62173 0.50823
 H2778 H 0.03524 0.59778 0.50099
 C2779 C 0.53335 0.11202 0.53403
 C2780 C 0.53187 0.11555 0.55060
 C2781 C 0.53780 0.12998 0.55672
 C2782 C 0.54489 0.14134 0.54655
 C2783 C 0.54585 0.13802 0.53003
 C2784 C 0.54022 0.12357 0.52384
 C2785 C 0.52747 0.09613 0.52813
 C2786 C 0.52960 0.09082 0.51218
 C2787 C 0.52428 0.07570 0.50744
 C2788 C 0.51649 0.06565 0.51839
 C2789 C 0.51423 0.07087 0.53425
 C2790 C 0.51989 0.08582 0.53925
 C2791 C 0.52444 0.10469 0.56100
 C2792 C 0.51838 0.09025 0.55540
 H2793 H 0.52321 0.10745 0.57367
 H2794 H 0.51267 0.08229 0.56392
 H2795 H 0.53712 0.13222 0.56953
 H2796 H 0.55089 0.14668 0.52180
 H2797 H 0.52628 0.07187 0.49517
 H2798 H 0.50855 0.06303 0.54291
 H2799 H 0.54126 0.12174 0.51105
 H2800 H 0.53560 0.09800 0.50327
 C2801 C 0.53258 0.61440 0.03199
 C2802 C 0.53080 0.61802 0.04851
 C2803 C 0.53698 0.63231 0.05474
 C2804 C 0.54462 0.64343 0.04470
 C2805 C 0.54578 0.64009 0.02820
 C2806 C 0.53991 0.62578 0.02192
 C2807 C 0.52662 0.59858 0.02602
 C2808 C 0.52914 0.59318 0.01017
 C2809 C 0.52398 0.57804 0.00541
 C2810 C 0.51596 0.56800 0.01622
 C2811 C 0.51313 0.57338 0.03193
 C2812 C 0.51865 0.58839 0.03697
 C2813 C 0.52287 0.60735 0.05874
 C2814 C 0.51671 0.59298 0.05304
 H2815 H 0.52136 0.61019 0.07136
 H2816 H 0.51063 0.58517 0.06143
 H2817 H 0.53609 0.63458 0.06753
 H2818 H 0.55120 0.64859 0.02006
 H2819 H 0.52638 0.57413 -0.00677
 H2820 H 0.50723 0.56560 0.04049
 H2821 H 0.54116 0.62392 0.00916
 H2822 H 0.53540 0.60027 0.00137
 C2823 C 0.71190 0.14144 0.53200
 C2824 C 0.71654 0.13646 0.54754
 C2825 C 0.71099 0.12191 0.55381
 C2826 C 0.70097 0.11171 0.54476
 C2827 C 0.69686 0.11667 0.52906
 C2828 C 0.70217 0.13122 0.52283
 C2829 C 0.71761 0.15737 0.52602
 C2830 C 0.71285 0.16392 0.51115
 C2831 C 0.71823 0.17898 0.50633
 C2832 C 0.72861 0.18786 0.51610
 C2833 C 0.73352 0.18136 0.53086
 C2834 C 0.72796 0.16638 0.53595
 C2835 C 0.72669 0.14605 0.55683
 C2836 C 0.73244 0.16057 0.55107
 H2837 H 0.73035 0.14222 0.56871
 H2838 H 0.74037 0.16746 0.55868
 H2839 H 0.71407 0.11905 0.56610
 H2840 H 0.68995 0.10914 0.52113
 H2841 H 0.71419 0.18371 0.49491
 H2842 H 0.74137 0.18815 0.53865
 H2843 H 0.69865 0.13414 0.51071
 H2844 H 0.70479 0.15775 0.50318
 C2845 C 0.71779 0.63930 0.03094
 C2846 C 0.70127 0.63575 0.03008
 C2847 C 0.69558 0.62091 0.03540
 C2848 C 0.70614 0.60920 0.04124
 C2849 C 0.72260 0.61251 0.04137
 C2850 C 0.72837 0.62734 0.03634
 C2851 C 0.72325 0.65564 0.02603
 C2852 C 0.73915 0.66091 0.02791
 C2853 C 0.74355 0.67637 0.02344
 C2854 C 0.73230 0.68687 0.01678
 C2855 C 0.71644 0.68177 0.01487
 C2856 C 0.71179 0.66640 0.01971
 C2857 C 0.69051 0.64704 0.02395
 C2858 C 0.69569 0.66194 0.01863
 H2859 H 0.67787 0.64427 0.02316
 H2860 H 0.68690 0.67021 0.01390
 H2861 H 0.68282 0.61865 0.03532
 H2862 H 0.73109 0.60359 0.04538
 H2863 H 0.75585 0.68008 0.02510
 H2864 H 0.70759 0.68994 0.01005
 H2865 H 0.74113 0.62915 0.03673
 H2866 H 0.74830 0.65340 0.03304
 C2867 C 0.21850 0.61401 0.71919
 C2868 C 0.20204 0.61775 0.72045
 C2869 C 0.19624 0.63232 0.71450
 C2870 C 0.20663 0.64351 0.70748
 C2871 C 0.22302 0.64000 0.70679
 C2872 C 0.22890 0.62548 0.71254
 C2873 C 0.22404 0.59791 0.72481
 C2874 C 0.23989 0.59253 0.72288
 C2875 C 0.24428 0.57714 0.72758
 C2876 C 0.23306 0.56678 0.73452
 C2877 C 0.21733 0.57213 0.73684
 C2878 C 0.21269 0.58746 0.73180
 C2879 C 0.19142 0.60688 0.72751
 C2880 C 0.19667 0.59214 0.73323
 H2881 H 0.17884 0.60980 0.72861
 H2882 H 0.18797 0.58413 0.73854
 H2883 H 0.18351 0.63477 0.71499
 H2884 H 0.23138 0.64855 0.70181
 H2885 H 0.25650 0.57329 0.72566
 H2886 H 0.20850 0.56413 0.74196
 H2887 H 0.24161 0.62350 0.71165
 H2888 H 0.24902 0.59984 0.71746
 C2889 C 0.21917 0.11380 0.22049
 C2890 C 0.20309 0.11799 0.22362
 C2891 C 0.19689 0.13256 0.21801
 C2892 C 0.20648 0.14340 0.20927
 C2893 C 0.22274 0.13940 0.20706
 C2894 C 0.22895 0.12491 0.21251
 C2895 C 0.22498 0.09763 0.22565
 C2896 C 0.24035 0.09177 0.22187
 C2897 C 0.24489 0.07631 0.22626
 C2898 C 0.23434 0.06637 0.23470
 C2899 C 0.21912 0.07222 0.23879
 C2900 C 0.21430 0.08759 0.23412
 C2901 C 0.19315 0.10749 0.23211
 C2902 C 0.19870 0.09270 0.23742
 H2903 H 0.18085 0.11072 0.23465
 H2904 H 0.19050 0.08500 0.24387
 H2905 H 0.18427 0.13481 0.21976
 H2906 H 0.23102 0.14758 0.20141
 H2907 H 0.25668 0.07209 0.22292
 H2908 H 0.21074 0.06457 0.24509
 H2909 H 0.24148 0.12268 0.21039
 H2910 H 0.24891 0.09876 0.21521
 C2911 C 0.71926 1.11287 0.71665
 C2912 C 0.72214 1.11745 0.70057
 C2913 C 0.71596 1.13189 0.69464
 C2914 C 0.70689 1.14225 0.70450
 C2915 C 0.70480 1.13783 0.72074
 C2916 C 0.71084 1.12345 0.72669
 C2917 C 0.72515 1.09685 0.72218
 C2918 C 0.72176 1.09061 0.73755
 C2919 C 0.72687 1.07531 0.74184
 C2920 C 0.73565 1.06590 0.73104
 C2921 C 0.73936 1.07212 0.71583
 C2922 C 0.73398 1.08734 0.71125
 C2923 C 0.73099 1.10747 0.69036
 C2924 C 0.73694 1.09284 0.69564
 H2925 H 0.73333 1.11102 0.67805
 H2926 H 0.74367 1.08556 0.68726
 H2927 H 0.71757 1.13442 0.68200
 H2928 H 0.69883 1.14561 0.72921
 H2929 H 0.72382 1.07079 0.75365
 H2930 H 0.74592 1.06486 0.70727
 H2931 H 0.70880 1.12089 0.73923
 H2932 H 0.71489 1.09717 0.74631
 C2933 C 0.71804 0.61203 0.21667
 C2934 C 0.71860 0.61547 0.20003
 C2935 C 0.71292 0.63015 0.19423
 C2936 C 0.70718 0.64192 0.20481
 C2937 C 0.70741 0.63875 0.22140
 C2938 C 0.71266 0.62400 0.22726
 C2939 C 0.72334 0.59582 0.22223
 C2940 C 0.72158 0.59047 0.23822
 C2941 C 0.72639 0.57508 0.24265
 C2942 C 0.73334 0.56479 0.23134
 C2943 C 0.73515 0.57001 0.21542
 C2944 C 0.72990 0.58521 0.21073
 C2945 C 0.72490 0.60428 0.18924
 C2946 C 0.73074 0.58962 0.19453
 H2947 H 0.72550 0.60697 0.17651
 H2948 H 0.73566 0.58146 0.18573
 H2949 H 0.71273 0.63224 0.18139
 H2950 H 0.70356 0.64770 0.22995
 H2951 H 0.72474 0.57122 0.25497
 H2952 H 0.74013 0.56198 0.20650
 H2953 H 0.71255 0.62227 0.24011
 H2954 H 0.71623 0.59786 0.24738
 C2955 C 0.53295 0.13522 0.72126
 C2956 C 0.54962 0.13231 0.72131
 C2957 C 0.55570 0.11797 0.71506
 C2958 C 0.54539 0.10612 0.70911
 C2959 C 0.52881 0.10875 0.70984
 C2960 C 0.52266 0.12309 0.71576
 C2961 C 0.52703 0.15110 0.72708
 C2962 C 0.51089 0.15589 0.72586
 C2963 C 0.50610 0.17108 0.73088
 C2964 C 0.51720 0.18174 0.73751
 C2965 C 0.53323 0.17703 0.73895
 C2966 C 0.53828 0.16201 0.73347
 C2967 C 0.56015 0.14371 0.72759
 C2968 C 0.55457 0.15813 0.73380
 H2969 H 0.57291 0.14143 0.72778
 H2970 H 0.56320 0.16655 0.73857
 H2971 H 0.56853 0.11622 0.71453
 H2972 H 0.52052 0.09966 0.70584
 H2973 H 0.49369 0.17453 0.72952
 H2974 H 0.54195 0.18534 0.74371
 H2975 H 0.50983 0.12439 0.71600
 H2976 H 0.50187 0.14825 0.72070
 C2977 C 1.03205 0.13586 0.21898
 C2978 C 1.03025 0.13215 0.20248
 C2979 C 1.03610 0.11764 0.19639
 C2980 C 1.04345 0.10642 0.20655
 C2981 C 1.04462 0.10987 0.22302
 C2982 C 1.03906 0.12438 0.22917
 C2983 C 1.02644 0.15187 0.22480
 C2984 C 1.02897 0.15735 0.24063
 C2985 C 1.02401 0.17261 0.24528
 C2986 C 1.01619 0.18270 0.23436
 C2987 C 1.01345 0.17729 0.21864
 C2988 C 1.01876 0.16216 0.21372
 C2989 C 1.02266 0.14294 0.19212
 C2990 C 1.01684 0.15752 0.19767
 H2991 H 1.02116 0.14004 0.17952
 H2992 H 1.01103 0.16543 0.18917
 H2993 H 1.03521 0.11528 0.18362
 H2994 H 1.04982 0.10130 0.23125
 H2995 H 1.02634 0.17655 0.25745
 H2996 H 1.00772 0.18512 0.20999
 H2997 H 1.04030 0.12632 0.24192
 H2998 H 1.03504 0.15018 0.24951
 C2999 C 0.21336 0.63714 0.52842
 C3000 C 0.22454 0.62698 0.53608
 C3001 C 0.21969 0.61201 0.54196
 C3002 C 0.20363 0.60715 0.54086
 C3003 C 0.19254 0.61751 0.53363
 C3004 C 0.19730 0.63220 0.52742
 C3005 C 0.21898 0.65298 0.52226
 C3006 C 0.20903 0.66343 0.51353
 C3007 C 0.21455 0.67839 0.50872
 C3008 C 0.23010 0.68339 0.51251
 C3009 C 0.24032 0.67284 0.52069
 C3010 C 0.23494 0.65764 0.52539
 C3011 C 0.24039 0.63200 0.53817
 C3012 C 0.24540 0.64711 0.53320
 H3013 H 0.24897 0.62428 0.54410
 H3014 H 0.25769 0.65057 0.53544
 H3015 H 0.22843 0.60418 0.54748
 H3016 H 0.17998 0.61443 0.53306
 H3017 H 0.20641 0.68624 0.50237
 H3018 H 0.25246 0.67647 0.52345
 H3019 H 0.18813 0.63965 0.52223
 H3020 H 0.19693 0.66033 0.51031
 C3021 C 0.21186 0.13999 1.03062
 C3022 C 0.22302 0.12966 1.03807
 C3023 C 0.21806 0.11475 1.04403
 C3024 C 0.20192 0.11012 1.04319
 C3025 C 0.19085 0.12064 1.03618
 C3026 C 0.19571 0.13529 1.02991
 C3027 C 0.21761 0.15575 1.02435
 C3028 C 0.20767 0.16638 1.01582
 C3029 C 0.21334 0.18128 1.01095
 C3030 C 0.22904 0.18602 1.01447
 C3031 C 0.23924 0.17525 1.02238
 C3032 C 0.23371 0.16014 1.02716
 C3033 C 0.23898 0.13442 1.03986
 C3034 C 0.24415 0.14944 1.03476
 H3035 H 0.24755 0.12657 1.04562
 H3036 H 0.25652 0.15270 1.03677
 H3037 H 0.22679 0.10678 1.04937
 H3038 H 0.17825 0.11772 1.03580
 H3039 H 0.20520 0.18929 1.00480
 H3040 H 0.25148 0.17867 1.02495
 H3041 H 0.18657 0.14287 1.02488
 H3042 H 0.19546 0.16348 1.01284
 C3043 C 0.21781 0.71436 0.61135
 C3044 C 0.20141 0.71613 0.61517
 C3045 C 0.19550 0.71061 0.62994
 C3046 C 0.20577 0.70382 0.64143
 C3047 C 0.22216 0.70268 0.63784
 C3048 C 0.22810 0.70778 0.62300
 C3049 C 0.22348 0.71977 0.59512
 C3050 C 0.23917 0.71712 0.58946
 C3051 C 0.24373 0.72217 0.57410
 C3052 C 0.23285 0.73021 0.56415
 C3053 C 0.21723 0.73290 0.56968
 C3054 C 0.21240 0.72748 0.58487
 C3055 C 0.19100 0.72355 0.60430
 C3056 C 0.19645 0.72938 0.58962
 H3057 H 0.17847 0.72506 0.60728
 H3058 H 0.18796 0.73523 0.58173
 H3059 H 0.18279 0.71147 0.63236
 H3060 H 0.23050 0.69796 0.64657
 H3061 H 0.25581 0.71984 0.57002
 H3062 H 0.20862 0.73876 0.56192
 H3063 H 0.24079 0.70664 0.62098
 H3064 H 0.24799 0.71093 0.59657
 C3065 C 0.21768 0.21292 1.11320
 C3066 C 0.21075 0.22404 1.12396
 C3067 C 0.20507 0.21893 1.13901
 C3068 C 0.20567 0.20272 1.14337
 C3069 C 0.21213 0.19171 1.13241
 C3070 C 0.21813 0.19670 1.11761
 C3071 C 0.22374 0.21884 1.09732
 C3072 C 0.23183 0.20894 1.08630
 C3073 C 0.23668 0.21483 1.07140
 C3074 C 0.23355 0.23071 1.06704
 C3075 C 0.22596 0.24082 1.07814
 C3076 C 0.22124 0.23507 1.09329
 C3077 C 0.20921 0.24010 1.11949
 C3078 C 0.21410 0.24544 1.10439
 H3079 H 0.20384 0.24862 1.12768
 H3080 H 0.21234 0.25791 1.10138
 H3081 H 0.20015 0.22761 1.14731
 H3082 H 0.21229 0.17906 1.13512
 H3083 H 0.24256 0.20676 1.06310
 H3084 H 0.22371 0.25319 1.07500
 H3085 H 0.22274 0.18760 1.10970
 H3086 H 0.23453 0.19662 1.08891
 C3087 C 0.71943 0.53355 0.13382
 C3088 C 0.72064 0.55010 0.13061
 C3089 C 0.71425 0.55643 0.11637
 C3090 C 0.70701 0.54647 0.10489
 C3091 C 0.70647 0.52997 0.10783
 C3092 C 0.71251 0.52358 0.12209
 C3093 C 0.72551 0.52742 0.14962
 C3094 C 0.72347 0.51148 0.15466
 C3095 C 0.72864 0.50657 0.16983
 C3096 C 0.73617 0.51732 0.18029
 C3097 C 0.73860 0.53313 0.17524
 C3098 C 0.73307 0.53831 0.16019
 C3099 C 0.72822 0.56024 0.14160
 C3100 C 0.73455 0.55442 0.15594
 H3101 H 0.72934 0.57288 0.13905
 H3102 H 0.74039 0.56273 0.16399
 H3103 H 0.71469 0.56922 0.11440
 H3104 H 0.70143 0.52189 0.09903
 H3105 H 0.72657 0.49431 0.17344
 H3106 H 0.74416 0.54162 0.18333
 H3107 H 0.71174 0.51082 0.12363
 H3108 H 0.71755 0.50272 0.14726
 C3109 C 0.71918 1.03420 0.63457
 C3110 C 0.71983 1.05083 0.63165
 C3111 C 0.71333 1.05719 0.61747
 C3112 C 0.70644 1.04720 0.60580
 C3113 C 0.70649 1.03063 0.60843
 C3114 C 0.71272 1.02420 0.62260
 C3115 C 0.72531 1.02802 0.65035
 C3116 C 0.72376 1.01194 0.65514
 C3117 C 0.72902 1.00695 0.67027
 C3118 C 0.73621 1.01778 0.68089
 C3119 C 0.73805 1.03375 0.67613
 C3120 C 0.73239 1.03899 0.66116
 C3121 C 0.72689 1.06106 0.64292
 C3122 C 0.73325 1.05523 0.65724
 H3123 H 0.72753 1.07378 0.64062
 H3124 H 0.73859 1.06364 0.66556
 H3125 H 0.71330 1.07002 0.61574
 H3126 H 0.70169 1.02256 0.59949
 H3127 H 0.72737 0.99459 0.67372
 H3128 H 0.74327 1.04230 0.68440
 H3129 H 0.71239 1.01140 0.62392
 H3130 H 0.71817 1.00311 0.64757
 C3131 C 0.53213 0.21615 0.63957
 C3132 C 0.53102 0.19970 0.63586
 C3133 C 0.53689 0.19393 0.62116
 C3134 C 0.54358 0.20434 0.60975
 C3135 C 0.54407 0.22074 0.61322
 C3136 C 0.53848 0.22659 0.62791
 C3137 C 0.52655 0.22166 0.65580
 C3138 C 0.52844 0.23749 0.66127
 C3139 C 0.52359 0.24186 0.67672
 C3140 C 0.51652 0.23066 0.68703
 C3141 C 0.51439 0.21493 0.68164
 C3142 C 0.51960 0.21030 0.66629
 C3143 C 0.52412 0.18907 0.64684
 C3144 C 0.51832 0.19429 0.66163
 H3145 H 0.52314 0.17649 0.64393
 H3146 H 0.51307 0.18558 0.66969
 H3147 H 0.53655 0.18121 0.61881
 H3148 H 0.54878 0.22913 0.60452
 H3149 H 0.52542 0.25406 0.68063
 H3150 H 0.50922 0.20610 0.68963
 H3151 H 0.53919 0.23930 0.62987
 H3152 H 0.53393 0.24659 0.65394
 C3153 C 1.03009 0.21591 0.13713
 C3154 C 1.04641 0.21798 0.13318
 C3155 C 1.05234 0.21239 0.11846
 C3156 C 1.04218 0.20514 0.10717
 C3157 C 1.02586 0.20366 0.11086
 C3158 C 1.01988 0.20891 0.12564
 C3159 C 1.02446 0.22131 0.15337
 C3160 C 1.00886 0.21847 0.15915
 C3161 C 1.00439 0.22336 0.17458
 C3162 C 1.01527 0.23141 0.18451
 C3163 C 1.03077 0.23439 0.17882
 C3164 C 1.03551 0.22916 0.16354
 C3165 C 1.05677 0.22564 0.14390
 C3166 C 1.05137 0.23136 0.15864
 H3167 H 1.06925 0.22736 0.14081
 H3168 H 1.05983 0.23732 0.16646
 H3169 H 1.06502 0.21344 0.11597
 H3170 H 1.01763 0.19849 0.10228
 H3171 H 0.99239 0.22082 0.17876
 H3172 H 1.03939 0.24029 0.18652
 H3173 H 1.00724 0.20747 0.12779
 H3174 H 1.00004 0.21223 0.15209
 C3175 C 0.61036 0.21082 0.71804
 C3176 C 0.62040 0.22157 0.70968
 C3177 C 0.63506 0.21626 0.70335
 C3178 C 0.63964 0.20012 0.70457
 C3179 C 0.62926 0.18942 0.71232
 C3180 C 0.61491 0.19466 0.71904
 C3181 C 0.59501 0.21701 0.72495
 C3182 C 0.58503 0.20766 0.73479
 C3183 C 0.57055 0.21370 0.74043
 C3184 C 0.56551 0.22916 0.73633
 C3185 C 0.57564 0.23882 0.72702
 C3186 C 0.59046 0.23295 0.72157
 C3187 C 0.61557 0.23745 0.70737
 C3188 C 0.60077 0.24291 0.71288
 H3189 H 0.62319 0.24568 0.70086
 H3190 H 0.59743 0.25518 0.71045
 H3191 H 0.64288 0.22474 0.69745
 H3192 H 0.63207 0.17681 0.71298
 H3193 H 0.56307 0.20601 0.74770
 H3194 H 0.57201 0.25089 0.72403
 H3195 H 0.60741 0.18580 0.72464
 H3196 H 0.58817 0.19566 0.73830
 C3197 C 1.11227 0.21571 0.21839
 C3198 C 1.11552 0.21596 0.20170
 C3199 C 1.13016 0.21015 0.19584
 C3200 C 1.14199 0.20445 0.20639
 C3201 C 1.13895 0.20486 0.22299
 C3202 C 1.12431 0.21034 0.22892
 C3203 C 1.09615 0.22125 0.22406
 C3204 C 1.09112 0.22003 0.24019
 C3205 C 1.07581 0.22495 0.24477
 C3206 C 1.06523 0.23145 0.23345
 C3207 C 1.07015 0.23282 0.21739
 C3208 C 1.08533 0.22749 0.21257
 C3209 C 1.10417 0.22205 0.19093
 C3210 C 1.08951 0.22793 0.19629
 H3211 H 1.10670 0.22238 0.17816
 H3212 H 1.08119 0.23261 0.18748
 H3213 H 1.13219 0.20982 0.18298
 H3214 H 1.14797 0.20101 0.23149
 H3215 H 1.07223 0.22367 0.25722
 H3216 H 1.06191 0.23749 0.20849
 H3217 H 1.12273 0.21038 0.24179
 H3218 H 1.09870 0.21502 0.24940
 C3219 C 0.13643 0.71696 0.53170
 C3220 C 0.13312 0.71789 0.54835
 C3221 C 0.11875 0.71173 0.55449
 C3222 C 0.10724 0.70499 0.54423
 C3223 C 0.11031 0.70467 0.52764
 C3224 C 0.12470 0.71049 0.52144
 C3225 C 0.15229 0.72291 0.52577
 C3226 C 0.15736 0.72119 0.50970
 C3227 C 0.17252 0.72636 0.50493
 C3228 C 0.18292 0.73357 0.51597
 C3229 C 0.17787 0.73558 0.53193
 C3230 C 0.16284 0.73006 0.53695
 C3231 C 0.14414 0.72500 0.55880
 C3232 C 0.15856 0.73118 0.55318
 H3233 H 0.14155 0.72588 0.57154
 H3234 H 0.16663 0.73665 0.56174
 H3235 H 0.11668 0.71198 0.56734
 H3236 H 0.10151 0.69999 0.51934
 H3237 H 0.17615 0.72459 0.49256
 H3238 H 0.18593 0.74087 0.54064
 H3239 H 0.12632 0.70992 0.50860
 H3240 H 0.14998 0.71557 0.50071
 C3241 C 0.13664 0.21920 1.03665
 C3242 C 0.12656 0.21171 1.02525
 C3243 C 0.11165 0.20552 1.03002
 C3244 C 0.10679 0.20624 1.04619
 C3245 C 0.11716 0.21315 1.05749
 C3246 C 0.13178 0.21962 1.05283
 C3247 C 0.15233 0.22584 1.03110
 C3248 C 0.16258 0.23455 1.04128
 C3249 C 0.17741 0.23985 1.03581
 C3250 C 0.18248 0.23662 1.02007
 C3251 C 0.17208 0.22850 1.00962
 C3252 C 0.15701 0.22329 1.01496
 C3253 C 0.13160 0.21014 1.00926
 C3254 C 0.14661 0.21555 1.00430
 H3255 H 0.12397 0.20434 1.00051
 H3256 H 0.15008 0.21373 0.99188
 H3257 H 0.10385 0.20017 1.02114
 H3258 H 0.11412 0.21335 1.07014
 H3259 H 0.18511 0.24615 1.04414
 H3260 H 0.17575 0.22615 0.99735
 H3261 H 0.13921 0.22457 1.06216
 H3262 H 0.15942 0.23737 1.05352
 C3263 C 0.63977 0.53280 0.21108
 C3264 C 0.62929 0.53943 0.22264
 C3265 C 0.61428 0.54542 0.21791
 C3266 C 0.60972 0.54543 0.20164
 C3267 C 0.62048 0.53938 0.19018
 C3268 C 0.63521 0.53307 0.19480
 C3269 C 0.65552 0.52625 0.21660
 C3270 C 0.66614 0.51820 0.20624
 C3271 C 0.68093 0.51284 0.21178
 C3272 C 0.68561 0.51541 0.22776
 C3273 C 0.67491 0.52295 0.23834
 C3274 C 0.65983 0.52814 0.23294
 C3275 C 0.63399 0.54036 0.23878
 C3276 C 0.64905 0.53512 0.24376
 H3277 H 0.62603 0.54553 0.24765
 H3278 H 0.65224 0.53642 0.25631
 H3279 H 0.60616 0.55004 0.22694
 H3280 H 0.61766 0.53974 0.17749
 H3281 H 0.68892 0.50702 0.20336
 H3282 H 0.67830 0.52476 0.25078
 H3283 H 0.64296 0.52879 0.18538
 H3284 H 0.66327 0.51590 0.19382
 C3285 C 0.64005 1.03249 0.71286
 C3286 C 0.62959 1.03896 0.72454
 C3287 C 0.61432 1.04440 0.72002
 C3288 C 0.60946 1.04406 0.70383
 C3289 C 0.62017 1.03813 0.69227
 C3290 C 0.63516 1.03235 0.69668
 C3291 C 0.65611 1.02655 0.71816
 C3292 C 0.66677 1.01872 0.70769
 C3293 C 0.68178 1.01380 0.71303
 C3294 C 0.68665 1.01661 0.72891
 C3295 C 0.67597 1.02404 0.73959
 C3296 C 0.66067 1.02877 0.73439
 C3297 C 0.63457 1.04027 0.74057
 C3298 C 0.64988 1.03556 0.74533
 H3299 H 0.62662 1.04531 0.74953
 H3300 H 0.65326 1.03712 0.75780
 H3301 H 0.60624 1.04893 0.72913
 H3302 H 0.61710 1.03823 0.67963
 H3303 H 0.68975 1.00807 0.70453
 H3304 H 0.67952 1.02603 0.75196
 H3305 H 0.64285 1.02816 0.68717
 H3306 H 0.66377 1.01621 0.69535
 C3307 C 0.86136 0.46451 0.28301
 C3308 C 0.86396 0.46484 0.29982
 C3309 C 0.87818 0.45867 0.30629
 C3310 C 0.89018 0.45243 0.29626
 C3311 C 0.88778 0.45263 0.27957
 C3312 C 0.87359 0.45854 0.27301
 C3313 C 0.84569 0.47055 0.27665
 C3314 C 0.84138 0.46952 0.26031
 C3315 C 0.82646 0.47490 0.25506
 C3316 C 0.81555 0.48165 0.26590
 C3317 C 0.81975 0.48286 0.28218
 C3318 C 0.83456 0.47712 0.28766
 C3319 C 0.85236 0.47133 0.31007
 C3320 C 0.83807 0.47753 0.30410
 H3321 H 0.85439 0.47169 0.32293
 H3322 H 0.82951 0.48245 0.31254
 H3323 H 0.87976 0.45849 0.31922
 H3324 H 0.89696 0.44829 0.27149
 H3325 H 0.82343 0.47375 0.24245
 H3326 H 0.81125 0.48774 0.29072
 H3327 H 0.87249 0.45840 0.26010
 H3328 H 0.84921 0.46434 0.25142
 C3329 C 0.86210 0.96492 0.78402
 C3330 C 0.86525 0.94836 0.78276
 C3331 C 0.87946 0.94197 0.78907
 C3332 C 0.89091 0.95188 0.79634
 C3333 C 0.88799 0.96839 0.79702
 C3334 C 0.87380 0.97483 0.79100
 C3335 C 0.84646 0.97115 0.77778
 C3336 C 0.84156 0.98716 0.77969
 C3337 C 0.82672 0.99228 0.77398
 C3338 C 0.81648 0.98166 0.76602
 C3339 C 0.82125 0.96571 0.76401
 C3340 C 0.83597 0.96034 0.77006
 C3341 C 0.85423 0.93826 0.77520
 C3342 C 0.84001 0.94416 0.76879
 H3343 H 0.85669 0.92559 0.77414
 H3344 H 0.83192 0.93586 0.76298
 H3345 H 0.88145 0.92919 0.78853
 H3346 H 0.89676 0.97641 0.80214
 H3347 H 0.82324 1.00462 0.77579
 H3348 H 0.81324 0.95731 0.75822
 H3349 H 0.87230 0.98759 0.79184
 H3350 H 0.84887 0.99585 0.78581
 C3351 C 0.38987 0.28401 0.78790
 C3352 C 0.38730 0.28429 0.80471
 C3353 C 0.37324 0.29102 0.81100
 C3354 C 0.36138 0.29721 0.80078
 C3355 C 0.36366 0.29617 0.78409
 C3356 C 0.37769 0.28972 0.77771
 C3357 C 0.40548 0.27765 0.78171
 C3358 C 0.40989 0.27836 0.76537
 C3359 C 0.42480 0.27275 0.76029
 C3360 C 0.43555 0.26605 0.77131
 C3361 C 0.43124 0.26516 0.78759
 C3362 C 0.41649 0.27119 0.79289
 C3363 C 0.39879 0.27790 0.81515
 C3364 C 0.41295 0.27125 0.80935
 H3365 H 0.39677 0.27797 0.82801
 H3366 H 0.42142 0.26641 0.81792
 H3367 H 0.37174 0.29177 0.82392
 H3368 H 0.35454 0.30036 0.77587
 H3369 H 0.42793 0.27366 0.74769
 H3370 H 0.43965 0.26034 0.79625
 H3371 H 0.37872 0.28928 0.76480
 H3372 H 0.40218 0.28352 0.75637
 C3373 C 0.88805 0.28171 0.28540
 C3374 C 0.88386 0.29776 0.28215
 C3375 C 0.86933 0.30398 0.28778
 C3376 C 0.85837 0.29431 0.29612
 C3377 C 0.86231 0.27821 0.29878
 C3378 C 0.87696 0.27200 0.29360
 C3379 C 0.90407 0.27581 0.27984
 C3380 C 0.91010 0.26057 0.28376
 C3381 C 0.92528 0.25582 0.27859
 C3382 C 0.93477 0.26604 0.26923
 C3383 C 0.92881 0.28117 0.26516
 C3384 C 0.91375 0.28621 0.27061
 C3385 C 0.89410 0.30750 0.27315
 C3386 C 0.90856 0.30174 0.26722
 H3387 H 0.89079 0.31974 0.27048
 H3388 H 0.91592 0.30967 0.26009
 H3389 H 0.86670 0.31649 0.28580
 H3390 H 0.85400 0.27031 0.30479
 H3391 H 0.92961 0.24409 0.28197
 H3392 H 0.93610 0.28928 0.25814
 H3393 H 0.87928 0.25955 0.29597
 H3394 H 0.90342 0.25227 0.29105
 C3395 C 0.35940 0.78296 0.46200
 C3396 C 0.36942 0.79082 0.47320
 C3397 C 0.38432 0.79688 0.46829
 C3398 C 0.38926 0.79573 0.45218
 C3399 C 0.37907 0.78824 0.44108
 C3400 C 0.36444 0.78187 0.44590
 C3401 C 0.34363 0.77659 0.46769
 C3402 C 0.33328 0.76776 0.45773
 C3403 C 0.31851 0.76250 0.46341
 C3404 C 0.31359 0.76592 0.47916
 C3405 C 0.32398 0.77438 0.48933
 C3406 C 0.33899 0.77954 0.48378
 C3407 C 0.36435 0.79288 0.48911
 C3408 C 0.34937 0.78758 0.49423
 H3409 H 0.37196 0.79896 0.49769
 H3410 H 0.34590 0.78974 0.50659
 H3411 H 0.39203 0.80258 0.47705
 H3412 H 0.38221 0.78760 0.42848
 H3413 H 0.31076 0.75600 0.45529
 H3414 H 0.32040 0.77693 0.50159
 H3415 H 0.35713 0.77646 0.43672
 H3416 H 0.33633 0.76476 0.44550
 C3417 C 0.35708 0.28977 0.96493
 C3418 C 0.35976 0.28951 0.94813
 C3419 C 0.37381 0.29612 0.94170
 C3420 C 0.38551 0.30283 0.95177
 C3421 C 0.38285 0.30297 0.96842
 C3422 C 0.36885 0.29658 0.97493
 C3423 C 0.34184 0.28273 0.97129
 C3424 C 0.33773 0.28301 0.98771
 C3425 C 0.32321 0.27670 0.99298
 C3426 C 0.31247 0.26977 0.98209
 C3427 C 0.31654 0.26918 0.96574
 C3428 C 0.33100 0.27577 0.96026
 C3429 C 0.34848 0.28256 0.93785
 C3430 C 0.33446 0.27574 0.94379
 H3431 H 0.35054 0.28231 0.92499
 H3432 H 0.32613 0.27050 0.93532
 H3433 H 0.37560 0.29609 0.92880
 H3434 H 0.39177 0.30777 0.97651
 H3435 H 0.32032 0.27736 1.00566
 H3436 H 0.30819 0.26412 0.95717
 H3437 H 0.36761 0.29695 0.98782
 H3438 H 0.34540 0.28826 0.99667
 C3439 C 0.78680 0.45913 0.35552
 C3440 C 0.79432 0.47010 0.36601
 C3441 C 0.80042 0.46489 0.38086
 C3442 C 0.79962 0.44871 0.38531
 C3443 C 0.79267 0.43780 0.37456
 C3444 C 0.78629 0.44290 0.35993
 C3445 C 0.78002 0.46526 0.34000
 C3446 C 0.77124 0.45558 0.32933
 C3447 C 0.76546 0.46175 0.31487
 C3448 C 0.76833 0.47770 0.31059
 C3449 C 0.77677 0.48754 0.32130
 C3450 C 0.78241 0.48151 0.33601
 C3451 C 0.79588 0.48616 0.36156
 C3452 C 0.79029 0.49168 0.34677
 H3453 H 0.80174 0.49455 0.36953
 H3454 H 0.79203 0.50416 0.34379
 H3455 H 0.80567 0.47351 0.38900
 H3456 H 0.79230 0.42518 0.37735
 H3457 H 0.75901 0.45387 0.30684
 H3458 H 0.77890 0.49994 0.31822
 H3459 H 0.78122 0.43391 0.35219
 H3460 H 0.76866 0.44323 0.33191
 C3461 C 0.78575 0.96434 0.85839
 C3462 C 0.80239 0.96494 0.86143
 C3463 C 0.80855 0.95908 0.87598
 C3464 C 0.79835 0.95299 0.88793
 C3465 C 0.78179 0.95298 0.88508
 C3466 C 0.77556 0.95851 0.87052
 C3467 C 0.77974 0.97010 0.84240
 C3468 C 0.76363 0.96870 0.83758
 C3469 C 0.75870 0.97403 0.82246
 C3470 C 0.76964 0.98111 0.81186
 C3471 C 0.78570 0.98253 0.81652
 C3472 C 0.79086 0.97683 0.83151
 C3473 C 0.81280 0.97144 0.84998
 C3474 C 0.80713 0.97749 0.83546
 H3475 H 0.82553 0.97200 0.85235
 H3476 H 0.81567 0.98251 0.82706
 H3477 H 0.82137 0.95907 0.87788
 H3478 H 0.77355 0.94878 0.89418
 H3479 H 0.74627 0.97268 0.81906
 H3480 H 0.79433 0.98762 0.80824
 H3481 H 0.76275 0.95824 0.86909
 H3482 H 0.75470 0.96330 0.84519
 C3483 C 0.28549 0.78993 0.39007
 C3484 C 0.29284 0.77908 0.37931
 C3485 C 0.29924 0.78458 0.36469
 C3486 C 0.29890 0.80092 0.36076
 C3487 C 0.29208 0.81166 0.37178
 C3488 C 0.28540 0.80628 0.38615
 C3489 C 0.27850 0.78356 0.40538
 C3490 C 0.26988 0.79317 0.41625
 C3491 C 0.26400 0.78681 0.43057
 C3492 C 0.26660 0.77073 0.43451
 C3493 C 0.27482 0.76093 0.42357
 C3494 C 0.28056 0.76716 0.40897
 C3495 C 0.29401 0.76287 0.38333
 C3496 C 0.28825 0.75709 0.39796
 H3497 H 0.29972 0.75455 0.37516
 H3498 H 0.28971 0.74451 0.40062
 H3499 H 0.30442 0.77610 0.35635
 H3500 H 0.29209 0.82437 0.36942
 H3501 H 0.25771 0.79466 0.43877
 H3502 H 0.27672 0.74843 0.42639
 H3503 H 0.28050 0.81518 0.39412
 H3504 H 0.26752 0.80562 0.41394
 C3505 C 0.28482 0.29366 0.89384
 C3506 C 0.29113 0.28251 0.88273
 C3507 C 0.29781 0.28780 0.86819
 C3508 C 0.29884 0.30418 0.86467
 C3509 C 0.29301 0.31521 0.87597
 C3510 C 0.28604 0.31006 0.89030
 C3511 C 0.27753 0.28750 0.90909
 C3512 C 0.26987 0.29749 0.92037
 C3513 C 0.26375 0.29123 0.93465
 C3514 C 0.26517 0.27489 0.93809
 C3515 C 0.27234 0.26478 0.92673
 C3516 C 0.27830 0.27090 0.91222
 C3517 C 0.29100 0.26617 0.88631
 C3518 C 0.28498 0.26052 0.90086
 H3519 H 0.29592 0.25762 0.87786
 H3520 H 0.28544 0.24779 0.90319
 H3521 H 0.30216 0.27911 0.85958
 H3522 H 0.29405 0.32792 0.87387
 H3523 H 0.25828 0.29929 0.94322
 H3524 H 0.27330 0.25210 0.92919
 H3525 H 0.28193 0.31912 0.89853
 H3526 H 0.26851 0.31015 0.91842
 C3527 C 0.46468 0.28340 0.86387
 C3528 C 0.46734 0.29970 0.86740
 C3529 C 0.46086 0.30648 0.88136
 C3530 C 0.45225 0.29715 0.89243
 C3531 C 0.45039 0.28077 0.88929
 C3532 C 0.45640 0.27399 0.87517
 C3533 C 0.47084 0.27693 0.84824
 C3534 C 0.46726 0.26145 0.84268
 C3535 C 0.47277 0.25623 0.82773
 C3536 C 0.48215 0.26622 0.81801
 C3537 C 0.48597 0.28157 0.82356
 C3538 C 0.48014 0.28708 0.83836
 C3539 C 0.47652 0.30915 0.85703
 C3540 C 0.48310 0.30286 0.84302
 H3541 H 0.47879 0.32158 0.85987
 H3542 H 0.49033 0.31058 0.83554
 H3543 H 0.46231 0.31918 0.88338
 H3544 H 0.44429 0.27309 0.89777
 H3545 H 0.46957 0.24435 0.82371
 H3546 H 0.49298 0.28951 0.81606
 H3547 H 0.45457 0.26136 0.87342
 H3548 H 0.45991 0.25333 0.84951
 C3549 C 0.96300 0.28886 0.35923
 C3550 C 0.95560 0.27813 0.37004
 C3551 C 0.94946 0.28372 0.38474
 C3552 C 0.95011 0.30004 0.38867
 C3553 C 0.95688 0.31069 0.37756
 C3554 C 0.96329 0.30522 0.36311
 C3555 C 0.96985 0.28238 0.34391
 C3556 C 0.97867 0.29185 0.33309
 C3557 C 0.98449 0.28540 0.31881
 C3558 C 0.98164 0.26937 0.31484
 C3559 C 0.97319 0.25971 0.32570
 C3560 C 0.96754 0.26603 0.34030
 C3561 C 0.95416 0.26194 0.36601
 C3562 C 0.95973 0.25608 0.35134
 H3563 H 0.94838 0.25371 0.37422
 H3564 H 0.95807 0.24352 0.34867
 H3565 H 0.94429 0.27530 0.39315
 H3566 H 0.95707 0.32340 0.37994
 H3567 H 0.99096 0.29314 0.31065
 H3568 H 0.97112 0.24724 0.32285
 H3569 H 0.96819 0.31405 0.35507
 H3570 H 0.98125 0.30425 0.33543
 C3571 C 0.46325 0.35835 0.78572
 C3572 C 0.46511 0.36211 0.80220
 C3573 C 0.45895 0.37646 0.80835
 C3574 C 0.45136 0.38759 0.79825
 C3575 C 0.45005 0.38405 0.78179
 C3576 C 0.45582 0.36963 0.77561
 C3577 C 0.46942 0.34257 0.77979
 C3578 C 0.46690 0.33703 0.76399
 C3579 C 0.47257 0.32206 0.75920
 C3580 C 0.48107 0.31232 0.76994
 C3581 C 0.48374 0.31779 0.78565
 C3582 C 0.47775 0.33263 0.79071
 C3583 C 0.47325 0.35161 0.81243
 C3584 C 0.47969 0.33734 0.80674
 H3585 H 0.47484 0.35454 0.82501
 H3586 H 0.48606 0.32974 0.81508
 H3587 H 0.45995 0.37886 0.82111
 H3588 H 0.44471 0.39252 0.77356
 H3589 H 0.47026 0.31808 0.74704
 H3590 H 0.49003 0.31025 0.79415
 H3591 H 0.45451 0.36765 0.76287
 H3592 H 0.46034 0.34391 0.75525
 C3593 C 0.96545 0.35956 0.28524
 C3594 C 0.94887 0.36276 0.28409
 C3595 C 0.94259 0.37706 0.29024
 C3596 C 0.95263 0.38864 0.29714
 C3597 C 0.96916 0.38567 0.29766
 C3598 C 0.97549 0.37134 0.29188
 C3599 C 0.97154 0.34378 0.27924
 C3600 C 0.98752 0.33876 0.28121
 C3601 C 0.99247 0.32376 0.27580
 C3602 C 0.98171 0.31346 0.26808
 C3603 C 0.96581 0.31841 0.26595
 C3604 C 0.96060 0.33328 0.27172
 C3605 C 0.93865 0.35173 0.27673
 C3606 C 0.94444 0.33745 0.27043
 H3607 H 0.92597 0.35425 0.27569
 H3608 H 0.93607 0.32940 0.26471
 H3609 H 0.92978 0.37903 0.28984
 H3610 H 0.97730 0.39451 0.30246
 H3611 H 1.00478 0.32018 0.27769
 H3612 H 0.95730 0.31043 0.26029
 H3613 H 0.98828 0.36979 0.29259
 H3614 H 0.99630 0.34609 0.28717
 C3615 C 0.28574 0.85931 0.46504
 C3616 C 0.30242 0.86212 0.46583
 C3617 C 0.30889 0.87619 0.45936
 C3618 C 0.29897 0.88775 0.45223
 C3619 C 0.28240 0.88513 0.45192
 C3620 C 0.27586 0.87114 0.45820
 C3621 C 0.27940 0.84382 0.47142
 C3622 C 0.26318 0.83941 0.47016
 C3623 C 0.25797 0.82458 0.47569
 C3624 C 0.26870 0.81382 0.48281
 C3625 C 0.28482 0.81819 0.48440
 C3626 C 0.29027 0.83295 0.47855
 C3627 C 0.31254 0.85085 0.47301
 C3628 C 0.30658 0.83665 0.47937
 H3629 H 0.32530 0.85304 0.47371
 H3630 H 0.31492 0.82831 0.48476
 H3631 H 0.32172 0.87798 0.45959
 H3632 H 0.27442 0.89400 0.44687
 H3633 H 0.24547 0.82147 0.47429
 H3634 H 0.29327 0.80983 0.48962
 H3635 H 0.26304 0.86987 0.45760
 H3636 H 0.25438 0.84707 0.46467
 C3637 C 0.28937 0.35987 0.96711
 C3638 C 0.27862 0.37069 0.95974
 C3639 C 0.28437 0.38490 0.95284
 C3640 C 0.30082 0.38832 0.95267
 C3641 C 0.31145 0.37723 0.95951
 C3642 C 0.30584 0.36328 0.96670
 C3643 C 0.28277 0.34496 0.97455
 C3644 C 0.29231 0.33406 0.98320
 C3645 C 0.28577 0.31997 0.98925
 C3646 C 0.26959 0.31632 0.98681
 C3647 C 0.25984 0.32739 0.97874
 C3648 C 0.26625 0.34173 0.97281
 C3649 C 0.26227 0.36711 0.95901
 C3650 C 0.25627 0.35281 0.96515
 H3651 H 0.25403 0.37533 0.95329
 H3652 H 0.24359 0.35044 0.96395
 H3653 H 0.27598 0.39331 0.94764
 H3654 H 0.32424 0.37920 0.95910
 H3655 H 0.29358 0.31166 0.99543
 H3656 H 0.24726 0.32480 0.97698
 H3657 H 0.31465 0.35521 0.97158
 H3658 H 0.30485 0.33613 0.98538
 C3659 C 0.78709 0.38785 0.27833
 C3660 C 0.77575 0.37759 0.28559
 C3661 C 0.78053 0.36263 0.29159
 C3662 C 0.79665 0.35788 0.29101
 C3663 C 0.80787 0.36827 0.28405
 C3664 C 0.80319 0.38296 0.27771
 C3665 C 0.78156 0.40373 0.27214
 C3666 C 0.79173 0.41436 0.26390
 C3667 C 0.78620 0.42927 0.25890
 C3668 C 0.77042 0.43403 0.26201
 C3669 C 0.76005 0.42337 0.26982
 C3670 C 0.76544 0.40822 0.27470
 C3671 C 0.75980 0.38250 0.28719
 C3672 C 0.75482 0.39758 0.28209
 H3673 H 0.75110 0.37470 0.29281
 H3674 H 0.74243 0.40093 0.28391
 H3675 H 0.77168 0.35476 0.29686
 H3676 H 0.82046 0.36528 0.28386
 H3677 H 0.79446 0.43723 0.25288
 H3678 H 0.74775 0.42683 0.27207
 H3679 H 0.81245 0.39043 0.27277
 H3680 H 0.80400 0.41144 0.26120
   
