data_POSCAR
  _audit_creation_date              2014-09-24
  _audit_creation_method            'ToBaCCo'
  _symmetry_space_group_name_H-M    'P1'
  _symmetry_Int_Tables_number       1
  _symmetry_cell_setting            triclinic
  loop_
  _symmetry_equiv_pos_as_xyz
 x,y,z
_cell_length_a 72.4322
_cell_length_b 72.5509
_cell_length_c 72.7389
_cell_angle_alpha 90.059100
_cell_angle_beta 90.327600
_cell_angle_gamma 89.786300
loop_
  _atom_site_label
  _atom_site_type_symbol
  _atom_site_fract_x
  _atom_site_fract_y
  _atom_site_fract_z
N1 N 0.18687 0.19076 0.18157
 N2 N 0.68580 0.68972 0.68045
 N3 N 0.26658 0.76877 0.73724
 N4 N 0.76603 0.26799 0.23439
 N5 N 0.81715 0.69118 0.31559
 N6 N 0.31718 0.19030 -0.18490
 N7 N 0.73419 0.27072 -0.23499
 N8 N 0.18482 0.82182 0.31120
 N9 N 0.48036 0.48988 0.48438
 N10 N -0.06699 -0.05870 0.93467
 N11 N 1.01919 0.52394 0.97635
 N12 N 0.51913 0.02537 0.47850
 N13 N -0.01451 0.02149 0.52034
 N14 N 0.48655 0.51958 0.02170
 N15 N 0.56667 -0.06182 0.06144
 N16 N 1.01987 0.48475 0.51298
 C17 C 0.40562 0.01128 0.22164
 H18 H 0.40624 0.02414 0.22915
 C19 C 0.41823 0.00774 0.20760
 H20 H 0.42857 0.01792 0.20423
 C21 C 0.39173 -0.01796 0.21715
 H22 H 0.38163 -0.02808 0.22114
 C23 C 0.40408 -0.02204 0.20303
 H24 H 0.40335 -0.03524 0.19609
 N25 N 0.39264 -0.00146 0.22605
 C26 C 0.34862 0.02918 0.25324
 H27 H 0.34777 0.02152 0.26596
 C28 C 0.33623 0.04356 0.24976
 H29 H 0.32585 0.04707 0.25985
 C30 C 0.36278 0.03359 0.22425
 H31 H 0.37288 0.02942 0.21420
 C32 C 0.35065 0.04808 0.22022
 H33 H 0.35154 0.05512 0.20714
 Zn34 Zn 0.37682 0.00396 0.24597
 N35 N 0.36161 0.02454 0.24059
 C36 C 0.39075 0.02477 0.27628
 N37 N 0.39197 0.00867 0.26673
 C38 C 0.40437 -0.00463 0.27156
 C39 C 0.41576 -0.00227 0.28692
 C40 C 0.40189 0.02769 0.29175
 C41 C 0.34829 -0.02066 0.23757
 C42 C 0.33556 -0.03471 0.24070
 C43 C 0.34883 -0.03902 0.27096
 C44 C 0.36131 -0.02489 0.26727
 N45 N 0.36090 -0.01610 0.25075
 H46 H 0.38111 0.03534 0.27200
 H47 H 0.40522 -0.01718 0.26357
 H48 H 0.42539 -0.01305 0.29084
 H49 H 0.40069 0.04043 0.29945
 H50 H 0.34804 -0.01321 0.22469
 H51 H 0.32550 -0.03818 0.23019
 H52 H 0.34916 -0.04585 0.28420
 H53 H 0.37107 -0.02077 0.27776
 C54 C 0.33723 0.05305 0.23308
 C55 C 0.41746 -0.00908 0.19825
 C56 C 0.33583 -0.04394 0.25757
 C57 C 0.41441 0.01398 0.29718
 C58 C 0.09927 -0.00430 0.72817
 H59 H 0.09757 -0.01639 0.73669
 C60 C 0.08830 -0.00195 0.71251
 H61 H 0.07813 -0.01228 0.70888
 C62 C 0.11457 0.02396 0.72247
 H63 H 0.12468 0.03411 0.72650
 C64 C 0.10387 0.02684 0.70668
 H65 H 0.10590 0.03912 0.69848
 N66 N 0.11229 0.00842 0.73269
 C67 C 0.15343 -0.02208 0.76448
 H68 H 0.15403 -0.01374 0.77680
 C69 C 0.16457 -0.03775 0.76292
 H70 H 0.17377 -0.04156 0.77410
 C71 C 0.14071 -0.02736 0.73482
 H72 H 0.13156 -0.02318 0.72380
 C73 C 0.15163 -0.04312 0.73270
 H74 H 0.15070 -0.05113 0.72015
 Zn75 Zn 0.12663 0.00382 0.75404
 N76 N 0.14156 -0.01739 0.75066
 C77 C 0.10989 -0.01614 0.78304
 N78 N 0.10999 0.00010 0.77368
 C79 C 0.09747 0.01363 0.77738
 C80 C 0.08433 0.01118 0.79114
 C81 C 0.09699 -0.01915 0.79690
 C82 C 0.15621 0.02722 0.74666
 C83 C 0.16897 0.04125 0.74988
 C84 C 0.15379 0.04783 0.77867
 C85 C 0.14129 0.03367 0.77492
 N86 N 0.14264 0.02378 0.75906
 H87 H 0.11957 -0.02693 0.77960
 H88 H 0.09763 0.02626 0.76949
 H89 H 0.07435 0.02197 0.79394
 H90 H 0.09693 -0.03216 0.80420
 H91 H 0.15716 0.01893 0.73433
 H92 H 0.17976 0.04385 0.73997
 H93 H 0.15270 0.05558 0.79135
 H94 H 0.13072 0.03045 0.78480
 C95 C 0.16356 -0.04842 0.74693
 C96 C 0.09070 0.01371 0.70161
 C97 C 0.16775 0.05163 0.76604
 C98 C 0.08409 -0.00538 0.80096
 C99 C 0.59909 0.49555 0.23055
 H100 H 0.59736 0.48365 0.23933
 C101 C 0.58788 0.49778 0.21504
 H102 H 0.57749 0.48757 0.21178
 C103 C 0.61479 0.52340 0.22401
 H104 H 0.62516 0.53344 0.22763
 C105 C 0.60385 0.52617 0.20835
 H106 H 0.60596 0.53823 0.19987
 N107 N 0.61244 0.50810 0.23455
 C108 C 0.65397 0.47744 0.26575
 H109 H 0.65509 0.48600 0.27788
 C110 C 0.66491 0.46163 0.26411
 H111 H 0.67445 0.45794 0.27503
 C112 C 0.64025 0.47179 0.23660
 H113 H 0.63082 0.47589 0.22580
 C114 C 0.65094 0.45588 0.23441
 H115 H 0.64956 0.44769 0.22202
 Zn116 Zn 0.62732 0.50363 0.25558
 N117 N 0.64173 0.48204 0.25222
 C118 C 0.61156 0.48515 0.28617
 N119 N 0.61132 0.50083 0.27590
 C120 C 0.59938 0.51484 0.27966
 C121 C 0.58750 0.51368 0.29467
 C122 C 0.59990 0.48343 0.30129
 C123 C 0.65711 0.52652 0.24688
 C124 C 0.67010 0.54048 0.24954
 C125 C 0.65591 0.54748 0.27873
 C126 C 0.64318 0.53341 0.27553
 N127 N 0.64390 0.52336 0.25972
 H128 H 0.62078 0.47396 0.28272
 H129 H 0.59928 0.52703 0.27109
 H130 H 0.57824 0.52502 0.29775
 H131 H 0.60034 0.47101 0.30955
 H132 H 0.65758 0.51811 0.23460
 H133 H 0.68058 0.54289 0.23927
 H134 H 0.65529 0.55537 0.29137
 H135 H 0.63294 0.53040 0.28580
 C136 C 0.66329 0.45071 0.24833
 C137 C 0.59038 0.51316 0.20377
 C138 C 0.66948 0.55104 0.26562
 C139 C 0.58787 0.49788 0.30565
 C140 C 0.90464 0.51359 0.71947
 H141 H 0.90478 0.52593 0.72784
 C142 C 0.91644 0.51207 0.70441
 H143 H 0.92568 0.52329 0.70111
 C144 C 0.89242 0.48389 0.71347
 H145 H 0.88320 0.47284 0.71713
 C146 C 0.90400 0.48181 0.69832
 H147 H 0.90350 0.46926 0.69024
 N148 N 0.89270 0.49975 0.72349
 C149 C 0.84688 0.52630 0.75204
 H150 H 0.84640 0.51810 0.76444
 C151 C 0.83385 0.54026 0.74913
 H152 H 0.82332 0.54288 0.75933
 C153 C 0.86086 0.53263 0.72333
 H154 H 0.87113 0.52939 0.71312
 C155 C 0.84809 0.54669 0.71988
 H156 H 0.84872 0.55435 0.70712
 Zn157 Zn 0.87668 0.50305 0.74375
 N158 N 0.86013 0.52286 0.73928
 C159 C 0.88919 0.52330 0.77499
 N160 N 0.89151 0.50775 0.76475
 C161 C 0.90481 0.49514 0.76904
 C162 C 0.91602 0.49762 0.78453
 C163 C 0.90011 0.52631 0.79060
 C164 C 0.84995 0.47709 0.73385
 C165 C 0.83890 0.46147 0.73562
 C166 C 0.85280 0.45583 0.76538
 C167 C 0.86360 0.47156 0.76306
 N168 N 0.86220 0.48167 0.74735
 H169 H 0.87886 0.53337 0.77114
 H170 H 0.90654 0.48304 0.76051
 H171 H 0.92639 0.48738 0.78800
 H172 H 0.89803 0.53860 0.79882
 H173 H 0.84890 0.48554 0.72164
 H174 H 0.82934 0.45780 0.72471
 H175 H 0.85411 0.44775 0.77784
 H176 H 0.87306 0.47565 0.77383
 C177 C 0.83447 0.55053 0.73289
 C178 C 0.91600 0.49609 0.69367
 C179 C 0.84042 0.45070 0.75148
 C180 C 0.91355 0.51329 0.79546
 C181 C 0.22704 0.40987 0.00663
 H182 H 0.23512 0.41081 0.01915
 C183 C 0.21177 0.42141 0.00404
 H184 H 0.20802 0.43126 0.01460
 C185 C 0.22194 0.39582 -0.02241
 H186 H 0.22602 0.38595 -0.03274
 C187 C 0.20658 0.40711 -0.02556
 H188 H 0.19876 0.40576 -0.03823
 N189 N 0.23161 0.39717 -0.00636
 C190 C 0.25981 0.35313 0.02347
 H191 H 0.27259 0.35235 0.01587
 C192 C 0.25646 0.34067 0.03768
 H193 H 0.26670 0.33029 0.04110
 C194 C 0.23056 0.36720 0.02793
 H195 H 0.22032 0.37726 0.02384
 C196 C 0.22665 0.35500 0.04222
 H197 H 0.21350 0.35583 0.04919
 Zn198 Zn 0.25203 0.38155 -0.00138
 N199 N 0.24697 0.36613 0.01895
 C200 C 0.28234 0.39525 0.01958
 N201 N 0.27274 0.39668 0.00349
 C202 C 0.27756 0.40914 -0.00958
 C203 C 0.29301 0.42034 -0.00702
 C204 C 0.29788 0.40619 0.02269
 C205 C 0.24370 0.35309 -0.02600
 C206 C 0.24679 0.34040 -0.04011
 C207 C 0.27683 0.35393 -0.04484
 C208 C 0.27318 0.36637 -0.03064
 N209 N 0.25678 0.36580 -0.02161
 H210 H 0.27806 0.38558 0.02998
 H211 H 0.26952 0.41016 -0.02213
 H212 H 0.29695 0.42999 -0.01764
 H213 H 0.30563 0.40477 0.03539
 H214 H 0.23093 0.35271 -0.01836
 H215 H 0.23636 0.33024 -0.04343
 H216 H 0.28997 0.35436 -0.05185
 H217 H 0.28361 0.37622 -0.02666
 C218 C 0.23970 0.34159 0.04709
 C219 C 0.20137 0.41990 -0.01214
 C220 C 0.26353 0.34080 -0.04957
 C221 C 0.30334 0.41872 0.00920
 C222 C 0.72297 0.10335 -0.01057
 H223 H 0.73112 0.10290 -0.02299
 C224 C 0.70876 0.09067 -0.00800
 H225 H 0.70586 0.08045 -0.01849
 C226 C 0.71722 0.11673 0.01862
 H227 H 0.72083 0.12658 0.02917
 C228 C 0.70290 0.10430 0.02174
 H229 H 0.69542 0.10475 0.03459
 N230 N 0.72689 0.11608 0.00263
 C231 C 0.75687 0.15982 -0.02547
 H232 H 0.76901 0.16065 -0.01677
 C233 C 0.75513 0.17136 -0.04073
 H234 H 0.76597 0.18109 -0.04387
 C235 C 0.72795 0.14601 -0.03213
 H236 H 0.71734 0.13622 -0.02866
 C237 C 0.72566 0.15731 -0.04753
 H238 H 0.71336 0.15606 -0.05599
 Zn239 Zn 0.74748 0.13162 -0.00117
 N240 N 0.74354 0.14723 -0.02166
 C241 C 0.77777 0.11691 -0.02123
 N242 N 0.76803 0.11597 -0.00531
 C243 C 0.77191 0.10294 0.00761
 C244 C 0.78622 0.09029 0.00485
 C245 C 0.79218 0.10453 -0.02454
 C246 C 0.73824 0.15939 0.02387
 C247 C 0.74017 0.17063 0.03936
 C248 C 0.76966 0.15617 0.04558
 C249 C 0.76719 0.14519 0.02997
 N250 N 0.75151 0.14675 0.01968
 H251 H 0.77419 0.12700 -0.03156
 H252 H 0.76372 0.10227 0.01998
 H253 H 0.78913 0.07988 0.01513
 H254 H 0.79975 0.10525 -0.03732
 H255 H 0.72604 0.16051 0.01530
 H256 H 0.72940 0.18042 0.04279
 H257 H 0.78204 0.15466 0.05387
 H258 H 0.77776 0.13538 0.02620
 C259 C 0.73945 0.16997 -0.05195
 C260 C 0.69870 0.09111 0.00834
 C261 C 0.75595 0.16889 0.05038
 C262 C 0.79639 0.09107 -0.01141
 C263 C 0.22413 0.60606 0.48922
 H264 H 0.23271 0.60598 0.47709
 C265 C 0.20919 0.59402 0.49046
 H266 H 0.20617 0.58466 0.47924
 C267 C 0.21753 0.61836 0.51870
 H268 H 0.22092 0.62769 0.52977
 C269 C 0.20247 0.60654 0.52050
 H270 H 0.19420 0.60697 0.53285
 N271 N 0.22781 0.61814 0.50308
 C272 C 0.25630 0.66399 0.47687
 H273 H 0.26875 0.66466 0.48514
 C274 C 0.25332 0.67680 0.46282
 H275 H 0.26351 0.68735 0.46018
 C276 C 0.22755 0.64975 0.47045
 H277 H 0.21735 0.63945 0.47368
 C278 C 0.22403 0.66228 0.45630
 H279 H 0.21123 0.66146 0.44857
 Zn280 Zn 0.24804 0.63433 0.50013
 N281 N 0.24356 0.65070 0.48031
 C282 C 0.27972 0.62192 0.48046
 N283 N 0.26922 0.61962 0.49575
 C284 C 0.27330 0.60635 0.50836
 C285 C 0.28883 0.59513 0.50616
 C286 C 0.29539 0.61097 0.47774
 C287 C 0.23779 0.66091 0.52613
 C288 C 0.23939 0.67177 0.54193
 C289 C 0.26931 0.65806 0.54772
 C290 C 0.26716 0.64745 0.53182
 N291 N 0.25143 0.64882 0.52156
 H292 H 0.27602 0.63223 0.47039
 H293 H 0.26455 0.60465 0.52024
 H294 H 0.29212 0.58477 0.51640
 H295 H 0.30382 0.61301 0.46566
 H296 H 0.22556 0.66194 0.51757
 H297 H 0.22835 0.68116 0.54561
 H298 H 0.28177 0.65672 0.55594
 H299 H 0.27805 0.63813 0.52775
 C300 C 0.23702 0.67592 0.45245
 C301 C 0.19819 0.59437 0.50619
 C302 C 0.25525 0.67022 0.55288
 C303 C 0.30003 0.59755 0.49077
 C304 C 0.72667 0.91001 0.50803
 H305 H 0.73490 0.91079 0.52046
 C306 C 0.71138 0.92160 0.50576
 H307 H 0.70777 0.93131 0.51648
 C308 C 0.72123 0.89636 0.47886
 H309 H 0.72519 0.88663 0.46834
 C310 C 0.70584 0.90770 0.47604
 H311 H 0.69789 0.90654 0.46343
 N312 N 0.73109 0.89749 0.49481
 C313 C 0.76001 0.85320 0.52361
 H314 H 0.77266 0.85261 0.51579
 C315 C 0.75694 0.84048 0.53765
 H316 H 0.76728 0.83010 0.54075
 C317 C 0.73076 0.86704 0.52874
 H318 H 0.72040 0.87710 0.52497
 C319 C 0.72714 0.85457 0.54288
 H320 H 0.71409 0.85521 0.55007
 Zn321 Zn 0.75167 0.88191 0.49926
 N322 N 0.74703 0.86619 0.51948
 C323 C 0.78228 0.89552 0.51988
 N324 N 0.77238 0.89709 0.50399
 C325 C 0.77689 0.90975 0.49099
 C326 C 0.79230 0.92102 0.49341
 C327 C 0.79780 0.90653 0.52286
 C328 C 0.74311 0.85371 0.47442
 C329 C 0.74610 0.84114 0.46017
 C330 C 0.77601 0.85486 0.45520
 C331 C 0.77247 0.86717 0.46954
 N332 N 0.75618 0.86644 0.47877
 H333 H 0.77825 0.88569 0.53023
 H334 H 0.76862 0.91087 0.47860
 H335 H 0.79598 0.93084 0.48285
 H336 H 0.80578 0.90502 0.53541
 H337 H 0.73044 0.85319 0.48221
 H338 H 0.73569 0.83095 0.45690
 H339 H 0.78907 0.85541 0.44804
 H340 H 0.78290 0.87703 0.47349
 C341 C 0.74033 0.84115 0.54733
 C342 C 0.70080 0.92032 0.48967
 C343 C 0.76273 0.84170 0.45053
 C344 C 0.80293 0.91928 0.50943
 C345 C 0.01303 0.22639 0.40102
 H346 H 0.02531 0.23484 0.40129
 C347 C 0.01162 0.21128 0.41282
 H348 H 0.02285 0.20802 0.42218
 C349 C -0.01663 0.22025 0.38851
 H350 H -0.02771 0.22388 0.37920
 C351 C -0.01861 0.20504 0.40008
 H352 H -0.03111 0.19690 0.39947
 N353 N -0.00084 0.23038 0.38896
 C354 C 0.02554 0.25946 0.34369
 H355 H 0.01722 0.27187 0.34314
 C356 C 0.03954 0.25666 0.33084
 H357 H 0.04209 0.26696 0.32039
 C358 C 0.03207 0.23059 0.35760
 H359 H 0.02889 0.22028 0.36777
 C360 C 0.04619 0.22725 0.34502
 H361 H 0.05393 0.21446 0.34568
 Zn362 Zn 0.00225 0.25080 0.37307
 N363 N 0.02217 0.24656 0.35681
 C364 C 0.02196 0.28234 0.38579
 N365 N 0.00662 0.27179 0.38794
 C366 C -0.00608 0.27574 0.40110
 C367 C -0.00394 0.29121 0.41233
 C368 C 0.02463 0.29795 0.39674
 C369 C -0.02366 0.24087 0.34618
 C370 C -0.03944 0.24255 0.33518
 C371 C -0.04544 0.27221 0.34911
 C372 C -0.02955 0.26998 0.35987
 N373 N -0.01920 0.25434 0.35845
 H374 H 0.03210 0.27876 0.37555
 H375 H -0.01801 0.26696 0.40268
 H376 H -0.01427 0.29443 0.42257
 H377 H 0.03673 0.30644 0.39479
 H378 H -0.01503 0.22871 0.34513
 H379 H -0.04305 0.23164 0.32564
 H380 H -0.05373 0.28459 0.35048
 H381 H -0.02556 0.28074 0.36933
 C382 C 0.04993 0.24039 0.33152
 C383 C -0.00430 0.20045 0.41223
 C384 C -0.05048 0.25831 0.33676
 C385 C 0.01149 0.30248 0.41003
 C386 C -0.01006 0.72805 0.09555
 H387 H -0.02271 0.73600 0.09482
 C388 C -0.00769 0.71273 0.08417
 H389 H -0.01855 0.70879 0.07467
 C390 C 0.01960 0.72346 0.10880
 H391 H 0.03027 0.72780 0.11827
 C392 C 0.02254 0.70803 0.09766
 H393 H 0.03539 0.70042 0.09870
 N394 N 0.00337 0.73294 0.10774
 C395 C -0.02564 0.76235 0.15124
 H396 H -0.01821 0.77526 0.15130
 C397 C -0.03960 0.75931 0.16405
 H398 H -0.04301 0.76991 0.17397
 C399 C -0.02995 0.73251 0.13862
 H400 H -0.02591 0.72194 0.12897
 C401 C -0.04398 0.72890 0.15119
 H402 H -0.05081 0.71564 0.15105
 Zn403 Zn -0.00127 0.75379 0.12271
 N404 N -0.02118 0.74907 0.13879
 C405 C -0.02343 0.78269 0.10785
 N406 N -0.00693 0.77371 0.10684
 C407 C 0.00569 0.77809 0.09377
 C408 C 0.00204 0.79220 0.08121
 C409 C -0.02763 0.79689 0.09554
 C410 C 0.02438 0.74669 0.15064
 C411 C 0.03889 0.75031 0.16282
 C412 C 0.04302 0.77987 0.14814
 C413 C 0.02842 0.77570 0.13622
 N414 N 0.01949 0.75929 0.13763
 H415 H -0.03347 0.77872 0.11801
 H416 H 0.01857 0.77052 0.09309
 H417 H 0.01215 0.79558 0.07083
 H418 H -0.04082 0.80392 0.09637
 H419 H 0.01681 0.73390 0.15167
 H420 H 0.04259 0.74027 0.17323
 H421 H 0.04996 0.79303 0.14707
 H422 H 0.02406 0.78572 0.12612
 C423 C -0.04882 0.74241 0.16403
 C424 C 0.00872 0.70257 0.08532
 C425 C 0.04825 0.76708 0.16159
 C426 C -0.01478 0.80167 0.08210
 C427 C 0.48902 0.23159 0.59562
 H428 H 0.47661 0.23994 0.59540
 C429 C 0.49067 0.21652 0.58376
 H430 H 0.47948 0.21318 0.57439
 C431 C 0.51877 0.22565 0.60812
 H432 H 0.52978 0.22934 0.61746
 C433 C 0.52098 0.21049 0.59649
 H434 H 0.53360 0.20244 0.59708
 N435 N 0.50282 0.23564 0.60773
 C436 C 0.47600 0.26405 0.65334
 H437 H 0.48416 0.27649 0.65404
 C438 C 0.46207 0.26101 0.66619
 H439 H 0.45942 0.27116 0.67679
 C440 C 0.46981 0.23532 0.63903
 H441 H 0.47310 0.22514 0.62871
 C442 C 0.45578 0.23174 0.65160
 H443 H 0.44820 0.21891 0.65079
 Zn444 Zn 0.49939 0.25588 0.62386
 N445 N 0.47951 0.25133 0.64003
 C446 C 0.47919 0.28735 0.61152
 N447 N 0.49474 0.27701 0.60927
 C448 C 0.50741 0.28130 0.59623
 C449 C 0.50501 0.29689 0.58522
 C450 C 0.47624 0.30307 0.60078
 C451 C 0.52523 0.24575 0.65072
 C452 C 0.54092 0.24732 0.66185
 C453 C 0.54678 0.27713 0.64833
 C454 C 0.53098 0.27501 0.63743
 N455 N 0.52074 0.25935 0.63860
 H456 H 0.46907 0.28350 0.62165
 H457 H 0.51951 0.27269 0.59456
 H458 H 0.51530 0.30036 0.57506
 H459 H 0.46396 0.31137 0.60281
 H460 H 0.51669 0.23359 0.65156
 H461 H 0.54454 0.23631 0.67127
 H462 H 0.55499 0.28953 0.64718
 H463 H 0.52697 0.28586 0.62807
 C464 C 0.45190 0.24469 0.66531
 C465 C 0.50674 0.20580 0.58432
 C466 C 0.55184 0.26310 0.66054
 C467 C 0.48934 0.30794 0.58762
 C468 C 0.51430 0.72371 0.90132
 H469 H 0.52673 0.73193 0.90148
 C470 C 0.51287 0.70838 0.91282
 H471 H 0.52425 0.70471 0.92184
 C472 C 0.48423 0.71843 0.88940
 H473 H 0.47300 0.72250 0.88044
 C474 C 0.48223 0.70301 0.90068
 H475 H 0.46955 0.69514 0.90022
 N476 N 0.50021 0.72825 0.88970
 C477 C 0.52621 0.75821 0.84481
 H478 H 0.51826 0.77086 0.84492
 C479 C 0.53987 0.75551 0.83158
 H480 H 0.54254 0.76613 0.82149
 C481 C 0.53217 0.72866 0.85750
 H482 H 0.52890 0.71806 0.86735
 C483 C 0.54593 0.72540 0.84452
 H484 H 0.55333 0.71240 0.84455
 Zn485 Zn 0.50335 0.74911 0.87441
 N486 N 0.52273 0.74492 0.85751
 C487 C 0.52471 0.77907 0.88809
 N488 N 0.50878 0.76936 0.88993
 C489 C 0.49662 0.77323 0.90361
 C490 C 0.50015 0.78752 0.91599
 C491 C 0.52878 0.79348 0.90019
 C492 C 0.47675 0.74064 0.84786
 C493 C 0.46081 0.74293 0.83721
 C494 C 0.45547 0.77214 0.85232
 C495 C 0.47152 0.76930 0.86271
 N496 N 0.48163 0.75360 0.86050
 H497 H 0.53442 0.77551 0.87744
 H498 H 0.48422 0.76508 0.90495
 H499 H 0.49043 0.79047 0.92688
 H500 H 0.54153 0.80109 0.89871
 H501 H 0.48519 0.72842 0.84621
 H502 H 0.45690 0.73243 0.82735
 H503 H 0.44737 0.78456 0.85428
 H504 H 0.47584 0.77963 0.87251
 C505 C 0.54981 0.73894 0.83145
 C506 C 0.49672 0.69788 0.91240
 C507 C 0.45003 0.75877 0.83955
 C508 C 0.51639 0.79772 0.91427
 C509 C 0.17566 0.19632 0.19596
 C510 C 0.16573 0.20108 0.20836
 C511 C 0.15361 0.20661 0.22299
 C512 C 0.15620 0.19963 0.24074
 C513 C 0.14401 0.20449 0.25479
 C514 C 0.12903 0.21641 0.25124
 C515 C 0.12668 0.22352 0.23338
 C516 C 0.13888 0.21863 0.21936
 C517 C 0.11567 0.22107 0.26596
 C518 C 0.10848 0.23905 0.26756
 C519 C 0.09548 0.24325 0.28110
 C520 C 0.08950 0.22955 0.29320
 C521 C 0.09668 0.21168 0.29181
 C522 C 0.10968 0.20745 0.27830
 C523 C 0.07572 0.23368 0.30678
 C524 C 0.06404 0.23689 0.31809
 H525 H 0.16757 0.19033 0.24370
 H526 H 0.14633 0.19898 0.26844
 H527 H 0.11516 0.23252 0.23014
 H528 H 0.13670 0.22405 0.20564
 H529 H 0.11298 0.24989 0.25842
 H530 H 0.09003 0.25714 0.28207
 H531 H 0.09209 0.20095 0.30106
 H532 H 0.11474 0.19343 0.27727
 C533 C 0.67443 0.69534 0.69469
 C534 C 0.66441 0.70013 0.70700
 C535 C 0.65223 0.70565 0.72159
 C536 C 0.65600 0.70036 0.73972
 C537 C 0.64384 0.70522 0.75380
 C538 C 0.62774 0.71544 0.74991
 C539 C 0.62419 0.72086 0.73165
 C540 C 0.63636 0.71598 0.71760
 C541 C 0.61449 0.72009 0.76473
 C542 C 0.60578 0.73746 0.76524
 C543 C 0.59294 0.74160 0.77894
 C544 C 0.58865 0.72846 0.79231
 C545 C 0.59734 0.71120 0.79200
 C546 C 0.61017 0.70703 0.77833
 C547 C 0.57509 0.73249 0.80614
 C548 C 0.56362 0.73559 0.81769
 H549 H 0.66826 0.69238 0.74296
 H550 H 0.64708 0.70104 0.76774
 H551 H 0.61180 0.72852 0.72817
 H552 H 0.63328 0.72009 0.70359
 H553 H 0.60897 0.74787 0.75510
 H554 H 0.58632 0.75501 0.77906
 H555 H 0.59405 0.70090 0.80224
 H556 H 0.61643 0.69346 0.77817
 C557 C 0.28388 0.76872 0.74550
 C558 C 0.29886 0.76862 0.75283
 C559 C 0.31662 0.76840 0.76179
 C560 C 0.32806 0.75289 0.76037
 C561 C 0.34508 0.75244 0.76951
 C562 C 0.35089 0.76753 0.78023
 C563 C 0.33935 0.78313 0.78145
 C564 C 0.32233 0.78355 0.77228
 C565 C 0.36872 0.76683 0.79039
 C566 C 0.37005 0.77373 0.80844
 C567 C 0.38670 0.77258 0.81819
 C568 C 0.40224 0.76456 0.81006
 C569 C 0.40112 0.75782 0.79205
 C570 C 0.38448 0.75894 0.78227
 C571 C 0.41918 0.76282 0.82034
 C572 C 0.43329 0.76112 0.82905
 H573 H 0.32373 0.74106 0.75235
 H574 H 0.35353 0.74014 0.76850
 H575 H 0.34353 0.79504 0.78940
 H576 H 0.31359 0.79564 0.77346
 H577 H 0.35812 0.77965 0.81516
 H578 H 0.38739 0.77776 0.83216
 H579 H 0.41307 0.75160 0.78562
 H580 H 0.38396 0.75372 0.76833
 C581 C -0.21668 0.26782 0.24268
 C582 C -0.20170 0.26758 0.25000
 C583 C -0.18392 0.26716 0.25891
 C584 C -0.17360 0.25082 0.25925
 C585 C -0.15654 0.25023 0.26832
 C586 C -0.14958 0.26600 0.27720
 C587 C -0.16000 0.28241 0.27665
 C588 C -0.17705 0.28297 0.26756
 C589 C -0.13171 0.26523 0.28728
 C590 C -0.12968 0.27409 0.30439
 C591 C -0.11302 0.27297 0.31412
 C592 C -0.09815 0.26302 0.30688
 C593 C -0.09996 0.25428 0.28981
 C594 C -0.11663 0.25537 0.28006
 C595 C -0.08120 0.26147 0.31718
 C596 C -0.06712 0.26008 0.32600
 H597 H -0.17883 0.23848 0.25266
 H598 H -0.14898 0.23733 0.26871
 H599 H -0.15490 0.29484 0.28315
 H600 H -0.18492 0.29570 0.26735
 H601 H -0.14110 0.28157 0.31044
 H602 H -0.11179 0.27972 0.32736
 H603 H -0.08853 0.24655 0.28408
 H604 H -0.11768 0.24859 0.26683
 C605 C -0.17183 0.69690 0.30116
 C606 C -0.16210 0.70177 0.28869
 C607 C -0.15025 0.70740 0.27393
 C608 C -0.15343 0.70098 0.25605
 C609 C -0.14155 0.70597 0.24182
 C610 C -0.12632 0.71747 0.24531
 C611 C -0.12336 0.72400 0.26331
 C612 C -0.13525 0.71898 0.27751
 C613 C -0.11332 0.72230 0.23036
 C614 C -0.10594 0.74017 0.22912
 C615 C -0.09327 0.74451 0.21537
 C616 C -0.08780 0.73107 0.20269
 C617 C -0.09519 0.71330 0.20370
 C618 C -0.10787 0.70894 0.21743
 C619 C -0.07428 0.73532 0.18893
 C620 C -0.06277 0.73867 0.17751
 H621 H -0.16502 0.69202 0.25312
 H622 H -0.14433 0.70091 0.22808
 H623 H -0.11163 0.73266 0.26650
 H624 H -0.13262 0.72397 0.29132
 H625 H -0.11004 0.75082 0.23873
 H626 H -0.08765 0.75831 0.21470
 H627 H -0.09098 0.70277 0.19401
 H628 H -0.11309 0.69499 0.21816
 C629 C 0.32806 0.19607 0.80058
 C630 C 0.33770 0.20105 0.78807
 C631 C 0.34949 0.20690 0.77335
 C632 C 0.35455 0.19445 0.75955
 C633 C 0.36655 0.19991 0.74561
 C634 C 0.37369 0.21792 0.74531
 C635 C 0.36836 0.23040 0.75915
 C636 C 0.35634 0.22490 0.77307
 C637 C 0.38696 0.22352 0.73088
 C638 C 0.40241 0.23437 0.73540
 C639 C 0.41523 0.23914 0.72195
 C640 C 0.41280 0.23316 0.70380
 C641 C 0.39740 0.22253 0.69912
 C642 C 0.38455 0.21773 0.71255
 C643 C 0.42639 0.23751 0.69013
 C644 C 0.43793 0.24092 0.67877
 H645 H 0.34939 0.18045 0.75969
 H646 H 0.37058 0.18991 0.73531
 H647 H 0.37343 0.24442 0.75916
 H648 H 0.35250 0.23466 0.78368
 H649 H 0.40479 0.23882 0.74943
 H650 H 0.42716 0.24730 0.72575
 H651 H 0.39538 0.21783 0.68510
 H652 H 0.37270 0.20956 0.70859
 C653 C 0.71705 0.27098 0.75640
 C654 C 0.70220 0.27110 0.74881
 C655 C 0.68457 0.27106 0.73961
 C656 C 0.66974 0.26139 0.74713
 C657 C 0.65275 0.26092 0.73792
 C658 C 0.65038 0.27012 0.72104
 C659 C 0.66534 0.27993 0.71368
 C660 C 0.68232 0.28038 0.72291
 C661 C 0.63251 0.26920 0.71096
 C662 C 0.62537 0.28483 0.70191
 C663 C 0.60878 0.28380 0.69205
 C664 C 0.59912 0.26715 0.69109
 C665 C 0.60603 0.25157 0.70016
 C666 C 0.62261 0.25257 0.71004
 C667 C 0.58233 0.26593 0.68050
 C668 C 0.56837 0.26474 0.67148
 H669 H 0.67133 0.25415 0.76006
 H670 H 0.64144 0.25344 0.74405
 H671 H 0.66404 0.28694 0.70060
 H672 H 0.69373 0.28784 0.71693
 H673 H 0.63255 0.29788 0.70256
 H674 H 0.60353 0.29596 0.68509
 H675 H 0.59871 0.23859 0.69944
 H676 H 0.62786 0.24024 0.71664
 C677 C 0.17370 0.81562 0.29690
 C678 C 0.16389 0.81042 0.28450
 C679 C 0.15196 0.80450 0.26977
 C680 C 0.15395 0.81192 0.25214
 C681 C 0.14191 0.80672 0.23799
 C682 C 0.12768 0.79400 0.24129
 C683 C 0.12593 0.78646 0.25902
 C684 C 0.13799 0.79170 0.27315
 C685 C 0.11444 0.78896 0.22646
 C686 C 0.10827 0.77068 0.22453
 C687 C 0.09533 0.76610 0.21095
 C688 C 0.08840 0.77970 0.19912
 C689 C 0.09459 0.79788 0.20081
 C690 C 0.10753 0.80249 0.21437
 C691 C 0.07453 0.77514 0.18564
 C692 C 0.06267 0.77142 0.17455
 H693 H 0.16474 0.82184 0.24937
 H694 H 0.14376 0.81259 0.22445
 H695 H 0.11497 0.77685 0.26207
 H696 H 0.13626 0.78594 0.28676
 H697 H 0.11350 0.75992 0.23347
 H698 H 0.09064 0.75199 0.20976
 H699 H 0.08923 0.80853 0.19179
 H700 H 0.11180 0.81672 0.21566
 C701 C 0.20133 0.17944 0.18712
 C702 C 0.21386 0.16945 0.19179
 C703 C 0.22871 0.15733 0.19711
 C704 C 0.24135 0.15119 0.18396
 C705 C 0.25546 0.13895 0.18894
 C706 C 0.25710 0.13265 0.20717
 C707 C 0.24442 0.13905 0.22033
 C708 C 0.23032 0.15131 0.21532
 C709 C 0.27171 0.11915 0.21231
 C710 C 0.26774 0.10446 0.22425
 C711 C 0.28131 0.09143 0.22868
 C712 C 0.29903 0.09291 0.22127
 C713 C 0.30318 0.10756 0.20952
 C714 C 0.28962 0.12061 0.20506
 C715 C 0.31278 0.07915 0.22545
 C716 C 0.32406 0.06738 0.22893
 H717 H 0.24018 0.15571 0.16980
 H718 H 0.26483 0.13409 0.17843
 H719 H 0.24545 0.13465 0.23452
 H720 H 0.22062 0.15600 0.22561
 H721 H 0.25403 0.10280 0.22985
 H722 H 0.27793 0.08010 0.23773
 H723 H 0.31686 0.10885 0.20372
 H724 H 0.29316 0.13189 0.19602
 C725 C 0.70000 0.67819 0.68621
 C726 C 0.71226 0.66800 0.69113
 C727 C 0.72675 0.65560 0.69684
 C728 C 0.74156 0.65193 0.68511
 C729 C 0.75533 0.63943 0.69037
 C730 C 0.75446 0.63040 0.70746
 C731 C 0.73959 0.63432 0.71923
 C732 C 0.72584 0.64684 0.71394
 C733 C 0.76879 0.61668 0.71279
 C734 C 0.76380 0.60017 0.72159
 C735 C 0.77722 0.58701 0.72612
 C736 C 0.79578 0.59016 0.72195
 C737 C 0.80090 0.60660 0.71336
 C738 C 0.78751 0.61978 0.70881
 C739 C 0.80948 0.57633 0.72608
 C740 C 0.82090 0.56463 0.72931
 H741 H 0.74235 0.65857 0.67180
 H742 H 0.76645 0.63652 0.68090
 H743 H 0.73865 0.62778 0.73256
 H744 H 0.71444 0.64960 0.72314
 H745 H 0.74949 0.59726 0.72461
 H746 H 0.77309 0.57429 0.73269
 H747 H 0.81523 0.60918 0.71008
 H748 H 0.79181 0.63244 0.70225
 C749 C 0.74293 0.28769 0.76468
 C750 C 0.75063 0.30240 0.76424
 C751 C 0.75998 0.31984 0.76348
 C752 C 0.77480 0.32344 0.77537
 C753 C 0.78425 0.34016 0.77425
 C754 C 0.77901 0.35352 0.76118
 C755 C 0.76398 0.34983 0.74941
 C756 C 0.75454 0.33310 0.75057
 C757 C 0.78939 0.37106 0.75961
 C758 C 0.79344 0.37847 0.74223
 C759 C 0.80352 0.39478 0.74072
 C760 C 0.80968 0.40392 0.75653
 C761 C 0.80565 0.39674 0.77389
 C762 C 0.79557 0.38041 0.77544
 C763 C 0.82038 0.42051 0.75490
 C764 C 0.82945 0.43432 0.75341
 H765 H 0.77917 0.31323 0.78536
 H766 H 0.79590 0.34248 0.78334
 H767 H 0.75946 0.35992 0.73938
 H768 H 0.74307 0.33047 0.74132
 H769 H 0.78911 0.37147 0.72979
 H770 H 0.80664 0.40018 0.72721
 H771 H 0.81033 0.40373 0.78623
 H772 H 0.79249 0.37518 0.78901
 C773 C 0.19921 -0.16715 0.30529
 C774 C 0.21165 -0.15741 0.30024
 C775 C 0.22637 -0.14558 0.29437
 C776 C 0.22264 -0.13090 0.28244
 C777 C 0.23680 -0.11902 0.27716
 C778 C 0.25491 -0.12166 0.28379
 C779 C 0.25855 -0.13657 0.29565
 C780 C 0.24436 -0.14844 0.30089
 C781 C 0.26981 -0.10865 0.27870
 C782 C 0.28277 -0.10279 0.29194
 C783 C 0.29644 -0.09009 0.28732
 C784 C 0.29737 -0.08309 0.26944
 C785 C 0.28468 -0.08897 0.25611
 C786 C 0.27098 -0.10167 0.26070
 C787 C 0.31106 -0.06952 0.26494
 C788 C 0.32241 -0.05796 0.26143
 H789 H 0.20874 -0.12851 0.27737
 H790 H 0.23350 -0.10753 0.26823
 H791 H 0.27238 -0.13910 0.30080
 H792 H 0.24740 -0.15978 0.31012
 H793 H 0.28208 -0.10770 0.30597
 H794 H 0.30615 -0.08556 0.29776
 H795 H 0.28529 -0.08365 0.24222
 H796 H 0.26135 -0.10608 0.25016
 C797 C 0.25821 -0.21400 0.73749
 C798 C 0.25083 -0.19908 0.73778
 C799 C 0.24187 -0.18136 0.73824
 C800 C 0.24158 -0.17114 0.75456
 C801 C 0.23247 -0.15413 0.75517
 C802 C 0.22349 -0.14713 0.73944
 C803 C 0.22399 -0.15745 0.72306
 C804 C 0.23312 -0.17445 0.72248
 C805 C 0.21335 -0.12932 0.74024
 C806 C 0.19613 -0.12732 0.73138
 C807 C 0.18636 -0.11071 0.73250
 C808 C 0.19365 -0.09588 0.74244
 C809 C 0.21082 -0.09767 0.75119
 C810 C 0.22062 -0.11428 0.75010
 C811 C 0.18331 -0.07899 0.74395
 C812 C 0.17443 -0.06497 0.74528
 H813 H 0.24825 -0.17639 0.76687
 H814 H 0.23212 -0.14664 0.76805
 H815 H 0.21742 -0.15232 0.71066
 H816 H 0.23329 -0.18224 0.70976
 H817 H 0.19004 -0.13871 0.72391
 H818 H 0.17304 -0.10950 0.72575
 H819 H 0.21660 -0.08627 0.75890
 H820 H 0.23394 -0.11532 0.75687
 C821 C 0.75763 0.28519 0.23485
 C822 C 0.75022 0.30010 0.23536
 C823 C 0.74120 0.31778 0.23615
 C824 C 0.74820 0.33166 0.24756
 C825 C 0.73914 0.34867 0.24873
 C826 C 0.72294 0.35201 0.23848
 C827 C 0.71611 0.33802 0.22691
 C828 C 0.72519 0.32102 0.22578
 C829 C 0.71300 0.36989 0.24008
 C830 C 0.70519 0.37836 0.22446
 C831 C 0.69547 0.39497 0.22607
 C832 C 0.69342 0.40332 0.24329
 C833 C 0.70124 0.39507 0.25889
 C834 C 0.71098 0.37848 0.25731
 C835 C 0.68300 0.42015 0.24502
 C836 C 0.67410 0.43414 0.24651
 H837 H 0.76061 0.32931 0.25563
 H838 H 0.74487 0.35925 0.25757
 H839 H 0.70355 0.34007 0.21904
 H840 H 0.71961 0.31034 0.21695
 H841 H 0.70671 0.37222 0.21098
 H842 H 0.68949 0.40125 0.21390
 H843 H 0.69967 0.40138 0.27230
 H844 H 0.71660 0.37218 0.26963
 C845 C 0.80301 0.67955 0.31005
 C846 C 0.79082 0.66928 0.30532
 C847 C 0.77642 0.65678 0.29983
 C848 C 0.77729 0.64783 0.28280
 C849 C 0.76363 0.63521 0.27773
 C850 C 0.74891 0.63137 0.28965
 C851 C 0.74807 0.64058 0.30667
 C852 C 0.76175 0.65318 0.31171
 C853 C 0.73468 0.61755 0.28455
 C854 C 0.71596 0.62064 0.28865
 C855 C 0.70267 0.60738 0.28431
 C856 C 0.70790 0.59086 0.27583
 C857 C 0.72646 0.58772 0.27154
 C858 C 0.73977 0.60097 0.27585
 C859 C 0.69431 0.57695 0.27194
 C860 C 0.68297 0.56519 0.26892
 H861 H 0.78859 0.65053 0.27349
 H862 H 0.76454 0.62852 0.26445
 H863 H 0.73706 0.63774 0.31625
 H864 H 0.76099 0.65997 0.32496
 H865 H 0.71158 0.63336 0.29513
 H866 H 0.68834 0.60996 0.28768
 H867 H 0.73067 0.57494 0.26505
 H868 H 0.75409 0.59806 0.27274
 C869 C 0.30289 0.17880 0.80969
 C870 C 0.29052 0.16864 0.80515
 C871 C 0.27587 0.15632 0.79997
 C872 C 0.27562 0.14828 0.78247
 C873 C 0.26171 0.13583 0.77767
 C874 C 0.24785 0.13125 0.79033
 C875 C 0.24812 0.13955 0.80783
 C876 C 0.26205 0.15198 0.81260
 C877 C 0.23339 0.11758 0.78548
 C878 C 0.21497 0.12028 0.79096
 C879 C 0.20149 0.10716 0.78677
 C880 C 0.20622 0.09119 0.77705
 C881 C 0.22447 0.08844 0.77143
 C882 C 0.23797 0.10154 0.77559
 C883 C 0.19247 0.07745 0.77311
 C884 C 0.18111 0.06577 0.76986
 H885 H 0.28625 0.15156 0.77258
 H886 H 0.26175 0.12986 0.76402
 H887 H 0.23780 0.13612 0.81797
 H888 H 0.26215 0.15806 0.82621
 H889 H 0.21097 0.13259 0.79839
 H890 H 0.18740 0.10944 0.79116
 H891 H 0.22830 0.07608 0.76396
 H892 H 0.25206 0.09893 0.77140
 C893 C 0.19255 0.20527 0.17060
 C894 C 0.19741 0.21780 0.16090
 C895 C 0.20309 0.23261 0.14910
 C896 C 0.21633 0.22944 0.13552
 C897 C 0.22144 0.24364 0.12364
 C898 C 0.21335 0.26123 0.12519
 C899 C 0.20018 0.26434 0.13902
 C900 C 0.19509 0.25011 0.15089
 C901 C 0.21831 0.27613 0.11215
 C902 C 0.20460 0.28789 0.10490
 C903 C 0.20917 0.30151 0.09215
 C904 C 0.22747 0.30360 0.08650
 C905 C 0.24125 0.29212 0.09377
 C906 C 0.23672 0.27847 0.10652
 C907 C 0.23200 0.31718 0.07287
 C908 C 0.23561 0.32840 0.06123
 H909 H 0.22254 0.21592 0.13397
 H910 H 0.23142 0.24074 0.11298
 H911 H 0.19387 0.27778 0.14070
 H912 H 0.18485 0.25272 0.16138
 H913 H 0.19029 0.28628 0.10876
 H914 H 0.19838 0.31027 0.08654
 H915 H 0.25547 0.29362 0.08950
 H916 H 0.24761 0.26979 0.11202
 C917 C 0.69183 0.70424 0.66966
 C918 C 0.69693 0.71680 0.66012
 C919 C 0.70280 0.73169 0.64851
 C920 C 0.72076 0.73190 0.64153
 C921 C 0.72624 0.74604 0.62972
 C922 C 0.71381 0.76015 0.62473
 C923 C 0.69584 0.75990 0.63199
 C924 C 0.69039 0.74575 0.64379
 C925 C 0.71937 0.77481 0.61166
 C926 C 0.71372 0.79319 0.61436
 C927 C 0.71844 0.80685 0.60169
 C928 C 0.72887 0.80232 0.58618
 C929 C 0.73471 0.78412 0.58347
 C930 C 0.73002 0.77045 0.59612
 C931 C 0.73313 0.81621 0.57276
 C932 C 0.73651 0.82767 0.56129
 H933 H 0.73049 0.72109 0.64511
 H934 H 0.74023 0.74597 0.62454
 H935 H 0.68586 0.77040 0.62822
 H936 H 0.67642 0.74567 0.64905
 H937 H 0.70570 0.79702 0.62630
 H938 H 0.71385 0.82090 0.60393
 H939 H 0.74271 0.78045 0.57146
 H940 H 0.73436 0.75640 0.59351
 C941 C 0.81111 0.70564 0.32654
 C942 C 0.80600 0.71815 0.33622
 C943 C 0.80013 0.73297 0.34800
 C944 C 0.81252 0.74692 0.35286
 C945 C 0.80707 0.76099 0.36482
 C946 C 0.78911 0.76128 0.37211
 C947 C 0.77669 0.74729 0.36698
 C948 C 0.78218 0.73323 0.35501
 C949 C 0.78355 0.77585 0.38535
 C950 C 0.77292 0.77141 0.40086
 C951 C 0.76824 0.78499 0.41368
 C952 C 0.77407 0.80318 0.41117
 C953 C 0.78447 0.80778 0.39570
 C954 C 0.78918 0.79422 0.38286
 C955 C 0.76983 0.81696 0.42477
 C956 C 0.76649 0.82833 0.43639
 H957 H 0.82648 0.74680 0.34758
 H958 H 0.81703 0.77140 0.36869
 H959 H 0.76271 0.74726 0.37218
 H960 H 0.77246 0.72251 0.35132
 H961 H 0.76860 0.75736 0.40331
 H962 H 0.76026 0.78126 0.42566
 H963 H 0.78905 0.82182 0.39363
 H964 H 0.79718 0.79812 0.37096
 C965 C 0.31136 0.20472 -0.17379
 C966 C 0.30640 0.21719 -0.16400
 C967 C 0.30066 0.23197 -0.15209
 C968 C 0.31312 0.24587 -0.14726
 C969 C 0.30776 0.25991 -0.13523
 C970 C 0.28985 0.26023 -0.12785
 C971 C 0.27736 0.24628 -0.13294
 C972 C 0.28275 0.23225 -0.14498
 C973 C 0.28438 0.27480 -0.11457
 C974 C 0.27381 0.27037 -0.09902
 C975 C 0.26916 0.28396 -0.08620
 C976 C 0.27497 0.30215 -0.08875
 C977 C 0.28532 0.30674 -0.10427
 C978 C 0.28999 0.29317 -0.11710
 C979 C 0.27072 0.31595 -0.07519
 C980 C 0.26735 0.32737 -0.06362
 H981 H 0.32704 0.24573 -0.15263
 H982 H 0.31777 0.27030 -0.13139
 H983 H 0.26341 0.24627 -0.12767
 H984 H 0.27298 0.22156 -0.14865
 H985 H 0.26950 0.25632 -0.09654
 H986 H 0.26122 0.28024 -0.07420
 H987 H 0.28987 0.32079 -0.10638
 H988 H 0.29794 0.29705 -0.12904
 C989 C 0.73371 0.26294 -0.21759
 C990 C 0.73336 0.25599 -0.20254
 C991 C 0.73306 0.24743 -0.18471
 C992 C 0.72259 0.23151 -0.18194
 C993 C 0.72273 0.22279 -0.16481
 C994 C 0.73340 0.22987 -0.15021
 C995 C 0.74373 0.24599 -0.15309
 C996 C 0.74355 0.25470 -0.17023
 C997 C 0.73408 0.22020 -0.13223
 C998 C 0.75090 0.21831 -0.12261
 C999 C 0.75168 0.20864 -0.10602
 C1000 C 0.73569 0.20075 -0.09878
 C1001 C 0.71886 0.20273 -0.10811
 C1002 C 0.71804 0.21239 -0.12473
 C1003 C 0.73672 0.19018 -0.08208
 C1004 C 0.73783 0.18109 -0.06825
 H1005 H 0.71447 0.22572 -0.19307
 H1006 H 0.71484 0.21027 -0.16312
 H1007 H 0.75189 0.25191 -0.14206
 H1008 H 0.75169 0.26703 -0.17223
 H1009 H 0.76353 0.22393 -0.12814
 H1010 H 0.76481 0.20711 -0.09895
 H1011 H 0.70639 0.19669 -0.10263
 H1012 H 0.70485 0.21381 -0.13168
 C1013 C 0.19057 0.80785 0.32294
 C1014 C 0.19550 0.79583 0.33334
 C1015 C 0.20126 0.78168 0.34600
 C1016 C 0.19474 0.76366 0.34396
 C1017 C 0.19985 0.75006 0.35664
 C1018 C 0.21156 0.75433 0.37154
 C1019 C 0.21820 0.77245 0.37335
 C1020 C 0.21306 0.78602 0.36066
 C1021 C 0.21651 0.74007 0.38538
 C1022 C 0.23450 0.73907 0.39274
 C1023 C 0.23898 0.72592 0.40611
 C1024 C 0.22555 0.71360 0.41228
 C1025 C 0.20766 0.71440 0.40495
 C1026 C 0.20316 0.72752 0.39159
 C1027 C 0.22997 0.70032 0.42633
 C1028 C 0.23336 0.68920 0.43820
 H1029 H 0.18561 0.76014 0.33265
 H1030 H 0.19471 0.73619 0.35474
 H1031 H 0.22702 0.77624 0.38479
 H1032 H 0.21812 0.79995 0.36241
 H1033 H 0.24514 0.74839 0.38808
 H1034 H 0.25288 0.72540 0.41166
 H1035 H 0.19714 0.70498 0.40969
 H1036 H 0.18913 0.72810 0.38640
 C1037 C 0.26652 0.76077 0.71992
 C1038 C 0.26633 0.75372 0.70489
 C1039 C 0.26588 0.74517 0.68704
 C1040 C 0.27561 0.72876 0.68396
 C1041 C 0.27474 0.72014 0.66679
 C1042 C 0.26409 0.72781 0.65245
 C1043 C 0.25449 0.74439 0.65564
 C1044 C 0.25539 0.75300 0.67283
 C1045 C 0.26274 0.71835 0.63437
 C1046 C 0.24572 0.71735 0.62500
 C1047 C 0.24433 0.70801 0.60823
 C1048 C 0.25991 0.69958 0.60059
 C1049 C 0.27694 0.70063 0.60972
 C1050 C 0.27836 0.70995 0.62650
 C1051 C 0.25833 0.68948 0.58361
 C1052 C 0.25695 0.68082 0.56953
 H1053 H 0.28371 0.72254 0.69489
 H1054 H 0.28209 0.70726 0.66485
 H1055 H 0.24637 0.75076 0.64482
 H1056 H 0.24782 0.76571 0.67506
 H1057 H 0.23340 0.72344 0.63081
 H1058 H 0.23107 0.70720 0.60132
 H1059 H 0.28909 0.69416 0.60391
 H1060 H 0.29169 0.71068 0.63326
 C1061 C 0.76604 0.26018 0.21698
 C1062 C 0.76596 0.25325 0.20190
 C1063 C 0.76573 0.24476 0.18401
 C1064 C 0.77577 0.22854 0.18094
 C1065 C 0.77512 0.21994 0.16374
 C1066 C 0.76439 0.22745 0.14938
 C1067 C 0.75448 0.24386 0.15257
 C1068 C 0.75516 0.25244 0.16978
 C1069 C 0.76322 0.21796 0.13131
 C1070 C 0.74623 0.21664 0.12193
 C1071 C 0.74499 0.20718 0.10522
 C1072 C 0.76071 0.19894 0.09764
 C1073 C 0.77771 0.20034 0.10675
 C1074 C 0.77898 0.20978 0.12348
 C1075 C 0.75924 0.18862 0.08080
 C1076 C 0.75784 0.17975 0.06684
 H1077 H 0.78394 0.22244 0.19189
 H1078 H 0.78270 0.20720 0.16181
 H1079 H 0.74628 0.25009 0.14173
 H1080 H 0.74736 0.26501 0.17201
 H1081 H 0.73381 0.22256 0.12772
 H1082 H 0.73174 0.20610 0.09833
 H1083 H 0.78996 0.19401 0.10100
 H1084 H 0.79229 0.21075 0.13025
 C1085 C 0.47996 0.47267 0.49266
 C1086 C 0.47977 0.45777 0.49999
 C1087 C 0.47978 0.44009 0.50894
 C1088 C 0.46478 0.43482 0.51976
 C1089 C 0.46508 0.41791 0.52896
 C1090 C 0.48042 0.40603 0.52746
 C1091 C 0.49534 0.41139 0.51640
 C1092 C 0.49501 0.42831 0.50722
 C1093 C 0.48105 0.38834 0.53770
 C1094 C 0.48845 0.37236 0.52954
 C1095 C 0.48960 0.35587 0.53942
 C1096 C 0.48336 0.35512 0.55758
 C1097 C 0.47581 0.37088 0.56577
 C1098 C 0.47464 0.38737 0.55591
 C1099 C 0.48519 0.33835 0.56799
 C1100 C 0.48695 0.32442 0.57686
 H1101 H 0.45291 0.44383 0.52117
 H1102 H 0.45329 0.41408 0.53718
 H1103 H 0.50745 0.40269 0.51516
 H1104 H 0.50673 0.43229 0.49895
 H1105 H 0.49329 0.37260 0.51548
 H1106 H 0.49546 0.34375 0.53295
 H1107 H 0.47103 0.37047 0.57985
 H1108 H 0.46911 0.39948 0.56267
 C1109 C -0.06132 0.92967 -0.05125
 C1110 C -0.05651 0.91941 -0.03908
 C1111 C -0.05095 0.90695 -0.02468
 C1112 C -0.03806 0.89301 -0.02826
 C1113 C -0.03309 0.88052 -0.01446
 C1114 C -0.04099 0.88179 0.00313
 C1115 C -0.05381 0.89597 0.00664
 C1116 C -0.05875 0.90846 -0.00718
 C1117 C -0.03614 0.86817 0.01762
 C1118 C -0.04986 0.86101 0.02920
 C1119 C -0.04538 0.84783 0.04253
 C1120 C -0.02716 0.84164 0.04448
 C1121 C -0.01338 0.84877 0.03313
 C1122 C -0.01782 0.86195 0.01979
 C1123 C -0.02269 0.82772 0.05788
 C1124 C -0.01903 0.81592 0.06899
 H1125 H -0.03200 0.89167 -0.04178
 H1126 H -0.02338 0.86962 -0.01767
 H1127 H -0.05995 0.89746 0.02010
 H1128 H -0.06873 0.91921 -0.00425
 H1129 H -0.06411 0.86532 0.02772
 H1130 H -0.05617 0.84235 0.05119
 H1131 H 0.00078 0.84409 0.03455
 H1132 H -0.00692 0.86735 0.01124
 C1133 C 0.01914 0.54098 -0.01498
 C1134 C 0.01902 0.55570 -0.00726
 C1135 C 0.01878 0.57311 0.00222
 C1136 C 0.00276 0.58396 0.00212
 C1137 C 0.00229 0.60058 0.01185
 C1138 C 0.01785 0.60657 0.02184
 C1139 C 0.03395 0.59564 0.02171
 C1140 C 0.03439 0.57902 0.01197
 C1141 C 0.01714 0.62393 0.03267
 C1142 C 0.02517 0.62482 0.05031
 C1143 C 0.02398 0.64097 0.06074
 C1144 C 0.01478 0.65644 0.05369
 C1145 C 0.00691 0.65576 0.03609
 C1146 C 0.00808 0.63962 0.02563
 C1147 C 0.01296 0.67282 0.06472
 C1148 C 0.01118 0.68644 0.07406
 H1149 H -0.00943 0.57947 -0.00530
 H1150 H -0.01038 0.60854 0.01188
 H1151 H 0.04622 0.59998 0.02908
 H1152 H 0.04686 0.57074 0.01212
 H1153 H 0.03201 0.61291 0.05621
 H1154 H 0.03004 0.64132 0.07439
 H1155 H -0.00024 0.66766 0.03050
 H1156 H 0.00196 0.63944 0.01202
 C1157 C 0.51881 0.04252 0.48694
 C1158 C 0.51836 0.05738 0.49438
 C1159 C 0.51758 0.07500 0.50343
 C1160 C 0.50071 0.08431 0.50500
 C1161 C 0.49979 0.10118 0.51427
 C1162 C 0.51577 0.10896 0.52211
 C1163 C 0.53271 0.09957 0.52029
 C1164 C 0.53359 0.08271 0.51102
 C1165 C 0.51467 0.12656 0.53250
 C1166 C 0.52467 0.12883 0.54898
 C1167 C 0.52324 0.14518 0.55906
 C1168 C 0.51183 0.15949 0.55281
 C1169 C 0.50195 0.15745 0.53635
 C1170 C 0.50335 0.14110 0.52624
 C1171 C 0.51000 0.17606 0.56354
 C1172 C 0.50849 0.18974 0.57284
 H1173 H 0.48822 0.07843 0.49924
 H1174 H 0.48651 0.10792 0.51564
 H1175 H 0.54528 0.10532 0.52598
 H1176 H 0.54673 0.07563 0.50985
 H1177 H 0.53329 0.11781 0.55430
 H1178 H 0.53089 0.14658 0.57183
 H1179 H 0.49309 0.16845 0.53137
 H1180 H 0.49566 0.13986 0.51350
 C1181 C -0.01430 0.03849 0.51164
 C1182 C -0.01397 0.05321 0.50396
 C1183 C -0.01341 0.07066 0.49462
 C1184 C -0.02939 0.07788 0.48643
 C1185 C -0.02871 0.09457 0.47688
 C1186 C -0.01199 0.10427 0.47538
 C1187 C 0.00397 0.09698 0.48382
 C1188 C 0.00325 0.08028 0.49336
 C1189 C -0.01109 0.12169 0.46473
 C1190 C -0.00039 0.13659 0.47106
 C1191 C 0.00079 0.15280 0.46076
 C1192 C -0.00869 0.15434 0.44401
 C1193 C -0.01946 0.13966 0.43766
 C1194 C -0.02067 0.12345 0.44793
 C1195 C -0.00713 0.17081 0.43313
 C1196 C -0.00583 0.18442 0.42375
 H1197 H -0.04237 0.07056 0.48735
 H1198 H -0.04127 0.09995 0.47073
 H1199 H 0.01709 0.10397 0.48271
 H1200 H 0.01572 0.07478 0.49958
 H1201 H 0.00697 0.13574 0.48403
 H1202 H 0.00915 0.16410 0.46581
 H1203 H -0.02680 0.14068 0.42467
 H1204 H -0.02880 0.11215 0.44255
 C1205 C 0.48683 0.53648 1.01281
 C1206 C 0.48715 0.55110 1.00495
 C1207 C 0.48763 0.56842 0.99535
 C1208 C 0.47238 0.57419 0.98492
 C1209 C 0.47304 0.59074 0.97513
 C1210 C 0.48899 0.60175 0.97564
 C1211 C 0.50418 0.59591 0.98632
 C1212 C 0.50349 0.57935 0.99609
 C1213 C 0.48992 0.61906 0.96480
 C1214 C 0.49838 0.63488 0.97217
 C1215 C 0.49955 0.65104 0.96177
 C1216 C 0.49230 0.65159 0.94391
 C1217 C 0.48378 0.63596 0.93650
 C1218 C 0.48258 0.61980 0.94686
 C1219 C 0.49382 0.66807 0.93304
 C1220 C 0.49513 0.68174 0.92374
 H1221 H 0.46002 0.56584 0.98428
 H1222 H 0.46104 0.59497 0.96723
 H1223 H 0.51674 0.60395 0.98680
 H1224 H 0.51540 0.57497 1.00407
 H1225 H 0.50396 0.63481 0.98601
 H1226 H 0.50616 0.66308 0.96765
 H1227 H 0.47819 0.63621 0.92265
 H1228 H 0.47623 0.60779 0.94070
 C1229 C 0.56123 0.92654 1.04730
 C1230 C 0.55661 0.91626 1.03508
 C1231 C 0.55129 0.90377 1.02063
 C1232 C 0.55971 0.90480 1.00340
 C1233 C 0.55496 0.89227 0.98956
 C1234 C 0.54172 0.87852 0.99278
 C1235 C 0.53321 0.87771 1.01011
 C1236 C 0.53798 0.89025 1.02393
 C1237 C 0.53706 0.86483 0.97829
 C1238 C 0.51870 0.85911 0.97559
 C1239 C 0.51443 0.84585 0.96228
 C1240 C 0.52842 0.83814 0.95151
 C1241 C 0.54670 0.84384 0.95399
 C1242 C 0.55101 0.85711 0.96727
 C1243 C 0.52410 0.82408 0.93821
 C1244 C 0.52055 0.81215 0.92721
 H1245 H 0.57001 0.91523 1.00070
 H1246 H 0.56159 0.89339 0.97630
 H1247 H 0.52316 0.86715 1.01311
 H1248 H 0.53144 0.88928 1.03725
 H1249 H 0.50763 0.86496 0.98369
 H1250 H 0.50023 0.84154 0.96046
 H1251 H 0.55765 0.83790 0.94578
 H1252 H 0.56530 0.86103 0.96919
 C1253 C 0.02025 0.46746 0.50483
 C1254 C 0.02048 0.45250 0.49757
 C1255 C 0.02058 0.43480 0.48865
 C1256 C 0.01108 0.41997 0.49638
 C1257 C 0.01064 0.40294 0.48735
 C1258 C 0.01972 0.40054 0.47046
 C1259 C 0.02940 0.41548 0.46291
 C1260 C 0.02981 0.43249 0.47195
 C1261 C 0.01872 0.38267 0.46051
 C1262 C 0.03427 0.37556 0.45136
 C1263 C 0.03312 0.35903 0.44151
 C1264 C 0.01643 0.34940 0.44069
 C1265 C 0.00094 0.35626 0.44989
 C1266 C 0.00206 0.37277 0.45974
 C1267 C 0.01502 0.33272 0.43006
 C1268 C 0.01356 0.31887 0.42101
 H1269 H 0.00391 0.42160 0.50931
 H1270 H 0.00327 0.39164 0.49363
 H1271 H 0.03631 0.41416 0.44981
 H1272 H 0.03714 0.44391 0.46580
 H1273 H 0.04734 0.38274 0.45187
 H1274 H 0.04520 0.35383 0.43446
 H1275 H -0.01207 0.34896 0.44927
 H1276 H -0.01021 0.37800 0.46641
 C1277 C 0.46324 0.49852 0.48395
 C1278 C 0.44844 0.50619 0.48365
 C1279 C 0.43092 0.51560 0.48343
 C1280 C 0.41924 0.51452 0.49864
 C1281 C 0.40248 0.52414 0.49870
 C1282 C 0.39720 0.53501 0.48353
 C1283 C 0.40897 0.53586 0.46823
 C1284 C 0.42571 0.52622 0.46819
 C1285 C 0.37968 0.54571 0.48386
 C1286 C 0.37900 0.56382 0.47697
 C1287 C 0.36267 0.57411 0.47782
 C1288 C 0.34680 0.56645 0.48553
 C1289 C 0.34727 0.54838 0.49224
 C1290 C 0.36358 0.53806 0.49141
 C1291 C 0.33021 0.57730 0.48704
 C1292 C 0.31640 0.58649 0.48858
 H1293 H 0.42318 0.50641 0.51054
 H1294 H 0.39386 0.52341 0.51079
 H1295 H 0.40518 0.54392 0.45626
 H1296 H 0.43465 0.52713 0.45634
 H1297 H 0.39121 0.57018 0.47130
 H1298 H 0.36249 0.58812 0.47267
 H1299 H 0.33505 0.54231 0.49823
 H1300 H 0.36360 0.52409 0.49661
 C1301 C 0.92183 -0.04439 -0.05929
 C1302 C 0.91198 -0.03199 -0.05417
 C1303 C 0.90001 -0.01729 -0.04827
 C1304 C 0.89571 -0.00283 -0.06028
 C1305 C 0.88359 0.01115 -0.05482
 C1306 C 0.87557 0.01083 -0.03724
 C1307 C 0.88014 -0.00368 -0.02519
 C1308 C 0.89228 -0.01764 -0.03069
 C1309 C 0.86217 0.02532 -0.03170
 C1310 C 0.84615 0.02064 -0.02192
 C1311 C 0.83320 0.03417 -0.01728
 C1312 C 0.83608 0.05254 -0.02231
 C1313 C 0.85206 0.05738 -0.03185
 C1314 C 0.86504 0.04387 -0.03652
 C1315 C 0.82234 0.06629 -0.01818
 C1316 C 0.81063 0.07767 -0.01496
 H1317 H 0.90156 -0.00247 -0.07396
 H1318 H 0.88016 0.02197 -0.06450
 H1319 H 0.87438 -0.00418 -0.01150
 H1320 H 0.89553 -0.02876 -0.02127
 H1321 H 0.84342 0.00646 -0.01824
 H1322 H 0.82082 0.03026 -0.00998
 H1323 H 0.85443 0.07157 -0.03581
 H1324 H 0.87734 0.04794 -0.04385
 C1325 C 0.57725 -0.04712 0.05546
 C1326 C 0.58660 -0.03440 0.05038
 C1327 C 0.59800 -0.01933 0.04453
 C1328 C 0.60501 -0.01896 0.02665
 C1329 C 0.61666 -0.00466 0.02120
 C1330 C 0.62145 0.00946 0.03360
 C1331 C 0.61415 0.00906 0.05149
 C1332 C 0.60252 -0.00525 0.05690
 C1333 C 0.63440 0.02427 0.02810
 C1334 C 0.63147 0.04260 0.03376
 C1335 C 0.64407 0.05638 0.02917
 C1336 C 0.65975 0.05203 0.01886
 C1337 C 0.66268 0.03389 0.01297
 C1338 C 0.65009 0.02010 0.01754
 C1339 C 0.67318 0.06601 0.01484
 C1340 C 0.68467 0.07756 0.01174
 H1341 H 0.60158 -0.02979 0.01696
 H1342 H 0.62187 -0.00462 0.00728
 H1343 H 0.61778 0.01957 0.06143
 H1344 H 0.59723 -0.00545 0.07081
 H1345 H 0.61941 0.04629 0.04172
 H1346 H 0.64168 0.07038 0.03380
 H1347 H 0.67483 0.03035 0.00507
 H1348 H 0.65288 0.00609 0.01320
 C1349 C 0.03691 0.49342 0.51289
 C1350 C 0.05165 0.50110 0.51273
 C1351 C 0.06910 0.51049 0.51244
 C1352 C 0.07731 0.51637 0.52888
 C1353 C 0.09398 0.52601 0.52855
 C1354 C 0.10267 0.52990 0.51174
 C1355 C 0.09438 0.52376 0.49530
 C1356 C 0.07771 0.51414 0.49567
 C1357 C 0.12006 0.54066 0.51130
 C1358 C 0.13427 0.53594 0.49902
 C1359 C 0.15039 0.54644 0.49826
 C1360 C 0.15254 0.56178 0.50974
 C1361 C 0.13857 0.56649 0.52212
 C1362 C 0.12244 0.55601 0.52291
 C1363 C 0.16884 0.57297 0.50855
 C1364 C 0.18232 0.58260 0.50750
 H1365 H 0.07077 0.51360 0.54195
 H1366 H 0.10013 0.53035 0.54144
 H1367 H 0.10058 0.52676 0.48214
 H1368 H 0.07143 0.50972 0.48286
 H1369 H 0.13294 0.52408 0.49007
 H1370 H 0.16113 0.54267 0.48864
 H1371 H 0.14005 0.57839 0.53101
 H1372 H 0.11167 0.56015 0.53233
 C1373 C 0.03650 0.51569 -0.02380
 C1374 C 0.05149 0.50840 -0.02377
 C1375 C 0.06928 0.49952 -0.02348
 C1376 C 0.08029 0.50031 -0.00763
 C1377 C 0.09730 0.49117 -0.00706
 C1378 C 0.10354 0.48108 -0.02237
 C1379 C 0.09245 0.48053 -0.03831
 C1380 C 0.07544 0.48969 -0.03885
 C1381 C 0.12130 0.47081 -0.02150
 C1382 C 0.12274 0.45301 -0.02907
 C1383 C 0.13924 0.44305 -0.02767
 C1384 C 0.15454 0.45074 -0.01872
 C1385 C 0.15333 0.46851 -0.01133
 C1386 C 0.13683 0.47850 -0.01271
 C1387 C 0.17125 0.44014 -0.01665
 C1388 C 0.18508 0.43104 -0.01471
 H1389 H 0.07561 0.50781 0.00437
 H1390 H 0.10538 0.49165 0.00550
 H1391 H 0.09697 0.47307 -0.05039
 H1392 H 0.06703 0.48901 -0.05120
 H1393 H 0.11097 0.44660 -0.03569
 H1394 H 0.14000 0.42926 -0.03336
 H1395 H 0.16509 0.47460 -0.00438
 H1396 H 0.13623 0.49225 -0.00694
 C1397 C 0.53650 1.01726 0.47855
 C1398 C 0.55152 1.01002 0.47870
 C1399 C 0.56930 1.00110 0.47908
 C1400 C 0.57965 1.00070 0.49538
 C1401 C 0.59661 0.99144 0.49599
 C1402 C 0.60343 0.98242 0.48028
 C1403 C 0.59301 0.98308 0.46390
 C1404 C 0.57606 0.99236 0.46332
 C1405 C 0.62111 0.97199 0.48113
 C1406 C 0.62279 0.95477 0.47235
 C1407 C 0.63920 0.94466 0.47367
 C1408 C 0.65416 0.95159 0.48374
 C1409 C 0.65271 0.96879 0.49236
 C1410 C 0.63630 0.97893 0.49107
 C1411 C 0.67079 0.94082 0.48563
 C1412 C 0.68456 0.93159 0.48738
 H1413 H 0.57451 1.00735 0.50769
 H1414 H 0.60416 0.99097 0.50887
 H1415 H 0.59799 0.97648 0.45152
 H1416 H 0.56816 0.99260 0.45063
 H1417 H 0.61127 0.94893 0.46482
 H1418 H 0.64015 0.93132 0.46702
 H1419 H 0.66421 0.97429 0.50018
 H1420 H 0.63551 0.99224 0.49778
 C1421 C 0.96813 1.01348 0.52048
 C1422 C 0.95310 1.00637 0.52046
 C1423 C 0.93529 0.99765 0.52020
 C1424 C 0.92424 0.99853 0.50438
 C1425 C 0.90722 0.98952 0.50384
 C1426 C 0.90103 0.97946 0.51914
 C1427 C 0.91216 0.97882 0.53505
 C1428 C 0.92918 0.98785 0.53556
 C1429 C 0.88326 0.96932 0.51830
 C1430 C 0.88183 0.95154 0.52585
 C1431 C 0.86530 0.94173 0.52451
 C1432 C 0.84997 0.94955 0.51565
 C1433 C 0.85118 0.96731 0.50827
 C1434 C 0.86770 0.97714 0.50958
 C1435 C 0.83320 0.93913 0.51369
 C1436 C 0.81931 0.93020 0.51185
 H1437 H 0.92887 1.00600 0.49239
 H1438 H 0.89910 0.99007 0.49131
 H1439 H 0.90768 0.97139 0.54712
 H1440 H 0.93762 0.98710 0.54788
 H1441 H 0.89361 0.94503 0.53242
 H1442 H 0.86454 0.92795 0.53019
 H1443 H 0.83939 0.97350 0.50138
 H1444 H 0.86830 0.99089 0.50384
 C1445 C 0.46919 0.51158 0.02173
 C1446 C 0.45414 0.50451 0.02159
 C1447 C 0.43628 0.49589 0.02117
 C1448 C 0.42526 0.49710 0.00535
 C1449 C 0.40817 0.48823 0.00466
 C1450 C 0.40188 0.47800 0.01980
 C1451 C 0.41299 0.47703 0.03571
 C1452 C 0.43008 0.48592 0.03637
 C1453 C 0.38402 0.46803 0.01880
 C1454 C 0.38244 0.45015 0.02608
 C1455 C 0.36583 0.44050 0.02459
 C1456 C 0.35058 0.44859 0.01584
 C1457 C 0.35193 0.46644 0.00873
 C1458 C 0.36854 0.47612 0.01020
 C1459 C 0.33373 0.43834 0.01372
 C1460 C 0.31978 0.42952 0.01176
 H1461 H 0.42996 0.50472 -0.00652
 H1462 H 0.40006 0.48903 -0.00787
 H1463 H 0.40844 0.46945 0.04766
 H1464 H 0.43850 0.48491 0.04869
 H1465 H 0.39417 0.44344 0.03255
 H1466 H 0.36495 0.42665 0.03006
 H1467 H 0.34020 0.47284 0.00194
 H1468 H 0.36926 0.48994 0.00466
 C1469 C 0.48898 0.48972 0.46741
 C1470 C 0.49660 0.48972 0.45270
 C1471 C 0.50588 0.48991 0.43527
 C1472 C 0.49978 0.50171 0.42127
 C1473 C 0.50916 0.50234 0.40454
 C1474 C 0.52479 0.49117 0.40159
 C1475 C 0.53070 0.47922 0.41570
 C1476 C 0.52130 0.47862 0.43242
 C1477 C 0.53513 0.49223 0.38405
 C1478 C 0.54220 0.47617 0.37576
 C1479 C 0.55241 0.47727 0.35955
 C1480 C 0.55568 0.49440 0.35140
 C1481 C 0.54856 0.51043 0.35943
 C1482 C 0.53834 0.50937 0.37564
 C1483 C 0.56674 0.49559 0.33508
 C1484 C 0.57625 0.49662 0.32157
 H1485 H 0.48783 0.51049 0.42333
 H1486 H 0.50413 0.51150 0.39387
 H1487 H 0.54282 0.47063 0.41395
 H1488 H 0.52619 0.46949 0.44319
 H1489 H 0.53977 0.46276 0.38178
 H1490 H 0.55785 0.46477 0.35343
 H1491 H 0.55108 0.52378 0.35328
 H1492 H 0.53330 0.52200 0.38180
 C1493 C -0.05255 -0.05275 0.92376
 C1494 C -0.04009 -0.04765 0.91411
 C1495 C -0.02536 -0.04168 0.90236
 C1496 C -0.02623 -0.02437 0.89393
 C1497 C -0.01223 -0.01883 0.88200
 C1498 C 0.00283 -0.03056 0.87836
 C1499 C 0.00366 -0.04786 0.88707
 C1500 C -0.01035 -0.05338 0.89897
 C1501 C 0.01739 -0.02499 0.86520
 C1502 C 0.03607 -0.02908 0.86879
 C1503 C 0.04968 -0.02442 0.85607
 C1504 C 0.04481 -0.01562 0.83962
 C1505 C 0.02629 -0.01130 0.83602
 C1506 C 0.01267 -0.01594 0.84872
 C1507 C 0.05871 -0.01159 0.82617
 C1508 C 0.07030 -0.00856 0.81475
 H1509 H -0.03778 -0.01520 0.89648
 H1510 H -0.01315 -0.00535 0.87569
 H1511 H 0.01493 -0.05731 0.88435
 H1512 H -0.00959 -0.06684 0.90537
 H1513 H 0.04017 -0.03583 0.88145
 H1514 H 0.06397 -0.02782 0.85899
 H1515 H 0.02236 -0.00459 0.82328
 H1516 H -0.00161 -0.01283 0.84545
 C1517 C -0.00613 0.02182 0.53753
 C1518 C 0.00133 0.02203 0.55239
 C1519 C 0.01050 0.02217 0.56999
 C1520 C 0.00877 0.00712 0.58187
 C1521 C 0.01818 0.00695 0.59870
 C1522 C 0.02948 0.02184 0.60387
 C1523 C 0.03098 0.03699 0.59190
 C1524 C 0.02155 0.03713 0.57508
 C1525 C 0.03997 0.02137 0.62147
 C1526 C 0.05832 0.02764 0.62228
 C1527 C 0.06840 0.02665 0.63870
 C1528 C 0.06028 0.01941 0.65452
 C1529 C 0.04198 0.01331 0.65392
 C1530 C 0.03188 0.01428 0.63751
 C1531 C 0.07090 0.01774 0.67122
 C1532 C 0.07989 0.01606 0.68512
 H1533 H 0.00032 -0.00457 0.57802
 H1534 H 0.01694 -0.00502 0.60748
 H1535 H 0.03939 0.04875 0.59559
 H1536 H 0.02297 0.04886 0.56599
 H1537 H 0.06502 0.03293 0.61012
 H1538 H 0.08259 0.03132 0.63899
 H1539 H 0.03556 0.00768 0.66609
 H1540 H 0.01771 0.00955 0.63738
 C1541 C 0.49471 0.52010 0.03899
 C1542 C 0.50199 0.52045 0.05394
 C1543 C 0.51091 0.52069 0.07166
 C1544 C 0.52121 0.53604 0.07716
 C1545 C 0.53044 0.53599 0.09409
 C1546 C 0.52949 0.52057 0.10576
 C1547 C 0.51892 0.50529 0.10019
 C1548 C 0.50971 0.50536 0.08325
 C1549 C 0.53981 0.52021 0.12346
 C1550 C 0.53190 0.51243 0.13927
 C1551 C 0.54189 0.51155 0.15576
 C1552 C 0.55990 0.51844 0.15667
 C1553 C 0.56782 0.52637 0.14108
 C1554 C 0.55785 0.52728 0.12459
 C1555 C 0.57045 0.51688 0.17342
 C1556 C 0.57945 0.51533 0.18733
 H1557 H 0.52221 0.54798 0.06830
 H1558 H 0.53827 0.54805 0.09809
 H1559 H 0.51812 0.49311 0.10874
 H1560 H 0.50185 0.49337 0.07909
 H1561 H 0.51797 0.50708 0.13891
 H1562 H 0.53563 0.50538 0.16775
 H1563 H 0.58178 0.53166 0.14160
 H1564 H 0.56442 0.53311 0.11260
 C1565 C 0.55219 -0.05643 0.07265
 C1566 C 0.53970 -0.05181 0.08256
 C1567 C 0.52497 -0.04638 0.09463
 C1568 C 0.51268 -0.05959 0.10128
 C1569 C 0.49874 -0.05446 0.11350
 C1570 C 0.49694 -0.03602 0.11926
 C1571 C 0.50926 -0.02281 0.11234
 C1572 C 0.52319 -0.02797 0.10012
 C1573 C 0.48252 -0.03068 0.13271
 C1574 C 0.48658 -0.01819 0.14697
 C1575 C 0.47317 -0.01354 0.15994
 C1576 C 0.45554 -0.02128 0.15884
 C1577 C 0.45131 -0.03361 0.14463
 C1578 C 0.46470 -0.03829 0.13164
 C1579 C 0.44194 -0.01687 0.17252
 C1580 C 0.43070 -0.01327 0.18416
 H1581 H 0.51399 -0.07390 0.09718
 H1582 H 0.48964 -0.06499 0.11875
 H1583 H 0.50809 -0.00847 0.11633
 H1584 H 0.53262 -0.01763 0.09504
 H1585 H 0.50023 -0.01230 0.14833
 H1586 H 0.47662 -0.00405 0.17094
 H1587 H 0.43769 -0.03967 0.14364
 H1588 H 0.46108 -0.04777 0.12071
 C1589 C 1.01168 0.48477 0.53017
 C1590 C 1.00444 0.48496 0.54506
 C1591 C 0.99562 0.48543 0.56273
 C1592 C 1.00189 0.49756 0.57634
 C1593 C 0.99290 0.49852 0.59328
 C1594 C 0.97750 0.48732 0.59683
 C1595 C 0.97144 0.47502 0.58311
 C1596 C 0.98044 0.47410 0.56618
 C1597 C 0.96754 0.48875 0.61457
 C1598 C 0.96084 0.47287 0.62335
 C1599 C 0.95094 0.47431 0.63974
 C1600 C 0.94761 0.49162 0.64757
 C1601 C 0.95438 0.50749 0.63905
 C1602 C 0.96429 0.50608 0.62267
 C1603 C 0.93680 0.49316 0.66404
 C1604 C 0.92746 0.49449 0.67765
 H1605 H 1.01365 0.50638 0.57382
 H1606 H 0.99805 0.50795 0.60364
 H1607 H 0.95948 0.46641 0.58531
 H1608 H 0.97541 0.46472 0.55570
 H1609 H 0.96332 0.45932 0.61758
 H1610 H 0.94578 0.46194 0.64623
 H1611 H 0.95179 0.52097 0.64495
 H1612 H 0.96904 0.51858 0.61613
 C1613 C 1.01075 0.52423 0.95919
 C1614 C 1.00325 0.52432 0.94433
 C1615 C 0.99409 0.52418 0.92673
 C1616 C 0.99628 0.50911 0.91491
 C1617 C 0.98685 0.50861 0.89809
 C1618 C 0.97507 0.52319 0.89288
 C1619 C 0.97312 0.53837 0.90478
 C1620 C 0.98257 0.53884 0.92160
 C1621 C 0.96455 0.52234 0.87530
 C1622 C 0.94602 0.52818 0.87451
 C1623 C 0.93592 0.52682 0.85813
 C1624 C 0.94420 0.51963 0.84232
 C1625 C 0.96268 0.51395 0.84291
 C1626 C 0.97280 0.51530 0.85928
 C1627 C 0.93358 0.51765 0.82566
 C1628 C 0.92453 0.51578 0.81183
 H1629 H 1.00509 0.49764 0.91879
 H1630 H 0.98845 0.49662 0.88936
 H1631 H 0.96434 0.54990 0.90107
 H1632 H 0.98079 0.55058 0.93064
 H1633 H 0.93919 0.53343 0.88666
 H1634 H 0.92160 0.53118 0.85785
 H1635 H 0.96923 0.50838 0.83075
 H1636 H 0.98711 0.51090 0.85939
 C1637 C 0.51079 0.02541 0.46129
 C1638 C 0.50336 0.02537 0.44641
 C1639 C 0.49424 0.02519 0.42879
 C1640 C 0.50227 0.01600 0.41390
 C1641 C 0.49309 0.01532 0.39695
 C1642 C 0.47573 0.02383 0.39468
 C1643 C 0.46787 0.03320 0.40969
 C1644 C 0.47707 0.03385 0.42663
 C1645 C 0.46564 0.02257 0.37690
 C1646 C 0.45575 0.03782 0.36996
 C1647 C 0.44576 0.03640 0.35352
 C1648 C 0.44553 0.01975 0.34379
 C1649 C 0.45546 0.00457 0.35047
 C1650 C 0.46546 0.00596 0.36690
 C1651 C 0.43473 0.01805 0.32721
 C1652 C 0.42554 0.01635 0.31345
 H1653 H 0.51557 0.00927 0.41542
 H1654 H 0.49960 0.00821 0.38560
 H1655 H 0.45443 0.03966 0.40847
 H1656 H 0.47069 0.04093 0.43809
 H1657 H 0.45579 0.05085 0.37722
 H1658 H 0.43812 0.04824 0.34846
 H1659 H 0.45530 -0.00841 0.34309
 H1660 H 0.47271 -0.00609 0.37199
   
