data_POSCAR
  _audit_creation_date              2014-09-24
  _audit_creation_method            'ToBaCCo'
  _symmetry_space_group_name_H-M    'P1'
  _symmetry_Int_Tables_number       1
  _symmetry_cell_setting            triclinic
  loop_
  _symmetry_equiv_pos_as_xyz
 x,y,z
_cell_length_a 54.3039
_cell_length_b 54.8697
_cell_length_c 55.0764
_cell_angle_alpha 89.940400
_cell_angle_beta 90.175700
_cell_angle_gamma 90.104500
loop_
  _atom_site_label
  _atom_site_type_symbol
  _atom_site_fract_x
  _atom_site_fract_y
  _atom_site_fract_z
C1 C 0.28305 0.36352 0.02157
 C2 C 0.27332 0.37112 -0.00069
 C3 C 0.28197 0.36218 -0.02303
 C4 C 0.30199 0.34538 -0.02282
 C5 C 0.31191 0.33722 -0.00027
 C6 C 0.30224 0.34621 0.02193
 C7 C 0.31157 0.33719 0.04399
 C8 C 0.33001 0.31975 0.04441
 C9 C 0.33992 0.31054 0.02278
 C10 C 0.33116 0.31955 0.00017
 C11 C 0.31149 0.33533 -0.04435
 C12 C 0.33053 0.31843 -0.04392
 C13 C 0.34107 0.31042 -0.02193
 C14 C 0.36013 0.29254 -0.02127
 C15 C 0.36869 0.28450 0.00155
 C16 C 0.35858 0.29272 0.02331
 H17 H 0.30444 0.34316 0.06130
 H18 H 0.33651 0.31364 0.06198
 H19 H 0.30410 0.33978 -0.06200
 H20 H 0.33610 0.31127 -0.06128
 H21 H 0.25965 0.38547 -0.00047
 H22 H 0.38379 0.27173 0.00280
 C23 C 0.70429 0.63032 0.02521
 C24 C 0.71364 0.62226 0.00301
 C25 C 0.70548 0.63180 -0.01914
 C26 C 0.68654 0.64950 -0.01924
 C27 C 0.67640 0.65760 0.00308
 C28 C 0.68533 0.64792 0.02539
 C29 C 0.67572 0.65673 0.04730
 C30 C 0.65772 0.67467 0.04744
 C31 C 0.64853 0.68455 0.02566
 C32 C 0.65790 0.67600 0.00317
 C33 C 0.67817 0.66000 -0.04096
 C34 C 0.66019 0.67803 -0.04093
 C35 C 0.64946 0.68631 -0.01913
 C36 C 0.63153 0.70535 -0.01876
 C37 C 0.62240 0.71298 0.00390
 C38 C 0.63081 0.70330 0.02588
 H39 H 0.68229 0.65016 0.06467
 H40 H 0.65142 0.68098 0.06494
 H41 H 0.68582 0.65474 -0.05830
 H42 H 0.65553 0.68562 -0.05840
 H43 H 0.72755 0.60810 0.00298
 H44 H 0.60746 0.72597 0.00481
 C45 C 0.63490 0.29309 1.02738
 C46 C 0.62562 0.28242 1.00616
 C47 C 0.63420 0.28915 0.98324
 C48 C 0.65217 0.30762 0.98112
 C49 C 0.66148 0.31908 1.00235
 C50 C 0.65296 0.31165 1.02557
 C51 C 0.66333 0.32240 1.04633
 C52 C 0.68137 0.34032 1.04444
 C53 C 0.68964 0.34870 1.02164
 C54 C 0.67962 0.33772 1.00034
 C55 C 0.66076 0.31516 0.95829
 C56 C 0.67839 0.33341 0.95626
 C57 C 0.68803 0.34491 0.97699
 C58 C 0.70622 0.36311 0.97495
 C59 C 0.71555 0.37401 0.99594
 C60 C 0.70832 0.36685 1.01941
 H61 H 0.65797 0.31673 1.06437
 H62 H 0.68886 0.34703 1.06132
 H63 H 0.65386 0.30711 0.94167
 H64 H 0.68449 0.33826 0.93821
 H65 H 0.61164 0.26835 1.00748
 H66 H 0.72786 0.38934 0.99353
 C67 C 0.29053 0.64372 1.02330
 C68 C 0.28314 0.63151 1.00202
 C69 C 0.29274 0.63726 0.97921
 C70 C 0.31102 0.65553 0.97729
 C71 C 0.31894 0.66828 0.99839
 C72 C 0.30848 0.66262 1.02138
 C73 C 0.31496 0.67729 1.04138
 C74 C 0.33201 0.69613 1.03923
 C75 C 0.34412 0.70087 1.01719
 C76 C 0.33672 0.68736 0.99629
 C77 C 0.32093 0.66200 0.95464
 C78 C 0.33821 0.68054 0.95259
 C79 C 0.34630 0.69353 0.97308
 C80 C 0.36274 0.71335 0.97071
 C81 C 0.36969 0.72645 0.99136
 C82 C 0.36163 0.72015 1.01469
 H83 H 0.30615 0.67527 1.05882
 H84 H 0.33454 0.70761 1.05493
 H85 H 0.31504 0.65324 0.93803
 H86 H 0.34460 0.68500 0.93455
 H87 H 0.27068 0.61614 1.00313
 H88 H 0.38295 0.74113 0.98926
 C89 C 0.02767 0.29486 0.36566
 C90 C 0.00504 0.28565 0.37342
 C91 C -0.01754 0.29323 0.36334
 C92 C -0.01714 0.31198 0.34533
 C93 C 0.00581 0.32176 0.33742
 C94 C 0.02821 0.31295 0.34749
 C95 C 0.05070 0.32205 0.33876
 C96 C 0.05134 0.33957 0.32063
 C97 C 0.02953 0.34872 0.31042
 C98 C 0.00647 0.34001 0.31894
 C99 C -0.03880 0.32039 0.33399
 C100 C -0.03816 0.33842 0.31622
 C101 C -0.01581 0.34900 0.30862
 C102 C -0.01488 0.36722 0.29008
 C103 C 0.00837 0.37594 0.28272
 C104 C 0.03031 0.36664 0.29211
 H105 H 0.06817 0.31553 0.34563
 H106 H 0.06923 0.34596 0.31479
 H107 H -0.05667 0.31288 0.33813
 H108 H -0.05561 0.34322 0.30815
 H109 H 0.00525 0.27325 0.38871
 H110 H 0.00984 0.39052 0.26956
 C111 C 0.02206 0.63111 0.70286
 C112 C -0.00010 0.62277 0.71266
 C113 C -0.02320 0.63092 0.70429
 C114 C -0.02380 0.64795 0.68467
 C115 C -0.00138 0.65623 0.67413
 C116 C 0.02156 0.64784 0.68338
 C117 C 0.04350 0.65696 0.67340
 C118 C 0.04309 0.67364 0.65448
 C119 C 0.02074 0.68202 0.64474
 C120 C -0.00180 0.67346 0.65469
 C121 C -0.04603 0.65800 0.67606
 C122 C -0.04645 0.67483 0.65718
 C123 C -0.02465 0.68266 0.64580
 C124 C -0.02483 0.70040 0.62681
 C125 C -0.00214 0.70768 0.61689
 C126 C 0.02041 0.69933 0.62581
 H127 H 0.06135 0.65165 0.68033
 H128 H 0.06064 0.68018 0.64787
 H129 H -0.06359 0.65375 0.68414
 H130 H -0.06428 0.68195 0.65228
 H131 H 0.00099 0.60848 0.72617
 H132 H -0.00174 0.71940 0.60107
 C133 C 1.01992 0.63524 0.28858
 C134 C 0.99686 0.62571 0.28227
 C135 C 0.97502 0.63467 0.29223
 C136 C 0.97605 0.65447 0.30856
 C137 C 0.99923 0.66456 0.31517
 C138 C 1.02121 0.65497 0.30507
 C139 C 1.04387 0.66527 0.31183
 C140 C 1.04506 0.68466 0.32801
 C141 C 1.02363 0.69435 0.33870
 C142 C 1.00042 0.68428 0.33194
 C143 C 0.95453 0.66429 0.31862
 C144 C 0.95562 0.68375 0.33468
 C145 C 0.97833 0.69391 0.34177
 C146 C 0.97944 0.71363 0.35818
 C147 C 1.00235 0.72340 0.36454
 C148 C 1.02459 0.71430 0.35521
 H149 H 1.06107 0.65851 0.30467
 H150 H 1.06314 0.69203 0.33153
 H151 H 0.93653 0.65707 0.31416
 H152 H 0.93833 0.69082 0.34131
 H153 H 0.99575 0.61153 0.26862
 H154 H 1.00273 0.73717 0.37859
 C155 C 0.97687 0.36455 0.70702
 C156 C 0.99970 0.37288 0.71557
 C157 C 1.02183 0.36237 0.70810
 C158 C 1.02138 0.34325 0.69091
 C159 C 0.99853 0.33491 0.68145
 C160 C 0.97616 0.34549 0.68966
 C161 C 0.95373 0.33620 0.68086
 C162 C 0.95318 0.31719 0.66415
 C163 C 0.97505 0.30674 0.65541
 C164 C 0.99803 0.31565 0.66408
 C165 C 1.04322 0.33240 0.68282
 C166 C 1.04279 0.31369 0.66582
 C167 C 1.02047 0.30513 0.65578
 C168 C 1.01981 0.28575 0.63853
 C169 C 0.99671 0.27726 0.63053
 C170 C 0.97453 0.28719 0.63874
 H171 H 0.93625 0.34324 0.68705
 H172 H 0.93532 0.31059 0.65840
 H173 H 1.06101 0.33826 0.68955
 H174 H 1.06037 0.30584 0.66127
 H175 H 1.00026 0.38758 0.72870
 H176 H 0.99563 0.26365 0.61637
 C177 C 0.36565 0.01809 0.29080
 C178 C 0.37329 -0.00494 0.28296
 C179 C 0.36329 -0.02673 0.29224
 C180 C 0.34452 -0.02507 0.31023
 C181 C 0.33651 -0.00179 0.31843
 C182 C 0.34712 0.01978 0.30865
 C183 C 0.33915 0.04256 0.31722
 C184 C 0.32063 0.04428 0.33444
 C185 C 0.30942 0.02331 0.34397
 C186 C 0.31750 -0.00001 0.33618
 C187 C 0.33245 -0.04590 0.31928
 C188 C 0.31389 -0.04415 0.33649
 C189 C 0.30630 -0.02146 0.34572
 C190 C 0.28695 -0.01944 0.36308
 C191 C 0.27997 0.00398 0.37083
 C192 C 0.29066 0.02512 0.36149
 H193 H 0.34723 0.05941 0.31085
 H194 H 0.31529 0.06232 0.34034
 H195 H 0.33644 -0.06398 0.31274
 H196 H 0.30528 -0.06105 0.34178
 H197 H 0.38782 -0.00564 0.26966
 H198 H 0.26617 0.00615 0.38481
 C199 C 0.70282 0.02730 0.62975
 C200 C 0.71231 0.00476 0.62255
 C201 C 0.70600 -0.01717 0.63417
 C202 C 0.68939 -0.01638 0.65407
 C203 C 0.67918 0.00634 0.66137
 C204 C 0.68613 0.02822 0.64935
 C205 C 0.67590 0.05042 0.65698
 C206 C 0.65914 0.05125 0.67599
 C207 C 0.65160 0.02986 0.68791
 C208 C 0.66176 0.00718 0.68062
 C209 C 0.68174 -0.03771 0.66618
 C210 C 0.66491 -0.03682 0.68510
 C211 C 0.65447 -0.01466 0.69249
 C212 C 0.63709 -0.01375 0.71157
 C213 C 0.62732 0.00879 0.71843
 C214 C 0.63443 0.03057 0.70715
 H215 H 0.68057 0.06746 0.64821
 H216 H 0.65215 0.06893 0.68118
 H217 H 0.68824 -0.05556 0.66108
 H218 H 0.66019 -0.05385 0.69383
 H219 H 0.72639 0.00460 0.60867
 H220 H 0.61320 0.00931 0.73229
 C221 C 0.28828 0.97561 0.63895
 C222 C 0.27778 0.99749 0.63117
 C223 C 0.28649 1.02035 0.63894
 C224 C 0.30729 1.02105 0.65479
 C225 C 0.31816 0.99881 0.66288
 C226 C 0.30864 0.97609 0.65486
 C227 C 0.31918 0.95438 0.66358
 C228 C 0.33858 0.95484 0.68008
 C229 C 0.34827 0.97702 0.68848
 C230 C 0.33810 0.99924 0.67971
 C231 C 0.31675 1.04315 0.66396
 C232 C 0.33629 1.04352 0.68030
 C233 C 0.34724 1.02184 0.68844
 C234 C 0.36640 1.02212 0.70586
 C235 C 0.37621 1.00008 0.71416
 C236 C 0.36720 0.97761 0.70615
 H237 H 0.31222 0.93672 0.65817
 H238 H 0.34559 0.93754 0.68646
 H239 H 0.30892 1.06060 0.65934
 H240 H 0.34228 1.06111 0.68692
 H241 H 0.26325 0.99643 0.61769
 H242 H 0.39130 1.00040 0.72711
 C243 C 0.63585 0.97660 0.28390
 C244 C 0.62785 0.99901 0.27478
 C245 C 0.63676 1.02141 0.28362
 C246 C 0.65427 1.02112 0.30300
 C247 C 0.66236 0.99848 0.31281
 C248 C 0.65321 0.97621 0.30309
 C249 C 0.66217 0.95408 0.31236
 C250 C 0.67946 0.95364 0.33097
 C251 C 0.68857 0.97533 0.34118
 C252 C 0.68012 0.99805 0.33201
 C253 C 0.66496 1.04269 0.31205
 C254 C 0.68220 1.04227 0.33075
 C255 C 0.68985 1.02025 0.34151
 C256 C 0.70785 1.01965 0.36050
 C257 C 0.71534 0.99675 0.36937
 C258 C 0.70647 0.97482 0.35982
 H259 H 0.65628 0.93673 0.30505
 H260 H 0.68585 0.93598 0.33698
 H261 H 0.66089 1.06035 0.30443
 H262 H 0.68987 1.05966 0.33595
 H263 H 0.61311 0.99876 0.26152
 H264 H 0.72737 0.99555 0.38501
 O265 O 0.82875 0.86910 0.52305
 O266 O 0.87430 0.84300 0.48095
 O267 O 0.83829 0.87396 0.47731
 O268 O 0.86527 0.83931 0.52738
 O269 O 0.84126 0.80785 0.51911
 O270 O 0.81268 0.84370 0.46925
 O271 O 0.84896 0.81260 0.47261
 O272 O 0.80309 0.83729 0.51489
 Cu273 Cu 0.85417 0.85921 0.50293
 Cu274 Cu 0.82412 0.82229 0.49323
 C275 C 0.80682 0.85837 0.52667
 C276 C 0.86934 0.82350 0.46951
 C277 C 0.82073 0.86507 0.46497
 C278 C 0.85816 0.81778 0.53176
 O279 O 0.14032 0.16163 0.47508
 O280 O 0.17472 0.13430 0.52531
 O281 O 0.13504 0.16031 0.52185
 O282 O 0.18026 0.13635 0.47849
 O283 O 0.20249 0.16988 0.48242
 O284 O 0.15713 0.19389 0.52609
 O285 O 0.19723 0.16763 0.52922
 O286 O 0.16172 0.19569 0.47893
 Cu287 Cu 0.15541 0.14479 0.49982
 Cu288 Cu 0.18185 0.18523 0.50448
 C289 C 0.14491 0.18330 0.46855
 C290 C 0.19187 0.14606 0.53577
 C291 C 0.13832 0.18114 0.53135
 C292 C 0.19913 0.14895 0.47316
 O293 O 0.13363 0.83664 0.52141
 O294 O 0.17198 0.86650 0.47583
 O295 O 0.13315 0.83912 0.47440
 O296 O 0.17234 0.86377 0.52285
 O297 O 0.19651 0.83004 0.52091
 O298 O 0.15676 0.80650 0.47168
 O299 O 0.19603 0.83420 0.47372
 O300 O 0.15638 0.80341 0.51902
 Cu301 Cu 0.15053 0.85465 0.49877
 Cu302 Cu 0.17870 0.81528 0.49609
 C303 C 0.13827 0.81499 0.52793
 C304 C 0.19052 0.85567 0.46700
 C305 C 0.13818 0.81876 0.46478
 C306 C 0.19189 0.85174 0.53136
 O307 O 0.83675 0.13109 0.47753
 O308 O 0.86160 0.17047 0.52547
 O309 O 0.82675 0.13778 0.52273
 O310 O 0.87065 0.16397 0.47955
 O311 O 0.84368 0.19230 0.46933
 O312 O 0.79989 0.16670 0.51406
 O313 O 0.83527 0.19943 0.51555
 O314 O 0.80870 0.15875 0.46835
 Cu315 Cu 0.85167 0.14810 0.50238
 Cu316 Cu 0.81920 0.18224 0.49084
 C317 C 0.81831 0.13787 0.46509
 C318 C 0.85296 0.19171 0.52860
 C319 C 0.80572 0.14744 0.52550
 C320 C 0.86470 0.18243 0.46698
 O321 O 0.47992 0.86902 0.82636
 O322 O 0.52636 0.84253 0.86686
 O323 O 0.52760 0.87073 0.82905
 O324 O 0.47863 0.84127 0.86422
 O325 O 0.48043 0.80888 0.84050
 O326 O 0.53017 0.83846 0.80528
 O327 O 0.52838 0.80976 0.84369
 O328 O 0.48224 0.83702 0.80220
 Cu329 Cu 0.50297 0.85910 0.84898
 Cu330 Cu 0.50562 0.82024 0.82052
 C331 C 0.47310 0.85765 0.80743
 C332 C 0.53508 0.82159 0.86243
 C333 C 0.53716 0.85979 0.81111
 C334 C 0.47109 0.82018 0.85838
 O335 O 0.51375 0.16768 0.13093
 O336 O 0.46778 0.13920 0.17054
 O337 O 0.46733 0.17546 0.13928
 O338 O 0.51386 0.13225 0.16180
 O339 O 0.52335 0.15759 0.19155
 O340 O 0.47773 0.20150 0.16811
 O341 O 0.47684 0.16524 0.19979
 O342 O 0.52407 0.19317 0.16030
 Cu343 Cu 0.48948 0.15116 0.14770
 Cu344 Cu 0.50130 0.18201 0.18293
 C345 C 0.52691 0.18506 0.13888
 C346 C 0.46492 0.14685 0.19209
 C347 C 0.46509 0.19611 0.14944
 C348 C 0.52645 0.13749 0.18053
 O349 O 0.47361 0.16233 0.87240
 O350 O 0.52659 0.13706 0.84074
 O351 O 0.52020 0.17260 0.87057
 O352 O 0.47954 0.12798 0.84098
 O353 O 0.47233 0.15432 0.81146
 O354 O 0.51485 0.19804 0.83989
 O355 O 0.51993 0.16145 0.80945
 O356 O 0.46812 0.18952 0.84325
 Cu357 Cu 0.50061 0.14739 0.85915
 Cu358 Cu 0.49322 0.17838 0.82284
 C359 C 0.46216 0.18043 0.86367
 C360 C 0.53221 0.14459 0.81974
 C361 C 0.52441 0.19292 0.86029
 C362 C 0.46874 0.13371 0.82133
 O363 O 0.52105 0.85175 0.17582
 O364 O 0.47547 0.81333 0.14375
 O365 O 0.47327 0.85128 0.17144
 O366 O 0.52323 0.81525 0.14577
 O367 O 0.52151 0.78963 0.17664
 O368 O 0.47213 0.82759 0.20388
 O369 O 0.47356 0.78895 0.17562
 O370 O 0.52004 0.82648 0.20702
 Cu371 Cu 0.49844 0.83537 0.15608
 Cu372 Cu 0.49667 0.80568 0.19398
 C373 C 0.52831 0.84559 0.19693
 C374 C 0.46673 0.79459 0.15430
 C375 C 0.46430 0.84591 0.19195
 C376 C 0.53074 0.79617 0.15644
 O377 O 0.84016 0.47716 0.87343
 O378 O 0.86768 0.52907 0.84218
 O379 O 0.83184 0.52391 0.87237
 O380 O 0.87459 0.48220 0.84160
 O381 O 0.84740 0.47670 0.81220
 O382 O 0.80556 0.52038 0.84191
 O383 O 0.84240 0.52391 0.81108
 O384 O 0.81216 0.47323 0.84450
 Cu385 Cu 0.85618 0.50353 0.86039
 Cu386 Cu 0.82414 0.49814 0.82439
 C387 C 0.82150 0.46646 0.86462
 C388 C 0.86018 0.53513 0.82125
 C389 C 0.81154 0.52948 0.86228
 C390 C 0.86821 0.47219 0.82177
 O391 O 0.14226 0.52460 0.17712
 O392 O 0.17708 0.47794 0.14441
 O393 O 0.14837 0.47829 0.18194
 O394 O 0.17080 0.52461 0.13918
 O395 O 0.20323 0.53144 0.16250
 O396 O 0.17987 0.48585 0.20629
 O397 O 0.20918 0.48437 0.16825
 O398 O 0.17446 0.53230 0.20050
 Cu399 Cu 0.15650 0.50071 0.15820
 Cu400 Cu 0.19505 0.50913 0.18667
 C401 C 0.15217 0.53611 0.19461
 C402 C 0.19901 0.47307 0.15076
 C403 C 0.15994 0.47458 0.20166
 C404 C 0.19078 0.53585 0.14342
 O405 O 0.85096 0.52805 0.12532
 O406 O 0.88073 0.47480 0.15239
 O407 O 0.84858 0.48125 0.11859
 O408 O 0.88286 0.52115 0.15988
 O409 O 0.85215 0.51997 0.18609
 O410 O 0.81898 0.47727 0.14575
 O411 O 0.85193 0.47294 0.18061
 O412 O 0.81979 0.52445 0.15077
 Cu413 Cu 0.86874 0.50168 0.13633
 Cu414 Cu 0.83261 0.49840 0.16852
 C415 C 0.83015 0.53503 0.13297
 C416 C 0.87184 0.46514 0.17135
 C417 C 0.82814 0.47225 0.12516
 C418 C 0.87348 0.52729 0.18001
 O419 O 0.16240 0.51699 0.86947
 O420 O 0.13653 0.47458 0.82424
 O421 O 0.16829 0.47115 0.85947
 O422 O 0.13009 0.52028 0.83469
 O423 O 0.15963 0.53006 0.80895
 O424 O 0.19838 0.48072 0.83433
 O425 O 0.16618 0.48443 0.79867
 O426 O 0.19219 0.52677 0.84404
 Cu427 Cu 0.14638 0.49476 0.84951
 Cu428 Cu 0.18213 0.50644 0.81895
 C429 C 0.18174 0.52902 0.86453
 C430 C 0.14678 0.47251 0.80364
 C431 C 0.18985 0.46762 0.85140
 C432 C 0.13816 0.53337 0.81746
 C433 C 0.27356 0.37503 0.04408
 C434 C 0.24844 0.37944 0.04721
 C435 C 0.23767 0.39392 0.06725
 C436 C 0.25200 0.40734 0.08391
 C437 C 0.24072 0.42228 0.10120
 C438 C 0.21490 0.42413 0.10218
 C439 C 0.20071 0.41036 0.08585
 C440 C 0.21193 0.39545 0.06865
 C441 C 0.20191 0.44115 0.11863
 C442 C 0.21296 0.45444 0.13737
 H443 H 0.23585 0.37221 0.03368
 H444 H 0.27187 0.40704 0.08337
 H445 H 0.25242 0.43281 0.11315
 H446 H 0.18079 0.41148 0.08608
 H447 H 0.20040 0.38543 0.05603
 H448 H 0.18239 0.44376 0.11537
 H449 H 0.28663 0.38022 0.05796
 H450 H 0.23204 0.45165 0.14221
 C451 C 0.71511 0.62002 0.04776
 C452 C 0.74064 0.61799 0.05011
 C453 C 0.75355 0.60397 0.06924
 C454 C 0.77822 0.59782 0.06516
 C455 C 0.79118 0.58354 0.08174
 C456 C 0.77990 0.57539 0.10326
 C457 C 0.75526 0.58184 0.10757
 C458 C 0.74217 0.59604 0.09077
 C459 C 0.79276 0.55898 0.12060
 C460 C 0.81817 0.55529 0.12022
 H461 H 0.75190 0.62572 0.03580
 H462 H 0.78739 0.60353 0.04865
 H463 H 0.80974 0.57843 0.07701
 H464 H 0.74606 0.57570 0.12390
 H465 H 0.72327 0.60066 0.09477
 H466 H 0.78170 0.54855 0.13325
 H467 H 0.70293 0.61329 0.06172
 H468 H 0.82978 0.56614 0.10854
 C469 C 0.71581 0.37181 0.95124
 C470 C 0.74109 0.37530 0.94823
 C471 C 0.75245 0.39025 0.92891
 C472 C 0.77600 0.39968 0.93337
 C473 C 0.78731 0.41513 0.91672
 C474 C 0.77556 0.42120 0.89469
 C475 C 0.75207 0.41141 0.89000
 C476 C 0.74056 0.39607 0.90693
 C477 C 0.78673 0.43853 0.87703
 C478 C 0.81126 0.44604 0.87851
 H479 H 0.75313 0.36900 0.96267
 H480 H 0.78548 0.39568 0.95026
 H481 H 0.80493 0.42267 0.92185
 H482 H 0.74252 0.41580 0.87327
 H483 H 0.72250 0.38886 0.90273
 H484 H 0.77504 0.44639 0.86311
 H485 H 0.70289 0.37711 0.93724
 H486 H 0.82357 0.43796 0.89164
 C487 C 0.28375 0.62319 0.95785
 C488 C 0.25870 0.61793 0.95483
 C489 C 0.24799 0.60290 0.93500
 C490 C 0.22238 0.59932 0.93469
 C491 C 0.21123 0.58486 0.91690
 C492 C 0.22552 0.57344 0.89899
 C493 C 0.25106 0.57743 0.89890
 C494 C 0.26226 0.59187 0.91675
 C495 C 0.21443 0.55759 0.88008
 C496 C 0.19196 0.54553 0.88305
 H497 H 0.24600 0.62533 0.96805
 H498 H 0.21087 0.60773 0.94835
 H499 H 0.19141 0.58297 0.91716
 H500 H 0.26247 0.56903 0.88516
 H501 H 0.28200 0.59407 0.91609
 H502 H 0.22502 0.55419 0.86378
 H503 H 0.29705 0.61710 0.94469
 H504 H 0.18191 0.54723 0.89988
 C505 C 0.05038 0.28572 0.37767
 C506 C 0.05339 0.26092 0.38250
 C507 C 0.07339 0.25055 0.39757
 C508 C 0.06979 0.22730 0.40749
 C509 C 0.08756 0.21676 0.42245
 C510 C 0.10975 0.22908 0.42752
 C511 C 0.11348 0.25233 0.41750
 C512 C 0.09553 0.26298 0.40257
 C513 C 0.12859 0.21858 0.44404
 C514 C 0.12982 0.19368 0.44899
 H515 H 0.03923 0.24848 0.37616
 H516 H 0.05283 0.21741 0.40410
 H517 H 0.08338 0.19926 0.43046
 H518 H 0.13034 0.26225 0.42121
 H519 H 0.09922 0.28076 0.39491
 H520 H 0.14141 0.23082 0.45296
 H521 H 0.06411 0.29877 0.38346
 H522 H 0.11814 0.18108 0.43918
 C523 C 0.04327 0.70894 0.61451
 C524 C 0.04561 0.73375 0.60934
 C525 C 0.06568 0.74470 0.59486
 C526 C 0.06150 0.76763 0.58445
 C527 C 0.07938 0.77877 0.57014
 C528 C 0.10228 0.76745 0.56629
 C529 C 0.10654 0.74446 0.57671
 C530 C 0.08845 0.73316 0.59095
 C531 C 0.12150 0.77881 0.55085
 C532 C 0.12185 0.80373 0.54583
 H533 H 0.03083 0.74574 0.61493
 H534 H 0.04406 0.77683 0.58701
 H535 H 0.07478 0.79597 0.56173
 H536 H 0.12395 0.73529 0.57393
 H537 H 0.09252 0.71563 0.59897
 H538 H 0.13555 0.76725 0.54306
 H539 H 0.05763 0.69629 0.60957
 H540 H 0.10886 0.81574 0.55458
 C541 C 0.95723 0.72325 0.37058
 C542 C 0.95444 0.74815 0.37519
 C543 C 0.93523 0.75890 0.39099
 C544 C 0.93608 0.78410 0.39538
 C545 C 0.91933 0.79508 0.41112
 C546 C 0.90130 0.78103 0.42290
 C547 C 0.89993 0.75598 0.41801
 C548 C 0.91676 0.74494 0.40234
 C549 C 0.88338 0.79185 0.43995
 C550 C 0.88754 0.81359 0.45249
 H551 H 0.96788 0.76053 0.36746
 H552 H 0.94992 0.79536 0.38673
 H553 H 0.92047 0.81458 0.41376
 H554 H 0.88600 0.74481 0.42664
 H555 H 0.91514 0.72555 0.39950
 H556 H 0.86669 0.78166 0.44363
 H557 H 0.94372 0.71031 0.37690
 H558 H 0.90469 0.82341 0.45034
 C559 C 0.95125 0.27714 0.62849
 C560 C 0.94802 0.25198 0.62618
 C561 C 0.92838 0.23993 0.61176
 C562 C 0.91418 0.25229 0.59422
 C563 C 0.89810 0.23936 0.57893
 C564 C 0.89595 0.21385 0.58091
 C565 C 0.90961 0.20177 0.59891
 C566 C 0.92558 0.21463 0.61412
 C567 C 0.88154 0.19882 0.56355
 C568 C 0.86395 0.20773 0.54724
 H569 H 0.96152 0.24025 0.63480
 H570 H 0.91618 0.27170 0.59146
 H571 H 0.88830 0.24932 0.56499
 H572 H 0.90843 0.18215 0.60082
 H573 H 0.93635 0.20461 0.62737
 H574 H 0.88538 0.17944 0.56338
 H575 H 0.93716 0.28958 0.62225
 H576 H 0.85826 0.22659 0.54783
 C577 C 0.37656 0.04003 0.27900
 C578 C 0.40136 0.04095 0.27245
 C579 C 0.41149 0.05928 0.25557
 C580 C 0.40356 0.08368 0.25535
 C581 C 0.41378 0.10034 0.23885
 C582 C 0.43168 0.09264 0.22216
 C583 C 0.43936 0.06827 0.22239
 C584 C 0.42967 0.05187 0.23918
 C585 C 0.44254 0.10918 0.20395
 C586 C 0.44860 0.13343 0.20873
 H587 H 0.41333 0.02605 0.27768
 H588 H 0.38977 0.08993 0.26804
 H589 H 0.40739 0.11902 0.23886
 H590 H 0.45314 0.06197 0.20968
 H591 H 0.43604 0.03317 0.23905
 H592 H 0.44914 0.10098 0.18730
 H593 H 0.36448 0.05479 0.27375
 H594 H 0.44421 0.14141 0.22616
 C595 C 0.62273 0.05353 0.71540
 C596 C 0.61966 0.05810 0.74012
 C597 C 0.60392 0.07749 0.75036
 C598 C 0.59663 0.07506 0.77461
 C599 C 0.58098 0.09202 0.78522
 C600 C 0.57257 0.11234 0.77196
 C601 C 0.57986 0.11488 0.74764
 C602 C 0.59549 0.09768 0.73691
 C603 C 0.55523 0.13013 0.78281
 C604 C 0.55321 0.13291 0.80788
 H605 H 0.62780 0.04532 0.75284
 H606 H 0.60258 0.05955 0.78532
 H607 H 0.57502 0.08859 0.80361
 H608 H 0.57345 0.13020 0.73696
 H609 H 0.60091 0.10037 0.71823
 H610 H 0.54305 0.14029 0.77094
 H611 H 0.61552 0.06597 0.70193
 H612 H 0.56613 0.12381 0.81978
 C613 C 0.37771 0.95528 0.71724
 C614 C 0.38016 0.95368 0.74244
 C615 C 0.39397 0.93456 0.75565
 C616 C 0.41012 0.91824 0.74410
 C617 C 0.42492 0.90250 0.75787
 C618 C 0.42383 0.90286 0.78339
 C619 C 0.40721 0.91865 0.79475
 C620 C 0.39243 0.93424 0.78106
 C621 C 0.44101 0.88885 0.79891
 C622 C 0.45457 0.86870 0.79129
 H623 H 0.37203 0.96807 0.75324
 H624 H 0.41220 0.91820 0.72459
 H625 H 0.43790 0.89097 0.74848
 H626 H 0.40607 0.91936 0.81438
 H627 H 0.38023 0.94665 0.79046
 H628 H 0.44313 0.89489 0.81753
 H629 H 0.38343 0.94049 0.70562
 H630 H 0.45152 0.86076 0.77356
 C631 C 0.62450 0.95404 0.27374
 C632 C 0.61971 0.95177 0.24885
 C633 C 0.60476 0.93217 0.23745
 C634 C 0.59042 0.91561 0.25094
 C635 C 0.57512 0.89876 0.23913
 C636 C 0.57383 0.89807 0.21359
 C637 C 0.58830 0.91446 0.20023
 C638 C 0.60359 0.93123 0.21200
 C639 C 0.55677 0.88162 0.20025
 C640 C 0.54625 0.86070 0.21029
 H641 H 0.62695 0.96576 0.23692
 H642 H 0.59027 0.91599 0.27055
 H643 H 0.56377 0.88696 0.25016
 H644 H 0.58759 0.91446 0.18057
 H645 H 0.61426 0.94384 0.20111
 H646 H 0.55259 0.88605 0.18151
 H647 H 0.61943 0.93958 0.28608
 H648 H 0.55124 0.85495 0.22843
 C649 C 0.37092 0.28292 0.95735
 C650 C 0.38192 0.25982 0.95657
 C651 C 0.39541 0.24938 0.93566
 C652 C 0.40900 0.22808 0.93983
 C653 C 0.42209 0.21705 0.92117
 C654 C 0.42160 0.22677 0.89754
 C655 C 0.40832 0.24830 0.89329
 C656 C 0.39522 0.25952 0.91214
 C657 C 0.43586 0.21536 0.87764
 C658 C 0.44225 0.19077 0.87827
 H659 H 0.38028 0.24798 0.97220
 H660 H 0.40979 0.22003 0.95779
 H661 H 0.43301 0.20119 0.92561
 H662 H 0.40794 0.25634 0.87532
 H663 H 0.38492 0.27583 0.90801
 H664 H 0.44251 0.22676 0.86297
 H665 H 0.37048 0.29343 0.94085
 H666 H 0.43458 0.17905 0.89214
 C667 C 0.62215 0.71632 0.95974
 C668 C 0.61170 0.73971 0.95936
 C669 C 0.59966 0.75134 0.93808
 C670 C 0.59308 0.77596 0.94005
 C671 C 0.58048 0.78777 0.92137
 C672 C 0.57412 0.77524 0.89993
 C673 C 0.58092 0.75062 0.89781
 C674 C 0.59348 0.73872 0.91666
 C675 C 0.55940 0.78670 0.88014
 C676 C 0.55283 0.81132 0.87980
 H677 H 0.61337 0.75101 0.97537
 H678 H 0.59735 0.78612 0.95641
 H679 H 0.57543 0.80651 0.92439
 H680 H 0.57613 0.74042 0.88163
 H681 H 0.59772 0.71963 0.91446
 H682 H 0.55258 0.77505 0.86573
 H683 H 0.62358 0.70693 0.94268
 H684 H 0.55964 0.82368 0.89348
 C685 C 0.37185 0.73410 0.03381
 C686 C 0.37772 0.72553 0.05707
 C687 C 0.39137 0.74097 0.07471
 C688 C 0.40722 0.73001 0.09167
 C689 C 0.42193 0.74432 0.10702
 C690 C 0.42088 0.76992 0.10578
 C691 C 0.40436 0.78082 0.08947
 C692 C 0.38955 0.76656 0.07431
 C693 C 0.43772 0.78580 0.11992
 C694 C 0.44880 0.77884 0.14172
 H695 H 0.37556 0.70634 0.06120
 H696 H 0.40891 0.71036 0.09243
 H697 H 0.43473 0.73526 0.11909
 H698 H 0.40305 0.80049 0.08830
 H699 H 0.37690 0.77568 0.06212
 H700 H 0.44118 0.80399 0.11303
 H701 H 0.37957 0.75167 0.02897
 H702 H 0.44405 0.76160 0.15007
 C703 C 0.62495 0.28459 0.05100
 C704 C 0.62131 0.25976 0.05539
 C705 C 0.60718 0.24936 0.07594
 C706 C 0.60473 0.22391 0.07716
 C707 C 0.58968 0.21306 0.09459
 C708 C 0.57661 0.22747 0.11119
 C709 C 0.57999 0.25281 0.11088
 C710 C 0.59498 0.26375 0.09331
 C711 C 0.55898 0.21650 0.12849
 C712 C 0.54553 0.19561 0.12270
 H713 H 0.62832 0.24703 0.04205
 H714 H 0.61408 0.21234 0.06421
 H715 H 0.58822 0.19339 0.09490
 H716 H 0.57032 0.26425 0.12372
 H717 H 0.59632 0.28338 0.09317
 H718 H 0.55502 0.22613 0.14519
 H719 H 0.62003 0.29805 0.06441
 H720 H 0.54784 0.18713 0.10511
 C721 C 0.27469 0.04168 0.63017
 C722 C 0.24989 0.04188 0.62305
 C723 C 0.23743 0.06246 0.61076
 C724 C 0.25033 0.08063 0.59794
 C725 C 0.23751 0.09792 0.58409
 C726 C 0.21163 0.09725 0.58280
 C727 C 0.19888 0.07956 0.59620
 C728 C 0.21162 0.06241 0.61003
 C729 C 0.19734 0.11273 0.56592
 C730 C 0.20594 0.13424 0.55537
 H731 H 0.23845 0.02630 0.62742
 H732 H 0.27023 0.08089 0.59758
 H733 H 0.24797 0.11092 0.57352
 H734 H 0.17896 0.07857 0.59543
 H735 H 0.20123 0.04858 0.61964
 H736 H 0.17900 0.10648 0.56112
 H737 H 0.28451 0.05875 0.62955
 H738 H 0.22314 0.14235 0.56121
 C739 C 0.71769 0.04116 0.37129
 C740 C 0.74045 0.04173 0.38354
 C741 C 0.75081 0.06278 0.39721
 C742 C 0.77212 0.05870 0.41108
 C743 C 0.78298 0.07743 0.42446
 C744 C 0.77306 0.10110 0.42406
 C745 C 0.75153 0.10524 0.41044
 C746 C 0.74049 0.08633 0.39708
 C747 C 0.78415 0.12134 0.43842
 C748 C 0.80834 0.12061 0.44716
 H749 H 0.75212 0.02580 0.38281
 H750 H 0.78035 0.04073 0.41185
 H751 H 0.79883 0.07293 0.43546
 H752 H 0.74327 0.12319 0.41004
 H753 H 0.72411 0.09043 0.38670
 H754 H 0.77280 0.13696 0.44273
 H755 H 0.70756 0.05793 0.37003
 H756 H 0.82027 0.10570 0.44219
 C757 C 0.71738 0.96107 0.62631
 C758 C 0.72433 0.95750 0.60216
 C759 C 0.73942 0.93681 0.59409
 C760 C 0.73483 0.92665 0.57120
 C761 C 0.75074 0.90923 0.56161
 C762 C 0.77198 0.90221 0.57449
 C763 C 0.77632 0.91204 0.59763
 C764 C 0.75998 0.92902 0.60753
 C765 C 0.79082 0.88673 0.56301
 C766 C 0.78484 0.87111 0.54415
 H767 H 0.71756 0.96979 0.58825
 H768 H 0.71920 0.93263 0.56049
 H769 H 0.74705 0.90220 0.54360
 H770 H 0.79264 0.90700 0.60779
 H771 H 0.76411 0.93700 0.62505
 H772 H 0.80989 0.88875 0.56848
 H773 H 0.72035 0.94616 0.63881
 H774 H 0.79563 0.86485 0.53558
 C775 C 0.27487 0.95998 0.37314
 C776 C 0.25068 0.96094 0.38188
 C777 C 0.23796 0.94064 0.39434
 C778 C 0.25067 0.92192 0.40656
 C779 C 0.23772 0.90457 0.42021
 C780 C 0.21188 0.90573 0.42186
 C781 C 0.19933 0.92405 0.40912
 C782 C 0.21220 0.94129 0.39557
 C783 C 0.19735 0.88983 0.43813
 C784 C 0.20580 0.86837 0.44892
 H785 H 0.23969 0.97698 0.37820
 H786 H 0.27057 0.92121 0.40651
 H787 H 0.24808 0.89103 0.43017
 H788 H 0.17945 0.92542 0.41014
 H789 H 0.20196 0.95556 0.38643
 H790 H 0.17872 0.89564 0.44209
 H791 H 0.28383 0.94248 0.37336
 H792 H 0.22347 0.86072 0.44413
 C793 C 0.04487 0.37088 0.71989
 C794 C 0.05013 0.39566 0.72217
 C795 C 0.06960 0.40536 0.73832
 C796 C 0.08007 0.42816 0.73312
 C797 C 0.09651 0.43908 0.74941
 C798 C 0.10242 0.42755 0.77148
 C799 C 0.09210 0.40466 0.77659
 C800 C 0.07602 0.39352 0.76008
 C801 C 0.11721 0.44005 0.79032
 C802 C 0.13563 0.45691 0.78487
 H803 H 0.03902 0.40860 0.71208
 H804 H 0.07508 0.43778 0.71664
 H805 H 0.10363 0.45703 0.74521
 H806 H 0.09613 0.39560 0.79363
 H807 H 0.06775 0.37624 0.76493
 H808 H 0.11324 0.43602 0.80918
 H809 H 0.05729 0.35750 0.72757
 H810 H 0.14161 0.45924 0.76627
 C811 C 0.04205 0.62480 0.27666
 C812 C 0.04380 0.59982 0.27218
 C813 C 0.06203 0.58884 0.25567
 C814 C 0.08562 0.59881 0.25205
 C815 C 0.10216 0.58757 0.23612
 C816 C 0.09522 0.56637 0.22348
 C817 C 0.07161 0.55666 0.22703
 C818 C 0.05533 0.56759 0.24319
 C819 C 0.11178 0.55378 0.20641
 C820 C 0.13735 0.55330 0.20890
 H821 H 0.02954 0.58792 0.27921
 H822 H 0.09144 0.61501 0.26169
 H823 H 0.12014 0.59567 0.23349
 H824 H 0.06584 0.54035 0.21749
 H825 H 0.03725 0.55958 0.24568
 H826 H 0.10325 0.54205 0.19296
 H827 H 0.05605 0.63704 0.26984
 H828 H 0.14630 0.56353 0.22322
 C829 C 0.96359 0.37713 0.27922
 C830 C 0.96354 0.38738 0.25586
 C831 C 0.94257 0.40008 0.24406
 C832 C 0.94667 0.41015 0.22102
 C833 C 0.92824 0.42303 0.20900
 C834 C 0.90487 0.42589 0.21954
 C835 C 0.90065 0.41596 0.24267
 C836 C 0.91928 0.40310 0.25486
 C837 C 0.88540 0.44051 0.20743
 C838 C 0.88569 0.44516 0.18253
 H839 H 0.97983 0.38545 0.24478
 H840 H 0.96447 0.40847 0.21235
 H841 H 0.93283 0.43130 0.19178
 H842 H 0.88293 0.41823 0.25135
 H843 H 0.91524 0.39584 0.27264
 H844 H 0.87141 0.44898 0.21857
 H845 H 0.94640 0.37637 0.28882
 H846 H 0.89879 0.43593 0.17103
 C847 C 0.95510 0.62119 0.71489
 C848 C 0.95450 0.61154 0.73847
 C849 C 0.93311 0.59901 0.74958
 C850 C 0.93391 0.59459 0.77463
 C851 C 0.91538 0.58130 0.78602
 C852 C 0.89521 0.57221 0.77267
 C853 C 0.89426 0.57672 0.74757
 C854 C 0.91301 0.58999 0.73607
 C855 C 0.87617 0.55649 0.78409
 C856 C 0.87299 0.55528 0.80918
 H857 H 0.97027 0.61428 0.75022
 H858 H 0.94931 0.60100 0.78545
 H859 H 0.91765 0.57754 0.80515
 H860 H 0.87918 0.56960 0.73676
 H861 H 0.91193 0.59245 0.71662
 H862 H 0.86552 0.54439 0.77258
 H863 H 0.93800 0.62162 0.70496
 H864 H 0.88267 0.56782 0.82094
 C865 C 0.71745 0.62273 0.95840
 C866 C 0.74305 0.62033 0.95752
 C867 C 0.75695 0.60646 0.93902
 C868 C 0.74562 0.59047 0.92240
 C869 C 0.75995 0.57563 0.90731
 C870 C 0.78584 0.57650 0.90860
 C871 C 0.79700 0.59287 0.92479
 C872 C 0.78275 0.60769 0.93974
 C873 C 0.80192 0.55969 0.89482
 C874 C 0.79462 0.54660 0.87429
 H875 H 0.75364 0.62820 0.97230
 H876 H 0.72582 0.58859 0.92161
 H877 H 0.75064 0.56287 0.89546
 H878 H 0.81688 0.59388 0.92623
 H879 H 0.79200 0.61971 0.95244
 H880 H 0.82078 0.55782 0.90105
 H881 H 0.70608 0.61741 0.94315
 H882 H 0.77654 0.54924 0.86646
 C883 C 0.27095 0.37085 0.95525
 C884 C 0.24638 0.37857 0.95425
 C885 C 0.23471 0.39011 0.93286
 C886 C 0.24812 0.40403 0.91598
 C887 C 0.23584 0.41731 0.89787
 C888 C 0.20993 0.41678 0.89633
 C889 C 0.19681 0.40202 0.91263
 C890 C 0.20902 0.38899 0.93074
 C891 C 0.19552 0.43270 0.87981
 C892 C 0.20539 0.44868 0.86262
 H893 H 0.23447 0.37487 0.96957
 H894 H 0.26794 0.40564 0.91743
 H895 H 0.24669 0.42858 0.88587
 H896 H 0.17688 0.40121 0.91190
 H897 H 0.19826 0.37845 0.94355
 H898 H 0.17575 0.43296 0.88248
 H899 H 0.28106 0.37077 0.93842
 H900 H 0.22472 0.44825 0.85806
 C901 C 0.28085 0.63594 0.04590
 C902 C 0.25789 0.62443 0.04804
 C903 C 0.24895 0.61230 0.07033
 C904 C 0.22352 0.60880 0.07305
 C905 C 0.21430 0.59488 0.09220
 C906 C 0.23040 0.58368 0.10885
 C907 C 0.25580 0.58810 0.10680
 C908 C 0.26505 0.60219 0.08765
 C909 C 0.22131 0.56687 0.12796
 C910 C 0.19926 0.55392 0.12558
 H911 H 0.24524 0.62491 0.03280
 H912 H 0.21073 0.61655 0.06004
 H913 H 0.19455 0.59284 0.09370
 H914 H 0.26858 0.57986 0.11951
 H915 H 0.28479 0.60420 0.08587
 H916 H 0.23313 0.56319 0.14341
 H917 H 0.29112 0.63918 0.06241
 H918 H 0.18804 0.55615 0.10947
 C919 C 0.71931 0.37846 0.03974
 C920 C 0.74268 0.38931 0.03871
 C921 C 0.75376 0.40447 0.05800
 C922 C 0.77218 0.42100 0.05118
 C923 C 0.78406 0.43530 0.06847
 C924 C 0.77824 0.43300 0.09321
 C925 C 0.75936 0.41689 0.10008
 C926 C 0.74721 0.40264 0.08264
 C927 C 0.79145 0.44736 0.11192
 C928 C 0.81528 0.45611 0.10813
 H929 H 0.75385 0.38697 0.02264
 H930 H 0.77733 0.42298 0.03229
 H931 H 0.79764 0.44829 0.06221
 H932 H 0.75437 0.41497 0.11902
 H933 H 0.73331 0.38987 0.08862
 H934 H 0.78247 0.45072 0.12913
 H935 H 0.70964 0.37920 0.05676
 H936 H 0.82506 0.45137 0.09174
 C937 C 0.95318 0.71062 0.61720
 C938 C 0.95270 0.73372 0.60624
 C939 C 0.93117 0.74487 0.59398
 C940 C 0.93220 0.76990 0.58902
 C941 C 0.91358 0.78130 0.57584
 C942 C 0.89313 0.76798 0.56735
 C943 C 0.89199 0.74286 0.57229
 C944 C 0.91081 0.73136 0.58555
 C945 C 0.87404 0.77959 0.55182
 C946 C 0.87044 0.80476 0.55164
 H947 H 0.96884 0.74525 0.60782
 H948 H 0.94785 0.78070 0.59491
 H949 H 0.91596 0.80040 0.57162
 H950 H 0.87670 0.73208 0.56559
 H951 H 0.90966 0.71190 0.58846
 H952 H 0.86384 0.76832 0.53914
 H953 H 0.93588 0.70118 0.61907
 H954 H 0.87959 0.81600 0.56504
 C955 C 0.96032 0.28265 0.37219
 C956 C 0.95964 0.25927 0.38258
 C957 C 0.93867 0.24831 0.39596
 C958 C 0.94308 0.22650 0.40851
 C959 C 0.92469 0.21547 0.42228
 C960 C 0.90101 0.22577 0.42363
 C961 C 0.89646 0.24755 0.41090
 C962 C 0.91506 0.25878 0.39721
 C963 C 0.88109 0.21489 0.43872
 C964 C 0.88294 0.19202 0.44979
 H965 H 0.97581 0.24786 0.38105
 H966 H 0.96111 0.21808 0.40808
 H967 H 0.92964 0.19918 0.43209
 H968 H 0.87846 0.25599 0.41165
 H969 H 0.91073 0.27550 0.38776
 H970 H 0.86458 0.22552 0.44170
 H971 H 0.94331 0.29261 0.37088
 H972 H 0.89876 0.18060 0.44671
 C973 C 0.04148 0.27574 0.62823
 C974 C 0.04250 0.25240 0.61789
 C975 C 0.06401 0.24283 0.60446
 C976 C 0.06662 0.21751 0.60214
 C977 C 0.08549 0.20764 0.58808
 C978 C 0.10198 0.22296 0.57562
 C979 C 0.09982 0.24829 0.57849
 C980 C 0.08095 0.25818 0.59265
 C981 C 0.12135 0.21318 0.55938
 C982 C 0.11977 0.19025 0.54847
 H983 H 0.02740 0.23984 0.62080
 H984 H 0.05388 0.20528 0.61113
 H985 H 0.08704 0.18802 0.58714
 H986 H 0.11235 0.26050 0.56919
 H987 H 0.07923 0.27780 0.59359
 H988 H 0.13660 0.22503 0.55466
 H989 H 0.05837 0.28609 0.62850
 H990 H 0.10395 0.17872 0.55172
 C991 C 0.04706 0.72424 0.36379
 C992 C 0.04901 0.74803 0.37277
 C993 C 0.07062 0.75743 0.38614
 C994 C 0.07374 0.78273 0.38786
 C995 C 0.09209 0.79258 0.40266
 C996 C 0.10745 0.77726 0.41647
 C997 C 0.10511 0.75192 0.41389
 C998 C 0.08676 0.74203 0.39897
 C999 C 0.12534 0.78715 0.43423
 C1000 C 0.12185 0.80959 0.44559
 H1001 H 0.03416 0.76077 0.36943
 H1002 H 0.06161 0.79495 0.37806
 H1003 H 0.09396 0.81219 0.40338
 H1004 H 0.11686 0.73975 0.42420
 H1005 H 0.08461 0.72244 0.39843
 H1006 H 0.14046 0.77565 0.44002
 H1007 H 0.06366 0.71350 0.36337
 H1008 H 0.10591 0.82056 0.44122
 C1009 C 0.62769 0.96398 0.72384
 C1010 C 0.62373 0.96351 0.74890
 C1011 C 0.61074 0.94379 0.76219
 C1012 C 0.59792 0.92479 0.75044
 C1013 C 0.58404 0.90802 0.76388
 C1014 C 0.58265 0.90994 0.78931
 C1015 C 0.59584 0.92857 0.80097
 C1016 C 0.60978 0.94521 0.78760
 C1017 C 0.56612 0.89446 0.80413
 C1018 C 0.55616 0.87222 0.79659
 H1019 H 0.63001 0.97903 0.75941
 H1020 H 0.59772 0.92320 0.73089
 H1021 H 0.57364 0.89429 0.75417
 H1022 H 0.59496 0.93059 0.82052
 H1023 H 0.61936 0.95965 0.79717
 H1024 H 0.56129 0.90119 0.82199
 H1025 H 0.62354 0.94819 0.71289
 H1026 H 0.56198 0.86392 0.77976
 C1027 C 0.37281 0.95058 0.28413
 C1028 C 0.38420 0.94761 0.26148
 C1029 C 0.39750 0.92556 0.25310
 C1030 C 0.40844 0.92657 0.23009
 C1031 C 0.42206 0.90706 0.22122
 C1032 C 0.42482 0.88560 0.23497
 C1033 C 0.41405 0.88451 0.25810
 C1034 C 0.40048 0.90427 0.26714
 C1035 C 0.43993 0.86494 0.22600
 C1036 C 0.44484 0.86179 0.20135
 H1037 H 0.38290 0.96227 0.24839
 H1038 H 0.40687 0.94281 0.21898
 H1039 H 0.43094 0.90934 0.20383
 H1040 H 0.41619 0.86836 0.26923
 H1041 H 0.39267 0.90269 0.28508
 H1042 H 0.44817 0.85263 0.23909
 H1043 H 0.37117 0.93477 0.29558
 H1044 H 0.43566 0.87317 0.18810
 C1045 C 0.62706 0.04332 0.27384
 C1046 C 0.61699 0.04487 0.25041
 C1047 C 0.60364 0.06633 0.24080
 C1048 C 0.60057 0.06842 0.21558
 C1049 C 0.58624 0.08705 0.20567
 C1050 C 0.57435 0.10388 0.22086
 C1051 C 0.57811 0.10236 0.24604
 C1052 C 0.59246 0.08365 0.25599
 C1053 C 0.55762 0.12278 0.21104
 C1054 C 0.54457 0.11969 0.18937
 H1055 H 0.61983 0.02997 0.23785
 H1056 H 0.60907 0.05538 0.20347
 H1057 H 0.58453 0.08814 0.18613
 H1058 H 0.56925 0.11520 0.25811
 H1059 H 0.59395 0.08238 0.27553
 H1060 H 0.55396 0.13868 0.22210
 H1061 H 0.62770 0.05986 0.28436
 H1062 H 0.54661 0.10308 0.17901
 C1063 C 0.37660 0.04503 0.71597
 C1064 C 0.38089 0.04726 0.74087
 C1065 C 0.39428 0.06762 0.75259
 C1066 C 0.39684 0.06716 0.77795
 C1067 C 0.41098 0.08470 0.78990
 C1068 C 0.42303 0.10306 0.77667
 C1069 C 0.41965 0.10421 0.75144
 C1070 C 0.40555 0.08659 0.73943
 C1071 C 0.43932 0.12105 0.78858
 C1072 C 0.45190 0.11605 0.81012
 H1073 H 0.37469 0.03254 0.75252
 H1074 H 0.38818 0.05292 0.78858
 H1075 H 0.41238 0.08377 0.80948
 H1076 H 0.42853 0.11839 0.74091
 H1077 H 0.40413 0.08776 0.71991
 H1078 H 0.44274 0.13814 0.77929
 H1079 H 0.38072 0.05979 0.70366
 H1080 H 0.44997 0.09849 0.81886
 C1081 C 0.62031 0.71317 0.04873
 C1082 C 0.61822 0.73830 0.05214
 C1083 C 0.60568 0.75024 0.07284
 C1084 C 0.59108 0.73749 0.08973
 C1085 C 0.57777 0.75013 0.10748
 C1086 C 0.57879 0.77573 0.10861
 C1087 C 0.59390 0.78827 0.09218
 C1088 C 0.60719 0.77571 0.07458
 C1089 C 0.56269 0.79026 0.12469
 C1090 C 0.54986 0.78123 0.14475
 H1091 H 0.62603 0.75010 0.03835
 H1092 H 0.58907 0.71792 0.08887
 H1093 H 0.56594 0.73985 0.11951
 H1094 H 0.59493 0.80799 0.09255
 H1095 H 0.61822 0.78604 0.06183
 H1096 H 0.56020 0.80927 0.11989
 H1097 H 0.61455 0.70058 0.06271
 H1098 H 0.55326 0.76303 0.15153
 C1099 C 0.36673 0.28086 0.04616
 C1100 C 0.39160 0.27769 0.05159
 C1101 C 0.40042 0.26146 0.07120
 C1102 C 0.42312 0.26636 0.08239
 C1103 C 0.43310 0.25002 0.09923
 C1104 C 0.42075 0.22817 0.10478
 C1105 C 0.39799 0.22332 0.09367
 C1106 C 0.38775 0.23992 0.07722
 C1107 C 0.43247 0.20918 0.11996
 C1108 C 0.44874 0.21464 0.13881
 H1109 H 0.40520 0.28717 0.04071
 H1110 H 0.43338 0.28265 0.07772
 H1111 H 0.45102 0.25396 0.10696
 H1112 H 0.38835 0.20643 0.09739
 H1113 H 0.37053 0.23531 0.06839
 H1114 H 0.42875 0.19028 0.11559
 H1115 H 0.35287 0.27384 0.05842
 H1116 H 0.45070 0.23329 0.14495
 C1117 C 0.62475 0.27564 0.96200
 C1118 C 0.59958 0.27285 0.95817
 C1119 C 0.58945 0.25636 0.93958
 C1120 C 0.56671 0.26185 0.92882
 C1121 C 0.55583 0.24562 0.91248
 C1122 C 0.56735 0.22336 0.90707
 C1123 C 0.59003 0.21781 0.91791
 C1124 C 0.60116 0.23429 0.93385
 C1125 C 0.55504 0.20492 0.89187
 C1126 C 0.53984 0.21114 0.87245
 H1127 H 0.58686 0.28319 0.96923
 H1128 H 0.55723 0.27861 0.93330
 H1129 H 0.53798 0.25005 0.90488
 H1130 H 0.59899 0.20059 0.91425
 H1131 H 0.61840 0.22929 0.94241
 H1132 H 0.55802 0.18586 0.89612
 H1133 H 0.63777 0.26773 0.94943
 H1134 H 0.53885 0.22988 0.86633
 C1135 C 0.37406 0.72025 0.94716
 C1136 C 0.37651 0.74468 0.94047
 C1137 C 0.39188 0.75364 0.92015
 C1138 C 0.38984 0.77823 0.91345
 C1139 C 0.40588 0.78843 0.89647
 C1140 C 0.42454 0.77425 0.88596
 C1141 C 0.42582 0.74935 0.89163
 C1142 C 0.40980 0.73913 0.90873
 C1143 C 0.44329 0.78520 0.86980
 C1144 C 0.45129 0.80919 0.87285
 H1145 H 0.36724 0.75823 0.95145
 H1146 H 0.37610 0.78978 0.92180
 H1147 H 0.40376 0.80748 0.89183
 H1148 H 0.43992 0.73802 0.88358
 H1149 H 0.41225 0.72019 0.91354
 H1150 H 0.45251 0.77361 0.85678
 H1151 H 0.38096 0.70599 0.93553
 H1152 H 0.44360 0.82019 0.88725
 C1153 C 0.71599 0.95169 0.37035
 C1154 C 0.74116 0.94871 0.37483
 C1155 C 0.75247 0.92797 0.38806
 C1156 C 0.77825 0.92722 0.38975
 C1157 C 0.78999 0.90951 0.40380
 C1158 C 0.77618 0.89214 0.41672
 C1159 C 0.75046 0.89204 0.41409
 C1160 C 0.73864 0.90988 0.40006
 C1161 C 0.78806 0.87465 0.43363
 C1162 C 0.80988 0.88037 0.44583
 H1163 H 0.75344 0.96302 0.36866
 H1164 H 0.78941 0.94071 0.38050
 H1165 H 0.80990 0.90965 0.40460
 H1166 H 0.73942 0.87867 0.42363
 H1167 H 0.71877 0.90970 0.39933
 H1168 H 0.77829 0.85809 0.43838
 H1169 H 0.70310 0.93730 0.37454
 H1170 H 0.81863 0.89782 0.44271
 C1171 C 0.27773 0.95258 0.62944
 C1172 C 0.25226 0.94911 0.62884
 C1173 C 0.23941 0.92966 0.61514
 C1174 C 0.25184 0.91137 0.60212
 C1175 C 0.23870 0.89511 0.58741
 C1176 C 0.21295 0.89692 0.58540
 C1177 C 0.20054 0.91446 0.59916
 C1178 C 0.21361 0.93059 0.61391
 C1179 C 0.19869 0.88210 0.56799
 C1180 C 0.20916 0.86404 0.55378
 H1181 H 0.24090 0.96272 0.63763
 H1182 H 0.27164 0.90976 0.60263
 H1183 H 0.24878 0.88168 0.57706
 H1184 H 0.18069 0.91614 0.59799
 H1185 H 0.20352 0.94439 0.62380
 H1186 H 0.17938 0.88643 0.56532
 H1187 H 0.29016 0.93908 0.62226
 H1188 H 0.20142 0.85709 0.54276
 C1189 C 0.28072 0.04878 0.36978
 C1190 C 0.27941 0.05428 0.39444
 C1191 C 0.26370 0.07385 0.40426
 C1192 C 0.27010 0.08482 0.42640
 C1193 C 0.25395 0.10101 0.43775
 C1194 C 0.23083 0.10603 0.42737
 C1195 C 0.22459 0.09537 0.40504
 C1196 C 0.24098 0.07963 0.39342
 C1197 C 0.21199 0.11996 0.44073
 C1198 C 0.21774 0.13884 0.45669
 H1199 H 0.28942 0.04296 0.40722
 H1200 H 0.28736 0.08034 0.43524
 H1201 H 0.25903 0.10851 0.45523
 H1202 H 0.20674 0.09876 0.39689
 H1203 H 0.23525 0.07098 0.37667
 H1204 H 0.19286 0.11489 0.43816
 H1205 H 0.27319 0.06123 0.35643
 H1206 H 0.23630 0.14607 0.45743
 C1207 C 0.71231 0.04958 0.61746
 C1208 C 0.71743 0.04951 0.59264
 C1209 C 0.73505 0.06645 0.58120
 C1210 C 0.73724 0.09104 0.58807
 C1211 C 0.75488 0.10606 0.57699
 C1212 C 0.77076 0.09649 0.55928
 C1213 C 0.76850 0.07196 0.55260
 C1214 C 0.75056 0.05721 0.56314
 C1215 C 0.79031 0.11112 0.54775
 C1216 C 0.78753 0.13556 0.54139
 H1217 H 0.71150 0.03398 0.58196
 H1218 H 0.72531 0.09865 0.60181
 H1219 H 0.75648 0.12489 0.58264
 H1220 H 0.78058 0.06420 0.53904
 H1221 H 0.74922 0.03831 0.55762
 H1222 H 0.80636 0.10139 0.54130
 H1223 H 0.71787 0.06496 0.62849
 H1224 H 0.77068 0.14511 0.54570
 C1225 C 0.95150 0.62346 0.28419
 C1226 C 0.94949 0.59822 0.28182
 C1227 C 0.93026 0.58607 0.26719
 C1228 C 0.93624 0.56395 0.25599
 C1229 C 0.91961 0.55265 0.24033
 C1230 C 0.89646 0.56308 0.23582
 C1231 C 0.88982 0.58449 0.24803
 C1232 C 0.90671 0.59611 0.26347
 C1233 C 0.87944 0.55169 0.21825
 C1234 C 0.88836 0.54216 0.19657
 H1235 H 0.96466 0.58708 0.28820
 H1236 H 0.95416 0.55573 0.25879
 H1237 H 0.92489 0.53574 0.23166
 H1238 H 0.87188 0.59259 0.24506
 H1239 H 0.90133 0.61283 0.27237
 H1240 H 0.85990 0.55126 0.22212
 H1241 H 0.93674 0.63524 0.27819
 H1242 H 0.90752 0.54498 0.19188
 C1243 C 0.95428 0.37634 0.71665
 C1244 C 0.95218 0.38169 0.74139
 C1245 C 0.93240 0.39654 0.75252
 C1246 C 0.93151 0.39794 0.77795
 C1247 C 0.91460 0.41311 0.78951
 C1248 C 0.89820 0.42743 0.77583
 C1249 C 0.89844 0.42545 0.75042
 C1250 C 0.91550 0.41032 0.73881
 C1251 C 0.88073 0.44445 0.78757
 C1252 C 0.88539 0.45513 0.81014
 H1253 H 0.96638 0.37483 0.75346
 H1254 H 0.94419 0.38743 0.78899
 H1255 H 0.91440 0.41344 0.80914
 H1256 H 0.88583 0.43614 0.73949
 H1257 H 0.91569 0.41007 0.71919
 H1258 H 0.86439 0.44979 0.77755
 H1259 H 0.93959 0.38088 0.70419
 H1260 H 0.90254 0.45148 0.81950
 C1261 C 0.04543 0.62100 0.71272
 C1262 C 0.04906 0.61827 0.73771
 C1263 C 0.07042 0.60586 0.74916
 C1264 C 0.07196 0.60565 0.77462
 C1265 C 0.09050 0.59262 0.78650
 C1266 C 0.10793 0.57935 0.77313
 C1267 C 0.10713 0.58041 0.74770
 C1268 C 0.08848 0.59335 0.73577
 C1269 C 0.12647 0.56365 0.78516
 C1270 C 0.12184 0.55211 0.80727
 H1271 H 0.03500 0.62535 0.74972
 H1272 H 0.05849 0.61528 0.78542
 H1273 H 0.09102 0.59290 0.80614
 H1274 H 0.12048 0.57047 0.73701
 H1275 H 0.08810 0.59284 0.71618
 H1276 H 0.14292 0.55887 0.77515
 H1277 H 0.05957 0.61569 0.70007
 H1278 H 0.10450 0.55510 0.81643
 C1279 C 0.05373 0.37498 0.28114
 C1280 C 0.05930 0.39967 0.27878
 C1281 C 0.07980 0.40873 0.26367
 C1282 C 0.09118 0.43092 0.26959
 C1283 C 0.10883 0.44116 0.25418
 C1284 C 0.11496 0.42961 0.23224
 C1285 C 0.10376 0.40730 0.22644
 C1286 C 0.08653 0.39679 0.24212
 C1287 C 0.13054 0.44180 0.21393
 C1288 C 0.14946 0.45796 0.21989
 H1289 H 0.04789 0.41288 0.28807
 H1290 H 0.08601 0.44060 0.28593
 H1291 H 0.11667 0.45871 0.25884
 H1292 H 0.10791 0.39829 0.20945
 H1293 H 0.07761 0.37998 0.23674
 H1294 H 0.12632 0.43858 0.19495
 H1295 H 0.06643 0.36143 0.27435
 H1296 H 0.15574 0.45945 0.23851
   
