data_POSCAR
  _audit_creation_date              2014-09-24
  _audit_creation_method            'ToBaCCo'
  _symmetry_space_group_name_H-M    'P1'
  _symmetry_Int_Tables_number       1
  _symmetry_cell_setting            triclinic
  loop_
  _symmetry_equiv_pos_as_xyz
 x,y,z
_cell_length_a 59.0610
_cell_length_b 59.0586
_cell_length_c 59.0531
_cell_angle_alpha 89.996900
_cell_angle_beta 89.995800
_cell_angle_gamma 90.042300
loop_
  _atom_site_label
  _atom_site_type_symbol
  _atom_site_fract_x
  _atom_site_fract_y
  _atom_site_fract_z
N1 N 0.17152 0.22523 0.23077
 N2 N 0.17790 0.20746 0.24259
 C3 C 0.16340 0.20448 0.25997
 C4 C 0.14725 0.22128 0.25884
 C5 C 0.15279 0.23416 0.24021
 H6 H 0.16447 0.19119 0.27252
 H7 H 0.14388 0.24891 0.23401
 Cu8 Cu 0.20458 0.19008 0.23410
 Cu9 Cu 0.18793 0.23552 0.20409
 Cu10 Cu 0.23508 0.20438 0.18816
 N11 N 0.23083 0.17249 0.22472
 N12 N 0.24269 0.17821 0.20674
 C13 C 0.25984 0.16344 0.20406
 C14 C 0.25858 0.14773 0.22127
 C15 C 0.24007 0.15384 0.23410
 H16 H 0.27230 0.16406 0.19065
 H17 H 0.23387 0.14535 0.24909
 N18 N 0.22468 0.23139 0.17154
 N19 N 0.20671 0.24325 0.17762
 C20 C 0.20399 0.26057 0.16303
 C21 C 0.22102 0.25946 0.14716
 C22 C 0.23385 0.24087 0.15291
 H23 H 0.19066 0.27309 0.16384
 H24 H 0.24873 0.23477 0.14417
 H25 H 0.20083 0.20416 0.19547
 H26 H 0.21914 0.22272 0.21336
 N27 N 0.67178 0.72546 0.73069
 N28 N 0.67800 0.70752 0.74234
 C29 C 0.66352 0.70454 0.75974
 C30 C 0.64753 0.72152 0.75879
 C31 C 0.65317 0.73451 0.74025
 H32 H 0.66447 0.69111 0.77215
 H33 H 0.64440 0.74939 0.73419
 Cu34 Cu 0.70442 0.68992 0.73351
 Cu35 Cu 0.68824 0.73581 0.70404
 Cu36 Cu 0.73537 0.70465 0.68806
 N37 N 0.73090 0.67254 0.72441
 N38 N 0.74291 0.67843 0.70658
 C39 C 0.76016 0.66376 0.70399
 C40 C 0.75879 0.64795 0.72108
 C41 C 0.74013 0.65389 0.73377
 H42 H 0.77273 0.66453 0.69069
 H43 H 0.73382 0.64525 0.74864
 N44 N 0.72501 0.73169 0.67152
 N45 N 0.70705 0.74356 0.67761
 C46 C 0.70437 0.76092 0.66306
 C47 C 0.72142 0.75981 0.64721
 C48 C 0.73422 0.74120 0.65293
 H49 H 0.69106 0.77345 0.66387
 H50 H 0.74909 0.73510 0.64417
 H51 H 0.70109 0.70452 0.69504
 H52 H 0.71933 0.72272 0.71335
 N53 N 0.32767 0.77496 0.73097
 N54 N 0.32130 0.79275 0.74276
 C55 C 0.33577 0.79572 0.76018
 C56 C 0.35191 0.77889 0.75909
 C57 C 0.34637 0.76601 0.74044
 H58 H 0.33474 0.80907 0.77268
 H59 H 0.35529 0.75127 0.73423
 Cu60 Cu 0.29485 0.81028 0.73383
 Cu61 Cu 0.31130 0.76468 0.70420
 Cu62 Cu 0.26413 0.79589 0.68821
 N63 N 0.26839 0.82777 0.72484
 N64 N 0.25651 0.82206 0.70687
 C65 C 0.23936 0.83684 0.70419
 C66 C 0.24066 0.85253 0.72141
 C67 C 0.25918 0.84643 0.73425
 H68 H 0.22693 0.83623 0.69075
 H69 H 0.26543 0.85495 0.74921
 N70 N 0.27457 0.76887 0.67158
 N71 N 0.29253 0.75700 0.67767
 C72 C 0.29520 0.73962 0.66313
 C73 C 0.27815 0.74071 0.64727
 C74 C 0.26536 0.75934 0.65299
 H75 H 0.30849 0.72707 0.66398
 H76 H 0.25046 0.76541 0.64426
 H77 H 0.29842 0.79596 0.69524
 H78 H 0.28014 0.77760 0.71332
 N79 N 0.82899 0.27474 0.23115
 N80 N 0.82275 0.29269 0.24279
 C81 C 0.83722 0.29570 0.26020
 C82 C 0.85319 0.27873 0.25924
 C83 C 0.84761 0.26570 0.24071
 H84 H 0.83622 0.30913 0.27262
 H85 H 0.85637 0.25081 0.23466
 Cu86 Cu 0.79620 0.31013 0.23405
 Cu87 Cu 0.81255 0.26437 0.20450
 Cu88 Cu 0.76542 0.29556 0.18847
 N89 N 0.76989 0.32768 0.22482
 N90 N 0.75788 0.32181 0.20698
 C91 C 0.74067 0.33651 0.20437
 C92 C 0.74204 0.35233 0.22146
 C93 C 0.76068 0.34636 0.23416
 H94 H 0.72810 0.33576 0.19107
 H95 H 0.76697 0.35496 0.24907
 N96 N 0.77578 0.26848 0.17194
 N97 N 0.79373 0.25661 0.17805
 C98 C 0.79643 0.23925 0.16348
 C99 C 0.77942 0.24038 0.14760
 C100 C 0.76661 0.25898 0.15332
 H101 H 0.80975 0.22673 0.16430
 H102 H 0.75175 0.26510 0.14455
 H103 H 0.79968 0.29563 0.19555
 H104 H 0.78139 0.27735 0.21372
 N105 N 0.82834 0.72558 0.26919
 N106 N 0.82210 0.70762 0.25756
 C107 C 0.83654 0.70467 0.24014
 C108 C 0.85254 0.72165 0.24107
 C109 C 0.84695 0.73463 0.25962
 H110 H 0.83558 0.69122 0.22775
 H111 H 0.85581 0.74947 0.26572
 Cu112 Cu 0.79579 0.68992 0.26657
 Cu113 Cu 0.81194 0.73588 0.29588
 Cu114 Cu 0.76481 0.70463 0.31191
 N115 N 0.76923 0.67257 0.27553
 N116 N 0.75723 0.67842 0.29337
 C117 C 0.74000 0.66370 0.29598
 C118 C 0.74136 0.64791 0.27887
 C119 C 0.76001 0.65391 0.26616
 H120 H 0.72750 0.66436 0.30934
 H121 H 0.76633 0.64529 0.25130
 N122 N 0.77521 0.73167 0.32845
 N123 N 0.79316 0.74357 0.32235
 C124 C 0.79582 0.76097 0.33687
 C125 C 0.77877 0.75984 0.35271
 C126 C 0.76599 0.74119 0.34702
 H127 H 0.80910 0.77354 0.33601
 H128 H 0.75110 0.73509 0.35577
 H129 H 0.79918 0.70453 0.30504
 H130 H 0.78092 0.72264 0.28665
 N131 N 0.32866 0.22530 -0.23110
 N132 N 0.32246 0.20731 -0.24273
 C133 C 0.33698 0.20432 -0.26010
 C134 C 0.35295 0.22134 -0.25916
 C135 C 0.34729 0.23438 -0.24065
 H136 H 0.33602 0.19089 -0.27251
 H137 H 0.35603 0.24931 -0.23461
 Cu138 Cu 0.29584 0.18985 -0.23403
 Cu139 Cu 0.31211 0.23569 -0.20447
 Cu140 Cu 0.26489 0.20450 -0.18858
 N141 N 0.26943 0.17229 -0.22486
 N142 N 0.25737 0.17822 -0.20709
 C143 C 0.24007 0.16357 -0.20452
 C144 C 0.24143 0.14772 -0.22157
 C145 C 0.26017 0.15362 -0.23421
 H146 H 0.22744 0.16439 -0.19128
 H147 H 0.26648 0.14498 -0.24907
 N148 N 0.27522 0.23158 -0.17201
 N149 N 0.29319 0.24348 -0.17805
 C150 C 0.29583 0.26084 -0.16346
 C151 C 0.27873 0.25970 -0.14764
 C152 C 0.26596 0.24107 -0.15343
 H153 H 0.30915 0.27338 -0.16423
 H154 H 0.25106 0.23494 -0.14472
 H155 H 0.29915 0.20446 -0.19553
 H156 H 0.28096 0.22270 -0.21381
 N157 N 0.67166 0.27440 -0.23112
 N158 N 0.67805 0.29219 -0.24293
 C159 C 0.66359 0.29514 -0.26037
 C160 C 0.64746 0.27829 -0.25926
 C161 C 0.65295 0.26540 -0.24059
 H162 H 0.66466 0.30848 -0.27287
 H163 H 0.64403 0.25066 -0.23436
 Cu164 Cu 0.70451 0.30975 -0.23400
 Cu165 Cu 0.68806 0.26417 -0.20432
 Cu166 Cu 0.73524 0.29549 -0.18839
 N167 N 0.73097 0.32731 -0.22505
 N168 N 0.74283 0.32163 -0.20707
 C169 C 0.75998 0.33643 -0.20441
 C170 C 0.75871 0.35212 -0.22163
 C171 C 0.74019 0.34596 -0.23446
 H172 H 0.77240 0.33587 -0.19097
 H173 H 0.73396 0.35447 -0.24943
 N174 N 0.72482 0.26850 -0.17172
 N175 N 0.70687 0.25657 -0.17777
 C176 C 0.70425 0.23922 -0.16316
 C177 C 0.72133 0.24041 -0.14733
 C178 C 0.73407 0.25905 -0.15312
 H179 H 0.69098 0.22662 -0.16396
 H180 H 0.74898 0.26519 -0.14443
 H181 H 0.70095 0.29550 -0.19539
 H182 H 0.71923 0.27714 -0.21345
 N183 N 0.17194 0.77501 0.26915
 N184 N 0.17818 0.79298 0.25752
 C185 C 0.16372 0.79593 0.24009
 C186 C 0.14775 0.77891 0.24100
 C187 C 0.15336 0.76593 0.25954
 H188 H 0.16467 0.80939 0.22771
 H189 H 0.14458 0.75103 0.26559
 Cu190 Cu 0.20448 0.81071 0.26655
 Cu191 Cu 0.18830 0.76471 0.29587
 Cu192 Cu 0.23545 0.79592 0.31192
 N193 N 0.23109 0.82802 0.27552
 N194 N 0.24309 0.82213 0.29335
 C195 C 0.26037 0.83681 0.29594
 C196 C 0.25901 0.85261 0.27883
 C197 C 0.24033 0.84668 0.26613
 H198 H 0.27293 0.83604 0.30925
 H199 H 0.23400 0.85531 0.25127
 N200 N 0.22500 0.76886 0.32851
 N201 N 0.20704 0.75699 0.32238
 C202 C 0.20430 0.73962 0.33693
 C203 C 0.22130 0.74072 0.35283
 C204 C 0.23415 0.75934 0.34713
 H205 H 0.19098 0.72708 0.33606
 H206 H 0.24902 0.76543 0.35590
 H207 H 0.20115 0.79597 0.30499
 H208 H 0.21939 0.77786 0.28662
 N209 N 0.47531 0.42130 0.48095
 N210 N 0.45735 0.42748 0.49260
 C211 C 0.45440 0.41298 0.51000
 C212 C 0.47140 0.39702 0.50907
 C213 C 0.48438 0.40269 0.49052
 H214 H 0.44097 0.41392 0.52241
 H215 H 0.49928 0.39395 0.48445
 Cu216 Cu 0.43966 0.45387 0.48376
 Cu217 Cu 0.48558 0.43779 0.45425
 Cu218 Cu 0.45430 0.48485 0.43824
 N219 N 0.42223 0.48030 0.47462
 N220 N 0.42807 0.49233 0.45679
 C221 C 0.41334 0.50953 0.45419
 C222 C 0.39754 0.50811 0.47128
 C223 C 0.40354 0.48948 0.48398
 H224 H 0.41406 0.52210 0.44089
 H225 H 0.39493 0.48315 0.49886
 N226 N 0.48138 0.47455 0.42167
 N227 N 0.49330 0.45663 0.42776
 C228 C 0.51065 0.45399 0.41317
 C229 C 0.50948 0.47103 0.39729
 C230 C 0.49084 0.48377 0.40305
 H231 H 0.52321 0.44071 0.41398
 H232 H 0.48468 0.49863 0.39430
 H233 H 0.47241 0.46891 0.46352
 H234 H 0.45425 0.45061 0.44523
 N235 N -0.02488 -0.07851 0.98062
 N236 N -0.04297 -0.07242 0.99211
 C237 C -0.04599 -0.08690 1.00950
 C238 C -0.02889 -0.10276 1.00871
 C239 C -0.01578 -0.09704 0.99027
 H240 H -0.05951 -0.08603 1.02182
 H241 H -0.00076 -0.10568 0.98437
 Cu242 Cu -0.06048 -0.04600 0.98321
 Cu243 Cu -0.01446 -0.06197 0.95398
 Cu244 Cu -0.04572 -0.01479 0.93807
 N245 N -0.07798 -0.01957 0.97428
 N246 N -0.07200 -0.00738 0.95661
 C247 C -0.08662 0.00993 0.95417
 C248 C -0.10249 0.00840 0.97119
 C249 C -0.09665 -0.01041 0.98369
 H250 H -0.08576 0.02268 0.94105
 H251 H -0.10533 -0.01685 0.99848
 N252 N -0.01861 -0.02508 0.92152
 N253 N -0.00671 -0.04303 0.92756
 C254 C 0.01061 -0.04567 0.91294
 C255 C 0.00944 -0.02861 0.89709
 C256 C -0.00917 -0.01584 0.90290
 H257 H 0.02313 -0.05900 0.91368
 H258 H -0.01535 -0.00099 0.89416
 H259 H -0.02759 -0.03090 0.96331
 H260 H -0.04564 -0.04909 0.94482
 N261 N 1.02493 0.57850 0.98069
 N262 N 1.04285 0.57225 0.99236
 C263 C 1.04584 0.58674 1.00975
 C264 C 1.02892 0.60275 1.00877
 C265 C 1.01592 0.59714 0.99023
 H266 H 1.05924 0.58575 1.02218
 H267 H 1.00105 0.60593 0.98418
 Cu268 Cu 1.06030 0.54570 0.98370
 Cu269 Cu 1.01459 0.56202 0.95404
 Cu270 Cu 1.04581 0.51490 0.93809
 N271 N 1.07786 0.51942 0.97447
 N272 N 1.07203 0.50741 0.95663
 C273 C 1.08676 0.49022 0.95403
 C274 C 1.10254 0.49162 0.97114
 C275 C 1.09653 0.51024 0.98384
 H276 H 1.08604 0.47764 0.94074
 H277 H 1.10511 0.51653 0.99875
 N278 N 1.01875 0.52521 0.92154
 N279 N 1.00686 0.54316 0.92761
 C280 C 0.98953 0.54583 0.91300
 C281 C 0.99070 0.52878 0.89714
 C282 C 1.00931 0.51600 0.90292
 H283 H 0.97700 0.55914 0.91377
 H284 H 1.01546 0.50114 0.89418
 H285 H 1.02757 0.53087 0.96332
 H286 H 1.04591 0.54916 0.94517
 N287 N 0.52489 0.07852 0.48087
 N288 N 0.54287 0.07232 0.49248
 C289 C 0.54590 0.08681 0.50986
 C290 C 0.52891 0.10279 0.50899
 C291 C 0.51586 0.09712 0.49048
 H292 H 0.55936 0.08585 0.52224
 H293 H 0.50090 0.10583 0.48451
 Cu294 Cu 0.56036 0.04580 0.48372
 Cu295 Cu 0.51456 0.06200 0.45420
 Cu296 Cu 0.54584 0.01493 0.43815
 N297 N 0.57794 0.01952 0.47448
 N298 N 0.57209 0.00748 0.45666
 C299 C 0.58683 -0.00970 0.45406
 C300 C 0.60266 -0.00824 0.47112
 C301 C 0.59666 0.01040 0.48381
 H302 H 0.58605 -0.02234 0.44082
 H303 H 0.60528 0.01674 0.49868
 N304 N 0.51874 0.02522 0.42162
 N305 N 0.50682 0.04314 0.42772
 C306 C 0.48949 0.04580 0.41311
 C307 C 0.49068 0.02877 0.39721
 C308 C 0.50931 0.01602 0.40299
 H309 H 0.47694 0.05909 0.41390
 H310 H 0.51549 0.00118 0.39423
 H311 H 0.52765 0.03079 0.46344
 H312 H 0.54588 0.04911 0.44524
 N313 N -0.02509 0.07873 0.51914
 N314 N -0.04303 0.07248 0.50749
 C315 C -0.04605 0.08696 0.49012
 C316 C -0.02911 0.10298 0.49106
 C317 C -0.01608 0.09738 0.50958
 H318 H -0.05947 0.08596 0.47770
 H319 H -0.00119 0.10618 0.51562
 Cu320 Cu -0.06049 0.04593 0.51614
 Cu321 Cu -0.01473 0.06223 0.54577
 Cu322 Cu -0.04601 0.01511 0.56175
 N323 N -0.07808 0.01967 0.52540
 N324 N -0.07226 0.00766 0.54324
 C325 C -0.08704 -0.00952 0.54585
 C326 C -0.10283 -0.00808 0.52876
 C327 C -0.09679 0.01053 0.51606
 H328 H -0.08634 -0.02210 0.55914
 H329 H -0.10536 0.01684 0.50116
 N330 N -0.01890 0.02540 0.57827
 N331 N -0.00698 0.04335 0.57220
 C332 C 0.01036 0.04601 0.58680
 C333 C 0.00917 0.02896 0.60266
 C334 C -0.00946 0.01618 0.59688
 H335 H 0.02291 0.05932 0.58601
 H336 H -0.01563 0.00132 0.60563
 H337 H -0.02779 0.03107 0.53652
 H338 H -0.04608 0.04936 0.55467
 N339 N 0.47534 0.57846 0.01927
 N340 N 0.45737 0.57226 0.00764
 C341 C 0.45441 0.58674 -0.00976
 C342 C 0.47142 0.60271 -0.00884
 C343 C 0.48442 0.59706 0.00969
 H344 H 0.44097 0.58580 -0.02215
 H345 H 0.49933 0.60582 0.01573
 Cu346 Cu 0.43969 0.54588 0.01647
 Cu347 Cu 0.48564 0.56199 0.04594
 Cu348 Cu 0.45433 0.51490 0.06194
 N349 N 0.42225 0.51944 0.02558
 N350 N 0.42810 0.50740 0.04340
 C351 C 0.41336 0.49020 0.04599
 C352 C 0.39754 0.49162 0.02890
 C353 C 0.40356 0.51027 0.01622
 H354 H 0.41407 0.47761 0.05927
 H355 H 0.39494 0.51661 0.00136
 N356 N 0.48141 0.52522 0.07850
 N357 N 0.49334 0.54316 0.07241
 C358 C 0.51070 0.54581 0.08698
 C359 C 0.50953 0.52877 0.10285
 C360 C 0.49088 0.51600 0.09710
 H361 H 0.52327 0.55910 0.08617
 H362 H 0.48472 0.50113 0.10584
 H363 H 0.47246 0.53090 0.03665
 H364 H 0.45431 0.54917 0.05496
 N365 N 0.52488 -0.07842 0.01934
 N366 N 0.54285 -0.07221 0.00771
 C367 C 0.54583 -0.08669 -0.00969
 C368 C 0.52884 -0.10267 -0.00877
 C369 C 0.51583 -0.09704 0.00977
 H370 H 0.55926 -0.08572 -0.02210
 H371 H 0.50092 -0.10581 0.01580
 Cu372 Cu 0.56038 -0.04570 0.01647
 Cu373 Cu 0.51455 -0.06193 0.04602
 Cu374 Cu 0.54589 -0.01486 0.06203
 N375 N 0.57800 -0.01942 0.02568
 N376 N 0.57217 -0.00740 0.04351
 C377 C 0.58695 0.00977 0.04613
 C378 C 0.60276 0.00834 0.02904
 C379 C 0.59671 -0.01028 0.01633
 H380 H 0.58626 0.02234 0.05942
 H381 H 0.60530 -0.01659 0.00144
 N382 N 0.51877 -0.02515 0.07858
 N383 N 0.50683 -0.04308 0.07248
 C384 C 0.48947 -0.04572 0.08707
 C385 C 0.49065 -0.02869 0.10295
 C386 C 0.50931 -0.01594 0.09720
 H387 H 0.47690 -0.05902 0.08627
 H388 H 0.51549 -0.00109 0.10595
 H389 H 0.52766 -0.03079 0.03678
 H390 H 0.54587 -0.04910 0.05497
 N391 N 1.02454 0.42164 0.51894
 N392 N 1.04250 0.42786 0.50731
 C393 C 1.04543 0.41345 0.48986
 C394 C 1.02840 0.39750 0.49075
 C395 C 1.01542 0.40308 0.50931
 H396 H 1.05888 0.41441 0.47747
 H397 H 1.00052 0.39430 0.51534
 Cu398 Cu 1.06033 0.45407 0.51630
 Cu399 Cu 1.01431 0.43803 0.54568
 Cu400 Cu 1.04564 0.48512 0.56165
 N401 N 1.07763 0.48065 0.52522
 N402 N 1.07180 0.49268 0.54304
 C403 C 1.08650 0.50994 0.54557
 C404 C 1.10225 0.50855 0.52843
 C405 C 1.09626 0.48988 0.51579
 H406 H 1.08580 0.52253 0.55886
 H407 H 1.10485 0.48352 0.50091
 N408 N 1.01864 0.47473 0.57827
 N409 N 1.00670 0.45680 0.57220
 C410 C 0.98937 0.45414 0.58681
 C411 C 0.99059 0.47118 0.60268
 C412 C 1.00922 0.48394 0.59690
 H413 H 0.97679 0.44086 0.58601
 H414 H 1.01539 0.49881 0.60563
 H415 H 1.02754 0.46908 0.53633
 H416 H 1.04562 0.45082 0.55474
 Si417 Si 0.37395 -0.00035 0.25018
 Si418 Si 0.12583 -0.00040 0.74963
 Si419 Si 0.62596 0.49981 0.25003
 Si420 Si 0.87434 0.50017 0.74992
 Si421 Si 0.24994 0.37573 -0.00011
 Si422 Si 0.75026 0.12441 0.00017
 Si423 Si 0.25010 0.62418 0.49995
 Si424 Si 0.74993 0.87588 0.49991
 Si425 Si -0.00045 0.25013 0.37459
 Si426 Si 0.00014 0.75004 0.12504
 Si427 Si 0.50018 0.24984 0.62596
 Si428 Si 0.49987 0.75009 0.87473
 C429 C 0.05980 0.24543 0.30439
 C430 C 0.08400 0.25490 0.30792
 C431 C 0.09368 0.23150 0.30197
 C432 C 0.06976 0.22198 0.29821
 C433 C 0.05927 0.23828 0.32940
 C434 C 0.06893 0.21489 0.32345
 C435 C 0.08318 0.24782 0.33317
 C436 C 0.09315 0.22436 0.32698
 C437 C 0.11282 0.22776 0.28664
 C438 C 0.12854 0.22475 0.27399
 C439 C 0.04000 0.24209 0.34450
 C440 C 0.02399 0.24526 0.35671
 H441 H 0.04585 0.25415 0.29530
 H442 H 0.09039 0.27132 0.30136
 H443 H 0.06442 0.21133 0.28366
 H444 H 0.06250 0.19849 0.33003
 H445 H 0.08845 0.25848 0.34772
 H446 H 0.10708 0.21564 0.33610
 C447 C 0.58170 0.72643 0.83622
 C448 C 0.58073 0.71271 0.81387
 C449 C 0.59401 0.73168 0.80199
 C450 C 0.59528 0.74534 0.82410
 C451 C 0.55962 0.73838 0.82947
 C452 C 0.57289 0.75735 0.81759
 C453 C 0.55835 0.72472 0.80737
 C454 C 0.57192 0.74363 0.79525
 C455 C 0.61314 0.72798 0.78664
 C456 C 0.62885 0.72499 0.77396
 C457 C 0.54035 0.74214 0.84461
 C458 C 0.52434 0.74528 0.85684
 H459 H 0.58551 0.71941 0.85323
 H460 H 0.58416 0.69431 0.81216
 H461 H 0.61068 0.75379 0.83079
 H462 H 0.56944 0.77574 0.81930
 H463 H 0.54294 0.71629 0.80067
 H464 H 0.56808 0.75066 0.77825
 C465 C 0.43707 0.75010 0.80638
 C466 C 0.41192 0.74563 0.81234
 C467 C 0.40569 0.76868 0.80202
 C468 C 0.43055 0.77321 0.79582
 C469 C 0.44014 0.76182 0.82940
 C470 C 0.43393 0.78487 0.81908
 C471 C 0.41529 0.75728 0.83561
 C472 C 0.40877 0.78039 0.82505
 C473 C 0.38648 0.77245 0.78676
 C474 C 0.37069 0.77546 0.77417
 C475 C 0.45941 0.75801 0.84454
 C476 C 0.47541 0.75487 0.85679
 H477 H 0.44893 0.73760 0.79888
 H478 H 0.40268 0.72952 0.80939
 H479 H 0.43665 0.77979 0.77929
 H480 H 0.44321 0.80095 0.82203
 H481 H 0.40924 0.75068 0.85214
 H482 H 0.39693 0.79290 0.83256
 C483 C -0.06307 0.25016 0.30630
 C484 C -0.08823 0.24565 0.31217
 C485 C -0.09445 0.26868 0.30179
 C486 C -0.06957 0.27324 0.29568
 C487 C -0.06011 0.26192 0.32931
 C488 C -0.06632 0.28494 0.31892
 C489 C -0.08497 0.25736 0.33543
 C490 C -0.09149 0.28044 0.32480
 C491 C -0.11351 0.27241 0.28638
 C492 C -0.12917 0.27542 0.27365
 C493 C -0.04088 0.25814 0.34446
 C494 C -0.02488 0.25499 0.35669
 H495 H -0.05115 0.23767 0.29889
 H496 H -0.09744 0.22953 0.30922
 H497 H -0.06343 0.27980 0.27917
 H498 H -0.05707 0.30104 0.32189
 H499 H -0.09107 0.25078 0.35195
 H500 H -0.10339 0.29294 0.33224
 C501 C -0.08433 0.73595 0.16262
 C502 C -0.08704 0.71540 0.17872
 C503 C -0.09394 0.73163 0.19783
 C504 C -0.09154 0.75213 0.18198
 C505 C -0.05959 0.73832 0.17028
 C506 C -0.06649 0.75455 0.18940
 C507 C -0.06199 0.71783 0.18613
 C508 C -0.06919 0.73401 0.20548
 C509 C -0.11304 0.72798 0.21322
 C510 C -0.12875 0.72505 0.22591
 C511 C -0.04034 0.74207 0.15513
 C512 C -0.02432 0.74521 0.14291
 H513 H -0.09033 0.73680 0.14483
 H514 H -0.09568 0.69924 0.17450
 H515 H -0.10389 0.76620 0.18045
 H516 H -0.05782 0.77070 0.19359
 H517 H -0.04961 0.70378 0.18764
 H518 H -0.06314 0.73317 0.22326
 C519 C 0.44111 0.24042 0.69691
 C520 C 0.41855 0.25375 0.69625
 C521 C 0.40555 0.23130 0.69837
 C522 C 0.42783 0.21792 0.69925
 C523 C 0.44011 0.23800 0.67102
 C524 C 0.42712 0.21555 0.67312
 C525 C 0.41783 0.25139 0.67013
 C526 C 0.40453 0.22888 0.67248
 C527 C 0.38637 0.22761 0.71374
 C528 C 0.37065 0.22464 0.72645
 C529 C 0.45951 0.24179 0.65597
 C530 C 0.47561 0.24497 0.64382
 H531 H 0.45636 0.24520 0.70681
 H532 H 0.41483 0.26943 0.70592
 H533 H 0.43174 0.20411 0.71138
 H534 H 0.43084 0.19987 0.66345
 H535 H 0.41392 0.26519 0.65798
 H536 H 0.38928 0.22409 0.66259
 C537 C 0.58343 0.27058 0.66352
 C538 C 0.58351 0.28695 0.68404
 C539 C 0.59473 0.26841 0.69844
 C540 C 0.59495 0.25210 0.67816
 C541 C 0.56019 0.26165 0.67108
 C542 C 0.57141 0.24312 0.68549
 C543 C 0.55997 0.27796 0.69136
 C544 C 0.57147 0.25948 0.70599
 C545 C 0.61394 0.27210 0.71376
 C546 C 0.62970 0.27505 0.72641
 C547 C 0.54081 0.25786 0.65602
 C548 C 0.52472 0.25470 0.64386
 H549 H 0.58816 0.27510 0.64590
 H550 H 0.58868 0.30502 0.68361
 H551 H 0.60955 0.24151 0.67291
 H552 H 0.56624 0.22505 0.68592
 H553 H 0.54536 0.28855 0.69662
 H554 H 0.56674 0.25496 0.72361
 C555 C 0.07391 0.78369 0.17119
 C556 C 0.07264 0.78318 0.19739
 C557 C 0.09419 0.76863 0.19786
 C558 C 0.09575 0.76918 0.17189
 C559 C 0.05980 0.76184 0.17039
 C560 C 0.08133 0.74728 0.17085
 C561 C 0.05823 0.76128 0.19635
 C562 C 0.08006 0.74678 0.19705
 C563 C 0.11334 0.77238 0.21318
 C564 C 0.12906 0.77542 0.22583
 C565 C 0.04055 0.75805 0.15523
 C566 C 0.02456 0.75489 0.14297
 H567 H 0.07115 0.79881 0.16038
 H568 H 0.06925 0.79797 0.20848
 H569 H 0.11140 0.77247 0.16201
 H570 H 0.08467 0.73248 0.15976
 H571 H 0.04256 0.75798 0.20621
 H572 H 0.08277 0.73164 0.20786
 C573 C 0.31850 0.06587 0.21564
 C574 C 0.29529 0.06919 0.22738
 C575 C 0.30149 0.09405 0.23194
 C576 C 0.32448 0.09102 0.22014
 C577 C 0.32890 0.05960 0.23864
 C578 C 0.33512 0.08445 0.24321
 C579 C 0.30591 0.06263 0.25044
 C580 C 0.31189 0.08778 0.25495
 C581 C 0.28616 0.11320 0.22819
 C582 C 0.27356 0.12894 0.22506
 C583 C 0.34397 0.04026 0.24238
 C584 C 0.35612 0.02419 0.24547
 H585 H 0.32141 0.05665 0.19952
 H586 H 0.27875 0.06310 0.22084
 H587 H 0.33195 0.10290 0.20763
 H588 H 0.35167 0.09050 0.24975
 H589 H 0.29847 0.05073 0.26295
 H590 H 0.30900 0.09698 0.27108
 C591 C 0.80864 0.56550 0.75337
 C592 C 0.81580 0.59074 0.75323
 C593 C 0.80166 0.59430 0.73168
 C594 C 0.79427 0.56935 0.73178
 C595 C 0.82914 0.55992 0.73837
 C596 C 0.81500 0.56348 0.71683
 C597 C 0.83655 0.58486 0.73828
 C598 C 0.82216 0.58872 0.71667
 C599 C 0.78635 0.61343 0.72795
 C600 C 0.77376 0.62917 0.72485
 C601 C 0.84426 0.54066 0.74211
 C602 C 0.85646 0.52464 0.74521
 H603 H 0.80327 0.55572 0.76851
 H604 H 0.81595 0.60215 0.76816
 H605 H 0.77672 0.56317 0.72906
 H606 H 0.81487 0.55204 0.70191
 H607 H 0.85410 0.59101 0.74099
 H608 H 0.82755 0.59847 0.70153
 C609 C 0.83173 0.42284 0.78055
 C610 C 0.80603 0.42477 0.78547
 C611 C 0.80155 0.40597 0.76805
 C612 C 0.82701 0.40373 0.76319
 C613 C 0.82910 0.44036 0.76151
 C614 C 0.82464 0.42156 0.74409
 C615 C 0.80365 0.44260 0.76637
 C616 C 0.79895 0.42350 0.74901
 C617 C 0.78620 0.38680 0.77166
 C618 C 0.77361 0.37100 0.77467
 C619 C 0.84425 0.45964 0.75779
 C620 C 0.85647 0.47567 0.75468
 H621 H 0.84539 0.42280 0.79346
 H622 H 0.79821 0.42592 0.80253
 H623 H 0.83645 0.38754 0.76192
 H624 H 0.83248 0.42047 0.72704
 H625 H 0.79426 0.45882 0.76764
 H626 H 0.78530 0.42360 0.73609
 C627 C 0.30757 -0.06526 0.24732
 C628 C 0.31457 -0.09053 0.24660
 C629 C 0.30107 -0.09459 0.26847
 C630 C 0.29384 -0.06962 0.26925
 C631 C 0.32856 -0.06015 0.26182
 C632 C 0.31507 -0.06421 0.28369
 C633 C 0.33580 -0.08512 0.26104
 C634 C 0.32206 -0.08948 0.28297
 C635 C 0.28575 -0.11378 0.27218
 C636 C 0.27316 -0.12957 0.27527
 C637 C 0.34373 -0.04086 0.25807
 C638 C 0.35599 -0.02484 0.25495
 H639 H 0.30178 -0.05508 0.23262
 H640 H 0.31419 -0.10155 0.23137
 H641 H 0.27643 -0.06343 0.27266
 H642 H 0.31545 -0.05318 0.29890
 H643 H 0.35322 -0.09128 0.25763
 H644 H 0.32785 -0.09964 0.29768
 C645 C 0.17684 -0.07030 0.71485
 C646 C 0.20219 -0.07084 0.72160
 C647 C 0.19870 -0.09461 0.73162
 C648 C 0.17359 -0.09436 0.72481
 C649 C 0.17115 -0.06022 0.73815
 C650 C 0.16766 -0.08398 0.74817
 C651 C 0.19626 -0.06047 0.74496
 C652 C 0.19301 -0.08452 0.75492
 C653 C 0.21402 -0.11379 0.72797
 C654 C 0.22657 -0.12960 0.72493
 C655 C 0.15598 -0.04094 0.74183
 C656 C 0.14374 -0.02491 0.74491
 H657 H 0.17002 -0.06425 0.69842
 H658 H 0.21655 -0.06562 0.71066
 H659 H 0.16445 -0.10851 0.71647
 H660 H 0.15330 -0.08919 0.75912
 H661 H 0.20540 -0.04631 0.75329
 H662 H 0.19984 -0.09056 0.77135
 C663 C 0.68404 0.42765 0.25757
 C664 C 0.67739 0.40483 0.24646
 C665 C 0.69903 0.40590 0.23206
 C666 C 0.70591 0.42843 0.24312
 C667 C 0.67142 0.44020 0.23860
 C668 C 0.69307 0.44127 0.22421
 C669 C 0.66454 0.41769 0.22755
 C670 C 0.68642 0.41846 0.21310
 C671 C 0.71443 0.38681 0.22836
 C672 C 0.72705 0.37110 0.22525
 C673 C 0.65620 0.45942 0.24227
 C674 C 0.64391 0.47538 0.24532
 H675 H 0.68287 0.43166 0.27590
 H676 H 0.67112 0.38964 0.25559
 H677 H 0.72309 0.43265 0.24949
 H678 H 0.69932 0.45649 0.21510
 H679 H 0.64735 0.41350 0.22119
 H680 H 0.68758 0.41449 0.19476
 C681 C 0.66422 0.58459 0.25963
 C682 C 0.67699 0.58961 0.28200
 C683 C 0.69866 0.59404 0.26830
 C684 C 0.68614 0.58932 0.24599
 C685 C 0.67119 0.55962 0.26162
 C686 C 0.69286 0.56404 0.24792
 C687 C 0.68371 0.56433 0.28392
 C688 C 0.70562 0.56905 0.27028
 C689 C 0.71395 0.61322 0.27204
 C690 C 0.72648 0.62903 0.27514
 C691 C 0.65605 0.54034 0.25788
 C692 C 0.64383 0.52431 0.25478
 H693 H 0.64703 0.59075 0.25522
 H694 H 0.67064 0.60033 0.29607
 H695 H 0.68731 0.59979 0.23043
 H696 H 0.69919 0.55329 0.23386
 H697 H 0.68252 0.55383 0.29947
 H698 H 0.72280 0.56285 0.27469
 C699 C 0.17040 0.08166 0.74742
 C700 C 0.17237 0.09535 0.76972
 C701 C 0.19830 0.09411 0.76787
 C702 C 0.19656 0.08072 0.74562
 C703 C 0.17083 0.05964 0.76125
 C704 C 0.19675 0.05840 0.75940
 C705 C 0.17255 0.07302 0.78350
 C706 C 0.19871 0.07207 0.78170
 C707 C 0.21370 0.11325 0.77156
 C708 C 0.22637 0.12896 0.77465
 C709 C 0.15578 0.04027 0.75751
 C710 C 0.14365 0.02416 0.75439
 H711 H 0.15856 0.08538 0.73330
 H712 H 0.16250 0.11076 0.77400
 H713 H 0.20658 0.08406 0.73007
 H714 H 0.20659 0.04298 0.75512
 H715 H 0.16251 0.06964 0.79902
 H716 H 0.21051 0.06832 0.79583
 C717 C 0.22789 0.30660 0.05741
 C718 C 0.24661 0.29750 0.07336
 C719 C 0.23138 0.30278 0.09377
 C720 C 0.21259 0.31165 0.07812
 C721 C 0.23811 0.33043 0.05953
 C722 C 0.22287 0.33573 0.07992
 C723 C 0.25689 0.32157 0.07517
 C724 C 0.24160 0.32662 0.09588
 C725 C 0.22768 0.28732 0.11282
 C726 C 0.22465 0.27460 0.12848
 C727 C 0.24193 0.34562 0.04033
 C728 C 0.24512 0.35786 0.02434
 H729 H 0.22229 0.29857 0.04136
 H730 H 0.25633 0.28162 0.07084
 H731 H 0.19434 0.30739 0.07952
 H732 H 0.21316 0.35163 0.08238
 H733 H 0.27513 0.32585 0.07372
 H734 H 0.24720 0.33469 0.11191
 C735 C 0.73567 0.83836 0.58430
 C736 C 0.71535 0.82193 0.58679
 C737 C 0.73182 0.80310 0.59389
 C738 C 0.75208 0.81929 0.59171
 C739 C 0.73843 0.83070 0.55961
 C740 C 0.75489 0.81188 0.56670
 C741 C 0.71817 0.81453 0.56178
 C742 C 0.73458 0.79547 0.56918
 C743 C 0.72814 0.78768 0.61293
 C744 C 0.72508 0.77496 0.62858
 C745 C 0.74213 0.84585 0.54038
 C746 C 0.74521 0.85806 0.52437
 H747 H 0.73617 0.85618 0.59026
 H748 H 0.69905 0.82589 0.59525
 H749 H 0.76599 0.82106 0.60423
 H750 H 0.77119 0.80796 0.55820
 H751 H 0.70428 0.81278 0.54923
 H752 H 0.73409 0.77767 0.56316
 C753 C 0.77637 0.80934 0.44127
 C754 C 0.75757 0.79612 0.42864
 C755 C 0.76830 0.80313 0.40600
 C756 C 0.78716 0.81612 0.41834
 C757 C 0.76160 0.83071 0.44027
 C758 C 0.77233 0.83774 0.41765
 C759 C 0.74273 0.81772 0.42794
 C760 C 0.75352 0.82450 0.40500
 C761 C 0.77202 0.78772 0.38696
 C762 C 0.77509 0.77500 0.37133
 C763 C 0.75782 0.84585 0.45948
 C764 C 0.75469 0.85805 0.47548
 H765 H 0.78571 0.80332 0.45643
 H766 H 0.75155 0.77884 0.43296
 H767 H 0.80547 0.81528 0.41420
 H768 H 0.77834 0.85503 0.41338
 H769 H 0.72443 0.81859 0.43213
 H770 H 0.74416 0.83056 0.38987
 C771 C 0.28191 0.31475 -0.06230
 C772 C 0.26589 0.29521 -0.06934
 C773 C 0.26801 0.30282 -0.09414
 C774 C 0.28410 0.32213 -0.08738
 C775 C 0.26129 0.33038 -0.05982
 C776 C 0.26340 0.33800 -0.08459
 C777 C 0.24520 0.31108 -0.06655
 C778 C 0.24737 0.31845 -0.09164
 C779 C 0.27182 0.28746 -0.11325
 C780 C 0.27498 0.27481 -0.12895
 C781 C 0.25761 0.34557 -0.04058
 C782 C 0.25459 0.35783 -0.02458
 H783 H 0.29606 0.31343 -0.05000
 H784 H 0.26693 0.27747 -0.06324
 H785 H 0.30014 0.32651 -0.09614
 H786 H 0.26232 0.35577 -0.09063
 H787 H 0.22916 0.30674 -0.05776
 H788 H 0.23319 0.31979 -0.10390
 C789 C 0.75553 0.17296 -0.07929
 C790 C 0.73539 0.17154 -0.09605
 C791 C 0.73218 0.19727 -0.09389
 C792 C 0.75227 0.19892 -0.07743
 C793 C 0.73892 0.16975 -0.05954
 C794 C 0.73572 0.19547 -0.05738
 C795 C 0.71884 0.16809 -0.07598
 C796 C 0.71558 0.19405 -0.07411
 C797 C 0.72834 0.21263 -0.11299
 C798 C 0.72513 0.22529 -0.12867
 C799 C 0.74259 0.15458 -0.04029
 C800 C 0.74561 0.14233 -0.02428
 H801 H 0.77200 0.16410 -0.08117
 H802 H 0.73523 0.16187 -0.11216
 H803 H 0.76598 0.21177 -0.07822
 H804 H 0.73591 0.20511 -0.04124
 H805 H 0.70515 0.15522 -0.07515
 H806 H 0.69912 0.20289 -0.07217
 C807 C 0.21543 0.67253 0.42811
 C808 C 0.21883 0.69854 0.42885
 C809 C 0.23149 0.69726 0.40615
 C810 C 0.22803 0.67149 0.40510
 C811 C 0.23819 0.66953 0.44034
 C812 C 0.25083 0.66824 0.41765
 C813 C 0.24163 0.69529 0.44138
 C814 C 0.25423 0.69424 0.41840
 C815 C 0.22785 0.71276 0.38712
 C816 C 0.22488 0.72553 0.37149
 C817 C 0.24204 0.65431 0.45952
 C818 C 0.24527 0.64207 0.47550
 H819 H 0.19954 0.66342 0.43232
 H820 H 0.20563 0.71116 0.43326
 H821 H 0.22238 0.66186 0.38998
 H822 H 0.26402 0.65558 0.41329
 H823 H 0.24726 0.70488 0.45654
 H824 H 0.27015 0.70333 0.41423
 C825 C 0.27126 0.66239 0.58271
 C826 C 0.28663 0.68365 0.58227
 C827 C 0.26777 0.69718 0.59402
 C828 C 0.25245 0.67615 0.59476
 C829 C 0.26132 0.66948 0.55975
 C830 C 0.24246 0.68300 0.57149
 C831 C 0.27664 0.69050 0.55901
 C832 C 0.25784 0.70425 0.57104
 C833 C 0.27141 0.71269 0.61305
 C834 C 0.27445 0.72548 0.62866
 C835 C 0.25774 0.65428 0.54049
 C836 C 0.25476 0.64205 0.52446
 H837 H 0.27672 0.64499 0.58727
 H838 H 0.30485 0.68409 0.58689
 H839 H 0.24253 0.67042 0.60967
 H840 H 0.22426 0.68253 0.56682
 H841 H 0.28653 0.69620 0.54408
 H842 H 0.25235 0.72162 0.56643
 C843 C 0.74541 0.17325 0.07935
 C844 C 0.76529 0.17154 0.09638
 C845 C 0.76904 0.19719 0.09413
 C846 C 0.74922 0.19913 0.07739
 C847 C 0.76222 0.16962 0.05984
 C848 C 0.76597 0.19526 0.05759
 C849 C 0.78204 0.16767 0.07656
 C850 C 0.78585 0.19356 0.07461
 C851 C 0.77277 0.21258 0.11321
 C852 C 0.77580 0.22526 0.12890
 C853 C 0.75834 0.15447 0.04063
 C854 C 0.75511 0.14226 0.02463
 H855 H 0.72875 0.16470 0.08107
 H856 H 0.76506 0.16195 0.11255
 H857 H 0.73577 0.21223 0.07792
 H858 H 0.76620 0.20481 0.04140
 H859 H 0.79548 0.15455 0.07597
 H860 H 0.80252 0.20208 0.07285
 C861 C 0.50301 0.31440 0.55919
 C862 C 0.48113 0.31850 0.54531
 C863 C 0.48166 0.34352 0.55242
 C864 C 0.50349 0.33972 0.56606
 C865 C 0.48844 0.30928 0.58013
 C866 C 0.48897 0.33430 0.58724
 C867 C 0.46662 0.31308 0.56649
 C868 C 0.46709 0.33839 0.57336
 C869 C 0.47793 0.36262 0.53698
 C870 C 0.47491 0.37832 0.52427
 C871 C 0.49223 0.29014 0.59548
 C872 C 0.49537 0.27424 0.60788
 H873 H 0.51782 0.30432 0.55352
 H874 H 0.47787 0.31218 0.52791
 H875 H 0.51863 0.35086 0.56571
 H876 H 0.49225 0.34058 0.60465
 H877 H 0.45150 0.30190 0.56683
 H878 H 0.45226 0.34844 0.57903
 C879 C -0.03525 0.81878 0.07316
 C880 C -0.02647 0.84320 0.07701
 C881 C -0.01865 0.84399 0.05221
 C882 C -0.02750 0.81986 0.04812
 C883 C -0.01181 0.80965 0.07971
 C884 C -0.00399 0.81043 0.05491
 C885 C -0.00295 0.83376 0.08381
 C886 C 0.00480 0.83484 0.05877
 C887 C -0.02238 0.86304 0.03677
 C888 C -0.02538 0.87866 0.02400
 C889 C -0.00794 0.79043 0.09487
 C890 C -0.00473 0.77446 0.10712
 H891 H -0.05167 0.81193 0.07926
 H892 H -0.03575 0.85688 0.08594
 H893 H -0.03763 0.81435 0.03328
 H894 H 0.00528 0.79673 0.04600
 H895 H 0.00718 0.83922 0.09867
 H896 H 0.02123 0.84165 0.05268
 C897 C 0.02607 0.66940 0.08563
 C898 C 0.00722 0.65424 0.07543
 C899 C 0.01873 0.65610 0.05217
 C900 C 0.03763 0.67096 0.06212
 C901 C 0.01194 0.69041 0.07972
 C902 C 0.02345 0.69227 0.05646
 C903 C -0.00696 0.67556 0.06977
 C904 C 0.00460 0.67712 0.04627
 C905 C 0.02245 0.63703 0.03675
 C906 C 0.02544 0.62138 0.02401
 C907 C 0.00814 0.70963 0.09489
 C908 C 0.00498 0.72561 0.10714
 H909 H 0.03484 0.66647 0.10199
 H910 H 0.00059 0.63840 0.08307
 H911 H 0.05601 0.66887 0.05881
 H912 H 0.03006 0.70813 0.04884
 H913 H -0.02534 0.67769 0.07309
 H914 H -0.00417 0.68009 0.02992
 C915 C 0.53277 0.17465 0.58107
 C916 C 0.51683 0.15395 0.57847
 C917 C 0.51877 0.15607 0.55260
 C918 C 0.53477 0.17647 0.55497
 C919 C 0.51203 0.19032 0.58030
 C920 C 0.51398 0.19245 0.55443
 C921 C 0.49604 0.16993 0.57793
 C922 C 0.49805 0.17177 0.55183
 C923 C 0.52245 0.13702 0.53710
 C924 C 0.52542 0.12140 0.52429
 C925 C 0.50822 0.20949 0.59560
 C926 C 0.50505 0.22541 0.60796
 H927 H 0.54700 0.17606 0.59327
 H928 H 0.51805 0.13792 0.58820
 H929 H 0.55073 0.17898 0.54537
 H930 H 0.51276 0.20850 0.54472
 H931 H 0.48008 0.16746 0.58754
 H932 H 0.48381 0.17040 0.53964
 C933 C -0.01720 0.16620 0.41224
 C934 C 0.00006 0.15749 0.42997
 C935 C -0.01906 0.15628 0.44757
 C936 C -0.03638 0.16469 0.43008
 C937 C -0.01235 0.19056 0.41996
 C938 C -0.03147 0.18935 0.43755
 C939 C 0.00497 0.18215 0.43744
 C940 C -0.01421 0.18065 0.45527
 C941 C -0.02272 0.13724 0.46304
 C942 C -0.02566 0.12161 0.47581
 C943 C -0.00854 0.20976 0.40476
 C944 C -0.00535 0.22572 0.39250
 H945 H -0.01838 0.16051 0.39436
 H946 H 0.01299 0.14418 0.42702
 H947 H -0.05344 0.15730 0.42723
 H948 H -0.04438 0.20268 0.44048
 H949 H 0.02201 0.18957 0.44029
 H950 H -0.01302 0.18639 0.47313
 C951 C 0.47614 0.69216 0.94317
 C952 C 0.46258 0.67048 0.93731
 C953 C 0.48157 0.65614 0.94781
 C954 C 0.49507 0.67754 0.95390
 C955 C 0.48823 0.69045 0.92020
 C956 C 0.50723 0.67613 0.93069
 C957 C 0.47474 0.66907 0.91410
 C958 C 0.49367 0.65443 0.92483
 C959 C 0.47790 0.63705 0.96323
 C960 C 0.47491 0.62137 0.97596
 C961 C 0.49196 0.70967 0.90497
 C962 C 0.49508 0.72565 0.89268
 H963 H 0.46898 0.70790 0.95052
 H964 H 0.44418 0.66796 0.94020
 H965 H 0.50339 0.68083 0.97043
 H966 H 0.52562 0.67868 0.92780
 H967 H 0.46642 0.66581 0.89755
 H968 H 0.50085 0.63871 0.91747
 C969 C 0.50444 0.81017 0.94514
 C970 C 0.52791 0.82000 0.95152
 C971 C 0.51856 0.84398 0.94778
 C972 C 0.49515 0.83444 0.94163
 C973 C 0.51175 0.80970 0.92017
 C974 C 0.50240 0.83367 0.91643
 C975 C 0.53517 0.81923 0.92632
 C976 C 0.52588 0.84351 0.92281
 C977 C 0.52231 0.86304 0.96323
 C978 C 0.52533 0.87869 0.97599
 C979 C 0.50791 0.79050 0.90495
 C980 C 0.50471 0.77453 0.89267
 H981 H 0.49558 0.79624 0.95414
 H982 H 0.53843 0.81457 0.96611
 H983 H 0.47872 0.84089 0.94810
 H984 H 0.49187 0.83906 0.90183
 H985 H 0.55157 0.81274 0.91984
 H986 H 0.53475 0.85742 0.91380
 C987 C -0.00117 0.33237 0.41857
 C988 C -0.00444 0.33174 0.44460
 C989 C 0.01831 0.34406 0.44745
 C990 C 0.02164 0.34499 0.42166
 C991 C 0.01152 0.30972 0.41993
 C992 C 0.03427 0.32202 0.42278
 C993 C 0.00819 0.30879 0.44571
 C994 C 0.03099 0.32139 0.44880
 C995 C 0.02200 0.36315 0.46284
 C996 C 0.02495 0.37884 0.47555
 C997 C 0.00767 0.29051 0.40475
 C998 C 0.00446 0.27455 0.39249
 H999 H -0.01443 0.33666 0.40596
 H1000 H -0.02031 0.33592 0.45375
 H1001 H 0.02723 0.36008 0.41196
 H1002 H 0.05012 0.31778 0.41362
 H1003 H 0.00262 0.29367 0.45539
 H1004 H 0.04425 0.31706 0.46140
 C1005 C 0.32273 0.56665 0.50749
 C1006 C 0.32168 0.54427 0.49386
 C1007 C 0.34380 0.55090 0.48187
 C1008 C 0.34514 0.57305 0.49545
 C1009 C 0.30951 0.57850 0.48849
 C1010 C 0.33162 0.58513 0.47650
 C1011 C 0.30815 0.55635 0.47491
 C1012 C 0.33057 0.56275 0.46286
 C1013 C 0.36293 0.53557 0.47815
 C1014 C 0.37870 0.52302 0.47505
 C1015 C 0.29037 0.59379 0.49218
 C1016 C 0.27447 0.60617 0.49524
 H1017 H 0.31927 0.56843 0.52588
 H1018 H 0.31779 0.52729 0.50095
 H1019 H 0.36056 0.57975 0.50387
 H1020 H 0.33546 0.60212 0.46941
 H1021 H 0.29272 0.54967 0.46652
 H1022 H 0.33398 0.56096 0.44446
 C1023 C 0.82162 0.07549 -0.03420
 C1024 C 0.84484 0.07712 -0.02210
 C1025 C 0.84408 0.05145 -0.01790
 C1026 C 0.82116 0.04960 -0.03005
 C1027 C 0.80981 0.07905 -0.01130
 C1028 C 0.80905 0.05339 -0.00710
 C1029 C 0.83272 0.08091 0.00086
 C1030 C 0.83226 0.05501 0.00500
 C1031 C 0.86314 0.03606 -0.02167
 C1032 C 0.87881 0.02342 -0.02488
 C1033 C 0.79062 0.09425 -0.00762
 C1034 C 0.77466 0.10651 -0.00455
 H1035 H 0.81700 0.08411 -0.05025
 H1036 H 0.85977 0.08671 -0.02831
 H1037 H 0.81659 0.03655 -0.04279
 H1038 H 0.79408 0.04385 -0.00089
 H1039 H 0.83721 0.09399 0.01360
 H1040 H 0.83682 0.04642 0.02109
 C1041 C 0.66696 0.08231 0.00189
 C1042 C 0.66638 0.05701 -0.00500
 C1043 C 0.65648 0.05118 0.01835
 C1044 C 0.65677 0.07625 0.02529
 C1045 C 0.69078 0.07880 0.01170
 C1046 C 0.68089 0.07297 0.03505
 C1047 C 0.69050 0.05373 0.00476
 C1048 C 0.68031 0.04767 0.02816
 C1049 C 0.63735 0.03583 0.02210
 C1050 C 0.62159 0.02325 0.02523
 C1051 C 0.70994 0.09408 0.00799
 C1052 C 0.72586 0.10643 0.00490
 H1053 H 0.66172 0.09674 -0.00895
 H1054 H 0.66022 0.05026 -0.02143
 H1055 H 0.64269 0.08535 0.03378
 H1056 H 0.68710 0.07972 0.05146
 H1057 H 0.70461 0.04466 -0.00372
 H1058 H 0.68559 0.03325 0.03899
 C1059 C 0.16756 0.58076 0.49918
 C1060 C 0.16792 0.55486 0.49504
 C1061 C 0.15604 0.55133 0.51792
 C1062 C 0.15538 0.57699 0.52212
 C1063 C 0.19044 0.57883 0.51139
 C1064 C 0.17858 0.57531 0.53426
 C1065 C 0.19111 0.55317 0.50719
 C1066 C 0.17894 0.54941 0.53012
 C1067 C 0.13687 0.53602 0.52158
 C1068 C 0.12109 0.52346 0.52465
 C1069 C 0.20968 0.59401 0.50772
 C1070 C 0.22567 0.60627 0.50466
 H1071 H 0.16314 0.59383 0.48643
 H1072 H 0.16335 0.54626 0.47896
 H1073 H 0.14049 0.58663 0.52831
 H1074 H 0.18321 0.58392 0.55031
 H1075 H 0.20604 0.54359 0.50100
 H1076 H 0.18344 0.53636 0.54287
 C1077 C 0.18385 0.43116 -0.03458
 C1078 C 0.15873 0.42547 -0.02959
 C1079 C 0.15608 0.44867 -0.01813
 C1080 C 0.18091 0.45459 -0.02318
 C1081 C 0.19036 0.42109 -0.01150
 C1082 C 0.18773 0.44429 -0.00004
 C1083 C 0.16556 0.41516 -0.00645
 C1084 C 0.16261 0.43860 0.00495
 C1085 C 0.13700 0.46403 -0.02187
 C1086 C 0.12129 0.47665 -0.02502
 C1087 C 0.20956 0.40590 -0.00783
 C1088 C 0.22553 0.39364 -0.00479
 H1089 H 0.19281 0.42790 -0.05077
 H1090 H 0.14659 0.41789 -0.04179
 H1091 H 0.18702 0.47097 -0.03008
 H1092 H 0.19990 0.45182 0.01215
 H1093 H 0.15950 0.39876 0.00047
 H1094 H 0.15369 0.44183 0.02118
 C1095 C 0.68401 0.93144 0.46538
 C1096 C 0.65890 0.92573 0.47038
 C1097 C 0.65625 0.94893 0.48186
 C1098 C 0.68107 0.95487 0.47680
 C1099 C 0.69053 0.92136 0.48845
 C1100 C 0.68791 0.94455 0.49992
 C1101 C 0.66573 0.91542 0.49351
 C1102 C 0.66280 0.93885 0.50493
 C1103 C 0.63715 0.96425 0.47812
 C1104 C 0.62142 0.97682 0.47496
 C1105 C 0.70967 0.90613 0.49213
 C1106 C 0.72558 0.89381 0.49520
 H1107 H 0.69299 0.92819 0.44919
 H1108 H 0.64676 0.91816 0.45818
 H1109 H 0.68719 0.97125 0.46991
 H1110 H 0.70010 0.95207 0.51211
 H1111 H 0.65971 0.89901 0.50042
 H1112 H 0.65389 0.94208 0.52116
 C1113 C 0.82613 0.91949 0.53110
 C1114 C 0.84586 0.92341 0.51426
 C1115 C 0.84357 0.94905 0.51801
 C1116 C 0.82414 0.94537 0.53491
 C1117 C 0.80933 0.92141 0.51135
 C1118 C 0.80703 0.94704 0.51510
 C1119 C 0.82874 0.92509 0.49445
 C1120 C 0.82676 0.95097 0.49826
 C1121 C 0.86265 0.96441 0.52177
 C1122 C 0.87839 0.97700 0.52493
 C1123 C 0.79020 0.90616 0.50766
 C1124 C 0.77428 0.89383 0.50460
 H1125 H 0.82561 0.90636 0.54454
 H1126 H 0.86203 0.91386 0.51394
 H1127 H 0.82244 0.95388 0.55157
 H1128 H 0.79082 0.95654 0.51539
 H1129 H 0.83036 0.91655 0.47778
 H1130 H 0.82720 0.96408 0.48479
 C1131 C 0.32622 0.41933 0.03126
 C1132 C 0.34598 0.42322 0.01444
 C1133 C 0.34377 0.44886 0.01822
 C1134 C 0.32431 0.44521 0.03509
 C1135 C 0.30943 0.42131 0.01150
 C1136 C 0.30722 0.44695 0.01528
 C1137 C 0.32888 0.42496 -0.00538
 C1138 C 0.32697 0.45084 -0.00154
 C1139 C 0.36293 0.46417 0.02198
 C1140 C 0.37871 0.47672 0.02511
 C1141 C 0.29026 0.40606 0.00775
 C1142 C 0.27433 0.39372 0.00463
 H1143 H 0.32567 0.40620 0.04470
 H1144 H 0.36213 0.41363 0.01413
 H1145 H 0.32263 0.45372 0.05177
 H1146 H 0.29105 0.45653 0.01558
 H1147 H 0.33052 0.41646 -0.02206
 H1148 H 0.32748 0.46398 -0.01498
 C1149 C 0.58358 0.49855 0.33327
 C1150 C 0.55812 0.50487 0.33356
 C1151 C 0.55274 0.48157 0.34384
 C1152 C 0.57796 0.47520 0.34384
 C1153 C 0.58043 0.48824 0.30960
 C1154 C 0.57506 0.46495 0.31987
 C1155 C 0.55522 0.49461 0.30959
 C1156 C 0.54960 0.47127 0.32016
 C1157 C 0.53730 0.47783 0.36291
 C1158 C 0.52460 0.47474 0.37860
 C1159 C 0.59569 0.49196 0.29042
 C1160 C 0.60800 0.49506 0.27446
 H1161 H 0.59773 0.50981 0.33842
 H1162 H 0.55098 0.52125 0.33938
 H1163 H 0.58715 0.46717 0.35813
 H1164 H 0.58221 0.44859 0.31400
 H1165 H 0.54606 0.50264 0.29527
 H1166 H 0.53547 0.46002 0.31495
 C1167 C 0.05845 -0.02598 0.80805
 C1168 C 0.06506 -0.03708 0.83088
 C1169 C 0.05242 -0.01811 0.84342
 C1170 C 0.04557 -0.00708 0.82087
 C1171 C 0.08009 -0.01158 0.80913
 C1172 C 0.06745 0.00739 0.82164
 C1173 C 0.08693 -0.02261 0.83166
 C1174 C 0.07406 -0.00369 0.84449
 C1175 C 0.03706 -0.02183 0.86255
 C1176 C 0.02445 -0.02492 0.87831
 C1177 C 0.09542 -0.00800 0.78997
 C1178 C 0.10781 -0.00503 0.77404
 H1179 H 0.05221 -0.03509 0.79283
 H1180 H 0.06389 -0.05541 0.83485
 H1181 H 0.02841 -0.00072 0.81662
 H1182 H 0.06862 0.02572 0.81761
 H1183 H 0.10412 -0.02894 0.83586
 H1184 H 0.08030 0.00546 0.85967
 C1185 C 0.05922 0.02702 0.69118
 C1186 C 0.06612 0.03695 0.66790
 C1187 C 0.05226 0.01830 0.65618
 C1188 C 0.04512 0.00843 0.67918
 C1189 C 0.08000 0.01140 0.69033
 C1190 C 0.06613 -0.00725 0.67864
 C1191 C 0.08714 0.02127 0.66735
 C1192 C 0.07303 0.00267 0.65535
 C1193 C 0.03687 0.02213 0.63711
 C1194 C 0.02423 0.02526 0.62140
 C1195 C 0.09536 0.00755 0.70941
 C1196 C 0.10778 0.00437 0.72527
 H1197 H 0.05372 0.03698 0.70614
 H1198 H 0.06593 0.05517 0.66329
 H1199 H 0.02767 0.00320 0.68385
 H1200 H 0.06631 -0.02546 0.68329
 H1201 H 0.10459 0.02650 0.66272
 H1202 H 0.07854 -0.00732 0.64042
 C1203 C 0.56410 0.53159 0.18855
 C1204 C 0.57146 0.53479 0.16357
 C1205 C 0.55277 0.51822 0.15626
 C1206 C 0.54517 0.51508 0.18095
 C1207 C 0.58046 0.51147 0.19048
 C1208 C 0.56177 0.49491 0.18318
 C1209 C 0.58806 0.51460 0.16580
 C1210 C 0.56913 0.49809 0.15820
 C1211 C 0.53734 0.52198 0.13721
 C1212 C 0.52464 0.52506 0.12154
 C1213 C 0.59572 0.50768 0.20964
 C1214 C 0.60802 0.50455 0.22559
 H1215 H 0.56222 0.54531 0.20126
 H1216 H 0.57527 0.55124 0.15531
 H1217 H 0.52738 0.51532 0.18699
 H1218 H 0.55797 0.47847 0.19147
 H1219 H 0.60588 0.51436 0.15981
 H1220 H 0.57102 0.48435 0.14552
 C1221 C 0.44237 -0.02426 0.19235
 C1222 C 0.43640 -0.03726 0.17035
 C1223 C 0.44744 -0.01821 0.15646
 C1224 C 0.45364 -0.00527 0.17817
 C1225 C 0.41968 -0.01165 0.19068
 C1226 C 0.43072 0.00740 0.17681
 C1227 C 0.41348 -0.02459 0.16899
 C1228 C 0.42475 -0.00559 0.15481
 C1229 C 0.46288 -0.02192 0.13738
 C1230 C 0.47555 -0.02500 0.12168
 C1231 C 0.40434 -0.00802 0.20983
 C1232 C 0.39195 -0.00502 0.22575
 H1233 H 0.44942 -0.03188 0.20801
 H1234 H 0.43891 -0.05566 0.16753
 H1235 H 0.47031 0.00263 0.18177
 H1236 H 0.42820 0.02580 0.17970
 H1237 H 0.39678 -0.03247 0.16545
 H1238 H 0.41767 0.00206 0.13917
 C1239 C 0.94254 0.47600 0.69208
 C1240 C 0.93647 0.46292 0.67017
 C1241 C 0.94751 0.48188 0.65617
 C1242 C 0.95381 0.49490 0.67779
 C1243 C 0.91988 0.48866 0.69042
 C1244 C 0.93092 0.50762 0.67644
 C1245 C 0.91358 0.47564 0.66881
 C1246 C 0.92485 0.49455 0.65452
 C1247 C 0.96287 0.47806 0.63708
 C1248 C 0.97551 0.47491 0.62138
 C1249 C 0.90462 0.49240 0.70957
 C1250 C 0.89229 0.49548 0.72551
 H1251 H 0.94962 0.46844 0.70776
 H1252 H 0.93893 0.44450 0.66740
 H1253 H 0.97052 0.50278 0.68130
 H1254 H 0.92845 0.52604 0.67927
 H1255 H 0.89685 0.46778 0.66536
 H1256 H 0.91775 0.50215 0.63886
 C1257 C 0.91804 0.49964 0.83235
 C1258 C 0.94391 0.49533 0.83193
 C1259 C 0.94764 0.51828 0.84361
 C1260 C 0.92200 0.52265 0.84433
 C1261 C 0.91997 0.51165 0.80936
 C1262 C 0.92371 0.53459 0.82103
 C1263 C 0.94560 0.50727 0.80863
 C1264 C 0.94957 0.53027 0.82060
 C1265 C 0.96301 0.52202 0.86270
 C1266 C 0.97565 0.52510 0.87841
 C1267 C 0.90468 0.50795 0.79022
 C1268 C 0.89233 0.50488 0.77430
 H1269 H 0.90488 0.48701 0.83693
 H1270 H 0.95239 0.47923 0.83660
 H1271 H 0.91247 0.52902 0.85922
 H1272 H 0.91522 0.55067 0.81630
 H1273 H 0.95510 0.50090 0.79371
 H1274 H 0.96272 0.54289 0.81596
 C1275 C 0.43942 0.02838 0.30935
 C1276 C 0.43227 0.03647 0.33326
 C1277 C 0.44752 0.01817 0.34369
 C1278 C 0.45491 0.01014 0.32007
 C1279 C 0.41973 0.01137 0.30955
 C1280 C 0.43498 -0.00693 0.31997
 C1281 C 0.41234 0.01940 0.33316
 C1282 C 0.42782 0.00115 0.34388
 C1283 C 0.46295 0.02196 0.36276
 C1284 C 0.47561 0.02508 0.37847
 C1285 C 0.40437 0.00756 0.29045
 C1286 C 0.39198 0.00441 0.27457
 H1287 H 0.44400 0.03954 0.29492
 H1288 H 0.43134 0.05437 0.33891
 H1289 H 0.47257 0.00636 0.31487
 H1290 H 0.43590 -0.02482 0.31427
 H1291 H 0.39466 0.02317 0.33831
 H1292 H 0.42323 -0.01004 0.35827
   
