data_POSCAR
  _audit_creation_date              2014-09-24
  _audit_creation_method            'ToBaCCo'
  _symmetry_space_group_name_H-M    'P1'
  _symmetry_Int_Tables_number       1
  _symmetry_cell_setting            triclinic
  loop_
  _symmetry_equiv_pos_as_xyz
 x,y,z
_cell_length_a 67.4109
_cell_length_b 67.4457
_cell_length_c 67.4652
_cell_angle_alpha 90.133800
_cell_angle_beta 90.058200
_cell_angle_gamma 90.118900
loop_
  _atom_site_label
  _atom_site_type_symbol
  _atom_site_fract_x
  _atom_site_fract_y
  _atom_site_fract_z
C1 C 0.31402 0.31343 -0.01105
 C2 C 0.31381 0.31371 0.00916
 C3 C 0.30132 0.32794 0.02042
 C4 C 0.32660 0.30032 0.02108
 C5 C 0.32835 0.30103 -0.02227
 C6 C 0.30044 0.32604 -0.02296
 C7 C 0.30299 0.34844 0.01728
 C8 C 0.29120 0.36167 0.02800
 C9 C 0.27766 0.35467 0.04223
 C10 C 0.27627 0.33412 0.04552
 C11 C 0.28805 0.32091 0.03477
 C12 C 0.33939 0.30838 0.03540
 C13 C 0.35194 0.29613 0.04636
 C14 C 0.35189 0.27549 0.04331
 C15 C 0.33872 0.26739 0.02924
 C16 C 0.32613 0.27968 0.01830
 C17 C 0.32145 0.28751 -0.03648
 C18 C 0.33474 0.27561 -0.04699
 C19 C 0.35540 0.27705 -0.04366
 C20 C 0.36219 0.29103 -0.02953
 C21 C 0.34883 0.30291 -0.01909
 C22 C 0.27981 0.32545 -0.02007
 C23 C 0.26735 0.33803 -0.03083
 C24 C 0.27526 0.35130 -0.04484
 C25 C 0.29587 0.35141 -0.04806
 C26 C 0.30830 0.33888 -0.03727
 H27 H 0.31346 0.35418 0.00655
 H28 H 0.29276 0.37739 0.02516
 H29 H 0.26607 0.32820 0.05640
 H30 H 0.28668 0.30515 0.03751
 H31 H 0.33992 0.32426 0.03785
 H32 H 0.36180 0.30290 0.05710
 H33 H 0.31610 0.27312 0.00758
 H34 H 0.30569 0.28599 -0.03925
 H35 H 0.32866 0.26524 -0.05769
 H36 H 0.37785 0.29291 -0.02644
 H37 H 0.35447 0.31358 -0.00846
 H38 H 0.27340 0.31538 -0.00936
 H39 H 0.25154 0.33743 -0.02807
 H40 H 0.30249 0.36135 -0.05877
 H41 H 0.32415 0.33950 -0.03981
 H42 H 0.33819 0.25156 0.02660
 C43 C 0.68751 0.68786 -0.00999
 C44 C 0.68766 0.68733 0.01021
 C45 C 0.69998 0.67285 0.02124
 C46 C 0.67488 0.70062 0.02228
 C47 C 0.67333 0.70048 -0.02110
 C48 C 0.70090 0.67520 -0.02207
 C49 C 0.69807 0.65241 0.01776
 C50 C 0.70978 0.63892 0.02818
 C51 C 0.72350 0.64560 0.04246
 C52 C 0.72511 0.66608 0.04612
 C53 C 0.71340 0.67955 0.03567
 C54 C 0.66195 0.69242 0.03633
 C55 C 0.64926 0.70456 0.04727
 C56 C 0.64930 0.72522 0.04447
 C57 C 0.66265 0.73347 0.03072
 C58 C 0.67539 0.72128 0.01980
 C59 C 0.68043 0.71397 -0.03520
 C60 C 0.66725 0.72575 -0.04595
 C61 C 0.64667 0.72413 -0.04291
 C62 C 0.63960 0.71041 -0.02890
 C63 C 0.65280 0.69863 -0.01818
 C64 C 0.72153 0.67553 -0.01923
 C65 C 0.73381 0.66305 -0.03035
 C66 C 0.72568 0.65016 -0.04466
 C67 C 0.70504 0.65027 -0.04775
 C68 C 0.69281 0.66269 -0.03662
 H69 H 0.68748 0.64692 0.00697
 H70 H 0.70805 0.62326 0.02507
 H71 H 0.73544 0.67175 0.05706
 H72 H 0.71495 0.69527 0.03867
 H73 H 0.66139 0.67652 0.03853
 H74 H 0.63926 0.69769 0.05777
 H75 H 0.68552 0.72794 0.00929
 H76 H 0.69622 0.71547 -0.03777
 H77 H 0.67322 0.73609 -0.05666
 H78 H 0.62385 0.70868 -0.02626
 H79 H 0.64702 0.68798 -0.00766
 H80 H 0.72811 0.68536 -0.00833
 H81 H 0.74964 0.66345 -0.02766
 H82 H 0.69825 0.64061 -0.05867
 H83 H 0.67694 0.66227 -0.03910
 H84 H 0.66319 0.74932 0.02828
 C85 C 0.68822 0.31179 1.01087
 C86 C 0.68859 0.31233 0.99067
 C87 C 0.70107 0.32681 0.97975
 C88 C 0.67591 0.29902 0.97844
 C89 C 0.67391 0.29911 1.02179
 C90 C 0.70154 0.32445 1.02312
 C91 C 0.69924 0.34726 0.98319
 C92 C 0.71094 0.36074 0.97269
 C93 C 0.72456 0.35405 0.95838
 C94 C 0.72615 0.33355 0.95482
 C95 C 0.71445 0.32009 0.96535
 C96 C 0.66316 0.30719 0.96421
 C97 C 0.65065 0.29502 0.95303
 C98 C 0.65069 0.27435 0.95576
 C99 C 0.66384 0.26613 0.96971
 C100 C 0.67640 0.27835 0.98087
 C101 C 0.68084 0.28558 1.03593
 C102 C 0.66753 0.27365 1.04640
 C103 C 0.64699 0.27514 1.04304
 C104 C 0.64008 0.28892 1.02902
 C105 C 0.65341 0.30086 1.01858
 C106 C 0.72219 0.32416 1.02048
 C107 C 0.73442 0.33665 1.03170
 C108 C 0.72627 0.34961 1.04597
 C109 C 0.70555 0.34938 1.04886
 C110 C 0.69339 0.33692 1.03760
 H111 H 0.68868 0.35277 0.99396
 H112 H 0.70923 0.37641 0.97574
 H113 H 0.73641 0.32787 0.94387
 H114 H 0.71594 0.30438 0.96237
 H115 H 0.66262 0.32309 0.96204
 H116 H 0.64080 0.30187 0.94239
 H117 H 0.68641 0.27171 0.99151
 H118 H 0.69660 0.28415 1.03873
 H119 H 0.67338 0.26328 1.05713
 H120 H 0.62437 0.29057 1.02614
 H121 H 0.64774 0.31152 1.00802
 H122 H 0.72881 0.31434 1.00963
 H123 H 0.75026 0.33618 1.02906
 H124 H 0.69859 0.35896 1.05969
 H125 H 0.67750 0.33729 1.03994
 H126 H 0.66436 0.25027 0.97210
 C127 C 0.31269 0.68700 1.01143
 C128 C 0.31293 0.68717 0.99122
 C129 C 0.29940 0.67440 0.97932
 C130 C 0.32722 0.69958 0.97994
 C131 C 0.32548 0.70050 1.02334
 C132 C 0.30017 0.67280 1.02270
 C133 C 0.30734 0.66153 0.96505
 C134 C 0.29497 0.64898 0.95413
 C135 C 0.27433 0.64909 0.95718
 C136 C 0.26635 0.66234 0.97120
 C137 C 0.27877 0.67495 0.98209
 C138 C 0.34774 0.69786 0.98308
 C139 C 0.36104 0.70948 0.97225
 C140 C 0.35409 0.72291 0.95790
 C141 C 0.33353 0.72438 0.95464
 C142 C 0.32025 0.71276 0.96550
 C143 C 0.32505 0.72111 1.02052
 C144 C 0.33766 0.73351 1.03142
 C145 C 0.35087 0.72558 1.04554
 C146 C 0.35080 0.70490 1.04862
 C147 C 0.33822 0.69257 1.03768
 C148 C 0.28690 0.67986 1.03703
 C149 C 0.27511 0.66668 1.04782
 C150 C 0.27646 0.64605 1.04463
 C151 C 0.29005 0.63907 1.03035
 C152 C 0.30183 0.65230 1.01961
 H153 H 0.32321 0.66095 0.96261
 H154 H 0.30164 0.63904 0.94343
 H155 H 0.25052 0.66293 0.97384
 H156 H 0.27231 0.68505 0.99278
 H157 H 0.35344 0.68746 0.99387
 H158 H 0.37676 0.70787 0.97507
 H159 H 0.30448 0.71416 0.96275
 H160 H 0.31503 0.72757 1.00978
 H161 H 0.33706 0.74931 1.02865
 H162 H 0.36058 0.69809 1.05936
 H163 H 0.33870 0.67671 1.04016
 H164 H 0.28554 0.69563 1.03974
 H165 H 0.26496 0.67276 1.05867
 H166 H 0.29172 0.62336 1.02745
 H167 H 0.31231 0.64653 1.00890
 H168 H 0.32764 0.73449 0.94368
 C169 C -0.01072 0.31360 0.31327
 C170 C 0.00951 0.31323 0.31340
 C171 C 0.02072 0.30066 0.32753
 C172 C 0.02151 0.32599 0.30003
 C173 C -0.02188 0.32799 0.30096
 C174 C -0.02268 0.30020 0.32603
 C175 C 0.01780 0.30245 0.34805
 C176 C 0.02857 0.29066 0.36120
 C177 C 0.04264 0.27700 0.35409
 C178 C 0.04568 0.27547 0.33352
 C179 C 0.03488 0.28724 0.32039
 C180 C 0.03602 0.33856 0.30811
 C181 C 0.04714 0.35100 0.29589
 C182 C 0.04407 0.35107 0.27527
 C183 C 0.02978 0.33815 0.26714
 C184 C 0.01867 0.32566 0.27941
 C185 C -0.03626 0.32117 0.28756
 C186 C -0.04683 0.33453 0.27583
 C187 C -0.04335 0.35510 0.27735
 C188 C -0.02907 0.36185 0.29112
 C189 C -0.01856 0.34844 0.30285
 C190 C -0.02007 0.27956 0.32547
 C191 C -0.03090 0.26726 0.33816
 C192 C -0.04475 0.27532 0.35159
 C193 C -0.04766 0.29602 0.35162
 C194 C -0.03679 0.30826 0.33896
 H195 H 0.00722 0.31303 0.35386
 H196 H 0.02592 0.29233 0.37694
 H197 H 0.05644 0.26517 0.32752
 H198 H 0.03745 0.28580 0.30460
 H199 H 0.03850 0.33898 0.32397
 H200 H 0.05805 0.36068 0.30268
 H201 H 0.00780 0.31579 0.27283
 H202 H -0.03914 0.30543 0.28604
 H203 H -0.05769 0.32863 0.26554
 H204 H -0.02597 0.37751 0.29294
 H205 H -0.00780 0.35402 0.31343
 H206 H -0.00951 0.27301 0.31531
 H207 H -0.02826 0.25144 0.33747
 H208 H -0.05820 0.30293 0.36157
 H209 H -0.03911 0.32414 0.33955
 H210 H 0.02711 0.33772 0.25132
 C211 C -0.01000 0.68640 0.68672
 C212 C 0.01023 0.68670 0.68657
 C213 C 0.02147 0.69909 0.67228
 C214 C 0.02213 0.67409 0.70015
 C215 C -0.02126 0.67215 0.69915
 C216 C -0.02193 0.69976 0.67389
 C217 C 0.01834 0.69717 0.65179
 C218 C 0.02884 0.70905 0.63848
 C219 C 0.04285 0.72293 0.64539
 C220 C 0.04621 0.72452 0.66592
 C221 C 0.03567 0.71265 0.67921
 C222 C 0.03649 0.66127 0.69230
 C223 C 0.04728 0.64875 0.70472
 C224 C 0.04403 0.64884 0.72531
 C225 C 0.02997 0.66207 0.73321
 C226 C 0.01920 0.67464 0.72075
 C227 C -0.03561 0.67913 0.71243
 C228 C -0.04632 0.66590 0.72421
 C229 C -0.04302 0.64529 0.72283
 C230 C -0.02876 0.63839 0.70919
 C231 C -0.01809 0.65167 0.69742
 C232 C -0.01918 0.72039 0.67435
 C233 C -0.03010 0.73267 0.66173
 C234 C -0.04418 0.72458 0.64847
 C235 C -0.04716 0.70388 0.64850
 C236 C -0.03620 0.69167 0.66109
 H237 H 0.00773 0.68648 0.64612
 H238 H 0.02597 0.70732 0.62278
 H239 H 0.05694 0.73498 0.67176
 H240 H 0.03840 0.71421 0.69497
 H241 H 0.03905 0.66067 0.67646
 H242 H 0.05804 0.63884 0.69811
 H243 H 0.00845 0.68469 0.72716
 H244 H -0.03836 0.69489 0.71383
 H245 H -0.05717 0.67191 0.73440
 H246 H -0.02579 0.62270 0.70750
 H247 H -0.00736 0.64597 0.68693
 H248 H -0.00849 0.72698 0.68440
 H249 H -0.02739 0.74849 0.66235
 H250 H -0.05785 0.69695 0.63869
 H251 H -0.03862 0.67579 0.66058
 H252 H 0.02718 0.66264 0.74900
 C253 C 1.01026 0.68707 0.31238
 C254 C 0.99004 0.68756 0.31279
 C255 C 0.97909 0.70019 0.32713
 C256 C 0.97781 0.67494 0.29942
 C257 C 1.02123 0.67264 0.29986
 C258 C 1.02247 0.70045 0.32502
 C259 C 0.98236 0.69845 0.34760
 C260 C 0.97188 0.71034 0.36096
 C261 C 0.95777 0.72406 0.35410
 C262 C 0.95435 0.72554 0.33358
 C263 C 0.96486 0.71366 0.32025
 C264 C 0.96331 0.66242 0.30751
 C265 C 0.95204 0.65004 0.29528
 C266 C 0.95495 0.64999 0.27463
 C267 C 0.96919 0.66290 0.26650
 C268 C 0.98044 0.67533 0.27878
 C269 C 1.03563 0.67941 0.28652
 C270 C 1.04620 0.66602 0.27478
 C271 C 1.04271 0.64545 0.27623
 C272 C 1.02834 0.63875 0.28987
 C273 C 1.01782 0.65220 0.30160
 C274 C 1.01995 0.72109 0.32449
 C275 C 1.03104 0.73339 0.33703
 C276 C 1.04507 0.72531 0.35027
 C277 C 1.04787 0.70460 0.35026
 C278 C 1.03673 0.69237 0.33775
 H279 H 0.99299 0.68784 0.35324
 H280 H 0.97481 0.70870 0.37665
 H281 H 0.94355 0.73587 0.32778
 H282 H 0.96201 0.71508 0.30452
 H283 H 0.96097 0.66196 0.32339
 H284 H 0.94117 0.64037 0.30206
 H285 H 0.99130 0.68517 0.27220
 H286 H 1.03859 0.69514 0.28509
 H287 H 1.05712 0.67189 0.26459
 H288 H 1.02521 0.62310 0.29161
 H289 H 1.00704 0.64664 0.31213
 H290 H 1.00927 0.72766 0.31448
 H291 H 1.02848 0.74922 0.33638
 H292 H 1.05853 0.69768 0.36006
 H293 H 1.03899 0.67648 0.33830
 H294 H 0.97173 0.66335 0.25067
 C295 C 1.00985 0.31239 0.68705
 C296 C 0.98962 0.31256 0.68729
 C297 C 0.97768 0.29911 0.67447
 C298 C 0.97836 0.32675 0.69982
 C299 C 1.02176 0.32518 0.70055
 C300 C 1.02112 0.30002 0.67274
 C301 C 0.96329 0.30711 0.66180
 C302 C 0.95230 0.29482 0.64924
 C303 C 0.95539 0.27420 0.64914
 C304 C 0.96953 0.26615 0.66219
 C305 C 0.98050 0.27849 0.67481
 C306 C 0.98142 0.34727 0.69812
 C307 C 0.97068 0.36048 0.70992
 C308 C 0.95651 0.35344 0.72351
 C309 C 0.95330 0.33287 0.72493
 C310 C 0.96407 0.31968 0.71314
 C311 C 1.01901 0.32464 0.72117
 C312 C 1.02987 0.33730 0.73356
 C313 C 1.04383 0.35060 0.72556
 C314 C 1.04687 0.35069 0.70494
 C315 C 1.03599 0.33808 0.69259
 C316 C 1.03556 0.28681 0.67966
 C317 C 1.04643 0.27522 0.66638
 C318 C 1.04321 0.27670 0.64578
 C319 C 1.02881 0.29021 0.63893
 C320 C 1.01799 0.30180 0.65226
 H321 H 0.96082 0.32297 0.66138
 H322 H 0.94150 0.30155 0.63947
 H323 H 0.97220 0.25034 0.66261
 H324 H 0.99128 0.27198 0.68475
 H325 H 0.99210 0.35304 0.68761
 H326 H 0.97346 0.37621 0.70833
 H327 H 0.96139 0.30390 0.71452
 H328 H 1.00835 0.31452 0.72764
 H329 H 1.02724 0.33673 0.74938
 H330 H 1.05754 0.36066 0.69825
 H331 H 1.03841 0.33866 0.67673
 H332 H 1.03830 0.28537 0.69542
 H333 H 1.05736 0.26512 0.67236
 H334 H 1.02589 0.29197 0.62325
 H335 H 1.00720 0.31223 0.64660
 H336 H 0.94246 0.32692 0.73516
 C337 C 0.31239 -0.01050 0.31170
 C338 C 0.31189 0.00971 0.31204
 C339 C 0.32448 0.02183 0.29865
 C340 C 0.29936 0.02077 0.32638
 C341 C 0.29902 -0.02261 0.32434
 C342 C 0.32685 -0.02150 0.29925
 C343 C 0.33711 0.03630 0.30671
 C344 C 0.34953 0.04741 0.29446
 C345 C 0.34951 0.04435 0.27383
 C346 C 0.33648 0.03016 0.26572
 C347 C 0.32401 0.01907 0.27802
 C348 C 0.30121 0.01763 0.34686
 C349 C 0.28955 0.02833 0.36022
 C350 C 0.27593 0.04255 0.35336
 C351 C 0.27430 0.04579 0.33284
 C352 C 0.28596 0.03506 0.31950
 C353 C 0.27837 -0.02001 0.32384
 C354 C 0.26610 -0.03093 0.33648
 C355 C 0.27426 -0.04481 0.34971
 C356 C 0.29491 -0.04775 0.34972
 C357 C 0.30714 -0.03680 0.33713
 C358 C 0.32011 -0.03591 0.28584
 C359 C 0.33353 -0.04639 0.27405
 C360 C 0.35411 -0.04279 0.27554
 C361 C 0.36077 -0.02847 0.28930
 C362 C 0.34729 -0.01804 0.30108
 H363 H 0.33763 0.03872 0.32258
 H364 H 0.35929 0.05825 0.30123
 H365 H 0.33598 0.02752 0.24990
 H366 H 0.31408 0.00823 0.27147
 H367 H 0.31179 0.00696 0.35249
 H368 H 0.29129 0.02552 0.37592
 H369 H 0.28445 0.03781 0.30376
 H370 H 0.27178 -0.00939 0.31379
 H371 H 0.25026 -0.02839 0.33597
 H372 H 0.30172 -0.05835 0.35963
 H373 H 0.32303 -0.03910 0.33767
 H374 H 0.30438 -0.03890 0.28435
 H375 H 0.32769 -0.05729 0.26377
 H376 H 0.37642 -0.02527 0.29109
 H377 H 0.35282 -0.00727 0.31167
 H378 H 0.26403 0.05666 0.32703
 C379 C 0.68615 -0.00991 0.68695
 C380 C 0.68645 0.01031 0.68649
 C381 C 0.67380 0.02238 0.69990
 C382 C 0.69892 0.02136 0.67208
 C383 C 0.69962 -0.02198 0.67438
 C384 C 0.67187 -0.02102 0.69951
 C385 C 0.66096 0.03657 0.69186
 C386 C 0.64839 0.04751 0.70414
 C387 C 0.64849 0.04455 0.72478
 C388 C 0.66177 0.03066 0.73285
 C389 C 0.67437 0.01975 0.72053
 C390 C 0.69718 0.01789 0.65163
 C391 C 0.70904 0.02831 0.63823
 C392 C 0.72275 0.04257 0.64500
 C393 C 0.72418 0.04623 0.66550
 C394 C 0.71232 0.03578 0.67888
 C395 C 0.72026 -0.01919 0.67493
 C396 C 0.73264 -0.03026 0.66252
 C397 C 0.72461 -0.04447 0.64946
 C398 C 0.70396 -0.04754 0.64935
 C399 C 0.69163 -0.03645 0.66172
 C400 C 0.67884 -0.03530 0.71286
 C401 C 0.66559 -0.04605 0.72459
 C402 C 0.64497 -0.04288 0.72313
 C403 C 0.63807 -0.02863 0.70950
 C404 C 0.65137 -0.01792 0.69777
 H405 H 0.66036 0.03889 0.67599
 H406 H 0.63845 0.05812 0.69740
 H407 H 0.66234 0.02811 0.74868
 H408 H 0.68446 0.00913 0.72707
 H409 H 0.68661 0.00712 0.64605
 H410 H 0.70744 0.02520 0.62256
 H411 H 0.71375 0.03877 0.69460
 H412 H 0.72676 -0.00835 0.68488
 H413 H 0.74847 -0.02760 0.66309
 H414 H 0.69725 -0.05840 0.63957
 H415 H 0.67575 -0.03891 0.66114
 H416 H 0.69461 -0.03802 0.71428
 H417 H 0.67162 -0.05687 0.73478
 H418 H 0.62237 -0.02574 0.70775
 H419 H 0.64567 -0.00725 0.68724
 H420 H 0.73449 0.05715 0.67125
 C421 C 0.31218 1.01016 0.68751
 C422 C 0.31228 0.98995 0.68762
 C423 C 0.32646 0.97861 0.70002
 C424 C 0.29882 0.97811 0.67471
 C425 C 0.29980 1.02150 0.67331
 C426 C 0.32508 1.02201 0.70097
 C427 C 0.34699 0.98159 0.69824
 C428 C 0.36020 0.97072 0.70988
 C429 C 0.35313 0.95650 0.72339
 C430 C 0.33255 0.95337 0.72490
 C431 C 0.31936 0.96427 0.71326
 C432 C 0.30684 0.96383 0.66190
 C433 C 0.29455 0.95294 0.64924
 C434 C 0.27392 0.95602 0.64917
 C435 C 0.26586 0.97006 0.66234
 C436 C 0.27819 0.98093 0.67506
 C437 C 0.28651 1.03582 0.68036
 C438 C 0.27488 1.04669 0.66716
 C439 C 0.27644 1.04356 0.64660
 C440 C 0.29000 1.02935 0.63957
 C441 C 0.30164 1.01851 0.65280
 C442 C 0.32468 1.01922 0.72159
 C443 C 0.33732 1.03017 0.73393
 C444 C 0.35046 1.04426 0.72589
 C445 C 0.35045 1.04729 0.70527
 C446 C 0.33787 1.03633 0.69297
 H447 H 0.35277 0.99230 0.68778
 H448 H 0.37594 0.97343 0.70823
 H449 H 0.32658 0.94250 0.73507
 H450 H 0.30357 0.96165 0.71470
 H451 H 0.32270 0.96135 0.66145
 H452 H 0.30129 0.94222 0.63937
 H453 H 0.27166 0.99163 0.68510
 H454 H 0.28504 1.03845 0.69614
 H455 H 0.26467 1.05756 0.67309
 H456 H 0.29169 1.02664 0.62384
 H457 H 0.31213 1.00781 0.64705
 H458 H 0.31465 1.00850 0.72810
 H459 H 0.33683 1.02754 0.74974
 H460 H 0.36030 1.05804 0.69855
 H461 H 0.33835 1.03878 0.67712
 H462 H 0.25003 0.97273 0.66279
 C463 C 0.68752 1.00983 0.31244
 C464 C 0.68808 0.98963 0.31294
 C465 C 0.67558 0.97733 0.29954
 C466 C 0.70070 0.97876 0.32737
 C467 C 0.70087 1.02216 0.32498
 C468 C 0.67308 1.02068 0.29981
 C469 C 0.66290 0.96295 0.30759
 C470 C 0.65049 0.95177 0.29531
 C471 C 0.65058 0.95466 0.27466
 C472 C 0.66369 0.96874 0.26658
 C473 C 0.67615 0.97989 0.27890
 C474 C 0.69900 0.98222 0.34782
 C475 C 0.71084 0.97178 0.36124
 C476 C 0.72447 0.95752 0.35448
 C477 C 0.72593 0.95394 0.33398
 C478 C 0.71410 0.96440 0.32059
 C479 C 0.72152 1.01965 0.32447
 C480 C 0.73380 1.03089 0.33688
 C481 C 0.72569 1.04504 0.34999
 C482 C 0.70496 1.04782 0.34997
 C483 C 0.69275 1.03654 0.33758
 C484 C 0.67986 1.03502 0.28641
 C485 C 0.66646 1.04543 0.27455
 C486 C 0.64595 1.04181 0.27598
 C487 C 0.63918 1.02758 0.28963
 C488 C 0.65261 1.01719 0.30149
 H489 H 0.66232 0.96068 0.32347
 H490 H 0.64066 0.94102 0.30206
 H491 H 0.66426 0.97125 0.25075
 H492 H 0.68612 0.99065 0.27236
 H493 H 0.68844 0.99294 0.35340
 H494 H 0.70922 0.97485 0.37691
 H495 H 0.71551 0.96140 0.30487
 H496 H 0.72811 1.00888 0.31454
 H497 H 0.74965 1.02833 0.33625
 H498 H 0.69803 1.05857 0.35967
 H499 H 0.67685 1.03878 0.33811
 H500 H 0.69559 1.03804 0.28502
 H501 H 0.67220 1.05633 0.26428
 H502 H 0.62350 1.02448 0.29122
 H503 H 0.64704 1.00647 0.31205
 H504 H 0.73619 0.94303 0.32823
 O505 O 0.86933 0.84151 0.48191
 O506 O 0.84221 0.86883 0.52070
 O507 O 0.86951 0.84153 0.52051
 O508 O 0.84192 0.86890 0.48211
 O509 O 0.81875 0.84570 0.48216
 O510 O 0.84628 0.81837 0.52049
 O511 O 0.81904 0.84561 0.52069
 O512 O 0.84610 0.81835 0.48196
 Cu513 Cu 0.85807 0.85753 0.50127
 Cu514 Cu 0.83022 0.82969 0.50130
 C515 C 0.86238 0.82522 0.47544
 C516 C 0.82600 0.86185 0.52728
 C517 C 0.86257 0.82528 0.52702
 C518 C 0.82557 0.86201 0.47570
 O519 O 0.13290 0.16056 0.48076
 O520 O 0.16016 0.13345 0.51944
 O521 O 0.13286 0.16081 0.51928
 O522 O 0.16019 0.13319 0.48092
 O523 O 0.18342 0.15635 0.48088
 O524 O 0.15609 0.18396 0.51923
 O525 O 0.18338 0.15662 0.51939
 O526 O 0.15615 0.18370 0.48072
 Cu527 Cu 0.14419 0.14467 0.50011
 Cu528 Cu 0.17210 0.17248 0.50005
 C529 C 0.13985 0.17680 0.47425
 C530 C 0.17646 0.14038 0.52592
 C531 C 0.13978 0.17713 0.52570
 C532 C 0.17651 0.14002 0.47444
 O533 O 0.15739 0.86979 0.48011
 O534 O 0.12996 0.84184 0.51821
 O535 O 0.15705 0.86957 0.51878
 O536 O 0.13022 0.84226 0.47963
 O537 O 0.15361 0.81936 0.47963
 O538 O 0.18038 0.84661 0.51872
 O539 O 0.15337 0.81895 0.51813
 O540 O 0.18071 0.84683 0.48014
 Cu541 Cu 0.14132 0.85819 0.49920
 Cu542 Cu 0.16937 0.83065 0.49917
 C543 C 0.17371 0.86301 0.47363
 C544 C 0.13698 0.82558 0.52457
 C545 C 0.17330 0.86274 0.52538
 C546 C 0.13736 0.82614 0.47299
 O547 O 0.86913 0.15744 0.51868
 O548 O 0.84218 0.13077 0.47920
 O549 O 0.86963 0.15803 0.48002
 O550 O 0.84149 0.13026 0.51778
 O551 O 0.81850 0.15356 0.51775
 O552 O 0.84657 0.18126 0.48010
 O553 O 0.81918 0.15406 0.47924
 O554 O 0.84608 0.18067 0.51867
 Cu555 Cu 0.85794 0.14179 0.49894
 Cu556 Cu 0.83029 0.16973 0.49896
 C557 C 0.86220 0.17362 0.52536
 C558 C 0.82607 0.13787 0.47254
 C559 C 0.86284 0.17437 0.47363
 C560 C 0.82515 0.13716 0.52411
 O561 O 0.48041 0.86679 0.83965
 O562 O 0.51935 0.83995 0.86682
 O563 O 0.51896 0.86719 0.83942
 O564 O 0.48079 0.83954 0.86704
 O565 O 0.48083 0.81629 0.84392
 O566 O 0.51898 0.84392 0.81631
 O567 O 0.51937 0.81670 0.84369
 O568 O 0.48044 0.84352 0.81654
 Cu569 Cu 0.49987 0.85570 0.85556
 Cu570 Cu 0.49991 0.82777 0.82779
 C571 C 0.47388 0.85977 0.82342
 C572 C 0.52590 0.82370 0.85992
 C573 C 0.52538 0.86031 0.82311
 C574 C 0.47440 0.82316 0.86023
 O575 O 0.51890 0.15760 0.13081
 O576 O 0.47981 0.13040 0.15758
 O577 O 0.48029 0.15773 0.13037
 O578 O 0.51844 0.13020 0.15817
 O579 O 0.51830 0.15339 0.18135
 O580 O 0.48021 0.18087 0.15361
 O581 O 0.47973 0.15360 0.18077
 O582 O 0.51877 0.18074 0.15405
 Cu583 Cu 0.49941 0.14165 0.14190
 Cu584 Cu 0.49927 0.16947 0.16977
 C585 C 0.52538 0.17387 0.13782
 C586 C 0.47312 0.13740 0.17373
 C587 C 0.47377 0.17399 0.13728
 C588 C 0.52477 0.13707 0.17455
 O589 O 0.51906 0.13054 0.84249
 O590 O 0.48118 0.15868 0.87011
 O591 O 0.48038 0.13100 0.84297
 O592 O 0.51980 0.15796 0.86976
 O593 O 0.51989 0.18094 0.84647
 O594 O 0.48052 0.15402 0.81973
 O595 O 0.48135 0.18163 0.84680
 O596 O 0.51912 0.15358 0.81927
 Cu597 Cu 0.50007 0.14222 0.85867
 Cu598 Cu 0.50021 0.16984 0.83073
 C599 C 0.52554 0.13732 0.82618
 C600 C 0.47491 0.17500 0.86317
 C601 C 0.47378 0.13791 0.82676
 C602 C 0.52653 0.17405 0.86267
 O603 O 0.51981 0.86933 0.15770
 O604 O 0.48038 0.84252 0.13076
 O605 O 0.48120 0.86979 0.15829
 O606 O 0.51907 0.84207 0.13029
 O607 O 0.51902 0.81887 0.15336
 O608 O 0.48125 0.84655 0.18131
 O609 O 0.48042 0.81935 0.15384
 O610 O 0.51978 0.84607 0.18071
 Cu611 Cu 0.50009 0.85826 0.14193
 Cu612 Cu 0.50010 0.83037 0.16960
 C613 C 0.52648 0.86225 0.17380
 C614 C 0.47373 0.82634 0.13772
 C615 C 0.47486 0.86292 0.17462
 C616 C 0.52551 0.82576 0.13711
 O617 O 0.86860 0.51954 0.84040
 O618 O 0.84094 0.48177 0.86851
 O619 O 0.86805 0.48101 0.84089
 O620 O 0.84163 0.52037 0.86804
 O621 O 0.81822 0.52033 0.84509
 O622 O 0.84460 0.48100 0.81799
 O623 O 0.81753 0.48177 0.84557
 O624 O 0.84515 0.51948 0.81749
 Cu625 Cu 0.85715 0.50066 0.85678
 Cu626 Cu 0.82901 0.50063 0.82925
 C627 C 0.86161 0.52587 0.82411
 C628 C 0.82448 0.47541 0.86185
 C629 C 0.86089 0.47442 0.82475
 C630 C 0.82542 0.52703 0.86118
 O631 O 0.15978 0.48088 0.13207
 O632 O 0.13184 0.51874 0.15985
 O633 O 0.15943 0.51941 0.13268
 O634 O 0.13216 0.48013 0.15911
 O635 O 0.15518 0.48005 0.18244
 O636 O 0.18241 0.51931 0.15605
 O637 O 0.15486 0.51862 0.18319
 O638 O 0.18276 0.48081 0.15544
 Cu639 Cu 0.14348 0.49982 0.14359
 Cu640 Cu 0.17110 0.49970 0.17164
 C641 C 0.17607 0.47448 0.13900
 C642 C 0.13857 0.52505 0.17629
 C643 C 0.17563 0.52593 0.13980
 C644 C 0.13903 0.47344 0.17530
 O645 O 0.86900 0.48103 0.15949
 O646 O 0.84087 0.51814 0.13104
 O647 O 0.86824 0.51960 0.15836
 O648 O 0.84183 0.47956 0.13198
 O649 O 0.81861 0.47968 0.15507
 O650 O 0.84498 0.51969 0.18141
 O651 O 0.81766 0.51820 0.15414
 O652 O 0.84573 0.48118 0.18254
 Cu653 Cu 0.85732 0.49957 0.14289
 Cu654 Cu 0.82941 0.49970 0.17060
 C655 C 0.86216 0.47485 0.17589
 C656 C 0.82445 0.52444 0.13775
 C657 C 0.86113 0.52641 0.17440
 C658 C 0.82570 0.47285 0.13902
 O659 O 0.15638 0.51950 0.87098
 O660 O 0.12914 0.48071 0.84353
 O661 O 0.15657 0.48083 0.87084
 O662 O 0.12905 0.51938 0.84356
 O663 O 0.15226 0.51945 0.82047
 O664 O 0.17969 0.48102 0.84765
 O665 O 0.15234 0.48088 0.82042
 O666 O 0.17951 0.51959 0.84781
 Cu667 Cu 0.14045 0.50009 0.85956
 Cu668 Cu 0.16827 0.50025 0.83177
 C669 C 0.17260 0.52612 0.86406
 C670 C 0.13612 0.47422 0.82729
 C671 C 0.17284 0.47439 0.86387
 C672 C 0.13599 0.52595 0.82735
 N673 N 0.25528 0.40116 0.06086
 C674 C 0.24237 0.39435 0.07465
 N675 N 0.24097 0.37456 0.07782
 N676 N 0.25215 0.36197 0.06750
 C677 C 0.26515 0.36869 0.05365
 N678 N 0.26646 0.38856 0.05054
 C679 C 0.23048 0.40794 0.08588
 C680 C 0.22060 0.41942 0.09536
 C681 C 0.20900 0.43321 0.10666
 N682 N 0.19143 0.43994 0.09959
 N683 N 0.18084 0.45299 0.10997
 C684 C 0.18747 0.45975 0.12777
 N685 N 0.20506 0.45295 0.13482
 N686 N 0.21565 0.43990 0.12444
 N687 N 0.74558 0.59864 0.06004
 C688 C 0.75867 0.60514 0.07387
 N689 N 0.76030 0.62486 0.07740
 N690 N 0.74915 0.63770 0.06740
 C691 C 0.73597 0.63130 0.05351
 N692 N 0.73444 0.61149 0.05004
 C693 C 0.77047 0.59128 0.08482
 C694 C 0.78025 0.57961 0.09412
 C695 C 0.79169 0.56566 0.10532
 N696 N 0.80931 0.55895 0.09835
 N697 N 0.81982 0.54586 0.10872
 C698 C 0.81305 0.53905 0.12640
 N699 N 0.79541 0.54582 0.13334
 N700 N 0.78491 0.55891 0.12297
 N701 N 0.74639 0.40100 0.94024
 C702 C 0.75934 0.39447 0.92635
 N703 N 0.76097 0.37473 0.92297
 N704 N 0.74996 0.36190 0.93318
 C705 C 0.73692 0.36834 0.94713
 N706 N 0.73538 0.38816 0.95045
 C707 C 0.77101 0.40831 0.91518
 C708 C 0.78069 0.41996 0.90572
 C709 C 0.79206 0.43392 0.89440
 N710 N 0.80977 0.44065 0.90121
 N711 N 0.82019 0.45380 0.89078
 C712 C 0.81323 0.46064 0.87318
 N713 N 0.79550 0.45384 0.86639
 N714 N 0.78509 0.44070 0.87682
 N715 N 0.25763 0.60989 0.92254
 C716 C 0.23781 0.60949 0.92578
 N717 N 0.22986 0.62217 0.93921
 N718 N 0.24141 0.63484 0.94911
 C719 C 0.26133 0.63528 0.94596
 N720 N 0.26917 0.62255 0.93244
 C721 C 0.22553 0.59562 0.91524
 C722 C 0.21564 0.58372 0.90622
 C723 C 0.20434 0.56932 0.89530
 N724 N 0.18695 0.56225 0.90254
 N725 N 0.17675 0.54854 0.89254
 C726 C 0.18362 0.54143 0.87498
 N727 N 0.20101 0.54858 0.86778
 N728 N 0.21121 0.56228 0.87777
 N729 N 0.06177 0.25497 0.40046
 C730 C 0.07544 0.24198 0.39355
 N731 N 0.07835 0.24040 0.37375
 N732 N 0.06790 0.25149 0.36122
 C733 C 0.05417 0.26457 0.36803
 N734 N 0.05132 0.26605 0.38792
 C735 C 0.08681 0.23021 0.40707
 C736 C 0.09637 0.22044 0.41855
 C737 C 0.10771 0.20901 0.43239
 N738 N 0.12539 0.21586 0.43916
 N739 N 0.13573 0.20548 0.45237
 C740 C 0.12874 0.18791 0.45925
 N741 N 0.11105 0.18106 0.45240
 N742 N 0.10070 0.19145 0.43919
 N743 N 0.07749 0.76041 0.62521
 C744 C 0.07418 0.75885 0.60545
 N745 N 0.06063 0.74555 0.59875
 N746 N 0.05068 0.73417 0.61144
 C747 C 0.05391 0.73564 0.63128
 N748 N 0.06752 0.74902 0.63789
 C749 C 0.08507 0.77093 0.59176
 C750 C 0.09427 0.78092 0.58016
 C751 C 0.10531 0.79256 0.56623
 N752 N 0.09805 0.81005 0.55953
 N753 N 0.10820 0.82068 0.54634
 C754 C 0.12595 0.81416 0.53941
 N755 N 0.13318 0.79666 0.54618
 N756 N 0.12303 0.78604 0.55937
 N757 N 0.92265 0.76099 0.37439
 C758 C 0.92591 0.75947 0.39415
 N759 N 0.93962 0.74641 0.40082
 N760 N 0.94977 0.73520 0.38810
 C761 C 0.94657 0.73663 0.36826
 N762 N 0.93280 0.74978 0.36168
 C763 C 0.91481 0.77136 0.40788
 C764 C 0.90545 0.78120 0.41949
 C765 C 0.89425 0.79271 0.43345
 N766 N 0.87661 0.78593 0.44030
 N767 N 0.86636 0.79639 0.45356
 C768 C 0.87343 0.81400 0.46041
 N769 N 0.89109 0.82077 0.45348
 N770 N 0.90133 0.81030 0.44022
 N771 N 0.92042 0.25777 0.61014
 C772 C 0.92371 0.23798 0.60950
 N773 N 0.93728 0.22995 0.62195
 N774 N 0.94727 0.24141 0.63464
 C775 C 0.94406 0.26131 0.63533
 N776 N 0.93040 0.26921 0.62281
 C777 C 0.91312 0.22582 0.59557
 C778 C 0.90408 0.21603 0.58360
 C779 C 0.89318 0.20485 0.56909
 N780 N 0.90038 0.18748 0.56197
 N781 N 0.89044 0.17743 0.54811
 C782 C 0.87299 0.18443 0.54090
 N783 N 0.86582 0.20181 0.54809
 N784 N 0.87576 0.21186 0.56195
 N785 N 0.37654 0.06247 0.22968
 C786 C 0.38899 0.07608 0.23776
 N787 N 0.38839 0.07942 0.25755
 N788 N 0.37575 0.06943 0.26895
 C789 C 0.36324 0.05573 0.26099
 N790 N 0.36388 0.05248 0.24110
 C791 C 0.40292 0.08663 0.22566
 C792 C 0.41490 0.09563 0.21592
 C793 C 0.42943 0.10648 0.20482
 N794 N 0.43659 0.09919 0.18751
 N795 N 0.45045 0.10910 0.17751
 C796 C 0.45763 0.12660 0.18452
 N797 N 0.45040 0.13385 0.20185
 N798 N 0.43654 0.12395 0.21184
 N799 N 0.62136 0.06237 0.76905
 C800 C 0.60860 0.07563 0.76102
 N801 N 0.60902 0.07883 0.74121
 N802 N 0.62177 0.06905 0.72975
 C803 C 0.63460 0.05570 0.73767
 N804 N 0.63413 0.05258 0.75757
 C805 C 0.59465 0.08607 0.77321
 C806 C 0.58272 0.09501 0.78306
 C807 C 0.56832 0.10589 0.79432
 N808 N 0.56126 0.12336 0.78742
 N809 N 0.54766 0.13339 0.79763
 C810 C 0.54063 0.12627 0.81507
 N811 N 0.54774 0.10875 0.82197
 N812 N 0.56136 0.09872 0.81175
 N813 N 0.39962 0.93740 0.74530
 C814 C 0.39276 0.92361 0.75817
 N815 N 0.37294 0.92060 0.75970
 N816 N 0.36036 0.93106 0.74868
 C817 C 0.36713 0.94492 0.73571
 N818 N 0.38703 0.94786 0.73427
 C819 C 0.40633 0.91228 0.76993
 C820 C 0.41786 0.90278 0.77969
 C821 C 0.43177 0.89153 0.79115
 N822 N 0.43857 0.89860 0.80872
 N823 N 0.45186 0.88836 0.81913
 C824 C 0.45878 0.87074 0.81229
 N825 N 0.45190 0.86368 0.79471
 N826 N 0.43861 0.87391 0.78431
 N827 N 0.62355 0.93643 0.23041
 C828 C 0.61095 0.92299 0.23845
 N829 N 0.61147 0.91978 0.25825
 N830 N 0.62416 0.92973 0.26970
 C831 C 0.63681 0.94328 0.26177
 N832 N 0.63626 0.94640 0.24187
 C833 C 0.59696 0.91249 0.22629
 C834 C 0.58493 0.90357 0.21647
 C835 C 0.57035 0.89283 0.20524
 N836 N 0.56323 0.90022 0.18797
 N837 N 0.54931 0.89041 0.17785
 C838 C 0.54205 0.87293 0.18470
 N839 N 0.54924 0.86557 0.20199
 N840 N 0.56315 0.87537 0.21209
 N841 N 0.37448 0.24052 0.92274
 C842 C 0.39424 0.24206 0.92606
 N843 N 0.40093 0.25537 0.93958
 N844 N 0.38823 0.26680 0.94949
 C845 C 0.36832 0.26540 0.94628
 N846 N 0.36179 0.25195 0.93265
 C847 C 0.40795 0.22994 0.91521
 C848 C 0.41954 0.21992 0.90602
 C849 C 0.43344 0.20822 0.89497
 N850 N 0.44005 0.19067 0.90217
 N851 N 0.45319 0.17999 0.89198
 C852 C 0.46014 0.18651 0.87426
 N853 N 0.45346 0.20407 0.86709
 N854 N 0.44033 0.21474 0.87727
 N855 N 0.60018 0.74599 0.93797
 C856 C 0.60704 0.75902 0.92433
 N857 N 0.62686 0.76070 0.92144
 N858 N 0.63944 0.74966 0.93189
 C859 C 0.63267 0.73653 0.94559
 N860 N 0.61277 0.73495 0.94841
 C861 C 0.59346 0.77073 0.91295
 C862 C 0.58192 0.78042 0.90338
 C863 C 0.56801 0.79176 0.89203
 N864 N 0.56118 0.80935 0.89898
 N865 N 0.54789 0.81965 0.88864
 C866 C 0.54100 0.81269 0.87101
 N867 N 0.54791 0.79510 0.86408
 N868 N 0.56120 0.78481 0.87442
 N869 N 0.37706 0.76941 0.06311
 C870 C 0.38978 0.76145 0.07646
 N871 N 0.38944 0.74164 0.07961
 N872 N 0.37680 0.73010 0.06970
 C873 C 0.36399 0.73790 0.05622
 N874 N 0.36440 0.75785 0.05318
 C875 C 0.40367 0.77372 0.08698
 C876 C 0.41560 0.78360 0.09597
 C877 C 0.43008 0.79487 0.10683
 N878 N 0.43716 0.81223 0.09957
 N879 N 0.45099 0.82237 0.10948
 C880 C 0.45821 0.81545 0.12695
 N881 N 0.45106 0.79808 0.13417
 N882 N 0.43724 0.78796 0.12427
 N883 N 0.60029 0.25271 0.06115
 C884 C 0.60699 0.23959 0.07478
 N885 N 0.62677 0.23806 0.07799
 N886 N 0.63947 0.24931 0.06788
 C887 C 0.63286 0.26252 0.05420
 N888 N 0.61299 0.26396 0.05104
 C889 C 0.59328 0.22767 0.08583
 C890 C 0.58165 0.21781 0.09515
 C891 C 0.56765 0.20630 0.10627
 N892 N 0.56088 0.18873 0.09913
 N893 N 0.54753 0.17827 0.10928
 C894 C 0.54052 0.18505 0.12690
 N895 N 0.54737 0.20263 0.13402
 N896 N 0.56071 0.21307 0.12387
 N897 N 0.24006 0.07938 0.62671
 C898 C 0.24164 0.07635 0.60692
 N899 N 0.25456 0.06257 0.60010
 N900 N 0.26559 0.05214 0.61270
 C901 C 0.26411 0.05511 0.63258
 N902 N 0.25110 0.06894 0.63931
 C903 C 0.22990 0.08768 0.59333
 C904 C 0.22015 0.09718 0.58179
 C905 C 0.20873 0.10845 0.56789
 N906 N 0.19110 0.10146 0.56112
 N907 N 0.18071 0.11174 0.54786
 C908 C 0.18760 0.12934 0.54095
 N909 N 0.20523 0.13633 0.54780
 N910 N 0.21562 0.12605 0.56106
 N911 N 0.74140 0.07960 0.38826
 C912 C 0.76126 0.07666 0.38858
 N913 N 0.76936 0.06332 0.37592
 N914 N 0.75790 0.05319 0.36334
 C915 C 0.73791 0.05599 0.36297
 N916 N 0.72996 0.06947 0.37570
 C917 C 0.77342 0.08732 0.40244
 C918 C 0.78326 0.09635 0.41436
 C919 C 0.79454 0.10718 0.42883
 N920 N 0.81185 0.09983 0.43592
 N921 N 0.82200 0.10968 0.44977
 C922 C 0.81516 0.12719 0.45700
 N923 N 0.79783 0.13451 0.44983
 N924 N 0.78769 0.12467 0.43599
 N925 N 0.76900 0.93728 0.62284
 C926 C 0.76100 0.92367 0.61034
 N927 N 0.74118 0.92038 0.61077
 N928 N 0.72968 0.93042 0.62328
 C929 C 0.73756 0.94412 0.63584
 N930 N 0.75748 0.94733 0.63536
 C931 C 0.77323 0.91303 0.59658
 C932 C 0.78310 0.90396 0.58476
 C933 C 0.79437 0.89302 0.57043
 N934 N 0.78746 0.87549 0.56337
 N935 N 0.79763 0.86550 0.54969
 C936 C 0.81504 0.87273 0.54260
 N937 N 0.82195 0.89029 0.54973
 N938 N 0.81177 0.90028 0.56341
 N939 N 0.23013 0.93745 0.37711
 C940 C 0.23825 0.92420 0.38983
 N941 N 0.25806 0.92098 0.38927
 N942 N 0.26944 0.93073 0.37644
 C943 C 0.26144 0.94406 0.36367
 N944 N 0.24153 0.94720 0.36426
 C945 C 0.22614 0.91384 0.40389
 C946 C 0.21638 0.90496 0.41593
 C947 C 0.20525 0.89418 0.43047
 N948 N 0.21226 0.87679 0.43764
 N949 N 0.20216 0.86686 0.45137
 C950 C 0.18471 0.87398 0.45842
 N951 N 0.17770 0.89140 0.45120
 N952 N 0.18781 0.90134 0.43745
 N953 N 0.07826 0.39003 0.74217
 C954 C 0.07501 0.39045 0.76198
 N955 N 0.06166 0.37772 0.76995
 N956 N 0.05182 0.36496 0.75842
 C957 C 0.05499 0.36449 0.73852
 N958 N 0.06844 0.37729 0.73067
 C959 C 0.08546 0.40442 0.77423
 C960 C 0.09439 0.41639 0.78411
 C961 C 0.10519 0.43088 0.79543
 N962 N 0.09789 0.43783 0.81282
 N963 N 0.10779 0.45160 0.82306
 C964 C 0.12529 0.45887 0.81622
 N965 N 0.13255 0.45184 0.79880
 N966 N 0.12266 0.43809 0.78858
 N967 N 0.06035 0.59927 0.25481
 C968 C 0.07422 0.60585 0.24187
 N969 N 0.07757 0.62559 0.24030
 N970 N 0.06735 0.63838 0.25137
 C971 C 0.05341 0.63192 0.26444
 N972 N 0.05014 0.61206 0.26588
 C973 C 0.08539 0.59206 0.23012
 C974 C 0.09483 0.58043 0.22037
 C975 C 0.10614 0.56651 0.20892
 N976 N 0.12374 0.55968 0.21581
 N977 N 0.13414 0.54656 0.20533
 C978 C 0.12729 0.53982 0.18761
 N979 N 0.10966 0.54672 0.18073
 N980 N 0.09926 0.55985 0.19121
 N981 N 0.93940 0.40120 0.25567
 C982 C 0.92569 0.39459 0.24253
 N983 N 0.92228 0.37485 0.24095
 N984 N 0.93230 0.36210 0.25219
 C985 C 0.94610 0.36858 0.26545
 N986 N 0.94942 0.38844 0.26691
 C987 C 0.91475 0.40833 0.23059
 C988 C 0.90548 0.41993 0.22069
 C989 C 0.89434 0.43379 0.20909
 N990 N 0.90143 0.44036 0.19148
 N991 N 0.89113 0.45340 0.18082
 C992 C 0.87341 0.46028 0.18743
 N993 N 0.86635 0.45365 0.20507
 N994 N 0.87665 0.44062 0.21571
 N995 N 0.93914 0.59942 0.74462
 C996 C 0.92541 0.60618 0.75762
 N997 N 0.92220 0.62595 0.75907
 N998 N 0.93241 0.63858 0.74785
 C999 C 0.94622 0.63194 0.73473
 N1000 N 0.94935 0.61205 0.73340
 C1001 C 0.91429 0.59255 0.76955
 C1002 C 0.90490 0.58103 0.77946
 C1003 C 0.89370 0.56720 0.79107
 N1004 N 0.87592 0.56043 0.78449
 N1005 N 0.86563 0.54735 0.79511
 C1006 C 0.87277 0.54060 0.81267
 N1007 N 0.89057 0.54744 0.81924
 N1008 N 0.90086 0.56053 0.80862
 N1009 N 0.74187 0.61157 0.91991
 C1010 C 0.76168 0.61089 0.92323
 N1011 N 0.76979 0.62318 0.93696
 N1012 N 0.75840 0.63576 0.94709
 C1013 C 0.73850 0.63649 0.94386
 N1014 N 0.73050 0.62413 0.93004
 C1015 C 0.77375 0.59704 0.91251
 C1016 C 0.78345 0.58514 0.90338
 C1017 C 0.79452 0.57068 0.89238
 N1018 N 0.81194 0.56359 0.89947
 N1019 N 0.82189 0.54976 0.88945
 C1020 C 0.81472 0.54256 0.87204
 N1021 N 0.79729 0.54972 0.86497
 N1022 N 0.78736 0.56355 0.87498
 N1023 N 0.25839 0.39067 0.92103
 C1024 C 0.23860 0.39107 0.92447
 N1025 N 0.23072 0.37833 0.93786
 N1026 N 0.24232 0.36561 0.94753
 C1027 C 0.26221 0.36516 0.94416
 N1028 N 0.26997 0.37796 0.93069
 C1029 C 0.22626 0.40501 0.91418
 C1030 C 0.21630 0.41693 0.90537
 C1031 C 0.20492 0.43135 0.89466
 N1032 N 0.18751 0.43822 0.90201
 N1033 N 0.17720 0.45189 0.89217
 C1034 C 0.18398 0.45915 0.87466
 N1035 N 0.20140 0.45221 0.86735
 N1036 N 0.21169 0.43855 0.87718
 N1037 N 0.24031 0.62689 0.07965
 C1038 C 0.24174 0.60709 0.07654
 N1039 N 0.25469 0.60025 0.06280
 N1040 N 0.26588 0.61284 0.05248
 C1041 C 0.26457 0.63275 0.05550
 N1042 N 0.25150 0.63946 0.06932
 C1043 C 0.22980 0.59351 0.08775
 C1044 C 0.21990 0.58198 0.09716
 C1045 C 0.20828 0.56808 0.10832
 N1046 N 0.21496 0.56120 0.12597
 N1047 N 0.20444 0.54792 0.13611
 C1048 C 0.18687 0.54107 0.12894
 N1049 N 0.18019 0.54804 0.11128
 N1050 N 0.19072 0.56132 0.10114
 N1051 N 0.76979 0.37583 0.06423
 C1052 C 0.76163 0.38832 0.07770
 N1053 N 0.74178 0.38780 0.08071
 N1054 N 0.73041 0.37521 0.07054
 C1055 C 0.73842 0.36264 0.05694
 N1056 N 0.75840 0.36323 0.05406
 C1057 C 0.77371 0.40224 0.08842
 C1058 C 0.78346 0.41421 0.09749
 C1059 C 0.79462 0.42876 0.10836
 N1060 N 0.78759 0.43599 0.12574
 N1061 N 0.79759 0.44994 0.13559
 C1062 C 0.81496 0.45714 0.12838
 N1063 N 0.82200 0.44983 0.11098
 N1064 N 0.81199 0.43588 0.10113
 N1065 N 0.93802 0.76822 0.62244
 C1066 C 0.92471 0.76013 0.60969
 N1067 N 0.92167 0.74028 0.60995
 N1068 N 0.93166 0.72884 0.62254
 C1069 C 0.94510 0.73679 0.63537
 N1070 N 0.94802 0.75676 0.63504
 C1071 C 0.91405 0.77231 0.59590
 C1072 C 0.90496 0.78217 0.58410
 C1073 C 0.89398 0.79346 0.56981
 N1074 N 0.87642 0.78658 0.56279
 N1075 N 0.86637 0.79679 0.54923
 C1076 C 0.87355 0.81423 0.54220
 N1077 N 0.89114 0.82112 0.54928
 N1078 N 0.90120 0.81089 0.56286
 N1079 N 0.92168 0.25956 0.39057
 C1080 C 0.92468 0.23971 0.39079
 N1081 N 0.93776 0.23165 0.37785
 N1082 N 0.94757 0.24312 0.36511
 C1083 C 0.94468 0.26309 0.36481
 N1084 N 0.93148 0.27101 0.37784
 C1085 C 0.91420 0.22751 0.40472
 C1086 C 0.90523 0.21765 0.41662
 C1087 C 0.89433 0.20636 0.43098
 N1088 N 0.90149 0.18890 0.43786
 N1089 N 0.89144 0.17864 0.45143
 C1090 C 0.87392 0.18552 0.45858
 N1091 N 0.86681 0.20301 0.45164
 N1092 N 0.87685 0.21325 0.43808
 N1093 N 0.07858 0.24109 0.62629
 C1094 C 0.07547 0.24266 0.60652
 N1095 N 0.06160 0.25551 0.59980
 N1096 N 0.05116 0.26648 0.61248
 C1097 C 0.05419 0.26504 0.63237
 N1098 N 0.06814 0.25207 0.63896
 C1099 C 0.08680 0.23095 0.59285
 C1100 C 0.09632 0.22119 0.58129
 C1101 C 0.10762 0.20971 0.56740
 N1102 N 0.10063 0.19207 0.56067
 N1103 N 0.11097 0.18159 0.54749
 C1104 C 0.12864 0.18840 0.54061
 N1105 N 0.13561 0.20606 0.54743
 N1106 N 0.12527 0.21653 0.56060
 N1107 N 0.07924 0.74106 0.38887
 C1108 C 0.07630 0.76092 0.38916
 N1109 N 0.06308 0.76899 0.37638
 N1110 N 0.05306 0.75752 0.36372
 C1111 C 0.05588 0.73754 0.36336
 N1112 N 0.06923 0.72961 0.37622
 C1113 C 0.08688 0.77311 0.40308
 C1114 C 0.09585 0.78298 0.41502
 C1115 C 0.10664 0.79432 0.42949
 N1116 N 0.09924 0.81162 0.43657
 N1117 N 0.10908 0.82185 0.45037
 C1118 C 0.12664 0.81510 0.45755
 N1119 N 0.13402 0.79779 0.45040
 N1120 N 0.12418 0.78756 0.43661
 N1121 N 0.62560 0.92198 0.75901
 C1122 C 0.60581 0.92501 0.75743
 N1123 N 0.59903 0.93877 0.74449
 N1124 N 0.61168 0.94917 0.73345
 C1125 C 0.63159 0.94622 0.73490
 N1126 N 0.63824 0.93238 0.74796
 C1127 C 0.59217 0.91368 0.76919
 C1128 C 0.58065 0.90413 0.77897
 C1129 C 0.56682 0.89275 0.79046
 N1130 N 0.56010 0.87503 0.78369
 N1131 N 0.54701 0.86460 0.79418
 C1132 C 0.54021 0.87155 0.81181
 N1133 N 0.54700 0.88930 0.81858
 N1134 N 0.56010 0.89972 0.80808
 N1135 N 0.37407 0.92279 0.23921
 C1136 C 0.39381 0.92628 0.24078
 N1137 N 0.40034 0.94008 0.25389
 N1138 N 0.38752 0.95009 0.26509
 C1139 C 0.36766 0.94668 0.26364
 N1140 N 0.36125 0.93281 0.25041
 C1141 C 0.40764 0.91533 0.22890
 C1142 C 0.41931 0.90606 0.21905
 C1143 C 0.43330 0.89493 0.20751
 N1144 N 0.44001 0.90203 0.18995
 N1145 N 0.45318 0.89177 0.17938
 C1146 C 0.46008 0.87408 0.18603
 N1147 N 0.45330 0.86702 0.20361
 N1148 N 0.44013 0.87727 0.21416
 N1149 N 0.59909 0.05963 0.25364
 C1150 C 0.60568 0.07345 0.24065
 N1151 N 0.62544 0.07688 0.23917
 N1152 N 0.63821 0.06680 0.25035
 C1153 C 0.63171 0.05293 0.26343
 N1154 N 0.61187 0.04956 0.26482
 C1155 C 0.59189 0.08448 0.22878
 C1156 C 0.58026 0.09381 0.21893
 C1157 C 0.56633 0.10500 0.20738
 N1158 N 0.55947 0.12265 0.21413
 N1159 N 0.54632 0.13293 0.20358
 C1160 C 0.53960 0.12591 0.18592
 N1161 N 0.54653 0.10824 0.17918
 N1162 N 0.55968 0.09796 0.18973
 N1163 N 0.38948 0.07925 0.74234
 C1164 C 0.38999 0.07606 0.76215
 N1165 N 0.37746 0.06254 0.77017
 N1166 N 0.36482 0.05250 0.75870
 C1167 C 0.36426 0.05561 0.73880
 N1168 N 0.37685 0.06922 0.73089
 C1169 C 0.40387 0.08672 0.77433
 C1170 C 0.41578 0.09582 0.78415
 C1171 C 0.43023 0.10678 0.79536
 N1172 N 0.43725 0.09964 0.81278
 N1173 N 0.45104 0.10963 0.82289
 C1174 C 0.45829 0.12707 0.81589
 N1175 N 0.45119 0.13418 0.79846
 N1176 N 0.43740 0.12420 0.78837
 N1177 N 0.60955 0.74119 0.07865
 C1178 C 0.60907 0.76103 0.07561
 N1179 N 0.62188 0.76923 0.06248
 N1180 N 0.63476 0.75790 0.05267
 C1181 C 0.63529 0.73797 0.05563
 N1182 N 0.62241 0.72988 0.06884
 C1183 C 0.59499 0.77308 0.08605
 C1184 C 0.58297 0.78283 0.09498
 C1185 C 0.56847 0.79400 0.10581
 N1186 N 0.56151 0.81142 0.09863
 N1187 N 0.54782 0.82160 0.10862
 C1188 C 0.54064 0.81467 0.12609
 N1189 N 0.54766 0.79722 0.13322
 N1190 N 0.56133 0.78706 0.12324
 N1191 N 0.37871 0.23123 0.06150
 C1192 C 0.39132 0.23929 0.07497
 N1193 N 0.39092 0.25912 0.07816
 N1194 N 0.37833 0.27056 0.06817
 C1195 C 0.36566 0.26261 0.05461
 N1196 N 0.36611 0.24269 0.05150
 C1197 C 0.40510 0.22710 0.08562
 C1198 C 0.41690 0.21724 0.09472
 C1199 C 0.43115 0.20592 0.10572
 N1200 N 0.43812 0.18849 0.09852
 N1201 N 0.45165 0.17823 0.10862
 C1202 C 0.45867 0.18509 0.12624
 N1203 N 0.45163 0.20254 0.13340
 N1204 N 0.43811 0.21278 0.12331
 N1205 N 0.61149 0.25828 0.92082
 C1206 C 0.61096 0.23843 0.92383
 N1207 N 0.62356 0.23026 0.93717
 N1208 N 0.63629 0.24162 0.94722
 C1209 C 0.63687 0.26156 0.94430
 N1210 N 0.62421 0.26962 0.93087
 C1211 C 0.59695 0.22637 0.91322
 C1212 C 0.58493 0.21661 0.90422
 C1213 C 0.57035 0.20543 0.89341
 N1214 N 0.56316 0.18815 0.90074
 N1215 N 0.54926 0.17806 0.89089
 C1216 C 0.54208 0.18493 0.87339
 N1217 N 0.54935 0.20222 0.86608
 N1218 N 0.56324 0.21230 0.87593
 N1219 N 0.40072 0.74478 0.93890
 C1220 C 0.39395 0.75757 0.92500
 N1221 N 0.37415 0.75906 0.92189
 N1222 N 0.36150 0.74808 0.93236
 C1223 C 0.36818 0.73521 0.94632
 N1224 N 0.38807 0.73381 0.94937
 C1225 C 0.40759 0.76928 0.91362
 C1226 C 0.41911 0.77904 0.90405
 C1227 C 0.43294 0.79053 0.89267
 N1228 N 0.43970 0.78367 0.87502
 N1229 N 0.45280 0.79416 0.86460
 C1230 C 0.45957 0.81186 0.87147
 N1231 N 0.45274 0.81871 0.88913
 N1232 N 0.43964 0.80822 0.89956
 N1233 N 0.74672 0.93955 0.40129
 C1234 C 0.75969 0.92571 0.39470
 N1235 N 0.76119 0.92231 0.37495
 N1236 N 0.75005 0.93245 0.36219
 C1237 C 0.73698 0.94634 0.36870
 N1238 N 0.73557 0.94968 0.38853
 C1239 C 0.77153 0.91463 0.40847
 C1240 C 0.78136 0.90526 0.42009
 C1241 C 0.79288 0.89405 0.43402
 N1242 N 0.81051 0.90109 0.44075
 N1243 N 0.82103 0.89081 0.45392
 C1244 C 0.81426 0.87313 0.46080
 N1245 N 0.79662 0.86611 0.45401
 N1246 N 0.78611 0.87640 0.44084
 N1247 N 0.25753 0.92130 0.60990
 C1248 C 0.23772 0.92455 0.60932
 N1249 N 0.22967 0.93802 0.62190
 N1250 N 0.24112 0.94795 0.63464
 C1251 C 0.26103 0.94478 0.63527
 N1252 N 0.26897 0.93123 0.62263
 C1253 C 0.22556 0.91397 0.59537
 C1254 C 0.21578 0.90493 0.58340
 C1255 C 0.20462 0.89398 0.56890
 N1256 N 0.21166 0.87657 0.56175
 N1257 N 0.20161 0.86657 0.54795
 C1258 C 0.18416 0.87365 0.54083
 N1259 N 0.17712 0.89108 0.54804
 N1260 N 0.18719 0.90109 0.56185
 N1261 N 0.23969 0.07837 0.37366
 C1262 C 0.24139 0.07530 0.39344
 N1263 N 0.25433 0.06148 0.40011
 N1264 N 0.26525 0.05105 0.38738
 C1265 C 0.26365 0.05405 0.36752
 N1266 N 0.25062 0.06793 0.36095
 C1267 C 0.22977 0.08666 0.40716
 C1268 C 0.22011 0.09623 0.41876
 C1269 C 0.20875 0.10761 0.43269
 N1270 N 0.19112 0.10070 0.43948
 N1271 N 0.18075 0.11112 0.45268
 C1272 C 0.18767 0.12879 0.45952
 N1273 N 0.20530 0.13568 0.45265
 N1274 N 0.21567 0.12526 0.43945
 N1275 N 0.74536 0.06010 0.59822
 C1276 C 0.75845 0.07390 0.60481
 N1277 N 0.75989 0.07744 0.62454
 N1278 N 0.74858 0.06747 0.63729
 C1279 C 0.73540 0.05361 0.63080
 N1280 N 0.73405 0.05014 0.61098
 C1281 C 0.77045 0.08481 0.59104
 C1282 C 0.78039 0.09405 0.57942
 C1283 C 0.79203 0.10517 0.56550
 N1284 N 0.80959 0.09802 0.55882
 N1285 N 0.82024 0.10827 0.54570
 C1286 C 0.81366 0.12600 0.53884
 N1287 N 0.79608 0.13311 0.54558
 N1288 N 0.78545 0.12287 0.55869
 N1289 N 0.91941 0.61139 0.25837
 C1290 C 0.92259 0.61076 0.23856
 N1291 N 0.93625 0.62309 0.23047
 N1292 N 0.94645 0.63566 0.24188
 C1293 C 0.94335 0.63634 0.26179
 N1294 N 0.92960 0.62395 0.26977
 C1295 C 0.91186 0.59688 0.22645
 C1296 C 0.90276 0.58494 0.21668
 C1297 C 0.89186 0.57043 0.20551
 N1298 N 0.87438 0.56333 0.21245
 N1299 N 0.86450 0.54941 0.20243
 C1300 C 0.87179 0.54211 0.18514
 N1301 N 0.88929 0.54929 0.17820
 N1302 N 0.89917 0.56321 0.18822
 N1303 N 0.93781 0.39991 0.74587
 C1304 C 0.92408 0.39308 0.75884
 N1305 N 0.92097 0.37328 0.76028
 N1306 N 0.93129 0.36070 0.74909
 C1307 C 0.94509 0.36744 0.73603
 N1308 N 0.94813 0.38733 0.73468
 C1309 C 0.91288 0.40667 0.77077
 C1310 C 0.90348 0.41821 0.78065
 C1311 C 0.89234 0.43214 0.79223
 N1312 N 0.89956 0.43899 0.80972
 N1313 N 0.88943 0.45232 0.82022
 C1314 C 0.87174 0.45924 0.81356
 N1315 N 0.86452 0.45231 0.79606
 N1316 N 0.87465 0.43898 0.78557
 N1317 N 0.07831 0.60956 0.74216
 C1318 C 0.07485 0.60913 0.76193
 N1319 N 0.06141 0.62183 0.76980
 N1320 N 0.05169 0.63453 0.75821
 C1321 C 0.05507 0.63500 0.73835
 N1322 N 0.06860 0.62224 0.73059
 C1323 C 0.08521 0.59523 0.77424
 C1324 C 0.09409 0.58333 0.78417
 C1325 C 0.10491 0.56894 0.79549
 N1326 N 0.09758 0.56194 0.81284
 N1327 N 0.10752 0.54829 0.82308
 C1328 C 0.12509 0.54118 0.81629
 N1329 N 0.13238 0.54825 0.79892
 N1330 N 0.12245 0.56189 0.78870
 N1331 N 0.07963 0.38956 0.25906
 C1332 C 0.07641 0.39016 0.23925
 N1333 N 0.06267 0.37785 0.23114
 N1334 N 0.05246 0.36535 0.24254
 C1335 C 0.05561 0.36470 0.26244
 N1336 N 0.06943 0.37707 0.27043
 C1337 C 0.08723 0.40390 0.22716
 C1338 C 0.09646 0.41572 0.21743
 C1339 C 0.10756 0.43006 0.20632
 N1340 N 0.10048 0.43717 0.18891
 N1341 N 0.11059 0.45090 0.17892
 C1342 C 0.12809 0.45799 0.18602
 N1343 N 0.13514 0.45080 0.20344
 N1344 N 0.12504 0.43708 0.21342
   
