data_POSCAR
  _audit_creation_date              2014-09-24
  _audit_creation_method            'ToBaCCo'
  _symmetry_space_group_name_H-M    'P1'
  _symmetry_Int_Tables_number       1
  _symmetry_cell_setting            triclinic
  loop_
  _symmetry_equiv_pos_as_xyz
 x,y,z
_cell_length_a 67.8841
_cell_length_b 64.9833
_cell_length_c 71.1441
_cell_angle_alpha 88.821700
_cell_angle_beta 89.663500
_cell_angle_gamma 89.769600
loop_
  _atom_site_label
  _atom_site_type_symbol
  _atom_site_fract_x
  _atom_site_fract_y
  _atom_site_fract_z
C1 C 0.39721 -0.03699 0.24686
 C2 C 0.40792 -0.01939 0.24145
 C3 C 0.41790 -0.01867 0.22420
 C4 C 0.41742 -0.03551 0.21223
 C5 C 0.40664 -0.05309 0.21775
 C6 C 0.39600 -0.05409 0.23493
 C7 C 0.40835 -0.00136 0.25368
 C8 C 0.42063 -0.00145 0.26942
 C9 C 0.42158 0.01571 0.28129
 C10 C 0.40943 0.03289 0.27676
 C11 C 0.39666 0.03294 0.26121
 C12 C 0.39645 0.01576 0.24960
 H13 H 0.38899 -0.03654 0.25991
 H14 H 0.42581 -0.00485 0.22003
 H15 H 0.42885 -0.01539 0.27249
 H16 H 0.38665 0.01539 0.23764
 H17 H 0.40731 -0.06626 0.20872
 H18 H 0.41032 0.04680 0.28477
 C19 C 0.10309 -0.02143 0.75393
 C20 C 0.09164 -0.00474 0.75976
 C21 C 0.08304 -0.00510 0.77771
 C22 C 0.08546 -0.02226 0.78987
 C23 C 0.09687 -0.03906 0.78372
 C24 C 0.10601 -0.03859 0.76591
 C25 C 0.08953 0.01355 0.74734
 C26 C 0.07764 0.01286 0.73138
 C27 C 0.07587 0.03002 0.71891
 C28 C 0.08658 0.04805 0.72320
 C29 C 0.09898 0.04860 0.73901
 C30 C 0.10007 0.03136 0.75113
 H31 H 0.11001 -0.02088 0.74016
 H32 H 0.07480 0.00823 0.78226
 H33 H 0.06928 -0.00104 0.72931
 H34 H 0.10950 0.03162 0.76336
 H35 H 0.09905 -0.05233 0.79293
 H36 H 0.08661 0.06121 0.71364
 C37 C 0.60634 0.47757 0.25312
 C38 C 0.59415 0.49423 0.25770
 C39 C 0.58401 0.49415 0.27492
 C40 C 0.58582 0.47743 0.28762
 C41 C 0.59811 0.46081 0.28286
 C42 C 0.60870 0.46083 0.26577
 C43 C 0.59285 0.51231 0.24491
 C44 C 0.58303 0.51093 0.22771
 C45 C 0.58232 0.52790 0.21516
 C46 C 0.59175 0.54627 0.22009
 C47 C 0.60199 0.54778 0.23718
 C48 C 0.60217 0.53071 0.24963
 H49 H 0.61462 0.47813 0.24005
 H50 H 0.57501 0.50733 0.27852
 H51 H 0.57625 0.49651 0.22401
 H52 H 0.61027 0.53133 0.26269
 H53 H 0.59935 0.44773 0.29247
 H54 H 0.59105 0.55949 0.21059
 C55 C 0.89795 0.47133 0.75242
 C56 C 0.90855 0.48817 0.74518
 C57 C 0.91751 0.48705 0.72747
 C58 C 0.91611 0.46909 0.71688
 C59 C 0.90527 0.45226 0.72427
 C60 C 0.89592 0.45334 0.74196
 C61 C 0.90952 0.50730 0.75588
 C62 C 0.92144 0.50823 0.77186
 C63 C 0.92165 0.52594 0.78305
 C64 C 0.90955 0.54273 0.77745
 C65 C 0.89717 0.54179 0.76170
 C66 C 0.89750 0.52406 0.75080
 H67 H 0.89098 0.47242 0.76611
 H68 H 0.92525 0.50038 0.72183
 H69 H 0.92970 0.49457 0.77588
 H70 H 0.88780 0.52285 0.73884
 H71 H 0.90375 0.43851 0.71607
 H72 H 0.90998 0.55701 0.78497
 C73 C 0.26074 0.34319 1.01671
 C74 C 0.26233 0.35836 1.00243
 C75 C 0.27893 0.37123 1.00167
 C76 C 0.29396 0.36899 1.01511
 C77 C 0.29184 0.35403 1.02954
 C78 C 0.27547 0.34066 1.03057
 C79 C 0.24706 0.35969 0.98764
 C80 C 0.23120 0.37363 0.98910
 C81 C 0.21632 0.37422 0.97537
 C82 C 0.21739 0.36053 0.96038
 C83 C 0.23289 0.34627 0.95888
 C84 C 0.24779 0.34607 0.97254
 H85 H 0.24826 0.33292 1.01631
 H86 H 0.28035 0.38253 0.99034
 H87 H 0.23049 0.38396 1.00085
 H88 H 0.25976 0.33503 0.97169
 H89 H 0.30280 0.35364 1.04050
 H90 H 0.20593 0.36089 0.94985
 C91 C 0.74256 0.14922 1.02889
 C92 C 0.74299 0.13523 1.01408
 C93 C 0.72751 0.12120 1.01202
 C94 C 0.71157 0.12115 1.02466
 C95 C 0.71101 0.13571 1.03894
 C96 C 0.72655 0.14976 1.04174
 C97 C 0.75950 0.13575 1.00042
 C98 C 0.77680 0.12428 1.00377
 C99 C 0.79247 0.12494 0.99069
 C100 C 0.79066 0.13745 0.97447
 C101 C 0.77350 0.14899 0.97094
 C102 C 0.75795 0.14807 0.98405
 H103 H 0.75516 0.15916 1.03038
 H104 H 0.72799 0.11026 1.00073
 H105 H 0.77791 0.11473 1.01637
 H106 H 0.74454 0.15674 0.98147
 H107 H 0.69769 0.13634 1.04727
 H108 H 0.80293 0.13859 0.96470
 C109 C 0.23694 0.64574 0.53157
 C110 C 0.23540 0.63458 0.51495
 C111 C 0.21852 0.62265 0.51179
 C112 C 0.20318 0.62187 0.52519
 C113 C 0.20510 0.63296 0.54180
 C114 C 0.22185 0.64486 0.54514
 C115 C 0.25137 0.63573 0.50077
 C116 C 0.26845 0.62362 0.50290
 C117 C 0.28376 0.62488 0.48949
 C118 C 0.28186 0.63869 0.47416
 C119 C 0.26507 0.65123 0.47204
 C120 C 0.24976 0.64948 0.48539
 H121 H 0.24999 0.65482 0.53404
 H122 H 0.21728 0.61420 0.49888
 H123 H 0.26966 0.61307 0.51483
 H124 H 0.23676 0.65912 0.48410
 H125 H 0.19351 0.63221 0.55233
 H126 H 0.29362 0.63974 0.46384
 C127 C 0.75884 0.85198 0.52359
 C128 C 0.76091 0.86757 0.50980
 C129 C 0.77720 0.88096 0.51037
 C130 C 0.79172 0.87873 0.52457
 C131 C 0.78866 0.86329 0.53858
 C132 C 0.77258 0.84978 0.53814
 C133 C 0.74648 0.86888 0.49423
 C134 C 0.73188 0.88435 0.49378
 C135 C 0.71761 0.88481 0.47946
 C136 C 0.71819 0.86971 0.46565
 C137 C 0.73234 0.85387 0.46608
 C138 C 0.74651 0.85364 0.48045
 H139 H 0.74652 0.84148 0.52285
 H140 H 0.77889 0.89221 0.49907
 H141 H 0.73149 0.89579 0.50464
 H142 H 0.75738 0.84141 0.48120
 H143 H 0.79828 0.86220 0.55062
 H144 H 0.70728 0.87016 0.45460
 C145 C -0.01418 0.23971 0.32953
 C146 C 0.00279 0.23721 0.34029
 C147 C 0.00891 0.21758 0.34613
 C148 C -0.00207 0.20005 0.34159
 C149 C -0.01859 0.20281 0.32984
 C150 C -0.02524 0.22256 0.32410
 C151 C 0.01377 0.25532 0.34626
 C152 C 0.00486 0.27000 0.35771
 C153 C 0.01563 0.28705 0.36362
 C154 C 0.03533 0.28936 0.35785
 C155 C 0.04418 0.27482 0.34625
 C156 C 0.03337 0.25772 0.34064
 H157 H -0.01902 0.25525 0.32624
 H158 H 0.02138 0.21652 0.35550
 H159 H -0.01037 0.26810 0.36206
 H160 H 0.04021 0.24621 0.33189
 H161 H -0.02586 0.18940 0.32453
 H162 H 0.04378 0.30244 0.36241
 C163 C -0.03215 0.74715 0.15039
 C164 C -0.01215 0.75122 0.14741
 C165 C -0.00624 0.77085 0.14142
 C166 C -0.02019 0.78642 0.13831
 C167 C -0.04020 0.78235 0.14172
 C168 C -0.04656 0.76267 0.14793
 C169 C 0.00256 0.73472 0.15016
 C170 C -0.00027 0.71548 0.14209
 C171 C 0.01409 0.69981 0.14373
 C172 C 0.03110 0.70387 0.15429
 C173 C 0.03410 0.72314 0.16225
 C174 C 0.01976 0.73848 0.16019
 H175 H -0.03623 0.73155 0.15421
 H176 H 0.00923 0.77393 0.13887
 H177 H -0.01310 0.71354 0.13335
 H178 H 0.02197 0.75337 0.16643
 H179 H -0.05057 0.79487 0.13983
 H180 H 0.04227 0.69216 0.15639
 C181 C 0.47414 0.23457 0.64647
 C182 C 0.49212 0.24294 0.64043
 C183 C 0.49225 0.26073 0.62899
 C184 C 0.47459 0.27034 0.62379
 C185 C 0.45668 0.26218 0.63022
 C186 C 0.45632 0.24419 0.64152
 C187 C 0.51083 0.23282 0.64543
 C188 C 0.51347 0.21185 0.64212
 C189 C 0.53200 0.20257 0.64448
 C190 C 0.54781 0.21442 0.65066
 C191 C 0.54519 0.23539 0.65431
 C192 C 0.52666 0.24448 0.65181
 H193 H 0.47407 0.22063 0.65510
 H194 H 0.50614 0.26707 0.62405
 H195 H 0.50141 0.20311 0.63640
 H196 H 0.52471 0.26079 0.65419
 H197 H 0.44304 0.26992 0.62648
 H198 H 0.56221 0.20740 0.65238
 C199 C 0.47406 0.73912 0.84010
 C200 C 0.49378 0.73891 0.84557
 C201 C 0.50249 0.72037 0.85167
 C202 C 0.49161 0.70193 0.85260
 C203 C 0.47192 0.70243 0.84633
 C204 C 0.46309 0.72098 0.84052
 C205 C 0.50493 0.75830 0.84624
 C206 C 0.49665 0.77549 0.85489
 C207 C 0.50777 0.79337 0.85719
 C208 C 0.52717 0.79415 0.85030
 C209 C 0.53562 0.77705 0.84161
 C210 C 0.52435 0.75920 0.83957
 H211 H 0.46718 0.75346 0.83558
 H212 H 0.51779 0.72055 0.85584
 H213 H 0.48179 0.77468 0.86049
 H214 H 0.53086 0.74570 0.83330
 H215 H 0.46268 0.68893 0.84755
 H216 H 0.53593 0.80781 0.85231
 C217 C -0.27389 0.63252 1.00976
 C218 C -0.25679 0.64350 1.01418
 C219 C -0.25545 0.65330 1.03147
 C220 C -0.27114 0.65248 1.04435
 C221 C -0.28815 0.64136 1.03981
 C222 C -0.28981 0.63086 1.02263
 C223 C -0.24020 0.64476 1.00065
 C224 C -0.24276 0.65489 0.98326
 C225 C -0.22715 0.65664 0.97006
 C226 C -0.20892 0.64724 0.97489
 C227 C -0.20625 0.63663 0.99220
 C228 C -0.22199 0.63579 1.00510
 H229 H -0.27403 0.62446 0.99661
 H230 H -0.24216 0.66161 1.03484
 H231 H -0.25728 0.66084 0.98007
 H232 H -0.22035 0.62757 1.01841
 H233 H -0.30043 0.64187 1.04953
 H234 H -0.19629 0.64886 0.96567
 C235 C -0.28188 0.36401 0.49891
 C236 C -0.26286 0.35689 0.49459
 C237 C -0.25906 0.34811 0.47716
 C238 C -0.27413 0.34617 0.46400
 C239 C -0.29314 0.35336 0.46841
 C240 C -0.29736 0.36284 0.48575
 C241 C -0.24668 0.35924 0.50813
 C242 C -0.24829 0.35044 0.52622
 C243 C -0.23299 0.35247 0.53923
 C244 C -0.21617 0.36380 0.53396
 C245 C -0.21456 0.37321 0.51604
 C246 C -0.22979 0.37051 0.50305
 H247 H -0.28393 0.37167 0.51213
 H248 H -0.24426 0.34299 0.47379
 H249 H -0.26152 0.34208 0.53012
 H250 H -0.22890 0.37778 0.48923
 H251 H -0.30467 0.35084 0.45831
 H252 H -0.20413 0.36513 0.54378
 C253 C 0.22561 -0.13658 0.00246
 C254 C 0.24275 -0.14707 -0.00282
 C255 C 0.24343 -0.15755 -0.01982
 C256 C 0.22693 -0.15798 -0.03182
 C257 C 0.20972 -0.14739 -0.02604
 C258 C 0.20903 -0.13636 -0.00921
 C259 C 0.26018 -0.14689 0.00941
 C260 C 0.26008 -0.15839 0.02630
 C261 C 0.27645 -0.15839 0.03847
 C262 C 0.29287 -0.14626 0.03300
 C263 C 0.29287 -0.13411 0.01641
 C264 C 0.27654 -0.13484 0.00447
 H265 H 0.22551 -0.12803 0.01538
 H266 H 0.25725 -0.16464 -0.02376
 H267 H 0.24677 -0.16665 0.03000
 H268 H 0.27620 -0.12550 -0.00832
 H269 H 0.19639 -0.14816 -0.03422
 H270 H 0.30620 -0.14661 0.04123
 C271 C 0.22709 1.14031 0.49916
 C272 C 0.24417 1.15149 0.50338
 C273 C 0.24512 1.16237 0.52020
 C274 C 0.22917 1.16230 0.53282
 C275 C 0.21223 1.15106 0.52843
 C276 C 0.21113 1.13965 0.51188
 C277 C 0.26157 1.15102 0.49081
 C278 C 0.26080 1.16015 0.47278
 C279 C 0.27749 1.16026 0.46075
 C280 C 0.29500 1.15085 0.46757
 C281 C 0.29581 1.14138 0.48549
 C282 C 0.27903 1.14164 0.49705
 H283 H 0.22664 1.13144 0.48644
 H284 H 0.25846 1.17060 0.52357
 H285 H 0.24687 1.16656 0.46816
 H286 H 0.27953 1.13449 0.51094
 H287 H 0.19977 1.15120 0.53801
 H288 H 0.30833 1.15101 0.45919
 C289 C 0.09490 0.49816 0.22157
 C290 C 0.10489 0.50063 0.23859
 C291 C 0.11519 0.51896 0.24171
 C292 C 0.11598 0.53465 0.22779
 C293 C 0.10599 0.53185 0.21079
 C294 C 0.09532 0.51378 0.20761
 C295 C 0.10467 0.48406 0.25316
 C296 C 0.11549 0.46580 0.25056
 C297 C 0.11596 0.45036 0.26474
 C298 C 0.10534 0.45344 0.28147
 C299 C 0.09443 0.47154 0.28423
 C300 C 0.09415 0.48681 0.26998
 H301 H 0.08694 0.48404 0.21915
 H302 H 0.12300 0.52071 0.25482
 H303 H 0.12362 0.46375 0.23758
 H304 H 0.08606 0.50100 0.27209
 H305 H 0.10610 0.54399 0.20011
 H306 H 0.10580 0.44182 0.29260
 C307 C -0.09189 0.99471 0.23550
 C308 C -0.10633 0.99451 0.24966
 C309 C -0.12038 0.97873 0.25041
 C310 C -0.12019 0.96284 0.23710
 C311 C -0.10584 0.96391 0.22261
 C312 C -0.09138 0.97951 0.22161
 C313 C -0.10575 1.01014 0.26452
 C314 C -0.11937 1.02653 0.26465
 C315 C -0.11865 1.04174 0.27864
 C316 C -0.10374 1.03983 0.29239
 C317 C -0.09005 1.02357 0.29237
 C318 C -0.09118 1.00876 0.27836
 H319 H -0.08071 1.00650 0.23596
 H320 H -0.13061 0.97846 0.26213
 H321 H -0.13073 1.02689 0.25405
 H322 H -0.08062 0.99622 0.27811
 H323 H -0.10692 0.95337 0.21115
 H324 H -0.10217 1.05134 0.30302
 C325 C 0.41024 0.49636 -0.26818
 C326 C 0.39604 0.49680 -0.25374
 C327 C 0.38168 0.48135 -0.25252
 C328 C 0.38151 0.46535 -0.26551
 C329 C 0.39575 0.46520 -0.27991
 C330 C 0.41034 0.48059 -0.28161
 C331 C 0.39709 0.51270 -0.23915
 C332 C 0.38228 0.52776 -0.23755
 C333 C 0.38310 0.54286 -0.22346
 C334 C 0.39910 0.54185 -0.21080
 C335 C 0.41401 0.52685 -0.21222
 C336 C 0.41296 0.51251 -0.22666
 H337 H 0.42160 0.50800 -0.26829
 H338 H 0.37086 0.48163 -0.24126
 H339 H 0.36998 0.52717 -0.24711
 H340 H 0.42441 0.50098 -0.22814
 H341 H 0.39500 0.45307 -0.29004
 H342 H 0.40047 0.55306 -0.19992
 C343 C 0.59681 0.00353 -0.27546
 C344 C 0.60695 0.00675 -0.25866
 C345 C 0.61609 0.02570 -0.25571
 C346 C 0.61553 0.04136 -0.26958
 C347 C 0.60519 0.03801 -0.28628
 C348 C 0.59538 0.01924 -0.28948
 C349 C 0.60711 -0.00935 -0.24368
 C350 C 0.61821 -0.02748 -0.24572
 C351 C 0.61890 -0.04242 -0.23108
 C352 C 0.60790 -0.03911 -0.21460
 C353 C 0.59650 -0.02121 -0.21254
 C354 C 0.59628 -0.00633 -0.22712
 H355 H 0.58910 -0.01090 -0.27683
 H356 H 0.62392 0.02808 -0.24270
 H357 H 0.62674 -0.02961 -0.25846
 H358 H 0.58782 0.00772 -0.22553
 H359 H 0.60529 0.05014 -0.29690
 H360 H 0.60787 -0.05071 -0.20344
 C361 C 0.00041 0.22486 0.87512
 C362 C -0.00991 0.24218 0.86827
 C363 C -0.02970 0.24023 0.86322
 C364 C -0.03931 0.22126 0.86509
 C365 C -0.02886 0.20406 0.87183
 C366 C -0.00901 0.20575 0.87693
 C367 C -0.00021 0.26241 0.86653
 C368 C 0.01876 0.26398 0.85880
 C369 C 0.02800 0.28316 0.85702
 C370 C 0.01817 0.30081 0.86306
 C371 C -0.00077 0.29948 0.87098
 C372 C -0.00992 0.28022 0.87258
 H373 H 0.01567 0.22631 0.87927
 H374 H -0.03756 0.25346 0.85751
 H375 H 0.02620 0.25032 0.85384
 H376 H -0.02449 0.27904 0.87880
 H377 H -0.03642 0.18951 0.87381
 H378 H 0.02570 0.31549 0.86236
 C379 C 0.51930 0.21159 0.10960
 C380 C 0.51781 0.23272 0.11272
 C381 C 0.53385 0.24321 0.12016
 C382 C 0.55133 0.23268 0.12444
 C383 C 0.55290 0.21160 0.12086
 C384 C 0.53682 0.20094 0.11366
 C385 C 0.49919 0.24373 0.10919
 C386 C 0.48157 0.23619 0.11694
 C387 C 0.46414 0.24771 0.11539
 C388 C 0.46435 0.26659 0.10546
 C389 C 0.48187 0.27416 0.09750
 C390 C 0.49924 0.26263 0.09939
 H391 H 0.50687 0.20350 0.10381
 H392 H 0.53256 0.25946 0.12311
 H393 H 0.48162 0.22175 0.12485
 H394 H 0.51298 0.26863 0.09375
 H395 H 0.56626 0.20331 0.12453
 H396 H 0.45103 0.27577 0.10449
 C397 C 0.00273 0.72279 0.60786
 C398 C 0.00266 0.74054 0.61863
 C399 C 0.01705 0.74314 0.63236
 C400 C 0.03163 0.72810 0.63536
 C401 C 0.03177 0.71049 0.62425
 C402 C 0.01735 0.70772 0.61050
 C403 C -0.01283 0.75616 0.61599
 C404 C -0.03261 0.75063 0.61787
 C405 C -0.04770 0.76558 0.61689
 C406 C -0.04232 0.78609 0.61237
 C407 C -0.02245 0.79173 0.61027
 C408 C -0.00779 0.77667 0.61244
 H409 H -0.00870 0.72072 0.59750
 H410 H 0.01649 0.75664 0.64104
 H411 H -0.03600 0.73453 0.62027
 H412 H 0.00763 0.78084 0.61144
 H413 H 0.04336 0.69912 0.62602
 H414 H -0.05338 0.79807 0.61140
 C415 C 0.49674 0.73079 0.38904
 C416 C 0.48656 0.74823 0.38223
 C417 C 0.46667 0.74652 0.37734
 C418 C 0.45700 0.72756 0.37893
 C419 C 0.46739 0.71023 0.38545
 C420 C 0.48725 0.71174 0.39047
 C421 C 0.49684 0.76803 0.37945
 C422 C 0.51573 0.76848 0.37140
 C423 C 0.52549 0.78720 0.36833
 C424 C 0.51621 0.80557 0.37335
 C425 C 0.49730 0.80538 0.38144
 C426 C 0.48768 0.78654 0.38442
 H427 H 0.51208 0.73195 0.39301
 H428 H 0.45891 0.75978 0.37155
 H429 H 0.52265 0.75428 0.36707
 H430 H 0.47313 0.78625 0.39074
 H431 H 0.45993 0.69556 0.38690
 H432 H 0.52406 0.81997 0.37160
 Zr433 Zr 0.02257 -0.01363 1.03840
 O434 O 0.04253 -0.00247 1.05850
 O435 O 0.01678 -0.04332 1.04893
 O436 O 0.00884 -0.01111 1.06513
 O437 O 0.05875 -0.02567 1.00610
 O438 O -0.01890 0.00765 1.05883
 O439 O 0.05008 -0.02917 1.03705
 O440 O -0.00568 -0.05577 1.02839
 O441 O -0.00758 -0.01691 1.03316
 O442 O 0.02032 -0.03003 1.01351
 O443 O 0.01127 0.01655 1.03635
 O444 O 0.03815 0.00381 1.01784
 Zr445 Zr -0.00691 0.01447 0.98413
 Zr446 Zr -0.01849 0.01307 1.02968
 Zr447 Zr 0.03427 -0.01216 0.99282
 Zr448 Zr -0.00955 -0.03232 1.00781
 O449 O 0.06058 0.00222 0.98344
 O450 O -0.03777 -0.03957 1.01897
 O451 O 0.00450 -0.01581 0.98587
 O452 O -0.02210 -0.00300 1.00475
 O453 O -0.00473 0.03125 1.00886
 O454 O 0.02318 0.01756 0.98956
 C455 C 0.00512 -0.05737 1.04317
 C456 C 0.06211 -0.03163 1.02313
 C457 C -0.00720 -0.00194 1.07018
 O458 O -0.04572 -0.00066 1.03715
 O459 O -0.04159 0.02967 1.01705
 O460 O -0.03385 0.03114 0.98584
 C461 C -0.04525 0.03510 0.99994
 O462 O 0.04595 0.03823 1.03642
 Zr463 Zr 0.02530 0.03317 1.01466
 O464 O -0.00088 0.04415 0.97361
 O465 O -0.02172 0.04138 1.04358
 O466 O 0.01498 0.05876 1.02996
 O467 O 0.05300 0.04168 1.00299
 O468 O 0.02020 0.05734 0.99505
 C469 C 0.01000 0.05863 0.97988
 O470 O -0.02796 0.00431 0.96456
 O471 O 0.03873 -0.04130 0.98068
 O472 O 0.00548 0.00950 0.95714
 O473 O 0.03318 -0.00933 0.96341
 O474 O 0.00028 -0.05891 0.99366
 O475 O -0.02820 -0.03816 0.98464
 C476 C 0.02111 -0.00035 0.95199
 H477 H 0.02644 -0.04387 1.01437
 H478 H -0.03618 -0.00442 1.00150
 H479 H 0.03042 0.02489 0.97935
 H480 H 0.01294 0.02388 1.04829
 H481 H -0.03951 -0.05466 1.01812
 H482 H -0.05278 0.00916 1.04531
 H483 H -0.03488 0.04121 1.04970
 H484 H 0.02321 0.07076 1.02627
 H485 H -0.00843 -0.07045 0.99759
 H486 H 0.05192 -0.04098 0.97465
 H487 H 0.06767 -0.00781 0.97554
 H488 H 0.05435 0.05677 1.00423
 H489 H -0.03476 -0.05163 0.98662
 H490 H -0.02988 0.01562 0.95516
 H491 H 0.04474 -0.01376 1.06786
 H492 H 0.05008 0.05284 1.03604
 Zr493 Zr 0.50971 0.47642 0.52904
 O494 O 0.53148 0.48669 0.54782
 O495 O 0.50245 0.44764 0.54095
 O496 O 0.49792 0.48099 0.55630
 O497 O 0.54306 0.46105 0.49523
 O498 O 0.47100 0.50132 0.55093
 O499 O 0.53644 0.45953 0.52671
 O500 O 0.47773 0.43639 0.52225
 O501 O 0.47914 0.47515 0.52549
 O502 O 0.50486 0.45927 0.50494
 O503 O 0.50025 0.50726 0.52661
 O504 O 0.52499 0.49199 0.50708
 Zr505 Zr 0.47874 0.50469 0.47564
 Zr506 Zr 0.46994 0.50569 0.52167
 Zr507 Zr 0.51851 0.47540 0.48291
 Zr508 Zr 0.47457 0.45901 0.50086
 O509 O 0.54498 0.48742 0.47133
 O510 O 0.44648 0.45418 0.51336
 O511 O 0.48820 0.47370 0.47767
 O512 O 0.46377 0.48904 0.49756
 O513 O 0.48352 0.52215 0.49960
 O514 O 0.50925 0.50577 0.47936
 C515 C 0.48920 0.43453 0.53652
 C516 C 0.54746 0.45596 0.51226
 C517 C 0.48280 0.49137 0.56191
 O518 O 0.44243 0.49409 0.53110
 O519 O 0.44708 0.52327 0.50970
 O520 O 0.45295 0.52305 0.47813
 C521 C 0.44266 0.52821 0.49265
 O522 O 0.53626 0.52635 0.52408
 Zr523 Zr 0.51394 0.52210 0.50370
 O524 O 0.48564 0.53365 0.46406
 O525 O 0.46934 0.53467 0.53471
 O526 O 0.50626 0.54887 0.51868
 O527 O 0.54135 0.52828 0.49032
 O528 O 0.50918 0.54586 0.48358
 C529 C 0.49790 0.54748 0.46914
 O530 O 0.45618 0.49493 0.45747
 O531 O 0.52029 0.44548 0.47181
 O532 O 0.48963 0.49894 0.44826
 O533 O 0.51553 0.47714 0.45355
 O534 O 0.48196 0.43115 0.48745
 O535 O 0.45439 0.45364 0.47879
 C536 C 0.50392 0.48742 0.44260
 H537 H 0.51017 0.44508 0.50606
 H538 H 0.44945 0.48847 0.49509
 H539 H 0.51633 0.51229 0.46861
 H540 H 0.50314 0.51489 0.53818
 H541 H 0.44369 0.43924 0.51303
 H542 H 0.43649 0.50468 0.53923
 H543 H 0.45657 0.53564 0.54147
 H544 H 0.51495 0.56015 0.51411
 H545 H 0.47274 0.42045 0.49222
 H546 H 0.53300 0.44464 0.46495
 H547 H 0.55079 0.47657 0.46340
 H548 H 0.54374 0.54328 0.49102
 H549 H 0.44726 0.44061 0.48138
 H550 H 0.45425 0.50603 0.44786
 H551 H 0.53348 0.47555 0.55739
 H552 H 0.54118 0.54067 0.52312
 Zr553 Zr 0.49342 1.03314 0.52055
 O554 O 0.47063 1.02302 0.53891
 O555 O 0.50185 1.06066 0.53285
 O556 O 0.50432 1.02741 0.54796
 O557 O 0.46197 1.05185 0.48618
 O558 O 0.53071 1.00629 0.54328
 O559 O 0.46760 1.05146 0.51777
 O560 O 0.52893 1.07037 0.51584
 O561 O 0.52410 1.03268 0.51761
 O562 O 0.50010 1.05127 0.49676
 O563 O 0.50135 1.00192 0.51848
 O564 O 0.47816 1.01957 0.49828
 Zr565 Zr 0.52491 1.00561 0.46790
 Zr566 Zr 0.53186 1.00188 0.51413
 Zr567 Zr 0.48645 1.03697 0.47437
 Zr568 Zr 0.53053 1.04981 0.49332
 O569 O 0.45988 1.02724 0.46194
 O570 O 0.55892 1.05231 0.50535
 O571 O 0.51701 1.03704 0.46978
 O572 O 0.53985 1.01930 0.49022
 O573 O 0.51825 0.98732 0.49170
 O574 O 0.49424 1.00625 0.47106
 C575 C 0.51694 1.07216 0.52982
 C576 C 0.45717 1.05621 0.50316
 C577 C 0.51921 1.01679 0.55391
 O578 O 0.56004 1.01084 0.52346
 O579 O 0.55342 0.98257 0.50270
 O580 O 0.54986 0.98589 0.47092
 C581 C 0.55860 0.97860 0.48574
 O582 O 0.46460 0.98515 0.51518
 Zr583 Zr 0.48776 0.98904 0.49520
 O584 O 0.51677 0.97769 0.45600
 O585 O 0.52990 0.97282 0.52797
 O586 O 0.49358 0.96111 0.51011
 O587 O 0.46047 0.98504 0.48139
 O588 O 0.49179 0.96617 0.47496
 C589 C 0.50338 0.96458 0.46068
 O590 O 0.54852 1.01497 0.45018
 O591 O 0.48684 1.06753 0.46353
 O592 O 0.51516 1.01304 0.44034
 O593 O 0.49039 1.03625 0.44510
 O594 O 0.52480 1.07921 0.48101
 O595 O 0.55102 1.05530 0.47109
 C596 C 0.50166 1.02558 0.43439
 H597 H 0.49552 1.06566 0.49800
 H598 H 0.55427 1.01904 0.48806
 H599 H 0.48715 1.00068 0.46017
 H600 H 0.49769 0.99408 0.53006
 H601 H 0.56253 1.06708 0.50505
 H602 H 0.56498 0.99961 0.53184
 H603 H 0.54237 0.97075 0.53495
 H604 H 0.48443 0.95060 0.50534
 H605 H 0.53450 1.08887 0.48624
 H606 H 0.47449 1.06951 0.45636
 H607 H 0.45496 1.03888 0.45405
 H608 H 0.45723 0.97018 0.48210
 H609 H 0.55843 1.06807 0.47348
 H610 H 0.55021 1.00423 0.44058
 H611 H 0.46882 1.03377 0.54848
 H612 H 0.45907 0.97114 0.51422
 Zr613 Zr -0.01133 0.52036 1.02069
 O614 O -0.03546 0.50997 1.03724
 O615 O -0.00414 0.54772 1.03377
 O616 O -0.00230 0.51417 1.04876
 O617 O -0.03837 0.54228 0.98435
 O618 O 0.02377 0.49229 1.04540
 O619 O -0.03678 0.53911 1.01631
 O620 O 0.02406 0.55800 1.01880
 O621 O 0.01951 0.51946 1.02005
 O622 O -0.00236 0.53888 0.99782
 O623 O -0.00357 0.48910 1.01853
 O624 O -0.02490 0.50777 0.99696
 Zr625 Zr 0.02396 0.49364 0.96988
 Zr626 Zr 0.02721 0.48862 1.01635
 Zr627 Zr -0.01429 0.52555 0.97411
 Zr628 Zr 0.02817 0.53710 0.99672
 O629 O -0.04041 0.51668 0.96039
 O630 O 0.05494 0.53866 1.01184
 O631 O 0.01651 0.52516 0.97187
 O632 O 0.03727 0.50653 0.99350
 O633 O 0.01520 0.47488 0.99271
 O634 O -0.00683 0.49477 0.97078
 C635 C 0.01075 0.55970 1.03168
 C636 C -0.04485 0.54597 1.00098
 C637 C 0.01192 0.50301 1.05546
 O638 O 0.05461 0.49672 1.02814
 O639 O 0.04976 0.46959 1.00603
 O640 O 0.04833 0.47356 0.97416
 C641 C 0.05614 0.46603 0.98934
 O642 O -0.04026 0.47355 1.01218
 Zr643 Zr -0.01547 0.47713 0.99403
 O644 O 0.01644 0.46611 0.95687
 O645 O 0.02376 0.45915 1.02910
 O646 O -0.01135 0.44877 1.00879
 O647 O -0.04157 0.47367 0.97817
 O648 O -0.01016 0.45464 0.97370
 C649 C 0.00252 0.45315 0.96027
 O650 O 0.04897 0.50313 0.95407
 O651 O -0.01202 0.55600 0.96320
 O652 O 0.01655 0.50162 0.94182
 O653 O -0.00833 0.52502 0.94509
 O654 O 0.02425 0.56654 0.98384
 O655 O 0.05113 0.54267 0.97684
 C656 C 0.00365 0.51436 0.93509
 H657 H -0.00674 0.55336 0.99886
 H658 H 0.05181 0.50613 0.99241
 H659 H -0.01314 0.48957 0.95932
 H660 H -0.00821 0.48106 1.02966
 H661 H 0.05873 0.55335 1.01234
 H662 H 0.05865 0.48515 1.03658
 H663 H 0.03556 0.45666 1.03697
 H664 H -0.02029 0.43860 1.00317
 H665 H 0.03341 0.57610 0.99001
 H666 H -0.02369 0.55845 0.95514
 H667 H -0.04438 0.52840 0.95210
 H668 H -0.04513 0.45889 0.97865
 H669 H 0.05867 0.55496 0.98050
 H670 H 0.05136 0.49260 0.94440
 H671 H -0.03796 0.52056 1.04682
 H672 H -0.04578 0.45958 1.01085
 Zr673 Zr -0.02028 0.47984 0.46956
 O674 O -0.03859 0.49664 0.45072
 O675 O -0.02042 0.45057 0.45801
 O676 O -0.00730 0.48165 0.44240
 O677 O -0.05678 0.47184 0.50285
 O678 O 0.02353 0.49381 0.44799
 O679 O -0.04981 0.46963 0.47153
 O680 O 0.00049 0.43210 0.47687
 O681 O 0.00895 0.47026 0.47333
 O682 O -0.01997 0.46107 0.49378
 O683 O -0.00389 0.50705 0.47190
 O684 O -0.03200 0.49809 0.49120
 Zr685 Zr 0.01532 0.49685 0.52316
 Zr686 Zr 0.02499 0.49724 0.47719
 Zr687 Zr -0.02997 0.47942 0.51552
 Zr688 Zr 0.00917 0.45248 0.49805
 O689 O -0.05281 0.49799 0.52651
 O690 O 0.03525 0.44099 0.48544
 O691 O -0.00109 0.46945 0.52100
 O692 O 0.02668 0.47861 0.50148
 O693 O 0.01512 0.51576 0.49899
 O694 O -0.01389 0.50625 0.51919
 C695 C -0.01108 0.43401 0.46262
 C696 C -0.06156 0.46802 0.48580
 C697 C 0.00997 0.48759 0.43693
 O698 O 0.04945 0.47932 0.46871
 O699 O 0.05063 0.50886 0.48936
 O700 O 0.04409 0.50927 0.52083
 C701 C 0.05533 0.51273 0.50641
 O702 O -0.03517 0.53442 0.47443
 Zr703 Zr -0.01418 0.52411 0.49461
 O704 O 0.01548 0.52627 0.53461
 O705 O 0.03232 0.52544 0.46353
 O706 O -0.00118 0.54859 0.47881
 O707 O -0.03867 0.53736 0.50858
 O708 O -0.00267 0.54527 0.51367
 C709 C 0.00826 0.54337 0.52834
 O710 O 0.03505 0.48076 0.54116
 O711 O -0.03926 0.45067 0.52689
 O712 O 0.00324 0.49227 0.55049
 O713 O -0.02705 0.47871 0.54487
 O714 O -0.00446 0.42693 0.51175
 O715 O 0.02734 0.44101 0.52015
 C716 C -0.01334 0.48444 0.55599
 H717 H -0.02836 0.44872 0.49279
 H718 H 0.04043 0.47438 0.50415
 H719 H -0.01916 0.51407 0.52993
 H720 H -0.00472 0.51555 0.46022
 H721 H 0.03435 0.42577 0.48563
 H722 H 0.05771 0.48829 0.46048
 H723 H 0.04503 0.52326 0.45693
 H724 H -0.00716 0.56160 0.48318
 H725 H 0.00197 0.41431 0.50702
 H726 H -0.05187 0.45313 0.53359
 H727 H -0.06123 0.48883 0.53441
 H728 H -0.03715 0.55251 0.50768
 H729 H 0.03151 0.42676 0.51741
 H730 H 0.03936 0.49058 0.55080
 H731 H -0.04310 0.48688 0.44113
 H732 H -0.03724 0.54943 0.47557
 Zr733 Zr 0.48134 -0.01453 -0.02981
 O734 O 0.46050 0.00277 -0.04558
 O735 O 0.48226 -0.04214 -0.04423
 O736 O 0.49197 -0.00934 -0.05754
 O737 O 0.44868 -0.02953 0.00516
 O738 O 0.52211 0.00510 -0.05312
 O739 O 0.45282 -0.02726 -0.02668
 O740 O 0.50631 -0.06049 -0.02909
 O741 O 0.51140 -0.02179 -0.02909
 O742 O 0.48516 -0.03585 -0.00769
 O743 O 0.49586 0.01361 -0.02610
 O744 O 0.47038 0.00006 -0.00564
 Zr745 Zr 0.52038 -0.00049 0.02235
 Zr746 Zr 0.52573 0.00591 -0.02391
 Zr747 Zr 0.47591 -0.02101 0.01646
 Zr748 Zr 0.51513 -0.04217 -0.00643
 O749 O 0.45266 -0.00616 0.03085
 O750 O 0.54085 -0.04990 -0.02184
 O751 O 0.50584 -0.02885 0.01883
 O752 O 0.53095 -0.01514 -0.00181
 O753 O 0.51666 0.02103 0.00034
 O754 O 0.49028 0.00655 0.02142
 C755 C 0.49338 -0.05804 -0.04217
 C756 C 0.44255 -0.03156 -0.01179
 C757 C 0.50834 -0.00164 -0.06367
 O758 O 0.55067 -0.00854 -0.03591
 O759 O 0.55153 0.01815 -0.01266
 O760 O 0.54817 0.01412 0.01910
 C761 C 0.55779 0.02007 0.00423
 O762 O 0.46376 0.03829 -0.01898
 Zr763 Zr 0.48650 0.02705 -0.00106
 O764 O 0.51940 0.02727 0.03665
 O765 O 0.52957 0.03595 -0.03535
 O766 O 0.49725 0.05421 -0.01452
 O767 O 0.46168 0.03607 0.01509
 O768 O 0.49678 0.04633 0.02026
 C769 C 0.50930 0.04376 0.03365
 O770 O 0.54244 -0.01694 0.03732
 O771 O 0.47017 -0.05160 0.02566
 O772 O 0.51082 -0.00825 0.05000
 O773 O 0.48136 -0.02415 0.04540
 O774 O 0.50451 -0.07023 0.00544
 O775 O 0.53586 -0.05443 0.01312
 C776 C 0.49530 -0.01782 0.05599
 H777 H 0.47761 -0.04869 -0.00933
 H778 H 0.54514 -0.01845 -0.00064
 H779 H 0.48523 0.01259 0.03317
 H780 H 0.49344 0.02319 -0.03685
 H781 H 0.54107 -0.06506 -0.02305
 H782 H 0.55744 0.00198 -0.04386
 H783 H 0.54178 0.03567 -0.04305
 H784 H 0.49092 0.06608 -0.00833
 H785 H 0.51133 -0.08159 -0.00106
 H786 H 0.45805 -0.05115 0.03348
 H787 H 0.44572 -0.01691 0.03839
 H788 H 0.46183 0.05129 0.01575
 H789 H 0.54062 -0.06796 0.00879
 H790 H 0.54695 -0.00793 0.04752
 H791 H 0.45585 -0.00620 -0.05575
 H792 H 0.46128 0.05301 -0.01646
 Zr793 Zr 0.52031 0.51784 -0.02683
 O794 O 0.54145 0.50340 -0.04417
 O795 O 0.51879 0.54725 -0.03896
 O796 O 0.50980 0.51549 -0.05473
 O797 O 0.55314 0.52816 0.00867
 O798 O 0.47983 0.50012 -0.05082
 O799 O 0.54873 0.53057 -0.02308
 O800 O 0.49502 0.56333 -0.02185
 O801 O 0.49016 0.52466 -0.02506
 O802 O 0.51649 0.53582 -0.00303
 O803 O 0.50600 0.48923 -0.02505
 O804 O 0.53167 0.50006 -0.00418
 Zr805 Zr 0.48191 0.49594 0.02476
 Zr806 Zr 0.47606 0.49625 -0.02171
 Zr807 Zr 0.52609 0.51771 0.01963
 Zr808 Zr 0.48649 0.54163 -0.00074
 O809 O 0.54942 0.50092 0.03234
 O810 O 0.46059 0.55112 -0.01507
 O811 O 0.49613 0.52484 0.02312
 O812 O 0.47097 0.51391 0.00211
 O813 O 0.48563 0.47794 0.00092
 O814 O 0.51204 0.48936 0.02272
 C815 C 0.50774 0.56276 -0.03537
 C816 C 0.55909 0.53283 -0.00809
 C817 C 0.49372 0.50778 -0.06111
 O818 O 0.45126 0.51237 -0.03240
 O819 O 0.45022 0.48258 -0.01098
 O820 O 0.45413 0.48175 0.02084
 C821 C 0.44427 0.47807 0.00580
 O822 O 0.53936 0.46497 -0.02003
 Zr823 Zr 0.51582 0.47246 -0.00153
 O824 O 0.48280 0.46591 0.03614
 O825 O 0.47197 0.46767 -0.03486
 O826 O 0.50656 0.44743 -0.01795
 O827 O 0.53990 0.46085 0.01438
 O828 O 0.50433 0.44960 0.01670
 C829 C 0.49183 0.44978 0.03035
 O830 O 0.45995 0.50983 0.04156
 O831 O 0.53193 0.54685 0.03111
 O832 O 0.49170 0.50006 0.05272
 O833 O 0.52075 0.51721 0.04868
 O834 O 0.49698 0.56784 0.01333
 O835 O 0.46575 0.55093 0.01995
 C836 C 0.50699 0.50941 0.05904
 H837 H 0.52389 0.54890 -0.00374
 H838 H 0.45677 0.51693 0.00383
 H839 H 0.51703 0.48160 0.03383
 H840 H 0.50848 0.48113 -0.03647
 H841 H 0.46022 0.56637 -0.01514
 H842 H 0.44438 0.50290 -0.04088
 H843 H 0.45979 0.46894 -0.04241
 H844 H 0.51332 0.43489 -0.01307
 H845 H 0.49010 0.58005 0.00791
 H846 H 0.54411 0.54536 0.03865
 H847 H 0.55638 0.51055 0.04062
 H848 H 0.53972 0.44565 0.01351
 H849 H 0.46084 0.56493 0.01674
 H850 H 0.45561 0.49930 0.05098
 H851 H 0.54590 0.51387 -0.05360
 H852 H 0.54274 0.45020 -0.01847
 Zr853 Zr 0.01781 1.02415 0.47625
 O854 O 0.03990 1.00882 0.46069
 O855 O 0.01458 1.05157 0.46077
 O856 O 0.00771 1.01786 0.44885
 O857 O 0.04938 1.04118 0.51041
 O858 O -0.02107 1.00058 0.45409
 O859 O 0.04551 1.03880 0.47869
 O860 O -0.01125 1.06744 0.47515
 O861 O -0.01270 1.02891 0.47708
 O862 O 0.01245 1.04508 0.49763
 O863 O 0.00538 0.99491 0.48113
 O864 O 0.02974 1.01039 0.50080
 Zr865 Zr -0.02019 1.00669 0.52948
 Zr866 Zr -0.02497 1.00015 0.48339
 Zr867 Zr 0.02265 1.03087 0.52223
 Zr868 Zr -0.01792 1.04888 0.49909
 O869 O 0.04675 1.01793 0.53714
 O870 O -0.04452 1.05463 0.48435
 O871 O -0.00777 1.03619 0.52470
 O872 O -0.03166 1.02063 0.50487
 O873 O -0.01488 0.98567 0.50806
 O874 O 0.01034 1.00216 0.52838
 C875 C 0.00176 1.06608 0.46195
 C876 C 0.05553 1.04354 0.49335
 C877 C -0.00777 1.00839 0.44318
 O878 O -0.05047 1.01294 0.47070
 O879 O -0.05022 0.98655 0.49524
 O880 O -0.04730 0.99060 0.52686
 C881 C -0.05662 0.98441 0.51221
 O882 O 0.03940 0.97317 0.48883
 Zr883 Zr 0.01566 0.98219 0.50649
 O884 O -0.01735 0.97870 0.54446
 O885 O -0.02690 0.96970 0.47360
 O886 O 0.00740 0.95429 0.49380
 O887 O 0.04082 0.97509 0.52297
 O888 O 0.00650 0.96180 0.52814
 C889 C -0.00626 0.96298 0.54153
 O890 O -0.04321 1.02121 0.54449
 O891 O 0.02618 1.06189 0.53003
 O892 O -0.01108 1.01524 0.55675
 O893 O 0.01690 1.03381 0.55104
 O894 O -0.00903 1.07779 0.50935
 O895 O -0.03907 1.05954 0.51882
 C896 C 0.00357 1.02632 0.56210
 H897 H 0.01906 1.05846 0.49533
 H898 H -0.04603 1.02293 0.50608
 H899 H 0.01575 0.99645 0.54028
 H900 H 0.00855 0.98552 0.47074
 H901 H -0.04589 1.06974 0.48267
 H902 H -0.05657 1.00192 0.46330
 H903 H -0.03899 0.96905 0.46590
 H904 H 0.01469 0.94296 0.50025
 H905 H -0.01670 1.08852 0.50248
 H906 H 0.03829 1.06245 0.53770
 H907 H 0.05286 1.02923 0.54417
 H908 H 0.04180 0.95989 0.52409
 H909 H -0.04461 1.07286 0.51431
 H910 H -0.04698 1.01174 0.55500
 H911 H 0.04382 1.01823 0.45018
 H912 H 0.04322 0.95878 0.49194
 Zr913 Zr 0.73103 0.27022 0.22344
 O914 O 0.74190 0.28822 0.20055
 O915 O 0.70113 0.26835 0.21736
 O916 O 0.72819 0.25424 0.19786
 O917 O 0.72707 0.31087 0.25380
 O918 O 0.74139 0.22271 0.20502
 O919 O 0.71944 0.30050 0.22428
 O920 O 0.68858 0.24791 0.24093
 O921 O 0.72454 0.23983 0.23164
 O922 O 0.71827 0.27136 0.25023
 O923 O 0.75810 0.25443 0.22284
 O924 O 0.75177 0.28531 0.24028
 Zr925 Zr 0.76004 0.23897 0.27643
 Zr926 Zr 0.75170 0.22457 0.23257
 Zr927 Zr 0.73922 0.28468 0.26728
 Zr928 Zr 0.71278 0.24116 0.25869
 O929 O 0.75755 0.31020 0.27237
 O930 O 0.70112 0.21258 0.25031
 O931 O 0.73277 0.25476 0.27711
 O932 O 0.73919 0.22436 0.25950
 O933 O 0.77293 0.23770 0.24969
 O934 O 0.76623 0.26937 0.26813
 C935 C 0.68688 0.25894 0.22574
 C936 C 0.71942 0.31389 0.23745
 C937 C 0.73273 0.23553 0.19379
 O938 O 0.73517 0.19721 0.23014
 O939 O 0.76701 0.19968 0.24484
 O940 O 0.77311 0.20928 0.27488
 C941 C 0.77427 0.19643 0.26129
 O942 O 0.78227 0.28839 0.21765
 Zr943 Zr 0.77803 0.26808 0.24111
 O944 O 0.79008 0.24126 0.28262
 O945 O 0.77569 0.21713 0.21481
 O946 O 0.79875 0.25419 0.22284
 O947 O 0.79178 0.29534 0.25024
 O948 O 0.80256 0.25869 0.25712
 C949 C 0.80446 0.24862 0.27277
 O950 O 0.75007 0.21930 0.29856
 O951 O 0.71401 0.29434 0.28246
 O952 O 0.75956 0.25363 0.30281
 O953 O 0.74436 0.28427 0.29625
 O954 O 0.69083 0.25538 0.27537
 O955 O 0.70755 0.22360 0.28374
 C956 C 0.75205 0.27102 0.30771
 H957 H 0.70591 0.27945 0.25066
 H958 H 0.73664 0.21014 0.26415
 H959 H 0.77536 0.27617 0.27683
 H960 H 0.76364 0.25443 0.20993
 H961 H 0.68676 0.21287 0.25293
 H962 H 0.74238 0.18833 0.22124
 H963 H 0.77313 0.20320 0.20999
 H964 H 0.81145 0.26145 0.22426
 H965 H 0.67837 0.24780 0.27354
 H966 H 0.71689 0.30820 0.28731
 H967 H 0.75006 0.31936 0.28081
 H968 H 0.80594 0.29432 0.24692
 H969 H 0.69396 0.21812 0.28359
 H970 H 0.76158 0.21623 0.30671
 H971 H 0.73048 0.29166 0.19242
 H972 H 0.79647 0.29151 0.21619
 Zr973 Zr 0.76623 0.72958 0.72199
 O974 O 0.75412 0.70874 0.70275
 O975 O 0.79336 0.73650 0.70948
 O976 O 0.76148 0.74427 0.69550
 O977 O 0.78134 0.69164 0.75342
 O978 O 0.74388 0.77298 0.70284
 O979 O 0.78189 0.70128 0.72238
 O980 O 0.80666 0.76013 0.72893
 O981 O 0.76921 0.76107 0.72692
 O982 O 0.78408 0.73204 0.74570
 O983 O 0.73737 0.74067 0.72584
 O984 O 0.75182 0.71259 0.74360
 Zr985 Zr 0.74358 0.75904 0.77773
 Zr986 Zr 0.74068 0.77177 0.73220
 Zr987 Zr 0.76917 0.71680 0.76750
 Zr988 Zr 0.78613 0.76323 0.75114
 O989 O 0.75670 0.68907 0.77811
 O990 O 0.79144 0.79308 0.73964
 O991 O 0.77261 0.74790 0.77407
 O992 O 0.75809 0.77562 0.75605
 O993 O 0.72559 0.75661 0.75407
 O994 O 0.74075 0.72760 0.77265
 C995 C 0.80696 0.74908 0.71410
 C996 C 0.78571 0.68857 0.73608
 C997 C 0.75241 0.76115 0.69099
 O998 O 0.75230 0.80085 0.72422
 O999 O 0.72496 0.79500 0.74584
 O1000 O 0.72667 0.78662 0.77707
 C1001 C 0.72105 0.79837 0.76322
 O1002 O 0.71804 0.70327 0.72762
 Zr1003 Zr 0.72381 0.72529 0.74856
 O1004 O 0.71585 0.75296 0.78961
 O1005 O 0.71250 0.77443 0.71979
 O1006 O 0.69792 0.73488 0.73424
 O1007 O 0.71691 0.69652 0.76155
 O1008 O 0.70194 0.73108 0.76890
 C1009 C 0.70140 0.74218 0.78368
 O1010 O 0.75493 0.78089 0.79646
 O1011 O 0.79822 0.71236 0.77750
 O1012 O 0.75041 0.74556 0.80438
 O1013 O 0.76961 0.71797 0.79693
 O1014 O 0.81304 0.75334 0.76340
 O1015 O 0.79339 0.78250 0.77384
 C1016 C 0.76134 0.72990 0.80887
 H1017 H 0.79735 0.72601 0.74392
 H1018 H 0.75935 0.79033 0.75919
 H1019 H 0.73463 0.71994 0.78333
 H1020 H 0.72943 0.73891 0.71436
 H1021 H 0.80589 0.79522 0.73952
 H1022 H 0.74207 0.80804 0.71664
 H1023 H 0.71183 0.78826 0.71368
 H1024 H 0.68701 0.72591 0.73869
 H1025 H 0.82351 0.76273 0.75866
 H1026 H 0.79865 0.69855 0.78366
 H1027 H 0.76717 0.68179 0.78531
 H1028 H 0.70240 0.69498 0.76122
 H1029 H 0.80601 0.78957 0.77107
 H1030 H 0.74491 0.78273 0.80650
 H1031 H 0.76410 0.70678 0.69270
 H1032 H 0.70438 0.69817 0.72908
 Zr1033 Zr 0.22651 0.23937 0.77169
 O1034 O 0.23450 0.21488 0.79022
 O1035 O 0.19972 0.24887 0.78318
 O1036 O 0.23155 0.25030 0.79914
 O1037 O 0.20790 0.20829 0.73722
 O1038 O 0.25397 0.27601 0.79446
 O1039 O 0.20760 0.21367 0.76882
 O1040 O 0.19131 0.27692 0.76517
 O1041 O 0.22829 0.27144 0.76866
 O1042 O 0.21060 0.24739 0.74752
 O1043 O 0.25677 0.24607 0.76982
 O1044 O 0.23967 0.22279 0.74967
 Zr1045 Zr 0.25626 0.27099 0.71909
 Zr1046 Zr 0.25829 0.27795 0.76525
 Zr1047 Zr 0.22448 0.23249 0.72542
 Zr1048 Zr 0.21323 0.27907 0.74403
 O1049 O 0.23321 0.20404 0.71395
 O1050 O 0.21158 0.30806 0.75711
 O1051 O 0.22580 0.26442 0.72069
 O1052 O 0.24289 0.28721 0.74110
 O1053 O 0.27250 0.26305 0.74315
 O1054 O 0.25430 0.23901 0.72243
 C1055 C 0.18837 0.26412 0.77897
 C1056 C 0.20264 0.20353 0.75415
 C1057 C 0.24299 0.26458 0.80510
 O1058 O 0.25029 0.30741 0.77498
 O1059 O 0.27739 0.30028 0.75368
 O1060 O 0.27592 0.29597 0.72200
 C1061 C 0.28218 0.30530 0.73667
 O1062 O 0.27105 0.20669 0.76699
 Zr1063 Zr 0.26940 0.23127 0.74687
 O1064 O 0.28328 0.26138 0.70778
 O1065 O 0.28597 0.27461 0.77852
 O1066 O 0.29572 0.23551 0.76219
 O1067 O 0.27274 0.20276 0.73317
 O1068 O 0.29238 0.23461 0.72707
 C1069 C 0.29513 0.24682 0.71284
 O1070 O 0.24889 0.29610 0.70100
 O1071 O 0.19596 0.23467 0.71367
 O1072 O 0.25007 0.26130 0.69154
 O1073 O 0.22683 0.23639 0.69608
 O1074 O 0.18586 0.27527 0.73032
 O1075 O 0.20998 0.30165 0.72222
 C1076 C 0.23794 0.24774 0.68547
 H1077 H 0.19656 0.24338 0.74834
 H1078 H 0.24374 0.30227 0.73884
 H1079 H 0.25985 0.23140 0.71170
 H1080 H 0.26372 0.24172 0.78144
 H1081 H 0.19762 0.31255 0.75685
 H1082 H 0.26105 0.31194 0.78328
 H1083 H 0.28825 0.28740 0.78552
 H1084 H 0.30550 0.22540 0.75761
 H1085 H 0.17669 0.28585 0.73516
 H1086 H 0.19382 0.22183 0.70671
 H1087 H 0.22230 0.19949 0.70583
 H1088 H 0.28678 0.19863 0.73416
 H1089 H 0.19856 0.31062 0.72507
 H1090 H 0.25962 0.29744 0.69153
 H1091 H 0.22374 0.21344 0.79964
 H1092 H 0.28419 0.20007 0.76624
 Zr1093 Zr 0.26756 0.75863 0.28154
 O1094 O 0.25850 0.78005 0.30191
 O1095 O 0.29485 0.74900 0.29205
 O1096 O 0.26298 0.74409 0.30815
 O1097 O 0.28335 0.79573 0.24950
 O1098 O 0.24314 0.71699 0.30157
 O1099 O 0.28492 0.78578 0.28042
 O1100 O 0.30459 0.72408 0.27189
 O1101 O 0.26776 0.72708 0.27603
 O1102 O 0.28369 0.75506 0.25668
 O1103 O 0.23778 0.75011 0.27951
 O1104 O 0.25313 0.77720 0.26114
 Zr1105 Zr 0.23934 0.73235 0.22718
 Zr1106 Zr 0.23825 0.71895 0.27253
 Zr1107 Zr 0.26860 0.77194 0.23608
 Zr1108 Zr 0.28297 0.72390 0.25072
 O1109 O 0.25790 0.80101 0.22670
 O1110 O 0.28663 0.69326 0.26098
 O1111 O 0.26929 0.74081 0.22889
 O1112 O 0.25387 0.71409 0.24757
 O1113 O 0.22299 0.73586 0.25196
 O1114 O 0.23922 0.76380 0.23284
 C1115 C 0.30681 0.73487 0.28670
 C1116 C 0.28869 0.79838 0.26659
 C1117 C 0.25297 0.72798 0.31303
 O1118 O 0.24822 0.68886 0.27948
 O1119 O 0.22016 0.69727 0.25961
 O1120 O 0.22081 0.70620 0.22848
 C1121 C 0.21519 0.69457 0.24241
 O1122 O 0.22120 0.78889 0.27979
 Zr1123 Zr 0.22401 0.76712 0.25802
 O1124 O 0.21151 0.74125 0.21734
 O1125 O 0.21076 0.71844 0.28670
 O1126 O 0.19834 0.75931 0.27370
 O1127 O 0.21870 0.79684 0.24619
 O1128 O 0.20072 0.76428 0.23889
 C1129 C 0.19848 0.75352 0.22408
 O1130 O 0.24781 0.71012 0.20731
 O1131 O 0.29716 0.77363 0.22408
 O1132 O 0.24524 0.74569 0.20034
 O1133 O 0.26648 0.77169 0.20668
 O1134 O 0.31000 0.73170 0.23731
 O1135 O 0.28740 0.70499 0.22703
 C1136 C 0.25652 0.76078 0.19525
 H1137 H 0.29745 0.75989 0.25771
 H1138 H 0.25386 0.69941 0.24414
 H1139 H 0.23304 0.77226 0.22275
 H1140 H 0.23068 0.75234 0.29150
 H1141 H 0.30082 0.68979 0.26002
 H1142 H 0.23795 0.68242 0.28760
 H1143 H 0.20947 0.70461 0.29271
 H1144 H 0.18791 0.76935 0.27016
 H1145 H 0.31985 0.72117 0.24120
 H1146 H 0.29833 0.78744 0.21802
 H1147 H 0.26842 0.80739 0.21884
 H1148 H 0.20444 0.79979 0.24762
 H1149 H 0.29962 0.69679 0.22873
 H1150 H 0.23707 0.70934 0.19795
 H1151 H 0.26924 0.78088 0.31125
 H1152 H 0.20784 0.79506 0.27945
 Zr1153 Zr 0.22433 0.76566 0.72783
 O1154 O 0.23483 0.78584 0.70632
 O1155 O 0.19499 0.76175 0.72013
 O1156 O 0.22408 0.75132 0.70130
 O1157 O 0.21698 0.80430 0.75988
 O1158 O 0.23949 0.72065 0.70716
 O1159 O 0.21097 0.79508 0.72967
 O1160 O 0.18274 0.73966 0.74255
 O1161 O 0.21914 0.73458 0.73443
 O1162 O 0.21056 0.76474 0.75420
 O1163 O 0.25223 0.75147 0.72756
 O1164 O 0.24370 0.78085 0.74604
 Zr1165 Zr 0.25281 0.73323 0.78045
 Zr1166 Zr 0.24701 0.72082 0.73565
 Zr1167 Zr 0.23022 0.77824 0.77256
 Zr1168 Zr 0.20636 0.73392 0.76118
 O1169 O 0.24681 0.80475 0.77869
 O1170 O 0.19646 0.70499 0.75181
 O1171 O 0.22484 0.74758 0.78098
 O1172 O 0.23347 0.71848 0.76211
 O1173 O 0.26681 0.73402 0.75416
 O1174 O 0.25789 0.76425 0.77362
 C1175 C 0.18107 0.75088 0.72749
 C1176 C 0.20981 0.80774 0.74339
 C1177 C 0.23098 0.73376 0.69612
 O1178 O 0.23135 0.69338 0.73072
 O1179 O 0.26257 0.69591 0.74760
 O1180 O 0.26697 0.70416 0.77827
 C1181 C 0.26921 0.69209 0.76420
 O1182 O 0.27479 0.78705 0.72491
 Zr1183 Zr 0.27079 0.76501 0.74708
 O1184 O 0.28251 0.73615 0.78755
 O1185 O 0.27245 0.71509 0.71921
 O1186 O 0.29267 0.75336 0.72869
 O1187 O 0.28311 0.79215 0.75806
 O1188 O 0.29518 0.75553 0.76332
 C1189 C 0.29693 0.74451 0.77848
 O1190 O 0.24264 0.71240 0.80159
 O1191 O 0.20423 0.78519 0.78778
 O1192 O 0.25157 0.74689 0.80727
 O1193 O 0.23575 0.77740 0.80151
 O1194 O 0.18284 0.74625 0.77721
 O1195 O 0.20122 0.71527 0.78560
 C1196 C 0.24419 0.76421 0.81256
 H1197 H 0.19772 0.77201 0.75444
 H1198 H 0.23139 0.70395 0.76604
 H1199 H 0.26652 0.77101 0.78279
 H1200 H 0.25840 0.75259 0.71494
 H1201 H 0.18205 0.70439 0.75405
 H1202 H 0.23951 0.68518 0.72201
 H1203 H 0.27077 0.70135 0.71364
 H1204 H 0.30498 0.76106 0.73092
 H1205 H 0.17097 0.73795 0.77469
 H1206 H 0.20612 0.79895 0.79323
 H1207 H 0.23868 0.81306 0.78734
 H1208 H 0.29741 0.79190 0.75515
 H1209 H 0.18787 0.70924 0.78500
 H1210 H 0.25394 0.70932 0.80998
 H1211 H 0.22356 0.78893 0.69788
 H1212 H 0.28888 0.79081 0.72396
 Zr1213 Zr 0.26799 0.22199 0.21443
 O1214 O 0.25482 0.19909 0.19798
 O1215 O 0.29515 0.22585 0.20106
 O1216 O 0.26359 0.23330 0.18655
 O1217 O 0.28332 0.18857 0.24988
 O1218 O 0.24627 0.26307 0.19061
 O1219 O 0.28284 0.19339 0.21801
 O1220 O 0.30932 0.25196 0.21702
 O1221 O 0.27188 0.25390 0.21550
 O1222 O 0.28632 0.22729 0.23735
 O1223 O 0.23952 0.23448 0.21720
 O1224 O 0.25353 0.20860 0.23800
 Zr1225 Zr 0.24715 0.25985 0.26621
 Zr1226 Zr 0.24374 0.26620 0.21980
 Zr1227 Zr 0.27143 0.21568 0.26092
 Zr1228 Zr 0.28933 0.25897 0.23892
 O1229 O 0.25857 0.18965 0.27442
 O1230 O 0.29519 0.28679 0.22386
 O1231 O 0.27583 0.24742 0.26366
 O1232 O 0.26172 0.27286 0.24266
 O1233 O 0.22863 0.25465 0.24337
 O1234 O 0.24339 0.22798 0.26491
 C1235 C 0.30915 0.23863 0.20383
 C1236 C 0.28707 0.18279 0.23303
 C1237 C 0.25462 0.24958 0.18024
 O1238 O 0.25603 0.29356 0.20823
 O1239 O 0.22892 0.29174 0.23079
 O1240 O 0.23094 0.28763 0.26263
 C1241 C 0.22538 0.29757 0.24765
 O1242 O 0.21928 0.19819 0.22352
 Zr1243 Zr 0.22593 0.22280 0.24163
 O1244 O 0.21951 0.25647 0.27898
 O1245 O 0.21539 0.26801 0.20764
 O1246 O 0.20005 0.23124 0.22676
 O1247 O 0.21835 0.19618 0.25779
 O1248 O 0.20471 0.23193 0.26155
 C1249 C 0.20477 0.24513 0.27480
 O1250 O 0.25976 0.28366 0.28199
 O1251 O 0.30042 0.21239 0.27138
 O1252 O 0.25328 0.24974 0.29409
 O1253 O 0.27161 0.22064 0.29000
 O1254 O 0.31627 0.25017 0.25180
 O1255 O 0.29760 0.28115 0.25893
 C1256 C 0.26341 0.23424 0.30041
 H1257 H 0.29941 0.22066 0.23618
 H1258 H 0.26342 0.28787 0.24403
 H1259 H 0.23716 0.22196 0.27636
 H1260 H 0.23134 0.23135 0.20614
 H1261 H 0.30969 0.28841 0.22318
 H1262 H 0.24582 0.29999 0.20010
 H1263 H 0.21496 0.28092 0.19999
 H1264 H 0.18898 0.22330 0.23239
 H1265 H 0.32685 0.25849 0.24578
 H1266 H 0.30069 0.19952 0.27910
 H1267 H 0.26892 0.18320 0.28237
 H1268 H 0.20380 0.19502 0.25768
 H1269 H 0.31028 0.28747 0.25508
 H1270 H 0.25001 0.28736 0.29182
 H1271 H 0.26457 0.19538 0.18816
 H1272 H 0.20542 0.19394 0.22548
 Zr1273 Zr 0.72416 0.73921 0.28262
 O1274 O 0.73351 0.71684 0.30274
 O1275 O 0.69649 0.74737 0.29320
 O1276 O 0.72841 0.75238 0.30942
 O1277 O 0.70928 0.70366 0.25016
 O1278 O 0.74819 0.77994 0.30292
 O1279 O 0.70740 0.71172 0.28121
 O1280 O 0.68623 0.77294 0.27310
 O1281 O 0.72334 0.77106 0.27743
 O1282 O 0.70820 0.74381 0.25779
 O1283 O 0.75379 0.74846 0.28046
 O1284 O 0.73911 0.72216 0.26192
 Zr1285 Zr 0.75226 0.76918 0.22828
 Zr1286 Zr 0.75273 0.77997 0.27379
 Zr1287 Zr 0.72373 0.72847 0.23693
 Zr1288 Zr 0.70829 0.77530 0.25216
 O1289 O 0.73511 0.70014 0.22738
 O1290 O 0.70395 0.80507 0.26318
 O1291 O 0.72247 0.75998 0.23005
 O1292 O 0.73721 0.78591 0.24894
 O1293 O 0.76850 0.76463 0.25297
 O1294 O 0.75295 0.73743 0.23370
 C1295 C 0.68405 0.76119 0.28777
 C1296 C 0.70390 0.69989 0.26724
 C1297 C 0.73857 0.76814 0.31438
 O1298 O 0.74197 0.80932 0.28124
 O1299 O 0.77040 0.80279 0.26104
 O1300 O 0.77027 0.79570 0.22980
 C1301 C 0.77554 0.80660 0.24389
 O1302 O 0.77127 0.71010 0.28026
 Zr1303 Zr 0.76806 0.73303 0.25875
 O1304 O 0.78025 0.76141 0.21808
 O1305 O 0.78023 0.78042 0.28763
 O1306 O 0.79347 0.74058 0.27434
 O1307 O 0.77405 0.70409 0.24666
 O1308 O 0.79135 0.73751 0.23943
 C1309 C 0.79342 0.74893 0.22456
 O1310 O 0.74326 0.79223 0.20866
 O1311 O 0.69532 0.72687 0.22496
 O1312 O 0.74726 0.75684 0.20138
 O1313 O 0.72609 0.73032 0.20748
 O1314 O 0.68171 0.76780 0.23840
 O1315 O 0.70361 0.79587 0.22898
 C1316 C 0.73628 0.74182 0.19617
 H1317 H 0.69454 0.73860 0.25875
 H1318 H 0.73694 0.80079 0.24568
 H1319 H 0.75937 0.72961 0.22354
 H1320 H 0.76090 0.74567 0.29236
 H1321 H 0.68968 0.80824 0.26246
 H1322 H 0.75210 0.81558 0.28929
 H1323 H 0.78127 0.79396 0.29369
 H1324 H 0.80415 0.73103 0.27059
 H1325 H 0.67153 0.77777 0.24246
 H1326 H 0.69447 0.71337 0.21878
 H1327 H 0.72482 0.69395 0.21947
 H1328 H 0.78838 0.70144 0.24789
 H1329 H 0.69128 0.80374 0.23100
 H1330 H 0.75404 0.79382 0.19927
 H1331 H 0.72270 0.71525 0.31210
 H1332 H 0.78478 0.70431 0.27981
 Zr1333 Zr 0.76815 0.26284 0.78239
 O1334 O 0.76214 0.28288 0.80482
 O1335 O 0.79558 0.25062 0.78993
 O1336 O 0.76587 0.24620 0.80824
 O1337 O 0.78235 0.30186 0.75159
 O1338 O 0.74478 0.22019 0.80154
 O1339 O 0.78684 0.28903 0.78137
 O1340 O 0.80243 0.22765 0.76694
 O1341 O 0.76647 0.23201 0.77458
 O1342 O 0.78153 0.26093 0.75593
 O1343 O 0.73795 0.25557 0.78269
 O1344 O 0.75238 0.28359 0.76485
 Zr1345 Zr 0.73342 0.24243 0.72930
 Zr1346 Zr 0.73647 0.22522 0.77350
 Zr1347 Zr 0.76504 0.28008 0.73813
 Zr1348 Zr 0.77893 0.23053 0.74781
 O1349 O 0.75471 0.31029 0.73217
 O1350 O 0.78230 0.19892 0.75519
 O1351 O 0.76372 0.24975 0.72868
 O1352 O 0.74926 0.22202 0.74688
 O1353 O 0.71973 0.24427 0.75567
 O1354 O 0.73516 0.27320 0.73718
 C1355 C 0.80620 0.23648 0.78253
 C1356 C 0.78978 0.30263 0.76813
 C1357 C 0.75626 0.22969 0.81272
 O1358 O 0.74570 0.19426 0.77720
 O1359 O 0.71625 0.20547 0.76098
 O1360 O 0.71417 0.21680 0.73054
 C1361 C 0.70960 0.20422 0.74415
 O1362 O 0.72261 0.29435 0.78740
 Zr1363 Zr 0.72263 0.27478 0.76383
 O1364 O 0.70542 0.25376 0.72244
 O1365 O 0.71074 0.22446 0.79043
 O1366 O 0.69829 0.26612 0.78101
 O1367 O 0.71752 0.30570 0.75495
 O1368 O 0.69749 0.27490 0.74655
 C1369 C 0.69367 0.26608 0.73096
 O1370 O 0.73865 0.22169 0.70722
 O1371 O 0.79215 0.28164 0.72335
 O1372 O 0.73742 0.25759 0.70297
 O1373 O 0.75954 0.28284 0.70919
 O1374 O 0.80490 0.23860 0.73272
 O1375 O 0.78009 0.21403 0.72234
 C1376 C 0.74831 0.27301 0.69799
 H1377 H 0.79555 0.26505 0.75601
 H1378 H 0.74831 0.20772 0.74245
 H1379 H 0.72841 0.28280 0.72835
 H1380 H 0.73226 0.25690 0.79546
 H1381 H 0.79615 0.19503 0.75250
 H1382 H 0.73610 0.18750 0.78584
 H1383 H 0.70953 0.21020 0.79551
 H1384 H 0.68788 0.27669 0.77918
 H1385 H 0.81459 0.22735 0.73484
 H1386 H 0.79331 0.29588 0.71822
 H1387 H 0.76458 0.31699 0.72378
 H1388 H 0.70359 0.30904 0.75786
 H1389 H 0.79208 0.20532 0.72218
 H1390 H 0.72698 0.22225 0.69888
 H1391 H 0.77379 0.28245 0.81317
 H1392 H 0.70945 0.30078 0.78878
 C1393 C 0.45082 1.00248 0.29865
 C1394 C 0.46278 1.00209 0.31461
 C1395 C 0.45880 1.01500 0.32968
 C1396 C 0.44232 1.02810 0.32863
 C1397 C 0.43023 1.02842 0.31279
 C1398 C 0.43414 1.01560 0.29735
 C1399 C 0.47124 1.01362 0.34676
 C1400 C 0.47416 1.02980 0.35783
 C1401 C 0.48392 1.02884 0.37651
 C1402 C 0.48140 1.04573 0.38827
 C1403 C 0.48813 1.04501 0.40674
 C1404 C 0.49780 1.02742 0.41395
 C1405 C 0.50153 1.01097 0.40191
 C1406 C 0.49462 1.01162 0.38334
 H1407 H 0.45526 0.99282 0.28718
 H1408 H 0.47536 0.99178 0.31510
 H1409 H 0.43826 1.03764 0.34034
 H1410 H 0.41725 1.03808 0.31334
 H1411 H 0.47772 0.99882 0.35023
 H1412 H 0.46803 1.04456 0.35351
 H1413 H 0.47345 1.05929 0.38340
 H1414 H 0.48517 1.05803 0.41561
 H1415 H 0.50894 0.99721 0.40709
 H1416 H 0.49737 0.99844 0.37469
 C1417 C -0.07252 0.53940 0.81474
 C1418 C -0.06173 0.53972 0.83135
 C1419 C -0.04489 0.52741 0.83377
 C1420 C -0.03894 0.51480 0.81892
 C1421 C -0.04980 0.51437 0.80224
 C1422 C -0.06691 0.52664 0.79977
 C1423 C -0.03462 0.52819 0.85216
 C1424 C -0.01861 0.51714 0.85712
 C1425 C -0.01031 0.51773 0.87640
 C1426 C -0.00076 0.50022 0.88393
 C1427 C 0.00503 0.49948 0.90282
 C1428 C 0.00135 0.51629 0.91447
 C1429 C -0.00687 0.53432 0.90655
 C1430 C -0.01243 0.53513 0.88771
 H1431 H -0.08587 0.54852 0.81427
 H1432 H -0.06683 0.54950 0.84255
 H1433 H -0.02596 0.50519 0.81995
 H1434 H -0.04424 0.50482 0.79111
 H1435 H -0.04137 0.53797 0.86254
 H1436 H -0.01218 0.50630 0.84753
 H1437 H 0.00136 0.48673 0.87545
 H1438 H 0.01133 0.48537 0.90856
 H1439 H -0.00954 0.54765 0.91512
 H1440 H -0.01876 0.54930 0.88220
 C1441 C 0.08750 -0.03050 0.82450
 C1442 C 0.07987 -0.02975 0.84275
 C1443 C 0.06159 -0.02039 0.84634
 C1444 C 0.05078 -0.01224 0.83107
 C1445 C 0.05837 -0.01312 0.81274
 C1446 C 0.07691 -0.02212 0.80923
 C1447 C 0.05455 -0.01974 0.86614
 C1448 C 0.04120 -0.00627 0.87271
 C1449 C 0.03609 -0.00490 0.89304
 C1450 C 0.01795 0.00373 0.89850
 C1451 C 0.01294 0.00538 0.91759
 C1452 C 0.02605 -0.00149 0.93163
 C1453 C 0.04436 -0.00969 0.92609
 C1454 C 0.04936 -0.01124 0.90714
 H1455 H 0.10194 -0.03724 0.82244
 H1456 H 0.08851 -0.03620 0.85422
 H1457 H 0.03639 -0.00543 0.83312
 H1458 H 0.04963 -0.00688 0.80127
 H1459 H 0.06142 -0.03057 0.87584
 H1460 H 0.03389 0.00434 0.86311
 H1461 H 0.00757 0.00905 0.88795
 H1462 H -0.00122 0.01190 0.92135
 H1463 H 0.05505 -0.01481 0.93643
 H1464 H 0.06386 -0.01705 0.90372
 C1465 C 0.58512 0.47071 0.32246
 C1466 C 0.57553 0.47092 0.33987
 C1467 C 0.55605 0.47808 0.34147
 C1468 C 0.54628 0.48496 0.32508
 C1469 C 0.55593 0.48479 0.30761
 C1470 C 0.57545 0.47762 0.30610
 C1471 C 0.54663 0.47744 0.36040
 C1472 C 0.52958 0.48676 0.36499
 C1473 C 0.52138 0.48584 0.38442
 C1474 C 0.50960 0.50210 0.39091
 C1475 C 0.50303 0.50231 0.40964
 C1476 C 0.50812 0.48619 0.42219
 C1477 C 0.51891 0.46939 0.41537
 C1478 C 0.52531 0.46911 0.39671
 H1479 H 0.60023 0.46537 0.32185
 H1480 H 0.58344 0.46549 0.35220
 H1481 H 0.53115 0.49016 0.32551
 H1482 H 0.54800 0.48995 0.29521
 H1483 H 0.55479 0.46943 0.37136
 H1484 H 0.52198 0.49634 0.35474
 H1485 H 0.50608 0.51502 0.38165
 H1486 H 0.49472 0.51545 0.41449
 H1487 H 0.52274 0.45653 0.42458
 H1488 H 0.53348 0.45581 0.39206
 C1489 C 0.58132 0.53474 0.18037
 C1490 C 0.57227 0.53323 0.16289
 C1491 C 0.55410 0.52319 0.16106
 C1492 C 0.54517 0.51460 0.17733
 C1493 C 0.55431 0.51606 0.19489
 C1494 C 0.57246 0.52623 0.19661
 C1495 C 0.54531 0.52251 0.14195
 C1496 C 0.52848 0.51298 0.13736
 C1497 C 0.52100 0.51315 0.11771
 C1498 C 0.50971 0.49660 0.11132
 C1499 C 0.50406 0.49570 0.09237
 C1500 C 0.50967 0.51137 0.07956
 C1501 C 0.51984 0.52849 0.08626
 C1502 C 0.52524 0.52950 0.10508
 H1503 H 0.59544 0.54237 0.18113
 H1504 H 0.57957 0.53998 0.15068
 H1505 H 0.53113 0.50687 0.17673
 H1506 H 0.54704 0.50949 0.20719
 H1507 H 0.55369 0.53009 0.13085
 H1508 H 0.52042 0.50402 0.14777
 H1509 H 0.50592 0.48398 0.12082
 H1510 H 0.49620 0.48234 0.08758
 H1511 H 0.52399 0.54102 0.07677
 H1512 H 0.53296 0.54305 0.10959
 C1513 C 0.06032 1.00977 0.69395
 C1514 C 0.04902 1.00855 0.67766
 C1515 C 0.04110 1.02627 0.66902
 C1516 C 0.04448 1.04538 0.67739
 C1517 C 0.05592 1.04667 0.69368
 C1518 C 0.06414 1.02887 0.70236
 C1519 C 0.02991 1.02387 0.65120
 C1520 C 0.02549 1.03944 0.63923
 C1521 C 0.01737 1.03641 0.62010
 C1522 C 0.02152 1.05138 0.60619
 C1523 C 0.01613 1.04843 0.58755
 C1524 C 0.00612 1.03055 0.58234
 C1525 C 0.00073 1.01612 0.59640
 C1526 C 0.00636 1.01897 0.61515
 H1527 H 0.06677 0.99558 0.69925
 H1528 H 0.04683 0.99361 0.67154
 H1529 H 0.03821 1.05945 0.67167
 H1530 H 0.05759 1.06168 0.69975
 H1531 H 0.02667 1.00830 0.64712
 H1532 H 0.02988 1.05492 0.64252
 H1533 H 0.02973 1.06506 0.60958
 H1534 H 0.02033 1.05993 0.57706
 H1535 H -0.00700 1.00221 0.59278
 H1536 H 0.00232 1.00740 0.62559
 C1537 C -0.08519 0.46002 0.68276
 C1538 C -0.07731 0.46070 0.66456
 C1539 C -0.05889 0.46978 0.66082
 C1540 C -0.04835 0.47793 0.67594
 C1541 C -0.05627 0.47728 0.69417
 C1542 C -0.07487 0.46849 0.69777
 C1543 C -0.05188 0.47081 0.64094
 C1544 C -0.03397 0.47722 0.63512
 C1545 C -0.02805 0.47817 0.61492
 C1546 C -0.01303 0.49172 0.60896
 C1547 C -0.00774 0.49353 0.58989
 C1548 C -0.01741 0.48179 0.57641
 C1549 C -0.03186 0.46767 0.58250
 C1550 C -0.03699 0.46574 0.60147
 H1551 H -0.09965 0.45340 0.68496
 H1552 H -0.08583 0.45430 0.65326
 H1553 H -0.03419 0.48518 0.67389
 H1554 H -0.04787 0.48376 0.70549
 H1555 H -0.06248 0.46632 0.63052
 H1556 H -0.02337 0.48257 0.64516
 H1557 H -0.00568 0.50126 0.61904
 H1558 H 0.00351 0.50448 0.58565
 H1559 H -0.03930 0.45803 0.57256
 H1560 H -0.04789 0.45435 0.60543
 C1561 C 0.41843 -0.04222 0.17768
 C1562 C 0.42783 -0.04132 0.16019
 C1563 C 0.44674 -0.03282 0.15814
 C1564 C 0.45609 -0.02519 0.17420
 C1565 C 0.44660 -0.02604 0.19176
 C1566 C 0.42768 -0.03461 0.19369
 C1567 C 0.45571 -0.03238 0.13899
 C1568 C 0.47358 -0.02487 0.13438
 C1569 C 0.48104 -0.02463 0.11467
 C1570 C 0.49411 -0.00911 0.10855
 C1571 C 0.49977 -0.00743 0.08957
 C1572 C 0.49245 -0.02130 0.07645
 C1573 C 0.48046 -0.03759 0.08285
 C1574 C 0.47498 -0.03937 0.10173
 H1575 H 0.40375 -0.04863 0.17863
 H1576 H 0.42019 -0.04729 0.14814
 H1577 H 0.47064 -0.01857 0.17343
 H1578 H 0.45417 -0.02021 0.20389
 H1579 H 0.44659 -0.03825 0.12790
 H1580 H 0.48262 -0.01772 0.14483
 H1581 H 0.49927 0.00224 0.11829
 H1582 H 0.50904 0.00528 0.08502
 H1583 H 0.47491 -0.04876 0.07312
 H1584 H 0.46577 -0.05219 0.10603
 C1585 C 0.33057 0.37289 0.01867
 C1586 C 0.34759 0.38486 0.01941
 C1587 C 0.34688 0.40612 0.01560
 C1588 C 0.32857 0.41514 0.01089
 C1589 C 0.31144 0.40310 0.01021
 C1590 C 0.31219 0.38184 0.01433
 C1591 C 0.36547 0.41813 0.01720
 C1592 C 0.36865 0.43637 0.00854
 C1593 C 0.38792 0.44727 0.00884
 C1594 C 0.39292 0.46009 -0.00653
 C1595 C 0.41106 0.47016 -0.00729
 C1596 C 0.42465 0.46802 0.00750
 C1597 C 0.41944 0.45575 0.02326
 C1598 C 0.40129 0.44539 0.02390
 H1599 H 0.33180 0.35651 0.02159
 H1600 H 0.36142 0.37744 0.02300
 H1601 H 0.32726 0.43153 0.00825
 H1602 H 0.29750 0.41053 0.00706
 H1603 H 0.37747 0.41087 0.02484
 H1604 H 0.35735 0.44287 -0.00049
 H1605 H 0.38288 0.46201 -0.01822
 H1606 H 0.41446 0.47964 -0.01957
 H1607 H 0.42955 0.45383 0.03490
 H1608 H 0.39774 0.43607 0.03622
 C1609 C -0.17368 0.88421 0.53415
 C1610 C -0.15685 0.89643 0.53510
 C1611 C -0.15631 0.91609 0.52672
 C1612 C -0.17330 0.92335 0.51736
 C1613 C -0.19029 0.91109 0.51638
 C1614 C -0.19097 0.89127 0.52496
 C1615 C -0.13776 0.92825 0.52823
 C1616 C -0.13291 0.94396 0.51659
 C1617 C -0.11343 0.95453 0.51662
 C1618 C -0.10724 0.96443 0.49995
 C1619 C -0.08896 0.97411 0.49878
 C1620 C -0.07629 0.97449 0.51437
 C1621 C -0.08263 0.96514 0.53135
 C1622 C -0.10101 0.95516 0.53246
 H1623 H -0.17258 0.86883 0.54013
 H1624 H -0.14398 0.89026 0.54222
 H1625 H -0.17380 0.93864 0.51111
 H1626 H -0.20308 0.91773 0.50956
 H1627 H -0.12709 0.92291 0.53848
 H1628 H -0.14289 0.94828 0.50537
 H1629 H -0.11648 0.96441 0.48758
 H1630 H -0.08477 0.98137 0.48552
 H1631 H -0.07329 0.96525 0.54363
 H1632 H -0.10545 0.94816 0.54573
 C1633 C -0.17977 0.11241 1.01134
 C1634 C -0.16153 0.10253 1.01364
 C1635 C -0.15210 0.09297 0.99844
 C1636 C -0.16175 0.09291 0.98098
 C1637 C -0.17992 0.10285 0.97868
 C1638 C -0.18903 0.11296 0.99375
 C1639 C -0.13263 0.08283 1.00163
 C1640 C -0.12011 0.07722 0.98787
 C1641 C -0.10083 0.06671 0.99133
 C1642 C -0.08674 0.06600 0.97674
 C1643 C -0.06862 0.05585 0.97936
 C1644 C -0.06418 0.04621 0.99668
 C1645 C -0.07836 0.04683 1.01120
 C1646 C -0.09642 0.05675 1.00855
 H1647 H -0.18634 0.12014 1.02318
 H1648 H -0.15461 0.10263 1.02732
 H1649 H -0.15552 0.08511 0.96905
 H1650 H -0.18691 0.10263 0.96504
 H1651 H -0.12832 0.08069 1.01614
 H1652 H -0.12367 0.08088 0.97339
 H1653 H -0.08977 0.07332 0.96325
 H1654 H -0.05811 0.05561 0.96786
 H1655 H -0.07567 0.03929 1.02466
 H1656 H -0.10694 0.05610 1.02000
 C1657 C 0.31155 0.61024 0.50883
 C1658 C 0.32947 0.59960 0.51030
 C1659 C 0.33829 0.59068 0.49446
 C1660 C 0.32839 0.59219 0.47714
 C1661 C 0.31053 0.60292 0.47567
 C1662 C 0.30200 0.61225 0.49144
 C1663 C 0.35742 0.57964 0.49691
 C1664 C 0.36919 0.57348 0.48276
 C1665 C 0.38812 0.56211 0.48565
 C1666 C 0.40163 0.56074 0.47062
 C1667 C 0.41942 0.54984 0.47272
 C1668 C 0.42410 0.54012 0.48995
 C1669 C 0.41050 0.54138 0.50489
 C1670 C 0.39274 0.55203 0.50276
 H1671 H 0.30544 0.61737 0.52120
 H1672 H 0.33659 0.59856 0.52387
 H1673 H 0.33416 0.58505 0.46468
 H1674 H 0.30331 0.60387 0.46214
 H1675 H 0.36215 0.57717 0.51126
 H1676 H 0.36529 0.57728 0.46840
 H1677 H 0.39842 0.56814 0.45720
 H1678 H 0.42950 0.54910 0.46090
 H1679 H 0.41337 0.53377 0.51829
 H1680 H 0.38262 0.55182 0.51453
 C1681 C 0.16656 0.61750 0.52707
 C1682 C 0.14971 0.60530 0.52639
 C1683 C 0.15088 0.58471 0.52090
 C1684 C 0.16945 0.57667 0.51579
 C1685 C 0.18637 0.58897 0.51642
 C1686 C 0.18514 0.60941 0.52236
 C1687 C 0.13248 0.57228 0.52136
 C1688 C 0.13030 0.55431 0.51264
 C1689 C 0.11133 0.54299 0.51220
 C1690 C 0.10753 0.53059 0.49676
 C1691 C 0.08955 0.52044 0.49519
 C1692 C 0.07496 0.52214 0.50921
 C1693 C 0.07903 0.53382 0.52513
 C1694 C 0.09703 0.54420 0.52661
 H1695 H 0.16511 0.63328 0.53152
 H1696 H 0.13567 0.61197 0.53035
 H1697 H 0.17120 0.56080 0.51185
 H1698 H 0.20053 0.58224 0.51297
 H1699 H 0.11986 0.57889 0.52843
 H1700 H 0.14224 0.54836 0.50420
 H1701 H 0.11833 0.52917 0.48559
 H1702 H 0.08699 0.51141 0.48281
 H1703 H 0.06812 0.53538 0.53618
 H1704 H 0.09968 0.55310 0.53902
 C1705 C 0.68801 0.09620 0.03974
 C1706 C 0.67124 0.08383 0.03923
 C1707 C 0.66110 0.08101 0.02234
 C1708 C 0.66855 0.09059 0.00578
 C1709 C 0.68547 0.10291 0.00630
 C1710 C 0.69514 0.10616 0.02336
 C1711 C 0.64244 0.06891 0.02306
 C1712 C 0.63319 0.06191 0.00784
 C1713 C 0.61420 0.05040 0.00822
 C1714 C 0.60796 0.04169 -0.00860
 C1715 C 0.58992 0.03161 -0.00963
 C1716 C 0.57744 0.02985 0.00618
 C1717 C 0.58371 0.03818 0.02320
 C1718 C 0.60185 0.04846 0.02422
 H1719 H 0.69527 0.09829 0.05308
 H1720 H 0.66598 0.07671 0.05220
 H1721 H 0.66110 0.08934 -0.00752
 H1722 H 0.69050 0.11061 -0.00649
 H1723 H 0.63643 0.06546 0.03685
 H1724 H 0.63992 0.06431 -0.00583
 H1725 H 0.61703 0.04287 -0.02116
 H1726 H 0.58571 0.02528 -0.02297
 H1727 H 0.57438 0.03724 0.03559
 H1728 H 0.60577 0.05517 0.03744
 C1729 C 0.69596 0.91017 0.46218
 C1730 C 0.67883 0.92219 0.46104
 C1731 C 0.66634 0.92413 0.47669
 C1732 C 0.67208 0.91486 0.49392
 C1733 C 0.68937 0.90301 0.49511
 C1734 C 0.70121 0.90010 0.47912
 C1735 C 0.64758 0.93590 0.47456
 C1736 C 0.63131 0.93142 0.48466
 C1737 C 0.61228 0.94289 0.48342
 C1738 C 0.59890 0.94051 0.49839
 C1739 C 0.58122 0.95151 0.49864
 C1740 C 0.57618 0.96508 0.48377
 C1741 C 0.58904 0.96680 0.46825
 C1742 C 0.60698 0.95587 0.46809
 H1743 H 0.70491 0.90833 0.44967
 H1744 H 0.67497 0.92941 0.44770
 H1745 H 0.66321 0.91663 0.50647
 H1746 H 0.69304 0.89542 0.50833
 H1747 H 0.64718 0.94807 0.46397
 H1748 H 0.63197 0.91886 0.49488
 H1749 H 0.60238 0.93047 0.51027
 H1750 H 0.57159 0.94966 0.51075
 H1751 H 0.58557 0.97714 0.45660
 H1752 H 0.61658 0.95772 0.45600
 C1753 C 0.19281 0.39947 0.96045
 C1754 C 0.17541 0.41107 0.96077
 C1755 C 0.16374 0.41178 0.97709
 C1756 C 0.17050 0.40149 0.99349
 C1757 C 0.18807 0.39001 0.99321
 C1758 C 0.19917 0.38851 0.97656
 C1759 C 0.14485 0.42352 0.97637
 C1760 C 0.12936 0.41938 0.98767
 C1761 C 0.11034 0.43091 0.98708
 C1762 C 0.09829 0.43037 1.00317
 C1763 C 0.08054 0.44130 1.00364
 C1764 C 0.07412 0.45291 0.98791
 C1765 C 0.08576 0.45285 0.97148
 C1766 C 0.10370 0.44200 0.97106
 H1767 H 0.20119 0.39879 0.94747
 H1768 H 0.17078 0.41908 0.94803
 H1769 H 0.16232 0.40224 1.00654
 H1770 H 0.19261 0.38174 1.00583
 H1771 H 0.14363 0.43559 0.96573
 H1772 H 0.13064 0.40721 0.99821
 H1773 H 0.10285 0.42176 1.01562
 H1774 H 0.07193 0.44083 1.01651
 H1775 H 0.08125 0.46157 0.95910
 H1776 H 0.11219 0.44229 0.95815
 C1777 C -0.00364 0.29603 0.39237
 C1778 C -0.01047 0.31060 0.40504
 C1779 C -0.00751 0.33165 0.40140
 C1780 C 0.00224 0.33793 0.38475
 C1781 C 0.00916 0.32339 0.37220
 C1782 C 0.00657 0.30234 0.37604
 C1783 C -0.01263 0.34658 0.41601
 C1784 C -0.01624 0.36642 0.41194
 C1785 C -0.01680 0.38254 0.42624
 C1786 C -0.02577 0.40142 0.42163
 C1787 C -0.02439 0.41796 0.43371
 C1788 C -0.01379 0.41601 0.45059
 C1789 C -0.00521 0.39695 0.45542
 C1790 C -0.00665 0.38038 0.44336
 H1791 H -0.00562 0.27982 0.39569
 H1792 H -0.01770 0.30542 0.41790
 H1793 H 0.00538 0.35397 0.38174
 H1794 H 0.01695 0.32858 0.35965
 H1795 H -0.01273 0.34111 0.43049
 H1796 H -0.01815 0.37134 0.39742
 H1797 H -0.03346 0.40352 0.40843
 H1798 H -0.03117 0.43245 0.42953
 H1799 H 0.00307 0.39495 0.46830
 H1800 H 0.00098 0.36627 0.44715
 C1801 C 0.49063 -0.19388 -0.11420
 C1802 C 0.48569 -0.17795 -0.10221
 C1803 C 0.48987 -0.15748 -0.10732
 C1804 C 0.49847 -0.15313 -0.12501
 C1805 C 0.50342 -0.16908 -0.13699
 C1806 C 0.49997 -0.18961 -0.13150
 C1807 C 0.48732 -0.14154 -0.09304
 C1808 C 0.48656 -0.12139 -0.09714
 C1809 C 0.48754 -0.10577 -0.08246
 C1810 C 0.47868 -0.08655 -0.08567
 C1811 C 0.48028 -0.07114 -0.07242
 C1812 C 0.49112 -0.07459 -0.05584
 C1813 C 0.50010 -0.09383 -0.05270
 C1814 C 0.49834 -0.10928 -0.06587
 H1815 H 0.48807 -0.20960 -0.10949
 H1816 H 0.47925 -0.18169 -0.08860
 H1817 H 0.50239 -0.13762 -0.12930
 H1818 H 0.51054 -0.16543 -0.15031
 H1819 H 0.48659 -0.14670 -0.07847
 H1820 H 0.48524 -0.11602 -0.11158
 H1821 H 0.47053 -0.08344 -0.09848
 H1822 H 0.47330 -0.05641 -0.07532
 H1823 H 0.50863 -0.09693 -0.04013
 H1824 H 0.50596 -0.12371 -0.06328
 C1825 C -0.02168 -0.17503 1.13790
 C1826 C -0.01679 -0.15606 1.12961
 C1827 C -0.00434 -0.15515 1.11382
 C1828 C 0.00412 -0.17338 1.10713
 C1829 C -0.00070 -0.19230 1.11544
 C1830 C -0.01394 -0.19334 1.13065
 C1831 C -0.00101 -0.13519 1.10414
 C1832 C 0.00085 -0.13379 1.08541
 C1833 C 0.00222 -0.11401 1.07502
 C1834 C -0.00496 -0.11285 1.05661
 C1835 C -0.00415 -0.09441 1.04631
 C1836 C 0.00420 -0.07682 1.05415
 C1837 C 0.01175 -0.07808 1.07250
 C1838 C 0.01075 -0.09651 1.08287
 H1839 H -0.03166 -0.17544 1.14983
 H1840 H -0.02326 -0.14214 1.13511
 H1841 H 0.01426 -0.17309 1.09533
 H1842 H 0.00546 -0.20618 1.10959
 H1843 H -0.00206 -0.12138 1.11235
 H1844 H -0.00031 -0.14755 1.07716
 H1845 H -0.01145 -0.12622 1.05025
 H1846 H -0.00992 -0.09398 1.03215
 H1847 H 0.01833 -0.06479 1.07889
 H1848 H 0.01690 -0.09708 1.09687
 C1849 C 0.48592 0.28897 0.59481
 C1850 C 0.48684 0.30670 0.58349
 C1851 C 0.47726 0.32475 0.58902
 C1852 C 0.46605 0.32461 0.60571
 C1853 C 0.46487 0.30676 0.61689
 C1854 C 0.47501 0.28891 0.61162
 C1855 C 0.47891 0.34330 0.57693
 C1856 C 0.47943 0.36227 0.58387
 C1857 C 0.48180 0.38066 0.57162
 C1858 C 0.49210 0.39766 0.57828
 C1859 C 0.49479 0.41513 0.56681
 C1860 C 0.48687 0.41598 0.54859
 C1861 C 0.47621 0.39908 0.54211
 C1862 C 0.47371 0.38159 0.55350
 H1863 H 0.49366 0.27525 0.59044
 H1864 H 0.49536 0.30646 0.57058
 H1865 H 0.45808 0.33819 0.61003
 H1866 H 0.45636 0.30697 0.62981
 H1867 H 0.48118 0.34113 0.56201
 H1868 H 0.47937 0.36432 0.59894
 H1869 H 0.49828 0.39730 0.59229
 H1870 H 0.50286 0.42803 0.57226
 H1871 H 0.46982 0.39931 0.52820
 H1872 H 0.46518 0.36895 0.54818
 C1873 C 0.52097 1.16615 0.64147
 C1874 C 0.52159 1.14775 0.63172
 C1875 C 0.53623 1.14453 0.61812
 C1876 C 0.55153 1.15890 0.61592
 C1877 C 0.55097 1.17724 0.62572
 C1878 C 0.53516 1.18142 0.63790
 C1879 C 0.53387 1.12743 0.60507
 C1880 C 0.53795 1.12984 0.58670
 C1881 C 0.53225 1.11490 0.57240
 C1882 C 0.54235 1.11509 0.55516
 C1883 C 0.53705 1.10163 0.54105
 C1884 C 0.52134 1.08786 0.54387
 C1885 C 0.51086 1.08812 0.56095
 C1886 C 0.51621 1.10151 0.57507
 H1887 H 0.50881 1.16893 0.65103
 H1888 H 0.50981 1.13671 0.63379
 H1889 H 0.56338 1.15645 0.60596
 H1890 H 0.56211 1.18875 0.62272
 H1891 H 0.52659 1.11368 0.61032
 H1892 H 0.54506 1.14379 0.58163
 H1893 H 0.55452 1.12555 0.55267
 H1894 H 0.54542 1.10183 0.52804
 H1895 H 0.49866 1.07773 0.56359
 H1896 H 0.50753 1.10149 0.58786
 C1897 C -0.00671 0.67354 1.12919
 C1898 C -0.00855 0.65620 1.11812
 C1899 C 0.00820 0.64600 1.11148
 C1900 C 0.02687 0.65257 1.11711
 C1901 C 0.02879 0.66990 1.12813
 C1902 C 0.01205 0.68110 1.13403
 C1903 C 0.00573 0.62875 1.09858
 C1904 C 0.01936 0.62392 1.08568
 C1905 C 0.01676 0.60738 1.07201
 C1906 C 0.02816 0.60780 1.05548
 C1907 C 0.02617 0.59243 1.04222
 C1908 C 0.01270 0.57635 1.04528
 C1909 C 0.00144 0.57584 1.06192
 C1910 C 0.00356 0.59106 1.07522
 H1911 H -0.02012 0.68072 1.13413
 H1912 H -0.02314 0.65104 1.11436
 H1913 H 0.04011 0.64457 1.11283
 H1914 H 0.04361 0.67498 1.13089
 H1915 H -0.00835 0.62100 1.09885
 H1916 H 0.03253 0.63317 1.08425
 H1917 H 0.03857 0.62012 1.05279
 H1918 H 0.03512 0.59316 1.02958
 H1919 H -0.00881 0.56345 1.06487
 H1920 H -0.00493 0.58968 1.08809
 C1921 C 0.49249 0.66419 -0.14328
 C1922 C 0.49802 0.64682 -0.13271
 C1923 C 0.51039 0.64874 -0.11720
 C1924 C 0.51867 0.66792 -0.11343
 C1925 C 0.51339 0.68527 -0.12410
 C1926 C 0.49947 0.68391 -0.13872
 C1927 C 0.51331 0.63091 -0.10444
 C1928 C 0.51337 0.63301 -0.08574
 C1929 C 0.51295 0.61521 -0.07261
 C1930 C 0.50276 0.61689 -0.05550
 C1931 C 0.50108 0.59990 -0.04326
 C1932 C 0.50988 0.58105 -0.04784
 C1933 C 0.52068 0.57964 -0.06471
 C1934 C 0.52220 0.59654 -0.07697
 H1935 H 0.48265 0.66205 -0.15498
 H1936 H 0.49185 0.63201 -0.13608
 H1937 H 0.52870 0.66966 -0.10179
 H1938 H 0.51911 0.69988 -0.11965
 H1939 H 0.51281 0.61571 -0.11039
 H1940 H 0.51157 0.64816 -0.07987
 H1941 H 0.49565 0.63123 -0.05183
 H1942 H 0.49282 0.60151 -0.03030
 H1943 H 0.52775 0.56538 -0.06862
 H1944 H 0.53063 0.59496 -0.08983
 C1945 C 0.02124 1.17579 0.35698
 C1946 C 0.02442 1.15831 0.36833
 C1947 C 0.00875 1.14530 0.37312
 C1948 C -0.00969 1.14875 0.36484
 C1949 C -0.01293 1.16611 0.35348
 C1950 C 0.00223 1.18059 0.35007
 C1951 C 0.01152 1.12913 0.38771
 C1952 C -0.00264 1.12501 0.40043
 C1953 C -0.00037 1.11031 0.41636
 C1954 C -0.01299 1.11221 0.43192
 C1955 C -0.01195 1.09822 0.44701
 C1956 C 0.00169 1.08193 0.44677
 C1957 C 0.01447 1.08014 0.43124
 C1958 C 0.01341 1.09413 0.41615
 H1959 H 0.03375 1.18555 0.35386
 H1960 H 0.03893 1.15554 0.37414
 H1961 H -0.02189 1.13846 0.36778
 H1962 H -0.02788 1.16879 0.34886
 H1963 H 0.02599 1.12224 0.38911
 H1964 H -0.01627 1.13375 0.39985
 H1965 H -0.02380 1.12451 0.43235
 H1966 H -0.02207 1.09999 0.45870
 H1967 H 0.02500 1.06762 0.43049
 H1968 H 0.02300 1.09181 0.40419
 C1969 C 0.75546 0.68277 0.95024
 C1970 C 0.75264 0.69305 0.93297
 C1971 C 0.76456 0.68871 0.91742
 C1972 C 0.77926 0.67352 0.91944
 C1973 C 0.78208 0.66315 0.93667
 C1974 C 0.77021 0.66745 0.95253
 C1975 C 0.76062 0.69946 0.89913
 C1976 C 0.77449 0.70220 0.88579
 C1977 C 0.77080 0.71086 0.86660
 C1978 C 0.78450 0.70626 0.85247
 C1979 C 0.78151 0.71291 0.83395
 C1980 C 0.76483 0.72466 0.82899
 C1981 C 0.75143 0.73012 0.84321
 C1982 C 0.75432 0.72320 0.86187
 H1983 H 0.74633 0.68756 0.96186
 H1984 H 0.74119 0.70466 0.93183
 H1985 H 0.78823 0.66903 0.90759
 H1986 H 0.79302 0.65102 0.93703
 H1987 H 0.74579 0.70500 0.89669
 H1988 H 0.78934 0.69692 0.88864
 H1989 H 0.79740 0.69699 0.85567
 H1990 H 0.79228 0.70862 0.82342
 H1991 H 0.73848 0.73922 0.83983
 H1992 H 0.74367 0.72758 0.87242
 C1993 C 0.28931 0.16236 0.42785
 C1994 C 0.28847 0.17094 0.40972
 C1995 C 0.27520 0.18685 0.40526
 C1996 C 0.26252 0.19392 0.41944
 C1997 C 0.26322 0.18523 0.43764
 C1998 C 0.27670 0.16926 0.44230
 C1999 C 0.27481 0.19479 0.38551
 C2000 C 0.26665 0.21271 0.37971
 C2001 C 0.26694 0.21968 0.35963
 C2002 C 0.25206 0.23293 0.35282
 C2003 C 0.25127 0.23854 0.33367
 C2004 C 0.26540 0.23100 0.32101
 C2005 C 0.28087 0.21870 0.32805
 C2006 C 0.28175 0.21327 0.34710
 H2007 H 0.29934 0.14959 0.43006
 H2008 H 0.29824 0.16494 0.39903
 H2009 H 0.25184 0.20594 0.41659
 H2010 H 0.25352 0.19169 0.44812
 H2011 H 0.28182 0.18510 0.37523
 H2012 H 0.25909 0.22236 0.38965
 H2013 H 0.24066 0.23839 0.36221
 H2014 H 0.23918 0.24807 0.32867
 H2015 H 0.29222 0.21297 0.31874
 H2016 H 0.29406 0.20397 0.35186
 C2017 C 0.72289 0.34728 0.42899
 C2018 C 0.72728 0.33960 0.41129
 C2019 C 0.73886 0.32180 0.40937
 C2020 C 0.74619 0.31188 0.42567
 C2021 C 0.74191 0.31970 0.44346
 C2022 C 0.73016 0.33745 0.44528
 C2023 C 0.74281 0.31456 0.39007
 C2024 C 0.74865 0.29547 0.38560
 C2025 C 0.74959 0.28886 0.36573
 C2026 C 0.76280 0.27333 0.36022
 C2027 C 0.76375 0.26720 0.34139
 C2028 C 0.75145 0.27653 0.32783
 C2029 C 0.73786 0.29155 0.33359
 C2030 C 0.73681 0.29747 0.35222
 H2031 H 0.71408 0.36115 0.42993
 H2032 H 0.72149 0.34761 0.39899
 H2033 H 0.75542 0.29834 0.42481
 H2034 H 0.74769 0.31182 0.45581
 H2035 H 0.73988 0.32562 0.37883
 H2036 H 0.75241 0.28429 0.39646
 H2037 H 0.77255 0.26616 0.37045
 H2038 H 0.77423 0.25543 0.33741
 H2039 H 0.72772 0.29866 0.32370
 H2040 H 0.72565 0.30861 0.35599
 C2041 C 0.21540 0.83781 0.93560
 C2042 C 0.21665 0.82830 0.91823
 C2043 C 0.23020 0.81239 0.91510
 C2044 C 0.24242 0.80595 0.92999
 C2045 C 0.24118 0.81543 0.94748
 C2046 C 0.22775 0.83174 0.95066
 C2047 C 0.23157 0.80406 0.89583
 C2048 C 0.24274 0.78799 0.89059
 C2049 C 0.24422 0.78190 0.87060
 C2050 C 0.24750 0.76122 0.86599
 C2051 C 0.24806 0.75527 0.84712
 C2052 C 0.24541 0.76999 0.83258
 C2053 C 0.24310 0.79077 0.83728
 C2054 C 0.24265 0.79667 0.85597
 H2055 H 0.20535 0.85068 0.93664
 H2056 H 0.20719 0.83382 0.90697
 H2057 H 0.25315 0.79380 0.92828
 H2058 H 0.25055 0.80942 0.95855
 H2059 H 0.22268 0.81182 0.88524
 H2060 H 0.25055 0.77875 0.90093
 H2061 H 0.24912 0.74960 0.87701
 H2062 H 0.25001 0.73916 0.84393
 H2063 H 0.24153 0.80262 0.82645
 H2064 H 0.24113 0.81288 0.85888
 C2065 C 0.28850 0.83589 0.07089
 C2066 C 0.28829 0.82493 0.08794
 C2067 C 0.27574 0.80811 0.09080
 C2068 C 0.26362 0.80208 0.07600
 C2069 C 0.26391 0.81293 0.05877
 C2070 C 0.27631 0.83020 0.05582
 C2071 C 0.27592 0.79758 0.10947
 C2072 C 0.26069 0.78701 0.11691
 C2073 C 0.26041 0.77964 0.13682
 C2074 C 0.24829 0.76306 0.14230
 C2075 C 0.24716 0.75654 0.16121
 C2076 C 0.25802 0.76665 0.17501
 C2077 C 0.27007 0.78327 0.16944
 C2078 C 0.27115 0.78976 0.15070
 H2079 H 0.29770 0.84941 0.07012
 H2080 H 0.29769 0.83000 0.09919
 H2081 H 0.25417 0.78877 0.07748
 H2082 H 0.25484 0.80709 0.04766
 H2083 H 0.28896 0.79980 0.11786
 H2084 H 0.24773 0.78425 0.10856
 H2085 H 0.23963 0.75520 0.13193
 H2086 H 0.23762 0.74378 0.16502
 H2087 H 0.27849 0.79165 0.17963
 H2088 H 0.27997 0.80317 0.14734
 C2089 C 0.77236 0.35362 0.57403
 C2090 C 0.77119 0.34475 0.59201
 C2091 C 0.76274 0.32527 0.59490
 C2092 C 0.75564 0.31464 0.57932
 C2093 C 0.75695 0.32348 0.56124
 C2094 C 0.76536 0.34307 0.55840
 C2095 C 0.76228 0.31657 0.61430
 C2096 C 0.74943 0.30228 0.62053
 C2097 C 0.74878 0.29505 0.64047
 C2098 C 0.74095 0.27557 0.64503
 C2099 C 0.74050 0.26832 0.66373
 C2100 C 0.74788 0.28048 0.67819
 C2101 C 0.75511 0.30020 0.67363
 C2102 C 0.75538 0.30747 0.65510
 H2103 H 0.77861 0.36886 0.57240
 H2104 H 0.77677 0.35325 0.60378
 H2105 H 0.74953 0.29936 0.58090
 H2106 H 0.75175 0.31480 0.54944
 H2107 H 0.77285 0.32283 0.62393
 H2108 H 0.73906 0.29561 0.61093
 H2109 H 0.73545 0.26584 0.63407
 H2110 H 0.73469 0.25312 0.66683
 H2111 H 0.76045 0.31021 0.68446
 H2112 H 0.76055 0.32298 0.65243
 C2113 C 0.22310 0.16370 0.56751
 C2114 C 0.22345 0.17396 0.58453
 C2115 C 0.23108 0.19395 0.58556
 C2116 C 0.23855 0.20346 0.56903
 C2117 C 0.23823 0.19310 0.55193
 C2118 C 0.23031 0.17319 0.55096
 C2119 C 0.23018 0.20416 0.60406
 C2120 C 0.23917 0.22184 0.60833
 C2121 C 0.23780 0.23055 0.62745
 C2122 C 0.25368 0.24171 0.63460
 C2123 C 0.25342 0.24832 0.65325
 C2124 C 0.23721 0.24392 0.66503
 C2125 C 0.22084 0.23390 0.65747
 C2126 C 0.22105 0.22745 0.63889
 H2127 H 0.21721 0.14824 0.56731
 H2128 H 0.21763 0.16620 0.59697
 H2129 H 0.24427 0.21895 0.56907
 H2130 H 0.24373 0.20086 0.53936
 H2131 H 0.22206 0.19605 0.61505
 H2132 H 0.24876 0.22944 0.59820
 H2133 H 0.26664 0.24456 0.62600
 H2134 H 0.26627 0.25599 0.65868
 H2135 H 0.20798 0.23060 0.66608
 H2136 H 0.20815 0.21979 0.63362
 C2137 C 0.72318 0.65352 0.07919
 C2138 C 0.72362 0.66369 0.09628
 C2139 C 0.73094 0.68383 0.09735
 C2140 C 0.73804 0.69353 0.08076
 C2141 C 0.73767 0.68326 0.06361
 C2142 C 0.73007 0.66320 0.06261
 C2143 C 0.73014 0.69397 0.11593
 C2144 C 0.73818 0.71225 0.11993
 C2145 C 0.73668 0.72127 0.13896
 C2146 C 0.75152 0.73450 0.14521
 C2147 C 0.75108 0.74203 0.16356
 C2148 C 0.73572 0.73650 0.17599
 C2149 C 0.72035 0.72422 0.16935
 C2150 C 0.72073 0.71684 0.15107
 H2151 H 0.71748 0.63798 0.07895
 H2152 H 0.71806 0.65576 0.10875
 H2153 H 0.74355 0.70909 0.08076
 H2154 H 0.74288 0.69121 0.05102
 H2155 H 0.72281 0.68540 0.12713
 H2156 H 0.74692 0.72045 0.10950
 H2157 H 0.76381 0.73845 0.13607
 H2158 H 0.76313 0.75148 0.16824
 H2159 H 0.70808 0.72000 0.17842
 H2160 H 0.70850 0.70757 0.14655
 C2161 C 0.12638 0.56375 0.24829
 C2162 C 0.13669 0.58204 0.25106
 C2163 C 0.14805 0.59107 0.23653
 C2164 C 0.14903 0.58114 0.21913
 C2165 C 0.13864 0.56288 0.21634
 C2166 C 0.12717 0.55397 0.23087
 C2167 C 0.15916 0.61023 0.24051
 C2168 C 0.16747 0.62263 0.22732
 C2169 C 0.17916 0.64131 0.23171
 C2170 C 0.18270 0.65615 0.21742
 C2171 C 0.19420 0.67356 0.22081
 C2172 C 0.20247 0.67653 0.23862
 C2173 C 0.19892 0.66167 0.25289
 C2174 C 0.18757 0.64426 0.24949
 H2175 H 0.11755 0.55741 0.25971
 H2176 H 0.13573 0.58920 0.26465
 H2177 H 0.15803 0.58708 0.20769
 H2178 H 0.13987 0.55552 0.20287
 H2179 H 0.15997 0.61443 0.25511
 H2180 H 0.16534 0.61946 0.21262
 H2181 H 0.17659 0.65423 0.20354
 H2182 H 0.19664 0.68465 0.20947
 H2183 H 0.20524 0.66323 0.26673
 H2184 H 0.18593 0.63300 0.26077
 C2185 C 0.62397 0.07138 0.75054
 C2186 C 0.63307 0.09039 0.75309
 C2187 C 0.64400 0.09990 0.73850
 C2188 C 0.64578 0.08974 0.72127
 C2189 C 0.63660 0.07075 0.71871
 C2190 C 0.62557 0.06137 0.73330
 C2191 C 0.65396 0.11975 0.74231
 C2192 C 0.66209 0.13225 0.72910
 C2193 C 0.67323 0.15126 0.73352
 C2194 C 0.67673 0.16609 0.71921
 C2195 C 0.68813 0.18359 0.72261
 C2196 C 0.69634 0.18660 0.74044
 C2197 C 0.69264 0.17183 0.75477
 C2198 C 0.68141 0.15438 0.75135
 H2199 H 0.61545 0.06464 0.76200
 H2200 H 0.63154 0.09772 0.76656
 H2201 H 0.65451 0.09605 0.70980
 H2202 H 0.63840 0.06322 0.70537
 H2203 H 0.65423 0.12428 0.75684
 H2204 H 0.66046 0.12876 0.71440
 H2205 H 0.67080 0.16403 0.70528
 H2206 H 0.69074 0.19457 0.71122
 H2207 H 0.69885 0.17342 0.76865
 H2208 H 0.67981 0.14315 0.76266
 C2209 C 0.86352 0.06901 0.29573
 C2210 C 0.85147 0.08650 0.29584
 C2211 C 0.84310 0.09434 0.27923
 C2212 C 0.84696 0.08401 0.26237
 C2213 C 0.85900 0.06640 0.26222
 C2214 C 0.86791 0.05872 0.27886
 C2215 C 0.83127 0.11370 0.28010
 C2216 C 0.81830 0.11969 0.26687
 C2217 C 0.80661 0.13920 0.26707
 C2218 C 0.79214 0.14200 0.25326
 C2219 C 0.78140 0.16032 0.25183
 C2220 C 0.78474 0.17649 0.26425
 C2221 C 0.79886 0.17365 0.27845
 C2222 C 0.80978 0.15525 0.27982
 H2223 H 0.86889 0.06340 0.30917
 H2224 H 0.84865 0.09395 0.30908
 H2225 H 0.84135 0.08980 0.24909
 H2226 H 0.86215 0.05970 0.24874
 H2227 H 0.83310 0.12289 0.29245
 H2228 H 0.81569 0.10964 0.25523
 H2229 H 0.78928 0.13004 0.24326
 H2230 H 0.77057 0.16187 0.24077
 H2231 H 0.80190 0.18589 0.28812
 H2232 H 0.82091 0.15402 0.29056
 C2233 C 0.36517 0.56918 0.79486
 C2234 C 0.35232 0.58601 0.79574
 C2235 C 0.34215 0.59302 0.77978
 C2236 C 0.34497 0.58257 0.76284
 C2237 C 0.35788 0.56573 0.76189
 C2238 C 0.36866 0.55888 0.77780
 C2239 C 0.32973 0.61190 0.78118
 C2240 C 0.31481 0.61631 0.76943
 C2241 C 0.30285 0.63562 0.76950
 C2242 C 0.29000 0.63917 0.75440
 C2243 C 0.27892 0.65725 0.75302
 C2244 C 0.28022 0.67240 0.76679
 C2245 C 0.29265 0.66875 0.78225
 C2246 C 0.30389 0.65057 0.78361
 H2247 H 0.37192 0.56415 0.80789
 H2248 H 0.35031 0.59361 0.80903
 H2249 H 0.33790 0.58782 0.75002
 H2250 H 0.36018 0.55905 0.74825
 H2251 H 0.33319 0.62227 0.79235
 H2252 H 0.31122 0.60532 0.75878
 H2253 H 0.28873 0.62801 0.74337
 H2254 H 0.26941 0.65939 0.74096
 H2255 H 0.29400 0.68012 0.79309
 H2256 H 0.31332 0.64848 0.79567
 C2257 C 0.36337 0.43863 0.75379
 C2258 C 0.35146 0.42112 0.75518
 C2259 C 0.34320 0.41256 0.73906
 C2260 C 0.34636 0.42251 0.72156
 C2261 C 0.35822 0.44007 0.72019
 C2262 C 0.36717 0.44811 0.73624
 C2263 C 0.33127 0.39350 0.74123
 C2264 C 0.32872 0.37981 0.72752
 C2265 C 0.31743 0.36031 0.73011
 C2266 C 0.30991 0.35050 0.71426
 C2267 C 0.29888 0.33235 0.71620
 C2268 C 0.29523 0.32352 0.73409
 C2269 C 0.30339 0.33297 0.74987
 C2270 C 0.31439 0.35102 0.74792
 H2271 H 0.37016 0.44433 0.76639
 H2272 H 0.34912 0.41390 0.76887
 H2273 H 0.33963 0.41693 0.70891
 H2274 H 0.36048 0.44734 0.70651
 H2275 H 0.32490 0.39053 0.75498
 H2276 H 0.33504 0.38286 0.71375
 H2277 H 0.31227 0.35711 0.70033
 H2278 H 0.29289 0.32550 0.70374
 H2279 H 0.30115 0.32651 0.76387
 H2280 H 0.32060 0.35745 0.76045
 C2281 C 0.84779 0.94785 0.24742
 C2282 C 0.83467 0.93126 0.24845
 C2283 C 0.83933 0.91240 0.24023
 C2284 C 0.85763 0.91038 0.23115
 C2285 C 0.87078 0.92688 0.23011
 C2286 C 0.86619 0.94610 0.23815
 C2287 C 0.82538 0.89489 0.24250
 C2288 C 0.82529 0.87833 0.23143
 C2289 C 0.81210 0.86034 0.23471
 C2290 C 0.80767 0.84739 0.21971
 C2291 C 0.79576 0.82997 0.22251
 C2292 C 0.78821 0.82498 0.24047
 C2293 C 0.79289 0.83785 0.25549
 C2294 C 0.80469 0.85521 0.25268
 H2295 H 0.84300 0.96218 0.25343
 H2296 H 0.82071 0.93325 0.25565
 H2297 H 0.86222 0.89586 0.22534
 H2298 H 0.88499 0.92395 0.22374
 H2299 H 0.81447 0.89605 0.25359
 H2300 H 0.83486 0.87799 0.21923
 H2301 H 0.81340 0.85081 0.20575
 H2302 H 0.79257 0.82039 0.21065
 H2303 H 0.78751 0.83450 0.26958
 H2304 H 0.80830 0.86426 0.26477
 C2305 C 0.63181 0.92781 0.75032
 C2306 C 0.64294 0.90971 0.74895
 C2307 C 0.65360 0.90185 0.76442
 C2308 C 0.65308 0.91277 0.78130
 C2309 C 0.64191 0.93085 0.78268
 C2310 C 0.63108 0.93856 0.76723
 C2311 C 0.66562 0.88286 0.76192
 C2312 C 0.67345 0.87138 0.77601
 C2313 C 0.68593 0.85285 0.77274
 C2314 C 0.68789 0.83768 0.78703
 C2315 C 0.69948 0.82003 0.78423
 C2316 C 0.70939 0.81725 0.76706
 C2317 C 0.70782 0.83273 0.75301
 C2318 C 0.69641 0.85031 0.75584
 H2319 H 0.62353 0.93321 0.73822
 H2320 H 0.64315 0.90176 0.73572
 H2321 H 0.66150 0.90773 0.79340
 H2322 H 0.64199 0.93900 0.79580
 H2323 H 0.66756 0.87788 0.74761
 H2324 H 0.67019 0.87508 0.79044
 H2325 H 0.68021 0.83936 0.80030
 H2326 H 0.70042 0.80843 0.79535
 H2327 H 0.71555 0.83136 0.73973
 H2328 H 0.69615 0.86196 0.74477
 C2329 C 0.12082 0.41220 0.26928
 C2330 C 0.13271 0.39458 0.26901
 C2331 C 0.15207 0.39549 0.26203
 C2332 C 0.15925 0.41457 0.25518
 C2333 C 0.14732 0.43223 0.25544
 C2334 C 0.12804 0.43131 0.26271
 C2335 C 0.16433 0.37642 0.26273
 C2336 C 0.18022 0.37344 0.25180
 C2337 C 0.19178 0.35395 0.25162
 C2338 C 0.20220 0.34918 0.23521
 C2339 C 0.21311 0.33100 0.23410
 C2340 C 0.21419 0.31714 0.24953
 C2341 C 0.20420 0.32210 0.26622
 C2342 C 0.19303 0.34030 0.26726
 H2343 H 0.10596 0.41090 0.27479
 H2344 H 0.12675 0.38016 0.27437
 H2345 H 0.17423 0.41616 0.25014
 H2346 H 0.15344 0.44678 0.25060
 H2347 H 0.15931 0.36396 0.27187
 H2348 H 0.18424 0.38513 0.24145
 H2349 H 0.20168 0.35946 0.22304
 H2350 H 0.22076 0.32783 0.22107
 H2351 H 0.20480 0.31179 0.27836
 H2352 H 0.18562 0.34371 0.28034
 C2353 C 0.05283 0.29998 0.83577
 C2354 C 0.07176 0.30098 0.82807
 C2355 C 0.08621 0.28669 0.83368
 C2356 C 0.08168 0.27194 0.84779
 C2357 C 0.06275 0.27087 0.85538
 C2358 C 0.04812 0.28469 0.84926
 C2359 C 0.10563 0.28736 0.82427
 C2360 C 0.11695 0.27059 0.82254
 C2361 C 0.13566 0.27037 0.81192
 C2362 C 0.14940 0.25489 0.81625
 C2363 C 0.16671 0.25315 0.80580
 C2364 C 0.17053 0.26678 0.79062
 C2365 C 0.15685 0.28245 0.78639
 C2366 C 0.13953 0.28421 0.79690
 H2367 H 0.04175 0.31083 0.83087
 H2368 H 0.07497 0.31258 0.81735
 H2369 H 0.09267 0.26127 0.85312
 H2370 H 0.05955 0.25932 0.86616
 H2371 H 0.11013 0.30184 0.81784
 H2372 H 0.11234 0.25609 0.82886
 H2373 H 0.14666 0.24398 0.82768
 H2374 H 0.17693 0.24090 0.80948
 H2375 H 0.15930 0.29311 0.77472
 H2376 H 0.12899 0.29595 0.79276
 C2377 C 0.55029 0.80189 0.34573
 C2378 C 0.56892 0.80157 0.33735
 C2379 C 0.58293 0.78681 0.34298
 C2380 C 0.57831 0.77293 0.35778
 C2381 C 0.55968 0.77321 0.36611
 C2382 C 0.54544 0.78750 0.35998
 C2383 C 0.60202 0.78623 0.33297
 C2384 C 0.61275 0.76899 0.33152
 C2385 C 0.63113 0.76785 0.32044
 C2386 C 0.64495 0.75256 0.32516
 C2387 C 0.66223 0.75049 0.31466
 C2388 C 0.66591 0.76359 0.29907
 C2389 C 0.65197 0.77882 0.29426
 C2390 C 0.63473 0.78091 0.30479
 H2391 H 0.53952 0.81304 0.34076
 H2392 H 0.57221 0.81253 0.32610
 H2393 H 0.58901 0.76192 0.36308
 H2394 H 0.55643 0.76232 0.37742
 H2395 H 0.60680 0.80026 0.32590
 H2396 H 0.60797 0.75494 0.33856
 H2397 H 0.64238 0.74219 0.33703
 H2398 H 0.67261 0.73853 0.31871
 H2399 H 0.65427 0.78904 0.28224
 H2400 H 0.62409 0.79239 0.30030
 C2401 C 0.58688 0.24104 0.12824
 C2402 C 0.60210 0.24921 0.13880
 C2403 C 0.59791 0.25921 0.15564
 C2404 C 0.57825 0.26228 0.16114
 C2405 C 0.56303 0.25437 0.15046
 C2406 C 0.56728 0.24322 0.13423
 C2407 C 0.61434 0.26500 0.16775
 C2408 C 0.61345 0.26245 0.18646
 C2409 C 0.63124 0.26362 0.19806
 C2410 C 0.63365 0.24966 0.21318
 C2411 C 0.65158 0.24842 0.22266
 C2412 C 0.66727 0.26127 0.21718
 C2413 C 0.66430 0.27619 0.20287
 C2414 C 0.64644 0.27741 0.19344
 H2415 H 0.59039 0.23264 0.11566
 H2416 H 0.61720 0.24685 0.13429
 H2417 H 0.57467 0.27036 0.17388
 H2418 H 0.54798 0.25617 0.15531
 H2419 H 0.62829 0.26851 0.16096
 H2420 H 0.60012 0.25658 0.19304
 H2421 H 0.62198 0.23904 0.21704
 H2422 H 0.65338 0.23695 0.23378
 H2423 H 0.67592 0.28671 0.19864
 H2424 H 0.64471 0.28882 0.18227
 C2425 C 0.05317 0.71395 0.66105
 C2426 C 0.06798 0.71640 0.67433
 C2427 C 0.07663 0.73570 0.67680
 C2428 C 0.06953 0.75278 0.66638
 C2429 C 0.05487 0.75030 0.65300
 C2430 C 0.04672 0.73082 0.65002
 C2431 C 0.09338 0.73725 0.68984
 C2432 C 0.10729 0.75171 0.68779
 C2433 C 0.12561 0.75183 0.69884
 C2434 C 0.14196 0.76212 0.69115
 C2435 C 0.15990 0.76191 0.70053
 C2436 C 0.16185 0.75145 0.71791
 C2437 C 0.14533 0.74161 0.72591
 C2438 C 0.12733 0.74187 0.71652
 H2439 H 0.04681 0.69885 0.65940
 H2440 H 0.07300 0.70307 0.68238
 H2441 H 0.07527 0.76807 0.66838
 H2442 H 0.05022 0.76359 0.64472
 H2443 H 0.09525 0.72491 0.70012
 H2444 H 0.10627 0.76286 0.67633
 H2445 H 0.14098 0.77003 0.67763
 H2446 H 0.17229 0.76975 0.69399
 H2447 H 0.14629 0.73369 0.73942
 H2448 H 0.11487 0.73438 0.72322
 C2449 C 0.91647 0.77250 0.61560
 C2450 C 0.89764 0.76946 0.62317
 C2451 C 0.89461 0.75461 0.63737
 C2452 C 0.91010 0.74145 0.64260
 C2453 C 0.92883 0.74431 0.63503
 C2454 C 0.93265 0.76054 0.62199
 C2455 C 0.87579 0.75398 0.64770
 C2456 C 0.87564 0.75210 0.66647
 C2457 C 0.85756 0.75223 0.67795
 C2458 C 0.85866 0.75904 0.69649
 C2459 C 0.84209 0.75847 0.70815
 C2460 C 0.82423 0.75068 0.70155
 C2461 C 0.82312 0.74390 0.68294
 C2462 C 0.83964 0.74472 0.67121
 H2463 H 0.91821 0.78435 0.60482
 H2464 H 0.88567 0.77942 0.61863
 H2465 H 0.90792 0.72949 0.65323
 H2466 H 0.94045 0.73476 0.64083
 H2467 H 0.86228 0.75696 0.64007
 H2468 H 0.88953 0.75145 0.67393
 H2469 H 0.87241 0.76476 0.70197
 H2470 H 0.84339 0.76369 0.72245
 H2471 H 0.80952 0.73784 0.67748
 H2472 H 0.83847 0.73891 0.65712
 C2473 C 0.44764 0.23444 0.14458
 C2474 C 0.43068 0.23123 0.15534
 C2475 C 0.41202 0.23474 0.14754
 C2476 C 0.41060 0.24080 0.12848
 C2477 C 0.42758 0.24395 0.11770
 C2478 C 0.44624 0.24130 0.12579
 C2479 C 0.39472 0.23400 0.16018
 C2480 C 0.37614 0.23294 0.15416
 C2481 C 0.35921 0.23458 0.16709
 C2482 C 0.34167 0.22453 0.16274
 C2483 C 0.32538 0.22590 0.17467
 C2484 C 0.32627 0.23763 0.19105
 C2485 C 0.34370 0.24814 0.19514
 C2486 C 0.36002 0.24665 0.18326
 H2487 H 0.46185 0.23259 0.15126
 H2488 H 0.43216 0.22671 0.17001
 H2489 H 0.39656 0.24412 0.12199
 H2490 H 0.42614 0.24913 0.10321
 H2491 H 0.39750 0.23454 0.17515
 H2492 H 0.37307 0.23028 0.13951
 H2493 H 0.34066 0.21542 0.15020
 H2494 H 0.31209 0.21779 0.17102
 H2495 H 0.34479 0.25742 0.20756
 H2496 H 0.37313 0.25523 0.18662
 C2497 C 0.42240 0.74079 0.37766
 C2498 C 0.40332 0.73996 0.37056
 C2499 C 0.39798 0.72426 0.35841
 C2500 C 0.41161 0.70856 0.35445
 C2501 C 0.43064 0.70933 0.36161
 C2502 C 0.43634 0.72572 0.37289
 C2503 C 0.37856 0.72534 0.34932
 C2504 C 0.37594 0.71933 0.33161
 C2505 C 0.35762 0.72302 0.32096
 C2506 C 0.35421 0.71132 0.30497
 C2507 C 0.33768 0.71508 0.29384
 C2508 C 0.32430 0.73077 0.29844
 C2509 C 0.32774 0.74251 0.31445
 C2510 C 0.34426 0.73876 0.32555
 H2511 H 0.42638 0.75337 0.38661
 H2512 H 0.39295 0.75207 0.37395
 H2513 H 0.40770 0.69587 0.34561
 H2514 H 0.44112 0.69750 0.35776
 H2515 H 0.36678 0.73282 0.35689
 H2516 H 0.38795 0.71203 0.32417
 H2517 H 0.36441 0.69927 0.30103
 H2518 H 0.33547 0.70575 0.28160
 H2519 H 0.31779 0.75480 0.31834
 H2520 H 0.34669 0.74866 0.33732
 C2521 C 0.92639 0.23512 0.86512
 C2522 C 0.90697 0.23459 0.85899
 C2523 C 0.90055 0.21866 0.84756
 C2524 C 0.91357 0.20246 0.84339
 C2525 C 0.93304 0.20300 0.84954
 C2526 C 0.93972 0.21961 0.86003
 C2527 C 0.88058 0.22017 0.83961
 C2528 C 0.87577 0.21196 0.82314
 C2529 C 0.85722 0.21701 0.81328
 C2530 C 0.85651 0.21471 0.79372
 C2531 C 0.83987 0.22090 0.78363
 C2532 C 0.82372 0.22962 0.79297
 C2533 C 0.82410 0.23124 0.81259
 C2534 C 0.84057 0.22476 0.82270
 H2535 H 0.93108 0.24784 0.87360
 H2536 H 0.89712 0.24708 0.86261
 H2537 H 0.90891 0.18953 0.83520
 H2538 H 0.94303 0.19078 0.84555
 H2539 H 0.87047 0.23055 0.84645
 H2540 H 0.88662 0.20313 0.81550
 H2541 H 0.86906 0.20858 0.78616
 H2542 H 0.83980 0.21928 0.76851
 H2543 H 0.81154 0.23731 0.82018
 H2544 H 0.84009 0.22589 0.83783
 C2545 C 0.58105 0.99663 0.68658
 C2546 C 0.57077 0.99407 0.66981
 C2547 C 0.56323 1.01107 0.65970
 C2548 C 0.56612 1.03081 0.66685
 C2549 C 0.57637 1.03343 0.68361
 C2550 C 0.58433 1.01643 0.69377
 C2551 C 0.55386 1.00761 0.64120
 C2552 C 0.54300 1.02172 0.63178
 C2553 C 0.53591 1.01893 0.61226
 C2554 C 0.52067 1.03162 0.60531
 C2555 C 0.51471 1.03056 0.58653
 C2556 C 0.52402 1.01687 0.57424
 C2557 C 0.53906 1.00398 0.58130
 C2558 C 0.54500 1.00504 0.59998
 H2559 H 0.58722 0.98297 0.69322
 H2560 H 0.56903 0.97867 0.66452
 H2561 H 0.56091 1.04445 0.65946
 H2562 H 0.57746 1.04895 0.68867
 H2563 H 0.55617 0.99264 0.63518
 H2564 H 0.53908 1.03599 0.63842
 H2565 H 0.51355 1.04263 0.61437
 H2566 H 0.50318 1.04083 0.58153
 H2567 H 0.54667 0.99332 0.57225
 H2568 H 0.55723 0.99547 0.60443
 C2569 C 0.09484 0.51512 1.17249
 C2570 C 0.08514 0.51307 1.15538
 C2571 C 0.06517 0.50764 1.15491
 C2572 C 0.05511 0.50386 1.17198
 C2573 C 0.06495 0.50554 1.18916
 C2574 C 0.08488 0.51131 1.18954
 C2575 C 0.05584 0.50486 1.13637
 C2576 C 0.03665 0.50807 1.13282
 C2577 C 0.02856 0.50543 1.11368
 C2578 C 0.01405 0.51897 1.10662
 C2579 C 0.00780 0.51775 1.08788
 C2580 C 0.01583 0.50279 1.07600
 C2581 C 0.02936 0.48844 1.08358
 C2582 C 0.03561 0.48973 1.10214
 H2583 H 0.11024 0.51943 1.17242
 H2584 H 0.09327 0.51583 1.14243
 H2585 H 0.03982 0.49919 1.17206
 H2586 H 0.05697 0.50257 1.20215
 H2587 H 0.06559 0.50104 1.12482
 H2588 H 0.02706 0.51401 1.14367
 H2589 H 0.00820 0.53103 1.11535
 H2590 H -0.00268 0.52898 1.08252
 H2591 H 0.03562 0.47646 1.07501
 H2592 H 0.04624 0.47857 1.10737
 C2593 C -0.07169 -0.03824 1.19733
 C2594 C -0.05873 -0.03768 1.18199
 C2595 C -0.05059 -0.01906 1.17552
 C2596 C -0.05483 -0.00109 1.18550
 C2597 C -0.06786 -0.00158 1.20083
 C2598 C -0.07704 -0.02010 1.20683
 C2599 C -0.03839 -0.01903 1.15804
 C2600 C -0.03611 -0.00226 1.14692
 C2601 C -0.02713 -0.00243 1.12782
 C2602 C -0.03241 0.01348 1.11523
 C2603 C -0.02556 0.01368 1.09674
 C2604 C -0.01295 -0.00192 1.09031
 C2605 C -0.00687 -0.01747 1.10306
 C2606 C -0.01396 -0.01779 1.12168
 H2607 H -0.07712 -0.05317 1.20184
 H2608 H -0.05537 -0.05187 1.17490
 H2609 H -0.04832 0.01351 1.18147
 H2610 H -0.07135 0.01296 1.20720
 H2611 H -0.03296 -0.03372 1.15329
 H2612 H -0.04297 0.01203 1.15100
 H2613 H -0.04234 0.02562 1.11956
 H2614 H -0.03032 0.02606 1.08739
 H2615 H 0.00291 -0.02962 1.09852
 H2616 H -0.00912 -0.03002 1.13111
 C2617 C 0.42962 0.46162 0.69467
 C2618 C 0.44174 0.46150 0.67874
 C2619 C 0.44904 0.47989 0.67090
 C2620 C 0.44517 0.49836 0.68024
 C2621 C 0.43305 0.49855 0.69623
 C2622 C 0.42437 0.48025 0.70340
 C2623 C 0.45978 0.47916 0.65263
 C2624 C 0.46032 0.49518 0.64044
 C2625 C 0.46754 0.49397 0.62074
 C2626 C 0.46075 0.50889 0.60781
 C2627 C 0.46599 0.50807 0.58889
 C2628 C 0.47841 0.49238 0.58232
 C2629 C 0.48588 0.47777 0.59530
 C2630 C 0.48046 0.47851 0.61436
 H2631 H 0.42467 0.44689 0.70018
 H2632 H 0.44496 0.44695 0.67219
 H2633 H 0.45116 0.51283 0.67512
 H2634 H 0.42964 0.51337 0.70209
 H2635 H 0.46533 0.46435 0.64833
 H2636 H 0.45326 0.50946 0.64426
 H2637 H 0.45093 0.52106 0.61229
 H2638 H 0.46015 0.51976 0.57936
 H2639 H 0.49555 0.46557 0.59066
 H2640 H 0.48643 0.46701 0.62396
 C2641 C 0.43801 0.54380 -0.19048
 C2642 C 0.45135 0.54270 -0.17558
 C2643 C 0.45735 0.52361 -0.16793
 C2644 C 0.45061 0.50556 -0.17648
 C2645 C 0.43705 0.50667 -0.19119
 C2646 C 0.43015 0.52579 -0.19807
 C2647 C 0.46943 0.52339 -0.15046
 C2648 C 0.47192 0.50660 -0.13940
 C2649 C 0.47979 0.50691 -0.11996
 C2650 C 0.47429 0.49073 -0.10771
 C2651 C 0.47944 0.49090 -0.08882
 C2652 C 0.49056 0.50709 -0.08164
 C2653 C 0.49714 0.52279 -0.09399
 C2654 C 0.49170 0.52278 -0.11304
 H2655 H 0.43356 0.55883 -0.19580
 H2656 H 0.45650 0.55689 -0.16960
 H2657 H 0.45530 0.49043 -0.17175
 H2658 H 0.43140 0.49245 -0.19667
 H2659 H 0.47457 0.53809 -0.14561
 H2660 H 0.46587 0.49210 -0.14364
 H2661 H 0.46531 0.47821 -0.11261
 H2662 H 0.47439 0.47844 -0.07968
 H2663 H 0.50579 0.53541 -0.08878
 H2664 H 0.49669 0.53525 -0.12215
 C2665 C -0.06480 1.03970 0.31308
 C2666 C -0.05201 1.03873 0.32841
 C2667 C -0.04882 1.02012 0.33834
 C2668 C -0.05837 1.00227 0.33212
 C2669 C -0.07114 1.00326 0.31673
 C2670 C -0.07483 1.02206 0.30731
 C2671 C -0.03695 1.02058 0.35588
 C2672 C -0.03094 1.00377 0.36555
 C2673 C -0.02271 1.00463 0.38479
 C2674 C -0.02698 0.98839 0.39741
 C2675 C -0.02145 0.98937 0.41622
 C2676 C -0.01107 1.00642 0.42277
 C2677 C -0.00563 1.02214 0.40994
 C2678 C -0.01152 1.02133 0.39109
 H2679 H -0.06711 1.05437 0.30592
 H2680 H -0.04492 1.05273 0.33280
 H2681 H -0.05682 0.98763 0.33941
 H2682 H -0.07882 0.98946 0.31273
 H2683 H -0.03415 1.03558 0.36164
 H2684 H -0.03379 0.98863 0.36022
 H2685 H -0.03541 0.97527 0.39289
 H2686 H -0.02569 0.97695 0.42577
 H2687 H 0.00237 1.03544 0.41466
 H2688 H -0.00751 1.03386 0.38159
 C2689 C 0.09393 0.47044 0.31934
 C2690 C 0.08435 0.47291 0.33655
 C2691 C 0.06461 0.47933 0.33727
 C2692 C 0.05467 0.48364 0.32031
 C2693 C 0.06440 0.48139 0.30301
 C2694 C 0.08408 0.47462 0.30239
 C2695 C 0.05551 0.48238 0.35600
 C2696 C 0.03609 0.48158 0.35966
 C2697 C 0.02827 0.48441 0.37898
 C2698 C 0.01149 0.47358 0.38522
 C2699 C 0.00497 0.47497 0.40394
 C2700 C 0.01511 0.48733 0.41664
 C2701 C 0.03122 0.49899 0.41002
 C2702 C 0.03763 0.49765 0.39145
 H2703 H 0.10918 0.46546 0.31928
 H2704 H 0.09241 0.46973 0.34939
 H2705 H 0.03960 0.48910 0.32036
 H2706 H 0.05649 0.48471 0.29011
 H2707 H 0.06559 0.48434 0.36757
 H2708 H 0.02590 0.47752 0.34871
 H2709 H 0.00384 0.46350 0.37579
 H2710 H -0.00755 0.46588 0.40860
 H2711 H 0.03910 0.50906 0.41928
 H2712 H 0.05006 0.50693 0.38694
 C2713 C 0.59420 -0.02145 -0.17746
 C2714 C 0.58381 -0.01809 -0.16081
 C2715 C 0.56411 -0.01146 -0.16124
 C2716 C 0.55501 -0.00800 -0.17874
 C2717 C 0.56553 -0.01111 -0.19545
 C2718 C 0.58522 -0.01791 -0.19494
 C2719 C 0.55412 -0.00724 -0.14317
 C2720 C 0.53457 -0.00820 -0.14037
 C2721 C 0.52587 -0.00448 -0.12158
 C2722 C 0.50988 -0.01632 -0.11502
 C2723 C 0.50323 -0.01467 -0.09639
 C2724 C 0.51242 -0.00102 -0.08415
 C2725 C 0.52738 0.01192 -0.09126
 C2726 C 0.53397 0.01026 -0.10974
 H2727 H 0.60942 -0.02645 -0.17667
 H2728 H 0.59121 -0.02067 -0.14751
 H2729 H 0.53999 -0.00243 -0.17957
 H2730 H 0.55827 -0.00831 -0.20878
 H2731 H 0.56357 -0.00426 -0.13131
 H2732 H 0.52501 -0.01329 -0.15146
 H2733 H 0.50322 -0.02758 -0.12399
 H2734 H 0.49164 -0.02480 -0.09132
 H2735 H 0.53450 0.02291 -0.08233
 H2736 H 0.54578 0.02021 -0.11462
 C2737 C 0.68133 0.61062 0.03344
 C2738 C 0.66475 0.59876 0.02979
 C2739 C 0.65918 0.59447 0.01134
 C2740 C 0.67082 0.60238 -0.00353
 C2741 C 0.68752 0.61434 0.00008
 C2742 C 0.69315 0.61883 0.01870
 C2743 C 0.64142 0.58142 0.00875
 C2744 C 0.63303 0.57695 -0.00777
 C2745 C 0.61500 0.56400 -0.00885
 C2746 C 0.60176 0.56697 -0.02381
 C2747 C 0.58390 0.55612 -0.02423
 C2748 C 0.57901 0.54208 -0.00966
 C2749 C 0.59281 0.53825 0.00466
 C2750 C 0.61061 0.54889 0.00498
 H2751 H 0.68516 0.61243 0.04803
 H2752 H 0.65631 0.59267 0.04161
 H2753 H 0.66722 0.59945 -0.01800
 H2754 H 0.69547 0.62056 -0.01193
 H2755 H 0.63453 0.57563 0.02154
 H2756 H 0.63864 0.58370 -0.02073
 H2757 H 0.60490 0.57825 -0.03484
 H2758 H 0.57358 0.55939 -0.03546
 H2759 H 0.58967 0.52722 0.01590
 H2760 H 0.62080 0.54531 0.01622
 C2761 C 0.18564 1.11499 0.52400
 C2762 C 0.16862 1.10336 0.52185
 C2763 C 0.15916 1.10245 0.50440
 C2764 C 0.16747 1.11326 0.48891
 C2765 C 0.18463 1.12502 0.49111
 C2766 C 0.19370 1.12628 0.50879
 C2767 C 0.14042 1.09066 0.50367
 C2768 C 0.13095 1.08505 0.48803
 C2769 C 0.11223 1.07308 0.48882
 C2770 C 0.09882 1.07455 0.47383
 C2771 C 0.08059 1.06439 0.47482
 C2772 C 0.07543 1.05261 0.49089
 C2773 C 0.08923 1.05037 0.50544
 C2774 C 0.10743 1.06022 0.50434
 H2775 H 0.19248 1.11520 0.53771
 H2776 H 0.16273 1.09512 0.53401
 H2777 H 0.16059 1.11317 0.47525
 H2778 H 0.19046 1.13361 0.47913
 H2779 H 0.13404 1.08652 0.51719
 H2780 H 0.13656 1.08969 0.47434
 H2781 H 0.10223 1.08404 0.46155
 H2782 H 0.07028 1.06633 0.46336
 H2783 H 0.08591 1.04100 0.51781
 H2784 H 0.11765 1.05765 0.51576
 C2785 C 0.18133 -0.11277 0.98137
 C2786 C 0.16516 -0.10038 0.98566
 C2787 C 0.15846 -0.09857 1.00427
 C2788 C 0.16837 -0.10965 1.01860
 C2789 C 0.18461 -0.12216 1.01427
 C2790 C 0.19132 -0.12382 0.99559
 C2791 C 0.14164 -0.08437 1.00773
 C2792 C 0.13191 -0.08226 1.02411
 C2793 C 0.11509 -0.06766 1.02588
 C2794 C 0.09935 -0.07226 1.03821
 C2795 C 0.08239 -0.05979 1.03838
 C2796 C 0.08100 -0.04256 1.02621
 C2797 C 0.09731 -0.03717 1.01496
 C2798 C 0.11421 -0.04941 1.01493
 H2799 H 0.18629 -0.11329 0.96690
 H2800 H 0.15796 -0.09195 0.97432
 H2801 H 0.16391 -0.10857 1.03315
 H2802 H 0.19190 -0.13057 1.02556
 H2803 H 0.13665 -0.07545 0.99564
 H2804 H 0.13535 -0.09210 1.03609
 H2805 H 0.09980 -0.08603 1.04704
 H2806 H 0.06999 -0.06428 1.04718
 H2807 H 0.09677 -0.02374 1.00569
 H2808 H 0.12641 -0.04474 1.00599
 C2809 C 0.67129 0.37805 0.47454
 C2810 C 0.65330 0.38777 0.47797
 C2811 C 0.64691 0.39164 0.49633
 C2812 C 0.65886 0.38505 0.51137
 C2813 C 0.67694 0.37520 0.50799
 C2814 C 0.68373 0.37169 0.48944
 C2815 C 0.62827 0.40348 0.49863
 C2816 C 0.61962 0.40837 0.51502
 C2817 C 0.60177 0.42172 0.51548
 C2818 C 0.58732 0.41888 0.52956
 C2819 C 0.56981 0.43053 0.52919
 C2820 C 0.56659 0.44522 0.51473
 C2821 C 0.58160 0.44883 0.50140
 C2822 C 0.59898 0.43739 0.50185
 H2823 H 0.67568 0.37675 0.45999
 H2824 H 0.64454 0.39281 0.46603
 H2825 H 0.65455 0.38759 0.52578
 H2826 H 0.68524 0.37001 0.52011
 H2827 H 0.62127 0.40864 0.48572
 H2828 H 0.62515 0.40227 0.52822
 H2829 H 0.58929 0.40717 0.54044
 H2830 H 0.55853 0.42751 0.53970
 H2831 H 0.57980 0.46040 0.49036
 H2832 H 0.61017 0.44081 0.49135
 C2833 C -0.18985 0.39975 0.52486
 C2834 C -0.17348 0.41199 0.52085
 C2835 C -0.16415 0.41147 0.50320
 C2836 C -0.17176 0.39837 0.48949
 C2837 C -0.18822 0.38604 0.49354
 C2838 C -0.19733 0.38647 0.51134
 C2839 C -0.14629 0.42433 0.50036
 C2840 C -0.13694 0.42788 0.48390
 C2841 C -0.11865 0.44037 0.48272
 C2842 C -0.10424 0.43590 0.46911
 C2843 C -0.08593 0.44583 0.46924
 C2844 C -0.08179 0.46038 0.48300
 C2845 C -0.09673 0.46590 0.49568
 C2846 C -0.11501 0.45620 0.49543
 H2847 H -0.19674 0.40079 0.53857
 H2848 H -0.16805 0.42194 0.53169
 H2849 H -0.16494 0.39721 0.47579
 H2850 H -0.19357 0.37583 0.48288
 H2851 H -0.14032 0.43099 0.51292
 H2852 H -0.14198 0.42077 0.47121
 H2853 H -0.10681 0.42403 0.45896
 H2854 H -0.07466 0.44130 0.45929
 H2855 H -0.09409 0.47737 0.50621
 H2856 H -0.12608 0.46090 0.50548
 C2857 C 0.31823 -0.10904 0.02685
 C2858 C 0.33433 -0.09623 0.02341
 C2859 C 0.34233 -0.09389 0.00526
 C2860 C 0.33362 -0.10463 -0.00955
 C2861 C 0.31741 -0.11756 -0.00607
 C2862 C 0.30968 -0.12006 0.01223
 C2863 C 0.36001 -0.08059 0.00300
 C2864 C 0.36827 -0.07446 -0.01339
 C2865 C 0.38629 -0.06147 -0.01405
 C2866 C 0.39966 -0.06316 -0.02912
 C2867 C 0.41765 -0.05258 -0.02903
 C2868 C 0.42252 -0.04014 -0.01383
 C2869 C 0.40859 -0.03742 0.00058
 C2870 C 0.39063 -0.04774 0.00039
 H2871 H 0.31240 -0.11025 0.04103
 H2872 H 0.34060 -0.08812 0.03510
 H2873 H 0.33938 -0.10351 -0.02372
 H2874 H 0.31121 -0.12595 -0.01760
 H2875 H 0.36677 -0.07585 0.01595
 H2876 H 0.36246 -0.07965 -0.02657
 H2877 H 0.39653 -0.07335 -0.04059
 H2878 H 0.42811 -0.05492 -0.04035
 H2879 H 0.41176 -0.02757 0.01228
 H2880 H 0.38032 -0.04509 0.01174
 C2881 C 0.31300 1.11009 0.49856
 C2882 C 0.33022 1.09906 0.50276
 C2883 C 0.34878 1.10830 0.50068
 C2884 C 0.34978 1.12898 0.49448
 C2885 C 0.33255 1.13992 0.48995
 C2886 C 0.31400 1.13050 0.49174
 C2887 C 0.36671 1.09536 0.50301
 C2888 C 0.38433 1.10260 0.50818
 C2889 C 0.40243 1.08967 0.50786
 C2890 C 0.41754 1.09275 0.52094
 C2891 C 0.43518 1.08140 0.52000
 C2892 C 0.43819 1.06725 0.50557
 C2893 C 0.42302 1.06420 0.49256
 C2894 C 0.40536 1.07517 0.49372
 H2895 H 0.29892 1.10241 0.49991
 H2896 H 0.32905 1.08309 0.50731
 H2897 H 0.36386 1.13644 0.49232
 H2898 H 0.33371 1.15565 0.48475
 H2899 H 0.36524 1.07909 0.50028
 H2900 H 0.38561 1.11833 0.51273
 H2901 H 0.41571 1.10400 0.53184
 H2902 H 0.44667 1.08415 0.53013
 H2903 H 0.42488 1.05339 0.48129
 H2904 H 0.39427 1.07277 0.48312
 C2905 C -0.17933 0.62603 1.01493
 C2906 C -0.16154 0.61586 1.01900
 C2907 C -0.15099 0.60575 1.00486
 C2908 C -0.15894 0.60559 0.98661
 C2909 C -0.17671 0.61569 0.98256
 C2910 C -0.18713 0.62614 0.99662
 C2911 C -0.13206 0.59513 1.00953
 C2912 C -0.11758 0.59293 0.99678
 C2913 C -0.09845 0.58205 0.99989
 C2914 C -0.08422 0.58386 0.98560
 C2915 C -0.06668 0.57272 0.98652
 C2916 C -0.06268 0.55932 1.00181
 C2917 C -0.07646 0.55804 1.01663
 C2918 C -0.09428 0.56922 1.01566
 H2919 H -0.18686 0.63402 1.02610
 H2920 H -0.15588 0.61611 1.03319
 H2921 H -0.15172 0.59730 0.97547
 H2922 H -0.18251 0.61494 0.96845
 H2923 H -0.12990 0.58984 1.02389
 H2924 H -0.11963 0.59989 0.98296
 H2925 H -0.08685 0.59364 0.97335
 H2926 H -0.05632 0.57434 0.97495
 H2927 H -0.07382 0.54779 1.02856
 H2928 H -0.10488 0.56721 1.02693
 C2929 C 0.01309 0.69038 0.57975
 C2930 C 0.01231 0.67265 0.56909
 C2931 C 0.01603 0.65330 0.57741
 C2932 C 0.02045 0.65193 0.59669
 C2933 C 0.02116 0.66966 0.60737
 C2934 C 0.01738 0.68903 0.59902
 C2935 C 0.01396 0.63491 0.56582
 C2936 C 0.02335 0.61712 0.56946
 C2937 C 0.02024 0.59848 0.55832
 C2938 C 0.02396 0.57914 0.56672
 C2939 C 0.02026 0.56115 0.55697
 C2940 C 0.01277 0.56223 0.53861
 C2941 C 0.00967 0.58159 0.52999
 C2942 C 0.01354 0.59952 0.53965
 H2943 H 0.01034 0.70515 0.57292
 H2944 H 0.00877 0.67405 0.55429
 H2945 H 0.02271 0.63721 0.60373
 H2946 H 0.02410 0.66816 0.62228
 H2947 H 0.00414 0.63632 0.55394
 H2948 H 0.03311 0.61578 0.58140
 H2949 H 0.02936 0.57795 0.58100
 H2950 H 0.02293 0.54643 0.56392
 H2951 H 0.00437 0.58292 0.51568
 H2952 H 0.01137 0.61408 0.53232
 C2953 C 0.55418 0.17036 0.10067
 C2954 C 0.55396 0.14979 0.09538
 C2955 C 0.53764 0.13739 0.09973
 C2956 C 0.52238 0.14525 0.11095
 C2957 C 0.52255 0.16578 0.11615
 C2958 C 0.53809 0.17866 0.11045
 C2959 C 0.53592 0.11722 0.09083
 C2960 C 0.51852 0.11067 0.08458
 C2961 C 0.51646 0.09306 0.07207
 C2962 C 0.50077 0.09324 0.05935
 C2963 C 0.49858 0.07735 0.04672
 C2964 C 0.51192 0.06078 0.04676
 C2965 C 0.52744 0.06038 0.05978
 C2966 C 0.52971 0.07640 0.07233
 H2967 H 0.56637 0.18003 0.09623
 H2968 H 0.56596 0.14393 0.08689
 H2969 H 0.50996 0.13577 0.11514
 H2970 H 0.51027 0.17176 0.12418
 H2971 H 0.54936 0.10931 0.08694
 H2972 H 0.50546 0.11996 0.08682
 H2973 H 0.49034 0.10591 0.05899
 H2974 H 0.48635 0.07800 0.03702
 H2975 H 0.53787 0.04773 0.06024
 H2976 H 0.54167 0.07558 0.08231
 C2977 C -0.00116 0.16819 0.87774
 C2978 C 0.00565 0.15073 0.88741
 C2979 C 0.01474 0.15253 0.90494
 C2980 C 0.01858 0.17224 0.91183
 C2981 C 0.01183 0.18973 0.90211
 C2982 C 0.00123 0.18777 0.88536
 C2983 C 0.01824 0.13359 0.91622
 C2984 C 0.01696 0.13314 0.93502
 C2985 C 0.01568 0.11375 0.94608
 C2986 C 0.02234 0.11326 0.96469
 C2987 C 0.02042 0.09539 0.97577
 C2988 C 0.01145 0.07781 0.96850
 C2989 C 0.00444 0.07848 0.94996
 C2990 C 0.00652 0.09626 0.93886
 H2991 H -0.00898 0.16635 0.86466
 H2992 H 0.00278 0.13570 0.88171
 H2993 H 0.02621 0.17419 0.92498
 H2994 H 0.01393 0.20468 0.90823
 H2995 H 0.01959 0.11930 0.90874
 H2996 H 0.01568 0.14730 0.94269
 H2997 H 0.02912 0.12670 0.97062
 H2998 H 0.02590 0.09538 0.99003
 H2999 H -0.00257 0.06522 0.94394
 H3000 H 0.00048 0.09637 0.92482
 C3001 C 0.50761 0.69338 0.41469
 C3002 C 0.51442 0.67494 0.42277
 C3003 C 0.51136 0.65628 0.41368
 C3004 C 0.50324 0.65654 0.39555
 C3005 C 0.49633 0.67489 0.38756
 C3006 C 0.49775 0.69328 0.39741
 C3007 C 0.51479 0.63677 0.42412
 C3008 C 0.50245 0.62087 0.42237
 C3009 C 0.50261 0.60202 0.43432
 C3010 C 0.49069 0.58559 0.42896
 C3011 C 0.48913 0.56793 0.44027
 C3012 C 0.49946 0.56630 0.45728
 C3013 C 0.51153 0.58266 0.46263
 C3014 C 0.51306 0.60039 0.45132
 H3015 H 0.50893 0.70748 0.42244
 H3016 H 0.52088 0.67507 0.43665
 H3017 H 0.50149 0.64247 0.38784
 H3018 H 0.48920 0.67463 0.37399
 H3019 H 0.52626 0.63647 0.43459
 H3020 H 0.49073 0.62203 0.41213
 H3021 H 0.48239 0.58649 0.41600
 H3022 H 0.47979 0.55556 0.43564
 H3023 H 0.51967 0.58190 0.47568
 H3024 H 0.52206 0.61280 0.45628
 C3025 C 0.47922 0.82558 0.40564
 C3026 C 0.47399 0.84448 0.41319
 C3027 C 0.47814 0.86280 0.40326
 C3028 C 0.48568 0.86194 0.38487
 C3029 C 0.49075 0.84306 0.37725
 C3030 C 0.48840 0.82479 0.38791
 C3031 C 0.47675 0.88235 0.41324
 C3032 C 0.49110 0.89638 0.41160
 C3033 C 0.49329 0.91398 0.42421
 C3034 C 0.50618 0.92986 0.41878
 C3035 C 0.50973 0.94617 0.43072
 C3036 C 0.50048 0.94685 0.44841
 C3037 C 0.48769 0.93087 0.45392
 C3038 C 0.48420 0.91454 0.44202
 H3039 H 0.47727 0.81176 0.41419
 H3040 H 0.46806 0.84487 0.42735
 H3041 H 0.48841 0.87590 0.37671
 H3042 H 0.49726 0.84279 0.36332
 H3043 H 0.46522 0.88381 0.42367
 H3044 H 0.50264 0.89428 0.40121
 H3045 H 0.51357 0.92963 0.40524
 H3046 H 0.51957 0.95832 0.42600
 H3047 H 0.48043 0.93088 0.46752
 H3048 H 0.47477 0.90228 0.44712
 C3049 C -0.01901 0.31700 0.89681
 C3050 C -0.02426 0.33502 0.90594
 C3051 C -0.02031 0.35424 0.89750
 C3052 C -0.01301 0.35523 0.87900
 C3053 C -0.00793 0.33724 0.86980
 C3054 C -0.01001 0.31801 0.87897
 C3055 C -0.02179 0.37274 0.90901
 C3056 C -0.00757 0.38700 0.90838
 C3057 C -0.00573 0.40388 0.92186
 C3058 C 0.00771 0.41970 0.91768
 C3059 C 0.01072 0.43551 0.93030
 C3060 C 0.00034 0.43579 0.94743
 C3061 C -0.01297 0.41984 0.95172
 C3062 C -0.01592 0.40400 0.93914
 H3063 H -0.02075 0.30241 0.90424
 H3064 H -0.03004 0.33398 0.92016
 H3065 H -0.01046 0.36993 0.87197
 H3066 H -0.00155 0.33839 0.85583
 H3067 H -0.03338 0.37319 0.91946
 H3068 H 0.00407 0.38571 0.89796
 H3069 H 0.01591 0.41986 0.90457
 H3070 H 0.02098 0.44764 0.92651
 H3071 H -0.02111 0.41955 0.96486
 H3072 H -0.02591 0.39183 0.94330
 C3073 C 0.49304 0.29786 0.07158
 C3074 C 0.49450 0.31751 0.06351
 C3075 C 0.48529 0.33436 0.07196
 C3076 C 0.47450 0.33119 0.08870
 C3077 C 0.47304 0.31151 0.09677
 C3078 C 0.48240 0.29472 0.08833
 C3079 C 0.48807 0.35491 0.06318
 C3080 C 0.47644 0.37120 0.06634
 C3081 C 0.47985 0.39127 0.05681
 C3082 C 0.47426 0.40945 0.06577
 C3083 C 0.47805 0.42863 0.05724
 C3084 C 0.48746 0.42982 0.03961
 C3085 C 0.49242 0.41158 0.03044
 C3086 C 0.48849 0.39254 0.03884
 H3087 H 0.50029 0.28512 0.06477
 H3088 H 0.50293 0.31957 0.05063
 H3089 H 0.46767 0.34382 0.09597
 H3090 H 0.46511 0.30953 0.10993
 H3091 H 0.50037 0.35647 0.05351
 H3092 H 0.46436 0.37016 0.07627
 H3093 H 0.46730 0.40881 0.07950
 H3094 H 0.47387 0.44247 0.06452
 H3095 H 0.49918 0.41195 0.01661
 H3096 H 0.49208 0.37888 0.03106
 C3097 C -0.00133 0.81784 0.59362
 C3098 C 0.00371 0.83816 0.58934
 C3099 C -0.00694 0.85443 0.59713
 C3100 C -0.02220 0.85011 0.61002
 C3101 C -0.02708 0.82974 0.61454
 C3102 C -0.01690 0.81339 0.60613
 C3103 C -0.00220 0.87553 0.59074
 C3104 C -0.01603 0.89007 0.58820
 C3105 C -0.01230 0.90929 0.57732
 C3106 C -0.02482 0.92628 0.57975
 C3107 C -0.02271 0.94398 0.56842
 C3108 C -0.00812 0.94488 0.55431
 C3109 C 0.00449 0.92792 0.55204
 C3110 C 0.00237 0.91032 0.56330
 H3111 H 0.00667 0.80562 0.58677
 H3112 H 0.01552 0.84118 0.57936
 H3113 H -0.03030 0.86239 0.61665
 H3114 H -0.03876 0.82680 0.62465
 H3115 H 0.01276 0.87830 0.58607
 H3116 H -0.03096 0.88732 0.59303
 H3117 H -0.03643 0.92572 0.59026
 H3118 H -0.03271 0.95677 0.57047
 H3119 H 0.01582 0.92800 0.54126
 H3120 H 0.01181 0.89733 0.56035
 C3121 C 0.29096 0.31772 0.05456
 C3122 C 0.28952 0.30374 0.06968
 C3123 C 0.27117 0.29664 0.07611
 C3124 C 0.25421 0.30324 0.06634
 C3125 C 0.25560 0.31734 0.05121
 C3126 C 0.27399 0.32533 0.04522
 C3127 C 0.27065 0.28319 0.09339
 C3128 C 0.25415 0.27811 0.10289
 C3129 C 0.25409 0.26820 0.12192
 C3130 C 0.23784 0.27189 0.13365
 C3131 C 0.23776 0.26495 0.15232
 C3132 C 0.25380 0.25378 0.15972
 C3133 C 0.26956 0.24881 0.14774
 C3134 C 0.26976 0.25603 0.12898
 H3135 H 0.30563 0.32207 0.05006
 H3136 H 0.30293 0.29867 0.07658
 H3137 H 0.23970 0.29797 0.07036
 H3138 H 0.24195 0.32262 0.04499
 H3139 H 0.28473 0.27883 0.09936
 H3140 H 0.24004 0.28331 0.09769
 H3141 H 0.22546 0.28096 0.12859
 H3142 H 0.22530 0.26883 0.16118
 H3143 H 0.28210 0.24020 0.15310
 H3144 H 0.28229 0.25229 0.12021
 C3145 C 0.78681 0.82325 0.56051
 C3146 C 0.78500 0.80963 0.57589
 C3147 C 0.76662 0.80605 0.58444
 C3148 C 0.74982 0.81554 0.57645
 C3149 C 0.75165 0.82927 0.56110
 C3150 C 0.77024 0.83367 0.55323
 C3151 C 0.76585 0.79302 0.60192
 C3152 C 0.75114 0.79408 0.61458
 C3153 C 0.75136 0.78395 0.63355
 C3154 C 0.73807 0.79126 0.64703
 C3155 C 0.73822 0.78347 0.66542
 C3156 C 0.75160 0.76793 0.67092
 C3157 C 0.76444 0.75991 0.65730
 C3158 C 0.76436 0.76784 0.63877
 H3159 H 0.80129 0.82585 0.55448
 H3160 H 0.79816 0.80231 0.58147
 H3161 H 0.73523 0.81266 0.58204
 H3162 H 0.73857 0.83694 0.55580
 H3163 H 0.77875 0.78384 0.60518
 H3164 H 0.73894 0.80442 0.61180
 H3165 H 0.72776 0.80348 0.64346
 H3166 H 0.72792 0.78988 0.67543
 H3167 H 0.77485 0.74786 0.66106
 H3168 H 0.77451 0.76134 0.62873
 C3169 C 0.21954 0.64513 0.58011
 C3170 C 0.22044 0.65522 0.59719
 C3171 C 0.22507 0.67621 0.59773
 C3172 C 0.22919 0.68692 0.58076
 C3173 C 0.22852 0.67670 0.56360
 C3174 C 0.22354 0.65574 0.56315
 C3175 C 0.22669 0.68575 0.61636
 C3176 C 0.22445 0.70591 0.61962
 C3177 C 0.22675 0.71405 0.63882
 C3178 C 0.21517 0.73066 0.64490
 C3179 C 0.21657 0.73751 0.66346
 C3180 C 0.22967 0.72787 0.67613
 C3181 C 0.24182 0.71190 0.66964
 C3182 C 0.24048 0.70519 0.65127
 H3183 H 0.21586 0.62892 0.58017
 H3184 H 0.21746 0.64656 0.61006
 H3185 H 0.23330 0.70299 0.58074
 H3186 H 0.23163 0.68519 0.55067
 H3187 H 0.22911 0.67530 0.62820
 H3188 H 0.22001 0.71638 0.60838
 H3189 H 0.20468 0.73794 0.63544
 H3190 H 0.20714 0.74997 0.66799
 H3191 H 0.25248 0.70445 0.67881
 H3192 H 0.25026 0.69298 0.64685
 C3193 C 0.73774 0.18163 0.05744
 C3194 C 0.73729 0.19477 0.07286
 C3195 C 0.72506 0.19058 0.08841
 C3196 C 0.71270 0.17333 0.08783
 C3197 C 0.71345 0.15998 0.07279
 C3198 C 0.72596 0.16369 0.05709
 C3199 C 0.72583 0.20403 0.10514
 C3200 C 0.72022 0.19730 0.12233
 C3201 C 0.72224 0.20870 0.14008
 C3202 C 0.72033 0.19722 0.15689
 C3203 C 0.72306 0.20634 0.17416
 C3204 C 0.72760 0.22733 0.17523
 C3205 C 0.72857 0.23928 0.15856
 C3206 C 0.72600 0.23000 0.14103
 H3207 H 0.74708 0.18610 0.04572
 H3208 H 0.74673 0.20818 0.07269
 H3209 H 0.70236 0.16979 0.09903
 H3210 H 0.70456 0.14630 0.07423
 H3211 H 0.73245 0.21907 0.10341
 H3212 H 0.71514 0.18164 0.12403
 H3213 H 0.71720 0.18089 0.15669
 H3214 H 0.72194 0.19678 0.18678
 H3215 H 0.73202 0.25551 0.15905
 H3216 H 0.72712 0.23948 0.12840
 C3217 C 0.76385 0.18165 0.95353
 C3218 C 0.76294 0.19361 0.93693
 C3219 C 0.76986 0.18576 0.91987
 C3220 C 0.77824 0.16592 0.91983
 C3221 C 0.77916 0.15403 0.93634
 C3222 C 0.77197 0.16170 0.95339
 C3223 C 0.76819 0.19837 0.90231
 C3224 C 0.76545 0.18967 0.88561
 C3225 C 0.76284 0.20117 0.86762
 C3226 C 0.75270 0.19136 0.85329
 C3227 C 0.75043 0.20084 0.83573
 C3228 C 0.75849 0.22040 0.83184
 C3229 C 0.76877 0.23033 0.84617
 C3230 C 0.77087 0.22082 0.86397
 H3231 H 0.75847 0.18810 0.96651
 H3232 H 0.75659 0.20891 0.93736
 H3233 H 0.78429 0.15957 0.90708
 H3234 H 0.78542 0.13870 0.93573
 H3235 H 0.76790 0.21497 0.90337
 H3236 H 0.76378 0.17312 0.88512
 H3237 H 0.74649 0.17618 0.85567
 H3238 H 0.74252 0.19258 0.82509
 H3239 H 0.77526 0.24533 0.84360
 H3240 H 0.77917 0.22861 0.87462
 C3241 C 0.28040 0.67663 0.44925
 C3242 C 0.27960 0.68889 0.43290
 C3243 C 0.26209 0.69068 0.42261
 C3244 C 0.24501 0.68094 0.42974
 C3245 C 0.24584 0.66857 0.44604
 C3246 C 0.26366 0.66587 0.45574
 C3247 C 0.26246 0.70214 0.40431
 C3248 C 0.24990 0.69810 0.39038
 C3249 C 0.25103 0.70698 0.37099
 C3250 C 0.23936 0.69791 0.35728
 C3251 C 0.24001 0.70487 0.33867
 C3252 C 0.25235 0.72127 0.33311
 C3253 C 0.26386 0.73072 0.34683
 C3254 C 0.26320 0.72368 0.36563
 H3255 H 0.29423 0.67537 0.45669
 H3256 H 0.29288 0.69650 0.42796
 H3257 H 0.23099 0.68261 0.42272
 H3258 H 0.23265 0.66060 0.45069
 H3259 H 0.27451 0.71269 0.40182
 H3260 H 0.23884 0.68638 0.39276
 H3261 H 0.22977 0.68512 0.36093
 H3262 H 0.23080 0.69724 0.32860
 H3263 H 0.27343 0.74346 0.34305
 H3264 H 0.27219 0.73143 0.37575
 C3265 C 0.71401 0.83043 0.44457
 C3266 C 0.71354 0.81697 0.42951
 C3267 C 0.73102 0.81036 0.42088
 C3268 C 0.74913 0.81659 0.42854
 C3269 C 0.74960 0.83022 0.44355
 C3270 C 0.73203 0.83775 0.45143
 C3271 C 0.72956 0.79786 0.40357
 C3272 C 0.74427 0.79628 0.39097
 C3273 C 0.74245 0.78716 0.37202
 C3274 C 0.75729 0.79180 0.35887
 C3275 C 0.75605 0.78515 0.34045
 C3276 C 0.73995 0.77341 0.33455
 C3277 C 0.72540 0.76785 0.34783
 C3278 C 0.72658 0.77472 0.36643
 H3279 H 0.70017 0.83536 0.45068
 H3280 H 0.69938 0.81220 0.42421
 H3281 H 0.76304 0.81126 0.42297
 H3282 H 0.76374 0.83538 0.44854
 H3283 H 0.71529 0.79155 0.40036
 H3284 H 0.75810 0.80375 0.39377
 H3285 H 0.76979 0.80113 0.36270
 H3286 H 0.76773 0.78945 0.33072
 H3287 H 0.71289 0.75872 0.34371
 H3288 H 0.71503 0.77033 0.37621
 C3289 C 0.21573 0.32246 0.93698
 C3290 C 0.21553 0.31042 0.92093
 C3291 C 0.23280 0.30719 0.91044
 C3292 C 0.25050 0.31600 0.91673
 C3293 C 0.25069 0.32804 0.93285
 C3294 C 0.23323 0.33175 0.94294
 C3295 C 0.23126 0.29610 0.89237
 C3296 C 0.24676 0.28870 0.88281
 C3297 C 0.24541 0.28066 0.86345
 C3298 C 0.26201 0.28254 0.85175
 C3299 C 0.26123 0.27676 0.83300
 C3300 C 0.24392 0.26855 0.82550
 C3301 C 0.22752 0.26561 0.83739
 C3302 C 0.22820 0.27172 0.85621
 H3303 H 0.20208 0.32474 0.94462
 H3304 H 0.20170 0.30389 0.91648
 H3305 H 0.26411 0.31445 0.90894
 H3306 H 0.26435 0.33519 0.93696
 H3307 H 0.21669 0.29484 0.88641
 H3308 H 0.26137 0.28993 0.88861
 H3309 H 0.27548 0.28917 0.85697
 H3310 H 0.27419 0.27902 0.82425
 H3311 H 0.21400 0.25928 0.83198
 H3312 H 0.21527 0.26949 0.86496
 C3313 C 0.86467 0.44095 0.75727
 C3314 C 0.85197 0.42523 0.76322
 C3315 C 0.85730 0.40449 0.76133
 C3316 C 0.87580 0.39979 0.75339
 C3317 C 0.88850 0.41559 0.74729
 C3318 C 0.88302 0.43636 0.74907
 C3319 C 0.84235 0.38852 0.76602
 C3320 C 0.84640 0.36856 0.76958
 C3321 C 0.83069 0.35271 0.77141
 C3322 C 0.83419 0.33430 0.78165
 C3323 C 0.82030 0.31830 0.78179
 C3324 C 0.80288 0.32035 0.77134
 C3325 C 0.79917 0.33899 0.76162
 C3326 C 0.81284 0.35493 0.76163
 H3327 H 0.85983 0.45676 0.75857
 H3328 H 0.83773 0.42932 0.76903
 H3329 H 0.88024 0.38400 0.75125
 H3330 H 0.90256 0.41157 0.74107
 H3331 H 0.82716 0.39363 0.76649
 H3332 H 0.86155 0.36353 0.77099
 H3333 H 0.84790 0.33211 0.78915
 H3334 H 0.82364 0.30399 0.78918
 H3335 H 0.78591 0.34097 0.75336
 H3336 H 0.80976 0.36853 0.75311
 C3337 C 0.37619 0.91610 0.22544
 C3338 C 0.36380 0.89959 0.22980
 C3339 C 0.35869 0.89467 0.24846
 C3340 C 0.36644 0.90669 0.26283
 C3341 C 0.37886 0.92337 0.25851
 C3342 C 0.38398 0.92854 0.23965
 C3343 C 0.34435 0.87775 0.25181
 C3344 C 0.34072 0.86816 0.26840
 C3345 C 0.32592 0.85137 0.26999
 C3346 C 0.32895 0.83449 0.28237
 C3347 C 0.31618 0.81751 0.28228
 C3348 C 0.30020 0.81727 0.26982
 C3349 C 0.29642 0.83481 0.25853
 C3350 C 0.30898 0.85169 0.25872
 H3351 H 0.37862 0.91957 0.21069
 H3352 H 0.35785 0.89081 0.21838
 H3353 H 0.36269 0.90357 0.27741
 H3354 H 0.38475 0.93180 0.27014
 H3355 H 0.33671 0.87245 0.23950
 H3356 H 0.34937 0.87165 0.28064
 H3357 H 0.34172 0.83403 0.29143
 H3358 H 0.31939 0.80418 0.29114
 H3359 H 0.28397 0.83523 0.24906
 H3360 H 0.30562 0.86482 0.24968
 C3361 C 0.13838 0.94942 0.75301
 C3362 C 0.15173 0.93378 0.74859
 C3363 C 0.14651 0.91302 0.75092
 C3364 C 0.12759 0.90817 0.75790
 C3365 C 0.11433 0.92385 0.76263
 C3366 C 0.11962 0.94463 0.76026
 C3367 C 0.16164 0.89696 0.74752
 C3368 C 0.15738 0.87783 0.74212
 C3369 C 0.17250 0.86133 0.74067
 C3370 C 0.16947 0.84496 0.72843
 C3371 C 0.18240 0.82808 0.72831
 C3372 C 0.19839 0.82706 0.74077
 C3373 C 0.20175 0.84375 0.75259
 C3374 C 0.18902 0.86069 0.75252
 H3375 H 0.14295 0.96530 0.75128
 H3376 H 0.16628 0.93792 0.74347
 H3377 H 0.12326 0.89233 0.76033
 H3378 H 0.09996 0.91976 0.76821
 H3379 H 0.17690 0.90130 0.74926
 H3380 H 0.14235 0.87405 0.73857
 H3381 H 0.15678 0.84500 0.71927
 H3382 H 0.17927 0.81534 0.71922
 H3383 H 0.21387 0.84336 0.76243
 H3384 H 0.19160 0.87273 0.76249
 C3385 C 0.63474 0.43559 0.27612
 C3386 C 0.64840 0.42005 0.27246
 C3387 C 0.65079 0.41236 0.25427
 C3388 C 0.63907 0.42076 0.23971
 C3389 C 0.62531 0.43636 0.24341
 C3390 C 0.62296 0.44395 0.26168
 C3391 C 0.66578 0.39585 0.25152
 C3392 C 0.66898 0.38560 0.23554
 C3393 C 0.68363 0.36854 0.23436
 C3394 C 0.68051 0.35249 0.22177
 C3395 C 0.69292 0.33517 0.22181
 C3396 C 0.70874 0.33364 0.23444
 C3397 C 0.71266 0.35036 0.24606
 C3398 C 0.70038 0.36766 0.24591
 H3399 H 0.63368 0.44133 0.29027
 H3400 H 0.65726 0.41406 0.28397
 H3401 H 0.64042 0.41554 0.22544
 H3402 H 0.61639 0.44238 0.23197
 H3403 H 0.67420 0.39143 0.26384
 H3404 H 0.65988 0.38860 0.22337
 H3405 H 0.66791 0.35292 0.21249
 H3406 H 0.68948 0.32253 0.21272
 H3407 H 0.72492 0.34981 0.25573
 H3408 H 0.70391 0.38012 0.25514
 C3409 C 0.62398 0.57696 0.22700
 C3410 C 0.63558 0.59402 0.23087
 C3411 C 0.63719 0.60131 0.24925
 C3412 C 0.62659 0.59115 0.26375
 C3413 C 0.61486 0.57403 0.25984
 C3414 C 0.61351 0.56664 0.24141
 C3415 C 0.65071 0.61891 0.25233
 C3416 C 0.65330 0.62875 0.26860
 C3417 C 0.66762 0.64594 0.27009
 C3418 C 0.66395 0.66221 0.28242
 C3419 C 0.67639 0.67946 0.28253
 C3420 C 0.69269 0.68061 0.27029
 C3421 C 0.69706 0.66370 0.25899
 C3422 C 0.68484 0.64653 0.25902
 H3423 H 0.62367 0.57152 0.21272
 H3424 H 0.64363 0.60138 0.21940
 H3425 H 0.62744 0.59607 0.27814
 H3426 H 0.60687 0.56655 0.27126
 H3427 H 0.65889 0.62427 0.24008
 H3428 H 0.64433 0.62499 0.28078
 H3429 H 0.65098 0.66197 0.29136
 H3430 H 0.67270 0.69230 0.29137
 H3431 H 0.70976 0.66400 0.24969
 H3432 H 0.68879 0.63388 0.25007
 C3433 C 0.13227 0.06286 0.74567
 C3434 C 0.14502 0.07927 0.74857
 C3435 C 0.13798 0.09958 0.74844
 C3436 C 0.11782 0.10321 0.74507
 C3437 C 0.10505 0.08671 0.74184
 C3438 C 0.11217 0.06637 0.74220
 C3439 C 0.15243 0.11646 0.75025
 C3440 C 0.14823 0.13506 0.75715
 C3441 C 0.16305 0.15184 0.75726
 C3442 C 0.16248 0.16680 0.77128
 C3443 C 0.17589 0.18325 0.77093
 C3444 C 0.18977 0.18522 0.75627
 C3445 C 0.19037 0.17013 0.74239
 C3446 C 0.17723 0.15370 0.74286
 H3447 H 0.13822 0.04736 0.74577
 H3448 H 0.16051 0.07607 0.75087
 H3449 H 0.11202 0.11874 0.74438
 H3450 H 0.08962 0.08981 0.73916
 H3451 H 0.16747 0.11308 0.74612
 H3452 H 0.13380 0.13801 0.76311
 H3453 H 0.15158 0.16581 0.78244
 H3454 H 0.17494 0.19476 0.78169
 H3455 H 0.20085 0.17120 0.73087
 H3456 H 0.17779 0.14287 0.73152
 C3457 C 0.37377 0.06051 0.27260
 C3458 C 0.36086 0.07697 0.26938
 C3459 C 0.35679 0.08414 0.25104
 C3460 C 0.36615 0.07438 0.23587
 C3461 C 0.37916 0.05786 0.23912
 C3462 C 0.38314 0.05073 0.25754
 C3463 C 0.34277 0.10172 0.24883
 C3464 C 0.33623 0.10985 0.23245
 C3465 C 0.32212 0.12747 0.23174
 C3466 C 0.32242 0.14138 0.21632
 C3467 C 0.31032 0.15898 0.21613
 C3468 C 0.29767 0.16290 0.23137
 C3469 C 0.29654 0.14830 0.24619
 C3470 C 0.30845 0.13076 0.24631
 H3471 H 0.37617 0.05522 0.28694
 H3472 H 0.35388 0.08405 0.28137
 H3473 H 0.36365 0.07936 0.22150
 H3474 H 0.38629 0.05081 0.22720
 H3475 H 0.33772 0.10852 0.26177
 H3476 H 0.34175 0.10424 0.21923
 H3477 H 0.33256 0.13904 0.20474
 H3478 H 0.31150 0.16993 0.20450
 H3479 H 0.28665 0.15065 0.25797
 H3480 H 0.30698 0.11992 0.25797
 C3481 C 0.87305 0.56844 0.77234
 C3482 C 0.85946 0.58415 0.76876
 C3483 C 0.85536 0.59081 0.75030
 C3484 C 0.86524 0.58121 0.73534
 C3485 C 0.87894 0.56539 0.73895
 C3486 C 0.88303 0.55886 0.75752
 C3487 C 0.84032 0.60731 0.74770
 C3488 C 0.83644 0.61763 0.73155
 C3489 C 0.82162 0.63456 0.73077
 C3490 C 0.82430 0.65135 0.71822
 C3491 C 0.81180 0.66860 0.71896
 C3492 C 0.79647 0.66926 0.73228
 C3493 C 0.79295 0.65185 0.74381
 C3494 C 0.80520 0.63463 0.74292
 H3495 H 0.87547 0.56352 0.78678
 H3496 H 0.85199 0.59107 0.78058
 H3497 H 0.86235 0.58560 0.72089
 H3498 H 0.88641 0.55833 0.72723
 H3499 H 0.83251 0.61178 0.76030
 H3500 H 0.84508 0.61480 0.71906
 H3501 H 0.83663 0.65154 0.70849
 H3502 H 0.81483 0.68184 0.70992
 H3503 H 0.78099 0.65180 0.75396
 H3504 H 0.80201 0.62159 0.75213
 C3505 C 0.91805 0.77065 0.14377
 C3506 C 0.89840 0.76762 0.14901
 C3507 C 0.89343 0.75261 0.16256
 C3508 C 0.90823 0.73969 0.16986
 C3509 C 0.92783 0.74280 0.16485
 C3510 C 0.93329 0.75867 0.15199
 C3511 C 0.87293 0.75139 0.16948
 C3512 C 0.86878 0.74563 0.18724
 C3513 C 0.84885 0.74585 0.19554
 C3514 C 0.84546 0.73381 0.21178
 C3515 C 0.82735 0.73456 0.22102
 C3516 C 0.81227 0.74755 0.21426
 C3517 C 0.81559 0.75948 0.19786
 C3518 C 0.83373 0.75869 0.18858
 H3519 H 0.92101 0.78225 0.13303
 H3520 H 0.88712 0.77743 0.14284
 H3521 H 0.90482 0.72736 0.17979
 H3522 H 0.93858 0.73331 0.17211
 H3523 H 0.86135 0.75655 0.16011
 H3524 H 0.88058 0.74089 0.19656
 H3525 H 0.85695 0.72391 0.21746
 H3526 H 0.82531 0.72515 0.23362
 H3527 H 0.80429 0.76972 0.19234
 H3528 H 0.83597 0.76867 0.17642
 C3529 C 0.43574 0.22944 0.66767
 C3530 C 0.41741 0.22428 0.67526
 C3531 C 0.40041 0.22599 0.66425
 C3532 C 0.40222 0.23124 0.64505
 C3533 C 0.42058 0.23633 0.63743
 C3534 C 0.43739 0.23614 0.64884
 C3535 C 0.38109 0.22371 0.67359
 C3536 C 0.36539 0.23490 0.66820
 C3537 C 0.34702 0.23668 0.67938
 C3538 C 0.33358 0.25230 0.67438
 C3539 C 0.31671 0.25566 0.68519
 C3540 C 0.31294 0.24343 0.70130
 C3541 C 0.32612 0.22746 0.70606
 C3542 C 0.34289 0.22400 0.69518
 H3543 H 0.44845 0.22918 0.67680
 H3544 H 0.41637 0.22004 0.69004
 H3545 H 0.38947 0.23187 0.63599
 H3546 H 0.42158 0.24083 0.62272
 H3547 H 0.38079 0.21474 0.68652
 H3548 H 0.36666 0.24493 0.65592
 H3549 H 0.33629 0.26218 0.66219
 H3550 H 0.30670 0.26790 0.68097
 H3551 H 0.32350 0.21755 0.71824
 H3552 H 0.35240 0.21140 0.69936
 C3553 C 0.42973 0.73607 0.84516
 C3554 C 0.40975 0.73722 0.84086
 C3555 C 0.40183 0.72440 0.82728
 C3556 C 0.41392 0.70965 0.81869
 C3557 C 0.43386 0.70828 0.82322
 C3558 C 0.44194 0.72175 0.83621
 C3559 C 0.38109 0.72714 0.82196
 C3560 C 0.37535 0.72588 0.80409
 C3561 C 0.35517 0.73093 0.79811
 C3562 C 0.35232 0.73976 0.78021
 C3563 C 0.33342 0.74477 0.77406
 C3564 C 0.31698 0.74068 0.78562
 C3565 C 0.31985 0.73169 0.80353
 C3566 C 0.33879 0.72689 0.80975
 H3567 H 0.43568 0.74635 0.85547
 H3568 H 0.40060 0.74855 0.84772
 H3569 H 0.40799 0.69925 0.80848
 H3570 H 0.44306 0.69703 0.81632
 H3571 H 0.37085 0.73244 0.83257
 H3572 H 0.38618 0.72284 0.79322
 H3573 H 0.36477 0.74289 0.77100
 H3574 H 0.33168 0.75145 0.76009
 H3575 H 0.30745 0.72817 0.81268
 H3576 H 0.34054 0.71962 0.82347
 C3577 C 0.95329 0.24295 0.30287
 C3578 C 0.93489 0.24651 0.29480
 C3579 C 0.91950 0.23255 0.29782
 C3580 C 0.92319 0.21422 0.30797
 C3581 C 0.94152 0.21063 0.31611
 C3582 C 0.95683 0.22521 0.31419
 C3583 C 0.89982 0.23765 0.29035
 C3584 C 0.88320 0.23056 0.29838
 C3585 C 0.86327 0.23599 0.29162
 C3586 C 0.84716 0.23252 0.30371
 C3587 C 0.82802 0.23692 0.29777
 C3588 C 0.82466 0.24493 0.27959
 C3589 C 0.84079 0.24846 0.26750
 C3590 C 0.85987 0.24389 0.27337
 H3591 H 0.96472 0.25412 0.29993
 H3592 H 0.93254 0.26048 0.28653
 H3593 H 0.91188 0.20268 0.30993
 H3594 H 0.94301 0.19690 0.32484
 H3595 H 0.89916 0.24874 0.27883
 H3596 H 0.88406 0.22110 0.31105
 H3597 H 0.84938 0.22631 0.31780
 H3598 H 0.81588 0.23396 0.30738
 H3599 H 0.83867 0.25428 0.25328
 H3600 H 0.87171 0.24612 0.26334
 C3601 C 0.07980 0.28095 0.35284
 C3602 C 0.09950 0.28048 0.34702
 C3603 C 0.10424 0.27611 0.32832
 C3604 C 0.08905 0.27389 0.31518
 C3605 C 0.06948 0.27427 0.32098
 C3606 C 0.06473 0.27716 0.33994
 C3607 C 0.12496 0.27299 0.32279
 C3608 C 0.12980 0.25853 0.31042
 C3609 C 0.14989 0.25468 0.30330
 C3610 C 0.15309 0.23686 0.29292
 C3611 C 0.17115 0.23340 0.28417
 C3612 C 0.18643 0.24774 0.28565
 C3613 C 0.18352 0.26525 0.29661
 C3614 C 0.16537 0.26878 0.30528
 H3615 H 0.07639 0.28329 0.36753
 H3616 H 0.11103 0.28254 0.35727
 H3617 H 0.09230 0.27139 0.30048
 H3618 H 0.05802 0.27186 0.31073
 H3619 H 0.13613 0.28178 0.32978
 H3620 H 0.11830 0.24868 0.30517
 H3621 H 0.14140 0.22577 0.29117
 H3622 H 0.17299 0.21970 0.27592
 H3623 H 0.19500 0.27665 0.29789
 H3624 H 0.16343 0.28291 0.31284
 C3625 C 0.57099 0.78556 0.84759
 C3626 C 0.59096 0.78365 0.84311
 C3627 C 0.59681 0.77290 0.82715
 C3628 C 0.58244 0.76528 0.81502
 C3629 C 0.56253 0.76738 0.81936
 C3630 C 0.55660 0.77707 0.83592
 C3631 C 0.61791 0.76971 0.82330
 C3632 C 0.62452 0.75189 0.81650
 C3633 C 0.64498 0.74841 0.81019
 C3634 C 0.64844 0.73266 0.79740
 C3635 C 0.66701 0.73006 0.78937
 C3636 C 0.68259 0.74309 0.79411
 C3637 C 0.67947 0.75804 0.80783
 C3638 C 0.66084 0.76067 0.81583
 H3639 H 0.56688 0.79297 0.86053
 H3640 H 0.60186 0.78985 0.85248
 H3641 H 0.58660 0.75763 0.80221
 H3642 H 0.55174 0.76118 0.80987
 H3643 H 0.62782 0.78223 0.82614
 H3644 H 0.61410 0.73959 0.81426
 H3645 H 0.63653 0.72283 0.79302
 H3646 H 0.66897 0.71823 0.77901
 H3647 H 0.69124 0.76819 0.81191
 H3648 H 0.65896 0.77248 0.82618
 C3649 C 0.57980 0.24693 0.64966
 C3650 C 0.59619 0.25788 0.65546
 C3651 C 0.59520 0.26979 0.67163
 C3652 C 0.57712 0.27186 0.68117
 C3653 C 0.56063 0.26107 0.67522
 C3654 C 0.56206 0.24804 0.65978
 C3655 C 0.61375 0.27773 0.67916
 C3656 C 0.61740 0.27738 0.69763
 C3657 C 0.63758 0.27697 0.70517
 C3658 C 0.64073 0.28275 0.72379
 C3659 C 0.65913 0.27974 0.73212
 C3660 C 0.67456 0.27054 0.72202
 C3661 C 0.67149 0.26512 0.70328
 C3662 C 0.65321 0.26825 0.69495
 H3663 H 0.58105 0.23731 0.63745
 H3664 H 0.60997 0.25617 0.64786
 H3665 H 0.57583 0.28137 0.69343
 H3666 H 0.54697 0.26230 0.68307
 H3667 H 0.62568 0.28043 0.66926
 H3668 H 0.60553 0.27482 0.70763
 H3669 H 0.62880 0.28915 0.73201
 H3670 H 0.66107 0.28404 0.74662
 H3671 H 0.68310 0.25805 0.69510
 H3672 H 0.65121 0.26281 0.68082
 C3673 C 0.06162 0.71312 0.18375
 C3674 C 0.08046 0.71640 0.19071
 C3675 C 0.09086 0.73429 0.18564
 C3676 C 0.08196 0.74909 0.17373
 C3677 C 0.06312 0.74579 0.16676
 C3678 C 0.05295 0.72763 0.17146
 C3679 C 0.11138 0.73621 0.19191
 C3680 C 0.12073 0.75421 0.19308
 C3681 C 0.14128 0.75508 0.19938
 C3682 C 0.14708 0.77090 0.21116
 C3683 C 0.16596 0.77079 0.21880
 C3684 C 0.17938 0.75503 0.21445
 C3685 C 0.17390 0.73992 0.20168
 C3686 C 0.15500 0.73994 0.19421
 H3687 H 0.05397 0.69908 0.18769
 H3688 H 0.08707 0.70478 0.19984
 H3689 H 0.08975 0.76278 0.16908
 H3690 H 0.05688 0.75702 0.15700
 H3691 H 0.11891 0.72218 0.19626
 H3692 H 0.11291 0.76858 0.19077
 H3693 H 0.13675 0.78284 0.21508
 H3694 H 0.16987 0.78278 0.22844
 H3695 H 0.18395 0.72766 0.19796
 H3696 H 0.15102 0.72793 0.18463
   
