data_POSCAR
  _audit_creation_date              2014-09-24
  _audit_creation_method            'ToBaCCo'
  _symmetry_space_group_name_H-M    'P1'
  _symmetry_Int_Tables_number       1
  _symmetry_cell_setting            triclinic
  loop_
  _symmetry_equiv_pos_as_xyz
 x,y,z
_cell_length_a 67.4283
_cell_length_b 67.3314
_cell_length_c 72.6347
_cell_angle_alpha 89.583300
_cell_angle_beta 89.726100
_cell_angle_gamma 91.574200
loop_
  _atom_site_label
  _atom_site_type_symbol
  _atom_site_fract_x
  _atom_site_fract_y
  _atom_site_fract_z
C1 C 0.41748 0.01951 0.28098
 C2 C 0.40446 0.03770 0.27898
 C3 C 0.39126 0.03657 0.26477
 C4 C 0.39220 0.01692 0.25393
 C5 C 0.40281 0.00200 0.28269
 C6 C 0.38956 0.00034 0.26870
 C7 C 0.42720 0.01728 0.26211
 C8 C 0.41417 0.01606 0.24786
 H9 H 0.40613 0.05068 0.28761
 H10 H 0.38144 0.01577 0.24245
 H11 H 0.40316 -0.00840 0.29413
 H12 H 0.44315 0.01755 0.26024
 C13 C 0.07946 -0.00870 0.76838
 C14 C 0.09487 -0.02512 0.76793
 C15 C 0.10809 -0.02337 0.75373
 C16 C 0.10479 -0.00509 0.74129
 C17 C 0.09196 0.01055 0.76877
 C18 C 0.10534 0.01265 0.75475
 C19 C 0.07027 -0.00909 0.75039
 C20 C 0.08409 -0.00728 0.73537
 H21 H 0.09496 -0.03742 0.77761
 H22 H 0.11581 -0.00354 0.72992
 H23 H 0.09066 0.02129 0.77971
 H24 H 0.05445 -0.01143 0.74853
 C25 C 0.57977 0.49460 0.26725
 C26 C 0.59497 0.47804 0.26664
 C27 C 0.60807 0.47957 0.25236
 C28 C 0.60493 0.49779 0.23989
 C29 C 0.59234 0.51375 0.26725
 C30 C 0.60562 0.51562 0.25317
 C31 C 0.56989 0.49406 0.24833
 C32 C 0.58297 0.49560 0.23392
 H33 H 0.59496 0.46573 0.27631
 H34 H 0.61572 0.49914 0.22833
 H35 H 0.59120 0.52464 0.27809
 H36 H 0.55404 0.49188 0.24658
 C37 C 0.91550 0.51753 0.78066
 C38 C 0.90283 0.53597 0.77857
 C39 C 0.88976 0.53510 0.76424
 C40 C 0.89046 0.51544 0.75339
 C41 C 0.90052 0.50028 0.78222
 C42 C 0.88740 0.49886 0.76811
 C43 C 0.92535 0.51517 0.76187
 C44 C 0.91246 0.51423 0.74750
 H45 H 0.90467 0.54892 0.78721
 H46 H 0.87981 0.51448 0.74180
 H47 H 0.90058 0.48984 0.79365
 H48 H 0.94132 0.51527 0.76013
 C49 C 0.27467 0.36113 0.99214
 C50 C 0.27371 0.34386 1.00592
 C51 C 0.25654 0.33278 1.00545
 C52 C 0.24194 0.33955 0.99056
 C53 C 0.27094 0.35137 0.97341
 C54 C 0.25397 0.34006 0.97250
 C55 C 0.25581 0.37282 0.99590
 C56 C 0.23863 0.36161 0.99479
 H57 H 0.28490 0.34181 1.01637
 H58 H 0.22807 0.33029 0.98990
 H59 H 0.28072 0.35352 0.96165
 H60 H 0.25603 0.38872 0.99811
 C61 C 0.77180 0.13376 0.99782
 C62 C 0.76971 0.14836 0.98176
 C63 C 0.75329 0.15965 0.98272
 C64 C 0.74015 0.15509 0.99990
 C65 C 0.77110 0.14690 1.01491
 C66 C 0.75459 0.15813 1.01615
 C67 C 0.75342 0.12212 0.99815
 C68 C 0.73592 0.13362 0.99958
 H69 H 0.78056 0.15005 0.97078
 H70 H 0.72681 0.16438 1.00070
 H71 H 0.78280 0.14729 1.02508
 H72 H 0.75309 0.10602 0.99823
 C73 C 0.27171 0.63734 0.50100
 C74 C 0.27136 0.65434 0.48697
 C75 C 0.25492 0.66549 0.48780
 C76 C 0.24004 0.65871 0.50295
 C77 C 0.26888 0.64737 0.51964
 C78 C 0.25234 0.65854 0.52077
 C79 C 0.25230 0.62550 0.49791
 C80 C 0.23563 0.63647 0.49928
 H81 H 0.28291 0.65701 0.47676
 H82 H 0.22660 0.66785 0.50373
 H83 H 0.27877 0.64520 0.53115
 H84 H 0.25181 0.60949 0.49657
 C85 C 0.77371 0.86108 0.49173
 C86 C 0.77244 0.84352 0.50516
 C87 C 0.75519 0.83263 0.50436
 C88 C 0.74078 0.83990 0.48951
 C89 C 0.77003 0.85180 0.47277
 C90 C 0.75296 0.84068 0.47155
 C91 C 0.75495 0.87292 0.49559
 C92 C 0.73767 0.86191 0.49415
 H93 H 0.78352 0.84111 0.51564
 H94 H 0.72684 0.83080 0.48859
 H95 H 0.77992 0.85409 0.46112
 H96 H 0.75532 0.88876 0.49810
 C97 C -0.01477 0.26530 0.39416
 C98 C 0.00697 0.26416 0.38811
 C99 C 0.01039 0.24913 0.37613
 C100 C -0.00831 0.23658 0.37143
 C101 C -0.02578 0.26666 0.37711
 C102 C -0.02245 0.25081 0.36470
 C103 C -0.01997 0.24467 0.40213
 C104 C -0.01634 0.22957 0.39029
 H105 H 0.01839 0.27470 0.39248
 H106 H -0.00548 0.22429 0.36173
 H107 H -0.03638 0.27808 0.37428
 H108 H -0.02454 0.24225 0.41631
 C109 C 0.02196 0.76136 0.10800
 C110 C -0.00061 0.75987 0.11079
 C111 C -0.00654 0.74584 0.12337
 C112 C 0.01056 0.73444 0.13183
 C113 C 0.03016 0.76478 0.12745
 C114 C 0.02415 0.75065 0.13983
 C115 C 0.02809 0.74040 0.10293
 C116 C 0.02203 0.72632 0.11542
 H117 H -0.01071 0.77018 0.10458
 H118 H 0.00586 0.72294 0.14212
 H119 H 0.04026 0.77690 0.13104
 H120 H 0.03594 0.73700 0.09034
 C121 C 0.50976 0.25669 0.59422
 C122 C 0.48771 0.25325 0.59910
 C123 C 0.48461 0.24166 0.61431
 C124 C 0.50368 0.23422 0.62299
 C125 C 0.51897 0.26505 0.61194
 C126 C 0.51592 0.25316 0.62693
 C127 C 0.51813 0.23592 0.59232
 C128 C 0.51477 0.22414 0.60736
 H129 H 0.47583 0.26087 0.59229
 H130 H 0.50122 0.22456 0.63529
 H131 H 0.52791 0.27865 0.61234
 H132 H 0.52511 0.23075 0.57984
 C133 C 0.48515 0.76831 0.88935
 C134 C 0.50691 0.76790 0.88318
 C135 C 0.51096 0.75255 0.87178
 C136 C 0.49283 0.73898 0.86771
 C137 C 0.47342 0.76859 0.87131
 C138 C 0.47739 0.75315 0.86004
 C139 C 0.48083 0.74895 0.89750
 C140 C 0.48541 0.73275 0.88577
 H141 H 0.51794 0.77902 0.88723
 H142 H 0.49602 0.72661 0.85820
 H143 H 0.46230 0.77938 0.86811
 H144 H 0.47605 0.74697 0.91169
 C145 C -0.23191 0.66802 0.96758
 C146 C -0.21373 0.65497 0.96950
 C147 C -0.21488 0.64169 0.98382
 C148 C -0.23453 0.64258 0.99484
 C149 C -0.24937 0.65333 0.96615
 C150 C -0.25107 0.64000 0.98025
 C151 C -0.23417 0.67767 0.98639
 C152 C -0.23537 0.66456 1.00077
 H153 H -0.20074 0.65672 0.96076
 H154 H -0.23571 0.63174 1.00641
 H155 H -0.25975 0.65374 0.95481
 H156 H -0.23378 0.69364 0.98816
 C157 C -0.25577 0.33116 0.48167
 C158 C -0.27235 0.34641 0.48203
 C159 C -0.27085 0.35967 0.49608
 C160 C -0.25264 0.35657 0.50844
 C161 C -0.23668 0.34388 0.48104
 C162 C -0.23482 0.35729 0.49490
 C163 C -0.25619 0.32196 0.49979
 C164 C -0.25468 0.33584 0.51464
 H165 H -0.28462 0.34629 0.47247
 H166 H -0.25129 0.36764 0.51966
 H167 H -0.22581 0.34265 0.47010
 H168 H -0.25848 0.30611 0.50187
 C169 C 0.24591 -0.16996 -0.01592
 C170 C 0.22943 -0.15460 -0.01562
 C171 C 0.23096 -0.14130 -0.00162
 C172 C 0.24909 -0.14451 0.01082
 C173 C 0.26508 -0.15737 -0.01648
 C174 C 0.26695 -0.14391 -0.00267
 C175 C 0.24535 -0.17915 0.00219
 C176 C 0.24691 -0.16525 0.01704
 H177 H 0.21722 -0.15463 -0.02524
 H178 H 0.25048 -0.13343 0.02203
 H179 H 0.27592 -0.15862 -0.02744
 H180 H 0.24300 -0.19499 0.00427
 C181 C 0.26598 1.16671 0.46920
 C182 C 0.28432 1.15388 0.47109
 C183 C 0.28335 1.14060 0.48542
 C184 C 0.26371 1.14128 0.49649
 C185 C 0.24868 1.15182 0.46781
 C186 C 0.24716 1.13850 0.48193
 C187 C 0.26366 1.17635 0.48801
 C188 C 0.26265 1.16325 0.50240
 H189 H 0.29726 1.15576 0.46231
 H190 H 0.26267 1.13045 0.50807
 H191 H 0.23825 1.15212 0.45651
 H192 H 0.26390 1.19232 0.48976
 C193 C 0.11080 0.52591 0.25230
 C194 C 0.09347 0.52402 0.23884
 C195 C 0.08215 0.50713 0.24094
 C196 C 0.08892 0.49361 0.25679
 C197 C 0.10114 0.52390 0.27133
 C198 C 0.08973 0.50708 0.27384
 C199 C 0.12222 0.50665 0.24989
 C200 C 0.11085 0.48972 0.25240
 H201 H 0.09132 0.53431 0.22753
 H202 H 0.07954 0.47991 0.25865
 H203 H 0.10352 0.53480 0.28206
 H204 H 0.13800 0.50651 0.24702
 C205 C -0.11619 1.02025 0.25356
 C206 C -0.10181 1.01786 0.26958
 C207 C -0.09051 1.00145 0.26853
 C208 C -0.09489 0.98858 0.25133
 C209 C -0.10287 1.01984 0.23644
 C210 C -0.09165 1.00333 0.23514
 C211 C -0.12783 1.00187 0.25317
 C212 C -0.11634 0.98436 0.25164
 H213 H -0.10012 1.02862 0.28051
 H214 H -0.08562 0.97523 0.25047
 H215 H -0.10232 1.03176 0.22633
 H216 H -0.14390 1.00157 0.25305
 C217 C 0.38592 0.51908 -0.24869
 C218 C 0.40277 0.51859 -0.23473
 C219 C 0.41400 0.50220 -0.23562
 C220 C 0.40739 0.48747 -0.25072
 C221 C 0.39612 0.51653 -0.26738
 C222 C 0.40734 0.50002 -0.26853
 C223 C 0.37413 0.49957 -0.24557
 C224 C 0.38515 0.48293 -0.24700
 H225 H 0.40543 0.53012 -0.22464
 H226 H 0.41656 0.47405 -0.25154
 H227 H 0.39406 0.52660 -0.27887
 H228 H 0.35812 0.49902 -0.24424
 C229 C 0.60976 0.02509 -0.24916
 C230 C 0.59222 0.02257 -0.26232
 C231 C 0.58129 0.00550 -0.25976
 C232 C 0.58865 -0.00757 -0.24383
 C233 C 0.60047 0.02323 -0.22996
 C234 C 0.58945 0.00624 -0.22702
 C235 C 0.62157 0.00605 -0.25145
 C236 C 0.61060 -0.01107 -0.24851
 H237 H 0.58958 0.03262 -0.27370
 H238 H 0.57958 -0.02142 -0.24162
 H239 H 0.60269 0.03443 -0.21948
 H240 H 0.63729 0.00619 -0.25460
 C241 C 0.01245 0.23748 0.85480
 C242 C 0.01258 0.25917 0.86111
 C243 C -0.00272 0.26338 0.87264
 C244 C -0.01680 0.24549 0.87664
 C245 C 0.01224 0.22538 0.87278
 C246 C -0.00314 0.22954 0.88412
 C247 C -0.00689 0.23385 0.84670
 C248 C -0.02304 0.23855 0.85857
 H249 H 0.02410 0.26995 0.85723
 H250 H -0.02912 0.24877 0.88625
 H251 H 0.02271 0.21394 0.87595
 H252 H -0.00887 0.22926 0.83254
 C253 C 0.51141 0.26630 0.14804
 C254 C 0.50955 0.24391 0.14435
 C255 C 0.49619 0.23907 0.13102
 C256 C 0.48575 0.25697 0.12279
 C257 C 0.51621 0.27549 0.12906
 C258 C 0.50272 0.27061 0.11594
 C259 C 0.49037 0.27272 0.15250
 C260 C 0.47696 0.26776 0.13926
 H261 H 0.51922 0.23316 0.15052
 H262 H 0.47479 0.25315 0.11193
 H263 H 0.52880 0.28544 0.12634
 H264 H 0.48643 0.28006 0.16517
 C265 C 0.00806 0.75800 0.65776
 C266 C 0.00451 0.73607 0.65268
 C267 C -0.00668 0.73344 0.63731
 C268 C -0.01362 0.75283 0.62868
 C269 C 0.01701 0.76753 0.64022
 C270 C 0.00552 0.76497 0.62506
 C271 C -0.01262 0.76660 0.65947
 C272 C -0.02398 0.76372 0.64425
 H273 H 0.01171 0.72391 0.65954
 H274 H -0.02295 0.75074 0.61626
 H275 H 0.03063 0.77644 0.64009
 H276 H -0.01801 0.77348 0.67189
 C277 C 0.51853 0.73544 0.36051
 C278 C 0.51795 0.75723 0.36628
 C279 C 0.50266 0.76127 0.37782
 C280 C 0.48928 0.74312 0.38252
 C281 C 0.51885 0.72376 0.37867
 C282 C 0.50349 0.72774 0.39012
 C283 C 0.49808 0.73082 0.35232
 C284 C 0.48275 0.73509 0.36374
 H285 H 0.52893 0.76833 0.36183
 H286 H 0.47682 0.74628 0.39202
 H287 H 0.52969 0.71269 0.38188
 H288 H 0.49601 0.72613 0.33820
 Zr289 Zr 0.02437 -0.01240 1.03000
 O290 O 0.04507 -0.00179 1.04970
 O291 O 0.02200 -0.04270 1.03672
 O292 O 0.01258 -0.01397 1.05716
 O293 O 0.05866 -0.01771 0.99492
 O294 O -0.01617 0.00303 1.05484
 O295 O 0.05297 -0.02382 1.02550
 O296 O -0.00161 -0.05475 1.01700
 O297 O -0.00617 -0.01790 1.02673
 O298 O 0.02088 -0.02572 1.00426
 O299 O 0.01136 0.01560 1.03159
 O300 O 0.03754 0.00764 1.01066
 Zr301 Zr -0.01103 0.01684 0.98190
 Zr302 Zr -0.01892 0.01016 1.02687
 Zr303 Zr 0.03236 -0.00550 0.98500
 Zr304 Zr -0.00945 -0.03029 1.00063
 O305 O 0.05672 0.01218 0.97534
 O306 O -0.03588 -0.04107 1.01363
 O307 O 0.00210 -0.01117 0.98005
 O308 O -0.02379 -0.00315 1.00129
 O309 O -0.00755 0.03055 1.00749
 O310 O 0.01944 0.02228 0.98525
 C311 C 0.01125 -0.05682 1.02983
 C312 C 0.06382 -0.02431 1.01083
 C313 C -0.00310 -0.00629 1.06408
 O314 O -0.04477 -0.00627 1.03486
 O315 O -0.04394 0.02529 1.01763
 O316 O -0.03860 0.03008 0.98684
 C317 C -0.04896 0.03183 1.00167
 O318 O 0.04605 0.03881 1.03071
 Zr319 Zr 0.02292 0.03478 1.01120
 O320 O -0.00873 0.04718 0.97518
 O321 O -0.02256 0.03585 1.04303
 O322 O 0.01394 0.05658 1.03022
 O323 O 0.04838 0.04724 0.99774
 O324 O 0.01323 0.05956 0.99629
 C325 C 0.00089 0.06152 0.98301
 O326 O -0.03313 0.00672 0.96329
 O327 O 0.03827 -0.03169 0.97019
 O328 O -0.00083 0.01562 0.95425
 O329 O 0.02767 -0.00172 0.95673
 O330 O 0.00005 -0.05295 0.98275
 O331 O -0.03048 -0.03538 0.97935
 C332 C 0.01413 0.00669 0.94731
 H333 H 0.02795 -0.03834 1.00306
 H334 H -0.03812 -0.00550 0.99897
 H335 H 0.02509 0.03107 0.97546
 H336 H 0.01376 0.02170 1.04376
 H337 H -0.03693 -0.05557 1.01143
 H338 H -0.05168 0.00180 1.04413
 H339 H -0.03517 0.03390 1.04998
 H340 H 0.02149 0.06905 1.02732
 H341 H -0.00770 -0.06526 0.98586
 H342 H 0.05082 -0.02921 0.96329
 H343 H 0.06366 0.00417 0.96605
 H344 H 0.04888 0.06164 1.00047
 H345 H -0.03652 -0.04888 0.98079
 H346 H -0.03668 0.01820 0.95544
 H347 H 0.04882 -0.01333 1.05738
 H348 H 0.05024 0.05302 1.03105
 Zr349 Zr 0.51793 0.48049 0.52649
 O350 O 0.53583 0.48760 0.54953
 O351 O 0.51620 0.44933 0.52791
 O352 O 0.50333 0.47392 0.55190
 O353 O 0.55640 0.48305 0.49478
 O354 O 0.47283 0.48716 0.54793
 O355 O 0.54745 0.47096 0.52317
 O356 O 0.49538 0.44079 0.50438
 O357 O 0.48832 0.47470 0.51902
 O358 O 0.51824 0.47239 0.49874
 O359 O 0.50312 0.50714 0.53119
 O360 O 0.53220 0.50443 0.51224
 Zr361 Zr 0.48687 0.51745 0.48032
 Zr362 Zr 0.47397 0.50164 0.52235
 Zr363 Zr 0.53090 0.49642 0.48443
 Zr364 Zr 0.48881 0.46766 0.49112
 O365 O 0.55545 0.51633 0.48074
 O366 O 0.46133 0.45393 0.49893
 O367 O 0.50177 0.49084 0.47540
 O368 O 0.47291 0.49361 0.49462
 O369 O 0.48648 0.52593 0.50797
 O370 O 0.51644 0.52312 0.48776
 C371 C 0.50669 0.43656 0.51796
 C372 C 0.55995 0.47354 0.50979
 C373 C 0.48561 0.47773 0.55741
 O374 O 0.44758 0.48392 0.52377
 O375 O 0.44985 0.51835 0.51358
 O376 O 0.45848 0.52924 0.48474
 C377 C 0.44652 0.52803 0.49864
 O378 O 0.53586 0.53148 0.53823
 Zr379 Zr 0.51602 0.53042 0.51558
 O380 O 0.48902 0.54853 0.47847
 O381 O 0.46747 0.52256 0.54298
 O382 O 0.50296 0.54790 0.53630
 O383 O 0.54263 0.54573 0.50758
 O384 O 0.50767 0.55741 0.50340
 C385 C 0.49719 0.56145 0.48918
 O386 O 0.46712 0.51087 0.45846
 O387 O 0.53972 0.47395 0.46610
 O388 O 0.49993 0.52084 0.45378
 O389 O 0.52975 0.50599 0.45698
 O390 O 0.50173 0.44890 0.47132
 O391 O 0.47128 0.46635 0.46690
 C392 C 0.51648 0.51455 0.44735
 H393 H 0.52601 0.46043 0.49630
 H394 H 0.45907 0.49144 0.49042
 H395 H 0.52285 0.53376 0.48015
 H396 H 0.50353 0.51069 0.54438
 H397 H 0.46126 0.44013 0.49427
 H398 H 0.43928 0.48949 0.53367
 H399 H 0.45412 0.51890 0.54790
 H400 H 0.51009 0.56098 0.53634
 H401 H 0.49411 0.43610 0.47151
 H402 H 0.55292 0.47806 0.46111
 H403 H 0.56392 0.51058 0.47108
 H404 H 0.54211 0.55936 0.51259
 H405 H 0.46560 0.45274 0.46548
 H406 H 0.46415 0.52362 0.45223
 H407 H 0.53922 0.47489 0.55559
 H408 H 0.53894 0.54551 0.54139
 Zr409 Zr 0.48505 1.00295 0.53429
 O410 O 0.45945 0.99383 0.54945
 O411 O 0.49428 1.02863 0.54852
 O412 O 0.49224 0.99529 0.56167
 O413 O 0.46038 1.02562 0.49855
 O414 O 0.51671 0.97269 0.55871
 O415 O 0.46070 1.02197 0.52981
 O416 O 0.52414 1.03656 0.53504
 O417 O 0.51599 1.00058 0.53450
 O418 O 0.49617 1.02090 0.51280
 O419 O 0.49072 0.97249 0.53121
 O420 O 0.47139 0.99185 0.51023
 Zr421 Zr 0.52035 0.97678 0.48455
 Zr422 Zr 0.52169 0.97062 0.53014
 Zr423 Zr 0.48403 1.00909 0.48881
 Zr424 Zr 0.52674 1.01763 0.51241
 O425 O 0.45800 1.00176 0.47387
 O426 O 0.55373 1.01769 0.52731
 O427 O 0.51498 1.00738 0.48742
 O428 O 0.53377 0.98796 0.50858
 O429 O 0.50950 0.95855 0.50609
 O430 O 0.48949 0.97917 0.48450
 C431 C 0.51062 1.03890 0.54730
 C432 C 0.45343 1.02893 0.51470
 C433 C 0.50501 0.98332 0.56836
 O434 O 0.54875 0.97756 0.54361
 O435 O 0.54451 0.95282 0.52009
 O436 O 0.54344 0.95648 0.48882
 C437 C 0.55103 0.94948 0.50374
 O438 O 0.45283 0.95931 0.52309
 Zr439 Zr 0.47880 0.96200 0.50645
 O440 O 0.51168 0.95062 0.47104
 O441 O 0.51618 0.94156 0.54053
 O442 O 0.47990 0.93429 0.52043
 O443 O 0.45324 0.96030 0.48957
 O444 O 0.48369 0.94010 0.48645
 C445 C 0.49707 0.93833 0.47392
 O446 O 0.54661 0.98518 0.47004
 O447 O 0.48830 1.03883 0.47965
 O448 O 0.51449 0.98588 0.45710
 O449 O 0.49166 1.00996 0.46084
 O450 O 0.52503 1.04674 0.50127
 O451 O 0.55035 1.02258 0.49328
 C452 C 0.50316 0.99952 0.45089
 H453 H 0.49275 1.03501 0.51427
 H454 H 0.54839 0.98718 0.50791
 H455 H 0.48335 0.97467 0.47285
 H456 H 0.48501 0.96459 0.54159
 H457 H 0.55866 1.03165 0.52816
 H458 H 0.55194 0.96590 0.55135
 H459 H 0.52746 0.93852 0.54868
 H460 H 0.47039 0.92502 0.51433
 H461 H 0.53486 1.05523 0.50787
 H462 H 0.47707 1.04182 0.47141
 H463 H 0.45510 1.01344 0.46606
 H464 H 0.44867 0.94619 0.48924
 H465 H 0.55856 1.03423 0.49713
 H466 H 0.54855 0.97517 0.46028
 H467 H 0.45740 1.00394 0.55910
 H468 H 0.44596 0.94641 0.52066
 Zr469 Zr -0.01352 0.50382 1.03329
 O470 O -0.03884 0.49495 1.04896
 O471 O -0.00436 0.53007 1.04666
 O472 O -0.00587 0.49707 1.06079
 O473 O -0.03887 0.52517 0.99729
 O474 O 0.01866 0.47450 1.05810
 O475 O -0.03805 0.52255 1.02862
 O476 O 0.02509 0.53806 1.03244
 O477 O 0.01745 0.50171 1.03323
 O478 O -0.00283 0.52117 1.01121
 O479 O -0.00768 0.47332 1.03089
 O480 O -0.02742 0.49188 1.00968
 Zr481 Zr 0.02133 0.47644 0.98384
 Zr482 Zr 0.02329 0.47166 1.02955
 Zr483 Zr -0.01521 0.50856 0.98770
 Zr484 Zr 0.02777 0.51814 1.01057
 O485 O -0.04137 0.50053 0.97323
 O486 O 0.05479 0.51886 1.02543
 O487 O 0.01574 0.50707 0.98600
 O488 O 0.03498 0.48842 1.00743
 O489 O 0.01090 0.45878 1.00594
 O490 O -0.00956 0.47858 0.98405
 C491 C 0.01173 0.54064 1.04478
 C492 C -0.04558 0.52898 1.01342
 C493 C 0.00703 0.48533 1.06762
 O494 O 0.05050 0.47918 1.04250
 O495 O 0.04603 0.45366 1.01971
 O496 O 0.04455 0.45636 0.98838
 C497 C 0.05234 0.44983 1.00338
 O498 O -0.04554 0.45946 1.02354
 Zr499 Zr -0.01983 0.46198 1.00654
 O500 O 0.01265 0.44989 0.97104
 O501 O 0.01812 0.44290 1.04076
 O502 O -0.01823 0.43468 1.02113
 O503 O -0.04565 0.45967 0.99004
 O504 O -0.01509 0.43959 0.98695
 C505 C -0.00187 0.43760 0.97431
 O506 O 0.04738 0.48458 0.96890
 O507 O -0.01141 0.53807 0.97775
 O508 O 0.01508 0.48476 0.95624
 O509 O -0.00789 0.50877 0.95967
 O510 O 0.02580 0.54676 0.99843
 O511 O 0.05127 0.52259 0.99124
 C512 C 0.00359 0.49818 0.94984
 H513 H -0.00634 0.53530 1.01232
 H514 H 0.04960 0.48771 1.00664
 H515 H -0.01582 0.47372 0.97258
 H516 H -0.01319 0.46569 1.04153
 H517 H 0.05964 0.53288 1.02588
 H518 H 0.05387 0.46779 1.05051
 H519 H 0.02955 0.44017 1.04883
 H520 H -0.02773 0.42515 1.01535
 H521 H 0.03563 0.55559 1.00464
 H522 H -0.02278 0.54068 0.96957
 H523 H -0.04447 0.51194 0.96515
 H524 H -0.05011 0.44552 0.99004
 H525 H 0.05950 0.53434 0.99479
 H526 H 0.04925 0.47431 0.95936
 H527 H -0.04084 0.50534 1.05837
 H528 H -0.05231 0.44644 1.02148
 Zr529 Zr -0.01984 0.48859 0.48286
 O530 O -0.03757 0.49893 0.46100
 O531 O -0.01850 0.45818 0.47732
 O532 O -0.00529 0.48602 0.45699
 O533 O -0.05837 0.48502 0.51455
 O534 O 0.02540 0.49979 0.46244
 O535 O -0.04951 0.47742 0.48511
 O536 O 0.00165 0.44630 0.49983
 O537 O 0.00949 0.48231 0.48977
 O538 O -0.02060 0.47612 0.50933
 O539 O -0.00415 0.51604 0.48140
 O540 O -0.03336 0.50984 0.49975
 Zr541 Zr 0.01215 0.51867 0.53315
 Zr542 Zr 0.02471 0.50977 0.48967
 Zr543 Zr -0.03256 0.49747 0.52631
 Zr544 Zr 0.00859 0.47093 0.51656
 O545 O -0.05705 0.51560 0.53166
 O546 O 0.03583 0.45911 0.50771
 O547 O -0.00370 0.49121 0.53495
 O548 O 0.02537 0.49754 0.51619
 O549 O 0.01308 0.53149 0.50679
 O550 O -0.01718 0.52466 0.52609
 C551 C -0.00930 0.44418 0.48549
 C552 C -0.06203 0.47762 0.49862
 C553 C 0.01250 0.49126 0.45196
 O554 O 0.05027 0.49265 0.48595
 O555 O 0.04952 0.52482 0.50059
 O556 O 0.04085 0.53234 0.53009
 C557 C 0.05303 0.53281 0.51628
 O558 O -0.03504 0.54131 0.47668
 Zr559 Zr -0.01626 0.53651 0.49961
 O560 O 0.01025 0.54874 0.53933
 O561 O 0.03234 0.53396 0.47201
 O562 O -0.00140 0.55753 0.48218
 O563 O -0.04304 0.54942 0.50830
 O564 O -0.00850 0.56130 0.51611
 C565 C 0.00155 0.56297 0.53109
 O566 O 0.03146 0.50878 0.55398
 O567 O -0.04133 0.47225 0.54224
 O568 O -0.00166 0.51891 0.55953
 O569 O -0.03212 0.50440 0.55435
 O570 O -0.00530 0.44887 0.53359
 O571 O 0.02572 0.46625 0.54062
 C572 C -0.01905 0.51258 0.56486
 H573 H -0.02867 0.46365 0.51021
 H574 H 0.03911 0.49503 0.52016
 H575 H -0.02365 0.53384 0.53468
 H576 H -0.00431 0.52160 0.46875
 H577 H 0.03539 0.44471 0.51069
 H578 H 0.05891 0.49989 0.47694
 H579 H 0.04559 0.53129 0.46676
 H580 H -0.00782 0.57045 0.48387
 H581 H 0.00190 0.43637 0.53184
 H582 H -0.05456 0.47498 0.54751
 H583 H -0.06574 0.50825 0.54057
 H584 H -0.04209 0.56378 0.50520
 H585 H 0.03065 0.45254 0.54064
 H586 H 0.03477 0.52044 0.56177
 H587 H -0.04130 0.48723 0.45341
 H588 H -0.03688 0.55575 0.47500
 Zr589 Zr 0.47964 -0.00951 -0.01786
 O590 O 0.46205 0.00158 -0.03949
 O591 O 0.48067 -0.03973 -0.02407
 O592 O 0.49422 -0.01184 -0.04373
 O593 O 0.44105 -0.01326 0.01374
 O594 O 0.52503 0.00157 -0.03805
 O595 O 0.44990 -0.02056 -0.01578
 O596 O 0.50052 -0.05242 -0.00173
 O597 O 0.50888 -0.01627 -0.01105
 O598 O 0.47870 -0.02252 0.00839
 O599 O 0.49567 0.01776 -0.01887
 O600 O 0.46630 0.01152 -0.00062
 Zr601 Zr 0.51184 0.01920 0.03293
 Zr602 Zr 0.52444 0.01102 -0.01065
 Zr603 Zr 0.46696 -0.00138 0.02575
 Zr604 Zr 0.50780 -0.02822 0.01551
 O605 O 0.44269 0.01692 0.03145
 O606 O 0.53490 -0.04015 0.00644
 O607 O 0.49573 -0.00814 0.03426
 O608 O 0.52486 -0.00177 0.01566
 O609 O 0.51297 0.03251 0.00679
 O610 O 0.48260 0.02566 0.02596
 C611 C 0.48966 -0.05405 -0.01619
 C612 C 0.43737 -0.02045 -0.00226
 C613 C 0.51207 -0.00669 -0.04867
 O614 O 0.54980 -0.00632 -0.01465
 O615 O 0.54943 0.02553 0.00060
 O616 O 0.54058 0.03275 0.03013
 C617 C 0.55287 0.03329 0.01642
 O618 O 0.46490 0.04329 -0.02316
 Zr619 Zr 0.48371 0.03796 -0.00035
 O620 O 0.51027 0.04920 0.03964
 O621 O 0.53239 0.03549 -0.02785
 O622 O 0.49867 0.05915 -0.01754
 O623 O 0.45716 0.05112 0.00862
 O624 O 0.49190 0.06234 0.01643
 C625 C 0.50189 0.06368 0.03147
 O626 O 0.53102 0.00865 0.05358
 O627 O 0.45787 -0.02684 0.04120
 O628 O 0.49803 0.01914 0.05929
 O629 O 0.46747 0.00492 0.05393
 O630 O 0.49366 -0.05048 0.03214
 O631 O 0.52484 -0.03366 0.03948
 C632 C 0.48062 0.01282 0.06455
 H633 H 0.47051 -0.03493 0.00904
 H634 H 0.53856 -0.00450 0.01962
 H635 H 0.47624 0.03476 0.03469
 H636 H 0.49559 0.02356 -0.03143
 H637 H 0.53426 -0.05462 0.00908
 H638 H 0.55853 0.00099 -0.02355
 H639 H 0.54560 0.03276 -0.03315
 H640 H 0.49234 0.07209 -0.01566
 H641 H 0.50067 -0.06303 0.03012
 H642 H 0.44468 -0.02406 0.04652
 H643 H 0.43391 0.00947 0.04021
 H644 H 0.45830 0.06551 0.00570
 H645 H 0.52963 -0.04743 0.03921
 H646 H 0.53446 0.02011 0.06157
 H647 H 0.45819 -0.00990 -0.04731
 H648 H 0.46316 0.05777 -0.02462
 Zr649 Zr 0.53407 0.50667 -0.03494
 O650 O 0.55536 0.49976 -0.05526
 O651 O 0.52747 0.53601 -0.04228
 O652 O 0.52181 0.50583 -0.06191
 O653 O 0.56880 0.51583 -0.00067
 O654 O 0.49392 0.48613 -0.05838
 O655 O 0.56181 0.52186 -0.03091
 O656 O 0.50392 0.54429 -0.02122
 O657 O 0.50343 0.50799 -0.03017
 O658 O 0.53053 0.51915 -0.00885
 O659 O 0.52311 0.47712 -0.03646
 O660 O 0.54917 0.48805 -0.01640
 Zr661 Zr 0.50244 0.47209 0.01413
 Zr662 Zr 0.49278 0.47851 -0.03042
 Zr663 Zr 0.54396 0.49997 0.00971
 Zr664 Zr 0.50021 0.51951 -0.00372
 O665 O 0.57038 0.48593 0.01749
 O666 O 0.47191 0.52682 -0.01398
 O667 O 0.51368 0.50160 0.01614
 O668 O 0.48783 0.49076 -0.00445
 O669 O 0.50611 0.45933 -0.01185
 O670 O 0.53303 0.47067 0.00933
 C671 C 0.51491 0.54797 -0.03540
 C672 C 0.57309 0.52327 -0.01659
 C673 C 0.50628 0.49652 -0.06821
 O674 O 0.46577 0.49196 -0.03725
 O675 O 0.46923 0.46031 -0.02054
 O676 O 0.47479 0.45679 0.01027
 C677 C 0.46440 0.45379 -0.00440
 O678 O 0.55929 0.45853 -0.03731
 Zr679 Zr 0.53663 0.45917 -0.01690
 O680 O 0.50657 0.44179 0.01930
 O681 O 0.49035 0.45263 -0.04671
 O682 O 0.52855 0.43668 -0.03598
 O683 O 0.56338 0.44994 -0.00467
 O684 O 0.52951 0.43295 -0.00216
 C685 C 0.51725 0.42902 0.01104
 O686 O 0.48110 0.47894 0.03445
 O687 O 0.54725 0.52634 0.02522
 O688 O 0.51423 0.47339 0.04125
 O689 O 0.54200 0.49330 0.03789
 O690 O 0.50938 0.54376 0.01297
 O691 O 0.48084 0.52153 0.01932
 C692 C 0.52966 0.48278 0.04765
 H693 H 0.53646 0.53272 -0.00804
 H694 H 0.47350 0.49142 -0.00156
 H695 H 0.53973 0.46232 0.01855
 H696 H 0.52555 0.47144 -0.04877
 H697 H 0.46982 0.54101 -0.01124
 H698 H 0.45896 0.48310 -0.04620
 H699 H 0.47744 0.45306 -0.05316
 H700 H 0.53714 0.42521 -0.03370
 H701 H 0.50044 0.55486 0.01034
 H702 H 0.56024 0.52577 0.03149
 H703 H 0.57705 0.49462 0.02666
 H704 H 0.56493 0.43574 -0.00772
 H705 H 0.47423 0.53448 0.01901
 H706 H 0.47870 0.46679 0.04206
 H707 H 0.55764 0.51188 -0.06292
 H708 H 0.56438 0.44491 -0.03818
 Zr709 Zr 0.03359 1.00236 0.46748
 O710 O 0.05519 0.99597 0.44728
 O711 O 0.02579 1.03125 0.45968
 O712 O 0.02128 1.00072 0.44056
 O713 O 0.06756 1.01387 0.50180
 O714 O -0.00542 0.97943 0.44416
 O715 O 0.06074 1.01869 0.47134
 O716 O 0.00134 1.03858 0.48017
 O717 O 0.00285 1.00218 0.47202
 O718 O 0.02919 1.01522 0.49328
 O719 O 0.02413 0.97229 0.46641
 O720 O 0.04938 0.98492 0.48649
 Zr721 Zr 0.00318 0.96734 0.51696
 Zr722 Zr -0.00631 0.97224 0.47223
 Zr723 Zr 0.04334 0.99717 0.51231
 Zr724 Zr -0.00121 1.01413 0.49818
 O725 O 0.07042 0.98477 0.52063
 O726 O -0.02980 1.01977 0.48761
 O727 O 0.01293 0.99739 0.51850
 O728 O -0.01213 0.98483 0.49789
 O729 O 0.00773 0.95411 0.49130
 O730 O 0.03388 0.96742 0.51237
 C731 C 0.01242 1.04261 0.46614
 C732 C 0.07180 1.02095 0.48574
 C733 C 0.00625 0.99057 0.43431
 O734 O -0.03396 0.98407 0.46493
 O735 O -0.02911 0.95321 0.48226
 O736 O -0.02390 0.95093 0.51321
 C737 C -0.03400 0.94713 0.49851
 O738 O 0.06085 0.95510 0.46590
 Zr739 Zr 0.03832 0.95546 0.48645
 O740 O 0.00902 0.93753 0.52290
 O741 O -0.00720 0.94598 0.45638
 O742 O 0.03101 0.93196 0.46819
 O743 O 0.06580 0.94839 0.49861
 O744 O 0.03321 0.92956 0.50232
 C745 C 0.02103 0.92535 0.51552
 O746 O -0.01863 0.97345 0.53708
 O747 O 0.04505 1.02400 0.52728
 O748 O 0.01471 0.96979 0.54411
 O749 O 0.04153 0.99096 0.54057
 O750 O 0.00660 1.03919 0.51441
 O751 O -0.02089 1.01567 0.52104
 C752 C 0.02968 0.97998 0.55043
 H753 H 0.03447 1.02907 0.49386
 H754 H -0.02652 0.98489 0.50064
 H755 H 0.04100 0.95971 0.52179
 H756 H 0.02693 0.96652 0.45421
 H757 H -0.03264 1.03387 0.49010
 H758 H -0.04022 0.97470 0.45609
 H759 H -0.02009 0.94557 0.44986
 H760 H 0.04004 0.92094 0.47082
 H761 H -0.00287 1.04974 0.51149
 H762 H 0.05802 1.02430 0.53365
 H763 H 0.07654 0.99402 0.52966
 H764 H 0.06824 0.93424 0.49598
 H765 H -0.02810 1.02828 0.52048
 H766 H -0.02044 0.96136 0.54489
 H767 H 0.05696 1.00803 0.43943
 H768 H 0.06635 0.94164 0.46523
 Zr769 Zr 0.73720 0.27270 0.22102
 O770 O 0.74655 0.29336 0.20041
 O771 O 0.70677 0.26946 0.21561
 O772 O 0.73528 0.26048 0.19416
 O773 O 0.73224 0.30746 0.25547
 O774 O 0.75297 0.23214 0.19662
 O775 O 0.72533 0.30116 0.22528
 O776 O 0.69606 0.24571 0.23623
 O777 O 0.73259 0.24207 0.22526
 O778 O 0.72482 0.26932 0.24735
 O779 O 0.76544 0.26035 0.21871
 O780 O 0.75750 0.28668 0.23927
 Zr781 Zr 0.76885 0.23879 0.26888
 Zr782 Zr 0.76091 0.23002 0.22437
 Zr783 Zr 0.74535 0.28161 0.26554
 Zr784 Zr 0.72116 0.23893 0.25192
 O785 O 0.76268 0.30657 0.27394
 O786 O 0.71070 0.21192 0.24012
 O787 O 0.74061 0.25129 0.27146
 O788 O 0.74857 0.22525 0.25057
 O789 O 0.78162 0.24219 0.24268
 O790 O 0.77340 0.26935 0.26456
 C791 C 0.69321 0.25835 0.22323
 C792 C 0.72508 0.31225 0.23970
 C793 C 0.74319 0.24488 0.18736
 O794 O 0.74484 0.20368 0.21758
 O795 O 0.77678 0.20544 0.23363
 O796 O 0.78236 0.21131 0.26411
 C797 C 0.78381 0.20074 0.24946
 O798 O 0.78778 0.29561 0.21783
 Zr799 Zr 0.78494 0.27272 0.23806
 O800 O 0.79936 0.24183 0.27418
 O801 O 0.78620 0.22667 0.20742
 O802 O 0.80634 0.26392 0.21845
 O803 O 0.79709 0.29875 0.25041
 O804 O 0.81041 0.26396 0.25222
 C805 C 0.81316 0.25178 0.26562
 O806 O 0.75998 0.21683 0.28850
 O807 O 0.71950 0.28710 0.28119
 O808 O 0.76820 0.24948 0.29633
 O809 O 0.75012 0.27753 0.29375
 O810 O 0.69882 0.24827 0.27034
 O811 O 0.71727 0.21823 0.27396
 C812 C 0.75911 0.26437 0.30321
 H813 H 0.71209 0.27610 0.24886
 H814 H 0.74662 0.21090 0.25332
 H815 H 0.78235 0.27538 0.27387
 H816 H 0.77111 0.26270 0.20627
 H817 H 0.69633 0.21052 0.24290
 H818 H 0.75278 0.19679 0.20819
 H819 H 0.78434 0.21391 0.20083
 H820 H 0.81869 0.27186 0.22065
 H821 H 0.68664 0.24016 0.26791
 H822 H 0.72186 0.29985 0.28767
 H823 H 0.75479 0.31348 0.28335
 H824 H 0.81138 0.29959 0.24713
 H825 H 0.70387 0.21188 0.27324
 H826 H 0.77181 0.21371 0.29595
 H827 H 0.73466 0.29668 0.19312
 H828 H 0.80184 0.30015 0.21686
 Zr829 Zr 0.75333 0.73734 0.71346
 O830 O 0.74456 0.71186 0.69830
 O831 O 0.77916 0.74686 0.69927
 O832 O 0.74612 0.74488 0.68605
 O833 O 0.77573 0.71243 0.74922
 O834 O 0.72332 0.76917 0.68895
 O835 O 0.77238 0.71301 0.71797
 O836 O 0.78674 0.77666 0.71268
 O837 O 0.75076 0.76830 0.71318
 O838 O 0.77090 0.74836 0.73493
 O839 O 0.72283 0.74276 0.71652
 O840 O 0.74203 0.72331 0.73754
 Zr841 Zr 0.72633 0.77192 0.76314
 Zr842 Zr 0.72075 0.77374 0.71753
 Zr843 Zr 0.75889 0.73584 0.75893
 Zr844 Zr 0.76743 0.77894 0.73525
 O845 O 0.75155 0.70953 0.77387
 O846 O 0.76746 0.80609 0.72022
 O847 O 0.75696 0.76680 0.76027
 O848 O 0.73769 0.78572 0.73907
 O849 O 0.70848 0.76119 0.74162
 O850 O 0.72891 0.74105 0.76324
 C851 C 0.78936 0.76323 0.70049
 C852 C 0.77924 0.70565 0.73308
 C853 C 0.73420 0.75768 0.67933
 O854 O 0.72759 0.80110 0.70410
 O855 O 0.70255 0.79622 0.72758
 O856 O 0.70589 0.79490 0.75885
 C857 C 0.69896 0.80254 0.74392
 O858 O 0.70981 0.70464 0.72472
 Zr859 Zr 0.71211 0.73048 0.74131
 O860 O 0.70012 0.76289 0.77669
 O861 O 0.69195 0.76807 0.70705
 O862 O 0.68462 0.73159 0.72734
 O863 O 0.71036 0.70467 0.75823
 O864 O 0.68995 0.73500 0.76133
 C865 C 0.68796 0.74823 0.77384
 O866 O 0.73436 0.79813 0.77757
 O867 O 0.78843 0.74023 0.76811
 O868 O 0.73511 0.76581 0.79061
 O869 O 0.75933 0.74311 0.78690
 O870 O 0.79634 0.77735 0.74644
 O871 O 0.77192 0.80245 0.75429
 C872 C 0.74871 0.75445 0.79684
 H873 H 0.78504 0.74504 0.73347
 H874 H 0.73677 0.80034 0.73971
 H875 H 0.72432 0.73473 0.77491
 H876 H 0.71514 0.73711 0.70613
 H877 H 0.78139 0.81113 0.71934
 H878 H 0.71603 0.80427 0.69634
 H879 H 0.68892 0.77946 0.69892
 H880 H 0.67534 0.72194 0.73346
 H881 H 0.80485 0.78733 0.73984
 H882 H 0.79139 0.72890 0.77635
 H883 H 0.76313 0.70660 0.78169
 H884 H 0.69629 0.70000 0.75857
 H885 H 0.78352 0.81082 0.75038
 H886 H 0.72424 0.79989 0.78735
 H887 H 0.75481 0.70998 0.68866
 H888 H 0.69693 0.69768 0.72714
 Zr889 Zr 0.23701 0.22720 0.76711
 O890 O 0.24702 0.20930 0.78908
 O891 O 0.20653 0.22833 0.77248
 O892 O 0.23372 0.24152 0.79289
 O893 O 0.23435 0.18889 0.73553
 O894 O 0.24704 0.27251 0.78731
 O895 O 0.22601 0.19748 0.76486
 O896 O 0.19505 0.24859 0.74976
 O897 O 0.23069 0.25658 0.76001
 O898 O 0.22516 0.22660 0.74054
 O899 O 0.26427 0.24309 0.76874
 O900 O 0.25870 0.21394 0.75045
 Zr901 Zr 0.26797 0.25990 0.71694
 Zr902 Zr 0.25800 0.27202 0.76029
 Zr903 Zr 0.24694 0.21491 0.72378
 Zr904 Zr 0.21994 0.25586 0.73315
 O905 O 0.26534 0.19056 0.71870
 O906 O 0.20779 0.28298 0.74179
 O907 O 0.24070 0.24385 0.71498
 O908 O 0.24639 0.27284 0.73366
 O909 O 0.28015 0.26067 0.74340
 O910 O 0.27399 0.23050 0.72415
 C911 C 0.19268 0.23755 0.76418
 C912 C 0.22656 0.18507 0.75140
 C913 C 0.23841 0.25944 0.79779
 O914 O 0.24080 0.29759 0.76362
 O915 O 0.27325 0.29700 0.74946
 O916 O 0.28148 0.28865 0.72005
 C917 C 0.28160 0.30070 0.73383
 O918 O 0.28960 0.21229 0.77379
 Zr919 Zr 0.28520 0.23126 0.75074
 O920 O 0.29814 0.25819 0.71097
 O921 O 0.28160 0.27954 0.77827
 O922 O 0.30571 0.24610 0.76829
 O923 O 0.29847 0.20461 0.74225
 O924 O 0.31028 0.23936 0.73442
 C925 C 0.31223 0.24953 0.71940
 O926 O 0.25850 0.27945 0.69600
 O927 O 0.22218 0.20611 0.70768
 O928 O 0.26871 0.24637 0.69057
 O929 O 0.25446 0.21566 0.69579
 O930 O 0.19833 0.24199 0.71604
 O931 O 0.21569 0.27314 0.70895
 C932 C 0.26263 0.22896 0.68526
 H933 H 0.21276 0.21847 0.73959
 H934 H 0.24390 0.28662 0.72961
 H935 H 0.28338 0.22416 0.71565
 H936 H 0.26951 0.24287 0.78145
 H937 H 0.19348 0.28247 0.73873
 H938 H 0.24773 0.30617 0.77272
 H939 H 0.27873 0.29275 0.78344
 H940 H 0.31869 0.23975 0.76673
 H941 H 0.18578 0.24913 0.71767
 H942 H 0.22511 0.19293 0.70248
 H943 H 0.25826 0.18190 0.70977
 H944 H 0.31273 0.20563 0.74546
 H945 H 0.20199 0.27808 0.70885
 H946 H 0.27031 0.28288 0.68829
 H947 H 0.23521 0.20541 0.79661
 H948 H 0.30399 0.21048 0.77557
 Zr949 Zr 0.25708 0.78493 0.28503
 O950 O 0.24974 0.80547 0.30575
 O951 O 0.28668 0.77913 0.29161
 O952 O 0.25704 0.77198 0.31187
 O953 O 0.26437 0.82104 0.25111
 O954 O 0.23850 0.74336 0.30844
 O955 O 0.27136 0.81322 0.28100
 O956 O 0.29550 0.75652 0.26999
 O957 O 0.25956 0.75452 0.27973
 O958 O 0.26920 0.78269 0.25856
 O959 O 0.22806 0.77271 0.28719
 O960 O 0.23758 0.79989 0.26727
 Zr961 Zr 0.22286 0.75351 0.23647
 Zr962 Zr 0.23059 0.74262 0.28063
 Zr963 Zr 0.24918 0.79595 0.24075
 Zr964 Zr 0.27067 0.75258 0.25293
 O965 O 0.23395 0.82203 0.23383
 O966 O 0.27920 0.72417 0.26231
 O967 O 0.25185 0.76595 0.23382
 O968 O 0.24247 0.73904 0.25422
 O969 O 0.21054 0.75583 0.26287
 O970 O 0.22034 0.78387 0.24177
 C971 C 0.29894 0.76714 0.28432
 C972 C 0.27212 0.82499 0.26684
 C973 C 0.24845 0.75592 0.31820
 O974 O 0.24547 0.71618 0.28689
 O975 O 0.21373 0.71829 0.27073
 O976 O 0.20835 0.72540 0.24042
 C977 C 0.20663 0.71406 0.25478
 O978 O 0.20831 0.80826 0.28911
 Zr979 Zr 0.20926 0.78617 0.26839
 O980 O 0.19233 0.75660 0.23220
 O981 O 0.20494 0.73848 0.29727
 O982 O 0.18751 0.77688 0.28807
 O983 O 0.19861 0.81279 0.25672
 O984 O 0.18301 0.77822 0.25452
 C985 C 0.17930 0.76626 0.24121
 O986 O 0.23009 0.73289 0.21577
 O987 O 0.27507 0.80079 0.22456
 O988 O 0.22339 0.76600 0.20948
 O989 O 0.24213 0.79453 0.21270
 O990 O 0.29434 0.76327 0.23590
 O991 O 0.27305 0.73421 0.22938
 C992 C 0.23208 0.78195 0.20302
 H993 H 0.28254 0.78913 0.25749
 H994 H 0.24364 0.72486 0.25100
 H995 H 0.21155 0.79047 0.23287
 H996 H 0.22249 0.77456 0.29967
 H997 H 0.29341 0.72275 0.25918
 H998 H 0.23706 0.70869 0.29593
 H999 H 0.20609 0.72547 0.30359
 H1000 H 0.17574 0.78517 0.28628
 H1001 H 0.30579 0.75467 0.23810
 H1002 H 0.27386 0.81394 0.21852
 H1003 H 0.24220 0.82932 0.22454
 H1004 H 0.18444 0.81365 0.26025
 H1005 H 0.28623 0.72808 0.22921
 H1006 H 0.21791 0.73026 0.20845
 H1007 H 0.26188 0.80797 0.31315
 H1008 H 0.19460 0.81300 0.29035
 Zr1009 Zr 0.23024 0.76618 0.72582
 O1010 O 0.23744 0.78425 0.70262
 O1011 O 0.19914 0.76427 0.72452
 O1012 O 0.22402 0.75169 0.70053
 O1013 O 0.23234 0.80459 0.75721
 O1014 O 0.23742 0.72122 0.70462
 O1015 O 0.22060 0.79568 0.72893
 O1016 O 0.19050 0.74320 0.74819
 O1017 O 0.22454 0.73647 0.73352
 O1018 O 0.22187 0.76631 0.75359
 O1019 O 0.25698 0.75153 0.72115
 O1020 O 0.25394 0.78052 0.73991
 Zr1021 Zr 0.26689 0.73504 0.77212
 Zr1022 Zr 0.25155 0.72228 0.73020
 Zr1023 Zr 0.24567 0.77905 0.76774
 Zr1024 Zr 0.21725 0.73678 0.76144
 O1025 O 0.26540 0.80369 0.77126
 O1026 O 0.20376 0.70921 0.75395
 O1027 O 0.24018 0.74980 0.77700
 O1028 O 0.24328 0.72102 0.75797
 O1029 O 0.27561 0.73483 0.74443
 O1030 O 0.27245 0.76472 0.76444
 C1031 C 0.18635 0.75458 0.73455
 C1032 C 0.22302 0.80817 0.74218
 C1033 C 0.22802 0.73402 0.69509
 O1034 O 0.23394 0.69581 0.72897
 O1035 O 0.26819 0.69814 0.73910
 O1036 O 0.27879 0.70664 0.76785
 C1037 C 0.27771 0.69473 0.75404
 O1038 O 0.28119 0.78447 0.71382
 Zr1039 Zr 0.28001 0.76449 0.73661
 O1040 O 0.29790 0.73734 0.77384
 O1041 O 0.27271 0.71596 0.70960
 O1042 O 0.29774 0.75160 0.71593
 O1043 O 0.29508 0.79117 0.74437
 O1044 O 0.30689 0.75622 0.74876
 C1045 C 0.31086 0.74567 0.76304
 O1046 O 0.26022 0.71515 0.79415
 O1047 O 0.22296 0.78770 0.78603
 O1048 O 0.26999 0.74805 0.79854
 O1049 O 0.25487 0.77777 0.79519
 O1050 O 0.19824 0.74957 0.78118
 O1051 O 0.21582 0.71914 0.78583
 C1052 C 0.26348 0.76452 0.80489
 H1053 H 0.20986 0.77402 0.75600
 H1054 H 0.24113 0.70714 0.76228
 H1055 H 0.28297 0.77116 0.77197
 H1056 H 0.26066 0.75203 0.70794
 H1057 H 0.18995 0.70903 0.75867
 H1058 H 0.23965 0.68756 0.71913
 H1059 H 0.26916 0.70260 0.70477
 H1060 H 0.31076 0.75881 0.71580
 H1061 H 0.18550 0.74186 0.78109
 H1062 H 0.22696 0.80091 0.79092
 H1063 H 0.25950 0.81209 0.78088
 H1064 H 0.30874 0.79075 0.73932
 H1065 H 0.20223 0.71342 0.78737
 H1066 H 0.27291 0.71221 0.80035
 H1067 H 0.22478 0.78761 0.69658
 H1068 H 0.29521 0.78764 0.71059
 Zr1069 Zr 0.25210 0.23728 0.21542
 O1070 O 0.24349 0.21204 0.19986
 O1071 O 0.27842 0.24667 0.20197
 O1072 O 0.24571 0.24522 0.18792
 O1073 O 0.27329 0.21173 0.25141
 O1074 O 0.22298 0.26960 0.19055
 O1075 O 0.27093 0.21281 0.22009
 O1076 O 0.28610 0.27612 0.21599
 O1077 O 0.24981 0.26827 0.21535
 O1078 O 0.26917 0.24791 0.23739
 O1079 O 0.22159 0.24290 0.21788
 O1080 O 0.24006 0.22307 0.23912
 Zr1081 Zr 0.22412 0.27154 0.26484
 Zr1082 Zr 0.21973 0.27388 0.21911
 Zr1083 Zr 0.25646 0.23521 0.26099
 Zr1084 Zr 0.26596 0.27852 0.23790
 O1085 O 0.24846 0.20885 0.27559
 O1086 O 0.26660 0.30568 0.22289
 O1087 O 0.25475 0.26618 0.26256
 O1088 O 0.23619 0.28550 0.24113
 O1089 O 0.20674 0.26119 0.24283
 O1090 O 0.22645 0.24064 0.26473
 C1091 C 0.28890 0.26280 0.20374
 C1092 C 0.27728 0.20518 0.23528
 C1093 C 0.23403 0.25816 0.18106
 O1094 O 0.22711 0.30135 0.20610
 O1095 O 0.20143 0.29636 0.22896
 O1096 O 0.20393 0.29468 0.26028
 C1097 C 0.19744 0.30252 0.24527
 O1098 O 0.20795 0.20484 0.22544
 Zr1099 Zr 0.21012 0.23045 0.24233
 O1100 O 0.19758 0.26249 0.27783
 O1101 O 0.19119 0.26857 0.20794
 O1102 O 0.18299 0.23202 0.22783
 O1103 O 0.20781 0.20444 0.25894
 O1104 O 0.18754 0.23488 0.26197
 C1105 C 0.18540 0.24793 0.27463
 O1106 O 0.23189 0.29758 0.27962
 O1107 O 0.28581 0.23910 0.27082
 O1108 O 0.23233 0.26519 0.29243
 O1109 O 0.25641 0.24231 0.28898
 O1110 O 0.29443 0.27666 0.24997
 O1111 O 0.27005 0.30194 0.25710
 C1112 C 0.24576 0.25371 0.29881
 H1113 H 0.28331 0.24449 0.23626
 H1114 H 0.23536 0.30012 0.24187
 H1115 H 0.22155 0.23424 0.27626
 H1116 H 0.21412 0.23744 0.20728
 H1117 H 0.28058 0.31062 0.22235
 H1118 H 0.21579 0.30469 0.19810
 H1119 H 0.18845 0.28008 0.19985
 H1120 H 0.17348 0.22239 0.23366
 H1121 H 0.30324 0.28661 0.24368
 H1122 H 0.28843 0.22764 0.27902
 H1123 H 0.25981 0.20572 0.28363
 H1124 H 0.19371 0.19988 0.25898
 H1125 H 0.28175 0.31030 0.25345
 H1126 H 0.22155 0.29929 0.28921
 H1127 H 0.25395 0.21016 0.19043
 H1128 H 0.19495 0.19797 0.22755
 Zr1129 Zr 0.73928 0.72853 0.26578
 O1130 O 0.74978 0.71100 0.28779
 O1131 O 0.70890 0.72926 0.27139
 O1132 O 0.73590 0.74305 0.29143
 O1133 O 0.73683 0.68992 0.23452
 O1134 O 0.74880 0.77416 0.28559
 O1135 O 0.72857 0.69869 0.26383
 O1136 O 0.69677 0.74910 0.24866
 O1137 O 0.73247 0.75776 0.25853
 O1138 O 0.72719 0.72753 0.23931
 O1139 O 0.76630 0.74485 0.26715
 O1140 O 0.76097 0.71538 0.24908
 Zr1141 Zr 0.76940 0.76112 0.21519
 Zr1142 Zr 0.75957 0.77360 0.25849
 Zr1143 Zr 0.74899 0.71598 0.22249
 Zr1144 Zr 0.72147 0.75662 0.23177
 O1145 O 0.76768 0.69184 0.21744
 O1146 O 0.70903 0.78364 0.24034
 O1147 O 0.74228 0.74474 0.21355
 O1148 O 0.74774 0.77395 0.23193
 O1149 O 0.78173 0.76232 0.24157
 O1150 O 0.77585 0.73189 0.22260
 C1151 C 0.69479 0.73815 0.26320
 C1152 C 0.72915 0.68618 0.25045
 C1153 C 0.74039 0.76106 0.29619
 O1154 O 0.74203 0.79895 0.26170
 O1155 O 0.77442 0.79869 0.24730
 O1156 O 0.78275 0.78993 0.21802
 C1157 C 0.78277 0.80219 0.23163
 O1158 O 0.79186 0.71425 0.27225
 Zr1159 Zr 0.78720 0.73306 0.24913
 O1160 O 0.79958 0.75971 0.20899
 O1161 O 0.78321 0.78165 0.27623
 O1162 O 0.80763 0.74823 0.26653
 O1163 O 0.80094 0.70664 0.24073
 O1164 O 0.81203 0.74150 0.23272
 C1165 C 0.81382 0.75146 0.21757
 O1166 O 0.75950 0.78040 0.19422
 O1167 O 0.72421 0.70668 0.20663
 O1168 O 0.77011 0.74740 0.18893
 O1169 O 0.75624 0.71658 0.19443
 O1170 O 0.69991 0.74230 0.21491
 O1171 O 0.71672 0.77364 0.20751
 C1172 C 0.76417 0.72990 0.18376
 H1173 H 0.71488 0.71923 0.23852
 H1174 H 0.74505 0.78765 0.22777
 H1175 H 0.78527 0.72560 0.21410
 H1176 H 0.77162 0.74482 0.27982
 H1177 H 0.69468 0.78288 0.23744
 H1178 H 0.74890 0.80771 0.27069
 H1179 H 0.78018 0.79485 0.28132
 H1180 H 0.82067 0.74200 0.26498
 H1181 H 0.68726 0.74923 0.21663
 H1182 H 0.72727 0.69350 0.20151
 H1183 H 0.76064 0.68300 0.20864
 H1184 H 0.81519 0.70791 0.24395
 H1185 H 0.70295 0.77836 0.20749
 H1186 H 0.77120 0.78392 0.18641
 H1187 H 0.73809 0.70700 0.29544
 H1188 H 0.80628 0.71267 0.27404
 Zr1189 Zr 0.75023 0.28593 0.78300
 O1190 O 0.74299 0.30669 0.80355
 O1191 O 0.77951 0.27931 0.79010
 O1192 O 0.74951 0.27284 0.80978
 O1193 O 0.75966 0.32152 0.74904
 O1194 O 0.72952 0.24520 0.80626
 O1195 O 0.76547 0.31377 0.77918
 O1196 O 0.78796 0.25618 0.76884
 O1197 O 0.75163 0.25538 0.77795
 O1198 O 0.76292 0.28303 0.75683
 O1199 O 0.72072 0.27488 0.78459
 O1200 O 0.73176 0.30145 0.76469
 Zr1201 Zr 0.71612 0.25536 0.73387
 Zr1202 Zr 0.72222 0.24465 0.77829
 Zr1203 Zr 0.74392 0.29688 0.73848
 Zr1204 Zr 0.76337 0.25280 0.75144
 O1205 O 0.72996 0.32350 0.73095
 O1206 O 0.77063 0.22424 0.76145
 O1207 O 0.74560 0.26671 0.73181
 O1208 O 0.73468 0.24036 0.75221
 O1209 O 0.70308 0.25837 0.75992
 O1210 O 0.71470 0.28588 0.73892
 C1211 C 0.79154 0.26692 0.78305
 C1212 C 0.76702 0.32540 0.76495
 C1213 C 0.74015 0.25717 0.81605
 O1214 O 0.73582 0.21765 0.78513
 O1215 O 0.70489 0.22080 0.76820
 O1216 O 0.70072 0.22764 0.73767
 C1217 C 0.69832 0.21647 0.75210
 O1218 O 0.70173 0.31065 0.78617
 Zr1219 Zr 0.70292 0.28884 0.76521
 O1220 O 0.68605 0.26002 0.72855
 O1221 O 0.69605 0.24170 0.79439
 O1222 O 0.68008 0.27979 0.78388
 O1223 O 0.69424 0.31629 0.75368
 O1224 O 0.67708 0.28289 0.74989
 C1225 C 0.67335 0.27104 0.73649
 O1226 O 0.72295 0.23427 0.71346
 O1227 O 0.77040 0.30055 0.72291
 O1228 O 0.71798 0.26758 0.70681
 O1229 O 0.73757 0.29550 0.71029
 O1230 O 0.78770 0.26237 0.73468
 O1231 O 0.76561 0.23393 0.72822
 C1232 C 0.72736 0.28319 0.70047
 H1233 H 0.77648 0.28900 0.75600
 H1234 H 0.73546 0.22610 0.74916
 H1235 H 0.70653 0.29286 0.72976
 H1236 H 0.71496 0.27700 0.79696
 H1237 H 0.78483 0.22224 0.75863
 H1238 H 0.72692 0.21059 0.79405
 H1239 H 0.69650 0.22867 0.80080
 H1240 H 0.66859 0.28835 0.78168
 H1241 H 0.79878 0.25338 0.73719
 H1242 H 0.76989 0.31372 0.71677
 H1243 H 0.73874 0.33038 0.72181
 H1244 H 0.68004 0.31790 0.75671
 H1245 H 0.77852 0.22728 0.72845
 H1246 H 0.71089 0.23213 0.70586
 H1247 H 0.75500 0.30883 0.81120
 H1248 H 0.68804 0.31548 0.78722
 C1249 C 0.45670 1.01838 0.32610
 N1250 N 0.45568 1.00311 0.31403
 N1251 N 0.44369 1.00385 0.29953
 C1252 C 0.43219 1.01982 0.29657
 N1253 N 0.43343 1.03521 0.30852
 N1254 N 0.44546 1.03450 0.32300
 C1255 C 0.46842 1.01682 0.34304
 N1256 N 0.46887 1.03195 0.35526
 N1257 N 0.47777 1.02993 0.37146
 C1258 C 0.48659 1.01271 0.37608
 N1259 N 0.48646 0.99766 0.36374
 N1260 N 0.47756 0.99970 0.34749
 C1261 C 0.49391 1.00990 0.39494
 N1262 N 0.50160 0.99241 0.40060
 N1263 N 0.50573 0.98930 0.41835
 C1264 C 0.50222 1.00356 0.43101
 N1265 N 0.49495 1.02111 0.42522
 N1266 N 0.49095 1.02425 0.40756
 C1267 C -0.04518 0.51585 0.82570
 N1268 N -0.04666 0.50048 0.81377
 N1269 N -0.05873 0.50135 0.79935
 C1270 C -0.06988 0.51756 0.79632
 N1271 N -0.06822 0.53303 0.80815
 N1272 N -0.05609 0.53219 0.82256
 C1273 C -0.03320 0.51426 0.84249
 N1274 N -0.03211 0.52959 0.85447
 N1275 N -0.02286 0.52764 0.87050
 C1276 C -0.01433 0.51030 0.87520
 N1277 N -0.01511 0.49503 0.86309
 N1278 N -0.02436 0.49699 0.84701
 C1279 C -0.00658 0.50767 0.89393
 N1280 N 0.00077 0.49008 0.89975
 N1281 N 0.00525 0.48722 0.91746
 C1282 C 0.00246 0.50185 0.92992
 N1283 N -0.00446 0.51949 0.92396
 N1284 N -0.00880 0.52238 0.90634
 C1285 C 0.04405 -0.00920 0.81643
 N1286 N 0.04273 0.00577 0.80390
 N1287 N 0.05304 0.00535 0.78819
 C1288 C 0.06513 -0.00999 0.78446
 N1289 N 0.06591 -0.02519 0.79678
 N1290 N 0.05558 -0.02481 0.81241
 C1291 C 0.03542 -0.00764 0.83497
 N1292 N 0.03926 -0.02182 0.84770
 N1293 N 0.03387 -0.01960 0.86517
 C1294 C 0.02438 -0.00314 0.87067
 N1295 N 0.02009 0.01093 0.85789
 N1296 N 0.02558 0.00874 0.84034
 C1297 C 0.02076 -0.00026 0.89043
 N1298 N 0.00870 0.01401 0.89695
 N1299 N 0.00630 0.01642 0.91509
 C1300 C 0.01615 0.00484 0.92723
 N1301 N 0.02815 -0.00929 0.92060
 N1302 N 0.03036 -0.01183 0.90262
 C1303 C 0.54695 0.49656 0.31663
 N1304 N 0.54380 0.51002 0.30301
 N1305 N 0.55313 0.50861 0.28683
 C1306 C 0.56591 0.49369 0.28368
 N1307 N 0.56841 0.47990 0.29712
 N1308 N 0.55913 0.48130 0.31323
 C1309 C 0.53984 0.49964 0.33555
 N1310 N 0.54771 0.48883 0.34937
 N1311 N 0.54331 0.49258 0.36682
 C1312 C 0.53075 0.50722 0.37123
 N1313 N 0.52249 0.51789 0.35742
 N1314 N 0.52710 0.51426 0.33985
 C1315 C 0.52725 0.51143 0.39078
 N1316 N 0.51067 0.52043 0.39693
 N1317 N 0.50735 0.52237 0.41501
 C1318 C 0.52067 0.51563 0.42745
 N1319 N 0.53736 0.50713 0.42115
 N1320 N 0.54056 0.50504 0.40324
 C1321 C 0.56555 0.48929 0.17878
 N1322 N 0.58471 0.49384 0.18312
 N1323 N 0.59020 0.49597 0.20062
 C1324 C 0.57673 0.49376 0.21448
 N1325 N 0.55753 0.48927 0.21012
 N1326 N 0.55204 0.48707 0.19261
 C1327 C 0.55966 0.48697 0.15937
 N1328 N 0.54085 0.48121 0.15471
 N1329 N 0.53568 0.47938 0.13706
 C1330 C 0.54914 0.48328 0.12344
 N1331 N 0.56791 0.48898 0.12814
 N1332 N 0.57308 0.49074 0.14573
 C1333 C 0.54372 0.48216 0.10382
 N1334 N 0.55701 0.48868 0.09093
 N1335 N 0.55239 0.48850 0.07317
 C1336 C 0.53433 0.48169 0.06745
 N1337 N 0.52098 0.47494 0.08029
 N1338 N 0.52560 0.47522 0.09819
 C1339 C 0.06677 0.98675 0.68123
 N1340 N 0.05323 0.98526 0.69509
 N1341 N 0.05883 0.98739 0.71256
 C1342 C 0.07819 0.99104 0.71691
 N1343 N 0.09170 0.99255 0.70299
 N1344 N 0.08609 0.99051 0.68552
 C1345 C 0.06071 0.98450 0.66187
 N1346 N 0.07403 0.98820 0.64814
 N1347 N 0.06868 0.98651 0.63059
 C1348 C 0.04984 0.98092 0.62603
 N1349 N 0.03649 0.97708 0.63976
 N1350 N 0.04183 0.97887 0.65736
 C1351 C 0.04421 0.97986 0.60647
 N1352 N 0.02624 0.97237 0.60098
 N1353 N 0.02146 0.97200 0.58313
 C1354 C 0.03447 0.97923 0.57020
 N1355 N 0.05236 0.98662 0.57579
 N1356 N 0.05715 0.98686 0.59351
 C1357 C -0.06676 0.51550 0.69295
 N1358 N -0.05394 0.51613 0.70725
 N1359 N -0.06063 0.51546 0.72452
 C1360 C -0.08041 0.51416 0.72822
 N1361 N -0.09327 0.51350 0.71389
 N1362 N -0.08656 0.51410 0.69657
 C1363 C -0.05925 0.51628 0.67390
 N1364 N -0.07187 0.51411 0.65953
 N1365 N -0.06503 0.51450 0.64230
 C1366 C -0.04533 0.51718 0.63874
 N1367 N -0.03268 0.51948 0.65310
 N1368 N -0.03953 0.51902 0.67036
 C1369 C -0.03805 0.51685 0.61962
 N1370 N -0.01865 0.52068 0.61525
 N1371 N -0.01236 0.51970 0.59780
 C1372 C -0.02529 0.51476 0.58417
 N1373 N -0.04462 0.51105 0.58862
 N1374 N -0.05088 0.51212 0.60595
 C1375 C 0.43425 0.01644 0.19309
 N1376 N 0.44724 0.01778 0.20724
 N1377 N 0.44077 0.01743 0.22458
 C1378 C 0.42107 0.01576 0.22851
 N1379 N 0.40804 0.01441 0.21435
 N1380 N 0.41452 0.01469 0.19696
 C1381 C 0.44151 0.01686 0.17396
 N1382 N 0.42877 0.01396 0.15978
 N1383 N 0.43541 0.01408 0.14247
 C1384 C 0.45500 0.01719 0.13866
 N1385 N 0.46776 0.02019 0.15283
 N1386 N 0.46112 0.02000 0.17017
 C1387 C 0.46207 0.01671 0.11948
 N1388 N 0.48133 0.02100 0.11491
 N1389 N 0.48746 0.02006 0.09742
 C1390 C 0.47452 0.01469 0.08393
 N1391 N 0.45533 0.01048 0.08859
 N1392 N 0.44922 0.01151 0.10596
 C1393 C 0.33033 0.39163 -0.00437
 N1394 N 0.31867 0.38915 0.01084
 N1395 N 0.30083 0.38011 0.00966
 C1396 C 0.29399 0.37317 -0.00675
 N1397 N 0.30560 0.37597 -0.02193
 N1398 N 0.32334 0.38504 -0.02078
 C1399 C 0.35048 0.40070 -0.00335
 N1400 N 0.36130 0.40341 -0.01901
 N1401 N 0.37966 0.41114 -0.01845
 C1402 C 0.38807 0.41640 -0.00220
 N1403 N 0.37730 0.41371 0.01355
 N1404 N 0.35884 0.40598 0.01298
 C1405 C 0.40835 0.42526 -0.00214
 N1406 N 0.41787 0.43023 0.01373
 N1407 N 0.43599 0.43882 0.01325
 C1408 C 0.44522 0.44274 -0.00313
 N1409 N 0.43570 0.43761 -0.01889
 N1410 N 0.41772 0.42900 -0.01841
 C1411 C -0.16977 0.88963 0.49645
 N1412 N -0.18198 0.88779 0.51135
 N1413 N -0.20012 0.87949 0.50976
 C1414 C -0.20675 0.87272 0.49321
 N1415 N -0.19459 0.87493 0.47833
 N1416 N -0.17655 0.88324 0.47990
 C1417 C -0.14924 0.89765 0.49795
 N1418 N -0.13763 0.89896 0.48266
 N1419 N -0.11894 0.90571 0.48364
 C1420 C -0.11097 0.91137 0.49997
 N1421 N -0.12254 0.91009 0.51536
 N1422 N -0.14133 0.90331 0.51437
 C1423 C -0.09035 0.91933 0.50041
 N1424 N -0.08149 0.92542 0.51628
 N1425 N -0.06317 0.93357 0.51600
 C1426 C -0.05306 0.93587 0.49983
 N1427 N -0.06189 0.92954 0.48410
 N1428 N -0.08007 0.92138 0.48439
 C1429 C -0.17610 0.10015 0.99692
 N1430 N -0.18884 0.09891 1.01144
 N1431 N -0.20540 0.10926 1.01154
 C1432 C -0.20986 0.12132 0.99715
 N1433 N -0.19715 0.12241 0.98256
 N1434 N -0.18062 0.11202 0.98244
 C1435 C -0.15744 0.08931 0.99712
 N1436 N -0.14501 0.08991 0.98234
 N1437 N -0.12786 0.08052 0.98275
 C1438 C -0.12247 0.07024 0.99800
 N1439 N -0.13492 0.06961 1.01275
 N1440 N -0.15208 0.07894 1.01232
 C1441 C -0.10338 0.06018 0.99873
 N1442 N -0.09749 0.05140 1.01459
 N1443 N -0.08015 0.04244 1.01545
 C1444 C -0.06804 0.04185 1.00049
 N1445 N -0.07394 0.05060 0.98458
 N1446 N -0.09128 0.05964 0.98374
 C1447 C 0.32293 0.60250 0.49856
 N1448 N 0.30892 0.59910 0.51181
 N1449 N 0.29273 0.61002 0.51251
 C1450 C 0.28997 0.62482 0.50003
 N1451 N 0.30399 0.62812 0.48677
 N1452 N 0.32013 0.61719 0.48604
 C1453 C 0.34099 0.59073 0.49792
 N1454 N 0.35458 0.59367 0.48422
 N1455 N 0.37113 0.58329 0.48382
 C1456 C 0.37473 0.56961 0.49713
 N1457 N 0.36113 0.56665 0.51080
 N1458 N 0.34456 0.57699 0.51118
 C1459 C 0.39322 0.55849 0.49708
 N1460 N 0.39730 0.54606 0.51126
 N1461 N 0.41420 0.53629 0.51158
 C1462 C 0.42767 0.53850 0.49771
 N1463 N 0.42357 0.55085 0.48344
 N1464 N 0.40666 0.56069 0.48314
 C1465 C 0.18000 0.60763 0.50574
 N1466 N 0.19519 0.59856 0.49717
 N1467 N 0.21264 0.60795 0.49470
 C1468 C 0.21561 0.62691 0.50051
 N1469 N 0.20034 0.63614 0.50888
 N1470 N 0.18286 0.62667 0.51146
 C1471 C 0.16104 0.59660 0.50886
 N1472 N 0.14628 0.60405 0.51939
 N1473 N 0.12933 0.59364 0.52214
 C1474 C 0.12655 0.57543 0.51444
 N1475 N 0.14133 0.56807 0.50397
 N1476 N 0.15823 0.57838 0.50130
 C1477 C 0.10768 0.56394 0.51636
 N1478 N 0.10450 0.54784 0.50557
 N1479 N 0.08729 0.53774 0.50616
 C1480 C 0.07256 0.54308 0.51775
 N1481 N 0.07575 0.55903 0.52886
 N1482 N 0.09302 0.56931 0.52814
 C1483 C 0.68115 0.10593 0.00792
 N1484 N 0.69738 0.09536 0.00375
 N1485 N 0.71492 0.10443 0.00096
 C1486 C 0.71705 0.12451 0.00199
 N1487 N 0.70072 0.13518 0.00600
 N1488 N 0.68312 0.12605 0.00896
 C1489 C 0.66191 0.09535 0.01091
 N1490 N 0.64601 0.10444 0.01835
 N1491 N 0.62880 0.09443 0.02089
 C1492 C 0.62688 0.07500 0.01602
 N1493 N 0.64279 0.06602 0.00861
 N1494 N 0.65995 0.07594 0.00622
 C1495 C 0.60777 0.06384 0.01750
 N1496 N 0.60515 0.04687 0.00777
 N1497 N 0.58781 0.03697 0.00803
 C1498 C 0.57242 0.04338 0.01828
 N1499 N 0.57504 0.06022 0.02832
 N1500 N 0.59241 0.07032 0.02789
 C1501 C 0.68110 0.88645 0.49671
 N1502 N 0.68426 0.86976 0.48686
 N1503 N 0.70219 0.86190 0.48625
 C1504 C 0.71774 0.87053 0.49529
 N1505 N 0.71462 0.88730 0.50506
 N1506 N 0.69662 0.89501 0.50587
 C1507 C 0.66122 0.89506 0.49754
 N1508 N 0.65638 0.90743 0.51144
 N1509 N 0.63840 0.91514 0.51231
 C1510 C 0.62461 0.91102 0.49920
 N1511 N 0.62948 0.89875 0.48521
 N1512 N 0.64739 0.89082 0.48447
 C1513 C 0.60486 0.91990 0.50027
 N1514 N 0.59327 0.92175 0.48510
 N1515 N 0.57588 0.93076 0.48613
 C1516 C 0.56930 0.93795 0.50243
 N1517 N 0.58080 0.93581 0.51759
 N1518 N 0.59823 0.92705 0.51652
 C1519 C 0.18200 0.38598 0.99718
 N1520 N 0.18513 0.36907 0.98765
 N1521 N 0.20308 0.36123 0.98712
 C1522 C 0.21866 0.37011 0.99591
 N1523 N 0.21555 0.38709 1.00537
 N1524 N 0.19754 0.39479 1.00610
 C1525 C 0.16214 0.39464 0.99790
 N1526 N 0.15742 0.40737 1.01155
 N1527 N 0.13950 0.41519 1.01231
 C1528 C 0.12564 0.41083 0.99933
 N1529 N 0.13037 0.39819 0.98559
 N1530 N 0.14824 0.39014 0.98496
 C1531 C 0.10596 0.41985 1.00028
 N1532 N 0.09428 0.42137 0.98513
 N1533 N 0.07696 0.43053 0.98604
 C1534 C 0.07056 0.43821 1.00221
 N1535 N 0.08215 0.43641 1.01734
 N1536 N 0.09951 0.42751 1.01638
 C1537 C -0.02227 0.31309 0.43031
 N1538 N -0.00908 0.29880 0.43421
 N1539 N -0.00714 0.28338 0.42302
 C1540 C -0.01820 0.28183 0.40749
 N1541 N -0.03167 0.29594 0.40388
 N1542 N -0.03364 0.31129 0.41506
 C1543 C -0.02273 0.33129 0.44103
 N1544 N -0.03461 0.34617 0.43569
 N1545 N -0.03347 0.36374 0.44390
 C1546 C -0.02038 0.36703 0.45772
 N1547 N -0.00875 0.35203 0.46334
 N1548 N -0.00987 0.33444 0.45509
 C1549 C -0.01791 0.38687 0.46542
 N1550 N -0.00491 0.39044 0.47927
 N1551 N -0.00207 0.40878 0.48564
 C1552 C -0.01200 0.42415 0.47824
 N1553 N -0.02500 0.42056 0.46440
 N1554 N -0.02788 0.40223 0.45808
 C1555 C 0.47708 -0.18311 -0.07565
 N1556 N 0.46671 -0.18464 -0.09155
 N1557 N 0.46880 -0.20025 -0.10243
 C1558 C 0.48138 -0.21485 -0.09782
 N1559 N 0.49152 -0.21344 -0.08176
 N1560 N 0.48943 -0.19782 -0.07087
 C1561 C 0.47648 -0.16497 -0.06482
 N1562 N 0.48812 -0.16269 -0.04976
 N1563 N 0.48913 -0.14539 -0.04102
 C1564 C 0.47858 -0.12980 -0.04710
 N1565 N 0.46670 -0.13219 -0.06198
 N1566 N 0.46567 -0.14948 -0.07070
 C1567 C 0.48095 -0.11034 -0.03857
 N1568 N 0.47169 -0.09447 -0.04578
 N1569 N 0.47455 -0.07650 -0.03865
 C1570 C 0.48684 -0.07377 -0.02410
 N1571 N 0.49605 -0.08966 -0.01682
 N1572 N 0.49321 -0.10765 -0.02399
 C1573 C 0.03491 -0.19143 1.07156
 N1574 N 0.04505 -0.19310 1.08753
 N1575 N 0.04175 -0.20862 1.09863
 C1576 C 0.02816 -0.22301 1.09419
 N1577 N 0.01870 -0.22181 1.07778
 N1578 N 0.02193 -0.20621 1.06670
 C1579 C 0.03502 -0.17237 1.06189
 N1580 N 0.02148 -0.16896 1.04857
 N1581 N 0.01875 -0.15060 1.04237
 C1582 C 0.02938 -0.13505 1.04938
 N1583 N 0.04335 -0.13853 1.06228
 N1584 N 0.04607 -0.15687 1.06848
 C1585 C 0.02470 -0.11473 1.04430
 N1586 N 0.03447 -0.09914 1.05223
 N1587 N 0.02975 -0.08060 1.04806
 C1588 C 0.01495 -0.07703 1.03600
 N1589 N 0.00511 -0.09263 1.02817
 N1590 N 0.00983 -0.11117 1.03233
 C1591 C 0.51962 0.29857 0.55193
 N1592 N 0.53481 0.29280 0.56273
 N1593 N 0.53195 0.27857 0.57534
 C1594 C 0.51372 0.26988 0.57783
 N1595 N 0.49878 0.27504 0.56645
 N1596 N 0.50168 0.28914 0.55374
 C1597 C 0.52119 0.31728 0.54171
 N1598 N 0.50581 0.32318 0.53123
 N1599 N 0.50499 0.34189 0.52533
 C1600 C 0.51940 0.35538 0.52992
 N1601 N 0.53511 0.34935 0.53990
 N1602 N 0.53599 0.33060 0.54569
 C1603 C 0.51675 0.37645 0.52615
 N1604 N 0.52819 0.39041 0.53475
 N1605 N 0.52476 0.40964 0.53246
 C1606 C 0.50968 0.41552 0.52158
 N1607 N 0.49832 0.40155 0.51292
 N1608 N 0.50168 0.38234 0.51530
 C1609 C 0.52610 1.16365 0.60759
 N1610 N 0.53673 1.17630 0.59648
 N1611 N 0.53354 1.19571 0.59669
 C1612 C 0.51964 1.20312 0.60810
 N1613 N 0.50938 1.19053 0.61956
 N1614 N 0.51242 1.17110 0.61920
 C1615 C 0.52711 1.14229 0.60481
 N1616 N 0.51169 1.13007 0.60999
 N1617 N 0.51059 1.11137 0.60416
 C1618 C 0.52496 1.10427 0.59307
 N1619 N 0.54075 1.11627 0.58854
 N1620 N 0.54177 1.13497 0.59424
 C1621 C 0.52202 1.08548 0.58345
 N1622 N 0.53597 1.07972 0.57128
 N1623 N 0.53233 1.06455 0.56012
 C1624 C 0.51456 1.05465 0.56060
 N1625 N 0.50069 1.06005 0.57307
 N1626 N 0.50434 1.07532 0.58426
 C1627 C 0.02867 0.66564 1.10744
 N1628 N 0.01553 0.67224 1.12002
 N1629 N 0.01385 0.69161 1.12285
 C1630 C 0.02504 0.70504 1.11305
 N1631 N 0.03834 0.69843 1.10062
 N1632 N 0.04014 0.67905 1.09788
 C1633 C 0.02878 0.64469 1.10258
 N1634 N 0.01358 0.63223 1.10782
 N1635 N 0.01208 0.61391 1.10107
 C1636 C 0.02580 0.60747 1.08895
 N1637 N 0.04129 0.61975 1.08417
 N1638 N 0.04273 0.63806 1.09081
 C1639 C 0.02279 0.58878 1.07922
 N1640 N 0.03633 0.58337 1.06652
 N1641 N 0.03278 0.56778 1.05583
 C1642 C 0.01552 0.55708 1.05737
 N1643 N 0.00204 0.56224 1.07030
 N1644 N 0.00560 0.57791 1.08102
 C1645 C 0.48906 0.67582 -0.09431
 N1646 N 0.49486 0.68024 -0.11180
 N1647 N 0.49306 0.69856 -0.11849
 C1648 C 0.48552 0.71314 -0.10791
 N1649 N 0.47940 0.70853 -0.09053
 N1650 N 0.48110 0.69021 -0.08387
 C1651 C 0.49247 0.65625 -0.08630
 N1652 N 0.48593 0.65194 -0.06902
 N1653 N 0.48990 0.63462 -0.06117
 C1654 C 0.50068 0.62105 -0.07025
 N1655 N 0.50719 0.62529 -0.08759
 N1656 N 0.50315 0.64264 -0.09548
 C1657 C 0.50507 0.60221 -0.06127
 N1658 N 0.51692 0.58880 -0.06939
 N1659 N 0.52052 0.57157 -0.06104
 C1660 C 0.51236 0.56725 -0.04431
 N1661 N 0.50062 0.58073 -0.03621
 N1662 N 0.49710 0.59791 -0.04450
 C1663 C -0.01438 1.17065 0.40811
 N1664 N -0.00656 1.17617 0.39156
 N1665 N -0.00785 1.19483 0.38559
 C1666 C -0.01693 1.20861 0.39599
 N1667 N -0.02501 1.20298 0.41242
 N1668 N -0.02380 1.18432 0.41835
 C1669 C -0.01141 1.15074 0.41554
 N1670 N -0.01965 1.14535 0.43194
 N1671 N -0.01588 1.12782 0.43948
 C1672 C -0.00364 1.11511 0.43096
 N1673 N 0.00451 1.12040 0.41447
 N1674 N 0.00069 1.13795 0.40688
 C1675 C 0.00087 1.09623 0.43983
 N1676 N 0.01413 1.08371 0.43238
 N1677 N 0.01815 1.06664 0.44082
 C1678 C 0.00905 1.06160 0.45697
 N1679 N -0.00414 1.07417 0.46436
 N1680 N -0.00811 1.09119 0.45598
 C1681 C 0.76693 0.70726 0.92199
 N1682 N 0.78304 0.69604 0.92505
 N1683 N 0.78378 0.68402 0.93968
 C1684 C 0.76842 0.68279 0.95184
 N1685 N 0.75245 0.69428 0.94891
 N1686 N 0.75169 0.70625 0.93426
 C1687 C 0.76535 0.71896 0.90490
 N1688 N 0.74823 0.72806 0.90049
 N1689 N 0.74622 0.73698 0.88417
 C1690 C 0.76129 0.73717 0.87169
 N1691 N 0.77850 0.72839 0.87627
 N1692 N 0.78050 0.71946 0.89254
 C1693 C 0.75857 0.74461 0.85280
 N1694 N 0.77303 0.74185 0.84014
 N1695 N 0.77004 0.74603 0.82248
 C1696 C 0.75253 0.75330 0.81672
 N1697 N 0.73816 0.75660 0.82943
 N1698 N 0.74112 0.75229 0.84718
 C1699 C 0.26421 0.20608 0.42373
 N1700 N 0.28050 0.19509 0.42674
 N1701 N 0.28142 0.18301 0.44132
 C1702 C 0.26607 0.18149 0.45347
 N1703 N 0.24993 0.19275 0.45059
 N1704 N 0.24898 0.20477 0.43599
 C1705 C 0.26247 0.21787 0.40672
 N1706 N 0.24518 0.22666 0.40231
 N1707 N 0.24306 0.23568 0.38605
 C1708 C 0.25819 0.23629 0.37363
 N1709 N 0.27556 0.22782 0.37821
 N1710 N 0.27766 0.21879 0.39442
 C1711 C 0.25542 0.24381 0.35478
 N1712 N 0.27003 0.24146 0.34218
 N1713 N 0.26706 0.24566 0.32453
 C1714 C 0.24943 0.25257 0.31871
 N1715 N 0.23489 0.25548 0.33135
 N1716 N 0.23783 0.25113 0.34909
 C1717 C 0.74442 0.29583 0.43392
 N1718 N 0.75936 0.29470 0.44632
 N1719 N 0.75874 0.30497 0.46195
 C1720 C 0.74321 0.31681 0.46573
 N1721 N 0.72806 0.31740 0.45353
 N1722 N 0.72864 0.30710 0.43798
 C1723 C 0.74608 0.28716 0.41544
 N1724 N 0.73182 0.29075 0.40286
 N1725 N 0.73400 0.28524 0.38546
 C1726 C 0.75050 0.27586 0.37987
 N1727 N 0.76469 0.27184 0.39250
 N1728 N 0.76253 0.27747 0.40999
 C1729 C 0.75322 0.27200 0.36012
 N1730 N 0.76747 0.25994 0.35353
 N1731 N 0.76959 0.25723 0.33540
 C1732 C 0.75770 0.26675 0.32330
 N1733 N 0.74360 0.27876 0.32999
 N1734 N 0.74137 0.28128 0.34798
 C1735 C 0.24728 0.79622 0.93551
 N1736 N 0.26120 0.79369 0.94872
 N1737 N 0.26004 0.80335 0.96467
 C1738 C 0.24494 0.81587 0.96799
 N1739 N 0.23072 0.81776 0.95499
 N1740 N 0.23186 0.80814 0.93911
 C1741 C 0.24994 0.78869 0.91671
 N1742 N 0.23831 0.79571 0.90311
 N1743 N 0.24163 0.79101 0.88566
 C1744 C 0.25664 0.77899 0.88103
 N1745 N 0.26814 0.77156 0.89463
 N1746 N 0.26493 0.77646 0.91219
 C1747 C 0.26046 0.77536 0.86141
 N1748 N 0.27014 0.75917 0.85531
 N1749 N 0.27194 0.75580 0.83724
 C1750 C 0.26438 0.76869 0.82475
 N1751 N 0.25516 0.78498 0.83099
 N1752 N 0.25320 0.78822 0.84890
 C1753 C 0.24000 0.81788 0.07150
 N1754 N 0.24358 0.83722 0.06683
 N1755 N 0.24595 0.84266 0.04925
 C1756 C 0.24494 0.82898 0.03561
 N1757 N 0.24147 0.80959 0.04034
 N1758 N 0.23903 0.80415 0.05792
 C1759 C 0.23734 0.81204 0.09099
 N1760 N 0.23250 0.79298 0.09592
 N1761 N 0.23035 0.78786 0.11364
 C1762 C 0.23300 0.80162 0.12706
 N1763 N 0.23779 0.82064 0.12208
 N1764 N 0.23987 0.82576 0.10442
 C1765 C 0.23159 0.79623 0.14676
 N1766 N 0.23698 0.80987 0.15955
 N1767 N 0.23668 0.80522 0.17737
 C1768 C 0.23083 0.78678 0.18323
 N1769 N 0.22518 0.77308 0.17047
 N1770 N 0.22560 0.77773 0.15254
 C1771 C 0.73801 0.31895 0.56905
 N1772 N 0.73713 0.30522 0.55546
 N1773 N 0.73973 0.31067 0.53790
 C1774 C 0.74328 0.33005 0.53320
 N1775 N 0.74421 0.34372 0.54685
 N1776 N 0.74169 0.33828 0.56440
 C1777 C 0.73511 0.31312 0.58850
 N1778 N 0.73773 0.32678 0.60196
 N1779 N 0.73537 0.32168 0.61959
 C1780 C 0.73016 0.30274 0.62451
 N1781 N 0.72741 0.28904 0.61105
 N1782 N 0.72986 0.29414 0.59337
 C1783 C 0.72837 0.29738 0.64418
 N1784 N 0.72170 0.27907 0.64989
 N1785 N 0.72085 0.27445 0.66782
 C1786 C 0.72672 0.28799 0.68064
 N1787 N 0.73326 0.30624 0.67484
 N1788 N 0.73399 0.31086 0.65703
 C1789 C 0.26445 0.18326 0.55697
 N1790 N 0.26314 0.16348 0.55333
 N1791 N 0.26234 0.15702 0.53601
 C1792 C 0.26270 0.17012 0.52170
 N1793 N 0.26391 0.18987 0.52541
 N1794 N 0.26477 0.19632 0.54268
 C1795 C 0.26550 0.19049 0.57603
 N1796 N 0.26803 0.21021 0.57957
 N1797 N 0.26876 0.21678 0.59684
 C1798 C 0.26697 0.20385 0.61122
 N1799 N 0.26450 0.18415 0.60766
 N1800 N 0.26383 0.17759 0.59042
 C1801 C 0.26688 0.21081 0.63039
 N1802 N 0.26271 0.19765 0.64415
 N1803 N 0.26174 0.20363 0.66151
 C1804 C 0.26501 0.22300 0.66592
 N1805 N 0.26942 0.23626 0.65220
 N1806 N 0.27030 0.23025 0.63471
 C1807 C 0.76613 0.68440 0.05540
 N1808 N 0.76466 0.66464 0.05170
 N1809 N 0.76396 0.65824 0.03436
 C1810 C 0.76460 0.67138 0.02008
 N1811 N 0.76598 0.69111 0.02385
 N1812 N 0.76673 0.69750 0.04114
 C1813 C 0.76707 0.69156 0.07448
 N1814 N 0.76974 0.71125 0.07808
 N1815 N 0.77039 0.71777 0.09537
 C1816 C 0.76836 0.70481 0.10971
 N1817 N 0.76575 0.68515 0.10609
 N1818 N 0.76516 0.67863 0.08883
 C1819 C 0.76825 0.71174 0.12888
 N1820 N 0.76396 0.69859 0.14263
 N1821 N 0.76302 0.70457 0.16000
 C1822 C 0.76642 0.72392 0.16442
 N1823 N 0.77092 0.73715 0.15071
 N1824 N 0.77178 0.73116 0.13322
 C1825 C 0.14350 0.58042 0.24871
 N1826 N 0.14752 0.56681 0.26199
 N1827 N 0.13766 0.54938 0.26273
 C1828 C 0.12331 0.54486 0.25025
 N1829 N 0.11951 0.55840 0.23682
 N1830 N 0.12942 0.57580 0.23603
 C1831 C 0.15346 0.60020 0.24868
 N1832 N 0.15045 0.61349 0.23485
 N1833 N 0.15886 0.63166 0.23530
 C1834 C 0.17050 0.63727 0.24968
 N1835 N 0.17353 0.62396 0.26345
 N1836 N 0.16522 0.60579 0.26296
 C1837 C 0.17950 0.65745 0.25070
 N1838 N 0.18879 0.66335 0.26633
 N1839 N 0.19710 0.68144 0.26754
 C1840 C 0.19654 0.69442 0.25317
 N1841 N 0.18723 0.68858 0.23746
 N1842 N 0.17880 0.67044 0.23628
 C1843 C 0.64052 0.08059 0.74623
 N1844 N 0.64507 0.06742 0.75972
 N1845 N 0.63591 0.04963 0.76072
 C1846 C 0.62174 0.04432 0.74832
 N1847 N 0.61746 0.05742 0.73465
 N1848 N 0.62669 0.07516 0.73358
 C1849 C 0.64953 0.10081 0.74606
 N1850 N 0.64628 0.11368 0.73193
 N1851 N 0.65376 0.13225 0.73231
 C1852 C 0.66461 0.13868 0.74693
 N1853 N 0.66787 0.12578 0.76099
 N1854 N 0.66052 0.10722 0.76055
 C1855 C 0.67260 0.15926 0.74794
 N1856 N 0.68062 0.16585 0.76392
 N1857 N 0.68829 0.18420 0.76514
 C1858 C 0.68833 0.19678 0.75045
 N1859 N 0.68024 0.19027 0.73439
 N1860 N 0.67242 0.17185 0.73319
 C1861 C 0.85072 0.07272 0.25460
 N1862 N 0.86242 0.06791 0.26902
 N1863 N 0.87260 0.05123 0.26887
 C1864 C 0.87146 0.03866 0.25432
 N1865 N 0.85955 0.04339 0.23999
 N1866 N 0.84941 0.06010 0.24012
 C1867 C 0.84020 0.09157 0.25436
 N1868 N 0.82993 0.09714 0.23924
 N1869 N 0.82090 0.11448 0.23876
 C1870 C 0.82176 0.12692 0.25339
 N1871 N 0.83195 0.12132 0.26857
 N1872 N 0.84103 0.10398 0.26903
 C1873 C 0.81199 0.14617 0.25259
 N1874 N 0.81170 0.15835 0.26742
 N1875 N 0.80279 0.17579 0.26651
 C1876 C 0.79393 0.18169 0.25070
 N1877 N 0.79430 0.16951 0.23590
 N1878 N 0.80313 0.15209 0.23682
 C1879 C 0.35121 0.57043 0.75401
 N1880 N 0.34790 0.55662 0.74074
 N1881 N 0.35876 0.54037 0.73996
 C1882 C 0.37340 0.53736 0.75238
 N1883 N 0.37660 0.55117 0.76567
 N1884 N 0.36574 0.56736 0.76648
 C1885 C 0.33957 0.58858 0.75472
 N1886 N 0.34251 0.60200 0.76839
 N1887 N 0.33228 0.61866 0.76884
 C1888 C 0.31876 0.62254 0.75560
 N1889 N 0.31579 0.60910 0.74196
 N1890 N 0.32598 0.59243 0.74153
 C1891 C 0.30780 0.64115 0.75567
 N1892 N 0.29552 0.64544 0.74154
 N1893 N 0.28589 0.66244 0.74121
 C1894 C 0.28809 0.67580 0.75501
 N1895 N 0.30030 0.67149 0.76924
 N1896 N 0.31000 0.65448 0.76954
 C1897 C 0.35644 0.42738 0.74595
 N1898 N 0.37557 0.43035 0.74036
 N1899 N 0.38499 0.44779 0.74314
 C1900 C 0.37563 0.46290 0.75160
 N1901 N 0.35659 0.45979 0.75729
 N1902 N 0.34723 0.44238 0.75461
 C1903 C 0.34545 0.40849 0.74256
 N1904 N 0.32702 0.40560 0.74982
 N1905 N 0.31673 0.38878 0.74690
 C1906 C 0.32432 0.37416 0.73644
 N1907 N 0.34276 0.37701 0.72905
 N1908 N 0.35314 0.39388 0.73205
 C1909 C 0.31282 0.35535 0.73425
 N1910 N 0.31857 0.34079 0.72261
 N1911 N 0.30826 0.32354 0.72169
 C1912 C 0.29190 0.32028 0.73245
 N1913 N 0.28618 0.33492 0.74389
 N1914 N 0.29631 0.35210 0.74468
 C1915 C 0.85597 0.92986 0.24240
 N1916 N 0.84540 0.94603 0.24674
 N1917 N 0.85447 0.96347 0.24986
 C1918 C 0.87455 0.96554 0.24897
 N1919 N 0.88521 0.94928 0.24479
 N1920 N 0.87609 0.93177 0.24152
 C1921 C 0.84537 0.91075 0.23900
 N1922 N 0.85459 0.89491 0.23164
 N1923 N 0.84454 0.87782 0.22872
 C1924 C 0.82493 0.87598 0.23311
 N1925 N 0.81582 0.89183 0.24044
 N1926 N 0.82578 0.90887 0.24321
 C1927 C 0.81367 0.85698 0.23123
 N1928 N 0.79618 0.85443 0.24033
 N1929 N 0.78616 0.83715 0.23980
 C1930 C 0.79299 0.82175 0.22987
 N1931 N 0.81037 0.82432 0.22044
 N1932 N 0.82056 0.84163 0.22115
 C1933 C 0.63488 0.93215 0.75006
 N1934 N 0.64328 0.94747 0.74023
 N1935 N 0.63564 0.96552 0.74074
 C1936 C 0.61913 0.96892 0.75090
 N1937 N 0.61065 0.95357 0.76062
 N1938 N 0.61843 0.93557 0.76030
 C1939 C 0.64343 0.91222 0.74942
 N1940 N 0.63950 0.89851 0.76288
 N1941 N 0.64750 0.88060 0.76229
 C1942 C 0.65953 0.87564 0.74807
 N1943 N 0.66333 0.88931 0.73458
 N1944 N 0.65555 0.90728 0.73530
 C1945 C 0.66857 0.85594 0.74715
 N1946 N 0.67568 0.84934 0.73087
 N1947 N 0.68469 0.83203 0.72990
 C1948 C 0.68714 0.82063 0.74518
 N1949 N 0.67998 0.82717 0.76152
 N1950 N 0.67072 0.84445 0.76246
 C1951 C 0.13425 0.43257 0.25089
 N1952 N 0.14304 0.44784 0.24129
 N1953 N 0.13566 0.46600 0.24180
 C1954 C 0.11902 0.46956 0.25173
 N1955 N 0.11014 0.45426 0.26122
 N1956 N 0.11767 0.43614 0.26090
 C1957 C 0.14257 0.41254 0.25029
 N1958 N 0.13826 0.39880 0.26364
 N1959 N 0.14612 0.38081 0.26310
 C1960 C 0.15837 0.37582 0.24906
 N1961 N 0.16253 0.38953 0.23568
 N1962 N 0.15490 0.40756 0.23634
 C1963 C 0.16727 0.35607 0.24821
 N1964 N 0.17468 0.34952 0.23203
 N1965 N 0.18362 0.33216 0.23114
 C1966 C 0.18569 0.32067 0.24641
 N1967 N 0.17822 0.32715 0.26265
 N1968 N 0.16904 0.34447 0.26350
 C1969 C 0.06115 0.22786 0.81996
 N1970 N 0.04731 0.24122 0.81529
 N1971 N 0.03163 0.24387 0.82610
 C1972 C 0.02931 0.23330 0.84200
 N1973 N 0.04301 0.21971 0.84646
 N1974 N 0.05866 0.21706 0.83566
 C1975 C 0.07951 0.22661 0.80939
 N1976 N 0.09419 0.21487 0.81542
 N1977 N 0.11181 0.21537 0.80711
 C1978 C 0.11534 0.22763 0.79250
 N1979 N 0.10054 0.23910 0.78624
 N1980 N 0.08291 0.23862 0.79457
 C1981 C 0.13522 0.22956 0.78459
 N1982 N 0.13897 0.24211 0.77023
 N1983 N 0.15734 0.24468 0.76371
 C1984 C 0.17257 0.23489 0.77143
 N1985 N 0.16880 0.22229 0.78574
 N1986 N 0.15043 0.21970 0.79224
 C1987 C 0.56619 0.72661 0.32430
 N1988 N 0.55161 0.73921 0.31979
 N1989 N 0.53633 0.74162 0.33113
 C1990 C 0.53515 0.73159 0.34740
 N1991 N 0.54961 0.71877 0.35176
 N1992 N 0.56488 0.71635 0.34041
 C1993 C 0.58399 0.72558 0.31291
 N1994 N 0.59925 0.71429 0.31838
 N1995 N 0.61636 0.71498 0.30920
 C1996 C 0.61880 0.72699 0.29425
 N1997 N 0.60341 0.73802 0.28855
 N1998 N 0.58629 0.73733 0.29775
 C1999 C 0.63822 0.72919 0.28545
 N2000 N 0.64113 0.74171 0.27090
 N2001 N 0.65919 0.74458 0.26369
 C2002 C 0.67491 0.73514 0.27091
 N2003 N 0.67195 0.72256 0.28540
 N2004 N 0.65392 0.71967 0.29256
 C2005 C 0.55702 0.27770 0.18588
 N2006 N 0.54357 0.26267 0.18899
 N2007 N 0.52839 0.25975 0.17759
 C2008 C 0.52628 0.27163 0.16258
 N2009 N 0.53922 0.28720 0.16002
 N2010 N 0.55434 0.29016 0.17142
 C2011 C 0.57604 0.27799 0.19533
 N2012 N 0.59072 0.29080 0.18962
 N2013 N 0.60927 0.28859 0.19526
 C2014 C 0.61376 0.27342 0.20673
 N2015 N 0.59900 0.26099 0.21294
 N2016 N 0.58045 0.26318 0.20727
 C2017 C 0.63439 0.26952 0.21102
 N2018 N 0.63898 0.25416 0.22224
 N2019 N 0.65783 0.25021 0.22567
 C2020 C 0.67272 0.26130 0.21778
 N2021 N 0.66813 0.27659 0.20645
 N2022 N 0.64927 0.28056 0.20305
 C2023 C 0.04891 0.76680 0.70047
 N2024 N 0.03981 0.74878 0.69821
 N2025 N 0.02601 0.74617 0.68537
 C2026 C 0.02083 0.76149 0.67432
 N2027 N 0.02918 0.77977 0.67726
 N2028 N 0.04311 0.78234 0.69000
 C2029 C 0.06740 0.76825 0.71077
 N2030 N 0.08056 0.78339 0.70713
 N2031 N 0.09920 0.78255 0.71294
 C2032 C 0.10528 0.76655 0.72261
 N2033 N 0.09194 0.75178 0.72689
 N2034 N 0.07334 0.75255 0.72096
 C2035 C 0.12630 0.76407 0.72639
 N2036 N 0.13222 0.74880 0.73712
 N2037 N 0.15142 0.74564 0.73950
 C2038 C 0.16535 0.75739 0.73094
 N2039 N 0.15944 0.77265 0.72017
 N2040 N 0.14022 0.77590 0.71790
 C2041 C 0.91604 0.77686 0.64277
 N2042 N 0.92353 0.76320 0.63122
 N2043 N 0.94282 0.75955 0.63131
 C2044 C 0.95520 0.76917 0.64316
 N2045 N 0.94776 0.78304 0.65451
 N2046 N 0.92850 0.78684 0.65429
 C2047 C 0.89465 0.77850 0.64500
 N2048 N 0.88735 0.79317 0.65551
 N2049 N 0.86842 0.79259 0.66073
 C2050 C 0.85619 0.77724 0.65576
 N2051 N 0.86331 0.76289 0.64473
 N2052 N 0.88223 0.76356 0.63938
 C2053 C 0.83701 0.77457 0.66497
 N2054 N 0.82662 0.75703 0.66398
 N2055 N 0.81099 0.75345 0.67493
 C2056 C 0.80541 0.76724 0.68733
 N2057 N 0.81553 0.78490 0.68796
 N2058 N 0.83108 0.78847 0.67704
 C2059 C 0.41633 0.27682 0.14458
 N2060 N 0.42317 0.26364 0.13223
 N2061 N 0.44256 0.26115 0.13027
 C2062 C 0.45575 0.27153 0.14077
 N2063 N 0.44891 0.28487 0.15300
 N2064 N 0.42952 0.28748 0.15485
 C2065 C 0.39516 0.27777 0.14849
 N2066 N 0.38837 0.29192 0.15988
 N2067 N 0.36968 0.29112 0.16580
 C2068 C 0.35718 0.27606 0.16063
 N2069 N 0.36382 0.26216 0.14885
 N2070 N 0.38250 0.26304 0.14282
 C2071 C 0.33801 0.27348 0.16982
 N2072 N 0.32700 0.25640 0.16803
 N2073 N 0.31097 0.25303 0.17852
 C2074 C 0.30557 0.26659 0.19121
 N2075 N 0.31637 0.28378 0.19269
 N2076 N 0.33233 0.28714 0.18224
 C2077 C 0.42508 0.73943 0.34399
 N2078 N 0.42997 0.74682 0.36075
 N2079 N 0.44818 0.74473 0.36736
 C2080 C 0.46211 0.73524 0.35745
 N2081 N 0.45708 0.72757 0.34084
 N2082 N 0.43888 0.72959 0.33426
 C2083 C 0.40579 0.74324 0.33584
 N2084 N 0.40136 0.73602 0.31894
 N2085 N 0.38437 0.74040 0.31086
 C2086 C 0.37126 0.75225 0.31933
 N2087 N 0.37560 0.75941 0.33630
 N2088 N 0.39262 0.75501 0.34441
 C2089 C 0.35275 0.75702 0.31015
 N2090 N 0.33940 0.76908 0.31809
 N2091 N 0.32236 0.77283 0.30969
 C2092 C 0.31819 0.76467 0.29306
 N2093 N 0.33163 0.75278 0.28511
 N2094 N 0.34863 0.74907 0.29347
 C2095 C 0.91997 0.24209 0.83963
 N2096 N 0.92448 0.24777 0.85702
 N2097 N 0.94284 0.24607 0.86336
 C2098 C 0.95738 0.23877 0.85252
 N2099 N 0.95271 0.23281 0.83523
 N2100 N 0.93434 0.23441 0.82891
 C2101 C 0.90030 0.24527 0.83203
 N2102 N 0.89587 0.23872 0.81489
 N2103 N 0.87841 0.24247 0.80741
 C2104 C 0.86482 0.25301 0.81672
 N2105 N 0.86918 0.25951 0.83392
 N2106 N 0.88666 0.25570 0.84145
 C2107 C 0.84586 0.25720 0.80811
 N2108 N 0.83243 0.26890 0.81642
 N2109 N 0.81514 0.27241 0.80834
 C2110 C 0.81079 0.26433 0.79172
 N2111 N 0.82428 0.25273 0.78346
 N2112 N 0.84152 0.24928 0.79147
 C2113 C 0.54284 0.99048 0.69741
 N2114 N 0.54355 1.00916 0.70426
 N2115 N 0.55497 1.01362 0.71862
 C2116 C 0.56596 0.99952 0.72686
 N2117 N 0.56480 0.98065 0.72041
 N2118 N 0.55350 0.97622 0.70588
 C2119 C 0.53285 0.98666 0.67977
 N2120 N 0.53684 0.97019 0.66987
 N2121 N 0.53004 0.96817 0.65276
 C2122 C 0.51895 0.98248 0.64494
 N2123 N 0.51459 0.99871 0.65500
 N2124 N 0.52148 1.00079 0.67205
 C2125 C 0.51353 0.98145 0.62536
 N2126 N 0.50185 0.99537 0.61769
 N2127 N 0.49855 0.99559 0.59960
 C2128 C 0.50693 0.98198 0.58850
 N2129 N 0.51842 0.96794 0.59621
 N2130 N 0.52162 0.96765 0.61430
 C2131 C 0.04468 0.49329 1.19700
 N2132 N 0.05464 0.47871 1.20575
 N2133 N 0.06561 0.48279 1.22058
 C2134 C 0.06712 0.50163 1.22708
 N2135 N 0.05682 0.51606 1.21854
 N2136 N 0.04573 0.51196 1.20388
 C2137 C 0.03498 0.48972 1.17917
 N2138 N 0.02413 0.50413 1.17121
 N2139 N 0.01740 0.50211 1.15409
 C2140 C 0.02139 0.48566 1.14420
 N2141 N 0.03198 0.47109 1.15224
 N2142 N 0.03862 0.47306 1.16942
 C2143 C 0.01600 0.48450 1.12461
 N2144 N 0.02382 0.47038 1.11372
 N2145 N 0.02052 0.47040 1.09565
 C2146 C 0.00918 0.48446 1.08777
 N2147 N 0.00108 0.49841 1.09869
 N2148 N 0.00449 0.49847 1.11677
 C2149 C -0.05351 -0.00313 1.18994
 N2150 N -0.05876 -0.01923 1.20048
 N2151 N -0.07055 -0.01727 1.21518
 C2152 C -0.07762 0.00080 1.21970
 N2153 N -0.07216 0.01679 1.20923
 N2154 N -0.06035 0.01488 1.19470
 C2155 C -0.04184 -0.00472 1.17286
 N2156 N -0.03749 0.01206 1.16307
 N2157 N -0.02874 0.01119 1.14669
 C2158 C -0.02386 -0.00650 1.13939
 N2159 N -0.02780 -0.02339 1.14929
 N2160 N -0.03667 -0.02251 1.16577
 C2161 C -0.01662 -0.00684 1.12025
 N2162 N -0.00894 -0.02329 1.11244
 N2163 N -0.00379 -0.02319 1.09461
 C2164 C -0.00640 -0.00670 1.08405
 N2165 N -0.01395 0.00963 1.09196
 N2166 N -0.01881 0.00961 1.10968
 C2167 C 0.43298 0.48293 0.68157
 N2168 N 0.44092 0.47700 0.69781
 N2169 N 0.43278 0.48231 0.71378
 C2170 C 0.41663 0.49399 0.71404
 N2171 N 0.40885 0.49994 0.69779
 N2172 N 0.41678 0.49443 0.68191
 C2173 C 0.44141 0.47731 0.66371
 N2174 N 0.42995 0.47839 0.64848
 N2175 N 0.43746 0.47483 0.63192
 C2176 C 0.45679 0.47019 0.62984
 N2177 N 0.46832 0.46891 0.64509
 N2178 N 0.46071 0.47230 0.66178
 C2179 C 0.46491 0.46863 0.61108
 N2180 N 0.48478 0.46860 0.60761
 N2181 N 0.49167 0.47020 0.59035
 C2182 C 0.47889 0.47187 0.57601
 N2183 N 0.45912 0.47131 0.57955
 N2184 N 0.45229 0.46968 0.59668
 C2185 C 0.45650 0.49642 -0.19433
 N2186 N 0.44699 0.48000 -0.20120
 N2187 N 0.43425 0.48153 -0.21513
 C2188 C 0.43046 0.49958 -0.22258
 N2189 N 0.44032 0.51586 -0.21596
 N2190 N 0.45313 0.51432 -0.20219
 C2191 C 0.46822 0.49538 -0.17731
 N2192 N 0.47796 0.51183 -0.17081
 N2193 N 0.48645 0.51169 -0.15426
 C2194 C 0.48538 0.49511 -0.14352
 N2195 N 0.47593 0.47859 -0.15016
 N2196 N 0.46755 0.47869 -0.16673
 C2197 C 0.49234 0.49537 -0.12433
 N2198 N 0.48608 0.48070 -0.11267
 N2199 N 0.49083 0.48126 -0.09496
 C2200 C 0.50217 0.49641 -0.08810
 N2201 N 0.50879 0.51104 -0.09977
 N2202 N 0.50381 0.51059 -0.11758
 C2203 C -0.04834 0.99430 0.31001
 N2204 N -0.05743 0.97807 0.30234
 N2205 N -0.07023 0.98007 0.28849
 C2206 C -0.07452 0.99841 0.28199
 N2207 N -0.06515 1.01452 0.28948
 N2208 N -0.05228 1.01252 0.30313
 C2209 C -0.03611 0.99264 0.32668
 N2210 N -0.02637 1.00893 0.33349
 N2211 N -0.01717 1.00819 0.34968
 C2212 C -0.01748 0.99113 0.35975
 N2213 N -0.02696 0.97476 0.35281
 N2214 N -0.03606 0.97548 0.33657
 C2215 C -0.00956 0.99071 0.37862
 N2216 N -0.01458 0.97526 0.38989
 N2217 N -0.00910 0.97530 0.40745
 C2218 C 0.00178 0.99070 0.41448
 N2219 N 0.00717 1.00610 0.40316
 N2220 N 0.00148 1.00615 0.38554
 C2221 C 0.06423 0.49429 0.32555
 N2222 N 0.08023 0.50679 0.32374
 N2223 N 0.08818 0.51071 0.30730
 C2224 C 0.08061 0.50216 0.29192
 N2225 N 0.06466 0.48945 0.29365
 N2226 N 0.05652 0.48566 0.31019
 C2227 C 0.05583 0.49061 0.34407
 N2228 N 0.03719 0.48284 0.34683
 N2229 N 0.02971 0.48092 0.36387
 C2230 C 0.04070 0.48660 0.37870
 N2231 N 0.05934 0.49409 0.37583
 N2232 N 0.06670 0.49613 0.35891
 C2233 C 0.03288 0.48581 0.39769
 N2234 N 0.04527 0.49089 0.41161
 N2235 N 0.03864 0.49195 0.42879
 C2236 C 0.01929 0.48798 0.43291
 N2237 N 0.00678 0.48256 0.41906
 N2238 N 0.01348 0.48149 0.40171
 C2239 C 0.56407 -0.00543 -0.17508
 N2240 N 0.57995 0.00719 -0.17716
 N2241 N 0.58790 0.01072 -0.19367
 C2242 C 0.58045 0.00164 -0.20884
 N2243 N 0.56464 -0.01120 -0.20683
 N2244 N 0.55651 -0.01461 -0.19023
 C2245 C 0.55563 -0.00861 -0.15651
 N2246 N 0.53715 -0.01672 -0.15362
 N2247 N 0.52962 -0.01823 -0.13657
 C2248 C 0.54039 -0.01180 -0.12187
 N2249 N 0.55887 -0.00395 -0.12487
 N2250 N 0.56629 -0.00232 -0.14180
 C2251 C 0.53254 -0.01225 -0.10290
 N2252 N 0.54478 -0.00654 -0.08907
 N2253 N 0.53811 -0.00535 -0.07191
 C2254 C 0.51888 -0.00980 -0.06773
 N2255 N 0.50650 -0.01580 -0.08149
 N2256 N 0.51324 -0.01701 -0.09881
 C2257 C 0.69963 0.60040 -0.01889
 N2258 N 0.71107 0.60262 -0.00359
 N2259 N 0.72709 0.61481 -0.00378
 C2260 C 0.73219 0.62522 -0.01927
 N2261 N 0.72082 0.62273 -0.03452
 N2262 N 0.70493 0.61059 -0.03436
 C2263 C 0.68131 0.58787 -0.01885
 N2264 N 0.67010 0.58648 -0.03432
 N2265 N 0.65313 0.57583 -0.03439
 C2266 C 0.64669 0.56615 -0.01895
 N2267 N 0.65794 0.56746 -0.00348
 N2268 N 0.67492 0.57813 -0.00341
 C2269 C 0.62767 0.55476 -0.01878
 N2270 N 0.62133 0.54546 -0.00313
 N2271 N 0.60403 0.53545 -0.00268
 C2272 C 0.59231 0.53428 -0.01782
 N2273 N 0.59863 0.54354 -0.03356
 N2274 N 0.61600 0.55360 -0.03401
 C2275 C 0.19797 1.09876 0.48296
 N2276 N 0.20917 1.10142 0.49836
 N2277 N 0.22519 1.11360 0.49812
 C2278 C 0.23053 1.12360 0.48246
 N2279 N 0.21942 1.12066 0.46711
 N2280 N 0.20354 1.10852 0.46733
 C2281 C 0.17962 1.08628 0.48307
 N2282 N 0.16867 1.08436 0.46748
 N2283 N 0.15168 1.07375 0.46747
 C2284 C 0.14493 1.06465 0.48311
 N2285 N 0.15592 1.06650 0.49870
 N2286 N 0.17293 1.07712 0.49870
 C2287 C 0.12593 1.05323 0.48335
 N2288 N 0.11934 1.04458 0.49922
 N2289 N 0.10215 1.03441 0.49974
 C2290 C 0.09076 1.03242 0.48445
 N2291 N 0.09730 1.04105 0.46849
 N2292 N 0.11458 1.05129 0.46797
 C2293 C 0.18625 -0.10000 1.00585
 N2294 N 0.19703 -0.10620 1.02049
 N2295 N 0.21170 -0.11891 1.01815
 C2296 C 0.21597 -0.12599 1.00114
 N2297 N 0.20524 -0.11965 0.98658
 N2298 N 0.19078 -0.10685 0.98887
 C2299 C 0.16940 -0.08670 1.00799
 N2300 N 0.16117 -0.07858 0.99279
 N2301 N 0.14521 -0.06750 0.99415
 C2302 C 0.13667 -0.06419 1.01076
 N2303 N 0.14492 -0.07221 1.02606
 N2304 N 0.16104 -0.08324 1.02471
 C2305 C 0.11833 -0.05278 1.01161
 N2306 N 0.10744 -0.05148 1.02735
 N2307 N 0.09022 -0.04208 1.02738
 C2308 C 0.08335 -0.03363 1.01167
 N2309 N 0.09438 -0.03480 0.99606
 N2310 N 0.11148 -0.04419 0.99603
 C2311 C 0.68354 0.39976 0.50442
 N2312 N 0.69402 0.39290 0.51899
 N2313 N 0.70900 0.38062 0.51638
 C2314 C 0.71389 0.37463 0.49915
 N2315 N 0.70345 0.38160 0.48466
 N2316 N 0.68869 0.39400 0.48723
 C2317 C 0.66640 0.41263 0.50685
 N2318 N 0.65894 0.42220 0.49203
 N2319 N 0.64278 0.43297 0.49360
 C2320 C 0.63325 0.43447 0.51000
 N2321 N 0.64071 0.42497 0.52492
 N2322 N 0.65705 0.41429 0.52339
 C2323 C 0.61476 0.44564 0.51099
 N2324 N 0.60248 0.44444 0.52590
 N2325 N 0.58515 0.45363 0.52586
 C2326 C 0.57956 0.46442 0.51094
 N2327 N 0.59200 0.46575 0.49621
 N2328 N 0.60919 0.45654 0.49622
 C2329 C -0.18589 0.39732 0.49542
 N2330 N -0.19958 0.39753 0.50926
 N2331 N -0.21521 0.38487 0.50927
 C2332 C -0.21764 0.37149 0.49548
 N2333 N -0.20390 0.37137 0.48174
 N2334 N -0.18839 0.38399 0.48170
 C2335 C -0.16838 0.41092 0.49514
 N2336 N -0.15533 0.41047 0.48085
 N2337 N -0.13911 0.42224 0.48058
 C2338 C -0.13532 0.43496 0.49461
 N2339 N -0.14843 0.43550 0.50888
 N2340 N -0.16468 0.42373 0.50914
 C2341 C -0.11686 0.44720 0.49481
 N2342 N -0.11248 0.45876 0.50952
 N2343 N -0.09526 0.46887 0.51034
 C2344 C -0.08174 0.46792 0.49646
 N2345 N -0.08620 0.45655 0.48159
 N2346 N -0.10346 0.44638 0.48079
 C2347 C 0.31518 -0.10304 -0.00318
 N2348 N 0.30131 -0.10244 0.01049
 N2349 N 0.28596 -0.11544 0.01089
 C2350 C 0.28400 -0.12955 -0.00232
 N2351 N 0.29794 -0.13007 -0.01586
 N2352 N 0.31317 -0.11713 -0.01629
 C2353 C 0.33229 -0.08897 -0.00397
 N2354 N 0.34541 -0.08973 -0.01820
 N2355 N 0.36128 -0.07752 -0.01893
 C2356 C 0.36465 -0.06402 -0.00545
 N2357 N 0.35148 -0.06316 0.00875
 N2358 N 0.33557 -0.07538 0.00947
 C2359 C 0.38282 -0.05136 -0.00565
 N2360 N 0.38695 -0.03920 0.00871
 N2361 N 0.40404 -0.02885 0.00931
 C2362 C 0.41766 -0.03012 -0.00445
 N2363 N 0.41343 -0.04204 -0.01900
 N2364 N 0.39631 -0.05246 -0.01958
 C2365 C 0.33290 1.10678 0.49900
 N2366 N 0.31675 1.10663 0.51033
 N2367 N 0.30083 1.11712 0.50601
 C2368 C 0.30045 1.12812 0.49022
 N2369 N 0.31658 1.12811 0.47896
 N2370 N 0.33240 1.11767 0.48323
 C2371 C 0.35090 1.09555 0.50326
 N2372 N 0.36619 1.09612 0.49107
 N2373 N 0.38258 1.08614 0.49430
 C2374 C 0.38451 1.07517 0.50990
 N2375 N 0.36924 1.07458 0.52225
 N2376 N 0.35273 1.08462 0.51899
 C2377 C 0.40274 1.06372 0.51242
 N2378 N 0.40641 1.05291 0.52791
 N2379 N 0.42281 1.04218 0.52919
 C2380 C 0.43605 1.04188 0.51497
 N2381 N 0.43233 1.05282 0.49968
 N2382 N 0.41613 1.06354 0.49846
 C2383 C -0.16571 0.60737 0.99743
 N2384 N -0.18169 0.60771 1.00894
 N2385 N -0.19751 0.61834 1.00461
 C2386 C -0.19794 0.62901 0.98862
 N2387 N -0.18199 0.62852 0.97719
 N2388 N -0.16628 0.61793 0.98147
 C2389 C -0.14782 0.59600 1.00169
 N2390 N -0.13279 0.59594 0.98923
 N2391 N -0.11648 0.58586 0.99246
 C2392 C -0.11435 0.57542 1.00834
 N2393 N -0.12934 0.57546 1.02096
 N2394 N -0.14579 0.58559 1.01770
 C2395 C -0.09619 0.56387 1.01088
 N2396 N -0.09220 0.55369 1.02667
 N2397 N -0.07584 0.54291 1.02800
 C2398 C -0.06297 0.54192 1.01354
 N2399 N -0.06702 0.55222 0.99795
 N2400 N -0.08316 0.56298 0.99667
 C2401 C -0.00859 0.68097 0.60729
 N2402 N 0.00147 0.68193 0.62340
 N2403 N 0.00141 0.69837 0.63346
 C2404 C -0.00872 0.71440 0.62773
 N2405 N -0.01911 0.71323 0.61180
 N2406 N -0.01908 0.69680 0.60176
 C2407 C -0.00694 0.66372 0.59541
 N2408 N -0.01646 0.66297 0.57899
 N2409 N -0.01416 0.64764 0.56777
 C2410 C -0.00211 0.63267 0.57256
 N2411 N 0.00738 0.63343 0.58898
 N2412 N 0.00505 0.64871 0.60019
 C2413 C 0.00011 0.61550 0.56067
 N2414 N 0.01193 0.60058 0.56599
 N2415 N 0.01296 0.58418 0.55603
 C2416 C 0.00229 0.58213 0.54035
 N2417 N -0.00928 0.59721 0.53480
 N2418 N -0.01032 0.61366 0.54480
 C2419 C 0.49482 0.18461 0.10418
 N2420 N 0.48264 0.19926 0.09893
 N2421 N 0.48256 0.21632 0.10802
 C2422 C 0.49461 0.21933 0.12269
 N2423 N 0.50652 0.20449 0.12817
 N2424 N 0.50661 0.18740 0.11908
 C2425 C 0.49617 0.16670 0.09314
 N2426 N 0.50870 0.15216 0.09800
 N2427 N 0.51054 0.13625 0.08743
 C2428 C 0.50005 0.13444 0.07161
 N2429 N 0.48752 0.14897 0.06677
 N2430 N 0.48565 0.16486 0.07735
 C2431 C 0.50172 0.11675 0.06032
 N2432 N 0.49125 0.11482 0.04449
 N2433 N 0.49184 0.09812 0.03483
 C2434 C 0.50295 0.08284 0.04069
 N2435 N 0.51362 0.08491 0.05638
 N2436 N 0.51307 0.10160 0.06600
 C2437 C -0.01213 0.19238 0.92941
 N2438 N -0.02775 0.19784 0.91898
 N2439 N -0.02513 0.21080 0.90517
 C2440 C -0.00677 0.21841 0.90118
 N2441 N 0.00873 0.21330 0.91187
 N2442 N 0.00607 0.20060 0.92581
 C2443 C -0.01383 0.17532 0.94188
 N2444 N 0.00141 0.17120 0.95329
 N2445 N 0.00204 0.15373 0.96188
 C2446 C -0.01241 0.13966 0.95918
 N2447 N -0.02794 0.14395 0.94817
 N2448 N -0.02865 0.16151 0.93968
 C2449 C -0.00991 0.11953 0.96624
 N2450 N -0.02138 0.10417 0.95993
 N2451 N -0.01786 0.08560 0.96513
 C2452 C -0.00269 0.08176 0.97672
 N2453 N 0.00865 0.09714 0.98314
 N2454 N 0.00520 0.11568 0.97787
 C2455 C 0.49427 0.69270 0.43696
 N2456 N 0.47861 0.69988 0.42758
 N2457 N 0.48153 0.71198 0.41318
 C2458 C 0.50021 0.71696 0.40747
 N2459 N 0.51584 0.71012 0.41709
 N2460 N 0.51291 0.69827 0.43162
 C2461 C 0.49145 0.67646 0.45023
 N2462 N 0.50683 0.67076 0.46083
 N2463 N 0.50582 0.65362 0.47007
 C2464 C 0.48951 0.64148 0.46883
 N2465 N 0.47389 0.64744 0.45866
 N2466 N 0.47482 0.66468 0.44957
 C2467 C 0.49006 0.62112 0.47584
 N2468 N 0.47767 0.60691 0.46881
 N2469 N 0.47984 0.58787 0.47321
 C2470 C 0.49445 0.58240 0.48481
 N2471 N 0.50660 0.59664 0.49213
 N2472 N 0.50457 0.61566 0.48758
 C2473 C 0.49503 0.81722 0.40075
 N2474 N 0.50989 0.81427 0.38850
 N2475 N 0.51214 0.79652 0.38099
 C2476 C 0.49965 0.78107 0.38548
 N2477 N 0.48467 0.78409 0.39760
 N2478 N 0.48241 0.80185 0.40513
 C2479 C 0.49351 0.83632 0.40998
 N2480 N 0.47946 0.83901 0.42309
 N2481 N 0.47903 0.85593 0.43243
 C2482 C 0.49266 0.87070 0.42897
 N2483 N 0.50656 0.86809 0.41572
 N2484 N 0.50698 0.85119 0.40638
 C2485 C 0.49317 0.88868 0.44010
 N2486 N 0.50773 0.90272 0.43744
 N2487 N 0.50888 0.91863 0.44817
 C2488 C 0.49552 0.92103 0.46195
 N2489 N 0.48086 0.90706 0.46453
 N2490 N 0.47973 0.89112 0.45380
 C2491 C -0.00768 0.31824 0.89838
 N2492 N 0.00685 0.31538 0.88579
 N2493 N 0.00823 0.29801 0.87734
 C2494 C -0.00487 0.28287 0.88121
 N2495 N -0.01954 0.28582 0.89366
 N2496 N -0.02092 0.30320 0.90212
 C2497 C -0.00827 0.33685 0.90854
 N2498 N -0.02200 0.33940 0.92199
 N2499 N -0.02169 0.35589 0.93200
 C2500 C -0.00762 0.37035 0.92891
 N2501 N 0.00597 0.36787 0.91536
 N2502 N 0.00566 0.35140 0.90535
 C2503 C -0.00654 0.38800 0.94046
 N2504 N 0.00819 0.40186 0.93780
 N2505 N 0.00965 0.41767 0.94863
 C2506 C -0.00355 0.42015 0.96252
 N2507 N -0.01834 0.40633 0.96516
 N2508 N -0.01978 0.39049 0.95433
 C2509 C 0.50480 0.29901 0.06494
 N2510 N 0.48729 0.29185 0.07190
 N2511 N 0.48677 0.28177 0.08773
 C2512 C 0.50368 0.27886 0.09728
 N2513 N 0.52124 0.28549 0.09005
 N2514 N 0.52179 0.29536 0.07414
 C2515 C 0.50500 0.31418 0.05053
 N2516 N 0.52252 0.32086 0.04322
 N2517 N 0.52359 0.33786 0.03379
 C2518 C 0.50723 0.34889 0.03159
 N2519 N 0.48957 0.34186 0.03830
 N2520 N 0.48847 0.32475 0.04756
 C2521 C 0.50921 0.36932 0.02496
 N2522 N 0.49533 0.38265 0.02954
 N2523 N 0.49806 0.40180 0.02537
 C2524 C 0.51480 0.40825 0.01652
 N2525 N 0.52859 0.39489 0.01175
 N2526 N 0.52596 0.37576 0.01611
 C2527 C 0.01549 0.79761 0.57684
 N2528 N 0.03042 0.79526 0.58906
 N2529 N 0.02759 0.78412 0.60411
 C2530 C 0.00974 0.77494 0.60741
 N2531 N -0.00493 0.77675 0.59486
 N2532 N -0.00215 0.78798 0.57990
 C2533 C 0.01703 0.81315 0.56278
 N2534 N 0.00023 0.82089 0.55589
 N2535 N 0.00103 0.83759 0.54601
 C2536 C 0.01868 0.84701 0.54253
 N2537 N 0.03558 0.83891 0.54882
 N2538 N 0.03476 0.82231 0.55891
 C2539 C 0.01913 0.86688 0.53443
 N2540 N 0.03601 0.87474 0.52679
 N2541 N 0.03662 0.89343 0.52066
 C2542 C 0.02053 0.90497 0.52239
 N2543 N 0.00370 0.89712 0.53007
 N2544 N 0.00300 0.87836 0.53594
 C2545 C 0.24382 0.29657 0.05123
 N2546 N 0.22897 0.30567 0.04212
 N2547 N 0.23279 0.31628 0.02686
 C2548 C 0.25161 0.31831 0.02024
 N2549 N 0.26635 0.30890 0.02917
 N2550 N 0.26251 0.29815 0.04429
 C2551 C 0.24031 0.28705 0.06931
 N2552 N 0.25489 0.27671 0.07753
 N2553 N 0.25270 0.26995 0.09474
 C2554 C 0.23591 0.27343 0.10444
 N2555 N 0.22122 0.28357 0.09615
 N2556 N 0.22335 0.29020 0.07889
 C2557 C 0.23442 0.26788 0.12406
 N2558 N 0.21994 0.27538 0.13481
 N2559 N 0.21957 0.27185 0.15288
 C2560 C 0.23357 0.26058 0.16090
 N2561 N 0.24788 0.25281 0.15011
 N2562 N 0.24834 0.25646 0.13204
 C2563 C 0.74206 0.79569 0.54949
 N2564 N 0.72735 0.80537 0.54073
 N2565 N 0.73125 0.81620 0.52561
 C2566 C 0.75003 0.81788 0.51882
 N2567 N 0.76461 0.80788 0.52739
 N2568 N 0.76069 0.79691 0.54236
 C2569 C 0.73859 0.78605 0.56752
 N2570 N 0.75306 0.77533 0.57547
 N2571 N 0.75104 0.76855 0.59268
 C2572 C 0.73453 0.77238 0.60266
 N2573 N 0.71992 0.78286 0.59463
 N2574 N 0.72189 0.78953 0.57736
 C2575 C 0.73334 0.76690 0.62229
 N2576 N 0.71918 0.77462 0.63326
 N2577 N 0.71918 0.77123 0.65136
 C2578 C 0.73325 0.75989 0.65918
 N2579 N 0.74724 0.75189 0.64817
 N2580 N 0.74732 0.75539 0.63008
 C2581 C 0.23448 0.68323 0.57076
 N2582 N 0.24604 0.66708 0.57036
 N2583 N 0.25178 0.65944 0.55443
 C2584 C 0.24601 0.66750 0.53823
 N2585 N 0.23427 0.68360 0.53855
 N2586 N 0.22872 0.69145 0.55456
 C2587 C 0.22866 0.69133 0.58868
 N2588 N 0.22350 0.71059 0.59070
 N2589 N 0.21998 0.71791 0.60743
 C2590 C 0.22126 0.70611 0.62264
 N2591 N 0.22603 0.68683 0.62047
 N2592 N 0.22973 0.67962 0.60387
 C2593 C 0.21956 0.71394 0.64145
 N2594 N 0.22082 0.70110 0.65581
 N2595 N 0.22228 0.70771 0.67294
 C2596 C 0.22245 0.72745 0.67651
 N2597 N 0.22059 0.74042 0.66221
 N2598 N 0.21917 0.73376 0.64494
 C2599 C 0.74730 0.19549 0.06148
 N2600 N 0.73140 0.19035 0.05090
 N2601 N 0.73362 0.17883 0.03615
 C2602 C 0.75177 0.17192 0.03161
 N2603 N 0.76756 0.17728 0.04212
 N2604 N 0.76539 0.18883 0.05670
 C2605 C 0.74545 0.20686 0.07862
 N2606 N 0.76207 0.21105 0.08843
 N2607 N 0.76097 0.21953 0.10483
 C2608 C 0.74322 0.22430 0.11216
 N2609 N 0.72648 0.22051 0.10225
 N2610 N 0.72758 0.21191 0.08574
 C2611 C 0.74270 0.23127 0.13131
 N2612 N 0.72633 0.23920 0.13913
 N2613 N 0.72637 0.24430 0.15692
 C2614 C 0.74269 0.24135 0.16744
 N2615 N 0.75891 0.23353 0.15952
 N2616 N 0.75896 0.22873 0.14184
 C2617 C 0.74573 0.20154 0.94060
 N2618 N 0.76401 0.19754 0.94708
 N2619 N 0.76617 0.18473 0.96091
 C2620 C 0.75017 0.17550 0.96897
 N2621 N 0.73178 0.17985 0.96284
 N2622 N 0.72961 0.19257 0.94883
 C2623 C 0.74383 0.21375 0.92381
 N2624 N 0.72661 0.21361 0.91423
 N2625 N 0.72565 0.22274 0.89793
 C2626 C 0.74181 0.23247 0.89061
 N2627 N 0.75893 0.23297 0.90037
 N2628 N 0.75992 0.22372 0.91663
 C2629 C 0.74111 0.24051 0.87171
 N2630 N 0.75609 0.25223 0.86457
 N2631 N 0.75578 0.25814 0.84696
 C2632 C 0.74058 0.25230 0.83584
 N2633 N 0.72565 0.24072 0.84307
 N2634 N 0.72586 0.23501 0.86063
 C2635 C 0.24875 0.70720 0.44544
 N2636 N 0.23247 0.69750 0.45262
 N2637 N 0.23411 0.68505 0.46690
 C2638 C 0.25214 0.68174 0.47440
 N2639 N 0.26828 0.69179 0.46745
 N2640 N 0.26662 0.70433 0.45333
 C2641 C 0.24761 0.71854 0.42808
 N2642 N 0.26379 0.72877 0.42137
 N2643 N 0.26362 0.73694 0.40458
 C2644 C 0.24730 0.73501 0.39381
 N2645 N 0.23104 0.72505 0.40064
 N2646 N 0.23117 0.71701 0.41745
 C2647 C 0.24759 0.74169 0.37445
 N2648 N 0.23361 0.73436 0.36283
 N2649 N 0.23414 0.73909 0.34505
 C2650 C 0.24857 0.75147 0.33808
 N2651 N 0.26252 0.75911 0.34970
 N2652 N 0.26212 0.75415 0.36758
 C2653 C 0.73791 0.81501 0.42091
 N2654 N 0.73215 0.80585 0.43690
 N2655 N 0.73638 0.81417 0.45314
 C2656 C 0.74672 0.83178 0.45391
 N2657 N 0.75232 0.84086 0.43792
 N2658 N 0.74791 0.83272 0.42179
 C2659 C 0.73433 0.80610 0.40272
 N2660 N 0.73726 0.81754 0.38747
 N2661 N 0.73583 0.80973 0.37077
 C2662 C 0.73154 0.79011 0.36854
 N2663 N 0.72837 0.77856 0.38378
 N2664 N 0.72970 0.78644 0.40060
 C2665 C 0.73186 0.78191 0.34977
 N2666 N 0.72973 0.76210 0.34635
 N2667 N 0.73178 0.75520 0.32922
 C2668 C 0.73610 0.76790 0.31500
 N2669 N 0.73793 0.78761 0.31851
 N2670 N 0.73583 0.79446 0.33548
 C2671 C 0.23820 0.31373 0.92232
 N2672 N 0.23265 0.30478 0.93846
 N2673 N 0.23716 0.31327 0.95456
 C2674 C 0.24757 0.33086 0.95503
 N2675 N 0.25298 0.33972 0.93888
 N2676 N 0.24829 0.33141 0.92289
 C2677 C 0.23419 0.30469 0.90425
 N2678 N 0.23662 0.31608 0.88890
 N2679 N 0.23478 0.30820 0.87227
 C2680 C 0.23056 0.28854 0.87019
 N2681 N 0.22789 0.27703 0.88554
 N2682 N 0.22963 0.28500 0.90230
 C2683 C 0.23045 0.28027 0.85144
 N2684 N 0.22857 0.26043 0.84809
 N2685 N 0.23036 0.25351 0.83094
 C2686 C 0.23415 0.26624 0.81662
 N2687 N 0.23569 0.28598 0.82006
 N2688 N 0.23386 0.29284 0.83705
 C2689 C 0.84685 0.45031 0.76739
 N2690 N 0.84923 0.46211 0.75219
 N2691 N 0.86176 0.47787 0.75233
 C2692 C 0.87237 0.48234 0.76769
 N2693 N 0.86974 0.47060 0.78285
 N2694 N 0.85727 0.45497 0.78273
 C2695 C 0.83387 0.43229 0.76739
 N2696 N 0.83230 0.42068 0.78275
 N2697 N 0.82120 0.40399 0.78283
 C2698 C 0.81122 0.39822 0.76751
 N2699 N 0.81271 0.40987 0.75215
 N2700 N 0.82382 0.42658 0.75207
 C2701 C 0.79937 0.37947 0.76732
 N2702 N 0.78981 0.37377 0.75178
 N2703 N 0.77946 0.35666 0.75128
 C2704 C 0.77820 0.34451 0.76628
 N2705 N 0.78769 0.35020 0.78192
 N2706 N 0.79809 0.36737 0.78242
 C2707 C 0.34970 0.95123 0.26840
 N2708 N 0.36032 0.95599 0.28360
 N2709 N 0.37258 0.97179 0.28359
 C2710 C 0.37479 0.98360 0.26843
 N2711 N 0.36398 0.97903 0.25321
 N2712 N 0.35166 0.96311 0.25320
 C2713 C 0.33698 0.93305 0.26854
 N2714 N 0.32668 0.92726 0.25338
 N2715 N 0.31582 0.91039 0.25358
 C2716 C 0.31484 0.89866 0.26891
 N2717 N 0.32506 0.90450 0.28406
 N2718 N 0.33591 0.92135 0.28387
 C2719 C 0.30331 0.87971 0.26886
 N2720 N 0.30270 0.86749 0.28388
 N2721 N 0.29265 0.85012 0.28350
 C2722 C 0.28284 0.84435 0.26806
 N2723 N 0.28342 0.85664 0.25313
 N2724 N 0.29343 0.87395 0.25351
 C2725 C 0.14902 0.93171 0.74577
 N2726 N 0.14189 0.94187 0.73107
 N2727 N 0.12935 0.95667 0.73353
 C2728 C 0.12337 0.96168 0.75074
 N2729 N 0.13062 0.95157 0.76536
 N2730 N 0.14327 0.93700 0.76293
 C2731 C 0.16208 0.91469 0.74354
 N2732 N 0.17173 0.90750 0.75840
 N2733 N 0.18258 0.89136 0.75707
 C2734 C 0.18410 0.88160 0.74088
 N2735 N 0.17453 0.88881 0.72591
 N2736 N 0.16376 0.90511 0.72720
 C2737 C 0.19525 0.86309 0.74018
 N2738 N 0.19417 0.85069 0.72549
 N2739 N 0.20333 0.83333 0.72580
 C2740 C 0.21394 0.82781 0.74078
 N2741 N 0.21516 0.84035 0.75530
 N2742 N 0.20599 0.85759 0.75502
 C2743 C 0.64897 0.43456 0.24449
 N2744 N 0.64241 0.43918 0.26157
 N2745 N 0.62973 0.45374 0.26397
 C2746 C 0.62324 0.46447 0.24942
 N2747 N 0.63003 0.46011 0.23230
 N2748 N 0.64261 0.44534 0.22986
 C2749 C 0.66217 0.41764 0.24228
 N2750 N 0.66535 0.40916 0.22562
 N2751 N 0.67633 0.39299 0.22426
 C2752 C 0.68458 0.38483 0.23950
 N2753 N 0.68154 0.39349 0.25604
 N2754 N 0.67051 0.40949 0.25741
 C2755 C 0.69603 0.36650 0.23868
 N2756 N 0.70495 0.35986 0.25414
 N2757 N 0.71447 0.34283 0.25417
 C2758 C 0.71544 0.33163 0.23876
 N2759 N 0.70664 0.33829 0.22315
 N2760 N 0.69711 0.35545 0.22311
 C2761 C 0.64644 0.56392 0.25258
 N2762 N 0.63234 0.56196 0.26585
 N2763 N 0.61941 0.54671 0.26575
 C2764 C 0.61994 0.53272 0.25239
 N2765 N 0.63405 0.53464 0.23901
 N2766 N 0.64705 0.55001 0.23909
 C2767 C 0.66051 0.58104 0.25309
 N2768 N 0.67414 0.58436 0.23951
 N2769 N 0.68636 0.60027 0.24001
 C2770 C 0.68547 0.61340 0.25412
 N2771 N 0.67195 0.60998 0.26774
 N2772 N 0.65973 0.59411 0.26722
 C2773 C 0.69815 0.63157 0.25414
 N2774 N 0.69695 0.64497 0.26801
 N2775 N 0.70739 0.66210 0.26731
 C2776 C 0.71944 0.66643 0.25270
 N2777 N 0.72080 0.65289 0.23900
 N2778 N 0.71042 0.63579 0.23972
 C2779 C 0.14534 0.06164 0.75406
 N2780 N 0.13162 0.05919 0.76763
 N2781 N 0.11899 0.04369 0.76761
 C2782 C 0.11945 0.02992 0.75404
 N2783 N 0.13319 0.03232 0.74039
 N2784 N 0.14589 0.04794 0.74039
 C2785 C 0.15904 0.07907 0.75440
 N2786 N 0.17229 0.08275 0.74057
 N2787 N 0.18420 0.09891 0.74092
 C2788 C 0.18335 0.11194 0.75511
 N2789 N 0.17020 0.10817 0.76896
 N2790 N 0.15829 0.09205 0.76861
 C2791 C 0.19576 0.13031 0.75501
 N2792 N 0.19466 0.14360 0.76898
 N2793 N 0.20497 0.16081 0.76826
 C2794 C 0.21677 0.16533 0.75353
 N2795 N 0.21801 0.15193 0.73970
 N2796 N 0.20776 0.13475 0.74044
 C2797 C 0.35672 0.08564 0.25115
 N2798 N 0.35713 0.06968 0.23977
 N2799 N 0.36785 0.05389 0.24411
 C2800 C 0.37854 0.05348 0.25996
 N2801 N 0.37798 0.06942 0.27126
 N2802 N 0.36730 0.08510 0.26698
 C2803 C 0.34522 0.10347 0.24690
 N2804 N 0.34500 0.11843 0.25928
 N2805 N 0.33478 0.13469 0.25606
 C2806 C 0.32434 0.13681 0.24028
 N2807 N 0.32454 0.12189 0.22774
 N2808 N 0.33482 0.10550 0.23099
 C2809 C 0.31261 0.15487 0.23777
 N2810 N 0.30251 0.15891 0.22203
 N2811 N 0.29158 0.17519 0.22072
 C2812 C 0.29035 0.18790 0.23515
 N2813 N 0.30057 0.18381 0.25070
 N2814 N 0.31149 0.16775 0.25196
 C2815 C 0.85658 0.58494 0.74996
 N2816 N 0.86744 0.58450 0.76562
 N2817 N 0.87768 0.56859 0.77013
 C2818 C 0.87751 0.55231 0.75922
 N2819 N 0.86655 0.55263 0.74352
 N2820 N 0.85626 0.56864 0.73897
 C2821 C 0.84557 0.60303 0.74542
 N2822 N 0.83451 0.60470 0.72987
 N2823 N 0.82462 0.62128 0.72640
 C2824 C 0.82550 0.63677 0.73834
 N2825 N 0.83662 0.63501 0.75375
 N2826 N 0.84645 0.61855 0.75720
 C2827 C 0.81415 0.65505 0.73563
 N2828 N 0.81421 0.66868 0.74926
 N2829 N 0.80349 0.68487 0.74793
 C2830 C 0.79231 0.68837 0.73283
 N2831 N 0.79239 0.67492 0.71892
 N2832 N 0.80312 0.65851 0.72031
 C2833 C 0.93758 0.74448 0.14806
 N2834 N 0.95167 0.73181 0.15360
 N2835 N 0.96919 0.73173 0.14516
 C2836 C 0.97326 0.74431 0.13089
 N2837 N 0.95901 0.75673 0.12509
 N2838 N 0.94144 0.75679 0.13353
 C2839 C 0.91917 0.74582 0.15850
 N2840 N 0.90504 0.75862 0.15326
 N2841 N 0.88868 0.76047 0.16335
 C2842 C 0.88601 0.74971 0.17908
 N2843 N 0.90013 0.73690 0.18430
 N2844 N 0.91645 0.73502 0.17419
 C2845 C 0.86789 0.75138 0.18990
 N2846 N 0.86536 0.74092 0.20581
 N2847 N 0.84831 0.74150 0.21508
 C2848 C 0.83327 0.75259 0.20874
 N2849 N 0.83593 0.76326 0.19296
 N2850 N 0.85297 0.76272 0.18372
 C2851 C 0.43169 0.24010 0.64416
 N2852 N 0.44724 0.22929 0.64973
 N2853 N 0.46381 0.22915 0.63974
 C2854 C 0.46540 0.23974 0.62382
 N2855 N 0.44965 0.25022 0.61804
 N2856 N 0.43307 0.25038 0.62804
 C2857 C 0.41427 0.24181 0.65596
 N2858 N 0.39948 0.25398 0.65107
 N2859 N 0.38400 0.25627 0.66218
 C2860 C 0.38284 0.24657 0.67860
 N2861 N 0.39761 0.23436 0.68350
 N2862 N 0.41313 0.23208 0.67239
 C2863 C 0.36542 0.24866 0.69034
 N2864 N 0.36325 0.23805 0.70622
 N2865 N 0.34656 0.23892 0.71606
 C2866 C 0.33158 0.25048 0.71032
 N2867 N 0.33396 0.26133 0.69463
 N2868 N 0.35059 0.26048 0.68483
 C2869 C 0.44203 0.74349 0.81400
 N2870 N 0.44765 0.76221 0.81889
 N2871 N 0.45962 0.76526 0.83314
 C2872 C 0.46652 0.74970 0.84292
 N2873 N 0.46147 0.73095 0.83767
 N2874 N 0.44927 0.72789 0.82354
 C2875 C 0.42572 0.74057 0.80106
 N2876 N 0.41396 0.72393 0.80221
 N2877 N 0.39671 0.72291 0.79337
 C2878 C 0.39073 0.73845 0.78298
 N2879 N 0.40284 0.75478 0.78127
 N2880 N 0.41999 0.75587 0.79025
 C2881 C 0.37040 0.73891 0.77616
 N2882 N 0.36495 0.75334 0.76424
 N2883 N 0.34597 0.75527 0.75977
 C2884 C 0.33177 0.74306 0.76736
 N2885 N 0.33724 0.72852 0.77916
 N2886 N 0.35623 0.72647 0.78347
 C2887 C 0.94312 0.24499 0.31864
 N2888 N 0.94535 0.26274 0.32712
 N2889 N 0.95697 0.26465 0.34174
 C2890 C 0.96703 0.24897 0.34831
 N2891 N 0.96541 0.23133 0.33937
 N2892 N 0.95337 0.22928 0.32495
 C2893 C 0.92730 0.24254 0.30519
 N2894 N 0.91528 0.22605 0.30565
 N2895 N 0.89798 0.22580 0.29687
 C2896 C 0.89222 0.24200 0.28726
 N2897 N 0.90462 0.25816 0.28620
 N2898 N 0.92177 0.25850 0.29515
 C2899 C 0.87198 0.24333 0.28039
 N2900 N 0.86707 0.25877 0.26939
 N2901 N 0.84829 0.26139 0.26470
 C2902 C 0.83368 0.24891 0.27114
 N2903 N 0.83857 0.23339 0.28209
 N2904 N 0.85741 0.23067 0.28667
 C2905 C 0.06539 0.24204 0.35074
 N2906 N 0.06314 0.25591 0.36398
 N2907 N 0.04571 0.25789 0.37232
 C2908 C 0.02990 0.24609 0.36771
 N2909 N 0.03221 0.23205 0.35462
 N2910 N 0.04966 0.23007 0.34626
 C2911 C 0.08412 0.24106 0.34064
 N2912 N 0.08625 0.22805 0.32663
 N2913 N 0.10287 0.22823 0.31663
 C2914 C 0.11786 0.24145 0.32031
 N2915 N 0.11579 0.25429 0.33444
 N2916 N 0.09920 0.25410 0.34443
 C2917 C 0.13562 0.24261 0.30872
 N2918 N 0.14971 0.25698 0.31167
 N2919 N 0.16558 0.25864 0.30077
 C2920 C 0.16791 0.24599 0.28652
 N2921 N 0.15386 0.23155 0.28360
 N2922 N 0.13794 0.22992 0.29449
 C2923 C 0.56671 0.74517 0.84799
 N2924 N 0.55136 0.73256 0.84389
 N2925 N 0.53365 0.73474 0.85169
 C2926 C 0.53068 0.74964 0.86379
 N2927 N 0.54611 0.76212 0.86800
 N2928 N 0.56380 0.75994 0.86023
 C2929 C 0.58577 0.74375 0.83853
 N2930 N 0.60064 0.75714 0.84201
 N2931 N 0.61753 0.75683 0.83250
 C2932 C 0.62013 0.74312 0.81919
 N2933 N 0.60535 0.72955 0.81584
 N2934 N 0.58844 0.72987 0.82536
 C2935 C 0.63813 0.74377 0.80792
 N2936 N 0.64065 0.73053 0.79416
 N2937 N 0.65664 0.73183 0.78334
 C2938 C 0.67058 0.74646 0.78588
 N2939 N 0.66809 0.75962 0.79970
 N2940 N 0.65214 0.75831 0.81052
 C2941 C 0.54670 0.26228 0.67584
 N2942 N 0.53782 0.24443 0.67223
 N2943 N 0.52717 0.24186 0.65704
 C2944 C 0.52526 0.25696 0.64478
 N2945 N 0.53370 0.27498 0.64861
 N2946 N 0.54423 0.27760 0.66390
 C2947 C 0.56175 0.26382 0.69013
 N2948 N 0.57001 0.28174 0.69458
 N2949 N 0.58637 0.28283 0.70476
 C2950 C 0.59513 0.26602 0.71058
 N2951 N 0.58657 0.24814 0.70655
 N2952 N 0.57011 0.24706 0.69657
 C2953 C 0.61489 0.26700 0.71858
 N2954 N 0.62715 0.25153 0.71645
 N2955 N 0.64588 0.25291 0.72204
 C2956 C 0.65295 0.26978 0.73003
 N2957 N 0.64063 0.28518 0.73240
 N2958 N 0.62196 0.28390 0.72655
 C2959 C 0.04936 0.74975 0.19188
 N2960 N 0.04326 0.73257 0.18376
 N2961 N 0.03409 0.73291 0.16758
 C2962 C 0.03111 0.75043 0.15883
 N2963 N 0.03659 0.76762 0.16722
 N2964 N 0.04552 0.76728 0.18349
 C2965 C 0.06416 0.74943 0.20641
 N2966 N 0.06991 0.76665 0.21465
 N2967 N 0.08700 0.76796 0.22369
 C2968 C 0.09903 0.75218 0.22456
 N2969 N 0.09287 0.73470 0.21705
 N2970 N 0.07569 0.73334 0.20817
 C2971 C 0.11958 0.75501 0.23029
 N2972 N 0.13351 0.74232 0.22441
 N2973 N 0.15265 0.74611 0.22757
 C2974 C 0.15849 0.76279 0.23663
 N2975 N 0.14454 0.77537 0.24270
 N2976 N 0.12542 0.77168 0.23937
   
