data_POSCAR
  _audit_creation_date              2014-09-24
  _audit_creation_method            'ToBaCCo'
  _symmetry_space_group_name_H-M    'P1'
  _symmetry_Int_Tables_number       1
  _symmetry_cell_setting            triclinic
  loop_
  _symmetry_equiv_pos_as_xyz
 x,y,z
_cell_length_a 55.5856
_cell_length_b 53.1683
_cell_length_c 58.1963
_cell_angle_alpha 89.920800
_cell_angle_beta 90.963900
_cell_angle_gamma 89.836100
loop_
  _atom_site_label
  _atom_site_type_symbol
  _atom_site_fract_x
  _atom_site_fract_y
  _atom_site_fract_z
C1 C 0.42355 0.01263 0.28333
 C2 C 0.40378 0.03263 0.27931
 C3 C 0.38992 0.02881 0.26004
 C4 C 0.39677 0.00493 0.24659
 C5 C 0.40958 -0.01208 0.28353
 C6 C 0.39582 -0.01669 0.26447
 C7 C 0.43754 0.01224 0.26092
 C8 C 0.42378 0.00849 0.24164
 H9 H 0.40084 0.04866 0.29029
 H10 H 0.38538 0.00185 0.23101
 H11 H 0.40964 -0.02430 0.29844
 H12 H 0.45680 0.01518 0.26046
 C13 C 0.07633 0.00409 0.77206
 C14 C 0.09507 -0.01726 0.77169
 C15 C 0.11035 -0.01616 0.75364
 C16 C 0.10580 0.00672 0.73776
 C17 C 0.09188 0.02777 0.77201
 C18 C 0.10705 0.02976 0.75403
 C19 C 0.06451 0.00343 0.74970
 C20 C 0.08038 0.00452 0.73048
 H21 H 0.09610 -0.03218 0.78433
 H22 H 0.11913 0.00749 0.72392
 H23 H 0.09244 0.04080 0.78628
 H24 H 0.04510 0.00328 0.74807
 C25 C 0.58080 0.50300 0.27630
 C26 C 0.59894 0.48140 0.27428
 C27 C 0.61234 0.48197 0.25496
 C28 C 0.60644 0.50443 0.23908
 C29 C 0.59565 0.52689 0.27347
 C30 C 0.60924 0.52792 0.25440
 C31 C 0.56559 0.50144 0.25396
 C32 C 0.57903 0.50232 0.23448
 H33 H 0.60009 0.46614 0.28661
 H34 H 0.61740 0.50492 0.22331
 H35 H 0.59616 0.54144 0.28650
 H36 H 0.54617 0.50053 0.25332
 C37 C 0.92420 0.51229 0.78758
 C38 C 0.90440 0.53189 0.78214
 C39 C 0.89166 0.52730 0.76233
 C40 C 0.89949 0.50315 0.74984
 C41 C 0.91059 0.48734 0.78768
 C42 C 0.89782 0.48204 0.76814
 C43 C 0.93936 0.51157 0.76587
 C44 C 0.92667 0.50700 0.74613
 H45 H 0.90084 0.54839 0.79234
 H46 H 0.88905 0.49948 0.73376
 H47 H 0.91007 0.47554 0.80285
 H48 H 0.95855 0.51507 0.76616
 C49 C 0.27669 0.37171 1.00069
 C50 C 0.27515 0.34936 1.01734
 C51 C 0.25443 0.33588 1.01556
 C52 C 0.23707 0.34538 0.99656
 C53 C 0.27282 0.35943 0.97696
 C54 C 0.25218 0.34588 0.97474
 C55 C 0.25349 0.38689 1.00464
 C56 C 0.23278 0.37326 1.00223
 H57 H 0.28883 0.34500 1.03018
 H58 H 0.22032 0.33414 0.99482
 H59 H 0.28560 0.36058 0.96317
 H60 H 0.25350 0.40688 1.00818
 C61 C 0.77059 0.12872 1.00306
 C62 C 0.77100 0.14839 0.98386
 C63 C 0.75094 0.16291 0.98199
 C64 C 0.73200 0.15683 1.00046
 C65 C 0.76592 0.14444 1.02490
 C66 C 0.74574 0.15911 1.02353
 C67 C 0.74840 0.11474 0.99917
 C68 C 0.72682 0.12983 0.99854
 H69 H 0.78568 0.14984 0.97193
 H70 H 0.71609 0.16939 0.99901
 H71 H 0.77634 0.14320 1.04068
 H72 H 0.74809 0.09446 1.00079
 C73 C 0.27443 0.63169 0.50352
 C74 C 0.27166 0.64608 0.48083
 C75 C 0.25159 0.66050 0.47885
 C76 C 0.23477 0.65810 0.49954
 C77 C 0.27138 0.65167 0.52229
 C78 C 0.25060 0.66524 0.52038
 C79 C 0.25124 0.61589 0.50465
 C80 C 0.23049 0.62966 0.50281
 H81 H 0.28488 0.64520 0.46738
 H82 H 0.21805 0.66952 0.49802
 H83 H 0.28312 0.65275 0.53730
 H84 H 0.25093 0.59575 0.50705
 C85 C 0.78155 0.87333 0.49804
 C86 C 0.78027 0.85168 0.51547
 C87 C 0.75956 0.83812 0.51441
 C88 C 0.74192 0.84683 0.49531
 C89 C 0.77736 0.86008 0.47478
 C90 C 0.75671 0.84646 0.47330
 C91 C 0.75837 0.88866 0.50176
 C92 C 0.73764 0.87493 0.50005
 H93 H 0.79415 0.84790 0.52828
 H94 H 0.72518 0.83550 0.49415
 H95 H 0.78982 0.86072 0.46071
 H96 H 0.75839 0.90881 0.50446
 C97 C -0.01812 0.28165 0.37991
 C98 C 0.00768 0.28046 0.37115
 C99 C 0.01188 0.26080 0.35689
 C100 C -0.01014 0.24403 0.35272
 C101 C -0.03327 0.28161 0.35937
 C102 C -0.02886 0.26098 0.34431
 C103 C -0.02236 0.25584 0.39103
 C104 C -0.01760 0.23611 0.37690
 H105 H 0.02102 0.29469 0.37516
 H106 H -0.00654 0.22787 0.34127
 H107 H -0.04948 0.29280 0.35759
 H108 H -0.02651 0.25343 0.40901
 C109 C 0.00744 0.75768 0.09769
 C110 C -0.01781 0.76151 0.10767
 C111 C -0.02123 0.74929 0.12791
 C112 C 0.00076 0.73447 0.13645
 C113 C 0.02426 0.76626 0.11742
 C114 C 0.02091 0.75380 0.13744
 C115 C 0.01074 0.72919 0.09629
 C116 C 0.00710 0.71728 0.11657
 H117 H -0.03144 0.77350 0.09992
 H118 H -0.00151 0.72444 0.15300
 H119 H 0.03853 0.77987 0.11558
 H120 H 0.01402 0.71923 0.08041
 C121 C 0.50695 0.26294 0.59920
 C122 C 0.48211 0.26609 0.61012
 C123 C 0.47939 0.25266 0.62984
 C124 C 0.50161 0.23728 0.63689
 C125 C 0.52445 0.27029 0.61880
 C126 C 0.52186 0.25652 0.63822
 C127 C 0.51022 0.23463 0.59621
 C128 C 0.50726 0.22142 0.61592
 H129 H 0.46831 0.27865 0.60349
 H130 H 0.49986 0.22621 0.65296
 H131 H 0.53877 0.28389 0.61710
 H132 H 0.51357 0.22575 0.57982
 C133 C 0.48600 0.77729 0.87823
 C134 C 0.51188 0.77612 0.86956
 C135 C 0.51650 0.75581 0.85617
 C136 C 0.49485 0.73844 0.85276
 C137 C 0.47027 0.77600 0.85634
 C138 C 0.47507 0.75566 0.84305
 C139 C 0.48194 0.75336 0.88958
 C140 C 0.48747 0.73181 0.87588
 H141 H 0.52491 0.79085 0.87283
 H142 H 0.49796 0.72222 0.84126
 H143 H 0.45464 0.78764 0.85294
 H144 H 0.47749 0.75220 0.90757
 C145 C -0.23871 0.66006 0.97034
 C146 C -0.21929 0.63968 0.97431
 C147 C -0.22251 0.62543 0.99356
 C148 C -0.24522 0.63259 1.00703
 C149 C -0.26223 0.64534 0.97019
 C150 C -0.26629 0.63132 0.98926
 C151 C -0.23868 0.67502 0.99280
 C152 C -0.24183 0.66089 1.01205
 H153 H -0.20342 0.63751 0.96406
 H154 H -0.24779 0.62086 1.02257
 H155 H -0.27425 0.64536 0.95535
 H156 H -0.23588 0.69516 0.99328
 C157 C -0.24531 0.33948 0.47390
 C158 C -0.26764 0.35649 0.47495
 C159 C -0.26837 0.37173 0.49367
 C160 C -0.24625 0.36872 0.50979
 C161 C -0.22388 0.35732 0.47615
 C162 C -0.22434 0.37317 0.49429
 C163 C -0.24525 0.32570 0.49567
 C164 C -0.24568 0.34170 0.51585
 H165 H -0.28233 0.35536 0.46252
 H166 H -0.24715 0.38232 0.52408
 H167 H -0.20906 0.35687 0.46428
 H168 H -0.24396 0.30548 0.49660
 C169 C 0.25088 -0.16203 -0.02685
 C170 C 0.23030 -0.14267 -0.02605
 C171 C 0.23118 -0.12710 -0.00744
 C172 C 0.25328 -0.13199 0.00861
 C173 C 0.27337 -0.14563 -0.02590
 C174 C 0.27546 -0.13037 -0.00727
 C175 C 0.25034 -0.17488 -0.00486
 C176 C 0.25133 -0.15874 0.01497
 H177 H 0.21567 -0.14166 -0.03846
 H178 H 0.25398 -0.11842 0.02299
 H179 H 0.28639 -0.14566 -0.03955
 H180 H 0.25022 -0.19519 -0.00387
 C181 C 0.26419 1.16470 0.47027
 C182 C 0.28408 1.14465 0.47325
 C183 C 0.28148 1.12948 0.49202
 C184 C 0.25882 1.13550 0.50606
 C185 C 0.24102 1.14942 0.46990
 C186 C 0.23753 1.13454 0.48851
 C187 C 0.26422 1.17868 0.49324
 C188 C 0.26170 1.16367 0.51205
 H189 H 0.29975 1.14325 0.46261
 H190 H 0.25667 1.12301 0.52116
 H191 H 0.22869 1.14982 0.45528
 H192 H 0.26651 1.19886 0.49437
 C193 C 0.11439 0.53016 0.25744
 C194 C 0.09464 0.52540 0.23929
 C195 C 0.08095 0.50470 0.24310
 C196 C 0.08838 0.49003 0.26499
 C197 C 0.10114 0.53046 0.28029
 C198 C 0.08735 0.50980 0.28436
 C199 C 0.12883 0.50531 0.25776
 C200 C 0.11532 0.48435 0.26178
 H201 H 0.09276 0.53657 0.22377
 H202 H 0.07725 0.47307 0.26801
 H203 H 0.10242 0.54613 0.29212
 H204 H 0.14750 0.50387 0.25300
 C205 C -0.11037 1.02255 0.24225
 C206 C -0.09041 1.02306 0.26064
 C207 C -0.07759 1.00138 0.26261
 C208 C -0.08564 0.98085 0.24532
 C209 C -0.09687 1.01564 0.22013
 C210 C -0.08395 0.99385 0.22184
 C211 C -0.12468 1.00056 0.24751
 C212 C -0.11154 0.97728 0.24848
 H213 H -0.08694 1.03920 0.27152
 H214 H -0.07455 0.96354 0.24690
 H215 H -0.09698 1.02681 0.20459
 H216 H -0.14414 1.00136 0.24656
 C217 C 0.39106 0.52578 -0.25380
 C218 C 0.41009 0.52381 -0.23443
 C219 C 0.42288 0.50205 -0.23413
 C220 C 0.41549 0.48353 -0.25328
 C221 C 0.40511 0.52067 -0.27586
 C222 C 0.41784 0.49871 -0.27556
 C223 C 0.37560 0.50212 -0.25078
 C224 C 0.38810 0.47997 -0.25096
 H225 H 0.41280 0.53740 -0.22093
 H226 H 0.42599 0.46573 -0.25301
 H227 H 0.40404 0.53274 -0.29086
 H228 H 0.35613 0.50285 -0.25076
 C229 C 0.61802 0.02801 -0.24666
 C230 C 0.59838 0.02343 -0.26495
 C231 C 0.58442 0.00299 -0.26113
 C232 C 0.59150 -0.01178 -0.23925
 C233 C 0.60458 0.02851 -0.22391
 C234 C 0.59053 0.00801 -0.21992
 C235 C 0.63221 0.00301 -0.24616
 C236 C 0.61844 -0.01778 -0.24219
 H237 H 0.59646 0.03472 -0.28040
 H238 H 0.58009 -0.02857 -0.23640
 H239 H 0.60601 0.04413 -0.21204
 H240 H 0.65113 0.00149 -0.24999
 C241 C 0.02645 0.23293 0.85360
 C242 C 0.02829 0.26021 0.86184
 C243 C 0.01056 0.26736 0.87619
 C244 C -0.00774 0.24646 0.88086
 C245 C 0.02543 0.21734 0.87585
 C246 C 0.00756 0.22461 0.89004
 C247 C 0.00256 0.23065 0.84348
 C248 C -0.01657 0.23815 0.85831
 H249 H 0.04276 0.27260 0.85689
 H250 H -0.02146 0.25165 0.89355
 H251 H 0.03512 0.20001 0.87898
 H252 H -0.00009 0.22516 0.82573
 C253 C 0.50951 0.26249 0.17240
 C254 C 0.51447 0.23731 0.16025
 C255 C 0.50050 0.23333 0.14122
 C256 C 0.48275 0.25462 0.13601
 C257 C 0.51278 0.28202 0.15311
 C258 C 0.49856 0.27782 0.13435
 C259 C 0.48259 0.26251 0.17710
 C260 C 0.46883 0.25829 0.15803
 H261 H 0.52919 0.22490 0.16511
 H262 H 0.47093 0.25153 0.12071
 H263 H 0.52538 0.29745 0.15357
 H264 H 0.47510 0.26588 0.19389
 C265 C 0.01106 0.77342 0.66610
 C266 C 0.01520 0.74639 0.65735
 C267 C 0.00090 0.73996 0.63916
 C268 C -0.01643 0.76074 0.63145
 C269 C 0.01450 0.78959 0.64441
 C270 C -0.00006 0.78285 0.62652
 C271 C -0.01575 0.77504 0.67107
 C272 C -0.02992 0.76832 0.65291
 H273 H 0.02999 0.73461 0.66326
 H274 H -0.02850 0.75554 0.61681
 H275 H 0.02741 0.80458 0.64269
 H276 H -0.02283 0.78075 0.68749
 C277 C 0.52585 0.73180 0.35112
 C278 C 0.52669 0.75905 0.35981
 C279 C 0.50833 0.76535 0.37378
 C280 C 0.49064 0.74388 0.37790
 C281 C 0.52490 0.71613 0.37334
 C282 C 0.50644 0.72253 0.38720
 C283 C 0.50095 0.72890 0.33994
 C284 C 0.48260 0.73534 0.35390
 H285 H 0.54178 0.77144 0.35685
 H286 H 0.47547 0.74878 0.38923
 H287 H 0.53736 0.70135 0.37811
 H288 H 0.49822 0.72318 0.32223
 Zr289 Zr 0.01995 -0.03003 1.02752
 O290 O 0.04407 -0.02141 1.05493
 O291 O 0.01814 -0.06938 1.02967
 O292 O 0.00519 -0.03723 1.06031
 O293 O 0.06296 -0.02843 0.98521
 O294 O -0.03206 -0.01912 1.05783
 O295 O 0.05561 -0.04262 1.02138
 O296 O -0.00996 -0.08003 1.00238
 O297 O -0.01679 -0.03626 1.02087
 O298 O 0.01690 -0.04127 0.99319
 O299 O 0.00262 0.00444 1.03412
 O300 O 0.03540 -0.00078 1.00811
 Zr301 Zr -0.02343 0.01657 0.97206
 Zr302 Zr -0.03374 -0.00143 1.02572
 Zr303 Zr 0.03039 -0.01186 0.97383
 Zr304 Zr -0.01969 -0.04614 0.98630
 O305 O 0.05883 0.01279 0.96566
 O306 O -0.05171 -0.06237 0.99884
 O307 O -0.00599 -0.01787 0.96530
 O308 O -0.03851 -0.01255 0.99152
 O309 O -0.02042 0.02834 1.00627
 O310 O 0.01328 0.02265 0.97861
 C311 C 0.00541 -0.08548 1.01834
 C312 C 0.06941 -0.03982 1.00390
 C313 C -0.01553 -0.03156 1.06860
 O314 O -0.06561 -0.02251 1.02996
 O315 O -0.06379 0.02098 1.01676
 O316 O -0.05757 0.03220 0.97953
 C317 C -0.07013 0.03223 0.99799
 O318 O 0.04297 0.03406 1.03967
 Zr319 Zr 0.01626 0.03284 1.01312
 O320 O -0.02070 0.05569 0.96881
 O321 O -0.03874 0.02579 1.05173
 O322 O 0.00312 0.05628 1.03960
 O323 O 0.04745 0.05081 1.00062
 O324 O 0.00490 0.06689 0.99806
 C325 C -0.00918 0.07205 0.98094
 O326 O -0.04991 0.00867 0.94648
 O327 O 0.03974 -0.04167 0.95153
 O328 O -0.01094 0.01927 0.93788
 O329 O 0.02451 -0.00257 0.93924
 O330 O -0.00664 -0.07073 0.96065
 O331 O -0.04408 -0.04776 0.95782
 C332 C 0.00744 0.00897 0.92840
 H333 H 0.02615 -0.05671 0.98977
 H334 H -0.05575 -0.01488 0.98753
 H335 H 0.02005 0.03555 0.96829
 H336 H 0.00477 0.00930 1.05044
 H337 H -0.05246 -0.07992 0.99317
 H338 H -0.07436 -0.01480 1.04290
 H339 H -0.05430 0.02197 1.05902
 H340 H 0.01176 0.07252 1.03874
 H341 H -0.01575 -0.08668 0.96171
 H342 H 0.05486 -0.03684 0.94390
 H343 H 0.06783 0.00469 0.95310
 H344 H 0.04758 0.06820 1.00671
 H345 H -0.05111 -0.06483 0.95682
 H346 H -0.05415 0.02479 0.93877
 H347 H 0.04890 -0.03756 1.06227
 H348 H 0.04717 0.05179 1.04301
 Zr349 Zr 0.52290 0.47462 0.53085
 O350 O 0.54583 0.48153 0.55957
 O351 O 0.52105 0.43522 0.53085
 O352 O 0.50667 0.46578 0.56270
 O353 O 0.56795 0.47892 0.49071
 O354 O 0.46909 0.48288 0.55897
 O355 O 0.55881 0.46210 0.52551
 O356 O 0.49521 0.42604 0.50114
 O357 O 0.48680 0.46797 0.52155
 O358 O 0.52224 0.46600 0.49579
 O359 O 0.50430 0.50811 0.53843
 O360 O 0.53891 0.50570 0.51442
 Zr361 Zr 0.48215 0.52433 0.47592
 Zr362 Zr 0.46869 0.50188 0.52749
 Zr363 Zr 0.53636 0.49717 0.47932
 Zr364 Zr 0.48638 0.46085 0.48627
 O365 O 0.56589 0.52188 0.47610
 O366 O 0.45364 0.44321 0.49515
 O367 O 0.50085 0.49097 0.46789
 O368 O 0.46644 0.49345 0.49245
 O369 O 0.48252 0.53348 0.51088
 O370 O 0.51816 0.53074 0.48527
 C371 C 0.50926 0.41978 0.51794
 C372 C 0.57331 0.46578 0.50868
 C373 C 0.48544 0.47075 0.57026
 O374 O 0.43777 0.47883 0.52892
 O375 O 0.43809 0.52289 0.51762
 O376 O 0.44765 0.53932 0.48274
 C377 C 0.43336 0.53650 0.49982
 O378 O 0.54298 0.53847 0.54882
 Zr379 Zr 0.51858 0.53845 0.52030
 O380 O 0.48428 0.56357 0.47522
 O381 O 0.46064 0.52753 0.55407
 O382 O 0.50243 0.55965 0.54679
 O383 O 0.55050 0.55766 0.51141
 O384 O 0.50821 0.57346 0.50615
 C385 C 0.49497 0.57935 0.48860
 O386 O 0.45741 0.51771 0.44853
 O387 O 0.54625 0.47012 0.45450
 O388 O 0.49689 0.53039 0.44294
 O389 O 0.53411 0.51233 0.44623
 O390 O 0.50182 0.43804 0.46049
 O391 O 0.46447 0.46118 0.45597
 C392 C 0.51751 0.52400 0.43485
 H393 H 0.53181 0.45090 0.49193
 H394 H 0.44957 0.49103 0.48722
 H395 H 0.52550 0.54458 0.47643
 H396 H 0.50526 0.51196 0.55505
 H397 H 0.45368 0.42616 0.48829
 H398 H 0.42776 0.48538 0.54153
 H399 H 0.44483 0.52256 0.56024
 H400 H 0.51063 0.57616 0.54750
 H401 H 0.49269 0.42205 0.45990
 H402 H 0.56198 0.47539 0.44835
 H403 H 0.57586 0.51524 0.46351
 H404 H 0.54987 0.57458 0.51850
 H405 H 0.45777 0.44417 0.45333
 H406 H 0.45324 0.53429 0.44166
 H407 H 0.55031 0.46495 0.56626
 H408 H 0.54608 0.55601 0.55370
 Zr409 Zr 0.47715 1.00120 0.54375
 O410 O 0.44880 0.98452 0.56214
 O411 O 0.48209 1.03496 0.56165
 O412 O 0.48818 0.99373 0.57813
 O413 O 0.44151 1.02264 0.49859
 O414 O 0.52259 0.97057 0.57459
 O415 O 0.44375 1.02040 0.53768
 O416 O 0.51676 1.04982 0.54627
 O417 O 0.51474 1.00463 0.54439
 O418 O 0.48604 1.02565 0.51704
 O419 O 0.49117 0.96454 0.54013
 O420 O 0.46323 0.98432 0.51358
 Zr421 Zr 0.52528 0.97557 0.48218
 Zr422 Zr 0.52864 0.96864 0.53910
 Zr423 Zr 0.47414 1.00812 0.48698
 Zr424 Zr 0.52339 1.02793 0.51704
 O425 O 0.44499 0.99336 0.46742
 O426 O 0.55629 1.03399 0.53518
 O427 O 0.51155 1.01249 0.48570
 O428 O 0.53886 0.99252 0.51236
 O429 O 0.51671 0.95091 0.50899
 O430 O 0.48778 0.97208 0.48173
 C431 C 0.49991 1.05026 0.56114
 C432 C 0.43270 1.02624 0.51859
 C433 C 0.50645 0.98159 0.58661
 O434 O 0.55951 0.98314 0.55620
 O435 O 0.55993 0.95102 0.52707
 O436 O 0.55780 0.95504 0.48803
 C437 C 0.56857 0.94800 0.50686
 O438 O 0.44869 0.94030 0.52924
 Zr439 Zr 0.47918 0.94884 0.50912
 O440 O 0.52084 0.94117 0.46519
 O441 O 0.52897 0.93152 0.55219
 O442 O 0.48679 0.91483 0.52693
 O443 O 0.44918 0.94098 0.48731
 O444 O 0.49058 0.92240 0.48483
 C445 C 0.50662 0.92272 0.46916
 O446 O 0.55463 0.99121 0.46442
 O447 O 0.47173 1.04603 0.47597
 O448 O 0.51581 0.98581 0.44782
 O449 O 0.48285 1.01093 0.45226
 O450 O 0.51393 1.06400 0.50410
 O451 O 0.54966 1.03929 0.49305
 C452 C 0.49902 1.00050 0.43994
 H453 H 0.47857 1.04244 0.51886
 H454 H 0.55653 0.99458 0.51175
 H455 H 0.48143 0.96508 0.46709
 H456 H 0.48633 0.95364 0.55306
 H457 H 0.55867 1.05242 0.53643
 H458 H 0.56618 0.96944 0.56600
 H459 H 0.54320 0.93021 0.56261
 H460 H 0.47759 0.90125 0.51916
 H461 H 0.52362 1.07645 0.51286
 H462 H 0.45752 1.04726 0.46551
 H463 H 0.43854 1.00728 0.45777
 H464 H 0.44722 0.92247 0.48683
 H465 H 0.55640 1.05578 0.49765
 H466 H 0.55910 0.97905 0.45228
 H467 H 0.44408 0.99671 0.57415
 H468 H 0.44332 0.92292 0.52594
 Zr469 Zr -0.02783 0.49769 1.04952
 O470 O -0.05622 0.47970 1.06681
 O471 O -0.02365 0.53061 1.06882
 O472 O -0.01698 0.48919 1.08374
 O473 O -0.06252 0.52164 1.00475
 O474 O 0.01718 0.46568 1.07983
 O475 O -0.06129 0.51685 1.04369
 O476 O 0.01206 0.54544 1.05569
 O477 O 0.00974 0.50092 1.05104
 O478 O -0.01834 0.52370 1.02427
 O479 O -0.01385 0.46123 1.04443
 O480 O -0.04110 0.48267 1.01829
 Zr481 Zr 0.02155 0.47567 0.98787
 Zr482 Zr 0.02367 0.46525 1.04435
 Zr483 Zr -0.02957 0.50801 0.99314
 Zr484 Zr 0.01904 0.52584 1.02518
 O485 O -0.05838 0.49476 0.97221
 O486 O 0.05175 0.53089 1.04391
 O487 O 0.00788 0.51238 0.99285
 O488 O 0.03455 0.49070 1.01909
 O489 O 0.01234 0.44939 1.01315
 O490 O -0.01594 0.47231 0.98648
 C491 C -0.00550 0.54547 1.06982
 C492 C -0.07190 0.52373 1.02468
 C493 C 0.00119 0.47674 1.09201
 O494 O 0.05445 0.47844 1.06249
 O495 O 0.05505 0.44806 1.03197
 O496 O 0.05381 0.45470 0.99321
 C497 C 0.06409 0.44630 1.01179
 O498 O -0.05567 0.43717 1.03188
 Zr499 Zr -0.02520 0.44741 1.01240
 O500 O 0.01779 0.44218 0.96942
 O501 O 0.02338 0.42752 1.05587
 O502 O -0.01726 0.41221 1.02796
 O503 O -0.05541 0.44144 0.99034
 O504 O -0.01428 0.42309 0.98604
 C505 C 0.00263 0.42413 0.97125
 O506 O 0.05121 0.49251 0.97155
 O507 O -0.03146 0.54655 0.98408
 O508 O 0.01264 0.48736 0.95380
 O509 O -0.02021 0.51253 0.95870
 O510 O 0.00981 0.56278 1.01434
 O511 O 0.04568 0.53861 1.00216
 C512 C -0.00402 0.50238 0.94619
 H513 H -0.02587 0.54035 1.02676
 H514 H 0.05224 0.49270 1.01893
 H515 H -0.02208 0.46625 0.97142
 H516 H -0.01894 0.44966 1.05677
 H517 H 0.05402 0.54921 1.04618
 H518 H 0.06081 0.46417 1.07177
 H519 H 0.03745 0.42554 1.06641
 H520 H -0.02622 0.39916 1.01922
 H521 H 0.01936 0.57453 1.02400
 H522 H -0.04544 0.54851 0.97343
 H523 H -0.06455 0.50933 0.96322
 H524 H -0.05756 0.42302 0.98870
 H525 H 0.05216 0.55495 1.00754
 H526 H 0.05601 0.48113 0.95891
 H527 H -0.06123 0.49122 1.07925
 H528 H -0.06067 0.41987 1.02776
 Zr529 Zr -0.02398 0.49438 0.48054
 O530 O -0.05019 0.50974 0.45770
 O531 O -0.02090 0.45771 0.46836
 O532 O -0.01085 0.49580 0.44645
 O533 O -0.06296 0.48086 0.52470
 O534 O 0.02504 0.51635 0.45036
 O535 O -0.05851 0.47818 0.48593
 O536 O 0.00921 0.44065 0.49053
 O537 O 0.01320 0.48809 0.48346
 O538 O -0.01810 0.47389 0.51081
 O539 O -0.00810 0.53027 0.48095
 O540 O -0.03860 0.51654 0.50698
 Zr541 Zr 0.02206 0.52553 0.54263
 Zr542 Zr 0.02882 0.52378 0.48568
 Zr543 Zr -0.03073 0.49636 0.53717
 Zr544 Zr 0.01888 0.46882 0.51430
 O545 O -0.06034 0.51600 0.55098
 O546 O 0.05061 0.45808 0.49708
 O547 O 0.00617 0.48951 0.54234
 O548 O 0.03630 0.50362 0.51595
 O549 O 0.01642 0.54639 0.51237
 O550 O -0.01505 0.53177 0.53932
 C551 C -0.00672 0.43963 0.47425
 C552 C -0.07056 0.47469 0.50452
 C553 C 0.00862 0.50529 0.43831
 O554 O 0.06059 0.50575 0.47470
 O555 O 0.05857 0.54429 0.49797
 O556 O 0.05541 0.54396 0.53704
 C557 C 0.06622 0.54994 0.51829
 O558 O -0.04941 0.55891 0.48518
 Zr559 Zr -0.02064 0.55126 0.50870
 O560 O 0.01877 0.56206 0.55530
 O561 O 0.03144 0.55770 0.46680
 O562 O -0.00972 0.58162 0.48766
 O563 O -0.05104 0.56447 0.52668
 O564 O -0.00846 0.58023 0.53057
 C565 C 0.00636 0.58084 0.54780
 O566 O 0.04974 0.51073 0.56414
 O567 O -0.03583 0.46107 0.55327
 O568 O 0.01036 0.52068 0.57710
 O569 O -0.02473 0.49901 0.57254
 O570 O 0.00802 0.43692 0.53338
 O571 O 0.04507 0.46009 0.54014
 C572 C -0.00827 0.50921 0.58507
 H573 H -0.02648 0.45749 0.51091
 H574 H 0.05382 0.50098 0.51823
 H575 H -0.02170 0.54128 0.55239
 H576 H -0.01157 0.53935 0.46640
 H577 H 0.05204 0.43954 0.49822
 H578 H 0.06836 0.51734 0.46375
 H579 H 0.04654 0.55676 0.45802
 H580 H -0.01827 0.59689 0.49293
 H581 H 0.01737 0.42229 0.52785
 H582 H -0.05072 0.46236 0.56233
 H583 H -0.06823 0.50437 0.56182
 H584 H -0.05160 0.58300 0.52488
 H585 H 0.05216 0.44336 0.53700
 H586 H 0.05434 0.52420 0.57514
 H587 H -0.05514 0.49605 0.44709
 H588 H -0.05362 0.57700 0.48583
 Zr589 Zr 0.47508 -0.00679 -0.02620
 O590 O 0.45057 0.00895 -0.05048
 O591 O 0.47750 -0.04404 -0.03730
 O592 O 0.48992 -0.00662 -0.05957
 O593 O 0.43175 -0.01576 0.01537
 O594 O 0.52661 0.01191 -0.05411
 O595 O 0.44025 -0.02243 -0.02238
 O596 O 0.50459 -0.06173 -0.01222
 O597 O 0.51158 -0.01524 -0.02072
 O598 O 0.47762 -0.02610 0.00505
 O599 O 0.49286 0.02813 -0.02585
 O600 O 0.45977 0.01755 -0.00174
 Zr601 Zr 0.51840 0.02447 0.03738
 Zr602 Zr 0.52898 0.01952 -0.01872
 Zr603 Zr 0.46414 -0.00167 0.02952
 Zr604 Zr 0.51393 -0.03318 0.01115
 O605 O 0.43488 0.02051 0.04064
 O606 O 0.54632 -0.04670 -0.00315
 O607 O 0.50029 -0.01040 0.03733
 O608 O 0.53322 0.00046 0.01263
 O609 O 0.51612 0.04424 0.00624
 O610 O 0.48189 0.03271 0.03162
 C611 C 0.49009 -0.06264 -0.02965
 C612 C 0.42630 -0.02392 -0.00486
 C613 C 0.51018 0.00182 -0.06684
 O614 O 0.55958 -0.00170 -0.02801
 O615 O 0.56006 0.03659 -0.00517
 O616 O 0.55264 0.04186 0.03301
 C617 C 0.56598 0.04420 0.01509
 O618 O 0.45360 0.06000 -0.02579
 Zr619 Zr 0.47963 0.05122 0.00020
 O620 O 0.51590 0.06134 0.04895
 O621 O 0.53554 0.05288 -0.03744
 O622 O 0.49420 0.08008 -0.02051
 O623 O 0.44835 0.06653 0.01525
 O624 O 0.49111 0.08032 0.02251
 C625 C 0.50464 0.08050 0.04071
 O626 O 0.54421 0.00934 0.06073
 O627 O 0.45571 -0.03576 0.04640
 O628 O 0.50440 0.02115 0.07117
 O629 O 0.46808 0.00216 0.06510
 O630 O 0.49999 -0.06362 0.03035
 O631 O 0.53735 -0.04200 0.03929
 C632 C 0.48457 0.01133 0.07832
 H633 H 0.46852 -0.04207 0.00518
 H634 H 0.55035 -0.00319 0.01620
 H635 H 0.47486 0.04307 0.04394
 H636 H 0.49087 0.03687 -0.04080
 H637 H 0.54658 -0.06522 -0.00118
 H638 H 0.56888 0.00882 -0.03874
 H639 H 0.55094 0.05040 -0.04549
 H640 H 0.48624 0.09606 -0.01624
 H641 H 0.50909 -0.07892 0.02607
 H642 H 0.44031 -0.03304 0.05439
 H643 H 0.42562 0.00996 0.05138
 H644 H 0.44885 0.08501 0.01307
 H645 H 0.54401 -0.05912 0.03725
 H646 H 0.54872 0.02305 0.07150
 H647 H 0.44567 -0.00481 -0.06105
 H648 H 0.45037 0.07833 -0.02577
 Zr649 Zr 0.52901 0.51429 -0.03499
 O650 O 0.55517 0.50107 -0.05812
 O651 O 0.52262 0.55078 -0.04770
 O652 O 0.51496 0.51052 -0.06907
 O653 O 0.57114 0.52599 0.00839
 O654 O 0.48011 0.48869 -0.06432
 O655 O 0.56303 0.53201 -0.02982
 O656 O 0.49351 0.56568 -0.02419
 O657 O 0.49187 0.51922 -0.03107
 O658 O 0.52452 0.53400 -0.00427
 O659 O 0.51433 0.47778 -0.03431
 O660 O 0.54573 0.49202 -0.00912
 Zr661 Zr 0.48742 0.48037 0.02775
 Zr662 Zr 0.47752 0.48301 -0.02884
 Zr663 Zr 0.53925 0.51124 0.02157
 Zr664 Zr 0.48767 0.53764 0.00028
 O665 O 0.56958 0.49215 0.03562
 O666 O 0.45394 0.54790 -0.01461
 O667 O 0.50251 0.51679 0.02761
 O668 O 0.47125 0.50247 0.00174
 O669 O 0.49200 0.46021 -0.00282
 O670 O 0.52453 0.47532 0.02380
 C671 C 0.50748 0.56770 -0.04144
 C672 C 0.57684 0.53367 -0.01174
 C673 C 0.49586 0.49939 -0.07691
 O674 O 0.44587 0.50149 -0.04061
 O675 O 0.44751 0.46409 -0.01610
 O676 O 0.45353 0.46228 0.02269
 C677 C 0.44089 0.45801 0.00422
 O678 O 0.55670 0.45038 -0.03137
 Zr679 Zr 0.52907 0.45669 -0.00721
 O680 O 0.49139 0.44306 0.03842
 O681 O 0.47371 0.44830 -0.04626
 O682 O 0.51823 0.42623 -0.02845
 O683 O 0.56096 0.44491 0.01027
 O684 O 0.51930 0.42672 0.01424
 C685 C 0.50431 0.42497 0.03072
 O686 O 0.46100 0.49354 0.05064
 O687 O 0.54502 0.54676 0.03709
 O688 O 0.50089 0.48510 0.06203
 O689 O 0.53466 0.50865 0.05705
 O690 O 0.49953 0.56993 0.01855
 O691 O 0.46389 0.54509 0.02769
 C692 C 0.51918 0.49772 0.06979
 H693 H 0.53238 0.55069 -0.00445
 H694 H 0.45387 0.50494 0.00441
 H695 H 0.53198 0.46574 0.03669
 H696 H 0.51736 0.46869 -0.04881
 H697 H 0.45203 0.56633 -0.01281
 H698 H 0.43745 0.48972 -0.05118
 H699 H 0.45831 0.44909 -0.05508
 H700 H 0.52776 0.41128 -0.02367
 H701 H 0.48930 0.58425 0.01346
 H702 H 0.56035 0.54558 0.04597
 H703 H 0.57777 0.50399 0.04629
 H704 H 0.56225 0.42643 0.00847
 H705 H 0.45661 0.56198 0.02563
 H706 H 0.45738 0.47951 0.06129
 H707 H 0.55871 0.51514 -0.06876
 H708 H 0.56203 0.43262 -0.03049
 Zr709 Zr 0.03350 1.01697 0.45956
 O710 O 0.05895 1.00542 0.43503
 O711 O 0.02641 1.05405 0.44874
 O712 O 0.01852 1.01478 0.42571
 O713 O 0.07720 1.02578 0.50211
 O714 O -0.01658 0.99338 0.43066
 O715 O 0.06771 1.03443 0.46460
 O716 O -0.00165 1.06762 0.47401
 O717 O -0.00341 1.02191 0.46510
 O718 O 0.03039 1.03467 0.49145
 O719 O 0.01843 0.98061 0.45881
 O720 O 0.05098 0.99288 0.48353
 Zr721 Zr -0.00598 0.97934 0.52180
 Zr722 Zr -0.01809 0.98579 0.46587
 Zr723 Zr 0.04587 1.01006 0.51544
 Zr724 Zr -0.00619 1.03831 0.49754
 O725 O 0.07678 0.98993 0.52683
 O726 O -0.04058 1.04969 0.48495
 O727 O 0.00950 1.01556 0.52317
 O728 O -0.02294 1.00326 0.49767
 O729 O -0.00280 0.96125 0.49001
 O730 O 0.03085 0.97417 0.51619
 C731 C 0.01136 1.07045 0.45617
 C732 C 0.08216 1.03486 0.48229
 C733 C -0.00089 1.00413 0.41802
 O734 O -0.04981 1.00543 0.45615
 O735 O -0.04776 0.96625 0.47869
 O736 O -0.04031 0.96205 0.51712
 C737 C -0.05364 0.95890 0.49889
 O738 O 0.06086 0.95310 0.45882
 Zr739 Zr 0.03401 0.95764 0.48407
 O740 O -0.00240 0.94120 0.52973
 O741 O -0.02313 0.95224 0.44687
 O742 O 0.02235 0.92890 0.46124
 O743 O 0.06614 0.94414 0.50001
 O744 O 0.02427 0.92616 0.50363
 C745 C 0.00966 0.92345 0.52030
 O746 O -0.03109 0.99119 0.54654
 O747 O 0.05221 1.04426 0.53308
 O748 O 0.00913 0.98136 0.55571
 O749 O 0.04328 1.00424 0.55078
 O750 O 0.00685 1.06953 0.51663
 O751 O -0.02833 1.04411 0.52650
 C752 C 0.02835 0.99243 0.56344
 H753 H 0.03833 1.05131 0.49187
 H754 H -0.04017 1.00568 0.50113
 H755 H 0.03866 0.96354 0.52816
 H756 H 0.02086 0.97235 0.44380
 H757 H -0.04228 1.06795 0.48795
 H758 H -0.05886 0.99437 0.44540
 H759 H -0.03882 0.95379 0.43862
 H760 H 0.03202 0.91363 0.46470
 H761 H -0.00356 1.08413 0.51270
 H762 H 0.06790 1.04245 0.54127
 H763 H 0.08559 1.00091 0.53782
 H764 H 0.06712 0.92583 0.49695
 H765 H -0.03545 1.06119 0.52578
 H766 H -0.03445 0.97649 0.55650
 H767 H 0.06209 1.02014 0.42502
 H768 H 0.06618 0.93531 0.45849
 Zr769 Zr 0.71937 0.26895 0.21894
 O770 O 0.72274 0.29311 0.19020
 O771 O 0.68193 0.26439 0.21997
 O772 O 0.71157 0.25123 0.18683
 O773 O 0.72149 0.31654 0.25944
 O774 O 0.73095 0.21348 0.18992
 O775 O 0.70544 0.30560 0.22459
 O776 O 0.67616 0.23670 0.24940
 O777 O 0.71622 0.23082 0.22773
 O778 O 0.71233 0.26761 0.25416
 O779 O 0.75264 0.25262 0.21073
 O780 O 0.74802 0.28828 0.23544
 Zr781 Zr 0.77163 0.23074 0.27302
 Zr782 Zr 0.74998 0.21507 0.22118
 Zr783 Zr 0.74123 0.28493 0.27062
 Zr784 Zr 0.71059 0.22976 0.26314
 O785 O 0.76269 0.31753 0.27433
 O786 O 0.69607 0.19446 0.25334
 O787 O 0.73851 0.24741 0.28157
 O788 O 0.74316 0.21179 0.25630
 O789 O 0.77917 0.23213 0.23789
 O790 O 0.77460 0.26879 0.26411
 C791 C 0.66855 0.25139 0.23334
 C792 C 0.70850 0.32118 0.24139
 C793 C 0.71790 0.22953 0.17886
 O794 O 0.73129 0.18046 0.21996
 O795 O 0.77423 0.18622 0.22981
 O796 O 0.78837 0.19582 0.26572
 C797 C 0.78755 0.18179 0.24763
 O798 O 0.77761 0.29626 0.20144
 Zr799 Zr 0.78073 0.27002 0.22893
 O800 O 0.80895 0.23558 0.27277
 O801 O 0.77390 0.20914 0.19376
 O802 O 0.80114 0.25577 0.20133
 O803 O 0.79727 0.30434 0.23877
 O804 O 0.81524 0.26080 0.24165
 C805 C 0.82257 0.24733 0.25874
 O806 O 0.76801 0.20459 0.30022
 O807 O 0.71504 0.29328 0.29552
 O808 O 0.77713 0.24689 0.30623
 O809 O 0.75634 0.28391 0.30373
 O810 O 0.68862 0.24362 0.28977
 O811 O 0.71357 0.20639 0.29272
 C812 C 0.76935 0.26778 0.31477
 H813 H 0.69740 0.27653 0.25840
 H814 H 0.74248 0.19396 0.26117
 H815 H 0.78752 0.27744 0.27292
 H816 H 0.75575 0.25401 0.19408
 H817 H 0.68001 0.19303 0.26034
 H818 H 0.73819 0.17063 0.20720
 H819 H 0.77060 0.19212 0.18755
 H820 H 0.81608 0.26584 0.20050
 H821 H 0.67421 0.23272 0.29053
 H822 H 0.71887 0.31018 0.30174
 H823 H 0.75569 0.32755 0.28692
 H824 H 0.81323 0.30492 0.23145
 H825 H 0.69803 0.19786 0.29523
 H826 H 0.78432 0.20166 0.30691
 H827 H 0.70629 0.29633 0.18393
 H828 H 0.79387 0.30129 0.19652
 Zr829 Zr 0.75689 0.72170 0.70761
 O830 O 0.74492 0.69234 0.68576
 O831 O 0.78963 0.73133 0.69279
 O832 O 0.75096 0.73517 0.67373
 O833 O 0.77744 0.68284 0.75136
 O834 O 0.72569 0.76871 0.67812
 O835 O 0.77774 0.68814 0.71248
 O836 O 0.79966 0.76721 0.71208
 O837 O 0.75665 0.76106 0.71017
 O838 O 0.77761 0.73092 0.73670
 O839 O 0.72050 0.73269 0.70951
 O840 O 0.74028 0.70330 0.73524
 Zr841 Zr 0.72420 0.76432 0.77063
 Zr842 Zr 0.72079 0.77186 0.71376
 Zr843 Zr 0.76017 0.71458 0.76434
 Zr844 Zr 0.77624 0.76989 0.73981
 O845 O 0.74768 0.68154 0.78057
 O846 O 0.78010 0.80596 0.72471
 O847 O 0.76078 0.75366 0.76888
 O848 O 0.74084 0.78242 0.74295
 O849 O 0.70323 0.75540 0.74146
 O850 O 0.72432 0.72509 0.76793
 C851 C 0.80260 0.75100 0.69599
 C852 C 0.78285 0.67558 0.73105
 C853 C 0.73839 0.75380 0.66576
 O854 O 0.73260 0.80667 0.70041
 O855 O 0.70009 0.80163 0.72693
 O856 O 0.70193 0.79658 0.76587
 C857 C 0.69518 0.80862 0.74753
 O858 O 0.70086 0.68561 0.71511
 Zr859 Zr 0.70479 0.71629 0.73824
 O860 O 0.69090 0.75514 0.78451
 O861 O 0.68638 0.76986 0.69782
 O862 O 0.67282 0.72263 0.71866
 O863 O 0.69892 0.68264 0.75693
 O864 O 0.67709 0.72359 0.76134
 C865 C 0.67490 0.73909 0.77810
 O866 O 0.73488 0.79486 0.79174
 O867 O 0.79579 0.71450 0.77780
 O868 O 0.73306 0.75300 0.80483
 O869 O 0.75986 0.72103 0.79972
 O870 O 0.81056 0.76231 0.75477
 O871 O 0.78287 0.79628 0.76656
 C872 C 0.74800 0.73615 0.81249
 H873 H 0.79439 0.72478 0.73558
 H874 H 0.74105 0.80088 0.74510
 H875 H 0.71739 0.71674 0.78150
 H876 H 0.71143 0.72775 0.69545
 H877 H 0.79746 0.81021 0.72516
 H878 H 0.71957 0.81311 0.69014
 H879 H 0.68446 0.78537 0.68850
 H880 H 0.66034 0.71114 0.72457
 H881 H 0.82203 0.77425 0.74786
 H882 H 0.79766 0.69901 0.78716
 H883 H 0.76097 0.67526 0.79062
 H884 H 0.68150 0.67882 0.75584
 H885 H 0.79820 0.80513 0.76379
 H886 H 0.72213 0.79733 0.80327
 H887 H 0.75776 0.68948 0.67441
 H888 H 0.68466 0.67817 0.71668
 Zr889 Zr 0.23753 0.22885 0.77882
 O890 O 0.25003 0.20578 0.80620
 O891 O 0.20097 0.23210 0.78563
 O892 O 0.23462 0.24772 0.81086
 O893 O 0.23171 0.17983 0.73978
 O894 O 0.25172 0.28577 0.80366
 O895 O 0.22247 0.19239 0.77609
 O896 O 0.18622 0.25738 0.75698
 O897 O 0.23026 0.26634 0.76993
 O898 O 0.22211 0.22850 0.74578
 O899 O 0.27101 0.24707 0.78052
 O900 O 0.26263 0.21010 0.75798
 Zr901 Zr 0.27365 0.26730 0.71567
 Zr902 Zr 0.26382 0.28395 0.76985
 Zr903 Zr 0.24737 0.21178 0.72482
 Zr904 Zr 0.21611 0.26573 0.73652
 O905 O 0.26914 0.17997 0.71824
 O906 O 0.20232 0.30062 0.74807
 O907 O 0.24014 0.24874 0.71376
 O908 O 0.24863 0.28545 0.73674
 O909 O 0.28949 0.26775 0.74857
 O910 O 0.28057 0.22977 0.72473
 C911 C 0.18375 0.24361 0.77500
 C912 C 0.22198 0.17633 0.75944
 C913 C 0.24101 0.27016 0.81688
 O914 O 0.24401 0.31767 0.77395
 O915 O 0.28291 0.31415 0.75620
 O916 O 0.29050 0.30317 0.71915
 C917 C 0.29200 0.31843 0.73644
 O918 O 0.30053 0.20571 0.78634
 Zr919 Zr 0.29515 0.23029 0.75787
 O920 O 0.31005 0.26372 0.70850
 O921 O 0.29334 0.29202 0.79205
 O922 O 0.32100 0.24729 0.78006
 O923 O 0.31056 0.19599 0.74664
 O924 O 0.32517 0.23960 0.73788
 C925 C 0.32734 0.25265 0.71938
 O926 O 0.26195 0.29209 0.68926
 O927 O 0.21647 0.20148 0.70526
 O928 O 0.27306 0.24956 0.68283
 O929 O 0.25430 0.21227 0.68969
 O930 O 0.18909 0.24983 0.71492
 O931 O 0.21048 0.28809 0.70660
 C932 C 0.26410 0.22825 0.67621
 H933 H 0.20684 0.21903 0.74458
 H934 H 0.24584 0.30301 0.73167
 H935 H 0.29150 0.22120 0.71397
 H936 H 0.27781 0.24659 0.79635
 H937 H 0.18482 0.30081 0.74450
 H938 H 0.25303 0.32814 0.78521
 H939 H 0.29047 0.30898 0.79852
 H940 H 0.33642 0.23821 0.77811
 H941 H 0.17414 0.25971 0.71702
 H942 H 0.21959 0.18454 0.69884
 H943 H 0.25996 0.16926 0.70729
 H944 H 0.32794 0.19644 0.75067
 H945 H 0.19421 0.29569 0.70695
 H946 H 0.27611 0.29557 0.67961
 H947 H 0.23587 0.20174 0.81567
 H948 H 0.31792 0.20207 0.78832
 Zr949 Zr 0.26662 0.77954 0.28438
 O950 O 0.25738 0.80609 0.30985
 O951 O 0.30143 0.76909 0.29532
 O952 O 0.26320 0.76268 0.31746
 O953 O 0.28017 0.82532 0.24394
 O954 O 0.23919 0.72867 0.31052
 O955 O 0.28643 0.81364 0.28134
 O956 O 0.31210 0.73925 0.26928
 O957 O 0.26820 0.74092 0.27728
 O958 O 0.28351 0.77581 0.25268
 O959 O 0.23064 0.76711 0.28369
 O960 O 0.24555 0.80074 0.26068
 Zr961 Zr 0.22792 0.74407 0.21957
 Zr962 Zr 0.23248 0.72891 0.27506
 Zr963 Zr 0.26180 0.79498 0.22885
 Zr964 Zr 0.28388 0.73767 0.24503
 O965 O 0.24567 0.82957 0.21903
 O966 O 0.29150 0.70053 0.25643
 O967 O 0.26386 0.75690 0.21961
 O968 O 0.24898 0.72347 0.24336
 O969 O 0.21065 0.74785 0.25112
 O970 O 0.22627 0.78263 0.22677
 C971 C 0.31594 0.75241 0.28747
 C972 C 0.28890 0.82899 0.26424
 C973 C 0.25109 0.74328 0.32406
 O974 O 0.24861 0.69410 0.28409
 O975 O 0.21230 0.69951 0.26059
 O976 O 0.20790 0.71000 0.22267
 C977 C 0.20447 0.69530 0.24008
 O978 O 0.20818 0.81365 0.28512
 Zr979 Zr 0.21043 0.78628 0.25865
 O980 O 0.19216 0.75179 0.21066
 O981 O 0.19956 0.72592 0.29259
 O982 O 0.18168 0.77583 0.28016
 O983 O 0.20062 0.82153 0.24411
 O984 O 0.17984 0.77984 0.23775
 C985 C 0.17617 0.76549 0.22030
 O986 O 0.23722 0.71759 0.19406
 O987 O 0.29495 0.79871 0.21182
 O988 O 0.23136 0.76080 0.18642
 O989 O 0.25583 0.79442 0.19324
 O990 O 0.31495 0.74896 0.22707
 O991 O 0.28774 0.71494 0.21528
 C992 C 0.24332 0.78030 0.17973
 H993 H 0.30010 0.78255 0.25290
 H994 H 0.24985 0.70548 0.23910
 H995 H 0.21695 0.79218 0.21501
 H996 H 0.22287 0.76985 0.29865
 H997 H 0.30881 0.69726 0.25386
 H998 H 0.23725 0.68528 0.29426
 H999 H 0.19965 0.70935 0.30041
 H1000 H 0.16801 0.78734 0.27677
 H1001 H 0.32789 0.73669 0.23082
 H1002 H 0.29482 0.81551 0.20442
 H1003 H 0.25698 0.83811 0.20861
 H1004 H 0.18323 0.82408 0.24683
 H1005 H 0.30331 0.70587 0.21613
 H1006 H 0.22297 0.71570 0.18372
 H1007 H 0.27155 0.80776 0.32033
 H1008 H 0.19166 0.82063 0.28542
 Zr1009 Zr 0.22324 0.77514 0.71582
 O1010 O 0.23056 0.80092 0.68906
 O1011 O 0.18568 0.77208 0.71328
 O1012 O 0.21749 0.75985 0.68252
 O1013 O 0.22286 0.82012 0.75866
 O1014 O 0.23564 0.72130 0.68462
 O1015 O 0.20939 0.81158 0.72232
 O1016 O 0.17643 0.74290 0.74053
 O1017 O 0.21820 0.73661 0.72195
 O1018 O 0.21285 0.77175 0.75004
 O1019 O 0.25667 0.75809 0.70944
 O1020 O 0.25076 0.79247 0.73562
 Zr1021 Zr 0.26919 0.73183 0.77145
 Zr1022 Zr 0.25198 0.71997 0.71734
 Zr1023 Zr 0.24052 0.78708 0.76975
 Zr1024 Zr 0.20921 0.73346 0.75651
 O1025 O 0.26319 0.81785 0.77779
 O1026 O 0.19455 0.69956 0.74331
 O1027 O 0.23579 0.74897 0.77799
 O1028 O 0.24184 0.71487 0.75148
 O1029 O 0.28002 0.73504 0.73731
 O1030 O 0.27404 0.77027 0.76525
 C1031 C 0.17070 0.75892 0.72485
 C1032 C 0.21128 0.82604 0.74006
 C1033 C 0.22381 0.73856 0.67382
 O1034 O 0.23231 0.68635 0.71235
 O1035 O 0.27381 0.68907 0.72657
 O1036 O 0.28589 0.69716 0.76346
 C1037 C 0.28567 0.68355 0.74509
 O1038 O 0.28339 0.80173 0.70502
 Zr1039 Zr 0.28344 0.77341 0.73084
 O1040 O 0.30648 0.73564 0.77502
 O1041 O 0.27850 0.71502 0.69205
 O1042 O 0.30589 0.76095 0.70400
 O1043 O 0.30043 0.80602 0.74429
 O1044 O 0.31641 0.76142 0.74532
 C1045 C 0.32180 0.74698 0.76238
 O1046 O 0.26255 0.70387 0.79650
 O1047 O 0.21207 0.79601 0.79216
 O1048 O 0.27138 0.74519 0.80591
 O1049 O 0.25008 0.78195 0.80430
 O1050 O 0.18539 0.74618 0.78214
 O1051 O 0.20862 0.70796 0.78466
 C1052 C 0.26132 0.76446 0.81533
 H1053 H 0.19782 0.78089 0.75354
 H1054 H 0.24019 0.69681 0.75532
 H1055 H 0.28628 0.77772 0.77574
 H1056 H 0.26131 0.76046 0.69324
 H1057 H 0.17778 0.69835 0.74872
 H1058 H 0.23998 0.67722 0.69955
 H1059 H 0.27521 0.69865 0.68451
 H1060 H 0.32110 0.77059 0.70508
 H1061 H 0.17051 0.73599 0.78091
 H1062 H 0.21624 0.81207 0.79987
 H1063 H 0.25530 0.82725 0.79027
 H1064 H 0.31701 0.80636 0.73830
 H1065 H 0.19266 0.69978 0.78521
 H1066 H 0.27815 0.69999 0.80430
 H1067 H 0.21496 0.80537 0.68152
 H1068 H 0.30012 0.80701 0.70208
 Zr1069 Zr 0.25232 0.22255 0.20935
 O1070 O 0.24029 0.19243 0.18842
 O1071 O 0.28502 0.23159 0.19417
 O1072 O 0.24603 0.23484 0.17516
 O1073 O 0.27362 0.18536 0.25396
 O1074 O 0.22055 0.26832 0.17881
 O1075 O 0.27341 0.18930 0.21496
 O1076 O 0.29582 0.26752 0.21298
 O1077 O 0.25197 0.26198 0.21071
 O1078 O 0.27318 0.23286 0.23802
 O1079 O 0.21591 0.23341 0.21127
 O1080 O 0.23605 0.20498 0.23761
 Zr1081 Zr 0.21996 0.26719 0.27144
 Zr1082 Zr 0.21605 0.27268 0.21438
 Zr1083 Zr 0.25609 0.21735 0.26622
 Zr1084 Zr 0.27170 0.27190 0.23998
 O1085 O 0.24374 0.18485 0.28340
 O1086 O 0.27508 0.30696 0.22291
 O1087 O 0.25654 0.25659 0.26960
 O1088 O 0.23628 0.28437 0.24309
 O1089 O 0.19883 0.25713 0.24269
 O1090 O 0.22024 0.22786 0.26988
 C1091 C 0.29867 0.25078 0.19733
 C1092 C 0.27894 0.17746 0.23382
 C1093 C 0.23323 0.25308 0.16678
 O1094 O 0.22741 0.30714 0.19994
 O1095 O 0.19518 0.30267 0.22691
 O1096 O 0.19767 0.29936 0.26595
 C1097 C 0.19055 0.31058 0.24729
 O1098 O 0.19668 0.18634 0.21850
 Zr1099 Zr 0.20054 0.21793 0.24059
 O1100 O 0.18671 0.25841 0.28573
 O1101 O 0.18152 0.26990 0.19881
 O1102 O 0.16843 0.22320 0.22095
 O1103 O 0.19495 0.18506 0.26048
 O1104 O 0.17288 0.22613 0.26344
 C1105 C 0.17068 0.24222 0.27971
 O1106 O 0.23065 0.29845 0.29164
 O1107 O 0.29180 0.21769 0.27948
 O1108 O 0.22938 0.25715 0.30587
 O1109 O 0.25630 0.22516 0.30134
 O1110 O 0.30586 0.26540 0.25570
 O1111 O 0.27829 0.29977 0.26545
 C1112 C 0.24462 0.24075 0.31379
 H1113 H 0.28998 0.22677 0.23706
 H1114 H 0.23643 0.30290 0.24466
 H1115 H 0.21345 0.22000 0.28377
 H1116 H 0.20674 0.22793 0.19744
 H1117 H 0.29239 0.31140 0.22301
 H1118 H 0.21423 0.31308 0.18958
 H1119 H 0.17936 0.28508 0.18909
 H1120 H 0.15609 0.21181 0.22728
 H1121 H 0.31735 0.27713 0.24852
 H1122 H 0.29375 0.20251 0.28925
 H1123 H 0.25709 0.17896 0.29357
 H1124 H 0.17754 0.18114 0.25964
 H1125 H 0.29317 0.30906 0.26181
 H1126 H 0.21798 0.30125 0.30319
 H1127 H 0.25305 0.18921 0.17707
 H1128 H 0.18062 0.17872 0.22054
 Zr1129 Zr 0.73785 0.72819 0.27816
 O1130 O 0.75104 0.70514 0.30527
 O1131 O 0.70137 0.73087 0.28551
 O1132 O 0.73541 0.74699 0.31032
 O1133 O 0.73258 0.67919 0.23915
 O1134 O 0.75191 0.78528 0.30288
 O1135 O 0.72306 0.69153 0.27546
 O1136 O 0.68595 0.75611 0.25713
 O1137 O 0.73009 0.76567 0.26948
 O1138 O 0.72193 0.72780 0.24534
 O1139 O 0.77116 0.74684 0.27937
 O1140 O 0.76281 0.70986 0.25688
 Zr1141 Zr 0.77253 0.76722 0.21452
 Zr1142 Zr 0.76345 0.78370 0.26888
 Zr1143 Zr 0.74702 0.71150 0.22395
 Zr1144 Zr 0.71540 0.76501 0.23629
 O1145 O 0.76906 0.68009 0.21660
 O1146 O 0.70146 0.79966 0.24829
 O1147 O 0.73918 0.74837 0.21309
 O1148 O 0.74772 0.78510 0.23600
 O1149 O 0.78889 0.76778 0.24718
 O1150 O 0.78001 0.72977 0.22338
 C1151 C 0.68388 0.74216 0.27509
 C1152 C 0.72298 0.67547 0.25879
 C1153 C 0.74166 0.76950 0.31626
 O1154 O 0.74338 0.81720 0.27325
 O1155 O 0.78215 0.81412 0.25499
 O1156 O 0.78974 0.80279 0.21799
 C1157 C 0.79135 0.81810 0.23521
 O1158 O 0.80135 0.70591 0.28472
 Zr1159 Zr 0.79510 0.73040 0.25632
 O1160 O 0.80869 0.76379 0.20645
 O1161 O 0.79320 0.79206 0.29071
 O1162 O 0.82117 0.74771 0.27806
 O1163 O 0.81060 0.69625 0.24485
 O1164 O 0.82457 0.74010 0.23576
 C1165 C 0.82627 0.75293 0.21707
 O1166 O 0.76014 0.79228 0.18860
 O1167 O 0.71579 0.70068 0.20512
 O1168 O 0.77136 0.74974 0.18157
 O1169 O 0.75303 0.71229 0.18866
 O1170 O 0.68821 0.74894 0.21499
 O1171 O 0.70896 0.78753 0.20660
 C1172 C 0.76235 0.72843 0.17505
 H1173 H 0.70678 0.71811 0.24432
 H1174 H 0.74472 0.80265 0.23099
 H1175 H 0.79078 0.72133 0.21240
 H1176 H 0.77825 0.74639 0.29508
 H1177 H 0.68390 0.79965 0.24505
 H1178 H 0.75248 0.82777 0.28437
 H1179 H 0.79027 0.80899 0.29721
 H1180 H 0.83667 0.73886 0.27579
 H1181 H 0.67319 0.75860 0.21738
 H1182 H 0.71902 0.68383 0.19857
 H1183 H 0.75978 0.66932 0.20579
 H1184 H 0.82807 0.69694 0.24848
 H1185 H 0.69263 0.79494 0.20729
 H1186 H 0.77406 0.79590 0.17868
 H1187 H 0.73709 0.70094 0.31495
 H1188 H 0.81881 0.70247 0.28635
 Zr1189 Zr 0.76822 0.27807 0.78546
 O1190 O 0.75787 0.30431 0.81079
 O1191 O 0.80294 0.26834 0.79697
 O1192 O 0.76450 0.26092 0.81843
 O1193 O 0.78215 0.32420 0.74542
 O1194 O 0.74133 0.22643 0.81090
 O1195 O 0.78763 0.31249 0.78292
 O1196 O 0.81507 0.23941 0.77071
 O1197 O 0.77073 0.23954 0.77820
 O1198 O 0.78580 0.27489 0.75404
 O1199 O 0.73252 0.26491 0.78405
 O1200 O 0.74730 0.29902 0.76145
 Zr1201 Zr 0.73149 0.24235 0.71965
 Zr1202 Zr 0.73527 0.22683 0.77524
 Zr1203 Zr 0.76428 0.29379 0.72989
 Zr1204 Zr 0.78709 0.23684 0.74622
 O1205 O 0.74780 0.32824 0.72022
 O1206 O 0.79517 0.19996 0.75803
 O1207 O 0.76723 0.25583 0.72048
 O1208 O 0.75246 0.22201 0.74378
 O1209 O 0.71359 0.24550 0.75096
 O1210 O 0.72902 0.28079 0.72712
 C1211 C 0.81822 0.25248 0.78907
 C1212 C 0.79041 0.32790 0.76590
 C1213 C 0.75268 0.24119 0.82476
 O1214 O 0.75179 0.19224 0.78434
 O1215 O 0.71594 0.19720 0.76014
 O1216 O 0.71198 0.20795 0.72223
 C1217 C 0.70854 0.19304 0.73947
 O1218 O 0.70916 0.31087 0.78537
 Zr1219 Zr 0.71250 0.28385 0.75872
 O1220 O 0.69573 0.24944 0.71009
 O1221 O 0.70207 0.22304 0.79215
 O1222 O 0.68344 0.27254 0.77949
 O1223 O 0.70238 0.31910 0.74437
 O1224 O 0.68255 0.27714 0.73710
 C1225 C 0.67940 0.26297 0.71944
 O1226 O 0.74200 0.21619 0.69430
 O1227 O 0.79759 0.29817 0.71328
 O1228 O 0.73510 0.25935 0.68654
 O1229 O 0.75874 0.29343 0.69420
 O1230 O 0.81811 0.24878 0.72853
 O1231 O 0.79208 0.21398 0.71673
 C1232 C 0.74666 0.27930 0.68030
 H1233 H 0.80226 0.28194 0.75454
 H1234 H 0.75376 0.20407 0.73944
 H1235 H 0.71977 0.29029 0.71528
 H1236 H 0.72439 0.26736 0.79888
 H1237 H 0.81264 0.19711 0.75600
 H1238 H 0.74036 0.18313 0.79422
 H1239 H 0.70230 0.20638 0.79983
 H1240 H 0.66964 0.28382 0.77593
 H1241 H 0.83131 0.23689 0.73250
 H1242 H 0.79730 0.31502 0.70596
 H1243 H 0.75915 0.33708 0.71005
 H1244 H 0.68489 0.32128 0.74677
 H1245 H 0.80774 0.20513 0.71804
 H1246 H 0.72802 0.21398 0.68367
 H1247 H 0.77178 0.30623 0.82156
 H1248 H 0.69247 0.31743 0.78547
 C1249 C 0.46740 1.01522 0.34633
 C1250 C 0.46804 0.99412 0.33162
 C1251 C 0.45508 0.99447 0.31068
 C1252 C 0.44011 1.01495 0.30453
 C1253 C 0.44054 1.03632 0.31872
 C1254 C 0.45399 1.03650 0.33923
 C1255 C 0.47970 1.01329 0.36946
 C1256 C 0.47971 1.03311 0.38544
 C1257 C 0.48799 1.02924 0.40790
 C1258 C 0.49682 1.00569 0.41502
 C1259 C 0.49917 0.98649 0.39870
 C1260 C 0.49048 0.99008 0.37600
 C1261 C 0.48057 0.97234 0.33841
 C1262 C 0.49132 0.97026 0.36020
 H1263 H 0.48121 0.95622 0.32705
 H1264 H 0.49984 0.95261 0.36497
 H1265 H 0.45554 0.97807 0.29963
 H1266 H 0.43041 1.05304 0.31437
 H1267 H 0.48635 1.04447 0.42014
 H1268 H 0.50596 0.96823 0.40407
 H1269 H 0.45302 1.05326 0.34958
 H1270 H 0.47254 1.05144 0.38128
 C1271 C -0.03459 0.51655 0.85209
 C1272 C -0.03221 0.49581 0.83715
 C1273 C -0.04450 0.49566 0.81586
 C1274 C -0.06034 0.51530 0.80943
 C1275 C -0.06183 0.53632 0.82397
 C1276 C -0.04912 0.53698 0.84490
 C1277 C -0.02283 0.51507 0.87549
 C1278 C -0.02451 0.53455 0.89173
 C1279 C -0.01647 0.53090 0.91430
 C1280 C -0.00623 0.50792 0.92131
 C1281 C -0.00228 0.48924 0.90478
 C1282 C -0.01071 0.49258 0.88198
 C1283 C -0.01852 0.47481 0.84399
 C1284 C -0.00821 0.47313 0.86598
 H1285 H -0.01655 0.45897 0.83246
 H1286 H 0.00133 0.45604 0.87074
 H1287 H -0.04275 0.47949 0.80466
 H1288 H -0.07295 0.55233 0.81964
 H1289 H -0.01936 0.54578 0.92667
 H1290 H 0.00560 0.47141 0.91004
 H1291 H -0.05152 0.55341 0.85547
 H1292 H -0.03280 0.55239 0.88765
 C1293 C 0.03215 0.00300 0.83312
 C1294 C 0.03640 0.02589 0.82156
 C1295 C 0.04884 0.02584 0.80076
 C1296 C 0.05868 0.00341 0.79195
 C1297 C 0.05216 -0.01941 0.80226
 C1298 C 0.03913 -0.01967 0.82254
 C1299 C 0.02179 0.00404 0.85670
 C1300 C 0.01876 -0.01762 0.87022
 C1301 C 0.01261 -0.01556 0.89318
 C1302 C 0.00889 0.00801 0.90324
 C1303 C 0.00989 0.02971 0.88965
 C1304 C 0.01668 0.02789 0.86645
 C1305 C 0.02936 0.04877 0.83139
 C1306 C 0.01976 0.04975 0.85339
 H1307 H 0.03227 0.06630 0.82235
 H1308 H 0.01557 0.06799 0.86062
 H1309 H 0.05193 0.04355 0.79208
 H1310 H 0.05758 -0.03722 0.79499
 H1311 H 0.01168 -0.03252 0.90348
 H1312 H 0.00713 0.04796 0.89748
 H1313 H 0.03541 -0.03780 0.82995
 H1314 H 0.02206 -0.03628 0.86377
 C1315 C 0.55111 0.51541 0.34363
 C1316 C 0.53490 0.51075 0.32518
 C1317 C 0.54387 0.50565 0.30307
 C1318 C 0.56891 0.50373 0.29971
 C1319 C 0.58440 0.50544 0.31901
 C1320 C 0.57576 0.51141 0.34051
 C1321 C 0.54140 0.52291 0.36632
 C1322 C 0.55629 0.53221 0.38406
 C1323 C 0.54737 0.53532 0.40600
 C1324 C 0.52342 0.52936 0.41076
 C1325 C 0.50756 0.52333 0.39249
 C1326 C 0.51648 0.52042 0.37006
 C1327 C 0.51005 0.51077 0.32928
 C1328 C 0.50110 0.51450 0.35145
 H1329 H 0.49743 0.50686 0.31536
 H1330 H 0.48189 0.51306 0.35400
 H1331 H 0.53139 0.50355 0.28877
 H1332 H 0.60369 0.50350 0.31714
 H1333 H 0.55972 0.54072 0.41973
 H1334 H 0.48889 0.51915 0.39597
 H1335 H 0.58867 0.51276 0.35452
 H1336 H 0.57504 0.53643 0.38146
 C1337 C 0.54970 0.50443 0.16543
 C1338 C 0.54161 0.48602 0.18105
 C1339 C 0.55060 0.48577 0.20388
 C1340 C 0.56840 0.50296 0.21098
 C1341 C 0.57682 0.52064 0.19523
 C1342 C 0.56755 0.52153 0.17284
 C1343 C 0.53977 0.50422 0.14130
 C1344 C 0.54536 0.52296 0.12526
 C1345 C 0.53751 0.52104 0.10254
 C1346 C 0.52371 0.50047 0.09493
 C1347 C 0.51643 0.48252 0.11116
 C1348 C 0.52432 0.48437 0.13436
 C1349 C 0.52527 0.46758 0.17352
 C1350 C 0.51719 0.46648 0.15061
 H1351 H 0.51914 0.45333 0.18538
 H1352 H 0.50514 0.45141 0.14555
 H1353 H 0.54441 0.47168 0.21589
 H1354 H 0.59057 0.53401 0.20033
 H1355 H 0.54279 0.53566 0.09067
 H1356 H 0.50547 0.46675 0.10563
 H1357 H 0.57502 0.53543 0.16152
 H1358 H 0.55597 0.53921 0.12979
 C1359 C 0.05553 0.99675 0.66071
 C1360 C 0.07872 1.00643 0.66581
 C1361 C 0.08670 1.00922 0.68871
 C1362 C 0.07211 1.00230 0.70724
 C1363 C 0.04898 0.99270 0.70189
 C1364 C 0.04086 0.98999 0.67914
 C1365 C 0.04771 0.99434 0.63589
 C1366 C 0.02494 0.98512 0.62867
 C1367 C 0.01854 0.98395 0.60521
 C1368 C 0.03467 0.99193 0.58843
 C1369 C 0.05751 1.00056 0.59562
 C1370 C 0.06402 1.00195 0.61890
 C1371 C 0.09393 1.01347 0.64801
 C1372 C 0.08677 1.01123 0.62510
 H1373 H 0.11170 1.02087 0.65184
 H1374 H 0.09924 1.01702 0.61200
 H1375 H 0.10412 1.01767 0.69170
 H1376 H 0.03705 0.98627 0.71511
 H1377 H 0.00085 0.97718 0.60025
 H1378 H 0.07044 1.00657 0.58301
 H1379 H 0.02309 0.98237 0.67635
 H1380 H 0.01178 0.97897 0.64086
 C1381 C -0.03965 0.50821 0.67974
 C1382 C -0.05685 0.48952 0.68517
 C1383 C -0.06802 0.48951 0.70667
 C1384 C -0.06197 0.50752 0.72326
 C1385 C -0.04470 0.52582 0.71805
 C1386 C -0.03375 0.52628 0.69658
 C1387 C -0.02881 0.50801 0.65618
 C1388 C -0.01249 0.52641 0.64835
 C1389 C -0.00444 0.52623 0.62556
 C1390 C -0.01238 0.50762 0.61019
 C1391 C -0.02744 0.48849 0.61835
 C1392 C -0.03598 0.48876 0.64083
 C1393 C -0.06278 0.47086 0.66917
 C1394 C -0.05245 0.47038 0.64756
 H1395 H -0.07573 0.45643 0.67336
 H1396 H -0.05787 0.45565 0.63572
 H1397 H -0.08110 0.47514 0.71069
 H1398 H -0.03986 0.54008 0.73055
 H1399 H 0.00705 0.54127 0.61971
 H1400 H -0.03350 0.47377 0.60676
 H1401 H -0.02074 0.54087 0.69352
 H1402 H -0.00635 0.54151 0.65931
 C1403 C 0.45406 0.01058 0.17364
 C1404 C 0.43534 -0.00647 0.17893
 C1405 C 0.42542 -0.00686 0.20101
 C1406 C 0.43399 0.00933 0.21821
 C1407 C 0.45255 0.02621 0.21298
 C1408 C 0.46244 0.02689 0.19104
 C1409 C 0.46387 0.01058 0.14965
 C1410 C 0.48220 0.02699 0.14221
 C1411 C 0.48979 0.02682 0.11928
 C1412 C 0.47929 0.01028 0.10329
 C1413 C 0.46176 -0.00670 0.11089
 C1414 C 0.45389 -0.00656 0.13361
 C1415 C 0.42660 -0.02311 0.16220
 C1416 C 0.43570 -0.02318 0.14007
 H1417 H 0.41239 -0.03623 0.16624
 H1418 H 0.42814 -0.03633 0.12771
 H1419 H 0.41130 -0.02014 0.20491
 H1420 H 0.45928 0.03922 0.22584
 H1421 H 0.50329 0.04014 0.11392
 H1422 H 0.45367 -0.01990 0.09887
 H1423 H 0.47655 0.04032 0.18804
 H1424 H 0.49057 0.04037 0.15371
 C1425 C 0.34525 0.41223 0.00683
 C1426 C 0.33223 0.41161 -0.01430
 C1427 C 0.30967 0.39973 -0.01582
 C1428 C 0.29984 0.38737 0.00323
 C1429 C 0.31198 0.38985 0.02458
 C1430 C 0.33440 0.40181 0.02634
 C1431 C 0.36994 0.42403 0.00732
 C1432 C 0.38499 0.42502 0.02715
 C1433 C 0.40800 0.43595 0.02637
 C1434 C 0.41667 0.44602 0.00578
 C1435 C 0.40167 0.44504 -0.01394
 C1436 C 0.37869 0.43426 -0.01336
 C1437 C 0.34190 0.42252 -0.03398
 C1438 C 0.36456 0.43360 -0.03351
 H1439 H 0.33190 0.42223 -0.05013
 H1440 H 0.37126 0.44156 -0.04932
 H1441 H 0.29998 0.39985 -0.03211
 H1442 H 0.30433 0.38232 0.04010
 H1443 H 0.41904 0.43639 0.04187
 H1444 H 0.40782 0.45282 -0.03004
 H1445 H 0.34301 0.40256 0.04308
 H1446 H 0.37934 0.41738 0.04336
 C1447 C -0.14949 0.91345 0.50264
 C1448 C -0.16214 0.91138 0.48140
 C1449 C -0.18482 0.89970 0.48025
 C1450 C -0.19521 0.88901 0.49987
 C1451 C -0.18346 0.89305 0.52121
 C1452 C -0.16090 0.90482 0.52259
 C1453 C -0.12464 0.92494 0.50278
 C1454 C -0.10981 0.92703 0.52268
 C1455 C -0.08673 0.93777 0.52161
 C1456 C -0.07777 0.94666 0.50068
 C1457 C -0.09248 0.94437 0.48084
 C1458 C -0.11550 0.93369 0.48170
 C1459 C -0.15200 0.92067 0.46125
 C1460 C -0.12928 0.93164 0.46142
 H1461 H -0.16171 0.91926 0.44499
 H1462 H -0.12227 0.93840 0.44528
 H1463 H -0.19419 0.89877 0.46382
 H1464 H -0.19152 0.88681 0.53700
 H1465 H -0.07592 0.93916 0.53721
 H1466 H -0.08605 0.95102 0.46443
 H1467 H -0.15261 0.90685 0.53938
 H1468 H -0.11571 0.92038 0.53918
 C1469 C -0.16283 0.08432 0.99922
 C1470 C -0.17062 0.09328 1.02075
 C1471 C -0.19227 0.10704 1.02234
 C1472 C -0.20677 0.11193 1.00271
 C1473 C -0.19972 0.10113 0.98175
 C1474 C -0.17807 0.08784 0.97993
 C1475 C -0.13887 0.07106 0.99809
 C1476 C -0.12827 0.06366 0.97727
 C1477 C -0.10587 0.05145 0.97720
 C1478 C -0.09353 0.04600 0.99787
 C1479 C -0.10384 0.05363 1.01865
 C1480 C -0.12605 0.06641 1.01888
 C1481 C -0.15680 0.08840 1.04063
 C1482 C -0.13524 0.07492 1.03976
 H1483 H -0.16281 0.09497 1.05720
 H1484 H -0.12538 0.07152 1.05569
 H1485 H -0.19756 0.11363 1.03904
 H1486 H -0.21083 0.10357 0.96644
 H1487 H -0.09835 0.04595 0.96091
 H1488 H -0.09435 0.05000 1.03475
 H1489 H -0.17361 0.08045 0.96327
 H1490 H -0.13689 0.06737 0.96086
 C1491 C 0.34374 0.59279 0.50350
 C1492 C 0.32362 0.58077 0.51317
 C1493 C 0.30120 0.59322 0.51370
 C1494 C 0.29868 0.61799 0.50529
 C1495 C 0.31957 0.63062 0.49832
 C1496 C 0.34161 0.61817 0.49701
 C1497 C 0.36674 0.57826 0.50140
 C1498 C 0.38636 0.58701 0.48864
 C1499 C 0.40757 0.57295 0.48746
 C1500 C 0.41003 0.55012 0.49935
 C1501 C 0.39023 0.54082 0.51144
 C1502 C 0.36846 0.55436 0.51199
 C1503 C 0.32617 0.55658 0.52255
 C1504 C 0.34829 0.54398 0.52257
 H1505 H 0.31095 0.54741 0.53035
 H1506 H 0.34944 0.52553 0.53046
 H1507 H 0.28602 0.58358 0.52094
 H1508 H 0.31871 0.65019 0.49317
 H1509 H 0.42230 0.58023 0.47760
 H1510 H 0.39166 0.52282 0.52015
 H1511 H 0.35685 0.62876 0.49107
 H1512 H 0.38550 0.60450 0.47922
 C1513 C 0.16014 0.59771 0.51447
 C1514 C 0.16369 0.61505 0.49630
 C1515 C 0.18652 0.62573 0.49287
 C1516 C 0.20631 0.61864 0.50666
 C1517 C 0.20286 0.60116 0.52441
 C1518 C 0.18012 0.59094 0.52839
 C1519 C 0.13544 0.58662 0.51742
 C1520 C 0.12945 0.57035 0.53568
 C1521 C 0.10654 0.55936 0.53673
 C1522 C 0.08919 0.56411 0.51950
 C1523 C 0.09466 0.58120 0.50190
 C1524 C 0.11737 0.59265 0.50089
 C1525 C 0.14460 0.62110 0.48127
 C1526 C 0.12210 0.60985 0.48328
 H1527 H 0.14727 0.63429 0.46733
 H1528 H 0.10815 0.61469 0.47080
 H1529 H 0.18906 0.63902 0.47898
 H1530 H 0.21780 0.59560 0.53550
 H1531 H 0.10273 0.54634 0.55052
 H1532 H 0.08121 0.58535 0.48871
 H1533 H 0.17862 0.57753 0.54221
 H1534 H 0.14228 0.56568 0.54914
 C1535 C 0.65804 0.09558 0.00902
 C1536 C 0.67654 0.08255 -0.00246
 C1537 C 0.69895 0.09407 -0.00607
 C1538 C 0.70351 0.11902 0.00096
 C1539 C 0.68453 0.13224 0.01143
 C1540 C 0.66232 0.12069 0.01556
 C1541 C 0.63452 0.08216 0.01300
 C1542 C 0.61536 0.09250 0.02566
 C1543 C 0.59343 0.07955 0.02773
 C1544 C 0.59006 0.05616 0.01705
 C1545 C 0.60936 0.04534 0.00532
 C1546 C 0.63147 0.05787 0.00348
 C1547 C 0.67251 0.05813 -0.01065
 C1548 C 0.65040 0.04625 -0.00808
 H1549 H 0.68658 0.04815 -0.01957
 H1550 H 0.64812 0.02756 -0.01519
 H1551 H 0.71262 0.08361 -0.01507
 H1552 H 0.68694 0.15122 0.01767
 H1553 H 0.57875 0.08834 0.03676
 H1554 H 0.60696 0.02716 -0.00284
 H1555 H 0.64871 0.13172 0.02393
 H1556 H 0.61690 0.11066 0.03379
 C1557 C 0.66625 0.90722 0.50444
 C1558 C 0.67205 0.89092 0.48614
 C1559 C 0.69523 0.88011 0.48506
 C1560 C 0.71317 0.88618 0.50143
 C1561 C 0.70764 0.90311 0.51901
 C1562 C 0.68449 0.91336 0.52065
 C1563 C 0.64105 0.91763 0.50546
 C1564 C 0.63284 0.93183 0.52415
 C1565 C 0.60934 0.94116 0.52438
 C1566 C 0.59324 0.93698 0.50590
 C1567 C 0.60114 0.92267 0.48716
 C1568 C 0.62471 0.91250 0.48709
 C1569 C 0.65484 0.88592 0.46885
 C1570 C 0.63190 0.89685 0.46907
 H1571 H 0.65929 0.87364 0.45468
 H1572 H 0.61945 0.89262 0.45509
 H1573 H 0.69952 0.86745 0.47111
 H1574 H 0.72120 0.90813 0.53176
 H1575 H 0.60385 0.95212 0.53908
 H1576 H 0.58881 0.91897 0.47294
 H1577 H 0.68135 0.92626 0.53457
 H1578 H 0.64419 0.93573 0.53892
 C1579 C 0.16147 0.40524 1.00797
 C1580 C 0.16734 0.39012 0.98885
 C1581 C 0.19050 0.37939 0.98730
 C1582 C 0.20834 0.38442 1.00405
 C1583 C 0.20276 0.40021 1.02247
 C1584 C 0.17963 0.41034 1.02455
 C1585 C 0.13630 0.41559 1.00941
 C1586 C 0.12801 0.42855 1.02881
 C1587 C 0.10455 0.43795 1.02939
 C1588 C 0.08862 0.43509 1.01058
 C1589 C 0.09657 0.42195 0.99117
 C1590 C 0.12007 0.41169 0.99071
 C1591 C 0.15021 0.38626 0.97123
 C1592 C 0.12731 0.39721 0.97192
 H1593 H 0.15472 0.37491 0.95645
 H1594 H 0.11493 0.39392 0.95766
 H1595 H 0.19485 0.36762 0.97274
 H1596 H 0.21627 0.40442 1.03553
 H1597 H 0.09898 0.44798 1.04460
 H1598 H 0.08434 0.41925 0.97668
 H1599 H 0.17644 0.42236 1.03910
 H1600 H 0.13927 0.43142 1.04385
 C1601 C -0.01790 0.34662 0.42445
 C1602 C -0.02944 0.34805 0.40265
 C1603 C -0.03064 0.32679 0.38860
 C1604 C -0.02088 0.30371 0.39607
 C1605 C -0.00996 0.30235 0.41796
 C1606 C -0.00872 0.32334 0.43208
 C1607 C -0.01506 0.37018 0.43802
 C1608 C -0.00227 0.37104 0.45911
 C1609 C 0.00060 0.39367 0.47075
 C1610 C -0.00933 0.41588 0.46174
 C1611 C -0.02216 0.41525 0.44082
 C1612 C -0.02491 0.39269 0.42884
 C1613 C -0.03904 0.37084 0.39463
 C1614 C -0.03701 0.39270 0.40757
 H1615 H -0.04806 0.37187 0.37799
 H1616 H -0.04457 0.40997 0.40060
 H1617 H -0.03810 0.32890 0.37143
 H1618 H -0.00140 0.28516 0.42391
 H1619 H 0.01047 0.39369 0.48696
 H1620 H -0.02972 0.43242 0.43362
 H1621 H 0.00006 0.32097 0.44858
 H1622 H 0.00585 0.35462 0.46688
 C1623 C 0.48310 -0.15706 -0.07797
 C1624 C 0.47011 -0.15710 -0.09907
 C1625 C 0.47005 -0.17859 -0.11293
 C1626 C 0.48286 -0.20025 -0.10612
 C1627 C 0.49549 -0.20006 -0.08502
 C1628 C 0.49545 -0.17897 -0.07104
 C1629 C 0.48417 -0.13330 -0.06448
 C1630 C 0.49726 -0.13127 -0.04365
 C1631 C 0.49900 -0.10835 -0.03239
 C1632 C 0.48760 -0.08691 -0.04146
 C1633 C 0.47388 -0.08885 -0.06182
 C1634 C 0.47218 -0.11181 -0.07341
 C1635 C 0.45796 -0.13544 -0.10663
 C1636 C 0.45898 -0.11323 -0.09405
 H1637 H 0.44789 -0.13551 -0.12274
 H1638 H 0.44965 -0.09680 -0.10079
 H1639 H 0.46091 -0.17761 -0.12942
 H1640 H 0.50610 -0.21620 -0.07959
 H1641 H 0.50944 -0.10747 -0.01653
 H1642 H 0.46485 -0.07241 -0.06891
 H1643 H 0.50577 -0.18015 -0.05525
 H1644 H 0.50652 -0.14697 -0.03579
 C1645 C 0.01579 -0.18919 1.04429
 C1646 C -0.00597 -0.20277 1.04520
 C1647 C -0.00771 -0.22324 1.06016
 C1648 C 0.01165 -0.22907 1.07506
 C1649 C 0.03448 -0.21951 1.06994
 C1650 C 0.03656 -0.19949 1.05472
 C1651 C 0.01503 -0.16326 1.03475
 C1652 C 0.03378 -0.14597 1.03879
 C1653 C 0.03066 -0.12068 1.03336
 C1654 C 0.00902 -0.11224 1.02337
 C1655 C -0.00923 -0.12953 1.01806
 C1656 C -0.00670 -0.15477 1.02436
 C1657 C -0.02635 -0.19433 1.03300
 C1658 C -0.02650 -0.17091 1.02225
 H1659 H -0.04279 -0.20524 1.03292
 H1660 H -0.04302 -0.16451 1.01395
 H1661 H -0.02484 -0.23265 1.06197
 H1662 H 0.05044 -0.22594 1.07912
 H1663 H 0.04513 -0.10765 1.03720
 H1664 H -0.02607 -0.12304 1.01042
 H1665 H 0.05413 -0.19130 1.05255
 H1666 H 0.05045 -0.15134 1.04723
 C1667 C 0.51565 0.31659 0.54563
 C1668 C 0.49327 0.30432 0.54752
 C1669 C 0.49100 0.28433 0.56294
 C1670 C 0.51062 0.27740 0.57712
 C1671 C 0.53366 0.28583 0.57129
 C1672 C 0.53619 0.30549 0.55577
 C1673 C 0.51596 0.34208 0.53516
 C1674 C 0.53565 0.35843 0.53821
 C1675 C 0.53359 0.38366 0.53218
 C1676 C 0.51213 0.39289 0.52248
 C1677 C 0.49301 0.37645 0.51786
 C1678 C 0.49443 0.35136 0.52492
 C1679 C 0.47301 0.31344 0.53554
 C1680 C 0.47378 0.33632 0.52390
 H1681 H 0.45605 0.30349 0.53622
 H1682 H 0.45740 0.34331 0.51576
 H1683 H 0.47354 0.27579 0.56525
 H1684 H 0.54960 0.27860 0.57998
 H1685 H 0.54866 0.39610 0.53552
 H1686 H 0.47631 0.38367 0.51049
 H1687 H 0.55406 0.31263 0.55293
 H1688 H 0.55223 0.35248 0.54647
 C1689 C 0.50736 1.14196 0.61032
 C1690 C 0.48561 1.15501 0.61442
 C1691 C 0.48603 1.18098 0.61817
 C1692 C 0.50764 1.19413 0.61655
 C1693 C 0.52924 1.18134 0.61338
 C1694 C 0.52922 1.15539 0.61062
 C1695 C 0.50589 1.11527 0.60276
 C1696 C 0.52648 1.10112 0.59751
 C1697 C 0.52426 1.07893 0.58519
 C1698 C 0.50153 1.07007 0.57848
 C1699 C 0.48083 1.08193 0.58658
 C1700 C 0.48287 1.10476 0.59845
 C1701 C 0.46349 1.14255 0.61269
 C1702 C 0.46211 1.11797 0.60451
 H1703 H 0.44690 1.15249 0.61616
 H1704 H 0.44450 1.10966 0.60184
 H1705 H 0.46936 1.19127 0.62038
 H1706 H 0.54600 1.19158 0.61227
 H1707 H 0.54045 1.06926 0.57993
 H1708 H 0.46322 1.07467 0.58186
 H1709 H 0.54631 1.14658 0.60740
 H1710 H 0.54444 1.10741 0.60168
 C1711 C 0.00293 0.63759 1.11638
 C1712 C -0.01828 0.65230 1.11767
 C1713 C -0.01658 0.67845 1.11938
 C1714 C 0.00588 0.69008 1.11852
 C1715 C 0.02688 0.67576 1.11804
 C1716 C 0.02551 0.64966 1.11728
 C1717 C 0.00043 0.61042 1.11071
 C1718 C 0.02049 0.59456 1.10818
 C1719 C 0.01807 0.57196 1.09651
 C1720 C -0.00444 0.56449 1.08787
 C1721 C -0.02509 0.57788 1.09386
 C1722 C -0.02276 0.60113 1.10496
 C1723 C -0.04094 0.64111 1.11509
 C1724 C -0.04315 0.61606 1.10845
 H1725 H -0.05715 0.65235 1.11647
 H1726 H -0.06096 0.60869 1.10478
 H1727 H -0.03276 0.68990 1.11949
 H1728 H 0.04430 0.68483 1.11757
 H1729 H 0.03408 0.56109 1.09286
 H1730 H -0.04260 0.57169 1.08765
 H1731 H 0.04225 0.63951 1.11608
 H1732 H 0.03836 0.59993 1.11372
 C1733 C 0.49529 0.65987 -0.09347
 C1734 C 0.47898 0.67768 -0.08453
 C1735 C 0.47582 0.70098 -0.09530
 C1736 C 0.48887 0.70731 -0.11493
 C1737 C 0.50428 0.68906 -0.12431
 C1738 C 0.50744 0.66573 -0.11376
 C1739 C 0.49913 0.63576 -0.08068
 C1740 C 0.51562 0.61710 -0.08756
 C1741 C 0.51863 0.59505 -0.07476
 C1742 C 0.50533 0.59117 -0.05483
 C1743 C 0.48900 0.60973 -0.04787
 C1744 C 0.48582 0.63179 -0.06052
 C1745 C 0.46614 0.67239 -0.06465
 C1746 C 0.46945 0.64987 -0.05291
 H1747 H 0.45352 0.68598 -0.05791
 H1748 H 0.45922 0.64668 -0.03749
 H1749 H 0.46289 0.71405 -0.08831
 H1750 H 0.51530 0.69300 -0.13900
 H1751 H 0.53129 0.58098 -0.08055
 H1752 H 0.47855 0.60708 -0.03249
 H1753 H 0.51991 0.65284 -0.12151
 H1754 H 0.52637 0.61912 -0.10269
 C1755 C -0.00572 1.16290 0.40576
 C1756 C -0.02544 1.17777 0.41288
 C1757 C -0.02998 1.20112 0.40258
 C1758 C -0.01489 1.21020 0.38549
 C1759 C 0.00420 1.19522 0.37796
 C1760 C 0.00871 1.17180 0.38787
 C1761 C -0.00068 1.13874 0.41809
 C1762 C 0.01867 1.12269 0.41263
 C1763 C 0.02282 1.10058 0.42506
 C1764 C 0.00786 1.09407 0.44325
 C1765 C -0.01147 1.10991 0.44868
 C1766 C -0.01587 1.13197 0.43631
 C1767 C -0.04010 1.16964 0.43068
 C1768 C -0.03539 1.14721 0.44220
 H1769 H -0.05523 1.18099 0.43606
 H1770 H -0.04708 1.14184 0.45608
 H1771 H -0.04493 1.21254 0.40826
 H1772 H 0.01642 1.20199 0.36507
 H1773 H 0.03776 1.08859 0.42042
 H1774 H -0.02341 1.10500 0.46252
 H1775 H 0.02392 1.16136 0.38167
 H1776 H 0.03080 1.12678 0.39886
 C1777 C 0.75912 0.70465 0.90731
 C1778 C 0.77932 0.68908 0.91218
 C1779 C 0.78090 0.67550 0.93292
 C1780 C 0.76251 0.67705 0.94915
 C1781 C 0.74350 0.69410 0.94492
 C1782 C 0.74171 0.70758 0.92435
 C1783 C 0.75677 0.71641 0.88386
 C1784 C 0.73630 0.73020 0.87633
 C1785 C 0.73388 0.73815 0.85339
 C1786 C 0.75186 0.73267 0.83756
 C1787 C 0.77298 0.72057 0.84539
 C1788 C 0.77537 0.71204 0.86807
 C1789 C 0.79753 0.68650 0.89603
 C1790 C 0.79569 0.69792 0.87454
 H1791 H 0.81320 0.67497 0.89985
 H1792 H 0.81001 0.69478 0.86244
 H1793 H 0.79621 0.66332 0.93577
 H1794 H 0.72932 0.69620 0.95732
 H1795 H 0.71741 0.74742 0.84780
 H1796 H 0.78720 0.71651 0.83339
 H1797 H 0.72631 0.71975 0.92194
 H1798 H 0.72154 0.73410 0.88759
 C1799 C 0.25943 0.21092 0.40842
 C1800 C 0.28044 0.19640 0.41283
 C1801 C 0.28290 0.18243 0.43328
 C1802 C 0.26463 0.18259 0.44967
 C1803 C 0.24492 0.19894 0.44607
 C1804 C 0.24222 0.21274 0.42576
 C1805 C 0.25604 0.22271 0.38509
 C1806 C 0.23461 0.23503 0.37786
 C1807 C 0.23127 0.24268 0.35492
 C1808 C 0.24928 0.23837 0.33884
 C1809 C 0.27131 0.22799 0.34638
 C1810 C 0.27462 0.21966 0.36903
 C1811 C 0.29856 0.19519 0.39646
 C1812 C 0.29582 0.20682 0.37514
 H1813 H 0.31487 0.18454 0.39995
 H1814 H 0.31011 0.20472 0.36283
 H1815 H 0.29880 0.17099 0.43578
 H1816 H 0.23085 0.20009 0.45869
 H1817 H 0.21411 0.25060 0.34951
 H1818 H 0.28551 0.22486 0.33413
 H1819 H 0.22629 0.22422 0.42376
 H1820 H 0.21981 0.23783 0.38934
 C1821 C 0.76550 0.30604 0.40642
 C1822 C 0.76211 0.28964 0.42522
 C1823 C 0.75814 0.29964 0.44747
 C1824 C 0.75615 0.32593 0.45067
 C1825 C 0.75707 0.34150 0.43110
 C1826 C 0.76192 0.33190 0.40953
 C1827 C 0.77116 0.29525 0.38342
 C1828 C 0.77849 0.31036 0.36500
 C1829 C 0.78031 0.30032 0.34306
 C1830 C 0.77506 0.27496 0.33882
 C1831 C 0.77052 0.25897 0.35759
 C1832 C 0.76888 0.26905 0.38006
 C1833 C 0.76207 0.26354 0.42133
 C1834 C 0.76449 0.25353 0.39911
 H1835 H 0.75917 0.25071 0.43549
 H1836 H 0.76317 0.23336 0.39687
 H1837 H 0.75659 0.28698 0.46191
 H1838 H 0.75494 0.36169 0.43271
 H1839 H 0.78439 0.31287 0.32897
 H1840 H 0.76675 0.23925 0.35456
 H1841 H 0.76249 0.34506 0.39541
 H1842 H 0.78230 0.33013 0.36709
 C1843 C 0.25562 0.79251 0.91092
 C1844 C 0.23317 0.80269 0.91748
 C1845 C 0.23110 0.81591 0.93825
 C1846 C 0.25130 0.81988 0.95262
 C1847 C 0.27283 0.80726 0.94721
 C1848 C 0.27509 0.79405 0.92659
 C1849 C 0.25774 0.78145 0.88724
 C1850 C 0.27973 0.77305 0.87792
 C1851 C 0.28105 0.76579 0.85474
 C1852 C 0.26047 0.76677 0.84057
 C1853 C 0.23836 0.77344 0.85012
 C1854 C 0.23686 0.78107 0.87303
 C1855 C 0.21301 0.80041 0.90293
 C1856 C 0.21479 0.78968 0.88124
 H1857 H 0.19571 0.80773 0.90809
 H1858 H 0.19879 0.78908 0.87034
 H1859 H 0.21375 0.82346 0.94274
 H1860 H 0.28840 0.80858 0.95857
 H1861 H 0.29828 0.76076 0.84763
 H1862 H 0.22235 0.77400 0.83920
 H1863 H 0.29233 0.78569 0.92301
 H1864 H 0.29622 0.77296 0.88796
 C1865 C 0.24546 0.81286 0.08372
 C1866 C 0.25499 0.83711 0.07963
 C1867 C 0.25686 0.84642 0.05705
 C1868 C 0.24954 0.83195 0.03790
 C1869 C 0.24018 0.80773 0.04228
 C1870 C 0.23814 0.79842 0.06467
 C1871 C 0.24390 0.80365 0.10819
 C1872 C 0.23439 0.77998 0.11440
 C1873 C 0.23381 0.77232 0.13753
 C1874 C 0.24279 0.78799 0.15504
 C1875 C 0.25190 0.81172 0.14889
 C1876 C 0.25249 0.81960 0.12590
 C1877 C 0.26291 0.85194 0.09810
 C1878 C 0.26175 0.84337 0.12067
 H1879 H 0.27026 0.87049 0.09506
 H1880 H 0.26827 0.85559 0.13429
 H1881 H 0.26501 0.86465 0.05473
 H1882 H 0.23347 0.79589 0.02855
 H1883 H 0.22661 0.75399 0.14167
 H1884 H 0.25866 0.82435 0.16209
 H1885 H 0.23069 0.77984 0.06667
 H1886 H 0.22738 0.76710 0.10166
 C1887 C 0.75097 0.31601 0.58575
 C1888 C 0.74596 0.29920 0.56753
 C1889 C 0.74745 0.30747 0.54442
 C1890 C 0.75388 0.33257 0.53900
 C1891 C 0.75966 0.34860 0.55758
 C1892 C 0.75823 0.34057 0.58032
 C1893 C 0.74880 0.30685 0.61011
 C1894 C 0.75247 0.32272 0.62912
 C1895 C 0.75115 0.31346 0.65142
 C1896 C 0.74600 0.28804 0.65584
 C1897 C 0.74127 0.27209 0.63698
 C1898 C 0.74268 0.28139 0.61413
 C1899 C 0.73953 0.27427 0.57258
 C1900 C 0.73812 0.26553 0.59529
 H1901 H 0.73570 0.26120 0.55873
 H1902 H 0.73331 0.24605 0.59813
 H1903 H 0.74277 0.29437 0.53089
 H1904 H 0.76620 0.36743 0.55506
 H1905 H 0.75432 0.32653 0.66540
 H1906 H 0.73704 0.25249 0.64001
 H1907 H 0.76324 0.35402 0.59338
 H1908 H 0.75642 0.34244 0.62729
 C1909 C 0.26515 0.19386 0.58104
 C1910 C 0.25022 0.17299 0.57568
 C1911 C 0.24935 0.16314 0.55328
 C1912 C 0.26314 0.17372 0.53585
 C1913 C 0.27822 0.19416 0.54126
 C1914 C 0.27922 0.20411 0.56348
 C1915 C 0.26532 0.20393 0.60521
 C1916 C 0.27914 0.22487 0.61248
 C1917 C 0.27869 0.23319 0.63539
 C1918 C 0.26455 0.22078 0.65157
 C1919 C 0.25051 0.20020 0.64424
 C1920 C 0.25076 0.19178 0.62148
 C1921 C 0.23615 0.16207 0.59269
 C1922 C 0.23647 0.17121 0.61508
 H1923 H 0.22473 0.14614 0.58864
 H1924 H 0.22528 0.16199 0.62762
 H1925 H 0.23751 0.14751 0.54932
 H1926 H 0.28953 0.20239 0.52831
 H1927 H 0.28964 0.24912 0.64048
 H1928 H 0.23916 0.19050 0.65633
 H1929 H 0.29115 0.21976 0.56655
 H1930 H 0.29042 0.23502 0.60078
 C1931 C 0.76174 0.69311 0.08022
 C1932 C 0.74599 0.67283 0.07513
 C1933 C 0.74503 0.66238 0.05297
 C1934 C 0.75950 0.67181 0.03551
 C1935 C 0.77524 0.69178 0.04059
 C1936 C 0.77638 0.70230 0.06260
 C1937 C 0.76215 0.70367 0.10421
 C1938 C 0.77696 0.72395 0.11131
 C1939 C 0.77688 0.73256 0.13414
 C1940 C 0.76211 0.72111 0.15038
 C1941 C 0.74696 0.70137 0.14319
 C1942 C 0.74690 0.69261 0.12054
 C1943 C 0.73124 0.66303 0.09216
 C1944 C 0.73171 0.67267 0.11436
 H1945 H 0.71918 0.64756 0.08829
 H1946 H 0.72001 0.66429 0.12695
 H1947 H 0.73265 0.64716 0.04922
 H1948 H 0.78702 0.69914 0.02758
 H1949 H 0.78869 0.74783 0.13915
 H1950 H 0.73509 0.69250 0.15535
 H1951 H 0.78886 0.71751 0.06546
 H1952 H 0.78883 0.73325 0.09956
 C1953 C 0.15183 0.60143 0.24475
 C1954 C 0.16506 0.57983 0.25172
 C1955 C 0.15323 0.55681 0.25570
 C1956 C 0.12806 0.55479 0.25314
 C1957 C 0.11501 0.57673 0.24735
 C1958 C 0.12662 0.59952 0.24293
 C1959 C 0.16521 0.62565 0.24073
 C1960 C 0.15401 0.64801 0.23275
 C1961 C 0.16708 0.67049 0.23096
 C1962 C 0.19156 0.67118 0.23701
 C1963 C 0.20306 0.64882 0.24394
 C1964 C 0.19023 0.62614 0.24560
 C1965 C 0.19001 0.58146 0.25526
 C1966 C 0.20223 0.60414 0.25259
 H1967 H 0.20021 0.56503 0.26068
 H1968 H 0.22143 0.60446 0.25611
 H1969 H 0.16376 0.54078 0.26138
 H1970 H 0.09556 0.57625 0.24613
 H1971 H 0.15775 0.68758 0.22602
 H1972 H 0.22199 0.64929 0.24874
 H1973 H 0.11550 0.61552 0.23850
 H1974 H 0.13511 0.64863 0.22826
 C1975 C 0.65619 0.09897 0.74173
 C1976 C 0.66896 0.07751 0.74981
 C1977 C 0.65690 0.05452 0.75325
 C1978 C 0.63194 0.05248 0.74921
 C1979 C 0.61926 0.07436 0.74251
 C1980 C 0.63113 0.09705 0.73849
 C1981 C 0.66974 0.12316 0.73831
 C1982 C 0.65915 0.14522 0.72897
 C1983 C 0.67220 0.16776 0.72783
 C1984 C 0.69601 0.16879 0.73600
 C1985 C 0.70704 0.14667 0.74419
 C1986 C 0.69428 0.12391 0.74511
 C1987 C 0.69358 0.07933 0.75510
 C1988 C 0.70584 0.10209 0.75319
 H1989 H 0.70342 0.06303 0.76139
 H1990 H 0.72471 0.10261 0.75815
 H1991 H 0.66701 0.03856 0.75978
 H1992 H 0.59987 0.07396 0.74037
 H1993 H 0.66330 0.18464 0.72166
 H1994 H 0.72552 0.14738 0.75046
 H1995 H 0.62030 0.11303 0.73334
 H1996 H 0.64073 0.14553 0.72284
 C1997 C 0.84599 0.09115 0.24207
 C1998 C 0.85369 0.07992 0.26294
 C1999 C 0.86731 0.05764 0.26267
 C2000 C 0.87446 0.04662 0.24183
 C2001 C 0.86613 0.05755 0.22117
 C2002 C 0.85225 0.07948 0.22125
 C2003 C 0.83127 0.11482 0.24310
 C2004 C 0.82220 0.12698 0.22329
 C2005 C 0.80824 0.14865 0.22505
 C2006 C 0.80302 0.15909 0.24656
 C2007 C 0.81230 0.14742 0.26647
 C2008 C 0.82612 0.12524 0.26489
 C2009 C 0.84785 0.09101 0.28398
 C2010 C 0.83452 0.11326 0.28493
 H2011 H 0.85381 0.08243 0.30000
 H2012 H 0.83057 0.12110 0.30163
 H2013 H 0.87249 0.04888 0.27885
 H2014 H 0.86983 0.04908 0.20476
 H2015 H 0.80156 0.15733 0.20934
 H2016 H 0.80833 0.15525 0.28318
 H2017 H 0.84660 0.08689 0.20478
 H2018 H 0.82547 0.12004 0.20623
 C2019 C 0.34524 0.59313 0.74315
 C2020 C 0.36390 0.59135 0.75987
 C2021 C 0.37914 0.57023 0.76051
 C2022 C 0.37593 0.55001 0.74507
 C2023 C 0.35751 0.55216 0.72830
 C2024 C 0.34243 0.57328 0.72729
 C2025 C 0.32928 0.61605 0.74329
 C2026 C 0.31058 0.62010 0.72704
 C2027 C 0.29640 0.64184 0.72783
 C2028 C 0.30023 0.66006 0.74496
 C2029 C 0.31864 0.65606 0.76136
 C2030 C 0.33329 0.63449 0.76048
 C2031 C 0.36715 0.61051 0.77615
 C2032 C 0.35210 0.63149 0.77654
 H2033 H 0.38146 0.60916 0.78898
 H2034 H 0.35532 0.64567 0.78960
 H2035 H 0.39327 0.57007 0.77337
 H2036 H 0.35459 0.53714 0.71601
 H2037 H 0.28233 0.64434 0.71492
 H2038 H 0.32191 0.66998 0.77461
 H2039 H 0.32854 0.57354 0.71414
 H2040 H 0.30673 0.60685 0.71347
 C2041 C 0.34899 0.41020 0.74037
 C2042 C 0.34113 0.42880 0.75600
 C2043 C 0.35437 0.45102 0.75921
 C2044 C 0.37566 0.45526 0.74723
 C2045 C 0.38390 0.43652 0.73228
 C2046 C 0.37076 0.41430 0.72882
 C2047 C 0.33384 0.38691 0.73718
 C2048 C 0.33924 0.36746 0.72150
 C2049 C 0.32499 0.34567 0.72015
 C2050 C 0.30516 0.34268 0.73450
 C2051 C 0.29909 0.36251 0.74927
 C2052 C 0.31307 0.38436 0.75071
 C2053 C 0.32006 0.42523 0.76838
 C2054 C 0.30646 0.40344 0.76594
 H2055 H 0.31406 0.43944 0.78035
 H2056 H 0.29047 0.40148 0.77619
 H2057 H 0.34801 0.46518 0.77107
 H2058 H 0.40016 0.43937 0.72262
 H2059 H 0.33001 0.33078 0.70853
 H2060 H 0.28356 0.36071 0.76020
 H2061 H 0.37781 0.40067 0.71697
 H2062 H 0.35455 0.36861 0.71040
 C2063 C 0.84960 0.90852 0.24041
 C2064 C 0.83960 0.92910 0.25235
 C2065 C 0.85286 0.95130 0.25554
 C2066 C 0.87644 0.95372 0.24730
 C2067 C 0.88680 0.93259 0.23660
 C2068 C 0.87356 0.91046 0.23305
 C2069 C 0.83431 0.88545 0.23671
 C2070 C 0.84169 0.86439 0.22377
 C2071 C 0.82709 0.84293 0.22195
 C2072 C 0.80493 0.84193 0.23307
 C2073 C 0.79701 0.86322 0.24502
 C2074 C 0.81129 0.88487 0.24675
 C2075 C 0.81640 0.92748 0.26122
 C2076 C 0.80270 0.90574 0.25875
 H2077 H 0.80877 0.94319 0.27048
 H2078 H 0.78501 0.90533 0.26630
 H2079 H 0.84473 0.96662 0.26494
 H2080 H 0.90470 0.93335 0.22965
 H2081 H 0.83365 0.82668 0.21278
 H2082 H 0.77978 0.86271 0.25349
 H2083 H 0.88231 0.89513 0.22436
 H2084 H 0.85878 0.86404 0.21525
 C2085 C 0.64779 0.90662 0.75562
 C2086 C 0.65227 0.92409 0.73779
 C2087 C 0.64286 0.94867 0.73880
 C2088 C 0.62825 0.95615 0.75699
 C2089 C 0.62296 0.93858 0.77417
 C2090 C 0.63275 0.91420 0.77367
 C2091 C 0.65914 0.88081 0.75422
 C2092 C 0.65778 0.86258 0.77186
 C2093 C 0.66925 0.83909 0.76978
 C2094 C 0.68198 0.83296 0.74990
 C2095 C 0.68324 0.85100 0.73226
 C2096 C 0.67242 0.87479 0.73443
 C2097 C 0.66592 0.91692 0.71888
 C2098 C 0.67544 0.89274 0.71707
 H2099 H 0.66916 0.93018 0.70512
 H2100 H 0.68573 0.88817 0.70198
 H2101 H 0.64656 0.96193 0.72514
 H2102 H 0.61163 0.94387 0.78831
 H2103 H 0.66812 0.82568 0.78375
 H2104 H 0.69343 0.84685 0.71699
 H2105 H 0.62826 0.90153 0.78744
 H2106 H 0.64830 0.86631 0.78753
 C2107 C 0.14500 0.40962 0.25321
 C2108 C 0.13351 0.41618 0.27391
 C2109 C 0.12315 0.44033 0.27646
 C2110 C 0.12510 0.45848 0.25901
 C2111 C 0.13693 0.45204 0.23877
 C2112 C 0.14660 0.42799 0.23579
 C2113 C 0.15567 0.38367 0.25105
 C2114 C 0.16573 0.37480 0.23055
 C2115 C 0.17624 0.35096 0.22950
 C2116 C 0.17731 0.33506 0.24884
 C2117 C 0.16666 0.34343 0.26927
 C2118 C 0.15554 0.36741 0.27035
 C2119 C 0.13309 0.39882 0.29210
 C2120 C 0.14421 0.37521 0.29051
 H2121 H 0.12447 0.40378 0.30804
 H2122 H 0.14376 0.36279 0.30527
 H2123 H 0.11428 0.44530 0.29227
 H2124 H 0.13860 0.46573 0.22508
 H2125 H 0.18412 0.34524 0.21343
 H2126 H 0.16699 0.33133 0.28428
 H2127 H 0.15563 0.42435 0.21988
 H2128 H 0.16568 0.38596 0.21507
 C2129 C 0.08877 0.22826 0.81091
 C2130 C 0.08727 0.21239 0.83035
 C2131 C 0.06626 0.21191 0.84318
 C2132 C 0.04657 0.22730 0.83708
 C2133 C 0.04740 0.24108 0.81649
 C2134 C 0.06812 0.24145 0.80346
 C2135 C 0.11269 0.23163 0.80014
 C2136 C 0.11671 0.24932 0.78257
 C2137 C 0.13979 0.25330 0.77444
 C2138 C 0.15935 0.23976 0.78363
 C2139 C 0.15543 0.22170 0.80073
 C2140 C 0.13241 0.21772 0.80916
 C2141 C 0.10719 0.19819 0.83770
 C2142 C 0.12929 0.20061 0.82714
 H2143 H 0.10589 0.18562 0.85231
 H2144 H 0.14439 0.18973 0.83380
 H2145 H 0.06637 0.20087 0.85873
 H2146 H 0.03244 0.25298 0.81123
 H2147 H 0.14233 0.26720 0.76108
 H2148 H 0.17038 0.21092 0.80786
 H2149 H 0.06785 0.25304 0.78825
 H2150 H 0.10245 0.26066 0.77519
 C2151 C 0.58890 0.72490 0.30995
 C2152 C 0.57117 0.74310 0.30448
 C2153 C 0.54966 0.74342 0.31653
 C2154 C 0.54596 0.72643 0.33463
 C2155 C 0.56209 0.70627 0.33763
 C2156 C 0.58331 0.70546 0.32536
 C2157 C 0.61325 0.72794 0.30014
 C2158 C 0.63300 0.71328 0.30758
 C2159 C 0.65587 0.71821 0.29957
 C2160 C 0.65963 0.73769 0.28379
 C2161 C 0.64003 0.75213 0.27591
 C2162 C 0.61698 0.74772 0.28430
 C2163 C 0.57556 0.76165 0.28799
 C2164 C 0.59796 0.76366 0.27780
 H2165 H 0.56173 0.77527 0.28342
 H2166 H 0.60076 0.77868 0.26553
 H2167 H 0.53659 0.75822 0.31316
 H2168 H 0.55901 0.69135 0.34977
 H2169 H 0.67065 0.70661 0.30579
 H2170 H 0.64279 0.76730 0.26376
 H2171 H 0.59538 0.68993 0.32876
 H2172 H 0.63137 0.69840 0.32005
 C2173 C 0.56677 0.26442 0.22080
 C2174 C 0.55952 0.28723 0.21023
 C2175 C 0.53785 0.28825 0.19780
 C2176 C 0.52485 0.26604 0.19386
 C2177 C 0.52934 0.24532 0.20827
 C2178 C 0.55020 0.24449 0.22178
 C2179 C 0.59259 0.26134 0.22738
 C2180 C 0.60235 0.23804 0.23440
 C2181 C 0.62712 0.23483 0.23634
 C2182 C 0.64257 0.25470 0.23124
 C2183 C 0.63311 0.27837 0.22564
 C2184 C 0.60826 0.28182 0.22356
 C2185 C 0.57515 0.30780 0.20967
 C2186 C 0.59918 0.30513 0.21629
 H2187 H 0.56928 0.32555 0.20227
 H2188 H 0.61113 0.32101 0.21409
 H2189 H 0.53284 0.30556 0.18918
 H2190 H 0.51821 0.22867 0.20709
 H2191 H 0.63425 0.21658 0.24127
 H2192 H 0.64514 0.29398 0.22245
 H2193 H 0.55393 0.22736 0.23113
 H2194 H 0.59131 0.22183 0.23767
 C2195 C 0.06972 0.77848 0.71201
 C2196 C 0.06373 0.80004 0.69891
 C2197 C 0.04166 0.80103 0.68714
 C2198 C 0.02689 0.77964 0.68669
 C2199 C 0.03031 0.76131 0.70380
 C2200 C 0.05168 0.76073 0.71652
 C2201 C 0.09551 0.77386 0.71769
 C2202 C 0.10377 0.75050 0.72606
 C2203 C 0.12825 0.74553 0.72784
 C2204 C 0.14500 0.76372 0.72137
 C2205 C 0.13705 0.78734 0.71371
 C2206 C 0.11244 0.79243 0.71153
 C2207 C 0.08077 0.81894 0.69544
 C2208 C 0.10474 0.81530 0.70194
 H2209 H 0.07591 0.83592 0.68612
 H2210 H 0.11768 0.82977 0.69778
 H2211 H 0.03762 0.81714 0.67640
 H2212 H 0.01792 0.74572 0.70525
 H2213 H 0.13409 0.72728 0.73413
 H2214 H 0.15000 0.80166 0.70917
 H2215 H 0.05452 0.74513 0.72814
 H2216 H 0.09172 0.73550 0.73056
 C2217 C 0.89386 0.76659 0.65711
 C2218 C 0.90657 0.74518 0.64945
 C2219 C 0.93149 0.74641 0.64696
 C2220 C 0.94395 0.76809 0.65357
 C2221 C 0.93153 0.78925 0.66114
 C2222 C 0.90665 0.78868 0.66267
 C2223 C 0.86783 0.76392 0.66181
 C2224 C 0.85366 0.78434 0.66878
 C2225 C 0.83142 0.78011 0.67840
 C2226 C 0.82274 0.75555 0.68074
 C2227 C 0.83494 0.73553 0.67049
 C2228 C 0.85763 0.73957 0.66110
 C2229 C 0.89467 0.72225 0.64611
 C2230 C 0.87076 0.71932 0.65240
 H2231 H 0.90442 0.70592 0.64009
 H2232 H 0.86273 0.70081 0.65118
 H2233 H 0.94141 0.72998 0.64136
 H2234 H 0.94115 0.80616 0.66606
 H2235 H 0.82155 0.79600 0.68515
 H2236 H 0.82782 0.71660 0.67158
 H2237 H 0.89801 0.80527 0.66928
 H2238 H 0.85985 0.80353 0.66794
 C2239 C 0.39247 0.25750 0.16006
 C2240 C 0.40537 0.27939 0.16656
 C2241 C 0.43043 0.27957 0.16565
 C2242 C 0.44271 0.25836 0.15805
 C2243 C 0.43009 0.23747 0.14985
 C2244 C 0.40513 0.23693 0.15089
 C2245 C 0.36626 0.25654 0.16490
 C2246 C 0.35253 0.23443 0.16229
 C2247 C 0.32955 0.23298 0.17138
 C2248 C 0.31983 0.25365 0.18287
 C2249 C 0.33216 0.27659 0.18302
 C2250 C 0.35550 0.27799 0.17481
 C2251 C 0.39331 0.30060 0.17468
 C2252 C 0.36873 0.30002 0.17845
 H2253 H 0.40316 0.31756 0.17901
 H2254 H 0.36028 0.31653 0.18571
 H2255 H 0.44046 0.29603 0.17118
 H2256 H 0.43965 0.22126 0.14330
 H2257 H 0.32011 0.21520 0.17072
 H2258 H 0.32441 0.29288 0.19135
 H2259 H 0.39622 0.22013 0.14489
 H2260 H 0.35966 0.21759 0.15464
 C2261 C 0.40953 0.73722 0.32964
 C2262 C 0.41847 0.75652 0.34413
 C2263 C 0.44220 0.75538 0.35250
 C2264 C 0.45732 0.73552 0.34624
 C2265 C 0.44843 0.71627 0.33217
 C2266 C 0.42479 0.71700 0.32402
 C2267 C 0.38457 0.73975 0.32008
 C2268 C 0.37426 0.72165 0.30537
 C2269 C 0.35178 0.72571 0.29533
 C2270 C 0.33882 0.74777 0.29982
 C2271 C 0.34828 0.76536 0.31542
 C2272 C 0.37112 0.76157 0.32546
 C2273 C 0.40395 0.77716 0.34960
 C2274 C 0.38078 0.77970 0.34037
 H2275 H 0.41080 0.79187 0.36079
 H2276 H 0.37043 0.79629 0.34467
 H2277 H 0.44918 0.77051 0.36314
 H2278 H 0.45983 0.70062 0.32744
 H2279 H 0.34464 0.71152 0.28376
 H2280 H 0.33828 0.78237 0.31912
 H2281 H 0.41910 0.70175 0.31306
 H2282 H 0.38329 0.70438 0.30104
 C2283 C 0.91074 0.24078 0.83479
 C2284 C 0.92766 0.22527 0.82375
 C2285 C 0.95135 0.22386 0.83210
 C2286 C 0.95893 0.23791 0.85138
 C2287 C 0.94145 0.25195 0.86312
 C2288 C 0.91782 0.25342 0.85495
 C2289 C 0.88618 0.24341 0.82426
 C2290 C 0.86860 0.25987 0.83293
 C2291 C 0.84640 0.26262 0.82169
 C2292 C 0.84122 0.24900 0.80162
 C2293 C 0.85841 0.23216 0.79320
 C2294 C 0.88079 0.22946 0.80416
 C2295 C 0.92099 0.21148 0.80420
 C2296 C 0.89797 0.21340 0.79469
 H2297 H 0.93388 0.19930 0.79592
 H2298 H 0.89373 0.20263 0.77935
 H2299 H 0.96364 0.21138 0.82346
 H2300 H 0.94570 0.26297 0.87813
 H2301 H 0.83341 0.27568 0.82861
 H2302 H 0.85466 0.22144 0.77772
 H2303 H 0.90553 0.26492 0.86453
 H2304 H 0.87171 0.27114 0.84806
 C2305 C 0.53751 0.98796 0.68167
 C2306 C 0.55417 0.96940 0.68942
 C2307 C 0.56771 0.97314 0.70979
 C2308 C 0.56563 0.99568 0.72199
 C2309 C 0.54833 1.01344 0.71500
 C2310 C 0.53421 1.00956 0.69527
 C2311 C 0.52583 0.98487 0.65836
 C2312 C 0.50972 1.00268 0.64864
 C2313 C 0.50206 1.00073 0.62567
 C2314 C 0.51022 0.98098 0.61188
 C2315 C 0.52467 0.96209 0.62196
 C2316 C 0.53256 0.96392 0.64494
 C2317 C 0.55851 0.94812 0.67595
 C2318 C 0.54807 0.94552 0.65413
 H2319 H 0.57106 0.93380 0.68191
 H2320 H 0.55288 0.92925 0.64397
 H2321 H 0.58138 0.95959 0.71499
 H2322 H 0.54661 1.03101 0.72426
 H2323 H 0.49083 1.01549 0.61836
 H2324 H 0.53078 0.94650 0.61155
 H2325 H 0.52180 1.02431 0.69036
 H2326 H 0.50348 1.01872 0.65820
 C2327 C 0.03533 0.48428 1.18599
 C2328 C 0.03343 0.50841 1.19605
 C2329 C 0.04705 0.51428 1.21584
 C2330 C 0.06271 0.49650 1.22589
 C2331 C 0.06312 0.47201 1.21711
 C2332 C 0.04958 0.46590 1.19738
 C2333 C 0.02332 0.48003 1.16297
 C2334 C 0.02658 0.45788 1.15011
 C2335 C 0.01794 0.45622 1.12748
 C2336 C 0.00533 0.47631 1.11721
 C2337 C 0.00041 0.49773 1.13039
 C2338 C 0.00979 0.49998 1.15291
 C2339 C 0.01889 0.52693 1.18570
 C2340 C 0.00714 0.52272 1.16472
 H2341 H 0.01714 0.54527 1.19363
 H2342 H -0.00329 0.53795 1.15711
 H2343 H 0.04643 0.53318 1.22283
 H2344 H 0.07505 0.45801 1.22466
 H2345 H 0.02196 0.43950 1.11762
 H2346 H -0.00891 0.51354 1.12246
 H2347 H 0.05118 0.44699 1.19089
 H2348 H 0.03676 0.44211 1.15678
 C2349 C -0.04856 -0.03169 1.16125
 C2350 C -0.07379 -0.03436 1.16354
 C2351 C -0.08497 -0.02705 1.18390
 C2352 C -0.07145 -0.01699 1.20211
 C2353 C -0.04642 -0.01559 1.20055
 C2354 C -0.03500 -0.02286 1.18032
 C2355 C -0.03784 -0.03667 1.13812
 C2356 C -0.01330 -0.03275 1.13326
 C2357 C -0.00518 -0.03359 1.11058
 C2358 C -0.02132 -0.03853 1.09242
 C2359 C -0.04511 -0.04498 1.09737
 C2360 C -0.05356 -0.04376 1.11987
 C2361 C -0.08792 -0.04318 1.14516
 C2362 C -0.07801 -0.04782 1.12380
 H2363 H -0.10714 -0.04562 1.14708
 H2364 H -0.08992 -0.05360 1.10984
 H2365 H -0.10437 -0.02825 1.18532
 H2366 H -0.03581 -0.00795 1.21466
 H2367 H 0.01325 -0.02848 1.10709
 H2368 H -0.05762 -0.04897 1.08333
 H2369 H -0.01573 -0.02071 1.17970
 H2370 H -0.00042 -0.02770 1.14652
 C2371 C 0.45173 0.47334 0.66275
 C2372 C 0.42635 0.47271 0.66484
 C2373 C 0.41558 0.48046 0.68529
 C2374 C 0.42966 0.48880 0.70387
 C2375 C 0.45475 0.48828 0.70241
 C2376 C 0.46575 0.48072 0.68204
 C2377 C 0.46226 0.46753 0.63967
 C2378 C 0.48705 0.46954 0.63498
 C2379 C 0.49530 0.46789 0.61236
 C2380 C 0.47903 0.46399 0.59405
 C2381 C 0.45480 0.45936 0.59890
 C2382 C 0.44625 0.46154 0.62132
 C2383 C 0.41177 0.46513 0.64631
 C2384 C 0.42151 0.45958 0.62504
 H2385 H 0.39241 0.46424 0.64806
 H2386 H 0.40934 0.45470 0.61101
 H2387 H 0.39614 0.48055 0.68665
 H2388 H 0.46581 0.49443 0.71683
 H2389 H 0.51406 0.47165 0.60903
 H2390 H 0.44214 0.45618 0.58481
 H2391 H 0.48513 0.48125 0.68158
 H2392 H 0.50013 0.47375 0.64831
 C2393 C 0.46660 0.49598 -0.17317
 C2394 C 0.45080 0.47613 -0.17954
 C2395 C 0.43840 0.47674 -0.20085
 C2396 C 0.44090 0.49732 -0.21560
 C2397 C 0.45770 0.51608 -0.20998
 C2398 C 0.47055 0.51537 -0.18915
 C2399 C 0.47698 0.49634 -0.14912
 C2400 C 0.49185 0.51586 -0.14051
 C2401 C 0.49893 0.51652 -0.11724
 C2402 C 0.49129 0.49782 -0.10207
 C2403 C 0.47765 0.47764 -0.11081
 C2404 C 0.47040 0.47681 -0.13398
 C2405 C 0.44627 0.45665 -0.16404
 C2406 C 0.45583 0.45699 -0.14176
 H2407 H 0.43441 0.44134 -0.16892
 H2408 H 0.45110 0.44187 -0.13019
 H2409 H 0.42525 0.46235 -0.20504
 H2410 H 0.45993 0.53210 -0.22126
 H2411 H 0.50959 0.53217 -0.11095
 H2412 H 0.47204 0.46276 -0.09934
 H2413 H 0.48258 0.53077 -0.18547
 H2414 H 0.49769 0.53110 -0.15129
 C2415 C -0.03189 0.99904 0.32252
 C2416 C -0.04618 0.97791 0.31644
 C2417 C -0.05927 0.97760 0.29553
 C2418 C -0.05894 0.99846 0.28088
 C2419 C -0.04343 1.01854 0.28610
 C2420 C -0.02996 1.01882 0.30657
 C2421 C -0.02089 1.00014 0.34629
 C2422 C -0.00759 1.02095 0.35474
 C2423 C -0.00004 1.02206 0.37786
 C2424 C -0.00570 1.00254 0.39299
 C2425 C -0.01763 0.98121 0.38437
 C2426 C -0.02534 0.97990 0.36139
 C2427 C -0.04856 0.95789 0.33184
 C2428 C -0.03835 0.95887 0.35383
 H2429 H -0.05922 0.94160 0.32714
 H2430 H -0.04142 0.94324 0.36539
 H2431 H -0.07128 0.96210 0.29162
 H2432 H -0.04261 1.03468 0.27477
 H2433 H 0.00933 1.03860 0.38411
 H2434 H -0.02160 0.96573 0.39586
 H2435 H -0.01901 1.03514 0.30999
 H2436 H -0.00342 1.03681 0.34396
 C2437 C 0.04436 0.50721 0.34572
 C2438 C 0.05539 0.48500 0.33747
 C2439 C 0.06865 0.48554 0.31695
 C2440 C 0.07154 0.50815 0.30476
 C2441 C 0.05983 0.52984 0.31264
 C2442 C 0.04641 0.52942 0.33269
 C2443 C 0.03186 0.50637 0.36847
 C2444 C 0.02152 0.52782 0.37864
 C2445 C 0.01245 0.52677 0.40086
 C2446 C 0.01290 0.50429 0.41338
 C2447 C 0.02192 0.48243 0.40307
 C2448 C 0.03162 0.48337 0.38080
 C2449 C 0.05367 0.46261 0.35011
 C2450 C 0.04207 0.46182 0.37125
 H2451 H 0.06190 0.44552 0.34380
 H2452 H 0.04179 0.44415 0.38055
 H2453 H 0.07754 0.46865 0.31101
 H2454 H 0.06113 0.54739 0.30328
 H2455 H 0.00592 0.54389 0.40871
 H2456 H 0.02278 0.46512 0.41294
 H2457 H 0.03813 0.54685 0.33781
 H2458 H 0.02104 0.54584 0.37015
 C2459 C 0.54725 0.00513 -0.15883
 C2460 C 0.55781 -0.01714 -0.16748
 C2461 C 0.57114 -0.01641 -0.18791
 C2462 C 0.57467 0.00640 -0.19958
 C2463 C 0.56348 0.02819 -0.19129
 C2464 C 0.54994 0.02762 -0.17133
 C2465 C 0.53456 0.00400 -0.13622
 C2466 C 0.52436 0.02537 -0.12581
 C2467 C 0.51504 0.02398 -0.10373
 C2468 C 0.51513 0.00125 -0.09161
 C2469 C 0.52401 -0.02051 -0.10214
 C2470 C 0.53387 -0.01926 -0.12432
 C2471 C 0.55561 -0.03977 -0.15530
 C2472 C 0.54397 -0.04080 -0.13420
 H2473 H 0.56352 -0.05689 -0.16192
 H2474 H 0.54334 -0.05865 -0.12524
 H2475 H 0.57956 -0.03340 -0.19416
 H2476 H 0.56526 0.04593 -0.20027
 H2477 H 0.50854 0.04100 -0.09567
 H2478 H 0.52449 -0.03803 -0.09258
 H2479 H 0.54210 0.04513 -0.16585
 H2480 H 0.52413 0.04355 -0.13402
 C2481 C 0.66829 0.58690 -0.00925
 C2482 C 0.66886 0.61035 -0.02067
 C2483 C 0.68972 0.62513 -0.01973
 C2484 C 0.71092 0.61663 -0.00854
 C2485 C 0.71029 0.59351 0.00307
 C2486 C 0.68926 0.57886 0.00282
 C2487 C 0.64538 0.57179 -0.01076
 C2488 C 0.64221 0.54896 0.00109
 C2489 C 0.62020 0.53627 -0.00005
 C2490 C 0.60086 0.54560 -0.01341
 C2491 C 0.60400 0.56788 -0.02588
 C2492 C 0.62585 0.58125 -0.02427
 C2493 C 0.64879 0.61880 -0.03343
 C2494 C 0.62792 0.60445 -0.03543
 H2495 H 0.64933 0.63673 -0.04229
 H2496 H 0.61300 0.61184 -0.04562
 H2497 H 0.68946 0.64330 -0.02819
 H2498 H 0.72627 0.58633 0.01173
 H2499 H 0.61815 0.51919 0.00990
 H2500 H 0.58899 0.57552 -0.03583
 H2501 H 0.68995 0.56106 0.01173
 H2502 H 0.65629 0.54094 0.01180
 C2503 C 0.17284 1.08910 0.48767
 C2504 C 0.17277 1.11373 0.47855
 C2505 C 0.19342 1.12875 0.48046
 C2506 C 0.21498 1.11945 0.49037
 C2507 C 0.21496 1.09522 0.49989
 C2508 C 0.19416 1.08022 0.49866
 C2509 C 0.15019 1.07370 0.48501
 C2510 C 0.14773 1.04947 0.49445
 C2511 C 0.12590 1.03654 0.49252
 C2512 C 0.10604 1.04706 0.48070
 C2513 C 0.10851 1.07074 0.47045
 C2514 C 0.13019 1.08429 0.47291
 C2515 C 0.15231 1.12318 0.46703
 C2516 C 0.13162 1.10871 0.46406
 H2517 H 0.15237 1.14204 0.45994
 H2518 H 0.11636 1.11694 0.45494
 H2519 H 0.19279 1.14771 0.47362
 H2520 H 0.23126 1.08749 0.50755
 H2521 H 0.12434 1.01834 0.50076
 H2522 H 0.09311 1.07925 0.46176
 H2523 H 0.19530 1.06156 0.50589
 H2524 H 0.16221 1.04049 0.50395
 C2525 C 0.16606 -0.08448 1.00346
 C2526 C 0.17842 -0.08281 0.98242
 C2527 C 0.20044 -0.09542 0.97961
 C2528 C 0.21073 -0.10983 0.99746
 C2529 C 0.19932 -0.11029 1.01878
 C2530 C 0.17722 -0.09783 1.02178
 C2531 C 0.14142 -0.07244 1.00488
 C2532 C 0.12659 -0.07427 1.02429
 C2533 C 0.10339 -0.06357 1.02418
 C2534 C 0.09435 -0.05063 1.00478
 C2535 C 0.10924 -0.04848 0.98556
 C2536 C 0.13233 -0.05934 0.98538
 C2537 C 0.16846 -0.06919 0.96397
 C2538 C 0.14606 -0.05757 0.96548
 H2539 H 0.17802 -0.06772 0.94795
 H2540 H 0.13913 -0.04747 0.95058
 H2541 H 0.20926 -0.09476 0.96314
 H2542 H 0.20685 -0.12139 1.03278
 H2543 H 0.09245 -0.06564 1.03929
 H2544 H 0.10271 -0.03867 0.97033
 H2545 H 0.16888 -0.09936 1.03833
 H2546 H 0.13247 -0.08421 1.03957
 C2547 C 0.66687 0.41500 0.50529
 C2548 C 0.67826 0.41539 0.48368
 C2549 C 0.69965 0.40184 0.48034
 C2550 C 0.71044 0.38802 0.49830
 C2551 C 0.69991 0.38860 0.52004
 C2552 C 0.67832 0.40179 0.52352
 C2553 C 0.64306 0.42851 0.50751
 C2554 C 0.62901 0.42791 0.52754
 C2555 C 0.60654 0.44015 0.52821
 C2556 C 0.59759 0.45354 0.50904
 C2557 C 0.61173 0.45441 0.48921
 C2558 C 0.63394 0.44189 0.48820
 C2559 C 0.66817 0.42908 0.46536
 C2560 C 0.64668 0.44225 0.46764
 H2561 H 0.67701 0.42957 0.44890
 H2562 H 0.63965 0.45248 0.45286
 H2563 H 0.70790 0.40184 0.46358
 H2564 H 0.70792 0.37806 0.53417
 H2565 H 0.59609 0.43897 0.54371
 H2566 H 0.60517 0.46437 0.47409
 H2567 H 0.67073 0.40123 0.54046
 H2568 H 0.63491 0.41774 0.54268
 C2569 C -0.16295 0.42238 0.50198
 C2570 C -0.17360 0.41803 0.48014
 C2571 C -0.19464 0.40359 0.47816
 C2572 C -0.20503 0.39234 0.49754
 C2573 C -0.19509 0.39750 0.51928
 C2574 C -0.17436 0.41239 0.52153
 C2575 C -0.13959 0.43668 0.50308
 C2576 C -0.12745 0.44196 0.52388
 C2577 C -0.10540 0.45444 0.52403
 C2578 C -0.09453 0.46209 0.50348
 C2579 C -0.10666 0.45725 0.48259
 C2580 C -0.12908 0.44477 0.48228
 C2581 C -0.16275 0.42727 0.46026
 C2582 C -0.14094 0.44019 0.46129
 H2583 H -0.17098 0.42396 0.44353
 H2584 H -0.13312 0.44650 0.44536
 H2585 H -0.20248 0.40031 0.46125
 H2586 H -0.20263 0.38908 0.53446
 H2587 H -0.09669 0.45780 0.54053
 H2588 H -0.09869 0.46312 0.46659
 H2589 H -0.16715 0.41516 0.53866
 H2590 H -0.13458 0.43650 0.54026
 C2591 C 0.34037 -0.08572 -0.00490
 C2592 C 0.31930 -0.07618 0.00538
 C2593 C 0.29802 -0.09087 0.00557
 C2594 C 0.29796 -0.11535 -0.00361
 C2595 C 0.31988 -0.12540 -0.01129
 C2596 C 0.34060 -0.11083 -0.01222
 C2597 C 0.36198 -0.06901 -0.00678
 C2598 C 0.38209 -0.07536 -0.02008
 C2599 C 0.40231 -0.05978 -0.02050
 C2600 C 0.40319 -0.03767 -0.00743
 C2601 C 0.38272 -0.03055 0.00501
 C2602 C 0.36188 -0.04570 0.00482
 C2603 C 0.31988 -0.05224 0.01549
 C2604 C 0.34092 -0.03771 0.01588
 H2605 H 0.30401 -0.04486 0.02371
 H2606 H 0.34060 -0.01967 0.02451
 H2607 H 0.28153 -0.08304 0.01225
 H2608 H 0.32097 -0.14467 -0.01721
 H2609 H 0.41777 -0.06566 -0.03026
 H2610 H 0.38306 -0.01324 0.01484
 H2611 H 0.35669 -0.11962 -0.01859
 H2612 H 0.38252 -0.09229 -0.03028
 C2613 C 0.34114 1.08031 0.51000
 C2614 C 0.33023 1.07966 0.48779
 C2615 C 0.31025 1.09498 0.48248
 C2616 C 0.30041 1.11098 0.49898
 C2617 C 0.31028 1.11072 0.52136
 C2618 C 0.33048 1.09569 0.52682
 C2619 C 0.36385 1.06505 0.51416
 C2620 C 0.37749 1.06540 0.53494
 C2621 C 0.39944 1.05209 0.53706
 C2622 C 0.40824 1.03808 0.51854
 C2623 C 0.39410 1.03682 0.49829
 C2624 C 0.37249 1.05027 0.49584
 C2625 C 0.33957 1.06412 0.47072
 C2626 C 0.36006 1.04961 0.47472
 H2627 H 0.33106 1.06341 0.45384
 H2628 H 0.36669 1.03817 0.46077
 H2629 H 0.30254 1.09486 0.46523
 H2630 H 0.30300 1.12297 0.53438
 H2631 H 0.40989 1.05348 0.55288
 H2632 H 0.40033 1.02583 0.48387
 H2633 H 0.33776 1.09665 0.54410
 H2634 H 0.37179 1.07638 0.54947
 C2635 C -0.16368 0.57649 1.01418
 C2636 C -0.17468 0.57449 0.99208
 C2637 C -0.19446 0.58974 0.98597
 C2638 C -0.20399 0.60699 1.00155
 C2639 C -0.19409 0.60807 1.02389
 C2640 C -0.17409 0.59311 1.03014
 C2641 C -0.14107 0.56133 1.01909
 C2642 C -0.12730 0.56300 1.03974
 C2643 C -0.10530 0.54990 1.04240
 C2644 C -0.09661 0.53482 1.02455
 C2645 C -0.11092 0.53213 1.00456
 C2646 C -0.13259 0.54535 1.00156
 C2647 C -0.16557 0.55773 0.97589
 C2648 C -0.14514 0.54334 0.98059
 H2649 H -0.17416 0.55598 0.95911
 H2650 H -0.13864 0.53097 0.96725
 H2651 H -0.20220 0.58862 0.96876
 H2652 H -0.20115 0.62132 1.03620
 H2653 H -0.09464 0.55240 1.05798
 H2654 H -0.10467 0.52028 0.99071
 H2655 H -0.16674 0.59514 1.04732
 H2656 H -0.13289 0.57491 1.05369
 C2657 C 0.00926 0.67411 0.59796
 C2658 C 0.01236 0.67250 0.62212
 C2659 C 0.01004 0.69413 0.63564
 C2660 C 0.00475 0.71733 0.62529
 C2661 C 0.00304 0.71907 0.60133
 C2662 C 0.00530 0.69780 0.58778
 C2663 C 0.00986 0.65048 0.58425
 C2664 C 0.00445 0.64999 0.56052
 C2665 C 0.00377 0.62734 0.54869
 C2666 C 0.00875 0.60472 0.56012
 C2667 C 0.01476 0.60495 0.58360
 C2668 C 0.01489 0.62760 0.59584
 C2669 C 0.01747 0.64932 0.63257
 C2670 C 0.01902 0.62735 0.61965
 H2671 H 0.02015 0.64812 0.65103
 H2672 H 0.02283 0.60980 0.62851
 H2673 H 0.01172 0.69283 0.65420
 H2674 H 0.00003 0.73701 0.59292
 H2675 H -0.00086 0.62751 0.53053
 H2676 H 0.01827 0.58739 0.59258
 H2677 H 0.00384 0.70041 0.56945
 H2678 H 0.00003 0.66670 0.55083
 C2679 C 0.50729 0.17087 0.09543
 C2680 C 0.51185 0.16767 0.11928
 C2681 C 0.50995 0.18819 0.13417
 C2682 C 0.50382 0.21199 0.12558
 C2683 C 0.50056 0.21540 0.10186
 C2684 C 0.50225 0.19513 0.08692
 C2685 C 0.50768 0.14823 0.08035
 C2686 C 0.50106 0.14903 0.05686
 C2687 C 0.50046 0.12710 0.04381
 C2688 C 0.50670 0.10399 0.05381
 C2689 C 0.51378 0.10307 0.07705
 C2690 C 0.51391 0.12483 0.09043
 C2691 C 0.51805 0.14402 0.12815
 C2692 C 0.51936 0.12307 0.11395
 H2693 H 0.52182 0.14165 0.14636
 H2694 H 0.52409 0.10509 0.12161
 H2695 H 0.51264 0.18548 0.15250
 H2696 H 0.49680 0.23384 0.09473
 H2697 H 0.49490 0.12820 0.02590
 H2698 H 0.51826 0.08519 0.08505
 H2699 H 0.49956 0.19892 0.06886
 H2700 H 0.49572 0.16622 0.04834
 C2701 C -0.00883 0.17080 0.94118
 C2702 C 0.01383 0.18289 0.94167
 C2703 C 0.01858 0.20206 0.92595
 C2704 C 0.00092 0.20943 0.90993
 C2705 C -0.02234 0.19966 0.91122
 C2706 C -0.02726 0.18051 0.92677
 C2707 C -0.01142 0.14694 0.95442
 C2708 C -0.03136 0.13089 0.95143
 C2709 C -0.03112 0.10684 0.96093
 C2710 C -0.01129 0.09854 0.97404
 C2711 C 0.00775 0.11508 0.97870
 C2712 C 0.00821 0.13883 0.96839
 C2713 C 0.03203 0.17478 0.95686
 C2714 C 0.02907 0.15342 0.97034
 H2715 H 0.04912 0.18453 0.95770
 H2716 H 0.04398 0.14730 0.98123
 H2717 H 0.03641 0.21022 0.92519
 H2718 H -0.03627 0.20558 0.89912
 H2719 H -0.04614 0.09441 0.95741
 H2720 H 0.02323 0.10868 0.98871
 H2721 H -0.04522 0.17288 0.92655
 H2722 H -0.04669 0.13593 0.94078
 C2723 C 0.49412 0.67521 0.44471
 C2724 C 0.51715 0.68584 0.44166
 C2725 C 0.52077 0.70290 0.42373
 C2726 C 0.50173 0.70933 0.40878
 C2727 C 0.47845 0.70113 0.41342
 C2728 C 0.47458 0.68431 0.43132
 C2729 C 0.49212 0.65302 0.46026
 C2730 C 0.47126 0.63810 0.46079
 C2731 C 0.47182 0.61467 0.47140
 C2732 C 0.49281 0.60599 0.48239
 C2733 C 0.51288 0.62175 0.48415
 C2734 C 0.51299 0.64481 0.47245
 C2735 C 0.53666 0.67819 0.45551
 C2736 C 0.53451 0.65829 0.47092
 H2737 H 0.55412 0.68690 0.45364
 H2738 H 0.55039 0.65222 0.48049
 H2739 H 0.53867 0.71005 0.42056
 H2740 H 0.46346 0.70642 0.40228
 H2741 H 0.45617 0.60275 0.46996
 H2742 H 0.52924 0.61490 0.49246
 H2743 H 0.45642 0.67786 0.43368
 H2744 H 0.45488 0.64324 0.45177
 C2745 C 0.50865 0.83414 0.41199
 C2746 C 0.50009 0.81162 0.42192
 C2747 C 0.49989 0.78938 0.40921
 C2748 C 0.50769 0.78919 0.38649
 C2749 C 0.51559 0.81155 0.37640
 C2750 C 0.51607 0.83382 0.38896
 C2751 C 0.50920 0.85732 0.42643
 C2752 C 0.51863 0.88037 0.41870
 C2753 C 0.51826 0.90157 0.43275
 C2754 C 0.50839 0.90024 0.45470
 C2755 C 0.49954 0.87729 0.46274
 C2756 C 0.50003 0.85588 0.44893
 C2757 C 0.49176 0.81135 0.44446
 C2758 C 0.49147 0.83312 0.45761
 H2759 H 0.48514 0.79409 0.45198
 H2760 H 0.48459 0.83207 0.47490
 H2761 H 0.49418 0.77208 0.41731
 H2762 H 0.52137 0.81182 0.35871
 H2763 H 0.52527 0.91914 0.42625
 H2764 H 0.49228 0.87603 0.47989
 H2765 H 0.52222 0.85049 0.38030
 H2766 H 0.52635 0.88246 0.40194
 C2767 C 0.00958 0.33771 0.91214
 C2768 C -0.01220 0.32554 0.90599
 C2769 C -0.01170 0.30319 0.89340
 C2770 C 0.01020 0.29207 0.88761
 C2771 C 0.03179 0.30406 0.89382
 C2772 C 0.03152 0.32667 0.90581
 C2773 C 0.00833 0.36114 0.92614
 C2774 C 0.02885 0.37538 0.93210
 C2775 C 0.02690 0.39622 0.94641
 C2776 C 0.00454 0.40315 0.95514
 C2777 C -0.01611 0.38979 0.94857
 C2778 C -0.01443 0.36909 0.93393
 C2779 C -0.03428 0.33521 0.91313
 C2780 C -0.03535 0.35632 0.92716
 H2781 H -0.05094 0.32586 0.90840
 H2782 H -0.05280 0.36270 0.93285
 H2783 H -0.02845 0.29431 0.88843
 H2784 H 0.04902 0.29561 0.89006
 H2785 H 0.04301 0.40656 0.95112
 H2786 H -0.03354 0.39558 0.95483
 H2787 H 0.04869 0.33469 0.91053
 H2788 H 0.04653 0.37076 0.92601
 C2789 C 0.49709 0.33256 0.08121
 C2790 C 0.51915 0.32106 0.08777
 C2791 C 0.51947 0.30230 0.10458
 C2792 C 0.49801 0.29459 0.11453
 C2793 C 0.47600 0.30408 0.10645
 C2794 C 0.47547 0.32294 0.08988
 C2795 C 0.49786 0.35528 0.06629
 C2796 C 0.47755 0.37070 0.06241
 C2797 C 0.47966 0.39320 0.05047
 C2798 C 0.50188 0.40050 0.04179
 C2799 C 0.52200 0.38490 0.04468
 C2800 C 0.52033 0.36274 0.05748
 C2801 C 0.54074 0.32889 0.07806
 C2802 C 0.54123 0.34901 0.06275
 H2803 H 0.55754 0.31964 0.08267
 H2804 H 0.55840 0.35472 0.05594
 H2805 H 0.53642 0.29418 0.11044
 H2806 H 0.45926 0.29780 0.11380
 H2807 H 0.46392 0.40509 0.04822
 H2808 H 0.53928 0.39083 0.03821
 H2809 H 0.45807 0.33006 0.08453
 H2810 H 0.46014 0.36631 0.06922
 C2811 C -0.00035 0.83018 0.56802
 C2812 C 0.02149 0.81902 0.57568
 C2813 C 0.02138 0.80205 0.59400
 C2814 C -0.00027 0.79608 0.60457
 C2815 C -0.02210 0.80459 0.59519
 C2816 C -0.02222 0.82145 0.57693
 C2817 C 0.00095 0.85232 0.55247
 C2818 C -0.01908 0.86796 0.54809
 C2819 C -0.01625 0.89083 0.53694
 C2820 C 0.00642 0.89819 0.52942
 C2821 C 0.02615 0.88204 0.53205
 C2822 C 0.02378 0.85955 0.54427
 C2823 C 0.04333 0.82598 0.56593
 C2824 C 0.04437 0.84555 0.55008
 H2825 H 0.05995 0.81683 0.57129
 H2826 H 0.06178 0.85095 0.54360
 H2827 H 0.03818 0.79453 0.60086
 H2828 H -0.03900 0.79948 0.60294
 H2829 H -0.03171 0.90310 0.53467
 H2830 H 0.04372 0.88798 0.52633
 H2831 H -0.03947 0.82817 0.57073
 H2832 H -0.03679 0.86367 0.55424
 C2833 C 0.24151 0.28721 0.07278
 C2834 C 0.22318 0.30364 0.06448
 C2835 C 0.22660 0.31772 0.04432
 C2836 C 0.24850 0.31651 0.03281
 C2837 C 0.26612 0.29933 0.04035
 C2838 C 0.26264 0.28468 0.05994
 C2839 C 0.23839 0.27489 0.09580
 C2840 C 0.25585 0.25887 0.10600
 C2841 C 0.25349 0.25052 0.12867
 C2842 C 0.23368 0.25788 0.14169
 C2843 C 0.21537 0.27228 0.13110
 C2844 C 0.21759 0.28084 0.10840
 C2845 C 0.20225 0.30721 0.07713
 C2846 C 0.19959 0.29619 0.09869
 H2847 H 0.18813 0.31959 0.07072
 H2848 H 0.18348 0.30041 0.10821
 H2849 H 0.21303 0.33119 0.03871
 H2850 H 0.28310 0.29800 0.03156
 H2851 H 0.26781 0.23932 0.13636
 H2852 H 0.19976 0.27774 0.14087
 H2853 H 0.27717 0.27240 0.06528
 H2854 H 0.27181 0.25320 0.09706
 C2855 C 0.74725 0.78998 0.57231
 C2856 C 0.72892 0.80647 0.56412
 C2857 C 0.73221 0.82050 0.54390
 C2858 C 0.75397 0.81917 0.53218
 C2859 C 0.77169 0.80209 0.53972
 C2860 C 0.76834 0.78749 0.55937
 C2861 C 0.74413 0.77742 0.59523
 C2862 C 0.76147 0.76112 0.60522
 C2863 C 0.75896 0.75228 0.62773
 C2864 C 0.73913 0.75944 0.64081
 C2865 C 0.72100 0.77427 0.63044
 C2866 C 0.72334 0.78328 0.60790
 C2867 C 0.70807 0.81007 0.57689
 C2868 C 0.70542 0.79888 0.59837
 H2869 H 0.69397 0.82254 0.57059
 H2870 H 0.68934 0.80305 0.60795
 H2871 H 0.71859 0.83393 0.53832
 H2872 H 0.78858 0.80068 0.53078
 H2873 H 0.77316 0.74077 0.63525
 H2874 H 0.70537 0.77960 0.64025
 H2875 H 0.78288 0.77520 0.56465
 H2876 H 0.77741 0.75552 0.59622
 C2877 C 0.22865 0.70530 0.58055
 C2878 C 0.21968 0.68091 0.57570
 C2879 C 0.22568 0.66880 0.55514
 C2880 C 0.24157 0.68001 0.53983
 C2881 C 0.25051 0.70406 0.54448
 C2882 C 0.24392 0.71677 0.56448
 C2883 C 0.22325 0.71675 0.60350
 C2884 C 0.23050 0.74123 0.60987
 C2885 C 0.22826 0.74949 0.63258
 C2886 C 0.21886 0.73352 0.64933
 C2887 C 0.20958 0.71010 0.64271
 C2888 C 0.21142 0.70175 0.61993
 C2889 C 0.20610 0.66808 0.59200
 C2890 C 0.20250 0.67804 0.61381
 H2891 H 0.19920 0.64945 0.58826
 H2892 H 0.19299 0.66678 0.62625
 H2893 H 0.21919 0.64993 0.55170
 H2894 H 0.26303 0.71277 0.53285
 H2895 H 0.23560 0.76762 0.63743
 H2896 H 0.20220 0.69776 0.65566
 H2897 H 0.25174 0.73503 0.56753
 H2898 H 0.23872 0.75385 0.59780
 C2899 C 0.72076 0.19387 0.08568
 C2900 C 0.72143 0.16734 0.08333
 C2901 C 0.72885 0.15635 0.06270
 C2902 C 0.73564 0.17129 0.04410
 C2903 C 0.73378 0.19749 0.04579
 C2904 C 0.72651 0.20874 0.06639
 C2905 C 0.71524 0.20469 0.10899
 C2906 C 0.71585 0.23071 0.11397
 C2907 C 0.71414 0.23935 0.13671
 C2908 C 0.71162 0.22227 0.15490
 C2909 C 0.70869 0.19667 0.14978
 C2910 C 0.71084 0.18775 0.12723
 C2911 C 0.71552 0.15182 0.10182
 C2912 C 0.71026 0.16180 0.12325
 H2913 H 0.71567 0.13154 0.09988
 H2914 H 0.70663 0.14889 0.13719
 H2915 H 0.72994 0.13604 0.06123
 H2916 H 0.73875 0.20926 0.03144
 H2917 H 0.71666 0.25918 0.14023
 H2918 H 0.70667 0.18333 0.16374
 H2919 H 0.72601 0.22901 0.06705
 H2920 H 0.71888 0.24451 0.10074
 C2921 C 0.74557 0.20610 0.91934
 C2922 C 0.76667 0.20718 0.93320
 C2923 C 0.76760 0.19469 0.95454
 C2924 C 0.74783 0.18076 0.96238
 C2925 C 0.72638 0.18125 0.94943
 C2926 C 0.72520 0.19376 0.92820
 C2927 C 0.74632 0.21717 0.89550
 C2928 C 0.72708 0.21497 0.87963
 C2929 C 0.72931 0.22351 0.85709
 C2930 C 0.75060 0.23486 0.84957
 C2931 C 0.76959 0.23824 0.86548
 C2932 C 0.76774 0.22905 0.88822
 C2933 C 0.78704 0.21987 0.92529
 C2934 C 0.78749 0.23072 0.90341
 H2935 H 0.80311 0.22097 0.93603
 H2936 H 0.80387 0.23986 0.89804
 H2937 H 0.78416 0.19487 0.96464
 H2938 H 0.71091 0.17071 0.95507
 H2939 H 0.71424 0.22091 0.84529
 H2940 H 0.78617 0.24680 0.85986
 H2941 H 0.70840 0.19285 0.91869
 H2942 H 0.71038 0.20608 0.88405
 C2943 C 0.24558 0.70565 0.41746
 C2944 C 0.26724 0.70510 0.43052
 C2945 C 0.26844 0.69162 0.45126
 C2946 C 0.24846 0.67818 0.45924
 C2947 C 0.22658 0.68006 0.44714
 C2948 C 0.22509 0.69363 0.42647
 C2949 C 0.24588 0.71797 0.39418
 C2950 C 0.22586 0.71779 0.37910
 C2951 C 0.22767 0.72706 0.35679
 C2952 C 0.24934 0.73711 0.34882
 C2953 C 0.26908 0.73882 0.36404
 C2954 C 0.26761 0.72893 0.38652
 C2955 C 0.28784 0.71717 0.42243
 C2956 C 0.28800 0.72891 0.40097
 H2957 H 0.30435 0.71698 0.43262
 H2958 H 0.30458 0.73741 0.39530
 H2959 H 0.28532 0.69080 0.46087
 H2960 H 0.21092 0.67005 0.45306
 H2961 H 0.21205 0.72584 0.34546
 H2962 H 0.28591 0.74643 0.35799
 H2963 H 0.20794 0.69385 0.41755
 H2964 H 0.20883 0.70987 0.38391
 C2965 C 0.74011 0.81021 0.40887
 C2966 C 0.74281 0.83668 0.41028
 C2967 C 0.74740 0.84824 0.43152
 C2968 C 0.74908 0.83402 0.45171
 C2969 C 0.74502 0.80805 0.45072
 C2970 C 0.74072 0.79617 0.42951
 C2971 C 0.73759 0.79849 0.38536
 C2972 C 0.73682 0.77224 0.38149
 C2973 C 0.73683 0.76247 0.35902
 C2974 C 0.73750 0.77868 0.33999
 C2975 C 0.73675 0.80474 0.34380
 C2976 C 0.73723 0.81469 0.36604
 C2977 C 0.74151 0.85153 0.39045
 C2978 C 0.73856 0.84079 0.36884
 H2979 H 0.74325 0.87179 0.39161
 H2980 H 0.73814 0.85312 0.35399
 H2981 H 0.75019 0.86841 0.43236
 H2982 H 0.74613 0.79683 0.46625
 H2983 H 0.73741 0.74229 0.35659
 H2984 H 0.73690 0.81754 0.32927
 H2985 H 0.73834 0.77604 0.42953
 H2986 H 0.73705 0.75901 0.39556
 C2987 C 0.23711 0.31058 0.90953
 C2988 C 0.24067 0.33692 0.91119
 C2989 C 0.24475 0.34821 0.93264
 C2990 C 0.24507 0.33385 0.95279
 C2991 C 0.24011 0.30806 0.95150
 C2992 C 0.23631 0.29645 0.93008
 C2993 C 0.23524 0.29906 0.88591
 C2994 C 0.23374 0.27287 0.88188
 C2995 C 0.23437 0.26319 0.85940
 C2996 C 0.23641 0.27943 0.84050
 C2997 C 0.23642 0.30549 0.84441
 C2998 C 0.23628 0.31533 0.86669
 C2999 C 0.24072 0.35188 0.89142
 C3000 C 0.23835 0.34135 0.86967
 H3001 H 0.24308 0.37206 0.89276
 H3002 H 0.23898 0.35375 0.85489
 H3003 H 0.24818 0.36826 0.93368
 H3004 H 0.24014 0.29674 0.96698
 H3005 H 0.23429 0.24302 0.85689
 H3006 H 0.23760 0.31834 0.82998
 H3007 H 0.23319 0.27643 0.92991
 H3008 H 0.23289 0.25958 0.89587
 C3009 C 0.85321 0.41528 0.76840
 C3010 C 0.84619 0.43646 0.75502
 C3011 C 0.86101 0.45802 0.75427
 C3012 C 0.88311 0.45858 0.76633
 C3013 C 0.89062 0.43675 0.77820
 C3014 C 0.87592 0.41556 0.77937
 C3015 C 0.83641 0.39316 0.76974
 C3016 C 0.84059 0.37224 0.78431
 C3017 C 0.82493 0.35159 0.78407
 C3018 C 0.80484 0.35118 0.76920
 C3019 C 0.79995 0.37247 0.75546
 C3020 C 0.81529 0.39348 0.75588
 C3021 C 0.82449 0.43590 0.74243
 C3022 C 0.80966 0.41472 0.74248
 H3023 H 0.81908 0.45194 0.73203
 H3024 H 0.79334 0.41508 0.73202
 H3025 H 0.85500 0.47452 0.74482
 H3026 H 0.90797 0.43605 0.78691
 H3027 H 0.82911 0.33546 0.79483
 H3028 H 0.78424 0.37256 0.74415
 H3029 H 0.88272 0.39953 0.78887
 H3030 H 0.85595 0.37140 0.79587
 C3031 C 0.35144 0.91646 0.26528
 C3032 C 0.34368 0.93796 0.25273
 C3033 C 0.35838 0.95959 0.25175
 C3034 C 0.38109 0.95988 0.26271
 C3035 C 0.38930 0.93772 0.27360
 C3036 C 0.37474 0.91647 0.27504
 C3037 C 0.33480 0.89429 0.26704
 C3038 C 0.33974 0.87311 0.28109
 C3039 C 0.32415 0.85242 0.28123
 C3040 C 0.30338 0.85223 0.26725
 C3041 C 0.29775 0.87376 0.25408
 C3042 C 0.31301 0.89483 0.25418
 C3043 C 0.32135 0.93762 0.24118
 C3044 C 0.30663 0.91636 0.24148
 H3045 H 0.31536 0.95389 0.23139
 H3046 H 0.28980 0.91689 0.23180
 H3047 H 0.35184 0.97634 0.24300
 H3048 H 0.40712 0.93681 0.28137
 H3049 H 0.32887 0.83611 0.29155
 H3050 H 0.28150 0.87399 0.24350
 H3051 H 0.38209 0.90019 0.28376
 H3052 H 0.35563 0.87212 0.29196
 C3053 C 0.15775 0.92070 0.74282
 C3054 C 0.15671 0.93258 0.76456
 C3055 C 0.14195 0.95374 0.76766
 C3056 C 0.12825 0.96370 0.74936
 C3057 C 0.13030 0.95292 0.72750
 C3058 C 0.14478 0.93160 0.72423
 C3059 C 0.17228 0.89684 0.74083
 C3060 C 0.17302 0.88217 0.72064
 C3061 C 0.18596 0.85946 0.72016
 C3062 C 0.19868 0.85086 0.73972
 C3063 C 0.19835 0.86566 0.75972
 C3064 C 0.18512 0.88816 0.76052
 C3065 C 0.17007 0.92307 0.78324
 C3066 C 0.18415 0.90153 0.78120
 H3067 H 0.16947 0.93233 0.79980
 H3068 H 0.19401 0.89488 0.79626
 H3069 H 0.14079 0.96228 0.78452
 H3070 H 0.11988 0.96034 0.71312
 H3071 H 0.18572 0.84847 0.70450
 H3072 H 0.20785 0.85932 0.77509
 H3073 H 0.14531 0.92372 0.70717
 H3074 H 0.16334 0.88767 0.70520
 C3075 C 0.65714 0.41722 0.24295
 C3076 C 0.65924 0.43106 0.26368
 C3077 C 0.64539 0.45282 0.26690
 C3078 C 0.62947 0.46146 0.24970
 C3079 C 0.62838 0.44876 0.22862
 C3080 C 0.64198 0.42681 0.22526
 C3081 C 0.67080 0.39277 0.24115
 C3082 C 0.66864 0.37628 0.22222
 C3083 C 0.68101 0.35320 0.22202
 C3084 C 0.69599 0.34604 0.24062
 C3085 C 0.69845 0.36262 0.25931
 C3086 C 0.68590 0.38551 0.25985
 C3087 C 0.67474 0.42287 0.28135
 C3088 C 0.68796 0.40075 0.27937
 H3089 H 0.67653 0.43363 0.29709
 H3090 H 0.69956 0.39517 0.29366
 H3091 H 0.64651 0.46281 0.28312
 H3092 H 0.61617 0.45516 0.21513
 H3093 H 0.67863 0.34084 0.20739
 H3094 H 0.70980 0.35749 0.27392
 H3095 H 0.64006 0.41737 0.20893
 H3096 H 0.65717 0.38068 0.20761
 C3097 C 0.66027 0.58881 0.25341
 C3098 C 0.63639 0.59276 0.26060
 C3099 C 0.61942 0.57343 0.25862
 C3100 C 0.62595 0.54937 0.25086
 C3101 C 0.64939 0.54556 0.24305
 C3102 C 0.66635 0.56508 0.24416
 C3103 C 0.67794 0.61003 0.25641
 C3104 C 0.70178 0.60889 0.24856
 C3105 C 0.71699 0.62974 0.25060
 C3106 C 0.70910 0.65197 0.26110
 C3107 C 0.68582 0.65295 0.26985
 C3108 C 0.67007 0.63250 0.26710
 C3109 C 0.62967 0.61562 0.27061
 C3110 C 0.64621 0.63491 0.27407
 H3111 H 0.61138 0.61851 0.27623
 H3112 H 0.64011 0.65216 0.28204
 H3113 H 0.60119 0.57683 0.26420
 H3114 H 0.65496 0.52717 0.23716
 H3115 H 0.73478 0.62878 0.24333
 H3116 H 0.67935 0.67034 0.27729
 H3117 H 0.68431 0.56095 0.23849
 H3118 H 0.70871 0.59244 0.24007
 C3119 C 0.15590 0.09264 0.75651
 C3120 C 0.16308 0.07013 0.74555
 C3121 C 0.14700 0.04963 0.74389
 C3122 C 0.12351 0.05177 0.75229
 C3123 C 0.11596 0.07516 0.76091
 C3124 C 0.13188 0.09516 0.76322
 C3125 C 0.17388 0.11333 0.75966
 C3126 C 0.16951 0.13464 0.77339
 C3127 C 0.18611 0.15426 0.77459
 C3128 C 0.20736 0.15328 0.76199
 C3129 C 0.21259 0.13137 0.74944
 C3130 C 0.19625 0.11116 0.74868
 C3131 C 0.18612 0.06851 0.73617
 C3132 C 0.20205 0.08887 0.73707
 H3133 H 0.19168 0.05150 0.72749
 H3134 H 0.21933 0.08697 0.72891
 H3135 H 0.15298 0.03195 0.73668
 H3136 H 0.09762 0.07794 0.76640
 H3137 H 0.18167 0.17086 0.78444
 H3138 H 0.22919 0.13024 0.73997
 H3139 H 0.12501 0.11252 0.77016
 H3140 H 0.15328 0.13656 0.78317
 C3141 C 0.33839 0.08683 0.24164
 C3142 C 0.33774 0.07464 0.26332
 C3143 C 0.35400 0.05515 0.26873
 C3144 C 0.37090 0.04701 0.25279
 C3145 C 0.37076 0.05795 0.23082
 C3146 C 0.35481 0.07775 0.22531
 C3147 C 0.32196 0.10919 0.23752
 C3148 C 0.32213 0.12427 0.21743
 C3149 C 0.30756 0.14599 0.21547
 C3150 C 0.29243 0.15308 0.23346
 C3151 C 0.29144 0.13740 0.25291
 C3152 C 0.30614 0.11608 0.25525
 C3153 C 0.32121 0.08224 0.27979
 C3154 C 0.30561 0.10229 0.27575
 H3155 H 0.32051 0.07270 0.29624
 H3156 H 0.29338 0.10758 0.28924
 H3157 H 0.35383 0.04653 0.28563
 H3158 H 0.38370 0.05191 0.21825
 H3159 H 0.30876 0.15766 0.20027
 H3160 H 0.27964 0.14228 0.26688
 H3161 H 0.35581 0.08599 0.20839
 H3162 H 0.33389 0.11996 0.20339
 C3163 C 0.84126 0.58476 0.74030
 C3164 C 0.83786 0.57113 0.76097
 C3165 C 0.85386 0.55178 0.76748
 C3166 C 0.87313 0.54518 0.75355
 C3167 C 0.87579 0.55752 0.73242
 C3168 C 0.86014 0.57720 0.72588
 C3169 C 0.82499 0.60703 0.73529
 C3170 C 0.82779 0.62357 0.71641
 C3171 C 0.81335 0.64533 0.71396
 C3172 C 0.79576 0.65095 0.73022
 C3173 C 0.79204 0.63373 0.74816
 C3174 C 0.80659 0.61238 0.75107
 C3175 C 0.81885 0.57719 0.77540
 C3176 C 0.80341 0.59715 0.77042
 H3177 H 0.81605 0.56653 0.79101
 H3178 H 0.78921 0.60127 0.78241
 H3179 H 0.85165 0.54213 0.78374
 H3180 H 0.89063 0.55265 0.72143
 H3181 H 0.81668 0.65827 0.70000
 H3182 H 0.77830 0.63758 0.76071
 H3183 H 0.86332 0.58657 0.70975
 H3184 H 0.84157 0.62045 0.70387
 C3185 C 0.91507 0.75516 0.16794
 C3186 C 0.92925 0.73305 0.16878
 C3187 C 0.94960 0.73109 0.15516
 C3188 C 0.95661 0.75120 0.14124
 C3189 C 0.94300 0.77341 0.14099
 C3190 C 0.92244 0.77539 0.15413
 C3191 C 0.89277 0.75598 0.18173
 C3192 C 0.87614 0.77591 0.18000
 C3193 C 0.85483 0.77511 0.19205
 C3194 C 0.84982 0.75473 0.20643
 C3195 C 0.86651 0.73513 0.20888
 C3196 C 0.88764 0.73530 0.19620
 C3197 C 0.92320 0.71314 0.18332
 C3198 C 0.90302 0.71443 0.19708
 H3199 H 0.93428 0.69634 0.18413
 H3200 H 0.89901 0.69855 0.20806
 H3201 H 0.95984 0.71375 0.15541
 H3202 H 0.94847 0.78954 0.13100
 H3203 H 0.84199 0.79029 0.18974
 H3204 H 0.86240 0.71908 0.21964
 H3205 H 0.91286 0.79304 0.15343
 H3206 H 0.87875 0.79185 0.16887
 C3207 C 0.41686 0.25705 0.67164
 C3208 C 0.43062 0.23467 0.67103
 C3209 C 0.45078 0.23328 0.65706
 C3210 C 0.45785 0.25414 0.64409
 C3211 C 0.44478 0.27662 0.64548
 C3212 C 0.42452 0.27811 0.65906
 C3213 C 0.39453 0.25724 0.68540
 C3214 C 0.37826 0.27755 0.68484
 C3215 C 0.35677 0.27616 0.69651
 C3216 C 0.35117 0.25478 0.70937
 C3217 C 0.36753 0.23478 0.71082
 C3218 C 0.38890 0.23559 0.69844
 C3219 C 0.42422 0.21386 0.68435
 C3220 C 0.40397 0.21447 0.69809
 H3221 H 0.43499 0.19684 0.68410
 H3222 H 0.39962 0.19787 0.70801
 H3223 H 0.46073 0.21578 0.65611
 H3224 H 0.45039 0.29330 0.63635
 H3225 H 0.34420 0.29168 0.69508
 H3226 H 0.36297 0.21801 0.72043
 H3227 H 0.41535 0.29598 0.65958
 H3228 H 0.38126 0.29430 0.67485
 C3229 C 0.41976 0.74061 0.79459
 C3230 C 0.43300 0.76319 0.79286
 C3231 C 0.45287 0.76715 0.80739
 C3232 C 0.45955 0.74885 0.82356
 C3233 C 0.44859 0.72523 0.82309
 C3234 C 0.42887 0.72102 0.80858
 C3235 C 0.39547 0.73964 0.78344
 C3236 C 0.37885 0.72052 0.78836
 C3237 C 0.35502 0.72267 0.78100
 C3238 C 0.34739 0.74353 0.76809
 C3239 C 0.36414 0.76174 0.76164
 C3240 C 0.38789 0.76039 0.76983
 C3241 C 0.42531 0.78234 0.77792
 C3242 C 0.40335 0.78070 0.76620
 H3243 H 0.43590 0.79929 0.77606
 H3244 H 0.39764 0.79642 0.75554
 H3245 H 0.46199 0.78517 0.80743
 H3246 H 0.45399 0.71073 0.83522
 H3247 H 0.34239 0.70826 0.78594
 H3248 H 0.35828 0.77800 0.75173
 H3249 H 0.42031 0.70287 0.80949
 H3250 H 0.38348 0.70449 0.79892
 C3251 C 0.91958 0.24915 0.29228
 C3252 C 0.92844 0.27361 0.29641
 C3253 C 0.94670 0.27724 0.31278
 C3254 C 0.95675 0.25671 0.32476
 C3255 C 0.95056 0.23221 0.31789
 C3256 C 0.93197 0.22845 0.30191
 C3257 C 0.89618 0.24667 0.27967
 C3258 C 0.88270 0.22428 0.28004
 C3259 C 0.85891 0.22417 0.27221
 C3260 C 0.84847 0.24610 0.26319
 C3261 C 0.86230 0.26783 0.26081
 C3262 C 0.88569 0.26862 0.26990
 C3263 C 0.91814 0.29438 0.28516
 C3264 C 0.89750 0.29178 0.27155
 H3265 H 0.92557 0.31302 0.28764
 H3266 H 0.88957 0.30851 0.26388
 H3267 H 0.95253 0.29622 0.31675
 H3268 H 0.95820 0.21584 0.32635
 H3269 H 0.84837 0.20717 0.27394
 H3270 H 0.85400 0.28488 0.25410
 H3271 H 0.92687 0.20932 0.29807
 H3272 H 0.88959 0.20720 0.28775
 C3273 C 0.07920 0.24864 0.32413
 C3274 C 0.07867 0.25961 0.34623
 C3275 C 0.05668 0.26300 0.35712
 C3276 C 0.03508 0.25654 0.34585
 C3277 C 0.03561 0.24643 0.32369
 C3278 C 0.05738 0.24241 0.31295
 C3279 C 0.10290 0.24518 0.31309
 C3280 C 0.10534 0.23250 0.29208
 C3281 C 0.12754 0.23111 0.28164
 C3282 C 0.14784 0.24225 0.29191
 C3283 C 0.14590 0.25384 0.31341
 C3284 C 0.12363 0.25507 0.32421
 C3285 C 0.09997 0.26780 0.35699
 C3286 C 0.12196 0.26605 0.34598
 H3287 H 0.09952 0.27633 0.37388
 H3288 H 0.13789 0.27329 0.35466
 H3289 H 0.05640 0.27082 0.37430
 H3290 H 0.01915 0.24216 0.31431
 H3291 H 0.12864 0.22175 0.26517
 H3292 H 0.16169 0.26192 0.32171
 H3293 H 0.05659 0.23507 0.29570
 H3294 H 0.09041 0.22355 0.28336
 C3295 C 0.58380 0.74373 0.82338
 C3296 C 0.58321 0.75540 0.84519
 C3297 C 0.56122 0.75879 0.85610
 C3298 C 0.53969 0.75153 0.84516
 C3299 C 0.54027 0.74059 0.82334
 C3300 C 0.56203 0.73661 0.81258
 C3301 C 0.60746 0.74057 0.81219
 C3302 C 0.60999 0.72761 0.79132
 C3303 C 0.63208 0.72668 0.78064
 C3304 C 0.65219 0.73855 0.79053
 C3305 C 0.65022 0.75033 0.81195
 C3306 C 0.62805 0.75119 0.82295
 C3307 C 0.60441 0.76429 0.85561
 C3308 C 0.62635 0.76265 0.84450
 H3309 H 0.60392 0.77331 0.87229
 H3310 H 0.64220 0.77046 0.85290
 H3311 H 0.56088 0.76725 0.87303
 H3312 H 0.52385 0.73564 0.81420
 H3313 H 0.63323 0.71712 0.76427
 H3314 H 0.66587 0.75898 0.81999
 H3315 H 0.56126 0.72860 0.79558
 H3316 H 0.59519 0.71814 0.78287
 C3317 C 0.58325 0.25620 0.68207
 C3318 C 0.57073 0.27904 0.67824
 C3319 C 0.54944 0.27903 0.66508
 C3320 C 0.54032 0.25640 0.65638
 C3321 C 0.55110 0.23356 0.66266
 C3322 C 0.57240 0.23340 0.67545
 C3323 C 0.60794 0.25733 0.69215
 C3324 C 0.62372 0.23662 0.69162
 C3325 C 0.64712 0.23883 0.70003
 C3326 C 0.65510 0.26149 0.70960
 C3327 C 0.63965 0.28233 0.71013
 C3328 C 0.61639 0.28064 0.70070
 C3329 C 0.57998 0.30164 0.68693
 C3330 C 0.60206 0.30227 0.69864
 H3331 H 0.57009 0.31907 0.68451
 H3332 H 0.60857 0.32017 0.70507
 H3333 H 0.54057 0.29663 0.66071
 H3334 H 0.54399 0.21588 0.65634
 H3335 H 0.65896 0.22266 0.69928
 H3336 H 0.64608 0.30006 0.71704
 H3337 H 0.58045 0.21537 0.67938
 H3338 H 0.61859 0.21882 0.68416
 C3339 C 0.07997 0.75678 0.18388
 C3340 C 0.06792 0.77936 0.17795
 C3341 C 0.04725 0.77843 0.16393
 C3342 C 0.03835 0.75517 0.15644
 C3343 C 0.04844 0.73285 0.16496
 C3344 C 0.06906 0.73360 0.17869
 C3345 C 0.10444 0.75848 0.19428
 C3346 C 0.12005 0.73765 0.19507
 C3347 C 0.14348 0.74036 0.20313
 C3348 C 0.15165 0.76362 0.21118
 C3349 C 0.13632 0.78456 0.21062
 C3350 C 0.11303 0.78235 0.20129
 C3351 C 0.07714 0.80253 0.18532
 C3352 C 0.09892 0.80389 0.19752
 H3353 H 0.06755 0.81982 0.18136
 H3354 H 0.10551 0.82221 0.20278
 H3355 H 0.03881 0.79568 0.15789
 H3356 H 0.04145 0.71473 0.15966
 H3357 H 0.15529 0.72413 0.20317
 H3358 H 0.14293 0.80272 0.21634
 H3359 H 0.07667 0.71590 0.18435
 H3360 H 0.11485 0.71938 0.18870
   
