data_POSCAR
  _audit_creation_date              2014-09-24
  _audit_creation_method            'ToBaCCo'
  _symmetry_space_group_name_H-M    'P1'
  _symmetry_Int_Tables_number       1
  _symmetry_cell_setting            triclinic
  loop_
  _symmetry_equiv_pos_as_xyz
 x,y,z
_cell_length_a 37.5331
_cell_length_b 37.5326
_cell_length_c 32.9184
_cell_angle_alpha 90.673900
_cell_angle_beta 89.288900
_cell_angle_gamma 90.447800
loop_
  _atom_site_label
  _atom_site_type_symbol
  _atom_site_fract_x
  _atom_site_fract_y
  _atom_site_fract_z
C1 C 0.39731 0.03835 0.29209
 H2 H 0.40186 0.05032 0.26273
 C3 C 0.41676 0.05013 0.32569
 H4 H 0.43715 0.07047 0.32213
 C5 C 0.36605 -0.00377 0.33255
 H6 H 0.34600 -0.02444 0.33523
 C7 C 0.38444 0.00751 0.36687
 H8 H 0.37943 -0.00546 0.39565
 N9 N 0.37352 0.01095 0.29587
 C10 C 0.36294 -0.02713 0.17099
 H11 H 0.33420 -0.02714 0.16887
 C12 C 0.38378 -0.03624 0.13710
 H13 H 0.37116 -0.04244 0.10843
 C14 C 0.41463 -0.01761 0.21059
 H15 H 0.42650 -0.01073 0.23938
 C16 C 0.43645 -0.02657 0.17745
 H17 H 0.46516 -0.02528 0.18038
 Zn18 Zn 0.34800 -0.00461 0.25000
 N19 N 0.37863 -0.01705 0.20641
 C20 C 0.32713 0.05421 0.20374
 N21 N 0.31906 0.03387 0.23662
 C22 C 0.29564 0.04505 0.26581
 C23 C 0.28054 0.07876 0.26363
 C24 C 0.31265 0.08819 0.20044
 C25 C 0.34268 -0.07424 0.27241
 C26 C 0.32766 -0.10794 0.27701
 C27 C 0.27027 -0.08347 0.26014
 C28 C 0.28646 -0.04996 0.25611
 N29 N 0.32213 -0.04624 0.26185
 H30 H 0.34688 0.04535 0.18178
 H31 H 0.29076 0.02880 0.29226
 H32 H 0.26347 0.08831 0.28815
 H33 H 0.32074 0.10515 0.17551
 H34 H 0.37109 -0.07047 0.27593
 H35 H 0.34463 -0.13023 0.28415
 H36 H 0.24211 -0.08664 0.25395
 H37 H 0.27094 -0.02743 0.24671
 C38 C 0.42087 -0.03545 0.14027
 C39 C 0.41046 0.03417 0.36326
 C40 C 0.29126 -0.11275 0.27018
 C41 C 0.28999 0.10085 0.23129
 C42 C 0.09901 0.04038 0.70225
 H43 H 0.09416 0.05260 0.73170
 C44 C 0.07776 0.04919 0.66931
 H45 H 0.05587 0.06756 0.67346
 C46 C 0.13257 0.00033 0.66097
 H47 H 0.15412 -0.01844 0.65776
 C48 C 0.11240 0.00871 0.62728
 H49 H 0.11772 -0.00452 0.59841
 N50 N 0.12479 0.01524 0.69781
 C51 C 0.13973 -0.02027 0.82173
 H52 H 0.16847 -0.01817 0.82283
 C53 C 0.12046 -0.03101 0.85598
 H54 H 0.13420 -0.03611 0.88405
 C55 C 0.08653 -0.01475 0.78417
 H56 H 0.07351 -0.00892 0.75597
 C57 C 0.06623 -0.02543 0.81774
 H58 H 0.03743 -0.02629 0.81587
 Zn59 Zn 0.15166 0.00222 0.74312
 N60 N 0.12250 -0.01138 0.78720
 C61 C 0.17154 0.06220 0.79007
 N62 N 0.17966 0.04208 0.75660
 C63 C 0.20333 0.05356 0.72795
 C64 C 0.21892 0.08726 0.73157
 C65 C 0.18647 0.09615 0.79479
 C66 C 0.15838 -0.06722 0.72046
 C67 C 0.17331 -0.10095 0.71890
 C68 C 0.22972 -0.07486 0.73885
 C69 C 0.21370 -0.04133 0.73975
 N70 N 0.17847 -0.03843 0.73128
 H71 H 0.15168 0.05304 0.81166
 H72 H 0.20840 0.03738 0.70112
 H73 H 0.23645 0.09696 0.70768
 H74 H 0.17851 0.11286 0.82034
 H75 H 0.13020 -0.06410 0.71515
 H76 H 0.15672 -0.12392 0.71192
 H77 H 0.25731 -0.07755 0.74754
 H78 H 0.22870 -0.01816 0.74962
 C79 C 0.08336 -0.03312 0.85407
 C80 C 0.08427 0.03269 0.63170
 C81 C 0.20899 -0.10488 0.72913
 C82 C 0.20966 0.10901 0.76474
 C83 C 0.59950 0.53976 0.20164
 H84 H 0.59460 0.55195 0.23110
 C85 C 0.57831 0.54857 0.16867
 H86 H 0.55638 0.56691 0.17280
 C87 C 0.63319 0.49980 0.16037
 H88 H 0.65478 0.48107 0.15719
 C89 C 0.61307 0.50819 0.12665
 H90 H 0.61846 0.49499 0.09778
 N91 N 0.62533 0.51466 0.19722
 C92 C 0.64047 0.47937 0.32119
 H93 H 0.66920 0.48156 0.32223
 C94 C 0.62130 0.46856 0.35547
 H95 H 0.63510 0.46351 0.38352
 C96 C 0.58719 0.48468 0.28373
 H97 H 0.57411 0.49045 0.25555
 C98 C 0.56698 0.47393 0.31733
 H99 H 0.53818 0.47296 0.31552
 Zn100 Zn 0.65222 0.50171 0.24253
 N101 N 0.62316 0.48818 0.28669
 C102 C 0.67219 0.56179 0.28924
 N103 N 0.68026 0.54155 0.25585
 C104 C 0.70393 0.55289 0.22712
 C105 C 0.71959 0.58655 0.23058
 C106 C 0.68719 0.59572 0.29379
 C107 C 0.65897 0.43229 0.21993
 C108 C 0.67385 0.39854 0.21873
 C109 C 0.73016 0.42463 0.23906
 C110 C 0.71419 0.45818 0.23959
 N111 N 0.67903 0.46108 0.23079
 H112 H 0.65233 0.55273 0.31087
 H113 H 0.70895 0.53660 0.20036
 H114 H 0.73711 0.59615 0.20662
 H115 H 0.67928 0.61253 0.31927
 H116 H 0.63082 0.43541 0.21439
 H117 H 0.65727 0.37555 0.21177
 H118 H 0.75766 0.42194 0.24806
 H119 H 0.72914 0.48137 0.24951
 C120 C 0.58420 0.46630 0.35363
 C121 C 0.58491 0.53212 0.13105
 C122 C 0.70943 0.39460 0.22937
 C123 C 0.71038 0.60843 0.26366
 C124 C 0.89958 0.53887 0.79498
 H125 H 0.90462 0.55068 0.76562
 C126 C 0.91893 0.55039 0.82877
 H127 H 0.93972 0.57036 0.82528
 C128 C 0.86714 0.49750 0.83523
 H129 H 0.84666 0.47724 0.83775
 C130 C 0.88538 0.50852 0.86974
 H131 H 0.87976 0.49566 0.89848
 N132 N 0.87526 0.51193 0.79857
 C133 C 0.86446 0.47342 0.67384
 H134 H 0.83571 0.47355 0.67188
 C135 C 0.88508 0.46398 0.63990
 H136 H 0.87229 0.45768 0.61135
 C137 C 0.91638 0.48292 0.71305
 H138 H 0.92841 0.48993 0.74171
 C139 C 0.93800 0.47364 0.67984
 H140 H 0.96672 0.47482 0.68256
 Zn141 Zn 0.84981 0.49653 0.75257
 N142 N 0.88036 0.48364 0.70908
 C143 C 0.82929 0.55516 0.70574
 N144 N 0.82120 0.53514 0.73886
 C145 C 0.79768 0.54653 0.76785
 C146 C 0.78243 0.58012 0.76514
 C147 C 0.81467 0.58903 0.70192
 C148 C 0.84367 0.42705 0.77529
 C149 C 0.82825 0.39354 0.77994
 C150 C 0.77126 0.41853 0.76256
 C151 C 0.78780 0.45185 0.75848
 N152 N 0.82348 0.45523 0.76446
 H153 H 0.84908 0.54613 0.68393
 H154 H 0.79275 0.53051 0.79447
 H155 H 0.76524 0.58984 0.78946
 H156 H 0.82273 0.60575 0.67677
 H157 H 0.87209 0.43052 0.77897
 H158 H 0.84478 0.37101 0.78723
 H159 H 0.74315 0.41544 0.75617
 H160 H 0.77256 0.47449 0.74882
 C161 C 0.92218 0.46461 0.64282
 C162 C 0.91199 0.53466 0.86637
 C163 C 0.79189 0.38914 0.77290
 C164 C 0.79184 0.60189 0.73250
 C165 C 0.20165 0.44700 0.96586
 H166 H 0.22487 0.45159 0.94679
 C167 C 0.16983 0.46494 0.95825
 H168 H 0.16854 0.48386 0.93373
 C169 C 0.17390 0.41575 1.02006
 H170 H 0.17469 0.39584 1.04328
 C171 C 0.14198 0.43288 1.01356
 H172 H 0.11893 0.42656 1.03241
 N173 N 0.20318 0.42325 0.99680
 C174 C 0.31073 0.40568 1.03900
 H175 H 0.30649 0.37813 1.04712
 C176 C 0.34430 0.42103 1.04339
 H177 H 0.36592 0.40539 1.05520
 C178 C 0.28864 0.45864 1.00998
 H179 H 0.26717 0.47271 0.99588
 C180 C 0.32203 0.47501 1.01365
 H181 H 0.32629 0.50169 1.00228
 Zn182 Zn 0.24440 0.39630 1.00718
 N183 N 0.28408 0.42420 1.02150
 C184 C 0.28970 0.37345 0.94258
 N185 N 0.25668 0.36988 0.95996
 C186 C 0.23125 0.34885 0.94283
 C187 C 0.23871 0.33004 0.90704
 C188 C 0.29823 0.35515 0.90657
 C189 C 0.23039 0.38341 1.08820
 C190 C 0.22180 0.36410 1.12284
 C191 C 0.22117 0.31030 1.08165
 C192 C 0.22970 0.33067 1.04762
 N193 N 0.23409 0.36655 1.05157
 H194 H 0.30935 0.39089 0.95614
 H195 H 0.20507 0.34705 0.95681
 H196 H 0.21817 0.31352 0.89338
 H197 H 0.32433 0.35840 0.89261
 H198 H 0.23416 0.41197 1.09033
 H199 H 0.22004 0.37758 1.15207
 H200 H 0.21895 0.28159 1.07874
 H201 H 0.23319 0.31780 1.01836
 C202 C 0.35021 0.45556 1.02951
 C203 C 0.13986 0.45763 0.98255
 C204 C 0.21723 0.32725 1.11951
 C205 C 0.27243 0.33328 0.88874
 C206 C 0.79928 0.05437 0.96358
 H207 H 0.77650 0.04744 0.94525
 C208 C 0.83205 0.03753 0.95636
 H209 H 0.83437 0.01712 0.93295
 C210 C 0.82506 0.09023 1.01540
 H211 H 0.82319 0.11154 1.03745
 C212 C 0.85785 0.07431 1.00926
 H213 H 0.88032 0.08292 1.02745
 N214 N 0.79623 0.07965 0.99348
 C215 C 0.68713 0.09200 1.03755
 H216 H 0.69029 0.11964 1.04654
 C217 C 0.65403 0.07549 1.04176
 H218 H 0.63174 0.09032 1.05434
 C219 C 0.71145 0.04000 1.00661
 H220 H 0.73358 0.02670 0.99193
 C221 C 0.67855 0.02249 1.01003
 H222 H 0.67537 -0.00428 0.99787
 Zn223 Zn 0.75336 0.10435 1.00543
 N224 N 0.71467 0.07454 1.01916
 C225 C 0.70775 0.12550 0.94216
 N226 N 0.74021 0.13095 0.95954
 C227 C 0.76447 0.15384 0.94315
 C228 C 0.75637 0.17252 0.90813
 C229 C 0.69863 0.14358 0.90692
 C230 C 0.76717 0.11571 1.08659
 C231 C 0.77710 0.13407 1.12171
 C232 C 0.77599 0.18894 1.08395
 C233 C 0.76619 0.16950 1.04936
 N234 N 0.76221 0.13352 1.05132
 H235 H 0.68906 0.10662 0.95503
 H236 H 0.79029 0.15714 0.95700
 H237 H 0.77605 0.19042 0.89500
 H238 H 0.67306 0.13870 0.89291
 H239 H 0.76395 0.08705 1.08710
 H240 H 0.78028 0.11979 1.14984
 H241 H 0.77821 0.21771 1.08265
 H242 H 0.76191 0.18310 1.02113
 C243 C 0.64947 0.04087 1.02679
 C244 C 0.86142 0.04763 0.97981
 C245 C 0.78171 0.17097 1.12030
 C246 C 0.72324 0.16725 0.88979
 C247 C 0.29788 0.55451 0.46216
 H248 H 0.27470 0.54691 0.44482
 C249 C 0.33047 0.53734 0.45494
 H250 H 0.33235 0.51602 0.43257
 C251 C 0.32475 0.59219 0.51154
 H252 H 0.32330 0.61429 0.53262
 C253 C 0.35740 0.57600 0.50530
 H254 H 0.38029 0.58513 0.52242
 N255 N 0.29545 0.58078 0.49100
 C256 C 0.18618 0.59409 0.53441
 H257 H 0.18906 0.62212 0.54175
 C258 C 0.15318 0.57750 0.53914
 H259 H 0.13061 0.59270 0.55039
 C260 C 0.21137 0.54087 0.50745
 H261 H 0.23387 0.52701 0.49430
 C262 C 0.17857 0.52324 0.51146
 H263 H 0.17581 0.49585 0.50116
 Zn264 Zn 0.25282 0.60562 0.50349
 N265 N 0.21408 0.57603 0.51759
 C266 C 0.20734 0.62657 0.43998
 N267 N 0.23955 0.63240 0.45781
 C268 C 0.26358 0.65583 0.44199
 C269 C 0.25547 0.67474 0.40715
 C270 C 0.19823 0.64486 0.40488
 C271 C 0.26819 0.61655 0.58430
 C272 C 0.27816 0.63484 0.61946
 C273 C 0.27489 0.69002 0.58252
 C274 C 0.26506 0.67066 0.54788
 N275 N 0.26212 0.63457 0.54942
 H276 H 0.18891 0.60717 0.45229
 H277 H 0.28923 0.65939 0.45616
 H278 H 0.27498 0.69305 0.39444
 H279 H 0.17290 0.63964 0.39045
 H280 H 0.26569 0.58782 0.58448
 H281 H 0.28216 0.62038 0.64733
 H282 H 0.27624 0.71884 0.58158
 H283 H 0.25982 0.68443 0.51999
 C284 C 0.14912 0.54215 0.52643
 C285 C 0.36029 0.54820 0.47718
 C286 C 0.28168 0.67186 0.61849
 C287 C 0.22259 0.66911 0.38836
 C288 C 0.70172 0.94614 0.46381
 H289 H 0.72501 0.95076 0.44487
 C290 C 0.66989 0.96401 0.45600
 H291 H 0.66866 0.98288 0.43144
 C292 C 0.67384 0.91496 0.51798
 H293 H 0.67461 0.89511 0.54128
 C294 C 0.64192 0.93204 0.51131
 H295 H 0.61884 0.92576 0.53012
 N296 N 0.70319 0.92246 0.49483
 C297 C 0.81072 0.90528 0.53722
 H298 H 0.80665 0.87763 0.54503
 C299 C 0.84414 0.92085 0.54199
 H300 H 0.86583 0.90527 0.55374
 C301 C 0.78831 0.95835 0.50877
 H302 H 0.76676 0.97239 0.49479
 C303 C 0.82156 0.97494 0.51282
 H304 H 0.82565 1.00177 0.50183
 Zn305 Zn 0.74445 0.89567 0.50550
 N306 N 0.78399 0.92376 0.51982
 C307 C 0.78988 0.87302 0.44093
 N308 N 0.75696 0.86909 0.45845
 C309 C 0.73175 0.84767 0.44151
 C310 C 0.73935 0.82884 0.40575
 C311 C 0.79854 0.85472 0.40496
 C312 C 0.73031 0.88329 0.58656
 C313 C 0.72204 0.86419 0.62144
 C314 C 0.72210 0.81003 0.58087
 C315 C 0.73029 0.83020 0.54659
 N316 N 0.73421 0.86616 0.55012
 H317 H 0.80934 0.89078 0.45432
 H318 H 0.70563 0.84559 0.45558
 H319 H 0.71898 0.81204 0.39222
 H320 H 0.82454 0.85829 0.39087
 H321 H 0.73373 0.91191 0.58837
 H322 H 0.72015 0.87790 0.65053
 H323 H 0.72028 0.78127 0.57830
 H324 H 0.73396 0.81711 0.51747
 C325 C 0.84983 0.95557 0.52861
 C326 C 0.63985 0.95670 0.48020
 C327 C 0.71801 0.82725 0.61856
 C328 C 0.77297 0.83248 0.38729
 C329 C 0.02236 0.29783 0.43939
 H330 H 0.04626 0.28197 0.44054
 C331 C 0.01982 0.32935 0.46247
 H332 H 0.04197 0.33784 0.48112
 C333 C -0.03479 0.30740 0.41196
 H334 H -0.05575 0.29937 0.39154
 C335 C -0.03840 0.33905 0.43452
 H336 H -0.06199 0.35515 0.43115
 N337 N -0.00466 0.28753 0.41453
 C338 C 0.00491 0.17272 0.39164
 H339 H 0.00274 0.17290 0.35890
 C340 C 0.00788 0.14042 0.41182
 H341 H 0.00764 0.11570 0.39443
 C342 C 0.00717 0.20472 0.45409
 H343 H 0.00658 0.22983 0.47044
 C344 C 0.01006 0.17280 0.47561
 H345 H 0.01149 0.17351 0.50846
 Zn346 Zn 0.00106 0.24602 0.38070
 N347 N 0.00490 0.20410 0.41277
 C348 C 0.07041 0.22734 0.35392
 N349 N 0.04393 0.25136 0.34845
 C350 C 0.04879 0.27926 0.32268
 C351 C 0.08112 0.28343 0.30103
 C352 C 0.10280 0.23044 0.33294
 C353 C -0.07061 0.22996 0.36868
 C354 C -0.10308 0.22653 0.34867
 C355 C -0.07327 0.24231 0.28595
 C356 C -0.04111 0.24529 0.30720
 N357 N -0.04052 0.23981 0.34806
 H358 H 0.06694 0.20597 0.37525
 H359 H 0.02780 0.29856 0.31933
 H360 H 0.08487 0.30582 0.28094
 H361 H 0.12358 0.21117 0.33804
 H362 H -0.06950 0.22560 0.40106
 H363 H -0.12695 0.21973 0.36582
 H364 H -0.07377 0.24789 0.25376
 H365 H -0.01693 0.25278 0.29120
 C366 C 0.01053 0.14030 0.45419
 C367 C -0.01076 0.35034 0.45983
 C368 C -0.10467 0.23316 0.30701
 C369 C 0.10843 0.25868 0.30628
 C370 C 0.01912 0.70257 0.06714
 H371 H 0.04380 0.71765 0.06664
 C372 C 0.01607 0.67119 0.04394
 H373 H 0.03859 0.66203 0.02587
 C374 C -0.03966 0.69495 0.09285
 H375 H -0.06112 0.70379 0.11255
 C376 C -0.04378 0.66340 0.07015
 H377 H -0.06830 0.64811 0.07271
 N378 N -0.00849 0.71382 0.09112
 C379 C 0.00688 0.82879 0.11063
 H380 H 0.00449 0.82995 0.14341
 C381 C 0.01170 0.86019 0.08875
 H382 H 0.01271 0.88554 0.10481
 C383 C 0.00752 0.79455 0.04970
 H384 H 0.00542 0.76898 0.03449
 C385 C 0.01223 0.82548 0.02657
 H386 H 0.01360 0.82356 -0.00626
 Zn387 Zn -0.00180 0.75552 0.12440
 N388 N 0.00514 0.79669 0.09105
 C389 C 0.06757 0.77185 0.15291
 N390 N 0.03974 0.74864 0.15720
 C391 C 0.04229 0.72005 0.18223
 C392 C 0.07361 0.71420 0.20421
 C393 C 0.09905 0.76709 0.17429
 C394 C -0.07327 0.77392 0.13664
 C395 C -0.10586 0.77844 0.15703
 C396 C -0.07747 0.76252 0.21963
 C397 C -0.04520 0.75850 0.19796
 N398 N -0.04386 0.76348 0.15700
 H399 H 0.06586 0.79382 0.13222
 H400 H 0.02022 0.70144 0.18467
 H401 H 0.07552 0.69120 0.22360
 H402 H 0.12098 0.78569 0.17007
 H403 H -0.07157 0.77789 0.10417
 H404 H -0.12916 0.78566 0.13989
 H405 H -0.07841 0.75721 0.25192
 H406 H -0.02155 0.75054 0.21378
 C407 C 0.01442 0.85866 0.04632
 C408 C -0.01561 0.65124 0.04558
 C409 C -0.10830 0.77226 0.19888
 C410 C 0.10236 0.73801 0.20012
 C411 C 0.52016 0.20168 0.56555
 H412 H 0.54485 0.21674 0.56483
 C413 C 0.51689 0.17034 0.54233
 H414 H 0.53925 0.16119 0.52399
 C415 C 0.46159 0.19408 0.59188
 H416 H 0.44030 0.20289 0.61185
 C417 C 0.45725 0.16256 0.56916
 H418 H 0.43275 0.14729 0.57196
 N419 N 0.49276 0.21293 0.58986
 C420 C 0.50904 0.32781 0.60981
 H421 H 0.50706 0.32881 0.64262
 C422 C 0.51362 0.35932 0.58807
 H423 H 0.51489 0.38459 0.60427
 C424 C 0.50872 0.29388 0.54867
 H425 H 0.50628 0.26839 0.53333
 C426 C 0.51316 0.32492 0.52567
 H427 H 0.51402 0.32317 0.49281
 Zn428 Zn 0.49979 0.25454 0.62323
 N429 N 0.50690 0.29581 0.59007
 C430 C 0.56926 0.27021 0.65205
 N431 N 0.54121 0.24723 0.65608
 C432 C 0.54329 0.21865 0.68119
 C433 C 0.57431 0.21261 0.70362
 C434 C 0.60047 0.26524 0.67388
 C435 C 0.42835 0.27295 0.63580
 C436 C 0.39597 0.27782 0.65652
 C437 C 0.42492 0.26279 0.71902
 C438 C 0.45697 0.25837 0.69707
 N439 N 0.45794 0.26276 0.65600
 H440 H 0.56789 0.29218 0.63131
 H441 H 0.52103 0.20026 0.68343
 H442 H 0.57582 0.18967 0.72315
 H443 H 0.62258 0.28369 0.66994
 H444 H 0.42974 0.27649 0.60324
 H445 H 0.37244 0.28482 0.63973
 H446 H 0.42412 0.25801 0.75140
 H447 H 0.48076 0.25065 0.71278
 C448 C 0.51568 0.35801 0.54559
 C449 C 0.48522 0.15041 0.54427
 C450 C 0.39398 0.27229 0.69847
 C451 C 0.60325 0.23622 0.69990
 C452 C 0.52242 0.79875 0.93697
 H453 H 0.54640 0.78300 0.93811
 C454 C 0.51972 0.83022 0.96010
 H455 H 0.54182 0.83880 0.97877
 C456 C 0.46522 0.80807 0.90954
 H457 H 0.44429 0.79994 0.88914
 C458 C 0.46145 0.83966 0.93215
 H459 H 0.43778 0.85565 0.92882
 N460 N 0.49545 0.78834 0.91210
 C461 C 0.50519 0.67353 0.88987
 H462 H 0.50306 0.67350 0.85712
 C463 C 0.50819 0.64137 0.91032
 H464 H 0.50802 0.61651 0.89325
 C465 C 0.50734 0.70591 0.95208
 H466 H 0.50668 0.73111 0.96825
 C467 C 0.51027 0.67413 0.97384
 H468 H 0.51168 0.67496 1.00668
 Zn469 Zn 0.50132 0.74679 0.87844
 N470 N 0.50513 0.70503 0.91075
 C471 C 0.57077 0.72807 0.85213
 N472 N 0.54430 0.75206 0.84636
 C473 C 0.54931 0.77990 0.82055
 C474 C 0.58179 0.78407 0.79920
 C475 C 0.60330 0.73118 0.83145
 C476 C 0.42978 0.73036 0.86643
 C477 C 0.39728 0.72688 0.84651
 C478 C 0.42687 0.74306 0.78379
 C479 C 0.45908 0.74608 0.80496
 N480 N 0.45979 0.74042 0.84578
 H481 H 0.56718 0.70675 0.87350
 H482 H 0.52833 0.79917 0.81697
 H483 H 0.58567 0.80644 0.77909
 H484 H 0.62407 0.71195 0.83682
 H485 H 0.43098 0.72590 0.89879
 H486 H 0.37347 0.71993 0.86370
 H487 H 0.42626 0.74880 0.75164
 H488 H 0.48318 0.75377 0.78894
 C489 C 0.51082 0.64154 0.95267
 C490 C 0.48903 0.85104 0.95750
 C491 C 0.39556 0.73370 0.80490
 C492 C 0.60911 0.75939 0.80479
 C493 C -0.21068 0.64968 0.95773
 H494 H -0.19903 0.65449 0.98721
 C495 C -0.19891 0.66922 0.92417
 H496 H -0.17892 0.68994 0.92786
 C497 C -0.25196 0.61768 0.91694
 H498 H -0.27231 0.59732 0.91412
 C499 C -0.24067 0.63614 0.88268
 H500 H -0.25334 0.63086 0.85378
 N501 N -0.23770 0.62549 0.95376
 C502 C -0.27675 0.61470 1.07826
 H503 H -0.27666 0.58596 1.08037
 C504 C -0.28596 0.63546 1.11217
 H505 H -0.29214 0.62271 1.14080
 C506 C -0.26728 0.66646 1.03872
 H507 H -0.26035 0.67837 1.00996
 C508 C -0.27634 0.68823 1.07185
 H509 H -0.27505 0.71694 1.06885
 Zn510 Zn -0.25354 0.59993 0.99951
 N511 N -0.26656 0.63046 1.04291
 C512 C -0.19523 0.57905 1.04662
 N513 N -0.21517 0.57112 1.01342
 C514 C -0.20383 0.54758 0.98445
 C515 C -0.17035 0.53214 0.98725
 C516 C -0.16145 0.56424 1.05054
 C517 C -0.32286 0.59398 0.97612
 C518 C -0.35631 0.57856 0.97104
 C519 C -0.33145 0.52152 0.98849
 C520 C -0.29819 0.53806 0.99300
 N521 N -0.29478 0.57376 0.98718
 H522 H -0.20421 0.59887 1.06841
 H523 H -0.21978 0.54280 0.95775
 H524 H -0.16064 0.51496 0.96292
 H525 H -0.14475 0.57220 1.07572
 H526 H -0.31936 0.62242 0.97257
 H527 H -0.37879 0.59510 0.96359
 H528 H -0.33458 0.49339 0.99476
 H529 H -0.27564 0.52279 1.00285
 C530 C -0.28516 0.67258 1.10908
 C531 C -0.21447 0.66259 0.88646
 C532 C -0.36074 0.54217 0.97790
 C533 C -0.14864 0.54139 1.01996
 C534 C -0.21026 0.34684 0.54964
 H535 H -0.19809 0.34189 0.52016
 C536 C -0.20147 0.32693 0.58143
 H537 H -0.18244 0.30555 0.57768
 C538 C -0.25001 0.38263 0.58975
 H539 H -0.26847 0.40444 0.59299
 C540 C -0.24118 0.36146 0.62549
 H541 H -0.25499 0.36682 0.65404
 N542 N -0.23649 0.37445 0.55429
 C543 C -0.27158 0.38927 0.43013
 H544 H -0.26941 0.41800 0.42898
 C545 C -0.28220 0.37000 0.39586
 H546 H -0.28717 0.38373 0.36774
 C547 C -0.26631 0.33609 0.46781
 H548 H -0.26060 0.32309 0.49606
 C549 C -0.27687 0.31578 0.43421
 H550 H -0.27778 0.28698 0.43613
 Zn551 Zn -0.24928 0.40126 0.50878
 N552 N -0.26287 0.37206 0.46474
 C553 C -0.18902 0.42066 0.46189
 N554 N -0.20916 0.42896 0.49530
 C555 C -0.19760 0.45263 0.52389
 C556 C -0.16382 0.46806 0.52025
 C557 C -0.15500 0.43544 0.45715
 C558 C -0.31877 0.40876 0.53143
 C559 C -0.35240 0.42395 0.53255
 C560 C -0.32582 0.47986 0.51150
 C561 C -0.29242 0.46357 0.51107
 N562 N -0.28981 0.42846 0.52026
 H563 H -0.19824 0.40081 0.44036
 H564 H -0.21381 0.45786 0.55067
 H565 H -0.15408 0.48561 0.54408
 H566 H -0.13831 0.42739 0.43162
 H567 H -0.31588 0.38064 0.53732
 H568 H -0.37548 0.40756 0.53983
 H569 H -0.32817 0.50735 0.50223
 H570 H -0.26910 0.47824 0.50096
 C571 C -0.28438 0.33290 0.39781
 C572 C -0.21854 0.33418 0.62133
 C573 C -0.35608 0.45952 0.52151
 C574 C -0.14207 0.45866 0.48712
 C575 C 0.29011 -0.15214 0.04776
 H576 H 0.30222 -0.15712 0.01825
 C577 C 0.29885 -0.17214 0.07950
 H578 H 0.31777 -0.19360 0.07568
 C579 C 0.25058 -0.11622 0.08800
 H580 H 0.23217 -0.09437 0.09129
 C581 C 0.25938 -0.13745 0.12369
 H582 H 0.24563 -0.13206 0.15228
 N583 N 0.26397 -0.12445 0.05250
 C584 C 0.22850 -0.11003 -0.07157
 H585 H 0.23063 -0.08130 -0.07287
 C586 C 0.21787 -0.12945 -0.10573
 H587 H 0.21286 -0.11584 -0.13392
 C588 C 0.23387 -0.16306 -0.03363
 H589 H 0.23961 -0.17594 -0.00532
 C590 C 0.22331 -0.18351 -0.06711
 H591 H 0.22243 -0.21230 -0.06505
 Zn592 Zn 0.25092 -0.09774 0.00700
 N593 N 0.23728 -0.12710 -0.03689
 C594 C 0.31099 -0.07827 -0.04017
 N595 N 0.29089 -0.06991 -0.00675
 C596 C 0.30246 -0.04609 0.02168
 C597 C 0.33619 -0.03060 0.01788
 C598 C 0.34497 -0.06344 -0.04508
 C599 C 0.18150 -0.09059 0.03001
 C600 C 0.14780 -0.07555 0.03150
 C601 C 0.17399 -0.01946 0.01042
 C602 C 0.20747 -0.03561 0.00961
 N603 N 0.21030 -0.07073 0.01867
 H604 H 0.30178 -0.09824 -0.06158
 H605 H 0.28630 -0.04082 0.04849
 H606 H 0.34595 -0.01295 0.04161
 H607 H 0.36164 -0.07158 -0.07059
 H608 H 0.18456 -0.11870 0.03581
 H609 H 0.12486 -0.09206 0.03896
 H610 H 0.17145 0.00804 0.00130
 H611 H 0.23065 -0.02081 -0.00063
 C612 C 0.21575 -0.16655 -0.10359
 C613 C 0.28185 -0.16488 0.11944
 C614 C 0.14389 -0.03997 0.02067
 C615 C 0.35791 -0.04008 -0.01526
 C616 C 0.28932 1.14898 0.45758
 H617 H 0.30097 1.15398 0.48701
 C618 C 0.30094 1.16844 0.42390
 H619 H 0.32080 1.18929 0.42744
 C620 C 0.24815 1.11659 0.41703
 H621 H 0.22790 1.09611 0.41435
 C622 C 0.25930 1.13494 0.38264
 H623 H 0.24663 1.12948 0.35379
 N624 N 0.26239 1.12465 0.45378
 C625 C 0.22370 1.11411 0.57843
 H626 H 0.22395 1.08537 0.58063
 C627 C 0.21420 1.13490 0.61219
 H628 H 0.20799 1.12228 0.64088
 C629 C 0.23290 1.16582 0.53873
 H630 H 0.23978 1.17770 0.50994
 C631 C 0.22356 1.18760 0.57174
 H632 H 0.22460 1.21631 0.56875
 Zn633 Zn 0.24667 1.09923 0.49965
 N634 N 0.23382 1.12984 0.54303
 C635 C 0.30523 1.07832 0.54631
 N636 N 0.28499 1.07032 0.51336
 C637 C 0.29607 1.04671 0.48433
 C638 C 0.32960 1.03130 0.48676
 C639 C 0.33905 1.06354 0.54985
 C640 C 0.17734 1.09363 0.47649
 C641 C 0.14377 1.07843 0.47160
 C642 C 0.16827 1.02127 0.48919
 C643 C 0.20166 1.03758 0.49351
 N644 N 0.20530 1.07323 0.48754
 H645 H 0.29643 1.09820 0.56813
 H646 H 0.27990 1.04189 0.45782
 H647 H 0.33910 1.01410 0.46235
 H648 H 0.35599 1.07158 0.57480
 H649 H 0.18103 1.12203 0.47282
 H650 H 0.12139 1.09511 0.46415
 H651 H 0.16496 0.99318 0.49558
 H652 H 0.22413 1.02219 0.50335
 C653 C 0.21466 1.17198 0.60892
 C654 C 0.28535 1.16156 0.38625
 C655 C 0.13910 1.04210 0.47863
 C656 C 0.35161 1.04066 0.51917
 C657 C 0.19552 0.45173 0.28353
 H658 H 0.19988 0.47479 0.30289
 C659 C 0.21317 0.41975 0.29129
 H660 H 0.23164 0.41823 0.31621
 C661 C 0.16508 0.42448 0.22846
 H662 H 0.14558 0.42555 0.20482
 C663 C 0.18195 0.39241 0.23510
 H664 H 0.17581 0.36950 0.21598
 N665 N 0.17226 0.45357 0.25216
 C666 C 0.15491 0.56169 0.21105
 H667 H 0.12741 0.55750 0.20267
 C668 C 0.17033 0.59527 0.20687
 H669 H 0.15480 0.61693 0.19496
 C670 C 0.20766 0.53943 0.24033
 H671 H 0.22162 0.51788 0.25442
 C672 C 0.22410 0.57284 0.23687
 H673 H 0.25075 0.57700 0.24836
 Zn674 Zn 0.14532 0.49494 0.24200
 N675 N 0.17330 0.53491 0.22849
 C676 C 0.12197 0.53951 0.30706
 N677 N 0.11848 0.50669 0.28920
 C678 C 0.09733 0.48109 0.30588
 C679 C 0.07839 0.48815 0.34172
 C680 C 0.10354 0.54764 0.34312
 C681 C 0.13292 0.48176 0.16055
 C682 C 0.11376 0.47392 0.12558
 C683 C 0.05969 0.47319 0.16642
 C684 C 0.07996 0.48097 0.20073
 N685 N 0.11588 0.48511 0.19712
 H686 H 0.13949 0.55931 0.29387
 H687 H 0.09558 0.45506 0.29153
 H688 H 0.06183 0.46747 0.35503
 H689 H 0.10679 0.57357 0.35747
 H690 H 0.16153 0.48531 0.15869
 H691 H 0.12757 0.47245 0.09648
 H692 H 0.03093 0.47118 0.16932
 H693 H 0.06695 0.48416 0.22997
 C694 C 0.20482 0.60110 0.22090
 C695 C 0.20612 0.38993 0.26666
 C696 C 0.07678 0.46973 0.12850
 C697 C 0.08161 0.52165 0.36054
 C698 C -0.19455 1.04677 0.28710
 H699 H -0.20142 1.02337 0.30447
 C700 C -0.21211 1.07903 0.29497
 H701 H -0.23298 1.08048 0.31793
 C702 C -0.15830 1.07446 0.23688
 H703 H -0.13662 1.07345 0.21520
 C704 C -0.17492 1.10679 0.24374
 H705 H -0.16651 1.12991 0.22652
 N706 N -0.16877 1.04492 0.25762
 C707 C -0.15455 0.93624 0.21313
 H708 H -0.12649 0.93917 0.20594
 C709 C -0.17111 0.90326 0.20818
 H710 H -0.15587 0.88072 0.19694
 C711 C -0.20788 0.96130 0.23999
 H712 H -0.22178 0.98374 0.25323
 C713 C -0.22549 0.92853 0.23576
 H714 H -0.25290 0.92572 0.24598
 Zn715 Zn -0.14340 1.00276 0.24478
 N716 N -0.17268 0.96404 0.23005
 C717 C -0.12277 0.95691 0.30811
 N718 N -0.11698 0.98929 0.29065
 C719 C -0.09408 1.01345 0.30713
 C720 C -0.07570 1.00533 0.34233
 C721 C -0.10500 0.94777 0.34355
 C722 C -0.13191 1.01852 0.16413
 C723 C -0.11345 1.02880 0.12918
 C724 C -0.05858 1.02647 0.16684
 C725 C -0.07814 1.01634 0.20125
 N726 N -0.11415 1.01274 0.19924
 H727 H -0.14178 0.93836 0.29527
 H728 H -0.09059 1.03926 0.29326
 H729 H -0.05782 1.02496 0.35556
 H730 H -0.11019 0.92230 0.35768
 H731 H -0.16059 1.01553 0.16358
 H732 H -0.12778 1.03249 0.10116
 H733 H -0.02978 1.02825 0.16825
 H734 H -0.06458 1.01134 0.22933
 C735 C -0.20651 0.89914 0.22077
 C736 C -0.20215 1.10911 0.27267
 C737 C -0.07646 1.03288 0.13057
 C738 C -0.08133 0.97230 0.36078
 C739 C 0.30445 0.54695 -0.21296
 H740 H 0.29725 0.52376 -0.19540
 C741 C 0.28719 0.57944 -0.20552
 H742 H 0.26621 0.58126 -0.18272
 C743 C 0.34124 0.57392 -0.26318
 H744 H 0.36303 0.57256 -0.28469
 C745 C 0.32492 0.60647 -0.25675
 H746 H 0.33366 0.62938 -0.27413
 N747 N 0.33036 0.54462 -0.24225
 C748 C 0.34501 0.43399 -0.28701
 H749 H 0.37279 0.43724 -0.29542
 C750 C 0.32910 0.40237 -0.29155
 H751 H 0.34394 0.37996 -0.30381
 C752 C 0.29211 0.46102 -0.26004
 H753 H 0.27839 0.48330 -0.24624
 C754 C 0.27346 0.42638 -0.26424
 H755 H 0.24627 0.42371 -0.25312
 Zn756 Zn 0.35539 0.50211 -0.25474
 N757 N 0.32590 0.46344 -0.26920
 C758 C 0.37629 0.45636 -0.19142
 N759 N 0.38189 0.48876 -0.20890
 C760 C 0.40480 0.51299 -0.19256
 C761 C 0.42340 0.50492 -0.15750
 C762 C 0.39429 0.44726 -0.15611
 C763 C 0.36684 0.51728 -0.33553
 C764 C 0.38528 0.52762 -0.37048
 C765 C 0.44013 0.52550 -0.33283
 C766 C 0.42063 0.51529 -0.29842
 N767 N 0.38462 0.51161 -0.30041
 H768 H 0.35732 0.43774 -0.20421
 H769 H 0.40816 0.53879 -0.20647
 H770 H 0.44131 0.52460 -0.14440
 H771 H 0.38929 0.42176 -0.14198
 H772 H 0.33816 0.51424 -0.33607
 H773 H 0.37102 0.53131 -0.39853
 H774 H 0.46891 0.52745 -0.33152
 H775 H 0.43421 0.51041 -0.27032
 C776 C 0.29173 0.39806 -0.27811
 C777 C 0.29756 0.60927 -0.22805
 C778 C 0.42221 0.53192 -0.36903
 C779 C 0.41800 0.47186 -0.13904
 C780 C 0.69869 -0.04886 -0.21475
 H781 H 0.70321 -0.02593 -0.19522
 C782 C 0.71520 -0.07972 -0.20740
 H783 H 0.73341 -0.08164 -0.18227
 C784 C 0.66724 -0.07416 -0.27090
 H785 H 0.64766 -0.07303 -0.29440
 C786 C 0.68479 -0.10818 -0.26422
 H787 H 0.67851 -0.13066 -0.28398
 N788 N 0.67426 -0.04645 -0.24806
 C789 C 0.65777 0.06151 -0.28992
 H790 H 0.63064 0.05707 -0.29958
 C791 C 0.67311 0.09515 -0.29378
 H792 H 0.65786 0.11652 -0.30681
 C793 C 0.70939 0.03997 -0.25757
 H794 H 0.72285 0.01871 -0.24235
 C795 C 0.72574 0.07344 -0.26064
 H796 H 0.75187 0.07784 -0.24775
 Zn797 Zn 0.64746 -0.00486 -0.25793
 N798 N 0.67563 0.03504 -0.27120
 C799 C 0.62368 0.03981 -0.19319
 N800 N 0.62063 0.00682 -0.21074
 C801 C 0.59976 -0.01891 -0.19388
 C802 C 0.58065 -0.01182 -0.15817
 C803 C 0.60505 0.04798 -0.15727
 C804 C 0.63489 -0.01771 -0.33944
 C805 C 0.61571 -0.02610 -0.37423
 C806 C 0.56182 -0.02729 -0.33320
 C807 C 0.58206 -0.01898 -0.29903
 N808 N 0.61792 -0.01443 -0.30280
 H809 H 0.64089 0.05975 -0.20661
 H810 H 0.59831 -0.04504 -0.20803
 H811 H 0.56428 -0.03260 -0.14475
 H812 H 0.60788 0.07407 -0.14321
 H813 H 0.66346 -0.01388 -0.34144
 H814 H 0.62928 -0.02766 -0.40344
 H815 H 0.53311 -0.02972 -0.33038
 H816 H 0.56910 -0.01589 -0.26974
 C817 C 0.70696 0.10142 -0.27801
 C818 C 0.70774 -0.11104 -0.23378
 C819 C 0.57888 -0.03089 -0.37105
 C820 C 0.58339 0.02186 -0.13968
 C821 C 0.04908 0.27365 0.81291
 H822 H 0.03325 0.29758 0.81181
 C823 C 0.08052 0.27106 0.78968
 H824 H 0.08899 0.29319 0.77097
 C825 C 0.05862 0.21646 0.84029
 H826 H 0.05059 0.19550 0.86072
 C827 C 0.09019 0.21280 0.81757
 H828 H 0.10625 0.18917 0.82084
 N829 N 0.03879 0.24663 0.83780
 C830 C -0.07611 0.25608 0.86025
 H831 H -0.07614 0.25398 0.89300
 C832 C -0.10830 0.25892 0.83980
 H833 H -0.13315 0.25868 0.85691
 C834 C -0.04376 0.25823 0.79801
 H835 H -0.01856 0.25762 0.78180
 C836 C -0.07556 0.26100 0.77626
 H837 H -0.07474 0.26234 0.74341
 Zn838 Zn -0.00277 0.25234 0.87158
 N839 N -0.04461 0.25608 0.83934
 C840 C -0.02165 0.32164 0.89839
 N841 N 0.00248 0.29524 0.90378
 C842 C 0.03040 0.30018 0.92947
 C843 C 0.03450 0.33251 0.95111
 C844 C -0.01862 0.35403 0.91936
 C845 C -0.01880 0.18066 0.88378
 C846 C -0.02217 0.14821 0.90388
 C847 C -0.00638 0.17812 0.96650
 C848 C -0.00346 0.21026 0.94516
 N849 N -0.00897 0.21079 0.90431
 H850 H -0.04305 0.31810 0.87713
 H851 H 0.04977 0.27925 0.93278
 H852 H 0.05693 0.33633 0.97112
 H853 H -0.03796 0.37476 0.91430
 H854 H -0.02317 0.18172 0.85140
 H855 H -0.02895 0.12430 0.88680
 H856 H -0.00078 0.17767 0.99868
 H857 H 0.00402 0.23446 0.96109
 C858 C -0.10815 0.26146 0.79744
 C859 C 0.10144 0.24042 0.79219
 C860 C -0.01550 0.14668 0.94553
 C861 C 0.00966 0.35975 0.94594
 C862 C 0.45157 0.26934 0.18393
 H863 H 0.46678 0.29394 0.18481
 C864 C 0.42003 0.26626 0.20685
 H865 H 0.41088 0.28866 0.22512
 C866 C 0.44380 0.21085 0.15749
 H867 H 0.45263 0.18953 0.13759
 C868 C 0.41207 0.20670 0.17990
 H869 H 0.39667 0.18229 0.17695
 N870 N 0.46283 0.24189 0.15972
 C871 C 0.57791 0.25774 0.14076
 H872 H 0.57915 0.25579 0.10795
 C873 C 0.60926 0.26229 0.16278
 H874 H 0.63464 0.26356 0.14680
 C875 C 0.54353 0.25743 0.20160
 H876 H 0.51794 0.25503 0.21672
 C877 C 0.57441 0.26185 0.22488
 H878 H 0.57241 0.26272 0.25772
 Zn879 Zn 0.50469 0.24880 0.12670
 N880 N 0.54577 0.25564 0.16022
 C881 C 0.52079 0.31835 0.09832
 N882 N 0.49773 0.29039 0.09405
 C883 C 0.46921 0.29270 0.06890
 C884 C 0.46331 0.32388 0.04670
 C885 C 0.51595 0.34972 0.07673
 C886 C 0.52274 0.17725 0.11377
 C887 C 0.52752 0.14498 0.09282
 C888 C 0.51311 0.17444 0.03044
 C889 C 0.50876 0.20638 0.05261
 N890 N 0.51288 0.20705 0.09372
 H891 H 0.54270 0.31678 0.11910
 H892 H 0.45076 0.27052 0.06648
 H893 H 0.44040 0.32558 0.02716
 H894 H 0.53444 0.37175 0.08086
 H895 H 0.52607 0.17841 0.14636
 H896 H 0.53424 0.12128 0.10949
 H897 H 0.50854 0.17389 -0.00198
 H898 H 0.50130 0.23033 0.03703
 C899 C 0.60764 0.26437 0.20526
 C900 C 0.39990 0.23472 0.20468
 C901 C 0.52227 0.14330 0.05082
 C902 C 0.48698 0.35274 0.05070
 C903 C -0.04930 0.77124 0.68587
 H904 H -0.03387 0.79571 0.68676
 C905 C -0.07931 0.76833 0.70818
 H906 H -0.08808 0.79055 0.72698
 C907 C -0.05578 0.71241 0.65849
 H908 H -0.04722 0.69105 0.63851
 C909 C -0.08923 0.70813 0.68239
 H910 H -0.10477 0.68382 0.67900
 N911 N -0.03758 0.74216 0.66023
 C912 C 0.07738 0.75781 0.64040
 H913 H 0.07847 0.75575 0.60760
 C914 C 0.10883 0.76237 0.66222
 H915 H 0.13415 0.76354 0.64609
 C916 C 0.04326 0.75778 0.70144
 H917 H 0.01772 0.75551 0.71670
 C918 C 0.07425 0.76223 0.72452
 H919 H 0.07239 0.76323 0.75737
 Zn920 Zn 0.00408 0.74901 0.62682
 N921 N 0.04532 0.75584 0.66006
 C922 C 0.02016 0.81855 0.59851
 N923 N -0.00295 0.79065 0.59421
 C924 C -0.03149 0.79307 0.56911
 C925 C -0.03735 0.82432 0.54700
 C926 C 0.01538 0.84998 0.57701
 C927 C 0.02234 0.67751 0.61394
 C928 C 0.02711 0.64518 0.59311
 C929 C 0.01196 0.67430 0.53076
 C930 C 0.00764 0.70632 0.55281
 N931 N 0.01214 0.70718 0.59386
 H932 H 0.04210 0.81692 0.61925
 H933 H -0.05000 0.77093 0.56666
 H934 H -0.06027 0.82611 0.52749
 H935 H 0.03392 0.87196 0.58117
 H936 H 0.02597 0.67882 0.64648
 H937 H 0.03413 0.62160 0.60981
 H938 H 0.00710 0.67359 0.49839
 H939 H -0.00010 0.73015 0.53720
 C940 C 0.10740 0.76461 0.70469
 C941 C -0.10075 0.73508 0.70612
 C942 C 0.02148 0.64329 0.55118
 C943 C -0.01361 0.85313 0.55103
 C944 C 0.54946 0.77271 0.31061
 H945 H 0.53358 0.79660 0.30940
 C946 C 0.58102 0.77019 0.28757
 H947 H 0.58951 0.79233 0.26888
 C948 C 0.55904 0.71559 0.33813
 H949 H 0.55099 0.69463 0.35855
 C950 C 0.59073 0.71200 0.31561
 H951 H 0.60684 0.68842 0.31901
 N952 N 0.53913 0.74569 0.33548
 C953 C 0.42413 0.75496 0.35782
 H954 H 0.42412 0.75263 0.39055
 C955 C 0.39193 0.75809 0.33746
 H956 H 0.36709 0.75780 0.35459
 C957 C 0.45644 0.75758 0.29559
 H958 H 0.48163 0.75711 0.27936
 C959 C 0.42462 0.76066 0.27391
 H960 H 0.42543 0.76234 0.24109
 Zn961 Zn 0.49747 0.75137 0.36917
 N962 N 0.45562 0.75508 0.33690
 C963 C 0.47846 0.82071 0.39575
 N964 N 0.50261 0.79435 0.40128
 C965 C 0.53049 0.79941 0.42701
 C966 C 0.53450 0.83180 0.44855
 C967 C 0.48141 0.85316 0.41661
 C968 C 0.48163 0.67961 0.38163
 C969 C 0.47829 0.64723 0.40189
 C970 C 0.49378 0.67743 0.46442
 C971 C 0.49668 0.70949 0.44293
 N972 N 0.49130 0.70986 0.40204
 H973 H 0.45709 0.81708 0.37446
 H974 H 0.54988 0.77851 0.43043
 H975 H 0.55689 0.83570 0.46861
 H976 H 0.46204 0.87384 0.41145
 H977 H 0.47736 0.68053 0.34922
 H978 H 0.47163 0.62324 0.38490
 H979 H 0.49926 0.67713 0.49664
 H980 H 0.50403 0.73377 0.45877
 C981 C 0.39204 0.76106 0.29514
 C982 C 0.60203 0.73963 0.29026
 C983 C 0.48481 0.64588 0.44358
 C984 C 0.50963 0.85899 0.44323
 B985 B -0.01924 0.02032 1.02784
 B986 B -0.03757 0.01085 0.98305
 B987 B -0.00598 0.04233 0.98658
 B988 B 0.02427 0.02972 1.02099
 B989 B 0.01055 -0.01095 1.03847
 B990 B -0.02833 -0.02227 1.01498
 B991 B 0.02360 -0.01750 0.95726
 B992 B 0.04188 -0.00793 1.00200
 B993 B 0.01025 -0.03941 0.99861
 B994 B -0.01999 -0.02682 0.96407
 B995 B -0.00624 0.01391 0.94652
 B996 B 0.03266 0.02523 0.97005
 B997 B 0.48080 0.51980 0.52664
 B998 B 0.46282 0.51015 0.48172
 B999 B 0.49432 0.54171 0.48539
 B1000 B 0.52435 0.52928 0.52015
 B1001 B 0.51059 0.48864 0.53769
 B1002 B 0.47190 0.47714 0.51388
 B1003 B 0.52423 0.48185 0.45662
 B1004 B 0.54216 0.49161 0.50149
 B1005 B 0.51063 0.46004 0.49794
 B1006 B 0.48062 0.47245 0.46307
 B1007 B 0.49441 0.51315 0.44547
 B1008 B 0.53311 0.52464 0.46931
 B1009 B 0.51932 0.98594 0.52777
 B1010 B 0.53767 0.99534 0.48271
 B1011 B 0.50612 0.96386 0.48634
 B1012 B 0.47586 0.97653 0.52193
 B1013 B 0.48952 1.01726 0.54010
 B1014 B 0.52841 1.02854 0.51573
 B1015 B 0.47646 1.02359 0.45934
 B1016 B 0.45823 1.01413 0.50441
 B1017 B 0.48978 1.04562 0.50083
 B1018 B 0.52005 1.03298 0.46510
 B1019 B 0.50635 0.99220 0.44696
 B1020 B 0.46751 0.98090 0.47139
 B1021 B 0.01919 0.48697 1.03020
 B1022 B 0.03764 0.49616 0.98513
 B1023 B 0.00618 0.46460 0.98887
 B1024 B -0.02424 0.47737 1.02425
 B1025 B -0.01076 0.51826 1.04216
 B1026 B 0.02816 0.52953 1.01786
 B1027 B -0.02359 0.52406 0.96128
 B1028 B -0.04194 0.51480 1.00634
 B1029 B -0.01047 0.54638 1.00266
 B1030 B 0.01995 0.53363 0.96716
 B1031 B 0.00644 0.49270 0.94928
 B1032 B -0.03243 0.48143 0.97363
 B1033 B 0.02611 0.51469 0.46783
 B1034 B 0.04480 0.50706 0.51258
 B1035 B 0.01357 0.53833 0.50884
 B1036 B -0.01728 0.52424 0.47521
 B1037 B -0.00435 0.48288 0.45855
 B1038 B 0.03471 0.47262 0.48171
 B1039 B -0.01646 0.47964 0.54013
 B1040 B -0.03518 0.48730 0.49548
 B1041 B -0.00391 0.45609 0.49919
 B1042 B 0.02690 0.47014 0.53284
 B1043 B 0.01392 0.51147 0.54954
 B1044 B -0.02508 0.52176 0.52636
 B1045 B 0.52662 0.01509 -0.03326
 B1046 B 0.54486 0.00708 0.01163
 B1047 B 0.51393 0.03863 0.00777
 B1048 B 0.48325 0.02496 -0.02629
 B1049 B 0.49598 -0.01643 -0.04308
 B1050 B 0.53475 -0.02713 -0.01955
 B1051 B 0.48316 -0.01997 0.03835
 B1052 B 0.46488 -0.01194 -0.00645
 B1053 B 0.49586 -0.04342 -0.00259
 B1054 B 0.52650 -0.02979 0.03147
 B1055 B 0.51372 0.01156 0.04829
 B1056 B 0.47501 0.02228 0.02476
 B1057 B 0.47321 0.47875 -0.03337
 B1058 B 0.45528 0.48752 0.01227
 B1059 B 0.48656 0.45624 0.00719
 B1060 B 0.51675 0.46956 -0.02811
 B1061 B 0.50335 0.51042 -0.04439
 B1062 B 0.46470 0.52118 -0.01933
 B1063 B 0.51686 0.51592 0.03643
 B1064 B 0.53479 0.50707 -0.00905
 B1065 B 0.50353 0.53825 -0.00395
 B1066 B 0.47337 0.52506 0.03135
 B1067 B 0.48682 0.48423 0.04771
 B1068 B 0.52543 0.47347 0.02259
 B1069 B -0.02697 0.97920 0.46698
 B1070 B -0.04515 0.98801 0.51249
 B1071 B -0.01385 0.95673 0.50767
 B1072 B 0.01652 0.97002 0.47255
 B1073 B 0.00321 1.01085 0.45612
 B1074 B -0.03557 1.02163 0.48089
 B1075 B 0.01631 1.01646 0.53702
 B1076 B 0.03446 1.00754 0.49166
 B1077 B 0.00317 1.03874 0.49650
 B1078 B -0.02716 1.02559 0.53163
 B1079 B -0.01379 0.98477 0.54815
 B1080 B 0.02494 0.97399 0.52331
 B1081 B 0.76907 0.22938 0.22471
 B1082 B 0.75936 0.21135 0.26962
 B1083 B 0.79101 0.24277 0.26595
 B1084 B 0.77866 0.27287 0.23125
 B1085 B 0.73800 0.25925 0.21372
 B1086 B 0.72640 0.22056 0.23748
 B1087 B 0.73124 0.27280 0.29482
 B1088 B 0.74106 0.29075 0.24995
 B1089 B 0.70939 0.25932 0.25347
 B1090 B 0.72171 0.22922 0.28832
 B1091 B 0.76245 0.24287 0.30591
 B1092 B 0.77406 0.28157 0.28211
 B1093 B 0.73608 0.76904 0.72050
 B1094 B 0.74542 0.78828 0.76510
 B1095 B 0.71421 0.75641 0.76231
 B1096 B 0.72705 0.72564 0.72739
 B1097 B 0.76763 0.73931 0.70875
 B1098 B 0.77864 0.77871 0.73216
 B1099 B 0.77424 0.72774 0.78979
 B1100 B 0.76483 0.70863 0.74520
 B1101 B 0.79607 0.74050 0.74792
 B1102 B 0.78326 0.77128 0.78298
 B1103 B 0.74262 0.75757 0.80160
 B1104 B 0.73160 0.71823 0.77812
 B1105 B 0.26573 0.27733 0.78212
 B1106 B 0.25779 0.29563 0.73725
 B1107 B 0.28909 0.26445 0.74106
 B1108 B 0.27524 0.23389 0.77517
 B1109 B 0.23399 0.24695 0.79208
 B1110 B 0.22356 0.28581 0.76856
 B1111 B 0.23019 0.23416 0.71070
 B1112 B 0.23817 0.21582 0.75548
 B1113 B 0.20692 0.24704 0.75171
 B1114 B 0.22073 0.27757 0.71756
 B1115 B 0.26195 0.26445 0.70061
 B1116 B 0.27241 0.22566 0.72415
 B1117 B 0.22917 0.72438 0.28259
 B1118 B 0.23749 0.70623 0.23696
 B1119 B 0.20633 0.73761 0.24224
 B1120 B 0.22003 0.76792 0.27721
 B1121 B 0.26100 0.75448 0.29306
 B1122 B 0.27145 0.71571 0.26809
 B1123 B 0.26583 0.76770 0.21210
 B1124 B 0.25742 0.78581 0.25760
 B1125 B 0.28850 0.75444 0.25231
 B1126 B 0.27492 0.72419 0.21732
 B1127 B 0.23396 0.73767 0.20138
 B1128 B 0.22351 0.77639 0.22642
 B1129 B 0.26901 0.72985 0.72323
 B1130 B 0.25948 0.71177 0.76815
 B1131 B 0.29107 0.74324 0.76438
 B1132 B 0.27856 0.77336 0.72978
 B1133 B 0.23785 0.75970 0.71241
 B1134 B 0.22639 0.72096 0.73617
 B1135 B 0.23134 0.77316 0.79355
 B1136 B 0.24099 0.79118 0.74867
 B1137 B 0.20938 0.75968 0.75229
 B1138 B 0.22186 0.72957 0.78704
 B1139 B 0.26264 0.74326 0.80446
 B1140 B 0.27411 0.78200 0.78067
 B1141 B 0.23488 0.26828 0.22084
 B1142 B 0.24447 0.28740 0.26542
 B1143 B 0.21318 0.25559 0.26276
 B1144 B 0.22579 0.22487 0.22766
 B1145 B 0.26631 0.23850 0.20880
 B1146 B 0.27752 0.27782 0.23226
 B1147 B 0.27330 0.22673 0.28975
 B1148 B 0.26362 0.20773 0.24517
 B1149 B 0.29495 0.23954 0.24779
 B1150 B 0.28237 0.27028 0.28301
 B1151 B 0.24180 0.25660 0.30185
 B1152 B 0.23058 0.21733 0.27833
 B1153 B 0.76647 0.77669 0.28052
 B1154 B 0.75855 0.79494 0.23561
 B1155 B 0.78986 0.76378 0.23948
 B1156 B 0.77600 0.73325 0.27363
 B1157 B 0.73474 0.74632 0.29050
 B1158 B 0.72430 0.78514 0.26692
 B1159 B 0.73096 0.73344 0.20913
 B1160 B 0.73894 0.71516 0.25394
 B1161 B 0.70767 0.74636 0.25011
 B1162 B 0.72150 0.77685 0.21593
 B1163 B 0.76273 0.76373 0.19902
 B1164 B 0.77319 0.72497 0.22261
 B1165 B 0.72937 0.22276 0.78413
 B1166 B 0.73804 0.20484 0.73846
 B1167 B 0.70656 0.23591 0.74370
 B1168 B 0.71984 0.26623 0.77887
 B1169 B 0.76087 0.25314 0.79487
 B1170 B 0.77179 0.21455 0.76981
 B1171 B 0.76588 0.26664 0.71399
 B1172 B 0.75712 0.28453 0.75953
 B1173 B 0.78852 0.25349 0.75425
 B1174 B 0.77537 0.22320 0.71908
 B1175 B 0.73435 0.23635 0.70300
 B1176 B 0.72344 0.27489 0.72814
 C1177 C 0.43414 1.03962 0.39656
 C1178 C 0.45376 1.03758 0.42496
 C1179 C -0.06570 0.53946 0.89809
 C1180 C -0.04619 0.53772 0.92663
 C1181 C 0.06279 -0.03555 0.89084
 C1182 C 0.04531 -0.03199 0.92137
 C1183 C 0.56368 0.46379 0.39042
 C1184 C 0.54616 0.46733 0.42093
 C1185 C 0.56006 0.53441 0.09857
 C1186 C 0.53987 0.53051 0.07083
 C1187 C 0.05938 1.03499 0.59925
 C1188 C 0.03921 1.03108 0.57150
 C1189 C -0.05624 0.46280 0.60664
 C1190 C -0.03826 0.46626 0.57646
 C1191 C 0.44268 -0.03703 0.10426
 C1192 C 0.46094 -0.03342 0.07432
 C1193 C 0.38604 0.46854 0.02619
 C1194 C 0.41651 0.47761 0.02131
 C1195 C -0.11442 0.96884 0.52573
 C1196 C -0.08396 0.97806 0.52119
 C1197 C -0.10619 0.03226 0.97548
 C1198 C -0.07626 0.02121 0.97602
 C1199 C 0.39431 0.53154 0.47301
 C1200 C 0.42419 0.52045 0.47417
 C1201 C 0.11389 0.52749 0.52378
 C1202 C 0.08366 0.51743 0.51983
 C1203 C 0.61407 0.02671 0.02364
 C1204 C 0.58376 0.01704 0.01933
 C1205 C 0.60622 0.97347 0.47454
 C1206 C 0.57639 0.98478 0.47491
 C1207 C 0.10622 0.47440 0.97704
 C1208 C 0.07639 0.48569 0.97745
 C1209 C -0.01160 0.38548 0.47838
 C1210 C -0.01028 0.41598 0.49060
 C1211 C 0.48802 -0.11388 -0.02384
 C1212 C 0.48932 -0.08343 -0.01146
 C1213 C 0.01650 -0.10836 1.02399
 C1214 C 0.01594 -0.07899 1.00920
 C1215 C 0.51734 0.39111 0.52342
 C1216 C 0.51649 0.42050 0.50868
 C1217 C 0.48332 1.11559 0.52494
 C1218 C 0.48401 1.08541 0.51159
 C1219 C -0.01730 0.61639 1.02635
 C1220 C -0.01644 0.58618 1.01312
 C1221 C 0.51150 0.60784 -0.02660
 C1222 C 0.50995 0.57800 -0.01325
 C1223 C 0.01106 1.10831 0.47363
 C1224 C 0.00958 1.07850 0.48712
 C1225 C 0.79080 0.68627 0.85312
 C1226 C 0.78854 0.70568 0.82455
 C1227 C 0.29033 0.18522 0.35285
 C1228 C 0.28781 0.20462 0.32432
 C1229 C 0.71323 0.31230 0.36105
 C1230 C 0.71678 0.29475 0.33056
 C1231 C 0.21338 0.81271 0.85975
 C1232 C 0.21694 0.79509 0.82933
 C1233 C 0.28365 0.81121 0.14991
 C1234 C 0.28005 0.79075 0.17749
 C1235 C 0.78342 0.31035 0.65188
 C1236 C 0.77997 0.28989 0.67948
 C1237 C 0.21293 0.19380 0.64489
 C1238 C 0.21654 0.21204 0.67481
 C1239 C 0.71371 0.69314 0.14324
 C1240 C 0.71733 0.71132 0.17323
 C1241 C 0.21804 0.63691 0.22390
 C1242 C 0.22733 0.66739 0.22839
 C1243 C 0.71916 0.13543 0.72514
 C1244 C 0.72824 0.16595 0.72973
 C1245 C 0.78091 0.14289 0.27764
 C1246 C 0.76966 0.17271 0.27696
 C1247 C 0.28088 0.64324 0.77646
 C1248 C 0.26978 0.67312 0.77552
 C1249 C 0.27816 0.36462 0.72508
 C1250 C 0.26813 0.33442 0.72946
 C1251 C 0.77891 0.86390 0.22355
 C1252 C 0.76887 0.83371 0.22780
 C1253 C 0.72325 0.85690 0.77174
 C1254 C 0.73461 0.82708 0.77202
 C1255 C 0.22256 0.35611 0.27250
 C1256 C 0.23377 0.32623 0.27251
 C1257 C 0.13646 0.23947 0.77333
 C1258 C 0.16688 0.24073 0.76078
 C1259 C 0.63715 0.73874 0.27158
 C1260 C 0.66760 0.74004 0.25914
 C1261 C 0.64058 0.26607 0.22771
 C1262 C 0.66988 0.26524 0.24265
 C1263 C 0.14044 0.76636 0.72694
 C1264 C 0.16982 0.76556 0.74169
 C1265 C 0.86611 0.73389 0.72398
 C1266 C 0.83589 0.73478 0.73724
 C1267 C 0.36496 0.23301 0.22375
 C1268 C 0.33474 0.23380 0.23697
 C1269 C 0.35828 0.76202 0.27449
 C1270 C 0.32838 0.76069 0.26127
 C1271 C 0.85812 0.26193 0.77672
 C1272 C 0.82828 0.26018 0.76340
 C1273 C 0.55819 0.96759 0.59277
 C1274 C 0.54083 0.97149 0.56281
 C1275 C 0.05799 0.46909 1.09552
 C1276 C 0.04067 0.47282 1.06546
 C1277 C -0.05763 0.03620 1.09540
 C1278 C -0.04068 0.03401 1.06431
 C1279 C 0.44207 0.53587 0.59388
 C1280 C 0.45911 0.53358 0.56288
 C1281 C 0.43554 0.46535 -0.10134
 C1282 C 0.45157 0.46601 -0.06991
 C1283 C -0.06412 0.96577 0.39867
 C1284 C -0.04836 0.96642 0.43028
 C1285 C 0.06351 0.52753 0.39868
 C1286 C 0.04738 0.52678 0.43047
 C1287 C 0.56489 0.02786 -0.10181
 C1288 C 0.54836 0.02716 -0.07028
 C1289 C 0.60389 0.52764 -0.02089
 C1290 C 0.57360 0.51750 -0.01746
 C1291 C 0.10365 1.02783 0.47996
 C1292 C 0.07330 1.01787 0.48340
 C1293 C 0.11057 -0.02711 1.01590
 C1294 C 0.08050 -0.01771 1.01045
 C1295 C 0.61070 0.47247 0.51626
 C1296 C 0.58072 0.48190 0.51040
 C1297 C -0.10532 0.46936 0.48681
 C1298 C -0.07435 0.47746 0.48897
 C1299 C 0.39469 -0.02946 -0.01559
 C1300 C 0.42568 -0.02148 -0.01333
 C1301 C 0.38837 1.03074 0.51751
 C1302 C 0.41928 1.02329 0.51341
 C1303 C -0.11188 0.53141 1.01876
 C1304 C -0.08094 0.52394 1.01501
 C1305 C 0.02192 0.60875 0.53094
 C1306 C 0.02019 0.57848 0.51783
 C1307 C 0.52265 0.10885 0.03039
 C1308 C 0.52080 0.07866 0.01708
 C1309 C -0.01482 0.11222 0.96489
 C1310 C -0.01251 0.08212 0.97741
 C1311 C 0.48548 0.61150 0.46316
 C1312 C 0.48778 0.58147 0.47591
 C1313 C 0.51281 0.89363 0.46288
 C1314 C 0.51221 0.92393 0.47600
 C1315 C 0.01293 0.39435 0.96565
 C1316 C 0.01236 0.42465 0.97875
 C1317 C 0.48178 0.38635 0.03037
 C1318 C 0.48101 0.41625 0.01690
 C1319 C -0.01874 0.88680 0.53077
 C1320 C -0.01944 0.91673 0.51736
 C1321 C 0.21586 0.30649 0.15564
 C1322 C 0.22001 0.28926 0.18564
 C1323 C 0.71695 0.80681 0.65494
 C1324 C 0.72125 0.78983 0.68511
 C1325 C 0.28527 0.69145 0.65579
 C1326 C 0.28279 0.70830 0.68689
 C1327 C 0.78536 0.19078 0.15744
 C1328 C 0.78289 0.20775 0.18846
 C1329 C 0.71659 0.18492 0.85219
 C1330 C 0.71700 0.20103 0.82079
 C1331 C 0.21609 0.68682 0.35077
 C1332 C 0.21666 0.70287 0.31934
 C1333 C 0.77931 0.81446 0.34923
 C1334 C 0.77871 0.79823 0.31754
 C1335 C 0.27870 0.31516 0.85074
 C1336 C 0.27804 0.29887 0.81910
 C1337 C 0.77739 0.35375 0.77141
 C1338 C 0.76735 0.32342 0.76788
 C1339 C 0.27826 0.85498 0.26885
 C1340 C 0.26801 0.82466 0.26566
 C1341 C 0.22239 0.85989 0.73425
 C1342 C 0.23147 0.82978 0.73993
 C1343 C 0.72270 0.35941 0.23497
 C1344 C 0.73166 0.32933 0.24098
 C1345 C 0.72110 0.64515 0.26361
 C1346 C 0.72918 0.67608 0.26106
 C1347 C 0.22035 0.14575 0.76490
 C1348 C 0.22841 0.17671 0.76249
 C1349 C 0.28024 0.13769 0.23296
 C1350 C 0.27287 0.16867 0.23681
 C1351 C 0.78184 0.63865 0.73360
 C1352 C 0.77426 0.66959 0.73710
 C1353 C 0.86018 0.77222 0.21685
 C1354 C 0.82995 0.77041 0.23014
 C1355 C 0.35942 0.27278 0.71863
 C1356 C 0.32916 0.27106 0.73178
 C1357 C 0.36101 0.73435 0.78579
 C1358 C 0.33086 0.73665 0.77345
 C1359 C 0.86085 0.23382 0.28774
 C1360 C 0.83075 0.23614 0.27524
 C1361 C 0.14301 0.26201 0.28650
 C1362 C 0.17327 0.26154 0.27327
 C1363 C 0.64385 0.76274 0.78539
 C1364 C 0.67421 0.76229 0.77247
 C1365 C 0.63672 0.23093 0.72049
 C1366 C 0.66658 0.23017 0.73408
 C1367 C 0.13617 0.73283 0.22004
 C1368 C 0.16621 0.73209 0.23309
   
