data_POSCAR
  _audit_creation_date              2014-09-24
  _audit_creation_method            'ToBaCCo'
  _symmetry_space_group_name_H-M    'P1'
  _symmetry_Int_Tables_number       1
  _symmetry_cell_setting            triclinic
  loop_
  _symmetry_equiv_pos_as_xyz
 x,y,z
_cell_length_a 42.2273
_cell_length_b 44.5693
_cell_length_c 52.5389
_cell_angle_alpha 89.945700
_cell_angle_beta 89.972400
_cell_angle_gamma 90.035700
loop_
  _atom_site_label
  _atom_site_type_symbol
  _atom_site_fract_x
  _atom_site_fract_y
  _atom_site_fract_z
Zr1 Zr 0.24911 0.24903 0.29455
 O2 O 0.27402 0.27206 0.32357
 O3 O 0.21807 0.22225 0.31598
 O4 O 0.21919 0.27791 0.31532
 O5 O 0.30683 0.19512 0.28512
 O6 O 0.19402 0.30531 0.28479
 O7 O 0.27896 0.22029 0.31553
 O8 O 0.18816 0.19899 0.28578
 O9 O 0.20744 0.25134 0.27308
 O10 O 0.24766 0.20980 0.27283
 O11 O 0.25301 0.28866 0.27299
 O12 O 0.29158 0.24879 0.27332
 Zr13 Zr 0.25146 0.25099 0.20585
 Zr14 Zr 0.21243 0.28949 0.25011
 Zr15 Zr 0.28824 0.21049 0.25025
 Zr16 Zr 0.20722 0.21291 0.25050
 O17 O 0.33832 0.21181 0.24924
 O18 O 0.15808 0.22263 0.24980
 O19 O 0.24767 0.21093 0.22714
 O20 O 0.20941 0.25111 0.22731
 O21 O 0.25304 0.29050 0.22728
 O22 O 0.29280 0.24868 0.22763
 C23 C 0.19559 0.20452 0.30910
 C24 C 0.30017 0.20123 0.30849
 C25 C 0.19957 0.29838 0.30816
 O26 O 0.16243 0.28800 0.24787
 O27 O 0.19789 0.30859 0.21534
 O28 O 0.22426 0.28211 0.18491
 C29 C 0.20485 0.30281 0.19198
 O30 O 0.31518 0.30248 0.28397
 Zr31 Zr 0.29339 0.28709 0.24994
 O32 O 0.28231 0.27793 0.18445
 O33 O 0.21869 0.33653 0.25228
 O34 O 0.28797 0.33438 0.25076
 O35 O 0.34290 0.27932 0.24836
 O36 O 0.30959 0.30389 0.21467
 C37 C 0.30288 0.29760 0.19136
 O38 O 0.22493 0.22946 0.17695
 O39 O 0.28199 0.16339 0.25129
 O40 O 0.27923 0.22041 0.18494
 O41 O 0.30289 0.19168 0.21541
 O42 O 0.21065 0.16546 0.25197
 O43 O 0.18885 0.19385 0.21649
 C44 C 0.29739 0.19873 0.19203
 H45 H 0.24713 0.19134 0.28330
 H46 H 0.19057 0.25173 0.21611
 H47 H 0.31228 0.24751 0.21719
 H48 H 0.25419 0.30652 0.28414
 H49 H 0.14666 0.20395 0.25437
 H50 H 0.15490 0.30903 0.24873
 H51 H 0.19731 0.34563 0.25134
 H52 H 0.30870 0.34334 0.24622
 H53 H 0.18933 0.15755 0.25613
 H54 H 0.30344 0.15441 0.25194
 H55 H 0.34569 0.19072 0.24865
 H56 H 0.35323 0.29868 0.24418
 H57 H 0.17013 0.18135 0.22060
 H58 H 0.23332 0.23656 0.16035
 H59 H 0.26574 0.26476 0.34014
 H60 H 0.33025 0.31882 0.27988
 Zr61 Zr 0.75105 0.75102 0.29439
 O62 O 0.72632 0.72801 0.32357
 O63 O 0.78203 0.77801 0.31564
 O64 O 0.78111 0.72232 0.31521
 O65 O 0.69299 0.80459 0.28483
 O66 O 0.80637 0.69493 0.28474
 O67 O 0.72106 0.77970 0.31530
 O68 O 0.81175 0.80130 0.28527
 O69 O 0.79268 0.74882 0.27284
 O70 O 0.75225 0.79017 0.27250
 O71 O 0.74731 0.71130 0.27300
 O72 O 0.70853 0.75097 0.27324
 Zr73 Zr 0.74852 0.74870 0.20569
 Zr74 Zr 0.78785 0.71056 0.25003
 Zr75 Zr 0.71164 0.78920 0.25000
 Zr76 Zr 0.79266 0.78717 0.25009
 O77 O 0.66156 0.78765 0.24908
 O78 O 0.84185 0.77769 0.24932
 O79 O 0.75215 0.78886 0.22681
 O80 O 0.79061 0.74888 0.22707
 O81 O 0.74720 0.70927 0.22729
 O82 O 0.70722 0.75091 0.22755
 C83 C 0.80442 0.79581 0.30863
 C84 C 0.69971 0.79861 0.30822
 C85 C 0.80080 0.70190 0.30810
 O86 O 0.83784 0.71229 0.24772
 O87 O 0.80248 0.69144 0.21532
 O88 O 0.77589 0.71766 0.18482
 C89 C 0.79546 0.69711 0.19194
 O90 O 0.68525 0.69719 0.28417
 Zr91 Zr 0.70687 0.71258 0.25002
 O92 O 0.71774 0.72154 0.18447
 O93 O 0.78183 0.66350 0.25238
 O94 O 0.71255 0.66532 0.25102
 O95 O 0.65732 0.72014 0.24854
 O96 O 0.69065 0.69558 0.21487
 C97 C 0.69726 0.70182 0.19151
 O98 O 0.77486 0.77024 0.17662
 O99 O 0.71764 0.83633 0.25086
 O100 O 0.72058 0.77910 0.18471
 O101 O 0.69686 0.80784 0.21512
 O102 O 0.78895 0.83460 0.25137
 O103 O 0.81085 0.80619 0.21597
 C104 C 0.70235 0.80074 0.19176
 H105 H 0.75270 0.80868 0.28290
 H106 H 0.80943 0.74831 0.21584
 H107 H 0.68771 0.75196 0.21714
 H108 H 0.74623 0.69347 0.28422
 H109 H 0.85318 0.79644 0.25377
 H110 H 0.84548 0.69130 0.24866
 H111 H 0.80325 0.65450 0.25145
 H112 H 0.69185 0.65624 0.24657
 H113 H 0.81024 0.84264 0.25546
 H114 H 0.69614 0.84521 0.25151
 H115 H 0.65407 0.80870 0.24841
 H116 H 0.64708 0.70071 0.24446
 H117 H 0.82950 0.81881 0.21999
 H118 H 0.76646 0.76303 0.16008
 H119 H 0.73459 0.73541 0.34009
 H120 H 0.67025 0.68077 0.28017
 Zr121 Zr 0.75101 0.24877 -0.29449
 O122 O 0.72632 0.27171 -0.32370
 O123 O 0.78194 0.22169 -0.31572
 O124 O 0.78112 0.27738 -0.31541
 O125 O 0.69284 0.19527 -0.28476
 O126 O 0.80643 0.30484 -0.28502
 O127 O 0.72095 0.22005 -0.31532
 O128 O 0.81162 0.19849 -0.28533
 O129 O 0.79265 0.25102 -0.27299
 O130 O 0.75215 0.20968 -0.27252
 O131 O 0.74734 0.28856 -0.27319
 O132 O 0.70850 0.24891 -0.27331
 Zr133 Zr 0.74852 0.25138 -0.20580
 Zr134 Zr 0.78788 0.28935 -0.25026
 Zr135 Zr 0.71155 0.21075 -0.24999
 Zr136 Zr 0.79257 0.21275 -0.25016
 O137 O 0.66147 0.21232 -0.24900
 O138 O 0.84178 0.22222 -0.24947
 O139 O 0.75207 0.21115 -0.22684
 O140 O 0.79060 0.25111 -0.22722
 O141 O 0.74725 0.29074 -0.22749
 O142 O 0.70720 0.24911 -0.22762
 C143 C 0.80430 0.20391 -0.30869
 C144 C 0.69957 0.20118 -0.30817
 C145 C 0.80084 0.29781 -0.30834
 O146 O 0.83787 0.28762 -0.24797
 O147 O 0.80253 0.30862 -0.21561
 O148 O 0.77591 0.28250 -0.18503
 C149 C 0.79549 0.30304 -0.19222
 O150 O 0.68530 0.30267 -0.28432
 Zr151 Zr 0.70691 0.28737 -0.25017
 O152 O 0.71779 0.27860 -0.18461
 O153 O 0.78196 0.33640 -0.25274
 O154 O 0.71267 0.33462 -0.25128
 O155 O 0.65735 0.27983 -0.24862
 O156 O 0.69073 0.30449 -0.21503
 C157 C 0.69734 0.29831 -0.19167
 O158 O 0.77485 0.22994 -0.17672
 O159 O 0.71746 0.16361 -0.25076
 O160 O 0.72055 0.22105 -0.18473
 O161 O 0.69678 0.19223 -0.21506
 O162 O 0.78879 0.16531 -0.25132
 O163 O 0.81075 0.19382 -0.21601
 C164 C 0.70229 0.19939 -0.19172
 H165 H 0.75256 0.19115 -0.28288
 H166 H 0.80943 0.25172 -0.21600
 H167 H 0.68770 0.24810 -0.21719
 H168 H 0.74630 0.30635 -0.28445
 H169 H 0.85308 0.20345 -0.25389
 H170 H 0.84555 0.30860 -0.24897
 H171 H 0.80340 0.34541 -0.25185
 H172 H 0.69199 0.34373 -0.24682
 H173 H 0.81006 0.15725 -0.25542
 H174 H 0.69595 0.15475 -0.25136
 H175 H 0.65396 0.19127 -0.24828
 H176 H 0.64713 0.29926 -0.24456
 H177 H 0.82938 0.18119 -0.22002
 H178 H 0.76647 0.23719 -0.16018
 H179 H 0.73457 0.26425 -0.34022
 H180 H 0.67032 0.31910 -0.28034
 Zr181 Zr 0.24814 0.75230 -0.29453
 O182 O 0.27272 0.72946 -0.32384
 O183 O 0.21729 0.77959 -0.31566
 O184 O 0.21793 0.72381 -0.31546
 O185 O 0.30647 0.80554 -0.28480
 O186 O 0.19250 0.69634 -0.28506
 O187 O 0.27831 0.78109 -0.31532
 O188 O 0.18780 0.80275 -0.28528
 O189 O 0.20649 0.75010 -0.27300
 O190 O 0.24716 0.79129 -0.27251
 O191 O 0.25163 0.71241 -0.27326
 O192 O 0.29065 0.75188 -0.27339
 Zr193 Zr 0.25062 0.74927 -0.20582
 Zr194 Zr 0.21110 0.71167 -0.25029
 Zr195 Zr 0.28775 0.78994 -0.25002
 Zr196 Zr 0.20674 0.78827 -0.25012
 O197 O 0.33782 0.78816 -0.24911
 O198 O 0.15750 0.77896 -0.24944
 O199 O 0.24724 0.78959 -0.22682
 O200 O 0.20854 0.74982 -0.22721
 O201 O 0.25172 0.70999 -0.22755
 O202 O 0.29194 0.75148 -0.22767
 C203 C 0.19498 0.79755 -0.30875
 C204 C 0.29982 0.79996 -0.30831
 C205 C 0.19813 0.70341 -0.30840
 O206 O 0.16111 0.71358 -0.24800
 O207 O 0.19630 0.69238 -0.21564
 O208 O 0.22300 0.71816 -0.18509
 C209 C 0.20320 0.69770 -0.19215
 O210 O 0.31360 0.69805 -0.28447
 Zr211 Zr 0.29207 0.71332 -0.25028
 O212 O 0.28125 0.72182 -0.18469
 O213 O 0.21683 0.66460 -0.25280
 O214 O 0.28610 0.66610 -0.25146
 O215 O 0.34166 0.72069 -0.24877
 O216 O 0.30820 0.69599 -0.21519
 C217 C 0.30163 0.70208 -0.19180
 O218 O 0.22443 0.77067 -0.17664
 O219 O 0.28207 0.83711 -0.25067
 O220 O 0.27874 0.77946 -0.18474
 O221 O 0.30263 0.80828 -0.21508
 O222 O 0.21073 0.83569 -0.25119
 O223 O 0.18859 0.80714 -0.21597
 C224 C 0.29709 0.80108 -0.19173
 H225 H 0.24683 0.80987 -0.28284
 H226 H 0.18972 0.74924 -0.21598
 H227 H 0.31145 0.75238 -0.21726
 H228 H 0.25260 0.69466 -0.28455
 H229 H 0.14628 0.79778 -0.25386
 H230 H 0.15335 0.69263 -0.24901
 H231 H 0.19535 0.65568 -0.25188
 H232 H 0.30673 0.65689 -0.24702
 H233 H 0.18951 0.84386 -0.25531
 H234 H 0.30362 0.84589 -0.25133
 H235 H 0.34544 0.80917 -0.24836
 H236 H 0.35180 0.70121 -0.24475
 H237 H 0.17000 0.81982 -0.21996
 H238 H 0.23280 0.76328 -0.16014
 H239 H 0.26448 0.73706 -0.34031
 H240 H 0.32855 0.68158 -0.28051
 Zr241 Zr 1.25210 1.25190 0.79412
 O242 O 1.22688 1.22915 0.82317
 O243 O 1.28334 1.27847 0.81538
 O244 O 1.28208 1.22327 0.81512
 O245 O 1.19513 1.30639 0.78440
 O246 O 1.30707 1.19547 0.78479
 O247 O 1.22279 1.28123 0.81495
 O248 O 1.31354 1.30131 0.78508
 O249 O 1.29375 1.24920 0.77266
 O250 O 1.25393 1.29099 0.77216
 O251 O 1.24789 1.21216 0.77286
 O252 O 1.20963 1.25239 0.77293
 Zr253 Zr 1.24968 1.24948 0.70545
 Zr254 Zr 1.28847 1.21094 0.74998
 Zr255 Zr 1.21335 1.29052 0.74962
 Zr256 Zr 1.29433 1.28747 0.74985
 O257 O 1.16327 1.28947 0.74861
 O258 O 1.34338 1.27736 0.74911
 O259 O 1.25391 1.28961 0.72652
 O260 O 1.29173 1.24917 0.72693
 O261 O 1.24785 1.21011 0.72714
 O262 O 1.20837 1.25224 0.72722
 C263 C 1.30603 1.29590 0.80842
 C264 C 1.20192 1.30055 0.80779
 C265 C 1.30179 1.20281 0.80812
 O266 O 1.33848 1.21192 0.74765
 O267 O 1.30306 1.19177 0.71532
 O268 O 1.27694 1.21831 0.68475
 C269 C 1.29635 1.19769 0.69194
 O270 O 1.18556 1.19904 0.78395
 Zr271 Zr 1.20751 1.21395 0.74979
 O272 O 1.21862 1.22251 0.68423
 O273 O 1.28171 1.16399 0.75245
 O274 O 1.21249 1.16663 0.75096
 O275 O 1.15807 1.22207 0.74813
 O276 O 1.19120 1.19693 0.71467
 C277 C 1.19794 1.20297 0.69130
 O278 O 1.27629 1.27055 0.67628
 O279 O 1.21987 1.33759 0.75046
 O280 O 1.22245 1.28043 0.68438
 O281 O 1.19919 1.30955 0.71475
 O282 O 1.29130 1.33495 0.75111
 O283 O 1.31287 1.30622 0.71574
 C284 C 1.20477 1.30250 0.69139
 H285 H 1.25467 1.30953 0.78251
 H286 H 1.31059 1.24839 0.71574
 H287 H 1.18894 1.25354 0.71674
 H288 H 1.24662 1.19440 0.78415
 H289 H 1.35497 1.29596 0.75361
 H290 H 1.34581 1.19084 0.74868
 H291 H 1.30300 1.15471 0.75160
 H292 H 1.19167 1.15779 0.74654
 H293 H 1.31267 1.34271 0.75528
 H294 H 1.19849 1.34671 0.75105
 H295 H 1.15605 1.31061 0.74791
 H296 H 1.14759 1.20274 0.74413
 H297 H 1.33164 1.31866 0.71978
 H298 H 1.26779 1.26339 0.65976
 H299 H 1.23517 1.23645 0.83972
 H300 H 1.17035 1.18278 0.77999
 Zr301 Zr 0.74798 0.74818 0.79424
 O302 O 0.77328 0.77101 0.82314
 O303 O 0.71671 0.72179 0.81567
 O304 O 0.71808 0.77694 0.81516
 O305 O 0.80482 0.69354 0.78468
 O306 O 0.69309 0.80466 0.78474
 O307 O 0.77726 0.71890 0.81516
 O308 O 0.68639 0.69892 0.78552
 O309 O 0.70631 0.75086 0.77283
 O310 O 0.74605 0.70899 0.77248
 O311 O 0.75224 0.78783 0.77279
 O312 O 0.79042 0.74751 0.77299
 Zr313 Zr 0.75028 0.75020 0.70557
 Zr314 Zr 0.71163 0.78901 0.74997
 Zr315 Zr 0.78659 0.70929 0.74986
 Zr316 Zr 0.70562 0.71249 0.75021
 O317 O 0.83668 0.71022 0.74879
 O318 O 0.65659 0.72266 0.74945
 O319 O 0.74601 0.71016 0.72681
 O320 O 0.70826 0.75069 0.72711
 O321 O 0.75222 0.78967 0.72706
 O322 O 0.79162 0.74747 0.72729
 C323 C 0.69394 0.70441 0.80883
 C324 C 0.79810 0.69951 0.80805
 C325 C 0.69839 0.79741 0.80810
 O326 O 0.66161 0.78811 0.74773
 O327 O 0.69704 0.80804 0.71524
 O328 O 0.72306 0.78131 0.68476
 C329 C 0.70370 0.80200 0.69188
 O330 O 0.81459 0.80087 0.78373
 Zr331 Zr 0.79258 0.78585 0.74967
 O332 O 0.78136 0.77702 0.68418
 O333 O 0.71849 0.83597 0.75221
 O334 O 0.78769 0.83319 0.75061
 O335 O 0.84201 0.77766 0.74799
 O336 O 0.80888 0.80266 0.71445
 C337 C 0.80210 0.79653 0.69112
 O338 O 0.72360 0.72903 0.67655
 O339 O 0.77995 0.66223 0.75091
 O340 O 0.77747 0.71915 0.68459
 O341 O 0.80072 0.69012 0.71504
 O342 O 0.70855 0.66501 0.75174
 O343 O 0.68705 0.69360 0.71621
 C344 C 0.79515 0.69710 0.69167
 H345 H 0.74527 0.69051 0.78291
 H346 H 0.68940 0.75144 0.71595
 H347 H 0.81103 0.74609 0.71679
 H348 H 0.75355 0.80563 0.78401
 H349 H 0.64497 0.70410 0.75405
 H350 H 0.65433 0.80922 0.74867
 H351 H 0.69721 0.84528 0.75135
 H352 H 0.80853 0.84197 0.74612
 H353 H 0.68715 0.65733 0.75597
 H354 H 0.80131 0.65307 0.75152
 H355 H 0.84384 0.68906 0.74818
 H356 H 0.85252 0.79696 0.74389
 H357 H 0.66827 0.68119 0.72033
 H358 H 0.73209 0.73610 0.65998
 H359 H 0.76500 0.76381 0.83974
 H360 H 0.82980 0.81711 0.77969
 Zr361 Zr 1.25214 0.74810 0.20585
 O362 O 1.22702 0.77103 0.17689
 O363 O 1.28324 0.72150 0.18449
 O364 O 1.28225 0.77665 0.18489
 O365 O 1.19490 0.69375 0.21545
 O366 O 1.30740 0.80430 0.21525
 O367 O 1.22272 0.71894 0.18496
 O368 O 1.31334 0.69847 0.21472
 O369 O 1.29380 0.75060 0.22728
 O370 O 1.25377 0.70893 0.22770
 O371 O 1.24813 0.78779 0.22720
 O372 O 1.20965 0.74769 0.22706
 Zr373 Zr 1.24974 0.75025 0.29448
 Zr374 Zr 1.28872 0.78881 0.25004
 Zr375 Zr 1.21319 0.70947 0.25026
 Zr376 Zr 1.29419 0.71225 0.24999
 O377 O 1.16311 0.71067 0.25131
 O378 O 1.34330 0.72219 0.25072
 O379 O 1.25375 0.71017 0.27334
 O380 O 1.29180 0.75049 0.27299
 O381 O 1.24810 0.78971 0.27291
 O382 O 1.20841 0.74769 0.27276
 C383 C 1.30585 0.70397 0.19139
 C384 C 1.20175 0.69965 0.19207
 C385 C 1.30206 0.79702 0.19191
 O386 O 1.33873 0.78766 0.25234
 O387 O 1.30341 0.80782 0.28474
 O388 O 1.27710 0.78127 0.31524
 C389 C 1.29663 0.80184 0.30811
 O390 O 1.18587 0.80116 0.21617
 Zr391 Zr 1.20774 0.78606 0.25029
 O392 O 1.21881 0.77723 0.31581
 O393 O 1.28220 0.83579 0.24767
 O394 O 1.21295 0.83337 0.24922
 O395 O 1.15825 0.77811 0.25197
 O396 O 1.19151 0.80301 0.28547
 C397 C 1.19822 0.79686 0.30882
 O398 O 1.27627 0.72901 0.32357
 O399 O 1.21946 0.66237 0.24932
 O400 O 1.22239 0.71934 0.31550
 O401 O 1.19895 0.69039 0.28512
 O402 O 1.29095 0.66479 0.24861
 O403 O 1.31261 0.69333 0.28405
 C404 C 1.20460 0.69736 0.30848
 H405 H 1.25443 0.69042 0.21731
 H406 H 1.31065 0.75117 0.28417
 H407 H 1.18898 0.74642 0.28325
 H408 H 1.24695 0.80559 0.21594
 H409 H 1.35479 0.70356 0.24618
 H410 H 1.34616 0.80873 0.25134
 H411 H 1.30354 0.84500 0.24853
 H412 H 1.19217 0.84226 0.25368
 H413 H 1.31230 0.65698 0.24443
 H414 H 1.19803 0.65333 0.24873
 H415 H 1.15579 0.68956 0.25197
 H416 H 1.14787 0.79747 0.25601
 H417 H 1.33134 0.68086 0.27998
 H418 H 1.26780 0.73613 0.34013
 H419 H 1.23527 0.76377 0.16031
 H420 H 1.17075 0.81746 0.22017
 Zr421 Zr 0.74824 1.25186 0.20567
 O422 O 0.77325 1.22909 0.17657
 O423 O 0.71717 1.27871 0.18447
 O424 O 0.71805 1.22343 0.18466
 O425 O 0.80571 1.30595 0.21545
 O426 O 0.69285 1.19568 0.21499
 O427 O 0.77782 1.28110 0.18487
 O428 O 0.68721 1.30162 0.21484
 O429 O 0.70659 1.24932 0.22717
 O430 O 0.74676 1.29086 0.22769
 O431 O 0.75213 1.21201 0.22691
 O432 O 0.79073 1.25197 0.22686
 Zr433 Zr 0.75069 1.24904 0.29438
 Zr434 Zr 0.71156 1.21094 0.24981
 Zr435 Zr 0.78735 1.29003 0.25022
 Zr436 Zr 0.70635 1.28751 0.25003
 O437 O 0.83742 1.28865 0.25120
 O438 O 0.65721 1.27771 0.25078
 O439 O 0.74681 1.28928 0.27335
 O440 O 0.70864 1.24910 0.27291
 O441 O 0.75218 1.20974 0.27264
 O442 O 0.79201 1.25163 0.27259
 C443 C 0.69463 1.29626 0.19148
 C444 C 0.79888 1.30026 0.19205
 C445 C 0.69820 1.20304 0.19166
 O446 O 0.66155 1.21226 0.25211
 O447 O 0.69675 1.19174 0.28446
 O448 O 0.72314 1.21794 0.31506
 C449 C 0.70351 1.19750 0.30785
 O450 O 0.81432 1.19846 0.21579
 Zr451 Zr 0.79253 1.21343 0.24997
 O452 O 0.78159 1.22180 0.31555
 O453 O 0.71793 1.16395 0.24731
 O454 O 0.78713 1.16615 0.24877
 O455 O 0.84204 1.22125 0.25157
 O456 O 0.80878 1.19619 0.28506
 C457 C 0.80214 1.20218 0.30844
 O458 O 0.72429 1.27014 0.32360
 O459 O 0.78121 1.33715 0.24946
 O460 O 0.77819 1.27976 0.31547
 O461 O 0.80169 1.30883 0.28512
 O462 O 0.70981 1.33496 0.24884
 O463 O 0.68800 1.30624 0.28417
 C464 C 0.79607 1.30174 0.30847
 H465 H 0.74617 1.30945 0.21737
 H466 H 0.68978 1.24840 0.28410
 H467 H 0.81146 1.25277 0.28305
 H468 H 0.75325 1.19428 0.21560
 H469 H 0.64578 1.29640 0.24632
 H470 H 0.65403 1.19123 0.25106
 H471 H 0.69656 1.15480 0.24816
 H472 H 0.80788 1.15715 0.25317
 H473 H 0.68850 1.34289 0.24469
 H474 H 0.80267 1.34614 0.24886
 H475 H 0.84482 1.30973 0.25194
 H476 H 0.85238 1.20185 0.25556
 H477 H 0.66933 1.31882 0.28015
 H478 H 0.73276 1.26286 0.34011
 H479 H 0.76500 1.23652 0.16004
 H480 H 0.82940 1.18210 0.21973
 N481 N 0.55628 1.03159 0.02748
 N482 N 0.57833 1.05166 0.03288
 N483 N 0.53418 0.96851 0.04507
 N484 N 0.54091 0.94884 0.06306
 N485 N 0.55627 0.96851 0.02744
 N486 N 0.57862 0.94885 0.03300
 N487 N 0.53411 1.03157 0.04504
 N488 N 0.54045 1.05161 0.06281
 C489 C 0.56777 1.06422 0.05473
 C490 C 0.56833 0.93645 0.05500
 N491 N 0.44372 0.96841 0.02753
 N492 N 0.42175 0.94825 0.03291
 N493 N 0.46579 1.03147 0.04507
 N494 N 0.45901 1.05104 0.06311
 N495 N 0.44369 1.03147 0.02748
 N496 N 0.42127 1.05103 0.03311
 N497 N 0.46590 0.96842 0.04507
 N498 N 0.45964 0.94829 0.06281
 Mn499 Mn 0.49999 1.00000 0.04526
 C500 C 0.43237 0.93564 0.05473
 C501 C 0.43153 1.06337 0.05511
 N502 N 0.55624 0.96846 -0.02755
 N503 N 0.57832 0.94847 -0.03301
 N504 N 0.53415 1.03153 -0.04510
 N505 N 0.54081 1.05130 -0.06303
 N506 N 0.55624 1.03153 -0.02749
 N507 N 0.57853 1.05130 -0.03300
 N508 N 0.53407 0.96847 -0.04509
 N509 N 0.54043 0.94850 -0.06290
 Mn510 Mn 0.55655 1.00002 -0.00003
 C511 C 0.56777 0.93593 -0.05486
 C512 C 0.56820 1.06375 -0.05494
 N513 N 0.44370 1.03157 -0.02751
 N514 N 0.42166 1.05164 -0.03293
 N515 N 0.46574 0.96851 -0.04507
 N516 N 0.45897 0.94887 -0.06306
 N517 N 0.44365 0.96849 -0.02745
 N518 N 0.42126 0.94885 -0.03301
 N519 N 0.46586 1.03157 -0.04508
 N520 N 0.45954 1.05162 -0.06286
 Mn521 Mn 0.44340 0.99999 0.00001
 Mn522 Mn 0.49996 1.00002 -0.04529
 Cl523 Cl 0.49997 1.00000 -0.00001
 C524 C 0.43223 1.06422 -0.05479
 C525 C 0.43152 0.93648 -0.05500
 N526 N 0.96651 0.53228 0.45495
 N527 N 0.94614 0.53901 0.43677
 N528 N 1.03296 0.55340 0.47247
 N529 N 1.05384 0.57453 0.46699
 N530 N 1.03304 0.53248 0.45486
 N531 N 1.05396 0.53881 0.43697
 N532 N 0.96645 0.55310 0.47264
 N533 N 0.94606 0.57452 0.46695
 C534 C 0.93319 0.56505 0.44484
 C535 C 1.06705 0.56477 0.44507
 N536 N 1.03319 0.53260 0.54507
 N537 N 1.05345 0.53956 0.56326
 N538 N 0.96650 0.55309 0.52755
 N539 N 0.94565 0.57417 0.53314
 N540 N 0.96664 0.53216 0.54518
 N541 N 0.94588 0.53843 0.56320
 N542 N 1.03303 0.55344 0.52736
 N543 N 1.05316 0.57509 0.53304
 Mn544 Mn 0.99973 0.55350 0.50000
 C545 C 1.06611 0.56576 0.55518
 C546 C 0.93265 0.56436 0.55515
 N547 N 1.03328 0.46774 0.45483
 N548 N 1.05361 0.46105 0.43660
 N549 N 0.96691 0.44657 0.47257
 N550 N 0.94627 0.42525 0.46704
 N551 N 0.96674 0.46750 0.45495
 N552 N 0.94600 0.46100 0.43699
 N553 N 1.03343 0.44690 0.47254
 N554 N 1.05383 0.42551 0.46682
 Mn555 Mn 0.99989 0.50001 0.45469
 C556 C 1.06662 0.43502 0.44466
 C557 C 0.93309 0.43491 0.44506
 N558 N 0.96704 0.46741 0.54516
 N559 N 0.94656 0.46063 0.56327
 N560 N 1.03361 0.44690 0.52744
 N561 N 1.05449 0.42581 0.53296
 N562 N 1.03357 0.46781 0.54505
 N563 N 1.05442 0.46151 0.56299
 N564 N 0.96710 0.44659 0.52746
 N565 N 0.94670 0.42513 0.53307
 Mn566 Mn 1.00011 0.49999 0.54533
 Mn567 Mn 1.00026 0.44650 0.50001
 Cl568 Cl 1.00000 0.50000 0.50001
 C569 C 0.93371 0.43456 0.55515
 C570 C 1.06761 0.43559 0.55491
 N571 N 0.96744 0.53296 -0.04547
 N572 N 0.94674 0.53948 -0.06345
 N573 N 1.03408 0.55387 -0.02808
 N574 N 1.05448 0.57530 -0.03398
 N575 N 1.03401 0.53291 -0.04566
 N576 N 1.05436 0.53953 -0.06393
 N577 N 0.96751 0.55384 -0.02782
 N578 N 0.94688 0.57511 -0.03336
 C579 C 0.93377 0.56548 -0.05534
 C580 C 1.06732 0.56569 -0.05612
 N581 N 1.03406 0.53280 0.04460
 N582 N 1.05457 0.53937 0.06271
 N583 N 0.96755 0.55385 0.02715
 N584 N 0.94689 0.57509 0.03282
 N585 N 0.96750 0.53286 0.04473
 N586 N 0.94683 0.53926 0.06279
 N587 N 1.03410 0.55371 0.02695
 N588 N 1.05463 0.57505 0.03261
 Mn589 Mn 1.00082 0.55406 -0.00045
 C590 C 1.06758 0.56541 0.05467
 C591 C 0.93383 0.56533 0.05484
 N592 N 1.03381 0.46810 -0.04553
 N593 N 1.05436 0.46152 -0.06362
 N594 N 0.96722 0.44723 -0.02788
 N595 N 0.94651 0.42601 -0.03352
 N596 N 0.96726 0.46819 -0.04548
 N597 N 0.94657 0.46179 -0.06352
 N598 N 1.03377 0.44719 -0.02787
 N599 N 1.05429 0.42585 -0.03350
 Mn600 Mn 1.00063 0.50054 -0.04573
 C601 C 1.06729 0.43547 -0.05556
 C602 C 0.93348 0.43575 -0.05554
 N603 N 0.96741 0.46806 0.04477
 N604 N 0.94708 0.46136 0.06302
 N605 N 1.03390 0.44709 0.02710
 N606 N 1.05452 0.42581 0.03276
 N607 N 1.03398 0.46804 0.04468
 N608 N 1.05465 0.46158 0.06272
 N609 N 0.96734 0.44718 0.02713
 N610 N 0.94697 0.42573 0.03294
 Mn611 Mn 1.00074 0.50045 0.04489
 Mn612 Mn 1.00056 0.44693 -0.00038
 Cl613 Cl 1.00069 0.50049 -0.00042
 C614 C 0.93415 0.43525 0.05508
 C615 C 1.06762 0.43551 0.05476
 N616 N 0.55573 1.03119 0.52774
 N617 N 0.57784 1.05116 0.53322
 N618 N 0.53394 0.96802 0.54533
 N619 N 0.54089 0.94843 0.56333
 N620 N 0.55597 0.96816 0.52765
 N621 N 0.57848 0.94867 0.53317
 N622 N 0.53361 1.03106 0.54535
 N623 N 0.54008 1.05092 0.56323
 C624 C 0.56739 1.06356 0.55515
 C625 C 0.56837 0.93622 0.55519
 N626 N 0.44338 0.96759 0.52802
 N627 N 0.42107 0.94789 0.53377
 N628 N 0.46530 1.03071 0.54548
 N629 N 0.45846 1.05029 0.56350
 N630 N 0.44320 1.03064 0.52788
 N631 N 0.42073 1.05015 0.53347
 N632 N 0.46558 0.96766 0.54554
 N633 N 0.45898 0.94802 0.56362
 Mn634 Mn 0.49962 0.99936 0.54562
 C635 C 0.43149 0.93555 0.55576
 C636 C 0.43095 1.06254 0.55545
 N637 N 0.55589 0.96815 0.47271
 N638 N 0.57813 0.94836 0.46716
 N639 N 0.53356 1.03113 0.45516
 N640 N 0.54047 1.05050 0.43696
 N641 N 0.55567 1.03121 0.47275
 N642 N 0.57820 1.05063 0.46696
 N643 N 0.53369 0.96807 0.45519
 N644 N 0.54021 0.94824 0.43730
 Mn645 Mn 0.55609 0.99968 0.50022
 C646 C 0.56766 0.93584 0.44527
 C647 C 0.56801 1.06283 0.44487
 N648 N 0.44310 1.03077 0.47293
 N649 N 0.42088 1.05064 0.46749
 N650 N 0.46538 0.96786 0.45535
 N651 N 0.45856 0.94834 0.43729
 N652 N 0.44335 0.96773 0.47302
 N653 N 0.42095 0.94813 0.46743
 N654 N 0.46523 1.03089 0.45534
 N655 N 0.45870 1.05083 0.43752
 Mn656 Mn 0.44298 0.99918 0.50046
 Mn657 Mn 0.49946 0.99949 0.45506
 Cl658 Cl 0.49954 0.99942 0.50034
 C659 C 0.43131 1.06324 0.44560
 C660 C 0.43115 0.93589 0.44538
 N661 N 1.05665 1.03098 0.52782
 N662 N 1.07862 1.05112 0.53315
 N663 N 1.03422 0.96796 0.54538
 N664 N 1.04027 0.94781 0.56314
 N665 N 1.05650 0.96789 0.52792
 N666 N 1.07836 0.94768 0.53338
 N667 N 1.03443 1.03100 0.54533
 N668 N 1.04065 1.05116 0.56302
 C669 C 1.06796 1.06377 0.55491
 C670 C 1.06754 0.93509 0.55516
 N671 N 0.94394 0.96815 0.52755
 N672 N 0.92198 0.94792 0.53274
 N673 N 0.96621 1.03115 0.54515
 N674 N 0.96013 1.05143 0.56275
 N675 N 0.94409 1.03122 0.52758
 N676 N 0.92230 1.05159 0.53280
 N677 N 0.96600 0.96811 0.54517
 N678 N 0.95969 0.94786 0.56279
 Mn679 Mn 1.00021 0.99955 0.54547
 C680 C 0.93250 0.93521 0.55453
 C681 C 0.93299 1.06423 0.55456
 N682 N 1.05672 0.96795 0.47292
 N683 N 1.07870 0.94781 0.46762
 N684 N 1.03471 1.03106 0.45530
 N685 N 1.04073 1.05153 0.43781
 N686 N 1.05684 1.03103 0.47287
 N687 N 1.07858 1.05151 0.46776
 N688 N 1.03465 0.96802 0.45531
 N689 N 1.04098 0.94794 0.43758
 Mn690 Mn 1.05700 0.99946 0.50038
 C691 C 1.06819 0.93527 0.44577
 C692 C 1.06785 1.06431 0.44606
 N693 N 0.94429 1.03121 0.47260
 N694 N 0.92227 1.05125 0.46711
 N695 N 0.96643 0.96811 0.45514
 N696 N 0.96041 0.94782 0.43753
 N697 N 0.94416 0.96813 0.47260
 N698 N 0.92232 0.94782 0.46730
 N699 N 0.96650 1.03116 0.45508
 N700 N 0.96023 1.05115 0.43724
 Mn701 Mn 0.94380 0.99968 0.50008
 Mn702 Mn 1.00058 0.99959 0.45500
 Cl703 Cl 1.00040 0.99957 0.50023
 C704 C 0.93290 1.06377 0.44526
 C705 C 0.93315 0.93512 0.44560
 N706 N 0.55595 0.53151 0.02740
 N707 N 0.57783 0.55175 0.03268
 N708 N 0.53364 0.46845 0.04485
 N709 N 0.53947 0.44795 0.06234
 N710 N 0.55588 0.46846 0.02736
 N711 N 0.57752 0.44795 0.03253
 N712 N 0.53376 0.53145 0.04493
 N713 N 0.53989 0.55165 0.06259
 C714 C 0.56711 0.56437 0.05443
 C715 C 0.56659 0.43513 0.05417
 N716 N 0.44343 0.46854 0.02716
 N717 N 0.42161 0.44817 0.03227
 N718 N 0.46565 0.53150 0.04481
 N719 N 0.45989 0.55207 0.06222
 N720 N 0.44349 0.53159 0.02727
 N721 N 0.42197 0.55225 0.03231
 N722 N 0.46553 0.46850 0.04474
 N723 N 0.45940 0.44811 0.06227
 Mn724 Mn 0.49964 0.49998 0.04506
 C725 C 0.43227 0.43538 0.05398
 C726 C 0.43289 0.56503 0.05394
 N727 N 0.55602 0.46867 -0.02753
 N728 N 0.57791 0.44844 -0.03278
 N729 N 0.53385 0.53174 -0.04499
 N730 N 0.53956 0.55253 -0.06227
 N731 N 0.55601 0.53171 -0.02746
 N732 N 0.57748 0.55250 -0.03236
 N733 N 0.53393 0.46875 -0.04512
 N734 N 0.54013 0.44858 -0.06278
 Mn735 Mn 0.55631 0.50008 -0.00006
 C736 C 0.56729 0.43585 -0.05457
 C737 C 0.56653 0.56547 -0.05391
 N738 N 0.44355 0.53169 -0.02763
 N739 N 0.42157 0.55180 -0.03297
 N740 N 0.46582 0.46872 -0.04519
 N741 N 0.46014 0.44812 -0.06259
 N742 N 0.44358 0.46864 -0.02771
 N743 N 0.42207 0.44796 -0.03278
 N744 N 0.46574 0.53172 -0.04516
 N745 N 0.45950 0.55185 -0.06288
 Mn746 Mn 0.44317 0.50012 -0.00022
 Mn747 Mn 0.49984 0.50024 -0.04534
 Cl748 Cl 0.49974 0.50010 -0.00014
 C749 C 0.43222 0.56445 -0.05476
 C750 C 0.43309 0.43517 -0.05437
 C751 C 0.32744 1.17263 0.12753
 C752 C 0.34694 1.14863 0.13456
 C753 C 0.34969 1.14067 0.16022
 C754 C 0.33329 1.15673 0.17883
 C755 C 0.31380 1.18108 0.17206
 C756 C 0.31094 1.18877 0.14614
 C757 C 0.36442 1.13209 0.11570
 C758 C 0.37951 1.11756 0.10063
 C759 C 0.39753 1.09968 0.08386
 C760 C 0.41305 1.08359 0.07030
 H761 H 0.32512 1.17896 0.10770
 H762 H 0.36470 1.12211 0.16587
 H763 H 0.33609 1.15014 0.19854
 H764 H 0.29622 1.20741 0.14024
 C765 C 0.82357 0.66933 0.62714
 C766 C 0.84207 0.64463 0.63422
 C767 C 0.84466 0.63679 0.65991
 C768 C 0.82913 0.65365 0.67851
 C769 C 0.81071 0.67873 0.67170
 C770 C 0.80794 0.68627 0.64574
 C771 C 0.85937 0.62775 0.61543
 C772 C 0.87476 0.61334 0.60045
 C773 C 0.89383 0.59629 0.58378
 C774 C 0.91103 0.58169 0.57029
 H775 H 0.82149 0.67567 0.60730
 H776 H 0.85897 0.61776 0.66562
 H777 H 0.83180 0.64711 0.69824
 H778 H 0.79401 0.70543 0.63981
 C779 C 0.67224 0.82675 0.12723
 C780 C 0.65271 0.85072 0.13425
 C781 C 0.64991 0.85867 0.15989
 C782 C 0.66633 0.84263 0.17851
 C783 C 0.68587 0.81832 0.17177
 C784 C 0.68875 0.81063 0.14586
 C785 C 0.63526 0.86729 0.11538
 C786 C 0.62020 0.88189 0.10033
 C787 C 0.60222 0.89989 0.08362
 C788 C 0.58674 0.91609 0.07012
 H789 H 0.67459 0.82043 0.10742
 H790 H 0.63489 0.87721 0.16552
 H791 H 0.66351 0.84923 0.19822
 H792 H 0.70351 0.79202 0.13999
 C793 C 1.17648 0.33026 0.62681
 C794 C 1.15805 0.35501 0.63384
 C795 C 1.15545 0.36288 0.65951
 C796 C 1.17089 0.34599 0.67814
 C797 C 1.18925 0.32085 0.67138
 C798 C 1.19204 0.31329 0.64544
 C799 C 1.14084 0.37195 0.61503
 C800 C 1.12550 0.38641 0.60005
 C801 C 1.10645 0.40355 0.58342
 C802 C 1.08925 0.41822 0.56998
 H803 H 1.17858 0.32390 0.60698
 H804 H 1.14119 0.38194 0.66518
 H805 H 1.16822 0.35255 0.69786
 H806 H 1.20593 0.29409 0.63956
 C807 C 0.67211 1.17364 -0.12714
 C808 C 0.65258 1.14963 -0.13409
 C809 C 0.64981 1.14157 -0.15970
 C810 C 0.66625 1.15754 -0.17837
 C811 C 0.68580 1.18189 -0.17169
 C812 C 0.68865 1.18969 -0.14581
 C813 C 0.63511 1.13311 -0.11519
 C814 C 0.62003 1.11852 -0.10015
 C815 C 0.60203 1.10049 -0.08346
 C816 C 0.58656 1.08422 -0.07000
 H817 H 0.67443 1.18004 -0.10734
 H818 H 0.63479 1.12299 -0.16528
 H819 H 0.66346 1.15086 -0.19805
 H820 H 0.70341 1.20834 -0.13999
 C821 C 1.15503 0.63717 0.34043
 C822 C 1.15779 0.64500 0.36609
 C823 C 1.17640 0.66965 0.37309
 C824 C 1.19199 0.68656 0.35443
 C825 C 1.18904 0.67904 0.32849
 C826 C 1.17050 0.65401 0.32177
 C827 C 1.14054 0.62816 0.38494
 C828 C 1.12515 0.61378 0.39996
 C829 C 1.10604 0.59675 0.41662
 C830 C 1.08877 0.58213 0.43006
 H831 H 1.14062 0.61818 0.33479
 H832 H 1.17861 0.67596 0.39292
 H833 H 1.20602 0.70569 0.36029
 H834 H 1.16770 0.64749 0.30204
 C835 C 0.34975 0.85879 -0.15980
 C836 C 0.34693 0.85079 -0.13416
 C837 C 0.32733 0.82681 -0.12716
 C838 C 0.31076 0.81077 -0.14580
 C839 C 0.31366 0.81853 -0.17171
 C840 C 0.33329 0.84283 -0.17843
 C841 C 0.36442 0.86732 -0.11528
 C842 C 0.37952 0.88192 -0.10026
 C843 C 0.39755 0.89992 -0.08358
 C844 C 0.41307 0.91612 -0.07010
 H845 H 0.36483 0.87733 -0.16543
 H846 H 0.32496 0.82044 -0.10735
 H847 H 0.29594 0.79216 -0.13994
 H848 H 0.33612 0.84949 -0.19813
 C849 C 0.82443 0.32930 0.37308
 C850 C 0.84310 0.35393 0.36605
 C851 C 0.84589 0.36174 0.34037
 C852 C 0.83037 0.34495 0.32173
 C853 C 0.81174 0.31995 0.32849
 C854 C 0.80879 0.31242 0.35444
 C855 C 0.86029 0.37085 0.38488
 C856 C 0.87559 0.38535 0.39987
 C857 C 0.89454 0.40256 0.41653
 C858 C 0.91162 0.41735 0.42998
 H859 H 0.82218 0.32299 0.39292
 H860 H 0.86033 0.38072 0.33469
 H861 H 0.83318 0.35149 0.30201
 H862 H 0.79470 0.29333 0.36033
 C863 C 1.17935 0.33290 0.12732
 C864 C 1.15764 0.35512 0.13442
 C865 C 1.15190 0.36056 0.16023
 C866 C 1.16747 0.34377 0.17887
 C867 C 1.18911 0.32113 0.17201
 C868 C 1.19502 0.31602 0.14597
 C869 C 1.14048 0.37198 0.11548
 C870 C 1.12518 0.38635 0.10037
 C871 C 1.10619 0.40338 0.08356
 C872 C 1.08909 0.41802 0.06997
 H873 H 1.18396 0.32845 0.10739
 H874 H 1.13513 0.37767 0.16597
 H875 H 1.16230 0.34841 0.19866
 H876 H 1.21154 0.29884 0.13999
 C877 C 0.67618 0.83004 0.62727
 C878 C 0.65423 0.85200 0.63438
 C879 C 0.64910 0.85812 0.66015
 C880 C 0.66553 0.84216 0.67879
 C881 C 0.68740 0.81975 0.67194
 C882 C 0.69271 0.81400 0.64592
 C883 C 0.63660 0.86831 0.61549
 C884 C 0.62127 0.88262 0.60046
 C885 C 0.60290 0.90025 0.58378
 C886 C 0.58708 0.91616 0.57030
 H887 H 0.68037 0.82519 0.60734
 H888 H 0.63219 0.87512 0.66585
 H889 H 0.66081 0.84723 0.69859
 H890 H 0.70938 0.79693 0.63996
 C891 C 1.15078 0.64163 -0.16210
 C892 C 1.15674 0.64669 -0.13630
 C893 C 1.17879 0.66858 -0.12917
 C894 C 1.19461 0.68552 -0.14774
 C895 C 1.18858 0.68094 -0.17397
 C896 C 1.16644 0.65844 -0.18072
 C897 C 1.13954 0.62971 -0.11736
 C898 C 1.12428 0.61524 -0.10223
 C899 C 1.10543 0.59808 -0.08531
 C900 C 1.08852 0.58333 -0.07157
 H901 H 1.13376 0.62476 -0.16788
 H902 H 1.18362 0.67272 -0.10923
 H903 H 1.21138 0.70233 -0.14140
 H904 H 1.16084 0.65376 -0.20045
 C905 C 0.64835 1.14146 0.33934
 C906 C 0.65370 1.14714 0.36515
 C907 C 0.67595 1.16883 0.37236
 C908 C 0.69255 1.18500 0.35378
 C909 C 0.68705 1.17966 0.32772
 C910 C 0.66486 1.15754 0.32077
 C911 C 0.63606 1.13067 0.38401
 C912 C 0.62075 1.11627 0.39907
 C913 C 0.60244 1.09862 0.41587
 C914 C 0.58668 1.08277 0.42950
 H915 H 0.63124 1.12468 0.33354
 H916 H 0.68032 1.17337 0.39231
 H917 H 0.70945 1.20183 0.35983
 H918 H 0.65997 1.15278 0.30095
 C919 C 0.82131 0.66719 0.12733
 C920 C 0.84318 0.64512 0.13447
 C921 C 0.84890 0.63970 0.16029
 C922 C 0.83315 0.65638 0.17890
 C923 C 0.81135 0.67887 0.17201
 C924 C 0.80545 0.68395 0.14596
 C925 C 0.86052 0.62839 0.11556
 C926 C 0.87596 0.61415 0.10046
 C927 C 0.89508 0.59726 0.08364
 C928 C 0.91227 0.58272 0.07005
 H929 H 0.81670 0.67161 0.10740
 H930 H 0.86579 0.62272 0.16607
 H931 H 0.83832 0.65177 0.19871
 H932 H 0.78882 0.70102 0.13994
 C933 C 0.32363 1.16918 0.62742
 C934 C 0.34565 1.14731 0.63461
 C935 C 0.35093 1.14143 0.66040
 C936 C 0.33457 1.15752 0.67899
 C937 C 0.31262 1.17983 0.67206
 C938 C 0.30717 1.18536 0.64602
 C939 C 0.36317 1.13084 0.61576
 C940 C 0.37841 1.11640 0.60075
 C941 C 0.39665 1.09865 0.58408
 C942 C 0.41236 1.08266 0.57060
 H943 H 0.31932 1.17386 0.60748
 H944 H 0.36789 1.12450 0.66616
 H945 H 0.33940 1.15262 0.69880
 H946 H 0.29043 1.20234 0.64000
 C947 C 0.82116 0.33340 -0.12773
 C948 C 0.84304 0.35546 -0.13495
 C949 C 0.84884 0.36071 -0.16079
 C950 C 0.83316 0.34388 -0.17933
 C951 C 0.81135 0.32140 -0.17235
 C952 C 0.80538 0.31649 -0.14629
 C953 C 0.86031 0.37235 -0.11610
 C954 C 0.87569 0.38671 -0.10105
 C955 C 0.89476 0.40373 -0.08429
 C956 C 0.91193 0.41834 -0.07073
 H957 H 0.81649 0.32910 -0.10778
 H958 H 0.86574 0.37768 -0.16662
 H959 H 0.83838 0.34837 -0.19916
 H960 H 0.78873 0.29944 -0.14021
 C961 C 0.32370 0.83004 0.37276
 C962 C 0.34598 0.85177 0.36569
 C963 C 0.35152 0.85765 0.33992
 C964 C 0.33515 0.84171 0.32124
 C965 C 0.31293 0.81955 0.32806
 C966 C 0.30724 0.81401 0.35407
 C967 C 0.36347 0.86808 0.38464
 C968 C 0.37866 0.88238 0.39977
 C969 C 0.39687 0.89997 0.41658
 C970 C 0.41255 0.91586 0.43016
 H971 H 0.31919 0.82537 0.39267
 H972 H 0.36868 0.87447 0.33426
 H973 H 0.34017 0.84660 0.30145
 H974 H 0.29030 0.79715 0.36000
 C975 C 1.13610 1.15363 0.34173
 C976 C 1.14477 1.15667 0.36729
 C977 C 1.16945 1.17608 0.37399
 C978 C 1.18568 1.19210 0.35514
 C979 C 1.17746 1.18881 0.32930
 C980 C 1.15227 1.16956 0.32287
 C981 C 1.12895 1.13890 0.38632
 C982 C 1.11544 1.12311 0.40148
 C983 C 1.09928 1.10361 0.41820
 C984 C 1.08513 1.08611 0.43151
 H985 H 1.11706 1.13862 0.33634
 H986 H 1.17641 1.17853 0.39373
 H987 H 1.20495 1.20670 0.36079
 H988 H 1.14523 1.16648 0.30323
 C989 C 0.63390 0.65454 -0.15821
 C990 C 0.64258 0.65790 -0.13269
 C991 C 0.66738 0.67720 -0.12612
 C992 C 0.68378 0.69280 -0.14510
 C993 C 0.67560 0.68915 -0.17091
 C994 C 0.65025 0.67005 -0.17721
 C995 C 0.62679 0.64039 -0.11354
 C996 C 0.61340 0.62470 -0.09829
 C997 C 0.59746 0.60518 -0.08154
 C998 C 0.58353 0.58754 -0.06828
 H999 H 0.61476 0.63957 -0.16347
 H1000 H 0.67433 0.67986 -0.10640
 H1001 H 0.70316 0.70732 -0.13956
 H1002 H 0.64325 0.66674 -0.19683
 C1003 C 0.83083 1.17534 0.62658
 C1004 C 0.85532 1.15580 0.63344
 C1005 C 0.86368 1.15265 0.65906
 C1006 C 0.84741 1.16862 0.67782
 C1007 C 0.82243 1.18803 0.67122
 C1008 C 0.81450 1.19140 0.64533
 C1009 C 0.87134 1.13811 0.61449
 C1010 C 0.88501 1.12244 0.59936
 C1011 C 0.90134 1.10312 0.58262
 C1012 C 0.91561 1.08581 0.56924
 H1013 H 0.82411 1.17790 0.60680
 H1014 H 0.88256 1.13754 0.66459
 H1015 H 0.85422 1.16547 0.69751
 H1016 H 0.79541 1.20612 0.63955
 C1017 C 0.33228 0.67654 0.12640
 C1018 C 0.35686 0.65702 0.13302
 C1019 C 0.36542 0.65357 0.15857
 C1020 C 0.34919 0.66920 0.17753
 C1021 C 0.32406 0.68854 0.17117
 C1022 C 0.31599 0.69226 0.14534
 C1023 C 0.37261 0.63949 0.11389
 C1024 C 0.38598 0.62384 0.09863
 C1025 C 0.40192 0.60442 0.08180
 C1026 C 0.41586 0.58691 0.06845
 H1027 H 0.32543 0.67930 0.10667
 H1028 H 0.38439 0.63844 0.16388
 H1029 H 0.35609 0.66582 0.19717
 H1030 H 0.29679 0.70696 0.13975
 C1031 C 1.16911 0.82410 0.62802
 C1032 C 1.14537 0.84440 0.63486
 C1033 C 1.13774 0.84837 0.66052
 C1034 C 1.15398 0.83248 0.67935
 C1035 C 1.17845 0.81217 0.67290
 C1036 C 1.18548 0.80807 0.64677
 C1037 C 1.12930 0.86194 0.61580
 C1038 C 1.11560 0.87746 0.60056
 C1039 C 1.09924 0.89659 0.58363
 C1040 C 1.08495 0.91372 0.57008
 H1041 H 1.17522 0.82087 0.60818
 H1042 H 1.11939 0.86405 0.66603
 H1043 H 1.14742 0.83651 0.69899
 H1044 H 1.20388 0.79275 0.64066
 C1045 C 0.66790 0.32405 0.12663
 C1046 C 0.64341 0.34360 0.13337
 C1047 C 0.63505 0.34702 0.15897
 C1048 C 0.65138 0.33129 0.17784
 C1049 C 0.67639 0.31189 0.17135
 C1050 C 0.68429 0.30824 0.14547
 C1051 C 0.62748 0.36113 0.11430
 C1052 C 0.61395 0.37673 0.09906
 C1053 C 0.59783 0.39603 0.08222
 C1054 C 0.58375 0.41341 0.06881
 H1055 H 0.67460 0.32131 0.10685
 H1056 H 0.61616 0.36217 0.16438
 H1057 H 0.64461 0.33464 0.19751
 H1058 H 0.70339 0.29349 0.13978
 C1059 C 0.83100 0.82416 0.37339
 C1060 C 0.85552 0.84372 0.36655
 C1061 C 0.86388 0.84695 0.34093
 C1062 C 0.84760 0.83104 0.32216
 C1063 C 0.82259 0.81161 0.32873
 C1064 C 0.81465 0.80816 0.35462
 C1065 C 0.87154 0.86137 0.38553
 C1066 C 0.88521 0.87700 0.40068
 C1067 C 0.90154 0.89628 0.41746
 C1068 C 0.91579 0.91357 0.43087
 H1069 H 0.82428 0.82155 0.39317
 H1070 H 0.88279 0.86207 0.33542
 H1071 H 0.85441 0.83425 0.30247
 H1072 H 0.79554 0.79343 0.36039
 C1073 C 0.33255 0.32348 -0.12668
 C1074 C 0.35719 0.34294 -0.13335
 C1075 C 0.36577 0.34629 -0.15891
 C1076 C 0.34949 0.33063 -0.17782
 C1077 C 0.32430 0.31135 -0.17141
 C1078 C 0.31621 0.30773 -0.14556
 C1079 C 0.37295 0.36053 -0.11427
 C1080 C 0.38631 0.37622 -0.09904
 C1081 C 0.40221 0.39569 -0.08223
 C1082 C 0.41611 0.41324 -0.06889
 H1083 H 0.32567 0.32080 -0.10693
 H1084 H 0.38478 0.36138 -0.16427
 H1085 H 0.35641 0.33394 -0.19748
 H1086 H 0.29697 0.29308 -0.13993
 C1087 C 1.17678 0.33114 -0.12780
 C1088 C 1.15361 0.35195 -0.13495
 C1089 C 1.14598 0.35563 -0.16066
 C1090 C 1.16150 0.33873 -0.17921
 C1091 C 1.18496 0.31782 -0.17232
 C1092 C 1.19239 0.31416 -0.14636
 C1093 C 1.13729 0.36954 -0.11614
 C1094 C 1.12276 0.38461 -0.10112
 C1095 C 1.10466 0.40244 -0.08439
 C1096 C 1.08820 0.41763 -0.07083
 H1097 H 1.18281 0.32810 -0.10793
 H1098 H 1.12803 0.37162 -0.16639
 H1099 H 1.15514 0.34219 -0.19896
 H1100 H 1.21036 0.29833 -0.14038
 C1101 C 0.64121 0.85111 0.34014
 C1102 C 0.64869 0.84725 0.36587
 C1103 C 0.67263 0.82717 0.37288
 C1104 C 0.68914 0.81112 0.35420
 C1105 C 0.68192 0.81501 0.32822
 C1106 C 0.65765 0.83516 0.32147
 C1107 C 0.63203 0.86448 0.38481
 C1108 C 0.61770 0.87966 0.39993
 C1109 C 0.60055 0.89831 0.41673
 C1110 C 0.58565 0.91500 0.43025
 H1111 H 0.62276 0.86662 0.33448
 H1112 H 0.67867 0.82405 0.39274
 H1113 H 0.70769 0.79586 0.36010
 H1114 H 0.65138 0.83875 0.30171
 C1115 C 0.85409 0.64458 -0.16027
 C1116 C 0.84662 0.64846 -0.13456
 C1117 C 0.82351 0.66933 -0.12744
 C1118 C 0.80781 0.68620 -0.14605
 C1119 C 0.81509 0.68234 -0.17201
 C1120 C 0.83849 0.66135 -0.17886
 C1121 C 0.86306 0.63102 -0.11570
 C1122 C 0.87774 0.61606 -0.10068
 C1123 C 0.89603 0.59835 -0.08400
 C1124 C 0.91267 0.58323 -0.07051
 H1125 H 0.87200 0.62853 -0.16596
 H1126 H 0.81759 0.67254 -0.10756
 H1127 H 0.78989 0.70209 -0.14010
 H1128 H 0.84474 0.65775 -0.19861
 C1129 C 0.32697 1.17260 0.37322
 C1130 C 0.35079 1.15237 0.36627
 C1131 C 0.35830 1.14845 0.34055
 C1132 C 0.34201 1.16448 0.32183
 C1133 C 0.31786 1.18477 0.32854
 C1134 C 0.31060 1.18874 0.35450
 C1135 C 0.36728 1.13504 0.38525
 C1136 C 0.38148 1.11977 0.40039
 C1137 C 0.39851 1.10100 0.41719
 C1138 C 0.41334 1.08420 0.43067
 H1139 H 0.32090 1.17577 0.39308
 H1140 H 0.37666 1.13283 0.33494
 H1141 H 0.34829 1.16084 0.30209
 H1142 H 0.29214 1.20410 0.36036
 C1143 C 1.14573 0.64482 0.16026
 C1144 C 1.15347 0.64861 0.13458
 C1145 C 1.17671 0.66943 0.12754
 C1146 C 1.19230 0.68630 0.14618
 C1147 C 1.18478 0.68252 0.17212
 C1148 C 1.16123 0.66160 0.17890
 C1149 C 1.13722 0.63112 0.11566
 C1150 C 1.12277 0.61614 0.10053
 C1151 C 1.10478 0.59840 0.08367
 C1152 C 1.08839 0.58325 0.07001
 H1153 H 1.12772 0.62881 0.16591
 H1154 H 1.18283 0.67256 0.10769
 H1155 H 1.21034 0.70212 0.14028
 H1156 H 1.15481 0.65806 0.19863
 C1157 C 0.67238 1.17249 0.62726
 C1158 C 0.64839 1.15245 0.63434
 C1159 C 0.64092 1.14867 0.66008
 C1160 C 0.65740 1.16464 0.67871
 C1161 C 0.68172 1.18474 0.67188
 C1162 C 0.68894 1.18857 0.64589
 C1163 C 0.63169 1.13517 0.61545
 C1164 C 0.61735 1.11995 0.60037
 C1165 C 0.60020 1.10124 0.58362
 C1166 C 0.58532 1.08449 0.57013
 H1167 H 0.67842 1.17555 0.60738
 H1168 H 0.62243 1.13319 0.66579
 H1169 H 0.65114 1.16111 0.69847
 H1170 H 0.70752 1.20379 0.63993
 C1171 C 0.85542 0.35508 0.16057
 C1172 C 0.84783 0.35156 0.13484
 C1173 C 0.82447 0.33094 0.12766
 C1174 C 0.80865 0.31399 0.14619
 C1175 C 0.81604 0.31750 0.17217
 C1176 C 0.83969 0.33823 0.17909
 C1177 C 0.86431 0.36916 0.11603
 C1178 C 0.87891 0.38423 0.10099
 C1179 C 0.89701 0.40208 0.08419
 C1180 C 0.91340 0.41732 0.07052
 H1181 H 0.87350 0.37093 0.16634
 H1182 H 0.81843 0.32800 0.10778
 H1183 H 0.79054 0.29831 0.14017
 H1184 H 0.84604 0.34157 0.19885
 C1185 C 0.32654 0.82672 0.62861
 C1186 C 0.34974 0.84752 0.63567
 C1187 C 0.35637 0.85207 0.66143
 C1188 C 0.33987 0.83612 0.68012
 C1189 C 0.31615 0.81509 0.67345
 C1190 C 0.30990 0.81061 0.64725
 C1191 C 0.36659 0.86471 0.61670
 C1192 C 0.38106 0.87982 0.60155
 C1193 C 0.39837 0.89835 0.58465
 C1194 C 0.41338 0.91490 0.57100
 H1195 H 0.32117 0.82302 0.60870
 H1196 H 0.37427 0.86814 0.66713
 H1197 H 0.34580 0.84054 0.69982
 H1198 H 0.29203 0.79482 0.64096
 C1199 C 0.33138 1.17680 -0.12712
 C1200 C 0.35245 1.15399 -0.13409
 C1201 C 0.35724 1.14749 -0.15984
 C1202 C 0.34095 1.16350 -0.17857
 C1203 C 0.31950 1.18635 -0.17185
 C1204 C 0.31501 1.19291 -0.14586
 C1205 C 0.36890 1.13669 -0.11505
 C1206 C 0.38299 1.12134 -0.09991
 C1207 C 0.39985 1.10240 -0.08313
 C1208 C 0.41450 1.08541 -0.06967
 H1209 H 0.32747 1.18201 -0.10723
 H1210 H 0.37346 1.12987 -0.16547
 H1211 H 0.34507 1.15780 -0.19833
 H1212 H 0.29875 1.21036 -0.13999
 C1213 C 0.82799 0.67323 0.37263
 C1214 C 0.84885 0.65036 0.36542
 C1215 C 0.85447 0.64483 0.33963
 C1216 C 0.83914 0.66184 0.32105
 C1217 C 0.81786 0.68474 0.32800
 C1218 C 0.81256 0.69035 0.35404
 C1219 C 0.86479 0.63246 0.38424
 C1220 C 0.87895 0.61702 0.39922
 C1221 C 0.89659 0.59872 0.41590
 C1222 C 0.91268 0.58316 0.42946
 H1223 H 0.82356 0.67775 0.39257
 H1224 H 0.87065 0.62724 0.33385
 H1225 H 0.84383 0.65685 0.30124
 H1226 H 0.79636 0.70777 0.36006
 C1227 C 0.66876 1.17691 0.12690
 C1228 C 0.64748 1.15424 0.13389
 C1229 C 0.64247 1.14792 0.15966
 C1230 C 0.65875 1.16395 0.17838
 C1231 C 0.68043 1.18663 0.17163
 C1232 C 0.68512 1.19304 0.14562
 C1233 C 0.63107 1.13688 0.11488
 C1234 C 0.61699 1.12147 0.09976
 C1235 C 0.60015 1.10247 0.08301
 C1236 C 0.58551 1.08545 0.06959
 H1237 H 0.67285 1.18199 0.10700
 H1238 H 0.62608 1.13042 0.16531
 H1239 H 0.65446 1.15837 0.19814
 H1240 H 0.70157 1.21036 0.13972
 C1241 C 1.17109 0.67464 0.62706
 C1242 C 1.14997 0.65196 0.63429
 C1243 C 1.14408 0.64664 0.66009
 C1244 C 1.15941 0.66366 0.67864
 C1245 C 1.18098 0.68635 0.67168
 C1246 C 1.18653 0.69177 0.64564
 C1247 C 1.13409 0.63394 0.61551
 C1248 C 1.11999 0.61835 0.60060
 C1249 C 1.10245 0.59984 0.58402
 C1250 C 1.08646 0.58410 0.57052
 H1251 H 1.17574 0.67899 0.60712
 H1252 H 1.12770 0.62920 0.66589
 H1253 H 1.15451 0.65881 0.69845
 H1254 H 1.20296 0.70904 0.63961
 C1255 C 0.66875 0.82354 -0.12720
 C1256 C 0.64775 0.84640 -0.13422
 C1257 C 0.64305 0.85291 -0.15999
 C1258 C 0.65934 0.83686 -0.17868
 C1259 C 0.68071 0.81396 -0.17191
 C1260 C 0.68512 0.80739 -0.14591
 C1261 C 0.63126 0.86370 -0.11521
 C1262 C 0.61713 0.87902 -0.10007
 C1263 C 0.60024 0.89791 -0.08327
 C1264 C 0.58555 0.91482 -0.06979
 H1265 H 0.67259 0.81831 -0.10730
 H1266 H 0.62689 0.87057 -0.16566
 H1267 H 0.65529 0.84257 -0.19845
 H1268 H 0.70132 0.78990 -0.13999
 C1269 C 1.17218 0.32707 0.37262
 C1270 C 1.15143 0.35001 0.36535
 C1271 C 1.14600 0.35563 0.33954
 C1272 C 1.16139 0.33861 0.32101
 C1273 C 1.18253 0.31562 0.32802
 C1274 C 1.18766 0.30995 0.35407
 C1275 C 1.13536 0.36787 0.38412
 C1276 C 1.12110 0.38325 0.39907
 C1277 C 1.10335 0.40149 0.41572
 C1278 C 1.08719 0.41698 0.42927
 H1279 H 1.17646 0.32248 0.39257
 H1280 H 1.12991 0.37327 0.33371
 H1281 H 1.15683 0.34366 0.30118
 H1282 H 1.20376 0.29245 0.36014
 C1283 C 0.35770 0.85220 0.15983
 C1284 C 0.35283 0.84573 0.13408
 C1285 C 0.33166 0.82298 0.12714
 C1286 C 0.31527 0.80690 0.14590
 C1287 C 0.31983 0.81344 0.17188
 C1288 C 0.34139 0.83622 0.17858
 C1289 C 0.36925 0.86301 0.11502
 C1290 C 0.38330 0.87837 0.09985
 C1291 C 0.40010 0.89734 0.08304
 C1292 C 0.41470 0.91437 0.06959
 H1293 H 0.37401 0.86978 0.16542
 H1294 H 0.32769 0.81779 0.10725
 H1295 H 0.29892 0.78950 0.14004
 H1296 H 0.34556 0.84190 0.19833
 C1297 C 0.85465 0.35472 0.66003
 C1298 C 0.84895 0.34920 0.63425
 C1299 C 0.82800 0.32638 0.62708
 C1300 C 0.81256 0.30930 0.64570
 C1301 C 0.81794 0.31490 0.67172
 C1302 C 0.83931 0.33774 0.67863
 C1303 C 0.86492 0.36708 0.61543
 C1304 C 0.87914 0.38253 0.60048
 C1305 C 0.89687 0.40086 0.58389
 C1306 C 0.91307 0.41643 0.57041
 H1307 H 0.87091 0.37228 0.66577
 H1308 H 0.82352 0.32188 0.60714
 H1309 H 0.79627 0.29191 0.63971
 H1310 H 0.84407 0.34272 0.69843
 C1311 C 1.17134 1.17430 0.62663
 C1312 C 1.14780 1.15376 0.63363
 C1313 C 1.14049 1.14957 0.65935
 C1314 C 1.15668 1.16567 0.67805
 C1315 C 1.18052 1.18629 0.67130
 C1316 C 1.18761 1.19050 0.64533
 C1317 C 1.13140 1.13639 0.61471
 C1318 C 1.11726 1.12101 0.59966
 C1319 C 1.10033 1.10204 0.58302
 C1320 C 1.08564 1.08503 0.56968
 H1321 H 1.17724 1.17766 0.60676
 H1322 H 1.12234 1.13369 0.66499
 H1323 H 1.15053 1.16184 0.69780
 H1324 H 1.20583 1.20615 0.63945
 C1325 C 0.64005 0.64852 0.15929
 C1326 C 0.64705 0.65333 0.13359
 C1327 C 0.67035 0.67414 0.12670
 C1328 C 0.68668 0.69006 0.14551
 C1329 C 0.67989 0.68527 0.17145
 C1330 C 0.65631 0.66434 0.17810
 C1331 C 0.63057 0.63630 0.11454
 C1332 C 0.61640 0.62118 0.09936
 C1333 C 0.59946 0.60246 0.08260
 C1334 C 0.58477 0.58556 0.06920
 H1335 H 0.62208 0.63240 0.16481
 H1336 H 0.67599 0.67795 0.10684
 H1337 H 0.70470 0.70596 0.13971
 H1338 H 0.65042 0.66009 0.19783
 C1339 C 1.14101 0.85028 0.34100
 C1340 C 1.14823 0.84586 0.36671
 C1341 C 1.17164 0.82519 0.37362
 C1342 C 1.18787 0.80907 0.35484
 C1343 C 1.18087 0.81350 0.32889
 C1344 C 1.15716 0.83427 0.32223
 C1345 C 1.13182 0.86311 0.38572
 C1346 C 1.11768 0.87838 0.40085
 C1347 C 1.10072 0.89721 0.41758
 C1348 C 1.08597 0.91412 0.43097
 H1349 H 1.12296 0.86627 0.33544
 H1350 H 1.17746 0.82164 0.39347
 H1351 H 1.20599 0.79330 0.36066
 H1352 H 1.15109 0.83826 0.30250
 C1353 C 0.67049 0.32612 -0.12687
 C1354 C 0.64724 0.34694 -0.13376
 C1355 C 0.64026 0.35172 -0.15946
 C1356 C 0.65648 0.33586 -0.17826
 C1357 C 0.68001 0.31492 -0.17162
 C1358 C 0.68679 0.31016 -0.14567
 C1359 C 0.63078 0.36398 -0.11470
 C1360 C 0.61662 0.37910 -0.09951
 C1361 C 0.59969 0.39781 -0.08274
 C1362 C 0.58498 0.41469 -0.06934
 H1363 H 0.67612 0.32233 -0.10701
 H1364 H 0.62233 0.36785 -0.16498
 H1365 H 0.65060 0.34009 -0.19800
 H1366 H 0.70477 0.29425 -0.13988
 C1367 C 0.85938 1.14847 0.34031
 C1368 C 0.85243 1.15290 0.36606
 C1369 C 0.82913 1.17363 0.37310
 C1370 C 0.81279 1.18982 0.35442
 C1371 C 0.81954 1.18541 0.32842
 C1372 C 0.84311 1.16456 0.32163
 C1373 C 0.86900 1.13563 0.38500
 C1374 C 0.88327 1.12039 0.40010
 C1375 C 0.90033 1.10163 0.41684
 C1376 C 0.91512 1.08480 0.43030
 H1377 H 0.87733 1.13244 0.33465
 H1378 H 0.82351 1.17718 0.39299
 H1379 H 0.79479 1.20564 0.36034
 H1380 H 0.84900 1.16056 0.30186
 C1381 C 0.32861 0.67397 -0.12708
 C1382 C 0.35180 0.65312 -0.13405
 C1383 C 0.35865 0.64838 -0.15977
 C1384 C 0.34239 0.66433 -0.17852
 C1385 C 0.31894 0.68533 -0.17180
 C1386 C 0.31227 0.69001 -0.14583
 C1387 C 0.36836 0.63605 -0.11503
 C1388 C 0.38262 0.62095 -0.09986
 C1389 C 0.39966 0.60230 -0.08308
 C1390 C 0.41445 0.58550 -0.06962
 H1391 H 0.32307 0.67774 -0.10720
 H1392 H 0.37653 0.63224 -0.16535
 H1393 H 0.34819 0.66014 -0.19828
 H1394 H 0.29436 0.70596 -0.13997
 C1395 C 0.85975 0.84954 0.65886
 C1396 C 0.85237 0.84528 0.63318
 C1397 C 0.82873 0.82482 0.62629
 C1398 C 0.81241 0.80876 0.64509
 C1399 C 0.81956 0.81305 0.67102
 C1400 C 0.84351 0.83359 0.67765
 C1401 C 0.86881 0.86254 0.61417
 C1402 C 0.88299 0.87788 0.59909
 C1403 C 0.89998 0.89683 0.58247
 C1404 C 0.91474 0.91389 0.56919
 H1405 H 0.87798 0.86537 0.66439
 H1406 H 0.82278 0.82142 0.60645
 H1407 H 0.79410 0.79317 0.63930
 H1408 H 0.84970 0.83747 0.69737
 C1409 C 0.32938 0.32519 0.12637
 C1410 C 0.35286 0.34587 0.13310
 C1411 C 0.36016 0.35057 0.15874
 C1412 C 0.34399 0.33480 0.17766
 C1413 C 0.32022 0.31402 0.17119
 C1414 C 0.31315 0.30932 0.14529
 C1415 C 0.36917 0.36292 0.11395
 C1416 C 0.38322 0.37811 0.09872
 C1417 C 0.40004 0.39696 0.08196
 C1418 C 0.41466 0.41400 0.06861
 H1419 H 0.32351 0.32147 0.10655
 H1420 H 0.37827 0.36659 0.16413
 H1421 H 0.35010 0.33897 0.19736
 H1422 H 0.29497 0.29354 0.13963
   
