data_POSCAR
  _audit_creation_date              2014-09-24
  _audit_creation_method            'ToBaCCo'
  _symmetry_space_group_name_H-M    'P1'
  _symmetry_Int_Tables_number       1
  _symmetry_cell_setting            triclinic
  loop_
  _symmetry_equiv_pos_as_xyz
 x,y,z
_cell_length_a 34.8377
_cell_length_b 35.6548
_cell_length_c 47.9908
_cell_angle_alpha 90.000700
_cell_angle_beta 90.000800
_cell_angle_gamma 90.002900
loop_
  _atom_site_label
  _atom_site_type_symbol
  _atom_site_fract_x
  _atom_site_fract_y
  _atom_site_fract_z
B1 B 0.26061 0.22791 0.22125
 B2 B 0.27308 0.27208 0.22782
 B3 B 0.22737 0.26141 0.22165
 B4 B 0.21741 0.21919 0.23565
 B5 B 0.25890 0.20401 0.25119
 B6 B 0.29374 0.23711 0.24590
 B7 B 0.23663 0.26903 0.27658
 B8 B 0.22420 0.22487 0.26997
 B9 B 0.26992 0.23547 0.27614
 B10 B 0.27985 0.27774 0.26217
 B11 B 0.23836 0.29293 0.24659
 B12 B 0.20352 0.25983 0.25189
 B13 B 0.73023 0.76445 0.27627
 B14 B 0.77594 0.77507 0.27011
 B15 B 0.76353 0.73090 0.27671
 B16 B 0.72031 0.72218 0.26229
 B17 B 0.70641 0.76281 0.24603
 B18 B 0.74124 0.79592 0.25134
 B19 B 0.77278 0.73854 0.22178
 B20 B 0.72708 0.72786 0.22795
 B21 B 0.73953 0.77203 0.22138
 B22 B 0.78273 0.78077 0.23579
 B23 B 0.79664 0.74013 0.25202
 B24 B 0.76181 0.70702 0.24671
 B25 B 0.73956 0.22767 -0.22128
 B26 B 0.72702 0.27182 -0.22782
 B27 B 0.77274 0.26123 -0.22165
 B28 B 0.78278 0.21904 -0.23569
 B29 B 0.74132 0.20382 -0.25125
 B30 B 0.70643 0.23685 -0.24593
 B31 B 0.76349 0.26891 -0.27657
 B32 B 0.77599 0.22476 -0.27000
 B33 B 0.73025 0.23529 -0.27617
 B34 B 0.72024 0.27753 -0.26216
 B35 B 0.76171 0.29276 -0.24656
 B36 B 0.79660 0.25973 -0.25188
 B37 B 0.26966 0.76460 -0.27624
 B38 B 0.22391 0.77508 -0.27006
 B39 B 0.23646 0.73095 -0.27665
 B40 B 0.27972 0.72237 -0.26225
 B41 B 0.29350 0.76305 -0.24601
 B42 B 0.25856 0.79605 -0.25131
 B43 B 0.22722 0.73858 -0.22173
 B44 B 0.27295 0.72804 -0.22791
 B45 B 0.26036 0.77217 -0.22135
 B46 B 0.21713 0.78076 -0.23574
 B47 B 0.20335 0.74007 -0.25195
 B48 B 0.23828 0.70707 -0.24665
 B49 B 1.23660 1.26895 0.72340
 B50 B 1.22419 1.22478 0.73000
 B51 B 1.26991 1.23540 0.72384
 B52 B 1.27982 1.27768 0.73782
 B53 B 1.23831 1.29284 0.75340
 B54 B 1.20349 1.25972 0.74809
 B55 B 1.26059 1.22783 0.77873
 B56 B 1.27304 1.27200 0.77216
 B57 B 1.22733 1.26131 0.77832
 B58 B 1.21740 1.21909 0.76432
 B59 B 1.25889 1.20394 0.74878
 B60 B 1.29371 1.23705 0.75409
 B61 B 0.77290 0.73870 0.77823
 B62 B 0.72720 0.72799 0.77207
 B63 B 0.73963 0.77217 0.77863
 B64 B 0.78281 0.78093 0.76422
 B65 B 0.79674 0.74030 0.74799
 B66 B 0.76194 0.70716 0.75330
 B67 B 0.73030 0.76458 0.72374
 B68 B 0.77602 0.77523 0.72990
 B69 B 0.76363 0.73105 0.72331
 B70 B 0.72042 0.72230 0.73773
 B71 B 0.70650 0.76293 0.75399
 B72 B 0.74130 0.79606 0.74868
 B73 B 1.23653 0.73084 0.27665
 B74 B 1.22402 0.77498 0.27005
 B75 B 1.26975 0.76447 0.27625
 B76 B 1.27979 0.72223 0.26226
 B77 B 1.23834 0.70697 0.24665
 B78 B 1.20343 0.73999 0.25194
 B79 B 1.26049 0.77205 0.22136
 B80 B 1.27304 0.72791 0.22792
 B81 B 1.22732 0.73848 0.22173
 B82 B 1.21725 0.78067 0.23574
 B83 B 1.25869 0.79592 0.25131
 B84 B 1.29361 0.76290 0.24602
 B85 B 0.77262 1.26136 0.22167
 B86 B 0.72690 1.27192 0.22787
 B87 B 0.73947 1.22777 0.22130
 B88 B 0.78271 1.21917 0.23567
 B89 B 0.79653 1.25986 0.25188
 B90 B 0.76160 1.29287 0.24660
 B91 B 0.73023 1.23535 0.27620
 B92 B 0.77597 1.22486 0.26999
 B93 B 0.76344 1.26900 0.27660
 B94 B 0.72017 1.27759 0.26222
 B95 B 0.70636 1.23691 0.24597
 B96 B 0.74129 1.20390 0.25126
 N97 N 0.45965 0.95934 0.04931
 N98 N 0.43425 0.95173 0.06891
 N99 N 0.54037 0.93300 0.03014
 N100 N 0.56577 0.90672 0.03626
 N101 N 0.54037 0.95933 0.04930
 N102 N 0.56576 0.95170 0.06890
 N103 N 0.45963 0.93302 0.03014
 N104 N 0.43421 0.90675 0.03626
 C105 C 0.41822 0.91928 0.06021
 C106 C 0.58176 0.91923 0.06021
 N107 N 0.54034 0.95930 -0.04929
 N108 N 0.56572 0.95167 -0.06889
 N109 N 0.45961 0.93300 -0.03011
 N110 N 0.43419 0.90673 -0.03622
 N111 N 0.45962 0.95932 -0.04928
 N112 N 0.43421 0.95170 -0.06887
 N113 N 0.54035 0.93299 -0.03012
 N114 N 0.56575 0.90670 -0.03624
 Mn115 Mn 0.49999 0.93264 0.00001
 C116 C 0.58173 0.91920 -0.06020
 C117 C 0.41819 0.91924 -0.06017
 N118 N 0.54038 1.04021 0.04930
 N119 N 0.56576 1.04785 0.06891
 N120 N 0.45966 1.06654 0.03013
 N121 N 0.43426 1.09283 0.03625
 N122 N 0.45967 1.04022 0.04931
 N123 N 0.43428 1.04786 0.06891
 N124 N 0.54040 1.06652 0.03012
 N125 N 0.56579 1.09281 0.03625
 Mn126 Mn 0.50002 0.99977 0.04951
 C127 C 0.58177 1.08032 0.06021
 C128 C 0.41828 1.08033 0.06021
 N129 N 0.45965 1.04020 -0.04929
 N130 N 0.43428 1.04785 -0.06890
 N131 N 0.54039 1.06650 -0.03013
 N132 N 0.56581 1.09278 -0.03626
 N133 N 0.54037 1.04018 -0.04930
 N134 N 0.56576 1.04779 -0.06890
 N135 N 0.45965 1.06653 -0.03012
 N136 N 0.43427 1.09283 -0.03625
 Mn137 Mn 0.49999 0.99975 -0.04950
 Mn138 Mn 0.50003 1.06688 0.00000
 Cl139 Cl 0.50001 0.99976 0.00001
 C140 C 0.41829 1.08033 -0.06021
 C141 C 0.58178 1.08025 -0.06021
 N142 N 1.06843 0.53925 0.53022
 N143 N 1.09627 0.56275 0.53699
 N144 N 1.04153 0.46039 0.54945
 N145 N 1.05039 0.43686 0.56971
 N146 N 1.06841 0.46039 0.53022
 N147 N 1.09625 0.43689 0.53699
 N148 N 1.04154 0.53926 0.54945
 N149 N 1.05041 0.56278 0.56971
 C150 C 1.08415 0.57773 0.56134
 C151 C 1.08413 0.42191 0.56134
 N152 N 0.93161 0.46041 0.53020
 N153 N 0.90374 0.43695 0.53698
 N154 N 0.95850 0.53927 0.54943
 N155 N 0.94962 0.56280 0.56968
 N156 N 0.93163 0.53926 0.53019
 N157 N 0.90379 0.56277 0.53695
 N158 N 0.95849 0.46039 0.54944
 N159 N 0.94957 0.43691 0.56971
 Mn160 Mn 1.00001 0.49983 0.54960
 C161 C 0.91582 0.42199 0.56135
 C162 C 0.91590 0.57776 0.56130
 N163 N 1.06845 0.46040 0.46984
 N164 N 1.09632 0.43695 0.46305
 N165 N 1.04158 0.53926 0.45060
 N166 N 1.05049 0.56275 0.43033
 N167 N 1.06845 0.53925 0.46984
 N168 N 1.09633 0.56271 0.46307
 N169 N 1.04157 0.46039 0.45060
 N170 N 1.05049 0.43692 0.43032
 Mn171 Mn 1.06870 0.49982 0.50003
 C172 C 1.08423 0.42200 0.43868
 C173 C 1.08424 0.57767 0.43870
 N174 N 0.93165 0.53925 0.46982
 N175 N 0.90378 0.56270 0.46303
 N176 N 0.95853 0.46040 0.45059
 N177 N 0.94964 0.43691 0.43031
 N178 N 0.93165 0.46040 0.46982
 N179 N 0.90378 0.43694 0.46303
 N180 N 0.95854 0.53926 0.45059
 N181 N 0.94964 0.56274 0.43031
 Mn182 Mn 0.93137 0.49983 0.50001
 Mn183 Mn 1.00006 0.49983 0.45044
 Cl184 Cl 1.00004 0.49983 0.50002
 C185 C 0.91588 0.57766 0.43866
 C186 C 0.91589 0.42198 0.43867
 N187 N 1.06834 0.53946 0.03007
 N188 N 1.09510 0.56445 0.03614
 N189 N 1.04134 0.46060 0.04922
 N190 N 1.04893 0.43564 0.06874
 N191 N 1.06833 0.46056 0.03009
 N192 N 1.09507 0.43556 0.03617
 N193 N 1.04135 0.53945 0.04920
 N194 N 1.04897 0.56442 0.06872
 C195 C 1.08215 0.58014 0.06004
 C196 C 1.08210 0.41988 0.06006
 N197 N 0.93163 0.46056 0.03014
 N198 N 0.90491 0.43553 0.03623
 N199 N 0.95864 0.53945 0.04924
 N200 N 0.95108 0.56442 0.06876
 N201 N 0.93163 0.53946 0.03013
 N202 N 0.90489 0.56447 0.03622
 N203 N 0.95864 0.46060 0.04925
 N204 N 0.95110 0.43562 0.06877
 Mn205 Mn 1.00000 0.50003 0.04943
 C206 C 0.91793 0.41985 0.06011
 C207 C 0.91790 0.58017 0.06010
 N208 N 1.06827 0.46055 -0.03019
 N209 N 1.09501 0.43554 -0.03628
 N210 N 1.04124 0.53941 -0.04930
 N211 N 1.04875 0.56443 -0.06880
 N212 N 1.06826 0.53945 -0.03020
 N213 N 1.09495 0.56451 -0.03627
 N214 N 1.04126 0.46057 -0.04929
 N215 N 1.04882 0.43560 -0.06882
 Mn216 Mn 1.06869 0.50001 -0.00006
 C217 C 1.08200 0.41986 -0.06017
 C218 C 1.08190 0.58022 -0.06013
 N219 N 0.93158 0.53944 -0.03014
 N220 N 0.90484 0.56447 -0.03622
 N221 N 0.95856 0.46057 -0.04926
 N222 N 0.95099 0.43557 -0.06876
 N223 N 0.93158 0.46054 -0.03013
 N224 N 0.90485 0.43551 -0.03619
 N225 N 0.95856 0.53941 -0.04927
 N226 N 0.95099 0.56439 -0.06879
 Mn227 Mn 0.93121 0.50000 0.00000
 Mn228 Mn 0.99991 0.49999 -0.04948
 Cl229 Cl 0.99995 0.50000 -0.00003
 C230 C 0.91783 0.58015 -0.06011
 C231 C 0.91783 0.41981 -0.06007
 N232 N 0.56827 0.95931 0.52928
 N233 N 0.59507 0.95120 0.54782
 N234 N 0.54139 0.93343 0.47073
 N235 N 0.54919 0.90709 0.45225
 N236 N 0.56826 0.95932 0.47070
 N237 N 0.59508 0.95121 0.45217
 N238 N 0.54140 0.93342 0.52924
 N239 N 0.54918 0.90708 0.54773
 C240 C 0.58240 0.91885 0.55933
 C241 C 0.58241 0.91885 0.44065
 N242 N 0.43165 0.95936 0.47071
 N243 N 0.40480 0.95123 0.45221
 N244 N 0.45852 0.93345 0.52925
 N245 N 0.45071 0.90711 0.54773
 N246 N 0.43167 0.95936 0.52929
 N247 N 0.40485 0.95126 0.54782
 N248 N 0.45850 0.93346 0.47074
 N249 N 0.45066 0.90709 0.45228
 Mn250 Mn 0.49995 0.93319 0.49999
 C251 C 0.41742 0.91885 0.44070
 C252 C 0.41750 0.91889 0.55933
 N253 N 0.56830 1.04059 0.47070
 N254 N 0.59512 1.04869 0.45217
 N255 N 0.54146 1.06650 0.52925
 N256 N 0.54927 1.09283 0.54774
 N257 N 0.56830 1.04059 0.52928
 N258 N 0.59512 1.04868 0.54782
 N259 N 0.54145 1.06650 0.47074
 N260 N 0.54926 1.09284 0.45226
 Mn261 Mn 0.56863 0.99995 0.49999
 C262 C 0.58248 1.08106 0.44066
 C263 C 0.58248 1.08104 0.55934
 N264 N 0.43171 1.04064 0.52929
 N265 N 0.40490 1.04875 0.54783
 N266 N 0.45856 1.06653 0.47074
 N267 N 0.45079 1.09285 0.45224
 N268 N 0.43169 1.04064 0.47071
 N269 N 0.40489 1.04874 0.45216
 N270 N 0.45857 1.06652 0.52925
 N271 N 0.45080 1.09286 0.54775
 Mn272 Mn 0.43133 1.00000 0.50000
 Mn273 Mn 0.50001 1.06676 0.49999
 Cl274 Cl 0.49998 0.99998 0.49999
 C275 C 0.41758 1.08110 0.55935
 C276 C 0.41757 1.08109 0.44064
 N277 N 1.06863 1.03927 0.53005
 N278 N 1.09595 1.06329 0.53687
 N279 N 1.04109 0.96069 0.54889
 N280 N 1.04873 0.93652 0.56886
 N281 N 1.06843 0.96062 0.53005
 N282 N 1.09562 0.93645 0.53687
 N283 N 1.04129 1.03934 0.54889
 N284 N 1.04906 1.06345 0.56887
 C285 C 1.08269 1.07864 0.56079
 C286 C 1.08227 0.92116 0.56078
 N287 N 0.93162 0.96093 0.53003
 N288 N 0.90429 0.93691 0.53685
 N289 N 0.95914 1.03952 0.54888
 N290 N 0.95144 1.06363 0.56888
 N291 N 0.93181 1.03957 0.53003
 N292 N 0.90456 1.06367 0.53687
 N293 N 0.95895 0.96087 0.54888
 N294 N 0.95116 0.93677 0.56887
 Mn295 Mn 1.00012 1.00011 0.54905
 C296 C 0.91753 0.92158 0.56078
 C297 C 0.91787 1.07895 0.56080
 N298 N 1.06845 0.96062 0.46991
 N299 N 1.09568 0.93650 0.46307
 N300 N 1.04131 1.03933 0.45106
 N301 N 1.04911 1.06342 0.43107
 N302 N 1.06864 1.03927 0.46990
 N303 N 1.09599 1.06327 0.46307
 N304 N 1.04112 0.96068 0.45106
 N305 N 1.04880 0.93656 0.43106
 Mn306 Mn 1.06899 0.99994 0.49998
 C307 C 1.08237 0.92123 0.43914
 C308 C 1.08275 1.07860 0.43914
 N309 N 0.93183 1.03957 0.46989
 N310 N 0.90460 1.06370 0.46305
 N311 N 0.95898 0.96087 0.45105
 N312 N 0.95121 0.93676 0.43106
 N313 N 0.93164 0.96092 0.46989
 N314 N 0.90432 0.93690 0.46305
 N315 N 0.95917 1.03952 0.45105
 N316 N 0.95150 1.06365 0.43106
 Mn317 Mn 0.93128 1.00025 0.49996
 Mn318 Mn 1.00015 1.00010 0.45088
 Cl319 Cl 1.00013 1.00010 0.49997
 C320 C 0.91793 1.07898 0.43913
 C321 C 0.91758 0.92157 0.43913
 N322 N 0.56861 0.53929 0.03007
 N323 N 0.59606 0.56317 0.03695
 N324 N 0.54104 0.46073 0.04900
 N325 N 0.54879 0.43672 0.06907
 N326 N 0.56836 0.46061 0.03014
 N327 N 0.59562 0.43654 0.03703
 N328 N 0.54128 0.53941 0.04893
 N329 N 0.54921 0.56340 0.06898
 C330 C 0.58292 0.57848 0.06093
 C331 C 0.58238 0.42137 0.06102
 N332 N 0.43152 0.46100 0.03006
 N333 N 0.40410 0.43709 0.03694
 N334 N 0.45903 0.53964 0.04888
 N335 N 0.45117 0.56365 0.06894
 N336 N 0.43174 0.53968 0.02999
 N337 N 0.40440 0.56368 0.03686
 N338 N 0.45880 0.46097 0.04896
 N339 N 0.45086 0.43701 0.06903
 Mn340 Mn 0.50004 0.50019 0.04910
 C341 C 0.41720 0.42187 0.06095
 C342 C 0.41756 0.57889 0.06086
 N343 N 0.56844 0.46052 -0.03009
 N344 N 0.59575 0.43649 -0.03694
 N345 N 0.54140 0.53925 -0.04904
 N346 N 0.54932 0.56325 -0.06909
 N347 N 0.56868 0.53921 -0.03015
 N348 N 0.59608 0.56315 -0.03700
 N349 N 0.54116 0.46057 -0.04898
 N350 N 0.54899 0.43655 -0.06903
 Mn351 Mn 0.56895 0.49991 -0.00001
 C352 C 0.58259 0.42127 -0.06094
 C353 C 0.58297 0.57840 -0.06100
 N354 N 0.43183 0.53959 -0.03023
 N355 N 0.40459 0.56368 -0.03712
 N356 N 0.45891 0.46080 -0.04902
 N357 N 0.45103 0.43676 -0.06905
 N358 N 0.43160 0.46090 -0.03016
 N359 N 0.40420 0.43695 -0.03701
 N360 N 0.45916 0.53948 -0.04909
 N361 N 0.45143 0.56351 -0.06914
 Mn362 Mn 0.43124 0.50029 -0.00008
 Mn363 Mn 0.50016 0.50003 -0.04919
 Cl364 Cl 0.50010 0.50010 -0.00005
 C365 C 0.41785 0.57886 -0.06110
 C366 C 0.41736 0.42163 -0.06097
 C367 C 0.33825 1.12298 0.14145
 C368 C 0.34957 1.16085 0.15476
 C369 C 0.30791 1.17430 0.15145
 C370 C 0.29628 1.13664 0.13840
 C371 C 0.34743 1.13933 0.11258
 C372 C 0.30576 1.15274 0.10914
 C373 C 0.35901 1.17701 0.12567
 C374 C 0.31702 1.19080 0.12262
 C375 C 0.28804 1.19322 0.17438
 C376 C 0.27415 1.20849 0.19438
 C377 C 0.37103 1.11901 0.09226
 C378 C 0.39189 1.10164 0.07691
 H379 H 0.34723 1.09490 0.14905
 H380 H 0.36741 1.16435 0.17376
 H381 H 0.27026 1.12026 0.14388
 H382 H 0.28801 1.14919 0.09011
 H383 H 0.38501 1.19347 0.12025
 H384 H 0.30801 1.21894 0.11517
 C385 C 0.86141 0.68040 0.62638
 C386 C 0.81864 0.69215 0.62413
 C387 C 0.81183 0.67715 0.65375
 C388 C 0.85425 0.66577 0.65629
 C389 C 0.85094 0.64144 0.61496
 C390 C 0.84405 0.62661 0.64462
 C391 C 0.80851 0.65281 0.61233
 C392 C 0.80137 0.63822 0.64234
 C393 C 0.79175 0.69628 0.67657
 C394 C 0.77752 0.71160 0.69645
 C395 C 0.87357 0.62023 0.59447
 C396 C 0.89271 0.60154 0.57874
 H397 H 0.88631 0.69760 0.61966
 H398 H 0.80792 0.71934 0.61597
 H399 H 0.87289 0.67126 0.67461
 H400 H 0.85474 0.59949 0.65292
 H401 H 0.78993 0.64729 0.59399
 H402 H 0.77646 0.62106 0.64910
 C403 C 0.64149 0.82231 0.12535
 C404 C 0.68374 0.80920 0.12253
 C405 C 0.69218 0.82548 0.15154
 C406 C 0.65026 0.83824 0.15463
 C407 C 0.65265 0.86032 0.11261
 C408 C 0.66116 0.87645 0.14166
 C409 C 0.69458 0.84760 0.10939
 C410 C 0.70338 0.86347 0.13882
 C411 C 0.71207 0.80664 0.17450
 C412 C 0.72598 0.79143 0.19451
 C413 C 0.62903 0.88059 0.09227
 C414 C 0.60816 0.89793 0.07691
 H415 H 0.61583 0.80552 0.11963
 H416 H 0.69330 0.78129 0.11496
 H417 H 0.63222 0.83423 0.17346
 H418 H 0.65163 0.90429 0.14937
 H419 H 0.71252 0.85165 0.09052
 H420 H 0.72906 0.88018 0.14461
 C421 C 1.19169 0.34741 0.61253
 C422 C 1.19846 0.36185 0.64263
 C423 C 1.18831 0.32274 0.65384
 C424 C 1.18187 0.30788 0.62414
 C425 C 1.14913 0.35834 0.61504
 C426 C 1.13896 0.31920 0.62626
 C427 C 1.15564 0.37303 0.64478
 C428 C 1.14576 0.33369 0.65626
 C429 C 1.20843 0.30366 0.67666
 C430 C 1.22270 0.28838 0.69655
 C431 C 1.12648 0.37950 0.59454
 C432 C 1.10732 0.39816 0.57880
 H433 H 1.21036 0.35323 0.59429
 H434 H 1.22314 0.37919 0.64957
 H435 H 1.19293 0.28086 0.61592
 H436 H 1.11430 0.30181 0.61937
 H437 H 1.14461 0.39998 0.65315
 H438 H 1.12704 0.32788 0.67448
 C439 C 0.69387 1.12887 -0.12121
 C440 C 0.68188 1.13217 -0.15219
 C441 C 0.69222 1.17404 -0.15151
 C442 C 0.70459 1.17116 -0.12086
 C443 C 0.65270 1.13915 -0.11261
 C444 C 0.66298 1.18107 -0.11187
 C445 C 0.64049 1.14219 -0.14330
 C446 C 0.65106 1.18429 -0.14287
 C447 C 0.71213 1.19293 -0.17444
 C448 C 0.72603 1.20820 -0.19443
 C449 C 0.62906 1.11888 -0.09228
 C450 C 0.60819 1.10154 -0.07692
 H451 H 0.71125 1.10586 -0.11206
 H452 H 0.68985 1.11225 -0.16900
 H453 H 0.73122 1.18331 -0.11193
 H454 H 0.65497 1.20101 -0.09509
 H455 H 0.61390 1.13013 -0.15237
 H456 H 0.63369 1.20731 -0.15201
 C457 C 1.15729 0.62580 0.35567
 C458 C 1.14636 0.66437 0.34330
 C459 C 1.18841 0.67689 0.34621
 C460 C 1.19960 0.63854 0.35832
 C461 C 1.14929 0.64122 0.38501
 C462 C 1.19134 0.65372 0.38802
 C463 C 1.13809 0.67959 0.37289
 C464 C 1.18047 0.69248 0.37551
 C465 C 1.20846 0.69602 0.32338
 C466 C 1.22268 0.71135 0.30349
 C467 C 1.12664 0.62004 0.40551
 C468 C 1.10747 0.60140 0.42124
 H469 H 1.14751 0.59820 0.34764
 H470 H 1.12804 0.66891 0.32467
 H471 H 1.22510 0.62185 0.35212
 H472 H 1.20960 0.64915 0.40667
 H473 H 1.11260 0.69634 0.37905
 H474 H 1.19029 0.72013 0.38340
 C475 C 0.35194 0.81874 -0.12007
 C476 C 0.30762 0.81451 -0.12055
 C477 C 0.30765 0.82562 -0.15149
 C478 C 0.35159 0.82949 -0.15129
 C479 C 0.34721 0.86039 -0.11254
 C480 C 0.34714 0.87132 -0.14352
 C481 C 0.30326 0.85656 -0.11263
 C482 C 0.30294 0.86724 -0.14397
 C483 C 0.28776 0.80681 -0.17446
 C484 C 0.27387 0.79160 -0.19447
 C485 C 0.37086 0.88063 -0.09220
 C486 C 0.39176 0.89796 -0.07685
 H487 H 0.37230 0.79894 -0.11006
 H488 H 0.29109 0.79090 -0.11142
 H489 H 0.37127 0.81817 -0.16743
 H490 H 0.36363 0.89484 -0.15282
 H491 H 0.28364 0.86790 -0.09648
 H492 H 0.28256 0.88697 -0.15404
 C493 C 0.86114 0.31944 0.37361
 C494 C 0.81829 0.30793 0.37580
 C495 C 0.81167 0.32288 0.34614
 C496 C 0.85416 0.33402 0.34366
 C497 C 0.85084 0.35849 0.38494
 C498 C 0.84415 0.37327 0.35525
 C499 C 0.80834 0.34737 0.38752
 C500 C 0.80139 0.36190 0.35747
 C501 C 0.79157 0.30378 0.32332
 C502 C 0.77732 0.28847 0.30344
 C503 C 0.87351 0.37964 0.40545
 C504 C 0.89268 0.39827 0.42119
 H505 H 0.88591 0.30213 0.38041
 H506 H 0.80739 0.28082 0.38398
 H507 H 0.87284 0.32838 0.32539
 H508 H 0.85503 0.40031 0.34692
 H509 H 0.78973 0.35304 0.40581
 H510 H 0.77661 0.37917 0.35063
 C511 C 1.15379 0.30866 0.10925
 C512 C 1.19238 0.31898 0.12356
 C513 C 1.17428 0.30998 0.15199
 C514 C 1.13610 0.29929 0.13811
 C515 C 1.14053 0.34952 0.11269
 C516 C 1.12259 0.34045 0.14117
 C517 C 1.17874 0.36017 0.12661
 C518 C 1.16099 0.35083 0.15531
 C519 C 1.19259 0.28994 0.17507
 C520 C 1.20761 0.27572 0.19505
 C521 C 1.12072 0.37304 0.09216
 C522 C 1.10353 0.39376 0.07671
 H523 H 1.15064 0.29160 0.09004
 H524 H 1.22132 0.30989 0.11663
 H525 H 1.11878 0.27404 0.14309
 H526 H 1.09371 0.34952 0.14825
 H527 H 1.19614 0.38540 0.12169
 H528 H 1.16411 0.36798 0.17449
 C529 C 0.67947 0.86635 0.63077
 C530 C 0.66275 0.85663 0.65977
 C531 C 0.67557 0.81572 0.65577
 C532 C 0.69264 0.82511 0.62709
 C533 C 0.64063 0.85625 0.61757
 C534 C 0.65346 0.81534 0.61351
 C535 C 0.62368 0.84682 0.64628
 C536 C 0.63676 0.80561 0.64258
 C537 C 0.69463 0.79463 0.67804
 C538 C 0.71020 0.77950 0.69744
 C539 C 0.62047 0.87905 0.59672
 C540 C 0.60335 0.89754 0.57973
 H541 H 0.69686 0.89156 0.62576
 H542 H 0.66677 0.87339 0.67904
 H543 H 0.72120 0.81588 0.61945
 H544 H 0.64943 0.79861 0.59422
 H545 H 0.59517 0.85603 0.65403
 H546 H 0.61944 0.78038 0.64763
 C547 C 1.16931 0.68222 -0.10729
 C548 C 1.19533 0.66587 -0.13056
 C549 C 1.17405 0.69012 -0.15206
 C550 C 1.14837 0.70690 -0.12921
 C551 C 1.14020 0.65068 -0.11275
 C552 C 1.11899 0.67496 -0.13427
 C553 C 1.16593 0.63404 -0.13564
 C554 C 1.14495 0.65855 -0.15739
 C555 C 1.19242 0.71011 -0.17513
 C556 C 1.20748 0.72429 -0.19512
 C557 C 1.12040 0.62715 -0.09222
 C558 C 1.10326 0.60640 -0.07677
 H559 H 1.17915 0.69166 -0.08643
 H560 H 1.22696 0.66243 -0.12930
 H561 H 1.14138 0.73710 -0.12685
 H562 H 1.08738 0.67847 -0.13561
 H563 H 1.17302 0.60386 -0.13810
 H564 H 1.13507 0.64901 -0.17821
 C565 C 0.65353 1.18457 0.38648
 C566 C 0.69273 1.17484 0.37292
 C567 C 0.67566 1.18416 0.34422
 C568 C 0.63684 1.19424 0.35739
 C569 C 0.64076 1.14364 0.38244
 C570 C 0.62381 1.15301 0.35372
 C571 C 0.67962 1.13357 0.36927
 C572 C 0.66290 1.14323 0.34026
 C573 C 0.69469 1.20524 0.32194
 C574 C 0.71021 1.22039 0.30253
 C575 C 0.62059 1.12085 0.40329
 C576 C 0.60345 1.10236 0.42028
 H577 H 0.64947 1.20133 0.40575
 H578 H 0.72128 1.18411 0.38055
 H579 H 0.61949 1.21944 0.35232
 H580 H 0.59531 1.14375 0.34598
 H581 H 0.69704 1.10840 0.37430
 H582 H 0.66695 1.12645 0.32099
 C583 C 0.82154 0.63966 0.12690
 C584 C 0.83948 0.64931 0.15548
 C585 C 0.82583 0.69003 0.15209
 C586 C 0.80753 0.68072 0.12378
 C587 C 0.85952 0.65052 0.11275
 C588 C 0.84589 0.69125 0.10924
 C589 C 0.87766 0.65991 0.14110
 C590 C 0.86378 0.70094 0.13798
 C591 C 0.80754 0.71006 0.17519
 C592 C 0.79254 0.72426 0.19518
 C593 C 0.87931 0.62701 0.09221
 C594 C 0.89649 0.60629 0.07675
 H595 H 0.80430 0.61426 0.12215
 H596 H 0.83669 0.63226 0.17473
 H597 H 0.77844 0.68954 0.11697
 H598 H 0.84872 0.70822 0.08996
 H599 H 0.90669 0.65110 0.14806
 H600 H 0.88094 0.72636 0.14279
 C601 C 0.32067 1.13349 0.63094
 C602 C 0.33751 1.14337 0.65987
 C603 C 0.32453 1.18423 0.65584
 C604 C 0.30734 1.17468 0.62722
 C605 C 0.35940 1.14368 0.61762
 C606 C 0.34641 1.18453 0.61352
 C607 C 0.37648 1.15326 0.64626
 C608 C 0.36323 1.19441 0.64252
 C609 C 0.30552 1.20532 0.67812
 C610 C 0.28998 1.22047 0.69753
 C611 C 0.37954 1.12089 0.59675
 C612 C 0.39665 1.10239 0.57975
 H613 H 0.30334 1.10822 0.62602
 H614 H 0.33364 1.12666 0.67919
 H615 H 0.27871 1.18379 0.61965
 H616 H 0.35028 1.20120 0.59418
 H617 H 0.40506 1.14416 0.65394
 H618 H 0.38050 1.21972 0.64748
 C619 C 0.82667 0.36378 -0.13117
 C620 C 0.84711 0.34691 -0.15686
 C621 C 0.82578 0.30978 -0.15197
 C622 C 0.80500 0.32635 -0.12654
 C623 C 0.85949 0.34933 -0.11265
 C624 C 0.83816 0.31220 -0.10762
 C625 C 0.88014 0.33271 -0.13812
 C626 C 0.85856 0.29523 -0.13349
 C627 C 0.80750 0.28973 -0.17505
 C628 C 0.79248 0.27552 -0.19504
 C629 C 0.87927 0.37288 -0.09212
 C630 C 0.89643 0.39363 -0.07669
 H631 H 0.81369 0.39218 -0.13003
 H632 H 0.85065 0.36099 -0.17733
 H633 H 0.77387 0.32344 -0.12208
 H634 H 0.83467 0.29821 -0.08712
 H635 H 0.91124 0.33556 -0.14270
 H636 H 0.87145 0.26681 -0.13471
 C637 C 0.31965 0.86560 0.37002
 C638 C 0.33584 0.85699 0.34067
 C639 C 0.32424 0.81567 0.34431
 C640 C 0.30771 0.82394 0.37334
 C641 C 0.35911 0.85622 0.38254
 C642 C 0.34750 0.81490 0.38624
 C643 C 0.37552 0.84790 0.35347
 C644 C 0.36366 0.80628 0.35681
 C645 C 0.30525 0.79458 0.32201
 C646 C 0.28976 0.77943 0.30258
 C647 C 0.37927 0.87902 0.40338
 C648 C 0.39643 0.89753 0.42035
 H649 H 0.30173 0.89022 0.37561
 H650 H 0.33083 0.87408 0.32168
 H651 H 0.27962 0.81379 0.38125
 H652 H 0.35251 0.79784 0.40524
 H653 H 0.40355 0.85804 0.34545
 H654 H 0.38153 0.78164 0.35119
 C655 C 1.17744 1.12626 0.36646
 C656 C 1.15778 1.12926 0.33762
 C657 C 1.16993 1.17052 0.33604
 C658 C 1.18994 1.16789 0.36452
 C659 C 1.13986 1.13889 0.38030
 C660 C 1.15202 1.18022 0.37877
 C661 C 1.11997 1.14164 0.35178
 C662 C 1.13240 1.18323 0.34987
 C663 C 1.18686 1.18800 0.31156
 C664 C 1.20203 1.20324 0.29219
 C665 C 1.12162 1.11968 0.40362
 C666 C 1.10482 1.10193 0.42104
 H667 H 1.19585 1.10276 0.37365
 H668 H 1.16026 1.10862 0.32041
 H669 H 1.21900 1.17894 0.36930
 H670 H 1.14955 1.20089 0.39597
 H671 H 1.09092 1.13066 0.34686
 H672 H 1.11413 1.20681 0.34265
 C673 C 0.68312 0.63564 -0.12753
 C674 C 0.67043 0.62998 -0.15816
 C675 C 0.67201 0.67257 -0.16251
 C676 C 0.68505 0.67862 -0.13225
 C677 C 0.64082 0.63978 -0.11909
 C678 C 0.64241 0.68243 -0.12340
 C679 C 0.62789 0.63386 -0.14940
 C680 C 0.62975 0.67675 -0.15407
 C681 C 0.68949 0.69066 -0.18660
 C682 C 0.70494 0.70623 -0.20574
 C683 C 0.62210 0.61999 -0.09619
 C684 C 0.60509 0.60193 -0.07901
 H685 H 0.70489 0.61867 -0.11629
 H686 H 0.68205 0.60869 -0.17277
 H687 H 0.70887 0.69731 -0.12563
 H688 H 0.63083 0.70377 -0.10881
 H689 H 0.60413 0.61521 -0.15618
 H690 H 0.60806 0.69378 -0.16533
 C691 C 0.88314 1.16335 0.64065
 C692 C 0.85000 1.19230 0.64014
 C693 C 0.83053 1.17065 0.66394
 C694 C 0.86334 1.14206 0.66480
 C695 C 0.86079 1.13919 0.61969
 C696 C 0.84124 1.11765 0.64352
 C697 C 0.82793 1.16781 0.61877
 C698 C 0.80809 1.14656 0.64300
 C699 C 0.81349 1.18804 0.68842
 C700 C 0.79823 1.20321 0.70777
 C701 C 0.87906 1.12003 0.59636
 C702 C 0.89585 1.10230 0.57893
 H703 H 0.91419 1.17013 0.63931
 H704 H 0.85341 1.22324 0.63921
 H705 H 0.87765 1.13171 0.68398
 H706 H 0.83774 1.08674 0.64455
 H707 H 0.81361 1.17816 0.59959
 H708 H 0.77703 1.13985 0.64442
 C709 C 0.33922 0.61922 0.14279
 C710 C 0.36092 0.64384 0.16416
 C711 C 0.32842 0.67273 0.16249
 C712 C 0.30639 0.64843 0.14145
 C713 C 0.35971 0.64008 0.11905
 C714 C 0.32717 0.66901 0.11731
 C715 C 0.38166 0.66446 0.14011
 C716 C 0.34883 0.69371 0.13878
 C717 C 0.31089 0.69073 0.18660
 C718 C 0.29539 0.70623 0.20573
 C719 C 0.37845 0.62038 0.09611
 C720 C 0.39546 0.60238 0.07891
 H721 H 0.33537 0.58836 0.14411
 H722 H 0.37455 0.63371 0.18367
 H723 H 0.27522 0.64204 0.14242
 H724 H 0.31351 0.67913 0.09782
 H725 H 0.41281 0.67093 0.13920
 H726 H 0.35258 0.72460 0.13756
 C727 C 1.16755 0.88011 0.63944
 C728 C 1.14460 0.86467 0.66454
 C729 C 1.16937 0.82916 0.66387
 C730 C 1.19265 0.84427 0.63911
 C731 C 1.13918 0.86070 0.61963
 C732 C 1.16398 0.82514 0.61888
 C733 C 1.11599 0.84550 0.64442
 C734 C 1.14107 0.80965 0.64408
 C735 C 1.18639 0.81177 0.68836
 C736 C 1.20164 0.79661 0.70771
 C737 C 1.12096 0.87991 0.59630
 C738 C 1.10422 0.89771 0.57888
 H739 H 1.17834 0.90924 0.63715
 H740 H 1.13683 0.88063 0.68358
 H741 H 1.22443 0.84355 0.63739
 H742 H 1.17174 0.80916 0.59985
 H743 H 1.08423 0.84614 0.64624
 H744 H 1.13038 0.78048 0.64643
 C745 C 0.66847 0.37896 0.13915
 C746 C 0.64613 0.36234 0.16413
 C747 C 0.67134 0.32716 0.16255
 C748 C 0.69402 0.34345 0.13791
 C749 C 0.64001 0.35995 0.11918
 C750 C 0.66525 0.32473 0.11754
 C751 C 0.61743 0.34357 0.14386
 C752 C 0.64295 0.30805 0.14261
 C753 C 0.68893 0.30912 0.18661
 C754 C 0.70450 0.29359 0.20571
 C755 C 0.62130 0.37973 0.09627
 C756 C 0.60436 0.39779 0.07907
 H757 H 0.67886 0.40830 0.13737
 H758 H 0.63846 0.37754 0.18353
 H759 H 0.72577 0.34318 0.13589
 H760 H 0.67291 0.30951 0.09814
 H761 H 0.58569 0.34376 0.14597
 H762 H 0.63266 0.27868 0.14445
 C763 C 0.84141 0.82239 0.38034
 C764 C 0.80794 0.83880 0.36286
 C765 C 0.83029 0.82950 0.33613
 C766 C 0.86337 0.81271 0.35318
 C767 C 0.86045 0.86120 0.38032
 C768 C 0.88269 0.85180 0.35356
 C769 C 0.82731 0.87791 0.36325
 C770 C 0.84931 0.86825 0.33618
 C771 C 0.81331 0.81198 0.31167
 C772 C 0.79812 0.79672 0.29233
 C773 C 0.87871 0.88045 0.40362
 C774 C 0.89552 0.89821 0.42103
 H775 H 0.83832 0.80381 0.39876
 H776 H 0.77693 0.83321 0.36623
 H777 H 0.87797 0.78572 0.34862
 H778 H 0.91369 0.85730 0.35007
 H779 H 0.81258 0.90484 0.36778
 H780 H 0.85241 0.88681 0.31774
 C781 C 0.34456 0.31972 -0.11913
 C782 C 0.30789 0.33339 -0.13439
 C783 C 0.32828 0.32740 -0.16244
 C784 C 0.36456 0.31334 -0.14759
 C785 C 0.35952 0.36022 -0.11905
 C786 C 0.37980 0.35412 -0.14713
 C787 C 0.32318 0.37420 -0.13390
 C788 C 0.34322 0.36784 -0.16230
 C789 C 0.31078 0.30932 -0.18652
 C790 C 0.29531 0.29375 -0.20565
 C791 C 0.37825 0.38002 -0.09615
 C792 C 0.39525 0.39808 -0.07898
 H793 H 0.34524 0.30019 -0.10112
 H794 H 0.27803 0.32462 -0.12957
 H795 H 0.38133 0.28814 -0.15361
 H796 H 0.40963 0.36281 -0.15207
 H797 H 0.30628 0.39934 -0.12792
 H798 H 0.34254 0.38735 -0.18032
 C799 C 1.14645 0.36287 -0.14289
 C800 C 1.18822 0.34832 -0.14170
 C801 C 1.17418 0.30992 -0.15207
 C802 C 1.13265 0.32424 -0.15352
 C803 C 1.14040 0.34944 -0.11277
 C804 C 1.12634 0.31103 -0.12312
 C805 C 1.18198 0.33518 -0.11125
 C806 C 1.16827 0.29633 -0.12199
 C807 C 1.19251 0.28985 -0.17511
 C808 C 1.20756 0.27561 -0.19508
 C809 C 1.12059 0.37299 -0.09226
 C810 C 1.10341 0.39373 -0.07682
 H811 H 1.13734 0.39046 -0.15132
 H812 H 1.21390 0.36341 -0.14958
 H813 H 1.11254 0.31954 -0.17112
 H814 H 1.10068 0.29592 -0.11524
 H815 H 1.20211 0.33994 -0.09367
 H816 H 1.17747 0.26869 -0.11370
 C817 C 0.64516 0.86783 0.35179
 C818 C 0.68773 0.85547 0.35287
 C819 C 0.67556 0.81568 0.34424
 C820 C 0.63328 0.82777 0.34286
 C821 C 0.64066 0.85624 0.38244
 C822 C 0.62851 0.81643 0.37382
 C823 C 0.68299 0.84418 0.38386
 C824 C 0.67117 0.80400 0.37487
 C825 C 0.69460 0.79456 0.32198
 C826 C 0.71015 0.77939 0.30258
 C827 C 0.62050 0.87904 0.40328
 C828 C 0.60337 0.89754 0.42027
 H829 H 0.63433 0.89429 0.34247
 H830 H 0.71238 0.87123 0.34404
 H831 H 0.61300 0.82073 0.32580
 H832 H 0.60390 0.80062 0.38264
 H833 H 0.70331 0.85124 0.40089
 H834 H 0.68207 0.77752 0.38410
 C835 C 0.87942 0.68133 -0.12995
 C836 C 0.86104 0.66487 -0.15663
 C837 C 0.82590 0.69016 -0.15208
 C838 C 0.84394 0.70700 -0.12568
 C839 C 0.85954 0.65060 -0.11274
 C840 C 0.82435 0.67584 -0.10807
 C841 C 0.84140 0.63392 -0.13917
 C842 C 0.80597 0.65944 -0.13488
 C843 C 0.80766 0.71022 -0.17517
 C844 C 0.79266 0.72444 -0.19516
 C845 C 0.87928 0.62704 -0.09220
 C846 C 0.89643 0.60630 -0.07675
 H847 H 0.90983 0.69010 -0.12770
 H848 H 0.87598 0.66056 -0.17681
 H849 H 0.84477 0.73730 -0.12043
 H850 H 0.80944 0.68007 -0.08788
 H851 H 0.84049 0.60365 -0.14454
 H852 H 0.77554 0.65072 -0.13719
 C853 C 0.31999 1.16236 0.38622
 C854 C 0.33613 1.19882 0.37299
 C855 C 0.32452 1.18417 0.34410
 C856 C 0.30805 1.14810 0.35696
 C857 C 0.35939 1.14363 0.38234
 C858 C 0.34770 1.12907 0.35343
 C859 C 0.37583 1.17971 0.36948
 C860 C 0.36388 1.16540 0.34028
 C861 C 0.30552 1.20531 0.32184
 C862 C 0.28999 1.22050 0.30245
 C863 C 0.37952 1.12085 0.40321
 C864 C 0.39664 1.10237 0.42022
 H865 H 0.30207 1.16080 0.40531
 H866 H 0.33116 1.22772 0.38078
 H867 H 0.27989 1.13541 0.35160
 H868 H 0.35261 1.10018 0.34557
 H869 H 0.40396 1.19245 0.37481
 H870 H 0.38178 1.16692 0.32118
 C871 C 1.15427 0.69121 0.10915
 C872 C 1.13641 0.70085 0.13791
 C873 C 1.17439 0.68996 0.15199
 C874 C 1.19265 0.68068 0.12367
 C875 C 1.14067 0.65046 0.11265
 C876 C 1.17867 0.63961 0.12676
 C877 C 1.12256 0.65981 0.14102
 C878 C 1.16076 0.64922 0.15536
 C879 C 1.19266 0.70997 0.17510
 C880 C 1.20763 0.72417 0.19510
 C881 C 1.12083 0.62696 0.09211
 C882 C 1.10361 0.60625 0.07667
 H883 H 1.15142 0.70819 0.08988
 H884 H 1.11924 0.72626 0.14274
 H885 H 1.22173 0.68954 0.11684
 H886 H 1.19593 0.61424 0.12199
 H887 H 1.09355 0.65098 0.14799
 H888 H 1.16358 0.63215 0.17460
 C889 C 0.65315 1.18465 0.61366
 C890 C 0.63662 1.19398 0.64286
 C891 C 0.67564 1.18412 0.65582
 C892 C 0.69254 1.17513 0.62701
 C893 C 0.64075 1.14359 0.61759
 C894 C 0.67980 1.13373 0.63055
 C895 C 0.62396 1.15262 0.64642
 C896 C 0.66324 1.14306 0.65967
 C897 C 0.69466 1.20520 0.67810
 C898 C 0.71020 1.22035 0.69751
 C899 C 0.62058 1.12081 0.59673
 C900 C 0.60344 1.10233 0.57973
 H901 H 0.64880 1.20152 0.59448
 H902 H 0.61911 1.21901 0.64811
 H903 H 0.72095 1.18468 0.61929
 H904 H 0.69738 1.10874 0.62534
 H905 H 0.59561 1.14309 0.65426
 H906 H 0.66760 1.12617 0.67885
 C907 C 0.87277 0.34786 0.14325
 C908 C 0.83064 0.35275 0.15263
 C909 C 0.82573 0.30993 0.15202
 C910 C 0.86765 0.30476 0.14290
 C911 C 0.85953 0.34944 0.11273
 C912 C 0.85466 0.30661 0.11200
 C913 C 0.81758 0.35462 0.12186
 C914 C 0.81232 0.31142 0.12153
 C915 C 0.80738 0.28990 0.17508
 C916 C 0.79234 0.27568 0.19505
 C917 C 0.87936 0.37297 0.09220
 C918 C 0.89654 0.39370 0.07676
 H919 H 0.89780 0.36310 0.15203
 H920 H 0.82059 0.37153 0.16959
 H921 H 0.88803 0.28405 0.15180
 H922 H 0.86473 0.28789 0.09503
 H923 H 0.79713 0.37532 0.11302
 H924 H 0.78720 0.29616 0.11292
 C925 C 0.36964 0.85644 0.64869
 C926 C 0.32642 0.85890 0.65589
 C927 C 0.32430 0.81583 0.65579
 C928 C 0.36725 0.81308 0.64887
 C929 C 0.35924 0.85635 0.61758
 C930 C 0.35711 0.81327 0.61742
 C931 C 0.31625 0.85912 0.62449
 C932 C 0.31378 0.81568 0.62470
 C933 C 0.30524 0.79473 0.67805
 C934 C 0.28969 0.77957 0.69745
 C935 C 0.37941 0.87912 0.59673
 C936 C 0.39655 0.89761 0.57973
 H937 H 0.39273 0.87346 0.65839
 H938 H 0.31354 0.87743 0.67196
 H939 H 0.38801 0.79387 0.65909
 H940 H 0.36997 0.79474 0.60135
 H941 H 0.29544 0.87831 0.61431
 H942 H 0.29059 0.79866 0.61511
 C943 C 0.31705 1.16959 -0.10681
 C944 C 0.33458 1.19386 -0.13046
 C945 C 0.30796 1.17431 -0.15147
 C946 C 0.29001 1.15039 -0.12825
 C947 C 0.34746 1.13933 -0.11260
 C948 C 0.32083 1.11985 -0.13363
 C949 C 0.36526 1.16331 -0.13586
 C950 C 0.33840 1.14407 -0.15712
 C951 C 0.28805 1.19318 -0.17440
 C952 C 0.27414 1.20842 -0.19440
 C953 C 0.37107 1.11902 -0.09227
 C954 C 0.39192 1.10165 -0.07691
 H955 H 0.30855 1.17988 -0.08587
 H956 H 0.33994 1.22453 -0.12944
 H957 H 0.25883 1.14532 -0.12539
 H958 H 0.31541 1.08921 -0.13474
 H959 H 0.39642 1.16847 -0.13883
 H960 H 0.34699 1.13373 -0.17804
 C961 C 0.81650 0.66715 0.39079
 C962 C 0.83354 0.69622 0.37010
 C963 C 0.81170 0.67694 0.34623
 C964 C 0.79430 0.64825 0.36650
 C965 C 0.85083 0.64119 0.38498
 C966 C 0.82896 0.62203 0.36107
 C967 C 0.86816 0.66991 0.36468
 C968 C 0.84604 0.65097 0.34054
 C969 C 0.79163 0.69609 0.32342
 C970 C 0.77740 0.71144 0.30355
 C971 C 0.87349 0.62001 0.40546
 C972 C 0.89267 0.60137 0.42119
 H973 H 0.80462 0.67363 0.41170
 H974 H 0.83512 0.72697 0.37356
 H975 H 0.76372 0.63955 0.36702
 H976 H 0.82731 0.59130 0.35750
 H977 H 0.89873 0.67866 0.36409
 H978 H 0.85800 0.64444 0.31965
 C979 C 0.69046 1.16034 0.10742
 C980 C 0.67534 1.19332 0.12551
 C981 C 0.69213 1.17422 0.15150
 C982 C 0.70764 1.14162 0.13386
 C983 C 0.65261 1.13929 0.11261
 C984 C 0.66944 1.12032 0.13863
 C985 C 0.63719 1.17193 0.13029
 C986 C 0.65428 1.15316 0.15654
 C987 C 0.71202 1.19309 0.17444
 C988 C 0.72593 1.20833 0.19444
 C989 C 0.62900 1.11900 0.09228
 C990 C 0.60814 1.10163 0.07692
 H991 H 0.70505 1.16309 0.08697
 H992 H 0.67804 1.22357 0.12039
 H993 H 0.73684 1.12940 0.13558
 H994 H 0.66678 1.09010 0.14387
 H995 H 0.60801 1.18423 0.12865
 H996 H 0.63958 1.15036 0.17696
 C997 C 1.18735 0.66183 0.60996
 C998 C 1.17224 0.69553 0.62730
 C999 C 1.18829 0.67704 0.65380
 C1000 C 1.20375 0.64375 0.63687
 C1001 C 1.14913 0.64136 0.61502
 C1002 C 1.16523 0.62302 0.64156
 C1003 C 1.13371 0.67468 0.63198
 C1004 C 1.15007 0.65656 0.65875
 C1005 C 1.20838 0.69615 0.67661
 C1006 C 1.22261 0.71147 0.69650
 C1007 C 1.12649 0.62016 0.59453
 C1008 C 1.10733 0.60149 0.57880
 H1009 H 1.20243 0.66383 0.58963
 H1010 H 1.17541 0.72558 0.62169
 H1011 H 1.23276 0.63124 0.63909
 H1012 H 1.16211 0.59301 0.64730
 H1013 H 1.10471 0.68725 0.62981
 H1014 H 1.13492 0.65453 0.67905
 C1015 C 0.63489 0.83629 -0.13585
 C1016 C 0.66163 0.85565 -0.15714
 C1017 C 0.69221 0.82554 -0.15153
 C1018 C 0.66572 0.80587 -0.13049
 C1019 C 0.65264 0.86034 -0.11261
 C1020 C 0.68319 0.83021 -0.10685
 C1021 C 0.67914 0.87993 -0.13367
 C1022 C 0.71010 0.84952 -0.12832
 C1023 C 0.71214 0.80675 -0.17448
 C1024 C 0.72607 0.79156 -0.19449
 C1025 C 0.62900 0.88058 -0.09226
 C1026 C 0.60812 0.89791 -0.07690
 H1027 H 0.60375 0.83101 -0.13878
 H1028 H 0.65294 0.86595 -0.17804
 H1029 H 0.66049 0.77518 -0.12947
 H1030 H 0.69178 0.81995 -0.08593
 H1031 H 0.68443 0.91060 -0.13479
 H1032 H 0.74127 0.85471 -0.12550
 C1033 C 1.13116 0.33506 0.36152
 C1034 C 1.15870 0.35378 0.34044
 C1035 C 1.18842 0.32286 0.34615
 C1036 C 1.16112 0.30380 0.36697
 C1037 C 1.14928 0.35852 0.38495
 C1038 C 1.17897 0.32758 0.39078
 C1039 C 1.17659 0.37748 0.36410
 C1040 C 1.20664 0.34627 0.36954
 C1041 C 1.20851 0.30377 0.32332
 C1042 C 1.22275 0.28847 0.30343
 C1043 C 1.12663 0.37966 0.40546
 C1044 C 1.10746 0.39829 0.42120
 H1045 H 1.09992 0.33059 0.35839
 H1046 H 1.15056 0.36444 0.31952
 H1047 H 1.15505 0.27326 0.36790
 H1048 H 1.18702 0.31697 0.41173
 H1049 H 1.18273 0.40800 0.36307
 H1050 H 1.23789 0.35068 0.37261
 C1051 C 0.35848 0.82240 0.12536
 C1052 C 0.34968 0.83835 0.15462
 C1053 C 0.30777 0.82556 0.15152
 C1054 C 0.31624 0.80926 0.12252
 C1055 C 0.34731 0.86040 0.11260
 C1056 C 0.30539 0.84764 0.10936
 C1057 C 0.33877 0.87654 0.14164
 C1058 C 0.29656 0.86353 0.13879
 C1059 C 0.28790 0.80671 0.17448
 C1060 C 0.27401 0.79149 0.19449
 C1061 C 0.37093 0.88066 0.09226
 C1062 C 0.39181 0.89799 0.07690
 H1063 H 0.38416 0.80563 0.11965
 H1064 H 0.36771 0.83436 0.17347
 H1065 H 0.30670 0.78135 0.11495
 H1066 H 0.28746 0.85168 0.09048
 H1067 H 0.34828 0.90439 0.14935
 H1068 H 0.27086 0.88023 0.14455
 C1069 C 0.86132 0.31966 0.62663
 C1070 C 0.85398 0.33442 0.65648
 C1071 C 0.81161 0.32288 0.65388
 C1072 C 0.81860 0.30775 0.62432
 C1073 C 0.85075 0.35852 0.61508
 C1074 C 0.80837 0.34700 0.61238
 C1075 C 0.84370 0.37348 0.64468
 C1076 C 0.80106 0.36171 0.64234
 C1077 C 0.79155 0.30375 0.67671
 C1078 C 0.77733 0.28841 0.69659
 C1079 C 0.87341 0.37967 0.59457
 C1080 C 0.89259 0.39829 0.57882
 H1081 H 0.88630 0.30251 0.62000
 H1082 H 0.87257 0.32908 0.67485
 H1083 H 0.80801 0.28048 0.61622
 H1084 H 0.78984 0.35236 0.59399
 H1085 H 0.85426 0.40068 0.65293
 H1086 H 0.77607 0.37881 0.64901
 C1087 C 1.17311 1.16706 0.61877
 C1088 C 1.15113 1.19213 0.63982
 C1089 C 1.16991 1.17049 0.66390
 C1090 C 1.19227 1.14581 0.64330
 C1091 C 1.13979 1.13894 0.61964
 C1092 C 1.15867 1.11741 0.64376
 C1093 C 1.11753 1.16369 0.64027
 C1094 C 1.13664 1.14240 0.66470
 C1095 C 1.18686 1.18793 0.68840
 C1096 C 1.20203 1.20315 0.70777
 C1097 C 1.12155 1.11974 0.59631
 C1098 C 1.10476 1.10199 0.57889
 H1099 H 1.18787 1.17696 0.59964
 H1100 H 1.14822 1.22311 0.63866
 H1101 H 1.22320 1.13867 0.64499
 H1102 H 1.16167 1.08646 0.64502
 H1103 H 1.08661 1.17092 0.63864
 H1104 H 1.12191 1.13250 0.68384
 C1105 C 0.67334 0.66856 0.11738
 C1106 C 0.65161 0.69332 0.13876
 C1107 C 0.67194 0.67242 0.16255
 C1108 C 0.69404 0.64805 0.14159
 C1109 C 0.64079 0.63963 0.11911
 C1110 C 0.66120 0.61884 0.14293
 C1111 C 0.61878 0.66408 0.14009
 C1112 C 0.63943 0.64353 0.16421
 C1113 C 0.68938 0.69051 0.18664
 C1114 C 0.70482 0.70609 0.20577
 C1115 C 0.62209 0.61990 0.09618
 C1116 C 0.60508 0.60192 0.07897
 H1117 H 0.68706 0.67861 0.09789
 H1118 H 0.64786 0.72420 0.13748
 H1119 H 0.72520 0.64167 0.14263
 H1120 H 0.66504 0.58799 0.14430
 H1121 H 0.58763 0.67054 0.13912
 H1122 H 0.62573 0.63347 0.18371
 C1123 C 1.11677 0.83737 0.35902
 C1124 C 1.13736 0.85851 0.33516
 C1125 C 1.16952 0.82922 0.33607
 C1126 C 1.14926 0.80772 0.35959
 C1127 C 1.13934 0.86082 0.38029
 C1128 C 1.17156 0.83150 0.38128
 C1129 C 1.15970 0.88221 0.35675
 C1130 C 1.19219 0.85260 0.35733
 C1131 C 1.18652 0.81176 0.31161
 C1132 C 1.20176 0.79655 0.29226
 C1133 C 1.12112 0.88005 0.40361
 C1134 C 1.10435 0.89783 0.42103
 H1135 H 1.08556 0.83122 0.36009
 H1136 H 1.12356 0.86937 0.31594
 H1137 H 1.14516 0.77685 0.36029
 H1138 H 1.18539 0.82063 0.40049
 H1139 H 1.16389 0.91305 0.35594
 H1140 H 1.22342 0.85867 0.35618
 C1141 C 0.65274 0.38030 -0.14579
 C1142 C 0.69095 0.35819 -0.14529
 C1143 C 0.67164 0.32709 -0.16243
 C1144 C 0.63374 0.34891 -0.16325
 C1145 C 0.64035 0.35989 -0.11905
 C1146 C 0.62111 0.32874 -0.13620
 C1147 C 0.67831 0.33806 -0.11817
 C1148 C 0.65937 0.30656 -0.13572
 C1149 C 0.68918 0.30903 -0.18651
 C1150 C 0.70468 0.29350 -0.20563
 C1151 C 0.62164 0.37968 -0.09615
 C1152 C 0.60466 0.39773 -0.07896
 H1153 H 0.64988 0.41088 -0.14962
 H1154 H 0.71987 0.37006 -0.14942
 H1155 H 0.61569 0.35318 -0.18204
 H1156 H 0.59225 0.31676 -0.13210
 H1157 H 0.69639 0.33380 -0.09939
 H1158 H 0.66233 0.27596 -0.13201
 C1159 C 0.88312 1.16384 0.35949
 C1160 C 0.86373 1.14253 0.33518
 C1161 C 0.83060 1.17077 0.33603
 C1162 C 0.84966 1.19244 0.35998
 C1163 C 0.86088 1.13929 0.38026
 C1164 C 0.82770 1.16757 0.38117
 C1165 C 0.84173 1.11774 0.35627
 C1166 C 0.80827 1.14629 0.35678
 C1167 C 0.81354 1.18816 0.31155
 C1168 C 0.79825 1.20332 0.29220
 C1169 C 0.87915 1.12011 0.40358
 C1170 C 0.89594 1.10236 0.42101
 H1171 H 0.91408 1.17094 0.36098
 H1172 H 0.87828 1.13247 0.31601
 H1173 H 0.85273 1.22341 0.36105
 H1174 H 0.81312 1.17764 0.40033
 H1175 H 0.83857 1.08680 0.35510
 H1176 H 0.77729 1.13928 0.35522
 C1177 C 0.37655 0.67514 -0.13382
 C1178 C 0.36928 0.65623 -0.16239
 C1179 C 0.32873 0.67291 -0.16263
 C1180 C 0.33562 0.69220 -0.13443
 C1181 C 0.36020 0.64025 -0.11927
 C1182 C 0.31959 0.65695 -0.11947
 C1183 C 0.35320 0.62109 -0.14751
 C1184 C 0.31234 0.63808 -0.14808
 C1185 C 0.31102 0.69090 -0.18667
 C1186 C 0.29538 0.70639 -0.20576
 C1187 C 0.37894 0.62049 -0.09636
 C1188 C 0.39588 0.60244 -0.07916
 H1189 H 0.40306 0.69024 -0.12760
 H1190 H 0.38943 0.65609 -0.18031
 H1191 H 0.32819 0.72175 -0.12950
 H1192 H 0.29941 0.65709 -0.10158
 H1193 H 0.36059 0.59158 -0.15260
 H1194 H 0.28579 0.62305 -0.15434
 C1195 C 0.88277 0.83669 0.64034
 C1196 C 0.86338 0.85792 0.66468
 C1197 C 0.83031 0.82961 0.66384
 C1198 C 0.84938 0.80802 0.63985
 C1199 C 0.86045 0.86123 0.61961
 C1200 C 0.82732 0.83288 0.61870
 C1201 C 0.84129 0.88270 0.64364
 C1202 C 0.80790 0.85407 0.64313
 C1203 C 0.81336 0.81212 0.68832
 C1204 C 0.79817 0.79687 0.70767
 C1205 C 0.87867 0.88045 0.59629
 C1206 C 0.89547 0.89821 0.57888
 H1207 H 0.91375 0.82967 0.63881
 H1208 H 0.87795 0.86799 0.68385
 H1209 H 0.85252 0.77706 0.63876
 H1210 H 0.81274 0.82282 0.59954
 H1211 H 0.83807 0.91364 0.64484
 H1212 H 0.77690 0.86101 0.64473
 C1213 C 0.32725 0.33118 0.11729
 C1214 C 0.34909 0.30680 0.13885
 C1215 C 0.32828 0.32760 0.16247
 C1216 C 0.30607 0.35158 0.14133
 C1217 C 0.35942 0.36051 0.11908
 C1218 C 0.33852 0.38119 0.14273
 C1219 C 0.38154 0.33646 0.14025
 C1220 C 0.36039 0.35689 0.16420
 C1221 C 0.31081 0.30945 0.18654
 C1222 C 0.29536 0.29385 0.20565
 C1223 C 0.37809 0.38032 0.09617
 C1224 C 0.39507 0.39837 0.07898
 H1225 H 0.31383 0.32084 0.09776
 H1226 H 0.35324 0.27596 0.13770
 H1227 H 0.27481 0.35758 0.14219
 H1228 H 0.33427 0.41200 0.14398
 H1229 H 0.41277 0.33037 0.13945
 H1230 H 0.37378 0.36722 0.18373
   
