data_POSCAR
  _audit_creation_date              2014-09-24
  _audit_creation_method            'ToBaCCo'
  _symmetry_space_group_name_H-M    'P1'
  _symmetry_Int_Tables_number       1
  _symmetry_cell_setting            triclinic
  loop_
  _symmetry_equiv_pos_as_xyz
 x,y,z
_cell_length_a 56.8491
_cell_length_b 56.0566
_cell_length_c 57.3159
_cell_angle_alpha 89.721500
_cell_angle_beta 88.165900
_cell_angle_gamma 89.824600
loop_
  _atom_site_label
  _atom_site_type_symbol
  _atom_site_fract_x
  _atom_site_fract_y
  _atom_site_fract_z
C1 C 0.74167 0.61422 1.03102
 C2 C 0.75485 0.62444 1.01252
 C3 C 0.77693 0.63441 1.01656
 C4 C 0.78584 0.63489 1.03923
 C5 C 0.77264 0.62352 1.05739
 C6 C 0.75054 0.61307 1.05365
 C7 C 0.74529 0.62484 0.98885
 C8 C 0.72305 0.63486 0.98518
 C9 C 0.71362 0.63514 0.96281
 C10 C 0.72675 0.62487 0.94418
 C11 C 0.74874 0.61416 0.94772
 C12 C 0.75806 0.61457 0.97011
 H13 H 0.72506 0.60592 1.02720
 H14 H 0.78620 0.64316 1.00214
 H15 H 0.71307 0.64226 0.99986
 H16 H 0.77510 0.60659 0.97307
 H17 H 0.77953 0.62301 1.07473
 H18 H 0.71972 0.62486 0.92686
 C19 C 0.74320 0.39064 0.46777
 C20 C 0.75441 0.38048 0.48692
 C21 C 0.77622 0.36899 0.48350
 C22 C 0.78641 0.36694 0.46099
 C23 C 0.77515 0.37737 0.44204
 C24 C 0.75359 0.38943 0.44523
 C25 C 0.74273 0.38078 0.51032
 C26 C 0.72007 0.37127 0.51360
 C27 C 0.70904 0.37071 0.53588
 C28 C 0.72066 0.38062 0.55482
 C29 C 0.74339 0.39017 0.55177
 C30 C 0.75439 0.38996 0.52947
 H31 H 0.72624 0.39924 0.47046
 H32 H 0.78467 0.36065 0.49815
 H33 H 0.71122 0.36387 0.49882
 H34 H 0.77189 0.39734 0.52689
 H35 H 0.78339 0.37621 0.42477
 H36 H 0.71249 0.37994 0.57215
 C37 C 0.23969 -0.10277 -0.03573
 C38 C 0.25228 -0.11336 -0.01774
 C39 C 0.27461 -0.12337 -0.02265
 C40 C 0.28447 -0.12324 -0.04562
 C41 C 0.27173 -0.11146 -0.06307
 C42 C 0.24931 -0.10178 -0.05848
 C43 C 0.24160 -0.11466 0.00611
 C44 C 0.21913 -0.12452 0.00979
 C45 C 0.20816 -0.12513 0.03224
 C46 C 0.22039 -0.11504 0.05088
 C47 C 0.24302 -0.10530 0.04748
 C48 C 0.25357 -0.10545 0.02501
 H49 H 0.22229 -0.09553 -0.03200
 H50 H 0.28326 -0.13257 -0.00867
 H51 H 0.21007 -0.13102 -0.00522
 H52 H 0.27105 -0.09814 0.02207
 H53 H 0.27936 -0.10907 -0.08045
 H54 H 0.21275 -0.11531 0.06839
 C55 C 0.24467 0.11277 0.53140
 C56 C 0.25802 0.12026 0.51170
 C57 C 0.28149 0.12736 0.51425
 C58 C 0.29161 0.12682 0.53630
 C59 C 0.27808 0.11894 0.55575
 C60 C 0.25461 0.11193 0.55348
 C61 C 0.24743 0.12005 0.48845
 C62 C 0.22522 0.13041 0.48531
 C63 C 0.21450 0.12932 0.46361
 C64 C 0.22628 0.11761 0.44500
 C65 C 0.24845 0.10705 0.44786
 C66 C 0.25899 0.10852 0.46964
 H67 H 0.22671 0.10688 0.52940
 H68 H 0.29185 0.13328 0.49912
 H69 H 0.21617 0.13910 0.49988
 H70 H 0.27607 0.10040 0.47209
 H71 H 0.28564 0.11890 0.57287
 H72 H 0.21808 0.11658 0.42823
 C73 C 0.11369 0.53099 0.24196
 C74 C 0.12447 0.51286 0.25478
 C75 C 0.13532 0.51831 0.27565
 C76 C 0.13591 0.54187 0.28357
 C77 C 0.12466 0.55986 0.27087
 C78 C 0.11330 0.55485 0.24986
 C79 C 0.12558 0.48832 0.24570
 C80 C 0.13758 0.48366 0.22444
 C81 C 0.14012 0.46018 0.21639
 C82 C 0.12971 0.44148 0.22939
 C83 C 0.11741 0.44588 0.25059
 C84 C 0.11564 0.46943 0.25876
 H85 H 0.10641 0.52626 0.22540
 H86 H 0.14422 0.50435 0.28513
 H87 H 0.14580 0.49821 0.21473
 H88 H 0.10674 0.47313 0.27536
 H89 H 0.12413 0.57758 0.27822
 H90 H 0.13101 0.42343 0.22279
 C91 C -0.11163 -0.02776 0.24201
 C92 C -0.12137 -0.00856 0.25450
 C93 C -0.13100 -0.01231 0.27707
 C94 C -0.13117 -0.03524 0.28746
 C95 C -0.12075 -0.05421 0.27455
 C96 C -0.11103 -0.05060 0.25199
 C97 C -0.12119 0.01558 0.24397
 C98 C -0.13064 0.01936 0.22194
 C99 C -0.13122 0.04238 0.21182
 C100 C -0.12100 0.06132 0.22414
 C101 C -0.11121 0.05771 0.24610
 C102 C -0.11173 0.03478 0.25601
 H103 H -0.10393 -0.02476 0.22471
 H104 H -0.13782 0.00301 0.28652
 H105 H -0.13881 0.00439 0.21357
 H106 H -0.10464 0.03176 0.27310
 H107 H -0.12131 -0.07229 0.28122
 H108 H -0.11950 0.07883 0.21624
 C109 C 0.38679 0.47024 0.73590
 C110 C 0.37598 0.48936 0.74766
 C111 C 0.36650 0.48599 0.77032
 C112 C 0.36847 0.46382 0.78184
 C113 C 0.38033 0.44506 0.76998
 C114 C 0.38908 0.44800 0.74694
 C115 C 0.37583 0.51328 0.73678
 C116 C 0.36621 0.51687 0.71478
 C117 C 0.36621 0.53970 0.70451
 C118 C 0.37700 0.55867 0.71604
 C119 C 0.38662 0.55521 0.73801
 C120 C 0.38568 0.53258 0.74843
 H121 H 0.39415 0.47293 0.71841
 H122 H 0.35845 0.50110 0.77922
 H123 H 0.35796 0.50207 0.70615
 H124 H 0.39324 0.52985 0.76537
 H125 H 0.38145 0.42758 0.77801
 H126 H 0.37756 0.57627 0.70814
 C127 C 0.61326 1.02778 0.74970
 C128 C 0.62324 1.00907 0.76238
 C129 C 0.63428 1.01387 0.78341
 C130 C 0.63633 1.03750 0.79147
 C131 C 0.62542 1.05587 0.77874
 C132 C 0.61396 1.05128 0.75790
 C133 C 0.62380 0.98476 0.75256
 C134 C 0.63398 0.98100 0.73026
 C135 C 0.63542 0.95799 0.72089
 C136 C 0.62577 0.93878 0.73371
 C137 C 0.61527 0.94221 0.75600
 C138 C 0.61466 0.96534 0.76545
 H139 H 0.60525 1.02397 0.73324
 H140 H 0.64289 0.99931 0.79227
 H141 H 0.64157 0.99590 0.72058
 H142 H 0.60708 0.96834 0.78277
 H143 H 0.62505 1.07387 0.78548
 H144 H 0.62612 0.92117 0.72602
 C145 C -0.02682 0.24947 -0.10245
 C146 C -0.01026 0.26341 -0.11484
 C147 C -0.01716 0.28519 -0.12475
 C148 C -0.04086 0.29292 -0.12307
 C149 C -0.05702 0.27873 -0.10986
 C150 C -0.05020 0.25707 -0.09970
 C151 C 0.01404 0.25443 -0.11831
 C152 C 0.01800 0.23200 -0.12854
 C153 C 0.04088 0.22225 -0.13072
 C154 C 0.05975 0.23590 -0.12258
 C155 C 0.05597 0.25838 -0.11244
 C156 C 0.03306 0.26760 -0.11040
 H157 H -0.02138 0.23272 -0.09475
 H158 H -0.00421 0.29494 -0.13521
 H159 H 0.00289 0.22185 -0.13376
 H160 H 0.02998 0.28481 -0.10231
 H161 H -0.07511 0.28439 -0.10724
 H162 H 0.07766 0.22941 -0.12439
 C163 C 0.52893 0.23989 0.11165
 C164 C 0.51023 0.25191 0.12300
 C165 C 0.51431 0.27358 0.13428
 C166 C 0.53708 0.28314 0.13453
 C167 C 0.55554 0.27128 0.12248
 C168 C 0.55169 0.24961 0.11099
 C169 C 0.48640 0.24163 0.12338
 C170 C 0.48217 0.21930 0.13367
 C171 C 0.45945 0.20959 0.13436
 C172 C 0.44094 0.22254 0.12458
 C173 C 0.44498 0.24476 0.11363
 C174 C 0.46795 0.25412 0.11322
 H175 H 0.52564 0.22296 0.10333
 H176 H 0.49990 0.28248 0.14356
 H177 H 0.49662 0.20949 0.14109
 H178 H 0.47185 0.27088 0.10449
 H179 H 0.57291 0.27919 0.12181
 H180 H 0.42329 0.21537 0.12600
 C181 C 1.02893 0.74706 0.61369
 C182 C 1.01073 0.75997 0.62477
 C183 C 1.01503 0.78295 0.63317
 C184 C 1.03743 0.79354 0.63034
 C185 C 1.05535 0.78038 0.61851
 C186 C 1.05131 0.75721 0.61027
 C187 C 0.98675 0.75005 0.62650
 C188 C 0.98215 0.72887 0.63892
 C189 C 0.95905 0.72021 0.64135
 C190 C 0.94072 0.73261 0.63063
 C191 C 0.94519 0.75347 0.61755
 C192 C 0.96834 0.76211 0.61576
 H193 H 1.02549 0.72924 0.60742
 H194 H 1.00045 0.79277 0.64110
 H195 H 0.99639 0.71965 0.64732
 H196 H 0.97230 0.77802 0.60558
 H197 H 1.07282 0.78774 0.61617
 H198 H 0.92290 0.72596 0.63260
 C199 C 0.47705 0.74255 0.39724
 C200 C 0.49394 0.75548 0.38410
 C201 C 0.48748 0.77681 0.37303
 C202 C 0.46408 0.78496 0.37462
 C203 C 0.44752 0.77209 0.38836
 C204 C 0.45380 0.75084 0.39962
 C205 C 0.51808 0.74599 0.38121
 C206 C 0.52185 0.72335 0.37139
 C207 C 0.54464 0.71372 0.36931
 C208 C 0.56371 0.72701 0.37718
 C209 C 0.56011 0.74955 0.38724
 C210 C 0.53724 0.75904 0.38906
 H211 H 0.48212 0.72610 0.40575
 H212 H 0.50038 0.78632 0.36224
 H213 H 0.50696 0.71313 0.36567
 H214 H 0.53431 0.77638 0.39695
 H215 H 0.42945 0.77827 0.38969
 H216 H 0.58135 0.71966 0.37582
 C217 C 0.40151 -0.02964 0.27910
 H218 H 0.40150 -0.01205 0.28678
 C219 C 0.41219 -0.04875 0.29057
 H220 H 0.42037 -0.04571 0.30709
 C221 C 0.38913 -0.05538 0.24924
 H222 H 0.37961 -0.05815 0.23350
 C223 C 0.39966 -0.07484 0.25997
 H224 H 0.39846 -0.09226 0.25202
 N225 N 0.38980 -0.03340 0.25912
 C226 C 0.37574 0.03140 0.22000
 H227 H 0.35692 0.02896 0.21901
 C228 C 0.38652 0.05049 0.20846
 H229 H 0.37580 0.06287 0.19883
 C230 C 0.41228 0.01837 0.23439
 H231 H 0.42212 0.00568 0.24449
 C232 C 0.42386 0.03747 0.22314
 H233 H 0.44270 0.03937 0.22457
 Zn234 Zn 0.37072 -0.00887 0.24690
 N235 N 0.38859 0.01589 0.23272
 C236 C 0.35345 0.02779 0.27627
 N237 N 0.35196 0.00404 0.27179
 C238 C 0.33851 -0.01058 0.28572
 C239 C 0.32566 -0.00131 0.30487
 C240 C 0.34086 0.03778 0.29506
 C241 C 0.36351 -0.02547 0.20234
 C242 C 0.35136 -0.03369 0.18327
 C243 C 0.31566 -0.03405 0.20732
 C244 C 0.32848 -0.02543 0.22594
 N245 N 0.35201 -0.02146 0.22313
 H246 H 0.36474 0.03909 0.26556
 H247 H 0.33799 -0.02949 0.28210
 H248 H 0.31496 -0.01315 0.31574
 H249 H 0.34265 0.05666 0.29848
 H250 H 0.38220 -0.02206 0.20057
 H251 H 0.36083 -0.03679 0.16686
 H252 H 0.29693 -0.03707 0.20967
 H253 H 0.31961 -0.02184 0.24250
 C254 C 0.41088 0.05375 0.20990
 C255 C 0.41070 -0.07185 0.28132
 C256 C 0.32714 -0.03805 0.18562
 C257 C 0.32673 0.02322 0.30968
 C258 C 0.08934 1.02527 0.78842
 H259 H 0.09496 1.00910 0.79699
 C260 C 0.07861 1.04339 0.80159
 H261 H 0.07586 1.04095 0.82023
 C262 C 0.08740 1.04874 0.75405
 H263 H 0.09160 1.05118 0.73571
 C264 C 0.07642 1.06724 0.76651
 H265 H 0.07237 1.08373 0.75757
 N266 N 0.09429 1.02856 0.76525
 C267 C 0.11495 0.96894 0.72064
 H268 H 0.13370 0.97221 0.72023
 C269 C 0.10591 0.95054 0.70749
 H270 H 0.11795 0.93947 0.69725
 C271 C 0.07674 0.97927 0.73510
 H272 H 0.06557 0.99069 0.74587
 C273 C 0.06687 0.96091 0.72212
 H274 H 0.04800 0.95833 0.72288
 Zn275 Zn 0.11576 1.00709 0.75041
 N276 N 0.10042 0.98276 0.73417
 C277 C 0.13452 0.96911 0.77675
 N278 N 0.13455 0.99319 0.77374
 C279 C 0.14664 1.00762 0.78813
 C280 C 0.15973 0.99785 0.80609
 C281 C 0.14736 0.95862 0.79442
 C282 C 0.12418 1.02931 0.70754
 C283 C 0.13685 1.04061 0.68947
 C284 C 0.17115 1.03997 0.71326
 C285 C 0.15780 1.02856 0.73091
 N286 N 0.13467 1.02369 0.72785
 H287 H 0.12423 0.95792 0.76572
 H288 H 0.14593 1.02676 0.78576
 H289 H 0.16948 1.00959 0.81718
 H290 H 0.14682 0.93944 0.79666
 H291 H 0.10597 1.02460 0.70523
 H292 H 0.12819 1.04447 0.67332
 H293 H 0.18944 1.04398 0.71613
 H294 H 0.16602 1.02351 0.74691
 C295 C 0.08158 0.94632 0.70801
 C296 C 0.07279 1.06503 0.79076
 C297 C 0.16067 1.04613 0.69218
 C298 C 0.16024 0.97301 0.80936
 C299 C 0.59394 0.51568 0.28795
 H300 H 0.59676 0.49851 0.29610
 C301 C 0.58278 0.53399 0.30060
 H302 H 0.57669 0.53069 0.31841
 C303 C 0.59976 0.54135 0.25530
 H304 H 0.60706 0.54442 0.23793
 C305 C 0.58852 0.56003 0.26720
 H306 H 0.58740 0.57733 0.25880
 N307 N 0.60267 0.51986 0.26594
 C308 C 0.61986 0.45703 0.22461
 H309 H 0.63845 0.46061 0.22195
 C310 C 0.61002 0.43710 0.21446
 H311 H 0.62112 0.42553 0.20373
 C312 C 0.58293 0.46804 0.24178
 H313 H 0.57260 0.48016 0.25260
 C314 C 0.57226 0.44818 0.23181
 H315 H 0.55367 0.44499 0.23510
 Zn316 Zn 0.62303 0.49713 0.25171
 N317 N 0.60642 0.47178 0.23828
 C318 C 0.64318 0.46052 0.27858
 N319 N 0.64284 0.48452 0.27494
 C320 C 0.65518 0.49946 0.28862
 C321 C 0.66898 0.49028 0.30639
 C322 C 0.65670 0.45064 0.29604
 C323 C 0.63010 0.51376 0.20628
 C324 C 0.64152 0.52474 0.18725
 C325 C 0.67453 0.53265 0.21153
 C326 C 0.66257 0.52115 0.23007
 N327 N 0.64068 0.51213 0.22717
 H328 H 0.63266 0.44887 0.26826
 H329 H 0.65406 0.51853 0.28594
 H330 H 0.67886 0.50240 0.31695
 H331 H 0.65636 0.43151 0.29877
 H332 H 0.61266 0.50652 0.20441
 H333 H 0.63285 0.52533 0.17072
 H334 H 0.69166 0.54026 0.21441
 H335 H 0.67072 0.51973 0.24677
 C336 C 0.58602 0.43223 0.21828
 C337 C 0.58048 0.55668 0.29038
 C338 C 0.66399 0.53459 0.18972
 C339 C 0.66991 0.46551 0.31019
 C340 C 0.90206 0.47818 0.77830
 H341 H 0.90320 0.49621 0.78481
 C342 C 0.91231 0.45934 0.79055
 H343 H 0.92143 0.46297 0.80644
 C344 C 0.88703 0.45117 0.75084
 H345 H 0.87656 0.44782 0.73584
 C346 C 0.89690 0.43194 0.76250
 H347 H 0.89423 0.41405 0.75604
 N348 N 0.88927 0.47372 0.75913
 C349 C 0.87500 0.53851 0.71974
 H350 H 0.85648 0.53510 0.71760
 C351 C 0.88493 0.55942 0.71088
 H352 H 0.87402 0.57194 0.70162
 C353 C 0.91145 0.52662 0.73520
 H354 H 0.92150 0.51394 0.74511
 C355 C 0.92223 0.54742 0.72640
 H356 H 0.94060 0.55073 0.72958
 Zn357 Zn 0.87032 0.49806 0.74633
 N358 N 0.88808 0.52298 0.73221
 C359 C 0.85342 0.53487 0.77570
 N360 N 0.85151 0.51117 0.77112
 C361 C 0.83783 0.49674 0.78503
 C362 C 0.82517 0.50617 0.80424
 C363 C 0.84107 0.54500 0.79456
 C364 C 0.86343 0.47952 0.70240
 C365 C 0.85170 0.46901 0.68413
 C366 C 0.81581 0.46995 0.70784
 C367 C 0.82825 0.48068 0.72567
 N368 N 0.85173 0.48485 0.72276
 H369 H 0.86495 0.54602 0.76511
 H370 H 0.83703 0.47785 0.78139
 H371 H 0.81430 0.49448 0.81509
 H372 H 0.84327 0.56381 0.79807
 H373 H 0.88205 0.48326 0.70047
 H374 H 0.86144 0.46510 0.66805
 H375 H 0.79730 0.46610 0.71072
 H376 H 0.81921 0.48528 0.74189
 C377 C 0.90864 0.56439 0.71469
 C378 C 0.90906 0.43580 0.78304
 C379 C 0.82762 0.46373 0.68678
 C380 C 0.82672 0.53065 0.80916
 C381 C 0.26233 0.41778 -0.03293
 H382 H 0.24628 0.42522 -0.02537
 C383 C 0.27378 0.42936 -0.05179
 H384 H 0.26678 0.44618 -0.05782
 C385 C 0.29036 0.38651 -0.03462
 H386 H 0.29638 0.36939 -0.02843
 C387 C 0.30183 0.39699 -0.05385
 H388 H 0.31635 0.38737 -0.06208
 N389 N 0.27098 0.39689 -0.02455
 C390 C 0.23239 0.38070 0.04071
 H391 H 0.23195 0.36168 0.03766
 C392 C 0.22335 0.38982 0.06163
 H393 H 0.21566 0.37771 0.07452
 C394 C 0.24331 0.41940 0.02756
 H395 H 0.25178 0.43073 0.01456
 C396 C 0.23422 0.42938 0.04838
 H397 H 0.23550 0.44842 0.05115
 Zn398 Zn 0.25510 0.37808 -0.00150
 N399 N 0.24210 0.39541 0.02416
 C400 C 0.29231 0.36900 0.02610
 N401 N 0.27758 0.35748 0.01180
 C402 C 0.27976 0.33365 0.00788
 C403 C 0.29799 0.32070 0.01796
 C404 C 0.31015 0.35670 0.03708
 C405 C 0.20801 0.36715 -0.01024
 C406 C 0.18944 0.35619 -0.02125
 C407 C 0.21770 0.33387 -0.04477
 C408 C 0.23580 0.34554 -0.03347
 N409 N 0.23068 0.36148 -0.01622
 H410 H 0.29007 0.38793 0.02908
 H411 H 0.26776 0.32471 -0.00336
 H412 H 0.29998 0.30199 0.01380
 H413 H 0.32100 0.36640 0.04893
 H414 H 0.20420 0.38064 0.00274
 H415 H 0.17160 0.36147 -0.01648
 H416 H 0.22218 0.32082 -0.05805
 H417 H 0.25394 0.34195 -0.03854
 C418 C 0.22439 0.41439 0.06581
 C419 C 0.29372 0.41880 -0.06283
 C420 C 0.19408 0.33910 -0.03865
 C421 C 0.31365 0.33226 0.03275
 C422 C 0.78204 0.08481 1.02230
 H423 H 0.79029 0.08388 1.00505
 C424 C 0.79317 0.07456 1.04138
 H425 H 0.80993 0.06560 1.03868
 C426 C 0.75137 0.09969 1.04721
 H427 H 0.73557 0.11021 1.04968
 C428 C 0.76183 0.08978 1.06664
 H429 H 0.75366 0.09241 1.08377
 N430 N 0.76188 0.09768 1.02566
 C431 C 0.72754 0.11583 0.96120
 H432 H 0.72604 0.13469 0.96492
 C433 C 0.71828 0.10684 0.94095
 H434 H 0.70932 0.11890 0.92936
 C435 C 0.74096 0.07741 0.97215
 H436 H 0.74998 0.06617 0.98440
 C437 C 0.73193 0.06757 0.95181
 H438 H 0.73419 0.04871 0.94840
 Zn439 Zn 0.75129 0.11785 1.00157
 N440 N 0.73890 0.10126 0.97615
 C441 C 0.78446 0.13437 0.96773
 N442 N 0.77741 0.13617 0.99056
 C443 C 0.78964 0.14962 1.00571
 C444 C 0.80950 0.16238 0.99788
 C445 C 0.80427 0.14659 0.95926
 C446 C 0.70550 0.12664 1.01722
 C447 C 0.68618 0.13944 1.02605
 C448 C 0.71063 0.17457 1.02728
 C449 C 0.72947 0.16115 1.01806
 N450 N 0.72665 0.13753 1.01357
 H451 H 0.77499 0.12315 0.95603
 H452 H 0.78407 0.15024 1.02392
 H453 H 0.81913 0.17293 1.01012
 H454 H 0.80948 0.14503 0.94098
 H455 H 0.70373 0.10787 1.01337
 H456 H 0.66955 0.13039 1.02915
 H457 H 0.71309 0.19331 1.03098
 H458 H 0.74626 0.16960 1.01466
 C459 C 0.72081 0.08253 0.93572
 C460 C 0.78345 0.07785 1.06398
 C461 C 0.68868 0.16366 1.03136
 C462 C 0.81708 0.16079 0.97438
 C463 C 0.27780 0.58909 0.51735
 H464 H 0.28683 0.58985 0.50046
 C465 C 0.28850 0.57782 0.53611
 H466 H 0.30576 0.56988 0.53348
 C467 C 0.24545 0.60071 0.54186
 H468 H 0.22913 0.61035 0.54436
 C469 C 0.25536 0.58951 0.56094
 H470 H 0.24619 0.59026 0.57778
 N471 N 0.25703 0.60089 0.52072
 C472 C 0.22473 0.62197 0.45598
 H473 H 0.22433 0.64092 0.45948
 C474 C 0.21558 0.61335 0.43550
 H475 H 0.20787 0.62578 0.42338
 C476 C 0.23521 0.58287 0.46784
 H477 H 0.24304 0.57121 0.48055
 C478 C 0.22609 0.57338 0.44742
 H479 H 0.22705 0.55435 0.44438
 Zn480 Zn 0.24715 0.62234 0.49739
 N481 N 0.23463 0.60684 0.47146
 C482 C 0.28169 0.63797 0.46459
 N483 N 0.27396 0.64010 0.48719
 C484 C 0.28621 0.65305 0.50273
 C485 C 0.30687 0.66487 0.49555
 C486 C 0.30230 0.64921 0.45678
 C487 C 0.20154 0.63168 0.51323
 C488 C 0.18250 0.64458 0.52253
 C489 C 0.20752 0.67925 0.52431
 C490 C 0.22610 0.66569 0.51474
 N491 N 0.22288 0.64223 0.50980
 H492 H 0.27224 0.62707 0.45260
 H493 H 0.28013 0.65387 0.52079
 H494 H 0.31655 0.67498 0.50810
 H495 H 0.30813 0.64729 0.43870
 H496 H 0.19942 0.61305 0.50895
 H497 H 0.16578 0.63570 0.52557
 H498 H 0.21032 0.69786 0.52831
 H499 H 0.24301 0.67393 0.51141
 C500 C 0.21649 0.58883 0.43080
 C501 C 0.27764 0.57878 0.55846
 C502 C 0.18541 0.66863 0.52837
 C503 C 0.31521 0.66279 0.47233
 C504 C 0.78990 0.90140 0.47853
 H505 H 0.80009 0.89278 0.49173
 C506 C 0.80156 0.91268 0.45980
 H507 H 0.82061 0.91300 0.45915
 C508 C 0.75288 0.91072 0.46292
 H509 H 0.73391 0.90913 0.46391
 C510 C 0.76387 0.92203 0.44369
 H511 H 0.75318 0.92913 0.42997
 N512 N 0.76600 0.90013 0.47950
 C513 C 0.72704 0.88070 0.54329
 H514 H 0.72831 0.86159 0.54095
 C515 C 0.71668 0.88985 0.56362
 H516 H 0.70962 0.87760 0.57670
 C517 C 0.73475 0.91966 0.52873
 H518 H 0.74217 0.93106 0.51513
 C519 C 0.72451 0.92968 0.54904
 H520 H 0.72412 0.94887 0.55101
 Zn521 Zn 0.75119 0.87927 0.50143
 N522 N 0.73587 0.89554 0.52640
 C523 C 0.78630 0.87114 0.53253
 N524 N 0.77455 0.86009 0.51537
 C525 C 0.77994 0.83732 0.50898
 C526 C 0.79844 0.82517 0.51944
 C527 C 0.80454 0.85958 0.54366
 C528 C 0.70545 0.86438 0.49167
 C529 C 0.68797 0.85209 0.48029
 C530 C 0.71809 0.83314 0.45616
 C531 C 0.73506 0.84618 0.46780
 N532 N 0.72855 0.86098 0.48564
 H533 H 0.78165 0.88919 0.53742
 H534 H 0.77029 0.82863 0.49556
 H535 H 0.80300 0.80740 0.51352
 H536 H 0.81334 0.86879 0.55744
 H537 H 0.70039 0.87708 0.50500
 H538 H 0.66975 0.85564 0.48518
 H539 H 0.72373 0.82096 0.44249
 H540 H 0.75342 0.84457 0.46251
 C541 C 0.71565 0.91461 0.56694
 C542 C 0.78858 0.92242 0.44161
 C543 C 0.69412 0.83589 0.46249
 C544 C 0.81121 0.83642 0.53689
 C545 C -0.02304 0.28420 0.40533
 H546 H -0.00923 0.29566 0.39839
 C547 C -0.04288 0.29432 0.41646
 H548 H -0.04427 0.31354 0.41774
 C549 C -0.03868 0.24540 0.41096
 H550 H -0.03721 0.22639 0.40844
 C551 C -0.05888 0.25477 0.42201
 H552 H -0.07274 0.24280 0.42802
 N553 N -0.02168 0.26019 0.40208
 C554 C 0.03993 0.21674 0.38501
 H555 H 0.03754 0.21539 0.36641
 C556 C 0.05830 0.20449 0.39523
 H557 H 0.07011 0.19385 0.38431
 C558 C 0.02783 0.23313 0.42153
 H559 H 0.01591 0.24448 0.43156
 C560 C 0.04621 0.22127 0.43251
 H561 H 0.04827 0.22339 0.45110
 Zn562 Zn 0.00200 0.24735 0.38161
 N563 N 0.02525 0.23081 0.39814
 C564 C 0.04030 0.27559 0.36550
 N565 N 0.01665 0.27253 0.36415
 C566 C 0.00344 0.28764 0.35126
 C567 C 0.01407 0.30631 0.33860
 C568 C 0.05161 0.29401 0.35321
 C569 C -0.01628 0.20281 0.37070
 C570 C -0.02663 0.18518 0.35739
 C571 C -0.02817 0.21313 0.32528
 C572 C -0.01755 0.23021 0.33917
 N573 N -0.01210 0.22490 0.36157
 H574 H 0.05051 0.26391 0.37628
 H575 H -0.01542 0.28528 0.35091
 H576 H 0.00330 0.31786 0.32813
 H577 H 0.07041 0.29623 0.35478
 H578 H -0.01148 0.19882 0.38840
 H579 H -0.03006 0.16782 0.36511
 H580 H -0.03242 0.21762 0.30751
 H581 H -0.01376 0.24762 0.33196
 C582 C 0.06174 0.20676 0.41925
 C583 C -0.06149 0.27957 0.42415
 C584 C -0.03283 0.19028 0.33441
 C585 C 0.03853 0.30961 0.33940
 C586 C 1.01908 0.78929 0.09651
 H587 H 1.00385 0.79855 0.10375
 C588 C 1.03684 0.80222 0.08483
 H589 H 1.03504 0.82138 0.08306
 C590 C 1.04024 0.75325 0.09053
 H591 H 1.04185 0.73428 0.09328
 C592 C 1.05838 0.76548 0.07865
 H593 H 1.07380 0.75570 0.07251
 N594 N 1.02136 0.76534 0.09972
 C595 C 0.96265 0.71859 0.11741
 H596 H 0.96711 0.71509 0.13531
 C597 C 0.94312 0.70767 0.10818
 H598 H 0.93289 0.69540 0.11902
 C599 C 0.97062 0.73915 0.08179
 H600 H 0.98126 0.75179 0.07183
 C601 C 0.95100 0.72863 0.07182
 H602 H 0.94656 0.73330 0.05414
 Zn603 Zn 0.99960 0.74983 0.12048
 N604 N 0.97571 0.73426 0.10435
 C605 C 0.96158 0.77656 0.13958
 N606 N 0.98528 0.77327 0.14025
 C607 C 0.99886 0.78770 0.15327
 C608 C 0.98863 0.80635 0.16621
 C609 C 0.95071 0.79504 0.15206
 C610 C 1.02082 0.70552 0.12668
 C611 C 1.03125 0.68662 0.13843
 C612 C 1.03008 0.71029 0.17355
 C613 C 1.01949 0.72874 0.16112
 N614 N 1.01526 0.72613 0.13804
 H615 H 0.95105 0.76527 0.12888
 H616 H 1.01773 0.78514 0.15307
 H617 H 0.99972 0.81801 0.17607
 H618 H 0.93185 0.79747 0.15113
 H619 H 1.01673 0.70360 0.10849
 H620 H 1.03562 0.67042 0.12901
 H621 H 1.03311 0.71254 0.19196
 H622 H 1.01444 0.74495 0.17006
 C623 C 0.93669 0.71308 0.08531
 C624 C 1.05713 0.79039 0.07630
 C625 C 1.03596 0.68884 0.16219
 C626 C 0.96428 0.81038 0.16539
 C627 C 0.51935 0.27913 0.59405
 H628 H 0.50212 0.28717 0.59640
 C629 C 0.53743 0.29173 0.58240
 H630 H 0.53395 0.30937 0.57552
 C631 C 0.54523 0.24688 0.60122
 H632 H 0.54845 0.22973 0.60917
 C633 C 0.56367 0.25867 0.58944
 H634 H 0.58092 0.25041 0.58848
 N635 N 0.52366 0.25733 0.60356
 C636 C 0.46249 0.21320 0.61966
 H637 H 0.46447 0.21193 0.63833
 C638 C 0.44491 0.20029 0.60910
 H639 H 0.43323 0.18929 0.61984
 C640 C 0.47518 0.22953 0.58317
 H641 H 0.48716 0.24092 0.57324
 C642 C 0.45758 0.21701 0.57185
 H643 H 0.45613 0.21875 0.55312
 Zn644 Zn 0.50036 0.24338 0.62359
 N645 N 0.47716 0.22746 0.60669
 C646 C 0.46231 0.27158 0.64053
 N647 N 0.48597 0.26817 0.64148
 C648 C 0.49966 0.28332 0.65358
 C649 C 0.48956 0.30270 0.66551
 C650 C 0.45155 0.29077 0.65204
 C651 C 0.51940 0.19867 0.63311
 C652 C 0.52972 0.18054 0.64606
 C653 C 0.52995 0.20705 0.67917
 C654 C 0.51928 0.22460 0.66566
 N655 N 0.51450 0.22023 0.64296
 H656 H 0.45173 0.25972 0.63047
 H657 H 0.51851 0.28063 0.65354
 H658 H 0.50074 0.31483 0.67473
 H659 H 0.43270 0.29319 0.65104
 H660 H 0.51533 0.19561 0.61506
 H661 H 0.53372 0.16358 0.63786
 H662 H 0.53379 0.21079 0.69717
 H663 H 0.51495 0.24166 0.67332
 C664 C 0.44227 0.20206 0.58490
 C665 C 0.56002 0.28161 0.58032
 C666 C 0.53527 0.18471 0.66934
 C667 C 0.46522 0.30673 0.66460
 C668 C 0.47399 0.77560 0.91207
 H669 H 0.49176 0.78027 0.91633
 C670 C 0.45504 0.78930 0.92094
 H671 H 0.45835 0.80440 0.93205
 C672 C 0.44798 0.75167 0.89085
 H673 H 0.44504 0.73784 0.87831
 C674 C 0.42874 0.76467 0.89931
 H675 H 0.41133 0.76008 0.89366
 N676 N 0.47018 0.75743 0.89695
 C677 C 0.52070 0.70384 0.90055
 H678 H 0.50932 0.69255 0.89089
 C679 C 0.53941 0.69334 0.91189
 H680 H 0.54118 0.67412 0.91143
 C681 C 0.53247 0.74219 0.91252
 H682 H 0.53012 0.76132 0.91207
 C683 C 0.55204 0.73245 0.92342
 H684 H 0.56446 0.74436 0.93123
 Zn685 Zn 0.49556 0.74219 0.88030
 N686 N 0.51774 0.72793 0.90058
 C687 C 0.53508 0.76506 0.85887
 N688 N 0.51127 0.76578 0.86189
 C689 C 0.49836 0.78371 0.85257
 C690 C 0.50948 0.80224 0.84015
 C691 C 0.54692 0.78332 0.84679
 C692 C 0.47070 0.70014 0.87013
 C693 C 0.46073 0.68283 0.85619
 C694 C 0.47546 0.70412 0.82207
 C695 C 0.48560 0.72082 0.83674
 N696 N 0.48301 0.71861 0.86033
 H697 H 0.54498 0.75044 0.86608
 H698 H 0.47942 0.78374 0.85502
 H699 H 0.49884 0.81625 0.83279
 H700 H 0.56594 0.78274 0.84533
 H701 H 0.46847 0.69897 0.88892
 H702 H 0.45161 0.66805 0.86460
 H703 H 0.47722 0.70665 0.80337
 H704 H 0.49522 0.73574 0.82924
 C705 C 0.55615 0.70769 0.92254
 C706 C 0.43215 0.78424 0.91391
 C707 C 0.46276 0.68476 0.83175
 C708 C 0.53415 0.80240 0.83739
 C709 C 0.44033 -0.15517 0.33386
 C710 C 0.46177 -0.15372 0.34568
 C711 C 0.46962 -0.17327 0.35890
 C712 C 0.45628 -0.19429 0.36061
 C713 C 0.43522 -0.19569 0.34861
 C714 C 0.42733 -0.17650 0.33545
 C715 C 0.43240 -0.13395 0.32013
 C716 C 0.41122 -0.13367 0.30804
 C717 C 0.40449 -0.11356 0.29555
 C718 C 0.41861 -0.09308 0.29462
 C719 C 0.43969 -0.09302 0.30676
 C720 C 0.44668 -0.11329 0.31944
 C721 C 0.47514 -0.13276 0.34429
 C722 C 0.46778 -0.11301 0.33144
 H723 H 0.49157 -0.13159 0.35330
 H724 H 0.47877 -0.09724 0.33095
 H725 H 0.48592 -0.17200 0.36813
 H726 H 0.42487 -0.21188 0.34917
 H727 H 0.38787 -0.11394 0.28685
 H728 H 0.45076 -0.07730 0.30614
 H729 H 0.41103 -0.17887 0.32667
 H730 H 0.39945 -0.14870 0.30806
 C731 C 0.93573 0.35378 0.83881
 C732 C 0.95906 0.35272 0.84656
 C733 C 0.96676 0.33274 0.85924
 C734 C 0.95141 0.31359 0.86479
 C735 C 0.92807 0.31528 0.85729
 C736 C 0.92039 0.33489 0.84460
 C737 C 0.92836 0.37494 0.82467
 C738 C 0.90588 0.37691 0.81521
 C739 C 0.89990 0.39669 0.80185
 C740 C 0.91606 0.41515 0.79753
 C741 C 0.93846 0.41360 0.80707
 C742 C 0.94480 0.39351 0.82035
 C743 C 0.97454 0.37167 0.84168
 C744 C 0.96751 0.39168 0.82901
 H745 H 0.99239 0.37103 0.84774
 H746 H 0.98016 0.40582 0.82572
 H747 H 0.98457 0.33268 0.86540
 H748 H 0.91565 0.30088 0.86003
 H749 H 0.88239 0.39765 0.79498
 H750 H 0.95108 0.42777 0.80369
 H751 H 0.90237 0.33468 0.83933
 H752 H 0.89262 0.36336 0.81771
 C753 C 0.05309 1.15320 0.84018
 C754 C 0.03441 1.16757 0.83237
 C755 C 0.03010 1.19007 0.84239
 C756 C 0.04477 1.19923 0.85961
 C757 C 0.06360 1.18485 0.86685
 C758 C 0.06760 1.16225 0.85745
 C759 C 0.05720 1.12936 0.82900
 C760 C 0.07440 1.11317 0.83654
 C761 C 0.07863 1.09190 0.82461
 C762 C 0.06587 1.08614 0.80489
 C763 C 0.04795 1.10161 0.79785
 C764 C 0.04336 1.12300 0.80990
 C765 C 0.02060 1.15973 0.81410
 C766 C 0.02523 1.13811 0.80286
 H767 H 0.00634 1.17075 0.80799
 H768 H 0.01443 1.13315 0.78842
 H769 H 0.01605 1.20093 0.83563
 H770 H 0.07494 1.19050 0.88057
 H771 H 0.09263 1.08031 0.83033
 H772 H 0.03775 1.09708 0.78284
 H773 H 0.08234 1.15230 0.86383
 H774 H 0.08497 1.11667 0.85142
 C775 C 0.55684 0.64381 0.34011
 C776 C 0.54219 0.66042 0.32878
 C777 C 0.53789 0.68298 0.33864
 C778 C 0.54849 0.68959 0.35940
 C779 C 0.56307 0.67317 0.37053
 C780 C 0.56715 0.65056 0.36112
 C781 C 0.56145 0.62014 0.32872
 C782 C 0.57526 0.60215 0.33883
 C783 C 0.58048 0.58113 0.32675
 C784 C 0.57206 0.57743 0.30433
 C785 C 0.55730 0.59468 0.29460
 C786 C 0.55189 0.61589 0.30662
 C787 C 0.53243 0.65468 0.30740
 C788 C 0.53737 0.63300 0.29645
 H789 H 0.52121 0.66737 0.29873
 H790 H 0.52984 0.62966 0.27964
 H791 H 0.52684 0.69571 0.32978
 H792 H 0.57126 0.67782 0.38669
 H793 H 0.59200 0.56815 0.33461
 H794 H 0.55038 0.59178 0.27744
 H795 H 0.57868 0.63883 0.37041
 H796 H 0.58257 0.60410 0.35584
 C797 C 0.55252 0.34690 0.17301
 C798 C 0.56727 0.32654 0.17417
 C799 C 0.56186 0.30588 0.16181
 C800 C 0.54196 0.30499 0.14802
 C801 C 0.52706 0.32494 0.14720
 C802 C 0.53225 0.34567 0.15949
 C803 C 0.55955 0.36895 0.18583
 C804 C 0.54648 0.39040 0.18558
 C805 C 0.55462 0.41080 0.19676
 C806 C 0.57594 0.41027 0.20838
 C807 C 0.58851 0.38876 0.20954
 C808 C 0.58063 0.36828 0.19833
 C809 C 0.58752 0.32694 0.18740
 C810 C 0.59407 0.34736 0.19921
 H811 H 0.59870 0.31128 0.18838
 H812 H 0.61012 0.34686 0.20891
 H813 H 0.57322 0.29036 0.16292
 H814 H 0.51161 0.32466 0.13664
 H815 H 0.54463 0.42722 0.19564
 H816 H 0.60477 0.38809 0.21892
 H817 H 0.52034 0.36056 0.15798
 H818 H 0.53020 0.39194 0.17653
 C819 C 0.05267 0.86204 0.65822
 C820 C 0.03537 0.84737 0.66916
 C821 C 0.02980 0.82520 0.65943
 C822 C 0.04190 0.81666 0.63923
 C823 C 0.05906 0.83155 0.62852
 C824 C 0.06426 0.85382 0.63773
 C825 C 0.05871 0.88518 0.66958
 C826 C 0.07512 0.90135 0.65964
 C827 C 0.08168 0.92163 0.67178
 C828 C 0.07208 0.92642 0.69414
 C829 C 0.05460 0.91124 0.70358
 C830 C 0.04784 0.89073 0.69146
 C831 C 0.02437 0.85447 0.69025
 C832 C 0.03068 0.87552 0.70131
 H833 H 0.01111 0.84325 0.69870
 H834 H 0.02212 0.87986 0.71792
 H835 H 0.01708 0.81400 0.66869
 H836 H 0.06821 0.82646 0.61246
 H837 H 0.09464 0.93346 0.66376
 H838 H 0.04696 0.91480 0.72079
 H839 H 0.07771 0.86413 0.62867
 H840 H 0.08333 0.89859 0.64265
 C841 C 0.94048 0.65618 0.67941
 C842 C 0.96056 0.65643 0.66414
 C843 C 0.96713 0.67759 0.65237
 C844 C 0.95369 0.69847 0.65532
 C845 C 0.93429 0.69832 0.67103
 C846 C 0.92779 0.67756 0.68298
 C847 C 0.93308 0.63296 0.69041
 C848 C 0.91281 0.63080 0.70503
 C849 C 0.90552 0.60857 0.71334
 C850 C 0.91827 0.58789 0.70754
 C851 C 0.93915 0.58986 0.69398
 C852 C 0.94649 0.61221 0.68514
 C853 C 0.97353 0.63544 0.66024
 C854 C 0.96666 0.61382 0.67052
 H855 H 0.98900 0.63563 0.64868
 H856 H 0.97703 0.59801 0.66657
 H857 H 0.98214 0.67758 0.64021
 H858 H 0.92396 0.71436 0.67394
 H859 H 0.88955 0.60746 0.72413
 H860 H 0.94905 0.57389 0.68945
 H861 H 0.91256 0.67864 0.69460
 H862 H 0.90200 0.64590 0.70991
 C863 C 0.44526 0.14107 0.16636
 C864 C 0.43585 0.14705 0.14449
 C865 C 0.44080 0.16925 0.13411
 C866 C 0.45500 0.18588 0.14518
 C867 C 0.46470 0.17981 0.16661
 C868 C 0.45992 0.15773 0.17711
 C869 C 0.43860 0.11757 0.17732
 C870 C 0.44641 0.11008 0.19931
 C871 C 0.43822 0.08882 0.20949
 C872 C 0.42214 0.07450 0.19797
 C873 C 0.41527 0.08117 0.17556
 C874 C 0.42315 0.10255 0.16529
 C875 C 0.42127 0.13100 0.13321
 C876 C 0.41506 0.10923 0.14339
 H877 H 0.41422 0.13551 0.11640
 H878 H 0.40336 0.09763 0.13414
 H879 H 0.43355 0.17365 0.11735
 H880 H 0.47564 0.19240 0.17553
 H881 H 0.44374 0.08407 0.22682
 H882 H 0.40319 0.06994 0.16633
 H883 H 0.46763 0.15420 0.19372
 H884 H 0.45836 0.12063 0.20921
 C885 C 0.33704 0.45136 -0.15081
 C886 C 0.35915 0.44120 -0.15697
 C887 C 0.36930 0.44512 -0.17932
 C888 C 0.35849 0.46035 -0.19544
 C889 C 0.33739 0.47189 -0.18838
 C890 C 0.32667 0.46722 -0.16657
 C891 C 0.32577 0.44483 -0.12765
 C892 C 0.30224 0.45051 -0.12148
 C893 C 0.29205 0.44261 -0.10031
 C894 C 0.30518 0.42933 -0.08437
 C895 C 0.32899 0.42452 -0.09013
 C896 C 0.33897 0.43120 -0.11188
 C897 C 0.37120 0.42751 -0.14068
 C898 C 0.36162 0.42323 -0.11836
 H899 H 0.38840 0.42015 -0.14516
 H900 H 0.37170 0.41263 -0.10635
 H901 H 0.38620 0.43703 -0.18371
 H902 H 0.32829 0.48361 -0.20017
 H903 H 0.27356 0.44622 -0.09695
 H904 H 0.33975 0.41483 -0.07802
 H905 H 0.31029 0.47624 -0.16235
 H906 H 0.29112 0.46012 -0.13322
 C907 C 0.83514 0.95134 0.35404
 C908 C 0.85399 0.93681 0.34583
 C909 C 0.86527 0.94159 0.32418
 C910 C 0.85811 0.96074 0.30995
 C911 C 0.83962 0.97542 0.31861
 C912 C 0.82835 0.97082 0.34019
 C913 C 0.82310 0.94509 0.37697
 C914 C 0.80376 0.95801 0.38653
 C915 C 0.79277 0.95092 0.40762
 C916 C 0.80081 0.93087 0.41979
 C917 C 0.82020 0.91810 0.41051
 C918 C 0.83131 0.92499 0.38936
 C919 C 0.86146 0.91739 0.35919
 C920 C 0.85036 0.91161 0.38046
 H921 H 0.87599 0.90631 0.35299
 H922 H 0.85669 0.89626 0.39000
 H923 H 0.88016 0.93058 0.31890
 H924 H 0.83276 0.98994 0.30835
 H925 H 0.77795 0.96119 0.41446
 H926 H 0.82630 0.90227 0.41944
 H927 H 0.81410 0.98253 0.34549
 H928 H 0.79674 0.97350 0.37795
 C929 C 0.83467 0.05470 1.14743
 C930 C 0.83600 0.07294 1.16430
 C931 C 0.84761 0.06885 1.18518
 C932 C 0.85782 0.04651 1.19019
 C933 C 0.85620 0.02839 1.17330
 C934 C 0.84495 0.03243 1.15229
 C935 C 0.82195 0.05989 1.12538
 C936 C 0.82022 0.04335 1.10699
 C937 C 0.80786 0.04911 1.08697
 C938 C 0.79677 0.07135 1.08492
 C939 C 0.79873 0.08800 1.10293
 C940 C 0.81123 0.08255 1.12293
 C941 C 0.82535 0.09511 1.16053
 C942 C 0.81310 0.09975 1.14037
 H943 H 0.82629 0.10907 1.17349
 H944 H 0.80499 0.11714 1.13840
 H945 H 0.84741 0.08294 1.19805
 H946 H 0.86434 0.01113 1.17575
 H947 H 0.80669 0.03606 1.07319
 H948 H 0.79072 0.10548 1.10120
 H949 H 0.84445 0.01783 1.14013
 H950 H 0.82830 0.02594 1.10771
 C951 C 0.32929 0.55291 0.64099
 C952 C 0.32741 0.56896 0.65997
 C953 C 0.33959 0.56450 0.68041
 C954 C 0.35381 0.54417 0.68250
 C955 C 0.35560 0.52814 0.66380
 C956 C 0.34355 0.53243 0.64327
 C957 C 0.31597 0.55854 0.61941
 C958 C 0.31677 0.54407 0.59930
 C959 C 0.30419 0.55040 0.57958
 C960 C 0.29040 0.57119 0.57947
 C961 C 0.28952 0.58563 0.59941
 C962 C 0.30208 0.57954 0.61920
 C963 C 0.31331 0.58939 0.65857
 C964 C 0.30091 0.59455 0.63864
 H965 H 0.31185 0.60163 0.67314
 H966 H 0.29027 0.61063 0.63843
 H967 H 0.33768 0.57674 0.69494
 H968 H 0.36654 0.51236 0.66496
 H969 H 0.30515 0.53895 0.56441
 H970 H 0.27942 0.60207 0.59935
 H971 H 0.34564 0.51955 0.62944
 H972 H 0.32707 0.52789 0.59840
 C973 C 0.17458 0.56060 0.34430
 C974 C 0.15938 0.54063 0.34500
 C975 C 0.14701 0.53433 0.32509
 C976 C 0.14915 0.54804 0.30456
 C977 C 0.16414 0.56784 0.30400
 C978 C 0.17671 0.57405 0.32351
 C979 C 0.18714 0.56702 0.36598
 C980 C 0.20299 0.58623 0.36681
 C981 C 0.21301 0.59259 0.38772
 C982 C 0.20765 0.57998 0.40839
 C983 C 0.19291 0.55998 0.40757
 C984 C 0.18259 0.55346 0.38654
 C985 C 0.15627 0.52740 0.36568
 C986 C 0.16746 0.53380 0.38605
 H987 H 0.14464 0.51210 0.36625
 H988 H 0.16409 0.52327 0.40170
 H989 H 0.13526 0.51913 0.32571
 H990 H 0.16629 0.57850 0.28826
 H991 H 0.22484 0.60770 0.38779
 H992 H 0.18876 0.55008 0.42346
 H993 H 0.18777 0.58959 0.32194
 H994 H 0.20774 0.59677 0.35162
 C995 C 0.67709 0.05499 0.85012
 C996 C 0.66490 0.03307 0.84968
 C997 C 0.65196 0.02693 0.83003
 C998 C 0.64980 0.04302 0.81116
 C999 C 0.66162 0.06503 0.81225
 C1000 C 0.67507 0.07085 0.83124
 C1001 C 0.69065 0.06100 0.87125
 C1002 C 0.70490 0.08141 0.87234
 C1003 C 0.71545 0.08754 0.89302
 C1004 C 0.71214 0.07357 0.91323
 C1005 C 0.69951 0.05214 0.91186
 C1006 C 0.68887 0.04570 0.89093
 C1007 C 0.66498 0.01789 0.86922
 C1008 C 0.67628 0.02431 0.88957
 H1009 H 0.65554 0.00113 0.86905
 H1010 H 0.67515 0.01233 0.90446
 H1011 H 0.64246 0.01021 0.83020
 H1012 H 0.66137 0.07771 0.79795
 H1013 H 0.72595 0.10362 0.89332
 H1014 H 0.69718 0.04098 0.92726
 H1015 H 0.68344 0.08809 0.83087
 H1016 H 0.70803 0.09299 0.85750
 C1017 C 0.67111 0.94492 0.65461
 C1018 C 0.67588 0.93071 0.67443
 C1019 C 0.66414 0.93516 0.69585
 C1020 C 0.64774 0.95376 0.69810
 C1021 C 0.64340 0.96825 0.67869
 C1022 C 0.65485 0.96387 0.65716
 C1023 C 0.68341 0.93885 0.63181
 C1024 C 0.67930 0.95108 0.61072
 C1025 C 0.69030 0.94375 0.58974
 C1026 C 0.70569 0.92415 0.58929
 C1027 C 0.71062 0.91258 0.61034
 C1028 C 0.69947 0.91949 0.63137
 C1029 C 0.69226 0.91207 0.67282
 C1030 C 0.70389 0.90667 0.65179
 H1031 H 0.69603 0.90135 0.68805
 H1032 H 0.71625 0.89190 0.65141
 H1033 H 0.66792 0.92420 0.71094
 H1034 H 0.63081 0.98275 0.68008
 H1035 H 0.68615 0.95295 0.57372
 H1036 H 0.72290 0.89773 0.61028
 H1037 H 0.65067 0.97542 0.64277
 H1038 H 0.66728 0.96596 0.60996
 C1039 C 0.18148 0.44323 0.15428
 C1040 C 0.16519 0.46238 0.15406
 C1041 C 0.15205 0.46824 0.17447
 C1042 C 0.15453 0.45487 0.19502
 C1043 C 0.17079 0.43604 0.19519
 C1044 C 0.18413 0.43030 0.17518
 C1045 C 0.19455 0.43695 0.13202
 C1046 C 0.21116 0.41829 0.13058
 C1047 C 0.22141 0.41178 0.10916
 C1048 C 0.21559 0.42373 0.08860
 C1049 C 0.20016 0.44330 0.08994
 C1050 C 0.18951 0.44990 0.11147
 C1051 C 0.16169 0.47512 0.13335
 C1052 C 0.17346 0.46892 0.11249
 H1053 H 0.14926 0.48982 0.13315
 H1054 H 0.16972 0.47899 0.09685
 H1055 H 0.13938 0.48272 0.17418
 H1056 H 0.17325 0.42571 0.21095
 H1057 H 0.23371 0.39697 0.10860
 H1058 H 0.19565 0.45267 0.07410
 H1059 H 0.19612 0.41547 0.17647
 H1060 H 0.21625 0.40820 0.14566
 C1061 C -0.15060 0.32582 0.44736
 C1062 C -0.15055 0.34470 0.46370
 C1063 C -0.17133 0.35765 0.46870
 C1064 C -0.19195 0.35269 0.45685
 C1065 C -0.19183 0.33431 0.44040
 C1066 C -0.17153 0.32093 0.43577
 C1067 C -0.12811 0.31249 0.44240
 C1068 C -0.12676 0.29251 0.42760
 C1069 C -0.10521 0.28151 0.42244
 C1070 C -0.08441 0.29006 0.43185
 C1071 C -0.08563 0.30939 0.44733
 C1072 C -0.10735 0.32044 0.45290
 C1073 C -0.12961 0.35097 0.47436
 C1074 C -0.10841 0.33937 0.46878
 H1075 H -0.12950 0.36547 0.48679
 H1076 H -0.09260 0.34530 0.47706
 H1077 H -0.17131 0.37212 0.48119
 H1078 H -0.20761 0.33025 0.43109
 H1079 H -0.10472 0.26668 0.41039
 H1080 H -0.06967 0.31586 0.45496
 H1081 H -0.17252 0.30719 0.42275
 H1082 H -0.14206 0.28517 0.41968
 C1083 C 0.34843 0.84027 0.93554
 C1084 C 0.34423 0.84769 0.95883
 C1085 C 0.32328 0.85996 0.96510
 C1086 C 0.30597 0.86472 0.94847
 C1087 C 0.31033 0.85642 0.92552
 C1088 C 0.33105 0.84459 0.91918
 C1089 C 0.37082 0.82728 0.92941
 C1090 C 0.37686 0.82033 0.90643
 C1091 C 0.39706 0.80698 0.90168
 C1092 C 0.41198 0.80024 0.91958
 C1093 C 0.40696 0.80824 0.94239
 C1094 C 0.38644 0.82173 0.94741
 C1095 C 0.36082 0.84246 0.97575
 C1096 C 0.38131 0.82951 0.97023
 H1097 H 0.35771 0.84807 0.99365
 H1098 H 0.39331 0.82551 0.98405
 H1099 H 0.32100 0.86623 0.98285
 H1100 H 0.29728 0.85788 0.91226
 H1101 H 0.40099 0.80171 0.88381
 H1102 H 0.41859 0.80337 0.95627
 H1103 H 0.33273 0.83844 0.90142
 H1104 H 0.36625 0.82490 0.89180
 C1105 C 1.14195 0.84061 0.04541
 C1106 C 1.14885 0.86002 0.05927
 C1107 C 1.17041 0.87151 0.05457
 C1108 C 1.18569 0.86413 0.03608
 C1109 C 1.17815 0.84533 0.02185
 C1110 C 1.15675 0.83377 0.02645
 C1111 C 1.11937 0.82800 0.05186
 C1112 C 1.11152 0.80764 0.04003
 C1113 C 1.09102 0.79582 0.04757
 C1114 C 1.07769 0.80406 0.06692
 C1115 C 1.08502 0.82468 0.07840
 C1116 C 1.10574 0.83651 0.07119
 C1117 C 1.13430 0.86780 0.07791
 C1118 C 1.11318 0.85637 0.08368
 H1119 H 1.13946 0.88282 0.08841
 H1120 H 1.10271 0.86292 0.09844
 H1121 H 1.17479 0.88673 0.06513
 H1122 H 1.18925 0.83843 0.00775
 H1123 H 1.08564 0.78004 0.03833
 H1124 H 1.07511 0.83097 0.09364
 H1125 H 1.15235 0.81925 0.01513
 H1126 H 1.12113 0.80029 0.02522
 C1127 C 0.64366 0.33318 0.54875
 C1128 C 0.64713 0.35598 0.55860
 C1129 C 0.66827 0.36834 0.55405
 C1130 C 0.68611 0.35841 0.53962
 C1131 C 0.68234 0.33615 0.52935
 C1132 C 0.66145 0.32368 0.53380
 C1133 C 0.62142 0.31996 0.55513
 C1134 C 0.61692 0.29661 0.54741
 C1135 C 0.59665 0.28450 0.55505
 C1136 C 0.58019 0.29540 0.57031
 C1137 C 0.58406 0.31893 0.57746
 C1138 C 0.60461 0.33113 0.57025
 C1139 C 0.62961 0.36617 0.57316
 C1140 C 0.60877 0.35408 0.57874
 H1141 H 0.63216 0.38370 0.58055
 H1142 H 0.59589 0.36266 0.59029
 H1143 H 0.67091 0.38570 0.56180
 H1144 H 0.69589 0.32800 0.51829
 H1145 H 0.59395 0.26639 0.54921
 H1146 H 0.57158 0.32735 0.58955
 H1147 H 0.65975 0.30656 0.52556
 H1148 H 0.62903 0.28714 0.53592
 C1149 C 0.36078 0.15306 0.55050
 C1150 C 0.34578 0.16627 0.53595
 C1151 C 0.32371 0.15704 0.53030
 C1152 C 0.31605 0.13504 0.53947
 C1153 C 0.33124 0.12168 0.55325
 C1154 C 0.35334 0.13044 0.55861
 C1155 C 0.38335 0.16430 0.55763
 C1156 C 0.39910 0.15288 0.57258
 C1157 C 0.41867 0.16492 0.58058
 C1158 C 0.42324 0.18856 0.57379
 C1159 C 0.40850 0.19964 0.55779
 C1160 C 0.38853 0.18777 0.54982
 C1161 C 0.35247 0.18898 0.52793
 C1162 C 0.37334 0.19953 0.53477
 H1163 H 0.34108 0.19904 0.51667
 H1164 H 0.37739 0.21740 0.52859
 H1165 H 0.31196 0.16755 0.51979
 H1166 H 0.32579 0.10451 0.56025
 H1167 H 0.43010 0.15581 0.59251
 H1168 H 0.41188 0.21793 0.55247
 H1169 H 0.36398 0.11946 0.56961
 H1170 H 0.39643 0.13487 0.57874
 C1171 C 0.84999 0.67037 0.05433
 C1172 C 0.83133 0.66894 0.07119
 C1173 C 0.81034 0.65739 0.06597
 C1174 C 0.80713 0.64695 0.04397
 C1175 C 0.82553 0.64915 0.02700
 C1176 C 0.84664 0.66052 0.03212
 C1177 C 0.87245 0.68220 0.06108
 C1178 C 0.89254 0.68391 0.04603
 C1179 C 0.91329 0.69435 0.05364
 C1180 C 0.91450 0.70328 0.07638
 C1181 C 0.89438 0.70228 0.09116
 C1182 C 0.87362 0.69171 0.08385
 C1183 C 0.83358 0.67906 0.09328
 C1184 C 0.85423 0.69028 0.09944
 H1185 H 0.81919 0.67814 0.10612
 H1186 H 0.85515 0.69765 0.11683
 H1187 H 0.79616 0.65749 0.07904
 H1188 H 0.82426 0.64116 0.00994
 H1189 H 0.92860 0.69487 0.04191
 H1190 H 0.89494 0.70964 0.10860
 H1191 H 0.86017 0.66121 0.01851
 H1192 H 0.89272 0.67699 0.02850
 C1193 C 0.64562 0.66673 0.95000
 C1194 C 0.65336 0.64612 0.93776
 C1195 C 0.67506 0.63558 0.94263
 C1196 C 0.69000 0.64576 0.95886
 C1197 C 0.68243 0.66638 0.97079
 C1198 C 0.66051 0.67666 0.96656
 C1199 C 0.62224 0.67738 0.94416
 C1200 C 0.61210 0.69699 0.95615
 C1201 C 0.59051 0.70656 0.94952
 C1202 C 0.57855 0.69698 0.93066
 C1203 C 0.58853 0.67728 0.91887
 C1204 C 0.60982 0.66721 0.92571
 C1205 C 0.63971 0.63642 0.92030
 C1206 C 0.61862 0.64698 0.91412
 H1207 H 0.64569 0.62070 0.91086
 H1208 H 0.60895 0.63907 0.90013
 H1209 H 0.68035 0.61942 0.93356
 H1210 H 0.69368 0.67494 0.98311
 H1211 H 0.58316 0.72144 0.95929
 H1212 H 0.58001 0.66988 0.90391
 H1213 H 0.65579 0.69265 0.97603
 H1214 H 0.62046 0.70507 0.97077
 C1215 C 0.14710 0.16220 0.45167
 C1216 C 0.15236 0.13912 0.44297
 C1217 C 0.17407 0.12833 0.44745
 C1218 C 0.19100 0.14026 0.46028
 C1219 C 0.18560 0.16290 0.46932
 C1220 C 0.16396 0.17376 0.46512
 C1221 C 0.12415 0.17354 0.44545
 C1222 C 0.11729 0.19658 0.45283
 C1223 C 0.09653 0.20698 0.44509
 C1224 C 0.08209 0.19469 0.42987
 C1225 C 0.08817 0.17132 0.42337
 C1226 C 0.10901 0.16074 0.43091
 C1227 C 0.13617 0.12710 0.42940
 C1228 C 0.11500 0.13771 0.42345
 H1229 H 0.14014 0.10938 0.42287
 H1230 H 0.10330 0.12785 0.41249
 H1231 H 0.17788 0.11063 0.44075
 H1232 H 0.19841 0.17255 0.47916
 H1233 H 0.09225 0.22507 0.45031
 H1234 H 0.07687 0.16151 0.41195
 H1235 H 0.16100 0.19133 0.47220
 H1236 H 0.12793 0.20708 0.46413
 C1237 C 0.58218 0.10974 0.72065
 C1238 C 0.57159 0.08691 0.72098
 C1239 C 0.58193 0.06798 0.73316
 C1240 C 0.60315 0.07120 0.74465
 C1241 C 0.61402 0.09366 0.74351
 C1242 C 0.60369 0.11268 0.73179
 C1243 C 0.57021 0.12966 0.70806
 C1244 C 0.57834 0.15341 0.70821
 C1245 C 0.56673 0.17126 0.69594
 C1246 C 0.54688 0.16590 0.68312
 C1247 C 0.53836 0.14244 0.68320
 C1248 C 0.54965 0.12441 0.69579
 C1249 C 0.55087 0.08305 0.70898
 C1250 C 0.54033 0.10131 0.69637
 H1251 H 0.54281 0.06555 0.70909
 H1252 H 0.52449 0.09732 0.68713
 H1253 H 0.57327 0.05079 0.73390
 H1254 H 0.63074 0.09655 0.75154
 H1255 H 0.57358 0.18927 0.69612
 H1256 H 0.52273 0.13830 0.67366
 H1257 H 0.61299 0.12942 0.73147
 H1258 H 0.59353 0.15861 0.71773
 C1259 C 1.07879 0.60994 0.21182
 C1260 C 1.09734 0.61553 0.22667
 C1261 C 1.10874 0.59735 0.23896
 C1262 C 1.10194 0.57322 0.23709
 C1263 C 1.08336 0.56798 0.22221
 C1264 C 1.07202 0.58593 0.20985
 C1265 C 1.06719 0.62989 0.19889
 C1266 C 1.04885 0.62615 0.18335
 C1267 C 1.03877 0.64530 0.17160
 C1268 C 1.04659 0.66868 0.17505
 C1269 C 1.06474 0.67265 0.19057
 C1270 C 1.07515 0.65349 0.20235
 C1271 C 1.10449 0.63926 0.22919
 C1272 C 1.09357 0.65782 0.21738
 H1273 H 1.11871 0.64358 0.24057
 H1274 H 1.09973 0.67587 0.22000
 H1275 H 1.12357 0.60225 0.24928
 H1276 H 1.07660 0.55007 0.22067
 H1277 H 1.02461 0.64181 0.15990
 H1278 H 1.07109 0.69064 0.19312
 H1279 H 1.05780 0.58057 0.19905
 H1280 H 1.04204 0.60864 0.17992
 C1281 C 0.91996 0.89092 0.21306
 C1282 C 0.92554 0.89449 0.23668
 C1283 C 0.91519 0.91341 0.24934
 C1284 C 0.89957 0.92921 0.23869
 C1285 C 0.89430 0.92583 0.21522
 C1286 C 0.90427 0.90694 0.20256
 C1287 C 0.93117 0.87032 0.20025
 C1288 C 0.92606 0.86469 0.17702
 C1289 C 0.93686 0.84528 0.16589
 C1290 C 0.95310 0.83101 0.17749
 C1291 C 0.95841 0.83646 0.20060
 C1292 C 0.94742 0.85580 0.21210
 C1293 C 0.94157 0.87932 0.24747
 C1294 C 0.95240 0.86051 0.23540
 H1295 H 0.94593 0.88210 0.26553
 H1296 H 0.96476 0.84936 0.24452
 H1297 H 0.91961 0.91614 0.26739
 H1298 H 0.88219 0.93773 0.20669
 H1299 H 0.93265 0.84156 0.14797
 H1300 H 0.97075 0.82533 0.20977
 H1301 H 0.89951 0.90532 0.18458
 H1302 H 0.91372 0.87491 0.16714
 C1303 C 0.42095 0.38885 0.70964
 C1304 C 0.42702 0.39361 0.73292
 C1305 C 0.41655 0.41285 0.74503
 C1306 C 0.40022 0.42772 0.73418
 C1307 C 0.39447 0.42314 0.71103
 C1308 C 0.40462 0.40400 0.69890
 C1309 C 0.43222 0.36791 0.69745
 C1310 C 0.42674 0.36119 0.67460
 C1311 C 0.43752 0.34143 0.66409
 C1312 C 0.45412 0.32785 0.67597
 C1313 C 0.45985 0.33443 0.69868
 C1314 C 0.44891 0.35417 0.70954
 C1315 C 0.44358 0.37924 0.74394
 C1316 C 0.45438 0.36004 0.73247
 H1317 H 0.44831 0.38292 0.76174
 H1318 H 0.46710 0.34950 0.74176
 H1319 H 0.42133 0.41647 0.76283
 H1320 H 0.38177 0.43425 0.70235
 H1321 H 0.43300 0.33686 0.64645
 H1322 H 0.47248 0.32386 0.70807
 H1323 H 0.39941 0.40144 0.68118
 H1324 H 0.41411 0.37083 0.66453
 C1325 C 0.41938 0.61244 0.77454
 C1326 C 0.39967 0.60038 0.78464
 C1327 C 0.38918 0.58166 0.77263
 C1328 C 0.39748 0.57526 0.75026
 C1329 C 0.41625 0.58787 0.73977
 C1330 C 0.42722 0.60616 0.75178
 C1331 C 0.43085 0.63148 0.78851
 C1332 C 0.45191 0.64285 0.78119
 C1333 C 0.46215 0.66010 0.79512
 C1334 C 0.45157 0.66674 0.81662
 C1335 C 0.43044 0.65560 0.82388
 C1336 C 0.42038 0.63776 0.81036
 C1337 C 0.39040 0.60722 0.80652
 C1338 C 0.40026 0.62581 0.81890
 H1339 H 0.37514 0.59818 0.81412
 H1340 H 0.39232 0.63053 0.83570
 H1341 H 0.37433 0.57217 0.78055
 H1342 H 0.42273 0.58322 0.72240
 H1343 H 0.47871 0.66788 0.78920
 H1344 H 0.42174 0.66069 0.84021
 H1345 H 0.44168 0.61521 0.74293
 H1346 H 0.46103 0.63830 0.76503
 C1347 C -0.07905 0.11634 0.28194
 C1348 C -0.06900 0.09322 0.28260
 C1349 C -0.07946 0.07432 0.27079
 C1350 C -0.10018 0.07786 0.25852
 C1351 C -0.11028 0.10073 0.25816
 C1352 C -0.09989 0.11973 0.26964
 C1353 C -0.06720 0.13608 0.29468
 C1354 C -0.07522 0.15991 0.29442
 C1355 C -0.06381 0.17751 0.30698
 C1356 C -0.04422 0.17181 0.32020
 C1357 C -0.03582 0.14826 0.32020
 C1358 C -0.04701 0.13047 0.30749
 C1359 C -0.04868 0.08901 0.29519
 C1360 C -0.03805 0.10717 0.30753
 H1361 H -0.04101 0.07129 0.29574
 H1362 H -0.02251 0.10292 0.31722
 H1363 H -0.07129 0.05682 0.27100
 H1364 H -0.12649 0.10392 0.24920
 H1365 H -0.07065 0.19556 0.30677
 H1366 H -0.02041 0.14380 0.33003
 H1367 H -0.10860 0.13681 0.26884
 H1368 H -0.09026 0.16536 0.28470
 C1369 C 0.08600 0.38668 0.28857
 C1370 C 0.07399 0.40879 0.28726
 C1371 C 0.08437 0.42808 0.27507
 C1372 C 0.10674 0.42579 0.26418
 C1373 C 0.11879 0.40402 0.26600
 C1374 C 0.10863 0.38473 0.27798
 C1375 C 0.07409 0.36636 0.30128
 C1376 C 0.08420 0.34345 0.30284
 C1377 C 0.07252 0.32516 0.31500
 C1378 C 0.05046 0.32913 0.32600
 C1379 C 0.04007 0.35181 0.32428
 C1380 C 0.05164 0.37034 0.31198
 C1381 C 0.05170 0.41151 0.29807
 C1382 C 0.04084 0.39276 0.31030
 H1383 H 0.04252 0.42844 0.29715
 H1384 H 0.02364 0.39582 0.31844
 H1385 H 0.07482 0.44477 0.27369
 H1386 H 0.13629 0.40190 0.25822
 H1387 H 0.08073 0.30772 0.31559
 H1388 H 0.02312 0.35518 0.33284
 H1389 H 0.11886 0.36855 0.27876
 H1390 H 0.10103 0.33917 0.29471
 C1391 C 0.58343 0.88148 0.79131
 C1392 C 0.57299 0.90437 0.79336
 C1393 C 0.58356 0.92413 0.78211
 C1394 C 0.60475 0.92160 0.76905
 C1395 C 0.61553 0.89905 0.76792
 C1396 C 0.60506 0.87927 0.77881
 C1397 C 0.57104 0.86066 0.80269
 C1398 C 0.57904 0.83696 0.80024
 C1399 C 0.56692 0.81819 0.81124
 C1400 C 0.54655 0.82245 0.82511
 C1401 C 0.53827 0.84601 0.82737
 C1402 C 0.55014 0.86500 0.81610
 C1403 C 0.55207 0.90740 0.80661
 C1404 C 0.54107 0.88820 0.81799
 H1405 H 0.54413 0.92493 0.80835
 H1406 H 0.52501 0.89153 0.82817
 H1407 H 0.57497 0.94140 0.78313
 H1408 H 0.63222 0.89664 0.75857
 H1409 H 0.57345 0.80021 0.80864
 H1410 H 0.52268 0.84969 0.83815
 H1411 H 0.61425 0.86247 0.77728
 H1412 H 0.59445 0.83246 0.78971
 C1413 C 0.71175 0.58039 0.11011
 C1414 C 0.73660 0.57937 0.10910
 C1415 C 0.74926 0.59028 0.09055
 C1416 C 0.73763 0.60181 0.07223
 C1417 C 0.71283 0.60178 0.07295
 C1418 C 0.70012 0.59141 0.09160
 C1419 C 0.69894 0.56921 0.13065
 C1420 C 0.67440 0.57106 0.13435
 C1421 C 0.66326 0.56012 0.15360
 C1422 C 0.67618 0.54681 0.16964
 C1423 C 0.70073 0.54527 0.16631
 C1424 C 0.71217 0.55661 0.14723
 C1425 C 0.74871 0.56708 0.12638
 C1426 C 0.73674 0.55562 0.14482
 H1427 H 0.76776 0.56607 0.12551
 H1428 H 0.74692 0.54611 0.15758
 H1429 H 0.76826 0.58868 0.08999
 H1430 H 0.70296 0.61073 0.05964
 H1431 H 0.64442 0.56233 0.15603
 H1432 H 0.71101 0.53502 0.17842
 H1433 H 0.68118 0.59220 0.09112
 H1434 H 0.66350 0.58113 0.12278
 C1435 C 0.21342 1.08731 0.61330
 C1436 C 0.23679 1.07912 0.60937
 C1437 C 0.25018 1.08745 0.59001
 C1438 C 0.24053 1.10359 0.57414
 C1439 C 0.21733 1.11152 0.57793
 C1440 C 0.20394 1.10358 0.59726
 C1441 C 0.19967 1.07785 0.63411
 C1442 C 0.17654 1.08530 0.63992
 C1443 C 0.16418 1.07533 0.65898
 C1444 C 0.17448 1.05766 0.67280
 C1445 C 0.19776 1.05059 0.66754
 C1446 C 0.21039 1.06057 0.64844
 C1447 C 0.24655 1.06241 0.62453
 C1448 C 0.23358 1.05320 0.64354
 H1449 H 0.26443 1.05611 0.62150
 H1450 H 0.24184 1.04006 0.65457
 H1451 H 0.26800 1.08094 0.58698
 H1452 H 0.20957 1.12411 0.56599
 H1453 H 0.14644 1.08152 0.66294
 H1454 H 0.20589 1.03685 0.67795
 H1455 H 0.18619 1.11028 0.59917
 H1456 H 0.16761 1.09875 0.63000
 C1457 C 0.21169 0.92834 0.88409
 C1458 C 0.21117 0.93991 0.90602
 C1459 C 0.22321 0.92997 0.92482
 C1460 C 0.23585 0.90856 0.92210
 C1461 C 0.23588 0.89693 0.90048
 C1462 C 0.22402 0.90661 0.88175
 C1463 C 0.19898 0.93968 0.86435
 C1464 C 0.19898 0.92985 0.84177
 C1465 C 0.18663 0.94087 0.82404
 C1466 C 0.17396 0.96199 0.82824
 C1467 C 0.17416 0.97219 0.85057
 C1468 C 0.18656 0.96123 0.86858
 C1469 C 0.19867 0.96132 0.90902
 C1470 C 0.18655 0.97168 0.89074
 H1471 H 0.19820 0.97018 0.92579
 H1472 H 0.17707 0.98820 0.89401
 H1473 H 0.22312 0.93913 0.94144
 H1474 H 0.24505 0.88011 0.89807
 H1475 H 0.18716 0.93287 0.80687
 H1476 H 0.16429 0.98843 0.85407
 H1477 H 0.22474 0.89672 0.86567
 H1478 H 0.20840 0.91371 0.83733
 C1479 C 0.72011 0.42099 0.38584
 C1480 C 0.71963 0.43288 0.40758
 C1481 C 0.73055 0.42255 0.42685
 C1482 C 0.74182 0.40027 0.42493
 C1483 C 0.74190 0.38839 0.40345
 C1484 C 0.73126 0.39855 0.38417
 C1485 C 0.70832 0.43264 0.36567
 C1486 C 0.70843 0.42259 0.34319
 C1487 C 0.69645 0.43362 0.32521
 C1488 C 0.68405 0.45500 0.32905
 C1489 C 0.68450 0.46561 0.35117
 C1490 C 0.69653 0.45464 0.36943
 C1491 C 0.70810 0.45490 0.41002
 C1492 C 0.69665 0.46545 0.39141
 H1493 H 0.70769 0.46401 0.42666
 H1494 H 0.68774 0.48235 0.39430
 H1495 H 0.73049 0.43200 0.44331
 H1496 H 0.74999 0.37096 0.40157
 H1497 H 0.69686 0.42533 0.30818
 H1498 H 0.67492 0.48208 0.35439
 H1499 H 0.73181 0.38839 0.36824
 H1500 H 0.71756 0.40619 0.33907
 C1501 C 0.78041 0.41860 0.60994
 C1502 C 0.75678 0.42534 0.60626
 C1503 C 0.74465 0.41568 0.58753
 C1504 C 0.75593 0.39981 0.57193
 C1505 C 0.77940 0.39341 0.57543
 C1506 C 0.79149 0.40257 0.59419
 C1507 C 0.79273 0.42929 0.63013
 C1508 C 0.81582 0.42293 0.63588
 C1509 C 0.82681 0.43387 0.65440
 C1510 C 0.81521 0.45155 0.66772
 C1511 C 0.79193 0.45756 0.66253
 C1512 C 0.78061 0.44649 0.64401
 C1513 C 0.74556 0.44200 0.62101
 C1514 C 0.75730 0.45253 0.63931
 H1515 H 0.72751 0.44724 0.61817
 H1516 H 0.74793 0.46557 0.65001
 H1517 H 0.72660 0.42097 0.58471
 H1518 H 0.78841 0.38109 0.56367
 H1519 H 0.84450 0.42831 0.65839
 H1520 H 0.78273 0.47120 0.67261
 H1521 H 0.80954 0.39705 0.59584
 H1522 H 0.82572 0.40948 0.62641
 C1523 C 0.27884 -0.07398 0.10526
 C1524 C 0.26536 -0.09498 0.10858
 C1525 C 0.25406 -0.10528 0.08967
 C1526 C 0.25549 -0.09471 0.06739
 C1527 C 0.26855 -0.07367 0.06428
 C1528 C 0.28011 -0.06346 0.08287
 C1529 C 0.29107 -0.06386 0.12579
 C1530 C 0.30594 -0.04382 0.12404
 C1531 C 0.31734 -0.03540 0.14354
 C1532 C 0.31408 -0.04655 0.16534
 C1533 C 0.29910 -0.06632 0.16742
 C1534 C 0.28787 -0.07523 0.14779
 C1535 C 0.26309 -0.10550 0.13075
 C1536 C 0.27390 -0.09571 0.14998
 H1537 H 0.25266 -0.12150 0.13333
 H1538 H 0.27152 -0.10449 0.16677
 H1539 H 0.24428 -0.12169 0.09232
 H1540 H 0.26956 -0.06480 0.04745
 H1541 H 0.32877 -0.02005 0.14160
 H1542 H 0.29680 -0.07521 0.18418
 H1543 H 0.28972 -0.04722 0.07934
 H1544 H 0.30929 -0.03456 0.10775
 C1545 C 0.28139 0.06845 0.39047
 C1546 C 0.27073 0.09096 0.38672
 C1547 C 0.26024 0.10347 0.40550
 C1548 C 0.26023 0.09403 0.42821
 C1549 C 0.27104 0.07188 0.43197
 C1550 C 0.28147 0.05922 0.41340
 C1551 C 0.29233 0.05565 0.36986
 C1552 C 0.30303 0.03299 0.37154
 C1553 C 0.31363 0.02222 0.35192
 C1554 C 0.31387 0.03372 0.33013
 C1555 C 0.30267 0.05596 0.32815
 C1556 C 0.29198 0.06695 0.34772
 C1557 C 0.27067 0.10093 0.36428
 C1558 C 0.28114 0.08924 0.34523
 H1559 H 0.26251 0.11816 0.36141
 H1560 H 0.28080 0.09783 0.32826
 H1561 H 0.25225 0.12076 0.40246
 H1562 H 0.27106 0.06409 0.44929
 H1563 H 0.32227 0.00512 0.35394
 H1564 H 0.30237 0.06480 0.31130
 H1565 H 0.28944 0.04227 0.41739
 H1566 H 0.30363 0.02339 0.38786
 C1567 C 0.78263 0.57633 0.89038
 C1568 C 0.77263 0.59919 0.88684
 C1569 C 0.76214 0.61163 0.90567
 C1570 C 0.76133 0.60169 0.92820
 C1571 C 0.77163 0.57925 0.93176
 C1572 C 0.78215 0.56671 0.91316
 C1573 C 0.79333 0.56349 0.86967
 C1574 C 0.80333 0.54049 0.87114
 C1575 C 0.81360 0.52960 0.85140
 C1576 C 0.81417 0.54132 0.82972
 C1577 C 0.80368 0.56393 0.82798
 C1578 C 0.79337 0.57506 0.84766
 C1579 C 0.77308 0.60950 0.86454
 C1580 C 0.78328 0.59774 0.84540
 H1581 H 0.76545 0.62701 0.86184
 H1582 H 0.78328 0.60656 0.82853
 H1583 H 0.75456 0.62913 0.90278
 H1584 H 0.77102 0.57105 0.94892
 H1585 H 0.82172 0.51222 0.85327
 H1586 H 0.80364 0.57297 0.81121
 H1587 H 0.78962 0.54948 0.91700
 H1588 H 0.80364 0.53068 0.88735
 C1589 C 0.10694 0.71919 0.57309
 C1590 C 0.11182 0.73253 0.59327
 C1591 C 0.09360 0.74457 0.60546
 C1592 C 0.07042 0.74383 0.59775
 C1593 C 0.06565 0.73066 0.57771
 C1594 C 0.08359 0.71847 0.56555
 C1595 C 0.12689 0.70642 0.56070
 C1596 C 0.12382 0.69219 0.54083
 C1597 C 0.14287 0.68026 0.53023
 C1598 C 0.16550 0.68230 0.53902
 C1599 C 0.16886 0.69669 0.55858
 C1600 C 0.14977 0.70857 0.56955
 C1601 C 0.13485 0.73388 0.60114
 C1602 C 0.15342 0.72224 0.58949
 H1603 H 0.13859 0.74414 0.61656
 H1604 H 0.17091 0.72384 0.59629
 H1605 H 0.09747 0.75442 0.62110
 H1606 H 0.04801 0.73009 0.57115
 H1607 H 0.13991 0.66940 0.51503
 H1608 H 0.18625 0.69809 0.56567
 H1609 H 0.07879 0.70879 0.55022
 H1610 H 0.10687 0.68983 0.53327
 C1611 C 0.60892 0.21364 1.07412
 C1612 C 0.61287 0.22573 1.09525
 C1613 C 0.59414 0.23714 1.10727
 C1614 C 0.57141 0.23721 1.09835
 C1615 C 0.56768 0.22563 1.07714
 C1616 C 0.58611 0.21395 1.06520
 C1617 C 0.62927 0.20109 1.06219
 C1618 C 0.62691 0.18735 1.04186
 C1619 C 0.64628 0.17550 1.03177
 C1620 C 0.66851 0.17723 1.04149
 C1621 C 0.67116 0.19107 1.06153
 C1622 C 0.65171 0.20269 1.07210
 C1623 C 0.63547 0.22647 1.10424
 C1624 C 0.65452 0.21541 1.09279
 H1625 H 0.63852 0.23585 1.12035
 H1626 H 0.67167 0.21656 1.10044
 H1627 H 0.59728 0.24578 1.12375
 H1628 H 0.55049 0.22585 1.06954
 H1629 H 0.64389 0.16492 1.01626
 H1630 H 0.68826 0.19212 1.06933
 H1631 H 0.58211 0.20551 1.04895
 H1632 H 0.61025 0.18520 1.03366
 C1633 C 0.89692 0.21297 0.93451
 C1634 C 0.89809 0.23764 0.93953
 C1635 C 0.91562 0.25184 0.92869
 C1636 C 0.93216 0.24185 0.91283
 C1637 C 0.93133 0.21731 0.90836
 C1638 C 0.91400 0.20303 0.91902
 C1639 C 0.87724 0.19867 0.94555
 C1640 C 0.87391 0.17428 0.94083
 C1641 C 0.85466 0.16203 0.95060
 C1642 C 0.83830 0.17364 0.96546
 C1643 C 0.84178 0.19772 0.97086
 C1644 C 0.86093 0.21035 0.96085
 C1645 C 0.88161 0.24804 0.95511
 C1646 C 0.86350 0.23467 0.96560
 H1647 H 0.88260 0.26688 0.95908
 H1648 H 0.85107 0.24362 0.97734
 H1649 H 0.91637 0.27074 0.93253
 H1650 H 0.94379 0.20921 0.89607
 H1651 H 0.85249 0.14335 0.94643
 H1652 H 0.82908 0.20686 0.98218
 H1653 H 0.91419 0.18436 0.91465
 H1654 H 0.88571 0.16437 0.92939
 C1655 C 0.39887 0.70997 0.43447
 C1656 C 0.40074 0.73478 0.43848
 C1657 C 0.41903 0.74790 0.42756
 C1658 C 0.43566 0.73668 0.41264
 C1659 C 0.43425 0.71197 0.40935
 C1660 C 0.41616 0.69875 0.42010
 C1661 C 0.37823 0.69689 0.44524
 C1662 C 0.37401 0.67253 0.44114
 C1663 C 0.35383 0.66150 0.45040
 C1664 C 0.33741 0.67432 0.46417
 C1665 C 0.34176 0.69836 0.46905
 C1666 C 0.36185 0.70979 0.45946
 C1667 C 0.38416 0.74641 0.45305
 C1668 C 0.36521 0.73416 0.46342
 H1669 H 0.38571 0.76536 0.45629
 H1670 H 0.35273 0.74404 0.47434
 H1671 H 0.42023 0.76695 0.43049
 H1672 H 0.44679 0.70291 0.39783
 H1673 H 0.35094 0.64283 0.44665
 H1674 H 0.32901 0.70841 0.47952
 H1675 H 0.41589 0.67988 0.41663
 H1676 H 0.38579 0.66175 0.43048
 C1677 C 0.61885 0.78589 0.41652
 C1678 C 0.59816 0.78130 0.43022
 C1679 C 0.57888 0.77006 0.42030
 C1680 C 0.58009 0.76254 0.39703
 C1681 C 0.60073 0.76651 0.38358
 C1682 C 0.61985 0.77820 0.39310
 C1683 C 0.63886 0.79837 0.42774
 C1684 C 0.65958 0.80531 0.41537
 C1685 C 0.67754 0.81723 0.42663
 C1686 C 0.67546 0.82237 0.45056
 C1687 C 0.65498 0.81520 0.46303
 C1688 C 0.63661 0.80377 0.45180
 C1689 C 0.59695 0.78749 0.45385
 C1690 C 0.61589 0.79816 0.46449
 H1691 H 0.58119 0.78378 0.46438
 H1692 H 0.61414 0.80242 0.48289
 H1693 H 0.56311 0.76652 0.43087
 H1694 H 0.60201 0.76064 0.36561
 H1695 H 0.69286 0.82290 0.41638
 H1696 H 0.65318 0.81861 0.48160
 H1697 H 0.63530 0.78075 0.38197
 H1698 H 0.66208 0.80213 0.39691
 C1699 C 0.11556 0.29412 -0.08412
 C1700 C 0.09477 0.29046 -0.07029
 C1701 C 0.07512 0.27961 -0.07993
 C1702 C 0.07603 0.27163 -0.10307
 C1703 C 0.09662 0.27509 -0.11674
 C1704 C 0.11612 0.28631 -0.10749
 C1705 C 0.13621 0.30565 -0.07306
 C1706 C 0.15736 0.31102 -0.08547
 C1707 C 0.17608 0.32171 -0.07431
 C1708 C 0.17434 0.32722 -0.05045
 C1709 C 0.15333 0.32183 -0.03797
 C1710 C 0.13428 0.31147 -0.04908
 C1711 C 0.09388 0.29710 -0.04676
 C1712 C 0.11329 0.30713 -0.03633
 H1713 H 0.07802 0.29419 -0.03614
 H1714 H 0.11177 0.31173 -0.01799
 H1715 H 0.05935 0.27657 -0.06919
 H1716 H 0.09763 0.26900 -0.13465
 H1717 H 0.19182 0.32608 -0.08456
 H1718 H 0.15177 0.32563 -0.01946
 H1719 H 0.13151 0.28832 -0.11880
 H1720 H 0.15973 0.30741 -0.10386
 C1721 C 0.38975 0.28358 0.07940
 C1722 C 0.38844 0.25852 0.08174
 C1723 C 0.40656 0.24593 0.09255
 C1724 C 0.42547 0.25807 0.10242
 C1725 C 0.42566 0.28314 0.10142
 C1726 C 0.40825 0.29570 0.08990
 C1727 C 0.37090 0.29624 0.06652
 C1728 C 0.37261 0.32040 0.06009
 C1729 C 0.35440 0.33164 0.04858
 C1730 C 0.33363 0.31934 0.04358
 C1731 C 0.33226 0.29487 0.04910
 C1732 C 0.35098 0.28317 0.05991
 C1733 C 0.36880 0.24630 0.07374
 C1734 C 0.35013 0.25846 0.06373
 H1735 H 0.36756 0.22711 0.07580
 H1736 H 0.33506 0.24829 0.05839
 H1737 H 0.40589 0.22663 0.09304
 H1738 H 0.43920 0.29326 0.10973
 H1739 H 0.35680 0.35010 0.04348
 H1740 H 0.31661 0.28485 0.04524
 H1741 H 0.40930 0.31492 0.08984
 H1742 H 0.38809 0.33080 0.06339
 C1743 C 0.88936 0.79070 0.58288
 C1744 C 0.88890 0.76556 0.58502
 C1745 C 0.90722 0.75352 0.59604
 C1746 C 0.92577 0.76622 0.60583
 C1747 C 0.92562 0.79123 0.60442
 C1748 C 0.90779 0.80331 0.59304
 C1749 C 0.86986 0.80282 0.57039
 C1750 C 0.86987 0.82744 0.56548
 C1751 C 0.85108 0.83804 0.55429
 C1752 C 0.83159 0.82452 0.54783
 C1753 C 0.83177 0.79979 0.55200
 C1754 C 0.85086 0.78885 0.56287
 C1755 C 0.86997 0.75262 0.57649
 C1756 C 0.85115 0.76406 0.56607
 H1757 H 0.86950 0.73337 0.57828
 H1758 H 0.83673 0.75329 0.56013
 H1759 H 0.90707 0.73421 0.59683
 H1760 H 0.93920 0.80160 0.61240
 H1761 H 0.85197 0.85696 0.55053
 H1762 H 0.81694 0.78903 0.54709
 H1763 H 0.90858 0.82253 0.59276
 H1764 H 0.88433 0.83880 0.56986
   
