data_POSCAR
  _audit_creation_date              2014-09-24
  _audit_creation_method            'ToBaCCo'
  _symmetry_space_group_name_H-M    'P1'
  _symmetry_Int_Tables_number       1
  _symmetry_cell_setting            triclinic
  loop_
  _symmetry_equiv_pos_as_xyz
 x,y,z
_cell_length_a 81.4310
_cell_length_b 81.2994
_cell_length_c 81.6645
_cell_angle_alpha 90.045100
_cell_angle_beta 89.985400
_cell_angle_gamma 89.894500
loop_
  _atom_site_label
  _atom_site_type_symbol
  _atom_site_fract_x
  _atom_site_fract_y
  _atom_site_fract_z
C1 C 0.35751 0.33314 0.34564
 C2 C 0.34536 0.33309 0.35780
 C3 C 0.33330 0.34508 0.35786
 C4 C 0.33321 0.35727 0.34572
 C5 C 0.34520 0.35734 0.33374
 C6 C 0.35745 0.34519 0.33370
 C7 C 0.37033 0.32265 0.34220
 N8 N 0.37808 0.32801 0.32845
 C9 C 0.37025 0.34183 0.32320
 C10 C 0.34173 0.37017 0.32331
 N11 N 0.32789 0.37789 0.32864
 C12 C 0.32263 0.37004 0.34237
 C13 C 0.32284 0.34162 0.37062
 N14 N 0.32822 0.32779 0.37831
 C15 C 0.34202 0.32252 0.37052
 H16 H 0.37371 0.31187 0.34921
 H17 H 0.37331 0.34869 0.31227
 H18 H 0.34853 0.37331 0.31237
 H19 H 0.31187 0.37334 0.34944
 H20 H 0.31182 0.34841 0.37373
 H21 H 0.34913 0.31176 0.37379
 C22 C 0.35741 0.83255 -0.15488
 C23 C 0.34526 0.83249 -0.14270
 C24 C 0.33322 0.84450 -0.14264
 C25 C 0.33314 0.85670 -0.15478
 C26 C 0.34506 0.85670 -0.16675
 C27 C 0.35730 0.84453 -0.16680
 C28 C 0.37027 0.82212 -0.15829
 N29 N 0.37814 0.82737 -0.17212
 C30 C 0.37009 0.84120 -0.17728
 C31 C 0.34161 0.86953 -0.17717
 N32 N 0.32777 0.87748 -0.17191
 C33 C 0.32264 0.86952 -0.15808
 C34 C 0.32280 0.84112 -0.12982
 N35 N 0.32820 0.82732 -0.12209
 C36 C 0.34196 0.82199 -0.12992
 H37 H 0.37319 0.81129 -0.15121
 H38 H 0.37303 0.84852 -0.18791
 H39 H 0.34886 0.87256 -0.18781
 H40 H 0.31183 0.87235 -0.15094
 H41 H 0.31183 0.84795 -0.12667
 H42 H 0.34908 0.81124 -0.12661
 C43 C 0.85766 0.33326 -0.15533
 C44 C 0.84544 0.33332 -0.14322
 C45 C 0.83343 0.34535 -0.14332
 C46 C 0.83350 0.35750 -0.15550
 C47 C 0.84550 0.35741 -0.16740
 C48 C 0.85768 0.34518 -0.16731
 C49 C 0.87050 0.32275 -0.15861
 N50 N 0.87847 0.32790 -0.17242
 C51 C 0.87052 0.34174 -0.17770
 C52 C 0.84215 0.37018 -0.17791
 N53 N 0.82830 0.37819 -0.17278
 C54 C 0.82305 0.37034 -0.15895
 C55 C 0.82288 0.34203 -0.13059
 N56 N 0.82819 0.32826 -0.12274
 C57 C 0.84202 0.32289 -0.13042
 H58 H 0.87333 0.31195 -0.15146
 H59 H 0.87356 0.34899 -0.18834
 H60 H 0.84949 0.37314 -0.18852
 H61 H 0.81219 0.37322 -0.15192
 H62 H 0.81212 0.34915 -0.12733
 H63 H 0.84885 0.31191 -0.12725
 C64 C 0.85717 0.83370 0.34472
 C65 C 0.84498 0.83378 0.35686
 C66 C 0.83297 0.84582 0.35678
 C67 C 0.83302 0.85796 0.34458
 C68 C 0.84499 0.85785 0.33267
 C69 C 0.85719 0.84563 0.33275
 C70 C 0.86998 0.82318 0.34141
 N71 N 0.87796 0.82834 0.32761
 C72 C 0.87002 0.84219 0.32235
 C73 C 0.84163 0.87063 0.32216
 N74 N 0.82779 0.87865 0.32731
 C75 C 0.82257 0.87079 0.34115
 C76 C 0.82245 0.84253 0.36954
 N77 N 0.82776 0.82876 0.37739
 C78 C 0.84157 0.82337 0.36969
 H79 H 0.87299 0.81254 0.34873
 H80 H 0.87288 0.84928 0.31155
 H81 H 0.84895 0.87359 0.31154
 H82 H 0.81172 0.87368 0.34821
 H83 H 0.81170 0.84965 0.37281
 H84 H 0.84840 0.81239 0.37285
 C85 C 0.64218 0.66691 0.34579
 C86 C 0.65428 0.66699 0.35800
 C87 C 0.66635 0.65501 0.35810
 C88 C 0.66650 0.64279 0.34597
 C89 C 0.65454 0.64269 0.33395
 C90 C 0.64229 0.65484 0.33386
 C91 C 0.62938 0.67740 0.34231
 N92 N 0.62169 0.67201 0.32854
 C93 C 0.62953 0.65818 0.32332
 C94 C 0.65807 0.62985 0.32354
 N95 N 0.67189 0.62215 0.32891
 C96 C 0.67710 0.63002 0.34266
 C97 C 0.67677 0.65852 0.37089
 N98 N 0.67136 0.67237 0.37854
 C99 C 0.65758 0.67760 0.37070
 H100 H 0.62597 0.68819 0.34931
 H101 H 0.62652 0.65130 0.31238
 H102 H 0.65131 0.62667 0.31257
 H103 H 0.68783 0.62675 0.34977
 H104 H 0.68779 0.65175 0.37403
 H105 H 0.65045 0.68837 0.37394
 C106 C 0.64257 0.16668 -0.15519
 C107 C 0.65476 0.16675 -0.14306
 C108 C 0.66681 0.15475 -0.14306
 C109 C 0.66686 0.14256 -0.15522
 C110 C 0.65490 0.14254 -0.16715
 C111 C 0.64265 0.15471 -0.16713
 C112 C 0.62972 0.17713 -0.15855
 N113 N 0.62183 0.17190 -0.17237
 C114 C 0.62985 0.15806 -0.17758
 C115 C 0.65834 0.12974 -0.17761
 N116 N 0.67221 0.12181 -0.17242
 C117 C 0.67737 0.12975 -0.15859
 C118 C 0.67728 0.15818 -0.13029
 N119 N 0.67191 0.17199 -0.12254
 C120 C 0.65811 0.17728 -0.13030
 H121 H 0.62685 0.18798 -0.15146
 H122 H 0.62687 0.15075 -0.18822
 H123 H 0.65106 0.12670 -0.18823
 H124 H 0.68821 0.12694 -0.15150
 H125 H 0.68828 0.15136 -0.12720
 H126 H 0.65099 0.18803 -0.12697
 C127 C 0.14265 0.66649 -0.15463
 C128 C 0.15482 0.66642 -0.14248
 C129 C 0.16685 0.65441 -0.14258
 C130 C 0.16684 0.64227 -0.15480
 C131 C 0.15487 0.64236 -0.16672
 C132 C 0.14265 0.65456 -0.16662
 C133 C 0.12983 0.67700 -0.15793
 N134 N 0.12188 0.67184 -0.17175
 C135 C 0.12983 0.65799 -0.17702
 C136 C 0.15825 0.62960 -0.17725
 N137 N 0.17211 0.62160 -0.17212
 C138 C 0.17731 0.62946 -0.15826
 C139 C 0.17735 0.65773 -0.12981
 N140 N 0.17200 0.67148 -0.12194
 C141 C 0.15819 0.67685 -0.12965
 H142 H 0.12679 0.68763 -0.15059
 H143 H 0.12701 0.65093 -0.18786
 H144 H 0.15095 0.62664 -0.18788
 H145 H 0.18815 0.62657 -0.15120
 H146 H 0.18812 0.65063 -0.12654
 H147 H 0.15134 0.68782 -0.12648
 C148 C 0.14196 0.16702 0.34471
 C149 C 0.15407 0.16706 0.35692
 C150 C 0.16611 0.15506 0.35699
 C151 C 0.16622 0.14287 0.34481
 C152 C 0.15430 0.14284 0.33285
 C153 C 0.14206 0.15502 0.33279
 C154 C 0.12915 0.17748 0.34127
 N155 N 0.12128 0.17223 0.32744
 C156 C 0.12929 0.15835 0.32230
 C157 C 0.15775 0.12999 0.32244
 N158 N 0.17160 0.12207 0.32769
 C159 C 0.17675 0.13006 0.34149
 C160 C 0.17651 0.15847 0.36982
 N161 N 0.17110 0.17229 0.37754
 C162 C 0.15735 0.17760 0.36969
 H163 H 0.12607 0.18816 0.34852
 H164 H 0.12653 0.15120 0.31151
 H165 H 0.15068 0.12712 0.31162
 H166 H 0.18737 0.12704 0.34882
 H167 H 0.18749 0.15166 0.37297
 H168 H 0.15022 0.18835 0.37298
 C169 C 0.64200 0.33347 0.65498
 C170 C 0.65415 0.33335 0.64281
 C171 C 0.66621 0.34531 0.64274
 C172 C 0.66631 0.35753 0.65488
 C173 C 0.65436 0.35761 0.66690
 C174 C 0.64212 0.34550 0.66695
 C175 C 0.62918 0.32303 0.65844
 N176 N 0.62151 0.32841 0.67225
 C177 C 0.62938 0.34218 0.67750
 C178 C 0.65785 0.37038 0.67737
 N179 N 0.67165 0.37809 0.67202
 C180 C 0.67688 0.37029 0.65823
 C181 C 0.67663 0.34182 0.62993
 N182 N 0.67122 0.32802 0.62222
 C183 C 0.65745 0.32279 0.63005
 H184 H 0.62601 0.31204 0.65167
 H185 H 0.62615 0.34928 0.68825
 H186 H 0.65084 0.37376 0.68812
 H187 H 0.68784 0.37332 0.65138
 H188 H 0.68762 0.34859 0.62678
 H189 H 0.65032 0.31207 0.62676
 C190 C 0.64228 0.83300 1.15513
 C191 C 0.65444 0.83306 1.14295
 C192 C 0.66640 0.84510 1.14297
 C193 C 0.66638 0.85724 1.15519
 C194 C 0.65441 0.85713 1.16719
 C195 C 0.64225 0.84492 1.16712
 C196 C 0.62953 0.82246 1.15846
 N197 N 0.62158 0.82760 1.17230
 C198 C 0.62947 0.84147 1.17755
 C199 C 0.65776 0.86991 1.17772
 N200 N 0.67148 0.87779 1.17241
 C201 C 0.67681 0.87009 1.15860
 C202 C 0.67685 0.84179 1.13014
 N203 N 0.67155 0.82800 1.12233
 C204 C 0.65782 0.82261 1.13013
 H205 H 0.62655 0.81182 1.15113
 H206 H 0.62662 0.84854 1.18839
 H207 H 0.65068 0.87320 1.18846
 H208 H 0.68774 0.87327 1.15177
 H209 H 0.68778 0.84867 1.12704
 H210 H 0.65077 0.81186 1.12676
 C211 C 0.14225 0.33281 1.15524
 C212 C 0.15446 0.33271 1.14312
 C213 C 0.16653 0.34465 1.14314
 C214 C 0.16657 0.35683 1.15531
 C215 C 0.15455 0.35688 1.16727
 C216 C 0.14230 0.34476 1.16721
 C217 C 0.12938 0.32241 1.15856
 N218 N 0.12147 0.32765 1.17238
 C219 C 0.12948 0.34144 1.17763
 C220 C 0.15797 0.36965 1.17777
 N221 N 0.17178 0.37740 1.17249
 C222 C 0.17710 0.36961 1.15873
 C223 C 0.17700 0.34120 1.13036
 N224 N 0.17160 0.32743 1.12258
 C225 C 0.15779 0.32219 1.13034
 H226 H 0.12652 0.31159 1.15144
 H227 H 0.12649 0.34874 1.18828
 H228 H 0.15089 0.37303 1.18848
 H229 H 0.18808 0.37267 1.15193
 H230 H 0.18800 0.34797 1.12727
 H231 H 0.15065 0.31149 1.12699
 C232 C 0.14300 0.83291 0.65563
 C233 C 0.15513 0.83292 0.64344
 C234 C 0.16710 0.84496 0.64342
 C235 C 0.16708 0.85718 0.65556
 C236 C 0.15514 0.85718 0.66752
 C237 C 0.14302 0.84494 0.66759
 C238 C 0.13023 0.82240 0.65907
 N239 N 0.12250 0.82774 0.67286
 C240 C 0.13029 0.84155 0.67812
 C241 C 0.15851 0.87001 0.67796
 N242 N 0.17234 0.87795 0.67274
 C243 C 0.17754 0.86999 0.65892
 C244 C 0.17757 0.84159 0.63063
 N245 N 0.17228 0.82778 0.62286
 C246 C 0.15852 0.82243 0.63064
 H247 H 0.12712 0.81140 0.65228
 H248 H 0.12697 0.84866 0.68884
 H249 H 0.15144 0.87282 0.68879
 H250 H 0.18817 0.87303 0.65162
 H251 H 0.18828 0.84870 0.62728
 H252 H 0.15172 0.81143 0.62755
 C253 C 0.35753 0.66656 0.65510
 C254 C 0.34532 0.66650 0.64298
 C255 C 0.33340 0.65441 0.64301
 C256 C 0.33353 0.64219 0.65511
 C257 C 0.34554 0.64226 0.66707
 C258 C 0.35762 0.65453 0.66706
 C259 C 0.37027 0.67713 0.65848
 N260 N 0.37808 0.67184 0.67223
 C261 C 0.37039 0.65799 0.67752
 C262 C 0.34224 0.62946 0.67755
 N263 N 0.32851 0.62158 0.67227
 C264 C 0.32313 0.62932 0.65852
 C265 C 0.32285 0.65773 0.63028
 N266 N 0.32805 0.67156 0.62250
 C267 C 0.34182 0.67697 0.63021
 H268 H 0.37330 0.68814 0.65168
 H269 H 0.37378 0.65092 0.68823
 H270 H 0.34933 0.62618 0.68828
 H271 H 0.31215 0.62617 0.65174
 H272 H 0.31216 0.65058 0.62697
 H273 H 0.34857 0.68799 0.62710
 C274 C 0.35691 0.16661 1.15563
 C275 C 0.34474 0.16658 1.14348
 C276 C 0.33275 0.15457 1.14353
 C277 C 0.33278 0.14240 1.15570
 C278 C 0.34472 0.14244 1.16764
 C279 C 0.35689 0.15463 1.16763
 C280 C 0.36974 0.17708 1.15897
 N281 N 0.37750 0.17179 1.17274
 C282 C 0.36969 0.15803 1.17809
 C283 C 0.34134 0.12965 1.17811
 N284 N 0.32751 0.12169 1.17292
 C285 C 0.32232 0.12959 1.15908
 C286 C 0.32225 0.15791 1.13076
 N287 N 0.32757 0.17167 1.12293
 C288 C 0.34135 0.17702 1.13066
 H289 H 0.37286 0.18803 1.15212
 H290 H 0.37302 0.15097 1.18882
 H291 H 0.34861 0.12667 1.18876
 H292 H 0.31151 0.12675 1.15197
 H293 H 0.31153 0.15081 1.12744
 H294 H 0.34818 0.18798 1.12751
 C295 C 0.85682 0.66766 1.15512
 C296 C 0.84461 0.66750 1.14301
 C297 C 0.83263 0.65548 1.14318
 C298 C 0.83272 0.64340 1.15543
 C299 C 0.84476 0.64355 1.16737
 C300 C 0.85691 0.65576 1.16719
 C301 C 0.86961 0.67821 1.15833
 N302 N 0.87749 0.67301 1.17207
 C303 C 0.86977 0.65925 1.17755
 C304 C 0.84147 0.63081 1.17795
 N305 N 0.82772 0.62290 1.17274
 C306 C 0.82232 0.63055 1.15894
 C307 C 0.82211 0.65871 1.13040
 N308 N 0.82740 0.67241 1.12245
 C309 C 0.84119 0.67784 1.13012
 H310 H 0.87290 0.68889 1.15115
 H311 H 0.87295 0.65251 1.18852
 H312 H 0.84861 0.62757 1.18865
 H313 H 0.81136 0.62734 1.15218
 H314 H 0.81138 0.65157 1.12716
 H315 H 0.84799 0.68879 1.12689
 C316 C 0.85766 0.16763 0.65529
 C317 C 0.84544 0.16767 0.64318
 C318 C 0.83342 0.15569 0.64320
 C319 C 0.83344 0.14351 0.65536
 C320 C 0.84548 0.14351 0.66728
 C321 C 0.85769 0.15565 0.66721
 C322 C 0.87049 0.17808 0.65862
 N323 N 0.87848 0.17284 0.67238
 C324 C 0.87054 0.15899 0.67759
 C325 C 0.84213 0.13071 0.67777
 N326 N 0.82834 0.12292 0.67252
 C327 C 0.82297 0.13069 0.65877
 C328 C 0.82293 0.15908 0.63043
 N329 N 0.82827 0.17287 0.62266
 C330 C 0.84206 0.17818 0.63041
 H331 H 0.87351 0.18874 0.65133
 H332 H 0.87339 0.15187 0.68839
 H333 H 0.84926 0.12736 0.68844
 H334 H 0.81199 0.12758 0.65200
 H335 H 0.81196 0.15226 0.62735
 H336 H 0.84915 0.18890 0.62705
 C337 C 0.33285 0.35659 0.65428
 C338 C 0.33300 0.34441 0.64210
 C339 C 0.34505 0.33241 0.64217
 C340 C 0.35714 0.33243 0.65439
 C341 C 0.35703 0.34446 0.66636
 C342 C 0.34479 0.35662 0.66631
 C343 C 0.32228 0.36937 0.65761
 N344 N 0.32749 0.37720 0.67138
 C345 C 0.34129 0.36945 0.67675
 C346 C 0.36979 0.34109 0.67689
 N347 N 0.37764 0.32728 0.67163
 C348 C 0.36994 0.32194 0.65784
 C349 C 0.34177 0.32188 0.62940
 N350 N 0.32802 0.32717 0.62155
 C351 C 0.32260 0.34099 0.62927
 H352 H 0.31156 0.37269 0.65049
 H353 H 0.34805 0.37258 0.68772
 H354 H 0.37280 0.34794 0.68785
 H355 H 0.37336 0.31118 0.65080
 H356 H 0.34890 0.31112 0.62612
 H357 H 0.31162 0.34779 0.62612
 C358 C 0.33304 0.85738 0.15451
 C359 C 0.33299 0.84529 0.14225
 C360 C 0.34501 0.83326 0.14207
 C361 C 0.35728 0.83317 0.15413
 C362 C 0.35735 0.84510 0.16619
 C363 C 0.34512 0.85727 0.16640
 C364 C 0.32255 0.87018 0.15808
 N365 N 0.32794 0.87784 0.17187
 C366 C 0.34177 0.86999 0.17702
 C367 C 0.37021 0.84160 0.17655
 N368 N 0.37794 0.82781 0.17109
 C369 C 0.37008 0.82260 0.15735
 C370 C 0.34155 0.82282 0.12928
 N371 N 0.32770 0.82820 0.12165
 C372 C 0.32242 0.84197 0.12953
 H373 H 0.31154 0.87335 0.15136
 H374 H 0.34891 0.87324 0.18771
 H375 H 0.37335 0.84834 0.18754
 H376 H 0.37336 0.81187 0.15020
 H377 H 0.34862 0.81208 0.12583
 H378 H 0.31141 0.84883 0.12657
 C379 C 0.83310 0.35776 0.15378
 C380 C 0.83313 0.34564 0.14154
 C381 C 0.84510 0.33357 0.14151
 C382 C 0.85719 0.33341 0.15373
 C383 C 0.85718 0.34537 0.16578
 C384 C 0.84504 0.35764 0.16580
 C385 C 0.82259 0.37057 0.15721
 N386 N 0.82786 0.37827 0.17103
 C387 C 0.84162 0.37041 0.17634
 C388 C 0.86992 0.34184 0.17628
 N389 N 0.87766 0.32801 0.17092
 C390 C 0.86992 0.32280 0.15711
 C391 C 0.84174 0.32315 0.12866
 N392 N 0.82798 0.32857 0.12090
 C393 C 0.82266 0.34236 0.12874
 H394 H 0.81188 0.37400 0.15013
 H395 H 0.84839 0.37341 0.18734
 H396 H 0.87300 0.34860 0.18728
 H397 H 0.87326 0.31207 0.15000
 H398 H 0.84853 0.31213 0.12555
 H399 H 0.81193 0.34949 0.12543
 C400 C 0.83414 0.85757 0.65403
 C401 C 0.83428 0.84543 0.64182
 C402 C 0.84628 0.83339 0.64189
 C403 C 0.85834 0.83333 0.65415
 C404 C 0.85824 0.84532 0.66616
 C405 C 0.84604 0.85753 0.66610
 C406 C 0.82359 0.87037 0.65738
 N407 N 0.82878 0.87813 0.67120
 C408 C 0.84254 0.87033 0.67658
 C409 C 0.87094 0.84186 0.67673
 N410 N 0.87874 0.82803 0.67145
 C411 C 0.87108 0.82276 0.65762
 C412 C 0.84300 0.82289 0.62910
 N413 N 0.82927 0.82825 0.62124
 C414 C 0.82389 0.84207 0.62897
 H415 H 0.81290 0.87375 0.65025
 H416 H 0.84927 0.87340 0.68759
 H417 H 0.87393 0.84865 0.68773
 H418 H 0.87447 0.81201 0.65056
 H419 H 0.85008 0.81210 0.62582
 H420 H 0.81293 0.84891 0.62582
 C421 C 0.66752 0.64323 0.65434
 C422 C 0.66753 0.65537 0.64216
 C423 C 0.65552 0.66740 0.64209
 C424 C 0.64334 0.66748 0.65424
 C425 C 0.64332 0.65549 0.66624
 C426 C 0.65550 0.64327 0.66628
 C427 C 0.67804 0.63043 0.65776
 N428 N 0.67271 0.62266 0.67151
 C429 C 0.65889 0.63047 0.67677
 C430 C 0.63047 0.65893 0.67665
 N431 N 0.62270 0.67274 0.67130
 C432 C 0.63053 0.67802 0.65757
 C433 C 0.65894 0.67786 0.62930
 N434 N 0.67276 0.67249 0.62160
 C435 C 0.67807 0.65871 0.62942
 H436 H 0.68880 0.62706 0.65073
 H437 H 0.65204 0.62739 0.68771
 H438 H 0.62734 0.65212 0.68759
 H439 H 0.62720 0.68876 0.65048
 H440 H 0.65212 0.68885 0.62616
 H441 H 0.68883 0.65160 0.62615
 C442 C 0.66682 0.14303 0.15358
 C443 C 0.66675 0.15515 0.14136
 C444 C 0.65472 0.16716 0.14134
 C445 C 0.64256 0.16721 0.15350
 C446 C 0.64260 0.15524 0.16551
 C447 C 0.65482 0.14306 0.16555
 C448 C 0.67737 0.13025 0.15700
 N449 N 0.67208 0.12250 0.17077
 C450 C 0.65825 0.13029 0.17606
 C451 C 0.62979 0.15869 0.17598
 N452 N 0.62200 0.17249 0.17063
 C453 C 0.62977 0.17775 0.15686
 C454 C 0.65809 0.17764 0.12856
 N455 N 0.67188 0.17230 0.12080
 C456 C 0.67723 0.15851 0.12858
 H457 H 0.68811 0.12689 0.14995
 H458 H 0.65144 0.12722 0.18701
 H459 H 0.62672 0.15191 0.18695
 H460 H 0.62641 0.18849 0.14978
 H461 H 0.65100 0.18840 0.12522
 H462 H 0.68823 0.15168 0.12551
 C463 C 0.16673 0.64265 0.15437
 C464 C 0.16663 0.65493 0.14232
 C465 C 0.15460 0.66694 0.14247
 C466 C 0.14250 0.66686 0.15471
 C467 C 0.14262 0.65477 0.16660
 C468 C 0.15480 0.64255 0.16641
 C469 C 0.17730 0.62984 0.15761
 N470 N 0.17209 0.62195 0.17133
 C471 C 0.15830 0.62967 0.17676
 C472 C 0.12989 0.65809 0.17718
 N473 N 0.12202 0.67192 0.17202
 C474 C 0.12968 0.67733 0.15824
 C475 C 0.15789 0.67752 0.12975
 N476 N 0.17166 0.67225 0.12189
 C477 C 0.17705 0.65841 0.12954
 H478 H 0.18803 0.62657 0.15048
 H479 H 0.15156 0.62650 0.18774
 H480 H 0.12664 0.65093 0.18786
 H481 H 0.12650 0.68835 0.15152
 H482 H 0.15102 0.68853 0.12677
 H483 H 0.18780 0.65135 0.12610
 C484 C 0.16704 0.14206 0.65450
 C485 C 0.16701 0.15413 0.64225
 C486 C 0.15500 0.16618 0.64216
 C487 C 0.14288 0.16635 0.65436
 C488 C 0.14289 0.15443 0.66643
 C489 C 0.15506 0.14220 0.66650
 C490 C 0.17755 0.12927 0.65798
 N491 N 0.17225 0.12161 0.67180
 C492 C 0.15846 0.12947 0.67706
 C493 C 0.13011 0.15796 0.67689
 N494 N 0.12234 0.17175 0.67149
 C495 C 0.13011 0.17693 0.65769
 C496 C 0.15837 0.17655 0.62930
 N497 N 0.17216 0.17113 0.62157
 C498 C 0.17749 0.15739 0.62945
 H499 H 0.18828 0.12584 0.65094
 H500 H 0.15166 0.12648 0.68805
 H501 H 0.12703 0.15122 0.68789
 H502 H 0.12676 0.18764 0.65056
 H503 H 0.15155 0.18754 0.62613
 H504 H 0.18824 0.15026 0.62617
 C505 C 0.33284 0.64294 0.34521
 C506 C 0.33299 0.65506 0.35744
 C507 C 0.34501 0.66705 0.35738
 C508 C 0.35708 0.66705 0.34512
 C509 C 0.35696 0.65508 0.33310
 C510 C 0.34475 0.64293 0.33314
 C511 C 0.32230 0.63017 0.34188
 N512 N 0.32750 0.62238 0.32807
 C513 C 0.34126 0.63014 0.32268
 C514 C 0.36970 0.65846 0.32256
 N515 N 0.37754 0.67222 0.32786
 C516 C 0.36986 0.67753 0.34169
 C517 C 0.34176 0.67752 0.37022
 N518 N 0.32805 0.67221 0.37810
 C519 C 0.32264 0.65844 0.37033
 H520 H 0.31162 0.62682 0.34902
 H521 H 0.34801 0.62703 0.31168
 H522 H 0.37271 0.65164 0.31157
 H523 H 0.37329 0.68825 0.34877
 H524 H 0.34888 0.68825 0.37352
 H525 H 0.31168 0.65163 0.37349
 C526 C 0.33342 0.14234 0.84589
 C527 C 0.33352 0.15455 0.85803
 C528 C 0.34556 0.16652 0.85796
 C529 C 0.35771 0.16642 0.84578
 C530 C 0.35760 0.15439 0.83381
 C531 C 0.34537 0.14227 0.83386
 C532 C 0.32287 0.12957 0.84253
 N533 N 0.32809 0.12177 0.82874
 C534 C 0.34188 0.12950 0.82338
 C535 C 0.37033 0.15772 0.82325
 N536 N 0.37819 0.17149 0.82850
 C537 C 0.37053 0.17686 0.84232
 C538 C 0.34227 0.17707 0.87072
 N539 N 0.32850 0.17182 0.87856
 C540 C 0.32310 0.15802 0.87085
 H541 H 0.31191 0.12652 0.84938
 H542 H 0.34889 0.12613 0.81263
 H543 H 0.37356 0.15062 0.81250
 H544 H 0.37370 0.18785 0.84909
 H545 H 0.34939 0.18779 0.87402
 H546 H 0.31213 0.15124 0.87400
 C547 C 0.83318 0.64265 0.84564
 C548 C 0.83321 0.65488 0.85776
 C549 C 0.84519 0.66690 0.85769
 C550 C 0.85732 0.66687 0.84549
 C551 C 0.85727 0.65482 0.83353
 C552 C 0.84513 0.64260 0.83363
 C553 C 0.82266 0.62985 0.84232
 N554 N 0.82793 0.62201 0.82856
 C555 C 0.84171 0.62976 0.82320
 C556 C 0.87001 0.65818 0.82299
 N557 N 0.87781 0.67198 0.82824
 C558 C 0.87010 0.67735 0.84203
 C559 C 0.84183 0.67744 0.87046
 N560 N 0.82806 0.67214 0.87826
 C561 C 0.82274 0.65832 0.87053
 H562 H 0.81193 0.62656 0.84940
 H563 H 0.84848 0.62664 0.81222
 H564 H 0.87331 0.65105 0.81228
 H565 H 0.87324 0.68835 0.84881
 H566 H 0.84865 0.68843 0.87351
 H567 H 0.81201 0.65125 0.87390
 C568 C 0.83280 0.14302 0.34537
 C569 C 0.83298 0.15513 0.35761
 C570 C 0.84503 0.16708 0.35757
 C571 C 0.85709 0.16709 0.34531
 C572 C 0.85695 0.15513 0.33327
 C573 C 0.84471 0.14301 0.33330
 C574 C 0.82223 0.13028 0.34200
 N575 N 0.82742 0.12251 0.32817
 C576 C 0.84119 0.13025 0.32280
 C577 C 0.86968 0.15852 0.32272
 N578 N 0.87753 0.17227 0.32804
 C579 C 0.86988 0.17756 0.34188
 C580 C 0.84179 0.17756 0.37040
 N581 N 0.82805 0.17228 0.37827
 C582 C 0.82262 0.15852 0.37050
 H583 H 0.81154 0.12695 0.34913
 H584 H 0.84793 0.12715 0.31179
 H585 H 0.87266 0.15172 0.31171
 H586 H 0.87331 0.18827 0.34897
 H587 H 0.84892 0.18828 0.37372
 H588 H 0.81164 0.15174 0.37364
 C589 C 0.66742 0.35671 0.34497
 C590 C 0.66723 0.34456 0.35715
 C591 C 0.65519 0.33260 0.35703
 C592 C 0.64314 0.33264 0.34477
 C593 C 0.64329 0.34464 0.33279
 C594 C 0.65552 0.35677 0.33289
 C595 C 0.67797 0.36949 0.34170
 N596 N 0.67278 0.37733 0.32793
 C597 C 0.65902 0.36959 0.32249
 C598 C 0.63054 0.34131 0.32225
 N599 N 0.62266 0.32755 0.32750
 C600 C 0.63033 0.32220 0.34130
 C601 C 0.65839 0.32210 0.36985
 N602 N 0.67209 0.32738 0.37777
 C603 C 0.67755 0.34115 0.37005
 H604 H 0.68864 0.37281 0.34887
 H605 H 0.65228 0.37275 0.31151
 H606 H 0.62754 0.34817 0.31129
 H607 H 0.62688 0.31148 0.34835
 H608 H 0.65124 0.31139 0.37312
 H609 H 0.68851 0.34794 0.37326
 C610 C 0.66735 0.85730 0.84477
 C611 C 0.66727 0.84516 0.85697
 C612 C 0.65522 0.83319 0.85698
 C613 C 0.64306 0.83322 0.84482
 C614 C 0.64315 0.84517 0.83279
 C615 C 0.65538 0.85729 0.83277
 C616 C 0.67788 0.87007 0.84135
 N617 N 0.67262 0.87779 0.82754
 C618 C 0.65884 0.87002 0.82224
 C619 C 0.63039 0.84179 0.82230
 N620 N 0.62252 0.82807 0.82764
 C621 C 0.63021 0.82277 0.84145
 C622 C 0.65853 0.82274 0.86980
 N623 N 0.67230 0.82805 0.87760
 C624 C 0.67769 0.84180 0.86980
 H625 H 0.68883 0.87317 0.84818
 H626 H 0.65180 0.87333 0.81149
 H627 H 0.62713 0.84884 0.81154
 H628 H 0.62704 0.81183 0.84829
 H629 H 0.65140 0.81204 0.87317
 H630 H 0.68866 0.84861 0.87290
 C631 C 0.16712 0.35718 0.84586
 C632 C 0.16713 0.34495 0.85796
 C633 C 0.15518 0.33290 0.85790
 C634 C 0.14306 0.33288 0.84569
 C635 C 0.14307 0.34492 0.83374
 C636 C 0.15517 0.35717 0.83385
 C637 C 0.17760 0.37000 0.84253
 N638 N 0.17232 0.37780 0.82878
 C639 C 0.15856 0.37001 0.82342
 C640 C 0.13035 0.34151 0.82320
 N641 N 0.12259 0.32768 0.82843
 C642 C 0.13031 0.32235 0.84222
 C643 C 0.15857 0.32238 0.87066
 N644 N 0.17232 0.32774 0.87846
 C645 C 0.17760 0.34157 0.87074
 H646 H 0.18832 0.37333 0.84962
 H647 H 0.15179 0.37309 0.81244
 H648 H 0.12704 0.34861 0.81249
 H649 H 0.12721 0.31135 0.84899
 H650 H 0.15179 0.31137 0.87371
 H651 H 0.18830 0.34868 0.87411
 C652 C 0.16695 0.85699 0.34573
 C653 C 0.16696 0.84488 0.35794
 C654 C 0.15498 0.83285 0.35799
 C655 C 0.14284 0.83275 0.34580
 C656 C 0.14282 0.84471 0.33378
 C657 C 0.15496 0.85693 0.33374
 C658 C 0.17742 0.86980 0.34231
 N659 N 0.17210 0.87753 0.32853
 C660 C 0.15833 0.86971 0.32324
 C661 C 0.13002 0.84126 0.32334
 N662 N 0.12227 0.82747 0.32870
 C663 C 0.13007 0.82221 0.34247
 C664 C 0.15837 0.82243 0.37083
 N665 N 0.17214 0.82781 0.37856
 C666 C 0.17745 0.84157 0.37072
 H667 H 0.18815 0.87318 0.34936
 H668 H 0.15150 0.87277 0.31228
 H669 H 0.12690 0.84806 0.31238
 H670 H 0.12674 0.81150 0.34958
 H671 H 0.15157 0.81145 0.37397
 H672 H 0.18817 0.84868 0.37402
 O673 O 0.27031 0.98381 0.24843
 O674 O 0.24771 1.01588 0.27104
 O675 O 0.24770 0.98381 0.27095
 O676 O 0.27033 1.01587 0.24853
 O677 O 0.25115 1.01596 0.22937
 O678 O 0.22851 0.98388 0.25179
 O679 O 0.22852 1.01596 0.25188
 O680 O 0.25112 0.98389 0.22926
 Cu681 Cu 0.26095 0.99983 0.26167
 Cu682 Cu 0.23789 0.99993 0.23864
 C683 C 0.26451 0.97841 0.23505
 C684 C 0.23432 1.02136 0.26525
 C685 C 0.23432 0.97840 0.26513
 C686 C 0.26454 1.02135 0.23518
 O687 O 0.25150 0.51566 0.72905
 O688 O 0.22893 0.48369 0.75168
 O689 O 0.22898 0.51575 0.75167
 O690 O 0.25144 0.48359 0.72905
 O691 O 0.27072 0.48353 0.74812
 O692 O 0.24826 0.51570 0.77074
 O693 O 0.24821 0.48364 0.77074
 O694 O 0.27078 0.51560 0.74813
 Cu695 Cu 0.23827 0.49968 0.73844
 Cu696 Cu 0.26144 0.49961 0.76136
 C697 C 0.26493 0.52105 0.73480
 C698 C 0.23479 0.47824 0.76501
 C699 C 0.23485 0.52118 0.76501
 C700 C 0.26484 0.47810 0.73478
 O701 O 0.74809 -0.01569 0.22879
 O702 O 0.77059 0.01646 0.25129
 O703 O 0.77068 -0.01560 0.25132
 O704 O 0.74803 0.01639 0.22872
 O705 O 0.72880 0.01644 0.24785
 O706 O 0.75146 -0.01557 0.27046
 O707 O 0.75136 0.01649 0.27042
 O708 O 0.72887 -0.01564 0.24793
 Cu709 Cu 0.76129 0.00039 0.23810
 Cu710 Cu 0.73818 0.00043 0.26109
 C711 C 0.73470 -0.02112 0.23459
 C712 C 0.76475 0.02193 0.26464
 C713 C 0.76487 -0.02102 0.26468
 C714 C 0.73462 0.02185 0.23449
 O715 O 0.74878 0.48417 0.72868
 O716 O 0.77124 0.51617 0.75141
 O717 O 0.77132 0.48410 0.75126
 O718 O 0.74866 0.51624 0.72886
 O719 O 0.72942 0.51614 0.74798
 O720 O 0.75208 0.48400 0.77038
 O721 O 0.75200 0.51606 0.77053
 O722 O 0.72954 0.48407 0.74780
 Cu723 Cu 0.76194 0.50018 0.73812
 Cu724 Cu 0.73882 0.50006 0.76110
 C725 C 0.73539 0.47869 0.73443
 C726 C 0.76539 0.52154 0.76478
 C727 C 0.76550 0.47860 0.76459
 C728 C 0.73524 0.52165 0.73466
 O729 O 0.24857 0.48375 0.22901
 O730 O 0.27099 0.51593 0.25153
 O731 O 0.27105 0.48386 0.25166
 O732 O 0.24851 0.51582 0.22889
 O733 O 0.22920 0.51591 0.24794
 O734 O 0.25174 0.48395 0.27071
 O735 O 0.25168 0.51602 0.27058
 O736 O 0.22927 0.48384 0.24807
 Cu737 Cu 0.26173 0.49983 0.23835
 Cu738 Cu 0.23853 0.49994 0.26125
 C739 C 0.23516 0.47833 0.23476
 C740 C 0.26509 0.52144 0.26484
 C741 C 0.26517 0.47848 0.26501
 C742 C 0.23507 0.52129 0.23459
 O743 O 0.74898 1.01616 0.77080
 O744 O 0.77170 0.98421 0.74812
 O745 O 0.77149 1.01629 0.74818
 O746 O 0.74920 0.98409 0.77076
 O747 O 0.72993 0.98402 0.75169
 O748 O 0.75222 1.01622 0.72911
 O749 O 0.75243 0.98415 0.72905
 O750 O 0.72971 1.01608 0.75173
 Cu751 Cu 0.76229 1.00019 0.76139
 Cu752 Cu 0.73913 1.00011 0.73847
 C753 C 0.73553 1.02154 0.76507
 C754 C 0.76588 0.97876 0.73478
 C755 C 0.76560 1.02172 0.73486
 C756 C 0.73582 0.97859 0.76501
 O757 O 0.77107 0.48419 0.24841
 O758 O 0.74842 0.51609 0.27120
 O759 O 0.74856 0.48402 0.27102
 O760 O 0.77093 0.51626 0.24859
 O761 O 0.75166 0.51632 0.22951
 O762 O 0.72928 0.48407 0.25195
 O763 O 0.72914 0.51614 0.25213
 O764 O 0.75180 0.48424 0.22933
 Cu765 Cu 0.76169 0.50014 0.26173
 Cu766 Cu 0.73852 0.50020 0.23881
 C767 C 0.76523 0.47880 0.23504
 C768 C 0.73498 0.52154 0.26549
 C769 C 0.73517 0.47857 0.26525
 C770 C 0.76505 0.52176 0.23529
 O771 O 0.24811 -0.01636 0.73016
 O772 O 0.27048 0.01566 0.75293
 O773 O 0.27057 -0.01640 0.75282
 O774 O 0.24806 0.01570 0.73025
 O775 O 0.22872 0.01567 0.74927
 O776 O 0.25125 -0.01645 0.77185
 O777 O 0.25116 0.01562 0.77196
 O778 O 0.22878 -0.01640 0.74919
 Cu779 Cu 0.26126 -0.00034 0.73962
 Cu780 Cu 0.23803 -0.00040 0.76249
 C781 C 0.23468 -0.02181 0.73585
 C782 C 0.26458 0.02108 0.76626
 C783 C 0.26469 -0.02188 0.76612
 C784 C 0.23461 0.02113 0.73596
 O785 O 0.24824 0.27049 0.98457
 O786 O 0.27095 0.24803 1.01655
 O787 O 0.27097 0.24795 0.98462
 O788 O 0.24825 0.27060 1.01650
 O789 O 0.22915 0.25130 1.01654
 O790 O 0.25186 0.22865 0.98465
 O791 O 0.25185 0.22873 1.01658
 O792 O 0.22913 0.25119 0.98461
 Cu793 Cu 0.26153 0.26121 1.00055
 Cu794 Cu 0.23857 0.23802 1.00060
 C795 C 0.23488 0.26460 0.97916
 C796 C 0.26520 0.23462 1.02200
 C797 C 0.26523 0.23450 0.97921
 C798 C 0.23489 0.26474 1.02193
 O799 O 0.24802 0.77044 0.48464
 O800 O 0.27077 0.74789 0.51651
 O801 O 0.27072 0.74788 0.48458
 O802 O 0.24803 0.77041 0.51656
 O803 O 0.22893 0.75111 0.51657
 O804 O 0.25162 0.72857 0.48458
 O805 O 0.25168 0.72859 0.51651
 O806 O 0.22892 0.75114 0.48463
 Cu807 Cu 0.26131 0.76110 0.50057
 Cu808 Cu 0.23836 0.73790 0.50057
 C809 C 0.23465 0.76457 0.47922
 C810 C 0.26504 0.73446 0.52193
 C811 C 0.26497 0.73445 0.47914
 C812 C 0.23468 0.76454 0.52200
 O813 O 0.25067 0.77170 0.01567
 O814 O 0.22825 0.74885 -0.01622
 O815 O 0.22803 0.74914 0.01571
 O816 O 0.25090 0.77139 -0.01626
 O817 O 0.27006 0.75208 -0.01597
 O818 O 0.24721 0.72984 0.01599
 O819 O 0.24742 0.72955 -0.01593
 O820 O 0.26983 0.75239 0.01594
 Cu821 Cu 0.23753 0.76222 -0.00030
 Cu822 Cu 0.26056 0.73902 0.00004
 C823 C 0.26401 0.76587 0.02122
 C824 C 0.23407 0.73537 -0.02149
 C825 C 0.23379 0.73576 0.02128
 C826 C 0.26432 0.76547 -0.02154
 O827 O 0.27035 0.25137 0.48364
 O828 O 0.24779 0.22868 0.51550
 O829 O 0.24773 0.22881 0.48357
 O830 O 0.27041 0.25124 0.51556
 O831 O 0.25123 0.27054 0.51569
 O832 O 0.22855 0.24810 0.48371
 O833 O 0.22861 0.24797 0.51564
 O834 O 0.25118 0.27067 0.48377
 Cu835 Cu 0.26100 0.23808 0.49955
 Cu836 Cu 0.23795 0.26127 0.49972
 C837 C 0.26455 0.26483 0.47830
 C838 C 0.23442 0.23452 0.52098
 C839 C 0.23433 0.23469 0.47821
 C840 C 0.26463 0.26465 0.52105
 O841 O 0.74870 0.77183 0.98418
 O842 O 0.77114 0.74913 1.01620
 O843 O 0.77135 0.74920 0.98427
 O844 O 0.74855 0.77182 1.01612
 O845 O 0.72937 0.75260 1.01599
 O846 O 0.75216 0.72999 0.98414
 O847 O 0.75195 0.72992 1.01606
 O848 O 0.72952 0.75260 0.98406
 Cu849 Cu 0.76187 0.76244 1.00021
 Cu850 Cu 0.73881 0.73934 1.00005
 C851 C 0.73534 0.76601 0.97868
 C852 C 0.76530 0.73572 1.02157
 C853 C 0.76557 0.73580 0.97879
 C854 C 0.73514 0.76600 1.02147
 O855 O 0.72883 0.25172 0.51632
 O856 O 0.75157 0.22903 0.48449
 O857 O 0.75151 0.22914 0.51642
 O858 O 0.72891 0.25163 0.48439
 O859 O 0.74803 0.27090 0.48438
 O860 O 0.77064 0.24842 0.51641
 O861 O 0.77070 0.24830 0.48448
 O862 O 0.74795 0.27100 0.51631
 Cu863 Cu 0.73827 0.23844 0.50041
 Cu864 Cu 0.76126 0.26160 0.50039
 C865 C 0.73457 0.26517 0.52172
 C866 C 0.76495 0.23486 0.47908
 C867 C 0.76487 0.23501 0.52186
 C868 C 0.73468 0.26503 0.47894
 O869 O 0.75230 0.27071 0.01503
 O870 O 0.72973 0.24805 -0.01687
 O871 O 0.72975 0.24808 0.01505
 O872 O 0.75229 0.27067 -0.01689
 O873 O 0.77153 0.25143 -0.01690
 O874 O 0.74897 0.22884 0.01505
 O875 O 0.74896 0.22881 -0.01688
 O876 O 0.77154 0.25147 0.01503
 Cu877 Cu 0.73908 0.26132 -0.00092
 Cu878 Cu 0.76219 0.23819 -0.00092
 C879 C 0.76570 0.26490 0.02044
 C880 C 0.73556 0.23463 -0.02229
 C881 C 0.73557 0.23467 0.02047
 C882 C 0.76569 0.26484 -0.02232
 O883 O 0.77118 0.75229 0.48353
 O884 O 0.74869 0.72982 0.51560
 O885 O 0.74853 0.72975 0.48368
 O886 O 0.77135 0.75234 0.51545
 O887 O 0.75220 0.77166 0.51555
 O888 O 0.72938 0.74907 0.48377
 O889 O 0.72954 0.74914 0.51569
 O890 O 0.75203 0.77161 0.48362
 Cu891 Cu 0.76187 0.73910 0.49956
 Cu892 Cu 0.73885 0.76232 0.49966
 C893 C 0.76538 0.76572 0.47813
 C894 C 0.73534 0.73571 0.52108
 C895 C 0.73512 0.73562 0.47834
 C896 C 0.76560 0.76579 0.52090
 O897 O 1.01547 0.27074 0.24779
 O898 O 0.98345 0.24810 0.27024
 O899 O 1.01547 0.24810 0.27030
 O900 O 0.98346 0.27074 0.24773
 O901 O 0.98354 0.25150 0.22857
 O902 O 1.01554 0.22886 0.25113
 O903 O 0.98353 0.22886 0.25108
 O904 O 1.01555 0.25150 0.22863
 Cu905 Cu 0.99946 0.26136 0.26095
 Cu906 Cu 0.99955 0.23824 0.23792
 C907 C 1.02095 0.26492 0.23444
 C908 C 0.97806 0.23468 0.26443
 C909 C 1.02094 0.23468 0.26451
 C910 C 0.97807 0.26492 0.23436
 O911 O 0.51583 0.27084 0.74858
 O912 O 0.48391 0.24828 0.77125
 O913 O 0.51592 0.24825 0.77115
 O914 O 0.48381 0.27084 0.74867
 O915 O 0.48380 0.25155 0.72956
 O916 O 0.51590 0.22897 0.75203
 O917 O 0.48389 0.22900 0.75214
 O918 O 0.51581 0.25155 0.72947
 Cu919 Cu 0.49987 0.26150 0.76184
 Cu920 Cu 0.49985 0.23832 0.73887
 C921 C 0.52124 0.26498 0.73522
 C922 C 0.47849 0.23485 0.76550
 C923 C 0.52136 0.23482 0.76537
 C924 C 0.47836 0.26499 0.73534
 O925 O 0.01648 0.25117 0.77125
 O926 O -0.01557 0.22887 0.74848
 O927 O 0.01645 0.22874 0.74850
 O928 O -0.01554 0.25132 0.77121
 O929 O -0.01547 0.27072 0.75224
 O930 O 0.01651 0.24814 0.72953
 O931 O -0.01550 0.24827 0.72951
 O932 O 0.01655 0.27057 0.75228
 Cu933 Cu 0.00045 0.23807 0.76177
 Cu934 Cu 0.00053 0.26138 0.73898
 C935 C 0.02195 0.26461 0.76558
 C936 C -0.02097 0.23483 0.73517
 C937 C 0.02191 0.23465 0.73520
 C938 C -0.02094 0.26481 0.76553
 O939 O 0.51593 0.24876 0.22840
 O940 O 0.48404 0.27144 0.25115
 O941 O 0.51606 0.27142 0.25092
 O942 O 0.48390 0.24879 0.22861
 O943 O 0.48406 0.22957 0.24775
 O944 O 0.51620 0.25219 0.27006
 O945 O 0.48419 0.25221 0.27029
 O946 O 0.51607 0.22954 0.24754
 Cu947 Cu 0.49997 0.26204 0.23783
 Cu948 Cu 0.50015 0.23894 0.26084
 C949 C 0.52141 0.23534 0.23415
 C950 C 0.47870 0.26563 0.26454
 C951 C 0.52159 0.26560 0.26423
 C952 C 0.47852 0.23539 0.23444
 O953 O 1.01628 0.77068 0.74883
 O954 O 0.98413 0.74836 0.77142
 O955 O 1.01615 0.74818 0.77147
 O956 O 0.98426 0.77089 0.74880
 O957 O 0.98422 0.75156 0.72973
 O958 O 1.01611 0.72885 0.75240
 O959 O 0.98409 0.72903 0.75235
 O960 O 1.01623 0.75135 0.72976
 Cu961 Cu 1.00021 0.76148 0.76205
 Cu962 Cu 1.00016 0.73825 0.73914
 C963 C 1.02171 0.76476 0.73550
 C964 C 0.97866 0.73495 0.76567
 C965 C 1.02154 0.73471 0.76574
 C966 C 0.97883 0.76503 0.73546
 O967 O 0.48389 0.75122 0.22855
 O968 O 0.51582 0.72857 0.25121
 O969 O 0.48380 0.72860 0.25109
 O970 O 0.51590 0.75121 0.22869
 O971 O 0.51579 0.77046 0.24785
 O972 O 0.48370 0.74786 0.27023
 O973 O 0.51571 0.74782 0.27036
 O974 O 0.48378 0.77047 0.24770
 Cu975 Cu 0.49986 0.73796 0.23795
 Cu976 Cu 0.49973 0.76109 0.26097
 C977 C 0.47841 0.76465 0.23432
 C978 C 0.52119 0.73440 0.26459
 C979 C 0.47830 0.73444 0.26442
 C980 C 0.52129 0.76463 0.23451
 O981 O -0.01598 0.77140 0.25193
 O982 O 0.01599 0.74874 0.22928
 O983 O -0.01603 0.74890 0.22925
 O984 O 0.01604 0.77122 0.25197
 O985 O 0.01594 0.75187 0.27099
 O986 O -0.01612 0.72955 0.24827
 O987 O 0.01589 0.72939 0.24830
 O988 O -0.01608 0.75205 0.27094
 Cu989 Cu 0.00002 0.76202 0.23869
 Cu990 Cu -0.00010 0.73876 0.26154
 C991 C -0.02146 0.76553 0.26523
 C992 C 0.02137 0.73526 0.23499
 C993 C -0.02152 0.73548 0.23495
 C994 C 0.02144 0.76529 0.26529
 O995 O 0.48422 0.77099 0.75183
 O996 O 0.51625 0.74855 0.72905
 O997 O 0.48423 0.74859 0.72905
 O998 O 0.51623 0.77096 0.75181
 O999 O 0.51627 0.75155 0.77076
 O1000 O 0.48426 0.72917 0.74800
 O1001 O 0.51628 0.72913 0.74800
 O1002 O 0.48424 0.75157 0.77078
 Cu1003 Cu 0.50023 0.76173 0.73852
 Cu1004 Cu 0.50026 0.73840 0.76130
 C1005 C 0.47879 0.76504 0.76513
 C1006 C 0.52171 0.73508 0.73470
 C1007 C 0.47881 0.73513 0.73471
 C1008 C 0.52169 0.76501 0.76510
 C1009 C 0.40730 0.29531 0.31392
 C1010 C 0.41826 0.30457 0.30450
 C1011 C 0.41608 0.32159 0.30311
 C1012 C 0.40294 0.32932 0.31105
 C1013 C 0.39180 0.32011 0.32050
 C1014 C 0.39417 0.30301 0.32187
 C1015 C 0.43156 0.29653 0.29606
 C1016 C 0.44258 0.28966 0.28893
 C1017 C 0.45532 0.28144 0.28051
 C1018 C 0.46607 0.27429 0.27326
 H1019 H 0.40883 0.28212 0.31501
 H1020 H 0.42450 0.32888 0.29587
 H1021 H 0.40159 0.34251 0.30991
 H1022 H 0.38571 0.29553 0.32883
 C1023 C 0.41080 0.81799 0.79752
 C1024 C 0.41820 0.80425 0.80463
 C1025 C 0.41243 0.79835 0.81961
 C1026 C 0.39922 0.80607 0.82743
 C1027 C 0.39138 0.81994 0.82038
 C1028 C 0.39759 0.82578 0.80526
 C1029 C 0.43152 0.79601 0.79640
 C1030 C 0.44255 0.78904 0.78940
 C1031 C 0.45533 0.78078 0.78107
 C1032 C 0.46611 0.77364 0.77385
 H1033 H 0.41517 0.82265 0.78588
 H1034 H 0.41811 0.78771 0.82526
 H1035 H 0.39540 0.80101 0.83901
 H1036 H 0.39229 0.83622 0.79905
 C1037 C -0.08731 0.29870 0.81968
 C1038 C -0.08147 0.30445 0.80467
 C1039 C -0.08878 0.31817 0.79743
 C1040 C -0.10198 0.32607 0.80506
 C1041 C -0.10828 0.32037 0.82020
 C1042 C -0.10052 0.30652 0.82738
 C1043 C -0.06815 0.29610 0.79656
 C1044 C -0.05713 0.28903 0.78963
 C1045 C -0.04437 0.28068 0.78138
 C1046 C -0.03360 0.27347 0.77421
 H1047 H -0.08170 0.28808 0.82543
 H1048 H -0.08435 0.32272 0.78577
 H1049 H -0.10723 0.33647 0.79875
 H1050 H -0.10441 0.30157 0.83899
 C1051 C -0.08923 0.79794 0.31836
 C1052 C -0.08198 0.80500 0.30457
 C1053 C -0.08790 0.81997 0.29861
 C1054 C -0.10110 0.82781 0.30630
 C1055 C -0.10879 0.82081 0.32021
 C1056 C -0.10243 0.80571 0.32612
 C1057 C -0.06867 0.79674 0.29636
 C1058 C -0.05765 0.78973 0.28938
 C1059 C -0.04488 0.78141 0.28108
 C1060 C -0.03411 0.77421 0.27390
 H1061 H -0.08474 0.78631 0.32308
 H1062 H -0.08233 0.82558 0.28794
 H1063 H -0.10505 0.83938 0.30117
 H1064 H -0.10761 0.79955 0.33660
 C1065 C 0.59253 0.70470 0.31393
 C1066 C 0.58160 0.69544 0.30447
 C1067 C 0.58378 0.67842 0.30308
 C1068 C 0.59689 0.67069 0.31105
 C1069 C 0.60800 0.67991 0.32053
 C1070 C 0.60563 0.69701 0.32191
 C1071 C 0.56831 0.70347 0.29603
 C1072 C 0.55731 0.71035 0.28891
 C1073 C 0.54457 0.71858 0.28051
 C1074 C 0.53383 0.72574 0.27328
 H1075 H 0.59100 0.71790 0.31503
 H1076 H 0.57538 0.67112 0.29581
 H1077 H 0.59825 0.65750 0.30990
 H1078 H 0.61407 0.70450 0.32889
 C1079 C 0.58932 0.18155 0.79723
 C1080 C 0.58185 0.19519 0.80450
 C1081 C 0.58750 0.20090 0.81959
 C1082 C 0.60068 0.19312 0.82737
 C1083 C 0.60860 0.17937 0.82017
 C1084 C 0.60250 0.17370 0.80494
 C1085 C 0.56856 0.20351 0.79632
 C1086 C 0.55756 0.21056 0.78937
 C1087 C 0.54481 0.21892 0.78113
 C1088 C 0.53404 0.22614 0.77399
 H1089 H 0.58504 0.17704 0.78550
 H1090 H 0.58175 0.21145 0.82536
 H1091 H 0.60440 0.19802 0.83907
 H1092 H 0.60790 0.16338 0.79861
 C1093 C 1.08931 0.70240 0.81879
 C1094 C 1.08190 0.69519 0.80516
 C1095 C 1.08762 0.68006 0.79939
 C1096 C 1.10080 0.67221 0.80710
 C1097 C 1.10866 0.67937 0.82084
 C1098 C 1.10249 0.69463 0.82658
 C1099 C 1.06862 0.70345 0.79692
 C1100 C 1.05763 0.71047 0.78992
 C1101 C 1.04491 0.71880 0.78161
 C1102 C 1.03417 0.72601 0.77442
 H1103 H 1.08498 0.71416 0.82336
 H1104 H 1.08193 0.67433 0.78884
 H1105 H 1.10458 0.66050 0.80215
 H1106 H 1.10783 0.70093 0.83690
 C1107 C 1.08727 0.18031 0.29825
 C1108 C 1.08136 0.19536 0.30404
 C1109 C 1.08856 0.20257 0.31778
 C1110 C 1.10172 0.19486 0.32566
 C1111 C 1.10808 0.17968 0.31992
 C1112 C 1.10043 0.17253 0.30606
 C1113 C 1.06808 0.20355 0.29572
 C1114 C 1.05708 0.21052 0.28868
 C1115 C 1.04435 0.21882 0.28035
 C1116 C 1.03359 0.22600 0.27316
 H1117 H 1.08174 0.17459 0.28761
 H1118 H 1.08408 0.21425 0.32237
 H1119 H 1.10688 0.20115 0.33609
 H1120 H 1.10438 0.16089 0.30107
 C1121 C 0.58349 0.30320 0.67903
 C1122 C 0.58150 0.30466 0.69599
 C1123 C 0.59258 0.31409 0.70509
 C1124 C 0.60566 0.32198 0.69730
 C1125 C 0.60784 0.32053 0.68026
 C1126 C 0.59657 0.31108 0.67120
 C1127 C 0.56825 0.29628 0.70412
 C1128 C 0.55728 0.28921 0.71107
 C1129 C 0.54458 0.28085 0.71935
 C1130 C 0.53385 0.27364 0.72653
 H1131 H 0.57496 0.29595 0.67186
 H1132 H 0.59120 0.31524 0.71824
 H1133 H 0.61422 0.32894 0.70466
 H1134 H 0.59777 0.30989 0.65806
 C1135 C 0.58752 0.81920 0.20133
 C1136 C 0.58172 0.80418 0.19541
 C1137 C 0.58903 0.79709 0.18164
 C1138 C 0.60217 0.80489 0.17386
 C1139 C 0.60840 0.82005 0.17973
 C1140 C 0.60066 0.82707 0.19362
 C1141 C 0.56846 0.79591 0.20362
 C1142 C 0.55746 0.78887 0.21057
 C1143 C 0.54472 0.78052 0.21880
 C1144 C 0.53396 0.77331 0.22592
 H1145 H 0.58190 0.82483 0.21199
 H1146 H 0.58464 0.78543 0.17696
 H1147 H 0.60741 0.79870 0.16341
 H1148 H 0.60451 0.83869 0.19870
 C1149 C 1.08884 0.31811 0.20268
 C1150 C 1.08143 0.30447 0.19542
 C1151 C 1.08716 0.29871 0.18035
 C1152 C 1.10036 0.30646 0.17261
 C1153 C 1.10822 0.32021 0.17980
 C1154 C 1.10204 0.32593 0.19500
 C1155 C 1.06813 0.29619 0.20357
 C1156 C 1.05712 0.28916 0.21050
 C1157 C 1.04437 0.28081 0.21872
 C1158 C 1.03361 0.27360 0.22585
 H1159 H 1.08451 0.32266 0.21438
 H1160 H 1.08146 0.28816 0.17459
 H1161 H 1.10414 0.30151 0.16094
 H1162 H 1.10738 0.33627 0.20133
 C1163 C 1.08447 0.80250 0.67951
 C1164 C 1.08238 0.80401 0.69645
 C1165 C 1.09342 0.81345 0.70559
 C1166 C 1.10655 0.82131 0.69784
 C1167 C 1.10882 0.81983 0.68082
 C1168 C 1.09760 0.81035 0.67173
 C1169 C 1.06905 0.79570 0.70453
 C1170 C 1.05801 0.78870 0.71144
 C1171 C 1.04522 0.78044 0.71969
 C1172 C 1.03442 0.77332 0.72685
 H1173 H 1.07597 0.79524 0.67231
 H1174 H 1.09196 0.81464 0.71872
 H1175 H 1.11507 0.82830 0.70523
 H1176 H 1.09887 0.80912 0.65860
 C1177 C 0.40723 0.68628 0.70484
 C1178 C 0.41820 0.69576 0.69566
 C1179 C 0.41603 0.69725 0.67873
 C1180 C 0.40290 0.68935 0.67100
 C1181 C 0.39176 0.67982 0.68013
 C1182 C 0.39411 0.67836 0.69714
 C1183 C 0.43154 0.70410 0.70369
 C1184 C 0.44258 0.71113 0.71059
 C1185 C 0.45535 0.71942 0.71883
 C1186 C 0.46614 0.72655 0.72601
 H1187 H 0.40875 0.68509 0.71796
 H1188 H 0.42447 0.70455 0.67150
 H1189 H 0.40157 0.69056 0.65788
 H1190 H 0.38565 0.67134 0.70457
 C1191 C 0.41561 0.19700 0.17906
 C1192 C 0.41778 0.19561 0.19600
 C1193 C 0.40677 0.18623 0.20524
 C1194 C 0.39361 0.17831 0.19760
 C1195 C 0.39125 0.17970 0.18058
 C1196 C 0.40245 0.18910 0.17139
 C1197 C 0.43112 0.20401 0.20397
 C1198 C 0.44218 0.21110 0.21076
 C1199 C 0.45499 0.21949 0.21887
 C1200 C 0.46580 0.22671 0.22591
 H1201 H 0.42408 0.20421 0.17178
 H1202 H 0.40829 0.18513 0.21838
 H1203 H 0.38511 0.17139 0.20508
 H1204 H 0.40111 0.19024 0.15826
 C1205 C -0.09323 0.70584 0.18598
 C1206 C -0.08219 0.69668 0.19542
 C1207 C -0.08432 0.67968 0.19701
 C1208 C -0.09750 0.67188 0.18927
 C1209 C -0.10873 0.68099 0.17981
 C1210 C -0.10641 0.69807 0.17821
 C1211 C -0.06885 0.70478 0.20370
 C1212 C -0.05781 0.71167 0.21072
 C1213 C -0.04501 0.71985 0.21904
 C1214 C -0.03422 0.72693 0.22625
 H1215 H -0.09174 0.71902 0.18472
 H1216 H -0.07583 0.67246 0.20428
 H1217 H -0.09880 0.65870 0.19057
 H1218 H -0.11494 0.70549 0.17124
 C1219 C -0.08720 0.18079 0.70122
 C1220 C -0.08149 0.19592 0.69553
 C1221 C -0.08892 0.20323 0.68196
 C1222 C -0.10212 0.19554 0.67416
 C1223 C -0.10828 0.18028 0.67981
 C1224 C -0.10040 0.17303 0.69349
 C1225 C -0.06819 0.20408 0.70381
 C1226 C -0.05718 0.21100 0.71084
 C1227 C -0.04442 0.21920 0.71920
 C1228 C -0.03364 0.22629 0.72644
 H1229 H -0.08149 0.17498 0.71172
 H1230 H -0.08460 0.21498 0.67746
 H1231 H -0.10748 0.20190 0.66388
 H1232 H -0.10417 0.16131 0.69838
 C1233 C 0.32120 0.41598 0.30347
 C1234 C 0.30420 0.41806 0.30490
 C1235 C 0.29504 0.40701 0.31432
 C1236 C 0.30282 0.39388 0.32221
 C1237 C 0.31990 0.39161 0.32077
 C1238 C 0.32901 0.40286 0.31134
 C1239 C 0.29608 0.43134 0.29651
 C1240 C 0.28917 0.44235 0.28941
 C1241 C 0.28094 0.45509 0.28100
 C1242 C 0.27380 0.46584 0.27374
 H1243 H 0.32841 0.42448 0.29623
 H1244 H 0.28186 0.40845 0.31545
 H1245 H 0.29541 0.38534 0.32916
 H1246 H 0.34218 0.40159 0.31016
 C1247 C 0.31803 -0.08980 0.79791
 C1248 C 0.30431 -0.08248 0.80515
 C1249 C 0.29857 -0.08832 0.82016
 C1250 C 0.30640 -0.10152 0.82787
 C1251 C 0.32023 -0.10928 0.82070
 C1252 C 0.32593 -0.10300 0.80555
 C1253 C 0.29597 -0.06917 0.79703
 C1254 C 0.28890 -0.05814 0.79012
 C1255 C 0.28054 -0.04536 0.78190
 C1256 C 0.27334 -0.03457 0.77476
 H1257 H 0.32258 -0.08538 0.78625
 H1258 H 0.28795 -0.08270 0.82591
 H1259 H 0.30145 -0.10540 0.83949
 H1260 H 0.33633 -0.10826 0.79925
 C1261 C 0.81873 0.41064 0.79669
 C1262 C 0.80507 0.41812 0.80386
 C1263 C 0.79931 0.41249 0.81895
 C1264 C 0.80706 0.39933 0.82679
 C1265 C 0.82084 0.39140 0.81968
 C1266 C 0.82656 0.39748 0.80446
 C1267 C 0.79679 0.43140 0.79562
 C1268 C 0.78976 0.44240 0.78862
 C1269 C 0.78141 0.45515 0.78034
 C1270 C 0.77420 0.46592 0.77319
 H1271 H 0.82329 0.41490 0.78497
 H1272 H 0.78874 0.41825 0.82465
 H1273 H 0.80212 0.39562 0.83847
 H1274 H 0.83691 0.39208 0.79820
 C1275 C 0.81816 -0.08891 0.29680
 C1276 C 0.80452 -0.08142 0.30401
 C1277 C 0.79879 -0.08704 0.31911
 C1278 C 0.80657 -0.10020 0.32694
 C1279 C 0.82032 -0.10814 0.31979
 C1280 C 0.82600 -0.10207 0.30456
 C1281 C 0.79621 -0.06814 0.29578
 C1282 C 0.78916 -0.05715 0.28880
 C1283 C 0.78079 -0.04442 0.28051
 C1284 C 0.77356 -0.03367 0.27334
 H1285 H 0.82268 -0.08465 0.28506
 H1286 H 0.78824 -0.08128 0.32484
 H1287 H 0.80165 -0.10390 0.33863
 H1288 H 0.83633 -0.10748 0.29827
 C1289 C 0.31416 0.59248 0.70497
 C1290 C 0.30474 0.58143 0.69582
 C1291 C 0.30331 0.58349 0.67887
 C1292 C 0.31120 0.59660 0.67110
 C1293 C 0.32064 0.60785 0.68021
 C1294 C 0.32207 0.60560 0.69724
 C1295 C 0.29633 0.56815 0.70389
 C1296 C 0.28922 0.55716 0.71077
 C1297 C 0.28083 0.54443 0.71899
 C1298 C 0.27360 0.53369 0.72614
 H1299 H 0.31529 0.59105 0.71811
 H1300 H 0.29607 0.57498 0.67166
 H1301 H 0.31003 0.59787 0.65797
 H1302 H 0.32902 0.61414 0.70464
 C1303 C 0.29836 1.08760 0.18110
 C1304 C 0.30419 1.08178 0.19609
 C1305 C 0.31795 1.08906 0.20323
 C1306 C 0.32581 1.10222 0.19552
 C1307 C 0.32002 1.10848 0.18039
 C1308 C 0.30615 1.10075 0.17331
 C1309 C 0.29588 1.06851 0.20428
 C1310 C 0.28882 1.05752 0.21123
 C1311 C 0.28046 1.04478 0.21946
 C1312 C 0.27323 1.03402 0.22659
 H1313 H 0.28772 1.08200 0.17543
 H1314 H 0.32256 1.08465 0.21488
 H1315 H 0.33624 1.10744 0.20174
 H1316 H 0.30113 1.10462 0.16171
 C1317 C 0.80275 0.58467 0.17946
 C1318 C 0.80427 0.58262 0.19641
 C1319 C 0.81365 0.59375 0.20552
 C1320 C 0.82144 0.60691 0.19775
 C1321 C 0.81993 0.60915 0.18072
 C1322 C 0.81052 0.59784 0.17166
 C1323 C 0.79601 0.56926 0.20450
 C1324 C 0.78902 0.55819 0.21139
 C1325 C 0.78076 0.54536 0.21959
 C1326 C 0.77363 0.53452 0.22670
 H1327 H 0.79553 0.57612 0.17228
 H1328 H 0.81485 0.59232 0.21865
 H1329 H 0.82838 0.61550 0.20512
 H1330 H 0.80929 0.59909 0.15853
 C1331 C 0.81417 1.09364 0.70514
 C1332 C 0.80473 1.08261 0.69598
 C1333 C 0.80320 1.08476 0.67905
 C1334 C 0.81101 1.09795 0.67131
 C1335 C 0.82048 1.10917 0.68043
 C1336 C 0.82200 1.10682 0.69744
 C1337 C 0.79646 1.06923 0.70402
 C1338 C 0.78948 1.05814 0.71089
 C1339 C 0.78124 1.04530 0.71910
 C1340 C 0.77414 1.03447 0.72623
 H1341 H 0.81538 1.09213 0.71827
 H1342 H 0.79594 1.07628 0.67183
 H1343 H 0.80976 1.09928 0.65819
 H1344 H 0.82898 1.11534 0.70485
 C1345 C 0.70484 0.59304 0.31472
 C1346 C 0.69573 0.58196 0.30528
 C1347 C 0.67873 0.58401 0.30379
 C1348 C 0.67087 0.59714 0.31162
 C1349 C 0.67993 0.60842 0.32108
 C1350 C 0.69701 0.60617 0.32257
 C1351 C 0.70389 0.56866 0.29693
 C1352 C 0.71085 0.55766 0.28985
 C1353 C 0.71913 0.54492 0.28147
 C1354 C 0.72631 0.53417 0.27422
 H1355 H 0.71802 0.59161 0.31590
 H1356 H 0.67156 0.57548 0.29653
 H1357 H 0.65770 0.59839 0.31040
 H1358 H 0.70438 0.61474 0.32954
 C1359 C 0.68198 1.08922 0.79721
 C1360 C 0.69570 1.08187 0.80441
 C1361 C 0.70142 1.08764 0.81946
 C1362 C 0.69358 1.10080 0.82725
 C1363 C 0.67975 1.10860 0.82011
 C1364 C 0.67407 1.10238 0.80493
 C1365 C 0.70406 1.06861 0.79621
 C1366 C 0.71116 1.05762 0.78924
 C1367 C 0.71956 1.04491 0.78095
 C1368 C 0.72681 1.03417 0.77376
 H1369 H 0.67745 1.08485 0.78552
 H1370 H 0.71203 1.08200 0.82518
 H1371 H 0.69851 1.10462 0.83890
 H1372 H 0.66368 1.10767 0.79864
 C1373 C 0.20123 0.58741 0.81952
 C1374 C 0.19541 0.58169 0.80449
 C1375 C 0.18168 0.58908 0.79737
 C1376 C 0.17383 0.60224 0.80515
 C1377 C 0.17959 0.60840 0.82033
 C1378 C 0.19345 0.60057 0.82738
 C1379 C 0.20370 0.56841 0.79623
 C1380 C 0.21072 0.55740 0.78921
 C1381 C 0.21904 0.54465 0.78089
 C1382 C 0.22622 0.53387 0.77369
 H1383 H 0.21185 0.58173 0.82518
 H1384 H 0.17708 0.58475 0.78568
 H1385 H 0.16342 0.60756 0.79894
 H1386 H 0.19844 0.60435 0.83902
 C1387 C 0.17984 1.08771 0.29883
 C1388 C 0.19493 1.08199 0.30461
 C1389 C 0.20213 1.08944 0.31823
 C1390 C 0.19436 1.10265 0.32600
 C1391 C 0.17913 1.10881 0.32027
 C1392 C 0.17200 1.10093 0.30654
 C1393 C 0.20318 1.06866 0.29638
 C1394 C 0.21018 1.05763 0.28939
 C1395 C 0.21848 1.04484 0.28109
 C1396 C 0.22566 1.03405 0.27391
 H1397 H 0.17412 1.08199 0.28830
 H1398 H 0.21386 1.08511 0.32279
 H1399 H 0.20065 1.10802 0.33632
 H1400 H 0.16031 1.10470 0.30159
 C1401 C 0.68629 0.40719 0.70463
 C1402 C 0.69573 0.41818 0.69543
 C1403 C 0.69712 0.41605 0.67848
 C1404 C 0.68915 0.40294 0.67076
 C1405 C 0.67968 0.39177 0.67991
 C1406 C 0.67831 0.39409 0.69694
 C1407 C 0.70415 0.43149 0.70345
 C1408 C 0.71124 0.44251 0.71033
 C1409 C 0.71959 0.45526 0.71856
 C1410 C 0.72677 0.46603 0.72573
 H1411 H 0.68519 0.40869 0.71777
 H1412 H 0.70438 0.42450 0.67123
 H1413 H 0.69029 0.40163 0.65762
 H1414 H 0.67133 0.38560 0.70439
 C1415 C 0.68580 -0.09298 0.20506
 C1416 C 0.69515 -0.08190 0.19587
 C1417 C 0.69655 -0.08399 0.17892
 C1418 C 0.68870 -0.09717 0.17119
 C1419 C 0.67933 -0.10844 0.18032
 C1420 C 0.67793 -0.10615 0.19736
 C1421 C 0.70349 -0.06855 0.20390
 C1422 C 0.71055 -0.05748 0.21074
 C1423 C 0.71889 -0.04466 0.21890
 C1424 C 0.72608 -0.03384 0.22599
 H1425 H 0.68469 -0.09152 0.21820
 H1426 H 0.70373 -0.07547 0.17168
 H1427 H 0.68985 -0.09845 0.15805
 H1428 H 0.67103 -0.11471 0.20479
 C1429 C 0.19711 0.41543 0.17901
 C1430 C 0.19564 0.41759 0.19595
 C1431 C 0.18617 0.40660 0.20512
 C1432 C 0.17826 0.39346 0.19742
 C1433 C 0.17972 0.39111 0.18040
 C1434 C 0.18922 0.40229 0.17128
 C1435 C 0.20400 0.43093 0.20398
 C1436 C 0.21106 0.44199 0.21084
 C1437 C 0.21939 0.45479 0.21903
 C1438 C 0.22656 0.46561 0.22614
 H1439 H 0.20439 0.42389 0.17179
 H1440 H 0.18500 0.40811 0.21826
 H1441 H 0.17126 0.38497 0.20484
 H1442 H 0.19042 0.40096 0.15815
 C1443 C 0.20279 -0.08954 0.68242
 C1444 C 0.19554 -0.08213 0.69605
 C1445 C 0.18042 -0.08782 0.70174
 C1446 C 0.17261 -0.10097 0.69395
 C1447 C 0.17981 -0.10883 0.68021
 C1448 C 0.19506 -0.10269 0.67456
 C1449 C 0.20375 -0.06888 0.70437
 C1450 C 0.21071 -0.05790 0.71145
 C1451 C 0.21896 -0.04519 0.71985
 C1452 C 0.22609 -0.03445 0.72711
 H1453 H 0.21454 -0.08523 0.67792
 H1454 H 0.17465 -0.08212 0.71228
 H1455 H 0.16090 -0.10473 0.69884
 H1456 H 0.20139 -0.10804 0.66424
 C1457 C 0.30287 0.32108 0.41617
 C1458 C 0.30437 0.30405 0.41821
 C1459 C 0.31388 0.29489 0.40722
 C1460 C 0.32181 0.30269 0.39419
 C1461 C 0.32031 0.31979 0.39195
 C1462 C 0.31078 0.32890 0.40313
 C1463 C 0.29595 0.29592 0.43142
 C1464 C 0.28884 0.28898 0.44235
 C1465 C 0.28045 0.28071 0.45502
 C1466 C 0.27322 0.27352 0.46572
 H1467 H 0.29556 0.32830 0.42463
 H1468 H 0.31507 0.28169 0.40865
 H1469 H 0.32883 0.29527 0.38569
 H1470 H 0.30955 0.34210 0.40189
 C1471 C 0.30302 0.82093 -0.08407
 C1472 C 0.30445 0.80391 -0.08193
 C1473 C 0.31390 0.79465 -0.09289
 C1474 C 0.32181 0.80233 -0.10601
 C1475 C 0.32035 0.81942 -0.10835
 C1476 C 0.31091 0.82864 -0.09718
 C1477 C 0.29602 0.79590 -0.06866
 C1478 C 0.28886 0.78910 -0.05767
 C1479 C 0.28040 0.78100 -0.04494
 C1480 C 0.27309 0.77398 -0.03419
 H1481 H 0.29576 0.82823 -0.07563
 H1482 H 0.31503 0.78145 -0.09139
 H1483 H 0.32877 0.79484 -0.11448
 H1484 H 0.30972 0.84183 -0.09850
 C1485 C 0.82162 0.30311 -0.08473
 C1486 C 0.80461 0.30455 -0.08267
 C1487 C 0.79542 0.31396 -0.09370
 C1488 C 0.80316 0.32185 -0.10679
 C1489 C 0.82024 0.32040 -0.10905
 C1490 C 0.82939 0.31097 -0.09783
 C1491 C 0.79654 0.29617 -0.06941
 C1492 C 0.78966 0.28909 -0.05842
 C1493 C 0.78145 0.28072 -0.04569
 C1494 C 0.77432 0.27350 -0.03495
 H1495 H 0.82886 0.29587 -0.07625
 H1496 H 0.78224 0.31510 -0.09226
 H1497 H 0.79572 0.32880 -0.11532
 H1498 H 0.84256 0.30979 -0.09909
 C1499 C 0.79503 0.81457 0.40653
 C1500 C 0.80424 0.80516 0.41756
 C1501 C 0.82123 0.80368 0.41546
 C1502 C 0.82899 0.81150 0.40232
 C1503 C 0.81983 0.82093 0.39111
 C1504 C 0.80276 0.82241 0.39340
 C1505 C 0.79618 0.79685 0.43087
 C1506 C 0.78930 0.78982 0.44190
 C1507 C 0.78110 0.78151 0.45467
 C1508 C 0.77398 0.77434 0.46545
 H1509 H 0.78186 0.81574 0.40800
 H1510 H 0.82848 0.79645 0.42394
 H1511 H 0.84215 0.81029 0.40103
 H1512 H 0.79531 0.82935 0.38488
 C1513 C 0.68540 0.29516 0.59308
 C1514 C 0.69485 0.30432 0.58207
 C1515 C 0.69635 0.32133 0.58419
 C1516 C 0.68852 0.32915 0.59731
 C1517 C 0.67906 0.32003 0.60850
 C1518 C 0.67755 0.30294 0.60620
 C1519 C 0.70319 0.29620 0.56879
 C1520 C 0.71026 0.28927 0.55779
 C1521 C 0.71863 0.28101 0.54507
 C1522 C 0.72586 0.27384 0.53433
 H1523 H 0.68421 0.28197 0.59160
 H1524 H 0.70362 0.32855 0.57572
 H1525 H 0.68976 0.34233 0.59861
 H1526 H 0.67057 0.29552 0.61470
 C1527 C 0.69672 0.82174 1.08425
 C1528 C 0.69533 0.80473 1.08203
 C1529 C 0.68596 0.79543 1.09298
 C1530 C 0.67806 0.80307 1.10615
 C1531 C 0.67945 0.82016 1.10857
 C1532 C 0.68884 0.82941 1.09743
 C1533 C 0.70371 0.79674 1.06869
 C1534 C 0.71080 0.78991 1.05764
 C1535 C 0.71919 0.78174 1.04487
 C1536 C 0.72643 0.77463 1.03411
 H1537 H 0.70393 0.82906 1.07583
 H1538 H 0.68486 0.78224 1.09142
 H1539 H 0.67114 0.79555 1.11461
 H1540 H 0.68998 0.84259 1.09881
 C1541 C 0.18579 0.29464 1.09336
 C1542 C 0.19527 0.30382 1.08240
 C1543 C 0.19681 0.32082 1.08458
 C1544 C 0.18897 0.32860 1.09772
 C1545 C 0.17947 0.31947 1.10887
 C1546 C 0.17793 0.30239 1.10650
 C1547 C 0.20360 0.29572 1.06909
 C1548 C 0.21065 0.28881 1.05808
 C1549 C 0.21899 0.28056 1.04532
 C1550 C 0.22620 0.27340 1.03457
 H1551 H 0.18457 0.28145 1.09184
 H1552 H 0.20411 0.32805 1.07616
 H1553 H 0.19024 0.34178 1.09907
 H1554 H 0.17092 0.29496 1.11496
 C1555 C 0.17874 0.80254 0.58482
 C1556 C 0.19572 0.80404 0.58262
 C1557 C 0.20493 0.81349 0.59359
 C1558 C 0.19724 0.82137 0.60674
 C1559 C 0.18018 0.81988 0.60913
 C1560 C 0.17102 0.81040 0.59798
 C1561 C 0.20375 0.79570 0.56928
 C1562 C 0.21063 0.78865 0.55824
 C1563 C 0.21885 0.78034 0.54545
 C1564 C 0.22601 0.77316 0.53467
 H1565 H 0.17148 0.79527 0.57638
 H1566 H 0.21809 0.81468 0.59205
 H1567 H 0.20469 0.82836 0.61521
 H1568 H 0.15786 0.80918 0.59934
 C1569 C 0.29520 0.68567 0.59340
 C1570 C 0.30433 0.69515 0.58239
 C1571 C 0.32130 0.69674 0.58451
 C1572 C 0.32912 0.68893 0.59763
 C1573 C 0.32005 0.67942 0.60882
 C1574 C 0.30299 0.67785 0.60651
 C1575 C 0.29620 0.70343 0.56908
 C1576 C 0.28924 0.71042 0.55806
 C1577 C 0.28095 0.71869 0.54531
 C1578 C 0.27375 0.72584 0.53456
 H1579 H 0.28204 0.68442 0.59191
 H1580 H 0.32849 0.70403 0.57604
 H1581 H 0.34228 0.69022 0.59893
 H1582 H 0.29561 0.67084 0.61501
 C1583 C 0.29491 0.18590 1.09368
 C1584 C 0.30414 0.19528 1.08266
 C1585 C 0.32112 0.19674 1.08482
 C1586 C 0.32884 0.18892 1.09799
 C1587 C 0.31967 0.17952 1.10919
 C1588 C 0.30261 0.17807 1.10684
 C1589 C 0.29610 0.20358 1.06931
 C1590 C 0.28923 0.21059 1.05826
 C1591 C 0.28102 0.21888 1.04546
 C1592 C 0.27387 0.22602 1.03467
 H1593 H 0.28175 0.18475 1.09217
 H1594 H 0.32838 0.20395 1.07635
 H1595 H 0.34201 0.19011 1.09932
 H1596 H 0.29514 0.17114 1.11534
 C1597 C 0.82092 0.69735 1.08427
 C1598 C 0.80393 0.69592 1.08215
 C1599 C 0.79471 0.68656 1.09318
 C1600 C 0.80242 0.67873 1.10634
 C1601 C 0.81948 0.68018 1.10867
 C1602 C 0.82865 0.68954 1.09743
 C1603 C 0.79590 0.70428 1.06883
 C1604 C 0.78906 0.71137 1.05780
 C1605 C 0.78093 0.71977 1.04502
 C1606 C 0.77387 0.72702 1.03424
 H1607 H 0.82818 0.70455 1.07578
 H1608 H 0.78154 0.68543 1.09169
 H1609 H 0.79496 0.67182 1.11487
 H1610 H 0.84182 0.69072 1.09873
 C1611 C 0.80303 0.17929 0.58467
 C1612 C 0.80451 0.19629 0.58247
 C1613 C 0.81395 0.20554 0.59342
 C1614 C 0.82184 0.19785 0.60655
 C1615 C 0.82037 0.18077 0.60894
 C1616 C 0.81090 0.17157 0.59781
 C1617 C 0.79615 0.20431 0.56915
 C1618 C 0.78908 0.21116 0.55811
 C1619 C 0.78073 0.21932 0.54533
 C1620 C 0.77353 0.22642 0.53454
 H1621 H 0.79578 0.17200 0.57624
 H1622 H 0.81512 0.21872 0.59188
 H1623 H 0.82881 0.20533 0.61501
 H1624 H 0.80970 0.15839 0.59916
 C1625 C 0.68564 0.70540 0.40737
 C1626 C 0.69513 0.69629 0.41840
 C1627 C 0.69663 0.67925 0.41641
 C1628 C 0.68874 0.67137 0.40339
 C1629 C 0.67923 0.68043 0.39217
 C1630 C 0.67773 0.69754 0.39436
 C1631 C 0.70354 0.70448 0.43157
 C1632 C 0.71066 0.71146 0.44248
 C1633 C 0.71909 0.71976 0.45512
 C1634 C 0.72636 0.72695 0.46578
 H1635 H 0.68445 0.71861 0.40876
 H1636 H 0.70394 0.67208 0.42489
 H1637 H 0.68998 0.65817 0.40218
 H1638 H 0.67072 0.70492 0.38583
 C1639 C 0.69723 0.17856 -0.08464
 C1640 C 0.69574 0.19558 -0.08252
 C1641 C 0.68625 0.20479 -0.09347
 C1642 C 0.67832 0.19704 -0.10655
 C1643 C 0.67981 0.17994 -0.10886
 C1644 C 0.68932 0.17078 -0.09772
 C1645 C 0.70416 0.20366 -0.06928
 C1646 C 0.71127 0.21057 -0.05832
 C1647 C 0.71966 0.21880 -0.04562
 C1648 C 0.72689 0.22596 -0.03490
 H1649 H 0.70453 0.17131 -0.07622
 H1650 H 0.68508 0.21798 -0.09199
 H1651 H 0.67131 0.20449 -0.11501
 H1652 H 0.69054 0.15759 -0.09902
 C1653 C 0.20467 0.68586 -0.09282
 C1654 C 0.19543 0.69528 -0.08181
 C1655 C 0.17843 0.69667 -0.08390
 C1656 C 0.17070 0.68877 -0.09701
 C1657 C 0.17990 0.67935 -0.10822
 C1658 C 0.19698 0.67795 -0.10593
 C1659 C 0.20345 0.70371 -0.06854
 C1660 C 0.21028 0.71086 -0.05755
 C1661 C 0.21843 0.71931 -0.04484
 C1662 C 0.22550 0.72660 -0.03410
 H1663 H 0.21785 0.68476 -0.09135
 H1664 H 0.17115 0.70391 -0.07542
 H1665 H 0.15753 0.68993 -0.09830
 H1666 H 0.20445 0.67100 -0.11444
 C1667 C 0.19619 0.17884 0.41559
 C1668 C 0.19468 0.19585 0.41772
 C1669 C 0.18525 0.20507 0.40672
 C1670 C 0.17741 0.19733 0.39360
 C1671 C 0.17892 0.18023 0.39127
 C1672 C 0.18837 0.17107 0.40246
 C1673 C 0.20302 0.20393 0.43102
 C1674 C 0.21007 0.21081 0.44204
 C1675 C 0.21843 0.21900 0.45479
 C1676 C 0.22564 0.22611 0.46555
 H1677 H 0.20345 0.17158 0.42405
 H1678 H 0.18406 0.21826 0.40822
 H1679 H 0.17045 0.20478 0.38510
 H1680 H 0.18961 0.15788 0.40114
 C1681 C 0.29464 0.40640 0.68561
 C1682 C 0.30379 0.41743 0.69507
 C1683 C 0.32078 0.41532 0.69656
 C1684 C 0.32859 0.40217 0.68871
 C1685 C 0.31950 0.39094 0.67923
 C1686 C 0.30243 0.39325 0.67773
 C1687 C 0.29568 0.43076 0.70343
 C1688 C 0.28877 0.44180 0.71050
 C1689 C 0.28056 0.45459 0.71888
 C1690 C 0.27344 0.46539 0.72610
 H1691 H 0.28147 0.40788 0.68442
 H1692 H 0.32798 0.42381 0.70383
 H1693 H 0.34176 0.40087 0.68994
 H1694 H 0.29503 0.38473 0.67075
 C1695 C 0.31370 0.90683 0.20481
 C1696 C 0.30419 0.91793 0.19577
 C1697 C 0.30265 0.91592 0.17882
 C1698 C 0.31052 0.90281 0.17094
 C1699 C 0.32005 0.89153 0.17993
 C1700 C 0.32159 0.89373 0.19696
 C1701 C 0.29583 0.93121 0.20395
 C1702 C 0.28876 0.94222 0.21091
 C1703 C 0.28040 0.95497 0.21920
 C1704 C 0.27319 0.96574 0.22638
 H1705 H 0.31492 0.90823 0.21795
 H1706 H 0.29533 0.92445 0.17170
 H1707 H 0.30926 0.90160 0.15781
 H1708 H 0.32862 0.88516 0.20428
 C1709 C 0.79511 0.40748 0.18548
 C1710 C 0.80429 0.41840 0.19503
 C1711 C 0.82127 0.41620 0.19654
 C1712 C 0.82904 0.40308 0.18859
 C1713 C 0.81991 0.39197 0.17901
 C1714 C 0.80285 0.39437 0.17751
 C1715 C 0.79621 0.43169 0.20347
 C1716 C 0.78930 0.44269 0.21061
 C1717 C 0.78106 0.45543 0.21904
 C1718 C 0.77390 0.46617 0.22630
 H1719 H 0.78195 0.40902 0.18428
 H1720 H 0.82849 0.42460 0.20389
 H1721 H 0.84220 0.40172 0.18982
 H1722 H 0.79543 0.38593 0.17045
 C1723 C 0.79594 0.90734 0.68544
 C1724 C 0.80507 0.91831 0.69498
 C1725 C 0.82205 0.91615 0.69653
 C1726 C 0.82987 0.90302 0.68865
 C1727 C 0.82079 0.89186 0.67909
 C1728 C 0.80373 0.89421 0.67753
 C1729 C 0.79694 0.93161 0.70337
 C1730 C 0.79001 0.94262 0.71047
 C1731 C 0.78175 0.95536 0.71885
 C1732 C 0.77457 0.96612 0.72609
 H1733 H 0.78278 0.90885 0.68421
 H1734 H 0.82924 0.92459 0.70387
 H1735 H 0.84303 0.90169 0.68992
 H1736 H 0.79634 0.88573 0.67048
 C1737 C 0.70543 0.59344 0.68591
 C1738 C 0.69621 0.58242 0.69531
 C1739 C 0.67922 0.58457 0.69674
 C1740 C 0.67147 0.59774 0.68887
 C1741 C 0.68063 0.60894 0.67944
 C1742 C 0.69771 0.60660 0.67803
 C1743 C 0.70427 0.56906 0.70363
 C1744 C 0.71117 0.55799 0.71066
 C1745 C 0.71941 0.54518 0.71894
 C1746 C 0.72657 0.53437 0.72608
 H1747 H 0.71860 0.59193 0.68478
 H1748 H 0.67197 0.57610 0.70397
 H1749 H 0.65830 0.59907 0.69004
 H1750 H 0.70516 0.61511 0.67108
 C1751 C 0.67865 0.08450 0.19612
 C1752 C 0.69564 0.08236 0.19468
 C1753 C 0.70484 0.09334 0.18522
 C1754 C 0.69710 0.10646 0.17728
 C1755 C 0.68002 0.10879 0.17871
 C1756 C 0.67088 0.09762 0.18819
 C1757 C 0.70371 0.06906 0.20309
 C1758 C 0.71060 0.05804 0.21020
 C1759 C 0.71882 0.04528 0.21859
 C1760 C 0.72596 0.03451 0.22582
 H1761 H 0.67141 0.07605 0.20339
 H1762 H 0.71801 0.09184 0.18408
 H1763 H 0.70453 0.11494 0.17029
 H1764 H 0.65771 0.09894 0.18937
 C1765 C 0.17891 0.58379 0.19637
 C1766 C 0.19591 0.58172 0.19486
 C1767 C 0.20502 0.59279 0.18542
 C1768 C 0.19720 0.60593 0.17759
 C1769 C 0.18012 0.60820 0.17912
 C1770 C 0.17106 0.59693 0.18857
 C1771 C 0.20406 0.56843 0.20319
 C1772 C 0.21101 0.55742 0.21026
 C1773 C 0.21928 0.54468 0.21863
 C1774 C 0.22643 0.53393 0.22587
 H1775 H 0.17173 0.57528 0.20363
 H1776 H 0.21819 0.59135 0.18422
 H1777 H 0.20457 0.61449 0.17063
 H1778 H 0.15789 0.59820 0.18982
 C1779 C 0.17876 0.08375 0.69737
 C1780 C 0.19575 0.08157 0.69594
 C1781 C 0.20496 0.09248 0.68641
 C1782 C 0.19724 0.10556 0.67839
 C1783 C 0.18018 0.10793 0.67982
 C1784 C 0.17102 0.09684 0.68937
 C1785 C 0.20380 0.06831 0.70442
 C1786 C 0.21067 0.05731 0.71158
 C1787 C 0.21886 0.04457 0.72002
 C1788 C 0.22599 0.03380 0.72728
 H1789 H 0.17151 0.07536 0.70470
 H1790 H 0.21813 0.09094 0.68527
 H1791 H 0.20469 0.11398 0.67135
 H1792 H 0.15785 0.09819 0.69055
 C1793 C 0.32088 0.58430 0.30282
 C1794 C 0.30390 0.58216 0.30440
 C1795 C 0.29474 0.59316 0.31391
 C1796 C 0.30249 0.60631 0.32178
 C1797 C 0.31954 0.60864 0.32021
 C1798 C 0.32865 0.59745 0.31067
 C1799 C 0.29583 0.56883 0.29606
 C1800 C 0.28895 0.55778 0.28900
 C1801 C 0.28077 0.54498 0.28067
 C1802 C 0.27367 0.53416 0.27348
 H1803 H 0.32809 0.57584 0.29551
 H1804 H 0.28158 0.59166 0.31516
 H1805 H 0.29508 0.61481 0.32881
 H1806 H 0.34181 0.59876 0.30938
 C1807 C 0.31350 0.09266 0.79612
 C1808 C 0.30408 0.08165 0.80532
 C1809 C 0.30268 0.08378 0.82227
 C1810 C 0.31062 0.09691 0.82999
 C1811 C 0.32008 0.10809 0.82084
 C1812 C 0.32146 0.10578 0.80381
 C1813 C 0.29569 0.06833 0.79729
 C1814 C 0.28863 0.05730 0.79040
 C1815 C 0.28031 0.04453 0.78216
 C1816 C 0.27316 0.03375 0.77497
 H1817 H 0.31461 0.09117 0.78298
 H1818 H 0.29544 0.07531 0.82951
 H1819 H 0.30949 0.09821 0.84313
 H1820 H 0.32842 0.11427 0.79637
 C1821 C 0.82131 0.58397 0.80328
 C1822 C 0.80432 0.58190 0.80475
 C1823 C 0.79514 0.59292 0.81423
 C1824 C 0.80290 0.60603 0.82215
 C1825 C 0.81997 0.60830 0.82067
 C1826 C 0.82909 0.59707 0.81118
 C1827 C 0.79623 0.56863 0.79633
 C1828 C 0.78933 0.55764 0.78920
 C1829 C 0.78112 0.54492 0.78078
 C1830 C 0.77400 0.53418 0.77351
 H1831 H 0.82853 0.57548 0.79599
 H1832 H 0.78197 0.59148 0.81539
 H1833 H 0.79548 0.61455 0.82914
 H1834 H 0.84226 0.59834 0.80997
 C1835 C 0.82070 0.08453 0.30282
 C1836 C 0.80371 0.08244 0.30436
 C1837 C 0.79458 0.09344 0.31390
 C1838 C 0.80236 0.10654 0.32181
 C1839 C 0.81942 0.10882 0.32027
 C1840 C 0.82851 0.09762 0.31071
 C1841 C 0.79560 0.06916 0.29597
 C1842 C 0.78870 0.05816 0.28887
 C1843 C 0.78049 0.04540 0.28050
 C1844 C 0.77337 0.03462 0.27328
 H1845 H 0.82790 0.07606 0.29548
 H1846 H 0.78141 0.09198 0.31512
 H1847 H 0.79497 0.11504 0.32887
 H1848 H 0.84167 0.09890 0.30945
 C1849 C 0.67942 0.41552 0.30291
 C1850 C 0.69639 0.41767 0.30450
 C1851 C 0.70555 0.40662 0.31396
 C1852 C 0.69780 0.39344 0.32174
 C1853 C 0.68075 0.39110 0.32015
 C1854 C 0.67164 0.40234 0.31067
 C1855 C 0.70447 0.43104 0.29625
 C1856 C 0.71135 0.44212 0.28926
 C1857 C 0.71952 0.45496 0.28099
 C1858 C 0.72660 0.46581 0.27385
 H1859 H 0.67221 0.42402 0.29564
 H1860 H 0.71871 0.40812 0.31522
 H1861 H 0.70520 0.38491 0.32873
 H1862 H 0.65849 0.40102 0.30937
 C1863 C 0.69793 0.91582 0.82095
 C1864 C 0.69650 0.91789 0.80400
 C1865 C 0.68710 0.90683 0.79484
 C1866 C 0.67919 0.89371 0.80257
 C1867 C 0.68059 0.89146 0.81960
 C1868 C 0.69004 0.90270 0.82871
 C1869 C 0.70484 0.93122 0.79594
 C1870 C 0.71186 0.94226 0.78904
 C1871 C 0.72014 0.95506 0.78081
 C1872 C 0.72727 0.96587 0.77366
 H1873 H 0.70516 0.92433 0.82817
 H1874 H 0.68596 0.90827 0.78170
 H1875 H 0.67223 0.88518 0.79516
 H1876 H 0.69120 0.90144 0.84185
 C1877 C 0.17886 0.41580 0.80346
 C1878 C 0.19584 0.41792 0.80493
 C1879 C 0.20503 0.40695 0.81444
 C1880 C 0.19730 0.39385 0.82237
 C1881 C 0.18024 0.39152 0.82089
 C1882 C 0.17110 0.40269 0.81137
 C1883 C 0.20391 0.43118 0.79650
 C1884 C 0.21079 0.44216 0.78937
 C1885 C 0.21900 0.45487 0.78095
 C1886 C 0.22614 0.46561 0.77370
 H1887 H 0.17162 0.42424 0.79615
 H1888 H 0.21820 0.40844 0.81561
 H1889 H 0.20474 0.38536 0.82938
 H1890 H 0.15794 0.40138 0.81015
 C1891 C 0.20471 0.90677 0.31413
 C1892 C 0.19548 0.91774 0.30467
 C1893 C 0.17850 0.91556 0.30320
 C1894 C 0.17079 0.90241 0.31110
 C1895 C 0.17998 0.89126 0.32059
 C1896 C 0.19704 0.89363 0.32204
 C1897 C 0.20349 0.93107 0.29629
 C1898 C 0.21035 0.94212 0.28923
 C1899 C 0.21854 0.95491 0.28090
 C1900 C 0.22567 0.96571 0.27373
 H1901 H 0.21788 0.90830 0.31529
 H1902 H 0.17122 0.92400 0.29593
 H1903 H 0.15763 0.90107 0.30990
 H1904 H 0.20451 0.88516 0.32904
 C1905 C 0.40685 0.29459 0.68614
 C1906 C 0.41777 0.30385 0.69561
 C1907 C 0.41557 0.32086 0.69704
 C1908 C 0.40244 0.32859 0.68910
 C1909 C 0.39134 0.31938 0.67960
 C1910 C 0.39373 0.30229 0.67818
 C1911 C 0.43108 0.29582 0.70403
 C1912 C 0.44211 0.28896 0.71113
 C1913 C 0.45488 0.28076 0.71950
 C1914 C 0.46567 0.27363 0.72670
 H1915 H 0.40840 0.28140 0.68501
 H1916 H 0.42397 0.32815 0.70433
 H1917 H 0.40108 0.34178 0.69027
 H1918 H 0.38530 0.29480 0.67118
 C1919 C 0.41602 0.82097 0.19618
 C1920 C 0.41809 0.80395 0.19464
 C1921 C 0.40706 0.79483 0.18516
 C1922 C 0.39395 0.80267 0.17733
 C1923 C 0.39167 0.81977 0.17888
 C1924 C 0.40290 0.82884 0.18837
 C1925 C 0.43136 0.79578 0.20298
 C1926 C 0.44234 0.78881 0.21004
 C1927 C 0.45506 0.78052 0.21840
 C1928 C 0.46579 0.77332 0.22563
 H1929 H 0.42450 0.82816 0.20347
 H1930 H 0.40851 0.78164 0.18394
 H1931 H 0.38542 0.79528 0.17034
 H1932 H 0.40162 0.84203 0.18964
 C1933 C 0.90667 0.29504 0.18522
 C1934 C 0.91767 0.30417 0.19471
 C1935 C 0.91560 0.32119 0.19623
 C1936 C 0.90252 0.32905 0.18835
 C1937 C 0.89132 0.31997 0.17883
 C1938 C 0.89359 0.30287 0.17732
 C1939 C 0.93094 0.29601 0.20308
 C1940 C 0.94193 0.28905 0.21015
 C1941 C 0.95466 0.28077 0.21850
 C1942 C 0.96541 0.27359 0.22570
 H1943 H 0.90812 0.28184 0.18403
 H1944 H 0.92407 0.32839 0.20352
 H1945 H 0.90125 0.34224 0.18958
 H1946 H 0.88509 0.29548 0.17031
 C1947 C 0.90770 0.79513 0.68599
 C1948 C 0.91864 0.80430 0.69553
 C1949 C 0.91653 0.82132 0.69700
 C1950 C 0.90348 0.82914 0.68903
 C1951 C 0.89236 0.82003 0.67946
 C1952 C 0.89466 0.80292 0.67800
 C1953 C 0.93187 0.79617 0.70397
 C1954 C 0.94283 0.78922 0.71110
 C1955 C 0.95552 0.78093 0.71951
 C1956 C 0.96623 0.77374 0.72675
 H1957 H 0.90918 0.78193 0.68482
 H1958 H 0.92495 0.82854 0.70433
 H1959 H 0.90218 0.84233 0.69023
 H1960 H 0.88621 0.79551 0.67095
 C1961 C 0.59332 0.29502 0.31307
 C1962 C 0.58242 0.30432 0.30360
 C1963 C 0.58469 0.32131 0.30212
 C1964 C 0.59785 0.32897 0.31003
 C1965 C 0.60894 0.31972 0.31954
 C1966 C 0.60648 0.30265 0.32099
 C1967 C 0.56905 0.29635 0.29525
 C1968 C 0.55797 0.28953 0.28821
 C1969 C 0.54515 0.28136 0.27992
 C1970 C 0.53432 0.27424 0.27279
 H1971 H 0.59172 0.28184 0.31425
 H1972 H 0.57630 0.32863 0.29484
 H1973 H 0.59927 0.34214 0.30882
 H1974 H 0.61490 0.29513 0.32800
 C1975 C 0.58437 0.80295 0.82111
 C1976 C 0.58231 0.80435 0.80416
 C1977 C 0.59340 0.81368 0.79498
 C1978 C 0.60654 0.82155 0.80269
 C1979 C 0.60880 0.82017 0.81972
 C1980 C 0.59753 0.81080 0.82885
 C1981 C 0.56897 0.79602 0.79611
 C1982 C 0.55793 0.78901 0.78921
 C1983 C 0.54514 0.78072 0.78097
 C1984 C 0.53436 0.77359 0.77379
 H1985 H 0.57584 0.79577 0.82834
 H1986 H 0.59196 0.81478 0.78183
 H1987 H 0.61511 0.82844 0.79526
 H1988 H 0.59878 0.80967 0.84199
 C1989 C 0.08460 0.30238 0.82174
 C1990 C 0.08251 0.30389 0.80480
 C1991 C 0.09354 0.31336 0.79568
 C1992 C 0.10665 0.32124 0.80344
 C1993 C 0.10892 0.31975 0.82046
 C1994 C 0.09771 0.31025 0.82953
 C1995 C 0.06920 0.29557 0.79670
 C1996 C 0.05818 0.28856 0.78978
 C1997 C 0.04541 0.28028 0.78150
 C1998 C 0.03463 0.27316 0.77430
 H1999 H 0.07611 0.29510 0.82892
 H2000 H 0.09209 0.31455 0.78255
 H2001 H 0.11517 0.32824 0.79606
 H2002 H 0.09898 0.30902 0.84266
 C2003 C 0.08420 0.82095 0.30355
 C2004 C 0.08205 0.80395 0.30504
 C2005 C 0.09305 0.79473 0.31449
 C2006 C 0.10619 0.80246 0.32235
 C2007 C 0.10853 0.81954 0.32086
 C2008 C 0.09734 0.82871 0.31139
 C2009 C 0.06874 0.79590 0.29669
 C2010 C 0.05770 0.78904 0.28961
 C2011 C 0.04492 0.78090 0.28124
 C2012 C 0.03413 0.77383 0.27400
 H2013 H 0.07574 0.82821 0.29629
 H2014 H 0.09155 0.78155 0.31568
 H2015 H 0.11469 0.79500 0.32933
 H2016 H 0.09866 0.84189 0.31017
 C2017 C 0.59339 0.70550 0.68552
 C2018 C 0.58239 0.69629 0.69493
 C2019 C 0.58456 0.67928 0.69640
 C2020 C 0.59774 0.67151 0.68857
 C2021 C 0.60893 0.68068 0.67914
 C2022 C 0.60656 0.69777 0.67767
 C2023 C 0.56904 0.70435 0.70329
 C2024 C 0.55799 0.71122 0.71036
 C2025 C 0.54520 0.71940 0.71874
 C2026 C 0.53440 0.72650 0.72598
 H2027 H 0.59186 0.71869 0.68436
 H2028 H 0.57610 0.67202 0.70364
 H2029 H 0.59908 0.65833 0.68977
 H2030 H 0.61506 0.70522 0.67072
 C2031 C 0.59282 0.20534 0.18493
 C2032 C 0.58184 0.19617 0.19440
 C2033 C 0.58398 0.17915 0.19590
 C2034 C 0.59712 0.17135 0.18802
 C2035 C 0.60828 0.18047 0.17853
 C2036 C 0.60594 0.19756 0.17704
 C2037 C 0.56854 0.20428 0.20276
 C2038 C 0.55753 0.21122 0.20984
 C2039 C 0.54479 0.21949 0.21821
 C2040 C 0.53404 0.22667 0.22544
 H2041 H 0.59131 0.21853 0.18374
 H2042 H 0.57554 0.17193 0.20318
 H2043 H 0.59844 0.15816 0.18925
 H2044 H 0.61443 0.20499 0.17004
 C2045 C 0.09295 0.68609 0.20487
 C2046 C 0.08187 0.69559 0.19580
 C2047 C 0.08391 0.69714 0.17886
 C2048 C 0.09704 0.68929 0.17102
 C2049 C 0.10831 0.67978 0.18004
 C2050 C 0.10607 0.67823 0.19706
 C2051 C 0.06857 0.70393 0.20395
 C2052 C 0.05755 0.71100 0.21089
 C2053 C 0.04479 0.71936 0.21915
 C2054 C 0.03403 0.72657 0.22632
 H2055 H 0.09152 0.68487 0.21801
 H2056 H 0.07539 0.70444 0.17172
 H2057 H 0.09828 0.69056 0.15789
 H2058 H 0.11463 0.67122 0.20440
 C2059 C 0.09322 0.20467 0.68574
 C2060 C 0.08225 0.19553 0.69527
 C2061 C 0.08438 0.17852 0.69679
 C2062 C 0.09747 0.17068 0.68890
 C2063 C 0.10864 0.17977 0.67937
 C2064 C 0.10631 0.19686 0.67783
 C2065 C 0.06900 0.20368 0.70368
 C2066 C 0.05801 0.21061 0.71080
 C2067 C 0.04529 0.21885 0.71922
 C2068 C 0.03455 0.22600 0.72648
 H2069 H 0.09173 0.21786 0.68453
 H2070 H 0.07594 0.17132 0.70412
 H2071 H 0.09878 0.15750 0.69016
 H2072 H 0.11479 0.20425 0.67080
 C2073 C 0.40676 0.70487 0.31347
 C2074 C 0.41768 0.69562 0.30395
 C2075 C 0.41547 0.67862 0.30244
 C2076 C 0.40234 0.67091 0.31036
 C2077 C 0.39124 0.68011 0.31991
 C2078 C 0.39364 0.69719 0.32141
 C2079 C 0.43099 0.70363 0.29557
 C2080 C 0.44203 0.71049 0.28851
 C2081 C 0.45481 0.71868 0.28018
 C2082 C 0.46560 0.72580 0.27301
 H2083 H 0.40831 0.71805 0.31467
 H2084 H 0.42386 0.67133 0.29512
 H2085 H 0.40097 0.65773 0.30912
 H2086 H 0.38521 0.70467 0.32845
 C2087 C 0.40712 0.18581 0.79566
 C2088 C 0.41821 0.19523 0.80476
 C2089 C 0.41622 0.19669 0.82172
 C2090 C 0.40314 0.18882 0.82955
 C2091 C 0.39186 0.17937 0.82050
 C2092 C 0.39404 0.17792 0.80346
 C2093 C 0.43146 0.20359 0.79662
 C2094 C 0.44244 0.21066 0.78967
 C2095 C 0.45514 0.21900 0.78138
 C2096 C 0.46587 0.22620 0.77419
 H2097 H 0.40850 0.18465 0.78251
 H2098 H 0.42475 0.20394 0.82888
 H2099 H 0.40193 0.19002 0.84269
 H2100 H 0.38547 0.17096 0.79609
 C2101 C 0.90692 0.68623 0.79552
 C2102 C 0.91797 0.69566 0.80466
 C2103 C 0.91588 0.69717 0.82160
 C2104 C 0.90275 0.68933 0.82937
 C2105 C 0.89152 0.67986 0.82029
 C2106 C 0.89379 0.67837 0.80326
 C2107 C 0.93130 0.70397 0.79658
 C2108 C 0.94235 0.71098 0.78969
 C2109 C 0.95514 0.71926 0.78146
 C2110 C 0.96595 0.72639 0.77432
 H2111 H 0.90839 0.68503 0.78238
 H2112 H 0.92438 0.70443 0.82880
 H2113 H 0.90147 0.69056 0.84251
 H2114 H 0.88526 0.67139 0.79587
 C2115 C 0.90670 0.20496 0.31363
 C2116 C 0.91760 0.19573 0.30407
 C2117 C 0.91540 0.17873 0.30254
 C2118 C 0.90229 0.17099 0.31047
 C2119 C 0.89121 0.18018 0.32006
 C2120 C 0.89360 0.19726 0.32158
 C2121 C 0.93088 0.20377 0.29567
 C2122 C 0.94189 0.21065 0.28858
 C2123 C 0.95463 0.21887 0.28023
 C2124 C 0.96540 0.22602 0.27305
 H2125 H 0.90824 0.21814 0.31485
 H2126 H 0.92378 0.17146 0.29519
 H2127 H 0.90093 0.15782 0.30922
 H2128 H 0.88518 0.20472 0.32865
 C2129 C 0.30289 0.32057 0.58354
 C2130 C 0.30438 0.30355 0.58143
 C2131 C 0.31382 0.29436 0.59243
 C2132 C 0.32168 0.30211 0.60554
 C2133 C 0.32019 0.31921 0.60784
 C2134 C 0.31073 0.32836 0.59664
 C2135 C 0.29602 0.29546 0.56816
 C2136 C 0.28894 0.28857 0.55717
 C2137 C 0.28056 0.28036 0.54444
 C2138 C 0.27333 0.27325 0.53369
 H2139 H 0.29562 0.32782 0.57507
 H2140 H 0.31500 0.28116 0.59096
 H2141 H 0.32865 0.29467 0.61404
 H2142 H 0.30950 0.34155 0.59794
 C2143 C 0.31318 0.79560 0.09245
 C2144 C 0.30365 0.80489 0.08160
 C2145 C 0.30217 0.82189 0.08384
 C2146 C 0.31013 0.82958 0.09694
 C2147 C 0.31969 0.82034 0.10798
 C2148 C 0.32115 0.80326 0.10555
 C2149 C 0.29523 0.79689 0.06831
 C2150 C 0.28814 0.79002 0.05731
 C2151 C 0.27979 0.78179 0.04458
 C2152 C 0.27261 0.77460 0.03384
 H2153 H 0.31435 0.78242 0.09087
 H2154 H 0.29485 0.82920 0.07549
 H2155 H 0.30893 0.84276 0.09835
 H2156 H 0.32820 0.79575 0.11393
 C2157 C 0.82153 0.30333 0.08289
 C2158 C 0.80454 0.30480 0.08076
 C2159 C 0.79532 0.31427 0.09174
 C2160 C 0.80301 0.32218 0.10484
 C2161 C 0.82008 0.32070 0.10718
 C2162 C 0.82926 0.31122 0.09601
 C2163 C 0.79650 0.29638 0.06749
 C2164 C 0.78964 0.28926 0.05651
 C2165 C 0.78146 0.28084 0.04380
 C2166 C 0.77433 0.27359 0.03306
 H2167 H 0.82879 0.29604 0.07445
 H2168 H 0.78214 0.31544 0.09024
 H2169 H 0.79555 0.32918 0.11333
 H2170 H 0.84242 0.31001 0.09733
 C2171 C 0.80412 0.82175 0.58322
 C2172 C 0.80555 0.80473 0.58111
 C2173 C 0.81497 0.79549 0.59211
 C2174 C 0.82286 0.80322 0.60521
 C2175 C 0.82142 0.82032 0.60752
 C2176 C 0.81200 0.82951 0.59633
 C2177 C 0.79715 0.79666 0.56785
 C2178 C 0.79004 0.78978 0.55688
 C2179 C 0.78162 0.78156 0.54419
 C2180 C 0.77435 0.77443 0.53348
 H2181 H 0.79688 0.82902 0.57476
 H2182 H 0.81610 0.78229 0.59063
 H2183 H 0.82981 0.79575 0.61371
 H2184 H 0.81081 0.84270 0.59763
 C2185 C 0.30307 0.67865 0.41627
 C2186 C 0.30455 0.69565 0.41846
 C2187 C 0.31392 0.70489 0.40747
 C2188 C 0.32174 0.69719 0.39428
 C2189 C 0.32026 0.68011 0.39189
 C2190 C 0.31087 0.67092 0.40308
 C2191 C 0.29623 0.70369 0.43182
 C2192 C 0.28919 0.71055 0.44288
 C2193 C 0.28085 0.71873 0.45567
 C2194 C 0.27365 0.72584 0.46647
 H2195 H 0.29586 0.67137 0.42473
 H2196 H 0.31509 0.71808 0.40901
 H2197 H 0.32866 0.70467 0.38578
 H2198 H 0.30965 0.65774 0.40172
 C2199 C 0.31433 0.20464 0.90775
 C2200 C 0.30491 0.19546 0.91876
 C2201 C 0.30341 0.17845 0.91663
 C2202 C 0.31124 0.17065 0.90349
 C2203 C 0.32068 0.17979 0.89229
 C2204 C 0.32217 0.19688 0.89462
 C2205 C 0.29657 0.20356 0.93206
 C2206 C 0.28950 0.21047 0.94308
 C2207 C 0.28114 0.21870 0.95583
 C2208 C 0.27392 0.22585 0.96658
 H2209 H 0.31551 0.21783 0.90924
 H2210 H 0.29616 0.17121 0.92510
 H2211 H 0.31001 0.15747 0.90218
 H2212 H 0.32913 0.20431 0.88612
 C2213 C 0.79541 0.68661 0.90744
 C2214 C 0.80464 0.69609 0.91838
 C2215 C 0.82162 0.69754 0.91619
 C2216 C 0.82934 0.68961 0.90307
 C2217 C 0.82017 0.68011 0.89195
 C2218 C 0.80311 0.67867 0.89432
 C2219 C 0.79660 0.70449 0.93168
 C2220 C 0.78971 0.71158 0.94269
 C2221 C 0.78147 0.71994 0.95543
 C2222 C 0.77429 0.72714 0.96617
 H2223 H 0.78225 0.68546 0.90897
 H2224 H 0.82888 0.70483 0.92461
 H2225 H 0.84250 0.69080 0.90172
 H2226 H 0.79564 0.67167 0.88588
 C2227 C 0.81397 0.20502 0.40759
 C2228 C 0.80455 0.19581 0.41858
 C2229 C 0.80303 0.17881 0.41640
 C2230 C 0.81083 0.17104 0.40322
 C2231 C 0.82026 0.18021 0.39204
 C2232 C 0.82178 0.19729 0.39442
 C2233 C 0.79623 0.20388 0.43191
 C2234 C 0.78919 0.21079 0.44294
 C2235 C 0.78085 0.21903 0.45570
 C2236 C 0.77364 0.22619 0.46645
 H2237 H 0.81516 0.21820 0.40912
 H2238 H 0.79579 0.17155 0.42485
 H2239 H 0.80958 0.15787 0.40187
 H2240 H 0.82873 0.20474 0.38593
 C2241 C 0.69693 0.32087 0.41601
 C2242 C 0.69540 0.30387 0.41817
 C2243 C 0.68604 0.29465 0.40712
 C2244 C 0.67829 0.30237 0.39392
 C2245 C 0.67982 0.31945 0.39156
 C2246 C 0.68920 0.32862 0.40280
 C2247 C 0.70363 0.29581 0.43154
 C2248 C 0.71061 0.28893 0.44261
 C2249 C 0.71889 0.28074 0.45543
 C2250 C 0.72604 0.27363 0.46624
 H2251 H 0.70412 0.32813 0.42450
 H2252 H 0.68483 0.28147 0.40863
 H2253 H 0.67138 0.29492 0.38539
 H2254 H 0.69045 0.34180 0.40147
 C2255 C 0.68647 0.79547 0.90701
 C2256 C 0.69590 0.80475 0.91795
 C2257 C 0.69740 0.82174 0.91570
 C2258 C 0.68957 0.82942 0.90251
 C2259 C 0.68013 0.82020 0.89138
 C2260 C 0.67863 0.80313 0.89382
 C2261 C 0.70423 0.79676 0.93131
 C2262 C 0.71127 0.78993 0.94238
 C2263 C 0.71959 0.78178 0.95518
 C2264 C 0.72675 0.77466 0.96599
 H2265 H 0.68529 0.78230 0.90859
 H2266 H 0.70464 0.82905 0.92411
 H2267 H 0.69079 0.84260 0.90111
 H2268 H 0.67167 0.79562 0.88538
 C2269 C 0.17884 0.30244 0.91641
 C2270 C 0.19581 0.30397 0.91860
 C2271 C 0.20501 0.31345 0.90764
 C2272 C 0.19730 0.32132 0.89452
 C2273 C 0.18024 0.31982 0.89215
 C2274 C 0.17109 0.31030 0.90328
 C2275 C 0.20387 0.29565 0.93192
 C2276 C 0.21077 0.28863 0.94295
 C2277 C 0.21902 0.28035 0.95572
 C2278 C 0.22619 0.27320 0.96650
 H2279 H 0.17160 0.29516 0.92483
 H2280 H 0.21817 0.31465 0.90918
 H2281 H 0.20474 0.32833 0.88607
 H2282 H 0.15794 0.30906 0.90192
 C2283 C 0.20484 0.81355 0.40776
 C2284 C 0.19563 0.80414 0.41876
 C2285 C 0.17864 0.80269 0.41663
 C2286 C 0.17090 0.81053 0.40349
 C2287 C 0.18006 0.81996 0.39229
 C2288 C 0.19712 0.82142 0.39463
 C2289 C 0.20368 0.79579 0.43207
 C2290 C 0.21057 0.78874 0.44309
 C2291 C 0.21880 0.78040 0.45583
 C2292 C 0.22596 0.77321 0.46659
 H2293 H 0.21801 0.81470 0.40925
 H2294 H 0.17139 0.79545 0.42509
 H2295 H 0.15774 0.80934 0.40217
 H2296 H 0.20457 0.82836 0.38613
 C2297 C 0.70554 0.68676 0.59256
 C2298 C 0.69636 0.69621 0.58154
 C2299 C 0.67937 0.69770 0.58363
 C2300 C 0.67158 0.68984 0.59672
 C2301 C 0.68072 0.68037 0.60792
 C2302 C 0.69779 0.67889 0.60565
 C2303 C 0.70445 0.70455 0.56826
 C2304 C 0.71135 0.71159 0.55726
 C2305 C 0.71958 0.71991 0.54452
 C2306 C 0.72672 0.72708 0.53375
 H2307 H 0.71872 0.68558 0.59110
 H2308 H 0.67213 0.70496 0.57515
 H2309 H 0.65841 0.69106 0.59800
 H2310 H 0.70522 0.67191 0.61415
 C2311 C 0.68628 0.20501 0.09171
 C2312 C 0.69578 0.19576 0.08077
 C2313 C 0.69725 0.17875 0.08291
 C2314 C 0.68932 0.17101 0.09600
 C2315 C 0.67981 0.18021 0.10712
 C2316 C 0.67834 0.19730 0.10479
 C2317 C 0.70419 0.20380 0.06751
 C2318 C 0.71130 0.21068 0.05654
 C2319 C 0.71969 0.21888 0.04383
 C2320 C 0.72691 0.22602 0.03309
 H2321 H 0.68512 0.21820 0.09021
 H2322 H 0.70455 0.17147 0.07450
 H2323 H 0.69053 0.15782 0.09732
 H2324 H 0.67133 0.20478 0.11324
 C2325 C 0.20416 0.68681 0.09268
 C2326 C 0.19487 0.69630 0.08180
 C2327 C 0.17789 0.69775 0.08404
 C2328 C 0.17024 0.68980 0.09716
 C2329 C 0.17948 0.68027 0.10821
 C2330 C 0.19654 0.67884 0.10579
 C2331 C 0.20284 0.70471 0.06849
 C2332 C 0.20968 0.71177 0.05746
 C2333 C 0.21789 0.72009 0.04470
 C2334 C 0.22506 0.72722 0.03393
 H2335 H 0.21733 0.68566 0.09110
 H2336 H 0.17058 0.70505 0.07567
 H2337 H 0.15708 0.69098 0.09855
 H2338 H 0.20406 0.67182 0.11418
 C2339 C 0.17861 0.19622 0.58349
 C2340 C 0.19560 0.19476 0.58137
 C2341 C 0.20483 0.18534 0.59237
 C2342 C 0.19713 0.17748 0.60550
 C2343 C 0.18006 0.17895 0.60783
 C2344 C 0.17088 0.18837 0.59663
 C2345 C 0.20364 0.20312 0.56808
 C2346 C 0.21050 0.21021 0.55708
 C2347 C 0.21868 0.21859 0.54434
 C2348 C 0.22580 0.22583 0.53360
 H2349 H 0.17135 0.20346 0.57503
 H2350 H 0.21800 0.18418 0.59088
 H2351 H 0.20459 0.17053 0.61400
 H2352 H 0.15771 0.18958 0.59794
   
