data_POSCAR
  _audit_creation_date              2014-09-24
  _audit_creation_method            'ToBaCCo'
  _symmetry_space_group_name_H-M    'P1'
  _symmetry_Int_Tables_number       1
  _symmetry_cell_setting            triclinic
  loop_
  _symmetry_equiv_pos_as_xyz
 x,y,z
_cell_length_a 86.6677
_cell_length_b 86.3678
_cell_length_c 89.6103
_cell_angle_alpha 89.675400
_cell_angle_beta 90.001400
_cell_angle_gamma 89.714100
loop_
  _atom_site_label
  _atom_site_type_symbol
  _atom_site_fract_x
  _atom_site_fract_y
  _atom_site_fract_z
C1 C 0.35676 0.33698 0.34297
 C2 C 0.34527 0.33712 0.35405
 C3 C 0.33540 0.34969 0.35511
 C4 C 0.33676 0.36218 0.34523
 C5 C 0.34796 0.36207 0.33430
 C6 C 0.35809 0.34939 0.33321
 C7 C 0.36753 0.32608 0.33872
 N8 N 0.37538 0.33156 0.32664
 C9 C 0.36961 0.34584 0.32325
 C10 C 0.34560 0.37504 0.32554
 N11 N 0.33318 0.38295 0.33093
 C12 C 0.32779 0.37513 0.34302
 C13 C 0.32494 0.34653 0.36616
 N14 N 0.32807 0.33230 0.37194
 C15 C 0.34056 0.32645 0.36462
 H16 H 0.36916 0.31481 0.34381
 H17 H 0.37348 0.35320 0.31420
 H18 H 0.35216 0.37818 0.31572
 H19 H 0.31751 0.37810 0.34926
 H20 H 0.31566 0.35411 0.36969
 H21 H 0.34556 0.31509 0.36649
 C22 C 0.35407 0.83436 -0.15262
 C23 C 0.34244 0.83602 -0.14192
 C24 C 0.33209 0.84818 -0.14286
 C25 C 0.33331 0.85893 -0.15462
 C26 C 0.34481 0.85729 -0.16516
 C27 C 0.35532 0.84489 -0.16413
 C28 C 0.36533 0.82334 -0.15455
 N29 N 0.37362 0.82676 -0.16708
 C30 C 0.36743 0.84007 -0.17294
 C31 C 0.34290 0.86902 -0.17544
 N32 N 0.33045 0.87790 -0.17154
 C33 C 0.32461 0.87163 -0.15869
 C34 C 0.32179 0.84643 -0.13124
 N35 N 0.32571 0.83348 -0.12333
 C36 C 0.33834 0.82708 -0.12989
 H37 H 0.36721 0.81367 -0.14707
 H38 H 0.37098 0.84581 -0.18311
 H39 H 0.35026 0.87070 -0.18502
 H40 H 0.31453 0.87554 -0.15269
 H41 H 0.31213 0.85400 -0.12881
 H42 H 0.34389 0.81637 -0.12652
 C43 C 0.85698 0.34085 -0.15332
 C44 C 0.84635 0.34077 -0.14139
 C45 C 0.83481 0.35194 -0.14086
 C46 C 0.83364 0.36324 -0.15210
 C47 C 0.84411 0.36330 -0.16360
 C48 C 0.85574 0.35209 -0.16422
 C49 C 0.86922 0.33143 -0.15735
 N50 N 0.87539 0.33671 -0.17051
 C51 C 0.86701 0.34947 -0.17456
 C52 C 0.84014 0.37512 -0.17312
 N53 N 0.82731 0.38246 -0.16782
 C54 C 0.82331 0.37512 -0.15483
 C55 C 0.82607 0.34907 -0.12841
 N56 N 0.83194 0.33649 -0.12118
 C57 C 0.84433 0.33127 -0.12910
 H58 H 0.87298 0.32135 -0.15113
 H59 H 0.86870 0.35664 -0.18431
 H60 H 0.84600 0.37751 -0.18351
 H61 H 0.81368 0.37805 -0.14771
 H62 H 0.81596 0.35557 -0.12504
 H63 H 0.85144 0.32140 -0.12610
 C64 C 0.85758 0.83451 0.34370
 C65 C 0.84573 0.83320 0.35424
 C66 C 0.83310 0.84306 0.35364
 C67 C 0.83226 0.85448 0.34240
 C68 C 0.84403 0.85571 0.33209
 C69 C 0.85675 0.84567 0.33274
 C70 C 0.87043 0.82563 0.34088
 N71 N 0.87755 0.83103 0.32829
 C72 C 0.86914 0.84347 0.32340
 C73 C 0.83997 0.86703 0.32208
 N74 N 0.82587 0.87297 0.32583
 C75 C 0.82117 0.86524 0.33839
 C76 C 0.82309 0.83836 0.36475
 N77 N 0.82937 0.82590 0.37196
 C78 C 0.84324 0.82277 0.36556
 H79 H 0.87393 0.81579 0.34758
 H80 H 0.87113 0.85006 0.31331
 H81 H 0.84709 0.87052 0.31278
 H82 H 0.81029 0.86676 0.34410
 H83 H 0.81186 0.84333 0.36705
 H84 H 0.85101 0.81351 0.36883
 C85 C 0.64191 0.67364 0.34737
 C86 C 0.65262 0.67322 0.35903
 C87 C 0.66474 0.66284 0.35870
 C88 C 0.66622 0.65260 0.34669
 C89 C 0.65563 0.65295 0.33511
 C90 C 0.64334 0.66366 0.33543
 C91 C 0.62973 0.68336 0.34450
 N92 N 0.62361 0.67971 0.33103
 C93 C 0.63181 0.66757 0.32541
 C94 C 0.66041 0.64209 0.32483
 N95 N 0.67358 0.63519 0.32993
 C96 C 0.67715 0.64162 0.34330
 C97 C 0.67397 0.66596 0.37081
 N98 N 0.66772 0.67804 0.37846
 C99 C 0.65457 0.68244 0.37131
 H100 H 0.62574 0.69259 0.35168
 H101 H 0.62995 0.66238 0.31460
 H102 H 0.65485 0.63966 0.31430
 H103 H 0.68694 0.63848 0.35020
 H104 H 0.68484 0.66033 0.37337
 H105 H 0.64705 0.69187 0.37455
 C106 C 0.64673 0.16687 -0.14694
 C107 C 0.65765 0.16608 -0.13540
 C108 C 0.66918 0.15500 -0.13582
 C109 C 0.66998 0.14463 -0.14775
 C110 C 0.65928 0.14540 -0.15910
 C111 C 0.64754 0.15666 -0.15870
 C112 C 0.63474 0.17690 -0.14983
 N113 N 0.62806 0.17316 -0.16314
 C114 C 0.63599 0.16066 -0.16854
 C115 C 0.66342 0.13440 -0.16945
 N116 N 0.67649 0.12691 -0.16472
 C117 C 0.68042 0.13327 -0.15133
 C118 C 0.67863 0.15742 -0.12377
 N119 N 0.67316 0.16974 -0.11596
 C120 C 0.66028 0.17508 -0.12303
 H121 H 0.63166 0.18651 -0.14275
 H122 H 0.63383 0.15472 -0.17890
 H123 H 0.65744 0.13257 -0.17986
 H124 H 0.69014 0.13009 -0.14441
 H125 H 0.68910 0.15104 -0.12125
 H126 H 0.65340 0.18492 -0.11959
 C127 C 0.14449 0.66403 -0.16068
 C128 C 0.15569 0.66507 -0.14944
 C129 C 0.16748 0.65429 -0.14873
 C130 C 0.16820 0.64230 -0.15918
 C131 C 0.15722 0.64128 -0.17025
 C132 C 0.14524 0.65229 -0.17103
 C133 C 0.13205 0.67320 -0.16432
 N134 N 0.12503 0.66746 -0.17677
 C135 C 0.13319 0.65456 -0.18085
 C136 C 0.16108 0.62868 -0.17888
 N137 N 0.17419 0.62190 -0.17332
 C138 C 0.17850 0.63038 -0.16120
 C139 C 0.17686 0.65832 -0.13703
 N140 N 0.17106 0.67130 -0.13051
 C141 C 0.15806 0.67547 -0.13810
 H142 H 0.12891 0.68361 -0.15842
 H143 H 0.13074 0.64715 -0.19021
 H144 H 0.15451 0.62488 -0.18841
 H145 H 0.18857 0.62849 -0.15433
 H146 H 0.18737 0.65238 -0.13379
 H147 H 0.15076 0.68531 -0.13556
 C148 C 0.14698 0.16747 0.34774
 C149 C 0.15849 0.16707 0.35877
 C150 C 0.16855 0.15466 0.35949
 C151 C 0.16734 0.14257 0.34925
 C152 C 0.15620 0.14301 0.33829
 C153 C 0.14585 0.15558 0.33756
 C154 C 0.13566 0.17809 0.34431
 N155 N 0.12749 0.17307 0.33223
 C156 C 0.13386 0.15924 0.32808
 C157 C 0.15837 0.13006 0.32959
 N158 N 0.17061 0.12171 0.33503
 C159 C 0.17603 0.12948 0.34715
 C160 C 0.17875 0.15740 0.37088
 N161 N 0.17525 0.17127 0.37715
 C162 C 0.16279 0.17725 0.36981
 H163 H 0.13394 0.18884 0.35019
 H164 H 0.13005 0.15197 0.31904
 H165 H 0.15137 0.12712 0.32005
 H166 H 0.18605 0.12643 0.35373
 H167 H 0.18804 0.14976 0.37432
 H168 H 0.15749 0.18838 0.37200
 C169 C 0.64888 0.33027 0.64714
 C170 C 0.66023 0.32869 0.63615
 C171 C 0.67261 0.33868 0.63573
 C172 C 0.67377 0.35046 0.64640
 C173 C 0.66257 0.35199 0.65731
 C174 C 0.65002 0.34178 0.65771
 C175 C 0.63599 0.32175 0.65041
 N176 N 0.62913 0.32778 0.66273
 C177 C 0.63768 0.34007 0.66728
 C178 C 0.66690 0.36404 0.66633
 N179 N 0.68042 0.36998 0.66115
 C180 C 0.68466 0.36168 0.64893
 C181 C 0.68206 0.33391 0.62425
 N182 N 0.67568 0.32126 0.61774
 C183 C 0.66226 0.31809 0.62496
 H184 H 0.63219 0.31157 0.64449
 H185 H 0.63518 0.34722 0.67687
 H186 H 0.66076 0.36793 0.67614
 H187 H 0.69486 0.36366 0.64225
 H188 H 0.69302 0.33900 0.62123
 H189 H 0.65449 0.30872 0.62235
 C190 C 0.64004 0.82248 1.15335
 C191 C 0.65131 0.82246 1.14214
 C192 C 0.66288 0.83341 1.14219
 C193 C 0.66329 0.84460 1.15349
 C194 C 0.65215 0.84459 1.16455
 C195 C 0.64043 0.83343 1.16445
 C196 C 0.62775 0.81294 1.15622
 N197 N 0.62045 0.81773 1.16891
 C198 C 0.62830 0.83038 1.17392
 C199 C 0.65558 0.85648 1.17415
 N200 N 0.66851 0.86379 1.16921
 C201 C 0.67326 0.85654 1.15654
 C202 C 0.67244 0.83019 1.13029
 N203 N 0.66694 0.81754 1.12304
 C204 C 0.65397 0.81282 1.13025
 H205 H 0.62451 0.80330 1.14928
 H206 H 0.62586 0.83685 1.18393
 H207 H 0.64925 0.85931 1.18418
 H208 H 0.68317 0.85973 1.14989
 H209 H 0.68287 0.83637 1.12744
 H210 H 0.64690 0.80307 1.12713
 C211 C 0.14051 0.33118 1.15334
 C212 C 0.15256 0.33047 1.14294
 C213 C 0.16408 0.34141 1.14317
 C214 C 0.16364 0.35329 1.15372
 C215 C 0.15178 0.35402 1.16404
 C216 C 0.14012 0.34274 1.16390
 C217 C 0.12818 0.32167 1.15597
 N218 N 0.12014 0.32696 1.16802
 C219 C 0.12751 0.33994 1.17290
 C220 C 0.15460 0.36666 1.17295
 N221 N 0.16781 0.37361 1.16821
 C222 C 0.17340 0.36539 1.15649
 C223 C 0.17453 0.33753 1.13224
 N224 N 0.16964 0.32445 1.12534
 C225 C 0.15613 0.32012 1.13184
 H226 H 0.12588 0.31120 1.14981
 H227 H 0.12407 0.34705 1.18223
 H228 H 0.14743 0.37059 1.18208
 H229 H 0.18397 0.36784 1.15052
 H230 H 0.18516 0.34358 1.12988
 H231 H 0.14932 0.31016 1.12880
 C232 C 0.15192 0.83525 0.66370
 C233 C 0.16314 0.83451 0.65238
 C234 C 0.17393 0.84619 0.65109
 C235 C 0.17375 0.85867 0.66102
 C236 C 0.16280 0.85940 0.67210
 C237 C 0.15177 0.84763 0.67344
 C238 C 0.14022 0.82544 0.66806
 N239 N 0.13300 0.83158 0.68019
 C240 C 0.14005 0.84518 0.68347
 C241 C 0.16591 0.87233 0.68047
 N242 N 0.17864 0.87960 0.67482
 C243 C 0.18335 0.87114 0.66279
 C244 C 0.18365 0.84238 0.63958
 N245 N 0.17916 0.82861 0.63376
 C246 C 0.16656 0.82373 0.64153
 H247 H 0.13746 0.81447 0.66296
 H248 H 0.13687 0.85286 0.69248
 H249 H 0.15930 0.87578 0.69012
 H250 H 0.19332 0.87334 0.65588
 H251 H 0.19328 0.84924 0.63572
 H252 H 0.16053 0.81296 0.63970
 C253 C 0.35608 0.66655 0.65682
 C254 C 0.34514 0.66666 0.64536
 C255 C 0.33374 0.65559 0.64499
 C256 C 0.33328 0.64406 0.65608
 C257 C 0.34414 0.64389 0.66742
 C258 C 0.35561 0.65534 0.66786
 C259 C 0.36763 0.67666 0.66032
 N260 N 0.37425 0.67209 0.67338
 C261 C 0.36701 0.65894 0.67803
 C262 C 0.34061 0.63162 0.67668
 N263 N 0.32791 0.62431 0.67124
 C264 C 0.32336 0.63198 0.65867
 C265 C 0.32418 0.65926 0.63317
 N266 N 0.32953 0.67235 0.62643
 C267 C 0.34243 0.67683 0.63384
 H268 H 0.37080 0.68677 0.65385
 H269 H 0.36935 0.65281 0.68835
 H270 H 0.34699 0.62820 0.68655
 H271 H 0.31339 0.62919 0.65196
 H272 H 0.31375 0.65320 0.63014
 H273 H 0.34934 0.68688 0.63120
 C274 C 0.35476 0.15747 1.16270
 C275 C 0.34381 0.15813 1.15115
 C276 C 0.33326 0.14629 1.14963
 C277 C 0.33342 0.13374 1.15957
 C278 C 0.34407 0.13311 1.17094
 C279 C 0.35489 0.14502 1.17249
 C280 C 0.36601 0.16755 1.16738
 N281 N 0.37299 0.16152 1.17974
 C282 C 0.36619 0.14771 1.18289
 C283 C 0.34068 0.12030 1.17951
 N284 N 0.32807 0.11306 1.17367
 C285 C 0.32374 0.12133 1.16133
 C286 C 0.32359 0.15018 1.13808
 N287 N 0.32789 0.16415 1.13247
 C288 C 0.34031 0.16909 1.14040
 H289 H 0.36858 0.17867 1.16236
 H290 H 0.36922 0.14009 1.19206
 H291 H 0.34698 0.11687 1.18939
 H292 H 0.31374 0.11924 1.15444
 H293 H 0.31407 0.14328 1.13410
 H294 H 0.34610 0.18006 1.13882
 C295 C 0.84870 0.67017 1.15548
 C296 C 0.83833 0.67148 1.14350
 C297 C 0.82692 0.66049 1.14157
 C298 C 0.82572 0.64801 1.15164
 C299 C 0.83600 0.64677 1.16336
 C300 C 0.84749 0.65788 1.16529
 C301 C 0.86066 0.67927 1.16042
 N302 N 0.86670 0.67274 1.17300
 C303 C 0.85868 0.65960 1.17597
 C304 C 0.83203 0.63399 1.17160
 N305 N 0.81955 0.62724 1.16522
 C306 C 0.81558 0.63579 1.15297
 C307 C 0.81847 0.66489 1.12924
 N308 N 0.82448 0.67824 1.12359
 C309 C 0.83664 0.68231 1.13230
 H310 H 0.86438 0.69004 1.15539
 H311 H 0.86083 0.65173 1.18519
 H312 H 0.83758 0.63022 1.18182
 H313 H 0.80601 0.63337 1.14559
 H314 H 0.80850 0.65893 1.12489
 H315 H 0.84388 0.69233 1.13058
 C316 C 0.86499 0.17035 0.65041
 C317 C 0.85319 0.17120 0.63964
 C318 C 0.84084 0.16107 0.64039
 C319 C 0.84009 0.14996 0.65187
 C320 C 0.85183 0.14908 0.66224
 C321 C 0.86430 0.15921 0.66144
 C322 C 0.87777 0.17931 0.65341
 N323 N 0.88487 0.17377 0.66600
 C324 C 0.87656 0.16135 0.67080
 C325 C 0.84792 0.13804 0.67256
 N326 N 0.83396 0.13213 0.66888
 C327 C 0.82910 0.13927 0.65612
 C328 C 0.83101 0.16481 0.62887
 N329 N 0.83705 0.17687 0.62101
 C330 C 0.85059 0.18088 0.62761
 H331 H 0.88141 0.18919 0.64686
 H332 H 0.87848 0.15484 0.68098
 H333 H 0.85473 0.13470 0.68219
 H334 H 0.81814 0.13732 0.65068
 H335 H 0.82010 0.15925 0.62659
 H336 H 0.85817 0.19004 0.62388
 C337 C 0.34027 0.35468 0.65082
 C338 C 0.34050 0.34291 0.64009
 C339 C 0.35251 0.33234 0.63990
 C340 C 0.36443 0.33337 0.65038
 C341 C 0.36425 0.34496 0.66095
 C342 C 0.35205 0.35573 0.66116
 C343 C 0.32985 0.36629 0.65390
 N344 N 0.33498 0.37442 0.66586
 C345 C 0.34859 0.36798 0.67036
 C346 C 0.37694 0.34269 0.66997
 N347 N 0.38479 0.32997 0.66513
 C348 C 0.37716 0.32426 0.65312
 C349 C 0.34964 0.32209 0.62857
 N350 N 0.33614 0.32613 0.62183
 C351 C 0.33048 0.33888 0.62885
 H352 H 0.31911 0.36837 0.64803
 H353 H 0.35555 0.37192 0.67959
 H354 H 0.38012 0.34975 0.67941
 H355 H 0.38027 0.31389 0.64709
 H356 H 0.35696 0.31246 0.62542
 H357 H 0.31971 0.34467 0.62621
 C358 C 0.32397 0.85189 0.15278
 C359 C 0.32389 0.84061 0.14160
 C360 C 0.33490 0.82899 0.14163
 C361 C 0.34618 0.82850 0.15287
 C362 C 0.34623 0.83962 0.16390
 C363 C 0.33504 0.85140 0.16386
 C364 C 0.31429 0.86413 0.15587
 N365 N 0.31923 0.87114 0.16855
 C366 C 0.33197 0.86338 0.17347
 C367 C 0.35799 0.83595 0.17361
 N368 N 0.36518 0.82287 0.16876
 C369 C 0.35798 0.81828 0.15603
 C370 C 0.33159 0.81936 0.12987
 N371 N 0.31885 0.82488 0.12266
 C372 C 0.31413 0.83793 0.12981
 H373 H 0.30412 0.86734 0.14955
 H374 H 0.33857 0.86619 0.18334
 H375 H 0.36073 0.84214 0.18372
 H376 H 0.36104 0.80824 0.14947
 H377 H 0.33778 0.80885 0.12710
 H378 H 0.30430 0.84503 0.12673
 C379 C 0.82993 0.35637 0.16121
 C380 C 0.83048 0.34632 0.14903
 C381 C 0.84094 0.33426 0.14884
 C382 C 0.85117 0.33219 0.16082
 C383 C 0.85068 0.34211 0.17291
 C384 C 0.83986 0.35433 0.17314
 C385 C 0.82012 0.36833 0.16463
 N386 N 0.82367 0.37368 0.17842
 C387 C 0.83584 0.36524 0.18370
 C388 C 0.86161 0.33689 0.18297
 N389 N 0.86872 0.32413 0.17724
 C390 C 0.86232 0.32124 0.16369
 C391 C 0.83797 0.32569 0.13624
 N392 N 0.82590 0.33228 0.12877
 C393 C 0.82139 0.34502 0.13655
 H394 H 0.81090 0.37266 0.15758
 H395 H 0.84098 0.36650 0.19463
 H396 H 0.86398 0.34190 0.19376
 H397 H 0.86562 0.31195 0.15628
 H398 H 0.84372 0.31502 0.13323
 H399 H 0.81198 0.35271 0.13361
 C400 C 0.83446 0.86054 0.65156
 C401 C 0.83478 0.84977 0.63998
 C402 C 0.84549 0.83790 0.64008
 C403 C 0.85620 0.83678 0.65179
 C404 C 0.85591 0.84745 0.66328
 C405 C 0.84486 0.85943 0.66320
 C406 C 0.82445 0.87240 0.65470
 N407 N 0.82834 0.87859 0.66807
 C408 C 0.84093 0.87078 0.67333
 C409 C 0.86715 0.84305 0.67334
 N410 N 0.87428 0.83004 0.66823
 C411 C 0.86758 0.82616 0.65505
 C412 C 0.84209 0.82845 0.62819
 N413 N 0.82952 0.83431 0.62095
 C414 C 0.82511 0.84745 0.62810
 H415 H 0.81484 0.87606 0.64780
 H416 H 0.84639 0.87272 0.68401
 H417 H 0.86966 0.84874 0.68378
 H418 H 0.87076 0.81635 0.64823
 H419 H 0.84785 0.81767 0.62554
 H420 H 0.81533 0.85467 0.62514
 C421 C 0.66389 0.64739 0.65132
 C422 C 0.66381 0.65879 0.64010
 C423 C 0.65191 0.66950 0.63944
 C424 C 0.64000 0.66905 0.65003
 C425 C 0.64014 0.65788 0.66109
 C426 C 0.65211 0.64696 0.66170
 C427 C 0.67428 0.63593 0.65520
 N428 N 0.66904 0.62858 0.66767
 C429 C 0.65546 0.63532 0.67167
 C430 C 0.62812 0.66105 0.67060
 N431 N 0.62059 0.67394 0.66564
 C432 C 0.62779 0.67882 0.65295
 C433 C 0.65530 0.67972 0.62811
 N434 N 0.66902 0.67559 0.62187
 C435 C 0.67426 0.66273 0.62916
 H436 H 0.68507 0.63348 0.64959
 H437 H 0.64846 0.63202 0.68115
 H438 H 0.62567 0.65488 0.68087
 H439 H 0.62471 0.68898 0.64648
 H440 H 0.64830 0.68958 0.62484
 H441 H 0.68519 0.65700 0.62714
 C442 C 0.66822 0.14646 0.15262
 C443 C 0.66811 0.15750 0.14109
 C444 C 0.65712 0.16915 0.14091
 C445 C 0.64603 0.16991 0.15233
 C446 C 0.64620 0.15903 0.16372
 C447 C 0.65737 0.14723 0.16386
 C448 C 0.67765 0.13398 0.15567
 N449 N 0.67282 0.12712 0.16854
 C450 C 0.66039 0.13522 0.17361
 C451 C 0.63443 0.16272 0.17336
 N452 N 0.62701 0.17557 0.16814
 C453 C 0.63409 0.18004 0.15526
 C454 C 0.66016 0.17839 0.12867
 N455 N 0.67276 0.17263 0.12145
 C456 C 0.67763 0.15983 0.12904
 H457 H 0.68722 0.13013 0.14886
 H458 H 0.65412 0.13280 0.18379
 H459 H 0.63175 0.15663 0.18361
 H460 H 0.63078 0.18986 0.14841
 H461 H 0.65366 0.18856 0.12534
 H462 H 0.68769 0.15293 0.12632
 C463 C 0.16147 0.64237 0.14620
 C464 C 0.16021 0.65291 0.13429
 C465 C 0.14828 0.66356 0.13403
 C466 C 0.13754 0.66394 0.14570
 C467 C 0.13885 0.65365 0.15750
 C468 C 0.15089 0.64275 0.15773
 C469 C 0.17223 0.63117 0.14969
 N470 N 0.16849 0.62472 0.16310
 C471 C 0.15544 0.63182 0.16808
 C472 C 0.12757 0.65745 0.16766
 N473 N 0.11947 0.66983 0.16233
 C474 C 0.12552 0.67382 0.14886
 C475 C 0.15056 0.67306 0.12189
 N476 N 0.16370 0.66858 0.11479
 C477 C 0.16962 0.65616 0.12232
 H478 H 0.18203 0.62800 0.14287
 H479 H 0.14983 0.62956 0.17866
 H480 H 0.12586 0.65200 0.17844
 H481 H 0.12165 0.68335 0.14190
 H482 H 0.14330 0.68277 0.11875
 H483 H 0.18042 0.65041 0.11982
 C484 C 0.17304 0.15674 0.66033
 C485 C 0.17412 0.16742 0.64851
 C486 C 0.16349 0.17933 0.64728
 C487 C 0.15161 0.18076 0.65778
 C488 C 0.15048 0.17020 0.66936
 C489 C 0.16129 0.15813 0.67066
 C490 C 0.18203 0.14431 0.66464
 N491 N 0.17602 0.13807 0.67734
 C492 C 0.16326 0.14648 0.68102
 C493 C 0.13803 0.17453 0.67791
 N494 N 0.13154 0.18746 0.67179
 C495 C 0.13983 0.19134 0.65946
 C496 C 0.16748 0.18804 0.63501
 N497 N 0.18025 0.18169 0.62863
 C498 C 0.18437 0.16904 0.63688
 H499 H 0.19244 0.14044 0.65911
 H500 H 0.15588 0.14435 0.69054
 H501 H 0.13418 0.16883 0.68803
 H502 H 0.13741 0.20107 0.65214
 H503 H 0.16162 0.19844 0.63126
 H504 H 0.19402 0.16143 0.63458
 C505 C 0.32355 0.64396 0.34658
 C506 C 0.32262 0.65621 0.35673
 C507 C 0.33299 0.66833 0.35595
 C508 C 0.34454 0.66829 0.34488
 C509 C 0.34543 0.65610 0.33496
 C510 C 0.33490 0.64390 0.33581
 C511 C 0.31437 0.63127 0.34410
 N512 N 0.31987 0.62352 0.33202
 C513 C 0.33251 0.63119 0.32695
 C514 C 0.35703 0.65929 0.32504
 N515 N 0.36331 0.67319 0.32852
 C516 C 0.35578 0.67876 0.34073
 C517 C 0.32883 0.67873 0.36690
 N518 N 0.31622 0.67318 0.37423
 C519 C 0.31243 0.65940 0.36802
 H520 H 0.30403 0.62836 0.35025
 H521 H 0.33939 0.62797 0.31738
 H522 H 0.36056 0.65198 0.31587
 H523 H 0.35793 0.68984 0.34590
 H524 H 0.33438 0.68968 0.36912
 H525 H 0.30297 0.65207 0.37150
 C526 C 0.33822 0.15180 0.84839
 C527 C 0.34013 0.16220 0.86023
 C528 C 0.35221 0.17253 0.85994
 C529 C 0.36241 0.17279 0.84787
 C530 C 0.36051 0.16273 0.83610
 C531 C 0.34832 0.15205 0.83640
 C532 C 0.32729 0.14074 0.84545
 N533 N 0.33046 0.13420 0.83200
 C534 C 0.34330 0.14114 0.82639
 C535 C 0.37148 0.16655 0.82553
 N536 N 0.37982 0.17874 0.83066
 C537 C 0.37435 0.18248 0.84438
 C538 C 0.35077 0.18194 0.87213
 N539 N 0.33796 0.17778 0.87988
 C540 C 0.33142 0.16559 0.87270
 H541 H 0.31781 0.13762 0.85270
 H542 H 0.34849 0.13869 0.81567
 H543 H 0.37280 0.16130 0.81466
 H544 H 0.37857 0.19176 0.85131
 H545 H 0.35840 0.19138 0.87492
 H546 H 0.32070 0.16009 0.87584
 C547 C 0.82753 0.64782 0.83688
 C548 C 0.82723 0.65929 0.84784
 C549 C 0.83764 0.67136 0.84739
 C550 C 0.84869 0.67198 0.83588
 C551 C 0.84895 0.66058 0.82508
 C552 C 0.83826 0.64846 0.82554
 C553 C 0.81805 0.63548 0.83409
 N554 N 0.82261 0.62860 0.82119
 C555 C 0.83507 0.63648 0.81594
 C556 C 0.86041 0.66427 0.81513
 N557 N 0.86721 0.67767 0.81950
 C558 C 0.86006 0.68246 0.83221
 C559 C 0.83390 0.68115 0.85899
 N560 N 0.82145 0.67529 0.86635
 C561 C 0.81741 0.66187 0.85957
 H562 H 0.80835 0.63198 0.84091
 H563 H 0.84098 0.63418 0.80554
 H564 H 0.86362 0.65752 0.80547
 H565 H 0.86268 0.69296 0.83822
 H566 H 0.83951 0.69199 0.86152
 H567 H 0.80793 0.65450 0.86284
 C568 C 0.83118 0.13591 0.33783
 C569 C 0.83141 0.14717 0.34908
 C570 C 0.84398 0.15681 0.35036
 C571 C 0.85642 0.15545 0.34052
 C572 C 0.85624 0.14447 0.32939
 C573 C 0.84350 0.13455 0.32807
 C574 C 0.82032 0.12522 0.33363
 N575 N 0.82569 0.11731 0.32159
 C576 C 0.83989 0.12301 0.31813
 C577 C 0.86947 0.14661 0.32103
 N578 N 0.87757 0.15861 0.32690
 C579 C 0.86958 0.16401 0.33884
 C580 C 0.84101 0.16696 0.36172
 N581 N 0.82685 0.16384 0.36746
 C582 C 0.82089 0.15166 0.35982
 H583 H 0.80916 0.12364 0.33881
 H584 H 0.84717 0.11904 0.30912
 H585 H 0.87278 0.14006 0.31126
 H586 H 0.87273 0.17395 0.34547
 H587 H 0.84867 0.17598 0.36550
 H588 H 0.80959 0.14672 0.36162
 C589 C 0.66667 0.35517 0.34336
 C590 C 0.66827 0.34278 0.35347
 C591 C 0.65792 0.33062 0.35321
 C592 C 0.64578 0.33066 0.34280
 C593 C 0.64417 0.34297 0.33301
 C594 C 0.65463 0.35524 0.33329
 C595 C 0.67570 0.36786 0.34009
 N596 N 0.66941 0.37554 0.32823
 C597 C 0.65642 0.36789 0.32415
 C598 C 0.63220 0.33966 0.32357
 N599 N 0.62644 0.32553 0.32722
 C600 C 0.63464 0.31997 0.33908
 C601 C 0.66267 0.32005 0.36384
 N602 N 0.67559 0.32551 0.37061
 C603 C 0.67909 0.33940 0.36425
 H604 H 0.68647 0.37076 0.34547
 H605 H 0.64893 0.37103 0.31495
 H606 H 0.62816 0.34699 0.31454
 H607 H 0.63312 0.30870 0.34420
 H608 H 0.65724 0.30905 0.36622
 H609 H 0.68871 0.34666 0.36731
 C610 C 0.66927 0.86013 0.83852
 C611 C 0.67048 0.84846 0.84941
 C612 C 0.65993 0.83647 0.84977
 C613 C 0.64797 0.83600 0.83916
 C614 C 0.64679 0.84762 0.82856
 C615 C 0.65745 0.85971 0.82824
 C616 C 0.67855 0.87245 0.83474
 N617 N 0.67261 0.87948 0.82235
 C618 C 0.65961 0.87176 0.81844
 C619 C 0.63487 0.84395 0.81919
 N620 N 0.62871 0.83026 0.82369
 C621 C 0.63661 0.82535 0.83599
 C622 C 0.66433 0.82666 0.86120
 N623 N 0.67722 0.83243 0.86780
 C624 C 0.68103 0.84576 0.86057
 H625 H 0.68923 0.87554 0.84019
 H626 H 0.65233 0.87444 0.80895
 H627 H 0.63111 0.85073 0.80967
 H628 H 0.63468 0.81454 0.84185
 H629 H 0.65869 0.81596 0.86428
 H630 H 0.69069 0.85312 0.86330
 C631 C 0.17743 0.34564 0.84705
 C632 C 0.17651 0.33484 0.85879
 C633 C 0.16465 0.32424 0.85907
 C634 C 0.15362 0.32417 0.84767
 C635 C 0.15453 0.33472 0.83606
 C636 C 0.16655 0.34557 0.83575
 C637 C 0.18780 0.35716 0.84375
 N638 N 0.18357 0.36413 0.83069
 C639 C 0.17056 0.35702 0.82575
 C640 C 0.14255 0.33154 0.82645
 N641 N 0.13448 0.31929 0.83196
 C642 C 0.14122 0.31477 0.84497
 C643 C 0.16688 0.31481 0.87127
 N644 N 0.17993 0.31929 0.87844
 C645 C 0.18585 0.33162 0.87087
 H646 H 0.19761 0.36029 0.85054
 H647 H 0.16453 0.35972 0.81547
 H648 H 0.14015 0.33747 0.81602
 H649 H 0.13738 0.30534 0.85203
 H650 H 0.15952 0.30531 0.87457
 H651 H 0.19648 0.33749 0.87357
 C652 C 0.15518 0.85430 0.35511
 C653 C 0.15507 0.84195 0.36535
 C654 C 0.14402 0.83053 0.36423
 C655 C 0.13295 0.83124 0.35283
 C656 C 0.13300 0.84347 0.34285
 C657 C 0.14415 0.85507 0.34400
 C658 C 0.16526 0.86633 0.35270
 N659 N 0.16063 0.87436 0.34036
 C660 C 0.14765 0.86753 0.33505
 C661 C 0.12195 0.84054 0.33227
 N662 N 0.11524 0.82669 0.33543
 C663 C 0.12189 0.82099 0.34809
 C664 C 0.14716 0.81966 0.37509
 N665 N 0.15988 0.82415 0.38281
 C666 C 0.16480 0.83779 0.37684
 H667 H 0.17562 0.86856 0.35906
 H668 H 0.14130 0.87111 0.32522
 H669 H 0.11934 0.84783 0.32274
 H670 H 0.11954 0.80979 0.35306
 H671 H 0.14059 0.80925 0.37716
 H672 H 0.17497 0.84405 0.38025
 O673 O 0.23999 1.00879 0.27349
 O674 O 0.26212 0.97746 0.25552
 O675 O 0.26369 1.00757 0.25568
 O676 O 0.23909 0.97875 0.27409
 O677 O 0.22323 0.97919 0.25484
 O678 O 0.24770 1.00846 0.23654
 O679 O 0.24629 0.97850 0.23627
 O680 O 0.22399 1.00939 0.25436
 Cu681 Cu 0.25282 0.99307 0.26662
 Cu682 Cu 0.23368 0.99396 0.24359
 C683 C 0.22818 1.01444 0.26700
 C684 C 0.25799 0.97268 0.24275
 C685 C 0.25994 1.01297 0.24298
 C686 C 0.22700 0.97397 0.26763
 O687 O 0.27386 0.48073 0.75051
 O688 O 0.24908 0.50967 0.76908
 O689 O 0.25085 0.47944 0.76900
 O690 O 0.27256 0.51097 0.75116
 O691 O 0.25672 0.51055 0.73190
 O692 O 0.23460 0.47919 0.75006
 O693 O 0.23320 0.50939 0.74986
 O694 O 0.25775 0.48039 0.73146
 Cu695 Cu 0.26318 0.49523 0.76185
 Cu696 Cu 0.24397 0.49482 0.73891
 C697 C 0.26998 0.47555 0.73780
 C698 C 0.23697 0.51461 0.76256
 C699 C 0.23904 0.47388 0.76261
 C700 C 0.26835 0.51623 0.73853
 O701 O 0.73425 -0.02085 0.27229
 O702 O 0.71409 0.00951 0.25067
 O703 O 0.71389 -0.02075 0.25086
 O704 O 0.73493 0.00928 0.27169
 O705 O 0.75333 0.00893 0.25469
 O706 O 0.73254 -0.02130 0.23413
 O707 O 0.73263 0.00904 0.23382
 O708 O 0.75283 -0.02117 0.25548
 Cu709 Cu 0.72241 -0.00565 0.26304
 Cu710 Cu 0.74465 -0.00619 0.24282
 C711 C 0.74702 -0.02619 0.26759
 C712 C 0.71998 0.01458 0.23863
 C713 C 0.71971 -0.02628 0.23900
 C714 C 0.74773 0.01428 0.26672
 O715 O 0.73445 0.51562 0.73568
 O716 O 0.75521 0.48615 0.75778
 O717 O 0.75545 0.51620 0.75616
 O718 O 0.73382 0.48553 0.73729
 O719 O 0.75194 0.48398 0.72007
 O720 O 0.77340 0.51520 0.73874
 O721 O 0.77328 0.48520 0.74048
 O722 O 0.75224 0.51416 0.71813
 Cu723 Cu 0.74291 0.50095 0.74846
 Cu724 Cu 0.76450 0.49949 0.72758
 C725 C 0.73983 0.52001 0.72317
 C726 C 0.76792 0.48075 0.75296
 C727 C 0.76807 0.52102 0.75068
 C728 C 0.73917 0.47945 0.72549
 O729 O 0.24964 0.48513 0.26584
 O730 O 0.22518 0.51462 0.24722
 O731 O 0.22574 0.48436 0.24823
 O732 O 0.24822 0.51509 0.26591
 O733 O 0.26434 0.51530 0.24686
 O734 O 0.24136 0.48478 0.22881
 O735 O 0.24144 0.51496 0.22828
 O736 O 0.26524 0.48517 0.24638
 Cu737 Cu 0.23556 0.49976 0.25870
 Cu738 Cu 0.25466 0.50006 0.23564
 C739 C 0.26165 0.48012 0.25923
 C740 C 0.22932 0.51997 0.23459
 C741 C 0.22967 0.47926 0.23553
 C742 C 0.26014 0.52042 0.25952
 O743 O 0.73446 0.99074 0.74993
 O744 O 0.75283 1.02048 0.72662
 O745 O 0.75536 0.99051 0.72926
 O746 O 0.73241 1.02076 0.74801
 O747 O 0.75075 1.02298 0.76491
 O748 O 0.77379 0.99318 0.74601
 O749 O 0.77103 1.02318 0.74361
 O750 O 0.75281 0.99306 0.76682
 Cu751 Cu 0.74193 1.00539 0.73675
 Cu752 Cu 0.76396 1.00836 0.75700
 C753 C 0.74046 0.98674 0.76230
 C754 C 0.76504 1.02700 0.73116
 C755 C 0.76848 0.98663 0.73446
 C756 C 0.73767 1.02700 0.75976
 O757 O 0.73094 0.48883 0.25828
 O758 O 0.75132 0.51743 0.23500
 O759 O 0.75242 0.48738 0.23823
 O760 O 0.72971 0.51883 0.25517
 O761 O 0.74760 0.52154 0.27245
 O762 O 0.77001 0.48951 0.25589
 O763 O 0.76927 0.51935 0.25235
 O764 O 0.74840 0.49144 0.27598
 Cu765 Cu 0.73932 0.50291 0.24492
 Cu766 Cu 0.76056 0.50574 0.26595
 C767 C 0.73620 0.48516 0.27106
 C768 C 0.76389 0.52318 0.23966
 C769 C 0.76501 0.48296 0.24419
 C770 C 0.73481 0.52565 0.26667
 O771 O 0.27368 0.02117 0.75382
 O772 O 0.25041 -0.00864 0.73521
 O773 O 0.25265 0.02135 0.73299
 O774 O 0.27135 -0.00888 0.75599
 O775 O 0.25329 -0.00608 0.77311
 O776 O 0.23459 0.02410 0.75012
 O777 O 0.23233 -0.00598 0.75233
 O778 O 0.25551 0.02398 0.77084
 Cu779 Cu 0.26384 0.00599 0.74280
 Cu780 Cu 0.24212 0.00927 0.76331
 C781 C 0.26854 0.02775 0.76547
 C782 C 0.23742 -0.01249 0.74063
 C783 C 0.24045 0.02795 0.73766
 C784 C 0.26547 -0.01272 0.76846
 O785 O 0.26028 0.27114 0.99191
 O786 O 0.28111 0.24990 1.02133
 O787 O 0.28031 0.24864 0.99220
 O788 O 0.25989 0.27146 1.02090
 O789 O 0.24141 0.25398 1.02124
 O790 O 0.26203 0.23099 0.99329
 O791 O 0.26248 0.23262 1.02227
 O792 O 0.24200 0.25346 0.99215
 Cu793 Cu 0.27227 0.26202 1.00654
 Cu794 Cu 0.25013 0.24102 1.00730
 C795 C 0.24765 0.26591 0.98690
 C796 C 0.27532 0.23772 1.02696
 C797 C 0.27460 0.23590 0.98783
 C798 C 0.24708 0.26656 1.02595
 O799 O 0.24344 0.76944 0.49157
 O800 O 0.26491 0.74549 0.51871
 O801 O 0.26528 0.74869 0.48977
 O802 O 0.24371 0.76657 0.52057
 O803 O 0.22588 0.74853 0.51897
 O804 O 0.24754 0.73058 0.48797
 O805 O 0.24726 0.72727 0.51696
 O806 O 0.22582 0.75118 0.48989
 Cu807 Cu 0.25610 0.75937 0.50530
 Cu808 Cu 0.23485 0.73757 0.50330
 C809 C 0.23100 0.76432 0.48599
 C810 C 0.25970 0.73233 0.52256
 C811 C 0.26009 0.73663 0.48352
 C812 C 0.23121 0.76060 0.52515
 O813 O 0.27365 0.74397 -0.01866
 O814 O 0.25200 0.72111 0.00903
 O815 O 0.25304 0.72209 -0.01991
 O816 O 0.27293 0.74259 0.01026
 O817 O 0.25454 0.76033 0.01039
 O818 O 0.23470 0.73989 -0.02009
 O819 O 0.23366 0.73892 0.00899
 O820 O 0.25523 0.76169 -0.01870
 Cu821 Cu 0.26475 0.73066 -0.00484
 Cu822 Cu 0.24268 0.75199 -0.00486
 C823 C 0.26815 0.75675 -0.02340
 C824 C 0.23912 0.72615 0.01379
 C825 C 0.24048 0.72744 -0.02518
 C826 C 0.26715 0.75494 0.01553
 O827 O 0.27105 0.25503 0.48385
 O828 O 0.24820 0.23723 0.51376
 O829 O 0.24782 0.23601 0.48461
 O830 O 0.27025 0.25733 0.51284
 O831 O 0.25368 0.27672 0.51114
 O832 O 0.23094 0.25519 0.48377
 O833 O 0.23150 0.25657 0.51270
 O834 O 0.25411 0.27411 0.48215
 Cu835 Cu 0.26100 0.24446 0.49887
 Cu836 Cu 0.24091 0.26760 0.49731
 C837 C 0.26648 0.26755 0.47779
 C838 C 0.23607 0.24387 0.51848
 C839 C 0.23548 0.24199 0.47941
 C840 C 0.26572 0.27071 0.51684
 O841 O 0.74771 0.77207 0.98024
 O842 O 0.76900 0.75060 1.00975
 O843 O 0.77017 0.75193 0.98062
 O844 O 0.74794 0.77223 1.00940
 O845 O 0.73080 0.75344 1.00970
 O846 O 0.75220 0.73399 0.97933
 O847 O 0.75183 0.73189 1.00835
 O848 O 0.72978 0.75403 0.98064
 Cu849 Cu 0.76046 0.76354 0.99506
 Cu850 Cu 0.73942 0.74151 0.99446
 C851 C 0.73500 0.76667 0.97548
 C852 C 0.76401 0.73745 1.01399
 C853 C 0.76493 0.73965 0.97484
 C854 C 0.73573 0.76628 1.01466
 O855 O 0.74871 0.25891 0.47762
 O856 O 0.77101 0.23870 0.50698
 O857 O 0.76890 0.23667 0.47786
 O858 O 0.75084 0.26109 0.50649
 O859 O 0.73240 0.24381 0.50930
 O860 O 0.75012 0.21967 0.48010
 O861 O 0.75251 0.22138 0.50905
 O862 O 0.72988 0.24204 0.48036
 Cu863 Cu 0.76177 0.25052 0.49200
 Cu864 Cu 0.73936 0.23001 0.49496
 C865 C 0.73546 0.25394 0.47398
 C866 C 0.76553 0.22659 0.51307
 C867 C 0.76252 0.22413 0.47390
 C868 C 0.73857 0.25659 0.51288
 O869 O 0.77412 0.25321 -0.01324
 O870 O 0.75020 0.23572 0.01633
 O871 O 0.75012 0.23521 -0.01266
 O872 O 0.77404 0.25405 0.01597
 O873 O 0.75828 0.27418 0.01563
 O874 O 0.73489 0.25574 -0.01338
 O875 O 0.73463 0.25600 0.01572
 O876 O 0.75889 0.27375 -0.01343
 Cu877 Cu 0.76370 0.24252 0.00165
 Cu878 Cu 0.74514 0.26696 0.00105
 C879 C 0.77057 0.26648 -0.01841
 C880 C 0.73832 0.24284 0.02107
 C881 C 0.73843 0.24229 -0.01795
 C882 C 0.77010 0.26729 0.02084
 O883 O 0.77354 0.75150 0.48360
 O884 O 0.75564 0.72904 0.51428
 O885 O 0.75393 0.72884 0.48535
 O886 O 0.77660 0.75063 0.51261
 O887 O 0.75786 0.76789 0.51441
 O888 O 0.73541 0.74641 0.48644
 O889 O 0.73701 0.74649 0.51546
 O890 O 0.75507 0.76904 0.48552
 Cu891 Cu 0.76682 0.73828 0.49882
 Cu892 Cu 0.74448 0.75919 0.50061
 C893 C 0.76731 0.76415 0.47934
 C894 C 0.74316 0.73398 0.52007
 C895 C 0.74085 0.73388 0.48116
 C896 C 0.77110 0.76290 0.51828
 O897 O 1.01357 0.26615 0.25160
 O898 O 0.98463 0.24041 0.26910
 O899 O 1.01467 0.24234 0.26949
 O900 O 0.98353 0.26511 0.25217
 O901 O 0.98391 0.24978 0.23257
 O902 O 1.01556 0.22705 0.24988
 O903 O 0.98547 0.22530 0.24935
 O904 O 1.01396 0.25090 0.23196
 Cu905 Cu 0.99902 0.25500 0.26257
 Cu906 Cu 0.99983 0.23674 0.23898
 C907 C 1.01869 0.26286 0.23869
 C908 C 0.98005 0.22849 0.26212
 C909 C 1.02054 0.23088 0.26269
 C910 C 0.97833 0.26136 0.23946
 O911 O 0.49277 0.25561 0.73126
 O912 O 0.52273 0.23229 0.75020
 O913 O 0.49264 0.23229 0.74982
 O914 O 0.52271 0.25534 0.73128
 O915 O 0.52291 0.27160 0.75018
 O916 O 0.49232 0.24891 0.76843
 O917 O 0.52237 0.24858 0.76906
 O918 O 0.49281 0.27209 0.74999
 Cu919 Cu 0.50775 0.24222 0.73877
 Cu920 Cu 0.50762 0.26193 0.76130
 C921 C 0.48766 0.26784 0.73740
 C922 C 0.52766 0.23645 0.76291
 C923 C 0.48721 0.23676 0.76225
 C924 C 0.52796 0.26738 0.73752
 O925 O -0.01392 0.27665 0.75502
 O926 O 0.01650 0.25741 0.73253
 O927 O -0.01353 0.25899 0.73152
 O928 O 0.01612 0.27760 0.75404
 O929 O 0.01660 0.25767 0.76953
 O930 O -0.01402 0.23913 0.74708
 O931 O 0.01575 0.23756 0.74812
 O932 O -0.01355 0.25686 0.77067
 Cu933 Cu 0.00129 0.26965 0.74176
 Cu934 Cu 0.00114 0.24588 0.76044
 C935 C -0.01888 0.26996 0.76678
 C936 C 0.02118 0.24401 0.73654
 C937 C -0.01883 0.24590 0.73529
 C938 C 0.02161 0.27088 0.76549
 O939 O 0.51442 0.24172 0.27464
 O940 O 0.48391 0.22316 0.25242
 O941 O 0.51402 0.22204 0.25266
 O942 O 0.48439 0.24284 0.27432
 O943 O 0.48487 0.26192 0.25787
 O944 O 0.51503 0.24147 0.23662
 O945 O 0.48502 0.24222 0.23597
 O946 O 0.51500 0.26103 0.25844
 Cu947 Cu 0.49911 0.23049 0.26512
 Cu948 Cu 0.50004 0.25361 0.24562
 C949 C 0.51995 0.25457 0.27029
 C950 C 0.47927 0.22950 0.24038
 C951 C 0.51969 0.22823 0.24100
 C952 C 0.47948 0.25591 0.26974
 O953 O 0.98532 0.75812 0.73343
 O954 O 1.01428 0.73560 0.75479
 O955 O 0.98412 0.73769 0.75466
 O956 O 1.01536 0.75575 0.73302
 O957 O 1.01701 0.77434 0.74972
 O958 O 0.98530 0.75647 0.77120
 O959 O 1.01528 0.75430 0.77141
 O960 O 0.98697 0.77697 0.74984
 Cu961 Cu 0.99966 0.74490 0.74233
 Cu962 Cu 1.00129 0.76740 0.76218
 C963 C 0.98115 0.77139 0.73804
 C964 C 1.01973 0.74114 0.76680
 C965 C 0.97922 0.74404 0.76652
 C966 C 1.02161 0.76808 0.73769
 O967 O 0.47800 0.75237 0.27476
 O968 O 0.50754 0.77235 0.25270
 O969 O 0.47753 0.77288 0.25323
 O970 O 0.50804 0.75052 0.27270
 O971 O 0.50624 0.73224 0.25571
 O972 O 0.47644 0.75468 0.23611
 O973 O 0.50657 0.75411 0.23561
 O974 O 0.47623 0.73434 0.25753
 Cu975 Cu 0.49289 0.76382 0.26508
 Cu976 Cu 0.49123 0.74203 0.24454
 C977 C 0.47193 0.74005 0.26992
 C978 C 0.51225 0.76667 0.24049
 C979 C 0.47178 0.76752 0.24127
 C980 C 0.51239 0.73755 0.26744
 O981 O 0.01172 0.73964 0.27233
 O982 O -0.01894 0.72301 0.24884
 O983 O 0.01105 0.72032 0.24997
 O984 O -0.01811 0.74135 0.27163
 O985 O -0.01646 0.76120 0.25612
 O986 O 0.01302 0.74014 0.23448
 O987 O -0.01684 0.74274 0.23323
 O988 O 0.01345 0.75935 0.25666
 Cu989 Cu -0.00372 0.72905 0.26222
 Cu990 Cu -0.00152 0.75284 0.24356
 C991 C 0.01773 0.75246 0.26852
 C992 C -0.02315 0.73009 0.23703
 C993 C 0.01705 0.72659 0.23854
 C994 C -0.02228 0.75486 0.26765
 O995 O 0.51431 0.74660 0.77690
 O996 O 0.48431 0.72544 0.75676
 O997 O 0.51430 0.72539 0.75615
 O998 O 0.48420 0.74840 0.77560
 O999 O 0.48542 0.76586 0.75759
 O1000 O 0.51455 0.74299 0.73821
 O1001 O 0.48456 0.74304 0.73882
 O1002 O 0.51537 0.76393 0.75875
 Cu1003 Cu 0.49922 0.73474 0.76818
 Cu1004 Cu 0.50002 0.75569 0.74657
 C1005 C 0.52010 0.75877 0.77128
 C1006 C 0.47927 0.73055 0.74438
 C1007 C 0.51951 0.73038 0.74374
 C1008 C 0.47971 0.76115 0.76981
 C1009 C 0.40211 0.31971 0.29570
 C1010 C 0.41144 0.30821 0.30258
 C1011 C 0.40813 0.30427 0.31762
 C1012 C 0.39636 0.31199 0.32547
 C1013 C 0.38742 0.32356 0.31855
 C1014 C 0.39036 0.32718 0.30355
 C1015 C 0.41657 0.29263 0.32479
 C1016 C 0.42812 0.28460 0.31732
 C1017 C 0.43193 0.28809 0.30236
 C1018 C 0.42377 0.30041 0.29501
 C1019 C 0.42837 0.30471 0.28046
 C1020 C 0.44025 0.29704 0.27316
 C1021 C 0.44791 0.28463 0.27991
 C1022 C 0.44380 0.27982 0.29454
 C1023 C 0.45165 0.26681 0.30061
 C1024 C 0.46315 0.25914 0.29257
 C1025 C 0.46733 0.26415 0.27825
 C1026 C 0.45965 0.27695 0.27201
 H1027 H 0.40334 0.32303 0.28416
 H1028 H 0.39431 0.30907 0.33707
 H1029 H 0.38341 0.33569 0.29771
 H1030 H 0.41415 0.28960 0.33631
 H1031 H 0.43408 0.27587 0.32376
 H1032 H 0.42322 0.31423 0.27442
 H1033 H 0.44341 0.30082 0.26201
 H1034 H 0.44902 0.26206 0.31145
 H1035 H 0.46882 0.24922 0.29764
 H1036 H 0.46265 0.28084 0.26086
 C1037 C 0.40172 0.79480 0.82737
 C1038 C 0.41081 0.80034 0.81541
 C1039 C 0.40704 0.81512 0.80947
 C1040 C 0.39476 0.82386 0.81534
 C1041 C 0.38573 0.81825 0.82725
 C1042 C 0.38953 0.80353 0.83312
 C1043 C 0.41554 0.82119 0.79763
 C1044 C 0.42758 0.81285 0.79134
 C1045 C 0.43172 0.79798 0.79669
 C1046 C 0.42336 0.79171 0.80908
 C1047 C 0.42783 0.77705 0.81473
 C1048 C 0.43980 0.76864 0.80834
 C1049 C 0.44781 0.77441 0.79604
 C1050 C 0.44393 0.78916 0.79003
 C1051 C 0.45235 0.79438 0.77746
 C1052 C 0.46394 0.78531 0.77116
 C1053 C 0.46768 0.77072 0.77709
 C1054 C 0.45962 0.76539 0.78964
 H1055 H 0.40354 0.78364 0.83251
 H1056 H 0.39254 0.83517 0.81058
 H1057 H 0.38298 0.79832 0.84205
 H1058 H 0.41280 0.83253 0.79308
 H1059 H 0.43345 0.81853 0.78227
 H1060 H 0.42233 0.77165 0.82417
 H1061 H 0.44275 0.75742 0.81304
 H1062 H 0.45022 0.80532 0.77204
 H1063 H 0.46997 0.78979 0.76148
 H1064 H 0.46238 0.75410 0.79431
 C1065 C -0.09595 0.33055 0.79937
 C1066 C -0.08728 0.31781 0.80471
 C1067 C -0.09162 0.31132 0.81864
 C1068 C -0.10396 0.31764 0.82691
 C1069 C -0.11247 0.33047 0.82154
 C1070 C -0.10815 0.33667 0.80755
 C1071 C -0.08368 0.29847 0.82425
 C1072 C -0.07169 0.29173 0.81625
 C1073 C -0.06697 0.29771 0.80227
 C1074 C -0.07464 0.31122 0.79660
 C1075 C -0.06934 0.31775 0.78305
 C1076 C -0.05735 0.31110 0.77506
 C1077 C -0.05014 0.29762 0.78012
 C1078 C -0.05481 0.29069 0.79379
 C1079 C -0.04720 0.27688 0.79825
 C1080 C -0.03556 0.27035 0.78952
 C1081 C -0.03101 0.27729 0.77605
 C1082 C -0.03831 0.29100 0.77148
 H1083 H -0.09384 0.33598 0.78874
 H1084 H -0.10674 0.31241 0.83754
 H1085 H -0.11420 0.34627 0.80246
 H1086 H -0.08685 0.29345 0.83493
 H1087 H -0.06624 0.28188 0.82148
 H1088 H -0.07410 0.32820 0.77829
 H1089 H -0.05374 0.31653 0.76470
 H1090 H -0.05008 0.27065 0.80829
 H1091 H -0.03016 0.25972 0.79336
 H1092 H -0.03494 0.29645 0.76106
 C1093 C -0.09065 0.82493 0.30128
 C1094 C -0.08497 0.81013 0.30542
 C1095 C -0.09172 0.80292 0.31804
 C1096 C -0.10384 0.81008 0.32582
 C1097 C -0.10986 0.82454 0.32127
 C1098 C -0.10278 0.83191 0.30901
 C1099 C -0.08654 0.78842 0.32279
 C1100 C -0.07502 0.78066 0.31511
 C1101 C -0.06815 0.78709 0.30222
 C1102 C -0.07302 0.80220 0.29742
 C1103 C -0.06591 0.80876 0.28470
 C1104 C -0.05464 0.80081 0.27680
 C1105 C -0.05001 0.78599 0.28113
 C1106 C -0.05664 0.77889 0.29391
 C1107 C -0.05156 0.76376 0.29771
 C1108 C -0.04047 0.75612 0.28919
 C1109 C -0.03399 0.76319 0.27659
 C1110 C -0.03880 0.77818 0.27265
 H1111 H -0.08608 0.83145 0.29203
 H1112 H -0.10879 0.80389 0.33514
 H1113 H -0.10642 0.84324 0.30522
 H1114 H -0.09156 0.78289 0.33253
 H1115 H -0.07181 0.76953 0.31963
 H1116 H -0.06881 0.82008 0.28046
 H1117 H -0.04958 0.80632 0.26707
 H1118 H -0.05596 0.75737 0.30712
 H1119 H -0.03699 0.74455 0.29253
 H1120 H -0.03387 0.78378 0.26291
 C1121 C 0.59625 0.71172 0.32067
 C1122 C 0.58561 0.70424 0.31119
 C1123 C 0.58844 0.68847 0.30772
 C1124 C 0.60103 0.68048 0.31409
 C1125 C 0.61110 0.68797 0.32389
 C1126 C 0.60869 0.70370 0.32687
 C1127 C 0.57864 0.68073 0.29798
 C1128 C 0.56615 0.68829 0.29144
 C1129 C 0.56274 0.70395 0.29461
 C1130 C 0.57239 0.71192 0.30497
 C1131 C 0.56837 0.72722 0.30897
 C1132 C 0.55568 0.73467 0.30276
 C1133 C 0.54654 0.72732 0.29220
 C1134 C 0.54992 0.71189 0.28788
 C1135 C 0.54043 0.70516 0.27684
 C1136 C 0.52822 0.71344 0.27043
 C1137 C 0.52493 0.72865 0.27481
 C1138 C 0.53409 0.73546 0.28582
 H1139 H 0.59547 0.72382 0.32339
 H1140 H 0.60281 0.66832 0.31165
 H1141 H 0.61658 0.70996 0.33397
 H1142 H 0.58070 0.66866 0.29530
 H1143 H 0.55920 0.68137 0.28412
 H1144 H 0.57465 0.73375 0.31714
 H1145 H 0.55308 0.74641 0.30620
 H1146 H 0.54226 0.69365 0.27264
 H1147 H 0.52136 0.70789 0.26190
 H1148 H 0.53175 0.74727 0.28921
 C1149 C 0.59610 0.20107 0.83029
 C1150 C 0.59143 0.19755 0.81559
 C1151 C 0.59905 0.18514 0.80837
 C1152 C 0.61108 0.17700 0.81550
 C1153 C 0.61596 0.18084 0.83003
 C1154 C 0.60804 0.19293 0.83729
 C1155 C 0.59473 0.18092 0.79397
 C1156 C 0.58301 0.18876 0.78649
 C1157 C 0.57515 0.20134 0.79308
 C1158 C 0.57950 0.20589 0.80784
 C1159 C 0.57195 0.21874 0.81428
 C1160 C 0.56054 0.22686 0.80666
 C1161 C 0.55609 0.22253 0.79236
 C1162 C 0.56319 0.20965 0.78534
 C1163 C 0.55799 0.20571 0.77086
 C1164 C 0.54647 0.21433 0.76369
 C1165 C 0.53969 0.22716 0.77063
 C1166 C 0.54455 0.23112 0.78502
 H1167 H 0.59074 0.21001 0.83684
 H1168 H 0.61668 0.16782 0.80938
 H1169 H 0.61079 0.19627 0.84856
 H1170 H 0.60049 0.17142 0.78837
 H1171 H 0.58055 0.18471 0.77541
 H1172 H 0.57468 0.22304 0.82520
 H1173 H 0.55515 0.23671 0.81206
 H1174 H 0.56251 0.19602 0.76472
 H1175 H 0.54291 0.21094 0.75259
 H1176 H 0.53934 0.24097 0.79057
 C1177 C 1.09517 0.67512 0.79439
 C1178 C 1.08690 0.68776 0.80049
 C1179 C 1.09157 0.69311 0.81468
 C1180 C 1.10401 0.68616 0.82225
 C1181 C 1.11244 0.67379 0.81599
 C1182 C 1.10760 0.66833 0.80197
 C1183 C 1.08389 0.70550 0.82132
 C1184 C 1.07189 0.71304 0.81405
 C1185 C 1.06696 0.70846 0.79973
 C1186 C 1.07432 0.69537 0.79297
 C1187 C 1.06889 0.69037 0.77894
 C1188 C 1.05698 0.69808 0.77159
 C1189 C 1.05005 0.71115 0.77777
 C1190 C 1.05491 0.71656 0.79193
 C1191 C 1.04766 0.73006 0.79755
 C1192 C 1.03622 0.73778 0.78944
 C1193 C 1.03149 0.73240 0.77547
 C1194 C 1.03838 0.71896 0.76976
 H1195 H 1.09254 0.67031 0.78364
 H1196 H 1.10689 0.69053 0.83316
 H1197 H 1.11354 0.65898 0.79643
 H1198 H 1.08731 0.70954 0.83226
 H1199 H 1.06666 0.72244 0.82008
 H1200 H 1.07357 0.68045 0.77328
 H1201 H 1.05327 0.69383 0.76081
 H1202 H 1.05068 0.73518 0.80806
 H1203 H 1.03113 0.74814 0.79415
 H1204 H 1.03488 0.71471 0.75892
 C1205 C 1.09571 0.20118 0.32569
 C1206 C 1.08943 0.19619 0.31198
 C1207 C 1.09637 0.18316 0.30515
 C1208 C 1.10896 0.17549 0.31190
 C1209 C 1.11515 0.18054 0.32560
 C1210 C 1.10822 0.19356 0.33228
 C1211 C 1.09077 0.17782 0.29153
 C1212 C 1.07846 0.18514 0.28445
 C1213 C 1.07111 0.19818 0.29075
 C1214 C 1.07660 0.20371 0.30483
 C1215 C 1.06908 0.21657 0.31130
 C1216 C 1.05678 0.22389 0.30428
 C1217 C 1.05143 0.21881 0.29051
 C1218 C 1.05844 0.20590 0.28348
 C1219 C 1.05247 0.20137 0.26943
 C1220 C 1.04018 0.20937 0.26276
 C1221 C 1.03337 0.22213 0.26980
 C1222 C 1.03908 0.22670 0.28373
 H1223 H 1.09130 0.21099 0.33172
 H1224 H 1.11400 0.16575 0.30614
 H1225 H 1.11212 0.19794 0.34288
 H1226 H 1.09601 0.16784 0.28622
 H1227 H 1.07495 0.18019 0.27400
 H1228 H 1.07234 0.22133 0.32190
 H1229 H 1.05142 0.23373 0.30971
 H1230 H 1.05706 0.19176 0.26322
 H1231 H 1.03603 0.20558 0.25199
 H1232 H 1.03395 0.23657 0.28933
 C1233 C 0.59227 0.30611 0.66862
 C1234 C 0.59019 0.30696 0.68426
 C1235 C 0.60070 0.31613 0.69246
 C1236 C 0.61329 0.32324 0.68532
 C1237 C 0.61560 0.32157 0.66993
 C1238 C 0.60475 0.31325 0.66166
 C1239 C 0.59876 0.31796 0.70780
 C1240 C 0.58666 0.31082 0.71526
 C1241 C 0.57612 0.30121 0.70770
 C1242 C 0.57812 0.29900 0.69199
 C1243 C 0.56831 0.28853 0.68460
 C1244 C 0.55691 0.28053 0.69221
 C1245 C 0.55459 0.28279 0.70742
 C1246 C 0.56391 0.29337 0.71538
 C1247 C 0.56057 0.29561 0.73070
 C1248 C 0.54882 0.28733 0.73780
 C1249 C 0.54007 0.27650 0.72994
 C1250 C 0.54297 0.27439 0.71471
 H1251 H 0.58442 0.30013 0.66137
 H1252 H 0.62153 0.32968 0.69187
 H1253 H 0.60589 0.31224 0.64968
 H1254 H 0.60673 0.32498 0.71414
 H1255 H 0.58616 0.31274 0.72711
 H1256 H 0.56940 0.28584 0.67293
 H1257 H 0.54981 0.27244 0.68608
 H1258 H 0.56667 0.30378 0.73752
 H1259 H 0.54672 0.28930 0.74955
 H1260 H 0.53609 0.26623 0.70846
 C1261 C 0.58932 0.78961 0.17714
 C1262 C 0.58167 0.79649 0.18937
 C1263 C 0.58734 0.81087 0.19447
 C1264 C 0.60011 0.81791 0.18760
 C1265 C 0.60777 0.81093 0.17547
 C1266 C 0.60201 0.79666 0.17039
 C1267 C 0.58028 0.81823 0.20649
 C1268 C 0.56783 0.81157 0.21377
 C1269 C 0.56183 0.79714 0.20932
 C1270 C 0.56872 0.78956 0.19677
 C1271 C 0.56245 0.77532 0.19209
 C1272 C 0.55013 0.76854 0.19952
 C1273 C 0.54352 0.77558 0.21194
 C1274 C 0.54920 0.79000 0.21702
 C1275 C 0.54208 0.79657 0.22974
 C1276 C 0.53007 0.78904 0.23710
 C1277 C 0.52460 0.77474 0.23211
 C1278 C 0.53131 0.76814 0.21941
 H1279 H 0.58596 0.77865 0.17254
 H1280 H 0.60381 0.82899 0.19177
 H1281 H 0.60738 0.79050 0.16131
 H1282 H 0.58449 0.82929 0.21040
 H1283 H 0.56319 0.81813 0.22291
 H1284 H 0.56679 0.76901 0.18265
 H1285 H 0.54580 0.75755 0.19553
 H1286 H 0.54558 0.80742 0.23447
 H1287 H 0.52510 0.79447 0.24687
 H1288 H 0.52721 0.75706 0.21543
 C1289 C 1.08697 0.30066 0.17297
 C1290 C 1.08198 0.30401 0.18762
 C1291 C 1.08966 0.31602 0.19530
 C1292 C 1.10208 0.32394 0.18862
 C1293 C 1.10739 0.32001 0.17425
 C1294 C 1.09935 0.30842 0.16652
 C1295 C 1.08509 0.31994 0.20972
 C1296 C 1.07323 0.31204 0.21686
 C1297 C 1.06542 0.29975 0.20984
 C1298 C 1.06979 0.29576 0.19492
 C1299 C 1.06201 0.28348 0.18786
 C1300 C 1.05057 0.27521 0.19511
 C1301 C 1.04632 0.27878 0.20967
 C1302 C 1.05351 0.29116 0.21728
 C1303 C 1.04853 0.29423 0.23206
 C1304 C 1.03716 0.28521 0.23893
 C1305 C 1.03035 0.27285 0.23137
 C1306 C 1.03495 0.26983 0.21668
 H1307 H 1.08163 0.29205 0.16608
 H1308 H 1.10790 0.33273 0.19503
 H1309 H 1.10233 0.30533 0.15521
 H1310 H 1.09084 0.32917 0.21566
 H1311 H 1.07057 0.31580 0.22800
 H1312 H 1.06455 0.27975 0.17669
 H1313 H 1.04505 0.26579 0.18924
 H1314 H 1.05322 0.30344 0.23868
 H1315 H 1.03381 0.28785 0.25028
 H1316 H 1.02971 0.26036 0.21064
 C1317 C 1.10540 0.82247 0.71131
 C1318 C 1.09480 0.81230 0.70447
 C1319 C 1.09757 0.80819 0.68940
 C1320 C 1.11009 0.81453 0.68149
 C1321 C 1.12028 0.82485 0.68836
 C1322 C 1.11784 0.82858 0.70339
 C1323 C 1.08782 0.79780 0.68227
 C1324 C 1.07546 0.79117 0.68978
 C1325 C 1.07214 0.79489 0.70477
 C1326 C 1.08171 0.80598 0.71210
 C1327 C 1.07773 0.81056 0.72672
 C1328 C 1.06511 0.80430 0.73408
 C1329 C 1.05603 0.79307 0.72733
 C1330 C 1.05944 0.78806 0.71264
 C1331 C 1.05009 0.77627 0.70655
 C1332 C 1.03787 0.76992 0.71466
 C1333 C 1.03444 0.77509 0.72907
 C1334 C 1.04356 0.78674 0.73531
 H1335 H 1.10461 0.82577 0.72286
 H1336 H 1.11174 0.81154 0.66987
 H1337 H 1.12572 0.83612 0.70920
 H1338 H 1.08982 0.79465 0.67073
 H1339 H 1.06852 0.78334 0.68335
 H1340 H 1.08399 0.81925 0.73276
 H1341 H 1.06251 0.80824 0.74527
 H1342 H 1.05202 0.77146 0.69564
 H1343 H 1.03107 0.76087 0.70957
 H1344 H 1.04114 0.79073 0.74652
 C1345 C 0.39984 0.70446 0.68582
 C1346 C 0.41024 0.69693 0.69565
 C1347 C 0.40792 0.68094 0.69853
 C1348 C 0.39612 0.67281 0.69120
 C1349 C 0.38621 0.68040 0.68115
 C1350 C 0.38809 0.69634 0.67877
 C1351 C 0.41738 0.67314 0.70868
 C1352 C 0.42896 0.68088 0.71628
 C1353 C 0.43183 0.69677 0.71375
 C1354 C 0.42268 0.70477 0.70285
 C1355 C 0.42646 0.72025 0.69928
 C1356 C 0.43842 0.72783 0.70642
 C1357 C 0.44695 0.72046 0.71758
 C1358 C 0.44369 0.70489 0.72156
 C1359 C 0.45233 0.69820 0.73338
 C1360 C 0.46378 0.70656 0.74069
 C1361 C 0.46714 0.72182 0.73647
 C1362 C 0.45869 0.72867 0.72485
 H1363 H 0.40021 0.71672 0.68356
 H1364 H 0.39480 0.66051 0.69323
 H1365 H 0.38031 0.70272 0.67156
 H1366 H 0.41572 0.66091 0.71090
 H1367 H 0.43576 0.67392 0.72385
 H1368 H 0.42061 0.72678 0.69070
 H1369 H 0.44093 0.73969 0.70323
 H1370 H 0.45033 0.68664 0.73749
 H1371 H 0.47007 0.70099 0.74969
 H1372 H 0.46106 0.74054 0.72161
 C1373 C 0.39920 0.17139 0.21164
 C1374 C 0.40952 0.18211 0.20510
 C1375 C 0.40708 0.18622 0.18994
 C1376 C 0.39516 0.17939 0.18166
 C1377 C 0.38520 0.16859 0.18827
 C1378 C 0.38730 0.16481 0.20337
 C1379 C 0.41655 0.19714 0.18307
 C1380 C 0.42828 0.20432 0.19094
 C1381 C 0.43124 0.20064 0.20605
 C1382 C 0.42202 0.18899 0.21311
 C1383 C 0.42576 0.18442 0.22783
 C1384 C 0.43780 0.19123 0.23556
 C1385 C 0.44648 0.20302 0.22909
 C1386 C 0.44326 0.20805 0.21431
 C1387 C 0.45212 0.22044 0.20851
 C1388 C 0.46373 0.22731 0.21697
 C1389 C 0.46701 0.22207 0.23145
 C1390 C 0.45834 0.20988 0.23741
 H1391 H 0.39976 0.16803 0.22322
 H1392 H 0.39377 0.18241 0.17000
 H1393 H 0.37957 0.15688 0.20896
 H1394 H 0.41479 0.20028 0.17145
 H1395 H 0.43505 0.21252 0.18471
 H1396 H 0.41979 0.17533 0.23368
 H1397 H 0.44027 0.18727 0.24682
 H1398 H 0.45023 0.22534 0.19758
 H1399 H 0.47019 0.23678 0.21210
 H1400 H 0.46064 0.20584 0.24867
 C1401 C -0.10730 0.68009 0.20565
 C1402 C -0.09570 0.68959 0.19938
 C1403 C -0.09728 0.69396 0.18418
 C1404 C -0.10960 0.68840 0.17557
 C1405 C -0.12078 0.67868 0.18188
 C1406 C -0.11956 0.67479 0.19704
 C1407 C -0.08656 0.70385 0.17762
 C1408 C -0.07441 0.70979 0.18586
 C1409 C -0.07227 0.70578 0.20103
 C1410 C -0.08276 0.69505 0.20773
 C1411 C -0.07982 0.68992 0.22245
 C1412 C -0.06737 0.69542 0.23055
 C1413 C -0.05751 0.70647 0.22445
 C1414 C -0.05987 0.71196 0.20967
 C1415 C -0.04985 0.72362 0.20428
 C1416 C -0.03798 0.72937 0.21315
 C1417 C -0.03557 0.72368 0.22763
 C1418 C -0.04535 0.71215 0.23317
 H1419 H -0.10746 0.67679 0.21726
 H1420 H -0.11034 0.69152 0.16387
 H1421 H -0.12825 0.66775 0.20242
 H1422 H -0.08764 0.70717 0.16597
 H1423 H -0.06664 0.71727 0.17986
 H1424 H -0.08674 0.68131 0.22800
 H1425 H -0.06555 0.69109 0.24179
 H1426 H -0.05106 0.72883 0.19339
 H1427 H -0.03064 0.73835 0.20861
 H1428 H -0.04371 0.70780 0.24444
 C1429 C -0.08327 0.17796 0.69302
 C1430 C -0.07885 0.19354 0.69094
 C1431 C -0.08600 0.20194 0.67917
 C1432 C -0.09765 0.19515 0.67046
 C1433 C -0.10269 0.17995 0.67334
 C1434 C -0.09491 0.17140 0.68448
 C1435 C -0.08175 0.21721 0.67633
 C1436 C -0.07074 0.22449 0.68505
 C1437 C -0.06356 0.21680 0.69718
 C1438 C -0.06769 0.20105 0.70018
 C1439 C -0.06078 0.19345 0.71250
 C1440 C -0.05019 0.20086 0.72155
 C1441 C -0.04598 0.21614 0.71877
 C1442 C -0.05252 0.22435 0.70652
 C1443 C -0.04770 0.23982 0.70420
 C1444 C -0.03694 0.24671 0.71361
 C1445 C -0.03057 0.23853 0.72569
 C1446 C -0.03521 0.22324 0.72822
 H1447 H -0.07800 0.17042 0.70118
 H1448 H -0.10322 0.20212 0.66194
 H1449 H -0.09760 0.15939 0.68664
 H1450 H -0.08710 0.22369 0.66729
 H1451 H -0.06829 0.23630 0.68204
 H1452 H -0.06344 0.18173 0.71567
 H1453 H -0.04526 0.19454 0.73090
 H1454 H -0.05191 0.24697 0.69519
 H1455 H -0.03357 0.25855 0.71135
 H1456 H -0.03030 0.21675 0.73748
 C1457 C 0.30838 0.41831 0.32636
 C1458 C 0.30830 0.42054 0.31070
 C1459 C 0.31798 0.41082 0.30203
 C1460 C 0.32651 0.39881 0.30876
 C1461 C 0.32577 0.39624 0.32420
 C1462 C 0.31693 0.40636 0.33292
 C1463 C 0.31886 0.41291 0.28663
 C1464 C 0.31027 0.42437 0.27953
 C1465 C 0.30013 0.43410 0.28756
 C1466 C 0.29892 0.43196 0.30337
 C1467 C 0.28801 0.44095 0.31126
 C1468 C 0.27867 0.45172 0.30403
 C1469 C 0.27996 0.45421 0.28871
 C1470 C 0.29088 0.44566 0.28026
 C1471 C 0.29209 0.44911 0.26484
 C1472 C 0.28263 0.46026 0.25814
 C1473 C 0.27159 0.46833 0.26649
 C1474 C 0.27035 0.46525 0.28180
 H1475 H 0.30202 0.42560 0.33391
 H1476 H 0.33330 0.39110 0.30186
 H1477 H 0.31653 0.40497 0.34493
 H1478 H 0.32625 0.40553 0.27994
 H1479 H 0.31154 0.42498 0.26759
 H1480 H 0.28606 0.43967 0.32307
 H1481 H 0.27034 0.45821 0.31055
 H1482 H 0.30036 0.44360 0.25762
 H1483 H 0.28394 0.46251 0.24631
 H1484 H 0.26200 0.47162 0.28841
 C1485 C 0.32490 -0.09239 0.79884
 C1486 C 0.31243 -0.08351 0.80438
 C1487 C 0.30626 -0.08785 0.81841
 C1488 C 0.31236 -0.10053 0.82641
 C1489 C 0.32470 -0.10945 0.82075
 C1490 C 0.33085 -0.10500 0.80682
 C1491 C 0.29394 -0.07956 0.82446
 C1492 C 0.28739 -0.06715 0.81682
 C1493 C 0.29295 -0.06241 0.80271
 C1494 C 0.30582 -0.07060 0.79647
 C1495 C 0.31162 -0.06563 0.78252
 C1496 C 0.30498 -0.05332 0.77480
 C1497 C 0.29227 -0.04543 0.78057
 C1498 C 0.28605 -0.04978 0.79461
 C1499 C 0.27307 -0.04137 0.79984
 C1500 C 0.26658 -0.02933 0.79143
 C1501 C 0.27274 -0.02518 0.77754
 C1502 C 0.28568 -0.03325 0.77224
 H1503 H 0.33031 -0.09006 0.78826
 H1504 H 0.30733 -0.10322 0.83713
 H1505 H 0.34022 -0.11128 0.80168
 H1506 H 0.28920 -0.08276 0.83524
 H1507 H 0.27793 -0.06148 0.82238
 H1508 H 0.32136 -0.07100 0.77716
 H1509 H 0.30982 -0.05000 0.76410
 H1510 H 0.26750 -0.04383 0.81032
 H1511 H 0.25659 -0.02332 0.79583
 H1512 H 0.29057 -0.03018 0.76149
 C1513 C 0.79675 0.41093 0.82236
 C1514 C 0.80313 0.41846 0.80973
 C1515 C 0.81817 0.41397 0.80531
 C1516 C 0.82625 0.40238 0.81308
 C1517 C 0.81965 0.39453 0.82531
 C1518 C 0.80485 0.39926 0.82996
 C1519 C 0.82516 0.42095 0.79301
 C1520 C 0.81737 0.43197 0.78460
 C1521 C 0.80217 0.43656 0.78819
 C1522 C 0.79510 0.43008 0.80124
 C1523 C 0.78028 0.43544 0.80533
 C1524 C 0.77248 0.44646 0.79683
 C1525 C 0.77897 0.45244 0.78380
 C1526 C 0.79385 0.44750 0.77919
 C1527 C 0.79967 0.45356 0.76561
 C1528 C 0.79121 0.46423 0.75720
 C1529 C 0.77665 0.46927 0.76194
 C1530 C 0.77059 0.46329 0.77528
 H1531 H 0.78538 0.41350 0.82652
 H1532 H 0.83783 0.39968 0.80944
 H1533 H 0.79908 0.39370 0.83922
 H1534 H 0.83677 0.41772 0.78971
 H1535 H 0.82373 0.43678 0.77538
 H1536 H 0.77436 0.43143 0.81517
 H1537 H 0.76113 0.45023 0.80044
 H1538 H 0.81062 0.45017 0.76097
 H1539 H 0.79615 0.46856 0.74690
 H1540 H 0.75927 0.46701 0.77901
 C1541 C 0.81545 -0.09862 0.29636
 C1542 C 0.80182 -0.09180 0.30200
 C1543 C 0.79625 -0.09733 0.31590
 C1544 C 0.80424 -0.10902 0.32380
 C1545 C 0.81795 -0.11564 0.31814
 C1546 C 0.82326 -0.11018 0.30422
 C1547 C 0.78272 -0.09116 0.32189
 C1548 C 0.77449 -0.07967 0.31438
 C1549 C 0.77954 -0.07373 0.30051
 C1550 C 0.79354 -0.07978 0.29430
 C1551 C 0.79885 -0.07356 0.28063
 C1552 C 0.79075 -0.06202 0.27317
 C1553 C 0.77701 -0.05617 0.27892
 C1554 C 0.77113 -0.06188 0.29265
 C1555 C 0.75703 -0.05548 0.29783
 C1556 C 0.74928 -0.04395 0.28974
 C1557 C 0.75524 -0.03837 0.27622
 C1558 C 0.76914 -0.04457 0.27091
 H1559 H 0.82040 -0.09546 0.28577
 H1560 H 0.79971 -0.11268 0.33447
 H1561 H 0.83341 -0.11491 0.29894
 H1562 H 0.77838 -0.09530 0.33253
 H1563 H 0.76420 -0.07562 0.31987
 H1564 H 0.80938 -0.07724 0.27534
 H1565 H 0.79533 -0.05764 0.26271
 H1566 H 0.75160 -0.05914 0.30805
 H1567 H 0.73853 -0.03940 0.29411
 H1568 H 0.77389 -0.04039 0.26045
 C1569 C 0.30393 0.58833 0.67476
 C1570 C 0.30521 0.58461 0.69011
 C1571 C 0.31478 0.59413 0.69900
 C1572 C 0.32215 0.60713 0.69278
 C1573 C 0.32049 0.61084 0.67760
 C1574 C 0.31144 0.60117 0.66868
 C1575 C 0.31693 0.59070 0.71407
 C1576 C 0.30992 0.57792 0.72058
 C1577 C 0.30016 0.56812 0.71230
 C1578 C 0.29744 0.57177 0.69691
 C1579 C 0.28679 0.56267 0.68892
 C1580 C 0.27920 0.55034 0.69562
 C1581 C 0.28206 0.54635 0.71046
 C1582 C 0.29276 0.55499 0.71898
 C1583 C 0.29564 0.55003 0.73381
 C1584 C 0.28788 0.53739 0.73997
 C1585 C 0.27695 0.52923 0.73165
 C1586 C 0.27418 0.53375 0.71684
 H1587 H 0.29744 0.58144 0.66703
 H1588 H 0.32904 0.61447 0.69989
 H1589 H 0.31027 0.60336 0.65684
 H1590 H 0.32419 0.59795 0.72094
 H1591 H 0.31213 0.57626 0.73230
 H1592 H 0.28374 0.56498 0.67748
 H1593 H 0.27101 0.54380 0.68907
 H1594 H 0.30395 0.55552 0.74095
 H1595 H 0.29036 0.53411 0.75141
 H1596 H 0.26588 0.52741 0.71022
 C1597 C 0.30018 1.08100 0.17786
 C1598 C 0.30310 1.07568 0.19254
 C1599 C 0.31546 1.08258 0.20037
 C1600 C 0.32399 1.09470 0.19393
 C1601 C 0.32049 1.10046 0.17956
 C1602 C 0.30864 1.09308 0.17158
 C1603 C 0.31915 1.07755 0.21474
 C1604 C 0.31072 1.06595 0.22168
 C1605 C 0.29804 1.05893 0.21454
 C1606 C 0.29416 1.06388 0.19972
 C1607 C 0.28128 1.05710 0.19269
 C1608 C 0.27245 1.04596 0.19984
 C1609 C 0.27605 1.04103 0.21425
 C1610 C 0.28896 1.04729 0.22181
 C1611 C 0.29214 1.04166 0.23637
 C1612 C 0.28278 1.03055 0.24312
 C1613 C 0.26992 1.02461 0.23566
 C1614 C 0.26669 1.02988 0.22118
 H1615 H 0.29143 1.07610 0.17082
 H1616 H 0.33300 1.09987 0.20053
 H1617 H 0.30579 1.09640 0.16027
 H1618 H 0.32865 1.08272 0.22078
 H1619 H 0.31437 1.06293 0.23280
 H1620 H 0.27750 1.06029 0.18165
 H1621 H 0.26260 1.04121 0.19402
 H1622 H 0.30177 1.04555 0.24293
 H1623 H 0.28561 1.02664 0.25430
 H1624 H 0.25683 1.02530 0.21523
 C1625 C 0.78802 0.59948 0.17563
 C1626 C 0.79582 0.58890 0.18519
 C1627 C 0.81190 0.59098 0.18724
 C1628 C 0.81965 0.60311 0.18004
 C1629 C 0.81168 0.61384 0.17110
 C1630 C 0.79585 0.61175 0.16877
 C1631 C 0.82017 0.58117 0.19671
 C1632 C 0.81276 0.56974 0.20487
 C1633 C 0.79669 0.56749 0.20369
 C1634 C 0.78822 0.57665 0.19310
 C1635 C 0.77248 0.57324 0.19081
 C1636 C 0.76512 0.56172 0.19898
 C1637 C 0.77298 0.55341 0.21003
 C1638 C 0.78883 0.55630 0.21268
 C1639 C 0.79605 0.54816 0.22456
 C1640 C 0.78792 0.53749 0.23320
 C1641 C 0.77237 0.53442 0.23029
 C1642 C 0.76499 0.54237 0.21860
 H1643 H 0.77578 0.59898 0.17364
 H1644 H 0.83196 0.60435 0.18168
 H1645 H 0.78933 0.61992 0.16205
 H1646 H 0.83252 0.58255 0.19811
 H1647 H 0.82005 0.56265 0.21187
 H1648 H 0.76554 0.57914 0.18257
 H1649 H 0.75302 0.55950 0.19681
 H1650 H 0.80786 0.55007 0.22778
 H1651 H 0.79388 0.53159 0.24223
 H1652 H 0.75288 0.54024 0.21640
 C1653 C 0.82087 1.10848 0.70158
 C1654 C 0.81113 1.09740 0.69492
 C1655 C 0.80817 1.09886 0.67940
 C1656 C 0.81549 1.11042 0.67088
 C1657 C 0.82569 1.12081 0.67760
 C1658 C 0.82799 1.11990 0.69305
 C1659 C 0.79804 1.08869 0.67246
 C1660 C 0.79068 1.07712 0.68055
 C1661 C 0.79345 1.07498 0.69597
 C1662 C 0.80419 1.08503 0.70316
 C1663 C 0.80798 1.08214 0.71826
 C1664 C 0.80125 1.07014 0.72620
 C1665 C 0.79033 1.06064 0.71956
 C1666 C 0.78609 1.06297 0.70441
 C1667 C 0.77456 1.05322 0.69844
 C1668 C 0.76778 1.04161 0.70711
 C1669 C 0.77229 1.03923 0.72196
 C1670 C 0.78360 1.04880 0.72808
 H1671 H 0.82309 1.10884 0.71339
 H1672 H 0.81352 1.11109 0.65895
 H1673 H 0.83530 1.12816 0.69866
 H1674 H 0.79572 1.08972 0.66060
 H1675 H 0.78313 1.06974 0.67427
 H1676 H 0.81646 1.08872 0.72424
 H1677 H 0.80460 1.06833 0.73774
 H1678 H 0.77030 1.05440 0.68720
 H1679 H 0.75898 1.03444 0.70212
 H1680 H 0.78704 1.04718 0.73962
 C1681 C 0.70671 0.60951 0.31900
 C1682 C 0.69967 0.59864 0.30944
 C1683 C 0.68379 0.60076 0.30614
 C1684 C 0.67531 0.61285 0.31274
 C1685 C 0.68238 0.62319 0.32259
 C1686 C 0.69821 0.62150 0.32542
 C1687 C 0.67641 0.59074 0.29634
 C1688 C 0.68441 0.57866 0.28964
 C1689 C 0.70019 0.57589 0.29268
 C1690 C 0.70784 0.58583 0.30303
 C1691 C 0.72330 0.58244 0.30688
 C1692 C 0.73113 0.56999 0.30069
 C1693 C 0.72402 0.56050 0.29025
 C1694 C 0.70851 0.56336 0.28593
 C1695 C 0.70208 0.55360 0.27493
 C1696 C 0.71061 0.54146 0.26875
 C1697 C 0.72582 0.53853 0.27331
 C1698 C 0.73242 0.54813 0.28409
 H1699 H 0.71883 0.60926 0.32164
 H1700 H 0.66309 0.61400 0.31043
 H1701 H 0.70415 0.62958 0.33256
 H1702 H 0.66427 0.59227 0.29377
 H1703 H 0.67774 0.57146 0.28232
 H1704 H 0.72968 0.58901 0.31495
 H1705 H 0.74296 0.56781 0.30408
 H1706 H 0.69055 0.55512 0.27067
 H1707 H 0.70523 0.53430 0.26036
 H1708 H 0.74424 0.54610 0.28759
 C1709 C 0.70712 1.09863 0.82564
 C1710 C 0.70142 1.09187 0.81243
 C1711 C 0.68691 1.09713 0.80711
 C1712 C 0.67864 1.10869 0.81474
 C1713 C 0.68447 1.11545 0.82788
 C1714 C 0.69887 1.11008 0.83312
 C1715 C 0.68068 1.09083 0.79416
 C1716 C 0.68853 1.07945 0.78627
 C1717 C 0.70307 1.07384 0.79103
 C1718 C 0.70960 1.08015 0.80436
 C1719 C 0.72412 1.07454 0.80917
 C1720 C 0.73202 1.06326 0.80130
 C1721 C 0.72587 1.05703 0.78832
 C1722 C 0.71131 1.06215 0.78294
 C1723 C 0.70571 1.05532 0.76965
 C1724 C 0.71422 1.04396 0.76217
 C1725 C 0.72858 1.03903 0.76761
 C1726 C 0.73430 1.04565 0.78071
 H1727 H 0.71801 1.09544 0.83056
 H1728 H 0.66754 1.11217 0.81035
 H1729 H 0.70421 1.11477 0.84297
 H1730 H 0.66957 1.09476 0.79001
 H1731 H 0.68283 1.07531 0.77641
 H1732 H 0.72984 1.07862 0.81903
 H1733 H 0.74315 1.05936 0.80545
 H1734 H 0.69480 1.05843 0.76470
 H1735 H 0.70951 1.03904 0.75207
 H1736 H 0.74539 1.04193 0.78506
 C1737 C 0.20234 0.58966 0.82309
 C1738 C 0.19819 0.58295 0.80932
 C1739 C 0.18538 0.58945 0.80168
 C1740 C 0.17737 0.60227 0.80752
 C1741 C 0.18179 0.60911 0.82112
 C1742 C 0.19436 0.60238 0.82879
 C1743 C 0.18063 0.58321 0.78813
 C1744 C 0.18837 0.57072 0.78187
 C1745 C 0.20134 0.56392 0.78890
 C1746 C 0.20632 0.57012 0.80288
 C1747 C 0.21938 0.56340 0.80986
 C1748 C 0.22740 0.55123 0.80340
 C1749 C 0.22280 0.54515 0.78975
 C1750 C 0.20963 0.55126 0.78233
 C1751 C 0.20545 0.54449 0.76856
 C1752 C 0.21417 0.53251 0.76236
 C1753 C 0.22733 0.52676 0.76962
 C1754 C 0.23147 0.53306 0.78342
 H1755 H 0.21172 0.58540 0.82985
 H1756 H 0.16786 0.60695 0.80112
 H1757 H 0.19819 0.60667 0.83944
 H1758 H 0.17081 0.58808 0.78223
 H1759 H 0.18389 0.56678 0.77137
 H1760 H 0.22388 0.56736 0.82035
 H1761 H 0.23743 0.54657 0.80915
 H1762 H 0.19556 0.54818 0.76218
 H1763 H 0.21063 0.52783 0.75171
 H1764 H 0.24160 0.52869 0.78920
 C1765 C 0.19502 1.08672 0.33110
 C1766 C 0.19154 1.08177 0.31648
 C1767 C 0.17997 1.09004 0.30857
 C1768 C 0.17274 1.10308 0.31489
 C1769 C 0.17686 1.10838 0.32919
 C1770 C 0.18788 1.09969 0.33723
 C1771 C 0.17577 1.08542 0.29426
 C1772 C 0.18294 1.07288 0.28749
 C1773 C 0.19481 1.06445 0.29473
 C1774 C 0.19920 1.06900 0.30947
 C1775 C 0.21134 1.06084 0.31659
 C1776 C 0.21896 1.04875 0.30961
 C1777 C 0.21484 1.04417 0.29530
 C1778 C 0.20262 1.05180 0.28765
 C1779 C 0.19884 1.04644 0.27319
 C1780 C 0.20705 1.03431 0.26662
 C1781 C 0.21928 1.02705 0.27416
 C1782 C 0.22303 1.03201 0.28856
 H1783 H 0.20318 1.08084 0.33821
 H1784 H 0.16432 1.10931 0.30827
 H1785 H 0.19103 1.10262 0.34852
 H1786 H 0.16687 1.09163 0.28814
 H1787 H 0.17900 1.07025 0.27640
 H1788 H 0.21548 1.06365 0.32756
 H1789 H 0.22829 1.04294 0.31550
 H1790 H 0.18963 1.05132 0.26660
 H1791 H 0.20383 1.03068 0.25550
 H1792 H 0.23240 1.02642 0.29457
 C1793 C 0.71295 0.39654 0.67136
 C1794 C 0.70551 0.40778 0.68031
 C1795 C 0.68949 0.40598 0.68296
 C1796 C 0.68132 0.39372 0.67649
 C1797 C 0.68884 0.38272 0.66757
 C1798 C 0.70475 0.38427 0.66516
 C1799 C 0.68165 0.41638 0.69209
 C1800 C 0.68939 0.42839 0.69902
 C1801 C 0.70535 0.43069 0.69685
 C1802 C 0.71342 0.42057 0.68690
 C1803 C 0.72906 0.42372 0.68370
 C1804 C 0.73668 0.43602 0.69028
 C1805 C 0.72919 0.44552 0.70054
 C1806 C 0.71348 0.44291 0.70414
 C1807 C 0.70664 0.45250 0.71509
 C1808 C 0.71500 0.46427 0.72193
 C1809 C 0.73041 0.46700 0.71807
 C1810 C 0.73742 0.45758 0.70731
 H1811 H 0.72517 0.39664 0.66919
 H1812 H 0.66902 0.39283 0.67837
 H1813 H 0.71102 0.37581 0.65866
 H1814 H 0.66937 0.41513 0.69406
 H1815 H 0.68238 0.43591 0.70579
 H1816 H 0.73572 0.41704 0.67587
 H1817 H 0.74867 0.43802 0.68741
 H1818 H 0.69496 0.45105 0.71891
 H1819 H 0.70932 0.47129 0.73028
 H1820 H 0.74941 0.45946 0.70438
 C1821 C 0.69896 -0.10775 0.18064
 C1822 C 0.69080 -0.09766 0.19027
 C1823 C 0.67500 -0.10086 0.19292
 C1824 C 0.66773 -0.11336 0.18584
 C1825 C 0.67597 -0.12320 0.17626
 C1826 C 0.69166 -0.12024 0.17383
 C1827 C 0.66650 -0.09162 0.20265
 C1828 C 0.67335 -0.07941 0.21012
 C1829 C 0.68906 -0.07572 0.20796
 C1830 C 0.69779 -0.08469 0.19750
 C1831 C 0.71315 -0.08027 0.19449
 C1832 C 0.71991 -0.06784 0.20169
 C1833 C 0.71179 -0.05941 0.21237
 C1834 C 0.69629 -0.06326 0.21578
 C1835 C 0.68881 -0.05459 0.22708
 C1836 C 0.69638 -0.04263 0.23449
 C1837 C 0.71160 -0.03876 0.23088
 C1838 C 0.71920 -0.04719 0.21973
 H1839 H 0.71109 -0.10655 0.17836
 H1840 H 0.65557 -0.11533 0.18778
 H1841 H 0.69850 -0.12778 0.16682
 H1842 H 0.65439 -0.09394 0.20465
 H1843 H 0.66589 -0.07287 0.21736
 H1844 H 0.72027 -0.08604 0.18638
 H1845 H 0.73173 -0.06489 0.19896
 H1846 H 0.67720 -0.05693 0.23071
 H1847 H 0.69024 -0.03638 0.24312
 H1848 H 0.73105 -0.04444 0.21695
 C1849 C 0.19186 0.40938 0.17160
 C1850 C 0.19044 0.41308 0.18690
 C1851 C 0.18045 0.40381 0.19571
 C1852 C 0.17288 0.39100 0.18951
 C1853 C 0.17491 0.38719 0.17445
 C1854 C 0.18425 0.39669 0.16556
 C1855 C 0.17816 0.40727 0.21072
 C1856 C 0.18555 0.41973 0.21727
 C1857 C 0.19583 0.42917 0.20909
 C1858 C 0.19855 0.42559 0.19373
 C1859 C 0.20957 0.43439 0.18580
 C1860 C 0.21759 0.44632 0.19254
 C1861 C 0.21484 0.45018 0.20738
 C1862 C 0.20375 0.44186 0.21583
 C1863 C 0.20109 0.44666 0.23071
 C1864 C 0.20938 0.45883 0.23693
 C1865 C 0.22062 0.46668 0.22864
 C1866 C 0.22321 0.46232 0.21382
 H1867 H 0.19862 0.41613 0.16389
 H1868 H 0.16569 0.38378 0.19654
 H1869 H 0.18565 0.39438 0.15378
 H1870 H 0.17054 0.40024 0.21752
 H1871 H 0.18320 0.42141 0.22894
 H1872 H 0.21262 0.43212 0.17437
 H1873 H 0.22606 0.45262 0.18603
 H1874 H 0.19259 0.44138 0.23783
 H1875 H 0.20703 0.46201 0.24839
 H1876 H 0.23176 0.46843 0.20722
 C1877 C 0.20635 -0.08815 0.67933
 C1878 C 0.20145 -0.08125 0.69280
 C1879 C 0.18815 -0.08743 0.69975
 C1880 C 0.18049 -0.10025 0.69365
 C1881 C 0.18574 -0.10742 0.68046
 C1882 C 0.19870 -0.10088 0.67336
 C1883 C 0.18255 -0.08088 0.71288
 C1884 C 0.18993 -0.06840 0.71941
 C1885 C 0.20340 -0.06195 0.71312
 C1886 C 0.20929 -0.06851 0.69960
 C1887 C 0.22295 -0.06229 0.69347
 C1888 C 0.23066 -0.05020 0.70028
 C1889 C 0.22511 -0.04369 0.71342
 C1890 C 0.21132 -0.04931 0.72000
 C1891 C 0.20616 -0.04204 0.73325
 C1892 C 0.21451 -0.03005 0.73976
 C1893 C 0.22828 -0.02481 0.73335
 C1894 C 0.23342 -0.03163 0.72009
 H1895 H 0.21607 -0.08403 0.67302
 H1896 H 0.17053 -0.10462 0.69952
 H1897 H 0.20320 -0.10540 0.66304
 H1898 H 0.17234 -0.08550 0.71825
 H1899 H 0.18482 -0.06421 0.72957
 H1900 H 0.22821 -0.06664 0.68345
 H1901 H 0.24118 -0.04593 0.69520
 H1902 H 0.19572 -0.04532 0.73893
 H1903 H 0.21020 -0.02496 0.74997
 H1904 H 0.24401 -0.02763 0.71494
 C1905 C 0.29511 0.32195 0.39707
 C1906 C 0.30203 0.31163 0.40744
 C1907 C 0.31770 0.30748 0.40510
 C1908 C 0.32618 0.31411 0.39331
 C1909 C 0.31926 0.32480 0.38354
 C1910 C 0.30360 0.32838 0.38541
 C1911 C 0.32488 0.29684 0.41459
 C1912 C 0.31686 0.29009 0.42635
 C1913 C 0.30130 0.29398 0.42930
 C1914 C 0.29391 0.30526 0.41993
 C1915 C 0.27877 0.31007 0.42355
 C1916 C 0.27095 0.30385 0.43566
 C1917 C 0.27775 0.29244 0.44455
 C1918 C 0.29295 0.28718 0.44146
 C1919 C 0.29905 0.27520 0.45061
 C1920 C 0.29047 0.26895 0.46235
 C1921 C 0.27558 0.27441 0.46547
 C1922 C 0.26932 0.28621 0.45653
 H1923 H 0.28310 0.32515 0.39748
 H1924 H 0.33826 0.31119 0.39196
 H1925 H 0.29777 0.33615 0.37773
 H1926 H 0.33686 0.29362 0.41289
 H1927 H 0.32336 0.28209 0.43316
 H1928 H 0.27268 0.31895 0.41744
 H1929 H 0.25938 0.30798 0.43803
 H1930 H 0.31029 0.27019 0.44887
 H1931 H 0.29556 0.25976 0.46902
 H1932 H 0.25773 0.29040 0.45873
 C1933 C 0.29378 0.82246 -0.09705
 C1934 C 0.30135 0.81220 -0.08701
 C1935 C 0.31739 0.80973 -0.08906
 C1936 C 0.32536 0.81729 -0.10057
 C1937 C 0.31762 0.82703 -0.11069
 C1938 C 0.30180 0.82967 -0.10868
 C1939 C 0.32543 0.79952 -0.07977
 C1940 C 0.31781 0.79111 -0.06884
 C1941 C 0.30178 0.79276 -0.06658
 C1942 C 0.29355 0.80402 -0.07532
 C1943 C 0.27784 0.80674 -0.07203
 C1944 C 0.27027 0.79839 -0.06097
 C1945 C 0.27791 0.78676 -0.05298
 C1946 C 0.29372 0.78363 -0.05576
 C1947 C 0.30070 0.77122 -0.04781
 C1948 C 0.29238 0.76256 -0.03741
 C1949 C 0.27687 0.76597 -0.03448
 C1950 C 0.26972 0.77814 -0.04229
 H1951 H 0.28157 0.82477 -0.09656
 H1952 H 0.33765 0.81537 -0.10177
 H1953 H 0.29544 0.83696 -0.11640
 H1954 H 0.33775 0.79777 -0.08116
 H1955 H 0.32493 0.78353 -0.06216
 H1956 H 0.27106 0.81547 -0.07766
 H1957 H 0.25821 0.80091 -0.05882
 H1958 H 0.31247 0.76763 -0.04960
 H1959 H 0.29816 0.75315 -0.03161
 H1960 H 0.25766 0.78075 -0.04025
 C1961 C 0.81054 0.33308 -0.08498
 C1962 C 0.81110 0.31699 -0.08199
 C1963 C 0.81997 0.30760 -0.09174
 C1964 C 0.82710 0.31406 -0.10443
 C1965 C 0.82572 0.32993 -0.10762
 C1966 C 0.81769 0.33935 -0.09755
 C1967 C 0.82148 0.29178 -0.08890
 C1968 C 0.81431 0.28497 -0.07666
 C1969 C 0.80497 0.29370 -0.06685
 C1970 C 0.80312 0.30993 -0.06973
 C1971 C 0.79298 0.31849 -0.06056
 C1972 C 0.78494 0.31153 -0.04898
 C1973 C 0.78681 0.29582 -0.04584
 C1974 C 0.79707 0.28669 -0.05449
 C1975 C 0.79890 0.27092 -0.05038
 C1976 C 0.79052 0.26449 -0.03856
 C1977 C 0.77999 0.27348 -0.03046
 C1978 C 0.77832 0.28919 -0.03411
 H1979 H 0.80480 0.34123 -0.07780
 H1980 H 0.83336 0.30664 -0.11205
 H1981 H 0.81691 0.35173 -0.09938
 H1982 H 0.82828 0.28453 -0.09627
 H1983 H 0.81598 0.27267 -0.07544
 H1984 H 0.79059 0.33061 -0.06229
 H1985 H 0.77710 0.31855 -0.04241
 H1986 H 0.80679 0.26322 -0.05598
 H1987 H 0.79214 0.25234 -0.03591
 H1988 H 0.77038 0.29633 -0.02777
 C1989 C 0.82030 0.79296 0.39789
 C1990 C 0.81026 0.79988 0.40839
 C1991 C 0.80603 0.81560 0.40602
 C1992 C 0.81221 0.82407 0.39399
 C1993 C 0.82253 0.81713 0.38398
 C1994 C 0.82629 0.80145 0.38597
 C1995 C 0.79574 0.82283 0.41571
 C1996 C 0.78935 0.81481 0.42766
 C1997 C 0.79323 0.79917 0.43059
 C1998 C 0.80418 0.79172 0.42104
 C1999 C 0.80891 0.77645 0.42458
 C2000 C 0.80289 0.76858 0.43678
 C2001 C 0.79179 0.77544 0.44587
 C2002 C 0.78668 0.79078 0.44288
 C2003 C 0.77505 0.79698 0.45224
 C2004 C 0.76895 0.78835 0.46403
 C2005 C 0.77419 0.77328 0.46701
 C2006 C 0.78570 0.76693 0.45790
 H2007 H 0.82363 0.78094 0.39839
 H2008 H 0.80919 0.83617 0.39258
 H2009 H 0.83382 0.79560 0.37817
 H2010 H 0.79250 0.83485 0.41400
 H2011 H 0.78159 0.82136 0.43458
 H2012 H 0.81752 0.77028 0.41830
 H2013 H 0.80692 0.75689 0.43906
 H2014 H 0.77019 0.80836 0.45064
 H2015 H 0.76001 0.79355 0.47084
 H2016 H 0.78974 0.75522 0.46000
 C2017 C 0.68438 0.28792 0.59239
 C2018 C 0.69439 0.29458 0.58169
 C2019 C 0.69851 0.31032 0.58357
 C2020 C 0.69231 0.31905 0.59536
 C2021 C 0.68215 0.31231 0.60568
 C2022 C 0.67843 0.29664 0.60412
 C2023 C 0.70879 0.31731 0.57369
 C2024 C 0.71536 0.30896 0.56209
 C2025 C 0.71165 0.29326 0.55970
 C2026 C 0.70060 0.28611 0.56937
 C2027 C 0.69593 0.27082 0.56626
 C2028 C 0.70217 0.26260 0.55445
 C2029 C 0.71345 0.26913 0.54535
 C2030 C 0.71848 0.28450 0.54786
 C2031 C 0.73032 0.29033 0.53853
 C2032 C 0.73671 0.28131 0.52720
 C2033 C 0.73152 0.26621 0.52469
 C2034 C 0.71982 0.26024 0.53379
 H2035 H 0.68114 0.27590 0.59226
 H2036 H 0.69529 0.33115 0.59640
 H2037 H 0.67103 0.29093 0.61214
 H2038 H 0.71193 0.32936 0.57502
 H2039 H 0.72313 0.31531 0.55498
 H2040 H 0.68719 0.26490 0.57260
 H2041 H 0.69819 0.25090 0.55250
 H2042 H 0.73515 0.30171 0.53983
 H2043 H 0.74581 0.28620 0.52039
 H2044 H 0.71581 0.24851 0.53206
 C2045 C 0.67785 0.78705 1.09518
 C2046 C 0.68731 0.79527 1.08502
 C2047 C 0.69011 0.81112 1.08800
 C2048 C 0.68331 0.81839 1.10039
 C2049 C 0.67384 0.81010 1.11025
 C2050 C 0.67129 0.79435 1.10752
 C2051 C 0.69970 0.81968 1.07864
 C2052 C 0.70693 0.81281 1.06652
 C2053 C 0.70466 0.79704 1.06309
 C2054 C 0.69427 0.78827 1.07219
 C2055 C 0.69106 0.77285 1.06807
 C2056 C 0.69810 0.76605 1.05581
 C2057 C 0.70879 0.77419 1.04726
 C2058 C 0.71233 0.78977 1.05079
 C2059 C 0.72365 0.79731 1.04201
 C2060 C 0.73102 0.78969 1.03029
 C2061 C 0.72737 0.77436 1.02678
 C2062 C 0.71612 0.76672 1.03526
 H2063 H 0.67552 0.77487 1.09413
 H2064 H 0.68533 0.83059 1.10226
 H2065 H 0.66440 0.78748 1.11510
 H2066 H 0.70179 0.83183 1.08078
 H2067 H 0.71408 0.82033 1.05988
 H2068 H 0.68291 0.76571 1.07397
 H2069 H 0.69525 0.75419 1.05310
 H2070 H 0.72738 0.80897 1.04408
 H2071 H 0.73971 0.79588 1.02398
 H2072 H 0.71331 0.75480 1.03275
 C2073 C 0.18275 0.29246 1.10006
 C2074 C 0.19357 0.29997 1.09068
 C2075 C 0.19648 0.31585 1.09331
 C2076 C 0.18843 0.32387 1.10450
 C2077 C 0.17764 0.31628 1.11361
 C2078 C 0.17501 0.30048 1.11128
 C2079 C 0.20747 0.32367 1.08481
 C2080 C 0.21592 0.31603 1.07392
 C2081 C 0.21346 0.30022 1.07082
 C2082 C 0.20172 0.29221 1.07899
 C2083 C 0.19833 0.27679 1.07505
 C2084 C 0.20638 0.26929 1.06383
 C2085 C 0.21829 0.27669 1.05622
 C2086 C 0.22217 0.29219 1.05966
 C2087 C 0.23476 0.29888 1.05189
 C2088 C 0.24285 0.29057 1.04103
 C2089 C 0.23866 0.27540 1.03749
 C2090 C 0.22635 0.26856 1.04517
 H2091 H 0.18025 0.28029 1.09930
 H2092 H 0.19058 0.33609 1.10605
 H2093 H 0.16712 0.29411 1.11834
 H2094 H 0.20970 0.33585 1.08672
 H2095 H 0.22412 0.32298 1.06787
 H2096 H 0.18923 0.27023 1.08021
 H2097 H 0.20330 0.25747 1.06116
 H2098 H 0.23884 0.31040 1.05408
 H2099 H 0.25240 0.29610 1.03535
 H2100 H 0.22312 0.25674 1.04267
 C2101 C 0.20995 0.81611 0.60693
 C2102 C 0.20188 0.80631 0.59705
 C2103 C 0.18615 0.80327 0.60022
 C2104 C 0.17874 0.81048 0.61235
 C2105 C 0.18680 0.82064 0.62168
 C2106 C 0.20252 0.82309 0.61894
 C2107 C 0.17787 0.79315 0.59121
 C2108 C 0.18484 0.78586 0.57914
 C2109 C 0.20040 0.78868 0.57534
 C2110 C 0.20893 0.79938 0.58424
 C2111 C 0.22413 0.80309 0.57986
 C2112 C 0.23091 0.79639 0.56745
 C2113 C 0.22298 0.78558 0.55896
 C2114 C 0.20767 0.78139 0.56280
 C2115 C 0.20041 0.76998 0.55394
 C2116 C 0.20800 0.76326 0.54178
 C2117 C 0.22301 0.76772 0.53794
 C2118 C 0.23038 0.77891 0.54662
 H2119 H 0.22208 0.81847 0.60587
 H2120 H 0.16659 0.80839 0.61434
 H2121 H 0.20924 0.83038 0.62623
 H2122 H 0.16584 0.79076 0.59355
 H2123 H 0.17756 0.77829 0.57277
 H2124 H 0.23107 0.81147 0.58559
 H2125 H 0.24258 0.79970 0.56450
 H2126 H 0.18896 0.76580 0.55622
 H2127 H 0.20206 0.75456 0.53534
 H2128 H 0.24207 0.78234 0.54390
 C2129 C 0.31829 0.70471 0.60048
 C2130 C 0.30874 0.69723 0.58998
 C2131 C 0.30579 0.68125 0.59217
 C2132 C 0.31274 0.67308 0.60404
 C2133 C 0.32242 0.68064 0.61418
 C2134 C 0.32494 0.69656 0.61231
 C2135 C 0.29588 0.67349 0.58254
 C2136 C 0.28849 0.68131 0.57096
 C2137 C 0.29101 0.69723 0.56831
 C2138 C 0.30179 0.70516 0.57761
 C2139 C 0.30544 0.72067 0.57412
 C2140 C 0.29834 0.72843 0.56239
 C2141 C 0.28717 0.72117 0.55377
 C2142 C 0.28324 0.70550 0.55660
 C2143 C 0.27145 0.69891 0.54774
 C2144 C 0.26398 0.70755 0.53665
 C2145 C 0.26804 0.72298 0.53389
 C2146 C 0.27977 0.72965 0.54243
 H2147 H 0.32057 0.71695 0.60014
 H2148 H 0.31065 0.66079 0.60531
 H2149 H 0.33188 0.70291 0.62019
 H2150 H 0.29364 0.66124 0.58408
 H2151 H 0.28105 0.67441 0.56407
 H2152 H 0.31403 0.72714 0.58008
 H2153 H 0.30152 0.74035 0.56016
 H2154 H 0.26743 0.68724 0.54933
 H2155 H 0.25491 0.70213 0.53025
 H2156 H 0.28291 0.74163 0.54050
 C2157 C 0.29703 0.17725 1.10587
 C2158 C 0.30502 0.18753 1.09629
 C2159 C 0.32076 0.19046 1.09949
 C2160 C 0.32821 0.18284 1.11141
 C2161 C 0.32020 0.17234 1.12050
 C2162 C 0.30451 0.16984 1.11769
 C2163 C 0.32903 0.20094 1.09076
 C2164 C 0.32201 0.20875 1.07897
 C2165 C 0.30640 0.20618 1.07523
 C2166 C 0.29790 0.19507 1.08378
 C2167 C 0.28264 0.19165 1.07938
 C2168 C 0.27576 0.19908 1.06734
 C2169 C 0.28366 0.21034 1.05925
 C2170 C 0.29904 0.21419 1.06309
 C2171 C 0.30631 0.22604 1.05470
 C2172 C 0.29864 0.23356 1.04300
 C2173 C 0.28352 0.22952 1.03918
 C2174 C 0.27614 0.21784 1.04734
 H2175 H 0.28492 0.17482 1.10473
 H2176 H 0.34035 0.18491 1.11344
 H2177 H 0.29785 0.16222 1.12480
 H2178 H 0.34108 0.20320 1.09312
 H2179 H 0.32930 0.21656 1.07281
 H2180 H 0.27572 0.18301 1.08486
 H2181 H 0.26404 0.19602 1.06438
 H2182 H 0.31782 0.23001 1.05701
 H2183 H 0.30460 0.24261 1.03693
 H2184 H 0.26438 0.21472 1.04459
 C2185 C 0.81582 0.71090 1.09695
 C2186 C 0.80778 0.70339 1.08532
 C2187 C 0.80531 0.68723 1.08683
 C2188 C 0.81094 0.67905 1.09930
 C2189 C 0.81890 0.68667 1.11070
 C2190 C 0.82124 0.70267 1.10937
 C2191 C 0.79717 0.67926 1.07592
 C2192 C 0.79097 0.68700 1.06369
 C2193 C 0.79284 0.70312 1.06174
 C2194 C 0.80188 0.71135 1.07243
 C2195 C 0.80479 0.72722 1.06982
 C2196 C 0.79862 0.73494 1.05754
 C2197 C 0.78910 0.72729 1.04747
 C2198 C 0.78600 0.71129 1.04944
 C2199 C 0.77584 0.70422 1.03918
 C2200 C 0.76903 0.71272 1.02764
 C2201 C 0.77215 0.72849 1.02574
 C2202 C 0.78240 0.73567 1.03559
 H2203 H 0.81786 0.72319 1.09700
 H2204 H 0.80918 0.66667 1.10006
 H2205 H 0.82705 0.70897 1.11811
 H2206 H 0.79539 0.66688 1.07692
 H2207 H 0.78493 0.67988 1.05581
 H2208 H 0.81200 0.73404 1.07700
 H2209 H 0.80114 0.74713 1.05605
 H2210 H 0.77251 0.69226 1.03996
 H2211 H 0.76114 0.70687 1.02021
 H2212 H 0.78476 0.74793 1.03432
 C2213 C 0.82691 0.20648 0.59161
 C2214 C 0.81644 0.19836 0.58241
 C2215 C 0.81294 0.18287 0.58644
 C2216 C 0.81990 0.17587 0.59894
 C2217 C 0.83022 0.18407 0.60796
 C2218 C 0.83362 0.19944 0.60413
 C2219 C 0.80245 0.17440 0.57804
 C2220 C 0.79495 0.18105 0.56590
 C2221 C 0.79783 0.19648 0.56147
 C2222 C 0.80916 0.20510 0.56953
 C2223 C 0.81290 0.22010 0.56436
 C2224 C 0.80554 0.22666 0.55207
 C2225 C 0.79397 0.21871 0.54456
 C2226 C 0.78983 0.20355 0.54918
 C2227 C 0.77761 0.19625 0.54147
 C2228 C 0.76995 0.20369 0.52974
 C2229 C 0.77419 0.21859 0.52514
 C2230 C 0.78634 0.22598 0.53253
 H2231 H 0.82992 0.21840 0.58968
 H2232 H 0.81729 0.16392 0.60158
 H2233 H 0.84128 0.20622 0.61099
 H2234 H 0.79984 0.16251 0.58100
 H2235 H 0.78711 0.17361 0.56004
 H2236 H 0.82170 0.22706 0.56946
 H2237 H 0.80883 0.23820 0.54854
 H2238 H 0.77339 0.18494 0.54443
 H2239 H 0.76056 0.19773 0.52428
 H2240 H 0.78961 0.23759 0.52919
 C2241 C 0.67772 0.70884 0.40617
 C2242 C 0.68833 0.70117 0.41570
 C2243 C 0.69198 0.68550 0.41251
 C2244 C 0.68492 0.67788 0.40052
 C2245 C 0.67445 0.68568 0.39117
 C2246 C 0.67098 0.70123 0.39416
 C2247 C 0.70277 0.67754 0.42120
 C2248 C 0.71049 0.68491 0.43270
 C2249 C 0.70748 0.70056 0.43619
 C2250 C 0.69572 0.70860 0.42799
 C2251 C 0.69166 0.72375 0.43243
 C2252 C 0.69928 0.73108 0.44401
 C2253 C 0.71141 0.72377 0.45147
 C2254 C 0.71578 0.70844 0.44766
 C2255 C 0.72854 0.70180 0.45526
 C2256 C 0.73649 0.71004 0.46614
 C2257 C 0.73201 0.72511 0.46994
 C2258 C 0.71935 0.73185 0.46264
 H2259 H 0.67470 0.72088 0.40738
 H2260 H 0.68767 0.66584 0.39845
 H2261 H 0.66330 0.70777 0.38697
 H2262 H 0.70549 0.66552 0.41893
 H2263 H 0.71861 0.67787 0.43884
 H2264 H 0.68240 0.73023 0.42733
 H2265 H 0.69577 0.74273 0.44699
 H2266 H 0.73296 0.69042 0.45281
 H2267 H 0.74628 0.70455 0.47157
 H2268 H 0.71588 0.74357 0.46538
 C2269 C 0.69770 0.17393 -0.08176
 C2270 C 0.69659 0.18998 -0.07875
 C2271 C 0.68661 0.19899 -0.08790
 C2272 C 0.67875 0.19225 -0.09992
 C2273 C 0.68046 0.17645 -0.10307
 C2274 C 0.68980 0.16737 -0.09370
 C2275 C 0.68465 0.21474 -0.08516
 C2276 C 0.69243 0.22187 -0.07356
 C2277 C 0.70276 0.21355 -0.06430
 C2278 C 0.70506 0.19738 -0.06709
 C2279 C 0.71604 0.18925 -0.05838
 C2280 C 0.72447 0.19657 -0.04733
 C2281 C 0.72219 0.21222 -0.04432
 C2282 C 0.71114 0.22091 -0.05254
 C2283 C 0.70898 0.23665 -0.04862
 C2284 C 0.71773 0.24344 -0.03736
 C2285 C 0.72893 0.23488 -0.02961
 C2286 C 0.73102 0.21922 -0.03310
 H2287 H 0.70449 0.16606 -0.07507
 H2288 H 0.67162 0.19946 -0.10707
 H2289 H 0.69100 0.15505 -0.09557
 H2290 H 0.67703 0.22168 -0.09211
 H2291 H 0.69032 0.23410 -0.07241
 H2292 H 0.71872 0.17720 -0.06002
 H2293 H 0.73290 0.18987 -0.04107
 H2294 H 0.70056 0.24405 -0.05392
 H2295 H 0.71577 0.25554 -0.03482
 H2296 H 0.73952 0.21241 -0.02704
 C2297 C 0.18133 0.70301 -0.10376
 C2298 C 0.19139 0.69538 -0.09363
 C2299 C 0.19459 0.67949 -0.09614
 C2300 C 0.18765 0.67164 -0.10804
 C2301 C 0.17773 0.67936 -0.11800
 C2302 C 0.17469 0.69512 -0.11570
 C2303 C 0.20476 0.67148 -0.08682
 C2304 C 0.21224 0.67894 -0.07525
 C2305 C 0.20962 0.69479 -0.07231
 C2306 C 0.19857 0.70299 -0.08129
 C2307 C 0.19495 0.71844 -0.07751
 C2308 C 0.20213 0.72578 -0.06565
 C2309 C 0.21344 0.71819 -0.05726
 C2310 C 0.21751 0.70265 -0.06057
 C2311 C 0.22954 0.69574 -0.05210
 C2312 C 0.23691 0.70382 -0.04073
 C2313 C 0.23257 0.71902 -0.03730
 C2314 C 0.22078 0.72613 -0.04561
 H2315 H 0.17862 0.71516 -0.10302
 H2316 H 0.19001 0.65942 -0.10950
 H2317 H 0.16737 0.70156 -0.12333
 H2318 H 0.20713 0.65929 -0.08861
 H2319 H 0.21981 0.67182 -0.06857
 H2320 H 0.18633 0.72516 -0.08333
 H2321 H 0.19891 0.73762 -0.06314
 H2322 H 0.23378 0.68421 -0.05415
 H2323 H 0.24605 0.69807 -0.03456
 H2324 H 0.21746 0.73797 -0.04318
 C2325 C 0.20741 0.18142 0.40333
 C2326 C 0.20032 0.19216 0.41307
 C2327 C 0.18469 0.19618 0.41027
 C2328 C 0.17650 0.18926 0.39854
 C2329 C 0.18365 0.17845 0.38916
 C2330 C 0.19922 0.17476 0.39164
 C2331 C 0.17729 0.20712 0.41917
 C2332 C 0.18512 0.21446 0.43062
 C2333 C 0.20071 0.21094 0.43384
 C2334 C 0.20825 0.19919 0.42528
 C2335 C 0.22339 0.19472 0.42934
 C2336 C 0.23112 0.20183 0.44098
 C2337 C 0.22424 0.21384 0.44892
 C2338 C 0.20898 0.21868 0.44544
 C2339 C 0.20278 0.23128 0.45354
 C2340 C 0.21135 0.23864 0.46458
 C2341 C 0.22635 0.23369 0.46805
 C2342 C 0.23267 0.22117 0.46025
 H2343 H 0.21938 0.17815 0.40420
 H2344 H 0.16447 0.19222 0.39682
 H2345 H 0.20525 0.16683 0.38435
 H2346 H 0.16531 0.21017 0.41717
 H2347 H 0.17847 0.22269 0.43695
 H2348 H 0.22956 0.18549 0.42389
 H2349 H 0.24273 0.19798 0.44367
 H2350 H 0.19147 0.23603 0.45142
 H2351 H 0.20619 0.24833 0.47039
 H2352 H 0.24433 0.21735 0.46273
 C2353 C 0.30877 0.40871 0.67104
 C2354 C 0.31070 0.41222 0.68634
 C2355 C 0.32152 0.40323 0.69456
 C2356 C 0.32949 0.39091 0.68779
 C2357 C 0.32712 0.38735 0.67271
 C2358 C 0.31682 0.39652 0.66442
 C2359 C 0.32428 0.40648 0.70954
 C2360 C 0.31657 0.41849 0.71664
 C2361 C 0.30550 0.42767 0.70907
 C2362 C 0.30232 0.42430 0.69373
 C2363 C 0.29062 0.43287 0.68640
 C2364 C 0.28236 0.44435 0.69369
 C2365 C 0.28549 0.44796 0.70851
 C2366 C 0.29726 0.43989 0.71639
 C2367 C 0.30022 0.44444 0.73129
 C2368 C 0.29155 0.45612 0.73810
 C2369 C 0.27962 0.46366 0.73037
 C2370 C 0.27677 0.45958 0.71552
 H2371 H 0.30126 0.41524 0.66376
 H2372 H 0.33735 0.38392 0.69440
 H2373 H 0.31504 0.39439 0.65266
 H2374 H 0.33254 0.39964 0.71589
 H2375 H 0.31935 0.42005 0.72824
 H2376 H 0.28727 0.43078 0.67503
 H2377 H 0.27336 0.45047 0.68763
 H2378 H 0.30921 0.43932 0.73801
 H2379 H 0.29410 0.45911 0.74956
 H2380 H 0.26770 0.46546 0.70934
 C2381 C 0.29515 0.90681 0.17442
 C2382 C 0.29637 0.90916 0.19001
 C2383 C 0.30604 0.89893 0.19821
 C2384 C 0.31354 0.88653 0.19112
 C2385 C 0.31187 0.88413 0.17574
 C2386 C 0.30276 0.89453 0.16749
 C2387 C 0.30813 0.90102 0.21349
 C2388 C 0.30089 0.91311 0.22089
 C2389 C 0.29096 0.92352 0.21332
 C2390 C 0.28838 0.92129 0.19769
 C2391 C 0.27765 0.93102 0.19032
 C2392 C 0.26980 0.94261 0.19786
 C2393 C 0.27247 0.94519 0.21297
 C2394 C 0.28324 0.93589 0.22092
 C2395 C 0.28584 0.93945 0.23613
 C2396 C 0.27777 0.95143 0.24313
 C2397 C 0.26682 0.96023 0.23528
 C2398 C 0.26431 0.95707 0.22017
 H2399 H 0.28860 0.91435 0.16718
 H2400 H 0.32047 0.87858 0.19770
 H2401 H 0.30158 0.89329 0.15553
 H2402 H 0.31550 0.89322 0.21982
 H2403 H 0.30307 0.91375 0.23270
 H2404 H 0.27471 0.92977 0.17872
 H2405 H 0.26155 0.94968 0.19175
 H2406 H 0.29413 0.93335 0.24294
 H2407 H 0.28003 0.95371 0.25480
 H2408 H 0.25602 0.96395 0.21391
 C2409 C 0.79141 0.40013 0.18982
 C2410 C 0.79866 0.41028 0.19996
 C2411 C 0.81434 0.40733 0.20358
 C2412 C 0.82251 0.39518 0.19666
 C2413 C 0.81526 0.38567 0.18616
 C2414 C 0.79958 0.38813 0.18309
 C2415 C 0.82182 0.41660 0.21399
 C2416 C 0.81411 0.42873 0.22095
 C2417 C 0.79858 0.43233 0.21756
 C2418 C 0.79084 0.42314 0.20663
 C2419 C 0.77565 0.42733 0.20247
 C2420 C 0.76814 0.43980 0.20892
 C2421 C 0.77530 0.44858 0.21988
 C2422 C 0.79056 0.44495 0.22451
 C2423 C 0.79705 0.45410 0.23598
 C2424 C 0.78878 0.46635 0.24233
 C2425 C 0.77382 0.47000 0.23747
 C2426 C 0.76719 0.46102 0.22622
 H2427 H 0.77938 0.40096 0.18695
 H2428 H 0.83460 0.39334 0.19921
 H2429 H 0.79349 0.38064 0.17549
 H2430 H 0.83380 0.41443 0.21682
 H2431 H 0.82082 0.43530 0.22877
 H2432 H 0.76927 0.42139 0.19397
 H2433 H 0.75651 0.44259 0.20528
 H2434 H 0.80840 0.45200 0.24045
 H2435 H 0.79417 0.47304 0.25107
 H2436 H 0.75557 0.46360 0.22245
 C2437 C 0.79579 0.90462 0.67954
 C2438 C 0.80308 0.91525 0.68916
 C2439 C 0.81897 0.91289 0.69230
 C2440 C 0.82723 0.90078 0.68545
 C2441 C 0.81988 0.89070 0.67555
 C2442 C 0.80406 0.89264 0.67290
 C2443 C 0.82656 0.92265 0.70219
 C2444 C 0.81873 0.93466 0.70919
 C2445 C 0.80295 0.93762 0.70635
 C2446 C 0.79512 0.92801 0.69584
 C2447 C 0.77967 0.93163 0.69214
 C2448 C 0.77196 0.94391 0.69874
 C2449 C 0.77920 0.95300 0.70941
 C2450 C 0.79475 0.94998 0.71349
 C2451 C 0.80133 0.95939 0.72470
 C2452 C 0.79284 0.97126 0.73138
 C2453 C 0.77755 0.97426 0.72714
 C2454 C 0.77085 0.96508 0.71608
 H2455 H 0.78364 0.90502 0.67707
 H2456 H 0.83945 0.89937 0.68765
 H2457 H 0.79791 0.88472 0.66575
 H2458 H 0.83871 0.92094 0.70461
 H2459 H 0.82552 0.94164 0.71660
 H2460 H 0.77321 0.92538 0.68390
 H2461 H 0.76012 0.94624 0.69550
 H2462 H 0.81292 0.95775 0.72876
 H2463 H 0.79830 0.97812 0.73996
 H2464 H 0.75897 0.96718 0.71280
 C2465 C 0.68093 0.60159 0.69854
 C2466 C 0.69084 0.59103 0.69117
 C2467 C 0.69387 0.59367 0.67582
 C2468 C 0.68670 0.60598 0.66815
 C2469 C 0.67662 0.61609 0.67557
 C2470 C 0.67400 0.61384 0.69085
 C2471 C 0.70405 0.58401 0.66817
 C2472 C 0.71154 0.57190 0.67545
 C2473 C 0.70890 0.56874 0.69072
 C2474 C 0.69796 0.57813 0.69856
 C2475 C 0.69431 0.57417 0.71345
 C2476 C 0.70145 0.56182 0.72064
 C2477 C 0.71267 0.55303 0.71340
 C2478 C 0.71668 0.55638 0.69839
 C2479 C 0.72852 0.54733 0.69180
 C2480 C 0.73589 0.53551 0.69980
 C2481 C 0.73170 0.53220 0.71456
 C2482 C 0.71999 0.54097 0.72124
 H2483 H 0.67852 0.60094 0.71031
 H2484 H 0.68883 0.60756 0.65634
 H2485 H 0.66669 0.62173 0.69702
 H2486 H 0.70636 0.58592 0.65641
 H2487 H 0.71914 0.56501 0.66866
 H2488 H 0.68568 0.58020 0.71985
 H2489 H 0.69824 0.55921 0.73207
 H2490 H 0.73261 0.54928 0.68060
 H2491 H 0.74498 0.52897 0.69438
 H2492 H 0.71676 0.53863 0.73272
 C2493 C 0.70206 0.09702 0.17983
 C2494 C 0.69351 0.08725 0.18948
 C2495 C 0.67789 0.09127 0.19223
 C2496 C 0.67114 0.10423 0.18522
 C2497 C 0.67975 0.11371 0.17560
 C2498 C 0.69528 0.10997 0.17308
 C2499 C 0.66904 0.08237 0.20200
 C2500 C 0.67542 0.06972 0.20942
 C2501 C 0.69094 0.06525 0.20717
 C2502 C 0.69997 0.07384 0.19664
 C2503 C 0.71508 0.06863 0.19348
 C2504 C 0.72137 0.05582 0.20070
 C2505 C 0.71301 0.04779 0.21150
 C2506 C 0.69771 0.05239 0.21500
 C2507 C 0.68997 0.04408 0.22642
 C2508 C 0.69714 0.03178 0.23391
 C2509 C 0.71220 0.02724 0.23027
 C2510 C 0.72001 0.03524 0.21895
 H2511 H 0.71412 0.09522 0.17750
 H2512 H 0.65909 0.10685 0.18722
 H2513 H 0.70238 0.11723 0.16604
 H2514 H 0.65706 0.08531 0.20406
 H2515 H 0.66772 0.06350 0.21671
 H2516 H 0.72235 0.07405 0.18526
 H2517 H 0.73303 0.05227 0.19789
 H2518 H 0.67849 0.04697 0.23010
 H2519 H 0.69085 0.02585 0.24267
 H2520 H 0.73174 0.03195 0.21614
 C2521 C 0.20113 0.59869 0.17494
 C2522 C 0.19406 0.58881 0.18555
 C2523 C 0.17832 0.59155 0.18897
 C2524 C 0.16996 0.60323 0.18150
 C2525 C 0.17709 0.61272 0.17078
 C2526 C 0.19278 0.61038 0.16775
 C2527 C 0.17096 0.58261 0.19982
 C2528 C 0.17891 0.57111 0.20756
 C2529 C 0.19456 0.56781 0.20451
 C2530 C 0.20211 0.57648 0.19297
 C2531 C 0.21734 0.57234 0.18902
 C2532 C 0.22509 0.56042 0.19627
 C2533 C 0.21815 0.55229 0.20791
 C2534 C 0.20287 0.55593 0.21238
 C2535 C 0.19668 0.54759 0.22466
 C2536 C 0.20523 0.53600 0.23190
 C2537 C 0.22016 0.53226 0.22711
 C2538 C 0.22651 0.54050 0.21511
 H2539 H 0.21319 0.59796 0.17214
 H2540 H 0.15783 0.60481 0.18398
 H2541 H 0.19880 0.61778 0.15992
 H2542 H 0.15890 0.58461 0.20245
 H2543 H 0.17231 0.56473 0.21569
 H2544 H 0.22354 0.57784 0.18005
 H2545 H 0.23674 0.55760 0.19276
 H2546 H 0.18536 0.54989 0.22912
 H2547 H 0.20010 0.52990 0.24123
 H2548 H 0.23816 0.53787 0.21144
 C2549 C 0.18519 0.11106 0.70918
 C2550 C 0.19487 0.09986 0.70243
 C2551 C 0.19836 0.10182 0.68708
 C2552 C 0.19198 0.11421 0.67887
 C2553 C 0.18231 0.12515 0.68572
 C2554 C 0.17909 0.12343 0.70097
 C2555 C 0.20826 0.09145 0.67997
 C2556 C 0.21512 0.07933 0.68780
 C2557 C 0.21210 0.07687 0.70312
 C2558 C 0.20137 0.08697 0.71041
 C2559 C 0.19736 0.08374 0.72538
 C2560 C 0.20391 0.07140 0.73312
 C2561 C 0.21490 0.06190 0.72641
 C2562 C 0.21930 0.06452 0.71136
 C2563 C 0.23091 0.05481 0.70531
 C2564 C 0.23767 0.04298 0.71382
 C2565 C 0.23308 0.04033 0.72859
 C2566 C 0.22162 0.04983 0.73477
 H2567 H 0.18237 0.11085 0.72088
 H2568 H 0.19453 0.11526 0.66709
 H2569 H 0.17205 0.13185 0.70675
 H2570 H 0.21090 0.09283 0.66821
 H2571 H 0.22256 0.07188 0.68140
 H2572 H 0.18890 0.09039 0.73142
 H2573 H 0.20042 0.06938 0.74458
 H2574 H 0.23530 0.05620 0.69414
 H2575 H 0.24657 0.03589 0.70877
 H2576 H 0.21808 0.04801 0.74625
 C2577 C 0.29622 0.58765 0.32688
 C2578 C 0.29792 0.58465 0.31143
 C2579 C 0.30779 0.59450 0.30314
 C2580 C 0.31502 0.60713 0.30996
 C2581 C 0.31287 0.61019 0.32518
 C2582 C 0.30355 0.60018 0.33356
 C2583 C 0.31032 0.59183 0.28801
 C2584 C 0.30327 0.57956 0.28082
 C2585 C 0.29311 0.56954 0.28846
 C2586 C 0.29017 0.57230 0.30396
 C2587 C 0.27932 0.56286 0.31138
 C2588 C 0.27161 0.55114 0.30400
 C2589 C 0.27453 0.54814 0.28901
 C2590 C 0.28550 0.55706 0.28104
 C2591 C 0.28835 0.55308 0.26595
 C2592 C 0.28029 0.54111 0.25907
 C2593 C 0.26911 0.53272 0.26691
 C2594 C 0.26640 0.53625 0.28193
 H2595 H 0.28943 0.58047 0.33420
 H2596 H 0.32208 0.61478 0.30326
 H2597 H 0.30198 0.60197 0.34540
 H2598 H 0.31786 0.59933 0.28161
 H2599 H 0.30578 0.57849 0.26911
 H2600 H 0.27619 0.56443 0.32290
 H2601 H 0.26324 0.54433 0.31014
 H2602 H 0.29681 0.55887 0.25915
 H2603 H 0.28270 0.53854 0.24748
 H2604 H 0.25793 0.52968 0.28819
 C2605 C 0.29748 0.10828 0.82173
 C2606 C 0.30436 0.09788 0.81150
 C2607 C 0.32012 0.10016 0.80791
 C2608 C 0.32861 0.11204 0.81467
 C2609 C 0.32167 0.12209 0.82496
 C2610 C 0.30600 0.12011 0.82829
 C2611 C 0.32739 0.09054 0.79760
 C2612 C 0.31936 0.07878 0.79058
 C2613 C 0.30365 0.07595 0.79375
 C2614 C 0.29613 0.08543 0.80465
 C2615 C 0.28071 0.08201 0.80850
 C2616 C 0.27279 0.06999 0.80177
 C2617 C 0.27977 0.06098 0.79082
 C2618 C 0.29525 0.06385 0.78652
 C2619 C 0.30158 0.05455 0.77503
 C2620 C 0.29293 0.04290 0.76831
 C2621 C 0.27773 0.04000 0.77277
 C2622 C 0.27126 0.04910 0.78409
 H2623 H 0.28548 0.10780 0.82478
 H2624 H 0.34073 0.11332 0.81203
 H2625 H 0.30017 0.12789 0.83588
 H2626 H 0.33946 0.09219 0.79485
 H2627 H 0.32594 0.07191 0.78285
 H2628 H 0.27441 0.08826 0.81690
 H2629 H 0.26098 0.06780 0.80515
 H2630 H 0.31309 0.05609 0.77079
 H2631 H 0.29822 0.03611 0.75954
 H2632 H 0.25944 0.04709 0.78755
 C2633 C 0.79165 0.60084 0.80976
 C2634 C 0.79940 0.59108 0.79954
 C2635 C 0.81509 0.59432 0.79640
 C2636 C 0.82271 0.60648 0.80366
 C2637 C 0.81489 0.61592 0.81391
 C2638 C 0.79927 0.61298 0.81674
 C2639 C 0.82309 0.58545 0.78597
 C2640 C 0.81583 0.57357 0.77834
 C2641 C 0.80023 0.56984 0.78107
 C2642 C 0.79204 0.57841 0.79221
 C2643 C 0.77685 0.57390 0.79582
 C2644 C 0.76971 0.56176 0.78855
 C2645 C 0.77727 0.55373 0.77725
 C2646 C 0.79257 0.55767 0.77320
 C2647 C 0.79946 0.54936 0.76132
 C2648 C 0.79152 0.53755 0.75402
 C2649 C 0.77652 0.53356 0.75832
 C2650 C 0.76949 0.54173 0.76997
 H2651 H 0.77959 0.59969 0.81238
 H2652 H 0.83479 0.60854 0.80135
 H2653 H 0.79270 0.62029 0.82419
 H2654 H 0.83511 0.58782 0.78355
 H2655 H 0.82290 0.56732 0.77053
 H2656 H 0.77018 0.57931 0.80449
 H2657 H 0.75804 0.55870 0.79176
 H2658 H 0.81086 0.55182 0.75720
 H2659 H 0.79720 0.53149 0.74499
 H2660 H 0.75781 0.53888 0.77330
 C2661 C 0.81329 0.09032 0.29111
 C2662 C 0.80168 0.08138 0.29815
 C2663 C 0.79808 0.08488 0.31319
 C2664 C 0.80609 0.09652 0.32084
 C2665 C 0.81763 0.10520 0.31373
 C2666 C 0.82105 0.10197 0.29877
 C2667 C 0.78646 0.07678 0.32058
 C2668 C 0.77810 0.06540 0.31333
 C2669 C 0.78118 0.06143 0.29835
 C2670 C 0.79346 0.06926 0.29077
 C2671 C 0.79724 0.06457 0.27614
 C2672 C 0.78918 0.05288 0.26904
 C2673 C 0.77688 0.04550 0.27607
 C2674 C 0.77255 0.04973 0.29076
 C2675 C 0.75964 0.04215 0.29714
 C2676 C 0.75164 0.03075 0.28933
 C2677 C 0.75620 0.02643 0.27495
 C2678 C 0.76885 0.03390 0.26840
 H2679 H 0.81649 0.08884 0.27960
 H2680 H 0.80336 0.09871 0.33243
 H2681 H 0.82961 0.10865 0.29281
 H2682 H 0.78369 0.07935 0.33210
 H2683 H 0.76941 0.05971 0.31994
 H2684 H 0.80661 0.06952 0.26988
 H2685 H 0.79258 0.04964 0.25783
 H2686 H 0.75525 0.04487 0.30806
 H2687 H 0.74185 0.02526 0.29464
 H2688 H 0.77241 0.03079 0.25721
 C2689 C 0.67873 0.40383 0.29764
 C2690 C 0.68869 0.41439 0.30478
 C2691 C 0.69245 0.41152 0.31995
 C2692 C 0.68597 0.39889 0.32767
 C2693 C 0.67592 0.38867 0.32045
 C2694 C 0.67253 0.39126 0.30534
 C2695 C 0.70273 0.42121 0.32732
 C2696 C 0.70971 0.43349 0.31989
 C2697 C 0.70641 0.43681 0.30477
 C2698 C 0.69528 0.42745 0.29727
 C2699 C 0.69096 0.43155 0.28257
 C2700 C 0.69775 0.44389 0.27517
 C2701 C 0.70922 0.45258 0.28200
 C2702 C 0.71378 0.44922 0.29687
 C2703 C 0.72577 0.45826 0.30306
 C2704 C 0.73286 0.47000 0.29477
 C2705 C 0.72823 0.47323 0.28010
 C2706 C 0.71627 0.46454 0.27387
 H2707 H 0.67577 0.40466 0.28600
 H2708 H 0.68872 0.39707 0.33934
 H2709 H 0.66528 0.38335 0.29924
 H2710 H 0.70560 0.41915 0.33895
 H2711 H 0.71750 0.44035 0.32644
 H2712 H 0.68211 0.42559 0.27647
 H2713 H 0.69408 0.44654 0.26387
 H2714 H 0.73021 0.45635 0.31415
 H2715 H 0.74211 0.47649 0.29986
 H2716 H 0.71265 0.46683 0.26248
 C2717 C 0.68279 0.90620 0.79075
 C2718 C 0.69291 0.91684 0.79756
 C2719 C 0.69647 0.91454 0.81286
 C2720 C 0.68963 0.90243 0.82100
 C2721 C 0.67944 0.89212 0.81410
 C2722 C 0.67626 0.89411 0.79887
 C2723 C 0.70692 0.92428 0.81994
 C2724 C 0.71422 0.93609 0.81212
 C2725 C 0.71106 0.93888 0.79687
 C2726 C 0.69979 0.92946 0.78964
 C2727 C 0.69558 0.93311 0.77481
 C2728 C 0.70251 0.94515 0.76709
 C2729 C 0.71405 0.95393 0.77370
 C2730 C 0.71863 0.95091 0.78863
 C2731 C 0.73077 0.95993 0.79456
 C2732 C 0.73783 0.97150 0.78604
 C2733 C 0.73301 0.97455 0.77140
 C2734 C 0.72107 0.96571 0.76534
 H2735 H 0.67999 0.90658 0.77905
 H2736 H 0.69222 0.90109 0.83276
 H2737 H 0.66890 0.88609 0.79303
 H2738 H 0.70965 0.92264 0.83166
 H2739 H 0.72209 0.94305 0.81847
 H2740 H 0.68666 0.92708 0.76888
 H2741 H 0.69886 0.94753 0.75573
 H2742 H 0.73531 0.95817 0.80563
 H2743 H 0.74709 0.97811 0.79097
 H2744 H 0.71734 0.96784 0.75396
 C2745 C 0.21493 0.39187 0.81971
 C2746 C 0.20736 0.40190 0.80950
 C2747 C 0.19175 0.39871 0.80603
 C2748 C 0.18398 0.38640 0.81306
 C2749 C 0.19158 0.37674 0.82340
 C2750 C 0.20718 0.37956 0.82647
 C2751 C 0.18392 0.40780 0.79555
 C2752 C 0.19129 0.41991 0.78822
 C2753 C 0.20679 0.42368 0.79134
 C2754 C 0.21479 0.41484 0.80252
 C2755 C 0.22983 0.41942 0.80657
 C2756 C 0.23698 0.43192 0.79974
 C2757 C 0.22961 0.44024 0.78842
 C2758 C 0.21450 0.43617 0.78387
 C2759 C 0.20786 0.44469 0.77190
 C2760 C 0.21581 0.45684 0.76502
 C2761 C 0.23057 0.46101 0.76986
 C2762 C 0.23737 0.45263 0.78159
 H2763 H 0.22696 0.39297 0.82252
 H2764 H 0.17193 0.38449 0.81055
 H2765 H 0.21358 0.37210 0.83399
 H2766 H 0.17196 0.40546 0.79287
 H2767 H 0.18434 0.42636 0.78037
 H2768 H 0.23633 0.41378 0.81530
 H2769 H 0.24850 0.43505 0.80332
 H2770 H 0.19665 0.44211 0.76738
 H2771 H 0.21033 0.46304 0.75589
 H2772 H 0.24889 0.45559 0.78530
 C2773 C 0.18669 0.90858 0.33517
 C2774 C 0.18539 0.91168 0.31968
 C2775 C 0.17509 0.90242 0.31134
 C2776 C 0.16702 0.89026 0.31819
 C2777 C 0.16869 0.88713 0.33348
 C2778 C 0.17848 0.89653 0.34189
 C2779 C 0.17295 0.90522 0.29615
 C2780 C 0.18075 0.91708 0.28895
 C2781 C 0.19130 0.92654 0.29664
 C2782 C 0.19391 0.92358 0.31219
 C2783 C 0.20520 0.93237 0.31965
 C2784 C 0.21361 0.94368 0.31226
 C2785 C 0.21098 0.94692 0.29722
 C2786 C 0.19961 0.93863 0.28922
 C2787 C 0.19706 0.94286 0.27410
 C2788 C 0.20579 0.95442 0.26722
 C2789 C 0.21735 0.96215 0.27508
 C2790 C 0.21977 0.95841 0.29014
 H2791 H 0.19379 0.91534 0.34251
 H2792 H 0.15963 0.88305 0.31144
 H2793 H 0.17975 0.89468 0.35378
 H2794 H 0.16510 0.89815 0.28972
 H2795 H 0.17848 0.91828 0.27719
 H2796 H 0.20813 0.93057 0.33120
 H2797 H 0.22229 0.94999 0.31843
 H2798 H 0.18834 0.93760 0.26728
 H2799 H 0.20358 0.95718 0.25560
 H2800 H 0.22854 0.96447 0.29641
 C2801 C 0.42091 0.30638 0.67006
 C2802 C 0.42389 0.30773 0.68553
 C2803 C 0.41413 0.31765 0.69389
 C2804 C 0.40148 0.32512 0.68712
 C2805 C 0.39833 0.32311 0.67190
 C2806 C 0.40837 0.31392 0.66344
 C2807 C 0.41689 0.31992 0.70904
 C2808 C 0.42913 0.31255 0.71617
 C2809 C 0.43899 0.30227 0.70846
 C2810 C 0.43613 0.29958 0.69295
 C2811 C 0.44530 0.28850 0.68549
 C2812 C 0.45689 0.28036 0.69284
 C2813 C 0.46005 0.28308 0.70784
 C2814 C 0.45138 0.29428 0.71583
 C2815 C 0.45553 0.29696 0.73089
 C2816 C 0.46738 0.28853 0.73774
 C2817 C 0.47549 0.27711 0.72990
 C2818 C 0.47182 0.27455 0.71490
 H2819 H 0.42811 0.29971 0.66268
 H2820 H 0.39385 0.33218 0.69384
 H2821 H 0.40658 0.31255 0.65157
 H2822 H 0.40948 0.32750 0.71550
 H2823 H 0.43026 0.31486 0.72791
 H2824 H 0.44356 0.28547 0.67398
 H2825 H 0.46348 0.27181 0.68668
 H2826 H 0.44998 0.30559 0.73769
 H2827 H 0.47007 0.29086 0.74931
 H2828 H 0.47818 0.26590 0.70866
 C2829 C 0.39251 0.79140 0.18102
 C2830 C 0.40246 0.79922 0.19096
 C2831 C 0.39957 0.81516 0.19350
 C2832 C 0.38754 0.82289 0.18599
 C2833 C 0.37783 0.81497 0.17612
 C2834 C 0.38046 0.79915 0.17380
 C2835 C 0.40865 0.82332 0.20358
 C2836 C 0.42037 0.81596 0.21150
 C2837 C 0.42374 0.80011 0.20943
 C2838 C 0.41498 0.79174 0.19861
 C2839 C 0.41915 0.77624 0.19563
 C2840 C 0.43115 0.76901 0.20321
 C2841 C 0.43935 0.77677 0.21421
 C2842 C 0.43572 0.79237 0.21764
 C2843 C 0.44415 0.79946 0.22931
 C2844 C 0.45577 0.79142 0.23697
 C2845 C 0.45946 0.77612 0.23326
 C2846 C 0.45117 0.76890 0.22185
 H2847 H 0.39345 0.77919 0.17882
 H2848 H 0.38580 0.83515 0.18785
 H2849 H 0.37297 0.79256 0.16659
 H2850 H 0.40655 0.83553 0.20551
 H2851 H 0.42682 0.82317 0.21901
 H2852 H 0.41356 0.76939 0.18723
 H2853 H 0.43396 0.75711 0.20047
 H2854 H 0.44190 0.81110 0.23298
 H2855 H 0.46193 0.79724 0.24582
 H2856 H 0.45378 0.75699 0.21898
 C2857 C 0.89554 0.29108 0.18621
 C2858 C 0.90597 0.29775 0.19645
 C2859 C 0.90318 0.31327 0.20084
 C2860 C 0.89090 0.32184 0.19460
 C2861 C 0.88097 0.31518 0.18411
 C2862 C 0.88332 0.29964 0.18021
 C2863 C 0.91270 0.32021 0.21138
 C2864 C 0.92486 0.31207 0.21784
 C2865 C 0.92825 0.29664 0.21377
 C2866 C 0.91894 0.28954 0.20254
 C2867 C 0.92311 0.27461 0.19756
 C2868 C 0.93567 0.26670 0.20354
 C2869 C 0.94445 0.27317 0.21491
 C2870 C 0.94079 0.28815 0.22035
 C2871 C 0.94974 0.29387 0.23231
 C2872 C 0.96185 0.28518 0.23839
 C2873 C 0.96559 0.27055 0.23275
 C2874 C 0.95685 0.26464 0.22095
 H2875 H 0.89630 0.27917 0.18277
 H2876 H 0.88929 0.33383 0.19776
 H2877 H 0.87558 0.29395 0.17255
 H2878 H 0.91067 0.33209 0.21475
 H2879 H 0.93167 0.31839 0.22577
 H2880 H 0.91709 0.26877 0.18873
 H2881 H 0.93846 0.25530 0.19927
 H2882 H 0.94753 0.30489 0.23747
 H2883 H 0.96835 0.29000 0.24757
 H2884 H 0.95951 0.25323 0.21663
 C2885 C 0.90090 0.79767 0.67976
 C2886 C 0.91133 0.80512 0.68950
 C2887 C 0.90886 0.82109 0.69232
 C2888 C 0.89674 0.82919 0.68530
 C2889 C 0.88666 0.82167 0.67552
 C2890 C 0.88884 0.80582 0.67294
 C2891 C 0.91850 0.82893 0.70214
 C2892 C 0.93042 0.82126 0.70948
 C2893 C 0.93338 0.80537 0.70712
 C2894 C 0.92396 0.79727 0.69664
 C2895 C 0.92759 0.78166 0.69350
 C2896 C 0.93969 0.77407 0.70064
 C2897 C 0.94857 0.78158 0.71132
 C2898 C 0.94553 0.79731 0.71481
 C2899 C 0.95467 0.80420 0.72605
 C2900 C 0.96624 0.79582 0.73340
 C2901 C 0.96924 0.78034 0.72979
 C2902 C 0.96040 0.77334 0.71864
 H2903 H 0.90152 0.78549 0.67734
 H2904 H 0.89530 0.84146 0.68735
 H2905 H 0.88104 0.79955 0.66577
 H2906 H 0.91673 0.84115 0.70427
 H2907 H 0.93729 0.82827 0.71679
 H2908 H 0.92144 0.77497 0.68537
 H2909 H 0.94202 0.76208 0.69784
 H2910 H 0.95301 0.81594 0.72970
 H2911 H 0.97284 0.80152 0.74201
 H2912 H 0.96249 0.76131 0.71584
 C2913 C 0.59984 0.31399 0.29627
 C2914 C 0.59003 0.30311 0.30327
 C2915 C 0.59315 0.29915 0.31836
 C2916 C 0.60513 0.30648 0.32620
 C2917 C 0.61439 0.31764 0.31919
 C2918 C 0.61173 0.32106 0.30410
 C2919 C 0.58429 0.28793 0.32555
 C2920 C 0.57247 0.28039 0.31808
 C2921 C 0.56876 0.28405 0.30311
 C2922 C 0.57739 0.29595 0.29575
 C2923 C 0.57290 0.30055 0.28124
 C2924 C 0.56073 0.29351 0.27395
 C2925 C 0.55262 0.28148 0.28069
 C2926 C 0.55655 0.27642 0.29529
 C2927 C 0.54816 0.26381 0.30134
 C2928 C 0.53633 0.25676 0.29326
 C2929 C 0.53238 0.26206 0.27895
 C2930 C 0.54059 0.27446 0.27278
 H2931 H 0.59888 0.31710 0.28466
 H2932 H 0.60709 0.30363 0.33784
 H2933 H 0.61902 0.32914 0.29815
 H2934 H 0.58658 0.28484 0.33708
 H2935 H 0.56619 0.27194 0.32451
 H2936 H 0.57834 0.30988 0.27524
 H2937 H 0.55768 0.29750 0.26283
 H2938 H 0.55059 0.25891 0.31217
 H2939 H 0.53024 0.24713 0.29827
 H2940 H 0.53778 0.27856 0.26164
 C2941 C 0.60198 0.81734 0.79336
 C2942 C 0.59160 0.80754 0.80105
 C2943 C 0.59437 0.80477 0.81644
 C2944 C 0.60661 0.81215 0.82384
 C2945 C 0.61645 0.82223 0.81611
 C2946 C 0.61411 0.82450 0.80077
 C2947 C 0.58488 0.79469 0.82440
 C2948 C 0.57277 0.78712 0.81741
 C2949 C 0.56944 0.78957 0.80214
 C2950 C 0.57873 0.80031 0.79394
 C2951 C 0.57469 0.80370 0.77900
 C2952 C 0.56230 0.79655 0.77214
 C2953 C 0.55354 0.78558 0.77974
 C2954 C 0.55700 0.78181 0.79481
 C2955 C 0.54796 0.77024 0.80182
 C2956 C 0.53602 0.76292 0.79419
 C2957 C 0.53256 0.76687 0.77938
 C2958 C 0.54134 0.77829 0.77226
 H2959 H 0.60126 0.81954 0.78154
 H2960 H 0.60830 0.81023 0.83568
 H2961 H 0.62183 0.83174 0.79434
 H2962 H 0.58688 0.79255 0.83617
 H2963 H 0.56601 0.77962 0.82445
 H2964 H 0.58068 0.81213 0.77231
 H2965 H 0.55964 0.79957 0.76066
 H2966 H 0.54996 0.76634 0.81309
 H2967 H 0.52946 0.75407 0.79996
 H2968 H 0.53889 0.78134 0.76074
 C2969 C 0.10540 0.28929 0.82129
 C2970 C 0.09495 0.29780 0.81223
 C2971 C 0.09821 0.31368 0.80963
 C2972 C 0.11118 0.32065 0.81611
 C2973 C 0.12127 0.31208 0.82518
 C2974 C 0.11827 0.29634 0.82761
 C2975 C 0.08851 0.32257 0.80060
 C2976 C 0.07575 0.31605 0.79378
 C2977 C 0.07203 0.30027 0.79584
 C2978 C 0.08155 0.29110 0.80554
 C2979 C 0.07730 0.27557 0.80830
 C2980 C 0.06451 0.26905 0.80148
 C2981 C 0.05549 0.27763 0.79153
 C2982 C 0.05909 0.29336 0.78854
 C2983 C 0.04973 0.30142 0.77812
 C2984 C 0.03752 0.29413 0.77095
 C2985 C 0.03406 0.27859 0.77391
 C2986 C 0.04300 0.27045 0.78438
 H2987 H 0.10414 0.27712 0.82356
 H2988 H 0.11331 0.33285 0.81423
 H2989 H 0.12604 0.28932 0.83428
 H2990 H 0.09087 0.33473 0.79866
 H2991 H 0.06892 0.32384 0.78705
 H2992 H 0.08354 0.26807 0.81582
 H2993 H 0.06176 0.25707 0.80391
 H2994 H 0.05166 0.31329 0.77495
 H2995 H 0.03080 0.30073 0.76292
 H2996 H 0.04050 0.25838 0.78668
 C2997 C 0.09225 0.81480 0.30195
 C2998 C 0.08235 0.80331 0.30784
 C2999 C 0.08388 0.79950 0.32318
 C3000 C 0.09449 0.80736 0.33223
 C3001 C 0.10407 0.81887 0.32623
 C3002 C 0.10287 0.82236 0.31098
 C3003 C 0.07486 0.78782 0.32943
 C3004 C 0.06445 0.77963 0.32076
 C3005 C 0.06238 0.78305 0.30546
 C3006 C 0.07115 0.79540 0.29901
 C3007 C 0.06824 0.79965 0.28403
 C3008 C 0.05736 0.79199 0.27554
 C3009 C 0.04908 0.77964 0.28149
 C3010 C 0.05158 0.77478 0.29644
 C3011 C 0.04317 0.76178 0.30165
 C3012 C 0.03243 0.75438 0.29253
 C3013 C 0.02967 0.75966 0.27797
 C3014 C 0.03818 0.77222 0.27251
 H3015 H 0.09240 0.81801 0.29033
 H3016 H 0.09522 0.80451 0.34399
 H3017 H 0.11040 0.83078 0.30582
 H3018 H 0.07594 0.78486 0.34116
 H3019 H 0.05791 0.77088 0.32652
 H3020 H 0.07391 0.80918 0.27856
 H3021 H 0.05542 0.79579 0.26414
 H3022 H 0.04469 0.75694 0.31266
 H3023 H 0.02610 0.74461 0.29699
 H3024 H 0.03630 0.77628 0.26117
 C3025 C 0.59395 0.70547 0.67876
 C3026 C 0.58474 0.69776 0.68950
 C3027 C 0.58765 0.68181 0.69204
 C3028 C 0.59905 0.67396 0.68384
 C3029 C 0.60817 0.68181 0.67331
 C3030 C 0.60544 0.69763 0.67090
 C3031 C 0.57931 0.67377 0.70288
 C3032 C 0.56835 0.68128 0.71158
 C3033 C 0.56503 0.69717 0.70955
 C3034 C 0.57298 0.70540 0.69796
 C3035 C 0.56878 0.72094 0.69509
 C3036 C 0.55755 0.72835 0.70346
 C3037 C 0.55017 0.72072 0.71515
 C3038 C 0.55385 0.70508 0.71854
 C3039 C 0.54626 0.69815 0.73090
 C3040 C 0.53527 0.70635 0.73920
 C3041 C 0.53146 0.72165 0.73545
 C3042 C 0.53905 0.72873 0.72344
 H3043 H 0.59296 0.71768 0.67645
 H3044 H 0.60085 0.66170 0.68578
 H3045 H 0.61245 0.70419 0.66318
 H3046 H 0.58143 0.66154 0.70482
 H3047 H 0.56246 0.67419 0.71966
 H3048 H 0.57373 0.72771 0.68619
 H3049 H 0.55467 0.74028 0.70077
 H3050 H 0.54866 0.68649 0.73458
 H3051 H 0.52965 0.70063 0.74850
 H3052 H 0.53636 0.74065 0.72053
 C3053 C 0.59899 0.20653 0.17997
 C3054 C 0.58910 0.19846 0.18988
 C3055 C 0.59213 0.18250 0.19233
 C3056 C 0.60436 0.17505 0.18496
 C3057 C 0.61411 0.18322 0.17524
 C3058 C 0.61124 0.19902 0.17284
 C3059 C 0.58302 0.17402 0.20221
 C3060 C 0.57113 0.18106 0.21006
 C3061 C 0.56769 0.19695 0.20819
 C3062 C 0.57649 0.20568 0.19758
 C3063 C 0.57232 0.22128 0.19493
 C3064 C 0.56026 0.22825 0.20262
 C3065 C 0.55200 0.22010 0.21342
 C3066 C 0.55563 0.20438 0.21649
 C3067 C 0.54716 0.19684 0.22792
 C3068 C 0.53555 0.20458 0.23577
 C3069 C 0.53189 0.22004 0.23251
 C3070 C 0.54016 0.22770 0.22126
 H3071 H 0.59784 0.21874 0.17770
 H3072 H 0.60624 0.16278 0.18680
 H3073 H 0.61869 0.20576 0.16565
 H3074 H 0.58522 0.16178 0.20403
 H3075 H 0.56469 0.17359 0.21739
 H3076 H 0.57801 0.22845 0.18677
 H3077 H 0.55748 0.24025 0.20016
 H3078 H 0.54936 0.18506 0.23131
 H3079 H 0.52942 0.19838 0.24445
 H3080 H 0.53755 0.23972 0.21873
 C3081 C 0.09290 0.70163 0.17484
 C3082 C 0.08348 0.69406 0.18550
 C3083 C 0.08640 0.67814 0.18831
 C3084 C 0.09806 0.67022 0.18054
 C3085 C 0.10724 0.67791 0.17001
 C3086 C 0.10453 0.69368 0.16729
 C3087 C 0.07774 0.67017 0.19893
 C3088 C 0.06639 0.67767 0.20710
 C3089 C 0.06307 0.69354 0.20486
 C3090 C 0.07145 0.70177 0.19357
 C3091 C 0.06744 0.71736 0.19066
 C3092 C 0.05596 0.72482 0.19869
 C3093 C 0.04809 0.71716 0.21008
 C3094 C 0.05156 0.70145 0.21343
 C3095 C 0.04344 0.69440 0.22537
 C3096 C 0.03232 0.70257 0.23342
 C3097 C 0.02884 0.71801 0.22990
 C3098 C 0.03678 0.72522 0.21818
 H3099 H 0.09185 0.71378 0.17225
 H3100 H 0.09993 0.65800 0.18268
 H3101 H 0.11165 0.70005 0.15950
 H3102 H 0.07985 0.65797 0.20105
 H3103 H 0.06026 0.67057 0.21500
 H3104 H 0.07282 0.72417 0.18203
 H3105 H 0.05328 0.73679 0.19602
 H3106 H 0.04553 0.68267 0.22897
 H3107 H 0.02643 0.69672 0.24248
 H3108 H 0.03427 0.73721 0.21541
 C3109 C 0.10405 0.21971 0.68117
 C3110 C 0.09251 0.21196 0.68952
 C3111 C 0.09424 0.19574 0.69160
 C3112 C 0.10692 0.18780 0.68556
 C3113 C 0.11829 0.19567 0.67750
 C3114 C 0.11667 0.21167 0.67529
 C3115 C 0.08337 0.18747 0.69979
 C3116 C 0.07103 0.19495 0.70648
 C3117 C 0.06897 0.21114 0.70518
 C3118 C 0.07955 0.21971 0.69610
 C3119 C 0.07678 0.23570 0.69393
 C3120 C 0.06448 0.24319 0.70081
 C3121 C 0.05457 0.23517 0.71031
 C3122 C 0.05668 0.21903 0.71268
 C3123 C 0.04663 0.21152 0.72280
 C3124 C 0.03511 0.21969 0.73023
 C3125 C 0.03305 0.23561 0.72786
 C3126 C 0.04270 0.24326 0.71771
 H3127 H 0.10387 0.23202 0.67923
 H3128 H 0.10790 0.17539 0.68714
 H3129 H 0.12539 0.21810 0.66927
 H3130 H 0.08451 0.17504 0.70122
 H3131 H 0.06318 0.18759 0.71249
 H3132 H 0.08388 0.24282 0.68684
 H3133 H 0.06288 0.25550 0.69885
 H3134 H 0.04754 0.19942 0.72559
 H3135 H 0.02782 0.21345 0.73800
 H3136 H 0.04127 0.25561 0.71589
 C3137 C 0.38945 0.68425 0.29691
 C3138 C 0.40021 0.69416 0.30383
 C3139 C 0.39788 0.69769 0.31911
 C3140 C 0.38568 0.69092 0.32717
 C3141 C 0.37546 0.68070 0.32022
 C3142 C 0.37737 0.67768 0.30498
 C3143 C 0.40779 0.70788 0.32632
 C3144 C 0.41990 0.71483 0.31869
 C3145 C 0.42281 0.71162 0.30349
 C3146 C 0.41306 0.70078 0.29607
 C3147 C 0.41664 0.69668 0.28122
 C3148 C 0.42901 0.70324 0.27371
 C3149 C 0.43823 0.71428 0.28055
 C3150 C 0.43525 0.71875 0.29550
 C3151 C 0.44477 0.73034 0.30171
 C3152 C 0.45666 0.73706 0.29344
 C3153 C 0.45961 0.73247 0.27874
 C3154 C 0.45038 0.72097 0.27242
 H3155 H 0.38984 0.68147 0.28522
 H3156 H 0.38432 0.69341 0.33893
 H3157 H 0.36937 0.67028 0.29915
 H3158 H 0.40612 0.71060 0.33800
 H3159 H 0.42699 0.72247 0.32517
 H3160 H 0.41027 0.68815 0.27509
 H3161 H 0.43129 0.69968 0.26233
 H3162 H 0.44318 0.73473 0.31283
 H3163 H 0.46356 0.74598 0.29861
 H3164 H 0.45244 0.71742 0.26100
 C3165 C 0.40633 0.21070 0.81898
 C3166 C 0.41629 0.20331 0.80872
 C3167 C 0.41319 0.18767 0.80510
 C3168 C 0.40112 0.17963 0.81221
 C3169 C 0.39180 0.18701 0.82283
 C3170 C 0.39438 0.20268 0.82586
 C3171 C 0.42218 0.18010 0.79447
 C3172 C 0.43415 0.18773 0.78722
 C3173 C 0.43787 0.20323 0.79060
 C3174 C 0.42908 0.21097 0.80187
 C3175 C 0.43358 0.22599 0.80619
 C3176 C 0.44592 0.23340 0.79948
 C3177 C 0.45418 0.22632 0.78805
 C3178 C 0.45024 0.21121 0.78330
 C3179 C 0.45878 0.20483 0.77130
 C3180 C 0.47075 0.21309 0.76454
 C3181 C 0.47470 0.22790 0.76952
 C3182 C 0.46636 0.23439 0.78132
 H3183 H 0.40725 0.22277 0.82178
 H3184 H 0.39918 0.16755 0.80966
 H3185 H 0.38700 0.20891 0.83352
 H3186 H 0.41990 0.16814 0.79164
 H3187 H 0.44053 0.18099 0.77924
 H3188 H 0.42803 0.23226 0.81506
 H3189 H 0.44897 0.24490 0.80324
 H3190 H 0.45636 0.19363 0.76668
 H3191 H 0.47694 0.20783 0.75536
 H3192 H 0.46918 0.24592 0.78516
 C3193 C 0.89450 0.68959 0.78905
 C3194 C 0.90516 0.69910 0.79663
 C3195 C 0.90235 0.70213 0.81193
 C3196 C 0.88986 0.69517 0.81939
 C3197 C 0.87972 0.68532 0.81180
 C3198 C 0.88208 0.68288 0.79652
 C3199 C 0.91208 0.71203 0.81974
 C3200 C 0.92449 0.71914 0.81270
 C3201 C 0.92793 0.71633 0.79754
 C3202 C 0.91837 0.70577 0.78952
 C3203 C 0.92253 0.70193 0.77475
 C3204 C 0.93531 0.70842 0.76791
 C3205 C 0.94437 0.71919 0.77533
 C3206 C 0.94077 0.72350 0.79019
 C3207 C 0.95012 0.73492 0.79694
 C3208 C 0.96254 0.74154 0.78929
 C3209 C 0.96618 0.73695 0.77474
 C3210 C 0.95703 0.72573 0.76787
 H3211 H 0.89523 0.68729 0.77728
 H3212 H 0.88821 0.69724 0.83119
 H3213 H 0.87419 0.67584 0.79016
 H3214 H 0.91003 0.71440 0.83145
 H3215 H 0.93142 0.72653 0.81960
 H3216 H 0.91633 0.69357 0.76823
 H3217 H 0.93808 0.70502 0.75658
 H3218 H 0.94799 0.73923 0.80801
 H3219 H 0.96935 0.75028 0.79483
 H3220 H 0.95959 0.72223 0.75653
 C3221 C 0.91403 0.18166 0.32485
 C3222 C 0.91713 0.18208 0.30935
 C3223 C 0.90760 0.17309 0.29992
 C3224 C 0.89490 0.16497 0.30577
 C3225 C 0.89148 0.16547 0.32105
 C3226 C 0.90145 0.17354 0.33052
 C3227 C 0.91058 0.17248 0.28466
 C3228 C 0.92273 0.18071 0.27844
 C3229 C 0.93228 0.19023 0.28724
 C3230 C 0.92923 0.19117 0.30291
 C3231 C 0.93801 0.20157 0.31153
 C3232 C 0.94938 0.21071 0.30513
 C3233 C 0.95273 0.20970 0.28996
 C3234 C 0.94449 0.19921 0.28083
 C3235 C 0.94885 0.19819 0.26564
 C3236 C 0.96046 0.20754 0.25976
 C3237 C 0.96814 0.21829 0.26871
 C3238 C 0.96427 0.21922 0.28386
 H3239 H 0.92113 0.18743 0.33295
 H3240 H 0.88736 0.15872 0.29830
 H3241 H 0.89946 0.17367 0.34244
 H3242 H 0.90337 0.16561 0.27739
 H3243 H 0.92402 0.17971 0.26654
 H3244 H 0.93607 0.20331 0.32327
 H3245 H 0.95563 0.21870 0.31217
 H3246 H 0.94366 0.19017 0.25800
 H3247 H 0.96330 0.20645 0.24804
 H3248 H 0.97030 0.22733 0.29095
 C3249 C 0.32508 0.29456 0.59533
 C3250 C 0.31525 0.30236 0.58511
 C3251 C 0.31232 0.31831 0.58759
 C3252 C 0.31926 0.32604 0.59958
 C3253 C 0.32906 0.31815 0.60951
 C3254 C 0.33181 0.30234 0.60726
 C3255 C 0.30247 0.32652 0.57811
 C3256 C 0.29513 0.31922 0.56635
 C3257 C 0.29750 0.30333 0.56343
 C3258 C 0.30808 0.29487 0.57270
 C3259 C 0.31125 0.27926 0.56916
 C3260 C 0.30400 0.27199 0.55732
 C3261 C 0.29317 0.27986 0.54860
 C3262 C 0.28969 0.29562 0.55151
 C3263 C 0.27832 0.30291 0.54252
 C3264 C 0.27078 0.29485 0.53123
 C3265 C 0.27431 0.27930 0.52839
 C3266 C 0.28565 0.27193 0.53705
 H3267 H 0.32762 0.28237 0.59463
 H3268 H 0.31712 0.33830 0.60108
 H3269 H 0.33903 0.29583 0.61491
 H3270 H 0.30028 0.33875 0.57988
 H3271 H 0.28777 0.32650 0.55960
 H3272 H 0.31946 0.27229 0.57524
 H3273 H 0.30679 0.25997 0.55508
 H3274 H 0.27468 0.31472 0.54406
 H3275 H 0.26203 0.30085 0.52474
 H3276 H 0.28840 0.25985 0.53505
 C3277 C 0.28831 0.81391 0.09496
 C3278 C 0.29640 0.80403 0.08510
 C3279 C 0.31218 0.80103 0.08820
 C3280 C 0.31952 0.80804 0.10039
 C3281 C 0.31135 0.81789 0.10999
 C3282 C 0.29566 0.82065 0.10715
 C3283 C 0.32060 0.79099 0.07916
 C3284 C 0.31366 0.78351 0.06727
 C3285 C 0.29795 0.78600 0.06373
 C3286 C 0.28934 0.79686 0.07246
 C3287 C 0.27402 0.80033 0.06814
 C3288 C 0.26719 0.79314 0.05603
 C3289 C 0.27517 0.78201 0.04786
 C3290 C 0.29062 0.77814 0.05163
 C3291 C 0.29797 0.76635 0.04327
 C3292 C 0.29034 0.75894 0.03162
 C3293 C 0.27518 0.76301 0.02780
 C3294 C 0.26769 0.77463 0.03595
 H3295 H 0.27618 0.81641 0.09383
 H3296 H 0.33167 0.80586 0.10232
 H3297 H 0.28888 0.82784 0.11453
 H3298 H 0.33270 0.78873 0.08140
 H3299 H 0.32106 0.77603 0.06086
 H3300 H 0.26703 0.80883 0.07375
 H3301 H 0.25542 0.79623 0.05314
 H3302 H 0.30950 0.76231 0.04560
 H3303 H 0.29639 0.74994 0.02557
 H3304 H 0.25589 0.77776 0.03321
 C3305 C 0.79570 0.32463 0.09970
 C3306 C 0.80318 0.31406 0.09008
 C3307 C 0.81842 0.30941 0.09376
 C3308 C 0.82595 0.31567 0.10624
 C3309 C 0.81839 0.32625 0.11562
 C3310 C 0.80316 0.33052 0.11220
 C3311 C 0.82604 0.29842 0.08506
 C3312 C 0.81870 0.29156 0.07301
 C3313 C 0.80351 0.29575 0.06891
 C3314 C 0.79590 0.30769 0.07718
 C3315 C 0.78136 0.31302 0.07219
 C3316 C 0.77414 0.30647 0.05997
 C3317 C 0.78096 0.29419 0.05236
 C3318 C 0.79568 0.28854 0.05671
 C3319 C 0.80175 0.27568 0.04885
 C3320 C 0.79353 0.26887 0.03719
 C3321 C 0.77909 0.27469 0.03287
 C3322 C 0.77296 0.28745 0.04047
 H3323 H 0.78389 0.32824 0.09819
 H3324 H 0.83773 0.31223 0.10863
 H3325 H 0.79671 0.33821 0.11937
 H3326 H 0.83774 0.29488 0.08775
 H3327 H 0.82542 0.28319 0.06692
 H3328 H 0.77532 0.32253 0.07730
 H3329 H 0.76297 0.31095 0.05656
 H3330 H 0.81264 0.27034 0.05166
 H3331 H 0.79850 0.25896 0.03156
 H3332 H 0.76170 0.29196 0.03735
 C3333 C 0.79765 0.82336 0.59479
 C3334 C 0.80515 0.81329 0.58470
 C3335 C 0.82102 0.81010 0.58712
 C3336 C 0.82903 0.81718 0.59889
 C3337 C 0.82142 0.82727 0.60868
 C3338 C 0.80565 0.83016 0.60652
 C3339 C 0.82883 0.79980 0.57785
 C3340 C 0.82117 0.79223 0.56642
 C3341 C 0.80535 0.79491 0.56359
 C3342 C 0.79736 0.80606 0.57252
 C3343 C 0.78191 0.80974 0.56889
 C3344 C 0.77429 0.80237 0.55735
 C3345 C 0.78163 0.79090 0.54907
 C3346 C 0.79724 0.78691 0.55206
 C3347 C 0.80394 0.77486 0.54353
 C3348 C 0.79549 0.76723 0.53256
 C3349 C 0.78013 0.77134 0.52962
 C3350 C 0.77333 0.78328 0.53787
 H3351 H 0.78550 0.82596 0.59423
 H3352 H 0.84122 0.81484 0.60038
 H3353 H 0.79928 0.83747 0.61412
 H3354 H 0.84100 0.79739 0.57957
 H3355 H 0.82812 0.78450 0.55982
 H3356 H 0.77537 0.81852 0.57460
 H3357 H 0.76242 0.80557 0.55501
 H3358 H 0.81557 0.77079 0.54525
 H3359 H 0.80103 0.75799 0.52640
 H3360 H 0.76140 0.78648 0.53578
 C3361 C 0.28449 0.68370 0.40086
 C3362 C 0.29203 0.69341 0.41120
 C3363 C 0.30773 0.69703 0.40843
 C3364 C 0.31559 0.69052 0.39620
 C3365 C 0.30805 0.68048 0.38639
 C3366 C 0.29237 0.67740 0.38875
 C3367 C 0.31554 0.70703 0.41793
 C3368 C 0.30814 0.71365 0.43009
 C3369 C 0.29258 0.71030 0.43347
 C3370 C 0.28452 0.69969 0.42408
 C3371 C 0.26933 0.69547 0.42803
 C3372 C 0.26210 0.70161 0.44049
 C3373 C 0.26956 0.71236 0.44945
 C3374 C 0.28485 0.71701 0.44605
 C3375 C 0.29165 0.72832 0.45532
 C3376 C 0.28364 0.73455 0.46744
 C3377 C 0.26863 0.72972 0.47084
 C3378 C 0.26170 0.71855 0.46180
 H3379 H 0.27243 0.68087 0.40164
 H3380 H 0.32770 0.69305 0.39452
 H3381 H 0.28606 0.67013 0.38111
 H3382 H 0.32754 0.70983 0.41590
 H3383 H 0.31510 0.72116 0.43685
 H3384 H 0.26272 0.68713 0.42188
 H3385 H 0.25045 0.69795 0.44309
 H3386 H 0.30304 0.73283 0.45341
 H3387 H 0.28926 0.74323 0.47418
 H3388 H 0.25003 0.71484 0.46420
 C3389 C 0.32961 0.20929 0.90741
 C3390 C 0.32008 0.20180 0.91801
 C3391 C 0.31626 0.18609 0.91541
 C3392 C 0.32226 0.17820 0.90299
 C3393 C 0.33188 0.18577 0.89273
 C3394 C 0.33533 0.20141 0.89506
 C3395 C 0.30641 0.17834 0.92518
 C3396 C 0.29988 0.18593 0.93728
 C3397 C 0.30321 0.20160 0.94030
 C3398 C 0.31397 0.20946 0.93085
 C3399 C 0.31839 0.22466 0.93465
 C3400 C 0.31203 0.23220 0.94682
 C3401 C 0.30086 0.22505 0.95562
 C3402 C 0.29622 0.20967 0.95250
 C3403 C 0.28450 0.20317 0.96155
 C3404 C 0.27773 0.21163 0.97307
 C3405 C 0.28242 0.22679 0.97609
 C3406 C 0.29415 0.23335 0.96741
 H3407 H 0.33257 0.22136 0.90809
 H3408 H 0.31948 0.16612 0.90136
 H3409 H 0.34227 0.20779 0.88712
 H3410 H 0.30353 0.16630 0.92335
 H3411 H 0.29243 0.17904 0.94424
 H3412 H 0.32700 0.23103 0.92855
 H3413 H 0.31576 0.24389 0.94925
 H3414 H 0.27998 0.19173 0.95981
 H3415 H 0.26865 0.20627 0.97957
 H3416 H 0.29777 0.24513 0.96955
 C3417 C 0.78987 0.68530 0.89331
 C3418 C 0.79745 0.69485 0.90375
 C3419 C 0.81318 0.69838 0.90106
 C3420 C 0.82102 0.69200 0.88876
 C3421 C 0.81340 0.68221 0.87878
 C3422 C 0.79771 0.67914 0.88112
 C3423 C 0.82104 0.70822 0.91067
 C3424 C 0.81362 0.71488 0.92280
 C3425 C 0.79798 0.71172 0.92602
 C3426 C 0.78991 0.70116 0.91660
 C3427 C 0.77466 0.69705 0.92046
 C3428 C 0.76734 0.70339 0.93278
 C3429 C 0.77477 0.71422 0.94168
 C3430 C 0.79016 0.71865 0.93842
 C3431 C 0.79695 0.73003 0.94761
 C3432 C 0.78880 0.73663 0.95943
 C3433 C 0.77365 0.73211 0.96264
 C3434 C 0.76676 0.72078 0.95376
 H3435 H 0.77779 0.68255 0.89405
 H3436 H 0.83313 0.69450 0.88710
 H3437 H 0.79133 0.67207 0.87336
 H3438 H 0.83308 0.71092 0.90873
 H3439 H 0.82061 0.72228 0.92963
 H3440 H 0.76807 0.68869 0.91433
 H3441 H 0.75563 0.69986 0.93528
 H3442 H 0.80843 0.73437 0.94581
 H3443 H 0.79441 0.74541 0.96607
 H3444 H 0.75499 0.71729 0.95603
 C3445 C 0.81684 0.19622 0.39339
 C3446 C 0.80657 0.18913 0.40357
 C3447 C 0.80234 0.17354 0.40088
 C3448 C 0.80887 0.16530 0.38891
 C3449 C 0.81952 0.17238 0.37931
 C3450 C 0.82317 0.18798 0.38155
 C3451 C 0.79171 0.16623 0.41019
 C3452 C 0.78504 0.17406 0.42209
 C3453 C 0.78901 0.18951 0.42539
 C3454 C 0.80028 0.19701 0.41621
 C3455 C 0.80516 0.21202 0.42014
 C3456 C 0.79896 0.21966 0.43231
 C3457 C 0.78754 0.21280 0.44100
 C3458 C 0.78227 0.19768 0.43767
 C3459 C 0.77033 0.19152 0.44671
 C3460 C 0.76405 0.20003 0.45850
 C3461 C 0.76947 0.21488 0.46176
 C3462 C 0.78129 0.22112 0.45298
 H3463 H 0.82010 0.20821 0.39407
 H3464 H 0.80588 0.15326 0.38726
 H3465 H 0.83090 0.19394 0.37401
 H3466 H 0.78843 0.15432 0.40822
 H3467 H 0.77700 0.16749 0.42872
 H3468 H 0.81406 0.21814 0.41421
 H3469 H 0.80311 0.23116 0.43489
 H3470 H 0.76537 0.18030 0.44484
 H3471 H 0.75486 0.19494 0.46505
 H3472 H 0.78548 0.23268 0.45528
 C3473 C 0.70822 0.31378 0.39593
 C3474 C 0.70105 0.30334 0.40598
 C3475 C 0.68519 0.30013 0.40372
 C3476 C 0.67692 0.30744 0.39214
 C3477 C 0.68416 0.31791 0.38242
 C3478 C 0.69990 0.32089 0.38441
 C3479 C 0.67762 0.28966 0.41302
 C3480 C 0.68543 0.28208 0.42447
 C3481 C 0.70122 0.28483 0.42725
 C3482 C 0.70907 0.29592 0.41808
 C3483 C 0.72460 0.29936 0.42142
 C3484 C 0.73232 0.29205 0.43308
 C3485 C 0.72501 0.28088 0.44181
 C3486 C 0.70940 0.27699 0.43900
 C3487 C 0.70272 0.26527 0.44801
 C3488 C 0.71116 0.25791 0.45931
 C3489 C 0.72650 0.26196 0.46212
 C3490 C 0.73333 0.27352 0.45332
 H3491 H 0.72030 0.31658 0.39646
 H3492 H 0.66473 0.30509 0.39084
 H3493 H 0.70595 0.32860 0.37690
 H3494 H 0.66548 0.28721 0.41139
 H3495 H 0.67861 0.27427 0.43111
 H3496 H 0.73115 0.30788 0.41536
 H3497 H 0.74422 0.29512 0.43522
 H3498 H 0.69107 0.26129 0.44652
 H3499 H 0.70559 0.24898 0.46587
 H3500 H 0.74525 0.27667 0.45528
 C3501 C 0.70929 0.82245 0.89441
 C3502 C 0.70180 0.81308 0.90518
 C3503 C 0.68593 0.80989 0.90293
 C3504 C 0.67794 0.81625 0.89067
 C3505 C 0.68550 0.82571 0.88025
 C3506 C 0.70126 0.82861 0.88222
 C3507 C 0.67805 0.80038 0.91292
 C3508 C 0.68560 0.79364 0.92499
 C3509 C 0.70141 0.79633 0.92772
 C3510 C 0.70952 0.80662 0.91793
 C3511 C 0.72501 0.81023 0.92132
 C3512 C 0.73250 0.80365 0.93352
 C3513 C 0.72500 0.79304 0.94274
 C3514 C 0.70938 0.78914 0.93996
 C3515 C 0.70249 0.77793 0.94939
 C3516 C 0.71079 0.77094 0.96095
 C3517 C 0.72618 0.77489 0.96368
 C3518 C 0.73317 0.78611 0.95462
 H3519 H 0.72142 0.82506 0.89489
 H3520 H 0.66574 0.81397 0.88937
 H3521 H 0.70755 0.83553 0.87419
 H3522 H 0.66589 0.79800 0.91134
 H3523 H 0.67856 0.78655 0.93215
 H3524 H 0.73168 0.81833 0.91486
 H3525 H 0.74439 0.80678 0.93565
 H3526 H 0.69084 0.77396 0.94795
 H3527 H 0.70510 0.76227 0.96775
 H3528 H 0.74513 0.78913 0.95653
 C3529 C 0.18978 0.28872 0.90687
 C3530 C 0.19966 0.29665 0.91677
 C3531 C 0.20314 0.31232 0.91342
 C3532 C 0.19651 0.31974 0.90095
 C3533 C 0.18660 0.31174 0.89135
 C3534 C 0.18343 0.29614 0.89444
 C3535 C 0.21327 0.32051 0.92247
 C3536 C 0.22039 0.31342 0.93461
 C3537 C 0.21741 0.29781 0.93839
 C3538 C 0.20641 0.28949 0.92968
 C3539 C 0.20239 0.27436 0.93425
 C3540 C 0.20927 0.26736 0.94655
 C3541 C 0.22061 0.27499 0.95466
 C3542 C 0.22495 0.29028 0.95069
 C3543 C 0.23690 0.29725 0.95904
 C3544 C 0.24409 0.28937 0.97078
 C3545 C 0.23961 0.27434 0.97473
 C3546 C 0.22775 0.26727 0.96667
 H3547 H 0.18699 0.27665 0.90817
 H3548 H 0.19905 0.33181 0.89878
 H3549 H 0.17623 0.28946 0.88705
 H3550 H 0.21589 0.33252 0.92004
 H3551 H 0.22799 0.32063 0.94099
 H3552 H 0.19368 0.26765 0.92871
 H3553 H 0.20580 0.25573 0.94962
 H3554 H 0.24125 0.30864 0.95658
 H3555 H 0.25327 0.29510 0.97677
 H3556 H 0.22430 0.25557 0.96952
 C3557 C 0.17189 0.79148 0.40815
 C3558 C 0.18127 0.79899 0.41879
 C3559 C 0.18369 0.81510 0.41697
 C3560 C 0.17650 0.82331 0.40529
 C3561 C 0.16710 0.81572 0.39492
 C3562 C 0.16500 0.79971 0.39646
 C3563 C 0.19334 0.82298 0.42676
 C3564 C 0.20098 0.81516 0.43817
 C3565 C 0.19901 0.79910 0.44047
 C3566 C 0.18851 0.79102 0.43098
 C3567 C 0.18543 0.77530 0.43413
 C3568 C 0.19274 0.76756 0.44576
 C3569 C 0.20360 0.77504 0.45459
 C3570 C 0.20703 0.79088 0.45204
 C3571 C 0.21859 0.79768 0.46103
 C3572 C 0.22625 0.78911 0.47207
 C3573 C 0.22260 0.77355 0.47463
 C3574 C 0.21117 0.76664 0.46589
 H3575 H 0.16993 0.77917 0.40826
 H3576 H 0.17820 0.83569 0.40435
 H3577 H 0.15821 0.79337 0.38845
 H3578 H 0.19516 0.83532 0.42549
 H3579 H 0.20815 0.82216 0.44522
 H3580 H 0.17714 0.76864 0.42797
 H3581 H 0.18998 0.75550 0.44776
 H3582 H 0.22228 0.80948 0.45961
 H3583 H 0.23511 0.79471 0.47860
 H3584 H 0.20838 0.75454 0.46763
 C3585 C 0.68158 0.70781 0.59642
 C3586 C 0.69250 0.70045 0.58705
 C3587 C 0.69577 0.68459 0.58982
 C3588 C 0.68794 0.67645 0.60113
 C3589 C 0.67696 0.68389 0.61015
 C3590 C 0.67402 0.69967 0.60771
 C3591 C 0.70686 0.67691 0.58130
 C3592 C 0.71496 0.68464 0.57018
 C3593 C 0.71208 0.70040 0.56687
 C3594 C 0.70035 0.70830 0.57519
 C3595 C 0.69666 0.72372 0.57119
 C3596 C 0.70429 0.73128 0.55970
 C3597 C 0.71605 0.72393 0.55183
 C3598 C 0.72031 0.70846 0.55536
 C3599 C 0.73271 0.70182 0.54723
 C3600 C 0.74020 0.71012 0.53592
 C3601 C 0.73560 0.72523 0.53228
 C3602 C 0.72355 0.73205 0.54037
 H3603 H 0.67881 0.71995 0.59557
 H3604 H 0.69034 0.66425 0.60280
 H3605 H 0.66601 0.70593 0.61472
 H3606 H 0.70939 0.66478 0.58334
 H3607 H 0.72325 0.67778 0.56413
 H3608 H 0.68762 0.73025 0.57651
 H3609 H 0.70095 0.74307 0.55699
 H3610 H 0.73703 0.69032 0.54941
 H3611 H 0.74956 0.70460 0.52992
 H3612 H 0.72000 0.74383 0.53780
 C3613 C 0.69707 0.17614 0.08694
 C3614 C 0.69637 0.19220 0.08372
 C3615 C 0.68673 0.20150 0.09284
 C3616 C 0.67886 0.19501 0.10508
 C3617 C 0.68016 0.17917 0.10843
 C3618 C 0.68913 0.16982 0.09905
 C3619 C 0.68511 0.21727 0.08982
 C3620 C 0.69283 0.22411 0.07793
 C3621 C 0.70282 0.21547 0.06868
 C3622 C 0.70487 0.19931 0.07183
 C3623 C 0.71566 0.19088 0.06325
 C3624 C 0.72409 0.19790 0.05194
 C3625 C 0.72197 0.21351 0.04849
 C3626 C 0.71113 0.22250 0.05660
 C3627 C 0.70908 0.23817 0.05220
 C3628 C 0.71775 0.24463 0.04061
 C3629 C 0.72879 0.23579 0.03301
 C3630 C 0.73075 0.22019 0.03698
 H3631 H 0.70350 0.16806 0.08024
 H3632 H 0.67199 0.20244 0.11220
 H3633 H 0.68998 0.15748 0.10100
 H3634 H 0.67776 0.22445 0.09674
 H3635 H 0.69100 0.23637 0.07654
 H3636 H 0.71822 0.17884 0.06523
 H3637 H 0.73237 0.19098 0.04579
 H3638 H 0.70077 0.24575 0.05736
 H3639 H 0.71589 0.25669 0.03771
 H3640 H 0.73911 0.21316 0.03104
 C3641 C 0.17473 0.69994 0.08769
 C3642 C 0.18559 0.69242 0.07839
 C3643 C 0.18903 0.67667 0.08150
 C3644 C 0.18153 0.66880 0.09318
 C3645 C 0.17082 0.67645 0.10231
 C3646 C 0.16756 0.69210 0.09941
 C3647 C 0.20008 0.66885 0.07306
 C3648 C 0.20819 0.67644 0.06186
 C3649 C 0.20532 0.69217 0.05841
 C3650 C 0.19338 0.70009 0.06639
 C3651 C 0.18951 0.71535 0.06201
 C3652 C 0.19742 0.72287 0.05067
 C3653 C 0.20965 0.71564 0.04337
 C3654 C 0.21389 0.70022 0.04715
 C3655 C 0.22675 0.69367 0.03967
 C3656 C 0.23485 0.70206 0.02887
 C3657 C 0.23042 0.71719 0.02508
 C3658 C 0.21774 0.72386 0.03235
 H3659 H 0.17182 0.71203 0.08655
 H3660 H 0.18413 0.65669 0.09517
 H3661 H 0.15971 0.69853 0.10644
 H3662 H 0.20268 0.65677 0.07530
 H3663 H 0.21649 0.66952 0.05590
 H3664 H 0.18017 0.72179 0.06696
 H3665 H 0.19403 0.73460 0.04772
 H3666 H 0.23108 0.68223 0.04210
 H3667 H 0.24466 0.69665 0.02348
 H3668 H 0.21429 0.73562 0.02962
 C3669 C 0.21143 0.18975 0.60056
 C3670 C 0.20381 0.19939 0.59002
 C3671 C 0.18814 0.20316 0.59275
 C3672 C 0.18043 0.19708 0.60524
 C3673 C 0.18813 0.18752 0.61556
 C3674 C 0.20372 0.18399 0.61306
 C3675 C 0.18021 0.21307 0.58307
 C3676 C 0.18759 0.21973 0.57090
 C3677 C 0.20321 0.21645 0.56770
 C3678 C 0.21127 0.20562 0.57708
 C3679 C 0.22642 0.20123 0.57308
 C3680 C 0.23365 0.20753 0.56067
 C3681 C 0.22626 0.21868 0.55189
 C3682 C 0.21100 0.22346 0.55532
 C3683 C 0.20433 0.23529 0.54635
 C3684 C 0.21243 0.24185 0.53443
 C3685 C 0.22737 0.23681 0.53096
 C3686 C 0.23417 0.22516 0.53973
 H3687 H 0.22348 0.18675 0.59971
 H3688 H 0.16834 0.19982 0.60685
 H3689 H 0.21015 0.17698 0.62096
 H3690 H 0.16818 0.21590 0.58504
 H3691 H 0.18057 0.22719 0.56400
 H3692 H 0.23295 0.19264 0.57916
 H3693 H 0.24528 0.20375 0.55802
 H3694 H 0.19301 0.24002 0.54842
 H3695 H 0.20695 0.25093 0.52790
 H3696 H 0.24582 0.22131 0.53728
   
