data_POSCAR
  _audit_creation_date              2014-09-24
  _audit_creation_method            'ToBaCCo'
  _symmetry_space_group_name_H-M    'P1'
  _symmetry_Int_Tables_number       1
  _symmetry_cell_setting            triclinic
  loop_
  _symmetry_equiv_pos_as_xyz
 x,y,z
_cell_length_a 57.6128
_cell_length_b 57.6844
_cell_length_c 60.2681
_cell_angle_alpha 89.098600
_cell_angle_beta 90.860000
_cell_angle_gamma 90.063100
loop_
  _atom_site_label
  _atom_site_type_symbol
  _atom_site_fract_x
  _atom_site_fract_y
  _atom_site_fract_z
C1 C 0.40481 0.00910 0.27585
 C2 C 0.38792 0.02968 0.27406
 C3 C 0.37399 0.02929 0.25546
 C4 C 0.37813 0.00833 0.24047
 C5 C 0.38949 -0.01245 0.27443
 C6 C 0.37548 -0.01295 0.25611
 C7 C 0.41827 0.00982 0.25413
 C8 C 0.40436 0.00957 0.23560
 H9 H 0.38767 0.04371 0.28586
 H10 H 0.36679 0.00785 0.22541
 H11 H 0.38919 -0.02590 0.28727
 H12 H 0.43699 0.01200 0.25345
 C13 C 0.09391 0.00056 0.77195
 C14 C 0.10930 -0.02111 0.77061
 C15 C 0.12325 -0.02108 0.75242
 C16 C 0.12050 0.00076 0.73735
 C17 C 0.11086 0.02097 0.77126
 C18 C 0.12483 0.02123 0.75324
 C19 C 0.08110 0.00170 0.75106
 C20 C 0.09566 0.00174 0.73204
 H21 H 0.10859 -0.03549 0.78245
 H22 H 0.13190 0.00096 0.72262
 H23 H 0.11152 0.03432 0.78380
 H24 H 0.06226 0.00100 0.74985
 C25 C 0.59639 0.50015 0.27267
 C26 C 0.61188 0.47861 0.27148
 C27 C 0.62584 0.47853 0.25333
 C28 C 0.62311 0.50017 0.23807
 C29 C 0.61305 0.52072 0.27165
 C30 C 0.62703 0.52088 0.25368
 C31 C 0.58295 0.50093 0.25058
 C32 C 0.59686 0.50085 0.23246
 H33 H 0.61113 0.46426 0.28335
 H34 H 0.63450 0.50028 0.22336
 H35 H 0.61357 0.53424 0.28403
 H36 H 0.56411 0.50046 0.24936
 C37 C 0.90476 0.50864 0.77538
 C38 C 0.88790 0.52924 0.77355
 C39 C 0.87393 0.52881 0.75498
 C40 C 0.87802 0.50779 0.74005
 C41 C 0.88939 0.48711 0.77405
 C42 C 0.87535 0.48657 0.75575
 C43 C 0.91818 0.50926 0.75364
 C44 C 0.90424 0.50897 0.73513
 H45 H 0.88769 0.54330 0.78532
 H46 H 0.86665 0.50728 0.72500
 H47 H 0.88909 0.47370 0.78693
 H48 H 0.93690 0.51139 0.75292
 C49 C 0.27743 0.37335 0.99340
 C50 C 0.27539 0.35616 1.01287
 C51 C 0.25603 0.34263 1.01196
 C52 C 0.24030 0.34739 0.99150
 C53 C 0.27589 0.35847 0.97256
 C54 C 0.25645 0.34493 0.97152
 C55 C 0.25463 0.38722 0.99335
 C56 C 0.23519 0.37357 0.99233
 H57 H 0.28756 0.35562 1.02682
 H58 H 0.22457 0.33624 0.99072
 H59 H 0.28856 0.35925 0.95938
 H60 H 0.25392 0.40602 0.99401
 C61 C 0.76955 0.12832 1.00010
 C62 C 0.76807 0.14538 0.98044
 C63 C 0.74914 0.15947 0.98070
 C64 C 0.73318 0.15514 1.00070
 C65 C 0.76859 0.14359 1.02073
 C66 C 0.74950 0.15763 1.02106
 C67 C 0.74768 0.11562 0.99977
 C68 C 0.72766 0.13042 1.00017
 H69 H 0.78093 0.14628 0.96743
 H70 H 0.71775 0.16671 1.00085
 H71 H 0.78124 0.14261 1.03427
 H72 H 0.74657 0.09683 1.00064
 C73 C 0.27071 0.62924 0.49989
 C74 C 0.26889 0.64594 0.48002
 C75 C 0.24999 0.66001 0.48028
 C76 C 0.23428 0.65612 0.50048
 C77 C 0.26981 0.64473 0.52032
 C78 C 0.25073 0.65873 0.52065
 C79 C 0.24760 0.61588 0.49994
 C80 C 0.22851 0.63000 0.50034
 H81 H 0.28161 0.64669 0.46688
 H82 H 0.21883 0.66764 0.50063
 H83 H 0.28248 0.64383 0.53385
 H84 H 0.24647 0.59709 0.50070
 C85 C 0.77756 0.87340 0.49359
 C86 C 0.77541 0.85616 0.51300
 C87 C 0.75606 0.84263 0.51197
 C88 C 0.74043 0.84745 0.49145
 C89 C 0.77613 0.85858 0.47270
 C90 C 0.75670 0.84505 0.47154
 C91 C 0.75476 0.88728 0.49348
 C92 C 0.73533 0.87364 0.49233
 H93 H 0.78752 0.85557 0.52701
 H94 H 0.72470 0.83631 0.49056
 H95 H 0.78889 0.85937 0.45962
 H96 H 0.75405 0.90607 0.49423
 C97 C -0.00522 0.27507 0.40919
 C98 C 0.01266 0.27985 0.39105
 C99 C 0.01382 0.26258 0.37596
 C100 C -0.00279 0.24231 0.38034
 C101 C -0.02699 0.27096 0.39754
 C102 C -0.02554 0.25292 0.38171
 C103 C 0.00195 0.25166 0.41956
 C104 C 0.00325 0.23457 0.40421
 H105 H 0.02457 0.29448 0.39117
 H106 H -0.00174 0.22820 0.36801
 H107 H -0.04228 0.28182 0.39914
 H108 H 0.00531 0.24880 0.43718
 C109 C 0.00223 0.76151 0.09327
 C110 C -0.01177 0.76574 0.11422
 C111 C -0.01133 0.74750 0.12876
 C112 C 0.00276 0.72676 0.12112
 C113 C 0.02658 0.75508 0.10166
 C114 C 0.02675 0.73688 0.11629
 C115 C -0.00778 0.73934 0.08338
 C116 C -0.00748 0.72121 0.09818
 H117 H -0.02264 0.78090 0.11646
 H118 H 0.00300 0.71182 0.13301
 H119 H 0.04180 0.76578 0.09863
 H120 H -0.01271 0.73760 0.06601
 C121 C 0.50135 0.26204 0.59451
 C122 C 0.48719 0.26616 0.61537
 C123 C 0.48764 0.24791 0.62990
 C124 C 0.50191 0.22726 0.62233
 C125 C 0.52569 0.25574 0.60303
 C126 C 0.52587 0.23752 0.61764
 C127 C 0.49154 0.23981 0.58454
 C128 C 0.49186 0.22167 0.59933
 H129 H 0.47621 0.28125 0.61756
 H130 H 0.50217 0.21231 0.63421
 H131 H 0.54088 0.26647 0.60002
 H132 H 0.48676 0.23805 0.56714
 C133 C 0.49598 0.77539 0.91137
 C134 C 0.51544 0.77927 0.89460
 C135 C 0.51651 0.76225 0.87925
 C136 C 0.49833 0.74307 0.88205
 C137 C 0.47380 0.77317 0.89719
 C138 C 0.47520 0.75618 0.88182
 C139 C 0.50014 0.75261 0.92113
 C140 C 0.50145 0.73494 0.90484
 H141 H 0.52788 0.79342 0.89544
 H142 H 0.49927 0.72923 0.86944
 H143 H 0.45889 0.78458 0.89848
 H144 H 0.50238 0.74929 0.93884
 C145 C -0.24088 0.65547 0.97449
 C146 C -0.22039 0.63845 0.97625
 C147 C -0.22085 0.62454 0.99485
 C148 C -0.24179 0.62882 1.00988
 C149 C -0.26255 0.64031 0.97595
 C150 C -0.26313 0.62632 0.99427
 C151 C -0.24004 0.66891 0.99620
 C152 C -0.24036 0.65501 1.01474
 H153 H -0.20636 0.63811 0.96442
 H154 H -0.24234 0.61750 1.02495
 H155 H -0.27601 0.64006 0.96310
 H156 H -0.23772 0.68758 0.99686
 C157 C -0.24981 0.34362 0.47847
 C158 C -0.27151 0.35897 0.47978
 C159 C -0.27147 0.37299 0.49790
 C160 C -0.24957 0.37033 0.51294
 C161 C -0.22938 0.36056 0.47903
 C162 C -0.22911 0.37460 0.49699
 C163 C -0.24863 0.33091 0.49941
 C164 C -0.24857 0.34554 0.51836
 H165 H -0.28592 0.35822 0.46796
 H166 H -0.24936 0.38177 0.52762
 H167 H -0.21604 0.36118 0.46645
 H168 H -0.24931 0.31210 0.50071
 C169 C 0.25037 -0.15499 -0.02187
 C170 C 0.22867 -0.13962 -0.02053
 C171 C 0.22867 -0.12574 -0.00232
 C172 C 0.25051 -0.12853 0.01278
 C173 C 0.27081 -0.13807 -0.02114
 C174 C 0.27104 -0.12417 -0.00308
 C175 C 0.25146 -0.16784 -0.00101
 C176 C 0.25147 -0.15336 0.01804
 H177 H 0.21430 -0.14030 -0.03239
 H178 H 0.25069 -0.11719 0.02753
 H179 H 0.28421 -0.13740 -0.03365
 H180 H 0.25079 -0.18666 0.00016
 C181 C 0.25876 1.15532 0.47451
 C182 C 0.27946 1.13854 0.47627
 C183 C 0.27915 1.12462 0.49487
 C184 C 0.25816 1.12864 0.50989
 C185 C 0.23727 1.13989 0.47596
 C186 C 0.23686 1.12589 0.49429
 C187 C 0.25943 1.16875 0.49623
 C188 C 0.25927 1.15484 0.51476
 H189 H 0.29348 1.13835 0.46443
 H190 H 0.25775 1.11731 0.52496
 H191 H 0.22382 1.13949 0.46312
 H192 H 0.26151 1.18745 0.49690
 C193 C 0.12331 0.52768 0.25602
 C194 C 0.10607 0.52554 0.23659
 C195 C 0.09255 0.50620 0.23761
 C196 C 0.09735 0.49057 0.25812
 C197 C 0.10844 0.52621 0.27690
 C198 C 0.09491 0.50678 0.27804
 C199 C 0.13722 0.50491 0.25613
 C200 C 0.12357 0.48549 0.25727
 H201 H 0.10550 0.53765 0.22259
 H202 H 0.08621 0.47486 0.25900
 H203 H 0.10921 0.53892 0.29000
 H204 H 0.15604 0.50422 0.25542
 C205 C -0.12136 1.01920 0.25061
 C206 C -0.10421 1.01780 0.27022
 C207 C -0.09005 0.99894 0.26994
 C208 C -0.09440 0.98296 0.24999
 C209 C -0.10612 1.01827 0.22994
 C210 C -0.09202 0.99924 0.22960
 C211 C -0.13400 0.99733 0.25103
 C212 C -0.11913 0.97738 0.25061
 H213 H -0.10330 1.03067 0.28320
 H214 H -0.08277 0.96758 0.24983
 H215 H -0.10719 1.03087 0.21637
 H216 H -0.15282 0.99616 0.25017
 C217 C 0.37846 0.52106 -0.25006
 C218 C 0.39522 0.51930 -0.23023
 C219 C 0.40932 0.50044 -0.23047
 C220 C 0.40541 0.48470 -0.25060
 C221 C 0.39393 0.52012 -0.27053
 C222 C 0.40797 0.50107 -0.27083
 C223 C 0.36511 0.49796 -0.25001
 C224 C 0.37926 0.47891 -0.25039
 H225 H 0.39601 0.53206 -0.21715
 H226 H 0.41696 0.46928 -0.25073
 H227 H 0.39299 0.53273 -0.28410
 H228 H 0.34629 0.49680 -0.25076
 C229 C 0.62335 0.02722 -0.24338
 C230 C 0.60606 0.02511 -0.26276
 C231 C 0.59254 0.00577 -0.26174
 C232 C 0.59741 -0.00990 -0.24127
 C233 C 0.60855 0.02570 -0.22246
 C234 C 0.59502 0.00628 -0.22131
 C235 C 0.63727 0.00445 -0.24334
 C236 C 0.62363 -0.01497 -0.24221
 H237 H 0.60546 0.03724 -0.27675
 H238 H 0.58627 -0.02562 -0.24039
 H239 H 0.60936 0.03839 -0.20934
 H240 H 0.65608 0.00377 -0.24411
 C241 C 0.02425 0.24551 0.83887
 C242 C 0.02839 0.26482 0.85572
 C243 C 0.01139 0.26602 0.87110
 C244 C -0.00804 0.24811 0.86825
 C245 C 0.02178 0.22332 0.85297
 C246 C 0.00480 0.22485 0.86838
 C247 C 0.00149 0.24998 0.82916
 C248 C -0.01616 0.25144 0.84549
 H249 H 0.04267 0.27711 0.85487
 H250 H -0.02187 0.24916 0.88089
 H251 H 0.03306 0.20833 0.85166
 H252 H -0.00183 0.25228 0.81146
 C253 C 0.51216 0.25252 0.15540
 C254 C 0.51608 0.23802 0.13473
 C255 C 0.49773 0.23838 0.12029
 C256 C 0.47720 0.25291 0.12775
 C257 C 0.50599 0.27675 0.14654
 C258 C 0.48767 0.27683 0.13203
 C259 C 0.48989 0.24305 0.16562
 C260 C 0.47165 0.24327 0.15092
 H261 H 0.53113 0.22696 0.13260
 H262 H 0.46217 0.25309 0.11595
 H263 H 0.51683 0.29190 0.14930
 H264 H 0.48820 0.23847 0.18308
 C265 C 0.01192 0.75137 0.65512
 C266 C 0.01611 0.73728 0.63424
 C267 C -0.00219 0.73765 0.61974
 C268 C -0.02293 0.75178 0.62737
 C269 C 0.00547 0.77565 0.64663
 C270 C -0.01280 0.77576 0.63206
 C271 C -0.01026 0.74142 0.66513
 C272 C -0.02844 0.74166 0.65037
 H273 H 0.03125 0.72636 0.63205
 H274 H -0.03792 0.75197 0.61552
 H275 H 0.01611 0.79089 0.64965
 H276 H -0.01197 0.73663 0.68253
 C277 C 0.52630 0.74618 0.33964
 C278 C 0.53031 0.76536 0.35658
 C279 C 0.51325 0.76653 0.37186
 C280 C 0.49382 0.74871 0.36894
 C281 C 0.52350 0.72393 0.35349
 C282 C 0.50647 0.72541 0.36880
 C283 C 0.50233 0.75112 0.32937
 C284 C 0.48544 0.75247 0.34491
 H285 H 0.54456 0.77770 0.35580
 H286 H 0.47990 0.74974 0.38147
 H287 H 0.53466 0.70886 0.35209
 H288 H 0.49905 0.75348 0.31169
 Zr289 Zr 0.02087 -0.01458 1.03060
 O290 O 0.04419 -0.00414 1.05604
 O291 O 0.01684 -0.05006 1.03764
 O292 O 0.00577 -0.01746 1.06235
 O293 O 0.06306 -0.02048 0.99063
 O294 O -0.02883 0.00154 1.05808
 O295 O 0.05438 -0.02895 1.02673
 O296 O -0.00984 -0.06178 1.01170
 O297 O -0.01457 -0.01976 1.02400
 O298 O 0.01835 -0.02852 0.99883
 O299 O 0.00537 0.01831 1.03305
 O300 O 0.03734 0.00963 1.00935
 Zr301 Zr -0.01779 0.02353 0.97167
 Zr302 Zr -0.02970 0.01319 1.02487
 Zr303 Zr 0.03303 -0.00410 0.97752
 Zr304 Zr -0.01687 -0.03242 0.99180
 O305 O 0.06253 0.01595 0.96925
 O306 O -0.04904 -0.04479 1.00388
 O307 O -0.00205 -0.00930 0.96887
 O308 O -0.03382 -0.00051 0.99308
 O309 O -0.01542 0.03797 1.00330
 O310 O 0.01762 0.02856 0.97838
 C311 C 0.00387 -0.06533 1.02834
 C312 C 0.06795 -0.02923 1.00990
 C313 C -0.01368 -0.00988 1.06964
 O314 O -0.06064 -0.00541 1.03121
 O315 O -0.05831 0.03244 1.01280
 O316 O -0.05047 0.03955 0.97628
 C317 C -0.06335 0.04100 0.99353
 O318 O 0.04503 0.04489 1.03628
 Zr319 Zr 0.01996 0.04168 1.01027
 O320 O -0.01372 0.05881 0.96428
 O321 O -0.03465 0.04172 1.04592
 O322 O 0.00710 0.06639 1.03267
 O323 O 0.05112 0.05583 0.99750
 O324 O 0.01084 0.07164 0.99157
 C325 C -0.00214 0.07466 0.97424
 O326 O -0.04260 0.01378 0.94725
 O327 O 0.03994 -0.03377 0.95846
 O328 O -0.00410 0.02337 0.93921
 O329 O 0.03014 0.00370 0.94349
 O330 O -0.00438 -0.05868 0.97083
 O331 O -0.03919 -0.03589 0.96364
 C332 C 0.01459 0.01427 0.93170
 H333 H 0.02651 -0.04352 0.99752
 H334 H -0.05041 -0.00262 0.98906
 H335 H 0.02507 0.03915 0.96752
 H336 H 0.00732 0.02446 1.04820
 H337 H -0.05021 -0.06143 1.00018
 H338 H -0.06930 0.00348 1.04234
 H339 H -0.04985 0.03941 1.05311
 H340 H 0.01587 0.08098 1.03028
 H341 H -0.01407 -0.07267 0.97329
 H342 H 0.05510 -0.03113 0.95127
 H343 H 0.07125 0.00700 0.95823
 H344 H 0.05164 0.07242 1.00151
 H345 H -0.04648 -0.05144 0.96394
 H346 H -0.04610 0.02777 0.93801
 H347 H 0.04804 -0.01814 1.06514
 H348 H 0.04915 0.06143 1.03807
 Zr349 Zr 0.52136 0.48546 0.53059
 O350 O 0.54471 0.49581 0.55604
 O351 O 0.51705 0.45003 0.53774
 O352 O 0.50619 0.48280 0.56232
 O353 O 0.56359 0.47917 0.49072
 O354 O 0.47171 0.50199 0.55792
 O355 O 0.55478 0.47085 0.52681
 O356 O 0.49036 0.43840 0.51176
 O357 O 0.48589 0.48049 0.52393
 O358 O 0.51882 0.47144 0.49885
 O359 O 0.50605 0.51845 0.53292
 O360 O 0.53802 0.50951 0.50932
 Zr361 Zr 0.48306 0.52365 0.47148
 Zr362 Zr 0.47097 0.51353 0.52468
 Zr363 Zr 0.53370 0.49572 0.47752
 Zr364 Zr 0.48359 0.46775 0.49175
 O365 O 0.56335 0.51555 0.46928
 O366 O 0.45130 0.45561 0.50377
 O367 O 0.49861 0.49071 0.46880
 O368 O 0.46683 0.49977 0.49292
 O369 O 0.48545 0.53816 0.50308
 O370 O 0.51849 0.52847 0.47826
 C371 C 0.50399 0.43482 0.52846
 C372 C 0.56837 0.47043 0.51001
 C373 C 0.48677 0.49053 0.56954
 O374 O 0.43991 0.49513 0.53101
 O375 O 0.44251 0.53292 0.51250
 O376 O 0.45046 0.53987 0.47598
 C377 C 0.43755 0.54145 0.49320
 O378 O 0.54589 0.54479 0.53617
 Zr379 Zr 0.52084 0.54167 0.51012
 O380 O 0.48733 0.55889 0.46404
 O381 O 0.46614 0.54216 0.54563
 O382 O 0.50810 0.56652 0.53245
 O383 O 0.55210 0.55560 0.49737
 O384 O 0.51191 0.57164 0.49135
 C385 C 0.49897 0.57470 0.47399
 O386 O 0.45827 0.51396 0.44702
 O387 O 0.54044 0.46596 0.45853
 O388 O 0.49685 0.52337 0.43907
 O389 O 0.53096 0.50349 0.44348
 O390 O 0.49598 0.44134 0.47089
 O391 O 0.46132 0.46433 0.46355
 C392 C 0.51552 0.51415 0.43163
 H393 H 0.52688 0.45639 0.49761
 H394 H 0.45025 0.49774 0.48886
 H395 H 0.52602 0.53900 0.46741
 H396 H 0.50801 0.52464 0.54806
 H397 H 0.45003 0.43897 0.50010
 H398 H 0.43128 0.50410 0.54209
 H399 H 0.45091 0.53996 0.55280
 H400 H 0.51697 0.58105 0.53004
 H401 H 0.48621 0.42742 0.47337
 H402 H 0.55563 0.46848 0.45137
 H403 H 0.57205 0.50651 0.45830
 H404 H 0.55271 0.57220 0.50134
 H405 H 0.45396 0.44881 0.46385
 H406 H 0.45486 0.52795 0.43774
 H407 H 0.54844 0.48181 0.56518
 H408 H 0.55012 0.56131 0.53791
 Zr409 Zr 0.47678 0.99637 0.53850
 O410 O 0.45292 0.98138 0.56093
 O411 O 0.48034 1.02998 0.55057
 O412 O 0.49146 0.99411 0.57087
 O413 O 0.43593 1.01015 0.49759
 O414 O 0.52615 0.97584 0.56594
 O415 O 0.44360 1.01202 0.53484
 O416 O 0.50768 1.04612 0.52797
 O417 O 0.51238 1.00238 0.53443
 O418 O 0.48013 1.01575 0.50910
 O419 O 0.49228 0.96338 0.53750
 O420 O 0.46071 0.97642 0.51352
 Zr421 Zr 0.51662 0.96885 0.47716
 Zr422 Zr 0.52753 0.96959 0.53168
 Zr423 Zr 0.46592 0.99552 0.48407
 Zr424 Zr 0.51545 1.02067 0.50453
 O425 O 0.43637 0.97750 0.47217
 O426 O 0.54727 1.03038 0.51989
 O427 O 0.50116 1.00198 0.47798
 O428 O 0.53225 0.98873 0.50226
 O429 O 0.51357 0.94907 0.50645
 O430 O 0.48111 0.96293 0.48150
 C431 C 0.49344 1.04669 0.54416
 C432 C 0.43069 1.01572 0.51746
 C433 C 0.51090 0.98560 0.57803
 O434 O 0.55855 0.98637 0.54172
 O435 O 0.55634 0.95241 0.51839
 O436 O 0.54920 0.95215 0.48100
 C437 C 0.56177 0.94750 0.49838
 O438 O 0.45220 0.93728 0.53520
 Zr439 Zr 0.47804 0.94448 0.51124
 O440 O 0.51288 0.93512 0.46533
 O441 O 0.53179 0.93769 0.54905
 O442 O 0.49008 0.91607 0.53099
 O443 O 0.44736 0.93267 0.49513
 O444 O 0.48781 0.91798 0.48963
 C445 C 0.50125 0.91778 0.47283
 O446 O 0.54172 0.98282 0.45538
 O447 O 0.45985 1.02816 0.46851
 O448 O 0.50340 0.97424 0.44444
 O449 O 0.46922 0.99335 0.44955
 O450 O 0.50362 1.05051 0.48674
 O451 O 0.53855 1.02918 0.47846
 C452 C 0.48482 0.98454 0.43727
 H453 H 0.47212 1.03091 0.50935
 H454 H 0.54891 0.99142 0.49933
 H455 H 0.47389 0.95432 0.46911
 H456 H 0.49002 0.95473 0.55163
 H457 H 0.54844 1.04750 0.51881
 H458 H 0.56687 0.97554 0.55198
 H459 H 0.54685 0.93858 0.55716
 H460 H 0.48125 0.90216 0.52636
 H461 H 0.51311 1.06383 0.49177
 H462 H 0.44480 1.02705 0.46040
 H463 H 0.42790 0.98834 0.46203
 H464 H 0.44674 0.91559 0.49714
 H465 H 0.54587 1.04440 0.48138
 H466 H 0.54548 0.97062 0.44458
 H467 H 0.44883 0.99356 0.57163
 H468 H 0.44795 0.92066 0.53474
 Zr469 Zr -0.02363 0.49572 1.03814
 O470 O -0.04745 0.48073 1.06060
 O471 O -0.02011 0.52935 1.05015
 O472 O -0.00891 0.49356 1.07049
 O473 O -0.06452 0.50941 0.99724
 O474 O 0.02578 0.47531 1.06557
 O475 O -0.05682 0.51133 1.03448
 O476 O 0.00721 0.54548 1.02751
 O477 O 0.01196 0.50176 1.03403
 O478 O -0.02032 0.51505 1.00870
 O479 O -0.00811 0.46274 1.03717
 O480 O -0.03970 0.47572 1.01319
 Zr481 Zr 0.01619 0.46813 0.97681
 Zr482 Zr 0.02714 0.46897 1.03132
 Zr483 Zr -0.03453 0.49478 0.98372
 Zr484 Zr 0.01499 0.52000 1.00410
 O485 O -0.06406 0.47670 0.97184
 O486 O 0.04681 0.52976 1.01943
 O487 O 0.00071 0.50125 0.97759
 O488 O 0.03182 0.48807 1.00187
 O489 O 0.01318 0.44840 1.00612
 O490 O -0.01931 0.46220 0.98118
 C491 C -0.00703 0.54606 1.04370
 C492 C -0.06975 0.51501 1.01710
 C493 C 0.01055 0.48509 1.07765
 O494 O 0.05815 0.48579 1.04131
 O495 O 0.05596 0.45181 1.01804
 O496 O 0.04880 0.45148 0.98066
 C497 C 0.06139 0.44688 0.99803
 O498 O -0.04814 0.43659 1.03495
 Zr499 Zr -0.02234 0.44378 1.01095
 O500 O 0.01244 0.43439 0.96501
 O501 O 0.03143 0.43711 1.04874
 O502 O -0.01024 0.41541 1.03070
 O503 O -0.05304 0.43194 0.99490
 O504 O -0.01260 0.41727 0.98934
 C505 C 0.00082 0.41705 0.97252
 O506 O 0.04128 0.48207 0.95499
 O507 O -0.04065 0.52739 0.96811
 O508 O 0.00296 0.47351 0.94409
 O509 O -0.03124 0.49259 0.94919
 O510 O 0.00312 0.54980 0.98627
 O511 O 0.03807 0.52849 0.97800
 C512 C -0.01562 0.48380 0.93691
 H513 H -0.02834 0.53021 1.00893
 H514 H 0.04847 0.49078 0.99893
 H515 H -0.02653 0.45357 0.96880
 H516 H -0.01034 0.45412 1.05131
 H517 H 0.04796 0.54688 1.01832
 H518 H 0.06649 0.47499 1.05159
 H519 H 0.04649 0.43803 1.05684
 H520 H -0.01906 0.40149 1.02610
 H521 H 0.01260 0.56314 0.99128
 H522 H -0.05571 0.52625 0.96002
 H523 H -0.07255 0.48752 0.96170
 H524 H -0.05365 0.41486 0.99692
 H525 H 0.04538 0.54371 0.98089
 H526 H 0.04503 0.46985 0.94420
 H527 H -0.05155 0.49291 1.07129
 H528 H -0.05237 0.41996 1.03451
 Zr529 Zr -0.02387 0.49219 0.47490
 O530 O -0.04642 0.49966 0.44766
 O531 O -0.01805 0.45662 0.47125
 O532 O -0.00718 0.48840 0.44398
 O533 O -0.06766 0.48727 0.51371
 O534 O 0.02648 0.50897 0.44811
 O535 O -0.05709 0.47681 0.47887
 O536 O 0.00756 0.44741 0.49934
 O537 O 0.01142 0.48891 0.48340
 O538 O -0.02237 0.48043 0.50790
 O539 O -0.00950 0.52544 0.47018
 O540 O -0.04226 0.51691 0.49324
 Zr541 Zr 0.01037 0.53561 0.53183
 Zr542 Zr 0.02532 0.52235 0.48030
 Zr543 Zr -0.03891 0.50553 0.52637
 Zr544 Zr 0.01259 0.47839 0.51671
 O545 O -0.06955 0.52477 0.53157
 O546 O 0.04575 0.46668 0.50701
 O547 O -0.00412 0.50234 0.53689
 O548 O 0.02832 0.51090 0.51337
 O549 O 0.00900 0.54778 0.49890
 O550 O -0.02483 0.53868 0.52317
 C551 C -0.00513 0.44239 0.48241
 C552 C -0.07137 0.47713 0.49517
 C553 C 0.01228 0.49647 0.43684
 O554 O 0.05716 0.50459 0.47690
 O555 O 0.05264 0.54341 0.49184
 O556 O 0.04276 0.55252 0.52722
 C557 C 0.05646 0.55336 0.51047
 O558 O -0.05021 0.54961 0.46298
 Zr559 Zr -0.02615 0.54949 0.49007
 O560 O 0.00459 0.57117 0.53538
 O561 O 0.03031 0.54982 0.45717
 O562 O -0.01340 0.57312 0.46584
 O563 O -0.05834 0.56316 0.50036
 O564 O -0.01896 0.58103 0.50589
 C565 C -0.00692 0.58580 0.52331
 O566 O 0.03421 0.52877 0.55822
 O567 O -0.04547 0.47684 0.54772
 O568 O -0.00507 0.53696 0.56361
 O569 O -0.03823 0.51556 0.55964
 O570 O -0.00000 0.45318 0.53954
 O571 O 0.03382 0.47752 0.54586
 C572 C -0.02379 0.52754 0.57112
 H573 H -0.03003 0.46523 0.51021
 H574 H 0.04476 0.50973 0.51826
 H575 H -0.03319 0.54964 0.53267
 H576 H -0.01095 0.53058 0.45447
 H577 H 0.04738 0.45036 0.51218
 H578 H 0.06607 0.51314 0.46545
 H579 H 0.04593 0.54771 0.45084
 H580 H -0.02303 0.58733 0.46633
 H581 H 0.01020 0.43941 0.53875
 H582 H -0.06108 0.47918 0.55400
 H583 H -0.07849 0.51617 0.54296
 H584 H -0.05938 0.57934 0.49464
 H585 H 0.04155 0.46224 0.54727
 H586 H 0.03660 0.54351 0.56623
 H587 H -0.04922 0.48489 0.43983
 H588 H -0.05504 0.56574 0.45949
 Zr589 Zr 0.47680 -0.00738 -0.02417
 O590 O 0.45430 -0.00013 -0.05150
 O591 O 0.48265 -0.04298 -0.02754
 O592 O 0.49355 -0.01136 -0.05502
 O593 O 0.43291 -0.01203 0.01457
 O594 O 0.52717 0.00930 -0.05098
 O595 O 0.44357 -0.02272 -0.02017
 O596 O 0.50822 -0.05195 0.00065
 O597 O 0.51208 -0.01056 -0.01558
 O598 O 0.47824 -0.01890 0.00891
 O599 O 0.49114 0.02587 -0.02907
 O600 O 0.45834 0.01746 -0.00603
 Zr601 Zr 0.51088 0.03649 0.03254
 Zr602 Zr 0.52594 0.02289 -0.01888
 Zr603 Zr 0.46164 0.00631 0.02718
 Zr604 Zr 0.51320 -0.02083 0.01779
 O605 O 0.43097 0.02557 0.03222
 O606 O 0.54638 -0.03259 0.00821
 O607 O 0.49641 0.00324 0.03778
 O608 O 0.52889 0.01167 0.01426
 O609 O 0.50956 0.04844 -0.00047
 O610 O 0.47569 0.03946 0.02380
 C611 C 0.49555 -0.05712 -0.01626
 C612 C 0.42924 -0.02230 -0.00391
 C613 C 0.51300 -0.00330 -0.06220
 O614 O 0.55780 0.00513 -0.02211
 O615 O 0.55322 0.04405 -0.00742
 O616 O 0.54325 0.05341 0.02787
 C617 C 0.55699 0.05414 0.01114
 O618 O 0.45045 0.04998 -0.03651
 Zr619 Zr 0.47442 0.05004 -0.00936
 O620 O 0.50501 0.07206 0.03589
 O621 O 0.53095 0.05021 -0.04216
 O622 O 0.48723 0.07354 -0.03368
 O623 O 0.44217 0.06372 0.00075
 O624 O 0.48148 0.08170 0.00631
 C625 C 0.49346 0.08659 0.02374
 O626 O 0.53470 0.02989 0.05900
 O627 O 0.45505 -0.02225 0.04868
 O628 O 0.49539 0.03798 0.06430
 O629 O 0.46225 0.01654 0.06039
 O630 O 0.50060 -0.04588 0.04079
 O631 O 0.53438 -0.02146 0.04698
 C632 C 0.47667 0.02859 0.07183
 H633 H 0.47059 -0.03408 0.01131
 H634 H 0.54533 0.01055 0.01919
 H635 H 0.46729 0.05047 0.03323
 H636 H 0.48971 0.03090 -0.04481
 H637 H 0.54803 -0.04887 0.01350
 H638 H 0.56672 0.01361 -0.03360
 H639 H 0.54658 0.04807 -0.04845
 H640 H 0.47759 0.08775 -0.03329
 H641 H 0.51083 -0.05964 0.04012
 H642 H 0.43942 -0.01988 0.05492
 H643 H 0.42202 0.01704 0.04365
 H644 H 0.44111 0.07986 -0.00506
 H645 H 0.54214 -0.03672 0.04849
 H646 H 0.53703 0.04468 0.06692
 H647 H 0.45153 -0.01496 -0.05923
 H648 H 0.44563 0.06609 -0.04012
 Zr649 Zr 0.53237 0.50897 -0.03390
 O650 O 0.55623 0.49411 -0.05594
 O651 O 0.53025 0.54320 -0.04599
 O652 O 0.51860 0.50787 -0.06670
 O653 O 0.57303 0.51862 0.00807
 O654 O 0.48275 0.49156 -0.06232
 O655 O 0.56630 0.52265 -0.02926
 O656 O 0.50334 0.55951 -0.02356
 O657 O 0.49705 0.51663 -0.03033
 O658 O 0.52946 0.52718 -0.00432
 O659 O 0.51511 0.47676 -0.03343
 O660 O 0.54670 0.48703 -0.00886
 Zr661 Zr 0.48972 0.48086 0.02646
 Zr662 Zr 0.48013 0.48457 -0.02818
 Zr663 Zr 0.54197 0.50504 0.02072
 Zr664 Zr 0.49436 0.53368 -0.00020
 O665 O 0.57043 0.48508 0.03270
 O666 O 0.46313 0.54574 -0.01545
 O667 O 0.50704 0.51312 0.02639
 O668 O 0.47572 0.50261 0.00135
 O669 O 0.49237 0.46228 -0.00299
 O670 O 0.52493 0.47320 0.02261
 C671 C 0.51756 0.56011 -0.03976
 C672 C 0.57906 0.52473 -0.01160
 C673 C 0.49894 0.50036 -0.07420
 O674 O 0.45046 0.50365 -0.03860
 O675 O 0.45030 0.46809 -0.01578
 O676 O 0.45640 0.46579 0.02175
 C677 C 0.44418 0.46232 0.00397
 O678 O 0.55381 0.44842 -0.03052
 Zr679 Zr 0.52763 0.45591 -0.00721
 O680 O 0.49087 0.44649 0.03769
 O681 O 0.47428 0.45370 -0.04595
 O682 O 0.51471 0.42919 -0.02778
 O683 O 0.55703 0.44163 0.00960
 O684 O 0.51531 0.42897 0.01359
 C685 C 0.50133 0.42881 0.03002
 O686 O 0.46520 0.49548 0.04798
 O687 O 0.54916 0.53661 0.03691
 O688 O 0.50300 0.48320 0.05944
 O689 O 0.53822 0.50085 0.05511
 O690 O 0.50773 0.56220 0.01774
 O691 O 0.47156 0.54223 0.02583
 C692 C 0.52218 0.49183 0.06701
 H693 H 0.53824 0.54193 -0.00435
 H694 H 0.45916 0.50598 0.00400
 H695 H 0.53140 0.46352 0.03492
 H696 H 0.51723 0.46851 -0.04753
 H697 H 0.46285 0.56284 -0.01410
 H698 H 0.44167 0.49373 -0.04906
 H699 H 0.45947 0.45577 -0.05432
 H700 H 0.52257 0.41460 -0.02311
 H701 H 0.49901 0.57618 0.01274
 H702 H 0.56397 0.53442 0.04527
 H703 H 0.57925 0.49496 0.04318
 H704 H 0.55656 0.42462 0.00754
 H705 H 0.46536 0.55806 0.02324
 H706 H 0.46043 0.48302 0.05850
 H707 H 0.56109 0.50659 -0.06640
 H708 H 0.55722 0.43159 -0.03004
 Zr709 Zr 0.03316 1.00755 0.46644
 O710 O 0.05692 0.99223 0.44459
 O711 O 0.03153 1.04172 0.45415
 O712 O 0.01945 1.00638 0.43361
 O713 O 0.07379 1.01717 0.50845
 O714 O -0.01657 0.99047 0.43801
 O715 O 0.06720 1.02095 0.47108
 O716 O 0.00477 1.05852 0.47641
 O717 O -0.00209 1.01563 0.46985
 O718 O 0.03036 1.02601 0.49589
 O719 O 0.01556 0.97553 0.46709
 O720 O 0.04721 0.98565 0.49167
 Zr721 Zr -0.00994 0.98037 0.52688
 Zr722 Zr -0.01935 0.98376 0.47219
 Zr723 Zr 0.04258 1.00394 0.52111
 Zr724 Zr -0.00468 1.03293 0.49985
 O725 O 0.07081 0.98377 0.53326
 O726 O -0.03568 1.04520 0.48433
 O727 O 0.00771 1.01245 0.52662
 O728 O -0.02365 1.00207 0.50157
 O729 O -0.00741 0.96154 0.49756
 O730 O 0.02520 0.97230 0.52318
 C731 C 0.01908 1.05884 0.46027
 C732 C 0.07991 1.02309 0.48876
 C733 C -0.00027 0.99903 0.42612
 O734 O -0.04881 1.00305 0.46158
 O735 O -0.04935 0.96763 0.48463
 O736 O -0.04338 0.96557 0.52217
 C737 C -0.05557 0.96206 0.50439
 O738 O 0.05396 0.94679 0.47032
 Zr739 Zr 0.02780 0.95476 0.49349
 O740 O -0.00919 0.94608 0.53837
 O741 O -0.02545 0.95282 0.45460
 O742 O 0.01466 0.92800 0.47308
 O743 O 0.05699 0.94028 0.51048
 O744 O 0.01511 0.92812 0.51444
 C745 C 0.00109 0.92823 0.53083
 O746 O -0.03438 0.99544 0.54820
 O747 O 0.05006 1.03554 0.53714
 O748 O 0.00326 0.98285 0.55987
 O749 O 0.03870 1.00005 0.55552
 O750 O 0.00889 1.06143 0.51770
 O751 O -0.02753 1.04194 0.52570
 C752 C 0.02251 0.99132 0.56744
 H753 H 0.03929 1.04067 0.49580
 H754 H -0.04018 1.00564 0.50415
 H755 H 0.03152 0.96265 0.53558
 H756 H 0.01764 0.96715 0.45305
 H757 H -0.03577 1.06232 0.48553
 H758 H -0.05767 0.99314 0.45117
 H759 H -0.04022 0.95498 0.44618
 H760 H 0.02235 0.91336 0.47787
 H761 H 0.00034 1.07547 0.51256
 H762 H 0.06483 1.03326 0.54554
 H763 H 0.07970 0.99362 0.54370
 H764 H 0.05633 0.92326 0.50854
 H765 H -0.03359 1.05780 0.52292
 H766 H -0.03932 0.98312 0.55879
 H767 H 0.06195 1.00457 0.43405
 H768 H 0.05720 0.92994 0.47092
 Zr769 Zr 0.73599 0.27040 0.22004
 O770 O 0.74684 0.29370 0.19474
 O771 O 0.70050 0.26663 0.21270
 O772 O 0.73326 0.25542 0.18825
 O773 O 0.72997 0.31243 0.26007
 O774 O 0.75200 0.22072 0.19259
 O775 O 0.72177 0.30395 0.22389
 O776 O 0.68835 0.23996 0.23847
 O777 O 0.73052 0.23501 0.22652
 O778 O 0.72171 0.26787 0.25169
 O779 O 0.76884 0.25471 0.21781
 O780 O 0.76013 0.28662 0.24152
 Zr781 Zr 0.77335 0.23136 0.27917
 Zr782 Zr 0.76341 0.21970 0.22587
 Zr783 Zr 0.74606 0.28230 0.27322
 Zr784 Zr 0.71752 0.23270 0.25861
 O785 O 0.76623 0.31162 0.28172
 O786 O 0.70505 0.20068 0.24636
 O787 O 0.74055 0.24728 0.28175
 O788 O 0.74939 0.21557 0.25754
 O789 O 0.78812 0.23373 0.24767
 O790 O 0.77867 0.26671 0.27258
 C791 C 0.68505 0.25373 0.22182
 C792 C 0.72141 0.31743 0.24075
 C793 C 0.74076 0.23595 0.18098
 O794 O 0.74469 0.18890 0.21935
 O795 O 0.78246 0.19100 0.23801
 O796 O 0.78928 0.19866 0.27461
 C797 C 0.79084 0.18586 0.25734
 O798 O 0.79574 0.29416 0.21488
 Zr799 Zr 0.79212 0.26906 0.24080
 O800 O 0.80863 0.23516 0.28686
 O801 O 0.79212 0.21466 0.20499
 O802 O 0.81699 0.25612 0.21857
 O803 O 0.80638 0.30005 0.25375
 O804 O 0.82189 0.25969 0.25973
 C805 C 0.82467 0.24665 0.27705
 O806 O 0.76317 0.20657 0.30344
 O807 O 0.71622 0.28931 0.29207
 O808 O 0.77302 0.24494 0.31166
 O809 O 0.75357 0.27928 0.30730
 O810 O 0.69110 0.24528 0.27938
 O811 O 0.71363 0.21034 0.28668
 C812 C 0.76397 0.26366 0.31913
 H813 H 0.70674 0.27610 0.25290
 H814 H 0.74713 0.19900 0.26150
 H815 H 0.78922 0.27405 0.28353
 H816 H 0.77514 0.25666 0.20270
 H817 H 0.68834 0.19960 0.24992
 H818 H 0.75363 0.18025 0.20827
 H819 H 0.78978 0.19950 0.19776
 H820 H 0.83164 0.26477 0.22110
 H821 H 0.67705 0.23570 0.27678
 H822 H 0.71888 0.30441 0.29931
 H823 H 0.75722 0.32036 0.29268
 H824 H 0.82303 0.30046 0.24987
 H825 H 0.69801 0.20317 0.28624
 H826 H 0.77707 0.20294 0.31279
 H827 H 0.73293 0.29766 0.18554
 H828 H 0.81235 0.29816 0.21323
 Zr829 Zr 0.74601 0.72655 0.71153
 O830 O 0.73092 0.70276 0.68914
 O831 O 0.77966 0.73002 0.69942
 O832 O 0.74378 0.74122 0.67916
 O833 O 0.75976 0.68574 0.75246
 O834 O 0.72554 0.77590 0.68408
 O835 O 0.76160 0.69337 0.71520
 O836 O 0.79590 0.75732 0.72196
 O837 O 0.75210 0.76210 0.71556
 O838 O 0.76545 0.72987 0.74090
 O839 O 0.71301 0.74209 0.71257
 O840 O 0.72604 0.71056 0.73657
 Zr841 Zr 0.71859 0.76642 0.77287
 Zr842 Zr 0.71929 0.77730 0.71835
 Zr843 Zr 0.74520 0.71573 0.76598
 Zr844 Zr 0.77045 0.76514 0.74542
 O845 O 0.72711 0.68627 0.77797
 O846 O 0.78021 0.79690 0.73000
 O847 O 0.75173 0.75093 0.77202
 O848 O 0.73850 0.78199 0.74772
 O849 O 0.69875 0.76340 0.74363
 O850 O 0.71260 0.73097 0.76858
 C851 C 0.79643 0.74307 0.70579
 C852 C 0.76529 0.68047 0.73259
 C853 C 0.73530 0.76066 0.67199
 O854 O 0.73613 0.80825 0.70826
 O855 O 0.70216 0.80611 0.73163
 O856 O 0.70191 0.79899 0.76902
 C857 C 0.69727 0.81155 0.75164
 O858 O 0.68679 0.70214 0.71493
 Zr859 Zr 0.69408 0.72792 0.73888
 O860 O 0.68483 0.76271 0.78480
 O861 O 0.68735 0.78158 0.70100
 O862 O 0.66563 0.74002 0.71920
 O863 O 0.68225 0.69727 0.75501
 O864 O 0.66761 0.73768 0.76057
 C865 C 0.66745 0.75109 0.77737
 O866 O 0.73263 0.79150 0.79460
 O867 O 0.77789 0.70960 0.78148
 O868 O 0.72404 0.75325 0.80560
 O869 O 0.74310 0.71907 0.80050
 O870 O 0.80031 0.75328 0.76319
 O871 O 0.77904 0.78823 0.77145
 C872 C 0.73434 0.73469 0.81278
 H873 H 0.78061 0.72185 0.74064
 H874 H 0.74123 0.79862 0.75063
 H875 H 0.70399 0.72377 0.78101
 H876 H 0.70434 0.73985 0.69846
 H877 H 0.79735 0.79803 0.73105
 H878 H 0.72530 0.81657 0.69800
 H879 H 0.68826 0.79662 0.69289
 H880 H 0.65170 0.73123 0.72386
 H881 H 0.81366 0.76273 0.75813
 H882 H 0.77675 0.69458 0.78961
 H883 H 0.73796 0.67780 0.78809
 H884 H 0.66515 0.69667 0.75304
 H885 H 0.79428 0.79551 0.76850
 H886 H 0.72043 0.79527 0.80542
 H887 H 0.74310 0.69864 0.67843
 H888 H 0.67013 0.69794 0.71543
 Zr889 Zr 0.24193 0.22650 0.77472
 O890 O 0.24922 0.20403 0.80205
 O891 O 0.20626 0.23224 0.77808
 O892 O 0.23790 0.24319 0.80558
 O893 O 0.23742 0.18267 0.73599
 O894 O 0.25849 0.27684 0.80151
 O895 O 0.22665 0.19328 0.77073
 O896 O 0.19722 0.25773 0.74986
 O897 O 0.23865 0.26172 0.76611
 O898 O 0.23043 0.22792 0.74164
 O899 O 0.27517 0.24091 0.77961
 O900 O 0.26687 0.20814 0.75659
 Zr901 Zr 0.28581 0.26068 0.71799
 Zr902 Zr 0.27209 0.27567 0.76940
 Zr903 Zr 0.25573 0.21141 0.72338
 Zr904 Zr 0.22839 0.26282 0.73274
 O905 O 0.27511 0.18084 0.71836
 O906 O 0.21651 0.29592 0.74232
 O907 O 0.25256 0.24614 0.71276
 O908 O 0.26088 0.27859 0.73626
 O909 O 0.29774 0.25938 0.75101
 O910 O 0.28888 0.22554 0.72675
 C911 C 0.19208 0.24507 0.76677
 C912 C 0.22712 0.17898 0.75447
 C913 C 0.24592 0.26264 0.81274
 O914 O 0.25420 0.30742 0.77263
 O915 O 0.29319 0.30298 0.75793
 O916 O 0.30263 0.29306 0.72265
 C917 C 0.30329 0.30678 0.73936
 O918 O 0.29940 0.20032 0.78706
 Zr919 Zr 0.29944 0.22429 0.75992
 O920 O 0.32144 0.25494 0.71468
 O921 O 0.29943 0.28075 0.79267
 O922 O 0.32290 0.23712 0.78426
 O923 O 0.31326 0.19214 0.74980
 O924 O 0.33113 0.23147 0.74428
 C925 C 0.33602 0.24347 0.72685
 O926 O 0.27915 0.28445 0.69152
 O927 O 0.22718 0.20475 0.70187
 O928 O 0.28738 0.24523 0.68625
 O929 O 0.26600 0.21207 0.69016
 O930 O 0.20338 0.25018 0.70973
 O931 O 0.22773 0.28400 0.70355
 C932 C 0.27803 0.22652 0.67872
 H933 H 0.21525 0.22023 0.73923
 H934 H 0.25971 0.29500 0.73132
 H935 H 0.29994 0.21719 0.71733
 H936 H 0.28021 0.23949 0.79535
 H937 H 0.20021 0.29751 0.73703
 H938 H 0.26266 0.31636 0.78412
 H939 H 0.29722 0.29635 0.79896
 H940 H 0.33715 0.22752 0.78388
 H941 H 0.18957 0.26035 0.71039
 H942 H 0.22961 0.18915 0.69564
 H943 H 0.26661 0.17187 0.70694
 H944 H 0.32941 0.19112 0.75562
 H945 H 0.21243 0.29170 0.70203
 H946 H 0.29396 0.28683 0.68360
 H947 H 0.23437 0.20122 0.80979
 H948 H 0.31554 0.19553 0.79067
 Zr949 Zr 0.25791 0.78272 0.28340
 O950 O 0.24275 0.80643 0.30538
 O951 O 0.29212 0.78080 0.29564
 O952 O 0.25671 0.76889 0.31618
 O953 O 0.26766 0.82346 0.24152
 O954 O 0.24059 0.73301 0.31169
 O955 O 0.27147 0.81669 0.27886
 O956 O 0.30874 0.75405 0.27326
 O957 O 0.26580 0.74750 0.27983
 O958 O 0.27633 0.77998 0.25391
 O959 O 0.22575 0.76532 0.28275
 O960 O 0.23602 0.79698 0.25827
 Zr961 Zr 0.23037 0.74010 0.22286
 Zr962 Zr 0.23380 0.73043 0.27751
 Zr963 Zr 0.25427 0.79241 0.22877
 Zr964 Zr 0.28306 0.74496 0.24979
 O965 O 0.23420 0.82076 0.21675
 O966 O 0.29521 0.71382 0.26508
 O967 O 0.26258 0.75757 0.22310
 O968 O 0.25206 0.72619 0.24807
 O969 O 0.21157 0.74258 0.25222
 O970 O 0.22249 0.77522 0.22671
 C971 C 0.30916 0.76824 0.28947
 C972 C 0.27362 0.82947 0.26123
 C973 C 0.24927 0.74919 0.32362
 O974 O 0.25299 0.70087 0.28798
 O975 O 0.21751 0.70059 0.26500
 O976 O 0.21542 0.70674 0.22747
 C977 C 0.21189 0.69449 0.24522
 O978 O 0.19717 0.80381 0.27974
 Zr979 Zr 0.20498 0.77776 0.25644
 O980 O 0.19604 0.74110 0.21144
 O981 O 0.20282 0.72441 0.29513
 O982 O 0.17815 0.76465 0.27685
 O983 O 0.19062 0.80709 0.23961
 O984 O 0.17820 0.76536 0.23547
 C985 C 0.17823 0.75144 0.21903
 O986 O 0.24529 0.71573 0.20139
 O987 O 0.28592 0.79978 0.21272
 O988 O 0.23286 0.75345 0.18991
 O989 O 0.25028 0.78873 0.19436
 O990 O 0.31166 0.75849 0.23199
 O991 O 0.29191 0.72227 0.22379
 C992 C 0.24142 0.77267 0.18239
 H993 H 0.29106 0.78882 0.25401
 H994 H 0.25555 0.70967 0.24542
 H995 H 0.21284 0.78165 0.21435
 H996 H 0.21740 0.76736 0.29682
 H997 H 0.31234 0.71364 0.26383
 H998 H 0.24304 0.69202 0.29838
 H999 H 0.20491 0.70961 0.30349
 H1000 H 0.16353 0.77243 0.27211
 H1001 H 0.32568 0.74984 0.23706
 H1002 H 0.28371 0.81458 0.20438
 H1003 H 0.24410 0.82964 0.20633
 H1004 H 0.17358 0.80652 0.24158
 H1005 H 0.30777 0.71614 0.22646
 H1006 H 0.23291 0.71092 0.19081
 H1007 H 0.25514 0.81133 0.31591
 H1008 H 0.18030 0.80711 0.27920
 Zr1009 Zr 0.23557 0.77193 0.71932
 O1010 O 0.24605 0.79530 0.69393
 O1011 O 0.20010 0.76771 0.71210
 O1012 O 0.23295 0.75685 0.68756
 O1013 O 0.22923 0.81402 0.75926
 O1014 O 0.25210 0.72238 0.69194
 O1015 O 0.22099 0.80533 0.72313
 O1016 O 0.18834 0.74100 0.73800
 O1017 O 0.23051 0.73651 0.72592
 O1018 O 0.22144 0.76934 0.75103
 O1019 O 0.26858 0.75660 0.71703
 O1020 O 0.25961 0.78848 0.74067
 Zr1021 Zr 0.27357 0.73347 0.77844
 Zr1022 Zr 0.26357 0.72155 0.72520
 Zr1023 Zr 0.24571 0.78410 0.77244
 Zr1024 Zr 0.21766 0.73415 0.75807
 O1025 O 0.26558 0.81366 0.78078
 O1026 O 0.20548 0.70195 0.74598
 O1027 O 0.24062 0.74904 0.78109
 O1028 O 0.24970 0.71737 0.75693
 O1029 O 0.28820 0.73591 0.74687
 O1030 O 0.27848 0.76887 0.77173
 C1031 C 0.18483 0.75467 0.72131
 C1032 C 0.22054 0.81886 0.73996
 C1033 C 0.24068 0.73747 0.68032
 O1034 O 0.24511 0.69058 0.71878
 O1035 O 0.28288 0.69305 0.73737
 O1036 O 0.28975 0.70089 0.77392
 C1037 C 0.29134 0.68803 0.75669
 O1038 O 0.29503 0.79634 0.71389
 Zr1039 Zr 0.29179 0.77127 0.73990
 O1040 O 0.30884 0.73767 0.78596
 O1041 O 0.29229 0.71674 0.70430
 O1042 O 0.31672 0.75854 0.71761
 O1043 O 0.30574 0.80245 0.75271
 O1044 O 0.32173 0.76229 0.75873
 C1045 C 0.32472 0.74931 0.77607
 O1046 O 0.26378 0.70867 0.80285
 O1047 O 0.21586 0.79083 0.79138
 O1048 O 0.27322 0.74716 0.81088
 O1049 O 0.25338 0.78127 0.80651
 O1050 O 0.19118 0.74653 0.77889
 O1051 O 0.21411 0.71185 0.78623
 C1052 C 0.26400 0.76579 0.81834
 H1053 H 0.20637 0.77741 0.75226
 H1054 H 0.24762 0.70079 0.76095
 H1055 H 0.28900 0.77634 0.78262
 H1056 H 0.27482 0.75858 0.70190
 H1057 H 0.18881 0.70070 0.74961
 H1058 H 0.25411 0.68197 0.70771
 H1059 H 0.29008 0.70154 0.69710
 H1060 H 0.33127 0.76737 0.72006
 H1061 H 0.17722 0.73680 0.77636
 H1062 H 0.21838 0.80598 0.79857
 H1063 H 0.25651 0.82233 0.79175
 H1064 H 0.32237 0.80305 0.74877
 H1065 H 0.19856 0.70454 0.78589
 H1066 H 0.27775 0.70522 0.81214
 H1067 H 0.23206 0.79908 0.68477
 H1068 H 0.31159 0.80052 0.71218
 Zr1069 Zr 0.24604 0.22697 0.21185
 O1070 O 0.23130 0.20319 0.18924
 O1071 O 0.27982 0.23061 0.20008
 O1072 O 0.24408 0.24170 0.17949
 O1073 O 0.25939 0.18603 0.25279
 O1074 O 0.22571 0.27633 0.18432
 O1075 O 0.26168 0.19382 0.21558
 O1076 O 0.29573 0.25784 0.22289
 O1077 O 0.25201 0.26251 0.21605
 O1078 O 0.26513 0.23022 0.24143
 O1079 O 0.21300 0.24244 0.21259
 O1080 O 0.22581 0.21084 0.23661
 Zr1081 Zr 0.21780 0.26657 0.27302
 Zr1082 Zr 0.21914 0.27763 0.21854
 Zr1083 Zr 0.24461 0.21596 0.26624
 Zr1084 Zr 0.27000 0.26548 0.24612
 O1085 O 0.22642 0.18643 0.27795
 O1086 O 0.27988 0.29734 0.23095
 O1087 O 0.25099 0.25114 0.27246
 O1088 O 0.23799 0.28225 0.24813
 O1089 O 0.19832 0.26361 0.24354
 O1090 O 0.21194 0.23112 0.26856
 C1091 C 0.29648 0.24369 0.20666
 C1092 C 0.26519 0.18086 0.23296
 C1093 C 0.23560 0.26113 0.17229
 O1094 O 0.23607 0.30861 0.20868
 O1095 O 0.20184 0.30640 0.23172
 O1096 O 0.20117 0.29915 0.26909
 C1097 C 0.19673 0.31178 0.25169
 O1098 O 0.18689 0.20236 0.21459
 Zr1099 Zr 0.19379 0.22814 0.23864
 O1100 O 0.18387 0.26281 0.28450
 O1101 O 0.18736 0.28194 0.20093
 O1102 O 0.16556 0.24015 0.21862
 O1103 O 0.18180 0.19747 0.25462
 O1104 O 0.16699 0.23787 0.25996
 C1105 C 0.16658 0.25126 0.27677
 O1106 O 0.23150 0.29158 0.29500
 O1107 O 0.27714 0.20981 0.28206
 O1108 O 0.22294 0.25329 0.30576
 O1109 O 0.24215 0.21918 0.30074
 O1110 O 0.29969 0.25359 0.26414
 O1111 O 0.27823 0.28846 0.27233
 C1112 C 0.23324 0.23475 0.31298
 H1113 H 0.28032 0.22223 0.24129
 H1114 H 0.24066 0.29888 0.25112
 H1115 H 0.20319 0.22388 0.28087
 H1116 H 0.20448 0.24022 0.19839
 H1117 H 0.29701 0.29851 0.23220
 H1118 H 0.22533 0.31696 0.19834
 H1119 H 0.18834 0.29700 0.19285
 H1120 H 0.15160 0.23129 0.22309
 H1121 H 0.31308 0.26309 0.25926
 H1122 H 0.27593 0.19476 0.29012
 H1123 H 0.23717 0.17794 0.28816
 H1124 H 0.16472 0.19685 0.25246
 H1125 H 0.29350 0.29577 0.26959
 H1126 H 0.21915 0.29529 0.30569
 H1127 H 0.24361 0.19914 0.17865
 H1128 H 0.17025 0.19806 0.21492
 Zr1129 Zr 0.74377 0.72644 0.27472
 O1130 O 0.75114 0.70397 0.30203
 O1131 O 0.70811 0.73217 0.27817
 O1132 O 0.73974 0.74313 0.30558
 O1133 O 0.73919 0.68264 0.23598
 O1134 O 0.76031 0.77678 0.30150
 O1135 O 0.72849 0.69322 0.27074
 O1136 O 0.69901 0.75772 0.25001
 O1137 O 0.74046 0.76167 0.26615
 O1138 O 0.73217 0.72789 0.24166
 O1139 O 0.77701 0.74086 0.27956
 O1140 O 0.76866 0.70810 0.25652
 Zr1141 Zr 0.78749 0.76069 0.21793
 Zr1142 Zr 0.77390 0.77562 0.26938
 Zr1143 Zr 0.75744 0.71140 0.22334
 Zr1144 Zr 0.73012 0.76280 0.23279
 O1145 O 0.77683 0.68085 0.21824
 O1146 O 0.71826 0.79590 0.24240
 O1147 O 0.75424 0.74614 0.21276
 O1148 O 0.76261 0.77858 0.23626
 O1149 O 0.79950 0.75936 0.25091
 O1150 O 0.79059 0.72554 0.22665
 C1151 C 0.69391 0.74504 0.26693
 C1152 C 0.72894 0.67893 0.25448
 C1153 C 0.74774 0.76259 0.31274
 O1154 O 0.75604 0.80739 0.27265
 O1155 O 0.79500 0.80294 0.25790
 O1156 O 0.80434 0.79306 0.22258
 C1157 C 0.80506 0.80675 0.23931
 O1158 O 0.80128 0.70028 0.28693
 Zr1159 Zr 0.80124 0.72427 0.25979
 O1160 O 0.82312 0.75495 0.21451
 O1161 O 0.80126 0.78067 0.29263
 O1162 O 0.82475 0.73709 0.28409
 O1163 O 0.81503 0.69212 0.24963
 O1164 O 0.83289 0.73146 0.24408
 C1165 C 0.83772 0.74347 0.22664
 O1166 O 0.78078 0.78449 0.19150
 O1167 O 0.72883 0.70474 0.20190
 O1168 O 0.78895 0.74528 0.18615
 O1169 O 0.76761 0.71210 0.19010
 O1170 O 0.70503 0.75016 0.20986
 O1171 O 0.72939 0.78397 0.20360
 C1172 C 0.77958 0.72657 0.17863
 H1173 H 0.71699 0.72020 0.23930
 H1174 H 0.76143 0.79499 0.23134
 H1175 H 0.80163 0.71720 0.21719
 H1176 H 0.78207 0.73944 0.29529
 H1177 H 0.70195 0.79749 0.23714
 H1178 H 0.76451 0.81631 0.28413
 H1179 H 0.79907 0.79628 0.29893
 H1180 H 0.83900 0.72751 0.28366
 H1181 H 0.69122 0.76034 0.21056
 H1182 H 0.73125 0.68914 0.19565
 H1183 H 0.76830 0.67189 0.20683
 H1184 H 0.83121 0.69111 0.25540
 H1185 H 0.71408 0.79167 0.20212
 H1186 H 0.79557 0.78688 0.18354
 H1187 H 0.73631 0.70114 0.30980
 H1188 H 0.81743 0.69550 0.29049
 Zr1189 Zr 0.75773 0.28237 0.78398
 O1190 O 0.74260 0.30612 0.80593
 O1191 O 0.79194 0.28040 0.79625
 O1192 O 0.75648 0.26857 0.81678
 O1193 O 0.76751 0.32305 0.74206
 O1194 O 0.74033 0.23270 0.81231
 O1195 O 0.77133 0.31632 0.77941
 O1196 O 0.80852 0.25361 0.77389
 O1197 O 0.76558 0.24713 0.78044
 O1198 O 0.77616 0.27957 0.75449
 O1199 O 0.72556 0.26499 0.78334
 O1200 O 0.73586 0.29662 0.75883
 Zr1201 Zr 0.73017 0.23971 0.72347
 Zr1202 Zr 0.73357 0.23010 0.77813
 Zr1203 Zr 0.75411 0.29199 0.72934
 Zr1204 Zr 0.78285 0.24455 0.75041
 O1205 O 0.73408 0.32035 0.71727
 O1206 O 0.79497 0.21340 0.76572
 O1207 O 0.76239 0.25715 0.72371
 O1208 O 0.75184 0.22580 0.74870
 O1209 O 0.71136 0.24224 0.75282
 O1210 O 0.72231 0.27484 0.72728
 C1211 C 0.80896 0.26781 0.79010
 C1212 C 0.77348 0.32908 0.76175
 C1213 C 0.74902 0.24889 0.82424
 O1214 O 0.75273 0.20054 0.78864
 O1215 O 0.71728 0.20025 0.76563
 O1216 O 0.71520 0.20636 0.72810
 C1217 C 0.71167 0.19413 0.74586
 O1218 O 0.69701 0.30351 0.78028
 Zr1219 Zr 0.70480 0.27743 0.75701
 O1220 O 0.69583 0.24072 0.71205
 O1221 O 0.70257 0.22411 0.79573
 O1222 O 0.67796 0.26437 0.77742
 O1223 O 0.69048 0.30676 0.74015
 O1224 O 0.67803 0.26504 0.73605
 C1225 C 0.67803 0.25110 0.71962
 O1226 O 0.74506 0.21531 0.70203
 O1227 O 0.78578 0.29932 0.71330
 O1228 O 0.73267 0.25302 0.69051
 O1229 O 0.75013 0.28828 0.69493
 O1230 O 0.81148 0.25804 0.73262
 O1231 O 0.79169 0.22184 0.72442
 C1232 C 0.74126 0.27222 0.68297
 H1233 H 0.79090 0.28840 0.75460
 H1234 H 0.75531 0.20928 0.74606
 H1235 H 0.71268 0.28127 0.71492
 H1236 H 0.71720 0.26706 0.79740
 H1237 H 0.81210 0.21320 0.76447
 H1238 H 0.74277 0.19170 0.79904
 H1239 H 0.70465 0.20932 0.80411
 H1240 H 0.66334 0.27216 0.77267
 H1241 H 0.82548 0.24938 0.73770
 H1242 H 0.78359 0.31411 0.70494
 H1243 H 0.74399 0.32921 0.70685
 H1244 H 0.67344 0.30621 0.74212
 H1245 H 0.80755 0.21570 0.72710
 H1246 H 0.73268 0.21050 0.69144
 H1247 H 0.75500 0.31102 0.81646
 H1248 H 0.68015 0.30683 0.77973
 C1249 C 0.46209 0.97619 0.35369
 C1250 C 0.43635 0.98331 0.35045
 C1251 C 0.44373 1.00234 0.33385
 C1252 C 0.46935 0.99529 0.33672
 C1253 C 0.46447 0.99385 0.37240
 C1254 C 0.47190 1.01291 0.35584
 C1255 C 0.43885 1.00090 0.36941
 C1256 C 0.44609 1.01998 0.35257
 C1257 C 0.43100 1.00635 0.31284
 C1258 C 0.41959 1.00848 0.29596
 C1259 C 0.47433 0.98943 0.39468
 C1260 C 0.48040 0.98656 0.41379
 H1261 H 0.46878 0.95815 0.35433
 H1262 H 0.42156 0.97120 0.34809
 H1263 H 0.48178 0.99308 0.32302
 H1264 H 0.48669 1.02500 0.35826
 H1265 H 0.42634 1.00312 0.38305
 H1266 H 0.43939 1.03801 0.35195
 C1267 C -0.03842 0.51751 0.86130
 C1268 C -0.03087 0.50746 0.83878
 C1269 C -0.05641 0.50183 0.83342
 C1270 C -0.06409 0.51192 0.85556
 C1271 C -0.03581 0.49326 0.87201
 C1272 C -0.06134 0.48766 0.86653
 C1273 C -0.02807 0.48312 0.84990
 C1274 C -0.05379 0.47759 0.84414
 C1275 C -0.06907 0.50589 0.81238
 C1276 C -0.08045 0.50803 0.79548
 C1277 C -0.02603 0.48877 0.89432
 C1278 C -0.02000 0.48585 0.91343
 H1279 H -0.03195 0.53391 0.86856
 H1280 H -0.01848 0.51572 0.82714
 H1281 H -0.07899 0.52382 0.85773
 H1282 H -0.07381 0.47941 0.87810
 H1283 H -0.01317 0.47121 0.84779
 H1284 H -0.06028 0.46119 0.83690
 C1285 C 0.06001 0.00427 0.86453
 C1286 C 0.05204 -0.01297 0.84658
 C1287 C 0.05523 0.00614 0.82886
 C1288 C 0.06334 0.02335 0.84659
 C1289 C 0.03471 0.01215 0.86710
 C1290 C 0.03790 0.03129 0.84941
 C1291 C 0.02655 -0.00509 0.84941
 C1292 C 0.02992 0.01403 0.83130
 C1293 C 0.06783 0.00307 0.80816
 C1294 C 0.07917 0.00129 0.79161
 C1295 C 0.02499 0.01467 0.88928
 C1296 C 0.01900 0.01542 0.90834
 H1297 H 0.07235 0.00032 0.87841
 H1298 H 0.05798 -0.03118 0.84524
 H1299 H 0.07865 0.03498 0.84526
 H1300 H 0.03197 0.04951 0.85078
 H1301 H 0.01125 -0.01671 0.85078
 H1302 H 0.01767 0.01795 0.81736
 C1303 C 0.56175 0.50467 0.36499
 C1304 C 0.55434 0.48700 0.34721
 C1305 C 0.55726 0.50592 0.32927
 C1306 C 0.56481 0.52357 0.34682
 C1307 C 0.53624 0.51200 0.36724
 C1308 C 0.53916 0.53097 0.34933
 C1309 C 0.52866 0.49433 0.34972
 C1310 C 0.53175 0.51327 0.33140
 C1311 C 0.57011 0.50280 0.30872
 C1312 C 0.58158 0.50096 0.29227
 C1313 C 0.52625 0.51455 0.38930
 C1314 C 0.52008 0.51530 0.40830
 H1315 H 0.57405 0.50119 0.37901
 H1316 H 0.56072 0.46890 0.34617
 H1317 H 0.57986 0.53552 0.34546
 H1318 H 0.53280 0.54907 0.35041
 H1319 H 0.51361 0.48239 0.35112
 H1320 H 0.51955 0.51672 0.31731
 C1321 C 0.57012 0.49965 0.13509
 C1322 C 0.56288 0.51593 0.15394
 C1323 C 0.56596 0.49571 0.17061
 C1324 C 0.57335 0.47944 0.15206
 C1325 C 0.54455 0.49255 0.13181
 C1326 C 0.54763 0.47231 0.14847
 C1327 C 0.53716 0.50883 0.15036
 C1328 C 0.54039 0.48861 0.16739
 C1329 C 0.57788 0.49763 0.19226
 C1330 C 0.58709 0.49919 0.21031
 C1331 C 0.53390 0.49135 0.10953
 C1332 C 0.52711 0.49108 0.09047
 H1333 H 0.58229 0.50419 0.12158
 H1334 H 0.56933 0.53388 0.15633
 H1335 H 0.58838 0.46742 0.15291
 H1336 H 0.54118 0.45437 0.14605
 H1337 H 0.52214 0.52086 0.14950
 H1338 H 0.52827 0.48408 0.18094
 C1339 C 0.03682 1.00872 0.65083
 C1340 C 0.04011 0.98856 0.66792
 C1341 C 0.06559 0.99591 0.67130
 C1342 C 0.06244 1.01607 0.65457
 C1343 C 0.04450 0.99248 0.63236
 C1344 C 0.06998 0.99983 0.63581
 C1345 C 0.04765 0.97230 0.64908
 C1346 C 0.07327 0.97968 0.65283
 C1347 C 0.07733 0.99802 0.69301
 C1348 C 0.08643 0.99981 0.71110
 C1349 C 0.03402 0.99113 0.61002
 C1350 C 0.02734 0.99075 0.59093
 H1351 H 0.02168 1.02060 0.64985
 H1352 H 0.02793 0.98393 0.68139
 H1353 H 0.06869 1.03408 0.65697
 H1354 H 0.08220 1.00446 0.62237
 H1355 H 0.04140 0.95429 0.64665
 H1356 H 0.08842 0.96781 0.65380
 C1357 C -0.05223 0.54655 0.65140
 C1358 C -0.07662 0.53578 0.65487
 C1359 C -0.06662 0.52050 0.67382
 C1360 C -0.04239 0.53121 0.67073
 C1361 C -0.04662 0.52714 0.63515
 C1362 C -0.03665 0.51186 0.65411
 C1363 C -0.07086 0.51644 0.63831
 C1364 C -0.06101 0.50114 0.65753
 C1365 C -0.07772 0.51635 0.69536
 C1366 C -0.08638 0.51286 0.71325
 C1367 C -0.03642 0.52955 0.61299
 C1368 C -0.02953 0.52979 0.59415
 H1369 H -0.04846 0.56525 0.64872
 H1370 H -0.09320 0.54552 0.65534
 H1371 H -0.03077 0.53724 0.68432
 H1372 H -0.02007 0.50210 0.65365
 H1373 H -0.08253 0.51038 0.62476
 H1374 H -0.06476 0.48242 0.66018
 C1375 C 0.44830 0.04753 0.15221
 C1376 C 0.42380 0.03697 0.15557
 C1377 C 0.43362 0.02142 0.17440
 C1378 C 0.45797 0.03192 0.17142
 C1379 C 0.45372 0.02822 0.13580
 C1380 C 0.46352 0.01266 0.15464
 C1381 C 0.42938 0.01772 0.13884
 C1382 C 0.43906 0.00215 0.15795
 C1383 C 0.42247 0.01716 0.19589
 C1384 C 0.41378 0.01358 0.21375
 C1385 C 0.46398 0.03067 0.11367
 C1386 C 0.47091 0.03091 0.09484
 H1387 H 0.45225 0.06621 0.14969
 H1388 H 0.40731 0.04687 0.15611
 H1389 H 0.46964 0.03771 0.18508
 H1390 H 0.48000 0.00275 0.15411
 H1391 H 0.41766 0.01191 0.12523
 H1392 H 0.43511 -0.01654 0.16043
 C1393 C 0.36337 0.43420 -0.01583
 C1394 C 0.35950 0.40766 -0.01678
 C1395 C 0.33936 0.40997 -0.00051
 C1396 C 0.34292 0.43636 0.00042
 C1397 C 0.38010 0.43051 0.00406
 C1398 C 0.35999 0.43285 0.02036
 C1399 C 0.37651 0.40412 0.00312
 C1400 C 0.35607 0.40627 0.01939
 C1401 C 0.31689 0.39798 -0.00314
 C1402 C 0.29882 0.38740 -0.00502
 C1403 C 0.40300 0.44186 0.00573
 C1404 C 0.42185 0.45116 0.00583
 H1405 H 0.36656 0.44581 -0.03034
 H1406 H 0.35913 0.39725 -0.03211
 H1407 H 0.32892 0.44955 -0.00075
 H1408 H 0.36038 0.44327 0.03568
 H1409 H 0.39049 0.39092 0.00429
 H1410 H 0.35287 0.39465 0.03389
 C1411 C -0.12396 0.90435 0.50760
 C1412 C -0.14576 0.90971 0.52139
 C1413 C -0.16053 0.91002 0.49990
 C1414 C -0.13904 0.90449 0.48611
 C1415 C -0.11978 0.93052 0.50449
 C1416 C -0.13458 0.93081 0.48302
 C1417 C -0.14125 0.93608 0.51830
 C1418 C -0.15638 0.93619 0.49678
 C1419 C -0.18300 0.89803 0.49723
 C1420 C -0.20106 0.88745 0.49528
 C1421 C -0.09686 0.94182 0.50617
 C1422 C -0.07797 0.95105 0.50626
 H1423 H -0.11046 0.89132 0.51211
 H1424 H -0.15056 0.90092 0.53718
 H1425 H -0.13830 0.89144 0.47281
 H1426 H -0.12980 0.93959 0.46721
 H1427 H -0.14196 0.94914 0.53160
 H1428 H -0.16989 0.94920 0.49226
 C1429 C -0.14814 0.06790 0.97692
 C1430 C -0.16401 0.06581 0.99743
 C1431 C -0.16856 0.09204 0.99594
 C1432 C -0.15304 0.09432 0.97545
 C1433 C -0.12731 0.07273 0.99242
 C1434 C -0.13188 0.09896 0.99093
 C1435 C -0.14284 0.07046 1.01290
 C1436 C -0.14770 0.09684 1.01141
 C1437 C -0.19123 0.10350 0.99793
 C1438 C -0.20934 0.11395 0.99925
 C1439 C -0.10424 0.06190 0.99126
 C1440 C -0.08540 0.05267 0.99147
 H1441 H -0.14810 0.05594 0.96267
 H1442 H -0.17742 0.05227 1.00016
 H1443 H -0.15748 0.10424 0.96004
 H1444 H -0.11849 0.11252 0.98821
 H1445 H -0.13842 0.06056 1.02833
 H1446 H -0.14772 0.10879 1.02567
 C1447 C 0.36924 0.59973 0.49032
 C1448 C 0.34795 0.59496 0.47504
 C1449 C 0.33259 0.59296 0.49566
 C1450 C 0.35358 0.59789 0.51093
 C1451 C 0.37376 0.57351 0.49206
 C1452 C 0.35839 0.57152 0.51267
 C1453 C 0.35280 0.56854 0.47677
 C1454 C 0.33709 0.56673 0.49741
 C1455 C 0.30995 0.60447 0.49769
 C1456 C 0.29185 0.61492 0.49904
 C1457 C 0.39679 0.56258 0.49087
 C1458 C 0.41558 0.55325 0.49109
 H1459 H 0.38264 0.61322 0.48735
 H1460 H 0.34342 0.60470 0.45955
 H1461 H 0.35370 0.61002 0.52506
 H1462 H 0.36290 0.56179 0.52817
 H1463 H 0.35270 0.55641 0.46265
 H1464 H 0.32368 0.55325 0.50038
 C1465 C 0.12809 0.60110 0.49152
 C1466 C 0.13961 0.61813 0.50801
 C1467 C 0.16211 0.60383 0.50733
 C1468 C 0.15090 0.58696 0.49082
 C1469 C 0.12010 0.58599 0.51124
 C1470 C 0.14262 0.57173 0.51055
 C1471 C 0.13127 0.60286 0.52778
 C1472 C 0.15414 0.58873 0.52706
 C1473 C 0.18569 0.61342 0.50483
 C1474 C 0.20514 0.62104 0.50271
 C1475 C 0.09685 0.57535 0.51254
 C1476 C 0.07812 0.56581 0.51242
 H1477 H 0.11718 0.60615 0.47689
 H1478 H 0.13856 0.63733 0.50691
 H1479 H 0.15912 0.58047 0.47559
 H1480 H 0.14371 0.55253 0.51164
 H1481 H 0.12301 0.60933 0.54300
 H1482 H 0.16507 0.58368 0.54167
 C1483 C 0.64312 0.07255 0.01073
 C1484 C 0.65123 0.08798 -0.00893
 C1485 C 0.66261 0.10467 0.00764
 C1486 C 0.65480 0.08938 0.02730
 C1487 C 0.62062 0.08682 0.01173
 C1488 C 0.63195 0.10352 0.02834
 C1489 C 0.62845 0.10212 -0.00792
 C1490 C 0.64014 0.11898 0.00864
 C1491 C 0.68617 0.11427 0.00500
 C1492 C 0.70559 0.12190 0.00270
 C1493 C 0.59738 0.07617 0.01312
 C1494 C 0.57865 0.06662 0.01304
 H1495 H 0.64419 0.05335 0.01163
 H1496 H 0.65931 0.08163 -0.02429
 H1497 H 0.66585 0.08418 0.04178
 H1498 H 0.62384 0.10984 0.04370
 H1499 H 0.61742 0.10733 -0.02241
 H1500 H 0.63910 0.13819 0.00773
 C1501 C 0.64448 0.92358 0.47505
 C1502 C 0.66318 0.92634 0.49358
 C1503 C 0.66878 0.90036 0.49210
 C1504 C 0.65042 0.89744 0.47355
 C1505 C 0.62643 0.91773 0.49284
 C1506 C 0.63201 0.89174 0.49135
 C1507 C 0.64482 0.92062 0.51136
 C1508 C 0.65073 0.89451 0.50988
 C1509 C 0.69250 0.89080 0.49199
 C1510 C 0.71200 0.88302 0.49209
 C1511 C 0.60296 0.92779 0.49384
 C1512 C 0.58397 0.93650 0.49542
 H1513 H 0.64171 0.93561 0.46070
 H1514 H 0.67618 0.94051 0.49452
 H1515 H 0.65294 0.88781 0.45797
 H1516 H 0.61899 0.87758 0.49042
 H1517 H 0.64233 0.93025 0.52696
 H1518 H 0.65349 0.88248 0.52423
 C1519 C 0.14281 0.41607 1.01277
 C1520 C 0.14901 0.39084 1.00673
 C1521 C 0.16859 0.40014 0.99196
 C1522 C 0.16269 0.42524 0.99800
 C1523 C 0.12616 0.41734 0.99259
 C1524 C 0.14573 0.42664 0.97782
 C1525 C 0.13203 0.39224 0.98655
 C1526 C 0.15197 0.40139 0.97177
 C1527 C 0.19235 0.39068 0.99191
 C1528 C 0.21186 0.38294 0.99205
 C1529 C 0.10265 0.42730 0.99354
 C1530 C 0.08362 0.43594 0.99509
 H1531 H 0.13887 0.42218 1.02967
 H1532 H 0.15056 0.37604 1.01865
 H1533 H 0.17549 0.43875 1.00273
 H1534 H 0.14419 0.44145 0.96591
 H1535 H 0.11922 0.37873 0.98183
 H1536 H 0.15594 0.39527 0.95487
 C1537 C -0.00453 0.36990 0.43761
 C1538 C 0.01330 0.35072 0.44348
 C1539 C -0.00680 0.33349 0.44638
 C1540 C -0.02463 0.35240 0.44037
 C1541 C -0.00608 0.37542 0.46234
 C1542 C -0.02621 0.35826 0.46528
 C1543 C 0.01178 0.35656 0.46839
 C1544 C -0.00835 0.33889 0.47114
 C1545 C -0.00681 0.31120 0.43561
 C1546 C -0.00636 0.29408 0.42466
 C1547 C -0.00561 0.39911 0.47005
 C1548 C -0.00529 0.41888 0.47577
 H1549 H -0.00295 0.38292 0.42395
 H1550 H 0.02954 0.34727 0.43441
 H1551 H -0.03961 0.35034 0.42876
 H1552 H -0.04243 0.36177 0.47435
 H1553 H 0.02675 0.35869 0.47999
 H1554 H -0.00993 0.32579 0.48472
 C1555 C 0.49348 -0.13004 -0.06037
 C1556 C 0.51287 -0.14817 -0.05650
 C1557 C 0.49426 -0.16642 -0.05121
 C1558 C 0.47486 -0.14856 -0.05521
 C1559 C 0.49478 -0.12432 -0.03564
 C1560 C 0.47613 -0.14250 -0.03027
 C1561 C 0.51420 -0.14213 -0.03160
 C1562 C 0.49556 -0.16082 -0.02643
 C1563 C 0.49434 -0.18876 -0.06189
 C1564 C 0.49484 -0.20582 -0.07291
 C1565 C 0.49515 -0.10053 -0.02818
 C1566 C 0.49542 -0.08069 -0.02268
 H1567 H 0.49266 -0.11711 -0.07420
 H1568 H 0.52798 -0.15083 -0.06739
 H1569 H 0.45869 -0.15155 -0.06500
 H1570 H 0.46104 -0.13974 -0.01939
 H1571 H 0.53037 -0.13909 -0.02182
 H1572 H 0.49639 -0.17384 -0.01268
 C1573 C -0.01171 -0.15055 1.03849
 C1574 C 0.00872 -0.16790 1.03689
 C1575 C 0.00349 -0.17645 1.06049
 C1576 C -0.01691 -0.15955 1.06223
 C1577 C 0.00505 -0.13272 1.04853
 C1578 C -0.00016 -0.14135 1.07210
 C1579 C 0.02550 -0.14956 1.04677
 C1580 C 0.02025 -0.15857 1.07049
 C1581 C 0.00266 -0.19998 1.06911
 C1582 C 0.00223 -0.21825 1.07872
 C1583 C 0.00543 -0.10841 1.04221
 C1584 C 0.00508 -0.08848 1.03647
 H1585 H -0.02486 -0.14679 1.02526
 H1586 H 0.01229 -0.17918 1.02259
 H1587 H -0.03436 -0.16406 1.06859
 H1588 H -0.00373 -0.13013 1.08645
 H1589 H 0.04293 -0.14501 1.04041
 H1590 H 0.03341 -0.16227 1.08372
 C1591 C 0.48766 0.34977 0.53929
 C1592 C 0.50798 0.33226 0.53781
 C1593 C 0.50274 0.32397 0.56149
 C1594 C 0.48246 0.34102 0.56311
 C1595 C 0.50458 0.36758 0.54915
 C1596 C 0.49936 0.35920 0.57279
 C1597 C 0.52490 0.35057 0.54749
 C1598 C 0.51965 0.34183 0.57129
 C1599 C 0.50181 0.30050 0.57027
 C1600 C 0.50134 0.28227 0.57995
 C1601 C 0.50514 0.39183 0.54261
 C1602 C 0.50498 0.41171 0.53672
 H1603 H 0.47452 0.35349 0.52606
 H1604 H 0.51144 0.32081 0.52360
 H1605 H 0.46500 0.33670 0.56955
 H1606 H 0.49590 0.37060 0.58705
 H1607 H 0.54235 0.35494 0.54106
 H1608 H 0.53280 0.33816 0.58453
 C1609 C 0.46902 1.12802 0.56175
 C1610 C 0.46606 1.13655 0.58582
 C1611 C 0.48554 1.15420 0.58183
 C1612 C 0.48848 1.14610 0.55793
 C1613 C 0.48744 1.11072 0.57030
 C1614 C 0.50686 1.12845 0.56637
 C1615 C 0.48450 1.11875 0.59423
 C1616 C 0.50394 1.13688 0.59037
 C1617 C 0.48593 1.17843 0.58785
 C1618 C 0.48783 1.19832 0.59286
 C1619 C 0.48927 1.08708 0.56271
 C1620 C 0.49118 1.06821 0.55499
 H1621 H 0.45470 1.12397 0.54991
 H1622 H 0.44930 1.14032 0.59386
 H1623 H 0.49007 1.15766 0.54313
 H1624 H 0.52365 1.12477 0.55834
 H1625 H 0.48293 1.10713 0.60899
 H1626 H 0.51828 1.14091 0.60221
 C1627 C -0.03468 0.62540 1.06768
 C1628 C -0.02946 0.63453 1.09132
 C1629 C -0.01448 0.65374 1.08096
 C1630 C -0.01970 0.64505 1.05750
 C1631 C -0.01289 0.61018 1.06966
 C1632 C 0.00205 0.62946 1.05937
 C1633 C -0.00765 0.61882 1.09313
 C1634 C 0.00728 0.63846 1.08292
 C1635 C -0.01388 0.67799 1.08686
 C1636 C -0.01177 0.69789 1.09179
 C1637 C -0.01116 0.58650 1.06216
 C1638 C -0.00929 0.56760 1.05450
 H1639 H -0.05188 0.61959 1.06135
 H1640 H -0.04244 0.63707 1.10449
 H1641 H -0.02466 0.65617 1.04300
 H1642 H 0.01506 0.62703 1.04620
 H1643 H -0.00268 0.60768 1.10761
 H1644 H 0.02451 0.64422 1.08922
 C1645 C 0.53769 0.64273 -0.06656
 C1646 C 0.53024 0.65146 -0.09009
 C1647 C 0.51317 0.66823 -0.07940
 C1648 C 0.52058 0.65993 -0.05605
 C1649 C 0.51819 0.62462 -0.06752
 C1650 C 0.50115 0.64149 -0.05691
 C1651 C 0.51076 0.63287 -0.09088
 C1652 C 0.49370 0.65009 -0.08034
 C1653 C 0.50951 0.69249 -0.08530
 C1654 C 0.50588 0.71246 -0.08987
 C1655 C 0.51963 0.60077 -0.05948
 C1656 C 0.51940 0.58173 -0.05127
 H1657 H 0.55579 0.63932 -0.06085
 H1658 H 0.54213 0.65600 -0.10382
 H1659 H 0.52453 0.67137 -0.04184
 H1660 H 0.48921 0.63708 -0.04318
 H1661 H 0.50680 0.62140 -0.10507
 H1662 H 0.47558 0.65347 -0.08603
 C1663 C 0.00311 1.13998 0.44204
 C1664 C 0.02231 1.15855 0.44420
 C1665 C 0.01646 1.16693 0.42051
 C1666 C -0.00278 1.14867 0.41825
 C1667 C 0.02098 1.12329 0.43245
 C1668 C 0.01512 1.13162 0.40873
 C1669 C 0.04025 1.14152 0.43473
 C1670 C 0.03437 1.15035 0.41084
 C1671 C 0.01278 1.19117 0.41455
 C1672 C 0.00879 1.21106 0.40991
 C1673 C 0.02200 1.09943 0.44051
 C1674 C 0.02137 1.08041 0.44874
 H1675 H -0.00975 1.13542 0.45494
 H1676 H 0.02518 1.16992 0.45868
 H1677 H -0.02051 1.15195 0.41146
 H1678 H 0.01223 1.12021 0.39429
 H1679 H 0.05796 1.13819 0.44155
 H1680 H 0.04717 1.15504 0.39793
 C1681 C 0.75139 0.68921 0.88081
 C1682 C 0.77019 0.69685 0.89777
 C1683 C 0.75241 0.69415 0.91636
 C1684 C 0.73366 0.68638 0.89964
 C1685 C 0.74384 0.71464 0.87772
 C1686 C 0.72604 0.71193 0.89630
 C1687 C 0.76262 0.72247 0.89439
 C1688 C 0.74485 0.71959 0.91338
 C1689 C 0.75644 0.68154 0.93743
 C1690 C 0.75856 0.67021 0.95435
 C1691 C 0.73936 0.72436 0.85539
 C1692 C 0.73643 0.73034 0.83627
 H1693 H 0.75400 0.67675 0.86722
 H1694 H 0.78838 0.69053 0.89855
 H1695 H 0.72182 0.67136 0.90195
 H1696 H 0.70784 0.71823 0.89551
 H1697 H 0.77444 0.73749 0.89202
 H1698 H 0.74226 0.73197 0.92704
 C1699 C 0.25022 0.18915 0.38091
 C1700 C 0.26917 0.19673 0.39774
 C1701 C 0.25154 0.19405 0.41646
 C1702 C 0.23264 0.18634 0.39987
 C1703 C 0.24271 0.21460 0.37789
 C1704 C 0.22505 0.21191 0.39660
 C1705 C 0.26163 0.22237 0.39443
 C1706 C 0.24402 0.21951 0.41355
 C1707 C 0.25574 0.18142 0.43749
 C1708 C 0.25801 0.17007 0.45438
 C1709 C 0.23813 0.22436 0.35558
 C1710 C 0.23521 0.23037 0.33647
 H1711 H 0.25269 0.17669 0.36729
 H1712 H 0.28735 0.19036 0.39837
 H1713 H 0.22078 0.17135 0.40225
 H1714 H 0.20686 0.21826 0.39594
 H1715 H 0.27347 0.23736 0.39199
 H1716 H 0.24157 0.23189 0.42724
 C1717 C 0.74442 0.27589 0.40141
 C1718 C 0.76357 0.27933 0.41949
 C1719 C 0.75571 0.30464 0.42177
 C1720 C 0.73657 0.30137 0.40409
 C1721 C 0.76170 0.28390 0.38367
 C1722 C 0.75385 0.30921 0.38608
 C1723 C 0.78087 0.28717 0.40133
 C1724 C 0.77296 0.31261 0.40400
 C1725 C 0.75266 0.31736 0.44240
 C1726 C 0.75090 0.32879 0.45888
 C1727 C 0.76423 0.27408 0.36154
 C1728 C 0.76502 0.26805 0.34250
 H1729 H 0.73276 0.26062 0.40014
 H1730 H 0.76748 0.26717 0.43351
 H1731 H 0.71834 0.30735 0.40540
 H1732 H 0.74992 0.32145 0.37214
 H1733 H 0.79910 0.28120 0.39999
 H1734 H 0.78462 0.32788 0.40522
 C1735 C 0.28157 0.79164 0.89941
 C1736 C 0.27103 0.81606 0.90232
 C1737 C 0.25592 0.80646 0.92116
 C1738 C 0.26642 0.78216 0.91862
 C1739 C 0.26186 0.78597 0.88292
 C1740 C 0.24672 0.77632 0.90172
 C1741 C 0.25138 0.81027 0.88558
 C1742 C 0.23624 0.80081 0.90465
 C1743 C 0.25288 0.81904 0.94187
 C1744 C 0.25111 0.83033 0.95844
 C1745 C 0.26435 0.77625 0.86074
 C1746 C 0.26510 0.77024 0.84169
 H1747 H 0.30022 0.78774 0.89705
 H1748 H 0.28094 0.83257 0.90272
 H1749 H 0.27252 0.77073 0.93249
 H1750 H 0.23682 0.75982 0.90126
 H1751 H 0.24525 0.82179 0.87177
 H1752 H 0.21758 0.80472 0.90698
 C1753 C 0.22165 0.80113 0.10225
 C1754 C 0.23204 0.82563 0.09834
 C1755 C 0.24575 0.81634 0.07870
 C1756 C 0.23539 0.79198 0.08225
 C1757 C 0.24241 0.79505 0.11756
 C1758 C 0.25613 0.78575 0.09793
 C1759 C 0.25276 0.81941 0.11395
 C1760 C 0.26649 0.81026 0.09403
 C1761 C 0.24781 0.82819 0.05703
 C1762 C 0.24957 0.83735 0.03896
 C1763 C 0.24112 0.78443 0.13986
 C1764 C 0.24078 0.77764 0.15892
 H1765 H 0.20320 0.79720 0.10579
 H1766 H 0.22221 0.84217 0.09835
 H1767 H 0.22824 0.78082 0.06895
 H1768 H 0.26598 0.76922 0.09793
 H1769 H 0.25993 0.83061 0.12721
 H1770 H 0.28495 0.81419 0.09051
 C1771 C 0.75898 0.28717 0.59979
 C1772 C 0.73891 0.28996 0.58251
 C1773 C 0.74568 0.31558 0.57917
 C1774 C 0.76575 0.31293 0.59610
 C1775 C 0.74232 0.29444 0.61810
 C1776 C 0.74908 0.32006 0.61469
 C1777 C 0.72223 0.29709 0.60119
 C1778 C 0.72903 0.32286 0.59747
 C1779 C 0.74776 0.32733 0.55745
 C1780 C 0.74952 0.33639 0.53934
 C1781 C 0.74100 0.28390 0.64043
 C1782 C 0.74065 0.27716 0.65950
 H1783 H 0.77124 0.27235 0.60091
 H1784 H 0.73474 0.27769 0.56902
 H1785 H 0.78365 0.31961 0.59386
 H1786 H 0.75326 0.33238 0.62815
 H1787 H 0.70433 0.29041 0.60344
 H1788 H 0.71678 0.33768 0.59637
 C1789 C 0.29252 0.18380 0.60596
 C1790 C 0.27002 0.17117 0.59855
 C1791 C 0.27102 0.18391 0.57601
 C1792 C 0.29350 0.19642 0.58306
 C1793 C 0.27777 0.20379 0.61470
 C1794 C 0.27877 0.21657 0.59217
 C1795 C 0.25532 0.19127 0.60758
 C1796 C 0.25628 0.20389 0.58477
 C1797 C 0.26681 0.17286 0.55448
 C1798 C 0.26325 0.16423 0.53661
 C1799 C 0.28018 0.21395 0.63686
 C1800 C 0.28038 0.22080 0.65571
 H1801 H 0.30752 0.17567 0.61483
 H1802 H 0.26635 0.15242 0.60102
 H1803 H 0.30920 0.19839 0.57274
 H1804 H 0.28243 0.23533 0.58973
 H1805 H 0.23959 0.18926 0.61785
 H1806 H 0.24126 0.21202 0.57590
 C1807 C 0.79232 0.68267 0.10651
 C1808 C 0.76913 0.67175 0.09855
 C1809 C 0.77185 0.68404 0.07594
 C1810 C 0.79501 0.69484 0.08354
 C1811 C 0.77891 0.70390 0.11459
 C1812 C 0.78163 0.71624 0.09199
 C1813 C 0.75578 0.69308 0.10691
 C1814 C 0.75845 0.70525 0.08403
 C1815 C 0.76746 0.67299 0.05443
 C1816 C 0.76377 0.66437 0.03657
 C1817 C 0.78149 0.71405 0.13674
 C1818 C 0.78182 0.72089 0.15559
 H1819 H 0.80635 0.67352 0.11592
 H1820 H 0.76392 0.65337 0.10110
 H1821 H 0.81115 0.69541 0.07371
 H1822 H 0.78684 0.73461 0.08948
 H1823 H 0.73961 0.69247 0.11669
 H1824 H 0.74440 0.71441 0.07462
 C1825 C 0.18057 0.61559 0.26657
 C1826 C 0.15424 0.61106 0.26344
 C1827 C 0.15986 0.58960 0.24970
 C1828 C 0.18605 0.59381 0.25284
 C1829 C 0.18030 0.63035 0.24507
 C1830 C 0.18595 0.60891 0.23130
 C1831 C 0.15411 0.62611 0.24193
 C1832 C 0.15956 0.60434 0.22819
 C1833 C 0.14790 0.56713 0.25238
 C1834 C 0.13735 0.54906 0.25433
 C1835 C 0.19158 0.65327 0.24338
 C1836 C 0.20082 0.67213 0.24330
 H1837 H 0.18931 0.62040 0.28238
 H1838 H 0.14114 0.61179 0.27672
 H1839 H 0.19910 0.58036 0.25740
 H1840 H 0.19906 0.60821 0.21802
 H1841 H 0.14104 0.63956 0.23738
 H1842 H 0.15081 0.59951 0.21239
 C1843 C 0.65413 0.12552 0.74180
 C1844 C 0.66019 0.10354 0.72859
 C1845 C 0.65982 0.08916 0.75032
 C1846 C 0.65359 0.11083 0.76352
 C1847 C 0.68018 0.12995 0.74570
 C1848 C 0.67979 0.11555 0.76741
 C1849 C 0.68644 0.10831 0.73248
 C1850 C 0.68587 0.09358 0.75423
 C1851 C 0.64790 0.06667 0.75299
 C1852 C 0.63737 0.04860 0.75494
 C1853 C 0.69142 0.15289 0.74403
 C1854 C 0.70063 0.17176 0.74395
 H1855 H 0.64114 0.13882 0.73663
 H1856 H 0.65202 0.09839 0.71262
 H1857 H 0.64002 0.11170 0.77636
 H1858 H 0.68794 0.12068 0.78340
 H1859 H 0.70002 0.10746 0.71964
 H1860 H 0.69884 0.08027 0.75940
 C1861 C 0.84879 0.11734 0.26102
 C1862 C 0.84334 0.09582 0.27577
 C1863 C 0.84210 0.08088 0.25485
 C1864 C 0.84771 0.10208 0.24011
 C1865 C 0.82262 0.12199 0.25843
 C1866 C 0.82139 0.10703 0.23753
 C1867 C 0.81698 0.10081 0.27319
 C1868 C 0.81593 0.08550 0.25226
 C1869 C 0.85366 0.05828 0.25283
 C1870 C 0.86419 0.04024 0.25149
 C1871 C 0.81172 0.14501 0.25961
 C1872 C 0.80247 0.16382 0.25940
 H1873 H 0.86222 0.13060 0.26467
 H1874 H 0.85247 0.09097 0.29151
 H1875 H 0.86040 0.10241 0.22644
 H1876 H 0.81227 0.11186 0.22177
 H1877 H 0.80428 0.10050 0.28686
 H1878 H 0.80251 0.07223 0.24860
 C1879 C 0.32076 0.60872 0.73728
 C1880 C 0.34716 0.60380 0.73874
 C1881 C 0.34230 0.58293 0.75417
 C1882 C 0.31605 0.58753 0.75270
 C1883 C 0.32307 0.62415 0.75780
 C1884 C 0.31818 0.60331 0.77325
 C1885 C 0.34932 0.61953 0.75926
 C1886 C 0.34462 0.59835 0.77469
 C1887 C 0.35372 0.56027 0.75212
 C1888 C 0.36413 0.54217 0.75077
 C1889 C 0.31227 0.64721 0.75900
 C1890 C 0.30304 0.66603 0.75879
 H1891 H 0.31086 0.61321 0.72187
 H1892 H 0.35913 0.60380 0.72447
 H1893 H 0.30246 0.57419 0.74994
 H1894 H 0.30621 0.60333 0.78751
 H1895 H 0.36293 0.63286 0.76201
 H1896 H 0.35454 0.59384 0.79009
 C1897 C 0.36170 0.37626 0.73728
 C1898 C 0.35570 0.39737 0.72197
 C1899 C 0.35332 0.41251 0.74261
 C1900 C 0.35947 0.39177 0.75792
 C1901 C 0.33570 0.37047 0.73864
 C1902 C 0.33334 0.38566 0.75925
 C1903 C 0.32954 0.39120 0.72332
 C1904 C 0.32732 0.40668 0.74397
 C1905 C 0.36279 0.43610 0.74512
 C1906 C 0.37034 0.45555 0.74724
 C1907 C 0.32516 0.34720 0.73732
 C1908 C 0.31569 0.32845 0.73743
 H1909 H 0.37578 0.36355 0.73449
 H1910 H 0.36500 0.40240 0.70663
 H1911 H 0.37183 0.39219 0.77222
 H1912 H 0.32406 0.38067 0.77462
 H1913 H 0.31716 0.39079 0.70904
 H1914 H 0.31323 0.41936 0.74677
 C1915 C 0.83510 0.88997 0.22129
 C1916 C 0.82928 0.90710 0.23997
 C1917 C 0.85530 0.91236 0.24298
 C1918 C 0.86130 0.89558 0.22432
 C1919 C 0.83759 0.87039 0.23877
 C1920 C 0.86361 0.87562 0.24179
 C1921 C 0.83163 0.88722 0.25740
 C1922 C 0.85777 0.89277 0.26045
 C1923 C 0.86483 0.93591 0.24569
 C1924 C 0.87241 0.95532 0.24803
 C1925 C 0.82700 0.84715 0.23735
 C1926 C 0.81749 0.82842 0.23741
 H1927 H 0.82572 0.88864 0.20514
 H1928 H 0.81520 0.92022 0.23927
 H1929 H 0.87362 0.89923 0.21071
 H1930 H 0.87768 0.86248 0.24248
 H1931 H 0.81932 0.88362 0.27103
 H1932 H 0.86714 0.89409 0.27661
 C1933 C 0.64210 0.88190 0.76180
 C1934 C 0.65021 0.90131 0.77769
 C1935 C 0.65034 0.91855 0.75795
 C1936 C 0.64208 0.89950 0.74209
 C1937 C 0.66763 0.87621 0.75719
 C1938 C 0.66773 0.89347 0.73747
 C1939 C 0.67589 0.89525 0.77305
 C1940 C 0.67586 0.91283 0.75333
 C1941 C 0.64081 0.94226 0.75808
 C1942 C 0.63303 0.96174 0.75800
 C1943 C 0.67765 0.85275 0.75617
 C1944 C 0.68631 0.83375 0.75459
 H1945 H 0.62829 0.86898 0.76530
 H1946 H 0.64292 0.90474 0.79426
 H1947 H 0.62810 0.90144 0.72932
 H1948 H 0.67502 0.89007 0.72089
 H1949 H 0.68988 0.89331 0.78581
 H1950 H 0.68968 0.92573 0.74983
 C1951 C 0.17317 0.39592 0.24026
 C1952 C 0.14707 0.40213 0.23827
 C1953 C 0.15012 0.41894 0.25765
 C1954 C 0.17610 0.41304 0.25965
 C1955 C 0.16724 0.37652 0.25705
 C1956 C 0.17030 0.39331 0.27645
 C1957 C 0.14126 0.38241 0.25505
 C1958 C 0.14416 0.39957 0.27446
 C1959 C 0.14069 0.44269 0.25770
 C1960 C 0.13295 0.46219 0.25755
 C1961 C 0.17717 0.35302 0.25611
 C1962 C 0.18579 0.33399 0.25459
 H1963 H 0.18520 0.39425 0.22615
 H1964 H 0.13746 0.40595 0.22254
 H1965 H 0.19037 0.42582 0.26153
 H1966 H 0.17992 0.38949 0.29217
 H1967 H 0.12699 0.36962 0.25317
 H1968 H 0.13212 0.40127 0.28856
 C1969 C 0.10829 0.22319 0.78477
 C1970 C 0.10197 0.22707 0.80930
 C1971 C 0.08253 0.24357 0.80147
 C1972 C 0.08839 0.23971 0.77707
 C1973 C 0.12474 0.24409 0.78601
 C1974 C 0.10535 0.26062 0.77812
 C1975 C 0.11874 0.24793 0.81037
 C1976 C 0.09903 0.26443 0.80266
 C1977 C 0.06013 0.24368 0.81212
 C1978 C 0.04304 0.24425 0.82313
 C1979 C 0.14858 0.24451 0.77862
 C1980 C 0.16846 0.24484 0.77316
 H1981 H 0.11251 0.20625 0.77732
 H1982 H 0.10024 0.21326 0.82221
 H1983 H 0.07555 0.23634 0.76359
 H1984 H 0.10716 0.27442 0.76521
 H1985 H 0.13150 0.25131 0.82393
 H1986 H 0.09488 0.28138 0.81012
 C1987 C 0.62104 0.74472 0.31132
 C1988 C 0.60246 0.76340 0.30624
 C1989 C 0.58460 0.74409 0.30227
 C1990 C 0.60291 0.72540 0.30746
 C1991 C 0.62670 0.74437 0.28656
 C1992 C 0.60891 0.72501 0.28252
 C1993 C 0.60843 0.76308 0.28131
 C1994 C 0.59013 0.74373 0.27746
 C1995 C 0.56225 0.74431 0.31299
 C1996 C 0.54516 0.74492 0.32400
 C1997 C 0.65048 0.74465 0.27902
 C1998 C 0.67033 0.74489 0.27344
 H1999 H 0.63402 0.74515 0.32511
 H2000 H 0.59946 0.77919 0.31611
 H2001 H 0.60028 0.70991 0.31831
 H2002 H 0.61199 0.70924 0.27266
 H2003 H 0.61112 0.77856 0.27048
 H2004 H 0.57706 0.74330 0.26375
 C2005 C 0.60952 0.24993 0.17718
 C2006 C 0.59107 0.23335 0.18693
 C2007 C 0.57423 0.25383 0.18832
 C2008 C 0.59235 0.27042 0.17844
 C2009 C 0.61785 0.25525 0.20081
 C2010 C 0.60106 0.27576 0.20224
 C2011 C 0.59977 0.23865 0.21074
 C2012 C 0.58248 0.25916 0.21199
 C2013 C 0.55074 0.25304 0.17951
 C2014 C 0.53247 0.25259 0.16987
 C2015 C 0.64210 0.25551 0.20746
 C2016 C 0.66197 0.25507 0.21345
 H2017 H 0.62095 0.24621 0.16301
 H2018 H 0.58656 0.21591 0.18062
 H2019 H 0.58889 0.28349 0.16509
 H2020 H 0.60561 0.29319 0.20854
 H2021 H 0.60329 0.22559 0.22409
 H2022 H 0.57100 0.26287 0.22612
 C2023 C 0.10027 0.77516 0.70266
 C2024 C 0.09160 0.77050 0.67872
 C2025 C 0.07394 0.75311 0.68809
 C2026 C 0.08216 0.75774 0.71191
 C2027 C 0.11757 0.75516 0.70048
 C2028 C 0.09995 0.73775 0.70989
 C2029 C 0.10927 0.75054 0.67669
 C2030 C 0.09128 0.73314 0.68594
 C2031 C 0.05046 0.75204 0.67930
 C2032 C 0.03220 0.75146 0.66965
 C2033 C 0.14183 0.75581 0.70706
 C2034 C 0.16172 0.75567 0.71300
 H2035 H 0.10442 0.79244 0.70955
 H2036 H 0.08776 0.78397 0.66582
 H2037 H 0.07065 0.76062 0.72621
 H2038 H 0.10385 0.72430 0.72278
 H2039 H 0.12072 0.74765 0.66235
 H2040 H 0.08718 0.71585 0.67904
 C2041 C 0.86905 0.74209 0.65602
 C2042 C 0.88885 0.75694 0.66605
 C2043 C 0.90405 0.73514 0.66800
 C2044 C 0.88468 0.72024 0.65782
 C2045 C 0.86051 0.73700 0.67957
 C2046 C 0.87565 0.71516 0.68154
 C2047 C 0.87995 0.75186 0.68967
 C2048 C 0.89547 0.73006 0.69153
 C2049 C 0.92830 0.73557 0.66194
 C2050 C 0.94821 0.73754 0.65689
 C2051 C 0.83685 0.73884 0.68719
 C2052 C 0.81797 0.74077 0.69493
 H2053 H 0.85783 0.74706 0.64159
 H2054 H 0.89466 0.77410 0.65963
 H2055 H 0.88707 0.70721 0.64469
 H2056 H 0.86979 0.69803 0.68798
 H2057 H 0.87766 0.76491 0.70280
 H2058 H 0.90666 0.72511 0.70599
 C2059 C 0.37750 0.21852 0.18690
 C2060 C 0.38601 0.21848 0.16261
 C2061 C 0.40420 0.23679 0.16884
 C2062 C 0.39612 0.23682 0.19296
 C2063 C 0.36070 0.23826 0.18057
 C2064 C 0.37897 0.25653 0.18674
 C2065 C 0.36872 0.23824 0.15643
 C2066 C 0.38737 0.25651 0.16252
 C2067 C 0.42842 0.23734 0.16267
 C2068 C 0.44831 0.23929 0.15753
 C2069 C 0.33703 0.23986 0.18823
 C2070 C 0.31811 0.24160 0.19592
 H2071 H 0.37302 0.20294 0.19700
 H2072 H 0.38935 0.20284 0.15265
 H2073 H 0.40771 0.23621 0.20784
 H2074 H 0.37572 0.27219 0.19670
 H2075 H 0.35710 0.23887 0.14158
 H2076 H 0.39183 0.27211 0.15244
 C2077 C 0.39314 0.78589 0.31015
 C2078 C 0.40250 0.78566 0.33442
 C2079 C 0.41740 0.76448 0.32904
 C2080 C 0.40845 0.76470 0.30495
 C2081 C 0.37369 0.76929 0.31726
 C2082 C 0.38869 0.74816 0.31195
 C2083 C 0.38255 0.76907 0.34139
 C2084 C 0.39794 0.74789 0.33615
 C2085 C 0.44170 0.76089 0.33486
 C2086 C 0.46170 0.75725 0.33937
 C2087 C 0.34980 0.77059 0.30926
 C2088 C 0.33075 0.77023 0.30104
 H2089 H 0.39079 0.80155 0.29942
 H2090 H 0.40860 0.80101 0.34374
 H2091 H 0.41939 0.76284 0.29007
 H2092 H 0.38270 0.73275 0.30264
 H2093 H 0.37156 0.77092 0.35623
 H2094 H 0.40028 0.73221 0.34687
 C2095 C 0.89250 0.25965 0.80280
 C2096 C 0.90855 0.27940 0.81081
 C2097 C 0.91709 0.26348 0.82985
 C2098 C 0.90136 0.24371 0.82192
 C2099 C 0.87343 0.26854 0.81803
 C2100 C 0.88197 0.25262 0.83707
 C2101 C 0.88909 0.28838 0.82595
 C2102 C 0.89811 0.27239 0.84517
 C2103 C 0.94137 0.25975 0.83571
 C2104 C 0.96135 0.25601 0.84024
 C2105 C 0.84957 0.26999 0.80997
 C2106 C 0.83053 0.26972 0.80170
 H2107 H 0.88988 0.25444 0.78528
 H2108 H 0.91982 0.29030 0.80010
 H2109 H 0.90672 0.22535 0.82029
 H2110 H 0.87071 0.24170 0.84777
 H2111 H 0.88366 0.30673 0.82753
 H2112 H 0.90085 0.27757 0.86268
 C2113 C 0.55916 0.98686 0.64740
 C2114 C 0.55908 1.00874 0.66186
 C2115 C 0.55332 0.99347 0.68219
 C2116 C 0.55354 0.97160 0.66797
 C2117 C 0.53302 0.99014 0.64288
 C2118 C 0.52719 0.97482 0.66315
 C2119 C 0.53282 1.01202 0.65710
 C2120 C 0.52717 0.99678 0.67777
 C2121 C 0.56593 0.99628 0.70335
 C2122 C 0.57747 0.99982 0.71984
 C2123 C 0.52315 0.98857 0.62033
 C2124 C 0.51663 0.98732 0.60125
 H2125 H 0.57227 0.98281 0.63472
 H2126 H 0.57235 1.02271 0.66147
 H2127 H 0.56216 0.95499 0.67264
 H2128 H 0.51391 0.96086 0.66346
 H2129 H 0.52422 1.02864 0.65242
 H2130 H 0.51413 1.00085 0.69050
 C2131 C 0.05890 0.48624 1.14697
 C2132 C 0.05935 0.50840 1.16104
 C2133 C 0.05326 0.49366 1.18163
 C2134 C 0.05295 0.47151 1.16781
 C2135 C 0.03284 0.49004 1.14241
 C2136 C 0.02667 0.47525 1.16294
 C2137 C 0.03316 0.51220 1.15623
 C2138 C 0.02719 0.49749 1.17716
 C2139 C 0.06591 0.49661 1.20275
 C2140 C 0.07748 0.50022 1.21921
 C2141 C 0.02290 0.48831 1.11990
 C2142 C 0.01632 0.48693 1.10085
 H2143 H 0.07189 0.48164 1.13436
 H2144 H 0.07293 0.52206 1.16041
 H2145 H 0.06119 0.45479 1.17276
 H2146 H 0.01308 0.46161 1.16349
 H2147 H 0.02494 0.52892 1.15128
 H2148 H 0.01426 0.50211 1.18982
 C2149 C -0.03815 -0.03545 1.15029
 C2150 C -0.02993 -0.01956 1.16948
 C2151 C -0.05523 -0.01208 1.17285
 C2152 C -0.06362 -0.02791 1.15408
 C2153 C -0.03534 -0.01498 1.13390
 C2154 C -0.06062 -0.00752 1.13740
 C2155 C -0.02695 0.00085 1.15267
 C2156 C -0.05237 0.00830 1.15639
 C2157 C -0.06732 -0.00927 1.19391
 C2158 C -0.07815 -0.00590 1.21054
 C2159 C -0.02562 -0.01514 1.11152
 C2160 C -0.01920 -0.01366 1.09258
 H2161 H -0.03217 -0.05345 1.14756
 H2162 H -0.01743 -0.02449 1.18293
 H2163 H -0.07883 -0.03971 1.15485
 H2164 H -0.07320 -0.00257 1.12402
 H2165 H -0.01175 0.01267 1.15190
 H2166 H -0.05833 0.02633 1.15905
 C2167 C 0.46724 0.50700 0.64906
 C2168 C 0.44079 0.50614 0.65287
 C2169 C 0.44492 0.48938 0.67260
 C2170 C 0.47128 0.49024 0.66910
 C2171 C 0.46492 0.48603 0.63376
 C2172 C 0.46913 0.46919 0.65342
 C2173 C 0.43856 0.48518 0.63735
 C2174 C 0.44255 0.46839 0.65733
 C2175 C 0.43275 0.49241 0.69359
 C2176 C 0.42187 0.49589 0.71016
 C2177 C 0.47472 0.48562 0.61142
 C2178 C 0.48119 0.48692 0.59249
 H2179 H 0.47751 0.52288 0.64547
 H2180 H 0.42902 0.52138 0.65279
 H2181 H 0.48462 0.49236 0.68240
 H2182 H 0.48091 0.45398 0.65340
 H2183 H 0.42517 0.48308 0.62410
 H2184 H 0.43226 0.45253 0.66095
 C2185 C 0.48290 0.48248 -0.15744
 C2186 C 0.45678 0.47633 -0.16007
 C2187 C 0.45395 0.49636 -0.17697
 C2188 C 0.47984 0.50257 -0.17475
 C2189 C 0.47681 0.49939 -0.13892
 C2190 C 0.47396 0.51943 -0.15581
 C2191 C 0.45092 0.49320 -0.14128
 C2192 C 0.44795 0.51321 -0.15838
 C2193 C 0.43959 0.49572 -0.19728
 C2194 C 0.42640 0.49677 -0.21301
 C2195 C 0.48755 0.50085 -0.11674
 C2196 C 0.49411 0.50129 -0.09764
 H2197 H 0.49746 0.46990 -0.15683
 H2198 H 0.44960 0.45860 -0.16199
 H2199 H 0.49160 0.50634 -0.18877
 H2200 H 0.48112 0.53717 -0.15387
 H2201 H 0.43906 0.48943 -0.12733
 H2202 H 0.43339 0.52582 -0.15889
 C2203 C -0.04813 0.99128 0.35900
 C2204 C -0.05152 1.01141 0.34211
 C2205 C -0.04526 0.99490 0.32333
 C2206 C -0.04201 0.97473 0.34002
 C2207 C -0.02236 0.99791 0.36137
 C2208 C -0.01601 0.98134 0.34266
 C2209 C -0.02562 1.01809 0.34469
 C2210 C -0.01948 1.00156 0.32556
 C2211 C -0.05965 0.99426 0.30303
 C2212 C -0.07288 0.99530 0.28734
 C2213 C -0.01161 0.99939 0.38355
 C2214 C -0.00506 0.99987 0.40265
 H2215 H -0.05989 0.98712 0.37294
 H2216 H -0.06630 1.02375 0.34176
 H2217 H -0.04887 0.95690 0.33794
 H2218 H -0.00121 0.96903 0.34311
 H2219 H -0.01879 1.03593 0.34679
 H2220 H -0.00782 1.00571 0.31155
 C2221 C 0.06316 0.49080 0.37054
 C2222 C 0.05993 0.47386 0.35104
 C2223 C 0.05764 0.49474 0.33498
 C2224 C 0.06102 0.51165 0.35423
 C2225 C 0.03669 0.49121 0.37354
 C2226 C 0.03445 0.51207 0.35743
 C2227 C 0.03323 0.47422 0.35435
 C2228 C 0.03117 0.49516 0.33789
 C2229 C 0.07014 0.49788 0.31400
 C2230 C 0.08108 0.50145 0.29733
 C2231 C 0.02614 0.49079 0.39564
 C2232 C 0.01888 0.49226 0.41429
 H2233 H 0.07627 0.48899 0.38414
 H2234 H 0.07054 0.45816 0.34823
 H2235 H 0.07254 0.52709 0.35406
 H2236 H 0.02387 0.52780 0.36021
 H2237 H 0.02169 0.45881 0.35461
 H2238 H 0.01811 0.49700 0.32425
 C2239 C 0.56373 -0.00938 -0.12864
 C2240 C 0.56039 -0.02644 -0.14803
 C2241 C 0.55802 -0.00564 -0.16420
 C2242 C 0.56151 0.01138 -0.14506
 C2243 C 0.53728 -0.00895 -0.12552
 C2244 C 0.53496 0.01181 -0.14172
 C2245 C 0.53372 -0.02605 -0.14460
 C2246 C 0.53157 -0.00520 -0.16116
 C2247 C 0.57041 -0.00261 -0.18525
 C2248 C 0.58127 0.00092 -0.20198
 C2249 C 0.52682 -0.00923 -0.10337
 C2250 C 0.51960 -0.00764 -0.08472
 H2251 H 0.57691 -0.01112 -0.11509
 H2252 H 0.57098 -0.04216 -0.15081
 H2253 H 0.57303 0.02681 -0.14536
 H2254 H 0.52440 0.02757 -0.13898
 H2255 H 0.52217 -0.04146 -0.14420
 H2256 H 0.51844 -0.00344 -0.17474
 C2257 C 0.64389 0.58482 -0.01411
 C2258 C 0.65816 0.58659 0.00777
 C2259 C 0.68051 0.58259 -0.00522
 C2260 C 0.66650 0.58100 -0.02709
 C2261 C 0.64193 0.55847 -0.01041
 C2262 C 0.66426 0.55444 -0.02342
 C2263 C 0.65592 0.56005 0.01147
 C2264 C 0.67862 0.55623 -0.00151
 C2265 C 0.70154 0.59698 -0.00321
 C2266 C 0.71815 0.60980 -0.00315
 C2267 C 0.61992 0.54567 -0.01268
 C2268 C 0.60142 0.53576 -0.01324
 H2269 H 0.62946 0.59649 -0.01939
 H2270 H 0.65582 0.59988 0.02067
 H2271 H 0.67105 0.58977 -0.04297
 H2272 H 0.66658 0.54115 -0.03633
 H2273 H 0.65136 0.55128 0.02735
 H2274 H 0.69308 0.54461 0.00377
 C2275 C 0.14404 1.08355 0.48768
 C2276 C 0.15925 1.08417 0.50905
 C2277 C 0.18103 1.08150 0.49491
 C2278 C 0.16607 1.08106 0.47354
 C2279 C 0.14268 1.05699 0.48984
 C2280 C 0.16444 1.05430 0.47568
 C2281 C 0.15762 1.05741 0.51122
 C2282 C 0.17975 1.05495 0.49708
 C2283 C 0.20189 1.09613 0.49686
 C2284 C 0.21834 1.10915 0.49688
 C2285 C 0.12077 1.04403 0.48763
 C2286 C 0.10230 1.03406 0.48711
 H2287 H 0.12920 1.09523 0.48370
 H2288 H 0.15728 1.09651 0.52284
 H2289 H 0.16973 1.09095 0.45804
 H2290 H 0.16638 1.04196 0.46189
 H2291 H 0.15394 1.04752 0.52672
 H2292 H 0.19462 1.04331 0.50105
 C2293 C 0.14548 -0.06436 0.99108
 C2294 C 0.16757 -0.06032 1.00548
 C2295 C 0.17003 -0.08669 1.00880
 C2296 C 0.14822 -0.09087 0.99438
 C2297 C 0.13068 -0.06363 1.01209
 C2298 C 0.13316 -0.09001 1.01541
 C2299 C 0.15246 -0.05940 1.02655
 C2300 C 0.15528 -0.08601 1.02985
 C2301 C 0.19162 -0.10000 1.00600
 C2302 C 0.20883 -0.11140 1.00275
 C2303 C 0.10845 -0.05101 1.01284
 C2304 C 0.09002 -0.04092 1.01224
 H2305 H 0.14129 -0.05536 0.97510
 H2306 H 0.18190 -0.04819 1.00136
 H2307 H 0.14660 -0.10391 0.98109
 H2308 H 0.11884 -0.10215 1.01951
 H2309 H 0.15402 -0.04634 1.03983
 H2310 H 0.15950 -0.09504 1.04580
 C2311 C 0.64995 0.43444 0.53039
 C2312 C 0.65186 0.40789 0.52695
 C2313 C 0.67007 0.41232 0.50896
 C2314 C 0.66853 0.43864 0.51236
 C2315 C 0.63087 0.43562 0.51228
 C2316 C 0.64911 0.44002 0.49430
 C2317 C 0.63246 0.40931 0.50888
 C2318 C 0.65095 0.41356 0.49090
 C2319 C 0.69159 0.39890 0.50615
 C2320 C 0.70874 0.38741 0.50291
 C2321 C 0.60872 0.44838 0.51303
 C2322 C 0.59036 0.45860 0.51241
 H2323 H 0.64935 0.44313 0.54667
 H2324 H 0.65317 0.39454 0.54038
 H2325 H 0.68355 0.45062 0.51376
 H2326 H 0.64783 0.45334 0.48085
 H2327 H 0.61746 0.39730 0.50745
 H2328 H 0.65149 0.40489 0.47460
 C2329 C -0.15474 0.44469 0.48028
 C2330 C -0.15698 0.41803 0.47833
 C2331 C -0.17210 0.41747 0.49918
 C2332 C -0.17019 0.44394 0.50115
 C2333 C -0.13313 0.44117 0.49521
 C2334 C -0.14823 0.44063 0.51607
 C2335 C -0.13508 0.41470 0.49324
 C2336 C -0.15047 0.41396 0.51409
 C2337 C -0.19342 0.40342 0.50050
 C2338 C -0.21025 0.39088 0.50006
 C2339 C -0.11115 0.45410 0.49353
 C2340 C -0.09297 0.46462 0.49332
 H2341 H -0.15630 0.45738 0.46631
 H2342 H -0.16077 0.40859 0.46277
 H2343 H -0.18481 0.45585 0.50450
 H2344 H -0.14442 0.45007 0.53162
 H2345 H -0.12049 0.40276 0.48989
 H2346 H -0.14889 0.40127 0.52806
 C2347 C 0.34592 -0.05455 -0.01919
 C2348 C 0.34360 -0.08121 -0.02106
 C2349 C 0.32827 -0.08161 -0.00035
 C2350 C 0.33025 -0.05514 0.00153
 C2351 C 0.36737 -0.05809 -0.00405
 C2352 C 0.35206 -0.05847 0.01667
 C2353 C 0.36534 -0.08456 -0.00593
 C2354 C 0.34973 -0.08514 0.01477
 C2355 C 0.30686 -0.09555 0.00080
 C2356 C 0.28997 -0.10800 0.00020
 C2357 C 0.38942 -0.04524 -0.00561
 C2358 C 0.40762 -0.03477 -0.00577
 H2359 H 0.34455 -0.04191 -0.03323
 H2360 H 0.33993 -0.09070 -0.03660
 H2361 H 0.31566 -0.04316 0.00470
 H2362 H 0.35575 -0.04897 0.03221
 H2363 H 0.37991 -0.09657 -0.00910
 H2364 H 0.35112 -0.09778 0.02881
 C2365 C 0.35639 1.05523 0.49511
 C2366 C 0.33378 1.05425 0.50866
 C2367 C 0.33406 1.08086 0.50983
 C2368 C 0.35641 1.08200 0.49624
 C2369 C 0.37065 1.05411 0.51689
 C2370 C 0.37091 1.08072 0.51805
 C2371 C 0.34833 1.05290 0.53053
 C2372 C 0.34827 1.07979 0.53164
 C2373 C 0.31404 1.09611 0.50509
 C2374 C 0.29797 1.10892 0.50063
 C2375 C 0.39158 1.03959 0.51939
 C2376 C 0.40924 1.02825 0.51967
 H2377 H 0.35988 1.04500 0.48007
 H2378 H 0.31832 1.04348 0.50472
 H2379 H 0.35961 1.09406 0.48208
 H2380 H 0.38635 1.09152 0.52198
 H2381 H 0.34520 1.04082 0.54468
 H2382 H 0.34475 1.09006 0.54664
 C2383 C -0.15483 0.54469 1.01425
 C2384 C -0.16288 0.56408 1.02996
 C2385 C -0.16622 0.58041 1.00974
 C2386 C -0.15849 0.56126 0.99402
 C2387 C -0.12973 0.55349 1.01666
 C2388 C -0.13316 0.56985 0.99647
 C2389 C -0.13742 0.57264 1.03241
 C2390 C -0.14111 0.58918 1.01214
 C2391 C -0.18618 0.59576 1.00506
 C2392 C -0.20217 0.60868 1.00063
 C2393 C -0.10883 0.53891 1.01909
 C2394 C -0.09120 0.52755 1.01932
 H2395 H -0.16031 0.52625 1.01518
 H2396 H -0.17533 0.56185 1.04372
 H2397 H -0.16729 0.55670 0.97816
 H2398 H -0.12076 0.57214 0.98268
 H2399 H -0.12858 0.57719 1.04825
 H2400 H -0.13560 0.60761 1.01120
 C2401 C -0.02750 0.66061 0.56054
 C2402 C -0.01234 0.66405 0.58158
 C2403 C -0.00533 0.68809 0.57268
 C2404 C -0.02051 0.68502 0.55179
 C2405 C -0.00635 0.65039 0.54903
 C2406 C 0.00069 0.67436 0.53998
 C2407 C 0.00878 0.65360 0.56993
 C2408 C 0.01583 0.67788 0.56117
 C2409 C -0.00452 0.70752 0.58767
 C2410 C -0.00358 0.72200 0.60166
 C2411 C -0.00669 0.62830 0.53784
 C2412 C -0.00683 0.60916 0.53042
 H2413 H -0.04529 0.65320 0.56011
 H2414 H -0.01768 0.66004 0.59885
 H2415 H -0.03250 0.69827 0.54458
 H2416 H 0.00602 0.67821 0.52269
 H2417 H 0.02079 0.64042 0.57725
 H2418 H 0.03362 0.68529 0.56164
 C2419 C 0.51480 0.16720 0.05183
 C2420 C 0.49859 0.18845 0.04817
 C2421 C 0.49443 0.18877 0.07325
 C2422 C 0.51063 0.16794 0.07708
 C2423 C 0.49367 0.15118 0.04945
 C2424 C 0.48953 0.15168 0.07454
 C2425 C 0.47741 0.17195 0.04552
 C2426 C 0.47332 0.17273 0.07086
 C2427 C 0.49522 0.20817 0.08828
 C2428 C 0.49621 0.22267 0.10226
 C2429 C 0.49344 0.12911 0.03821
 C2430 C 0.49342 0.10998 0.03079
 H2431 H 0.53181 0.16460 0.04383
 H2432 H 0.50230 0.20390 0.03759
 H2433 H 0.52427 0.16654 0.09024
 H2434 H 0.48582 0.13632 0.08524
 H2435 H 0.46379 0.17323 0.03234
 H2436 H 0.45631 0.17529 0.07887
 C2437 C 0.01645 0.15413 0.94026
 C2438 C 0.01568 0.15307 0.91465
 C2439 C -0.00238 0.17261 0.91414
 C2440 C -0.00163 0.17403 0.93955
 C2441 C -0.00352 0.13653 0.94106
 C2442 C -0.02165 0.15602 0.94062
 C2443 C -0.00427 0.13523 0.91563
 C2444 C -0.02235 0.15502 0.91492
 C2445 C -0.00087 0.19186 0.89837
 C2446 C 0.00128 0.20711 0.88482
 C2447 C -0.00353 0.11551 0.95469
 C2448 C -0.00305 0.09724 0.96443
 H2449 H 0.03235 0.15348 0.95088
 H2450 H 0.03101 0.15209 0.90375
 H2451 H -0.00055 0.19030 0.94911
 H2452 H -0.03696 0.15692 0.95155
 H2453 H -0.00535 0.11901 0.90598
 H2454 H -0.03825 0.15566 0.90429
 C2455 C 0.47761 0.65373 0.43739
 C2456 C 0.49515 0.67408 0.43925
 C2457 C 0.49900 0.67283 0.41414
 C2458 C 0.48150 0.65290 0.41203
 C2459 C 0.49777 0.63663 0.44091
 C2460 C 0.50161 0.63550 0.41579
 C2461 C 0.51528 0.65655 0.44304
 C2462 C 0.51911 0.65569 0.41771
 C2463 C 0.50057 0.69218 0.39850
 C2464 C 0.50280 0.70753 0.38507
 C2465 C 0.49772 0.61556 0.45446
 C2466 C 0.49815 0.59728 0.46418
 H2467 H 0.46058 0.65261 0.44573
 H2468 H 0.49249 0.69026 0.44862
 H2469 H 0.46767 0.65167 0.39908
 H2470 H 0.50428 0.61938 0.40633
 H2471 H 0.52912 0.65776 0.45598
 H2472 H 0.53615 0.65673 0.40940
 C2473 C 0.50276 0.85777 0.41307
 C2474 C 0.52469 0.84254 0.41113
 C2475 C 0.50946 0.82090 0.41401
 C2476 C 0.48756 0.83583 0.41574
 C2477 C 0.50648 0.85796 0.43832
 C2478 C 0.49123 0.83632 0.44123
 C2479 C 0.52840 0.84304 0.43661
 C2480 C 0.51319 0.82101 0.43927
 C2481 C 0.51098 0.80088 0.39981
 C2482 C 0.51209 0.78493 0.38738
 C2483 C 0.50471 0.87894 0.45119
 C2484 C 0.50317 0.89658 0.46129
 H2485 H 0.49846 0.87316 0.40250
 H2486 H 0.53844 0.84479 0.39857
 H2487 H 0.47082 0.83255 0.40697
 H2488 H 0.47748 0.83411 0.45380
 H2489 H 0.54513 0.84634 0.44538
 H2490 H 0.51749 0.80559 0.44979
 C2491 C 0.00151 0.35716 0.91268
 C2492 C 0.02336 0.34189 0.91041
 C2493 C 0.00812 0.32027 0.91345
 C2494 C -0.01371 0.33524 0.91551
 C2495 C 0.00560 0.35728 0.93789
 C2496 C -0.00965 0.33567 0.94095
 C2497 C 0.02745 0.34232 0.93585
 C2498 C 0.01223 0.32032 0.93866
 C2499 C 0.00941 0.30028 0.89917
 C2500 C 0.01036 0.28438 0.88669
 C2501 C 0.00406 0.37824 0.95082
 C2502 C 0.00264 0.39586 0.96095
 H2503 H -0.00291 0.37258 0.90220
 H2504 H 0.03693 0.34414 0.89767
 H2505 H -0.03058 0.33202 0.90695
 H2506 H -0.02322 0.33346 0.95370
 H2507 H 0.04431 0.34556 0.94440
 H2508 H 0.01665 0.30486 0.94909
 C2509 C 0.49223 0.36908 0.08987
 C2510 C 0.46952 0.35489 0.09178
 C2511 C 0.48379 0.33257 0.09025
 C2512 C 0.50644 0.34649 0.08855
 C2513 C 0.48943 0.36903 0.06451
 C2514 C 0.50369 0.34671 0.06301
 C2515 C 0.46672 0.35521 0.06613
 C2516 C 0.48098 0.33246 0.06489
 C2517 C 0.48260 0.31255 0.10503
 C2518 C 0.48380 0.29619 0.11742
 C2519 C 0.49346 0.38970 0.05111
 C2520 C 0.49715 0.40730 0.04100
 H2521 H 0.49696 0.38439 0.09991
 H2522 H 0.45546 0.35791 0.10379
 H2523 H 0.52272 0.34265 0.09799
 H2524 H 0.51777 0.34367 0.05102
 H2525 H 0.45050 0.35914 0.05664
 H2526 H 0.47626 0.31710 0.05491
 C2527 C -0.00425 0.84396 0.55912
 C2528 C 0.00658 0.84065 0.58257
 C2529 C -0.01699 0.83197 0.59093
 C2530 C -0.02789 0.83493 0.56768
 C2531 C -0.01131 0.86859 0.56540
 C2532 C -0.03493 0.86001 0.57370
 C2533 C -0.00045 0.86554 0.58865
 C2534 C -0.02404 0.85661 0.59720
 C2535 C -0.01813 0.81180 0.60552
 C2536 C -0.01684 0.79529 0.61772
 C2537 C -0.00719 0.88928 0.55206
 C2538 C -0.00334 0.90683 0.54192
 H2539 H 0.00396 0.83911 0.54331
 H2540 H 0.02360 0.83241 0.58644
 H2541 H -0.03925 0.82205 0.55936
 H2542 H -0.05190 0.86832 0.56977
 H2543 H 0.01093 0.87836 0.59704
 H2544 H -0.03223 0.86147 0.61302
 C2545 C 0.22166 0.28230 0.08909
 C2546 C 0.22475 0.30872 0.08491
 C2547 C 0.24382 0.30355 0.06814
 C2548 C 0.24081 0.27730 0.07192
 C2549 C 0.24044 0.28327 0.10746
 C2550 C 0.25952 0.27808 0.09071
 C2551 C 0.24346 0.30949 0.10356
 C2552 C 0.26254 0.30446 0.08656
 C2553 C 0.24662 0.31611 0.04696
 C2554 C 0.25013 0.32762 0.03044
 C2555 C 0.23881 0.27341 0.13001
 C2556 C 0.23747 0.26688 0.14908
 H2557 H 0.20482 0.27305 0.09035
 H2558 H 0.21046 0.32141 0.08235
 H2559 H 0.23970 0.26419 0.05867
 H2560 H 0.27382 0.26540 0.09330
 H2561 H 0.24458 0.32268 0.11676
 H2562 H 0.27940 0.31371 0.08536
 C2563 C 0.73498 0.80867 0.60238
 C2564 C 0.75747 0.81025 0.58880
 C2565 C 0.74359 0.80331 0.56794
 C2566 C 0.72110 0.80187 0.58128
 C2567 C 0.74008 0.78290 0.60719
 C2568 C 0.72613 0.77588 0.58639
 C2569 C 0.76256 0.78436 0.59384
 C2570 C 0.74871 0.77753 0.57266
 C2571 C 0.74649 0.81597 0.54682
 C2572 C 0.75007 0.82754 0.53036
 C2573 C 0.73840 0.77297 0.62971
 C2574 C 0.73708 0.76641 0.64878
 H2575 H 0.72936 0.82143 0.61481
 H2576 H 0.77038 0.82452 0.58964
 H2577 H 0.70407 0.80918 0.57592
 H2578 H 0.71324 0.76159 0.58564
 H2579 H 0.77960 0.77708 0.59920
 H2580 H 0.75434 0.76483 0.56019
 C2581 C 0.24466 0.69079 0.61265
 C2582 C 0.22414 0.68670 0.59635
 C2583 C 0.23924 0.69567 0.57724
 C2584 C 0.25977 0.69962 0.59333
 C2585 C 0.23606 0.71568 0.61609
 C2586 C 0.25117 0.72466 0.59699
 C2587 C 0.21546 0.71177 0.60007
 C2588 C 0.23062 0.72058 0.58055
 C2589 C 0.24217 0.68352 0.55624
 C2590 C 0.24559 0.67264 0.53966
 C2591 C 0.23573 0.72547 0.63843
 C2592 C 0.23706 0.73192 0.65736
 H2593 H 0.25044 0.67857 0.62604
 H2594 H 0.21305 0.67096 0.59591
 H2595 H 0.27803 0.69451 0.59041
 H2596 H 0.26228 0.74039 0.59744
 H2597 H 0.19722 0.71690 0.60307
 H2598 H 0.22487 0.73271 0.56709
 C2599 C 0.71526 0.21228 0.10008
 C2600 C 0.73166 0.21999 0.08108
 C2601 C 0.73835 0.19450 0.07775
 C2602 C 0.72200 0.18662 0.09633
 C2603 C 0.73564 0.21439 0.11670
 C2604 C 0.74231 0.18890 0.11324
 C2605 C 0.75199 0.22226 0.09811
 C2606 C 0.75864 0.19665 0.09443
 C2607 C 0.74106 0.18239 0.05669
 C2608 C 0.74438 0.17154 0.04008
 C2609 C 0.73555 0.22409 0.13908
 C2610 C 0.73704 0.23048 0.15802
 H2611 H 0.69741 0.21885 0.10263
 H2612 H 0.72731 0.23266 0.06761
 H2613 H 0.70970 0.17183 0.09541
 H2614 H 0.74669 0.17616 0.12665
 H2615 H 0.76431 0.23703 0.09904
 H2616 H 0.77652 0.19010 0.09197
 C2617 C 0.76817 0.22345 0.90561
 C2618 C 0.75171 0.22970 0.92479
 C2619 C 0.74494 0.20399 0.92712
 C2620 C 0.76138 0.19762 0.90829
 C2621 C 0.74792 0.22676 0.88900
 C2622 C 0.74117 0.20105 0.89147
 C2623 C 0.73143 0.23322 0.90776
 C2624 C 0.72471 0.20728 0.91050
 C2625 C 0.74434 0.18969 0.94748
 C2626 C 0.74542 0.17654 0.96324
 C2627 C 0.74938 0.23747 0.86679
 C2628 C 0.74985 0.24403 0.84769
 H2629 H 0.78605 0.23020 0.90342
 H2630 H 0.75597 0.24136 0.93875
 H2631 H 0.77367 0.18280 0.90863
 H2632 H 0.73691 0.18929 0.87758
 H2633 H 0.71916 0.24805 0.90732
 H2634 H 0.70683 0.20051 0.91267
 C2635 C 0.23095 0.73262 0.40665
 C2636 C 0.22567 0.70635 0.40937
 C2637 C 0.24555 0.70430 0.42654
 C2638 C 0.25089 0.73035 0.42422
 C2639 C 0.24836 0.72704 0.38839
 C2640 C 0.26826 0.72498 0.40554
 C2641 C 0.24304 0.70099 0.39084
 C2642 C 0.26291 0.69881 0.40821
 C2643 C 0.24504 0.69005 0.44693
 C2644 C 0.24620 0.67696 0.46273
 C2645 C 0.24973 0.73774 0.36617
 C2646 C 0.25015 0.74431 0.34707
 H2647 H 0.21786 0.74672 0.40579
 H2648 H 0.20814 0.69858 0.41111
 H2649 H 0.25404 0.74230 0.43821
 H2650 H 0.28580 0.73273 0.40378
 H2651 H 0.23988 0.68895 0.37692
 H2652 H 0.27603 0.68472 0.40897
 C2653 C 0.75767 0.77894 0.39545
 C2654 C 0.76541 0.80436 0.39876
 C2655 C 0.74505 0.80785 0.41456
 C2656 C 0.73728 0.78255 0.41157
 C2657 C 0.74190 0.78694 0.37599
 C2658 C 0.72146 0.79038 0.39171
 C2659 C 0.74966 0.81223 0.37909
 C2660 C 0.72929 0.81586 0.39511
 C2661 C 0.74799 0.82031 0.43556
 C2662 C 0.75144 0.83124 0.45225
 C2663 C 0.74171 0.77642 0.35388
 C2664 C 0.74335 0.76918 0.33524
 H2665 H 0.76934 0.76364 0.39543
 H2666 H 0.78354 0.81021 0.40178
 H2667 H 0.73221 0.77044 0.42515
 H2668 H 0.70336 0.78451 0.38862
 H2669 H 0.75476 0.82440 0.36557
 H2670 H 0.71764 0.83117 0.39513
 C2671 C 0.22043 0.28990 0.89223
 C2672 C 0.23686 0.28236 0.91172
 C2673 C 0.24418 0.30780 0.91461
 C2674 C 0.22780 0.31552 0.89552
 C2675 C 0.24055 0.28693 0.87605
 C2676 C 0.24786 0.31236 0.87904
 C2677 C 0.25693 0.27922 0.89515
 C2678 C 0.26423 0.30478 0.89835
 C2679 C 0.24738 0.32024 0.93558
 C2680 C 0.25102 0.33115 0.95225
 C2681 C 0.24012 0.27642 0.85393
 C2682 C 0.24162 0.26920 0.83528
 H2683 H 0.20239 0.28365 0.88952
 H2684 H 0.23237 0.27011 0.92539
 H2685 H 0.21585 0.33059 0.89583
 H2686 H 0.25238 0.32467 0.86543
 H2687 H 0.26890 0.26417 0.89484
 H2688 H 0.28228 0.31100 0.90099
 C2689 C 0.83377 0.39353 0.76295
 C2690 C 0.83443 0.40854 0.74145
 C2691 C 0.83141 0.43040 0.75537
 C2692 C 0.83093 0.41564 0.77686
 C2693 C 0.80721 0.39190 0.76061
 C2694 C 0.80417 0.41373 0.77455
 C2695 C 0.80767 0.40664 0.73910
 C2696 C 0.80486 0.42884 0.75302
 C2697 C 0.84586 0.45137 0.75333
 C2698 C 0.85875 0.46792 0.75323
 C2699 C 0.79438 0.36992 0.76289
 C2700 C 0.78447 0.35144 0.76343
 H2701 H 0.84558 0.37886 0.76714
 H2702 H 0.84693 0.40658 0.72778
 H2703 H 0.84066 0.41953 0.79240
 H2704 H 0.79167 0.41567 0.78823
 H2705 H 0.79795 0.40273 0.72357
 H2706 H 0.79309 0.44354 0.74883
 C2707 C 0.30678 0.90793 0.23939
 C2708 C 0.30495 0.92952 0.25431
 C2709 C 0.33159 0.93083 0.25537
 C2710 C 0.33362 0.90959 0.24046
 C2711 C 0.30737 0.89230 0.26033
 C2712 C 0.33401 0.89368 0.26139
 C2713 C 0.30531 0.91352 0.27527
 C2714 C 0.33216 0.91518 0.27629
 C2715 C 0.34604 0.95182 0.25348
 C2716 C 0.35892 0.96838 0.25349
 C2717 C 0.29452 0.87031 0.26248
 C2718 C 0.28461 0.85183 0.26295
 H2719 H 0.29617 0.90475 0.22421
 H2720 H 0.29311 0.94445 0.25129
 H2721 H 0.34533 0.90814 0.22608
 H2722 H 0.34589 0.87879 0.26440
 H2723 H 0.29361 0.91494 0.28964
 H2724 H 0.34276 0.91833 0.29148
 C2725 C 0.15936 0.88367 0.73465
 C2726 C 0.15856 0.89870 0.75568
 C2727 C 0.16253 0.92051 0.74121
 C2728 C 0.16315 0.90577 0.72017
 C2729 C 0.18580 0.88133 0.73779
 C2730 C 0.18983 0.90310 0.72328
 C2731 C 0.18513 0.89611 0.75880
 C2732 C 0.18897 0.91819 0.74435
 C2733 C 0.14912 0.94200 0.74407
 C2734 C 0.13764 0.95914 0.74736
 C2735 C 0.19854 0.85919 0.73699
 C2736 C 0.20874 0.84084 0.73758
 H2737 H 0.14725 0.86930 0.73064
 H2738 H 0.14560 0.89702 0.76906
 H2739 H 0.15399 0.90994 0.70427
 H2740 H 0.20280 0.90473 0.70992
 H2741 H 0.19426 0.89198 0.77472
 H2742 H 0.20106 0.93257 0.74838
 C2743 C 0.69206 0.40224 0.22458
 C2744 C 0.66549 0.40532 0.22092
 C2745 C 0.66456 0.41973 0.24215
 C2746 C 0.69089 0.41700 0.24585
 C2747 C 0.68739 0.38031 0.23867
 C2748 C 0.68642 0.39476 0.25988
 C2749 C 0.66106 0.38305 0.23499
 C2750 C 0.65995 0.39776 0.25621
 C2751 C 0.65138 0.44137 0.24503
 C2752 C 0.64007 0.45862 0.24831
 C2753 C 0.69988 0.35803 0.23784
 C2754 C 0.70986 0.33956 0.23839
 H2755 H 0.70538 0.40389 0.21153
 H2756 H 0.65677 0.40986 0.20489
 H2757 H 0.70308 0.43114 0.25034
 H2758 H 0.69511 0.39026 0.27593
 H2759 H 0.64886 0.36892 0.23050
 H2760 H 0.64665 0.39606 0.26927
 C2761 C 0.69581 0.59612 0.27052
 C2762 C 0.66902 0.59399 0.27116
 C2763 C 0.66965 0.57803 0.25094
 C2764 C 0.69625 0.57983 0.25029
 C2765 C 0.69319 0.61709 0.25463
 C2766 C 0.69384 0.60115 0.23440
 C2767 C 0.66659 0.61524 0.25528
 C2768 C 0.66703 0.59901 0.23506
 C2769 C 0.65569 0.55666 0.24979
 C2770 C 0.64322 0.53979 0.25040
 C2771 C 0.70604 0.63911 0.25619
 C2772 C 0.71649 0.65731 0.25634
 H2773 H 0.70770 0.59513 0.28517
 H2774 H 0.65866 0.59087 0.28630
 H2775 H 0.70834 0.56510 0.24814
 H2776 H 0.70420 0.60431 0.21927
 H2777 H 0.65447 0.62996 0.25743
 H2778 H 0.65514 0.60002 0.22042
 C2779 C 0.16466 0.11542 0.75531
 C2780 C 0.16493 0.09934 0.73498
 C2781 C 0.16761 0.07824 0.75070
 C2782 C 0.16716 0.09406 0.77103
 C2783 C 0.19125 0.11723 0.75451
 C2784 C 0.19394 0.09615 0.77025
 C2785 C 0.19174 0.10144 0.73417
 C2786 C 0.19421 0.08000 0.74990
 C2787 C 0.15360 0.05692 0.74948
 C2788 C 0.14108 0.04009 0.75003
 C2789 C 0.20416 0.13921 0.75612
 C2790 C 0.21464 0.15739 0.75631
 H2791 H 0.15259 0.13014 0.75763
 H2792 H 0.15295 0.10047 0.72041
 H2793 H 0.15690 0.09084 0.78622
 H2794 H 0.20593 0.09503 0.78482
 H2795 H 0.20200 0.10469 0.71899
 H2796 H 0.20626 0.06526 0.74758
 C2797 C 0.30071 0.09772 0.22141
 C2798 C 0.32738 0.09701 0.21805
 C2799 C 0.33022 0.08418 0.24050
 C2800 C 0.30383 0.08455 0.24391
 C2801 C 0.30354 0.12082 0.23354
 C2802 C 0.30644 0.10794 0.25595
 C2803 C 0.32994 0.12044 0.23013
 C2804 C 0.33298 0.10731 0.25258
 C2805 C 0.34545 0.06414 0.24520
 C2806 C 0.35826 0.04807 0.24966
 C2807 C 0.28905 0.14177 0.23107
 C2808 C 0.27773 0.15942 0.23080
 H2809 H 0.28731 0.09395 0.20853
 H2810 H 0.33616 0.09232 0.20248
 H2811 H 0.29321 0.06962 0.24966
 H2812 H 0.29770 0.11259 0.27156
 H2813 H 0.34058 0.13536 0.22440
 H2814 H 0.34635 0.11113 0.26547
 C2815 C 0.80148 0.59770 0.72006
 C2816 C 0.82831 0.59731 0.71788
 C2817 C 0.83018 0.58370 0.74000
 C2818 C 0.80363 0.58375 0.74224
 C2819 C 0.80352 0.62036 0.73305
 C2820 C 0.80543 0.60671 0.75514
 C2821 C 0.83007 0.62028 0.73082
 C2822 C 0.83214 0.60639 0.75294
 C2823 C 0.84540 0.56365 0.74470
 C2824 C 0.85821 0.54759 0.74916
 C2825 C 0.78905 0.64133 0.73061
 C2826 C 0.77777 0.65900 0.73037
 H2827 H 0.78875 0.59432 0.70649
 H2828 H 0.83789 0.59325 0.70258
 H2829 H 0.79286 0.56855 0.74701
 H2830 H 0.79589 0.61072 0.77048
 H2831 H 0.84085 0.63548 0.72607
 H2832 H 0.84484 0.60984 0.76652
 C2833 C 0.92295 0.72742 0.20420
 C2834 C 0.92345 0.72367 0.17880
 C2835 C 0.93968 0.74465 0.17649
 C2836 C 0.93963 0.74847 0.20163
 C2837 C 0.90227 0.74388 0.20065
 C2838 C 0.91847 0.76488 0.19836
 C2839 C 0.90250 0.74008 0.17551
 C2840 C 0.91893 0.76104 0.17304
 C2841 C 0.95892 0.74536 0.16123
 C2842 C 0.97322 0.74621 0.14704
 C2843 C 0.88025 0.74361 0.21204
 C2844 C 0.86113 0.74352 0.21954
 H2845 H 0.92425 0.71364 0.21721
 H2846 H 0.92578 0.70677 0.17057
 H2847 H 0.95524 0.75191 0.21210
 H2848 H 0.91609 0.78178 0.20658
 H2849 H 0.88699 0.73664 0.16490
 H2850 H 0.91752 0.77485 0.16005
 C2851 C 0.42154 0.22775 0.70506
 C2852 C 0.42228 0.22369 0.67972
 C2853 C 0.43830 0.24480 0.67728
 C2854 C 0.43802 0.24894 0.70237
 C2855 C 0.40071 0.24395 0.70117
 C2856 C 0.41670 0.26509 0.69876
 C2857 C 0.40118 0.23984 0.67609
 C2858 C 0.41741 0.26094 0.67350
 C2859 C 0.45766 0.24558 0.66216
 C2860 C 0.47207 0.24652 0.64808
 C2861 C 0.37862 0.24365 0.71243
 C2862 C 0.35945 0.24353 0.71984
 H2863 H 0.42287 0.21414 0.71824
 H2864 H 0.42486 0.20671 0.67170
 H2865 H 0.45350 0.25267 0.71290
 H2866 H 0.41408 0.28207 0.70676
 H2867 H 0.38579 0.23611 0.66542
 H2868 H 0.41595 0.27457 0.66034
 C2869 C 0.40671 0.76538 0.80713
 C2870 C 0.40578 0.76939 0.83242
 C2871 C 0.42278 0.74919 0.83618
 C2872 C 0.42410 0.74516 0.81111
 C2873 C 0.38662 0.74806 0.80932
 C2874 C 0.40357 0.72781 0.81303
 C2875 C 0.38543 0.75208 0.83440
 C2876 C 0.40268 0.73189 0.83836
 C2877 C 0.44209 0.75067 0.85190
 C2878 C 0.45740 0.75276 0.86541
 C2879 C 0.36557 0.74804 0.79571
 C2880 C 0.34730 0.74847 0.78595
 H2881 H 0.40808 0.77910 0.79409
 H2882 H 0.40692 0.78646 0.84061
 H2883 H 0.44031 0.74232 0.80181
 H2884 H 0.40236 0.71076 0.80482
 H2885 H 0.36927 0.75495 0.84380
 H2886 H 0.40129 0.71817 0.85140
 C2887 C 0.91035 0.25423 0.30401
 C2888 C 0.91158 0.26732 0.32623
 C2889 C 0.92261 0.24581 0.33735
 C2890 C 0.92178 0.23269 0.31539
 C2891 C 0.88645 0.24479 0.31050
 C2892 C 0.89745 0.22325 0.32160
 C2893 C 0.88740 0.25788 0.33248
 C2894 C 0.89869 0.23639 0.34379
 C2895 C 0.94198 0.24730 0.35301
 C2896 C 0.95739 0.24951 0.36639
 C2897 C 0.86543 0.24493 0.29685
 C2898 C 0.84719 0.24555 0.28702
 H2899 H 0.91482 0.26154 0.28747
 H2900 H 0.91764 0.28543 0.32838
 H2901 H 0.93622 0.22234 0.30865
 H2902 H 0.89136 0.20515 0.31944
 H2903 H 0.87303 0.26825 0.33932
 H2904 H 0.89417 0.22909 0.36032
 C2905 C 0.08483 0.24041 0.30753
 C2906 C 0.08396 0.23770 0.33311
 C2907 C 0.06830 0.25916 0.33380
 C2908 C 0.06877 0.26192 0.30845
 C2909 C 0.10596 0.25640 0.31020
 C2910 C 0.09031 0.27788 0.31088
 C2911 C 0.10540 0.25365 0.33555
 C2912 C 0.08944 0.27513 0.33645
 C2913 C 0.04804 0.26055 0.34777
 C2914 C 0.03205 0.26156 0.36020
 C2915 C 0.12727 0.25472 0.29777
 C2916 C 0.14516 0.25320 0.28801
 H2917 H 0.08328 0.22612 0.29547
 H2918 H 0.08104 0.22122 0.34242
 H2919 H 0.05341 0.26534 0.29756
 H2920 H 0.09327 0.29435 0.30156
 H2921 H 0.12073 0.25023 0.34650
 H2922 H 0.09103 0.28942 0.34851
 C2923 C 0.59482 0.77857 0.81693
 C2924 C 0.57151 0.76598 0.81226
 C2925 C 0.57076 0.75861 0.83681
 C2926 C 0.59370 0.77122 0.84170
 C2927 C 0.60773 0.75596 0.81224
 C2928 C 0.60692 0.74861 0.83679
 C2929 C 0.58481 0.74333 0.80731
 C2930 C 0.58368 0.73601 0.83211
 C2931 C 0.55079 0.75999 0.85114
 C2932 C 0.53488 0.76106 0.86365
 C2933 C 0.62867 0.75437 0.79922
 C2934 C 0.64627 0.75293 0.78902
 H2935 H 0.59972 0.79601 0.81050
 H2936 H 0.55665 0.77313 0.80243
 H2937 H 0.59704 0.78269 0.85602
 H2938 H 0.62175 0.74146 0.84667
 H2939 H 0.58151 0.73186 0.79299
 H2940 H 0.57880 0.71857 0.83855
 C2941 C 0.60808 0.21550 0.67879
 C2942 C 0.58351 0.22521 0.68332
 C2943 C 0.58194 0.23359 0.65906
 C2944 C 0.60607 0.22387 0.65425
 C2945 C 0.61840 0.23917 0.68484
 C2946 C 0.61674 0.24752 0.66057
 C2947 C 0.59427 0.24889 0.68963
 C2948 C 0.59234 0.25720 0.66517
 C2949 C 0.56186 0.23242 0.64434
 C2950 C 0.54539 0.23364 0.63205
 C2951 C 0.63904 0.24318 0.69830
 C2952 C 0.65659 0.24688 0.70851
 H2953 H 0.61490 0.19846 0.68467
 H2954 H 0.56955 0.21596 0.69237
 H2955 H 0.61058 0.21354 0.63954
 H2956 H 0.63064 0.25679 0.65145
 H2957 H 0.58976 0.25923 0.70433
 H2958 H 0.58561 0.27430 0.65935
 C2959 C 0.10882 0.71548 0.17781
 C2960 C 0.08409 0.72484 0.18224
 C2961 C 0.08258 0.73334 0.15801
 C2962 C 0.10688 0.72396 0.15331
 C2963 C 0.11879 0.73924 0.18405
 C2964 C 0.11719 0.74771 0.15982
 C2965 C 0.09450 0.74862 0.18875
 C2966 C 0.09263 0.75704 0.16432
 C2967 C 0.06263 0.73200 0.14315
 C2968 C 0.04623 0.73310 0.13077
 C2969 C 0.13931 0.74340 0.19763
 C2970 C 0.15680 0.74719 0.20790
 H2971 H 0.11582 0.69850 0.18365
 H2972 H 0.07019 0.71535 0.19116
 H2973 H 0.11163 0.71379 0.13857
 H2974 H 0.13103 0.75722 0.15084
 H2975 H 0.08974 0.75881 0.20347
 H2976 H 0.08572 0.77409 0.15853
   
