data_POSCAR
  _audit_creation_date              2014-09-24
  _audit_creation_method            'ToBaCCo'
  _symmetry_space_group_name_H-M    'P1'
  _symmetry_Int_Tables_number       1
  _symmetry_cell_setting            triclinic
  loop_
  _symmetry_equiv_pos_as_xyz
 x,y,z
_cell_length_a 81.7689
_cell_length_b 84.0643
_cell_length_c 83.2664
_cell_angle_alpha 90.386500
_cell_angle_beta 89.954400
_cell_angle_gamma 90.850900
loop_
  _atom_site_label
  _atom_site_type_symbol
  _atom_site_fract_x
  _atom_site_fract_y
  _atom_site_fract_z
C1 C 0.36473 0.41351 0.89350
 C2 C 0.35900 0.42214 0.88039
 C3 C 0.34503 0.41703 0.87188
 C4 C 0.33705 0.40278 0.87636
 C5 C 0.34289 0.39379 0.88928
 C6 C 0.35681 0.39921 0.89789
 C7 C 0.37770 0.41950 0.90282
 C8 C 0.38264 0.41181 0.91701
 C9 C 0.37543 0.39683 0.92054
 C10 C 0.36249 0.39063 0.91121
 C11 C 0.35445 0.37647 0.91563
 C12 C 0.34051 0.37113 0.90728
 C13 C 0.33473 0.37979 0.89414
 H14 H 0.36494 0.43333 0.87731
 H15 H 0.32625 0.39877 0.86986
 H16 H 0.38376 0.43039 0.89902
 H17 H 0.37873 0.39053 0.93133
 H18 H 0.35862 0.36990 0.92598
 H19 H 0.32383 0.37568 0.88785
 C20 C 0.46257 0.80444 0.43828
 C21 C 0.46779 0.81977 0.44262
 C22 C 0.45934 0.82881 0.45425
 C23 C 0.44581 0.82153 0.46211
 C24 C 0.44050 0.80601 0.45794
 C25 C 0.44892 0.79749 0.44594
 C26 C 0.47043 0.79627 0.42582
 C27 C 0.46456 0.78134 0.42061
 C28 C 0.45127 0.77420 0.42860
 C29 C 0.44341 0.78218 0.44120
 C30 C 0.42964 0.77541 0.44855
 C31 C 0.42099 0.78381 0.46036
 C32 C 0.42650 0.79911 0.46506
 H33 H 0.47875 0.82445 0.43696
 H34 H 0.43873 0.82812 0.47081
 H35 H 0.48051 0.80196 0.41951
 H36 H 0.44675 0.76262 0.42467
 H37 H 0.42520 0.76382 0.44457
 H38 H 0.41978 0.80566 0.47410
 C39 C 0.93723 0.91007 0.83116
 C40 C 0.94239 0.89631 0.82312
 C41 C 0.93538 0.89142 0.80830
 C42 C 0.92315 0.90113 0.80161
 C43 C 0.91790 0.91499 0.80956
 C44 C 0.92482 0.91931 0.82449
 C45 C 0.94436 0.91463 0.84586
 C46 C 0.93910 0.92825 0.85444
 C47 C 0.92625 0.93709 0.84766
 C48 C 0.91929 0.93284 0.83279
 C49 C 0.90680 0.94196 0.82617
 C50 C 0.90013 0.93824 0.81097
 C51 C 0.90586 0.92466 0.80275
 H52 H 0.95130 0.88901 0.82907
 H53 H 0.91793 0.89829 0.78999
 H54 H 0.95453 0.90774 0.85010
 H55 H 0.92113 0.94710 0.85403
 H56 H 0.90224 0.95197 0.83299
 H57 H 0.90112 0.92162 0.79097
 C58 C 0.42826 -0.09369 0.34118
 C59 C 0.43469 -0.10819 0.33564
 C60 C 0.43023 -0.11433 0.32046
 C61 C 0.41995 -0.10542 0.31057
 C62 C 0.41329 -0.09111 0.31600
 C63 C 0.41721 -0.08533 0.33143
 C64 C 0.43244 -0.08754 0.35639
 C65 C 0.42568 -0.07321 0.36204
 C66 C 0.41429 -0.06529 0.35236
 C67 C 0.40994 -0.07128 0.33715
 C68 C 0.39826 -0.06356 0.32768
 C69 C 0.39417 -0.06929 0.31218
 C70 C 0.40238 -0.08279 0.30632
 H71 H 0.44272 -0.11492 0.34330
 H72 H 0.41679 -0.10986 0.29870
 H73 H 0.44084 -0.09401 0.36390
 H74 H 0.40904 -0.05424 0.35650
 H75 H 0.39210 -0.05336 0.33268
 H76 H 0.40020 -0.08713 0.29424
 C77 C 0.83600 0.32308 0.33628
 C78 C 0.83159 0.31940 0.35207
 C79 C 0.81889 0.32753 0.35975
 C80 C 0.81115 0.34008 0.35185
 C81 C 0.81578 0.34425 0.33615
 C82 C 0.82796 0.33541 0.32821
 C83 C 0.84807 0.31435 0.32832
 C84 C 0.85193 0.31737 0.31214
 C85 C 0.84366 0.32957 0.30412
 C86 C 0.83197 0.33876 0.31212
 C87 C 0.82424 0.35123 0.30425
 C88 C 0.81272 0.36071 0.31227
 C89 C 0.80834 0.35693 0.32819
 H90 H 0.83739 0.30960 0.35812
 H91 H 0.80134 0.34634 0.35783
 H92 H 0.85448 0.30522 0.33481
 H93 H 0.84620 0.33190 0.29158
 H94 H 0.82728 0.35361 0.29181
 H95 H 0.79943 0.36405 0.33451
 C96 C -0.18284 0.83747 0.82800
 C97 C -0.18951 0.85118 0.82101
 C98 C -0.18320 0.85731 0.80639
 C99 C -0.17087 0.84865 0.79849
 C100 C -0.16395 0.83529 0.80540
 C101 C -0.16980 0.82970 0.82022
 C102 C -0.18846 0.83173 0.84292
 C103 C -0.18104 0.81852 0.85011
 C104 C -0.16814 0.81094 0.84212
 C105 C -0.16237 0.81650 0.82738
 C106 C -0.14888 0.80938 0.81996
 C107 C -0.14277 0.81520 0.80532
 C108 C -0.15077 0.82783 0.79788
 H109 H -0.19889 0.85748 0.82754
 H110 H -0.16653 0.85217 0.78673
 H111 H -0.19826 0.83777 0.84912
 H112 H -0.16250 0.80064 0.84744
 H113 H -0.14274 0.79974 0.82595
 H114 H -0.14642 0.83221 0.78641
 C115 C 0.92106 0.33759 0.43292
 C116 C 0.92924 0.35055 0.44034
 C117 C 0.94502 0.35560 0.43520
 C118 C 0.95220 0.34720 0.42231
 C119 C 0.94432 0.33414 0.41507
 C120 C 0.92868 0.32930 0.42028
 C121 C 0.90539 0.33274 0.43803
 C122 C 0.89716 0.31980 0.43061
 C123 C 0.90496 0.31159 0.41799
 C124 C 0.92067 0.31623 0.41277
 C125 C 0.92854 0.30806 0.40017
 C126 C 0.94431 0.31283 0.39508
 C127 C 0.95194 0.32598 0.40252
 H128 H 0.92337 0.35623 0.45047
 H129 H 0.96376 0.35107 0.41724
 H130 H 0.89965 0.33896 0.44794
 H131 H 0.89871 0.30171 0.41208
 H132 H 0.92251 0.29795 0.39446
 H133 H 0.96387 0.33002 0.39838
 C134 C 0.40738 0.42188 0.84528
 C135 C 0.41121 0.42827 0.86044
 C136 C 0.42277 0.42095 0.87032
 C137 C 0.43019 0.40682 0.86510
 C138 C 0.42673 0.40043 0.84981
 C139 C 0.41536 0.40806 0.83984
 C140 C 0.39589 0.42922 0.83536
 C141 C 0.39215 0.42286 0.82012
 C142 C 0.40049 0.40938 0.81462
 C143 C 0.41214 0.40202 0.82432
 C144 C 0.42075 0.38885 0.81861
 C145 C 0.43217 0.38103 0.82836
 C146 C 0.43480 0.38682 0.84414
 H147 H 0.40534 0.43905 0.86452
 H148 H 0.43922 0.40124 0.87266
 H149 H 0.38965 0.43972 0.83962
 H150 H 0.39794 0.40466 0.80272
 H151 H 0.41876 0.38504 0.80632
 H152 H 0.44320 0.38087 0.85206
 C153 C 0.81285 0.93595 0.95203
 C154 C 0.80580 0.92213 0.95878
 C155 C 0.79112 0.91539 0.95256
 C156 C 0.78383 0.92284 0.93926
 C157 C 0.79076 0.93648 0.93240
 C158 C 0.80524 0.94313 0.93882
 C159 C 0.82738 0.94269 0.95830
 C160 C 0.83453 0.95659 0.95155
 C161 C 0.82665 0.96345 0.93821
 C162 C 0.81222 0.95685 0.93184
 C163 C 0.80482 0.96365 0.91836
 C164 C 0.79053 0.95685 0.91170
 C165 C 0.78354 0.94331 0.91890
 H166 H 0.81157 0.91703 0.96921
 H167 H 0.77312 0.91763 0.93353
 H168 H 0.83268 0.93730 0.96881
 H169 H 0.83207 0.97354 0.93208
 H170 H 0.81020 0.97422 0.91302
 H171 H 0.77268 0.93781 0.91371
 C172 C 0.34472 0.84648 0.32583
 C173 C 0.34052 0.86060 0.31811
 C174 C 0.32538 0.86794 0.32113
 C175 C 0.31472 0.86091 0.33253
 C176 C 0.31900 0.84703 0.34068
 C177 C 0.33398 0.83969 0.33720
 C178 C 0.35936 0.83883 0.32203
 C179 C 0.36333 0.82430 0.32922
 C180 C 0.35276 0.81786 0.34093
 C181 C 0.33818 0.82549 0.34501
 C182 C 0.32765 0.81903 0.35663
 C183 C 0.31280 0.82642 0.36045
 C184 C 0.30851 0.84035 0.35226
 H185 H 0.34874 0.86529 0.30904
 H186 H 0.30330 0.86654 0.33563
 H187 H 0.36759 0.84411 0.31328
 H188 H 0.35558 0.80661 0.34648
 H189 H 0.33121 0.80839 0.36293
 H190 H 0.29695 0.84597 0.35484
 C191 C 0.84642 0.40522 0.41706
 C192 C 0.84159 0.39077 0.42405
 C193 C 0.82560 0.38468 0.42202
 C194 C 0.81488 0.39270 0.41170
 C195 C 0.81976 0.40691 0.40416
 C196 C 0.83544 0.41343 0.40723
 C197 C 0.86181 0.41192 0.42049
 C198 C 0.86635 0.42717 0.41482
 C199 C 0.85529 0.43513 0.40471
 C200 C 0.84000 0.42830 0.40077
 C201 C 0.82905 0.43628 0.39076
 C202 C 0.81356 0.42960 0.38708
 C203 C 0.80904 0.41491 0.39396
 H204 H 0.85023 0.38451 0.43147
 H205 H 0.80246 0.38836 0.41003
 H206 H 0.86961 0.40566 0.42875
 H207 H 0.85861 0.44654 0.39959
 H208 H 0.83252 0.44782 0.38603
 H209 H 0.79723 0.40955 0.39125
 C210 C 0.96786 0.80876 -0.04911
 C211 C 0.97593 0.82087 -0.04036
 C212 C 0.96810 0.82841 -0.02742
 C213 C 0.95255 0.82305 -0.02261
 C214 C 0.94426 0.81124 -0.03142
 C215 C 0.95181 0.80419 -0.04485
 C216 C 0.97521 0.80203 -0.06269
 C217 C 0.96675 0.79078 -0.07245
 C218 C 0.95060 0.78636 -0.06793
 C219 C 0.94304 0.79314 -0.05443
 C220 C 0.92655 0.78968 -0.05083
 C221 C 0.91882 0.79714 -0.03773
 C222 C 0.92804 0.80734 -0.02771
 H223 H 0.98796 0.82500 -0.04408
 H224 H 0.94631 0.82905 -0.01285
 H225 H 0.98718 0.80651 -0.06609
 H226 H 0.94378 0.77743 -0.07465
 H227 H 0.91956 0.78185 -0.05870
 H228 H 0.92238 0.81283 -0.01732
 C229 C 0.32065 0.32974 0.79587
 C230 C 0.31069 0.34150 0.78938
 C231 C 0.29883 0.34904 0.79891
 C232 C 0.29643 0.34400 0.81480
 C233 C 0.30609 0.33206 0.82133
 C234 C 0.31842 0.32505 0.81195
 C235 C 0.33316 0.32298 0.78670
 C236 C 0.34375 0.31184 0.79349
 C237 C 0.34131 0.30709 0.80951
 C238 C 0.32868 0.31355 0.81875
 C239 C 0.32635 0.30895 0.83476
 C240 C 0.31388 0.31574 0.84407
 C241 C 0.30384 0.32730 0.83723
 H242 H 0.31248 0.34509 0.77702
 H243 H 0.28753 0.34985 0.82237
 H244 H 0.33480 0.32657 0.77432
 H245 H 0.34954 0.29870 0.81495
 H246 H 0.33428 0.30018 0.84003
 H247 H 0.29405 0.33245 0.84424
 C248 C 0.14946 0.57889 0.60549
 C249 C 0.13549 0.57229 0.59818
 C250 C 0.13016 0.57768 0.58313
 C251 C 0.13910 0.58985 0.57531
 C252 C 0.15310 0.59674 0.58254
 C253 C 0.15819 0.59124 0.59772
 C254 C 0.15509 0.57307 0.62026
 C255 C 0.16931 0.57955 0.62741
 C256 C 0.17743 0.59231 0.61993
 C257 C 0.17216 0.59796 0.60510
 C258 C 0.18097 0.61004 0.59745
 C259 C 0.17610 0.61575 0.58243
 C260 C 0.16215 0.60899 0.57492
 H261 H 0.12887 0.56270 0.60408
 H262 H 0.13505 0.59406 0.56372
 H263 H 0.14874 0.56316 0.62588
 H264 H 0.18812 0.59773 0.62555
 H265 H 0.19191 0.61486 0.60313
 H266 H 0.15826 0.61339 0.56336
 C267 C 0.60261 0.67466 0.09945
 C268 C 0.61524 0.68032 0.08951
 C269 C 0.61837 0.67304 0.07457
 C270 C 0.60886 0.65975 0.06981
 C271 C 0.59616 0.65398 0.07958
 C272 C 0.59301 0.66144 0.09446
 C273 C 0.59889 0.68251 0.11390
 C274 C 0.58544 0.67753 0.12320
 C275 C 0.57625 0.66406 0.11843
 C276 C 0.57987 0.65604 0.10408
 C277 C 0.57002 0.64325 0.09879
 C278 C 0.57290 0.63598 0.08382
 C279 C 0.58613 0.64130 0.07439
 H280 H 0.62247 0.69056 0.09332
 H281 H 0.61091 0.65424 0.05819
 H282 H 0.60588 0.69301 0.11747
 H283 H 0.56591 0.66017 0.12565
 H284 H 0.55969 0.63939 0.10602
 H285 H 0.58849 0.63567 0.06288
 C286 C 0.67348 0.15250 0.64466
 C287 C 0.67786 0.16038 0.63044
 C288 C 0.66974 0.17421 0.62567
 C289 C 0.65652 0.17967 0.63498
 C290 C 0.65195 0.17191 0.64925
 C291 C 0.66071 0.15846 0.65427
 C292 C 0.68206 0.13905 0.64966
 C293 C 0.67885 0.13197 0.66469
 C294 C 0.66618 0.13824 0.67428
 C295 C 0.65685 0.15111 0.66899
 C296 C 0.64380 0.15684 0.67827
 C297 C 0.63466 0.16996 0.67318
 C298 C 0.63897 0.17754 0.65872
 H299 H 0.68781 0.15589 0.62318
 H300 H 0.65017 0.19031 0.63144
 H301 H 0.69200 0.13481 0.64224
 H302 H 0.66312 0.13277 0.68567
 H303 H 0.64082 0.15114 0.68956
 H304 H 0.63204 0.18767 0.65472
 C305 C 1.07905 0.06799 0.16985
 C306 C 1.09357 0.06195 0.17639
 C307 C 1.10314 0.07127 0.18703
 C308 C 1.09768 0.08640 0.19160
 C309 C 1.08344 0.09262 0.18506
 C310 C 1.07412 0.08347 0.17408
 C311 C 1.06956 0.05894 0.15897
 C312 C 1.05520 0.06516 0.15199
 C313 C 1.05074 0.08084 0.15627
 C314 C 1.06000 0.08993 0.16719
 C315 C 1.05553 0.10559 0.17102
 C316 C 1.06484 0.11478 0.18194
 C317 C 1.07862 0.10802 0.18912
 H318 H 1.09769 0.05025 0.17282
 H319 H 1.10472 0.09350 0.20012
 H320 H 1.07325 0.04688 0.15644
 H321 H 1.04047 0.08649 0.15060
 H322 H 1.04497 0.11069 0.16526
 H323 H 1.08571 0.11480 0.19786
 C324 C 0.05129 0.17712 1.06564
 C325 C 0.04841 0.16108 1.06148
 C326 C 0.05807 0.15329 1.04974
 C327 C 0.07104 0.16215 1.04262
 C328 C 0.07421 0.17806 1.04686
 C329 C 0.06405 0.18567 1.05808
 C330 C 0.04199 0.18462 1.07767
 C331 C 0.04509 0.20066 1.08190
 C332 C 0.05714 0.20926 1.07346
 C333 C 0.06690 0.20180 1.06199
 C334 C 0.07999 0.21009 1.05497
 C335 C 0.09098 0.20230 1.04473
 C336 C 0.08771 0.18635 1.04036
 H337 H 0.03897 0.15467 1.06797
 H338 H 0.07849 0.15706 1.03323
 H339 H 0.03275 0.17782 1.08409
 H340 H 0.05933 0.22174 1.07621
 H341 H 0.08196 0.22253 1.05802
 H342 H 0.09604 0.18012 1.03250
 C343 C 0.15919 0.65437 0.67997
 C344 C 0.14703 0.66339 0.68755
 C345 C 0.14154 0.67762 0.68063
 C346 C 0.14813 0.68239 0.66581
 C347 C 0.15973 0.67319 0.65788
 C348 C 0.16559 0.65928 0.66504
 C349 C 0.16527 0.64068 0.68721
 C350 C 0.17789 0.63212 0.67991
 C351 C 0.18421 0.63696 0.66499
 C352 C 0.17801 0.65047 0.65737
 C353 C 0.18411 0.65554 0.64239
 C354 C 0.17772 0.66914 0.63508
 C355 C 0.16570 0.67793 0.64295
 H356 H 0.14191 0.65931 0.69882
 H357 H 0.14451 0.69350 0.66045
 H358 H 0.16058 0.63691 0.69878
 H359 H 0.19398 0.63029 0.65945
 H360 H 0.19361 0.64890 0.63636
 H361 H 0.16113 0.68865 0.63745
 C362 C 1.19944 0.17954 0.16762
 C363 C 1.20753 0.16648 0.17411
 C364 C 1.20132 0.15833 0.18766
 C365 C 1.18638 0.16369 0.19430
 C366 C 1.17795 0.17648 0.18758
 C367 C 1.18457 0.18456 0.17428
 C368 C 1.20609 0.18756 0.15443
 C369 C 1.19835 0.20085 0.14789
 C370 C 1.18329 0.20572 0.15442
 C371 C 1.17631 0.19761 0.16759
 C372 C 1.16122 0.20224 0.17418
 C373 C 1.15432 0.19395 0.18728
 C374 C 1.16293 0.18126 0.19400
 H375 H 1.21842 0.16248 0.16803
 H376 H 1.18135 0.15839 0.20504
 H377 H 1.21739 0.18337 0.14919
 H378 H 1.17717 0.21590 0.14943
 H379 H 1.15468 0.21203 0.16891
 H380 H 1.15788 0.17504 0.20429
 C381 C 0.65401 1.10057 0.57736
 C382 C 0.64047 1.09415 0.56902
 C383 C 0.63157 1.08111 0.57526
 C384 C 0.63607 1.07486 0.59020
 C385 C 0.64951 1.08114 0.59865
 C386 C 0.65854 1.09405 0.59222
 C387 C 0.66340 1.11304 0.57080
 C388 C 0.67710 1.11948 0.57908
 C389 C 0.68127 1.11296 0.59408
 C390 C 0.67240 1.10009 0.60044
 C391 C 0.67757 1.09274 0.61458
 C392 C 0.66872 1.07980 0.62086
 C393 C 0.65449 1.07429 0.61310
 H394 H 0.63725 1.09890 0.55740
 H395 H 0.62929 1.06486 0.59511
 H396 H 0.65970 1.11796 0.55941
 H397 H 0.69209 1.11716 0.60041
 H398 H 0.68861 1.09686 0.62058
 H399 H 0.64775 1.06422 0.61799
 C400 C 0.58073 0.60721 0.14605
 C401 C 0.57434 0.59786 0.13348
 C402 C 0.58162 0.58339 0.12918
 C403 C 0.59545 0.57830 0.13766
 C404 C 0.60185 0.58740 0.15043
 C405 C 0.59463 0.60204 0.15448
 C406 C 0.57299 0.62127 0.15083
 C407 C 0.57908 0.63025 0.16384
 C408 C 0.59326 0.62537 0.17180
 C409 C 0.60090 0.61119 0.16740
 C410 C 0.61402 0.60550 0.17641
 C411 C 0.62068 0.59056 0.17299
 C412 C 0.61481 0.58172 0.15974
 H413 H 0.56358 0.60178 0.12714
 H414 H 0.60084 0.56695 0.13470
 H415 H 0.56202 0.62505 0.14472
 H416 H 0.59777 0.63216 0.18205
 H417 H 0.61839 0.61226 0.18673
 H418 H 0.62002 0.57023 0.15701
 C419 C 0.65068 0.67579 0.14881
 C420 C 0.63976 0.68383 0.15879
 C421 C 0.63590 0.67803 0.17415
 C422 C 0.64242 0.66342 0.17904
 C423 C 0.65315 0.65504 0.16898
 C424 C 0.65744 0.66135 0.15387
 C425 C 0.65557 0.68245 0.13419
 C426 C 0.66754 0.67512 0.12472
 C427 C 0.67394 0.66049 0.12955
 C428 C 0.66890 0.65352 0.14403
 C429 C 0.67569 0.63922 0.14918
 C430 C 0.67153 0.63287 0.16423
 C431 C 0.66020 0.64081 0.17405
 H432 H 0.63454 0.69487 0.15471
 H433 H 0.63966 0.65886 0.19090
 H434 H 0.65077 0.69385 0.13063
 H435 H 0.68313 0.65476 0.12223
 H436 H 0.68467 0.63331 0.14174
 H437 H 0.65698 0.63595 0.18567
 C438 C 0.15944 0.07179 1.08785
 C439 C 0.14591 0.06725 1.07844
 C440 C 0.14083 0.07659 1.06537
 C441 C 0.14952 0.09082 1.06212
 C442 C 0.16342 0.09515 1.07108
 C443 C 0.16844 0.08562 1.08397
 C444 C 0.16420 0.06252 1.10093
 C445 C 0.17817 0.06659 1.11013
 C446 C 0.18736 0.08030 1.10574
 C447 C 0.18256 0.08982 1.09283
 C448 C 0.19178 0.10340 1.08850
 C449 C 0.18704 0.11269 1.07537
 C450 C 0.17266 0.10865 1.06697
 H451 H 0.13904 0.05663 1.08170
 H452 H 0.14623 0.09805 1.05194
 H453 H 0.15731 0.05171 1.10340
 H454 H 0.19790 0.08408 1.11272
 H455 H 0.20287 0.10646 1.09502
 H456 H 0.16877 0.11595 1.05703
 C457 C 0.60023 0.14192 0.57870
 C458 C 0.61439 0.14675 0.57045
 C459 C 0.62294 0.16068 0.57505
 C460 C 0.61779 0.16922 0.58867
 C461 C 0.60369 0.16453 0.59706
 C462 C 0.59467 0.15101 0.59187
 C463 C 0.59114 0.12856 0.57355
 C464 C 0.57638 0.12429 0.58119
 C465 C 0.57081 0.13357 0.59416
 C466 C 0.57982 0.14690 0.59950
 C467 C 0.57397 0.15647 0.61204
 C468 C 0.58311 0.16971 0.61753
 C469 C 0.59805 0.17357 0.61010
 H470 H 0.61822 0.14015 0.55991
 H471 H 0.62444 0.17986 0.59240
 H472 H 0.59550 0.12155 0.56350
 H473 H 0.55925 0.13064 0.59986
 H474 H 0.56226 0.15365 0.61749
 H475 H 0.60493 0.18400 0.61405
 C476 C 0.09070 0.56444 0.65959
 C477 C 0.10540 0.55859 0.66560
 C478 C 0.10982 0.56102 0.68179
 C479 C 0.09990 0.57077 0.69150
 C480 C 0.08559 0.57750 0.68532
 C481 C 0.08076 0.57393 0.66945
 C482 C 0.08539 0.56020 0.64413
 C483 C 0.06973 0.56440 0.63873
 C484 C 0.06027 0.57460 0.64834
 C485 C 0.06581 0.57957 0.66352
 C486 C 0.05636 0.58970 0.67305
 C487 C 0.06133 0.59392 0.68870
 C488 C 0.07581 0.58739 0.69488
 H489 H 0.11310 0.55165 0.65771
 H490 H 0.10292 0.57276 0.70401
 H491 H 0.09316 0.55293 0.63664
 H492 H 0.04818 0.57802 0.64448
 H493 H 0.04528 0.59456 0.66806
 H494 H 0.07950 0.59002 0.70712
 C495 C 0.64720 0.60994 0.08096
 C496 C 0.63229 0.60529 0.07391
 C497 C 0.62441 0.59105 0.07847
 C498 C 0.63110 0.58189 0.09083
 C499 C 0.64587 0.58647 0.09815
 C500 C 0.65404 0.60048 0.09309
 C501 C 0.65587 0.62331 0.07532
 C502 C 0.67156 0.62713 0.08129
 C503 C 0.67803 0.61789 0.09375
 C504 C 0.66941 0.60462 0.09965
 C505 C 0.67642 0.59486 0.11127
 C506 C 0.66858 0.58064 0.11605
 C507 C 0.65312 0.57671 0.10966
 H508 H 0.62735 0.61224 0.06417
 H509 H 0.62508 0.57089 0.09437
 H510 H 0.65059 0.63046 0.06593
 H511 H 0.69021 0.62044 0.09829
 H512 H 0.68826 0.59810 0.11626
 H513 H 0.64712 0.56564 0.11300
 C514 C 0.07571 0.65406 0.60162
 C515 C 0.07120 0.66180 0.61591
 C516 C 0.08249 0.67157 0.62419
 C517 C 0.09822 0.67413 0.61779
 C518 C 0.10277 0.66682 0.60328
 C519 C 0.09163 0.65636 0.59545
 C520 C 0.06450 0.64422 0.59330
 C521 C 0.06914 0.63619 0.57911
 C522 C 0.08527 0.63812 0.57347
 C523 C 0.09632 0.64842 0.58126
 C524 C 0.11179 0.65136 0.57465
 C525 C 0.12241 0.66261 0.58168
 C526 C 0.11805 0.67009 0.59618
 H527 H 0.05904 0.65997 0.62083
 H528 H 0.10679 0.68194 0.62405
 H529 H 0.05210 0.64308 0.59777
 H530 H 0.08930 0.63171 0.56290
 H531 H 0.11518 0.64571 0.56340
 H532 H 0.12635 0.67873 0.60163
 C533 C 0.58633 1.09990 0.64350
 C534 C 0.58097 1.08949 0.63135
 C535 C 0.58915 1.07513 0.62813
 C536 C 0.60327 1.07168 0.63718
 C537 C 0.60853 1.08183 0.64966
 C538 C 0.60018 1.09610 0.65266
 C539 C 0.57736 1.11351 0.64734
 C540 C 0.58193 1.12314 0.66049
 C541 C 0.59620 1.11973 0.66904
 C542 C 0.60519 1.10620 0.66539
 C543 C 0.61836 1.10201 0.67507
 C544 C 0.62613 1.08746 0.67271
 C545 C 0.62133 1.07748 0.65989
 H546 H 0.57039 1.09274 0.62437
 H547 H 0.60950 1.06051 0.63543
 H548 H 0.56622 1.11599 0.64082
 H549 H 0.59977 1.12713 0.67917
 H550 H 0.62191 1.10958 0.68512
 H551 H 0.62733 1.06618 0.65813
 C552 C 0.41658 0.34637 0.92505
 C553 C 0.42360 0.36103 0.92956
 C554 C 0.43828 0.36664 0.92248
 C555 C 0.44516 0.35752 0.90995
 C556 C 0.43827 0.34280 0.90541
 C557 C 0.42404 0.33707 0.91308
 C558 C 0.40243 0.34072 0.93269
 C559 C 0.39557 0.32578 0.92867
 C560 C 0.40320 0.31643 0.91679
 C561 C 0.41746 0.32196 0.90899
 C562 C 0.42547 0.31253 0.89745
 C563 C 0.43987 0.31813 0.88989
 C564 C 0.44587 0.33345 0.89372
 H565 H 0.41737 0.36811 0.93853
 H566 H 0.45661 0.36112 0.90445
 H567 H 0.39700 0.34782 0.94215
 H568 H 0.39802 0.30492 0.91354
 H569 H 0.42073 0.30073 0.89469
 H570 H 0.45663 0.33813 0.88768
 C571 C 0.90309 0.44106 0.33086
 C572 C 0.90801 0.44615 0.34612
 C573 C 0.92058 0.43844 0.35452
 C574 C 0.92787 0.42501 0.34724
 C575 C 0.92266 0.41944 0.33206
 C576 C 0.91038 0.42770 0.32377
 C577 C 0.89104 0.44932 0.32252
 C578 C 0.88632 0.44462 0.30695
 C579 C 0.89360 0.43121 0.29995
 C580 C 0.90538 0.42263 0.30834
 C581 C 0.91214 0.40899 0.30155
 C582 C 0.92383 0.40022 0.30992
 C583 C 0.92935 0.40569 0.32503
 H584 H 0.90262 0.45688 0.35092
 H585 H 0.93720 0.41850 0.35354
 H586 H 0.88522 0.45936 0.32827
 H587 H 0.89022 0.42749 0.28790
 H588 H 0.90821 0.40510 0.28971
 H589 H 0.93848 0.39904 0.33146
 C590 C 0.31820 0.94336 0.42774
 C591 C 0.30847 0.94928 0.41539
 C592 C 0.29572 0.93997 0.40865
 C593 C 0.29230 0.92483 0.41504
 C594 C 0.30160 0.91896 0.42780
 C595 C 0.31465 0.92824 0.43409
 C596 C 0.33171 0.95218 0.43350
 C597 C 0.34199 0.94607 0.44554
 C598 C 0.33778 0.93113 0.45221
 C599 C 0.32434 0.92226 0.44655
 C600 C 0.32080 0.90723 0.45289
 C601 C 0.30793 0.89781 0.44667
 C602 C 0.29838 0.90377 0.43406
 H603 H 0.31104 0.96111 0.41085
 H604 H 0.28272 0.91741 0.40982
 H605 H 0.33402 0.96390 0.42858
 H606 H 0.34555 0.92566 0.46104
 H607 H 0.32809 0.90287 0.46275
 H608 H 0.28863 0.89650 0.42893
 O609 O 0.21633 0.52995 0.75947
 O610 O 0.22275 0.52412 0.78729
 O611 O 0.25863 0.55575 0.74379
 O612 O 0.28587 0.55195 0.74309
 O613 O 0.23806 0.51855 0.71542
 O614 O 0.24034 0.49002 0.71553
 O615 O 0.30329 0.50820 0.77619
 O616 O 0.29656 0.53553 0.78000
 O617 O 0.26156 0.48302 0.79400
 O618 O 0.23293 0.48390 0.78961
 O619 O 0.28123 0.47013 0.74943
 O620 O 0.28096 0.48076 0.72268
 O621 O 0.30215 0.49006 0.75583
 O622 O 0.29742 0.49926 0.72621
 O623 O 0.26218 0.46618 0.76896
 O624 O 0.23122 0.47225 0.76803
 O625 O 0.28287 0.50060 0.79613
 O626 O 0.27783 0.52808 0.79979
 O627 O 0.21628 0.51437 0.73700
 O628 O 0.22269 0.48590 0.73400
 O629 O 0.25796 0.53768 0.71823
 O630 O 0.28804 0.53437 0.72399
 O631 O 0.23753 0.55172 0.76131
 O632 O 0.24094 0.54235 0.78969
 Zr633 Zr 0.24009 0.52787 0.76882
 O634 O 0.25456 0.51154 0.78136
 Zr635 Zr 0.26867 0.53306 0.74083
 O636 O 0.28468 0.51747 0.75247
 Zr637 Zr 0.23997 0.50475 0.73619
 O638 O 0.25491 0.48778 0.74698
 Zr639 Zr 0.27936 0.51668 0.77713
 O640 O 0.26496 0.53431 0.76598
 Zr641 Zr 0.25089 0.48848 0.77187
 O642 O 0.23461 0.50447 0.76093
 Zr643 Zr 0.27971 0.49430 0.74414
 O644 O 0.26475 0.51008 0.73122
 O645 O 0.24413 0.52772 0.74430
 O646 O 0.27562 0.49361 0.76869
 C647 C 0.20953 0.52436 0.74665
 C648 C 0.24566 0.56022 0.75115
 C649 C 0.24579 0.53111 0.71076
 C650 C 0.30927 0.49670 0.76798
 C651 C 0.27465 0.48830 0.80080
 C652 C 0.27385 0.46140 0.75981
 H653 H 0.25211 0.51204 0.79299
 H654 H 0.25240 0.47719 0.74227
 H655 H 0.23695 0.53518 0.73868
 H656 H 0.29616 0.52081 0.75055
 H657 H 0.29056 0.54556 0.77845
 H658 H 0.29404 0.54856 0.75108
 H659 H 0.23397 0.46553 0.75864
 H660 H 0.21637 0.48568 0.74414
 H661 H 0.27074 0.53736 0.79833
 H662 H 0.24939 0.55070 0.78783
 H663 H 0.27030 0.47518 0.72141
 H664 H 0.25091 0.49217 0.71009
 H665 H 0.21706 0.51394 0.78473
 H666 H 0.23226 0.49352 0.79645
 H667 H 0.28578 0.52612 0.71571
 H668 H 0.30656 0.50528 0.73127
 O669 O 0.20462 0.02264 0.25138
 O670 O 0.20941 0.02073 0.28049
 O671 O 0.24512 0.04826 0.23417
 O672 O 0.27299 0.04664 0.23663
 O673 O 0.22990 0.00579 0.21106
 O674 O 0.23446 -0.02235 0.21679
 O675 O 0.29138 0.00883 0.27693
 O676 O 0.28451 0.03611 0.27363
 O677 O 0.25209 -0.01472 0.29619
 O678 O 0.22084 -0.01355 0.28977
 O679 O 0.27339 -0.03345 0.25733
 O680 O 0.27233 -0.02794 0.22743
 O681 O 0.29317 -0.01081 0.25816
 O682 O 0.28907 -0.00988 0.22860
 O683 O 0.25193 -0.03545 0.27464
 O684 O 0.22314 -0.03206 0.27392
 O685 O 0.26984 0.00636 0.29673
 O686 O 0.26469 0.03506 0.29209
 O687 O 0.20660 0.00289 0.23262
 O688 O 0.21499 -0.02420 0.23346
 O689 O 0.24875 0.02600 0.21192
 O690 O 0.27711 0.02681 0.21903
 O691 O 0.22516 0.04617 0.25315
 O692 O 0.22558 0.04064 0.28112
 Zr693 Zr 0.22768 0.02339 0.26269
 O694 O 0.24270 0.01101 0.27869
 Zr695 Zr 0.25745 0.02630 0.23560
 O696 O 0.27373 0.01361 0.25020
 Zr697 Zr 0.23108 -0.00429 0.23423
 O698 O 0.24590 -0.01817 0.24913
 Zr699 Zr 0.26735 0.01705 0.27433
 O700 O 0.25216 0.03118 0.25987
 Zr701 Zr 0.24071 -0.01334 0.27342
 O702 O 0.22426 -0.00113 0.25846
 Zr703 Zr 0.27048 -0.01104 0.24629
 O704 O 0.25576 0.00179 0.23006
 O705 O 0.23304 0.01996 0.23855
 O706 O 0.26528 -0.00737 0.27039
 C707 C 0.19877 0.01392 0.23994
 C708 C 0.23262 0.05364 0.24185
 C709 C 0.23787 0.01747 0.20465
 C710 C 0.29901 -0.00256 0.26993
 C711 C 0.26349 -0.00626 0.30283
 C712 C 0.26484 -0.04090 0.26796
 H713 H 0.23945 0.01327 0.28989
 H714 H 0.24411 -0.02953 0.24643
 H715 H 0.22583 0.02608 0.23143
 H716 H 0.28513 0.01716 0.24820
 H717 H 0.27885 0.04527 0.26885
 H718 H 0.28316 0.04358 0.24217
 H719 H 0.22354 -0.03748 0.26335
 H720 H 0.20899 -0.02426 0.24380
 H721 H 0.25567 0.03195 0.29938
 H722 H 0.23632 0.04618 0.28177
 H723 H 0.26360 -0.03606 0.22898
 H724 H 0.24515 -0.02013 0.21163
 H725 H 0.20423 0.01015 0.27873
 H726 H 0.22374 -0.00659 0.29899
 H727 H 0.27751 0.01612 0.21400
 H728 H 0.29537 0.00011 0.23033
 O729 O 0.53321 0.71252 0.25416
 O730 O 0.52221 0.70984 0.28087
 O731 O 0.49207 0.70738 0.22382
 O732 O 0.46655 0.71794 0.22314
 O733 O 0.52585 0.74422 0.21615
 O734 O 0.53001 0.77046 0.22809
 O735 O 0.45405 0.75323 0.27069
 O736 O 0.45047 0.72614 0.26024
 O737 O 0.49356 0.75405 0.29992
 O738 O 0.52225 0.74717 0.29780
 O739 O 0.48644 0.78717 0.26390
 O740 O 0.49449 0.78762 0.23422
 O741 O 0.46179 0.77367 0.25446
 O742 O 0.47332 0.77646 0.22725
 O743 O 0.50167 0.77872 0.28496
 O744 O 0.53008 0.76614 0.28461
 O745 O 0.46965 0.74184 0.29271
 O746 O 0.46543 0.71675 0.28229
 O747 O 0.54229 0.73412 0.24021
 O748 O 0.54375 0.76220 0.24828
 O749 O 0.50179 0.73219 0.20883
 O750 O 0.47321 0.74127 0.21154
 O751 O 0.50758 0.69856 0.24461
 O752 O 0.50001 0.69851 0.27410
 Zr753 Zr 0.50914 0.71804 0.26073
 O754 O 0.49634 0.73233 0.27710
 Zr755 Zr 0.48761 0.73127 0.22993
 O756 O 0.47354 0.74595 0.24499
 Zr757 Zr 0.52239 0.74988 0.24064
 O758 O 0.50983 0.76556 0.25600
 Zr759 Zr 0.47278 0.73649 0.26825
 O760 O 0.48487 0.72041 0.25261
 Zr761 Zr 0.50743 0.75503 0.27870
 O762 O 0.52161 0.74002 0.26384
 Zr763 Zr 0.48573 0.76797 0.24769
 O764 O 0.49892 0.75393 0.23114
 O765 O 0.51118 0.72785 0.23812
 O766 O 0.48375 0.75878 0.27075
 C767 C 0.54397 0.71991 0.24564
 C768 C 0.50108 0.69700 0.23060
 C769 C 0.51653 0.73696 0.20592
 C770 C 0.45190 0.76697 0.26439
 C771 C 0.47911 0.74870 0.30304
 C772 C 0.49274 0.78904 0.27791
 H773 H 0.49587 0.72685 0.28757
 H774 H 0.51565 0.77592 0.25663
 H775 H 0.51760 0.72115 0.23078
 H776 H 0.46240 0.74711 0.24058
 H777 H 0.45330 0.71618 0.25455
 H778 H 0.45706 0.72290 0.22845
 H779 H 0.53098 0.77620 0.27855
 H780 H 0.54666 0.75777 0.25887
 H781 H 0.46886 0.70713 0.27637
 H782 H 0.49093 0.69362 0.26784
 H783 H 0.50371 0.79263 0.24015
 H784 H 0.52051 0.77381 0.22165
 H785 H 0.53042 0.71822 0.28352
 H786 H 0.51807 0.73656 0.30102
 H787 H 0.47894 0.75110 0.20803
 H788 H 0.46399 0.76913 0.22509
 O789 O 0.05320 0.72194 0.76782
 O790 O 0.04467 0.72304 0.79586
 O791 O 0.01397 0.69837 0.74436
 O792 O -0.01392 0.70111 0.74388
 O793 O 0.03352 0.74088 0.72505
 O794 O 0.03000 0.76898 0.73161
 O795 O -0.03576 0.73844 0.78245
 O796 O -0.02878 0.71079 0.77950
 O797 O 0.00302 0.75920 0.80835
 O798 O 0.03358 0.75889 0.80500
 O799 O -0.01329 0.78104 0.76671
 O800 O -0.00890 0.77558 0.73729
 O801 O -0.03410 0.75893 0.76483
 O802 O -0.02646 0.75844 0.73604
 O803 O 0.00485 0.78119 0.78737
 O804 O 0.03409 0.77687 0.78919
 O805 O -0.01675 0.74010 0.80535
 O806 O -0.01224 0.71343 0.80219
 O807 O 0.05389 0.74137 0.74889
 O808 O 0.04721 0.76917 0.75077
 O809 O 0.01431 0.72103 0.72294
 O810 O -0.01507 0.72142 0.72675
 O811 O 0.03217 0.69939 0.76504
 O812 O 0.02783 0.70415 0.79397
 Zr813 Zr 0.02876 0.72171 0.77588
 O814 O 0.01233 0.73444 0.79033
 Zr815 Zr 0.00250 0.72076 0.74539
 O816 O -0.01491 0.73391 0.75840
 Zr817 Zr 0.03005 0.75025 0.74842
 O818 O 0.01407 0.76447 0.76190
 Zr819 Zr -0.01182 0.72975 0.78298
 O820 O 0.00447 0.71506 0.76997
 Zr821 Zr 0.01594 0.75887 0.78640
 O822 O 0.03364 0.74619 0.77312
 Zr823 Zr -0.01017 0.75847 0.75580
 O824 O 0.00591 0.74530 0.74100
 O825 O 0.02652 0.72604 0.75149
 O826 O -0.00834 0.75419 0.78028
 C827 C 0.06044 0.72998 0.75674
 C828 C 0.02567 0.69251 0.75274
 C829 C 0.02621 0.72950 0.71738
 C830 C -0.04185 0.75037 0.77513
 C831 C -0.00963 0.75136 0.81327
 C832 C -0.00626 0.78774 0.77888
 H833 H 0.01383 0.73153 0.80172
 H834 H 0.01664 0.77580 0.75984
 H835 H 0.03427 0.71986 0.74492
 H836 H -0.02607 0.73085 0.75489
 H837 H -0.02239 0.70131 0.77648
 H838 H -0.02427 0.70431 0.74903
 H839 H 0.03454 0.78297 0.77908
 H840 H 0.05185 0.76842 0.76171
 H841 H -0.00467 0.70485 0.79922
 H842 H 0.01946 0.69615 0.79071
 H843 H 0.00008 0.78316 0.73994
 H844 H 0.02003 0.76747 0.72501
 H845 H 0.05021 0.73358 0.79542
 H846 H 0.03135 0.74954 0.81185
 H847 H -0.01408 0.73207 0.72181
 H848 H -0.03316 0.74856 0.73652
 O849 O 0.04072 0.02092 0.00299
 O850 O 0.03119 0.02211 -0.02456
 O851 O -0.00182 0.03486 0.02931
 O852 O -0.02756 0.02626 0.03265
 O853 O 0.02641 -0.00607 0.04298
 O854 O 0.02638 -0.03332 0.03349
 O855 O -0.04512 -0.00917 -0.01198
 O856 O -0.04298 0.01851 -0.00569
 O857 O -0.00543 -0.02061 -0.04044
 O858 O 0.02429 -0.01423 -0.03869
 O859 O -0.01551 -0.04863 -0.00096
 O860 O -0.01161 -0.04532 0.02859
 O861 O -0.04010 -0.03069 0.00352
 O862 O -0.03171 -0.03204 0.03160
 O863 O 0.00014 -0.04311 -0.02283
 O864 O 0.02934 -0.03408 -0.02172
 O865 O -0.02646 -0.00377 -0.03560
 O866 O -0.02726 0.02396 -0.02637
 O867 O 0.04533 -0.00102 0.01810
 O868 O 0.04196 -0.02907 0.01408
 O869 O 0.00516 0.01030 0.04832
 O870 O -0.02446 0.00399 0.04557
 O871 O 0.01594 0.03949 0.00874
 O872 O 0.01121 0.03723 -0.01974
 Zr873 Zr 0.01610 0.01800 -0.00434
 O874 O 0.00128 0.00424 -0.01994
 Zr875 Zr -0.00840 0.01063 0.02673
 O876 O -0.02433 -0.00340 0.01236
 Zr877 Zr 0.02281 -0.01312 0.01898
 O878 O 0.00838 -0.02818 0.00441
 Zr879 Zr -0.02298 0.00394 -0.01166
 O880 O -0.00855 0.01935 0.00301
 Zr881 Zr 0.00842 -0.01962 -0.01921
 O882 O 0.02456 -0.00552 -0.00502
 Zr883 Zr -0.01610 -0.02700 0.01192
 O884 O -0.00128 -0.01331 0.02782
 O885 O 0.01583 0.01053 0.01933
 O886 O -0.01596 -0.01976 -0.01192
 C887 C 0.04992 0.01217 0.01171
 C888 C 0.00810 0.04387 0.02137
 C889 C 0.01844 0.00328 0.05232
 C890 C -0.04937 -0.02251 -0.00562
 C891 C -0.01868 -0.01366 -0.04454
 C892 C -0.00866 -0.05254 -0.01427
 H893 H 0.00206 0.00855 -0.03091
 H894 H 0.01280 -0.03906 0.00492
 H895 H 0.02293 0.01738 0.02616
 H896 H -0.03566 -0.00267 0.01643
 H897 H -0.03845 0.02779 0.00031
 H898 H -0.03739 0.02259 0.02670
 H899 H 0.02770 -0.04142 -0.03098
 H900 H 0.04576 -0.02679 0.00303
 H901 H -0.01813 0.02500 -0.03410
 H902 H -0.00002 0.04070 -0.01719
 H903 H -0.00146 -0.05068 0.02523
 H904 H 0.01678 -0.03415 0.04072
 H905 H 0.03751 0.01229 -0.02625
 H906 H 0.02004 -0.00489 -0.04441
 H907 H -0.02060 -0.00628 0.04978
 H908 H -0.03900 -0.02287 0.03309
 O909 O 0.00023 0.55680 0.50461
 O910 O -0.02858 0.55402 0.49892
 O911 O 0.00916 0.51817 0.53578
 O912 O 0.00738 0.49139 0.53527
 O913 O 0.04143 0.52801 0.49587
 O914 O 0.03979 0.52243 0.46766
 O915 O -0.03055 0.47319 0.49350
 O916 O -0.03219 0.48372 0.52015
 O917 O -0.04284 0.51203 0.46357
 O918 O -0.03290 0.53862 0.46026
 O919 O -0.00160 0.48390 0.45337
 O920 O 0.02596 0.48285 0.46312
 O921 O -0.00904 0.46775 0.47716
 O922 O 0.02185 0.47121 0.48446
 O923 O -0.01946 0.50355 0.44761
 O924 O -0.01137 0.53400 0.44806
 O925 O -0.04724 0.49405 0.48347
 O926 O -0.04962 0.50346 0.51046
 O927 O 0.02277 0.55165 0.48944
 O928 O 0.02357 0.54107 0.46154
 O929 O 0.03525 0.51381 0.51834
 O930 O 0.02569 0.48489 0.51824
 O931 O -0.00579 0.53979 0.52928
 O932 O -0.03440 0.53980 0.51873
 Zr933 Zr -0.01299 0.53524 0.50528
 O934 O -0.02812 0.52062 0.49084
 Zr935 Zr 0.01114 0.50512 0.51439
 O936 O -0.00330 0.48897 0.50089
 Zr937 Zr 0.01955 0.52753 0.48253
 O938 O 0.00599 0.51202 0.46742
 Zr939 Zr -0.02735 0.49723 0.49928
 O940 O -0.01361 0.51215 0.51503
 Zr941 Zr -0.01848 0.51926 0.46746
 O942 O -0.00462 0.53580 0.48132
 Zr943 Zr 0.00536 0.48893 0.47714
 O944 O 0.02093 0.50400 0.49102
 O945 O 0.01117 0.52821 0.50601
 O946 O -0.01877 0.49605 0.47590
 C947 C 0.01420 0.56071 0.49862
 C948 C 0.00299 0.53178 0.53908
 C949 C 0.04492 0.52262 0.50986
 C950 C -0.02270 0.46398 0.48400
 C951 C -0.05118 0.50087 0.47027
 C952 C -0.01227 0.49041 0.44434
 H953 H -0.03944 0.52463 0.49093
 H954 H 0.01068 0.51208 0.45647
 H955 H 0.01786 0.53535 0.51291
 H956 H -0.00300 0.47831 0.50582
 H957 H -0.02952 0.49066 0.52948
 H958 H -0.00247 0.48472 0.53327
 H959 H -0.00433 0.52774 0.44078
 H960 H 0.01420 0.54832 0.46058
 H961 H -0.04676 0.51073 0.51941
 H962 H -0.03419 0.53287 0.52829
 H963 H 0.02854 0.49203 0.45616
 H964 H 0.04336 0.51163 0.47057
 H965 H -0.02521 0.55747 0.48805
 H966 H -0.03975 0.54159 0.46957
 H967 H 0.03458 0.48523 0.51017
 H968 H 0.01628 0.46456 0.49263
 O969 O 0.54512 0.00916 0.50791
 O970 O 0.53997 0.00240 0.47957
 O971 O 0.50428 0.03243 0.52412
 O972 O 0.47654 0.02865 0.52253
 O973 O 0.52341 -0.00468 0.55030
 O974 O 0.52031 -0.03361 0.54883
 O975 O 0.45841 -0.01545 0.48885
 O976 O 0.46474 0.01252 0.48723
 O977 O 0.50001 -0.03778 0.46945
 O978 O 0.52856 -0.03684 0.47445
 O979 O 0.47971 -0.05332 0.51329
 O980 O 0.48117 -0.04395 0.54098
 O981 O 0.45836 -0.03191 0.51038
 O982 O 0.46489 -0.02632 0.53934
 O983 O 0.49873 -0.05589 0.49357
 O984 O 0.52966 -0.04971 0.49502
 O985 O 0.47944 -0.01999 0.46772
 O986 O 0.48326 0.00715 0.46676
 O987 O 0.54524 -0.00837 0.52869
 O988 O 0.53859 -0.03659 0.53068
 O989 O 0.50330 0.01369 0.54818
 O990 O 0.47387 0.01088 0.54226
 O991 O 0.52348 0.03000 0.50443
 O992 O 0.52208 0.01985 0.47625
 Zr993 Zr 0.52182 0.00588 0.49730
 O994 O 0.50700 -0.01012 0.48399
 Zr995 Zr 0.49310 0.00977 0.52527
 O996 O 0.47705 -0.00596 0.51315
 Zr997 Zr 0.52140 -0.01814 0.52893
 O998 O 0.50653 -0.03512 0.51706
 Zr999 Zr 0.48221 -0.00576 0.48846
 O1000 O 0.49697 0.01178 0.50024
 Zr1001 Zr 0.51039 -0.03342 0.49219
 O1002 O 0.52685 -0.01765 0.50418
 Zr1003 Zr 0.48184 -0.02935 0.52037
 O1004 O 0.49668 -0.01342 0.53395
 O1005 O 0.51757 0.00500 0.52175
 O1006 O 0.48562 -0.02913 0.49564
 C1007 C 0.55180 0.00281 0.52028
 C1008 C 0.51626 0.03785 0.51563
 C1009 C 0.51551 0.00747 0.55544
 C1010 C 0.45142 -0.02557 0.49821
 C1011 C 0.48767 -0.03177 0.46226
 C1012 C 0.48709 -0.06140 0.50242
 H1013 H 0.50949 -0.00906 0.47242
 H1014 H 0.50898 -0.04585 0.52111
 H1015 H 0.52462 0.01260 0.52771
 H1016 H 0.46563 -0.00288 0.51532
 H1017 H 0.47067 0.02268 0.48933
 H1018 H 0.46690 0.02435 0.51670
 H1019 H 0.52688 -0.05672 0.50416
 H1020 H 0.54425 -0.03713 0.52018
 H1021 H 0.49033 0.01655 0.46885
 H1022 H 0.51353 0.02798 0.47752
 H1023 H 0.49148 -0.04994 0.54126
 H1024 H 0.50986 -0.03147 0.55440
 H1025 H 0.54596 -0.00727 0.48264
 H1026 H 0.52986 -0.02667 0.46865
 H1027 H 0.47538 0.00193 0.54976
 H1028 H 0.45750 -0.01761 0.53637
 O1029 O 0.53500 0.53148 0.00305
 O1030 O 0.52965 0.52870 -0.02548
 O1031 O 0.49365 0.55161 0.02303
 O1032 O 0.46588 0.54726 0.02137
 O1033 O 0.51430 0.51223 0.04368
 O1034 O 0.51164 0.48355 0.03871
 O1035 O 0.44949 0.50664 -0.01936
 O1036 O 0.45340 0.53500 -0.01524
 O1037 O 0.48799 0.48716 -0.03907
 O1038 O 0.51936 0.49193 -0.03565
 O1039 O 0.47226 0.46705 0.00181
 O1040 O 0.47220 0.47399 0.03029
 O1041 O 0.45120 0.48588 -0.00213
 O1042 O 0.45439 0.49159 0.02891
 O1043 O 0.49084 0.46765 -0.01853
 O1044 O 0.52053 0.47422 -0.01835
 O1045 O 0.46989 0.50747 -0.03992
 O1046 O 0.47337 0.53479 -0.03613
 O1047 O 0.53586 0.51138 0.02127
 O1048 O 0.52978 0.48318 0.02027
 O1049 O 0.49356 0.53006 0.04441
 O1050 O 0.46416 0.52667 0.03860
 O1051 O 0.51243 0.55227 0.00276
 O1052 O 0.51126 0.54553 -0.02660
 Zr1053 Zr 0.51155 0.52920 -0.00736
 O1054 O 0.49704 0.51473 -0.02262
 Zr1055 Zr 0.48307 0.52869 0.02131
 O1056 O 0.46720 0.51431 0.00720
 Zr1057 Zr 0.51217 0.50134 0.02089
 O1058 O 0.49772 0.48569 0.00699
 Zr1059 Zr 0.47230 0.51817 -0.01717
 O1060 O 0.48666 0.53424 -0.00321
 Zr1061 Zr 0.50121 0.49067 -0.01752
 O1062 O 0.51730 0.50511 -0.00359
 Zr1063 Zr 0.47283 0.49032 0.01108
 O1064 O 0.48739 0.50463 0.02665
 O1065 O 0.50767 0.52511 0.01682
 O1066 O 0.47669 0.49429 -0.01313
 C1067 C 0.54209 0.52357 0.01418
 C1068 C 0.50517 0.55845 0.01497
 C1069 C 0.50618 0.52341 0.05051
 C1070 C 0.44438 0.49325 -0.01378
 C1071 C 0.47623 0.49477 -0.04565
 C1072 C 0.47957 0.46071 -0.01024
 H1073 H 0.49932 0.51731 -0.03399
 H1074 H 0.50056 0.47463 0.00969
 H1075 H 0.51471 0.53208 0.02353
 H1076 H 0.45562 0.51651 0.00964
 H1077 H 0.45854 0.54503 -0.01133
 H1078 H 0.45594 0.54320 0.01585
 H1079 H 0.51970 0.46761 -0.00859
 H1080 H 0.53515 0.48384 0.00963
 H1081 H 0.47799 0.54477 -0.03159
 H1082 H 0.50274 0.55343 -0.02419
 H1083 H 0.48279 0.46846 0.03025
 H1084 H 0.50143 0.48503 0.04491
 H1085 H 0.53456 0.51802 -0.02509
 H1086 H 0.51518 0.49858 -0.04445
 H1087 H 0.46582 0.51653 0.04430
 H1088 H 0.44467 0.49657 0.02412
 O1089 O 0.70493 0.22229 0.49509
 O1090 O 0.70763 0.22374 0.46574
 O1091 O 0.74827 0.20394 0.51148
 O1092 O 0.77586 0.20910 0.50748
 O1093 O 0.72831 0.24372 0.53287
 O1094 O 0.73051 0.27219 0.52708
 O1095 O 0.78844 0.24614 0.46570
 O1096 O 0.78329 0.21890 0.46699
 O1097 O 0.74256 0.26307 0.44620
 O1098 O 0.71397 0.26139 0.45536
 O1099 O 0.76759 0.28653 0.48224
 O1100 O 0.76616 0.28336 0.51349
 O1101 O 0.78870 0.26728 0.48296
 O1102 O 0.78559 0.26744 0.51258
 O1103 O 0.74592 0.28473 0.46523
 O1104 O 0.71584 0.27930 0.47212
 O1105 O 0.76639 0.24956 0.44707
 O1106 O 0.76182 0.21836 0.45058
 O1107 O 0.70512 0.24340 0.51246
 O1108 O 0.71078 0.27186 0.51015
 O1109 O 0.74945 0.22636 0.53225
 O1110 O 0.77840 0.23020 0.52378
 O1111 O 0.72809 0.20188 0.49266
 O1112 O 0.72658 0.20677 0.46434
 Zr1113 Zr 0.72716 0.22458 0.48237
 O1114 O 0.73954 0.23858 0.46529
 Zr1115 Zr 0.75805 0.22707 0.50832
 O1116 O 0.77200 0.24109 0.49231
 Zr1117 Zr 0.72850 0.25381 0.50970
 O1118 O 0.74110 0.26918 0.49384
 Zr1119 Zr 0.76488 0.23624 0.46849
 O1120 O 0.75249 0.22057 0.48439
 Zr1121 Zr 0.73493 0.26262 0.47021
 O1122 O 0.72086 0.24854 0.48606
 Zr1123 Zr 0.76639 0.26527 0.49566
 O1124 O 0.75388 0.25132 0.51311
 O1125 O 0.73313 0.22992 0.50595
 O1126 O 0.76008 0.26004 0.47218
 C1127 C 0.69864 0.23063 0.50650
 C1128 C 0.73641 0.19643 0.50444
 C1129 C 0.73714 0.23286 0.53922
 C1130 C 0.79513 0.25875 0.47178
 C1131 C 0.75643 0.25917 0.44033
 C1132 C 0.75906 0.29157 0.47036
 H1133 H 0.73605 0.23544 0.45433
 H1134 H 0.73843 0.28039 0.49617
 H1135 H 0.72692 0.22301 0.51337
 H1136 H 0.78375 0.23904 0.49396
 H1137 H 0.77917 0.20951 0.47297
 H1138 H 0.78435 0.21259 0.49977
 H1139 H 0.71971 0.28829 0.47891
 H1140 H 0.70452 0.27076 0.50003
 H1141 H 0.75659 0.22317 0.44110
 H1142 H 0.73785 0.20270 0.46352
 H1143 H 0.75894 0.29192 0.50977
 H1144 H 0.74173 0.27173 0.53147
 H1145 H 0.70116 0.23345 0.46760
 H1146 H 0.71440 0.25126 0.44928
 H1147 H 0.77675 0.24032 0.52968
 H1148 H 0.79230 0.25778 0.51161
 O1149 O 0.74910 0.77866 -0.04340
 O1150 O 0.72208 0.78082 -0.03423
 O1151 O 0.77724 0.79181 -0.00152
 O1152 O 0.77933 0.78370 0.02375
 O1153 O 0.79070 0.74982 -0.02890
 O1154 O 0.77938 0.72423 -0.03238
 O1155 O 0.73229 0.74690 0.03890
 O1156 O 0.74042 0.77499 0.03893
 O1157 O 0.70516 0.73640 0.00049
 O1158 O 0.70717 0.74321 -0.02885
 O1159 O 0.74321 0.71000 0.01240
 O1160 O 0.77361 0.71100 0.00567
 O1161 O 0.75041 0.72700 0.03470
 O1162 O 0.77923 0.72572 0.02484
 O1163 O 0.72208 0.71462 -0.00461
 O1164 O 0.72480 0.72296 -0.03382
 O1165 O 0.70994 0.75329 0.02156
 O1166 O 0.71777 0.78010 0.02200
 O1167 O 0.76650 0.75825 -0.04822
 O1168 O 0.75928 0.72977 -0.04674
 O1169 O 0.79564 0.76693 -0.00810
 O1170 O 0.79206 0.76133 0.02089
 O1171 O 0.75600 0.79719 -0.01813
 O1172 O 0.72563 0.79427 -0.01404
 Zr1173 Zr 0.74215 0.77577 -0.01924
 O1174 O 0.72602 0.76166 -0.00542
 Zr1175 Zr 0.77344 0.76790 0.00467
 O1176 O 0.75862 0.75386 0.01986
 Zr1177 Zr 0.76557 0.74464 -0.02704
 O1178 O 0.75070 0.72924 -0.01321
 Zr1179 Zr 0.73424 0.76123 0.01839
 O1180 O 0.74945 0.77694 0.00504
 Zr1181 Zr 0.72674 0.73780 -0.01320
 O1182 O 0.74124 0.75234 -0.02843
 Zr1183 Zr 0.75823 0.73041 0.01092
 O1184 O 0.77442 0.74413 -0.00330
 O1185 O 0.76621 0.76816 -0.01920
 O1186 O 0.73419 0.73782 0.01059
 C1187 C 0.75907 0.77097 -0.05239
 C1188 C 0.76920 0.80118 -0.01059
 C1189 C 0.80016 0.75893 -0.02051
 C1190 C 0.73935 0.73399 0.04298
 C1191 C 0.70113 0.74297 0.01388
 C1192 C 0.72942 0.70623 0.00595
 H1193 H 0.71487 0.76602 -0.00593
 H1194 H 0.75100 0.71829 -0.01761
 H1195 H 0.77359 0.77493 -0.02576
 H1196 H 0.76265 0.75449 0.03105
 H1197 H 0.74544 0.78501 0.03498
 H1198 H 0.77250 0.78053 0.03302
 H1199 H 0.71524 0.71569 -0.03239
 H1200 H 0.74886 0.73374 -0.05111
 H1201 H 0.72337 0.78989 0.01827
 H1202 H 0.73036 0.80071 -0.00515
 H1203 H 0.76830 0.70445 -0.00280
 H1204 H 0.78433 0.72091 -0.02211
 H1205 H 0.71897 0.77066 -0.03957
 H1206 H 0.70103 0.75214 -0.02411
 H1207 H 0.79669 0.75127 0.01681
 H1208 H 0.77984 0.73380 0.03353
 O1209 O 0.99880 0.22662 0.20896
 O1210 O 0.97109 0.23588 0.20775
 O1211 O 1.02627 0.26854 0.19620
 O1212 O 1.02702 0.29438 0.20501
 O1213 O 1.04137 0.24106 0.23565
 O1214 O 1.03166 0.23902 0.26340
 O1215 O 0.98269 0.30741 0.24370
 O1216 O 0.99008 0.30813 0.21536
 O1217 O 0.95517 0.26783 0.25198
 O1218 O 0.95841 0.23881 0.24449
 O1219 O 0.99439 0.27925 0.28055
 O1220 O 1.02511 0.27391 0.27800
 O1221 O 1.00083 0.30286 0.26382
 O1222 O 1.02921 0.29421 0.26505
 O1223 O 0.97268 0.26325 0.27413
 O1224 O 0.97548 0.23480 0.26546
 O1225 O 0.96009 0.28960 0.23655
 O1226 O 0.96885 0.29243 0.20873
 O1227 O 1.01650 0.22190 0.22946
 O1228 O 1.01230 0.22294 0.25792
 O1229 O 1.04566 0.26332 0.22075
 O1230 O 1.04225 0.29096 0.22706
 O1231 O 1.00477 0.25185 0.19086
 O1232 O 0.97597 0.25568 0.19334
 Zr1233 Zr 0.99185 0.25043 0.21255
 O1234 O 0.97599 0.26362 0.22714
 Zr1235 Zr 1.02312 0.27490 0.22060
 O1236 O 1.00870 0.28909 0.23590
 Zr1237 Zr 1.01666 0.24293 0.24318
 O1238 O 1.00152 0.25553 0.25927
 Zr1239 Zr 0.98422 0.28737 0.22851
 O1240 O 0.99888 0.27467 0.21204
 Zr1241 Zr 0.97732 0.25525 0.25075
 O1242 O 0.99200 0.24086 0.23581
 Zr1243 Zr 1.00871 0.27961 0.25930
 O1244 O 1.02493 0.26671 0.24441
 O1245 O 1.01617 0.25107 0.21975
 O1246 O 0.98449 0.27905 0.25188
 C1247 C 1.00873 0.21775 0.21666
 C1248 C 1.01797 0.25924 0.18678
 C1249 C 1.05050 0.25031 0.22706
 C1250 C 0.98999 0.31128 0.25687
 C1251 C 0.95103 0.28127 0.24599
 C1252 C 0.98039 0.27274 0.28367
 H1253 H 0.96475 0.26274 0.22286
 H1254 H 1.00205 0.25080 0.27010
 H1255 H 1.02326 0.24469 0.21263
 H1256 H 1.01265 0.30026 0.23575
 H1257 H 0.99543 0.30459 0.20530
 H1258 H 1.02240 0.30392 0.21023
 H1259 H 0.96567 0.23579 0.27240
 H1260 H 1.00085 0.21952 0.25591
 H1261 H 0.96147 0.28317 0.20695
 H1262 H 0.97833 0.26685 0.19031
 H1263 H 1.02030 0.26495 0.28413
 H1264 H 1.03844 0.24877 0.26487
 H1265 H 0.96965 0.22884 0.21714
 H1266 H 0.95174 0.24352 0.23589
 H1267 H 1.04624 0.28768 0.23774
 H1268 H 1.03038 0.30224 0.25648
 O1269 O 0.74974 1.04193 0.72284
 O1270 O 0.77944 1.03200 0.72388
 O1271 O 0.72109 1.00398 0.71080
 O1272 O 0.71913 0.97735 0.71769
 O1273 O 0.71050 1.03047 0.75162
 O1274 O 0.72109 1.03019 0.77943
 O1275 O 0.76268 0.95896 0.75363
 O1276 O 0.75465 0.96033 0.72577
 O1277 O 0.79397 0.99542 0.76330
 O1278 O 0.79299 1.02566 0.75677
 O1279 O 0.75468 0.98796 0.79298
 O1280 O 0.72455 0.99424 0.79131
 O1281 O 0.74679 0.96454 0.77532
 O1282 O 0.71920 0.97470 0.77793
 O1283 O 0.77731 1.00283 0.78698
 O1284 O 0.78095 1.02970 0.77813
 O1285 O 0.78674 0.97489 0.74680
 O1286 O 0.77820 0.97555 0.71999
 O1287 O 0.73583 1.04777 0.74578
 O1288 O 0.74156 1.04521 0.77388
 O1289 O 0.70344 1.00889 0.73628
 O1290 O 0.70481 0.98080 0.74060
 O1291 O 0.74508 1.01662 0.70448
 O1292 O 0.77216 1.01549 0.70548
 Zr1293 Zr 0.75769 1.01825 0.72633
 O1294 O 0.77299 1.00293 0.73929
 Zr1295 Zr 0.72493 0.99568 0.73437
 O1296 O 0.73861 0.97981 0.74824
 Zr1297 Zr 0.73492 1.02620 0.75835
 O1298 O 0.74951 1.01182 0.77293
 Zr1299 Zr 0.76279 0.97989 0.73992
 O1300 O 0.74878 0.99451 0.72480
 Zr1301 Zr 0.77333 1.01039 0.76339
 O1302 O 0.75928 1.02678 0.75010
 Zr1303 Zr 0.74027 0.98838 0.77201
 O1304 O 0.72465 1.00311 0.75862
 O1305 O 0.73380 1.01888 0.73457
 O1306 O 0.76425 0.98717 0.76378
 C1307 C 0.74120 1.05133 0.73172
 C1308 C 0.73046 1.01190 0.70119
 C1309 C 0.70038 1.02239 0.74284
 C1310 C 0.75602 0.95530 0.76714
 C1311 C 0.79675 0.98194 0.75643
 C1312 C 0.76879 0.99403 0.79646
 H1313 H 0.78407 1.00284 0.73454
 H1314 H 0.74958 1.01617 0.78399
 H1315 H 0.72681 1.02572 0.72796
 H1316 H 0.73371 0.96900 0.74768
 H1317 H 0.74976 0.96479 0.71593
 H1318 H 0.72301 0.96723 0.72222
 H1319 H 0.77151 1.03267 0.78488
 H1320 H 0.75283 1.04847 0.77088
 H1321 H 0.77283 0.98031 0.71056
 H1322 H 0.77921 1.00622 0.70730
 H1323 H 0.72945 1.00345 0.79710
 H1324 H 0.71294 1.02139 0.78009
 H1325 H 0.77886 1.04080 0.73182
 H1326 H 0.79960 1.02011 0.74857
 H1327 H 0.70170 0.98365 0.75173
 H1328 H 0.71707 0.96717 0.76896
 O1329 O 0.73149 0.53563 0.22159
 O1330 O 0.75846 0.52478 0.21616
 O1331 O 0.69885 0.49726 0.21572
 O1332 O 0.69836 0.47108 0.22421
 O1333 O 0.69557 0.52677 0.25491
 O1334 O 0.70906 0.52716 0.28149
 O1335 O 0.74741 0.45442 0.25447
 O1336 O 0.73510 0.45420 0.22773
 O1337 O 0.77962 0.49224 0.25659
 O1338 O 0.77772 0.52093 0.25028
 O1339 O 0.74569 0.48352 0.29213
 O1340 O 0.71560 0.49242 0.29530
 O1341 O 0.73387 0.46081 0.27747
 O1342 O 0.70725 0.47205 0.28369
 O1343 O 0.76711 0.49769 0.28190
 O1344 O 0.76515 0.52653 0.27377
 O1345 O 0.77004 0.46999 0.24380
 O1346 O 0.75806 0.46864 0.21840
 O1347 O 0.72075 0.54296 0.24576
 O1348 O 0.72936 0.54115 0.27342
 O1349 O 0.68594 0.50442 0.24222
 O1350 O 0.68786 0.47609 0.24902
 O1351 O 0.72064 0.51132 0.20594
 O1352 O 0.75010 0.50505 0.20317
 Zr1353 Zr 0.73799 0.51165 0.22462
 O1354 O 0.75496 0.49733 0.23639
 Zr1355 Zr 0.70668 0.49029 0.23874
 O1356 O 0.72237 0.47499 0.25126
 Zr1357 Zr 0.72045 0.52190 0.25932
 O1358 O 0.73687 0.50808 0.27261
 Zr1359 Zr 0.74514 0.47441 0.23962
 O1360 O 0.72877 0.48808 0.22575
 Zr1361 Zr 0.75883 0.50619 0.25975
 O1362 O 0.74320 0.52167 0.24736
 Zr1363 Zr 0.72753 0.48471 0.27411
 O1364 O 0.71014 0.49900 0.26233
 O1365 O 0.71587 0.51326 0.23642
 O1366 O 0.74989 0.48313 0.26247
 C1367 C 0.72482 0.54578 0.23111
 C1368 C 0.70587 0.50591 0.20494
 C1369 C 0.68432 0.51873 0.24746
 C1370 C 0.74244 0.45137 0.26880
 C1371 C 0.78142 0.47815 0.25082
 C1372 C 0.76058 0.48872 0.29264
 H1373 H 0.76516 0.49693 0.23002
 H1374 H 0.73883 0.51290 0.28332
 H1375 H 0.70847 0.52029 0.23053
 H1376 H 0.71744 0.46421 0.25196
 H1377 H 0.72895 0.45819 0.21839
 H1378 H 0.70316 0.46127 0.22853
 H1379 H 0.77580 0.52461 0.27908
 H1380 H 0.74031 0.54394 0.26911
 H1381 H 0.75181 0.47313 0.20939
 H1382 H 0.74392 0.49596 0.19845
 H1383 H 0.72285 0.50023 0.30082
 H1384 H 0.70138 0.51824 0.28373
 H1385 H 0.76165 0.53225 0.22489
 H1386 H 0.78103 0.51645 0.23978
 H1387 H 0.68564 0.48057 0.25982
 H1388 H 0.70351 0.46432 0.27542
 O1389 O 0.50069 0.20154 0.72170
 O1390 O 0.47111 0.20401 0.72235
 O1391 O 0.51874 0.24398 0.70304
 O1392 O 0.51420 0.27070 0.70792
 O1393 O 0.53904 0.22453 0.74349
 O1394 O 0.53231 0.22665 0.77231
 O1395 O 0.46940 0.28128 0.74676
 O1396 O 0.47537 0.27903 0.71840
 O1397 O 0.45038 0.23859 0.76175
 O1398 O 0.45897 0.21055 0.75975
 O1399 O 0.48858 0.26094 0.78676
 O1400 O 0.51932 0.26188 0.78262
 O1401 O 0.48780 0.28237 0.76718
 O1402 O 0.51828 0.28016 0.76651
 O1403 O 0.46959 0.24109 0.78396
 O1404 O 0.47545 0.21192 0.77830
 O1405 O 0.45039 0.25913 0.74411
 O1406 O 0.45608 0.25787 0.71663
 O1407 O 0.51790 0.20178 0.74323
 O1408 O 0.51523 0.20712 0.77157
 O1409 O 0.53909 0.24529 0.72601
 O1410 O 0.53081 0.27313 0.72969
 O1411 O 0.49959 0.22409 0.70078
 O1412 O 0.46980 0.22181 0.70550
 Zr1413 Zr 0.48814 0.22316 0.72340
 O1414 O 0.47064 0.23520 0.73709
 Zr1415 Zr 0.51476 0.25340 0.72625
 O1416 O 0.49828 0.26688 0.74019
 Zr1417 Zr 0.51519 0.22452 0.75338
 O1418 O 0.49872 0.23656 0.76850
 Zr1419 Zr 0.47420 0.25983 0.73469
 O1420 O 0.49050 0.24782 0.71911
 Zr1421 Zr 0.47465 0.23073 0.76154
 O1422 O 0.49110 0.21713 0.74774
 Zr1423 Zr 0.50108 0.26117 0.76460
 O1424 O 0.51900 0.24918 0.75082
 O1425 O 0.51206 0.22908 0.72919
 O1426 O 0.47703 0.25520 0.75894
 C1427 C 0.51198 0.19545 0.73037
 C1428 C 0.51169 0.23241 0.69540
 C1429 C 0.54592 0.23331 0.73270
 C1430 C 0.47545 0.28779 0.75949
 C1431 C 0.44343 0.25022 0.75467
 C1432 C 0.47603 0.25291 0.79163
 H1433 H 0.45955 0.23190 0.73352
 H1434 H 0.50078 0.23381 0.77983
 H1435 H 0.51974 0.22305 0.72243
 H1436 H 0.49990 0.27839 0.73827
 H1437 H 0.48064 0.27494 0.70853
 H1438 H 0.50792 0.27982 0.71205
 H1439 H 0.48287 0.21519 0.78714
 H1440 H 0.50456 0.20144 0.77083
 H1441 H 0.46162 0.25410 0.70679
 H1442 H 0.47144 0.23104 0.69834
 H1443 H 0.51781 0.25236 0.78940
 H1444 H 0.53755 0.23729 0.77131
 H1445 H 0.47222 0.19809 0.73252
 H1446 H 0.45282 0.21138 0.74958
 H1447 H 0.53603 0.27176 0.74030
 H1448 H 0.51653 0.28737 0.75736
 O1449 O 0.26760 0.78625 0.49629
 O1450 O 0.26622 0.77948 0.52531
 O1451 O 0.29447 0.74710 0.47707
 O1452 O 0.29184 0.72032 0.47680
 O1453 O 0.25035 0.76313 0.45503
 O1454 O 0.22140 0.75707 0.46081
 O1455 O 0.25109 0.70132 0.51910
 O1456 O 0.28019 0.70631 0.51372
 O1457 O 0.23019 0.73698 0.53892
 O1458 O 0.23148 0.76761 0.53472
 O1459 O 0.21085 0.71709 0.50102
 O1460 O 0.21512 0.72140 0.47003
 O1461 O 0.23360 0.69861 0.49800
 O1462 O 0.23294 0.70428 0.46990
 O1463 O 0.20866 0.73800 0.51831
 O1464 O 0.21271 0.76644 0.51864
 O1465 O 0.25316 0.72204 0.53951
 O1466 O 0.28073 0.72623 0.53366
 O1467 O 0.24703 0.78445 0.47792
 O1468 O 0.21956 0.77533 0.47810
 O1469 O 0.27128 0.74557 0.45449
 O1470 O 0.27109 0.71716 0.45990
 O1471 O 0.29233 0.76675 0.49592
 O1472 O 0.28863 0.76587 0.52252
 Zr1473 Zr 0.26912 0.76323 0.50602
 O1474 O 0.25655 0.74769 0.52161
 Zr1475 Zr 0.27137 0.73542 0.47756
 O1476 O 0.25832 0.71873 0.49170
 Zr1477 Zr 0.24010 0.76035 0.47810
 O1478 O 0.22587 0.74516 0.49267
 Zr1479 Zr 0.26214 0.72397 0.51608
 O1480 O 0.27671 0.73959 0.50202
 Zr1481 Zr 0.23144 0.74942 0.51699
 O1482 O 0.24388 0.76618 0.50248
 Zr1483 Zr 0.23297 0.72159 0.48845
 O1484 O 0.24613 0.73670 0.47259
 O1485 O 0.26515 0.75895 0.48177
 O1486 O 0.23712 0.72582 0.51269
 C1487 C 0.25815 0.79225 0.48564
 C1488 C 0.30009 0.75929 0.48486
 C1489 C 0.26246 0.75634 0.44805
 C1490 C 0.24022 0.69354 0.51092
 C1491 C 0.23978 0.72702 0.54566
 C1492 C 0.20339 0.72495 0.51207
 H1493 H 0.25930 0.75030 0.53289
 H1494 H 0.21415 0.74673 0.49037
 H1495 H 0.27147 0.76654 0.47508
 H1496 H 0.26170 0.70777 0.48910
 H1497 H 0.28997 0.71163 0.50908
 H1498 H 0.28873 0.71031 0.48225
 H1499 H 0.20625 0.76569 0.50862
 H1500 H 0.21914 0.78036 0.48888
 H1501 H 0.29015 0.73161 0.52842
 H1502 H 0.28658 0.75817 0.53124
 H1503 H 0.20543 0.72711 0.47405
 H1504 H 0.22398 0.74725 0.45476
 H1505 H 0.25559 0.78473 0.52372
 H1506 H 0.23909 0.76457 0.54336
 H1507 H 0.26048 0.71777 0.45421
 H1508 H 0.24408 0.69989 0.46935
 O1509 O 0.27251 0.29055 0.98406
 O1510 O 0.26538 0.28975 1.01230
 O1511 O 0.29859 0.24809 0.97650
 O1512 O 0.29454 0.22193 0.98034
 O1513 O 0.26056 0.26143 0.94463
 O1514 O 0.23108 0.25910 0.94535
 O1515 O 0.24720 0.21034 1.01590
 O1516 O 0.27614 0.21629 1.01715
 O1517 O 0.22283 0.25148 1.02593
 O1518 O 0.22432 0.27851 1.01743
 O1519 O 0.21010 0.22536 0.98531
 O1520 O 0.22139 0.22205 0.95850
 O1521 O 0.23205 0.20594 0.99338
 O1522 O 0.23941 0.20710 0.96410
 O1523 O 0.20600 0.24707 1.00113
 O1524 O 0.21257 0.27662 0.99577
 O1525 O 0.24288 0.23441 1.03291
 O1526 O 0.27064 0.23810 1.03377
 O1527 O 0.25639 0.28635 0.96206
 O1528 O 0.22741 0.27942 0.96018
 O1529 O 0.28038 0.24370 0.95083
 O1530 O 0.27682 0.21615 0.96129
 O1531 O 0.29453 0.27075 0.99102
 O1532 O 0.28317 0.27322 1.01902
 Zr1533 Zr 0.26959 0.26959 0.99765
 O1534 O 0.25262 0.25737 1.01235
 Zr1535 Zr 0.27523 0.23745 0.97489
 O1536 O 0.25878 0.22382 0.98881
 Zr1537 Zr 0.24634 0.26341 0.96545
 O1538 O 0.22858 0.25070 0.97855
 Zr1539 Zr 0.25772 0.23301 1.01230
 O1540 O 0.27607 0.24540 0.99905
 Zr1541 Zr 0.22901 0.25863 1.00251
 O1542 O 0.24564 0.27275 0.98896
 Zr1543 Zr 0.23508 0.22664 0.97963
 O1544 O 0.25175 0.23900 0.96465
 O1545 O 0.26994 0.26145 0.97415
 O1546 O 0.23402 0.23446 1.00339
 C1547 C 0.26670 0.29464 0.97037
 C1548 C 0.30353 0.26140 0.98261
 C1549 C 0.27351 0.25359 0.94132
 C1550 C 0.23746 0.20180 1.00719
 C1551 C 0.22958 0.24190 1.03579
 C1552 C 0.20102 0.23427 0.99401
 H1553 H 0.25312 0.26175 1.02339
 H1554 H 0.21777 0.25214 0.97349
 H1555 H 0.27795 0.26738 0.96752
 H1556 H 0.26212 0.21257 0.98884
 H1557 H 0.28672 0.22145 1.01434
 H1558 H 0.29027 0.21415 0.98820
 H1559 H 0.20612 0.27258 0.98652
 H1560 H 0.22675 0.28688 0.96940
 H1561 H 0.28076 0.24383 1.03063
 H1562 H 0.29202 0.26532 1.01906
 H1563 H 0.21483 0.23158 0.95630
 H1564 H 0.23320 0.24808 0.94174
 H1565 H 0.25493 0.29430 1.00865
 H1566 H 0.23441 0.28084 1.02360
 H1567 H 0.26829 0.21658 0.95288
 H1568 H 0.24818 0.20067 0.96888
 C1569 C 0.29854 0.37447 0.78354
 C1570 C 0.29119 0.38879 0.77938
 C1571 C 0.27517 0.39205 0.78472
 C1572 C 0.26650 0.38055 0.79354
 C1573 C 0.27389 0.36622 0.79755
 C1574 C 0.29011 0.36319 0.79290
 C1575 C 0.26825 0.40686 0.78144
 C1576 C 0.27717 0.41837 0.77284
 C1577 C 0.29296 0.41477 0.76699
 C1578 C 0.29987 0.40006 0.77035
 C1579 C 0.30172 0.42605 0.75807
 C1580 C 0.29514 0.44095 0.75528
 C1581 C 0.27977 0.44498 0.76160
 C1582 C 0.27072 0.43353 0.77021
 H1583 H 0.31113 0.37249 0.78008
 H1584 H 0.25413 0.38274 0.79758
 H1585 H 0.26698 0.35762 0.80452
 H1586 H 0.25608 0.40950 0.78580
 H1587 H 0.31212 0.39747 0.76613
 H1588 H 0.31378 0.42344 0.75342
 H1589 H 0.30236 0.44947 0.74852
 H1590 H 0.25880 0.43644 0.77501
 C1591 C 0.30440 -0.11508 0.30913
 C1592 C 0.30000 -0.10151 0.30052
 C1593 C 0.31218 -0.09048 0.29562
 C1594 C 0.32856 -0.09335 0.29926
 C1595 C 0.33292 -0.10703 0.30754
 C1596 C 0.32093 -0.11814 0.31273
 C1597 C 0.30778 -0.07674 0.28725
 C1598 C 0.29130 -0.07390 0.28371
 C1599 C 0.27915 -0.08509 0.28846
 C1600 C 0.28358 -0.09882 0.29674
 C1601 C 0.26268 -0.08218 0.28519
 C1602 C 0.25819 -0.06804 0.27786
 C1603 C 0.27008 -0.05668 0.27339
 C1604 C 0.28669 -0.05983 0.27598
 H1605 H 0.29488 -0.12358 0.31235
 H1606 H 0.33803 -0.08495 0.29582
 H1607 H 0.34571 -0.10846 0.31044
 H1608 H 0.31713 -0.06821 0.28367
 H1609 H 0.27421 -0.10730 0.30046
 H1610 H 0.25323 -0.09063 0.28871
 H1611 H 0.24532 -0.06582 0.27598
 H1612 H 0.29590 -0.05100 0.27279
 C1613 C 0.79557 0.87782 0.80247
 C1614 C 0.79040 0.89185 0.79494
 C1615 C 0.80128 0.90019 0.78469
 C1616 C 0.81716 0.89481 0.78250
 C1617 C 0.82222 0.88101 0.78997
 C1618 C 0.81148 0.87191 0.79975
 C1619 C 0.79620 0.91386 0.77677
 C1620 C 0.78040 0.91955 0.77908
 C1621 C 0.76951 0.91156 0.78958
 C1622 C 0.77452 0.89764 0.79734
 C1623 C 0.75389 0.91780 0.79223
 C1624 C 0.74928 0.93192 0.78474
 C1625 C 0.76005 0.93977 0.77416
 C1626 C 0.77551 0.93337 0.77127
 H1627 H 0.78688 0.87123 0.80976
 H1628 H 0.82576 0.90133 0.77502
 H1629 H 0.83488 0.87784 0.78834
 H1630 H 0.80458 0.92012 0.76884
 H1631 H 0.76614 0.89140 0.80529
 H1632 H 0.74537 0.91192 0.80029
 H1633 H 0.73733 0.93673 0.78723
 H1634 H 0.78401 0.93951 0.76340
 C1635 C 0.45186 0.86482 0.31644
 C1636 C 0.45686 0.85024 0.30973
 C1637 C 0.44530 0.84043 0.30158
 C1638 C 0.42893 0.84497 0.30079
 C1639 C 0.42411 0.85943 0.30740
 C1640 C 0.43553 0.86969 0.31493
 C1641 C 0.45028 0.82639 0.29403
 C1642 C 0.46671 0.82193 0.29449
 C1643 C 0.47824 0.83127 0.30315
 C1644 C 0.47325 0.84543 0.31069
 C1645 C 0.49457 0.82629 0.30395
 C1646 C 0.49944 0.81238 0.29598
 C1647 C 0.48813 0.80352 0.28680
 C1648 C 0.47176 0.80830 0.28625
 H1649 H 0.46075 0.87261 0.32226
 H1650 H 0.41989 0.83747 0.29481
 H1651 H 0.41138 0.86270 0.30646
 H1652 H 0.44142 0.81905 0.28756
 H1653 H 0.48213 0.85279 0.31708
 H1654 H 0.50357 0.83318 0.31068
 H1655 H 0.51207 0.80873 0.29668
 H1656 H 0.46289 0.80127 0.27949
 C1657 C -0.04401 0.87064 0.80350
 C1658 C -0.03946 0.85589 0.79704
 C1659 C -0.05045 0.84718 0.78719
 C1660 C -0.06577 0.85359 0.78378
 C1661 C -0.07032 0.86827 0.79037
 C1662 C -0.05966 0.87700 0.80065
 C1663 C -0.04598 0.83218 0.78108
 C1664 C -0.03065 0.82578 0.78485
 C1665 C -0.01966 0.83468 0.79462
 C1666 C -0.02407 0.84967 0.80051
 C1667 C -0.00447 0.82839 0.79860
 C1668 C -0.00022 0.81327 0.79325
 C1669 C -0.01098 0.80411 0.78364
 C1670 C -0.02617 0.81055 0.77928
 H1671 H -0.03501 0.87724 0.81047
 H1672 H -0.07440 0.84712 0.77623
 H1673 H -0.08259 0.87222 0.78797
 H1674 H -0.05447 0.82545 0.77359
 H1675 H -0.01560 0.85638 0.80807
 H1676 H 0.00408 0.83508 0.80605
 H1677 H 0.01159 0.80873 0.79669
 H1678 H -0.03462 0.80360 0.77195
 C1679 C -0.02071 -0.14427 -0.03137
 C1680 C -0.01798 -0.12875 -0.02571
 C1681 C -0.01953 -0.12536 -0.00912
 C1682 C -0.02324 -0.13772 0.00157
 C1683 C -0.02628 -0.15312 -0.00423
 C1684 C -0.02541 -0.15642 -0.02078
 C1685 C -0.01791 -0.10963 -0.00360
 C1686 C -0.01492 -0.09725 -0.01450
 C1687 C -0.01299 -0.10074 -0.03103
 C1688 C -0.01447 -0.11647 -0.03652
 C1689 C -0.00974 -0.08842 -0.04185
 C1690 C -0.00842 -0.07275 -0.03637
 C1691 C -0.01061 -0.06909 -0.02002
 C1692 C -0.01389 -0.08142 -0.00913
 H1693 H -0.02031 -0.14664 -0.04418
 H1694 H -0.02439 -0.13537 0.01433
 H1695 H -0.02987 -0.16236 0.00412
 H1696 H -0.01930 -0.10698 0.00909
 H1697 H -0.01324 -0.11910 -0.04923
 H1698 H -0.00816 -0.09090 -0.05454
 H1699 H -0.00571 -0.06347 -0.04496
 H1700 H -0.01533 -0.07874 0.00354
 C1701 C -0.05504 0.38106 0.45050
 C1702 C -0.04670 0.39455 0.45660
 C1703 C -0.02961 0.39611 0.45456
 C1704 C -0.02104 0.38387 0.44711
 C1705 C -0.02931 0.37040 0.44130
 C1706 C -0.04656 0.36884 0.44239
 C1707 C -0.02135 0.40991 0.45990
 C1708 C -0.02995 0.42213 0.46753
 C1709 C -0.04697 0.42029 0.47015
 C1710 C -0.05526 0.40662 0.46454
 C1711 C -0.05547 0.43222 0.47825
 C1712 C -0.04732 0.44603 0.48334
 C1713 C -0.03053 0.44838 0.48019
 C1714 C -0.02186 0.43623 0.47241
 H1715 H -0.06823 0.38070 0.45145
 H1716 H -0.00786 0.38467 0.44580
 H1717 H -0.02186 0.36108 0.43630
 H1718 H -0.00826 0.41117 0.45805
 H1719 H -0.06837 0.40542 0.46629
 H1720 H -0.06849 0.43099 0.48045
 H1721 H -0.05438 0.45516 0.48926
 H1722 H -0.00891 0.43781 0.47000
 C1723 C 0.46137 -0.14779 0.47255
 C1724 C 0.46690 -0.13213 0.47569
 C1725 C 0.47531 -0.12355 0.46362
 C1726 C 0.47782 -0.13057 0.44861
 C1727 C 0.47235 -0.14605 0.44556
 C1728 C 0.46426 -0.15516 0.45749
 C1729 C 0.48112 -0.10807 0.46669
 C1730 C 0.47859 -0.10094 0.48171
 C1731 C 0.47002 -0.10936 0.49380
 C1732 C 0.46428 -0.12493 0.49074
 C1733 C 0.46728 -0.10199 0.50870
 C1734 C 0.47290 -0.08643 0.51155
 C1735 C 0.48156 -0.07803 0.49964
 C1736 C 0.48441 -0.08544 0.48475
 H1737 H 0.45552 -0.15435 0.48217
 H1738 H 0.48398 -0.12404 0.43913
 H1739 H 0.47406 -0.15056 0.43349
 H1740 H 0.48760 -0.10157 0.45738
 H1741 H 0.45778 -0.13142 0.50005
 H1742 H 0.46071 -0.10822 0.51812
 H1743 H 0.47052 -0.08098 0.52313
 H1744 H 0.49087 -0.07901 0.47537
 C1745 C 0.44469 0.38520 -0.05535
 C1746 C 0.45329 0.39837 -0.04914
 C1747 C 0.46383 0.40728 -0.05918
 C1748 C 0.46559 0.40282 -0.07530
 C1749 C 0.45697 0.38968 -0.08146
 C1750 C 0.44640 0.38053 -0.07160
 C1751 C 0.47220 0.42064 -0.05302
 C1752 C 0.46988 0.42535 -0.03700
 C1753 C 0.45947 0.41631 -0.02690
 C1754 C 0.45143 0.40275 -0.03297
 C1755 C 0.45687 0.42124 -0.01102
 C1756 C 0.46396 0.43539 -0.00536
 C1757 C 0.47404 0.44468 -0.01540
 C1758 C 0.47732 0.43931 -0.03109
 H1759 H 0.43729 0.37822 -0.04715
 H1760 H 0.47344 0.40967 -0.08325
 H1761 H 0.45827 0.38712 -0.09413
 H1762 H 0.48014 0.42761 -0.06079
 H1763 H 0.44335 0.39588 -0.02524
 H1764 H 0.44892 0.41444 -0.00313
 H1765 H 0.46124 0.43925 0.00677
 H1766 H 0.48498 0.44640 -0.03900
 C1767 C 0.80754 0.36030 0.42572
 C1768 C 0.80082 0.34835 0.43553
 C1769 C 0.80694 0.34622 0.45123
 C1770 C 0.81964 0.35609 0.45686
 C1771 C 0.82582 0.36834 0.44728
 C1772 C 0.81981 0.37072 0.43162
 C1773 C 0.79997 0.33459 0.46123
 C1774 C 0.78652 0.32544 0.45595
 C1775 C 0.78026 0.32773 0.44031
 C1776 C 0.78766 0.33890 0.43009
 C1777 C 0.76655 0.31895 0.43520
 C1778 C 0.75917 0.30788 0.44540
 C1779 C 0.76549 0.30515 0.46086
 C1780 C 0.77919 0.31407 0.46607
 H1781 H 0.80293 0.36165 0.41362
 H1782 H 0.82443 0.35469 0.46889
 H1783 H 0.83494 0.37628 0.45246
 H1784 H 0.80475 0.33292 0.47324
 H1785 H 0.78287 0.34056 0.41807
 H1786 H 0.76159 0.32052 0.42326
 H1787 H 0.74883 0.30102 0.44087
 H1788 H 0.78429 0.31203 0.47788
 C1789 C 0.79361 0.88947 -0.03374
 C1790 C 0.78667 0.87478 -0.02914
 C1791 C 0.76978 0.87182 -0.03148
 C1792 C 0.76002 0.88373 -0.03782
 C1793 C 0.76697 0.89820 -0.04250
 C1794 C 0.78397 0.90124 -0.04104
 C1795 C 0.76293 0.85691 -0.02774
 C1796 C 0.77278 0.84480 -0.02181
 C1797 C 0.78961 0.84783 -0.01907
 C1798 C 0.79645 0.86280 -0.02272
 C1799 C 0.79939 0.83573 -0.01297
 C1800 C 0.79263 0.82069 -0.00991
 C1801 C 0.77599 0.81742 -0.01298
 C1802 C 0.76611 0.82962 -0.01882
 H1803 H 0.80671 0.89113 -0.03260
 H1804 H 0.74698 0.88179 -0.03937
 H1805 H 0.75878 0.90710 -0.04703
 H1806 H 0.74999 0.85464 -0.02975
 H1807 H 0.80941 0.86502 -0.02083
 H1808 H 0.81230 0.83782 -0.01075
 H1809 H 0.80056 0.81149 -0.00547
 H1810 H 0.75324 0.82729 -0.02112
 C1811 C 0.79647 0.31543 0.37587
 C1812 C 0.79132 0.30616 0.38891
 C1813 C 0.80226 0.30332 0.40171
 C1814 C 0.81797 0.31023 0.40145
 C1815 C 0.82317 0.31899 0.38813
 C1816 C 0.81257 0.32135 0.37513
 C1817 C 0.79755 0.29308 0.41416
 C1818 C 0.78218 0.28543 0.41380
 C1819 C 0.77110 0.28862 0.40122
 C1820 C 0.77572 0.29903 0.38891
 C1821 C 0.75555 0.28134 0.40118
 C1822 C 0.75093 0.27112 0.41359
 C1823 C 0.76194 0.26769 0.42594
 C1824 C 0.77761 0.27477 0.42592
 H1825 H 0.78836 0.31705 0.36573
 H1826 H 0.82648 0.30826 0.41120
 H1827 H 0.83566 0.32345 0.38768
 H1828 H 0.80596 0.29077 0.42392
 H1829 H 0.76731 0.30130 0.37914
 H1830 H 0.74687 0.28377 0.39172
 H1831 H 0.73867 0.26606 0.41370
 H1832 H 0.78591 0.27262 0.43580
 C1833 C 0.79717 0.81059 -0.12987
 C1834 C 0.79260 0.80330 -0.11532
 C1835 C 0.80485 0.79800 -0.10470
 C1836 C 0.82135 0.80060 -0.10842
 C1837 C 0.82576 0.80789 -0.12279
 C1838 C 0.81380 0.81258 -0.13386
 C1839 C 0.80047 0.79006 -0.09057
 C1840 C 0.78398 0.78755 -0.08669
 C1841 C 0.77165 0.79330 -0.09695
 C1842 C 0.77603 0.80100 -0.11130
 C1843 C 0.75516 0.79137 -0.09256
 C1844 C 0.75097 0.78395 -0.07809
 C1845 C 0.76317 0.77789 -0.06810
 C1846 C 0.77964 0.77961 -0.07253
 H1847 H 0.78784 0.81417 -0.13829
 H1848 H 0.83087 0.79683 -0.10030
 H1849 H 0.83864 0.80964 -0.12537
 H1850 H 0.80991 0.78586 -0.08256
 H1851 H 0.76659 0.80521 -0.11930
 H1852 H 0.74553 0.79581 -0.10017
 H1853 H 0.73821 0.78288 -0.07471
 H1854 H 0.78910 0.77529 -0.06461
 C1855 C 0.32157 0.43068 0.85853
 C1856 C 0.31557 0.44182 0.84757
 C1857 C 0.32648 0.44958 0.83689
 C1858 C 0.34313 0.44592 0.83723
 C1859 C 0.34899 0.43485 0.84815
 C1860 C 0.33836 0.42730 0.85907
 C1861 C 0.32063 0.46097 0.82617
 C1862 C 0.30396 0.46468 0.82593
 C1863 C 0.29302 0.45684 0.83653
 C1864 C 0.29890 0.44552 0.84732
 C1865 C 0.27629 0.46025 0.83596
 C1866 C 0.27038 0.47100 0.82472
 C1867 C 0.28113 0.47883 0.81414
 C1868 C 0.29797 0.47583 0.81499
 H1869 H 0.31329 0.42510 0.86704
 H1870 H 0.35166 0.45185 0.82928
 H1871 H 0.36192 0.43234 0.84825
 H1872 H 0.32902 0.46690 0.81799
 H1873 H 0.29050 0.43955 0.85547
 H1874 H 0.26773 0.45432 0.84395
 H1875 H 0.25735 0.47304 0.82410
 H1876 H 0.30628 0.48153 0.80657
 C1877 C 0.29500 -0.04515 0.38275
 C1878 C 0.28676 -0.03927 0.36940
 C1879 C 0.26999 -0.04288 0.36714
 C1880 C 0.26169 -0.05212 0.37860
 C1881 C 0.26993 -0.05763 0.39217
 C1882 C 0.28669 -0.05419 0.39439
 C1883 C 0.26188 -0.03714 0.35352
 C1884 C 0.27031 -0.02756 0.34238
 C1885 C 0.28701 -0.02368 0.34502
 C1886 C 0.29514 -0.02971 0.35836
 C1887 C 0.29540 -0.01381 0.33429
 C1888 C 0.28742 -0.00787 0.32093
 C1889 C 0.27094 -0.01185 0.31787
 C1890 C 0.26240 -0.02177 0.32864
 H1891 H 0.30800 -0.04274 0.38397
 H1892 H 0.24880 -0.05496 0.37716
 H1893 H 0.26313 -0.06443 0.40099
 H1894 H 0.24904 -0.04003 0.35165
 H1895 H 0.30799 -0.02683 0.36022
 H1896 H 0.30818 -0.01074 0.33617
 H1897 H 0.29438 -0.00047 0.31271
 H1898 H 0.24971 -0.02490 0.32635
 C1899 C -0.05416 -0.05121 -0.12485
 C1900 C -0.04670 -0.04665 -0.11028
 C1901 C -0.03802 -0.05795 -0.10133
 C1902 C -0.03726 -0.07365 -0.10688
 C1903 C -0.04494 -0.07819 -0.12119
 C1904 C -0.05344 -0.06710 -0.13067
 C1905 C -0.03031 -0.05342 -0.08693
 C1906 C -0.03145 -0.03776 -0.08116
 C1907 C -0.04045 -0.02649 -0.08989
 C1908 C -0.04784 -0.03095 -0.10450
 C1909 C -0.04206 -0.01101 -0.08373
 C1910 C -0.03494 -0.00677 -0.06900
 C1911 C -0.02575 -0.01782 -0.06039
 C1912 C -0.02395 -0.03327 -0.06664
 H1913 H -0.05993 -0.04204 -0.13179
 H1914 H -0.03088 -0.08253 -0.10001
 H1915 H -0.04455 -0.09067 -0.12433
 H1916 H -0.02356 -0.06212 -0.08013
 H1917 H -0.05463 -0.02226 -0.11126
 H1918 H -0.04899 -0.00223 -0.09020
 H1919 H -0.03653 0.00518 -0.06437
 H1920 H -0.01713 -0.04195 -0.05994
 C1921 C -0.05738 0.44391 0.37418
 C1922 C -0.05158 0.45256 0.38760
 C1923 C -0.06256 0.46170 0.39682
 C1924 C -0.07918 0.46150 0.39300
 C1925 C -0.08481 0.45314 0.37957
 C1926 C -0.07396 0.44473 0.36949
 C1927 C -0.05674 0.47123 0.40949
 C1928 C -0.04004 0.47173 0.41316
 C1929 C -0.02904 0.46222 0.40435
 C1930 C -0.03487 0.45271 0.39158
 C1931 C -0.01240 0.46243 0.40849
 C1932 C -0.00676 0.47186 0.42131
 C1933 C -0.01760 0.48157 0.42987
 C1934 C -0.03421 0.48153 0.42563
 H1935 H -0.04863 0.43770 0.36676
 H1936 H -0.08782 0.46816 0.40017
 H1937 H -0.09781 0.45330 0.37716
 H1938 H -0.06518 0.47846 0.41633
 H1939 H -0.02640 0.44563 0.38463
 H1940 H -0.00379 0.45514 0.40196
 H1941 H 0.00605 0.47157 0.42457
 H1942 H -0.04271 0.48870 0.43243
 C1943 C 0.44695 -0.06708 0.38319
 C1944 C 0.45174 -0.06010 0.39787
 C1945 C 0.44009 -0.05216 0.40745
 C1946 C 0.42378 -0.05164 0.40233
 C1947 C 0.41908 -0.05872 0.38778
 C1948 C 0.43060 -0.06637 0.37793
 C1949 C 0.44494 -0.04482 0.42193
 C1950 C 0.46128 -0.04544 0.42703
 C1951 C 0.47285 -0.05367 0.41761
 C1952 C 0.46804 -0.06085 0.40306
 C1953 C 0.48907 -0.05462 0.42291
 C1954 C 0.49383 -0.04749 0.43741
 C1955 C 0.48254 -0.03906 0.44678
 C1956 C 0.46624 -0.03804 0.44147
 H1957 H 0.45603 -0.07275 0.37570
 H1958 H 0.41465 -0.04574 0.40958
 H1959 H 0.40636 -0.05824 0.38425
 H1960 H 0.43600 -0.03864 0.42921
 H1961 H 0.47697 -0.06704 0.39579
 H1962 H 0.49807 -0.06095 0.41588
 H1963 H 0.50643 -0.04847 0.44123
 H1964 H 0.45736 -0.03177 0.44871
 C1965 C 0.43308 0.44482 -0.11451
 C1966 C 0.43957 0.45199 -0.10058
 C1967 C 0.44064 0.44309 -0.08629
 C1968 C 0.43494 0.42727 -0.08614
 C1969 C 0.42887 0.42009 -0.10016
 C1970 C 0.42804 0.42875 -0.11448
 C1971 C 0.44779 0.45000 -0.07255
 C1972 C 0.45427 0.46556 -0.07305
 C1973 C 0.45282 0.47460 -0.08723
 C1974 C 0.44540 0.46778 -0.10087
 C1975 C 0.45895 0.49029 -0.08755
 C1976 C 0.46667 0.49690 -0.07402
 C1977 C 0.46867 0.48781 -0.06015
 C1978 C 0.46228 0.47221 -0.05964
 H1979 H 0.43258 0.45154 -0.12557
 H1980 H 0.43549 0.42034 -0.07526
 H1981 H 0.42490 0.40775 -0.09985
 H1982 H 0.44860 0.44319 -0.06158
 H1983 H 0.44447 0.47465 -0.11180
 H1984 H 0.45778 0.49744 -0.09825
 H1985 H 0.47123 0.50906 -0.07443
 H1986 H 0.46328 0.46541 -0.04868
 C1987 C 0.46032 0.76878 0.39370
 C1988 C 0.46623 0.76421 0.37859
 C1989 C 0.48324 0.76480 0.37552
 C1990 C 0.49406 0.76952 0.38776
 C1991 C 0.48805 0.77428 0.40271
 C1992 C 0.47114 0.77421 0.40571
 C1993 C 0.48910 0.76114 0.36014
 C1994 C 0.47816 0.75715 0.34775
 C1995 C 0.46118 0.75622 0.35091
 C1996 C 0.45533 0.75967 0.36634
 C1997 C 0.45031 0.75217 0.33848
 C1998 C 0.45616 0.74938 0.32297
 C1999 C 0.47298 0.75070 0.31961
 C2000 C 0.48392 0.75440 0.33215
 H2001 H 0.44724 0.76893 0.39582
 H2002 H 0.50714 0.76996 0.38564
 H2003 H 0.49658 0.77833 0.41185
 H2004 H 0.50213 0.76180 0.35772
 H2005 H 0.44228 0.75919 0.36872
 H2006 H 0.43726 0.75138 0.34070
 H2007 H 0.44747 0.74652 0.31354
 H2008 H 0.49694 0.75530 0.32976
 C2009 C -0.03565 0.77930 0.90018
 C2010 C -0.02848 0.77433 0.88571
 C2011 C -0.01132 0.77484 0.88395
 C2012 C -0.00158 0.77979 0.89689
 C2013 C -0.00875 0.78458 0.91132
 C2014 C -0.02595 0.78477 0.91322
 C2015 C -0.00416 0.77047 0.86928
 C2016 C -0.01400 0.76543 0.85637
 C2017 C -0.03118 0.76450 0.85829
 C2018 C -0.03831 0.76907 0.87288
 C2019 C -0.04098 0.75903 0.84555
 C2020 C -0.03386 0.75457 0.83102
 C2021 C -0.01684 0.75576 0.82886
 C2022 C -0.00695 0.76126 0.84157
 H2023 H -0.04885 0.77966 0.90071
 H2024 H 0.01164 0.77995 0.89587
 H2025 H -0.00057 0.78774 0.92106
 H2026 H 0.00903 0.77104 0.86789
 H2027 H -0.05151 0.76855 0.87424
 H2028 H -0.05416 0.75819 0.84683
 H2029 H -0.04170 0.75045 0.82131
 H2030 H 0.00620 0.76208 0.84000
 C2031 C 0.38231 0.81502 0.30751
 C2032 C 0.39539 0.80579 0.30215
 C2033 C 0.40430 0.79671 0.31327
 C2034 C 0.40027 0.79740 0.32962
 C2035 C 0.38726 0.80670 0.33487
 C2036 C 0.37798 0.81541 0.32387
 C2037 C 0.41693 0.78693 0.30783
 C2038 C 0.42081 0.78622 0.29143
 C2039 C 0.41222 0.79568 0.28038
 C2040 C 0.39951 0.80534 0.28580
 C2041 C 0.41656 0.79536 0.26408
 C2042 C 0.42933 0.78580 0.25877
 C2043 C 0.43764 0.77610 0.26961
 C2044 C 0.43330 0.77632 0.28592
 H2045 H 0.37515 0.82146 0.29882
 H2046 H 0.40708 0.79064 0.33833
 H2047 H 0.38443 0.80700 0.34757
 H2048 H 0.42367 0.77982 0.31634
 H2049 H 0.39280 0.81246 0.27730
 H2050 H 0.41020 0.80264 0.25547
 H2051 H 0.43272 0.78594 0.24620
 H2052 H 0.44004 0.76921 0.29440
 C2053 C -0.12375 0.79266 0.79925
 C2054 C -0.10882 0.78701 0.79333
 C2055 C -0.09759 0.79772 0.78609
 C2056 C -0.10135 0.81385 0.78498
 C2057 C -0.11604 0.81942 0.79116
 C2058 C -0.12743 0.80893 0.79832
 C2059 C -0.08262 0.79223 0.78031
 C2060 C -0.07853 0.77623 0.78202
 C2061 C -0.08962 0.76548 0.78939
 C2062 C -0.10482 0.77089 0.79482
 C2063 C -0.08513 0.74958 0.79150
 C2064 C -0.06967 0.74449 0.78665
 C2065 C -0.05863 0.75514 0.77929
 C2066 C -0.06328 0.77095 0.77684
 H2067 H -0.13244 0.78441 0.80461
 H2068 H -0.09280 0.82222 0.77960
 H2069 H -0.11830 0.83206 0.79063
 H2070 H -0.07402 0.80048 0.77478
 H2071 H -0.11336 0.76267 0.80049
 H2072 H -0.09344 0.74117 0.79718
 H2073 H -0.06632 0.73225 0.78871
 H2074 H -0.05477 0.77935 0.77142
 C2075 C 0.87622 0.29861 0.43764
 C2076 C 0.86080 0.29394 0.44363
 C2077 C 0.84941 0.30563 0.44823
 C2078 C 0.85353 0.32177 0.44643
 C2079 C 0.86890 0.32631 0.44050
 C2080 C 0.88051 0.31483 0.43620
 C2081 C 0.83421 0.30099 0.45474
 C2082 C 0.83025 0.28480 0.45673
 C2083 C 0.84150 0.27313 0.45173
 C2084 C 0.85669 0.27777 0.44527
 C2085 C 0.83738 0.25697 0.45333
 C2086 C 0.82232 0.25236 0.45988
 C2087 C 0.81120 0.26381 0.46525
 C2088 C 0.81524 0.28006 0.46362
 H2089 H 0.88505 0.28961 0.43451
 H2090 H 0.84491 0.33089 0.44974
 H2091 H 0.87169 0.33887 0.43924
 H2092 H 0.82556 0.30997 0.45840
 H2093 H 0.86535 0.26878 0.44162
 H2094 H 0.84580 0.24787 0.44946
 H2095 H 0.81942 0.23980 0.46091
 H2096 H 0.80657 0.28897 0.46741
 C2097 C 0.89266 0.78079 -0.03760
 C2098 C 0.87579 0.77934 -0.03455
 C2099 C 0.86714 0.79262 -0.02867
 C2100 C 0.87526 0.80721 -0.02649
 C2101 C 0.89191 0.80862 -0.02978
 C2102 C 0.90090 0.79539 -0.03501
 C2103 C 0.85050 0.79113 -0.02496
 C2104 C 0.84228 0.77659 -0.02723
 C2105 C 0.85069 0.76341 -0.03367
 C2106 C 0.86745 0.76483 -0.03719
 C2107 C 0.84218 0.74903 -0.03637
 C2108 C 0.82559 0.74765 -0.03245
 C2109 C 0.81736 0.76054 -0.02552
 C2110 C 0.82576 0.77501 -0.02306
 H2111 H 0.89938 0.77050 -0.04166
 H2112 H 0.86875 0.81755 -0.02225
 H2113 H 0.89773 0.82018 -0.02825
 H2114 H 0.84397 0.80129 -0.02022
 H2115 H 0.87398 0.75467 -0.04189
 H2116 H 0.84837 0.73883 -0.04141
 H2117 H 0.81928 0.73639 -0.03445
 H2118 H 0.81938 0.78508 -0.01795
 C2119 C -0.13890 -0.04592 -0.03438
 C2120 C -0.12384 -0.03928 -0.02936
 C2121 C -0.12034 -0.02302 -0.03212
 C2122 C -0.13207 -0.01359 -0.03945
 C2123 C -0.14697 -0.02022 -0.04444
 C2124 C -0.15064 -0.03658 -0.04235
 C2125 C -0.10513 -0.01646 -0.02765
 C2126 C -0.09327 -0.02597 -0.02048
 C2127 C -0.09683 -0.04218 -0.01745
 C2128 C -0.11208 -0.04874 -0.02191
 C2129 C -0.08501 -0.05161 -0.01014
 C2130 C -0.06973 -0.04512 -0.00606
 C2131 C -0.06590 -0.02908 -0.00930
 C2132 C -0.07784 -0.01955 -0.01645
 H2133 H -0.14091 -0.05856 -0.03282
 H2134 H -0.12971 -0.00103 -0.04139
 H2135 H -0.15574 -0.01221 -0.04957
 H2136 H -0.10245 -0.00399 -0.02992
 H2137 H -0.11472 -0.06122 -0.01972
 H2138 H -0.08753 -0.06405 -0.00768
 H2139 H -0.06079 -0.05278 -0.00063
 H2140 H -0.07513 -0.00714 -0.01894
 C2141 C -0.11777 0.45126 0.42248
 C2142 C -0.10429 0.45825 0.43043
 C2143 C -0.09138 0.44859 0.43571
 C2144 C -0.09180 0.43228 0.43237
 C2145 C -0.10536 0.42536 0.42479
 C2146 C -0.11889 0.43458 0.42023
 C2147 C -0.07847 0.45528 0.44462
 C2148 C -0.07837 0.47152 0.44850
 C2149 C -0.09092 0.48138 0.44276
 C2150 C -0.10381 0.47467 0.43374
 C2151 C -0.09032 0.49777 0.44620
 C2152 C -0.07746 0.50427 0.45533
 C2153 C -0.06535 0.49439 0.46150
 C2154 C -0.06582 0.47807 0.45796
 H2155 H -0.12790 0.45878 0.41938
 H2156 H -0.08182 0.42477 0.43602
 H2157 H -0.10511 0.41268 0.42248
 H2158 H -0.06867 0.44781 0.44879
 H2159 H -0.11359 0.48217 0.42955
 H2160 H -0.09971 0.50555 0.44174
 H2161 H -0.07700 0.51696 0.45768
 H2162 H -0.05605 0.47058 0.46214
 C2163 C 0.36361 -0.04843 0.46552
 C2164 C 0.37907 -0.04221 0.46948
 C2165 C 0.38772 -0.03273 0.45832
 C2166 C 0.38053 -0.02932 0.44351
 C2167 C 0.36521 -0.03577 0.43951
 C2168 C 0.35663 -0.04585 0.45025
 C2169 C 0.40351 -0.02710 0.46202
 C2170 C 0.41080 -0.03103 0.47669
 C2171 C 0.40201 -0.04036 0.48793
 C2172 C 0.38615 -0.04574 0.48433
 C2173 C 0.40934 -0.04442 0.50250
 C2174 C 0.42534 -0.03951 0.50585
 C2175 C 0.43429 -0.03033 0.49473
 C2176 C 0.42685 -0.02602 0.48020
 H2177 H 0.35706 -0.05522 0.47453
 H2178 H 0.38699 -0.02206 0.43479
 H2179 H 0.36074 -0.03358 0.42752
 H2180 H 0.41024 -0.01995 0.45338
 H2181 H 0.37949 -0.05302 0.49291
 H2182 H 0.40276 -0.05157 0.51124
 H2183 H 0.43072 -0.04296 0.51716
 H2184 H 0.43361 -0.01901 0.47148
 C2185 C 0.39384 0.43640 -0.07083
 C2186 C 0.40305 0.44430 -0.05898
 C2187 C 0.41241 0.43547 -0.04805
 C2188 C 0.41232 0.41884 -0.04920
 C2189 C 0.40293 0.41099 -0.06093
 C2190 C 0.39337 0.41959 -0.07192
 C2191 C 0.42155 0.44343 -0.03612
 C2192 C 0.42125 0.46010 -0.03489
 C2193 C 0.41166 0.46887 -0.04571
 C2194 C 0.40268 0.46093 -0.05770
 C2195 C 0.41142 0.48551 -0.04456
 C2196 C 0.42117 0.49347 -0.03325
 C2197 C 0.43118 0.48495 -0.02276
 C2198 C 0.43079 0.46819 -0.02336
 H2199 H 0.38619 0.44353 -0.07846
 H2200 H 0.41942 0.41187 -0.04093
 H2201 H 0.40356 0.39816 -0.06152
 H2202 H 0.42889 0.43667 -0.02782
 H2203 H 0.39542 0.46770 -0.06606
 H2204 H 0.40410 0.49239 -0.05275
 H2205 H 0.42140 0.50636 -0.03316
 H2206 H 0.43871 0.46147 -0.01558
 C2207 C 0.37853 0.44662 0.80817
 C2208 C 0.36598 0.45339 0.79907
 C2209 C 0.35407 0.44342 0.79166
 C2210 C 0.35499 0.42688 0.79336
 C2211 C 0.36746 0.42027 0.80248
 C2212 C 0.37928 0.43004 0.81004
 C2213 C 0.34127 0.45013 0.78293
 C2214 C 0.34002 0.46670 0.78177
 C2215 C 0.35188 0.47669 0.78923
 C2216 C 0.36489 0.46996 0.79767
 C2217 C 0.35022 0.49325 0.78855
 C2218 C 0.33666 0.49986 0.78103
 C2219 C 0.32478 0.49003 0.77367
 C2220 C 0.32672 0.47346 0.77381
 H2221 H 0.38764 0.45425 0.81389
 H2222 H 0.34593 0.41907 0.78781
 H2223 H 0.36770 0.40747 0.80389
 H2224 H 0.33208 0.44246 0.77735
 H2225 H 0.37392 0.47763 0.80347
 H2226 H 0.35914 0.50109 0.79427
 H2227 H 0.33527 0.51265 0.78122
 H2228 H 0.31735 0.46580 0.76858
 C2229 C 0.37638 -0.04581 0.30463
 C2230 C 0.36320 -0.03939 0.29605
 C2231 C 0.35497 -0.04883 0.28442
 C2232 C 0.35979 -0.06448 0.28171
 C2233 C 0.37221 -0.07103 0.29086
 C2234 C 0.38091 -0.06185 0.30237
 C2235 C 0.34166 -0.04271 0.27601
 C2236 C 0.33594 -0.02747 0.27955
 C2237 C 0.34400 -0.01796 0.29124
 C2238 C 0.35781 -0.02385 0.29920
 C2239 C 0.33780 -0.00293 0.29508
 C2240 C 0.32343 0.00237 0.28782
 C2241 C 0.31520 -0.00713 0.27634
 C2242 C 0.32184 -0.02190 0.27202
 H2243 H 0.38290 -0.03827 0.31312
 H2244 H 0.35347 -0.07191 0.27295
 H2245 H 0.37457 -0.08353 0.28907
 H2246 H 0.33540 -0.05003 0.26709
 H2247 H 0.36398 -0.01658 0.30821
 H2248 H 0.34378 0.00454 0.30403
 H2249 H 0.31861 0.01378 0.29142
 H2250 H 0.31562 -0.02945 0.26328
 C2251 C 0.13316 0.55898 0.70163
 C2252 C 0.14598 0.55045 0.70856
 C2253 C 0.15039 0.53556 0.70202
 C2254 C 0.14163 0.52924 0.68899
 C2255 C 0.12853 0.53748 0.68257
 C2256 C 0.12415 0.55254 0.68864
 C2257 C 0.16340 0.52715 0.70865
 C2258 C 0.17181 0.53322 0.72205
 C2259 C 0.16702 0.54783 0.72900
 C2260 C 0.15432 0.55648 0.72206
 C2261 C 0.17511 0.55360 0.74270
 C2262 C 0.18822 0.54531 0.74912
 C2263 C 0.19368 0.53119 0.74181
 C2264 C 0.18512 0.52505 0.72845
 H2265 H 0.13025 0.57061 0.70642
 H2266 H 0.14471 0.51774 0.68395
 H2267 H 0.12162 0.53177 0.67301
 H2268 H 0.16695 0.51587 0.70340
 H2269 H 0.15085 0.56782 0.72724
 H2270 H 0.17155 0.56472 0.74825
 H2271 H 0.19462 0.55044 0.75934
 H2272 H 0.18914 0.51418 0.72268
 C2273 C 0.12120 0.05015 0.19864
 C2274 C 0.13606 0.04568 0.20570
 C2275 C 0.14896 0.05701 0.20721
 C2276 C 0.14707 0.07235 0.20116
 C2277 C 0.13237 0.07665 0.19412
 C2278 C 0.11915 0.06579 0.19313
 C2279 C 0.16353 0.05292 0.21483
 C2280 C 0.16554 0.03756 0.22078
 C2281 C 0.15295 0.02598 0.21886
 C2282 C 0.13820 0.03016 0.21146
 C2283 C 0.15547 0.01040 0.22424
 C2284 C 0.17036 0.00635 0.23134
 C2285 C 0.18264 0.01796 0.23362
 C2286 C 0.18014 0.03353 0.22839
 H2287 H 0.11111 0.04167 0.19792
 H2288 H 0.15693 0.08108 0.20202
 H2289 H 0.13128 0.08863 0.18958
 H2290 H 0.17331 0.06170 0.21613
 H2291 H 0.12844 0.02137 0.21015
 H2292 H 0.14605 0.00131 0.22274
 H2293 H 0.17229 -0.00579 0.23508
 H2294 H 0.18987 0.04235 0.22969
 C2295 C 0.61418 0.68044 0.19549
 C2296 C 0.60410 0.68976 0.20533
 C2297 C 0.60528 0.70654 0.20464
 C2298 C 0.61709 0.71372 0.19480
 C2299 C 0.62722 0.70440 0.18525
 C2300 C 0.62564 0.68769 0.18516
 C2301 C 0.59444 0.71590 0.21353
 C2302 C 0.58244 0.70869 0.22317
 C2303 C 0.58175 0.69192 0.22446
 C2304 C 0.59258 0.68256 0.21554
 C2305 C 0.56988 0.68477 0.23426
 C2306 C 0.55831 0.69406 0.24211
 C2307 C 0.55830 0.71071 0.24024
 C2308 C 0.57074 0.71796 0.23108
 H2309 H 0.61276 0.66761 0.19556
 H2310 H 0.61835 0.72656 0.19432
 H2311 H 0.63630 0.71034 0.17785
 H2312 H 0.59510 0.72876 0.21265
 H2313 H 0.59173 0.66969 0.21621
 H2314 H 0.56920 0.67195 0.23544
 H2315 H 0.54883 0.68806 0.24896
 H2316 H 0.57091 0.73075 0.22948
 C2317 C 0.12817 0.68865 0.70563
 C2318 C 0.11658 0.69841 0.71310
 C2319 C 0.10624 0.70780 0.70357
 C2320 C 0.10732 0.70704 0.68685
 C2321 C 0.11838 0.69688 0.67952
 C2322 C 0.12914 0.68772 0.68875
 C2323 C 0.09461 0.71750 0.71084
 C2324 C 0.09261 0.71737 0.72752
 C2325 C 0.10269 0.70784 0.73716
 C2326 C 0.11492 0.69868 0.72991
 C2327 C 0.09983 0.70712 0.75378
 C2328 C 0.08655 0.71507 0.76058
 C2329 C 0.07638 0.72436 0.75094
 C2330 C 0.07993 0.72591 0.73453
 H2331 H 0.13644 0.68191 0.71301
 H2332 H 0.09928 0.71398 0.67939
 H2333 H 0.11826 0.69608 0.66655
 H2334 H 0.08665 0.72463 0.70347
 H2335 H 0.12269 0.69134 0.73726
 H2336 H 0.10737 0.69981 0.76137
 H2337 H 0.08390 0.71356 0.77323
 H2338 H 0.07194 0.73272 0.72687
 C2339 C 0.63659 0.18343 0.56096
 C2340 C 0.64823 0.18955 0.55021
 C2341 C 0.65975 0.17927 0.54314
 C2342 C 0.65941 0.16306 0.54698
 C2343 C 0.64777 0.15706 0.55772
 C2344 C 0.63620 0.16715 0.56473
 C2345 C 0.67131 0.18532 0.53224
 C2346 C 0.67148 0.20154 0.52837
 C2347 C 0.66001 0.21184 0.53552
 C2348 C 0.64840 0.20576 0.54633
 C2349 C 0.66058 0.22813 0.53200
 C2350 C 0.67271 0.23426 0.52186
 C2351 C 0.68414 0.22412 0.51474
 C2352 C 0.68328 0.20771 0.51782
 H2353 H 0.62750 0.19128 0.56603
 H2354 H 0.66795 0.15499 0.54146
 H2355 H 0.64770 0.14450 0.56045
 H2356 H 0.68019 0.17744 0.52686
 H2357 H 0.63961 0.21365 0.55183
 H2358 H 0.65194 0.23620 0.53745
 H2359 H 0.67340 0.24697 0.51984
 H2360 H 0.69240 0.19989 0.51276
 C2361 C 0.63321 0.69622 0.06198
 C2362 C 0.64509 0.70250 0.05152
 C2363 C 0.65483 0.69208 0.04233
 C2364 C 0.65251 0.67561 0.04375
 C2365 C 0.64090 0.66946 0.05441
 C2366 C 0.63109 0.67966 0.06361
 C2367 C 0.66686 0.69828 0.03202
 C2368 C 0.66965 0.71475 0.03118
 C2369 C 0.66008 0.72519 0.04054
 C2370 C 0.64766 0.71901 0.05043
 C2371 C 0.66348 0.74160 0.04024
 C2372 C 0.67654 0.74756 0.03112
 C2373 C 0.68602 0.73727 0.02173
 C2374 C 0.68230 0.72090 0.02158
 H2375 H 0.62558 0.70425 0.06880
 H2376 H 0.65972 0.66747 0.03668
 H2377 H 0.63965 0.65667 0.05549
 H2378 H 0.67428 0.69028 0.02495
 H2379 H 0.64034 0.72700 0.05764
 H2380 H 0.65638 0.74975 0.04745
 H2381 H 0.67939 0.76018 0.03155
 H2382 H 0.68988 0.71284 0.01472
 C2383 C 0.12461 0.05524 0.05260
 C2384 C 0.11159 0.05011 0.04285
 C2385 C 0.10095 0.06133 0.03612
 C2386 C 0.10398 0.07759 0.03872
 C2387 C 0.11724 0.08267 0.04812
 C2388 C 0.12760 0.07158 0.05550
 C2389 C 0.08735 0.05610 0.02713
 C2390 C 0.08433 0.03976 0.02482
 C2391 C 0.09546 0.02861 0.03097
 C2392 C 0.10902 0.03385 0.03989
 C2393 C 0.09252 0.01232 0.02867
 C2394 C 0.07814 0.00704 0.02130
 C2395 C 0.06650 0.01794 0.01595
 C2396 C 0.06998 0.03434 0.01713
 H2397 H 0.13276 0.04642 0.05741
 H2398 H 0.09600 0.08638 0.03360
 H2399 H 0.11882 0.09532 0.05020
 H2400 H 0.07896 0.06470 0.02228
 H2401 H 0.11733 0.02525 0.04488
 H2402 H 0.10102 0.00364 0.03317
 H2403 H 0.07579 -0.00565 0.02041
 H2404 H 0.06104 0.04284 0.01313
 C2405 C 0.11540 0.56525 0.55955
 C2406 C 0.10174 0.55719 0.55295
 C2407 C 0.08774 0.55435 0.56258
 C2408 C 0.08757 0.55975 0.57854
 C2409 C 0.10124 0.56759 0.58504
 C2410 C 0.11533 0.57031 0.57569
 C2411 C 0.07417 0.54613 0.55613
 C2412 C 0.07433 0.54074 0.54015
 C2413 C 0.08824 0.54370 0.53045
 C2414 C 0.10189 0.55181 0.53694
 C2415 C 0.08814 0.53874 0.51432
 C2416 C 0.07425 0.53132 0.50773
 C2417 C 0.06037 0.52832 0.51725
 C2418 C 0.06061 0.53283 0.53355
 H2419 H 0.12625 0.56718 0.55228
 H2420 H 0.07692 0.55780 0.58605
 H2421 H 0.10082 0.57151 0.59745
 H2422 H 0.06344 0.54402 0.56353
 H2423 H 0.11257 0.55403 0.52950
 H2424 H 0.09866 0.54097 0.50670
 H2425 H 0.07423 0.52813 0.49511
 H2426 H 0.04979 0.53094 0.54088
 C2427 C 0.61710 0.05668 0.56475
 C2428 C 0.60499 0.04922 0.55531
 C2429 C 0.59373 0.05855 0.54678
 C2430 C 0.59478 0.07519 0.54789
 C2431 C 0.60693 0.08253 0.55728
 C2432 C 0.61824 0.07338 0.56576
 C2433 C 0.58169 0.05110 0.53721
 C2434 C 0.58079 0.03443 0.53610
 C2435 C 0.59203 0.02511 0.54470
 C2436 C 0.60409 0.03257 0.55419
 C2437 C 0.59079 0.00846 0.54394
 C2438 C 0.57821 0.00108 0.53518
 C2439 C 0.56692 0.01020 0.52668
 C2440 C 0.56849 0.02690 0.52693
 H2441 H 0.62589 0.04947 0.57103
 H2442 H 0.58633 0.08253 0.54137
 H2443 H 0.60749 0.09539 0.55793
 H2444 H 0.57301 0.05825 0.53071
 H2445 H 0.61268 0.02541 0.56081
 H2446 H 0.59925 0.00116 0.55053
 H2447 H 0.57700 -0.01177 0.53539
 H2448 H 0.55950 0.03404 0.52084
 C2449 C 0.60975 0.56897 0.06399
 C2450 C 0.59700 0.56325 0.05419
 C2451 C 0.58444 0.57361 0.04951
 C2452 C 0.58487 0.58949 0.05475
 C2453 C 0.59760 0.59509 0.06453
 C2454 C 0.61019 0.58492 0.06917
 C2455 C 0.57172 0.56796 0.03963
 C2456 C 0.57138 0.55204 0.03445
 C2457 C 0.58390 0.54165 0.03924
 C2458 C 0.59669 0.54736 0.04898
 C2459 C 0.58319 0.52560 0.03452
 C2460 C 0.56992 0.51976 0.02559
 C2461 C 0.55748 0.52999 0.02080
 C2462 C 0.55842 0.54619 0.02500
 H2463 H 0.61956 0.56108 0.06726
 H2464 H 0.57549 0.59761 0.05108
 H2465 H 0.59769 0.60741 0.06841
 H2466 H 0.56204 0.57590 0.03609
 H2467 H 0.60628 0.53939 0.05266
 H2468 H 0.59262 0.51746 0.03818
 H2469 H 0.56916 0.50718 0.02273
 H2470 H 0.54852 0.55401 0.02179
 C2471 C 0.05272 0.04420 0.13100
 C2472 C 0.04369 0.03657 0.11875
 C2473 C 0.02729 0.04083 0.11599
 C2474 C 0.01998 0.05210 0.12597
 C2475 C 0.02898 0.05964 0.13811
 C2476 C 0.04570 0.05627 0.14061
 C2477 C 0.01858 0.03407 0.10308
 C2478 C 0.02614 0.02320 0.09272
 C2479 C 0.04236 0.01848 0.09581
 C2480 C 0.05100 0.02513 0.10883
 C2481 C 0.04986 0.00756 0.08550
 C2482 C 0.04170 0.00198 0.07182
 C2483 C 0.02585 0.00719 0.06815
 C2484 C 0.01797 0.01748 0.07897
 H2485 H 0.06552 0.04135 0.13213
 H2486 H 0.00729 0.05525 0.12427
 H2487 H 0.02254 0.06795 0.14570
 H2488 H 0.00610 0.03763 0.10081
 H2489 H 0.06356 0.02173 0.11097
 H2490 H 0.06223 0.00372 0.08775
 H2491 H 0.04812 -0.00595 0.06377
 H2492 H 0.00574 0.02156 0.07639
 C2493 C 0.05073 0.56443 0.61475
 C2494 C 0.04270 0.55633 0.60216
 C2495 C 0.04706 0.54052 0.59841
 C2496 C 0.05919 0.53305 0.60730
 C2497 C 0.06671 0.54096 0.62010
 C2498 C 0.06261 0.55673 0.62407
 C2499 C 0.03918 0.53234 0.58589
 C2500 C 0.02688 0.53970 0.57709
 C2501 C 0.02219 0.55536 0.58096
 C2502 C 0.03021 0.56365 0.59344
 C2503 C 0.00973 0.56250 0.57209
 C2504 C 0.00270 0.55453 0.55891
 C2505 C 0.00783 0.53919 0.55459
 C2506 C 0.01956 0.53169 0.56416
 H2507 H 0.04755 0.57663 0.61738
 H2508 H 0.06259 0.52090 0.60461
 H2509 H 0.07536 0.53442 0.62721
 H2510 H 0.04272 0.52029 0.58291
 H2511 H 0.02674 0.57573 0.59636
 H2512 H 0.00576 0.57440 0.57506
 H2513 H -0.00633 0.56061 0.55180
 H2514 H 0.02368 0.51986 0.56108
 C2515 C 0.56565 0.06253 0.61451
 C2516 C 0.55905 0.05107 0.60399
 C2517 C 0.56955 0.04124 0.59499
 C2518 C 0.58650 0.04279 0.59701
 C2519 C 0.59300 0.05385 0.60798
 C2520 C 0.58272 0.06404 0.61680
 C2521 C 0.56290 0.02992 0.58429
 C2522 C 0.54586 0.02820 0.58270
 C2523 C 0.53539 0.03788 0.59194
 C2524 C 0.54205 0.04922 0.60253
 C2525 C 0.51839 0.03633 0.59015
 C2526 C 0.51180 0.02569 0.57889
 C2527 C 0.52208 0.01619 0.56947
 C2528 C 0.53912 0.01726 0.57168
 H2529 H 0.55730 0.06960 0.62158
 H2530 H 0.59475 0.03533 0.59023
 H2531 H 0.60615 0.05468 0.60913
 H2532 H 0.57095 0.02249 0.57721
 H2533 H 0.53400 0.05672 0.60952
 H2534 H 0.51022 0.04371 0.59712
 H2535 H 0.49867 0.02520 0.57719
 H2536 H 0.54717 0.01030 0.56413
 C2537 C 0.55737 0.57068 0.11553
 C2538 C 0.55050 0.56084 0.10356
 C2539 C 0.56079 0.55348 0.09214
 C2540 C 0.57775 0.55602 0.09297
 C2541 C 0.58448 0.56584 0.10491
 C2542 C 0.57439 0.57326 0.11629
 C2543 C 0.55397 0.54375 0.08009
 C2544 C 0.53697 0.54136 0.07923
 C2545 C 0.52667 0.54878 0.09058
 C2546 C 0.53351 0.55836 0.10276
 C2547 C 0.50964 0.54679 0.08931
 C2548 C 0.50287 0.53790 0.07665
 C2549 C 0.51302 0.53050 0.06533
 C2550 C 0.53009 0.53207 0.06686
 H2551 H 0.54949 0.57617 0.12439
 H2552 H 0.58581 0.55037 0.08442
 H2553 H 0.59759 0.56772 0.10523
 H2554 H 0.56187 0.53818 0.07128
 H2555 H 0.52561 0.56409 0.11145
 H2556 H 0.50156 0.55249 0.09783
 H2557 H 0.48969 0.53706 0.07549
 H2558 H 0.53801 0.52684 0.05787
 C2559 C 0.19357 0.57101 0.64325
 C2560 C 0.20069 0.56417 0.65676
 C2561 C 0.19061 0.55842 0.66930
 C2562 C 0.17358 0.56002 0.66823
 C2563 C 0.16657 0.56698 0.65472
 C2564 C 0.17649 0.57247 0.64206
 C2565 C 0.19772 0.55096 0.68252
 C2566 C 0.21475 0.54915 0.68327
 C2567 C 0.22486 0.55540 0.67098
 C2568 C 0.21774 0.56285 0.65778
 C2569 C 0.24192 0.55398 0.67206
 C2570 C 0.24892 0.54616 0.68507
 C2571 C 0.23890 0.53937 0.69692
 C2572 C 0.22185 0.54107 0.69606
 H2573 H 0.20138 0.57488 0.63346
 H2574 H 0.16569 0.55584 0.67781
 H2575 H 0.15341 0.56815 0.65421
 H2576 H 0.19002 0.54638 0.69209
 H2577 H 0.22545 0.56745 0.64822
 H2578 H 0.24983 0.55887 0.66283
 H2579 H 0.26209 0.54515 0.68576
 H2580 H 0.21412 0.53624 0.70549
 C2581 C 0.19939 0.05599 0.12803
 C2582 C 0.20396 0.04686 0.14130
 C2583 C 0.19188 0.03879 0.15039
 C2584 C 0.17546 0.03968 0.14581
 C2585 C 0.17099 0.04864 0.13248
 C2586 C 0.18282 0.05714 0.12342
 C2587 C 0.19638 0.03015 0.16403
 C2588 C 0.21283 0.02957 0.16874
 C2589 C 0.22495 0.03736 0.15939
 C2590 C 0.22045 0.04584 0.14568
 C2591 C 0.24135 0.03702 0.16420
 C2592 C 0.24562 0.02974 0.17857
 C2593 C 0.23365 0.02240 0.18823
 C2594 C 0.21731 0.02192 0.18300
 H2595 H 0.20892 0.06173 0.12103
 H2596 H 0.16601 0.03363 0.15267
 H2597 H 0.15808 0.04945 0.12986
 H2598 H 0.18705 0.02419 0.17116
 H2599 H 0.22976 0.05196 0.13867
 H2600 H 0.25079 0.04288 0.15715
 H2601 H 0.25828 0.03026 0.18240
 H2602 H 0.20796 0.01650 0.19052
 C2603 C 0.69244 0.18590 0.60882
 C2604 C 0.69803 0.19522 0.59591
 C2605 C 0.68663 0.20198 0.58530
 C2606 C 0.66985 0.19927 0.58778
 C2607 C 0.66439 0.19008 0.60071
 C2608 C 0.67557 0.18335 0.61143
 C2609 C 0.69217 0.21145 0.57250
 C2610 C 0.70899 0.21431 0.57021
 C2611 C 0.72039 0.20746 0.58077
 C2612 C 0.71485 0.19800 0.59357
 C2613 C 0.73720 0.20999 0.57821
 C2614 C 0.74270 0.21892 0.56510
 C2615 C 0.73151 0.22581 0.55454
 C2616 C 0.71462 0.22361 0.55731
 H2617 H 0.70122 0.18099 0.61710
 H2618 H 0.66093 0.20445 0.57985
 H2619 H 0.65137 0.18824 0.60236
 H2620 H 0.68341 0.21660 0.56434
 H2621 H 0.72361 0.19275 0.60166
 H2622 H 0.74610 0.20475 0.58613
 H2623 H 0.75573 0.22019 0.56302
 H2624 H 0.70587 0.22843 0.54892
 C2625 C 0.69126 0.68556 0.10879
 C2626 C 0.69766 0.69529 0.09660
 C2627 C 0.68689 0.70298 0.08599
 C2628 C 0.66999 0.70082 0.08773
 C2629 C 0.66372 0.69118 0.09990
 C2630 C 0.67426 0.68361 0.11062
 C2631 C 0.69317 0.71284 0.07391
 C2632 C 0.71010 0.71498 0.07219
 C2633 C 0.72092 0.70717 0.08266
 C2634 C 0.71462 0.69753 0.09494
 C2635 C 0.73787 0.70884 0.08039
 C2636 C 0.74403 0.71793 0.06768
 C2637 C 0.73333 0.72590 0.05744
 C2638 C 0.71639 0.72453 0.05987
 H2639 H 0.69947 0.67996 0.11718
 H2640 H 0.66160 0.70688 0.07994
 H2641 H 0.65061 0.68988 0.10117
 H2642 H 0.68490 0.71875 0.06580
 H2643 H 0.72289 0.69157 0.10302
 H2644 H 0.74634 0.70280 0.08819
 H2645 H 0.75712 0.71867 0.06576
 H2646 H 0.70808 0.73027 0.05166
 C2647 C 0.56342 0.69191 0.13766
 C2648 C 0.55788 0.70165 0.15017
 C2649 C 0.56886 0.70684 0.16227
 C2650 C 0.58536 0.70251 0.16134
 C2651 C 0.59083 0.69287 0.14872
 C2652 C 0.57986 0.68739 0.13688
 C2653 C 0.56312 0.71606 0.17517
 C2654 C 0.54655 0.72027 0.17595
 C2655 C 0.53578 0.71552 0.16348
 C2656 C 0.54150 0.70624 0.15069
 C2657 C 0.51928 0.71971 0.16419
 C2658 C 0.51326 0.72779 0.17757
 C2659 C 0.52363 0.73197 0.19040
 C2660 C 0.54042 0.72861 0.18929
 H2661 H 0.55498 0.68801 0.12834
 H2662 H 0.59397 0.70645 0.17042
 H2663 H 0.60357 0.68956 0.14828
 H2664 H 0.57143 0.71974 0.18468
 H2665 H 0.53314 0.70238 0.14129
 H2666 H 0.51090 0.71624 0.15468
 H2667 H 0.50029 0.73020 0.17817
 H2668 H 0.54850 0.73151 0.19924
 C2669 C 0.06475 0.68936 0.64071
 C2670 C 0.06017 0.69597 0.65557
 C2671 C 0.06864 0.69168 0.66967
 C2672 C 0.08163 0.68100 0.66863
 C2673 C 0.08638 0.67482 0.65375
 C2674 C 0.07790 0.67883 0.63974
 C2675 C 0.06397 0.69806 0.68458
 C2676 C 0.05095 0.70871 0.68559
 C2677 C 0.04248 0.71303 0.67149
 C2678 C 0.04718 0.70666 0.65658
 C2679 C 0.02922 0.72342 0.67260
 C2680 C 0.02418 0.72921 0.68757
 C2681 C 0.03251 0.72495 0.70154
 C2682 C 0.04598 0.71483 0.70052
 H2683 H 0.05820 0.69244 0.62988
 H2684 H 0.08813 0.67744 0.67932
 H2685 H 0.09646 0.66662 0.65319
 H2686 H 0.07039 0.69466 0.69539
 H2687 H 0.04064 0.70992 0.64579
 H2688 H 0.02256 0.72680 0.66195
 H2689 H 0.01362 0.73681 0.68829
 H2690 H 0.05219 0.71131 0.71141
 C2691 C 0.55336 0.64151 0.17503
 C2692 C 0.54528 0.65331 0.18388
 C2693 C 0.55365 0.66769 0.18768
 C2694 C 0.56972 0.67017 0.18232
 C2695 C 0.57779 0.65825 0.17387
 C2696 C 0.56979 0.64375 0.17041
 C2697 C 0.54607 0.67913 0.19729
 C2698 C 0.53039 0.67623 0.20349
 C2699 C 0.52180 0.66203 0.19952
 C2700 C 0.52928 0.65068 0.18959
 C2701 C 0.50599 0.65940 0.20579
 C2702 C 0.49889 0.67067 0.21606
 C2703 C 0.50766 0.68450 0.22026
 C2704 C 0.52328 0.68727 0.21383
 H2705 H 0.54724 0.63023 0.17257
 H2706 H 0.57623 0.68111 0.18519
 H2707 H 0.59043 0.66016 0.17040
 H2708 H 0.55256 0.69010 0.20032
 H2709 H 0.52284 0.63967 0.18667
 H2710 H 0.49918 0.64864 0.20280
 H2711 H 0.48671 0.66857 0.22079
 H2712 H 0.52991 0.69815 0.21688
 C2713 C 0.05976 0.61675 0.70827
 C2714 C 0.05097 0.62865 0.71623
 C2715 C 0.03388 0.62968 0.71400
 C2716 C 0.02579 0.61830 0.70441
 C2717 C 0.03459 0.60632 0.69672
 C2718 C 0.05172 0.60561 0.69824
 C2719 C 0.02524 0.64219 0.72119
 C2720 C 0.03348 0.65355 0.73075
 C2721 C 0.05047 0.65204 0.73350
 C2722 C 0.05910 0.63969 0.72615
 C2723 C 0.05867 0.66306 0.74336
 C2724 C 0.05027 0.67573 0.75013
 C2725 C 0.03352 0.67779 0.74703
 C2726 C 0.02513 0.66656 0.73740
 H2727 H 0.07294 0.61657 0.70948
 H2728 H 0.01266 0.61874 0.70274
 H2729 H 0.02794 0.59768 0.68947
 H2730 H 0.01219 0.64317 0.71921
 H2731 H 0.07218 0.63879 0.72803
 H2732 H 0.07167 0.66205 0.74563
 H2733 H 0.05711 0.68432 0.75730
 H2734 H 0.01222 0.66805 0.73494
 C2735 C 0.03931 0.12982 0.04730
 C2736 C 0.03614 0.11409 0.04215
 C2737 C 0.04860 0.10538 0.03454
 C2738 C 0.06412 0.11228 0.03269
 C2739 C 0.06729 0.12777 0.03804
 C2740 C 0.05492 0.13710 0.04516
 C2741 C 0.04539 0.08991 0.02885
 C2742 C 0.02987 0.08290 0.03087
 C2743 C 0.01746 0.09138 0.03889
 C2744 C 0.02062 0.10698 0.04436
 C2745 C 0.00212 0.08407 0.04132
 C2746 C -0.00093 0.06856 0.03576
 C2747 C 0.01121 0.06022 0.02740
 C2748 C 0.02660 0.06750 0.02502
 H2749 H 0.02923 0.13644 0.05226
 H2750 H 0.07390 0.10564 0.02714
 H2751 H 0.07975 0.13207 0.03691
 H2752 H 0.05495 0.08334 0.02284
 H2753 H 0.01104 0.11356 0.05034
 H2754 H -0.00751 0.09034 0.04754
 H2755 H -0.01285 0.06316 0.03777
 H2756 H 0.03614 0.06105 0.01883
 C2757 C 0.05843 0.62426 0.55320
 C2758 C 0.04797 0.61382 0.54475
 C2759 C 0.03552 0.60550 0.55312
 C2760 C 0.03400 0.60743 0.56978
 C2761 C 0.04491 0.61731 0.57819
 C2762 C 0.05726 0.62589 0.57006
 C2763 C 0.02508 0.59502 0.54480
 C2764 C 0.02757 0.59195 0.52843
 C2765 C 0.04023 0.59992 0.52005
 C2766 C 0.05007 0.61119 0.52818
 C2767 C 0.04322 0.59595 0.50389
 C2768 C 0.03428 0.58362 0.49641
 C2769 C 0.02177 0.57560 0.50477
 C2770 C 0.01816 0.58026 0.52061
 H2771 H 0.06756 0.63099 0.54658
 H2772 H 0.02464 0.60096 0.57637
 H2773 H 0.04383 0.61794 0.59112
 H2774 H 0.01542 0.58878 0.55118
 H2775 H 0.05980 0.61738 0.52179
 H2776 H 0.05295 0.60187 0.49729
 H2777 H 0.03740 0.58009 0.48427
 H2778 H 0.00883 0.57389 0.52736
 C2779 C 0.56446 0.10765 0.55876
 C2780 C 0.55455 0.09498 0.55324
 C2781 C 0.54654 0.08497 0.56444
 C2782 C 0.54865 0.08774 0.58092
 C2783 C 0.55855 0.10033 0.58630
 C2784 C 0.56647 0.11048 0.57533
 C2785 C 0.53652 0.07239 0.55901
 C2786 C 0.53450 0.06959 0.54250
 C2787 C 0.54263 0.07945 0.53127
 C2788 C 0.55250 0.09218 0.53671
 C2789 C 0.54103 0.07618 0.51478
 C2790 C 0.53182 0.06300 0.50949
 C2791 C 0.52367 0.05320 0.52059
 C2792 C 0.52486 0.05674 0.53707
 H2793 H 0.57032 0.11549 0.55016
 H2794 H 0.54254 0.08026 0.58965
 H2795 H 0.56000 0.10216 0.59910
 H2796 H 0.53038 0.06472 0.56761
 H2797 H 0.55874 0.09977 0.52811
 H2798 H 0.54728 0.08355 0.50601
 H2799 H 0.53129 0.06029 0.49677
 H2800 H 0.51906 0.04892 0.54576
 C2801 C 0.55628 0.62353 0.06165
 C2802 C 0.54567 0.61159 0.05577
 C2803 C 0.54012 0.59940 0.06614
 C2804 C 0.54525 0.59940 0.08219
 C2805 C 0.55599 0.61121 0.08789
 C2806 C 0.56164 0.62334 0.07770
 C2807 C 0.52975 0.58728 0.06025
 C2808 C 0.52516 0.58701 0.04402
 C2809 C 0.53085 0.59910 0.03359
 C2810 C 0.54087 0.61144 0.03959
 C2811 C 0.52685 0.59834 0.01721
 C2812 C 0.51778 0.58542 0.01111
 C2813 C 0.51209 0.57341 0.02140
 C2814 C 0.51553 0.57445 0.03791
 H2815 H 0.56040 0.63296 0.05373
 H2816 H 0.54102 0.59024 0.09031
 H2817 H 0.56000 0.61078 0.10025
 H2818 H 0.52557 0.57789 0.06819
 H2819 H 0.54529 0.62069 0.03159
 H2820 H 0.53121 0.60742 0.00903
 H2821 H 0.51550 0.58461 -0.00168
 H2822 H 0.51163 0.56491 0.04581
 C2823 C 0.68931 0.13250 0.55550
 C2824 C 0.69955 0.14420 0.54874
 C2825 C 0.70722 0.15572 0.55872
 C2826 C 0.70475 0.15516 0.57535
 C2827 C 0.69485 0.14326 0.58205
 C2828 C 0.68688 0.13176 0.57226
 C2829 C 0.71721 0.16761 0.55193
 C2830 C 0.71965 0.16807 0.53525
 C2831 C 0.71211 0.15641 0.52528
 C2832 C 0.70218 0.14453 0.53209
 C2833 C 0.71423 0.15712 0.50859
 C2834 C 0.72312 0.16967 0.50176
 C2835 C 0.73041 0.18145 0.51152
 C2836 C 0.72900 0.18035 0.52831
 H2837 H 0.68386 0.12357 0.54765
 H2838 H 0.71054 0.16389 0.58319
 H2839 H 0.69304 0.14347 0.59493
 H2840 H 0.72294 0.17658 0.55958
 H2841 H 0.69628 0.13569 0.52442
 H2842 H 0.70849 0.14832 0.50078
 H2843 H 0.72385 0.17048 0.48880
 H2844 H 0.73417 0.18968 0.53589
 C2845 C 0.68126 0.64239 0.05704
 C2846 C 0.69163 0.65373 0.04979
 C2847 C 0.70272 0.66267 0.05937
 C2848 C 0.70326 0.66014 0.07595
 C2849 C 0.69274 0.64906 0.08310
 C2850 C 0.68172 0.63993 0.07377
 C2851 C 0.71311 0.67399 0.05224
 C2852 C 0.71234 0.67672 0.03567
 C2853 C 0.70124 0.66784 0.02604
 C2854 C 0.69114 0.65620 0.03313
 C2855 C 0.70015 0.67107 0.00955
 C2856 C 0.70965 0.68329 0.00278
 C2857 C 0.72076 0.69208 0.01228
 C2858 C 0.72221 0.68853 0.02868
 H2859 H 0.67314 0.63524 0.04956
 H2860 H 0.71192 0.66664 0.08340
 H2861 H 0.69337 0.64757 0.09597
 H2862 H 0.72163 0.68081 0.05961
 H2863 H 0.68265 0.64935 0.02574
 H2864 H 0.69162 0.66448 0.00201
 H2865 H 0.70820 0.68599 -0.00984
 H2866 H 0.73044 0.69554 0.03621
 C2867 C 0.19952 0.62110 0.69738
 C2868 C 0.20551 0.60901 0.70721
 C2869 C 0.19699 0.59426 0.70803
 C2870 C 0.18273 0.59182 0.69890
 C2871 C 0.17675 0.60403 0.68933
 C2872 C 0.18506 0.61871 0.68858
 C2873 C 0.20278 0.58225 0.71805
 C2874 C 0.21698 0.58478 0.72722
 C2875 C 0.22563 0.59944 0.72628
 C2876 C 0.21976 0.61151 0.71636
 C2877 C 0.24026 0.60157 0.73494
 C2878 C 0.24658 0.58908 0.74398
 C2879 C 0.23796 0.57460 0.74503
 C2880 C 0.22305 0.57263 0.73685
 H2881 H 0.20580 0.63255 0.69690
 H2882 H 0.17606 0.58060 0.69941
 H2883 H 0.16550 0.60212 0.68268
 H2884 H 0.19631 0.57090 0.71860
 H2885 H 0.22635 0.62278 0.71564
 H2886 H 0.24713 0.61266 0.73422
 H2887 H 0.25835 0.59056 0.74978
 H2888 H 0.21681 0.56116 0.73702
 C2889 C 0.20147 0.13352 0.20358
 C2890 C 0.20967 0.12035 0.20976
 C2891 C 0.22640 0.11822 0.20636
 C2892 C 0.23479 0.12961 0.19725
 C2893 C 0.22668 0.14289 0.19141
 C2894 C 0.20975 0.14508 0.19420
 C2895 C 0.23446 0.10475 0.21212
 C2896 C 0.22600 0.09351 0.22150
 C2897 C 0.20934 0.09598 0.22528
 C2898 C 0.20126 0.10924 0.21926
 C2899 C 0.20095 0.08511 0.23500
 C2900 C 0.20885 0.07178 0.24078
 C2901 C 0.22526 0.06880 0.23673
 C2902 C 0.23383 0.07980 0.22710
 H2903 H 0.18845 0.13415 0.20566
 H2904 H 0.24772 0.12836 0.19476
 H2905 H 0.23406 0.15161 0.18513
 H2906 H 0.24727 0.10302 0.20931
 H2907 H 0.18843 0.11093 0.22202
 H2908 H 0.18821 0.08686 0.23806
 H2909 H 0.20187 0.06352 0.24810
 H2910 H 0.24647 0.07769 0.22393
 C2911 C 0.69272 1.11788 0.68654
 C2912 C 0.70283 1.10560 0.69189
 C2913 C 0.70816 1.09383 0.68098
 C2914 C 0.70386 1.09495 0.66475
 C2915 C 0.69439 1.10758 0.65937
 C2916 C 0.68846 1.11915 0.67018
 C2917 C 0.71774 1.08120 0.68646
 C2918 C 0.72237 1.08040 0.70269
 C2919 C 0.71744 1.09250 0.71347
 C2920 C 0.70766 1.10494 0.70803
 C2921 C 0.72204 1.09179 0.72964
 C2922 C 0.73084 1.07889 0.73531
 C2923 C 0.73537 1.06647 0.72491
 C2924 C 0.73144 1.06751 0.70847
 H2925 H 0.68884 1.12685 0.69508
 H2926 H 0.70791 1.08611 0.65616
 H2927 H 0.69119 1.10790 0.64679
 H2928 H 0.72154 1.07199 0.67812
 H2929 H 0.70367 1.11403 0.71641
 H2930 H 0.71840 1.10099 0.73804
 H2931 H 0.73358 1.07831 0.74801
 H2932 H 0.73453 1.05784 0.70038
 C2933 C 0.68615 0.61789 0.18560
 C2934 C 0.69398 0.60424 0.19112
 C2935 C 0.69525 0.59079 0.18092
 C2936 C 0.68895 0.59138 0.16530
 C2937 C 0.68120 0.60502 0.15988
 C2938 C 0.67963 0.61834 0.17000
 C2939 C 0.70259 0.57693 0.18657
 C2940 C 0.70848 0.57629 0.20237
 C2941 C 0.70723 0.58974 0.21256
 C2942 C 0.70016 0.60369 0.20681
 C2943 C 0.71267 0.58889 0.22849
 C2944 C 0.71892 0.57471 0.23442
 C2945 C 0.72019 0.56128 0.22441
 C2946 C 0.71518 0.56223 0.20830
 H2947 H 0.68520 0.62821 0.19341
 H2948 H 0.68999 0.58127 0.15731
 H2949 H 0.67626 0.60511 0.14781
 H2950 H 0.70344 0.56658 0.17878
 H2951 H 0.69910 0.61397 0.21466
 H2952 H 0.71173 0.59906 0.23648
 H2953 H 0.72256 0.57417 0.24690
 H2954 H 0.71574 0.55179 0.20060
 C2955 C 0.56738 0.13613 0.68318
 C2956 C 0.55615 0.14701 0.68924
 C2957 C 0.54818 0.15743 0.67865
 C2958 C 0.55155 0.15668 0.66216
 C2959 C 0.56276 0.14573 0.65622
 C2960 C 0.57077 0.13541 0.66667
 C2961 C 0.53691 0.16831 0.68472
 C2962 C 0.53355 0.16884 0.70123
 C2963 C 0.54152 0.15838 0.71180
 C2964 C 0.55273 0.14748 0.70571
 C2965 C 0.53845 0.15926 0.72835
 C2966 C 0.52801 0.17081 0.73446
 C2967 C 0.52021 0.18134 0.72406
 C2968 C 0.52273 0.18005 0.70742
 H2969 H 0.57318 0.12793 0.69131
 H2970 H 0.54536 0.16439 0.65386
 H2971 H 0.56518 0.14524 0.64350
 H2972 H 0.53087 0.17642 0.67664
 H2973 H 0.55891 0.13950 0.71381
 H2974 H 0.54452 0.15138 0.73659
 H2975 H 0.52639 0.17182 0.74733
 H2976 H 0.51712 0.18846 0.69937
 C2977 C 1.04396 0.13592 0.18730
 C2978 C 1.03996 0.15150 0.19184
 C2979 C 1.05259 0.16271 0.19517
 C2980 C 1.06894 0.15841 0.19323
 C2981 C 1.07281 0.14299 0.18850
 C2982 C 1.06043 0.13146 0.18584
 C2983 C 1.04874 0.17800 0.20055
 C2984 C 1.03239 0.18233 0.20246
 C2985 C 1.01967 0.17143 0.19845
 C2986 C 1.02354 0.15601 0.19329
 C2987 C 1.00332 0.17616 0.19981
 C2988 C 0.99964 0.19144 0.20538
 C2989 C 1.01225 0.20198 0.21001
 C2990 C 1.02858 0.19742 0.20840
 H2991 H 1.03427 0.12719 0.18535
 H2992 H 1.07873 0.16695 0.19543
 H2993 H 1.08558 0.14010 0.18696
 H2994 H 1.05846 0.18649 0.20336
 H2995 H 1.01382 0.14751 0.19051
 H2996 H 0.99341 0.16803 0.19666
 H2997 H 0.98698 0.19489 0.20649
 H2998 H 1.03832 0.20572 0.21170
 C2999 C 0.19047 0.62844 0.55874
 C3000 C 0.20087 0.64039 0.55243
 C3001 C 0.20692 0.65263 0.56266
 C3002 C 0.20240 0.65286 0.57883
 C3003 C 0.19174 0.64135 0.58487
 C3004 C 0.18587 0.62884 0.57505
 C3005 C 0.21725 0.66459 0.55660
 C3006 C 0.22129 0.66483 0.54028
 C3007 C 0.21517 0.65276 0.52991
 C3008 C 0.20519 0.64047 0.53609
 C3009 C 0.21874 0.65349 0.51344
 C3010 C 0.22769 0.66639 0.50725
 C3011 C 0.23366 0.67849 0.51750
 C3012 C 0.23077 0.67740 0.53407
 H3013 H 0.18612 0.61881 0.55107
 H3014 H 0.20721 0.66192 0.58684
 H3015 H 0.18829 0.64208 0.59742
 H3016 H 0.22182 0.67393 0.56453
 H3017 H 0.20048 0.63121 0.52814
 H3018 H 0.21412 0.64441 0.50527
 H3019 H 0.22959 0.66715 0.49440
 H3020 H 0.23492 0.68692 0.54200
 C3021 C 0.20003 0.12832 1.05331
 C3022 C 0.20847 0.14174 1.04761
 C3023 C 0.21457 0.15328 1.05857
 C3024 C 0.21235 0.15096 1.07512
 C3025 C 0.20375 0.13757 1.08071
 C3026 C 0.19726 0.12630 1.06982
 C3027 C 0.22245 0.16705 1.05276
 C3028 C 0.22400 0.16949 1.03614
 C3029 C 0.21801 0.15779 1.02526
 C3030 C 0.21046 0.14394 1.03107
 C3031 C 0.21924 0.16031 1.00870
 C3032 C 0.22591 0.17449 1.00289
 C3033 C 0.23171 0.18633 1.01352
 C3034 C 0.23101 0.18363 1.03017
 H3035 H 0.19537 0.11951 1.04483
 H3036 H 0.21697 0.15965 1.08372
 H3037 H 0.20174 0.13626 1.09349
 H3038 H 0.22700 0.17602 1.06113
 H3039 H 0.20574 0.13506 1.02269
 H3040 H 0.21472 0.15144 1.00023
 H3041 H 0.22640 0.17626 0.99003
 H3042 H 0.23530 0.19276 1.03848
 C3043 C 0.19990 0.68026 0.61772
 C3044 C 0.20466 0.68882 0.60402
 C3045 C 0.19305 0.69185 0.59185
 C3046 C 0.17702 0.68601 0.59343
 C3047 C 0.17235 0.67765 0.60711
 C3048 C 0.18365 0.67496 0.61945
 C3049 C 0.19762 0.70067 0.57832
 C3050 C 0.21370 0.70642 0.57671
 C3051 C 0.22542 0.70314 0.58869
 C3052 C 0.22079 0.69447 0.60233
 C3053 C 0.24164 0.70841 0.58671
 C3054 C 0.24627 0.71660 0.57285
 C3055 C 0.23467 0.72003 0.56101
 C3056 C 0.21835 0.71507 0.56308
 H3057 H 0.20856 0.67839 0.62735
 H3058 H 0.16799 0.68829 0.58430
 H3059 H 0.15973 0.67376 0.60837
 H3060 H 0.18869 0.70301 0.56903
 H3061 H 0.22975 0.69203 0.61157
 H3062 H 0.25080 0.70591 0.59570
 H3063 H 0.25896 0.72016 0.57130
 H3064 H 0.20946 0.71730 0.55373
 C3065 C 0.19725 0.21438 1.12088
 C3066 C 0.20529 0.22041 1.10719
 C3067 C 0.22258 0.22135 1.10687
 C3068 C 0.23149 0.21710 1.12047
 C3069 C 0.22345 0.21126 1.13402
 C3070 C 0.20632 0.20930 1.13422
 C3071 C 0.23074 0.22623 1.09288
 C3072 C 0.22187 0.23036 1.07919
 C3073 C 0.20457 0.23020 1.07970
 C3074 C 0.19638 0.22513 1.09365
 C3075 C 0.19577 0.23492 1.06614
 C3076 C 0.20400 0.23933 1.05211
 C3077 C 0.22115 0.23880 1.05122
 C3078 C 0.23003 0.23445 1.06490
 H3079 H 0.18405 0.21298 1.12086
 H3080 H 0.24473 0.21802 1.12054
 H3081 H 0.23073 0.20792 1.14428
 H3082 H 0.24401 0.22658 1.09259
 H3083 H 0.18312 0.22465 1.09390
 H3084 H 0.18252 0.23502 1.06632
 H3085 H 0.19691 0.24267 1.04175
 H3086 H 0.24327 0.23416 1.06439
 C3087 C 0.66884 0.56061 0.13852
 C3088 C 0.67724 0.54982 0.14824
 C3089 C 0.69422 0.54770 0.14593
 C3090 C 0.70246 0.55619 0.13392
 C3091 C 0.69405 0.56682 0.12432
 C3092 C 0.67723 0.56929 0.12656
 C3093 C 0.70281 0.53731 0.15577
 C3094 C 0.69472 0.52904 0.16804
 C3095 C 0.67771 0.53088 0.17028
 C3096 C 0.66905 0.54126 0.16034
 C3097 C 0.66980 0.52261 0.18271
 C3098 C 0.67879 0.51326 0.19328
 C3099 C 0.69585 0.51199 0.19157
 C3100 C 0.70360 0.51952 0.17855
 H3101 H 0.65589 0.56247 0.14044
 H3102 H 0.71544 0.55462 0.13196
 H3103 H 0.70074 0.57299 0.11496
 H3104 H 0.71587 0.53591 0.15410
 H3105 H 0.65604 0.54287 0.16220
 H3106 H 0.65677 0.52385 0.18464
 H3107 H 0.67253 0.50783 0.20337
 H3108 H 0.71674 0.51871 0.17711
 C3109 C 0.68935 1.06287 0.63423
 C3110 C 0.69428 1.05355 0.64723
 C3111 C 0.68457 1.05300 0.66129
 C3112 C 0.67021 1.06181 0.66210
 C3113 C 0.66530 1.07092 0.64908
 C3114 C 0.67473 1.07137 0.63506
 C3115 C 0.68927 1.04357 0.67425
 C3116 C 0.70360 1.03467 0.67336
 C3117 C 0.71338 1.03525 0.65934
 C3118 C 0.70863 1.04465 0.64634
 C3119 C 0.72798 1.02671 0.65873
 C3120 C 0.73316 1.01820 0.67211
 C3121 C 0.72356 1.01767 0.68607
 C3122 C 0.70860 1.02562 0.68650
 H3123 H 0.69657 1.06318 0.62330
 H3124 H 0.66267 1.06139 0.67271
 H3125 H 0.65410 1.07755 0.64982
 H3126 H 0.68184 1.04324 0.68506
 H3127 H 0.71612 1.04510 0.63560
 H3128 H 0.73567 1.02709 0.64813
 H3129 H 0.74490 1.01241 0.67174
 H3130 H 0.70144 1.02568 0.69748
 C3131 C 0.56061 0.18536 0.63002
 C3132 C 0.55450 0.19513 0.64229
 C3133 C 0.56466 0.19947 0.65540
 C3134 C 0.58079 0.19406 0.65590
 C3135 C 0.58680 0.18438 0.64360
 C3136 C 0.57675 0.17991 0.63061
 C3137 C 0.55848 0.20902 0.66782
 C3138 C 0.54221 0.21410 0.66739
 C3139 C 0.53206 0.20971 0.65429
 C3140 C 0.53832 0.20040 0.64175
 C3141 C 0.51562 0.21427 0.65419
 C3142 C 0.50910 0.22253 0.66726
 C3143 C 0.51905 0.22685 0.68033
 C3144 C 0.53570 0.22294 0.68018
 H3145 H 0.55285 0.18206 0.61995
 H3146 H 0.58874 0.19732 0.66579
 H3147 H 0.59926 0.18024 0.64430
 H3148 H 0.56622 0.21224 0.67795
 H3149 H 0.53051 0.19696 0.63175
 H3150 H 0.50767 0.21092 0.64430
 H3151 H 0.49618 0.22517 0.66740
 H3152 H 0.54327 0.22580 0.69053
 C3153 C 1.04530 0.21901 0.10578
 C3154 C 1.03764 0.22635 0.11885
 C3155 C 1.02107 0.22276 0.12222
 C3156 C 1.01237 0.21213 0.11222
 C3157 C 1.02007 0.20501 0.09905
 C3158 C 1.03662 0.20832 0.09570
 C3159 C 1.01357 0.22964 0.13568
 C3160 C 1.02249 0.23998 0.14583
 C3161 C 1.03894 0.24389 0.14219
 C3162 C 1.04640 0.23708 0.12870
 C3163 C 1.04779 0.25420 0.15239
 C3164 C 1.04068 0.25998 0.16650
 C3165 C 1.02457 0.25561 0.17061
 C3166 C 1.01539 0.24599 0.15989
 H3167 H 1.05818 0.22141 0.10367
 H3168 H 0.99963 0.20930 0.11459
 H3169 H 1.01302 0.19701 0.09142
 H3170 H 1.00092 0.22669 0.13845
 H3171 H 1.05910 0.23989 0.12603
 H3172 H 1.06039 0.25738 0.14972
 H3173 H 1.04805 0.26731 0.17451
 H3174 H 1.00291 0.24257 0.16281
 C3175 C 0.61813 0.19185 0.68601
 C3176 C 0.60490 0.19693 0.69552
 C3177 C 0.59377 0.18556 0.70187
 C3178 C 0.59610 0.16936 0.69869
 C3179 C 0.60935 0.16442 0.68939
 C3180 C 0.62052 0.17553 0.68294
 C3181 C 0.58050 0.19054 0.71129
 C3182 C 0.57817 0.20678 0.71447
 C3183 C 0.58923 0.21818 0.70807
 C3184 C 0.60255 0.21318 0.69869
 C3185 C 0.58658 0.23442 0.71088
 C3186 C 0.57289 0.23937 0.71958
 C3187 C 0.56180 0.22818 0.72599
 C3188 C 0.56468 0.21186 0.72358
 H3189 H 0.62671 0.20055 0.68120
 H3190 H 0.58773 0.16048 0.70347
 H3191 H 0.61084 0.15185 0.68714
 H3192 H 0.57195 0.18179 0.71607
 H3193 H 0.61098 0.22194 0.69376
 H3194 H 0.59488 0.24332 0.70600
 H3195 H 0.57077 0.25199 0.72104
 H3196 H 0.55592 0.20312 0.72802
 C3197 C 1.13383 0.21419 0.19653
 C3198 C 1.11854 0.21807 0.20317
 C3199 C 1.10720 0.20584 0.20710
 C3200 C 1.11139 0.18994 0.20443
 C3201 C 1.12661 0.18617 0.19789
 C3202 C 1.13801 0.19821 0.19389
 C3203 C 1.09184 0.20968 0.21355
 C3204 C 1.08759 0.22565 0.21601
 C3205 C 1.09904 0.23785 0.21221
 C3206 C 1.11443 0.23400 0.20591
 C3207 C 1.09481 0.25378 0.21448
 C3208 C 1.07922 0.25766 0.21990
 C3209 C 1.06755 0.24572 0.22340
 C3210 C 1.07195 0.22966 0.22179
 H3211 H 1.14257 0.22358 0.19368
 H3212 H 1.10290 0.18039 0.20741
 H3213 H 1.12942 0.17378 0.19582
 H3214 H 1.08314 0.20028 0.21646
 H3215 H 1.12311 0.24340 0.20294
 H3216 H 1.10344 0.26328 0.21169
 H3217 H 1.07617 0.27011 0.22110
 H3218 H 1.06302 0.22036 0.22431
 C3219 C 0.13754 0.68354 0.56672
 C3220 C 0.14980 0.68822 0.55588
 C3221 C 0.16185 0.67725 0.55111
 C3222 C 0.16119 0.66171 0.55709
 C3223 C 0.14876 0.65704 0.56765
 C3224 C 0.13689 0.66794 0.57253
 C3225 C 0.17424 0.68197 0.54039
 C3226 C 0.17462 0.69750 0.53429
 C3227 C 0.16233 0.70833 0.53886
 C3228 C 0.15003 0.70363 0.54961
 C3229 C 0.16275 0.72387 0.53293
 C3230 C 0.17565 0.72893 0.52320
 C3231 C 0.18818 0.71846 0.51898
 C3232 C 0.18740 0.70261 0.52417
 H3233 H 0.12809 0.69183 0.57015
 H3234 H 0.17001 0.65308 0.55322
 H3235 H 0.14819 0.64485 0.57177
 H3236 H 0.18361 0.67363 0.53691
 H3237 H 0.14072 0.71200 0.55321
 H3238 H 0.15342 0.73229 0.53629
 H3239 H 0.17620 0.74124 0.51944
 H3240 H 0.19728 0.69461 0.52126
 C3241 C 0.11374 0.20737 1.02476
 C3242 C 0.12886 0.21443 1.02071
 C3243 C 0.13655 0.22516 1.03157
 C3244 C 0.12916 0.22850 1.04633
 C3245 C 0.11440 0.22111 1.05046
 C3246 C 0.10644 0.21051 1.03975
 C3247 C 0.15172 0.23208 1.02773
 C3248 C 0.15962 0.22799 1.01340
 C3249 C 0.15211 0.21710 1.00259
 C3250 C 0.13662 0.21061 1.00617
 C3251 C 0.16043 0.21256 0.98860
 C3252 C 0.17624 0.21838 0.98563
 C3253 C 0.18382 0.22915 0.99637
 C3254 C 0.17522 0.23422 1.01002
 H3255 H 0.10777 0.19936 1.01629
 H3256 H 0.13499 0.23654 1.05487
 H3257 H 0.10947 0.22345 1.06229
 H3258 H 0.15760 0.24028 1.03612
 H3259 H 0.13084 0.20226 0.99788
 H3260 H 0.15489 0.20421 0.98019
 H3261 H 0.18260 0.21435 0.97497
 H3262 H 0.18092 0.24252 1.01837
 C3263 C 0.62971 0.56824 0.19040
 C3264 C 0.63992 0.56210 0.20232
 C3265 C 0.65337 0.57129 0.20796
 C3266 C 0.65617 0.58656 0.20180
 C3267 C 0.64586 0.59267 0.19006
 C3268 C 0.63255 0.58358 0.18427
 C3269 C 0.66375 0.56511 0.21970
 C3270 C 0.66081 0.54986 0.22592
 C3271 C 0.64711 0.54084 0.22059
 C3272 C 0.63673 0.54702 0.20884
 C3273 C 0.64436 0.52551 0.22667
 C3274 C 0.65573 0.51873 0.23701
 C3275 C 0.66984 0.52728 0.24171
 C3276 C 0.67188 0.54315 0.23671
 H3277 H 0.61923 0.56131 0.18627
 H3278 H 0.66613 0.59389 0.20632
 H3279 H 0.64816 0.60456 0.18560
 H3280 H 0.67426 0.57205 0.22378
 H3281 H 0.62635 0.54000 0.20460
 H3282 H 0.63390 0.51845 0.22276
 H3283 H 0.65402 0.50643 0.24052
 H3284 H 0.68290 0.54976 0.23993
 C3285 C 0.63649 1.06743 0.69196
 C3286 C 0.64800 1.06242 0.70325
 C3287 C 0.66144 1.07247 0.70723
 C3288 C 0.66285 1.08753 0.70023
 C3289 C 0.65144 1.09237 0.68888
 C3290 C 0.63834 1.08227 0.68451
 C3291 C 0.67347 1.06715 0.71782
 C3292 C 0.67238 1.05177 0.72418
 C3293 C 0.65872 1.04187 0.72049
 C3294 C 0.64651 1.04735 0.71022
 C3295 C 0.65793 1.02633 0.72646
 C3296 C 0.67109 1.02026 0.73502
 C3297 C 0.68497 1.02979 0.73814
 C3298 C 0.68525 1.04576 0.73331
 H3299 H 0.62619 1.05976 0.68884
 H3300 H 0.67282 1.09548 0.70346
 H3301 H 0.65291 1.10393 0.68336
 H3302 H 0.68397 1.07472 0.72059
 H3303 H 0.63619 1.03966 0.70716
 H3304 H 0.64756 1.01860 0.72377
 H3305 H 0.67078 1.00787 0.73851
 H3306 H 0.69614 1.05304 0.73534
 C3307 C 0.86217 0.44562 0.28833
 C3308 C 0.84967 0.45400 0.28077
 C3309 C 0.84844 0.47059 0.28330
 C3310 C 0.86010 0.47861 0.29275
 C3311 C 0.87264 0.47022 0.30004
 C3312 C 0.87363 0.45361 0.29821
 C3313 C 0.83539 0.47885 0.27662
 C3314 C 0.82354 0.47073 0.26744
 C3315 C 0.82512 0.45428 0.26433
 C3316 C 0.83819 0.44600 0.27102
 C3317 C 0.81332 0.44631 0.25496
 C3318 C 0.79953 0.45434 0.24961
 C3319 C 0.79736 0.47048 0.25350
 C3320 C 0.80979 0.47873 0.26190
 H3321 H 0.86262 0.43281 0.28690
 H3322 H 0.85945 0.49135 0.29463
 H3323 H 0.88154 0.47679 0.30717
 H3324 H 0.83423 0.49151 0.27890
 H3325 H 0.83920 0.43329 0.26895
 H3326 H 0.81447 0.43376 0.25224
 H3327 H 0.79025 0.44771 0.24301
 H3328 H 0.80841 0.49121 0.26487
 C3329 C 0.87507 0.94207 0.79361
 C3330 C 0.86270 0.95168 0.78736
 C3331 C 0.86198 0.96790 0.79183
 C3332 C 0.87414 0.97441 0.80182
 C3333 C 0.88671 0.96491 0.80757
 C3334 C 0.88719 0.94852 0.80389
 C3335 C 0.84912 0.97732 0.78628
 C3336 C 0.83716 0.97081 0.77597
 C3337 C 0.83840 0.95478 0.77088
 C3338 C 0.85099 0.94528 0.77676
 C3339 C 0.82693 0.94843 0.76007
 C3340 C 0.81398 0.95763 0.75480
 C3341 C 0.81197 0.97333 0.76042
 C3342 C 0.82387 0.97995 0.77083
 H3343 H 0.87497 0.92950 0.79067
 H3344 H 0.87399 0.98690 0.80514
 H3345 H 0.89609 0.97054 0.81490
 H3346 H 0.84840 0.98968 0.79002
 H3347 H 0.85166 0.93289 0.77309
 H3348 H 0.82786 0.93626 0.75583
 H3349 H 0.80522 0.95218 0.74663
 H3350 H 0.82262 0.99205 0.77519
 C3351 C 0.36265 0.28984 0.78564
 C3352 C 0.37667 0.28440 0.77775
 C3353 C 0.38582 0.29491 0.76792
 C3354 C 0.38076 0.31064 0.76610
 C3355 C 0.36696 0.31603 0.77422
 C3356 C 0.35782 0.30575 0.78415
 C3357 C 0.40008 0.28967 0.76038
 C3358 C 0.40556 0.27416 0.76288
 C3359 C 0.39644 0.26363 0.77269
 C3360 C 0.38191 0.26873 0.77988
 C3361 C 0.40229 0.24830 0.77553
 C3362 C 0.41733 0.24368 0.76920
 C3363 C 0.42661 0.25418 0.75965
 C3364 C 0.42038 0.26926 0.75619
 H3365 H 0.35560 0.28173 0.79309
 H3366 H 0.38769 0.31887 0.75869
 H3367 H 0.36371 0.32841 0.77306
 H3368 H 0.40717 0.29778 0.75294
 H3369 H 0.37495 0.26069 0.78749
 H3370 H 0.39547 0.24007 0.78304
 H3371 H 0.42184 0.23199 0.77206
 H3372 H 0.42741 0.27751 0.74891
 C3373 C 0.87471 0.31503 0.29196
 C3374 C 0.88678 0.30628 0.28405
 C3375 C 0.88931 0.29023 0.28820
 C3376 C 0.87928 0.28307 0.29982
 C3377 C 0.86700 0.29177 0.30738
 C3378 C 0.86467 0.30791 0.30370
 C3379 C 0.90188 0.28167 0.28076
 C3380 C 0.91182 0.28894 0.26909
 C3381 C 0.90882 0.30483 0.26456
 C3382 C 0.89642 0.31341 0.27212
 C3383 C 0.91849 0.31202 0.25273
 C3384 C 0.93156 0.30390 0.24601
 C3385 C 0.93533 0.28840 0.25101
 C3386 C 0.92500 0.28078 0.26219
 H3387 H 0.87338 0.32751 0.28912
 H3388 H 0.88090 0.27072 0.30304
 H3389 H 0.85925 0.28576 0.31604
 H3390 H 0.90405 0.26945 0.28419
 H3391 H 0.89437 0.32568 0.26882
 H3392 H 0.91624 0.32412 0.24900
 H3393 H 0.93916 0.31010 0.23734
 H3394 H 0.92758 0.26879 0.26604
 C3395 C 0.39123 0.78594 0.46700
 C3396 C 0.37608 0.77880 0.47073
 C3397 C 0.37519 0.76241 0.47442
 C3398 C 0.38955 0.75352 0.47468
 C3399 C 0.40456 0.76068 0.47079
 C3400 C 0.40551 0.77686 0.46666
 C3401 C 0.35996 0.75512 0.47754
 C3402 C 0.34559 0.76403 0.47708
 C3403 C 0.34658 0.78051 0.47365
 C3404 C 0.36177 0.78775 0.47045
 C3405 C 0.33233 0.78952 0.47352
 C3406 C 0.31726 0.78238 0.47698
 C3407 C 0.31610 0.76607 0.48034
 C3408 C 0.33026 0.75684 0.48018
 H3409 H 0.39181 0.79837 0.46364
 H3410 H 0.38915 0.74098 0.47757
 H3411 H 0.41544 0.75348 0.47071
 H3412 H 0.35928 0.74252 0.48027
 H3413 H 0.36244 0.80034 0.46768
 H3414 H 0.33284 0.80214 0.47092
 H3415 H 0.30642 0.78959 0.47698
 H3416 H 0.32938 0.74427 0.48294
 C3417 C 0.37894 0.30399 0.94188
 C3418 C 0.36518 0.29881 0.95064
 C3419 C 0.35303 0.30984 0.95502
 C3420 C 0.35477 0.32578 0.95050
 C3421 C 0.36834 0.33077 0.94159
 C3422 C 0.38066 0.32002 0.93729
 C3423 C 0.33922 0.30474 0.96367
 C3424 C 0.33718 0.28866 0.96768
 C3425 C 0.34929 0.27760 0.96333
 C3426 C 0.36332 0.28279 0.95502
 C3427 C 0.34691 0.26145 0.96691
 C3428 C 0.33232 0.25620 0.97402
 C3429 C 0.32008 0.26706 0.97810
 C3430 C 0.32284 0.28336 0.97535
 H3431 H 0.38842 0.29560 0.93888
 H3432 H 0.34552 0.33436 0.95364
 H3433 H 0.36912 0.34311 0.93798
 H3434 H 0.32988 0.31321 0.96692
 H3435 H 0.37259 0.27429 0.95163
 H3436 H 0.35605 0.25280 0.96365
 H3437 H 0.33040 0.24358 0.97593
 H3438 H 0.31334 0.29181 0.97817
 C3439 C 0.80821 0.44647 0.36276
 C3440 C 0.79751 0.45395 0.35211
 C3441 C 0.78043 0.45267 0.35451
 C3442 C 0.77438 0.44429 0.36779
 C3443 C 0.78512 0.43708 0.37849
 C3444 C 0.80216 0.43789 0.37603
 C3445 C 0.76969 0.45970 0.34356
 C3446 C 0.77584 0.46816 0.33032
 C3447 C 0.79295 0.46979 0.32822
 C3448 C 0.80366 0.46262 0.33905
 C3449 C 0.79913 0.47843 0.31519
 C3450 C 0.78850 0.48513 0.30413
 C3451 C 0.77143 0.48322 0.30572
 C3452 C 0.76518 0.47481 0.31900
 H3453 H 0.82126 0.44708 0.36050
 H3454 H 0.76133 0.44331 0.36994
 H3455 H 0.78003 0.43093 0.38876
 H3456 H 0.75658 0.45851 0.34529
 H3457 H 0.81677 0.46372 0.33727
 H3458 H 0.81220 0.47983 0.31341
 H3459 H 0.79375 0.49139 0.29399
 H3460 H 0.75208 0.47320 0.32038
 C3461 C 0.79332 0.96832 0.88409
 C3462 C 0.78648 0.97332 0.86957
 C3463 C 0.76929 0.97338 0.86773
 C3464 C 0.75924 0.96885 0.88060
 C3465 C 0.76615 0.96392 0.89503
 C3466 C 0.78323 0.96337 0.89686
 C3467 C 0.76242 0.97774 0.85301
 C3468 C 0.77253 0.98207 0.84010
 C3469 C 0.78972 0.98238 0.84207
 C3470 C 0.79658 0.97797 0.85677
 C3471 C 0.79978 0.98696 0.82923
 C3472 C 0.79291 0.99102 0.81450
 C3473 C 0.77586 0.99043 0.81231
 C3474 C 0.76573 0.98599 0.82521
 H3475 H 0.80650 0.96777 0.88525
 H3476 H 0.74605 0.96895 0.87946
 H3477 H 0.75810 0.96044 0.90477
 H3478 H 0.74924 0.97760 0.85155
 H3479 H 0.80977 0.97802 0.85820
 H3480 H 0.81297 0.98729 0.83052
 H3481 H 0.80098 0.99430 0.80471
 H3482 H 0.75256 0.98560 0.82366
 C3483 C 0.30022 0.80322 0.37520
 C3484 C 0.29113 0.79695 0.38805
 C3485 C 0.28337 0.80735 0.39897
 C3486 C 0.28472 0.82383 0.39676
 C3487 C 0.29404 0.82998 0.38410
 C3488 C 0.30203 0.81979 0.37328
 C3489 C 0.27478 0.80114 0.41217
 C3490 C 0.27426 0.78468 0.41485
 C3491 C 0.28199 0.77427 0.40390
 C3492 C 0.29012 0.78045 0.39042
 C3493 C 0.28199 0.75788 0.40695
 C3494 C 0.27505 0.75192 0.42107
 C3495 C 0.26757 0.76219 0.43213
 C3496 C 0.26681 0.77852 0.42873
 H3497 H 0.30606 0.79519 0.36681
 H3498 H 0.27891 0.83198 0.40504
 H3499 H 0.29537 0.84277 0.38309
 H3500 H 0.26897 0.80914 0.42063
 H3501 H 0.29615 0.77246 0.38210
 H3502 H 0.28787 0.74973 0.39871
 H3503 H 0.27581 0.73932 0.42352
 H3504 H 0.26134 0.78655 0.43737
 C3505 C 0.31075 0.29420 0.86459
 C3506 C 0.30517 0.28906 0.87965
 C3507 C 0.29958 0.30039 0.89095
 C3508 C 0.30067 0.31664 0.88750
 C3509 C 0.30627 0.32164 0.87255
 C3510 C 0.31074 0.31048 0.86074
 C3511 C 0.29244 0.29531 0.90529
 C3512 C 0.29106 0.27907 0.90865
 C3513 C 0.29749 0.26769 0.89790
 C3514 C 0.30445 0.27276 0.88336
 C3515 C 0.29651 0.25145 0.90183
 C3516 C 0.28892 0.24659 0.91613
 C3517 C 0.28186 0.25790 0.92634
 C3518 C 0.28312 0.27409 0.92258
 H3519 H 0.31418 0.28550 0.85559
 H3520 H 0.29675 0.32545 0.89619
 H3521 H 0.30664 0.33426 0.87003
 H3522 H 0.28754 0.30398 0.91364
 H3523 H 0.30896 0.26407 0.87483
 H3524 H 0.30152 0.24254 0.89383
 H3525 H 0.28822 0.23406 0.91903
 H3526 H 0.27794 0.28287 0.93063
 C3527 C 0.44079 0.29815 0.86710
 C3528 C 0.44958 0.28976 0.85533
 C3529 C 0.46679 0.29149 0.85451
 C3530 C 0.47500 0.30093 0.86591
 C3531 C 0.46624 0.30902 0.87769
 C3532 C 0.44902 0.30813 0.87819
 C3533 C 0.47554 0.28395 0.84221
 C3534 C 0.46732 0.27452 0.83077
 C3535 C 0.45019 0.27219 0.83198
 C3536 C 0.44142 0.27989 0.84419
 C3537 C 0.44208 0.26243 0.82076
 C3538 C 0.45074 0.25549 0.80814
 C3539 C 0.46765 0.25831 0.80639
 C3540 C 0.47592 0.26767 0.81792
 H3541 H 0.42756 0.29731 0.86727
 H3542 H 0.48821 0.30218 0.86563
 H3543 H 0.47301 0.31612 0.88638
 H3544 H 0.48870 0.28559 0.84143
 H3545 H 0.42824 0.27836 0.84489
 H3546 H 0.42898 0.26043 0.82153
 H3547 H 0.44402 0.24848 0.79932
 H3548 H 0.48896 0.26989 0.81670
 C3549 C 0.94467 0.30048 0.36748
 C3550 C 0.95337 0.29478 0.35410
 C3551 C 0.97054 0.29310 0.35499
 C3552 C 0.97861 0.29651 0.36945
 C3553 C 0.96990 0.30216 0.38268
 C3554 C 0.95293 0.30461 0.38173
 C3555 C 0.97938 0.28831 0.34135
 C3556 C 0.97126 0.28506 0.32684
 C3557 C 0.95401 0.28622 0.32616
 C3558 C 0.94521 0.29114 0.33972
 C3559 C 0.94580 0.28257 0.31185
 C3560 C 0.95456 0.27791 0.29831
 C3561 C 0.97172 0.27707 0.29863
 C3562 C 0.98007 0.28072 0.31296
 H3563 H 0.93162 0.30238 0.36655
 H3564 H 0.99173 0.29510 0.37045
 H3565 H 0.97652 0.30493 0.39363
 H3566 H 0.99257 0.28728 0.34201
 H3567 H 0.93203 0.29227 0.33904
 H3568 H 0.93261 0.28335 0.31110
 H3569 H 0.94787 0.27528 0.28739
 H3570 H 0.99329 0.28002 0.31333
 C3571 C 0.43514 0.35757 0.80937
 C3572 C 0.44454 0.34569 0.80206
 C3573 C 0.46042 0.34264 0.80779
 C3574 C 0.46675 0.35180 0.82053
 C3575 C 0.45760 0.36412 0.82726
 C3576 C 0.44165 0.36726 0.82178
 C3577 C 0.46979 0.33067 0.80052
 C3578 C 0.46367 0.32211 0.78720
 C3579 C 0.44796 0.32559 0.78119
 C3580 C 0.43839 0.33711 0.78882
 C3581 C 0.44204 0.31753 0.76758
 C3582 C 0.45144 0.30590 0.76011
 C3583 C 0.46683 0.30179 0.76626
 C3584 C 0.47295 0.31012 0.77979
 H3585 H 0.42276 0.35927 0.80518
 H3586 H 0.47896 0.34974 0.82501
 H3587 H 0.46330 0.37142 0.83648
 H3588 H 0.48191 0.32818 0.80506
 H3589 H 0.42627 0.33959 0.78427
 H3590 H 0.43009 0.32015 0.76274
 H3591 H 0.44637 0.29981 0.74973
 H3592 H 0.48478 0.30715 0.78469
 C3593 C 0.94662 0.38203 0.30183
 C3594 C 0.95214 0.36861 0.29334
 C3595 C 0.94066 0.35825 0.28578
 C3596 C 0.92392 0.36116 0.28721
 C3597 C 0.91856 0.37451 0.29557
 C3598 C 0.92981 0.38524 0.30267
 C3599 C 0.94606 0.34524 0.27674
 C3600 C 0.96281 0.34234 0.27520
 C3601 C 0.97433 0.35239 0.28307
 C3602 C 0.96893 0.36553 0.29202
 C3603 C 0.99106 0.34900 0.28193
 C3604 C 0.99627 0.33573 0.27319
 C3605 C 0.98488 0.32594 0.26510
 C3606 C 0.96818 0.32937 0.26607
 H3607 H 0.95537 0.39026 0.30723
 H3608 H 0.91497 0.35324 0.28165
 H3609 H 0.90554 0.37661 0.29630
 H3610 H 0.93723 0.33740 0.27087
 H3611 H 0.97777 0.37335 0.29791
 H3612 H 1.00007 0.35648 0.28797
 H3613 H 1.00919 0.33311 0.27272
 H3614 H 0.95932 0.32158 0.26019
 C3615 C 0.28853 0.87603 0.45523
 C3616 C 0.28547 0.86097 0.46181
 C3617 C 0.29870 0.85156 0.46682
 C3618 C 0.31475 0.85721 0.46485
 C3619 C 0.31771 0.87208 0.45804
 C3620 C 0.30467 0.88173 0.45332
 C3621 C 0.29569 0.83659 0.47358
 C3622 C 0.27964 0.83071 0.47496
 C3623 C 0.26641 0.83994 0.46961
 C3624 C 0.26939 0.85513 0.46331
 C3625 C 0.25045 0.83366 0.47033
 C3626 C 0.24769 0.81821 0.47588
 C3627 C 0.26077 0.80902 0.48127
 C3628 C 0.27667 0.81549 0.48113
 H3629 H 0.27835 0.88338 0.45181
 H3630 H 0.32503 0.85007 0.46845
 H3631 H 0.33027 0.87598 0.45637
 H3632 H 0.30585 0.82940 0.47747
 H3633 H 0.25924 0.86225 0.45930
 H3634 H 0.24017 0.84053 0.46622
 H3635 H 0.23533 0.81338 0.47588
 H3636 H 0.28681 0.80840 0.48515
 C3637 C 0.31659 0.35880 0.92127
 C3638 C 0.30910 0.34574 0.92892
 C3639 C 0.31650 0.33064 0.92805
 C3640 C 0.33097 0.32878 0.91922
 C3641 C 0.33855 0.34193 0.91203
 C3642 C 0.33150 0.35700 0.91314
 C3643 C 0.30955 0.31775 0.93633
 C3644 C 0.29527 0.31972 0.94543
 C3645 C 0.28763 0.33469 0.94604
 C3646 C 0.29462 0.34762 0.93777
 C3647 C 0.27314 0.33645 0.95494
 C3648 C 0.26625 0.32346 0.96311
 C3649 C 0.27392 0.30869 0.96264
 C3650 C 0.28842 0.30688 0.95387
 H3651 H 0.31124 0.37049 0.92222
 H3652 H 0.33674 0.31729 0.91837
 H3653 H 0.35010 0.34043 0.90587
 H3654 H 0.31529 0.30620 0.93575
 H3655 H 0.28889 0.35917 0.93838
 H3656 H 0.26709 0.34782 0.95549
 H3657 H 0.25496 0.32491 0.96974
 H3658 H 0.29421 0.29535 0.95341
 C3659 C 0.78924 0.37900 0.30624
 C3660 C 0.78275 0.39210 0.29810
 C3661 C 0.79280 0.40089 0.28743
 C3662 C 0.80918 0.39677 0.28538
 C3663 C 0.81558 0.38393 0.29366
 C3664 C 0.80569 0.37472 0.30400
 C3665 C 0.78638 0.41373 0.27901
 C3666 C 0.77012 0.41819 0.28136
 C3667 C 0.76011 0.40975 0.29233
 C3668 C 0.76643 0.39660 0.30049
 C3669 C 0.74405 0.41480 0.29511
 C3670 C 0.73808 0.42821 0.28727
 C3671 C 0.74792 0.43646 0.27617
 C3672 C 0.76386 0.43126 0.27317
 H3673 H 0.78141 0.37203 0.31410
 H3674 H 0.81710 0.40354 0.27742
 H3675 H 0.82839 0.38127 0.29203
 H3676 H 0.79409 0.42036 0.27076
 H3677 H 0.75873 0.39002 0.30881
 H3678 H 0.73622 0.40857 0.30356
 H3679 H 0.72581 0.43216 0.28988
 H3680 H 0.77165 0.43784 0.26494
   
