data_POSCAR
  _audit_creation_date              2014-09-24
  _audit_creation_method            'ToBaCCo'
  _symmetry_space_group_name_H-M    'P1'
  _symmetry_Int_Tables_number       1
  _symmetry_cell_setting            triclinic
  loop_
  _symmetry_equiv_pos_as_xyz
 x,y,z
_cell_length_a 36.5217
_cell_length_b 37.3960
_cell_length_c 47.7211
_cell_angle_alpha 89.862100
_cell_angle_beta 90.046900
_cell_angle_gamma 90.089000
loop_
  _atom_site_label
  _atom_site_type_symbol
  _atom_site_fract_x
  _atom_site_fract_y
  _atom_site_fract_z
Zr1 Zr 0.24874 0.25124 0.29795
 O2 O 0.27853 0.27940 0.32897
 O3 O 0.21277 0.22088 0.32263
 O4 O 0.21512 0.28744 0.32010
 O5 O 0.31514 0.18655 0.28802
 O6 O 0.18369 0.31706 0.28582
 O7 O 0.28347 0.21707 0.32147
 O8 O 0.17723 0.19228 0.29040
 O9 O 0.20019 0.25308 0.27457
 O10 O 0.24638 0.20356 0.27521
 O11 O 0.25271 0.29747 0.27286
 O12 O 0.29731 0.24993 0.27403
 Zr13 Zr 0.24982 0.24954 0.20011
 Zr14 Zr 0.20539 0.29743 0.24798
 Zr15 Zr 0.29276 0.20332 0.24979
 Zr16 Zr 0.19925 0.20633 0.25092
 O17 O 0.35070 0.20451 0.24839
 O18 O 0.14247 0.21801 0.24983
 O19 O 0.24553 0.20276 0.22477
 O20 O 0.20154 0.25070 0.22412
 O21 O 0.25200 0.29762 0.22244
 O22 O 0.29785 0.24779 0.22385
 C23 C 0.18619 0.20004 0.31581
 C24 C 0.30799 0.19432 0.31366
 C25 C 0.19128 0.31053 0.31169
 O26 O 0.14755 0.29564 0.24565
 O27 O 0.18808 0.31834 0.20907
 O28 O 0.21874 0.28595 0.17620
 C29 C 0.19612 0.31061 0.18349
 O30 O 0.32423 0.31523 0.28388
 Zr31 Zr 0.29898 0.29456 0.24717
 O32 O 0.28576 0.28003 0.17548
 O33 O 0.21267 0.35354 0.24917
 O34 O 0.29244 0.35086 0.24569
 O35 O 0.35623 0.28520 0.24615
 O36 O 0.31835 0.31178 0.20772
 C37 C 0.31046 0.30295 0.18234
 O38 O 0.21836 0.22279 0.16929
 O39 O 0.28491 0.14733 0.25222
 O40 O 0.28158 0.21208 0.17785
 O41 O 0.30996 0.17972 0.21207
 O42 O 0.20296 0.14991 0.25458
 O43 O 0.17761 0.18165 0.21440
 C44 C 0.30328 0.18706 0.18620
 H45 H 0.24581 0.18204 0.28733
 H46 H 0.17961 0.25093 0.21190
 H47 H 0.32034 0.24577 0.21241
 H48 H 0.25423 0.31931 0.28450
 H49 H 0.12920 0.19609 0.25565
 H50 H 0.13888 0.32073 0.24593
 H51 H 0.18795 0.36429 0.24780
 H52 H 0.31634 0.36131 0.24020
 H53 H 0.17832 0.14088 0.25971
 H54 H 0.30960 0.13642 0.25307
 H55 H 0.35915 0.17934 0.24824
 H56 H 0.36828 0.30800 0.24085
 H57 H 0.15610 0.16689 0.21953
 H58 H 0.22800 0.23020 0.15073
 H59 H 0.26913 0.27143 0.34747
 H60 H 0.34112 0.33488 0.27866
 Zr61 Zr 0.75283 0.74672 0.29862
 O62 O 0.72657 0.71535 0.32970
 O63 O 0.78784 0.77845 0.32316
 O64 O 0.79011 0.71275 0.31924
 O65 O 0.68113 0.80628 0.29199
 O66 O 0.81929 0.68323 0.28399
 O67 O 0.71716 0.77713 0.32374
 O68 O 0.82063 0.80957 0.29062
 O69 O 0.80033 0.74816 0.27421
 O70 O 0.75132 0.79530 0.27695
 O71 O 0.74994 0.70118 0.27290
 O72 O 0.70315 0.74621 0.27596
 Zr73 Zr 0.74742 0.75173 0.20120
 Zr74 Zr 0.79615 0.70440 0.24706
 Zr75 Zr 0.70380 0.79390 0.25269
 Zr76 Zr 0.79752 0.79577 0.25153
 O77 O 0.64596 0.79005 0.25166
 O78 O 0.85484 0.78756 0.24876
 O79 O 0.74996 0.79777 0.22665
 O80 O 0.79663 0.75215 0.22408
 O81 O 0.74861 0.70280 0.22254
 O82 O 0.70021 0.75023 0.22588
 C83 C 0.81315 0.80068 0.31609
 C84 C 0.69019 0.79768 0.31719
 C85 C 0.81346 0.68979 0.31009
 O86 O 0.85373 0.70933 0.24409
 O87 O 0.81296 0.68594 0.20745
 O88 O 0.77930 0.71781 0.17587
 C89 C 0.80344 0.69407 0.18222
 O90 O 0.67977 0.67932 0.28501
 Zr91 Zr 0.70252 0.70261 0.24825
 O92 O 0.71222 0.72043 0.17665
 O93 O 0.79185 0.64797 0.24678
 O94 O 0.71187 0.64678 0.24564
 O95 O 0.64487 0.70932 0.24862
 O96 O 0.68264 0.68578 0.20886
 C97 C 0.68913 0.69592 0.18351
 O98 O 0.77633 0.78094 0.17022
 O99 O 0.70844 0.85001 0.25706
 O100 O 0.71342 0.78869 0.18049
 O101 O 0.68457 0.81854 0.21574
 O102 O 0.79088 0.85174 0.25644
 O103 O 0.81580 0.82267 0.21482
 C104 C 0.69110 0.81261 0.18963
 H105 H 0.75110 0.81626 0.28959
 H106 H 0.81804 0.75346 0.21140
 H107 H 0.67730 0.75157 0.21484
 H108 H 0.75000 0.67896 0.28422
 H109 H 0.86700 0.81010 0.25450
 H110 H 0.86370 0.68471 0.24347
 H111 H 0.81702 0.63850 0.24466
 H112 H 0.68836 0.63535 0.24039
 H113 H 0.81525 0.86191 0.26095
 H114 H 0.68318 0.85937 0.25871
 H115 H 0.63628 0.81476 0.25267
 H116 H 0.63374 0.68625 0.24296
 H117 H 0.83652 0.83864 0.21961
 H118 H 0.76630 0.77380 0.15172
 H119 H 0.73635 0.72303 0.34814
 H120 H 0.66349 0.65924 0.27971
 Zr121 Zr 0.75242 0.24765 -0.29658
 O122 O 0.72220 0.27412 -0.32830
 O123 O 0.78922 0.21764 -0.32056
 O124 O 0.78584 0.28358 -0.31940
 O125 O 0.68834 0.18084 -0.28531
 O126 O 0.81328 0.31774 -0.28583
 O127 O 0.71875 0.21181 -0.31936
 O128 O 0.82601 0.19169 -0.28775
 O129 O 0.80070 0.25247 -0.27318
 O130 O 0.75666 0.20081 -0.27282
 O131 O 0.74619 0.29447 -0.27265
 O132 O 0.70384 0.24490 -0.27273
 Zr133 Zr 0.75076 0.24910 -0.19884
 Zr134 Zr 0.79328 0.29739 -0.24762
 Zr135 Zr 0.71029 0.19929 -0.24742
 Zr136 Zr 0.80354 0.20648 -0.24856
 O137 O 0.65238 0.19772 -0.24556
 O138 O 0.85974 0.22079 -0.24800
 O139 O 0.75737 0.20175 -0.22233
 O140 O 0.79906 0.25155 -0.22279
 O141 O 0.74659 0.29633 -0.22222
 O142 O 0.70300 0.24438 -0.22262
 C143 C 0.81657 0.19805 -0.31334
 C144 C 0.69500 0.18843 -0.31109
 C145 C 0.80745 0.30902 -0.31155
 O146 O 0.85116 0.29830 -0.24577
 O147 O 0.81006 0.31979 -0.20913
 O148 O 0.78058 0.28710 -0.17564
 C149 C 0.80242 0.31229 -0.18340
 O150 O 0.67388 0.30824 -0.28430
 Zr151 Zr 0.69994 0.29030 -0.24700
 O152 O 0.71388 0.27933 -0.17500
 O153 O 0.78337 0.35307 -0.24946
 O154 O 0.70387 0.34687 -0.24717
 O155 O 0.64316 0.27843 -0.24567
 O156 O 0.67983 0.30827 -0.20802
 C157 C 0.68827 0.30097 -0.18242
 O158 O 0.78280 0.22406 -0.16744
 O159 O 0.72045 0.14364 -0.24911
 O160 O 0.71941 0.21205 -0.17572
 O161 O 0.69503 0.17552 -0.20913
 O162 O 0.80203 0.14984 -0.25053
 O163 O 0.82660 0.18424 -0.21152
 C164 C 0.70000 0.18506 -0.18351
 H165 H 0.75806 0.17898 -0.28446
 H166 H 0.82093 0.25309 -0.21058
 H167 H 0.68056 0.24183 -0.21116
 H168 H 0.74378 0.31578 -0.28486
 H169 H 0.87396 0.19932 -0.25335
 H170 H 0.85867 0.32377 -0.24644
 H171 H 0.80757 0.36502 -0.24836
 H172 H 0.67950 0.35641 -0.24199
 H173 H 0.82693 0.14160 -0.25561
 H174 H 0.69625 0.13165 -0.24960
 H175 H 0.64517 0.17217 -0.24490
 H176 H 0.63012 0.30086 -0.24099
 H177 H 0.84860 0.17013 -0.21641
 H178 H 0.77291 0.23172 -0.14905
 H179 H 0.73200 0.26589 -0.34656
 H180 H 0.65608 0.32727 -0.27966
 Zr181 Zr 0.24830 0.74831 -0.29998
 O182 O 0.27530 0.71797 -0.33116
 O183 O 0.21320 0.78008 -0.32453
 O184 O 0.21236 0.71316 -0.32096
 O185 O 0.32003 0.80783 -0.29270
 O186 O 0.18055 0.68566 -0.28582
 O187 O 0.28407 0.77960 -0.32472
 O188 O 0.18032 0.81067 -0.29207
 O189 O 0.20049 0.74961 -0.27585
 O190 O 0.24973 0.79662 -0.27810
 O191 O 0.25053 0.70256 -0.27424
 O192 O 0.29772 0.74743 -0.27699
 Zr193 Zr 0.25260 0.75214 -0.20241
 Zr194 Zr 0.20400 0.70566 -0.24869
 Zr195 Zr 0.29699 0.79486 -0.25355
 Zr196 Zr 0.20331 0.79689 -0.25293
 O197 O 0.35479 0.79087 -0.25222
 O198 O 0.14593 0.78881 -0.25021
 O199 O 0.25060 0.79847 -0.22776
 O200 O 0.20361 0.75307 -0.22553
 O201 O 0.25132 0.70351 -0.22394
 O202 O 0.30005 0.75089 -0.22683
 C203 C 0.18773 0.80222 -0.31764
 C204 C 0.31118 0.80017 -0.31817
 C205 C 0.18794 0.69108 -0.31187
 O206 O 0.14644 0.71078 -0.24584
 O207 O 0.18650 0.68686 -0.20923
 O208 O 0.22057 0.71757 -0.17744
 C209 C 0.19602 0.69410 -0.18380
 O210 O 0.32055 0.68047 -0.28605
 Zr211 Zr 0.29772 0.70354 -0.24935
 O212 O 0.28757 0.72066 -0.17777
 O213 O 0.20784 0.64922 -0.24879
 O214 O 0.28806 0.64770 -0.24688
 O215 O 0.35541 0.71016 -0.24944
 O216 O 0.31725 0.68630 -0.20990
 C217 C 0.31063 0.69622 -0.18457
 O218 O 0.22340 0.78084 -0.17145
 O219 O 0.29268 0.85103 -0.25769
 O220 O 0.28641 0.78894 -0.18138
 O221 O 0.31593 0.81904 -0.21635
 O222 O 0.21014 0.85287 -0.25797
 O223 O 0.18513 0.82377 -0.21631
 C224 C 0.30897 0.81291 -0.19029
 H225 H 0.25009 0.81772 -0.29066
 H226 H 0.18211 0.75429 -0.21294
 H227 H 0.32287 0.75210 -0.21566
 H228 H 0.25049 0.68038 -0.28552
 H229 H 0.13391 0.81139 -0.25600
 H230 H 0.13625 0.68620 -0.24545
 H231 H 0.18257 0.63987 -0.24681
 H232 H 0.31148 0.63618 -0.24155
 H233 H 0.18582 0.86303 -0.26261
 H234 H 0.31801 0.86036 -0.25919
 H235 H 0.36460 0.81558 -0.25302
 H236 H 0.36639 0.68701 -0.24380
 H237 H 0.16446 0.83975 -0.22115
 H238 H 0.23320 0.77337 -0.15294
 H239 H 0.26571 0.72592 -0.34962
 H240 H 0.33680 0.66040 -0.28070
 Zr241 Zr 1.25099 1.25034 0.79934
 O242 O 1.22161 1.22233 0.83073
 O243 O 1.28821 1.27992 0.82343
 O244 O 1.28546 1.21442 0.82090
 O245 O 1.18743 1.31801 0.79120
 O246 O 1.31277 1.18201 0.78633
 O247 O 1.21876 1.28529 0.82370
 O248 O 1.32223 1.30896 0.79041
 O249 O 1.29863 1.24727 0.77511
 O250 O 1.25361 1.29792 0.77636
 O251 O 1.24478 1.20418 0.77467
 O252 O 1.20141 1.25288 0.77661
 Zr253 Zr 1.24649 1.25228 0.70190
 Zr254 Zr 1.29115 1.20297 0.74888
 Zr255 Zr 1.20614 1.29942 0.75216
 Zr256 Zr 1.29981 1.29405 0.75131
 O257 O 1.14821 1.29885 0.75280
 O258 O 1.35621 1.28080 0.75022
 O259 O 1.25260 1.29889 0.72626
 O260 O 1.29556 1.24969 0.72485
 O261 O 1.24374 1.20422 0.72434
 O262 O 1.19917 1.25504 0.72638
 C263 C 1.31405 1.30130 0.81601
 C264 C 1.19572 1.30985 0.81668
 C265 C 1.30734 1.18979 0.81225
 O266 O 1.34892 1.20320 0.74558
 O267 O 1.30601 1.18120 0.70977
 O268 O 1.27640 1.21575 0.67753
 C269 C 1.29783 1.18984 0.68435
 O270 O 1.17222 1.18968 0.78718
 Zr271 Zr 1.19771 1.20832 0.74987
 O272 O 1.20977 1.22224 0.67776
 O273 O 1.28225 1.14706 0.75024
 O274 O 1.20226 1.15179 0.75009
 O275 O 1.14066 1.21864 0.74817
 O276 O 1.17898 1.18968 0.71062
 C277 C 1.18635 1.19828 0.68505
 O278 O 1.27733 1.27879 0.67052
 O279 O 1.21491 1.35534 0.75342
 O280 O 1.21494 1.29032 0.68018
 O281 O 1.18774 1.32306 0.71460
 O282 O 1.29786 1.35063 0.75385
 O283 O 1.32132 1.31745 0.71417
 C284 C 1.19386 1.31564 0.68868
 H285 H 1.25525 1.31955 0.78821
 H286 H 1.31707 1.24888 0.71225
 H287 H 1.17648 1.25725 0.71515
 H288 H 1.24305 1.18249 0.78654
 H289 H 1.37011 1.30246 0.75572
 H290 H 1.35682 1.17786 0.74570
 H291 H 1.30657 1.13557 0.74850
 H292 H 1.17798 1.14192 0.74495
 H293 H 1.32292 1.35913 0.75829
 H294 H 1.19047 1.36665 0.75491
 H295 H 1.14017 1.32415 0.75270
 H296 H 1.12835 1.19593 0.74308
 H297 H 1.34387 1.33098 0.71873
 H298 H 1.26713 1.27152 0.65211
 H299 H 1.23184 1.22978 0.84908
 H300 H 1.15411 1.17089 0.78248
 Zr301 Zr 0.74400 0.75117 0.79620
 O302 O 0.77326 0.77950 0.82741
 O303 O 0.70779 0.72070 0.82052
 O304 O 0.70921 0.78614 0.81820
 O305 O 0.80892 0.68492 0.78733
 O306 O 0.68055 0.81841 0.78404
 O307 O 0.77766 0.71683 0.82018
 O308 O 0.67356 0.69152 0.78777
 O309 O 0.69586 0.75361 0.77241
 O310 O 0.74179 0.70376 0.77317
 O311 O 0.74881 0.79768 0.77161
 O312 O 0.79316 0.74973 0.77302
 Zr313 Zr 0.74682 0.75041 0.69855
 Zr314 Zr 0.70196 0.79829 0.74625
 Zr315 Zr 0.78879 0.70337 0.74852
 Zr316 Zr 0.69512 0.70710 0.74846
 O317 O 0.84672 0.70479 0.74840
 O318 O 0.63845 0.71933 0.74782
 O319 O 0.74195 0.70345 0.72293
 O320 O 0.69811 0.75182 0.72202
 O321 O 0.74899 0.79819 0.72126
 O322 O 0.79450 0.74811 0.72278
 C323 C 0.68207 0.69911 0.81331
 C324 C 0.80120 0.69290 0.81291
 C325 C 0.68663 0.81042 0.80990
 O326 O 0.64416 0.79690 0.74349
 O327 O 0.68586 0.82016 0.70737
 O328 O 0.71658 0.78769 0.67457
 C329 C 0.69439 0.81283 0.68180
 O330 O 0.82108 0.81359 0.78353
 Zr331 Zr 0.79551 0.79461 0.74639
 O332 O 0.78307 0.78089 0.67431
 O333 O 0.70973 0.85434 0.74768
 O334 O 0.78977 0.85103 0.74648
 O335 O 0.85273 0.78532 0.74449
 O336 O 0.81369 0.81359 0.70709
 C337 C 0.80636 0.80493 0.68157
 O338 O 0.71558 0.72410 0.66739
 O339 O 0.78093 0.64731 0.74989
 O340 O 0.77880 0.71291 0.67645
 O341 O 0.80672 0.68029 0.71077
 O342 O 0.69832 0.65056 0.75087
 O343 O 0.67331 0.68362 0.71151
 C344 C 0.80036 0.68778 0.68486
 H345 H 0.74083 0.68203 0.78502
 H346 H 0.67640 0.75243 0.70959
 H347 H 0.81709 0.74631 0.71143
 H348 H 0.75032 0.81929 0.78351
 H349 H 0.62506 0.69740 0.75345
 H350 H 0.63571 0.82207 0.74382
 H351 H 0.68513 0.86536 0.74628
 H352 H 0.81379 0.86140 0.74119
 H353 H 0.67358 0.64152 0.75568
 H354 H 0.80558 0.63638 0.75110
 H355 H 0.85515 0.67962 0.74820
 H356 H 0.86460 0.80828 0.73941
 H357 H 0.65125 0.66945 0.71632
 H358 H 0.72548 0.73171 0.64895
 H359 H 0.76355 0.77163 0.84583
 H360 H 0.83859 0.83289 0.77871
 Zr361 Zr 1.25567 0.75044 0.20389
 O362 O 1.22663 0.77905 0.17264
 O363 O 1.29144 0.71964 0.17956
 O364 O 1.29009 0.78592 0.18184
 O365 O 1.18920 0.68534 0.21278
 O366 O 1.32177 0.81529 0.21605
 O367 O 1.22139 0.71671 0.17996
 O368 O 1.32460 0.68915 0.21228
 O369 O 1.30394 0.75163 0.22762
 O370 O 1.25669 0.70286 0.22694
 O371 O 1.25220 0.79686 0.22855
 O372 O 1.20650 0.74992 0.22710
 Zr373 Zr 1.25291 0.74919 0.30151
 Zr374 Zr 1.29914 0.79623 0.25386
 Zr375 Zr 1.20967 0.70331 0.25161
 Zr376 Zr 1.30346 0.70499 0.25160
 O377 O 1.15181 0.70603 0.25164
 O378 O 1.36041 0.71603 0.25224
 O379 O 1.25654 0.70226 0.27715
 O380 O 1.30169 0.74957 0.27809
 O381 O 1.25205 0.79711 0.27880
 O382 O 1.20517 0.74804 0.27733
 C383 C 1.31647 0.69727 0.18674
 C384 C 1.19729 0.69319 0.18721
 C385 C 1.31415 0.80876 0.19021
 O386 O 1.35685 0.79352 0.25715
 O387 O 1.31539 0.81786 0.29278
 O388 O 1.28397 0.78565 0.32551
 C389 C 1.30659 0.81055 0.31833
 O390 O 1.18048 0.81447 0.21652
 Zr391 Zr 1.20540 0.79470 0.25371
 O392 O 1.21739 0.78032 0.32578
 O393 O 1.29307 0.85244 0.25190
 O394 O 1.21261 0.85098 0.25366
 O395 O 1.14795 0.78668 0.25558
 O396 O 1.18763 0.81385 0.29297
 C397 C 1.19468 0.80490 0.31851
 O398 O 1.28351 0.72208 0.33268
 O399 O 1.21608 0.64711 0.25036
 O400 O 1.22017 0.71226 0.32364
 O401 O 1.19111 0.68050 0.28944
 O402 O 1.29881 0.64854 0.24918
 O403 O 1.32461 0.68072 0.28853
 C404 C 1.19790 0.68769 0.31532
 H405 H 1.25715 0.68118 0.21508
 H406 H 1.32337 0.74963 0.29056
 H407 H 1.18254 0.74668 0.28868
 H408 H 1.25123 0.81862 0.21672
 H409 H 1.37325 0.69387 0.24658
 H410 H 1.36600 0.81847 0.25666
 H411 H 1.31797 0.86282 0.25344
 H412 H 1.18884 0.86183 0.25886
 H413 H 1.32332 0.63901 0.24439
 H414 H 1.19115 0.63671 0.24917
 H415 H 1.14271 0.68105 0.25191
 H416 H 1.13668 0.80990 0.26058
 H417 H 1.34640 0.66625 0.28373
 H418 H 1.27384 0.72980 0.35113
 H419 H 1.23614 0.77115 0.15419
 H420 H 1.16343 0.83409 0.22131
 Zr421 Zr 0.74853 1.24939 0.20041
 O422 O 0.77793 1.22150 0.16913
 O423 O 0.71145 1.27908 0.17622
 O424 O 0.71401 1.21354 0.17886
 O425 O 0.81227 1.31707 0.20865
 O426 O 0.68652 1.18093 0.21342
 O427 O 0.78104 1.28452 0.17607
 O428 O 0.67732 1.30785 0.20915
 O429 O 0.70081 1.24609 0.22459
 O430 O 0.74586 1.29685 0.22333
 O431 O 0.75455 1.20314 0.22521
 O432 O 0.79800 1.25186 0.22328
 Zr433 Zr 0.75266 1.25088 0.29797
 Zr434 Zr 0.70808 1.20169 0.25093
 Zr435 Zr 0.79322 1.29830 0.24764
 Zr436 Zr 0.69957 1.29276 0.24832
 O437 O 0.85115 1.29783 0.24725
 O438 O 0.64316 1.27937 0.24927
 O439 O 0.74669 1.29755 0.27348
 O440 O 0.70368 1.24832 0.27489
 O441 O 0.75541 1.20291 0.27560
 O442 O 0.80004 1.25387 0.27355
 C443 C 0.68559 1.30036 0.18357
 C444 C 0.80415 1.30905 0.18314
 C445 C 0.69201 1.18886 0.18748
 O446 O 0.65031 1.20182 0.25410
 O447 O 0.69293 1.17973 0.29006
 O448 O 0.72256 1.21411 0.32232
 C449 C 0.70104 1.18822 0.31550
 O450 O 0.82704 1.18854 0.21294
 Zr451 Zr 0.80153 1.20722 0.25014
 O452 O 0.78938 1.22089 0.32221
 O453 O 0.71694 1.14582 0.24963
 O454 O 0.79680 1.15069 0.25014
 O455 O 0.85858 1.21770 0.25177
 O456 O 0.82037 1.18864 0.28945
 C457 C 0.81297 1.19716 0.31500
 O458 O 0.72174 1.27715 0.32928
 O459 O 0.78452 1.35421 0.24619
 O460 O 0.78418 1.28903 0.31967
 O461 O 0.81129 1.32198 0.28516
 O462 O 0.70165 1.34936 0.24577
 O463 O 0.67788 1.31597 0.28537
 C464 C 0.80518 1.31452 0.31110
 H465 H 0.74432 1.31853 0.21146
 H466 H 0.68212 1.24742 0.28743
 H467 H 0.82270 1.25613 0.28480
 H468 H 0.75628 1.18149 0.21339
 H469 H 0.62930 1.30102 0.24371
 H470 H 0.64236 1.17648 0.25395
 H471 H 0.69260 1.13427 0.25131
 H472 H 0.82104 1.14082 0.25538
 H473 H 0.67665 1.35786 0.24122
 H474 H 0.80898 1.36557 0.24477
 H475 H 0.85922 1.32314 0.24735
 H476 H 0.87091 1.19503 0.25693
 H477 H 0.65537 1.32947 0.28071
 H478 H 0.73192 1.26983 0.34771
 H479 H 0.76780 1.22905 0.15075
 H480 H 0.84509 1.16975 0.21774
 O481 O 0.47875 1.06024 0.03463
 O482 O 0.51816 0.93831 0.03551
 O483 O 0.43568 0.98091 0.03464
 O484 O 0.56157 1.01759 0.03532
 O485 O 0.45678 0.93147 0.02009
 O486 O 0.54087 1.06682 0.01982
 O487 O 0.56844 0.95743 0.01946
 O488 O 0.42883 1.04073 0.01801
 C489 C 0.44532 1.05653 0.03721
 C490 C 0.55141 0.94242 0.03878
 C491 C 0.44050 0.94864 0.03866
 C492 C 0.55726 1.05006 0.03864
 O493 O 0.51914 1.06044 -0.03457
 O494 O 0.47969 0.93784 -0.03442
 O495 O 0.43672 1.01743 -0.03553
 O496 O 0.56173 0.98010 -0.03453
 O497 O 0.54100 0.93100 -0.01886
 O498 O 0.45737 1.06674 -0.02011
 O499 O 0.56908 1.04017 -0.01851
 O500 O 0.42939 0.95726 -0.01886
 Co501 Co 0.49902 1.05731 0.00000
 Co502 Co 0.49889 0.94085 0.00053
 Co503 Co 0.43913 0.99905 -0.00041
 Co504 Co 0.55872 0.99883 0.00040
 O505 O 0.49895 0.99902 0.00013
 C506 C 0.55238 1.05610 -0.03754
 C507 C 0.44651 0.94200 -0.03792
 C508 C 0.44114 1.04992 -0.03897
 C509 C 0.55718 0.94766 -0.03786
 O510 O 0.97791 0.55844 0.53572
 O511 O 1.02022 0.43692 0.53316
 O512 O 0.93668 0.48088 0.53467
 O513 O 1.06287 0.51542 0.53627
 O514 O 0.95851 0.43161 0.51974
 O515 O 1.03997 0.56540 0.52345
 O516 O 1.06990 0.45614 0.51662
 O517 O 0.92863 0.54114 0.51735
 C518 C 0.94434 0.55600 0.53725
 C519 C 1.05352 0.44071 0.53596
 C520 C 0.94130 0.44837 0.53819
 C521 C 1.05715 0.54741 0.54125
 O522 O 1.02121 0.56174 0.46745
 O523 O 0.97895 0.44007 0.46416
 O524 O 0.93773 0.51757 0.46447
 O525 O 1.06378 0.48326 0.46487
 O526 O 1.04054 0.43317 0.47733
 O527 O 0.95916 0.56673 0.47990
 O528 O 1.07061 0.54267 0.48461
 O529 O 0.92933 0.45739 0.48172
 Co530 Co 0.99958 0.55709 0.50150
 Co531 Co 0.99957 0.44145 0.49874
 Co532 Co 0.93987 0.49927 0.49960
 Co533 Co 1.06015 0.49938 0.50055
 O534 O 0.99984 0.49931 0.50010
 C535 C 1.05465 0.55861 0.46530
 C536 C 0.94555 0.44307 0.46188
 C537 C 0.94318 0.54992 0.46085
 C538 C 1.05844 0.45116 0.45990
 O539 O 1.02234 0.46234 0.05337
 O540 O 1.02505 0.54594 -0.05414
 O541 O 1.02817 0.43643 -0.03162
 O542 O 1.02734 0.57212 0.03110
 O543 O 1.04780 0.48600 -0.04774
 O544 O 1.04533 0.52232 0.04810
 O545 O 1.04642 0.56609 -0.01624
 O546 O 1.04539 0.44282 0.01594
 C547 C 1.04795 0.44674 0.04154
 C548 C 1.05000 0.56197 -0.04174
 C549 C 1.05210 0.45337 -0.04485
 C550 C 1.05001 0.55497 0.04552
 O551 O 0.97645 0.54612 0.05237
 O552 O 0.97877 0.46223 -0.05439
 O553 O 0.97270 0.43647 0.03074
 O554 O 0.97433 0.57202 -0.03291
 O555 O 0.95597 0.52219 -0.04944
 O556 O 0.95337 0.48608 0.04669
 O557 O 0.95521 0.56620 0.01439
 O558 O 0.95546 0.44298 -0.01689
 Co559 Co 0.99946 0.50419 0.04505
 Co560 Co 1.00180 0.50408 -0.04633
 Co561 Co 1.00044 0.44599 -0.00049
 Co562 Co 1.00081 0.56277 -0.00089
 O563 O 1.00064 0.50427 -0.00066
 C564 C 0.95139 0.56177 0.03984
 C565 C 0.95291 0.44697 -0.04250
 C566 C 0.94901 0.45340 0.04413
 C567 C 0.95135 0.55483 -0.04697
 O568 O 0.52428 0.96827 0.55279
 O569 O 0.55574 1.01997 0.46121
 O570 O 0.51568 0.91007 0.47805
 O571 O 0.53837 1.06583 0.52464
 O572 O 0.54360 0.95773 0.46321
 O573 O 0.51409 1.03263 0.55783
 O574 O 0.53146 1.06979 0.47214
 O575 O 0.54797 0.94786 0.51417
 C576 C 0.55044 0.95309 0.54010
 C577 C 0.55675 1.05297 0.46062
 C578 C 0.53762 0.92456 0.45994
 C579 C 0.53756 1.05563 0.54966
 O580 O 0.44283 1.02197 0.54037
 O581 O 0.47284 0.97013 0.44740
 O582 O 0.48763 0.92020 0.52831
 O583 O 0.46092 1.06603 0.47793
 O584 O 0.48531 1.03420 0.44423
 O585 O 0.45126 0.96154 0.53621
 O586 O 0.46862 1.07109 0.53012
 O587 O 0.45583 0.94366 0.48489
 Co588 Co 0.48442 0.99637 0.54340
 Co589 Co 0.51291 0.99601 0.45799
 Co590 Co 0.50211 0.94827 0.49865
 Co591 Co 0.49968 1.06173 0.50116
 O592 O 0.49865 1.00270 0.50145
 C593 C 0.44267 1.05484 0.54113
 C594 C 0.45012 0.95081 0.45983
 C595 C 0.45948 0.92991 0.54042
 C596 C 0.46194 1.05694 0.45272
 O597 O 1.06965 1.02868 0.46985
 O598 O 0.93260 1.02886 0.53062
 O599 O 0.95769 1.02077 0.44603
 O600 O 1.04463 1.01934 0.55427
 O601 O 0.93860 1.04419 0.48306
 O602 O 1.06382 1.04327 0.51738
 O603 O 0.98401 1.04471 0.54839
 O604 O 1.01842 1.04551 0.45250
 C605 C 1.05152 1.05113 0.45604
 C606 C 0.95091 1.05057 0.54503
 C607 C 0.94258 1.04638 0.45752
 C608 C 1.05972 1.04516 0.54291
 O609 O 1.06900 0.97060 0.53106
 O610 O 0.93266 0.97184 0.46890
 O611 O 1.04512 0.97991 0.44641
 O612 O 0.95667 0.97933 0.55363
 O613 O 0.93755 0.95664 0.51627
 O614 O 1.06354 0.95625 0.48366
 O615 O 1.01743 0.95396 0.54803
 O616 O 0.98412 0.95504 0.45192
 Co617 Co 1.06040 0.99975 0.50045
 Co618 Co 0.94148 1.00037 0.49975
 Co619 Co 1.00133 1.00027 0.45434
 Co620 Co 1.00072 0.99938 0.54600
 O621 O 1.00098 0.99993 0.50014
 C622 C 1.05058 0.94824 0.54480
 C623 C 0.95089 0.94953 0.45508
 C624 C 1.06015 0.95430 0.45809
 C625 C 0.94131 0.95408 0.54179
 O626 O 0.56259 0.54396 -0.01737
 O627 O 0.43733 0.54395 0.01710
 O628 O 0.48239 0.54572 -0.04819
 O629 O 0.51727 0.54511 0.04773
 O630 O 0.43124 0.52914 -0.03044
 O631 O 0.56843 0.52865 0.03007
 O632 O 0.45653 0.51996 0.05397
 O633 O 0.54314 0.52051 -0.05430
 C634 C 0.55811 0.54628 -0.04288
 C635 C 0.44151 0.54582 0.04266
 C636 C 0.44933 0.55144 -0.04442
 C637 C 0.55034 0.55089 0.04398
 O638 O 0.56273 0.45633 0.01613
 O639 O 0.43658 0.45672 -0.01672
 O640 O 0.51627 0.45500 -0.04848
 O641 O 0.48319 0.45444 0.04764
 O642 O 0.43177 0.47148 0.03069
 O643 O 0.56776 0.47162 -0.03129
 O644 O 0.54414 0.47962 0.05332
 O645 O 0.45532 0.48030 -0.05385
 Co646 Co 0.55928 0.50015 -0.00057
 Co647 Co 0.44032 0.50033 0.00011
 Co648 Co 0.49933 0.50036 -0.04615
 Co649 Co 0.50023 0.49981 0.04557
 O650 O 0.49979 0.50017 -0.00027
 C651 C 0.55883 0.45391 0.04166
 C652 C 0.44059 0.45449 -0.04224
 C653 C 0.54941 0.44928 -0.04499
 C654 C 0.45006 0.44877 0.04405
 C655 C 0.36325 1.12840 0.12380
 C656 C 0.37263 1.12560 0.15223
 C657 C 0.35265 1.14406 0.17249
 C658 C 0.32305 1.16605 0.16473
 C659 C 0.31362 1.16873 0.13624
 C660 C 0.33341 1.14995 0.11601
 C661 C 0.38456 1.10899 0.10227
 C662 C 0.36642 1.09046 0.08082
 C663 C 0.38630 1.07285 0.06009
 C664 C 0.42479 1.07367 0.06019
 C665 C 0.44303 1.09180 0.08186
 C666 C 0.42306 1.10918 0.10279
 H667 H 0.36079 1.14148 0.19423
 H668 H 0.29107 1.18547 0.12954
 H669 H 0.37146 1.05896 0.04373
 H670 H 0.47266 1.09283 0.08246
 H671 H 0.32582 1.15279 0.09417
 H672 H 0.33679 1.08949 0.08015
 H673 H 0.39528 1.10890 0.15880
 H674 H 0.43769 1.12346 0.11905
 C675 C 0.86071 0.62865 0.62276
 C676 C 0.86853 0.62450 0.65138
 C677 C 0.84847 0.64317 0.67149
 C678 C 0.82028 0.66671 0.66344
 C679 C 0.81236 0.67072 0.63477
 C680 C 0.83226 0.65177 0.61467
 C681 C 0.88226 0.60908 0.60140
 C682 C 0.86458 0.59259 0.57872
 C683 C 0.88481 0.57478 0.55825
 C684 C 0.92322 0.57335 0.55986
 C685 C 0.94094 0.58943 0.58273
 C686 C 0.92064 0.60703 0.60336
 H687 H 0.85543 0.63946 0.69337
 H688 H 0.79093 0.68866 0.62782
 H689 H 0.87035 0.56252 0.54093
 H690 H 0.97048 0.58864 0.58455
 H691 H 0.82587 0.65572 0.59271
 H692 H 0.83503 0.59332 0.57688
 H693 H 0.89004 0.60657 0.65822
 H694 H 0.93499 0.61970 0.62055
 C695 C 0.63118 0.87305 0.12801
 C696 C 0.66173 0.85261 0.12023
 C697 C 0.68131 0.83327 0.14026
 C698 C 0.67095 0.83413 0.16861
 C699 C 0.64056 0.85491 0.17645
 C700 C 0.62074 0.87402 0.15631
 C701 C 0.61024 0.89292 0.10644
 C702 C 0.57178 0.89155 0.10580
 C703 C 0.55238 0.90822 0.08411
 C704 C 0.57115 0.92666 0.06282
 C705 C 0.60951 0.92906 0.06411
 C706 C 0.62884 0.91228 0.08562
 H707 H 0.70454 0.81754 0.13348
 H708 H 0.63176 0.85603 0.19810
 H709 H 0.52281 0.90615 0.08373
 H710 H 0.62474 0.94339 0.04816
 H711 H 0.59742 0.88978 0.16286
 H712 H 0.55681 0.87666 0.12156
 H713 H 0.67010 0.85106 0.09850
 H714 H 0.65843 0.91423 0.08588
 C715 C 1.13466 0.37387 0.62554
 C716 C 1.16486 0.35266 0.61824
 C717 C 1.18441 0.33420 0.63879
 C718 C 1.17435 0.33678 0.66713
 C719 C 1.14446 0.35851 0.67447
 C720 C 1.12467 0.37672 0.65383
 C721 C 1.11350 0.39251 0.60349
 C722 C 1.07504 0.39118 0.60327
 C723 C 1.05531 0.40711 0.58145
 C724 C 1.07377 0.42481 0.55963
 C725 C 1.11217 0.42690 0.56032
 C726 C 1.13183 0.41080 0.58196
 H727 H 1.20726 0.31769 0.63242
 H728 H 1.13590 0.36095 0.69611
 H729 H 1.02571 0.40525 0.58147
 H730 H 1.12713 0.44063 0.54391
 H731 H 1.10165 0.39314 0.65998
 H732 H 1.06031 0.37702 0.61958
 H733 H 1.17289 0.34976 0.59652
 H734 H 1.16143 0.41260 0.58187
 C735 C 0.63758 1.12718 -0.12238
 C736 C 0.64638 1.16327 -0.11803
 C737 C 0.66801 1.18172 -0.13741
 C738 C 0.68046 1.16454 -0.16174
 C739 C 0.67177 1.12833 -0.16598
 C740 C 0.65087 1.10967 -0.14625
 C741 C 0.61467 1.10783 -0.10192
 C742 C 0.62774 1.07653 -0.08919
 C743 C 0.60706 1.05938 -0.06855
 C744 C 0.57263 1.07280 -0.06081
 C745 C 0.55894 1.10338 -0.07433
 C746 C 0.58005 1.12104 -0.09450
 H747 H 0.67399 1.20972 -0.13382
 H748 H 0.68101 1.11453 -0.18460
 H749 H 0.61814 1.03580 -0.05842
 H750 H 0.53251 1.11427 -0.06862
 H751 H 0.64434 1.08180 -0.14990
 H752 H 0.65441 1.06600 -0.09464
 H753 H 0.63657 1.17711 -0.09960
 H754 H 0.56948 1.14508 -0.10427
 C755 C 1.13733 0.62992 0.37828
 C756 C 1.16724 0.65152 0.38584
 C757 C 1.18715 0.67001 0.36542
 C758 C 1.17778 0.66703 0.33694
 C759 C 1.14808 0.64503 0.32939
 C760 C 1.12798 0.62682 0.34985
 C761 C 1.11592 0.61082 0.40005
 C762 C 1.07742 0.61081 0.39937
 C763 C 1.05735 0.59367 0.42046
 C764 C 1.07544 0.57601 0.44247
 C765 C 1.11392 0.57549 0.44282
 C766 C 1.13393 0.59284 0.42191
 H767 H 1.20979 0.68676 0.37198
 H768 H 1.14000 0.64221 0.30767
 H769 H 1.02771 0.59444 0.41965
 H770 H 1.12864 0.56193 0.45944
 H771 H 1.10526 0.61007 0.34344
 H772 H 1.06287 0.62469 0.38284
 H773 H 1.17482 0.65464 0.40764
 H774 H 1.16355 0.59203 0.42273
 C775 C 0.36795 0.87286 -0.12788
 C776 C 0.33698 0.85261 -0.12053
 C777 C 0.31772 0.83343 -0.14082
 C778 C 0.32883 0.83427 -0.16902
 C779 C 0.35962 0.85487 -0.17643
 C780 C 0.37912 0.87381 -0.15602
 C781 C 0.38856 0.89251 -0.10602
 C782 C 0.42699 0.89087 -0.10483
 C783 C 0.44607 0.90744 -0.08295
 C784 C 0.42702 0.92610 -0.06202
 C785 C 0.38871 0.92868 -0.06379
 C786 C 0.36970 0.91197 -0.08548
 H787 H 0.29416 0.81785 -0.13436
 H788 H 0.36899 0.85597 -0.19794
 H789 H 0.47562 0.90514 -0.08216
 H790 H 0.37330 0.94315 -0.04811
 H791 H 0.40277 0.88941 -0.16225
 H792 H 0.44217 0.87587 -0.12033
 H793 H 0.32801 0.85108 -0.09893
 H794 H 0.34014 0.91410 -0.08614
 C795 C 0.86400 0.37425 0.37354
 C796 C 0.87290 0.37792 0.34508
 C797 C 0.85328 0.35911 0.32474
 C798 C 0.82459 0.33596 0.33250
 C799 C 0.81560 0.33252 0.36101
 C800 C 0.83502 0.35157 0.38130
 C801 C 0.88511 0.39357 0.39524
 C802 C 0.86684 0.41053 0.41737
 C803 C 0.88661 0.42725 0.43865
 C804 C 0.92508 0.42711 0.43836
 C805 C 0.94342 0.41085 0.41591
 C806 C 0.92358 0.39430 0.39447
 H807 H 0.86101 0.36230 0.30297
 H808 H 0.79371 0.31491 0.36772
 H809 H 0.87171 0.43980 0.45559
 H810 H 0.97305 0.41054 0.41510
 H811 H 0.82786 0.34800 0.40314
 H812 H 0.83721 0.41077 0.41824
 H813 H 0.89494 0.39547 0.33857
 H814 H 0.93830 0.38122 0.37769
 C815 C 1.14176 0.37142 0.11868
 C816 C 1.17264 0.35058 0.11223
 C817 C 1.19038 0.33071 0.13318
 C818 C 1.17769 0.33140 0.16103
 C819 C 1.14673 0.35206 0.16735
 C820 C 1.12890 0.37155 0.14648
 C821 C 1.12237 0.39286 0.09688
 C822 C 1.10692 0.42597 0.10406
 C823 C 1.08419 0.44400 0.08537
 C824 C 1.07699 0.43002 0.05867
 C825 C 1.09450 0.39832 0.05047
 C826 C 1.11688 0.37973 0.06951
 H827 H 1.21425 0.31511 0.12762
 H828 H 1.13586 0.35286 0.18845
 H829 H 1.07113 0.46843 0.09223
 H830 H 1.08920 0.38690 0.03002
 H831 H 1.10460 0.38639 0.15214
 H832 H 1.11145 0.43751 0.12456
 H833 H 1.18339 0.35002 0.09110
 H834 H 1.12832 0.35428 0.06329
 C835 C 0.64428 0.87805 0.61723
 C836 C 0.67346 0.85497 0.61066
 C837 C 0.68975 0.83366 0.63148
 C838 C 0.67731 0.83501 0.65938
 C839 C 0.64820 0.85810 0.66587
 C840 C 0.63185 0.87911 0.64513
 C841 C 0.62571 0.90014 0.59527
 C842 C 0.61153 0.93403 0.60201
 C843 C 0.58910 0.95242 0.58315
 C844 C 0.58079 0.93781 0.55683
 C845 C 0.59730 0.90540 0.54905
 C846 C 0.61940 0.88664 0.56814
 H847 H 0.71226 0.81634 0.62576
 H848 H 0.63762 0.85969 0.68702
 H849 H 0.57694 0.97746 0.58962
 H850 H 0.59103 0.89334 0.52899
 H851 H 0.60885 0.89572 0.65095
 H852 H 0.61671 0.94586 0.62231
 H853 H 0.68395 0.85360 0.58949
 H854 H 0.62969 0.86062 0.56220
 C855 C 1.14369 0.63695 -0.11914
 C856 C 1.17176 0.66144 -0.11290
 C857 C 1.18916 0.68080 -0.13434
 C858 C 1.17915 0.67595 -0.16275
 C859 C 1.15078 0.65143 -0.16868
 C860 C 1.13322 0.63267 -0.14729
 C861 C 1.12468 0.61597 -0.09679
 C862 C 1.11216 0.58121 -0.10261
 C863 C 1.08936 0.56329 -0.08389
 C864 C 1.07945 0.57891 -0.05833
 C865 C 1.09422 0.61238 -0.05122
 C866 C 1.11646 0.63094 -0.07042
 H867 H 1.21080 0.69921 -0.12852
 H868 H 1.14150 0.64680 -0.18994
 H869 H 1.07822 0.53762 -0.08995
 H870 H 1.08667 0.62513 -0.03171
 H871 H 1.11093 0.61499 -0.15295
 H872 H 1.11889 0.56820 -0.12217
 H873 H 1.18067 0.66532 -0.09148
 H874 H 1.12554 0.65767 -0.06521
 C875 C 0.64952 1.12799 0.38202
 C876 C 0.66938 1.15927 0.38799
 C877 C 0.68666 1.17846 0.36651
 C878 C 0.68413 1.16701 0.33849
 C879 C 0.66464 1.13543 0.33262
 C880 C 0.64767 1.11610 0.35413
 C881 C 0.62925 1.10868 0.40445
 C882 C 0.62897 1.07111 0.40543
 C883 C 0.60695 1.05294 0.42479
 C884 C 0.58444 1.07196 0.44341
 C885 C 0.58592 1.10953 0.44323
 C886 C 0.60819 1.12768 0.42404
 H887 H 0.70148 1.20261 0.37184
 H888 H 0.66220 1.12574 0.31133
 H889 H 0.60644 1.02398 0.42437
 H890 H 0.56888 1.12494 0.45729
 H891 H 0.63219 1.09234 0.34882
 H892 H 0.64529 1.05576 0.39084
 H893 H 0.67150 1.16893 0.40931
 H894 H 0.60763 1.15663 0.42368
 C895 C 0.85694 0.63598 0.11597
 C896 C 0.82593 0.65691 0.11004
 C897 C 0.80851 0.67611 0.13144
 C898 C 0.82183 0.67469 0.15913
 C899 C 0.85317 0.65423 0.16480
 C900 C 0.87056 0.63535 0.14354
 C901 C 0.87564 0.61470 0.09397
 C902 C 0.88990 0.58096 0.10085
 C903 C 0.91290 0.56315 0.08237
 C904 C 0.92152 0.57804 0.05620
 C905 C 0.90492 0.61032 0.04812
 C906 C 0.88222 0.62868 0.06698
 H907 H 0.78437 0.69164 0.12638
 H908 H 0.86454 0.65289 0.18575
 H909 H 0.92531 0.53831 0.08912
 H910 H 0.91134 0.62242 0.02807
 H911 H 0.89501 0.62037 0.14871
 H912 H 0.88450 0.56891 0.12109
 H913 H 0.81478 0.65790 0.08902
 H914 H 0.87158 0.65463 0.06107
 C915 C 0.34903 1.13006 0.61805
 C916 C 0.33001 1.16178 0.61207
 C917 C 0.31276 1.18084 0.63349
 C918 C 0.31454 1.16877 0.66142
 C919 C 0.33315 1.13673 0.66728
 C920 C 0.35007 1.11754 0.64582
 C921 C 0.36941 1.11092 0.59581
 C922 C 0.36853 1.07342 0.59437
 C923 C 0.39090 1.05520 0.57545
 C924 C 0.41488 1.07413 0.55778
 C925 C 0.41452 1.11170 0.55832
 C926 C 0.39190 1.12992 0.57708
 H927 H 0.29862 1.20538 0.62822
 H928 H 0.33496 1.12659 0.68851
 H929 H 0.39052 1.02624 0.57551
 H930 H 0.43268 1.12701 0.54494
 H931 H 0.36492 1.09339 0.65110
 H932 H 0.35109 1.05815 0.60833
 H933 H 0.32861 1.17189 0.59081
 H934 H 0.39329 1.15883 0.57786
 C935 C 0.85704 0.37378 -0.11929
 C936 C 0.86948 0.37412 -0.14721
 C937 C 0.85139 0.35464 -0.16791
 C938 C 0.82060 0.33377 -0.16129
 C939 C 0.80817 0.33306 -0.13337
 C940 C 0.82615 0.35294 -0.11260
 C941 C 0.87700 0.39476 -0.09756
 C942 C 0.88247 0.38131 -0.07024
 C943 C 0.90537 0.39937 -0.05128
 C944 C 0.92348 0.43082 -0.05955
 C945 C 0.91639 0.44512 -0.08620
 C946 C 0.89308 0.42766 -0.10478
 H947 H 0.86203 0.35545 -0.18908
 H948 H 0.78444 0.31729 -0.12759
 H949 H 0.91059 0.38771 -0.03087
 H950 H 0.92994 0.46935 -0.09311
 H951 H 0.81566 0.35226 -0.09139
 H952 H 0.87061 0.35599 -0.06398
 H953 H 0.89376 0.38897 -0.15308
 H954 H 0.88860 0.43948 -0.12523
 C955 C 0.35641 0.87489 0.38343
 C956 C 0.32873 0.85005 0.39005
 C957 C 0.31254 0.82909 0.36903
 C958 C 0.32366 0.83246 0.34088
 C959 C 0.35133 0.85729 0.33436
 C960 C 0.36750 0.87807 0.35529
 C961 C 0.37478 0.89673 0.40556
 C962 C 0.38620 0.93190 0.39966
 C963 C 0.40848 0.95055 0.41843
 C964 C 0.41952 0.93477 0.44380
 C965 C 0.40572 0.90084 0.45088
 C966 C 0.38366 0.88192 0.43188
 H967 H 0.29118 0.81039 0.37484
 H968 H 0.36083 0.86054 0.31301
 H969 H 0.41849 0.97679 0.41251
 H970 H 0.41410 0.88790 0.47017
 H971 H 0.38933 0.89622 0.34943
 H972 H 0.37902 0.94460 0.38000
 H973 H 0.31933 0.84703 0.41143
 H974 H 0.37547 0.85489 0.43713
 C975 C 1.12552 1.14866 0.38194
 C976 C 1.15764 1.16784 0.38802
 C977 C 1.17699 1.18514 0.36665
 C978 C 1.16477 1.18334 0.33872
 C979 C 1.13226 1.16467 0.33278
 C980 C 1.11283 1.14762 0.35416
 C981 C 1.10643 1.12780 0.40399
 C982 C 1.06800 1.12680 0.40497
 C983 C 1.05002 1.10335 0.42317
 C984 C 1.07012 1.08024 0.44059
 C985 C 1.10851 1.08286 0.44087
 C986 C 1.12649 1.10643 0.42274
 H987 H 1.20191 1.19933 0.37197
 H988 H 1.12199 1.16283 0.31154
 H989 H 1.02043 1.10239 0.42282
 H990 H 1.12475 1.06551 0.45415
 H991 H 1.08844 1.13260 0.34878
 H992 H 1.05187 1.14348 0.39110
 H993 H 1.16791 1.16925 0.40929
 H994 H 1.15614 1.10652 0.42236
 C995 C 0.62429 0.64374 -0.12106
 C996 C 0.64413 0.67501 -0.11501
 C997 C 0.66270 0.69334 -0.13633
 C998 C 0.66155 0.68083 -0.16412
 C999 C 0.64159 0.64971 -0.17011
 C1000 C 0.62349 0.63127 -0.14886
 C1001 C 0.60488 0.62335 -0.09880
 C1002 C 0.57179 0.60604 -0.10519
 C1003 C 0.55621 0.58212 -0.08635
 C1004 C 0.57246 0.57577 -0.06018
 C1005 C 0.60392 0.59507 -0.05262
 C1006 C 0.62024 0.61854 -0.07194
 H1007 H 0.67784 0.71734 -0.13109
 H1008 H 0.64060 0.63905 -0.19118
 H1009 H 0.53191 0.56762 -0.09269
 H1010 H 0.61700 0.59044 -0.03256
 H1011 H 0.60942 0.60671 -0.15421
 H1012 H 0.55852 0.60999 -0.12525
 H1013 H 0.64508 0.68545 -0.09388
 H1014 H 0.64579 0.63142 -0.06638
 C1015 C 0.87732 1.14602 0.62098
 C1016 C 0.84562 1.16568 0.61470
 C1017 C 0.82632 1.18313 0.63593
 C1018 C 0.83815 1.18110 0.66397
 C1019 C 0.87027 1.16196 0.67013
 C1020 C 0.88967 1.14470 0.64887
 C1021 C 0.89640 1.12525 0.59892
 C1022 C 0.93483 1.12388 0.59811
 C1023 C 0.95267 1.10111 0.57940
 C1024 C 0.93248 1.07899 0.56129
 C1025 C 0.89411 1.08183 0.56104
 C1026 C 0.87626 1.10474 0.57965
 H1027 H 0.80175 1.19771 0.63037
 H1028 H 0.88023 1.15988 0.69145
 H1029 H 0.98225 1.09996 0.57980
 H1030 H 0.87776 1.06521 0.54730
 H1031 H 0.91375 1.12936 0.65441
 H1032 H 0.95107 1.13988 0.61236
 H1033 H 0.83564 1.16741 0.59337
 H1034 H 0.84662 1.10509 0.57988
 C1035 C 0.37388 0.64168 0.12114
 C1036 C 0.37458 0.62918 0.14898
 C1037 C 0.35652 0.64761 0.17019
 C1038 C 0.33669 0.67879 0.16414
 C1039 C 0.33554 0.69126 0.13629
 C1040 C 0.35406 0.67294 0.11501
 C1041 C 0.39350 0.62148 0.09893
 C1042 C 0.37847 0.61694 0.07194
 C1043 C 0.39516 0.59395 0.05256
 C1044 C 0.42671 0.57484 0.06014
 C1045 C 0.44261 0.58088 0.08647
 C1046 C 0.42661 0.60430 0.10541
 H1047 H 0.35752 0.63694 0.19129
 H1048 H 0.32050 0.71527 0.13096
 H1049 H 0.38232 0.58955 0.03239
 H1050 H 0.46700 0.56658 0.09283
 H1051 H 0.35315 0.68342 0.09386
 H1052 H 0.35293 0.62972 0.06628
 H1053 H 0.38862 0.60465 0.15441
 H1054 H 0.43966 0.60804 0.12557
 C1055 C 1.12666 0.85218 0.61890
 C1056 C 1.15527 0.82880 0.61201
 C1057 C 1.17535 0.81155 0.63309
 C1058 C 1.16773 0.81784 0.66172
 C1059 C 1.13867 0.84129 0.66829
 C1060 C 1.11843 0.85797 0.64721
 C1061 C 1.10645 0.87220 0.59695
 C1062 C 1.12550 0.89049 0.57574
 C1063 C 1.10698 0.91385 0.55772
 C1064 C 1.06903 0.91914 0.56045
 C1065 C 1.04968 0.89888 0.58038
 C1066 C 1.06823 0.87583 0.59856
 H1067 H 1.19723 0.79378 0.62678
 H1068 H 1.13140 0.84713 0.68981
 H1069 H 1.12263 0.92891 0.54244
 H1070 H 1.02044 0.90202 0.58281
 H1071 H 1.09683 0.87629 0.65312
 H1072 H 1.15498 0.88826 0.57410
 H1073 H 1.16208 0.82384 0.59028
 H1074 H 1.05284 0.86160 0.61447
 C1075 C 0.62645 0.35578 0.11863
 C1076 C 0.64657 0.32485 0.11221
 C1077 C 0.66560 0.30647 0.13329
 C1078 C 0.66461 0.31857 0.16119
 C1079 C 0.64436 0.34934 0.16752
 C1080 C 0.62583 0.36783 0.14653
 C1081 C 0.60661 0.37633 0.09665
 C1082 C 0.57354 0.39335 0.10340
 C1083 C 0.55764 0.41749 0.08489
 C1084 C 0.57352 0.42432 0.05868
 C1085 C 0.60493 0.40530 0.05074
 C1086 C 0.62159 0.38164 0.06973
 H1087 H 0.68097 0.28276 0.12777
 H1088 H 0.64348 0.35973 0.18868
 H1089 H 0.53337 0.43174 0.09150
 H1090 H 0.61772 0.41029 0.03064
 H1091 H 0.61160 0.39214 0.15219
 H1092 H 0.56052 0.38901 0.12350
 H1093 H 0.64742 0.31474 0.09098
 H1094 H 0.64710 0.36901 0.06388
 C1095 C 0.87533 0.85267 0.38118
 C1096 C 0.88639 0.85489 0.35305
 C1097 C 0.86643 0.83770 0.33205
 C1098 C 0.83497 0.81768 0.33867
 C1099 C 0.82434 0.81475 0.36693
 C1100 C 0.84422 0.83223 0.38794
 C1101 C 0.89512 0.87345 0.40294
 C1102 C 0.87561 0.89347 0.42282
 C1103 C 0.89397 0.91688 0.44082
 C1104 C 0.93222 0.92070 0.43935
 C1105 C 0.95191 0.89901 0.42068
 C1106 C 0.93354 0.87573 0.40259
 H1107 H 0.87551 0.84045 0.31056
 H1108 H 0.80029 0.79950 0.37277
 H1109 H 0.87803 0.93310 0.45507
 H1110 H 0.98140 0.90100 0.41927
 H1111 H 0.83520 0.82988 0.40948
 H1112 H 0.84599 0.89242 0.42349
 H1113 H 0.90991 0.87086 0.34712
 H1114 H 0.94933 0.86014 0.38782
 C1115 C 0.37331 0.35647 -0.11916
 C1116 C 0.35337 0.32532 -0.11274
 C1117 C 0.33433 0.30701 -0.13380
 C1118 C 0.33511 0.31940 -0.16166
 C1119 C 0.35519 0.35036 -0.16801
 C1120 C 0.37373 0.36879 -0.14704
 C1121 C 0.39309 0.37697 -0.09720
 C1122 C 0.42604 0.39431 -0.10400
 C1123 C 0.44183 0.41846 -0.08551
 C1124 C 0.42597 0.42497 -0.05927
 C1125 C 0.39470 0.40562 -0.05129
 C1126 C 0.37813 0.38196 -0.07027
 H1127 H 0.31909 0.28314 -0.12829
 H1128 H 0.35590 0.36097 -0.18914
 H1129 H 0.46600 0.43296 -0.09215
 H1130 H 0.38194 0.41035 -0.03116
 H1131 H 0.38781 0.39326 -0.15268
 H1132 H 0.43903 0.39022 -0.12412
 H1133 H 0.35268 0.31500 -0.09153
 H1134 H 0.35271 0.36908 -0.06439
 C1135 C 1.14560 0.37315 -0.11844
 C1136 C 1.14180 0.38255 -0.14679
 C1137 C 1.15783 0.36182 -0.16769
 C1138 C 1.17829 0.33118 -0.16082
 C1139 C 1.18243 0.32191 -0.13240
 C1140 C 1.16606 0.34259 -0.11143
 C1141 C 1.12639 0.39427 -0.09666
 C1142 C 1.12530 0.43181 -0.09826
 C1143 C 1.10288 0.45141 -0.08021
 C1144 C 1.08086 0.43384 -0.06038
 C1145 C 1.08377 0.39649 -0.05760
 C1146 C 1.10634 0.37692 -0.07552
 H1147 H 1.15416 0.36994 -0.18931
 H1148 H 1.19813 0.29858 -0.12636
 H1149 H 1.10161 0.48011 -0.08263
 H1150 H 1.06735 0.38216 -0.04237
 H1151 H 1.16951 0.33478 -0.08972
 H1152 H 1.14101 0.44594 -0.11404
 H1153 H 1.12566 0.40557 -0.15288
 H1154 H 1.10652 0.34804 -0.07383
 C1155 C 0.62546 0.84407 0.38254
 C1156 C 0.60953 0.83534 0.35671
 C1157 C 0.63065 0.82011 0.33553
 C1158 C 0.66789 0.81265 0.34004
 C1159 C 0.68357 0.82032 0.36624
 C1160 C 0.66259 0.83637 0.38722
 C1161 C 0.60384 0.86331 0.40376
 C1162 C 0.61610 0.89649 0.41367
 C1163 C 0.59448 0.91633 0.43200
 C1164 C 0.56061 0.90292 0.44122
 C1165 C 0.54874 0.86929 0.43191
 C1166 C 0.57003 0.84978 0.41300
 H1167 H 0.61788 0.81420 0.31557
 H1168 H 0.71225 0.81489 0.37017
 H1169 H 0.60425 0.94220 0.43894
 H1170 H 0.52264 0.85856 0.43870
 H1171 H 0.67532 0.84300 0.40705
 H1172 H 0.64192 0.90751 0.40655
 H1173 H 0.58100 0.84136 0.35265
 H1174 H 0.56013 0.82422 0.40549
 C1175 C 0.85645 0.63234 -0.12252
 C1176 C 0.85920 0.62250 -0.15082
 C1177 C 0.84143 0.64226 -0.17163
 C1178 C 0.82021 0.67235 -0.16470
 C1179 C 0.81715 0.68205 -0.13633
 C1180 C 0.83525 0.66237 -0.11548
 C1181 C 0.87703 0.61204 -0.10079
 C1182 C 0.89690 0.63014 -0.07996
 C1183 C 0.91975 0.61131 -0.06161
 C1184 C 0.92312 0.57392 -0.06359
 C1185 C 0.90164 0.55565 -0.08337
 C1186 C 0.87897 0.57450 -0.10184
 H1187 H 0.84437 0.63385 -0.19321
 H1188 H 0.80096 0.70498 -0.13023
 H1189 H 0.93581 0.62619 -0.04652
 H1190 H 0.90330 0.52689 -0.08525
 H1191 H 0.83249 0.67049 -0.09382
 H1192 H 0.89613 0.65904 -0.07870
 H1193 H 0.87580 0.59987 -0.15698
 H1194 H 0.86347 0.55976 -0.11736
 C1195 C 0.36979 1.13377 0.37426
 C1196 C 0.33651 1.15004 0.38199
 C1197 C 0.31664 1.17056 0.36264
 C1198 C 0.32951 1.17489 0.33512
 C1199 C 0.36291 1.15892 0.32756
 C1200 C 0.38282 1.13880 0.34687
 C1201 C 0.39154 1.11242 0.39469
 C1202 C 0.41136 1.08208 0.38604
 C1203 C 0.43392 1.06361 0.40487
 C1204 C 0.43682 1.07488 0.43281
 C1205 C 0.41615 1.10451 0.44163
 C1206 C 0.39393 1.12312 0.42281
 H1207 H 0.29086 1.18229 0.36899
 H1208 H 0.37383 1.16203 0.30660
 H1209 H 0.44924 1.04071 0.39751
 H1210 H 0.41781 1.11400 0.46302
 H1211 H 0.40874 1.12754 0.34037
 H1212 H 0.40959 1.07265 0.36465
 H1213 H 0.32549 1.14645 0.40286
 H1214 H 0.37953 1.14658 0.43014
 C1215 C 1.14259 0.63291 0.12234
 C1216 C 1.16448 0.66260 0.11538
 C1217 C 1.18226 0.68227 0.13635
 C1218 C 1.17821 0.67289 0.16476
 C1219 C 1.15620 0.64322 0.17161
 C1220 C 1.13874 0.62347 0.15069
 C1221 C 1.12263 0.61247 0.10040
 C1222 C 1.10378 0.63042 0.07891
 C1223 C 1.08154 0.61147 0.06021
 C1224 C 1.07780 0.57413 0.06250
 C1225 C 1.09829 0.55599 0.08300
 C1226 C 1.12033 0.57496 0.10182
 H1227 H 1.19908 0.70487 0.13029
 H1228 H 1.15249 0.63508 0.19322
 H1229 H 1.06622 0.62625 0.04458
 H1230 H 1.09627 0.52727 0.08519
 H1231 H 1.12159 0.60111 0.15676
 H1232 H 1.10486 0.65929 0.07734
 H1233 H 1.16809 0.67042 0.09369
 H1234 H 1.13505 0.56033 0.11786
 C1235 C 0.63257 1.12794 0.62871
 C1236 C 0.62021 1.13213 0.65636
 C1237 C 0.64053 1.15187 0.67564
 C1238 C 0.67361 1.16836 0.66777
 C1239 C 0.68598 1.16458 0.64010
 C1240 C 0.66578 1.14438 0.62080
 C1241 C 0.61005 1.10764 0.60812
 C1242 C 0.60759 1.11928 0.58019
 C1243 C 0.58471 1.10177 0.56123
 C1244 C 0.56332 1.07236 0.56973
 C1245 C 0.56615 1.06021 0.59749
 C1246 C 0.58946 1.07751 0.61643
 H1247 H 0.63001 1.15455 0.69674
 H1248 H 0.71153 1.17670 0.63351
 H1249 H 0.58311 1.11196 0.54000
 H1250 H 0.55016 1.03755 0.60463
 H1251 H 0.67638 1.14135 0.59976
 H1252 H 0.62247 1.14266 0.57310
 H1253 H 0.59440 1.12072 0.66306
 H1254 H 0.59119 1.06737 0.63766
 C1255 C 0.85561 0.37269 0.11850
 C1256 C 0.83467 0.34244 0.11135
 C1257 C 0.81785 0.32167 0.13221
 C1258 C 0.82198 0.33050 0.16069
 C1259 C 0.84292 0.36081 0.16771
 C1260 C 0.85941 0.38163 0.14692
 C1261 C 0.87512 0.39403 0.09679
 C1262 C 0.89449 0.37688 0.07526
 C1263 C 0.91697 0.39655 0.05718
 C1264 C 0.92049 0.43383 0.06012
 C1265 C 0.89930 0.45124 0.08048
 C1266 C 0.87697 0.43154 0.09869
 H1267 H 0.80180 0.29862 0.12603
 H1268 H 0.84665 0.36861 0.18936
 H1269 H 0.93278 0.38232 0.04159
 H1270 H 0.90112 0.47988 0.08313
 H1271 H 0.87587 0.40437 0.15317
 H1272 H 0.89379 0.34805 0.07331
 H1273 H 0.83115 0.33497 0.08960
 H1274 H 0.86184 0.44557 0.11477
 C1275 C 0.37373 0.84654 0.61767
 C1276 C 0.34239 0.82658 0.61113
 C1277 C 0.32177 0.81041 0.63243
 C1278 C 0.33149 0.81482 0.66093
 C1279 C 0.36316 0.83521 0.66709
 C1280 C 0.38414 0.85043 0.64571
 C1281 C 0.39473 0.86509 0.59559
 C1282 C 0.43170 0.85674 0.59095
 C1283 C 0.45249 0.87679 0.57191
 C1284 C 0.43680 0.90606 0.55790
 C1285 C 0.39963 0.91395 0.56223
 C1286 C 0.37865 0.89334 0.58069
 H1287 H 0.29779 0.79513 0.62645
 H1288 H 0.37216 0.83943 0.68847
 H1289 H 0.48116 0.87041 0.56903
 H1290 H 0.38696 0.93641 0.55166
 H1291 H 0.40813 0.86604 0.65112
 H1292 H 0.44455 0.83512 0.60243
 H1293 H 0.33391 0.82349 0.58951
 H1294 H 0.35025 0.90033 0.58421
 C1295 C 0.36638 1.12861 -0.12605
 C1296 C 0.34796 1.16009 -0.11842
 C1297 C 0.32867 1.17990 -0.13839
 C1298 C 0.32759 1.16876 -0.16648
 C1299 C 0.34604 1.13723 -0.17408
 C1300 C 0.36509 1.11728 -0.15404
 C1301 C 0.38703 1.10789 -0.10480
 C1302 C 0.38418 1.07041 -0.10346
 C1303 C 0.40240 1.05125 -0.08245
 C1304 C 0.42390 1.06927 -0.06253
 C1305 C 0.42760 1.10660 -0.06448
 C1306 C 0.40929 1.12570 -0.08532
 H1307 H 0.31481 1.20405 -0.13183
 H1308 H 0.34568 1.12783 -0.19553
 H1309 H 0.39910 1.02248 -0.08146
 H1310 H 0.44422 1.12123 -0.04958
 H1311 H 0.37929 1.09328 -0.16051
 H1312 H 0.36706 1.05606 -0.11818
 H1313 H 0.34818 1.16921 -0.09690
 H1314 H 0.41249 1.15448 -0.08619
 C1315 C 0.87352 0.62913 0.37156
 C1316 C 0.87263 0.61801 0.34349
 C1317 C 0.85360 0.63798 0.32340
 C1318 C 0.83470 0.66923 0.33108
 C1319 C 0.83564 0.68026 0.35921
 C1320 C 0.85495 0.66051 0.37918
 C1321 C 0.89348 0.60814 0.39306
 C1322 C 0.91534 0.62570 0.41294
 C1323 C 0.93226 0.60650 0.43441
 C1324 C 0.92752 0.56929 0.43662
 C1325 C 0.90659 0.55147 0.41623
 C1326 C 0.88979 0.57074 0.39457
 H1327 H 0.85331 0.62869 0.30193
 H1328 H 0.82145 0.70420 0.36583
 H1329 H 0.94853 0.62097 0.44962
 H1330 H 0.90258 0.52280 0.41737
 H1331 H 0.85486 0.66947 0.40074
 H1332 H 0.91914 0.65440 0.41198
 H1333 H 0.88694 0.59406 0.33705
 H1334 H 0.87296 0.55659 0.37955
 C1335 C 0.63261 1.12831 0.12564
 C1336 C 0.65138 1.15970 0.11805
 C1337 C 0.67079 1.17929 0.13806
 C1338 C 0.67165 1.16803 0.16617
 C1339 C 0.65282 1.13659 0.17374
 C1340 C 0.63365 1.11686 0.15366
 C1341 C 0.61188 1.10776 0.10433
 C1342 C 0.61424 1.07026 0.10317
 C1343 C 0.59591 1.05123 0.08217
 C1344 C 0.57477 1.06939 0.06208
 C1345 C 0.57159 1.10677 0.06381
 C1346 C 0.59002 1.12573 0.08464
 H1347 H 0.68493 1.20338 0.13151
 H1348 H 0.65298 1.12710 0.19520
 H1349 H 0.59882 1.02242 0.08136
 H1350 H 0.55527 1.12151 0.04876
 H1351 H 0.61918 1.09293 0.16013
 H1352 H 0.63105 1.05576 0.11803
 H1353 H 0.65137 1.16892 0.09652
 H1354 H 0.58720 1.15454 0.08534
 C1355 C 1.12975 0.62640 0.62859
 C1356 C 1.11295 0.63651 0.65377
 C1357 C 1.13185 0.65762 0.67315
 C1358 C 1.16750 0.66973 0.66731
 C1359 C 1.18400 0.66009 0.64185
 C1360 C 1.16543 0.63825 0.62279
 C1361 C 1.10977 0.60443 0.60793
 C1362 C 1.12458 0.57209 0.59827
 C1363 C 1.10654 0.55242 0.57749
 C1364 C 1.07396 0.56537 0.56557
 C1365 C 1.05889 0.59741 0.57565
 C1366 C 1.07641 0.61653 0.59690
 H1367 H 1.11849 0.66471 0.69262
 H1368 H 1.21155 0.66883 0.63693
 H1369 H 1.11879 0.52790 0.56995
 H1370 H 1.03383 0.60796 0.56676
 H1371 H 1.17870 0.63096 0.60334
 H1372 H 1.15026 0.56230 0.60664
 H1373 H 1.08538 0.62770 0.65854
 H1374 H 1.06463 0.64147 0.60403
 C1375 C 0.62860 0.86981 -0.12691
 C1376 C 0.64792 0.83859 -0.11984
 C1377 C 0.66672 0.81933 -0.14031
 C1378 C 0.66645 0.83073 -0.16841
 C1379 C 0.64695 0.86190 -0.17550
 C1380 C 0.62837 0.88131 -0.15495
 C1381 C 0.60884 0.89020 -0.10501
 C1382 C 0.61105 0.92772 -0.10393
 C1383 C 0.59379 0.94663 -0.08239
 C1384 C 0.57387 0.92834 -0.06163
 C1385 C 0.57085 0.89093 -0.06322
 C1386 C 0.58822 0.87208 -0.08461
 H1387 H 0.68140 0.79544 -0.13411
 H1388 H 0.64622 0.87148 -0.19693
 H1389 H 0.59647 0.97546 -0.08176
 H1390 H 0.55544 0.87609 -0.04767
 H1391 H 0.61344 0.90510 -0.16102
 H1392 H 0.62693 0.94236 -0.11931
 H1393 H 0.64891 0.82931 -0.09833
 H1394 H 0.58553 0.84325 -0.08519
 C1395 C 1.13361 0.37322 0.37295
 C1396 C 1.11684 0.36416 0.34747
 C1397 C 1.13566 0.34386 0.32757
 C1398 C 1.17128 0.33143 0.33308
 C1399 C 1.18782 0.34002 0.35881
 C1400 C 1.16930 0.36113 0.37843
 C1401 C 1.11353 0.39447 0.39406
 C1402 C 1.12815 0.42663 0.40437
 C1403 C 1.10945 0.44608 0.42493
 C1404 C 1.07635 0.43311 0.43603
 C1405 C 1.06165 0.40111 0.42547
 C1406 C 1.07982 0.38222 0.40443
 H1407 H 1.12220 0.33756 0.30795
 H1408 H 1.21531 0.33098 0.36352
 H1409 H 1.12149 0.47055 0.43284
 H1410 H 1.03623 0.39049 0.43372
 H1411 H 1.18261 0.36762 0.39806
 H1412 H 1.15406 0.43660 0.39652
 H1413 H 1.08930 0.37317 0.34287
 H1414 H 1.06812 0.35745 0.39680
 C1415 C 0.37060 0.87069 0.12795
 C1416 C 0.33484 0.85857 0.12302
 C1417 C 0.31678 0.83775 0.14305
 C1418 C 0.33391 0.82948 0.16863
 C1419 C 0.36966 0.84193 0.17361
 C1420 C 0.38806 0.86200 0.15324
 C1421 C 0.38980 0.89183 0.10641
 C1422 C 0.42125 0.87813 0.09352
 C1423 C 0.43796 0.89689 0.07165
 C1424 C 0.42400 0.93006 0.06282
 C1425 C 0.39326 0.94434 0.07645
 C1426 C 0.37597 0.92509 0.09784
 H1427 H 0.28915 0.82869 0.13878
 H1428 H 0.38348 0.83583 0.19313
 H1429 H 0.46166 0.88537 0.06147
 H1430 H 0.38192 0.96980 0.06995
 H1431 H 0.41572 0.87111 0.15730
 H1432 H 0.43217 0.85243 0.09985
 H1433 H 0.32109 0.86490 0.10350
 H1434 H 0.35171 0.93602 0.10765
 C1435 C 0.86504 0.36968 0.62520
 C1436 C 0.86413 0.38144 0.65310
 C1437 C 0.84547 0.36173 0.67355
 C1438 C 0.82698 0.32990 0.66655
 C1439 C 0.82761 0.31832 0.63855
 C1440 C 0.84655 0.33791 0.61814
 C1441 C 0.88551 0.39024 0.60357
 C1442 C 0.90730 0.37233 0.58387
 C1443 C 0.92604 0.39139 0.56314
 C1444 C 0.92325 0.42884 0.56146
 C1445 C 0.90196 0.44690 0.58144
 C1446 C 0.88336 0.42778 0.60234
 H1447 H 0.84553 0.37153 0.69489
 H1448 H 0.81372 0.29395 0.63241
 H1449 H 0.94237 0.37667 0.54816
 H1450 H 0.89926 0.47572 0.58068
 H1451 H 0.84644 0.32838 0.59673
 H1452 H 0.91000 0.34351 0.58456
 H1453 H 0.87839 0.40560 0.65923
 H1454 H 0.86662 0.44230 0.61716
 C1455 C 1.12900 1.14134 0.62020
 C1456 C 1.14766 1.17324 0.61386
 C1457 C 1.16637 1.19188 0.63488
 C1458 C 1.16658 1.17904 0.66263
 C1459 C 1.14813 1.14707 0.66883
 C1460 C 1.12984 1.12836 0.64788
 C1461 C 1.10884 1.12104 0.59837
 C1462 C 1.07613 1.10350 0.60547
 C1463 C 1.05970 1.07997 0.58681
 C1464 C 1.07485 1.07415 0.56022
 C1465 C 1.10596 1.09362 0.55207
 C1466 C 1.12305 1.11678 0.57114
 H1467 H 1.18037 1.21650 0.62946
 H1468 H 1.14821 1.13613 0.68987
 H1469 H 1.03559 1.06544 0.59355
 H1470 H 1.11816 1.08943 0.53167
 H1471 H 1.11670 1.10333 0.65337
 H1472 H 1.06377 1.10705 0.62590
 H1473 H 1.14737 1.18400 0.59278
 H1474 H 1.14827 1.12990 0.56506
 C1475 C 0.62724 0.64565 0.11781
 C1476 C 0.61662 0.64193 0.14594
 C1477 C 0.63681 0.65816 0.16721
 C1478 C 0.66796 0.67870 0.16082
 C1479 C 0.67834 0.68283 0.13262
 C1480 C 0.65826 0.66628 0.11132
 C1481 C 0.60709 0.62609 0.09572
 C1482 C 0.62625 0.60622 0.07559
 C1483 C 0.60749 0.58328 0.05754
 C1484 C 0.56922 0.57984 0.05927
 C1485 C 0.54989 0.60173 0.07797
 C1486 C 0.56866 0.62452 0.09613
 H1487 H 0.62796 0.65457 0.18869
 H1488 H 0.70221 0.69850 0.12701
 H1489 H 0.62314 0.56694 0.04318
 H1490 H 0.52039 0.60016 0.07942
 H1491 H 0.66696 0.66958 0.08977
 H1492 H 0.65588 0.60686 0.07488
 H1493 H 0.59317 0.62567 0.15156
 H1494 H 0.55322 0.64011 0.11112
 C1495 C 1.13521 0.86066 0.38261
 C1496 C 1.13727 0.87426 0.35517
 C1497 C 1.15666 0.85615 0.33454
 C1498 C 1.17494 0.82416 0.34086
 C1499 C 1.17379 0.81090 0.36847
 C1500 C 1.15401 0.82898 0.38917
 C1501 C 1.11344 0.88004 0.40393
 C1502 C 1.12637 0.88460 0.43150
 C1503 C 1.10782 0.90715 0.45012
 C1504 C 1.07648 0.92565 0.44120
 C1505 C 1.06250 0.91935 0.41429
 C1506 C 1.08048 0.89648 0.39601
 H1507 H 1.15745 0.86742 0.31362
 H1508 H 1.18762 0.78626 0.37396
 H1509 H 1.11909 0.91172 0.47081
 H1510 H 1.03819 0.93308 0.40701
 H1511 H 1.15285 0.81784 0.41012
 H1512 H 1.15172 0.87227 0.43819
 H1513 H 1.12403 0.89917 0.34960
 H1514 H 1.06917 0.89263 0.37525
 C1515 C 0.62566 0.35250 -0.11773
 C1516 C 0.61457 0.35450 -0.14587
 C1517 C 0.63483 0.33769 -0.16679
 C1518 C 0.66661 0.31832 -0.16005
 C1519 C 0.67736 0.31575 -0.13180
 C1520 C 0.65715 0.33280 -0.11087
 C1521 C 0.60564 0.37297 -0.09608
 C1522 C 0.62498 0.39355 -0.07643
 C1523 C 0.60641 0.41693 -0.05868
 C1524 C 0.56811 0.42019 -0.06021
 C1525 C 0.54860 0.39779 -0.07850
 C1526 C 0.56719 0.37451 -0.09636
 H1527 H 0.62566 0.34010 -0.18830
 H1528 H 0.70164 0.30096 -0.12587
 H1529 H 0.62223 0.43365 -0.04465
 H1530 H 0.51910 0.39919 -0.07979
 H1531 H 0.66620 0.33070 -0.08931
 H1532 H 0.65462 0.39304 -0.07582
 H1533 H 0.59075 0.36997 -0.15184
 H1534 H 0.55158 0.35841 -0.11095
 C1535 C 0.87149 1.14137 0.38008
 C1536 C 0.87129 1.12864 0.35237
 C1537 C 0.85255 1.14693 0.33135
 C1538 C 0.83303 1.17822 0.33751
 C1539 C 0.83264 1.19079 0.36530
 C1540 C 0.85177 1.17257 0.38638
 C1541 C 0.89209 1.12153 0.40200
 C1542 C 0.87774 1.11656 0.42914
 C1543 C 0.89531 1.09376 0.44827
 C1544 C 0.92709 1.07536 0.44030
 C1545 C 0.94238 1.08197 0.41384
 C1546 C 0.92542 1.10513 0.39510
 H1547 H 0.85301 1.13621 0.31029
 H1548 H 0.81786 1.21488 0.37071
 H1549 H 0.88297 1.08891 0.46856
 H1550 H 0.96700 1.06828 0.40725
 H1551 H 0.85154 1.18314 0.40748
 H1552 H 0.85206 1.12879 0.43509
 H1553 H 0.88529 1.10414 0.34689
 H1554 H 0.93786 1.10926 0.37475
 C1555 C 0.37230 0.64585 -0.11866
 C1556 C 0.34117 0.66626 -0.11227
 C1557 C 0.32115 0.68280 -0.13364
 C1558 C 0.33167 0.67888 -0.16182
 C1559 C 0.36290 0.65853 -0.16810
 C1560 C 0.38305 0.64232 -0.14676
 C1561 C 0.39246 0.62637 -0.09648
 C1562 C 0.43089 0.62514 -0.09676
 C1563 C 0.44970 0.60248 -0.07847
 C1564 C 0.43040 0.58035 -0.05979
 C1565 C 0.39210 0.58346 -0.05820
 C1566 C 0.37330 0.60629 -0.07637
 H1567 H 0.29721 0.69832 -0.12811
 H1568 H 0.37187 0.65512 -0.18956
 H1569 H 0.47921 0.60120 -0.07979
 H1570 H 0.37646 0.56695 -0.04387
 H1571 H 0.40658 0.62624 -0.15230
 H1572 H 0.44632 0.64090 -0.11173
 H1573 H 0.33237 0.66942 -0.09076
 H1574 H 0.34366 0.60668 -0.07575
 C1575 C 0.86632 0.86006 0.61723
 C1576 C 0.84711 0.82856 0.61081
 C1577 C 0.82723 0.81065 0.63162
 C1578 C 0.82640 0.82392 0.65919
 C1579 C 0.84513 0.85571 0.66537
 C1580 C 0.86461 0.87365 0.64463
 C1581 C 0.88811 0.87929 0.59580
 C1582 C 0.92132 0.89538 0.60357
 C1583 C 0.93924 0.91842 0.58531
 C1584 C 0.92501 0.92516 0.55853
 C1585 C 0.89346 0.90691 0.54969
 C1586 C 0.87492 0.88423 0.56833
 H1587 H 0.81303 0.78616 0.62624
 H1588 H 0.84457 0.86696 0.68626
 H1589 H 0.96364 0.93205 0.59255
 H1590 H 0.88200 0.91184 0.52910
 H1591 H 0.87818 0.89845 0.65007
 H1592 H 0.93279 0.89123 0.62426
 H1593 H 0.84801 0.81745 0.58989
 H1594 H 0.84937 0.87215 0.56177
 C1595 C 0.37324 0.35233 0.11663
 C1596 C 0.34164 0.33254 0.11015
 C1597 C 0.32126 0.31627 0.13144
 C1598 C 0.33195 0.31980 0.15963
 C1599 C 0.36377 0.33934 0.16598
 C1600 C 0.38421 0.35534 0.14472
 C1601 C 0.39342 0.37210 0.09463
 C1602 C 0.43187 0.37347 0.09499
 C1603 C 0.45065 0.39678 0.07717
 C1604 C 0.43129 0.41932 0.05888
 C1605 C 0.39301 0.41600 0.05710
 C1606 C 0.37425 0.39259 0.07481
 H1607 H 0.29692 0.30132 0.12585
 H1608 H 0.37291 0.34244 0.18744
 H1609 H 0.48015 0.39823 0.07861
 H1610 H 0.37734 0.43279 0.04300
 H1611 H 0.40809 0.37096 0.15036
 H1612 H 0.44731 0.35740 0.10974
 H1613 H 0.33267 0.32978 0.08863
 H1614 H 0.34461 0.39214 0.07414
   
