data_POSCAR
  _audit_creation_date              2014-09-24
  _audit_creation_method            'ToBaCCo'
  _symmetry_space_group_name_H-M    'P1'
  _symmetry_Int_Tables_number       1
  _symmetry_cell_setting            triclinic
  loop_
  _symmetry_equiv_pos_as_xyz
 x,y,z
_cell_length_a 55.5048
_cell_length_b 56.1390
_cell_length_c 56.6342
_cell_angle_alpha 89.642700
_cell_angle_beta 89.774100
_cell_angle_gamma 90.014000
loop_
  _atom_site_label
  _atom_site_type_symbol
  _atom_site_fract_x
  _atom_site_fract_y
  _atom_site_fract_z
N1 N 0.16830 0.22623 0.22791
 N2 N 0.17537 0.20802 0.24083
 C3 C 0.16024 0.20552 0.25937
 C4 C 0.14273 0.22312 0.25797
 C5 C 0.14853 0.23588 0.23772
 H6 H 0.16191 0.19197 0.27290
 H7 H 0.13937 0.25135 0.23075
 Cu8 Cu 0.20386 0.18967 0.23221
 Cu9 Cu 0.18557 0.23689 0.19983
 Cu10 Cu 0.23767 0.20636 0.18548
 N11 N 0.23336 0.17281 0.22380
 N12 N 0.24645 0.17960 0.20560
 C13 C 0.26556 0.16507 0.20349
 C14 C 0.26456 0.14812 0.22135
 C15 C 0.24379 0.15363 0.23392
 H16 H 0.27896 0.16656 0.18968
 H17 H 0.23677 0.14437 0.24925
 N18 N 0.22584 0.23382 0.16714
 N19 N 0.20560 0.24505 0.17215
 C20 C 0.20232 0.26271 0.15625
 C21 C 0.22154 0.26270 0.14062
 C22 C 0.23608 0.24415 0.14808
 H23 H 0.18743 0.27511 0.15639
 H24 H 0.25285 0.23855 0.14011
 H25 H 0.20099 0.20448 0.19170
 H26 H 0.21870 0.22474 0.21112
 N27 N 0.66834 0.72733 0.72982
 N28 N 0.67467 0.70808 0.74156
 C29 C 0.65936 0.70498 0.75990
 C30 C 0.64273 0.72342 0.75962
 C31 C 0.64902 0.73716 0.74023
 H32 H 0.66051 0.69072 0.77277
 H33 H 0.64015 0.75316 0.73406
 Cu34 Cu 0.70279 0.68961 0.73195
 Cu35 Cu 0.68565 0.73881 0.70222
 Cu36 Cu 0.73702 0.70817 0.68594
 N37 N 0.73214 0.67293 0.72272
 N38 N 0.74539 0.68038 0.70488
 C39 C 0.76432 0.66569 0.70218
 C40 C 0.76300 0.64795 0.71926
 C41 C 0.74228 0.65319 0.73201
 H42 H 0.77785 0.66771 0.68856
 H43 H 0.73504 0.64337 0.74689
 N44 N 0.72544 0.73666 0.66895
 N45 N 0.70546 0.74789 0.67485
 C46 C 0.70179 0.76598 0.65960
 C47 C 0.72043 0.76631 0.64338
 C48 C 0.73516 0.74750 0.64986
 H49 H 0.68681 0.77825 0.66039
 H50 H 0.75147 0.74187 0.64102
 H51 H 0.70051 0.70646 0.69220
 H52 H 0.71872 0.72524 0.71266
 N53 N 0.32900 0.77093 0.73017
 N54 N 0.32355 0.79052 0.74160
 C55 C 0.33960 0.79372 0.75909
 C56 C 0.35609 0.77517 0.75854
 C57 C 0.34874 0.76110 0.73987
 H58 H 0.33922 0.80835 0.77138
 H59 H 0.35679 0.74462 0.73404
 Cu60 Cu 0.29542 0.80916 0.73272
 Cu61 Cu 0.30968 0.75904 0.70404
 Cu62 Cu 0.25866 0.79172 0.68944
 N63 N 0.26705 0.82772 0.72440
 N64 N 0.25223 0.82019 0.70803
 C65 C 0.23366 0.83548 0.70619
 C66 C 0.23704 0.85388 0.72214
 C67 C 0.25856 0.84826 0.73335
 H68 H 0.21911 0.83349 0.69374
 H69 H 0.26725 0.85810 0.74725
 N70 N 0.26839 0.76253 0.67269
 N71 N 0.28774 0.75005 0.67821
 C72 C 0.28988 0.73177 0.66302
 C73 C 0.27108 0.73289 0.64706
 C74 C 0.25782 0.75260 0.65380
 H75 H 0.30449 0.71905 0.66305
 H76 H 0.24179 0.75941 0.64536
 H77 H 0.29559 0.79142 0.69360
 H78 H 0.27760 0.77371 0.71535
 N79 N 0.83238 0.27244 0.22779
 N80 N 0.82684 0.29156 0.23987
 C81 C 0.84294 0.29434 0.25735
 C82 C 0.85971 0.27600 0.25617
 C83 C 0.85231 0.26248 0.23703
 H84 H 0.84233 0.30866 0.26998
 H85 H 0.86041 0.24632 0.23046
 Cu86 Cu 0.79903 0.31108 0.23205
 Cu87 Cu 0.81282 0.26134 0.20163
 Cu88 Cu 0.76017 0.29227 0.19043
 N89 N 0.76899 0.32762 0.22563
 N90 N 0.75330 0.31952 0.21032
 C91 C 0.73408 0.33413 0.20980
 C92 C 0.73813 0.35253 0.22537
 C93 C 0.76045 0.34790 0.23508
 H94 H 0.71878 0.33215 0.19820
 H95 H 0.76973 0.35855 0.24802
 N96 N 0.77035 0.26442 0.17201
 N97 N 0.79060 0.25282 0.17598
 C98 C 0.79282 0.23527 0.16000
 C99 C 0.77301 0.23584 0.14517
 C100 C 0.75918 0.25461 0.15340
 H101 H 0.80785 0.22308 0.15919
 H102 H 0.74238 0.26096 0.14618
 H103 H 0.79732 0.29373 0.19267
 H104 H 0.78127 0.27525 0.21542
 N105 N 0.82852 0.72894 0.26733
 N106 N 0.82254 0.70921 0.25642
 C107 C 0.83829 0.70535 0.23872
 C108 C 0.85495 0.72371 0.23842
 C109 C 0.84814 0.73839 0.25682
 H110 H 0.83757 0.69045 0.22675
 H111 H 0.85705 0.75451 0.26243
 Cu112 Cu 0.79437 0.69094 0.26615
 Cu113 Cu 0.81096 0.74048 0.29489
 Cu114 Cu 0.76092 0.70769 0.31249
 N115 N 0.76630 0.67262 0.27612
 N116 N 0.75300 0.67972 0.29398
 C117 C 0.73440 0.66464 0.29692
 C118 C 0.73609 0.64700 0.28005
 C119 C 0.75663 0.65261 0.26715
 H120 H 0.72080 0.66625 0.31053
 H121 H 0.76373 0.64304 0.25216
 N122 N 0.77184 0.73645 0.32898
 N123 N 0.79081 0.74904 0.32236
 C124 C 0.79388 0.76707 0.33768
 C125 C 0.77602 0.76568 0.35481
 C126 C 0.76239 0.74608 0.34861
 H127 H 0.80842 0.77985 0.33683
 H128 H 0.74679 0.73917 0.35783
 H129 H 0.79760 0.70776 0.30553
 H130 H 0.77820 0.72608 0.28562
 N131 N 0.32985 0.22676 -0.23258
 N132 N 0.32319 0.20721 -0.24337
 C133 C 0.33811 0.20332 -0.26175
 C134 C 0.35515 0.22147 -0.26266
 C135 C 0.34920 0.23602 -0.24372
 H136 H 0.33645 0.18847 -0.27365
 H137 H 0.35819 0.25213 -0.23827
 Cu138 Cu 0.29531 0.18913 -0.23255
 Cu139 Cu 0.31297 0.23876 -0.20481
 Cu140 Cu 0.26323 0.20653 -0.18537
 N141 N 0.26757 0.17100 -0.22146
 N142 N 0.25485 0.17819 -0.20322
 C143 C 0.23644 0.16301 -0.19957
 C144 C 0.23768 0.14524 -0.21637
 C145 C 0.25771 0.15090 -0.22996
 H146 H 0.22326 0.16467 -0.18558
 H147 H 0.26433 0.14130 -0.24515
 N148 N 0.27463 0.23563 -0.16966
 N149 N 0.29351 0.24791 -0.17706
 C150 C 0.29676 0.26662 -0.16266
 C151 C 0.27911 0.26613 -0.14531
 C152 C 0.26541 0.24620 -0.15035
 H153 H 0.31114 0.27948 -0.16447
 H154 H 0.24978 0.23992 -0.14073
 H155 H 0.29960 0.20630 -0.19339
 H156 H 0.27976 0.22451 -0.21296
 N157 N 0.66721 0.27264 -0.23001
 N158 N 0.67224 0.29255 -0.24129
 C159 C 0.65628 0.29562 -0.25893
 C160 C 0.64050 0.27637 -0.25895
 C161 C 0.64815 0.26218 -0.24023
 H162 H 0.65666 0.31038 -0.27126
 H163 H 0.64040 0.24555 -0.23424
 Cu164 Cu 0.70020 0.31142 -0.23244
 Cu165 Cu 0.68567 0.26165 -0.20277
 Cu166 Cu 0.73571 0.29526 -0.18735
 N167 N 0.72833 0.33021 -0.22399
 N168 N 0.74224 0.32365 -0.20640
 C169 C 0.76043 0.33936 -0.20433
 C170 C 0.75789 0.35678 -0.22162
 C171 C 0.73725 0.35030 -0.23376
 H172 H 0.77438 0.33817 -0.19113
 H173 H 0.72936 0.35942 -0.24869
 N174 N 0.72594 0.26603 -0.17028
 N175 N 0.70662 0.25355 -0.17579
 C176 C 0.70435 0.23527 -0.16041
 C177 C 0.72323 0.23616 -0.14456
 C178 C 0.73657 0.25587 -0.15141
 H179 H 0.69014 0.22211 -0.16081
 H180 H 0.75261 0.26256 -0.14295
 H181 H 0.69901 0.29443 -0.19280
 H182 H 0.71800 0.27661 -0.21338
 N183 N 0.16913 0.77162 0.27031
 N184 N 0.17413 0.79136 0.25868
 C185 C 0.15815 0.79410 0.24103
 C186 C 0.14237 0.77499 0.24155
 C187 C 0.14991 0.76109 0.26039
 H188 H 0.15833 0.80855 0.22833
 H189 H 0.14199 0.74456 0.26649
 Cu190 Cu 0.20184 0.81079 0.26704
 Cu191 Cu 0.18798 0.76089 0.29729
 Cu192 Cu 0.23760 0.79511 0.31227
 N193 N 0.22965 0.82994 0.27573
 N194 N 0.24390 0.82337 0.29304
 C195 C 0.26206 0.83913 0.29486
 C196 C 0.25910 0.85675 0.27777
 C197 C 0.23820 0.85021 0.26600
 H198 H 0.27618 0.83784 0.30788
 H199 H 0.22993 0.85927 0.25124
 N200 N 0.22820 0.76597 0.32963
 N201 N 0.20925 0.75303 0.32401
 C202 C 0.20733 0.73471 0.33938
 C203 C 0.22597 0.73614 0.35552
 C204 C 0.23883 0.75622 0.34871
 H205 H 0.19336 0.72134 0.33885
 H206 H 0.25456 0.76345 0.35723
 H207 H 0.20080 0.79402 0.30682
 H208 H 0.21996 0.77622 0.28630
 N209 N 0.48007 0.42102 0.48389
 N210 N 0.46144 0.42751 0.49671
 C211 C 0.45882 0.41203 0.51485
 C212 C 0.47681 0.39492 0.51332
 C213 C 0.48991 0.40132 0.49338
 H214 H 0.44485 0.41317 0.52813
 H215 H 0.50547 0.39235 0.48616
 Cu216 Cu 0.44241 0.45552 0.48836
 Cu217 Cu 0.49040 0.43838 0.45577
 Cu218 Cu 0.45583 0.48676 0.43910
 N219 N 0.42286 0.48256 0.47815
 N220 N 0.42813 0.49430 0.45866
 C221 C 0.41181 0.51165 0.45528
 C222 C 0.39535 0.51092 0.47365
 C223 C 0.40295 0.49224 0.48793
 H224 H 0.41210 0.52408 0.44064
 H225 H 0.39441 0.48596 0.50398
 N226 N 0.48456 0.47656 0.42151
 N227 N 0.49791 0.45821 0.42786
 C228 C 0.51619 0.45587 0.41229
 C229 C 0.51419 0.47360 0.39528
 C230 C 0.49392 0.48636 0.40178
 H231 H 0.52973 0.44206 0.41307
 H232 H 0.48657 0.50178 0.39287
 H233 H 0.47635 0.47093 0.46535
 H234 H 0.45645 0.45085 0.44782
 N235 N -0.02183 -0.08068 0.98125
 N236 N -0.04163 -0.07534 0.99290
 C237 C -0.04460 -0.09109 1.01075
 C238 C -0.02555 -0.10704 1.01032
 C239 C -0.01149 -0.09985 0.99134
 H240 H -0.05916 -0.09065 1.02347
 H241 H 0.00502 -0.10800 0.98522
 Cu242 Cu -0.06051 -0.04744 0.98407
 Cu243 Cu -0.01076 -0.06252 0.95378
 Cu244 Cu -0.04458 -0.01295 0.93817
 N245 N -0.07932 -0.01938 0.97558
 N246 N -0.07254 -0.00581 0.95776
 C247 C -0.08755 0.01289 0.95599
 C248 C -0.10477 0.01105 0.97363
 C249 C -0.09905 -0.00974 0.98571
 H250 H -0.08603 0.02679 0.94278
 H251 H -0.10819 -0.01693 1.00107
 N252 N -0.01574 -0.02311 0.92056
 N253 N -0.00272 -0.04186 0.92652
 C254 C 0.01547 -0.04421 0.91086
 C255 C 0.01376 -0.02612 0.89419
 C256 C -0.00624 -0.01310 0.90099
 H257 H 0.02867 -0.05835 0.91124
 H258 H -0.01340 0.00253 0.89231
 H259 H -0.02541 -0.03050 0.96416
 H260 H -0.04400 -0.04931 0.94421
 N261 N 1.02280 0.58282 0.98092
 N262 N 1.04181 0.57646 0.99319
 C263 C 1.04466 0.59178 1.01121
 C264 C 1.02628 0.60847 1.01024
 C265 C 1.01278 0.60217 0.99077
 H266 H 1.05869 0.59062 1.02434
 H267 H 0.99686 0.61105 0.98420
 Cu268 Cu 1.06045 0.54838 0.98456
 Cu269 Cu 1.01202 0.56548 0.95328
 Cu270 Cu 1.04192 0.51306 0.94039
 N271 N 1.07857 0.52017 0.97534
 N272 N 1.07137 0.50663 0.95788
 C273 C 1.08679 0.48831 0.95543
 C274 C 1.10465 0.49038 0.97231
 C275 C 1.09882 0.51087 0.98462
 H276 H 1.08480 0.47427 0.94260
 H277 H 1.10861 0.51844 0.99922
 N278 N 1.01497 0.52528 0.92124
 N279 N 1.00375 0.54536 0.92616
 C280 C 0.98616 0.54892 0.91027
 C281 C 0.98620 0.53019 0.89448
 C282 C 1.00484 0.51558 0.90195
 H283 H 0.97421 0.56410 0.91020
 H284 H 1.01043 0.49895 0.89411
 H285 H 1.02406 0.53330 0.96568
 H286 H 1.04459 0.54928 0.94466
 N287 N 0.52331 0.08110 0.48087
 N288 N 0.54089 0.07319 0.49427
 C289 C 0.54332 0.08766 0.51296
 C290 C 0.52639 0.10566 0.51126
 C291 C 0.51403 0.10097 0.49057
 H292 H 0.55657 0.08536 0.52671
 H293 H 0.49901 0.11089 0.48343
 Cu294 Cu 0.55940 0.04503 0.48622
 Cu295 Cu 0.51294 0.06413 0.45271
 Cu296 Cu 0.54255 0.01113 0.44056
 N297 N 0.57878 0.01828 0.47563
 N298 N 0.57220 0.00518 0.45765
 C299 C 0.58834 -0.01241 0.45454
 C300 C 0.60610 -0.01027 0.47153
 C301 C 0.59940 0.00950 0.48457
 H302 H 0.58689 -0.02601 0.44120
 H303 H 0.60876 0.01690 0.49951
 N304 N 0.51624 0.02370 0.42104
 N305 N 0.50507 0.04396 0.42533
 C306 C 0.48794 0.04732 0.40880
 C307 C 0.48855 0.02832 0.39327
 C308 C 0.50675 0.01376 0.40164
 H309 H 0.47593 0.06245 0.40810
 H310 H 0.51250 -0.00305 0.39435
 H311 H 0.52343 0.03166 0.46514
 H312 H 0.54556 0.04739 0.44560
 N313 N -0.02163 0.08170 0.51769
 N314 N -0.04083 0.07464 0.50619
 C315 C -0.04476 0.08957 0.48793
 C316 C -0.02704 0.10698 0.48791
 C317 C -0.01270 0.10139 0.50715
 H318 H -0.05940 0.08783 0.47555
 H319 H 0.00328 0.11067 0.51290
 Cu320 Cu -0.05821 0.04617 0.51591
 Cu321 Cu -0.00931 0.06445 0.54511
 Cu322 Cu -0.04026 0.01328 0.56218
 N323 N -0.07553 0.01757 0.52535
 N324 N -0.06824 0.00462 0.54337
 C325 C -0.08285 -0.01438 0.54582
 C326 C -0.10029 -0.01327 0.52842
 C327 C -0.09506 0.00728 0.51577
 H328 H -0.08099 -0.02789 0.55938
 H329 H -0.10451 0.01399 0.50047
 N330 N -0.01153 0.02513 0.57884
 N331 N 0.00024 0.04453 0.57233
 C332 C 0.01895 0.04778 0.58701
 C333 C 0.01904 0.02956 0.60363
 C334 C -0.00062 0.01557 0.59785
 H335 H 0.03150 0.06244 0.58576
 H336 H -0.00649 -0.00051 0.60673
 H337 H -0.02223 0.03129 0.53558
 H338 H -0.04168 0.04939 0.55551
 N339 N 0.47934 0.58218 0.02094
 N340 N 0.45979 0.57666 0.00916
 C341 C 0.45693 0.59240 -0.00866
 C342 C 0.47567 0.60873 -0.00796
 C343 C 0.48952 0.60160 0.01111
 H344 H 0.44224 0.59207 -0.02110
 H345 H 0.50594 0.60974 0.01730
 Cu346 Cu 0.43999 0.54942 0.01816
 Cu347 Cu 0.49038 0.56390 0.04807
 Cu348 Cu 0.45680 0.51431 0.06357
 N349 N 0.42196 0.52087 0.02677
 N350 N 0.42880 0.50726 0.04446
 C351 C 0.41372 0.48863 0.04644
 C352 C 0.39639 0.49054 0.02905
 C353 C 0.40215 0.51130 0.01689
 H354 H 0.41524 0.47476 0.05967
 H355 H 0.39290 0.51863 0.00175
 N356 N 0.48569 0.52424 0.08084
 N357 N 0.49859 0.54310 0.07498
 C358 C 0.51716 0.54504 0.09010
 C359 C 0.51589 0.52646 0.10631
 C360 C 0.49567 0.51368 0.09980
 H361 H 0.53054 0.55901 0.08941
 H362 H 0.48873 0.49774 0.10815
 H363 H 0.47538 0.53224 0.03705
 H364 H 0.45707 0.55079 0.05776
 N365 N 0.52147 -0.08147 0.01729
 N366 N 0.54042 -0.07442 0.00519
 C367 C 0.54348 -0.08885 -0.01346
 C368 C 0.52546 -0.10593 -0.01314
 C369 C 0.51180 -0.10065 0.00672
 H370 H 0.55787 -0.08710 -0.02625
 H371 H 0.49581 -0.10981 0.01286
 Cu372 Cu 0.55946 -0.04712 0.01474
 Cu373 Cu 0.51072 -0.06487 0.04556
 Cu374 Cu 0.54362 -0.01528 0.06255
 N375 N 0.57722 -0.01893 0.02413
 N376 N 0.57120 -0.00655 0.04284
 C377 C 0.58661 0.01187 0.04504
 C378 C 0.60325 0.01095 0.02668
 C379 C 0.59660 -0.00888 0.01382
 H380 H 0.58557 0.02505 0.05884
 H381 H 0.60521 -0.01559 -0.00192
 N382 N 0.51513 -0.02697 0.08013
 N383 N 0.50264 -0.04580 0.07361
 C384 C 0.48423 -0.04907 0.08885
 C385 C 0.48508 -0.03147 0.10587
 C386 C 0.50498 -0.01780 0.09973
 H387 H 0.47118 -0.06327 0.08761
 H388 H 0.51146 -0.00214 0.10870
 H389 H 0.52451 -0.03181 0.03600
 H390 H 0.54397 -0.05118 0.05489
 N391 N 1.02060 0.41803 0.51894
 N392 N 1.04044 0.42329 0.50735
 C393 C 1.04313 0.40790 0.48936
 C394 C 1.02394 0.39205 0.48975
 C395 C 1.01003 0.39913 0.50883
 H396 H 1.05804 0.40812 0.47704
 H397 H 0.99343 0.39115 0.51500
 Cu398 Cu 1.06077 0.44988 0.51670
 Cu399 Cu 1.01032 0.43536 0.54678
 Cu400 Cu 1.04765 0.48053 0.56621
 N401 N 1.07799 0.47881 0.52518
 N402 N 1.07278 0.49079 0.54438
 C403 C 1.08786 0.50949 0.54610
 C404 C 1.10344 0.50926 0.52690
 C405 C 1.09651 0.48951 0.51399
 H406 H 1.08770 0.52202 0.56051
 H407 H 1.10440 0.48328 0.49770
 N408 N 1.01747 0.47164 0.58247
 N409 N 1.00309 0.45472 0.57474
 C410 C 0.98402 0.45283 0.58936
 C411 C 0.98637 0.46938 0.60723
 C412 C 1.00785 0.48102 0.60223
 H413 H 0.96970 0.43999 0.58735
 H414 H 1.01587 0.49534 0.61216
 H415 H 1.02767 0.46739 0.53883
 H416 H 1.04444 0.44482 0.55675
 Si417 Si 0.37370 0.00018 0.25087
 Si418 Si 0.12777 -0.00033 0.74992
 Si419 Si 0.62777 0.49914 0.25062
 Si420 Si 0.87332 0.50112 0.75076
 Si421 Si 0.25114 0.37773 -0.00136
 Si422 Si 0.74956 0.12434 0.00043
 Si423 Si 0.24901 0.62369 0.50061
 Si424 Si 0.75231 0.87691 0.49923
 Si425 Si -0.00024 0.25080 0.37388
 Si426 Si 0.00047 0.75002 0.12512
 Si427 Si 0.50003 0.24861 0.62477
 Si428 Si 0.49880 0.75028 0.87474
 C429 C 0.08492 0.23721 0.30634
 C430 C 0.08601 0.24937 0.28463
 C431 C 0.10476 0.24469 0.26893
 C432 C 0.12251 0.22781 0.27457
 C433 C 0.12052 0.21567 0.29628
 N434 N 0.10204 0.22058 0.31136
 C435 C 0.06519 0.24147 0.32350
 N436 N 0.05894 0.22385 0.33902
 C437 C 0.04042 0.22627 0.35464
 C438 C 0.02703 0.24740 0.35514
 C439 C 0.03334 0.26589 0.33968
 C440 C 0.05252 0.26314 0.32401
 H441 H 0.10508 0.25423 0.25229
 H442 H 0.13366 0.20243 0.30144
 H443 H 0.03587 0.21149 0.36614
 H444 H 0.02327 0.28242 0.33959
 H445 H 0.07231 0.26205 0.27946
 H446 H 0.05728 0.27789 0.31255
 C447 C 0.58378 0.73664 0.80666
 C448 C 0.59375 0.75544 0.79337
 C449 C 0.61301 0.75105 0.77820
 C450 C 0.62275 0.72810 0.77636
 C451 C 0.61288 0.70992 0.79050
 N452 N 0.59386 0.71456 0.80501
 C453 C 0.56289 0.74022 0.82266
 N454 N 0.55845 0.72387 0.84003
 C455 C 0.53977 0.72611 0.85549
 C456 C 0.52440 0.74584 0.85401
 C457 C 0.52816 0.76253 0.83598
 C458 C 0.54725 0.75979 0.82021
 H459 H 0.62042 0.76580 0.76814
 H460 H 0.61990 0.69197 0.78971
 H461 H 0.53709 0.71252 0.86883
 H462 H 0.51628 0.77773 0.83407
 H463 H 0.58715 0.77348 0.79475
 H464 H 0.54931 0.77274 0.80615
 C465 C 0.41450 0.76198 0.80618
 C466 C 0.41286 0.74896 0.78514
 C467 C 0.39391 0.75334 0.76962
 C468 C 0.37659 0.77078 0.77477
 C469 C 0.37917 0.78377 0.79575
 N470 N 0.39776 0.77911 0.81066
 C471 C 0.43427 0.75812 0.82332
 N472 N 0.43999 0.77593 0.83857
 C473 C 0.45824 0.77391 0.85442
 C474 C 0.47193 0.75299 0.85549
 C475 C 0.46622 0.73431 0.84030
 C476 C 0.44731 0.73667 0.82434
 H477 H 0.39307 0.74317 0.75349
 H478 H 0.36636 0.79743 0.80052
 H479 H 0.46230 0.78881 0.86571
 H480 H 0.47655 0.71794 0.84065
 H481 H 0.42621 0.73583 0.78033
 H482 H 0.44301 0.72175 0.81314
 C483 C -0.08172 0.26336 0.30195
 C484 C -0.08497 0.24886 0.28208
 C485 C -0.10432 0.25302 0.26698
 C486 C -0.12051 0.27182 0.27123
 C487 C -0.11622 0.28623 0.29105
 N488 N -0.09735 0.28164 0.30562
 C489 C -0.06176 0.25970 0.31900
 N490 N -0.05688 0.27724 0.33485
 C491 C -0.03912 0.27523 0.35123
 C492 C -0.02513 0.25454 0.35234
 C493 C -0.02963 0.23631 0.33625
 C494 C -0.04803 0.23865 0.31973
 H495 H -0.10626 0.24150 0.25189
 H496 H -0.12786 0.30101 0.29533
 H497 H -0.03594 0.28983 0.36317
 H498 H -0.01904 0.22010 0.33663
 H499 H -0.07270 0.23458 0.27779
 H500 H -0.05143 0.22388 0.30810
 C501 C -0.08490 0.73277 0.19183
 C502 C -0.09487 0.71001 0.19518
 C503 C -0.11456 0.70709 0.21028
 C504 C -0.12430 0.72672 0.22217
 C505 C -0.11391 0.74921 0.21822
 N506 N -0.09484 0.75167 0.20323
 C507 C -0.06405 0.73668 0.17596
 N508 N -0.06201 0.75770 0.16395
 C509 C -0.04339 0.76221 0.14886
 C510 C -0.02546 0.74504 0.14536
 C511 C -0.02672 0.72368 0.15815
 C512 C -0.04606 0.71932 0.17332
 H513 H -0.12195 0.68941 0.21282
 H514 H -0.12105 0.76488 0.22679
 H515 H -0.04257 0.77922 0.13984
 H516 H -0.01282 0.71028 0.15626
 H517 H -0.08779 0.69466 0.18600
 H518 H -0.04666 0.70273 0.18314
 C519 C 0.41173 0.23108 0.68807
 C520 C 0.39708 0.21073 0.68682
 C521 C 0.37835 0.20759 0.70304
 C522 C 0.37408 0.22449 0.72085
 C523 C 0.38945 0.24445 0.72161
 N524 N 0.40750 0.24712 0.70552
 C525 C 0.43219 0.23538 0.67162
 N526 N 0.44922 0.25170 0.67767
 C527 C 0.46883 0.25634 0.66393
 C528 C 0.47229 0.24401 0.64279
 C529 C 0.45470 0.22770 0.63574
 C530 C 0.43460 0.22336 0.65001
 H531 H 0.36751 0.19168 0.70159
 H532 H 0.38727 0.25807 0.73483
 H533 H 0.48180 0.26937 0.66977
 H534 H 0.45642 0.21828 0.61921
 H535 H 0.40014 0.19701 0.67387
 H536 H 0.42121 0.21090 0.64391
 C537 C 0.58397 0.26319 0.69333
 C538 C 0.59092 0.24536 0.70933
 C539 C 0.60939 0.24981 0.72532
 C540 C 0.62139 0.27192 0.72530
 C541 C 0.61367 0.28933 0.70894
 N542 N 0.59532 0.28465 0.69379
 C543 C 0.56431 0.25920 0.67629
 N544 N 0.54900 0.27737 0.67091
 C545 C 0.53027 0.27457 0.65575
 C546 C 0.52627 0.25255 0.64488
 C547 C 0.54228 0.23387 0.64958
 C548 C 0.56119 0.23705 0.66539
 H549 H 0.61439 0.23563 0.73733
 H550 H 0.62185 0.30679 0.70827
 H551 H 0.51848 0.28952 0.65225
 H552 H 0.54031 0.21677 0.64123
 H553 H 0.58193 0.22825 0.70974
 H554 H 0.57343 0.22242 0.66879
 C555 C 0.08478 0.76140 0.19351
 C556 C 0.09482 0.74244 0.20641
 C557 C 0.11349 0.74688 0.22222
 C558 C 0.12231 0.77010 0.22511
 C559 C 0.11167 0.78857 0.21199
 N560 N 0.09334 0.78384 0.19687
 C561 C 0.06476 0.75777 0.17678
 N562 N 0.04860 0.77569 0.17340
 C563 C 0.02979 0.77367 0.15825
 C564 C 0.02681 0.75291 0.14502
 C565 C 0.04310 0.73416 0.14821
 C566 C 0.06216 0.73652 0.16404
 H567 H 0.12116 0.73208 0.23194
 H568 H 0.11767 0.80679 0.21389
 H569 H 0.01723 0.78832 0.15649
 H570 H 0.04100 0.71761 0.13878
 H571 H 0.08809 0.72444 0.20467
 H572 H 0.07484 0.72201 0.16599
 C573 C 0.31313 0.08975 0.23241
 C574 C 0.31913 0.10781 0.21617
 C575 C 0.30339 0.12685 0.21272
 C576 C 0.28169 0.12820 0.22547
 C577 C 0.27665 0.11008 0.24199
 N578 N 0.29224 0.09162 0.24496
 C579 C 0.32885 0.06879 0.23643
 N580 N 0.32655 0.05628 0.25700
 C581 C 0.33986 0.03651 0.26170
 C582 C 0.35651 0.02811 0.24508
 C583 C 0.35922 0.04058 0.22377
 C584 C 0.34541 0.06086 0.21932
 H585 H 0.30843 0.14052 0.20011
 H586 H 0.26025 0.11031 0.25234
 H587 H 0.33720 0.02715 0.27828
 H588 H 0.37171 0.03455 0.21038
 H589 H 0.33589 0.10756 0.20638
 H590 H 0.34733 0.06971 0.20242
 C591 C 0.81097 0.58883 0.72911
 C592 C 0.81637 0.60628 0.71203
 C593 C 0.80079 0.62553 0.70887
 C594 C 0.77984 0.62765 0.72271
 C595 C 0.77532 0.60998 0.73984
 N596 N 0.79076 0.59137 0.74256
 C597 C 0.82678 0.56799 0.73343
 N598 N 0.82485 0.55622 0.75445
 C599 C 0.83849 0.53685 0.75976
 C600 C 0.85530 0.52820 0.74342
 C601 C 0.85739 0.53967 0.72151
 C602 C 0.84318 0.55956 0.71641
 H603 H 0.80538 0.63875 0.69565
 H604 H 0.75954 0.61075 0.75104
 H605 H 0.83613 0.52814 0.77672
 H606 H 0.86970 0.53318 0.70818
 H607 H 0.83259 0.60548 0.70145
 H608 H 0.84476 0.56775 0.69915
 C609 C 0.80336 0.41746 0.76602
 C610 C 0.78246 0.41441 0.75247
 C611 C 0.76769 0.39469 0.75651
 C612 C 0.77365 0.37776 0.77388
 C613 C 0.79495 0.38128 0.78677
 N614 N 0.80904 0.40069 0.78255
 C615 C 0.81962 0.43815 0.76254
 N616 N 0.84315 0.43629 0.76906
 C617 C 0.85912 0.45449 0.76618
 C618 C 0.85162 0.47622 0.75637
 C619 C 0.82748 0.47856 0.74961
 C620 C 0.81142 0.45974 0.75284
 H621 H 0.75165 0.39284 0.74592
 H622 H 0.80053 0.36870 0.80019
 H623 H 0.87761 0.45176 0.77128
 H624 H 0.82091 0.49477 0.74151
 H625 H 0.77762 0.42679 0.73859
 H626 H 0.79279 0.46232 0.74793
 C627 C 0.30360 -0.08346 0.26526
 C628 C 0.28223 -0.08608 0.25241
 C629 C 0.26756 -0.10589 0.25643
 C630 C 0.27394 -0.12324 0.27336
 C631 C 0.29570 -0.11992 0.28566
 N632 N 0.30975 -0.10054 0.28126
 C633 C 0.31989 -0.06288 0.26157
 N634 N 0.34389 -0.06560 0.26567
 C635 C 0.35990 -0.04747 0.26272
 C636 C 0.35196 -0.02485 0.25561
 C637 C 0.32733 -0.02166 0.25124
 C638 C 0.31124 -0.04053 0.25428
 H639 H 0.25119 -0.10731 0.24627
 H640 H 0.30184 -0.13268 0.29866
 H641 H 0.37873 -0.05091 0.26579
 H642 H 0.32038 -0.00471 0.24521
 H643 H 0.27701 -0.07323 0.23906
 H644 H 0.29226 -0.03746 0.25127
 C645 C 0.19216 -0.08671 0.73291
 C646 C 0.21458 -0.08759 0.74398
 C647 C 0.22942 -0.10735 0.74063
 C648 C 0.22208 -0.12617 0.72595
 C649 C 0.19929 -0.12430 0.71513
 N650 N 0.18509 -0.10496 0.71893
 C651 C 0.17628 -0.06615 0.73620
 N652 N 0.15835 -0.06714 0.75262
 C653 C 0.14365 -0.04824 0.75681
 C654 C 0.14682 -0.02692 0.74416
 C655 C 0.16467 -0.02587 0.72664
 C656 C 0.17967 -0.04540 0.72279
 H657 H 0.24674 -0.10750 0.74929
 H658 H 0.19245 -0.13822 0.70390
 H659 H 0.12963 -0.04995 0.77000
 H660 H 0.16728 -0.00978 0.71628
 H661 H 0.22051 -0.07312 0.75511
 H662 H 0.19381 -0.04436 0.70958
 C663 C 0.69334 0.41317 0.23572
 C664 C 0.71844 0.41585 0.23619
 C665 C 0.73310 0.39592 0.23332
 C666 C 0.72276 0.37352 0.22940
 C667 C 0.69757 0.37160 0.22901
 N668 N 0.68361 0.39120 0.23241
 C669 C 0.67742 0.43383 0.23875
 N670 N 0.65877 0.43262 0.25439
 C671 C 0.64393 0.45149 0.25829
 C672 C 0.64745 0.47287 0.24585
 C673 C 0.66579 0.47405 0.22886
 C674 C 0.68114 0.45473 0.22558
 H675 H 0.75249 0.39809 0.23365
 H676 H 0.68901 0.35452 0.22624
 H677 H 0.62941 0.44965 0.27094
 H678 H 0.66849 0.49009 0.21845
 H679 H 0.72656 0.43315 0.23900
 H680 H 0.69557 0.45593 0.21270
 C681 C 0.68848 0.58802 0.27004
 C682 C 0.68041 0.60802 0.28255
 C683 C 0.69593 0.62726 0.28580
 C684 C 0.71945 0.62672 0.27660
 C685 C 0.72682 0.60637 0.26426
 N686 N 0.71143 0.58777 0.26148
 C687 C 0.67304 0.56692 0.26633
 N688 N 0.68376 0.54535 0.26333
 C689 C 0.67095 0.52521 0.25919
 C690 C 0.64582 0.52618 0.25732
 C691 C 0.63427 0.54804 0.26080
 C692 C 0.64779 0.56851 0.26519
 H693 H 0.68942 0.64259 0.29540
 H694 H 0.74486 0.60503 0.25712
 H695 H 0.68055 0.50860 0.25743
 H696 H 0.61484 0.54934 0.25974
 H697 H 0.66252 0.60869 0.29016
 H698 H 0.63857 0.58537 0.26705
 C699 C 0.18991 0.08629 0.77404
 C700 C 0.18227 0.10592 0.78737
 C701 C 0.19788 0.12510 0.79063
 C702 C 0.22106 0.12484 0.78064
 C703 C 0.22809 0.10476 0.76769
 N704 N 0.21260 0.08626 0.76485
 C705 C 0.17419 0.06550 0.76971
 N706 N 0.18464 0.04414 0.76484
 C707 C 0.17154 0.02443 0.75962
 C708 C 0.14638 0.02573 0.75854
 C709 C 0.13514 0.04734 0.76392
 C710 C 0.14894 0.06732 0.76942
 H711 H 0.19167 0.14020 0.80075
 H712 H 0.24589 0.10359 0.75997
 H713 H 0.18091 0.00796 0.75619
 H714 H 0.11569 0.04888 0.76337
 H715 H 0.16460 0.10642 0.79549
 H716 H 0.13989 0.08405 0.77267
 C717 C 0.23469 0.31138 0.08368
 C718 C 0.25409 0.29953 0.09437
 C719 C 0.24975 0.28354 0.11283
 C720 C 0.22617 0.27942 0.12082
 C721 C 0.20722 0.29153 0.10958
 N722 N 0.21187 0.30686 0.09141
 C723 C 0.23861 0.32831 0.06395
 N724 N 0.22196 0.33005 0.04642
 C725 C 0.22512 0.34469 0.02741
 C726 C 0.24602 0.35859 0.02529
 C727 C 0.26272 0.35797 0.04375
 C728 C 0.25921 0.34275 0.06297
 H729 H 0.26492 0.27467 0.12100
 H730 H 0.18874 0.28861 0.11501
 H731 H 0.21127 0.34550 0.01406
 H732 H 0.27854 0.36911 0.04357
 H733 H 0.27241 0.30226 0.08833
 H734 H 0.27237 0.34252 0.07703
 C735 C 0.72998 0.81441 0.58538
 C736 C 0.70681 0.81058 0.59463
 C737 C 0.70372 0.79496 0.61364
 C738 C 0.72360 0.78302 0.62334
 C739 C 0.74648 0.78746 0.61366
 N740 N 0.74908 0.80294 0.59527
 C741 C 0.73420 0.83060 0.56516
 N742 N 0.75549 0.84256 0.56360
 C743 C 0.76096 0.85701 0.54500
 C744 C 0.74475 0.85949 0.52627
 C745 C 0.72262 0.84760 0.52758
 C746 C 0.71723 0.83316 0.54700
 H747 H 0.68574 0.79204 0.62052
 H748 H 0.76232 0.77887 0.62082
 H749 H 0.77810 0.86609 0.54481
 H750 H 0.70974 0.84907 0.51333
 H751 H 0.69128 0.81976 0.58752
 H752 H 0.70035 0.82351 0.54736
 C753 C 0.76690 0.80967 0.41566
 C754 C 0.75467 0.78785 0.41427
 C755 C 0.75767 0.77360 0.39446
 C756 C 0.77270 0.78097 0.37583
 C757 C 0.78440 0.80307 0.37774
 N758 N 0.78117 0.81672 0.39728
 C759 C 0.76417 0.82535 0.43639
 N760 N 0.76700 0.84933 0.43369
 C761 C 0.76399 0.86470 0.45196
 C762 C 0.75761 0.85608 0.47439
 C763 C 0.75549 0.83147 0.47777
 C764 C 0.75875 0.81606 0.45887
 H765 H 0.74827 0.75674 0.39394
 H766 H 0.79594 0.80963 0.36371
 H767 H 0.76621 0.88362 0.44890
 H768 H 0.75132 0.82399 0.49493
 H769 H 0.74256 0.78191 0.42811
 H770 H 0.75729 0.79708 0.46200
 C771 C 0.26947 0.31472 -0.08798
 C772 C 0.28426 0.32113 -0.10720
 C773 C 0.28742 0.30528 -0.12583
 C774 C 0.27574 0.28312 -0.12562
 C775 C 0.26078 0.27755 -0.10630
 N776 N 0.25810 0.29322 -0.08827
 C777 C 0.26557 0.33062 -0.06748
 N778 N 0.24633 0.32653 -0.05300
 C779 C 0.24170 0.34009 -0.03368
 C780 C 0.25705 0.35894 -0.02785
 C781 C 0.27683 0.36363 -0.04258
 C782 C 0.28131 0.34944 -0.06221
 H783 H 0.29877 0.31061 -0.14050
 H784 H 0.25142 0.26068 -0.10527
 H785 H 0.22603 0.33610 -0.02303
 H786 H 0.28891 0.37828 -0.03912
 H787 H 0.29305 0.33828 -0.10827
 H788 H 0.29716 0.35314 -0.07275
 C789 C 0.73663 0.18884 -0.08657
 C790 C 0.75568 0.20222 -0.09624
 C791 C 0.75131 0.21767 -0.11513
 C792 C 0.72805 0.21977 -0.12454
 C793 C 0.70949 0.20612 -0.11432
 N794 N 0.71414 0.19136 -0.09575
 C795 C 0.74028 0.17261 -0.06621
 N796 N 0.72187 0.16895 -0.05065
 C797 C 0.72422 0.15469 -0.03129
 C798 C 0.74608 0.14308 -0.02673
 C799 C 0.76493 0.14582 -0.04303
 C800 C 0.76219 0.16066 -0.06267
 H801 H 0.76617 0.22781 -0.12245
 H802 H 0.69123 0.20741 -0.12081
 H803 H 0.70894 0.15235 -0.01960
 H804 H 0.78184 0.13665 -0.04079
 H805 H 0.77368 0.20117 -0.08904
 H806 H 0.77696 0.16243 -0.07510
 C807 C 0.23931 0.68962 0.41442
 C808 C 0.25646 0.70699 0.40815
 C809 C 0.25218 0.72202 0.38891
 C810 C 0.23082 0.72003 0.37587
 C811 C 0.21407 0.70254 0.38283
 N812 N 0.21865 0.68811 0.40165
 C813 C 0.24255 0.67338 0.43491
 N814 N 0.22275 0.66262 0.44451
 C815 C 0.22412 0.64770 0.46347
 C816 C 0.24644 0.64288 0.47385
 C817 C 0.26710 0.65346 0.46424
 C818 C 0.26531 0.66858 0.44469
 H819 H 0.26567 0.73519 0.38437
 H820 H 0.19723 0.70040 0.37358
 H821 H 0.20775 0.64000 0.47057
 H822 H 0.28463 0.65006 0.47188
 H823 H 0.27281 0.70944 0.41814
 H824 H 0.28164 0.67608 0.43733
 C825 C 0.26051 0.68885 0.58654
 C826 C 0.24903 0.71108 0.58785
 C827 C 0.25229 0.72528 0.60766
 C828 C 0.26695 0.71748 0.62629
 C829 C 0.27779 0.69493 0.62450
 N830 N 0.27427 0.68134 0.60499
 C831 C 0.25792 0.67349 0.56557
 N832 N 0.25881 0.64935 0.56812
 C833 C 0.25633 0.63438 0.54945
 C834 C 0.25302 0.64358 0.52662
 C835 C 0.25228 0.66835 0.52362
 C836 C 0.25477 0.68333 0.54295
 H837 H 0.24358 0.74250 0.60815
 H838 H 0.28897 0.68805 0.63857
 H839 H 0.25671 0.61534 0.55249
 H840 H 0.24967 0.67633 0.50640
 H841 H 0.23744 0.71742 0.57383
 H842 H 0.25457 0.70240 0.54009
 C843 C 0.75874 0.19082 0.08579
 C844 C 0.74173 0.20805 0.09259
 C845 C 0.74638 0.22261 0.11190
 C846 C 0.76786 0.22019 0.12471
 C847 C 0.78429 0.20263 0.11750
 N848 N 0.77939 0.18869 0.09856
 C849 C 0.75530 0.17482 0.06522
 N850 N 0.77220 0.15773 0.06104
 C851 C 0.77088 0.14260 0.04245
 C852 C 0.75173 0.14428 0.02651
 C853 C 0.73388 0.16135 0.03058
 C854 C 0.73558 0.17671 0.04976
 H855 H 0.73300 0.23572 0.11671
 H856 H 0.80109 0.19994 0.12671
 H857 H 0.78476 0.12930 0.04032
 H858 H 0.71857 0.16291 0.01895
 H859 H 0.72491 0.21052 0.08343
 H860 H 0.72157 0.18982 0.05199
 C861 C 0.48965 0.33572 0.55992
 C862 C 0.50488 0.33956 0.54041
 C863 C 0.50069 0.35881 0.52533
 C864 C 0.48129 0.37433 0.52938
 C865 C 0.46629 0.36968 0.54894
 N866 N 0.47074 0.35077 0.56342
 C867 C 0.49307 0.31529 0.57627
 N868 N 0.47381 0.30697 0.58885
 C869 C 0.47544 0.28784 0.60364
 C870 C 0.49740 0.27589 0.60625
 C871 C 0.51761 0.28444 0.59407
 C872 C 0.51559 0.30417 0.57914
 H873 H 0.51270 0.36131 0.51045
 H874 H 0.45100 0.38095 0.55279
 H875 H 0.45949 0.28178 0.61292
 H876 H 0.53490 0.27570 0.59594
 H877 H 0.51960 0.32763 0.53640
 H878 H 0.53156 0.31061 0.57017
 C879 C -0.01217 0.83536 0.05836
 C880 C 0.00696 0.84509 0.04519
 C881 C 0.00257 0.86380 0.02948
 C882 C -0.02079 0.87299 0.02688
 C883 C -0.03945 0.86270 0.04030
 N884 N -0.03477 0.84430 0.05535
 C885 C -0.00850 0.81524 0.07495
 N886 N -0.02669 0.79931 0.07847
 C887 C -0.02444 0.78027 0.09326
 C888 C -0.00309 0.77673 0.10589
 C889 C 0.01589 0.79284 0.10260
 C890 C 0.01325 0.81217 0.08722
 H891 H 0.01753 0.87118 0.01954
 H892 H -0.05778 0.86901 0.03864
 H893 H -0.03930 0.76790 0.09512
 H894 H 0.03287 0.79037 0.11159
 H895 H 0.02506 0.83808 0.04663
 H896 H 0.02799 0.82463 0.08517
 C897 C 0.01298 0.66621 0.05744
 C898 C -0.00600 0.65695 0.04402
 C899 C -0.00163 0.63815 0.02862
 C900 C 0.02156 0.62841 0.02661
 C901 C 0.04008 0.63820 0.04031
 N902 N 0.03543 0.65672 0.05503
 C903 C 0.00922 0.68629 0.07380
 N904 N 0.02744 0.70211 0.07731
 C905 C 0.02512 0.72097 0.09212
 C906 C 0.00370 0.72433 0.10481
 C907 C -0.01534 0.70841 0.10140
 C908 C -0.01266 0.68933 0.08597
 H909 H -0.01648 0.63115 0.01847
 H910 H 0.05828 0.63141 0.03909
 H911 H 0.04006 0.73317 0.09413
 H912 H -0.03235 0.71072 0.11049
 H913 H -0.02396 0.66439 0.04504
 H914 H -0.02742 0.67693 0.08391
 C915 C 0.51464 0.16243 0.56008
 C916 C 0.52707 0.14193 0.56741
 C917 C 0.53085 0.12345 0.55149
 C918 C 0.52228 0.12522 0.52826
 C919 C 0.50997 0.14605 0.52161
 N920 N 0.50668 0.16394 0.53740
 C921 C 0.51068 0.18274 0.57617
 N922 N 0.50909 0.20513 0.56694
 C923 C 0.50596 0.22465 0.58071
 C924 C 0.50425 0.22221 0.60531
 C925 C 0.50493 0.19928 0.61513
 C926 C 0.50830 0.17951 0.60069
 H927 H 0.54040 0.10776 0.55749
 H928 H 0.50329 0.14830 0.50382
 H929 H 0.50482 0.24195 0.57232
 H930 H 0.50278 0.19667 0.63398
 H931 H 0.53426 0.14031 0.58508
 H932 H 0.50860 0.16195 0.60864
 C933 C -0.01815 0.16480 0.43885
 C934 C -0.03483 0.14666 0.43407
 C935 C -0.03772 0.12789 0.45005
 C936 C -0.02396 0.12689 0.47077
 C937 C -0.00716 0.14516 0.47468
 N938 N -0.00472 0.16334 0.45887
 C939 C -0.01448 0.18530 0.42263
 N940 N 0.00660 0.19771 0.42361
 C941 C 0.01115 0.21679 0.40935
 C942 C -0.00602 0.22429 0.39289
 C943 C -0.02805 0.21223 0.39193
 C944 C -0.03237 0.19276 0.40672
 H945 H -0.05059 0.11408 0.44591
 H946 H 0.00393 0.14520 0.49033
 H947 H 0.02816 0.22609 0.41089
 H948 H -0.04217 0.21801 0.38011
 H949 H -0.04530 0.14658 0.41801
 H950 H -0.04978 0.18416 0.40599
 C951 C 0.48816 0.66786 0.94539
 C952 C 0.50145 0.66585 0.96637
 C953 C 0.49740 0.64657 0.98151
 C954 C 0.48005 0.62929 0.97602
 C955 C 0.46694 0.63212 0.95503
 N956 N 0.47125 0.65104 0.94052
 C957 C 0.49148 0.68796 0.92862
 N958 N 0.47350 0.69302 0.91308
 C959 C 0.47514 0.71107 0.89706
 C960 C 0.49592 0.72514 0.89597
 C961 C 0.51465 0.72042 0.91174
 C962 C 0.51265 0.70173 0.92796
 H963 H 0.50770 0.64549 0.99764
 H964 H 0.45339 0.61932 0.94997
 H965 H 0.46014 0.71441 0.88539
 H966 H 0.53093 0.73107 0.91137
 H967 H 0.51449 0.67914 0.97144
 H968 H 0.52771 0.69805 0.93946
 C969 C 0.51560 0.83709 0.93777
 C970 C 0.53175 0.85562 0.93239
 C971 C 0.53483 0.87418 0.94833
 C972 C 0.52181 0.87458 0.96962
 C973 C 0.50540 0.85601 0.97408
 N974 N 0.50277 0.83803 0.95829
 C975 C 0.51201 0.81663 0.92172
 N976 N 0.49127 0.80373 0.92340
 C977 C 0.48689 0.78456 0.90948
 C978 C 0.50398 0.77738 0.89272
 C979 C 0.52560 0.79007 0.89090
 C980 C 0.52972 0.80966 0.90534
 H981 H 0.54730 0.88828 0.94373
 H982 H 0.49487 0.85553 0.99017
 H983 H 0.47017 0.77485 0.91161
 H984 H 0.53958 0.78467 0.87872
 H985 H 0.54172 0.85611 0.91596
 H986 H 0.54688 0.81870 0.90400
 C987 C 0.01065 0.33391 0.44277
 C988 C -0.00320 0.33620 0.46344
 C989 C 0.00112 0.35514 0.47867
 C990 C 0.01929 0.37182 0.47359
 C991 C 0.03296 0.36870 0.45290
 N992 N 0.02837 0.35011 0.43829
 C993 C 0.00709 0.31401 0.42602
 N994 N 0.02551 0.30801 0.41124
 C995 C 0.02378 0.28986 0.39556
 C996 C 0.00247 0.27661 0.39406
 C997 C -0.01679 0.28245 0.40891
 C998 C -0.01467 0.30123 0.42479
 H999 H -0.00966 0.35641 0.49455
 H1000 H 0.04717 0.38102 0.44817
 H1001 H 0.03916 0.28568 0.38460
 H1002 H -0.03348 0.27248 0.40821
 H1003 H -0.01689 0.32334 0.46822
 H1004 H -0.03005 0.30571 0.43566
 C1005 C 0.33480 0.55710 0.48301
 C1006 C 0.34506 0.55439 0.46050
 C1007 C 0.36469 0.53925 0.45751
 C1008 C 0.37424 0.52673 0.47684
 C1009 C 0.36354 0.52997 0.49910
 N1010 N 0.34445 0.54499 0.50162
 C1011 C 0.31400 0.57309 0.48692
 N1012 N 0.31139 0.58416 0.50811
 C1013 C 0.29275 0.59924 0.51267
 C1014 C 0.27521 0.60358 0.49544
 C1015 C 0.27755 0.59236 0.47356
 C1016 C 0.29680 0.57708 0.46923
 H1017 H 0.37224 0.53729 0.43999
 H1018 H 0.37051 0.52088 0.51452
 H1019 H 0.29182 0.60771 0.52969
 H1020 H 0.26466 0.59556 0.45963
 H1021 H 0.33834 0.56416 0.44537
 H1022 H 0.29793 0.56828 0.45232
 C1023 C 0.83787 0.05996 -0.01234
 C1024 C 0.85799 0.06751 -0.02548
 C1025 C 0.87668 0.05157 -0.02994
 C1026 C 0.87551 0.02810 -0.02136
 C1027 C 0.85510 0.02123 -0.00826
 N1028 N 0.83696 0.03704 -0.00432
 C1029 C 0.81718 0.07597 -0.00797
 N1030 N 0.79476 0.06641 -0.00552
 C1031 C 0.77480 0.08012 -0.00250
 C1032 C 0.77680 0.10500 -0.00194
 C1033 C 0.79977 0.11519 -0.00349
 C1034 C 0.82000 0.10079 -0.00657
 H1035 H 0.89206 0.05774 -0.04006
 H1036 H 0.85331 0.00324 -0.00154
 H1037 H 0.75745 0.07150 -0.00089
 H1038 H 0.80202 0.13432 -0.00258
 H1039 H 0.85912 0.08533 -0.03276
 H1040 H 0.83757 0.10906 -0.00768
 C1041 C 0.66233 0.05828 0.01233
 C1042 C 0.65699 0.03991 -0.00352
 C1043 C 0.63768 0.02471 0.00110
 C1044 C 0.62365 0.02740 0.02161
 C1045 C 0.62970 0.04589 0.03713
 N1046 N 0.64862 0.06056 0.03219
 C1047 C 0.68296 0.07471 0.00854
 N1048 N 0.69211 0.08660 0.02740
 C1049 C 0.71127 0.10159 0.02543
 C1050 C 0.72242 0.10520 0.00349
 C1051 C 0.71323 0.09352 -0.01624
 C1052 C 0.69341 0.07841 -0.01387
 H1053 H 0.63395 0.01081 -0.01148
 H1054 H 0.61962 0.04866 0.05324
 H1055 H 0.71796 0.11031 0.04108
 H1056 H 0.72141 0.09604 -0.03346
 H1057 H 0.66779 0.03679 -0.01911
 H1058 H 0.68637 0.07003 -0.02952
 C1059 C 0.16205 0.55705 0.51239
 C1060 C 0.15950 0.53618 0.49908
 C1061 C 0.14033 0.52078 0.50369
 C1062 C 0.12367 0.52585 0.52168
 C1063 C 0.12697 0.54680 0.53475
 N1064 N 0.14581 0.56158 0.52988
 C1065 C 0.18239 0.57379 0.50855
 N1066 N 0.18891 0.58869 0.52632
 C1067 C 0.20787 0.60396 0.52434
 C1068 C 0.22167 0.60461 0.50358
 C1069 C 0.21482 0.59008 0.48479
 C1070 C 0.19519 0.57476 0.48711
 H1071 H 0.13893 0.50473 0.49335
 H1072 H 0.11467 0.55153 0.54879
 H1073 H 0.21220 0.61527 0.53907
 H1074 H 0.22449 0.59061 0.46820
 H1075 H 0.17239 0.53131 0.48560
 H1076 H 0.19013 0.56407 0.47212
 C1077 C 0.16374 0.44274 -0.01600
 C1078 C 0.15735 0.45912 0.00157
 C1079 C 0.13816 0.47472 -0.00224
 C1080 C 0.12516 0.47400 -0.02344
 C1081 C 0.13208 0.45727 -0.04051
 N1082 N 0.15092 0.44237 -0.03645
 C1083 C 0.18429 0.42618 -0.01272
 N1084 N 0.19565 0.42484 0.00854
 C1085 C 0.21488 0.41034 0.01229
 C1086 C 0.22389 0.39629 -0.00606
 C1087 C 0.21241 0.39709 -0.02800
 C1088 C 0.19256 0.41195 -0.03139
 H1089 H 0.13342 0.48715 0.01154
 H1090 H 0.12277 0.45614 -0.05720
 H1091 H 0.22337 0.41008 0.02947
 H1092 H 0.21892 0.38657 -0.04263
 H1093 H 0.16714 0.45999 0.01804
 H1094 H 0.18405 0.41254 -0.04855
 C1095 C 0.66614 0.94316 0.48281
 C1096 C 0.66010 0.96002 0.50003
 C1097 C 0.64065 0.97530 0.49631
 C1098 C 0.62707 0.97385 0.47550
 C1099 C 0.63376 0.95676 0.45868
 N1100 N 0.65282 0.94211 0.46270
 C1101 C 0.68670 0.92667 0.48625
 N1102 N 0.69926 0.92700 0.50687
 C1103 C 0.71835 0.91243 0.51089
 C1104 C 0.72598 0.89651 0.49348
 C1105 C 0.71318 0.89547 0.47228
 C1106 C 0.69356 0.91056 0.46856
 H1107 H 0.63618 0.98802 0.50990
 H1108 H 0.62402 0.95504 0.44229
 H1109 H 0.72769 0.91343 0.52760
 H1110 H 0.71821 0.88308 0.45860
 H1111 H 0.67025 0.96143 0.51624
 H1112 H 0.68394 0.90965 0.45200
 C1113 C 0.84206 0.93800 0.51539
 C1114 C 0.86160 0.93067 0.52935
 C1115 C 0.88042 0.94655 0.53367
 C1116 C 0.87987 0.96967 0.52410
 C1117 C 0.85996 0.97629 0.51035
 N1118 N 0.84180 0.96059 0.50654
 C1119 C 0.82114 0.92242 0.51086
 N1120 N 0.79960 0.93277 0.50577
 C1121 C 0.77934 0.91986 0.50187
 C1122 C 0.78005 0.89496 0.50314
 C1123 C 0.80218 0.88379 0.50731
 C1124 C 0.82278 0.89743 0.51133
 H1125 H 0.89539 0.94065 0.54439
 H1126 H 0.85854 0.99401 0.50289
 H1127 H 0.76280 0.92917 0.49793
 H1128 H 0.80345 0.86454 0.50772
 H1129 H 0.86220 0.91312 0.53731
 H1130 H 0.83972 0.88846 0.51448
 C1131 C 0.33853 0.44216 0.01573
 C1132 C 0.35802 0.43482 0.02971
 C1133 C 0.37686 0.45059 0.03396
 C1134 C 0.37643 0.47371 0.02442
 C1135 C 0.35654 0.48041 0.01065
 N1136 N 0.33828 0.46474 0.00683
 C1137 C 0.31794 0.42618 0.01106
 N1138 N 0.29582 0.43582 0.00696
 C1139 C 0.27600 0.42216 0.00310
 C1140 C 0.27787 0.39727 0.00332
 C1141 C 0.30058 0.38699 0.00667
 C1142 C 0.32063 0.40132 0.01061
 H1143 H 0.39178 0.44453 0.04466
 H1144 H 0.35528 0.49814 0.00317
 H1145 H 0.25894 0.43082 -0.00006
 H1146 H 0.30277 0.36782 0.00631
 H1147 H 0.35859 0.41728 0.03771
 H1148 H 0.33802 0.39295 0.01293
 C1149 C 0.55930 0.48534 0.33478
 C1150 C 0.53687 0.49677 0.33631
 C1151 C 0.52225 0.49295 0.35602
 C1152 C 0.52984 0.47786 0.37438
 C1153 C 0.55258 0.46703 0.37235
 N1154 N 0.56656 0.47105 0.35293
 C1155 C 0.57531 0.48866 0.31406
 N1156 N 0.59958 0.48629 0.31672
 C1157 C 0.61523 0.48923 0.29837
 C1158 C 0.60658 0.49454 0.27575
 C1159 C 0.58172 0.49699 0.27257
 C1160 C 0.56603 0.49393 0.29159
 H1161 H 0.50493 0.50174 0.35666
 H1162 H 0.55936 0.45552 0.38617
 H1163 H 0.63438 0.48737 0.30142
 H1164 H 0.57427 0.50142 0.25549
 H1165 H 0.53071 0.50884 0.32265
 H1166 H 0.54686 0.49538 0.28854
 C1167 C 0.05861 -0.01468 0.83344
 C1168 C 0.03638 -0.00287 0.83520
 C1169 C 0.02184 -0.00658 0.85500
 C1170 C 0.02931 -0.02194 0.87320
 C1171 C 0.05182 -0.03316 0.87091
 N1172 N 0.06572 -0.02923 0.85143
 C1173 C 0.07466 -0.01137 0.81275
 N1174 N 0.09886 -0.01433 0.81543
 C1175 C 0.11463 -0.01139 0.79718
 C1176 C 0.10619 -0.00543 0.77464
 C1177 C 0.08141 -0.00235 0.77142
 C1178 C 0.06558 -0.00544 0.79035
 H1179 H 0.00469 0.00252 0.85585
 H1180 H 0.05849 -0.04491 0.88460
 H1181 H 0.13372 -0.01365 0.80030
 H1182 H 0.07416 0.00267 0.75442
 H1183 H 0.03035 0.00941 0.82167
 H1184 H 0.04646 -0.00346 0.78730
 C1185 C 0.06813 0.01915 0.66105
 C1186 C 0.07308 0.03663 0.64385
 C1187 C 0.05713 0.03999 0.62514
 C1188 C 0.03629 0.02594 0.62331
 C1189 C 0.03227 0.00837 0.64065
 N1190 N 0.04802 0.00550 0.65875
 C1191 C 0.08401 0.01495 0.68163
 N1192 N 0.08242 -0.00627 0.69333
 C1193 C 0.09561 -0.01118 0.71292
 C1194 C 0.11117 0.00600 0.72213
 C1195 C 0.11350 0.02782 0.71027
 C1196 C 0.09987 0.03245 0.69010
 H1197 H 0.06133 0.05351 0.61207
 H1198 H 0.01655 -0.00297 0.64009
 H1199 H 0.09353 -0.02830 0.72161
 H1200 H 0.12556 0.04144 0.71663
 H1201 H 0.08918 0.04744 0.64449
 H1202 H 0.10138 0.04977 0.68179
 C1203 C 0.56364 0.51161 0.16383
 C1204 C 0.54241 0.49828 0.16134
 C1205 C 0.52696 0.50310 0.14260
 C1206 C 0.53237 0.52127 0.12628
 C1207 C 0.55367 0.53438 0.12956
 N1208 N 0.56848 0.52934 0.14801
 C1209 C 0.58031 0.50757 0.18380
 N1210 N 0.59472 0.52577 0.19102
 C1211 C 0.60957 0.52369 0.20998
 C1212 C 0.61015 0.50242 0.22300
 C1213 C 0.59635 0.48315 0.21533
 C1214 C 0.58146 0.48558 0.19574
 H1215 H 0.51064 0.49270 0.14121
 H1216 H 0.55867 0.54858 0.11754
 H1217 H 0.62044 0.53877 0.21502
 H1218 H 0.59673 0.46633 0.22480
 H1219 H 0.53732 0.48464 0.17396
 H1220 H 0.57107 0.47035 0.19012
 C1221 C 0.43661 -0.02084 0.16412
 C1222 C 0.43137 -0.03823 0.14716
 C1223 C 0.44714 -0.04168 0.12823
 C1224 C 0.46822 -0.02798 0.12604
 C1225 C 0.47291 -0.01098 0.14354
 N1226 N 0.45728 -0.00796 0.16183
 C1227 C 0.42071 -0.01639 0.18475
 N1228 N 0.43010 -0.00516 0.20388
 C1229 C 0.41679 -0.00030 0.22347
 C1230 C 0.39248 -0.00685 0.22455
 C1231 C 0.38219 -0.01799 0.20500
 C1232 C 0.39619 -0.02280 0.18506
 H1233 H 0.44267 -0.05512 0.11537
 H1234 H 0.48899 -0.00013 0.14287
 H1235 H 0.42521 0.00884 0.23802
 H1236 H 0.36329 -0.02280 0.20509
 H1237 H 0.41557 -0.04942 0.14855
 H1238 H 0.38766 -0.03097 0.17002
 C1239 C 0.93872 0.47970 0.66607
 C1240 C 0.93147 0.46545 0.64709
 C1241 C 0.94695 0.46221 0.62796
 C1242 C 0.96966 0.47321 0.62741
 C1243 C 0.97604 0.48775 0.64651
 N1244 N 0.96064 0.49058 0.66505
 C1245 C 0.92294 0.48376 0.68684
 N1246 N 0.92652 0.50349 0.70027
 C1247 C 0.91244 0.50862 0.71928
 C1248 C 0.89343 0.49347 0.72563
 C1249 C 0.88968 0.47280 0.71251
 C1250 C 0.90444 0.46780 0.69319
 H1251 H 0.94089 0.45123 0.61353
 H1252 H 0.99328 0.49669 0.64693
 H1253 H 0.91590 0.52466 0.72922
 H1254 H 0.87529 0.46057 0.71698
 H1255 H 0.91389 0.45717 0.64663
 H1256 H 0.90141 0.45148 0.68360
 C1257 C 0.93840 0.52015 0.83612
 C1258 C 0.93283 0.53701 0.85353
 C1259 C 0.94842 0.54023 0.87245
 C1260 C 0.96952 0.52660 0.87439
 C1261 C 0.97418 0.50954 0.85691
 N1262 N 0.95875 0.50680 0.83850
 C1263 C 0.92254 0.51627 0.81549
 N1264 N 0.92375 0.49521 0.80371
 C1265 C 0.90954 0.49042 0.78478
 C1266 C 0.89278 0.50728 0.77682
 C1267 C 0.89191 0.52940 0.78807
 C1268 C 0.90667 0.53397 0.80735
 H1269 H 0.94365 0.55323 0.88568
 H1270 H 0.99015 0.49854 0.85766
 H1271 H 0.91169 0.47363 0.77581
 H1272 H 0.88018 0.54343 0.78191
 H1273 H 0.91644 0.54739 0.85294
 H1274 H 0.90590 0.55140 0.81532
 C1275 C 0.44271 0.01460 0.33419
 C1276 C 0.46470 0.00242 0.33638
 C1277 C 0.47963 0.00704 0.35554
 C1278 C 0.47297 0.02393 0.37252
 C1279 C 0.45115 0.03619 0.36940
 N1280 N 0.43679 0.03126 0.35063
 C1281 C 0.42600 0.01024 0.31429
 N1282 N 0.40941 0.02720 0.30866
 C1283 C 0.39366 0.02462 0.29051
 C1284 C 0.39395 0.00388 0.27685
 C1285 C 0.41082 -0.01381 0.28230
 C1286 C 0.42666 -0.01087 0.30108
 H1287 H 0.49651 -0.00248 0.35681
 H1288 H 0.44527 0.04938 0.38200
 H1289 H 0.38128 0.03894 0.28670
 H1290 H 0.41226 -0.02968 0.27170
 H1291 H 0.47070 -0.01027 0.32336
 H1292 H 0.43910 -0.02512 0.30510
   
