data_POSCAR
  _audit_creation_date              2014-09-24
  _audit_creation_method            'ToBaCCo'
  _symmetry_space_group_name_H-M    'P1'
  _symmetry_Int_Tables_number       1
  _symmetry_cell_setting            triclinic
  loop_
  _symmetry_equiv_pos_as_xyz
 x,y,z
_cell_length_a 66.6260
_cell_length_b 66.8642
_cell_length_c 66.2783
_cell_angle_alpha 90.325800
_cell_angle_beta 90.258000
_cell_angle_gamma 89.643300
loop_
  _atom_site_label
  _atom_site_type_symbol
  _atom_site_fract_x
  _atom_site_fract_y
  _atom_site_fract_z
C1 C 0.33830 1.36472 0.33966
 C2 C 0.34624 1.37153 0.32133
 C3 C 0.36211 1.36117 0.31157
 C4 C 0.36992 1.34380 0.32094
 C5 C 0.36225 1.33696 0.33928
 C6 C 0.34645 1.34747 0.34870
 C7 C 0.32218 1.37481 0.34896
 C8 C 0.31419 1.36811 0.36748
 C9 C 0.32288 1.35096 0.37639
 C10 C 0.33869 1.34062 0.36712
 C11 C 0.34659 1.32324 0.37589
 C12 C 0.36220 1.31254 0.36652
 C13 C 0.37010 1.31961 0.34829
 H14 H 0.33928 1.38443 0.31434
 H15 H 0.38257 1.33585 0.31449
 H16 H 0.31641 1.38828 0.34197
 H17 H 0.31670 1.34478 0.39007
 H18 H 0.34063 1.31805 0.39012
 H19 H 0.38203 1.31132 0.34088
 C20 C 0.34273 0.86827 0.84031
 C21 C 0.35202 0.87771 0.82403
 C22 C 0.37034 0.87050 0.81639
 C23 C 0.37946 0.85373 0.82540
 C24 C 0.37038 0.84420 0.84177
 C25 C 0.35194 0.85151 0.84928
 C26 C 0.32422 0.87524 0.84753
 C27 C 0.31448 0.86577 0.86376
 C28 C 0.32414 0.84916 0.87282
 C29 C 0.34260 0.84193 0.86559
 C30 C 0.35167 0.82497 0.87417
 C31 C 0.36995 0.81743 0.86665
 C32 C 0.37927 0.82726 0.85053
 H33 H 0.34471 0.89039 0.81692
 H34 H 0.39366 0.84815 0.81968
 H35 H 0.31784 0.88855 0.84075
 H36 H 0.31692 0.84104 0.88483
 H37 H 0.34451 0.81761 0.88674
 H38 H 0.39321 0.82140 0.84444
 C39 C 0.83905 1.36383 0.84012
 C40 C 0.84778 1.37126 0.82244
 C41 C 0.86422 1.36134 0.81316
 C42 C 0.87175 1.34378 0.82239
 C43 C 0.86323 1.33625 0.84006
 C44 C 0.84684 1.34628 0.84897
 C45 C 0.82247 1.37354 0.84900
 C46 C 0.81377 1.36600 0.86670
 C47 C 0.82179 1.34859 0.87544
 C48 C 0.83817 1.33868 0.86669
 C49 C 0.84586 1.32114 0.87533
 C50 C 0.86215 1.31099 0.86650
 C51 C 0.87084 1.31873 0.84892
 H52 H 0.84104 1.38433 0.81555
 H53 H 0.88483 1.33617 0.81641
 H54 H 0.81642 1.38703 0.84225
 H55 H 0.81496 1.34247 0.88886
 H56 H 0.83925 1.31545 0.88905
 H57 H 0.88327 1.31085 0.84189
 C58 C 0.84259 0.86831 0.34119
 C59 C 0.85160 0.87831 0.32510
 C60 C 0.86984 0.87141 0.31667
 C61 C 0.87898 0.85424 0.32519
 C62 C 0.87016 0.84421 0.34142
 C63 C 0.85187 0.85122 0.34943
 C64 C 0.82416 0.87498 0.34889
 C65 C 0.81483 0.86485 0.36477
 C66 C 0.82432 0.84798 0.37319
 C67 C 0.84274 0.84103 0.36555
 C68 C 0.85203 0.82390 0.37353
 C69 C 0.87030 0.81678 0.36561
 C70 C 0.87929 0.82710 0.34961
 H71 H 0.84363 0.89086 0.31855
 H72 H 0.89334 0.84888 0.31975
 H73 H 0.81704 0.88816 0.34253
 H74 H 0.81712 0.83999 0.38534
 H75 H 0.84507 0.81615 0.38597
 H76 H 0.89319 0.82152 0.34319
 C77 C 0.65124 0.62691 0.34838
 C78 C 0.64177 0.61849 0.33145
 C79 C 0.62394 0.62689 0.32337
 C80 C 0.61571 0.64391 0.33312
 C81 C 0.62508 0.65249 0.35003
 C82 C 0.64295 0.64404 0.35767
 C83 C 0.66906 0.61856 0.35602
 C84 C 0.67887 0.62722 0.37272
 C85 C 0.67051 0.64436 0.38188
 C86 C 0.65264 0.65284 0.37446
 C87 C 0.64442 0.67009 0.38341
 C88 C 0.62665 0.67872 0.37576
 C89 C 0.61706 0.66975 0.35911
 H90 H 0.64813 0.60495 0.32506
 H91 H 0.60253 0.65131 0.32706
 H92 H 0.67560 0.60557 0.34865
 H93 H 0.67789 0.65106 0.39485
 H94 H 0.65181 0.67679 0.39636
 H95 H 0.60356 0.67649 0.35291
 C96 C 0.66269 0.13867 0.83852
 C97 C 0.65247 0.13009 0.82208
 C98 C 0.63432 0.13845 0.81503
 C99 C 0.62626 0.15536 0.82483
 C100 C 0.63631 0.16413 0.84121
 C101 C 0.65464 0.15583 0.84800
 C102 C 0.68105 0.13064 0.84531
 C103 C 0.69187 0.13981 0.86124
 C104 C 0.68340 0.15688 0.87061
 C105 C 0.66504 0.16486 0.86413
 C106 C 0.65706 0.18195 0.87349
 C107 C 0.63893 0.19044 0.86672
 C108 C 0.62855 0.18136 0.85062
 H109 H 0.65866 0.11694 0.81469
 H110 H 0.61244 0.16205 0.81931
 H111 H 0.68729 0.11787 0.83735
 H112 H 0.69069 0.16377 0.88350
 H113 H 0.66501 0.18869 0.88608
 H114 H 0.61469 0.18796 0.84512
 C115 C 1.14805 0.62149 0.85362
 C116 C 1.13985 0.61272 0.83616
 C117 C 1.12274 0.62102 0.82684
 C118 C 1.11372 0.63815 0.83533
 C119 C 1.12169 0.64702 0.85280
 C120 C 1.13891 0.63864 0.86200
 C121 C 1.16537 0.61344 0.86264
 C122 C 1.17399 0.62230 0.88006
 C123 C 1.16440 0.63938 0.88837
 C124 C 1.14713 0.64760 0.87943
 C125 C 1.13823 0.66498 0.88741
 C126 C 1.12125 0.67360 0.87815
 C127 C 1.11298 0.66440 0.86093
 H128 H 1.14680 0.59942 0.82981
 H129 H 1.10075 0.64486 0.82805
 H130 H 1.17167 0.59987 0.85625
 H131 H 1.17086 0.64713 0.90119
 H132 H 1.14455 0.67184 0.90084
 H133 H 1.10006 0.67108 0.85353
 C134 C 1.15245 0.12857 0.34580
 C135 C 1.14350 0.12080 0.32824
 C136 C 1.12592 0.12950 0.31996
 C137 C 1.11734 0.14607 0.33013
 C138 C 1.12625 0.15405 0.34757
 C139 C 1.14395 0.14538 0.35538
 C140 C 1.16994 0.11982 0.35371
 C141 C 1.17952 0.12773 0.37107
 C142 C 1.17089 0.14488 0.38030
 C143 C 1.15323 0.15366 0.37265
 C144 C 1.14470 0.17063 0.38196
 C145 C 1.12700 0.17934 0.37422
 C146 C 1.11790 0.17090 0.35705
 H147 H 1.15005 0.10753 0.32147
 H148 H 1.10429 0.15365 0.32399
 H149 H 1.17653 0.10735 0.34557
 H150 H 1.17733 0.15111 0.39396
 H151 H 1.15174 0.17700 0.39527
 H152 H 1.10449 0.17777 0.35076
 C153 C 0.66729 1.36090 0.66374
 C154 C 0.65880 1.37055 0.68050
 C155 C 0.64190 1.36260 0.69013
 C156 C 0.63323 1.34495 0.68251
 C157 C 0.64157 1.33510 0.66572
 C158 C 0.65877 1.34306 0.65640
 C159 C 0.68443 1.36869 0.65450
 C160 C 0.69359 1.35882 0.63799
 C161 C 0.68474 1.34096 0.63080
 C162 C 0.66754 1.33309 0.63985
 C163 C 0.65908 1.31529 0.63264
 C164 C 0.64200 1.30718 0.64182
 C165 C 0.63325 1.31725 0.65830
 H166 H 0.66535 1.38433 0.68606
 H167 H 0.62029 1.33863 0.68994
 H168 H 0.69111 1.38195 0.66106
 H169 H 0.69073 1.33333 0.61767
 H170 H 0.66575 1.30773 0.61978
 H171 H 0.62022 1.31096 0.66561
 C172 C 0.66505 0.86309 1.15951
 C173 C 0.65765 0.87189 1.17723
 C174 C 0.64132 0.86349 1.18773
 C175 C 0.63236 0.84606 1.17960
 C176 C 0.63971 0.83705 1.16191
 C177 C 0.65612 0.84558 1.15183
 C178 C 0.68146 0.87143 1.14946
 C179 C 0.68918 0.86240 1.13190
 C180 C 0.68016 0.84496 1.12431
 C181 C 0.66378 0.83646 1.13421
 C182 C 0.65521 0.81872 1.12698
 C183 C 0.63907 0.80992 1.13712
 C184 C 0.63124 0.81929 1.15445
 H185 H 0.66439 0.88570 1.18239
 H186 H 0.62033 0.83869 1.18749
 H187 H 0.68827 0.88497 1.15531
 H188 H 0.68626 0.83771 1.11099
 H189 H 0.66113 0.81171 1.11346
 H190 H 0.61892 0.81244 1.16244
 C191 C 1.16120 1.36480 1.15960
 C192 C 1.15315 1.37177 1.17784
 C193 C 1.13735 1.36162 1.18720
 C194 C 1.12936 1.34443 1.17793
 C195 C 1.13736 1.33718 1.15970
 C196 C 1.15341 1.34738 1.15056
 C197 C 1.17721 1.37482 1.15054
 C198 C 1.18595 1.36764 1.13248
 C199 C 1.17784 1.35016 1.12359
 C200 C 1.16179 1.34006 1.13249
 C201 C 1.15411 1.32261 1.12363
 C202 C 1.13824 1.31223 1.13266
 C203 C 1.12984 1.31971 1.15065
 H204 H 1.15916 1.38520 1.18478
 H205 H 1.11727 1.33644 1.18515
 H206 H 1.18341 1.38765 1.15834
 H207 H 1.18349 1.34457 1.10933
 H208 H 1.16047 1.31710 1.10962
 H209 H 1.11777 1.31167 1.15784
 C210 C 1.16010 0.86559 0.65790
 C211 C 1.15012 0.87268 0.67513
 C212 C 1.13342 0.86253 0.68280
 C213 C 1.12649 0.84531 0.67280
 C214 C 1.13631 0.83805 0.65555
 C215 C 1.15323 0.84818 0.64811
 C216 C 1.17690 0.87563 0.65045
 C217 C 1.18747 0.86845 0.63337
 C218 C 1.18032 0.85086 0.62380
 C219 C 1.16338 0.84079 0.63100
 C220 C 1.15659 0.82326 0.62147
 C221 C 1.13972 0.81307 0.62879
 C222 C 1.12966 0.82063 0.64583
 H223 H 1.15539 0.88612 0.68266
 H224 H 1.11376 0.83727 0.67875
 H225 H 1.18116 0.88946 0.65779
 H226 H 1.18830 0.84424 0.61123
 H227 H 1.16431 0.81762 0.60823
 H228 H 1.11687 0.81269 0.65180
 C229 C 0.33758 0.63795 0.65852
 C230 C 0.34483 0.62868 0.67603
 C231 C 0.36163 0.63630 0.68634
 C232 C 0.37133 0.65330 0.67877
 C233 C 0.36423 0.66276 0.66125
 C234 C 0.34724 0.65510 0.65111
 C235 C 0.32068 0.63044 0.64844
 C236 C 0.31315 0.63985 0.63104
 C237 C 0.32284 0.65698 0.62373
 C238 C 0.33982 0.66467 0.63366
 C239 C 0.34940 0.68183 0.62650
 C240 C 0.36632 0.68962 0.63654
 C241 C 0.37368 0.67992 0.65387
 H242 H 0.33745 0.61541 0.68158
 H243 H 0.38416 0.65941 0.68675
 H244 H 0.31310 0.61746 0.65440
 H245 H 0.31725 0.66424 0.61023
 H246 H 0.34377 0.68909 0.61301
 H247 H 0.38652 0.68598 0.66187
 C248 C 0.34346 0.13353 1.15728
 C249 C 0.35298 0.12646 1.17477
 C250 C 0.36956 0.13658 1.18336
 C251 C 0.37654 0.15392 1.17354
 C252 C 0.36717 0.16111 1.15599
 C253 C 0.35054 0.15092 1.14785
 C254 C 0.32659 0.12371 1.14940
 C255 C 0.31661 0.13111 1.13226
 C256 C 0.32391 0.14834 1.12276
 C257 C 0.34081 0.15828 1.13042
 C258 C 0.34791 0.17566 1.12115
 C259 C 0.36453 0.18591 1.12917
 C260 C 0.37411 0.17847 1.14656
 H261 H 0.34657 0.11363 1.18218
 H262 H 0.38968 0.16168 1.17909
 H263 H 0.32087 0.11061 1.15696
 H264 H 0.31638 0.15401 1.10941
 H265 H 0.34023 0.18146 1.10796
 H266 H 0.38703 0.18620 1.15273
 C267 C 0.83660 0.63784 1.15968
 C268 C 0.84408 0.62825 1.17693
 C269 C 0.86119 0.63553 1.18699
 C270 C 0.87096 0.65249 1.17943
 C271 C 0.86366 0.66225 1.16218
 C272 C 0.84637 0.65494 1.15229
 C273 C 0.81938 0.63071 1.14984
 C274 C 0.81166 0.64049 1.13272
 C275 C 0.82149 0.65753 1.12543
 C276 C 0.83875 0.66483 1.13511
 C277 C 0.84843 0.68194 1.12797
 C278 C 0.86562 0.68938 1.13779
 C279 C 0.87318 0.67937 1.15485
 H280 H 0.83662 0.61503 1.18249
 H281 H 0.88401 0.65835 1.18723
 H282 H 0.81172 0.61777 1.15576
 H283 H 0.81577 0.66505 1.11213
 H284 H 0.84264 0.68944 1.11469
 H285 H 0.88626 0.68517 1.16266
 C286 C 0.84052 0.13394 0.65774
 C287 C 0.84795 0.12598 0.67581
 C288 C 0.86426 0.13485 0.68611
 C289 C 0.87328 0.15180 0.67738
 C290 C 0.86580 0.16002 0.65937
 C291 C 0.84924 0.15116 0.64960
 C292 C 0.82428 0.12490 0.64789
 C293 C 0.81607 0.13297 0.63000
 C294 C 0.82473 0.15059 0.62221
 C295 C 0.84130 0.15958 0.63178
 C296 C 0.85010 0.17687 0.62382
 C297 C 0.86672 0.18578 0.63343
 C298 C 0.87444 0.17722 0.65120
 H299 H 0.84129 0.11237 0.68141
 H300 H 0.88548 0.15938 0.68501
 H301 H 0.81746 0.11207 0.65494
 H302 H 0.81922 0.15699 0.60827
 H303 H 0.84415 0.18330 0.61004
 H304 H 0.88698 0.18421 0.65891
 C305 C 1.37344 0.34785 0.65302
 C306 C 1.38182 0.35747 0.66992
 C307 C 1.37331 0.37527 0.67786
 C308 C 1.35628 0.38337 0.66799
 C309 C 1.34774 0.37385 0.65115
 C310 C 1.35626 0.35596 0.64370
 C311 C 1.38190 0.33003 0.64556
 C312 C 1.37329 0.31977 0.62896
 C313 C 1.35597 0.32819 0.61984
 C314 C 1.34747 0.34609 0.62706
 C315 C 1.33022 0.35422 0.61794
 C316 C 1.32155 0.37203 0.62534
 C317 C 1.33047 0.38176 0.64193
 H318 H 1.39540 0.35123 0.67639
 H319 H 1.34880 0.39655 0.67392
 H320 H 1.39464 0.32374 0.65355
 H321 H 1.34930 0.32129 0.60662
 H322 H 1.32355 0.34672 0.60504
 H323 H 1.32368 0.39529 0.64797
 C324 C 1.37442 0.84958 1.15092
 C325 C 1.38233 0.85862 1.16837
 C326 C 1.37339 0.87593 1.17656
 C327 C 1.35656 0.88437 1.16692
 C328 C 1.34846 0.87547 1.14953
 C329 C 1.35734 0.85794 1.14155
 C330 C 1.38312 0.83208 1.14302
 C331 C 1.37492 0.82240 1.12586
 C332 C 1.35774 0.83106 1.11667
 C333 C 1.34897 0.84863 1.12438
 C334 C 1.33181 0.85696 1.11525
 C335 C 1.32284 0.87440 1.12317
 C336 C 1.33134 0.88359 1.14028
 H337 H 1.39545 0.85216 1.17562
 H338 H 1.34941 0.89756 1.17329
 H339 H 1.39571 0.82557 1.15107
 H340 H 1.35141 0.82464 1.10306
 H341 H 1.32541 0.84987 1.10198
 H342 H 1.32431 0.89682 1.14671
 C343 C 0.86763 0.34005 1.15772
 C344 C 0.87442 0.34799 1.17612
 C345 C 0.86416 0.36393 1.18548
 C346 C 0.84707 0.37214 1.17606
 C347 C 0.84003 0.36428 1.15768
 C348 C 0.85032 0.34812 1.14852
 C349 C 0.87768 0.32387 1.14867
 C350 C 0.87064 0.31523 1.13046
 C351 C 0.85332 0.32367 1.12139
 C352 C 0.84317 0.33988 1.13029
 C353 C 0.82581 0.34783 1.12128
 C354 C 0.81533 0.36379 1.13037
 C355 C 0.82263 0.37204 1.14852
 H356 H 0.88775 0.34178 1.18319
 H357 H 0.83897 0.38430 1.18330
 H358 H 0.89040 0.31745 1.15658
 H359 H 0.84787 0.31813 1.10701
 H360 H 0.82043 0.34157 1.10715
 H361 H 0.81450 0.38417 1.15577
 C362 C 0.87214 0.84374 0.64962
 C363 C 0.88088 0.85060 0.66761
 C364 C 0.87322 0.86759 0.67759
 C365 C 0.85677 0.87793 0.66916
 C366 C 0.84784 0.87124 0.65114
 C367 C 0.85555 0.85406 0.64133
 C368 C 0.87950 0.82649 0.64001
 C369 C 0.87043 0.81928 0.62224
 C370 C 0.85402 0.82974 0.61395
 C371 C 0.84652 0.84704 0.62339
 C372 C 0.82986 0.85717 0.61537
 C373 C 0.82196 0.87421 0.62510
 C374 C 0.83112 0.88120 0.64295
 H375 H 0.89372 0.84270 0.67386
 H376 H 0.85061 0.89089 0.67689
 H377 H 0.89195 0.81834 0.64670
 H378 H 0.84707 0.82440 0.60013
 H379 H 0.82268 0.85147 0.60182
 H380 H 0.82522 0.89442 0.65045
 C381 C 0.63567 0.66454 0.66087
 C382 C 0.62585 0.65749 0.67808
 C383 C 0.63322 0.64066 0.68845
 C384 C 0.65049 0.63078 0.68128
 C385 C 0.66045 0.63763 0.66407
 C386 C 0.65304 0.65460 0.65383
 C387 C 0.62856 0.68157 0.65077
 C388 C 0.63860 0.68886 0.63372
 C389 C 0.65581 0.67876 0.62670
 C390 C 0.66308 0.66171 0.63663
 C391 C 0.68038 0.65179 0.62976
 C392 C 0.68788 0.63486 0.63988
 C393 C 0.67778 0.62787 0.65702
 H394 H 0.61271 0.66534 0.68367
 H395 H 0.65613 0.61767 0.68907
 H396 H 0.61544 0.68942 0.65644
 H397 H 0.66348 0.68412 0.61342
 H398 H 0.68824 0.65748 0.61674
 H399 H 0.68333 0.61472 0.66480
 C400 C 0.63439 1.15899 1.15899
 C401 C 0.62757 1.15042 1.17700
 C402 C 0.63697 1.13326 1.18493
 C403 C 0.65320 1.12461 1.17455
 C404 C 0.66015 1.13298 1.15659
 C405 C 0.65078 1.15027 1.14878
 C406 C 0.62522 1.17628 1.15122
 C407 C 0.63207 1.18523 1.13321
 C408 C 0.64853 1.17611 1.12319
 C409 C 0.65789 1.15887 1.13085
 C410 C 0.67429 1.15007 1.12081
 C411 C 0.68368 1.13281 1.12853
 C412 C 0.67646 1.12436 1.14642
 H413 H 0.61514 1.15727 1.18503
 H414 H 0.66033 1.11120 1.18039
 H415 H 0.61327 1.18311 1.15991
 H416 H 0.65380 1.18182 1.10894
 H417 H 0.67971 1.15659 1.10693
 H418 H 0.68382 1.11127 1.15267
 C419 C 0.12849 0.65703 1.15570
 C420 C 0.11956 0.64886 1.17289
 C421 C 0.12893 0.63320 1.18377
 C422 C 0.14749 0.62570 1.17656
 C423 C 0.15648 0.63364 1.15927
 C424 C 0.14695 0.64940 1.14884
 C425 C 0.11929 0.67302 1.14553
 C426 C 0.12825 0.68174 1.12842
 C427 C 0.14664 0.67358 1.12156
 C428 C 0.15600 0.65767 1.13166
 C429 C 0.17456 0.65021 1.12505
 C430 C 0.18423 0.63455 1.13536
 C431 C 0.17501 0.62622 1.15238
 H432 H 0.10580 0.65564 1.17830
 H433 H 0.15483 0.61322 1.18392
 H434 H 0.10478 0.67816 1.15077
 H435 H 0.15445 0.68020 1.10899
 H436 H 0.18148 0.65655 1.11179
 H437 H 0.18251 0.61429 1.16053
 C438 C 0.13235 1.15960 0.65740
 C439 C 0.12316 1.15203 0.67476
 C440 C 0.13106 1.13506 0.68479
 C441 C 0.14821 1.12558 0.67650
 C442 C 0.15742 1.13290 0.65911
 C443 C 0.14956 1.15002 0.64957
 C444 C 0.12488 1.17692 0.64801
 C445 C 0.13442 1.18479 0.63092
 C446 C 0.15139 1.17493 0.62307
 C447 C 0.15905 1.15768 0.63230
 C448 C 0.17623 1.14814 0.62466
 C449 C 0.18416 1.13104 0.63411
 C450 C 0.17458 1.12345 0.65126
 H451 H 0.11046 1.16013 0.68093
 H452 H 0.15419 1.11202 0.68311
 H453 H 0.11192 1.18456 0.65429
 H454 H 0.15865 1.18069 0.60972
 H455 H 0.18343 1.15399 0.61132
 H456 H 0.18080 1.11046 0.65881
 C457 C 1.36443 0.65987 0.34366
 C458 C 1.37136 0.65197 0.32523
 C459 C 1.36170 0.63556 0.31580
 C460 C 1.34505 0.62707 0.32567
 C461 C 1.33812 0.63469 0.34411
 C462 C 1.34785 0.65111 0.35317
 C463 C 1.37369 0.67660 0.35253
 C464 C 1.36672 0.68479 0.37100
 C465 C 1.35028 0.67546 0.38042
 C466 C 1.34084 0.65888 0.37165
 C467 C 1.32411 0.65026 0.38091
 C468 C 1.31424 0.63398 0.37191
 C469 C 1.32145 0.62619 0.35356
 H470 H 1.38370 0.65940 0.31788
 H471 H 1.33772 0.61398 0.31949
 H472 H 1.38672 0.68278 0.34520
 H473 H 1.34389 0.68164 0.39410
 H474 H 1.31846 0.65656 0.39490
 H475 H 1.31403 0.61348 0.34663
 C476 C 1.35995 1.16460 0.83713
 C477 C 1.36858 1.15473 0.82051
 C478 C 1.36045 1.13672 0.81311
 C479 C 1.34365 1.12851 0.82269
 C480 C 1.33482 1.13820 0.83926
 C481 C 1.34293 1.15637 0.84642
 C482 C 1.36783 1.18276 0.84433
 C483 C 1.35871 1.19318 0.86056
 C484 C 1.34175 1.18453 0.86970
 C485 C 1.33388 1.16637 0.86279
 C486 C 1.31695 1.15817 0.87198
 C487 C 1.30868 1.14016 0.86487
 C488 C 1.31777 1.13021 0.84853
 H489 H 1.38166 1.16104 0.81331
 H490 H 1.33711 1.11480 0.81692
 H491 H 1.38048 1.18914 0.83650
 H492 H 1.33488 1.19149 0.88277
 H493 H 1.31020 1.16580 0.88476
 H494 H 1.31134 1.11645 0.84276
 C495 C 0.86615 0.65624 0.84479
 C496 C 0.87355 0.64703 0.82724
 C497 C 0.86365 0.63052 0.81859
 C498 C 0.84622 0.62319 0.82780
 C499 C 0.83860 0.63225 0.84534
 C500 C 0.84861 0.64882 0.85387
 C501 C 0.87590 0.67284 0.85331
 C502 C 0.86833 0.68215 0.87081
 C503 C 0.85088 0.67462 0.87977
 C504 C 0.84096 0.65811 0.87140
 C505 C 0.82335 0.65093 0.88017
 C506 C 0.81314 0.63459 0.87165
 C507 C 0.82096 0.62521 0.85430
 H508 H 0.88711 0.65265 0.82035
 H509 H 0.83833 0.61067 0.82106
 H510 H 0.88943 0.67848 0.84639
 H511 H 0.84473 0.68193 0.89303
 H512 H 0.81760 0.65804 0.89372
 H513 H 0.81306 0.61272 0.84752
 C514 C 0.86808 1.15688 0.34410
 C515 C 0.87621 1.14773 0.32683
 C516 C 0.86717 1.13067 0.31794
 C517 C 0.84960 1.12309 0.32700
 C518 C 0.84127 1.13215 0.34420
 C519 C 0.85057 1.14905 0.35281
 C520 C 0.87716 1.17384 0.35278
 C521 C 0.86894 1.18295 0.37009
 C522 C 0.85151 1.17499 0.37863
 C523 C 0.84225 1.15823 0.37008
 C524 C 0.82460 1.15072 0.37842
 C525 C 0.81498 1.13414 0.36972
 C526 C 0.82351 1.12478 0.35272
 H527 H 0.89007 1.15362 0.32092
 H528 H 0.84165 1.11065 0.32026
 H529 H 0.89064 1.17991 0.34615
 H530 H 0.84484 1.18219 0.39171
 H531 H 0.81834 1.15778 0.39176
 H532 H 0.81609 1.11204 0.34587
 C533 C 0.63117 0.34358 0.34324
 C534 C 0.62313 0.35344 0.32641
 C535 C 0.63234 0.37066 0.31842
 C536 C 0.64978 0.37793 0.32820
 C537 C 0.65797 0.36818 0.34506
 C538 C 0.64868 0.35090 0.35258
 C539 C 0.62200 0.32633 0.35074
 C540 C 0.63024 0.31613 0.36734
 C541 C 0.64775 0.32353 0.37659
 C542 C 0.65702 0.34083 0.36932
 C543 C 0.67460 0.34810 0.37840
 C544 C 0.68406 0.36527 0.37092
 C545 C 0.67558 0.37524 0.35427
 H546 H 0.60924 0.34787 0.32006
 H547 H 0.65776 0.39062 0.32223
 H548 H 0.60870 0.32053 0.34332
 H549 H 0.65411 0.31585 0.38951
 H550 H 0.68088 0.34044 0.39137
 H551 H 0.68295 0.38830 0.34821
 C552 C 0.62968 0.84255 0.84261
 C553 C 0.62119 0.85233 0.82596
 C554 C 0.63052 0.86913 0.81756
 C555 C 0.64853 0.87617 0.82613
 C556 C 0.65720 0.86653 0.84284
 C557 C 0.64776 0.84962 0.85108
 C558 C 0.62048 0.82560 0.85071
 C559 C 0.62913 0.81553 0.86718
 C560 C 0.64711 0.82271 0.87564
 C561 C 0.65649 0.83966 0.86769
 C562 C 0.67452 0.84672 0.87599
 C563 C 0.68409 0.86355 0.86787
 C564 C 0.67526 0.87340 0.85131
 H565 H 0.60751 0.84659 0.81924
 H566 H 0.65572 0.88922 0.81987
 H567 H 0.60679 0.81999 0.84390
 H568 H 0.65378 0.81514 0.88847
 H569 H 0.68105 0.83917 0.88890
 H570 H 0.68266 0.88620 0.84477
 C571 C 0.13508 0.33587 0.84149
 C572 C 0.12602 0.34372 0.82411
 C573 C 0.13481 0.35967 0.81371
 C574 C 0.15272 0.36804 0.82115
 C575 C 0.16195 0.36037 0.83859
 C576 C 0.15309 0.34418 0.84877
 C577 C 0.12643 0.31970 0.85154
 C578 C 0.13554 0.31131 0.86888
 C579 C 0.15353 0.32000 0.87606
 C580 C 0.16232 0.33619 0.86612
 C581 C 0.18046 0.34425 0.87307
 C582 C 0.18953 0.36023 0.86296
 C583 C 0.18008 0.36834 0.84581
 H584 H 0.11206 0.33740 0.81864
 H585 H 0.15971 0.38021 0.81311
 H586 H 0.11219 0.31417 0.84601
 H587 H 0.16146 0.31364 0.88881
 H588 H 0.18754 0.33812 0.88646
 H589 H 0.18708 0.38054 0.83782
 C590 C 0.13119 0.84036 0.34210
 C591 C 0.12209 0.85015 0.32577
 C592 C 0.13107 0.86693 0.31668
 C593 C 0.14952 0.87378 0.32473
 C594 C 0.15872 0.86418 0.34118
 C595 C 0.14958 0.84731 0.34979
 C596 C 0.12228 0.82338 0.35049
 C597 C 0.13148 0.81294 0.36659
 C598 C 0.14987 0.82032 0.37426
 C599 C 0.15888 0.83732 0.36602
 C600 C 0.17712 0.84447 0.37379
 C601 C 0.18632 0.86138 0.36545
 C602 C 0.17699 0.87115 0.34913
 H603 H 0.10842 0.84387 0.31960
 H604 H 0.15656 0.88702 0.31876
 H605 H 0.10862 0.81786 0.34362
 H606 H 0.15703 0.81333 0.38713
 H607 H 0.18406 0.83696 0.38651
 H608 H 0.18413 0.88400 0.34239
 O609 O 0.98114 0.92565 0.89767
 O610 O 0.98110 0.90229 0.87404
 C611 C 0.97443 0.91872 0.88109
 C612 C 0.95836 0.92975 0.87028
 C613 C 0.95215 0.92387 0.85085
 H614 H 0.95970 0.91156 0.84330
 O615 O 1.02149 1.06962 0.89823
 O616 O 1.02170 1.09259 0.87448
 C617 C 1.02850 1.07639 0.88186
 C618 C 1.04504 1.06552 0.87164
 C619 C 1.05264 1.07224 0.85314
 H620 H 1.04611 1.08534 0.84611
 O621 O 0.90084 0.97932 0.92481
 O622 O 0.87750 0.97957 0.90112
 C623 C 0.88442 0.97276 0.91761
 C624 C 0.87356 0.95681 0.92839
 C625 C 0.85464 0.95036 0.92168
 H626 H 0.84775 0.95734 0.90864
 O627 O 1.10042 1.01628 0.92784
 O628 O 1.12421 1.01580 0.90481
 C629 C 1.11687 1.02289 0.92103
 C630 C 1.12727 1.03936 0.93174
 C631 C 1.14602 1.04604 0.92505
 H632 H 1.15313 1.03877 0.91228
 O633 O 0.92728 0.90015 0.97869
 O634 O 0.90370 0.87716 0.97871
 C635 C 0.92006 0.88394 0.97180
 C636 C 0.93054 0.87326 0.95518
 C637 C 0.92330 0.85492 0.94773
 H638 H 0.91024 0.84819 0.95452
 O639 O 1.07297 1.09824 0.97991
 O640 O 1.09650 1.12129 0.97989
 C641 C 1.08019 1.11430 0.97291
 C642 C 1.06980 1.12454 0.95608
 C643 C 1.07689 1.14284 0.94870
 H644 H 1.08980 1.14980 0.95573
 O645 O 0.92895 1.01769 0.89752
 O646 O 0.90570 1.01802 0.87372
 C647 C 0.92210 1.02453 0.88100
 C648 C 0.93311 1.04052 0.87045
 C649 C 0.92683 1.04710 0.85133
 H650 H 0.91436 1.03981 0.84385
 O651 O 1.07323 0.97718 0.89989
 O652 O 1.09698 0.97669 0.87682
 C653 C 1.08052 0.97010 0.88367
 C654 C 1.07007 0.95366 0.87296
 C655 C 1.07743 0.94632 0.85454
 H656 H 1.09022 0.95345 0.84765
 O657 O 1.01938 0.89770 0.92611
 O658 O 1.01931 0.87407 0.90277
 C659 C 1.02604 0.88118 0.91926
 C660 C 1.04214 0.87050 0.93037
 C661 C 1.04898 0.85162 0.92388
 H662 H 1.04209 0.84452 0.91087
 O663 O 0.98220 1.09742 0.92532
 O664 O 0.98231 1.12053 0.90170
 C665 C 0.97543 1.11369 0.91812
 C666 C 0.95913 1.12451 0.92875
 C667 C 0.95257 1.14332 0.92202
 H668 H 0.95970 1.15010 0.90912
 O669 O 0.90165 1.07157 0.97825
 O670 O 0.87837 1.09516 0.97776
 C671 C 0.88538 1.07867 0.97115
 C672 C 0.87484 1.06786 0.95470
 C673 C 0.85593 1.07437 0.94780
 H674 H 0.84859 1.08691 0.95517
 O675 O 1.09932 0.92438 0.98035
 O676 O 1.12257 0.90076 0.98066
 C677 C 1.11569 0.91711 0.97373
 C678 C 1.12657 0.92766 0.95759
 C679 C 1.14552 0.92092 0.95118
 H680 H 1.15231 0.90796 0.95826
 O681 O 0.98234 1.06972 0.89791
 O682 O 0.98251 1.09268 0.87416
 C683 C 0.97562 1.07656 0.88136
 C684 C 0.95930 1.06592 0.87065
 C685 C 0.95275 1.07237 0.85160
 H686 H 0.95994 1.08503 0.84459
 O687 O 1.02025 0.92503 0.89865
 O688 O 1.02034 0.90155 0.87515
 C689 C 1.02731 0.91773 0.88242
 C690 C 1.04412 0.92797 0.87228
 C691 C 1.05179 0.92075 0.85387
 H692 H 1.04512 0.90776 0.84676
 O693 O 1.10061 0.97721 0.92775
 O694 O 1.12444 0.97677 0.90476
 C695 C 1.11704 0.97016 0.92102
 C696 C 1.12730 0.95373 0.93193
 C697 C 1.14630 0.94686 0.92580
 H698 H 1.15395 0.95434 0.91362
 O699 O 0.90163 1.01828 0.92517
 O700 O 0.87825 1.01857 0.90151
 C701 C 0.88537 1.02532 0.91799
 C702 C 0.87489 1.04177 0.92872
 C703 C 0.85605 1.04852 0.92201
 H704 H 0.84905 1.04143 0.90907
 O705 O 0.92921 1.09878 0.97825
 O706 O 0.90605 1.12248 0.97779
 C707 C 0.92235 1.11507 0.97115
 C708 C 0.93318 1.12520 0.95468
 C709 C 0.92681 1.14403 0.94773
 H710 H 0.91437 1.15159 0.95504
 O711 O 1.07152 0.89749 0.98013
 O712 O 1.09464 0.87374 0.98049
 C713 C 1.07844 0.88102 0.97340
 C714 C 1.06781 0.87052 0.95684
 C715 C 1.07446 0.85168 0.95012
 H716 H 1.08692 0.84439 0.95771
 O717 O 1.07363 1.01618 0.89939
 O718 O 1.09735 1.01569 0.87629
 C719 C 1.08096 1.02275 0.88306
 C720 C 1.07061 1.03918 0.87222
 C721 C 1.07788 1.04596 0.85364
 H722 H 1.09047 1.03833 0.84667
 O723 O 0.92871 0.97878 0.89765
 O724 O 0.90551 0.97910 0.87380
 C725 C 0.92177 0.97212 0.88107
 C726 C 0.93259 0.95590 0.87033
 C727 C 0.92662 0.94988 0.85092
 H728 H 0.91410 0.95736 0.84362
 O729 O 1.02124 1.09730 0.92570
 O730 O 1.02139 1.12037 0.90205
 C731 C 1.02808 1.11348 0.91861
 C732 C 1.04433 1.12407 0.92946
 C733 C 1.05156 1.14238 0.92233
 H734 H 1.04453 1.14927 0.90932
 O735 O 0.98029 0.89901 0.92579
 O736 O 0.98010 0.87547 0.90234
 C737 C 0.97320 0.88287 0.91864
 C738 C 0.95646 0.87287 0.92913
 C739 C 0.94899 0.85460 0.92192
 H740 H 0.95607 0.84737 0.90911
 O741 O 1.10005 1.07033 0.98032
 O742 O 1.12369 1.09327 0.98030
 C743 C 1.11648 1.07699 0.97353
 C744 C 1.12703 1.06590 0.95728
 C745 C 1.14576 1.07239 0.95031
 H746 H 1.15291 1.08515 0.95739
 O747 O 0.89981 0.92775 0.97839
 O748 O 0.87612 0.90488 0.97853
 C749 C 0.88339 0.92090 0.97150
 C750 C 0.87302 0.93143 0.95478
 C751 C 0.85410 0.92514 0.94784
 H752 H 0.84658 0.91296 0.95534
 Cu753 Cu 1.00028 0.91421 0.91438
 Cu754 Cu 1.00019 0.88597 0.88622
 Cu755 Cu 1.00182 1.08119 0.91415
 Cu756 Cu 1.00197 1.10885 0.88569
 Cu757 Cu 0.91736 0.99846 0.91367
 Cu758 Cu 0.88938 0.99884 0.88516
 Cu759 Cu 1.08460 0.99676 0.91604
 Cu760 Cu 1.11313 0.99619 0.88835
 C761 C 0.94860 0.94589 0.87979
 H762 H 0.95313 0.95033 0.89487
 C763 C 0.93635 0.93396 0.84101
 C764 C 1.05405 1.04890 0.88096
 H765 H 1.04852 1.04387 0.89540
 C766 C 1.06909 1.06257 0.84402
 C767 C 0.88251 0.94738 0.94506
 H768 H 0.89721 0.95213 0.95016
 C769 C 0.84475 0.93456 0.93132
 C770 C 1.11798 1.04926 0.94800
 H771 H 1.10339 1.04436 0.95307
 C772 C 1.15535 1.06255 0.93421
 C773 C 0.94724 0.88201 0.94587
 H774 H 0.95274 0.89626 0.95133
 C775 C 0.93241 0.84555 0.93104
 C776 C 1.05340 1.11539 0.94647
 H777 H 1.04807 1.10112 0.95187
 C778 C 1.06788 1.15184 0.93180
 C779 C 0.94950 1.04988 0.87987
 H780 H 0.95428 1.04504 0.89472
 C781 C 0.93656 1.06305 0.84179
 C782 C 1.05329 0.94451 0.88161
 H783 H 1.04770 0.94996 0.89595
 C784 C 1.06851 0.92981 0.84494
 C785 C 1.05153 0.87971 0.94700
 H786 H 1.04653 0.89439 0.95192
 C787 C 1.06517 0.84214 0.93365
 C788 C 0.94947 1.11567 0.94521
 H789 H 0.95430 1.10104 0.95031
 C790 C 0.93644 1.15321 0.93142
 C791 C 0.88408 1.05140 0.94519
 H792 H 0.89876 1.04644 0.95024
 C793 C 0.84641 1.06477 0.93146
 C794 C 1.11768 0.94417 0.94797
 H795 H 1.10293 0.94925 0.95263
 C796 C 1.15553 0.93044 0.93532
 O797 O 1.01936 0.92748 1.10009
 O798 O 1.01916 0.90445 1.12376
 C799 C 1.02630 0.92043 1.11648
 C800 C 1.04321 0.93067 1.12679
 C801 C 1.05084 0.92356 1.14525
 H802 H 1.04402 0.91072 1.15230
 O803 O 0.98108 1.07237 1.10024
 O804 O 0.98132 1.09585 1.12373
 C805 C 0.97428 1.07967 1.11660
 C806 C 0.95759 1.06956 1.12705
 C807 C 0.95033 1.07691 1.14554
 H808 H 0.95773 1.08945 1.15275
 O809 O 0.90048 1.02106 1.07177
 O810 O 0.87673 1.02150 1.09484
 C811 C 0.88408 1.02813 1.07854
 C812 C 0.87384 1.04456 1.06756
 C813 C 0.85542 1.05241 1.07436
 H814 H 0.84833 1.04610 1.08753
 O815 O 1.10054 0.97876 1.07182
 O816 O 1.12408 0.97865 1.09531
 C817 C 1.11684 0.97176 1.07893
 C818 C 1.12707 0.95504 1.06833
 C819 C 1.14585 0.94790 1.07499
 H820 H 1.15325 0.95505 1.08768
 O821 O 1.07140 0.89787 1.01949
 O822 O 1.09448 0.87408 1.01989
 C823 C 1.07821 0.88155 1.02656
 C824 C 1.06731 0.87152 1.04304
 C825 C 1.07372 0.85282 1.05027
 H826 H 1.08654 0.84543 1.04346
 O827 O 0.92924 1.09903 1.01767
 O828 O 0.90608 1.12273 1.01721
 C829 C 0.92225 1.11546 1.02441
 C830 C 0.93267 1.12588 1.04120
 C831 C 0.92556 1.14441 1.04828
 H832 H 0.91303 1.15160 1.04071
 O833 O 0.92754 0.98201 1.09984
 O834 O 0.90395 0.98229 1.12307
 C835 C 0.92032 0.97529 1.11614
 C836 C 0.93086 0.95881 1.12676
 C837 C 0.92375 0.95161 1.14528
 H838 H 0.91067 0.95845 1.15217
 O839 O 1.07299 1.01813 1.09921
 O840 O 1.09634 1.01795 1.12290
 C841 C 1.08002 1.02490 1.11570
 C842 C 1.06944 1.04137 1.12635
 C843 C 1.07628 1.04802 1.14525
 H844 H 1.08871 1.04034 1.15248
 O845 O 0.97952 0.90078 1.07257
 O846 O 0.97915 0.87768 1.09617
 C847 C 0.97239 0.88473 1.07970
 C848 C 0.95579 0.87448 1.06893
 C849 C 0.94798 0.85642 1.07622
 H850 H 0.95439 0.84971 1.08964
 O851 O 1.02034 1.09900 1.07250
 O852 O 1.02043 1.12262 1.09586
 C853 C 1.02718 1.11535 1.07947
 C854 C 1.04340 1.12578 1.06863
 C855 C 1.04994 1.14468 1.07511
 H856 H 1.04283 1.15180 1.08796
 O857 O 0.90019 0.92859 1.01781
 O858 O 0.87654 0.90568 1.01800
 C859 C 0.88385 0.92190 1.02481
 C860 C 0.87361 0.93279 1.04143
 C861 C 0.85523 0.92591 1.04901
 H862 H 0.84826 0.91283 1.04237
 O863 O 1.09999 1.07079 1.01959
 O864 O 1.12355 1.09381 1.01961
 C865 C 1.11637 1.07768 1.02649
 C866 C 1.12692 1.06713 1.04304
 C867 C 1.14528 1.07431 1.05040
 H868 H 1.15219 1.08704 1.04323
 O869 O 1.02028 1.07150 1.09987
 O870 O 1.02061 1.09495 1.12339
 C871 C 1.02731 1.07854 1.11624
 C872 C 1.04377 1.06769 1.12669
 C873 C 1.05098 1.07425 1.14556
 H874 H 1.04422 1.08720 1.15276
 O875 O 0.98012 0.92866 1.09990
 O876 O 0.97989 0.90563 1.12359
 C877 C 0.97322 0.92194 1.11634
 C878 C 0.95683 0.93281 1.12679
 C879 C 0.94958 0.92591 1.14531
 H880 H 0.95679 0.91323 1.15248
 O881 O 1.10088 1.01787 1.07214
 O882 O 1.12433 1.01780 1.09572
 C883 C 1.11718 1.02469 1.07936
 C884 C 1.12748 1.04122 1.06890
 C885 C 1.14586 1.04872 1.07615
 H886 H 1.15293 1.04202 1.08924
 O887 O 0.90083 0.98205 1.07135
 O888 O 0.87711 0.98240 1.09444
 C889 C 0.88441 0.97539 1.07816
 C890 C 0.87396 0.95895 1.06741
 C891 C 0.85556 0.95192 1.07461
 H892 H 0.84854 0.95930 1.08738
 O893 O 1.07284 1.09868 1.01930
 O894 O 1.09628 1.12182 1.01932
 C895 C 1.07993 1.11496 1.02616
 C896 C 1.06925 1.12565 1.04259
 C897 C 1.07563 1.14457 1.04930
 H898 H 1.08803 1.15183 1.04187
 O899 O 0.92732 0.90073 1.01816
 O900 O 0.90376 0.87772 1.01823
 C901 C 0.92008 0.88471 1.02522
 C902 C 0.93036 0.87447 1.04218
 C903 C 0.92287 0.85640 1.04964
 H904 H 0.91021 0.84939 1.04220
 O905 O 1.07308 0.97913 1.09935
 O906 O 1.09653 0.97895 1.12294
 C907 C 1.08015 0.97228 1.11576
 C908 C 1.06952 0.95602 1.12632
 C909 C 1.07685 0.94874 1.14477
 H910 H 1.08978 0.95573 1.15175
 O911 O 0.92772 1.02101 1.09981
 O912 O 0.90410 1.02138 1.12301
 C913 C 0.92053 1.02800 1.11613
 C914 C 0.93119 1.04434 1.12683
 C915 C 0.92408 1.05194 1.14531
 H916 H 0.91084 1.04553 1.15206
 O917 O 0.98126 1.09898 1.07203
 O918 O 0.98127 1.12259 1.09539
 C919 C 0.97444 1.11539 1.07896
 C920 C 0.95808 1.12586 1.06797
 C921 C 0.95067 1.14438 1.07487
 H922 H 0.95721 1.15128 1.08816
 O923 O 1.01863 0.89999 1.07242
 O924 O 1.01829 0.87685 1.09600
 C925 C 1.02517 0.88360 1.07956
 C926 C 1.04133 0.87257 1.06892
 C927 C 1.04788 0.85385 1.07590
 H928 H 1.04038 0.84700 1.08855
 O929 O 1.09909 0.92489 1.01958
 O930 O 1.12229 0.90121 1.01992
 C931 C 1.11538 0.91772 1.02657
 C932 C 1.12618 0.92850 1.04284
 C933 C 1.14491 0.92158 1.04970
 H934 H 1.15185 0.90871 1.04251
 O935 O 0.90133 1.07232 1.01763
 O936 O 0.87810 1.09596 1.01712
 C937 C 0.88504 1.07974 1.02430
 C938 C 0.87439 1.06976 1.04098
 C939 C 0.85602 1.07739 1.04800
 H940 H 0.84914 1.09007 1.04051
 Cu941 Cu 0.99944 0.91656 1.08390
 Cu942 Cu 0.99908 0.88886 1.11228
 Cu943 Cu 1.00074 1.08309 1.08385
 Cu944 Cu 1.00094 1.11135 1.11196
 Cu945 Cu 0.91601 0.91659 0.99822
 Cu946 Cu 0.88768 0.88904 0.99839
 Cu947 Cu 1.08299 0.91351 0.99985
 Cu948 Cu 1.11081 0.88504 1.00028
 Cu949 Cu 0.91769 1.08306 0.99796
 Cu950 Cu 0.88983 1.11147 0.99740
 Cu951 Cu 1.08407 1.08224 0.99978
 Cu952 Cu 1.11238 1.10987 0.99979
 Cu953 Cu 0.91652 1.00153 1.08340
 Cu954 Cu 0.88807 1.00191 1.11115
 Cu955 Cu 1.08457 0.99848 1.08323
 Cu956 Cu 1.11268 0.99832 1.11159
 C957 C 1.05258 0.94701 1.11755
 H958 H 1.04702 0.95239 1.10317
 C959 C 1.06772 0.93247 1.15431
 C960 C 0.94805 1.05315 1.11795
 H961 H 0.95341 1.04759 1.10356
 C962 C 0.93355 1.06827 1.15477
 C963 C 0.88308 1.05324 1.05074
 H964 H 0.89741 1.04748 1.04558
 C965 C 0.84647 1.06890 1.06471
 C966 C 1.11748 0.94534 1.05212
 H967 H 1.10288 0.95057 1.04707
 C968 C 1.15484 0.93114 1.06577
 C969 C 1.05099 0.88118 1.05235
 H970 H 1.04617 0.89575 1.04708
 C971 C 1.06411 0.84389 1.06673
 C972 C 0.94907 1.11681 1.05102
 H973 H 0.95445 1.10238 1.04580
 C974 C 0.93437 1.15373 1.06515
 C975 C 0.94752 0.94940 1.11774
 H976 H 0.95287 0.95461 1.10330
 C977 C 0.93299 0.93509 1.15461
 C978 C 1.05304 1.05115 1.11729
 H979 H 1.04783 1.04621 1.10259
 C980 C 1.06728 1.06451 1.15492
 C981 C 0.94695 0.88329 1.05181
 H982 H 0.95262 0.89738 1.04630
 C983 C 0.93146 0.84732 1.06671
 C984 C 1.05300 1.11650 1.05224
 H985 H 1.04817 1.10180 1.04734
 C986 C 1.06599 1.15424 1.06552
 C987 C 0.88279 0.94942 1.05067
 H988 H 0.89714 0.95458 1.04520
 C989 C 0.84618 0.93533 1.06568
 C990 C 1.11823 1.05046 1.05224
 H991 H 1.10391 1.04502 1.04678
 C992 C 1.15479 1.06537 1.06703
 O993 O 1.07374 0.51690 0.60111
 O994 O 1.09726 0.51617 0.62463
 C995 C 1.08099 0.52339 0.61764
 C996 C 1.07060 0.53980 0.62857
 C997 C 1.07749 0.54624 0.64755
 H998 H 1.09002 0.53858 0.65465
 O999 O 0.92783 0.48138 0.60164
 O1000 O 0.90439 0.48181 0.62502
 C1001 C 0.92063 0.47465 0.61795
 C1002 C 0.93098 0.45801 0.62847
 C1003 C 0.92417 0.45132 0.64725
 H1004 H 0.91145 0.45868 0.65428
 O1005 O 1.02201 0.59797 0.57513
 O1006 O 1.02252 0.62133 0.59875
 C1007 C 1.02911 0.61414 0.58227
 C1008 C 1.04542 0.62445 0.57141
 C1009 C 1.05212 0.64334 0.57782
 H1010 H 1.04515 0.65054 0.59071
 O1011 O 0.97847 0.40008 0.57318
 O1012 O 0.97833 0.37654 0.59634
 C1013 C 0.97141 0.38389 0.58006
 C1014 C 0.95469 0.37389 0.56918
 C1015 C 0.94687 0.35565 0.57601
 H1016 H 0.95335 0.34853 0.58918
 O1017 O 1.10104 0.56962 0.52083
 O1018 O 1.12489 0.59234 0.52103
 C1019 C 1.11756 0.57621 0.52773
 C1020 C 1.12805 0.56530 0.54410
 C1021 C 1.14682 0.57178 0.55119
 H1022 H 1.15410 0.58427 0.54396
 O1023 O 0.89972 0.42970 0.51911
 O1024 O 0.87573 0.40713 0.51886
 C1025 C 0.88325 0.42315 0.52592
 C1026 C 0.87305 0.43392 0.54262
 C1027 C 0.85429 0.42748 0.54950
 H1028 H 0.84682 0.41525 0.54183
 O1029 O 0.98233 0.57151 0.60247
 O1030 O 0.98282 0.59480 0.62615
 C1031 C 0.97559 0.57875 0.61887
 C1032 C 0.95878 0.56872 0.62924
 C1033 C 0.95160 0.57608 0.64775
 H1034 H 0.95912 0.58853 0.65499
 O1035 O 1.01842 0.42658 0.60067
 O1036 O 1.01847 0.40320 0.62400
 C1037 C 1.02546 0.41936 0.61693
 C1038 C 1.04224 0.42967 0.62738
 C1039 C 1.04903 0.42320 0.64639
 H1040 H 1.04148 0.41102 0.65386
 O1041 O 1.10045 0.47757 0.57288
 O1042 O 1.12409 0.47678 0.59627
 C1043 C 1.11673 0.47029 0.57979
 C1044 C 1.12683 0.45376 0.56877
 C1045 C 1.14553 0.44630 0.57525
 H1046 H 1.15293 0.45300 0.58819
 O1047 O 0.90104 0.52103 0.57408
 O1048 O 0.87740 0.52137 0.59727
 C1049 C 0.88471 0.52811 0.58101
 C1050 C 0.87443 0.54466 0.57029
 C1051 C 0.85556 0.55163 0.57671
 H1052 H 0.84808 0.54430 0.58909
 O1053 O 0.92996 0.60037 0.52116
 O1054 O 0.90705 0.62431 0.52178
 C1055 C 0.92337 0.61678 0.52833
 C1056 C 0.93459 0.62696 0.54470
 C1057 C 0.92907 0.64628 0.55100
 H1058 H 0.91703 0.65409 0.54327
 O1059 O 1.07042 0.39865 0.51902
 O1060 O 1.09334 0.37471 0.51876
 C1061 C 1.07717 0.38216 0.52574
 C1062 C 1.06630 0.37185 0.54214
 C1063 C 1.07244 0.35279 0.54865
 H1064 H 1.08476 0.34522 0.54113
 O1065 O 0.92839 0.52042 0.60197
 O1066 O 0.90488 0.52092 0.62528
 C1067 C 0.92133 0.52743 0.61834
 C1068 C 0.93218 0.54368 0.62902
 C1069 C 0.92515 0.55132 0.64752
 H1070 H 0.91188 0.54499 0.65431
 O1071 O 1.07277 0.47794 0.60021
 O1072 O 1.09626 0.47719 0.62374
 C1073 C 1.07973 0.47086 0.61656
 C1074 C 1.06870 0.45487 0.62713
 C1075 C 1.07520 0.44824 0.64612
 H1076 H 1.08819 0.45506 0.65316
 O1077 O 1.01762 0.39957 0.57256
 O1078 O 1.01760 0.37600 0.59569
 C1079 C 1.02433 0.38309 0.57931
 C1080 C 1.04042 0.37231 0.56823
 C1081 C 1.04676 0.35325 0.57446
 H1082 H 1.03958 0.34626 0.58722
 O1083 O 0.98294 0.59868 0.57481
 O1084 O 0.98344 0.62212 0.59835
 C1085 C 0.97650 0.61520 0.58185
 C1086 C 0.96054 0.62622 0.57088
 C1087 C 0.95478 0.64555 0.57699
 H1088 H 0.96225 0.65259 0.58970
 O1089 O 0.90167 0.57391 0.52107
 O1090 O 0.87864 0.59774 0.52168
 C1091 C 0.88551 0.58122 0.52819
 C1092 C 0.87483 0.57061 0.54446
 C1093 C 0.85597 0.57737 0.55110
 H1094 H 0.84904 0.59026 0.54403
 O1095 O 1.09862 0.42522 0.51922
 O1096 O 1.12165 0.40140 0.51884
 C1097 C 1.11491 0.41779 0.52592
 C1098 C 1.12585 0.42805 0.54244
 C1099 C 1.14451 0.42078 0.54914
 H1100 H 1.15137 0.40807 0.54159
 O1101 O 0.97923 0.42729 0.60117
 O1102 O 0.97916 0.40392 0.62450
 C1103 C 0.97246 0.42035 0.61758
 C1104 C 0.95628 0.43135 0.62833
 C1105 C 0.94923 0.42484 0.64714
 H1106 H 0.95623 0.41206 0.65435
 O1107 O 1.02153 0.57038 0.60241
 O1108 O 1.02210 0.59358 0.62618
 C1109 C 1.02861 0.57717 0.61888
 C1110 C 1.04492 0.56608 0.62926
 C1111 C 1.05202 0.57230 0.64826
 H1112 H 1.04521 0.58512 0.65566
 O1113 O 0.90070 0.48202 0.57355
 O1114 O 0.87712 0.48231 0.59679
 C1115 C 0.88424 0.47544 0.58037
 C1116 C 0.87354 0.45935 0.56930
 C1117 C 0.85484 0.45255 0.57604
 H1118 H 0.84806 0.45931 0.58926
 O1119 O 1.10092 0.51659 0.57330
 O1120 O 1.12456 0.51587 0.59669
 C1121 C 1.11741 0.52302 0.58042
 C1122 C 1.12804 0.53931 0.56990
 C1123 C 1.14682 0.54604 0.57681
 H1124 H 1.15383 0.53898 0.58973
 O1125 O 0.92642 0.40144 0.51905
 O1126 O 0.90252 0.37877 0.51875
 C1127 C 0.91895 0.38540 0.52584
 C1128 C 0.92914 0.37469 0.54257
 C1129 C 0.92160 0.35646 0.54957
 H1130 H 0.90889 0.34971 0.54197
 O1131 O 1.07400 0.59760 0.52131
 O1132 O 1.09775 0.62044 0.52156
 C1133 C 1.08136 0.61366 0.52839
 C1134 C 1.07095 0.62424 0.54505
 C1135 C 1.07745 0.64313 0.55166
 H1136 H 1.08970 0.65038 0.54397
 Cu1137 Cu 1.08464 0.49733 0.58450
 Cu1138 Cu 1.11291 0.49641 0.61268
 Cu1139 Cu 0.91685 0.50118 0.58550
 Cu1140 Cu 0.88858 0.50163 0.61343
 Cu1141 Cu 1.00217 0.58228 0.58637
 Cu1142 Cu 1.00277 0.61027 0.61477
 Cu1143 Cu 0.99840 0.41573 0.58460
 Cu1144 Cu 0.99841 0.38756 0.61246
 C1145 C 1.05419 0.54969 0.61965
 H1146 H 1.04899 0.54498 0.60488
 C1147 C 1.06831 0.56247 0.65752
 C1148 C 0.94717 0.44806 0.61925
 H1149 H 0.95231 0.45301 0.60464
 C1150 C 0.93321 0.43480 0.65677
 C1151 C 1.05482 0.61512 0.55491
 H1152 H 1.04989 0.60046 0.55004
 C1153 C 1.06808 0.65283 0.56800
 C1154 C 0.94579 0.38318 0.55236
 H1155 H 0.95150 0.39738 0.54718
 C1156 C 0.93025 0.34686 0.56632
 C1157 C 1.11889 0.54894 0.55343
 H1158 H 1.10428 0.54404 0.54821
 C1159 C 1.15631 0.56231 0.56755
 C1160 C 0.88246 0.45002 0.55248
 H1161 H 0.89705 0.45493 0.54740
 C1162 C 0.84511 0.43659 0.56626
 C1163 C 0.94909 0.55240 0.62011
 H1164 H 0.95439 0.54683 0.60570
 C1165 C 0.93475 0.56757 0.65698
 C1166 C 1.05208 0.44564 0.61797
 H1167 H 1.04713 0.45054 0.60321
 C1168 C 1.06545 0.43249 0.65591
 C1169 C 1.11723 0.44465 0.55222
 H1170 H 1.10268 0.45014 0.54731
 C1171 C 1.15446 0.42978 0.56554
 C1172 C 0.88385 0.55413 0.55403
 H1173 H 0.89851 0.54901 0.54916
 C1174 C 0.84618 0.56796 0.56718
 C1175 C 0.95047 0.61712 0.55460
 H1176 H 0.95465 0.60211 0.54997
 C1177 C 0.93908 0.65571 0.56711
 C1178 C 1.05015 0.38140 0.55192
 H1179 H 1.04550 0.39621 0.54720
 C1180 C 1.06271 0.34335 0.56476
 O1181 O 1.07073 0.47957 0.39893
 O1182 O 1.09404 0.47924 0.37542
 C1183 C 1.07763 0.47274 0.38241
 C1184 C 1.06671 0.45668 0.37160
 C1185 C 1.07310 0.44985 0.35258
 H1186 H 1.08564 0.45702 0.34527
 O1187 O 0.92740 0.52202 0.40032
 O1188 O 0.90395 0.52266 0.37674
 C1189 C 0.92040 0.52910 0.38398
 C1190 C 0.93132 0.54530 0.37358
 C1191 C 0.92490 0.55217 0.35461
 H1192 H 0.91232 0.54505 0.34714
 O1193 O 0.98146 0.60142 0.42850
 O1194 O 0.98156 0.62493 0.40531
 C1195 C 0.97467 0.61782 0.42160
 C1196 C 0.95819 0.62829 0.43240
 C1197 C 0.95062 0.64672 0.42547
 H1198 H 0.95721 0.65365 0.41236
 O1199 O 1.01775 0.39998 0.42594
 O1200 O 1.01726 0.37681 0.40213
 C1201 C 1.02434 0.38362 0.41861
 C1202 C 1.04075 0.37280 0.42919
 C1203 C 1.04808 0.35436 0.42186
 H1204 H 1.04135 0.34759 0.40859
 O1205 O 1.09820 0.42547 0.47984
 O1206 O 1.12129 0.40170 0.47942
 C1207 C 1.11433 0.41813 0.47271
 C1208 C 1.12466 0.42859 0.45607
 C1209 C 1.14300 0.42136 0.44837
 H1210 H 1.14999 0.40825 0.45496
 O1211 O 0.90135 0.57414 0.48169
 O1212 O 0.87826 0.59791 0.48235
 C1213 C 0.88502 0.58158 0.47511
 C1214 C 0.87410 0.57138 0.45853
 C1215 C 0.85531 0.57847 0.45202
 H1216 H 0.84833 0.59096 0.45983
 O1217 O 1.02008 0.57344 0.40057
 O1218 O 1.02045 0.59683 0.37725
 C1219 C 1.02703 0.58037 0.38423
 C1220 C 1.04324 0.56932 0.37361
 C1221 C 1.05077 0.57613 0.35510
 H1222 H 1.04442 0.58942 0.34825
 O1223 O 0.97875 0.42863 0.39914
 O1224 O 0.97809 0.40560 0.37520
 C1225 C 0.97163 0.42197 0.38263
 C1226 C 0.95539 0.43320 0.37224
 C1227 C 0.94843 0.42704 0.35317
 H1228 H 0.95555 0.41446 0.34565
 O1229 O 1.09881 0.51754 0.42755
 O1230 O 1.12221 0.51716 0.40411
 C1231 C 1.11527 0.52400 0.42060
 C1232 C 1.12616 0.54004 0.43148
 C1233 C 1.14477 0.54669 0.42443
 H1234 H 1.15164 0.53933 0.41157
 O1235 O 0.89959 0.48326 0.42745
 O1236 O 0.87599 0.48385 0.40403
 C1237 C 0.88314 0.47676 0.42032
 C1238 C 0.87252 0.46046 0.43085
 C1239 C 0.85356 0.45406 0.42417
 H1240 H 0.84646 0.46136 0.41142
 O1241 O 1.07364 0.59802 0.48194
 O1242 O 1.09748 0.62076 0.48220
 C1243 C 1.08096 0.61419 0.47528
 C1244 C 1.07048 0.62516 0.45893
 C1245 C 1.07785 0.64355 0.45220
 H1246 H 1.09063 0.65021 0.45977
 O1247 O 0.92620 0.40131 0.47960
 O1248 O 0.90233 0.37860 0.47927
 C1249 C 0.91879 0.38526 0.47250
 C1250 C 0.92923 0.37468 0.45583
 C1251 C 0.92227 0.35620 0.44840
 H1252 H 0.90938 0.34921 0.45525
 O1253 O 0.92686 0.48297 0.39979
 O1254 O 0.90341 0.48356 0.37621
 C1255 C 0.91966 0.47637 0.38329
 C1256 C 0.93006 0.45984 0.37252
 C1257 C 0.92330 0.45341 0.35348
 H1258 H 0.91061 0.46086 0.34645
 O1259 O 1.07110 0.51863 0.40002
 O1260 O 1.09446 0.51824 0.37655
 C1261 C 1.07832 0.52546 0.38377
 C1262 C 1.06821 0.54236 0.37345
 C1263 C 1.07543 0.54931 0.35494
 H1264 H 1.08778 0.54154 0.34769
 O1265 O 0.97864 0.40108 0.42643
 O1266 O 0.97807 0.37792 0.40262
 C1267 C 0.97150 0.38501 0.41916
 C1268 C 0.95507 0.37473 0.42976
 C1269 C 0.94796 0.35633 0.42260
 H1270 H 0.95523 0.34919 0.40984
 O1271 O 1.02063 0.60041 0.42872
 O1272 O 1.02093 0.62398 0.40559
 C1273 C 1.02776 0.61656 0.42188
 C1274 C 1.04454 0.62641 0.43275
 C1275 C 1.05223 0.64477 0.42613
 H1276 H 1.04557 0.65206 0.41316
 O1277 O 0.89948 0.42969 0.47972
 O1278 O 0.87551 0.40710 0.47947
 C1279 C 0.88294 0.42320 0.47277
 C1280 C 0.87248 0.43424 0.45644
 C1281 C 0.85352 0.42808 0.44953
 H1282 H 0.84615 0.41564 0.45675
 O1283 O 1.10058 0.56991 0.48146
 O1284 O 1.12450 0.59256 0.48163
 C1285 C 1.11698 0.57655 0.47456
 C1286 C 1.12706 0.56578 0.45780
 C1287 C 1.14565 0.57228 0.45045
 H1288 H 1.15293 0.58505 0.45737
 O1289 O 1.01782 0.42770 0.39877
 O1290 O 1.01720 0.40465 0.37484
 C1291 C 1.02431 0.42073 0.38216
 C1292 C 1.04060 0.43121 0.37152
 C1293 C 1.04716 0.42457 0.35252
 H1294 H 1.03997 0.41186 0.34541
 O1295 O 0.98099 0.57388 0.40095
 O1296 O 0.98121 0.59720 0.37755
 C1297 C 0.97418 0.58103 0.38457
 C1298 C 0.95765 0.57064 0.37386
 C1299 C 0.95101 0.57728 0.35490
 H1300 H 0.95827 0.58990 0.34790
 O1301 O 0.89983 0.52227 0.42778
 O1302 O 0.87622 0.52295 0.40436
 C1303 C 0.88351 0.52947 0.42086
 C1304 C 0.87329 0.54590 0.43195
 C1305 C 0.85448 0.55323 0.42560
 H1306 H 0.84710 0.54655 0.41264
 O1307 O 1.09779 0.47852 0.42713
 O1308 O 1.12116 0.47821 0.40367
 C1309 C 1.11398 0.47138 0.41995
 C1310 C 1.12433 0.45465 0.43031
 C1311 C 1.14262 0.44725 0.42291
 H1312 H 1.14961 0.45446 0.41017
 O1313 O 1.07029 0.39876 0.47958
 O1314 O 1.09330 0.37490 0.47932
 C1315 C 1.07711 0.38241 0.47246
 C1316 C 1.06650 0.37234 0.45561
 C1317 C 1.07361 0.35401 0.44804
 H1318 H 1.08632 0.34675 0.45523
 O1319 O 0.92908 0.60114 0.48178
 O1320 O 0.90604 0.62496 0.48245
 C1321 C 0.92213 0.61762 0.47523
 C1322 C 0.93252 0.62809 0.45865
 C1323 C 0.92522 0.64650 0.45155
 H1324 H 0.91252 0.65354 0.45893
 Cu1325 Cu 1.08224 0.49858 0.41574
 Cu1326 Cu 1.11032 0.49818 0.38759
 Cu1327 Cu 0.91576 0.50260 0.41618
 Cu1328 Cu 0.88754 0.50332 0.38797
 Cu1329 Cu 1.08493 0.58151 0.50136
 Cu1330 Cu 1.11355 0.60881 0.50162
 Cu1331 Cu 1.08209 0.41441 0.49947
 Cu1332 Cu 1.10969 0.38577 0.49909
 Cu1333 Cu 0.91782 0.58500 0.50137
 Cu1334 Cu 0.89020 0.61363 0.50216
 Cu1335 Cu 0.91537 0.41777 0.49935
 Cu1336 Cu 0.88662 0.39063 0.49906
 Cu1337 Cu 1.00078 0.58498 0.41702
 Cu1338 Cu 1.00105 0.61311 0.38910
 Cu1339 Cu 0.99833 0.41665 0.41497
 Cu1340 Cu 0.99757 0.38891 0.38631
 C1341 C 1.05032 0.44740 0.38082
 H1342 H 1.04550 0.45240 0.39561
 C1343 C 1.06339 0.43380 0.34290
 C1344 C 0.94783 0.55452 0.38299
 H1345 H 0.95270 0.54949 0.39773
 C1346 C 0.93468 0.56812 0.34513
 C1347 C 0.94912 0.61921 0.44910
 H1348 H 0.95464 0.60487 0.45434
 C1349 C 0.93406 0.65588 0.43491
 C1350 C 1.04996 0.38153 0.44620
 H1351 H 1.04463 0.39586 0.45178
 C1352 C 1.06461 0.34496 0.43115
 C1353 C 1.11555 0.44534 0.44700
 H1354 H 1.10128 0.45083 0.45260
 C1355 C 1.15202 0.43058 0.43171
 C1356 C 0.88286 0.55498 0.44853
 H1357 H 0.89749 0.54961 0.45333
 C1358 C 0.84538 0.56954 0.43555
 C1359 C 1.05199 0.55234 0.38257
 H1360 H 1.04652 0.54718 0.39699
 C1361 C 1.06694 0.56624 0.34569
 C1362 C 0.94623 0.44974 0.38170
 H1363 H 0.95134 0.45443 0.39651
 C1364 C 0.93239 0.43704 0.34367
 C1365 C 1.11752 0.54953 0.44831
 H1366 H 1.10303 0.54464 0.45365
 C1367 C 1.15457 0.56286 0.43371
 C1368 C 0.88176 0.45056 0.44712
 H1369 H 0.89649 0.45523 0.45219
 C1370 C 0.84394 0.43789 0.43341
 C1371 C 1.05369 0.61682 0.44926
 H1372 H 1.04810 0.60250 0.45424
 C1373 C 1.06895 0.65342 0.43574
 C1374 C 0.94575 0.38370 0.44649
 H1375 H 0.95102 0.39807 0.45188
 C1376 C 0.93154 0.34699 0.43170
 O1377 O 0.48269 0.92792 0.39945
 O1378 O 0.48300 0.90452 0.37587
 C1379 C 0.47601 0.92084 0.38294
 C1380 C 0.45964 0.93139 0.37207
 C1381 C 0.45333 0.92460 0.35303
 H1382 H 0.46110 0.91217 0.34591
 O1383 O 0.52093 1.07172 0.39889
 O1384 O 0.52080 1.09473 0.37518
 C1385 C 0.52775 1.07855 0.38247
 C1386 C 0.54420 1.06780 0.37201
 C1387 C 0.55073 1.07409 0.35300
 H1388 H 0.54342 1.08670 0.34580
 O1389 O 0.40059 0.98077 0.42478
 O1390 O 0.37758 0.98056 0.40077
 C1391 C 0.38442 0.97387 0.41736
 C1392 C 0.37383 0.95758 0.42791
 C1393 C 0.35511 0.95080 0.42098
 H1394 H 0.34815 0.95783 0.40801
 O1395 O 0.60076 1.01943 0.42795
 O1396 O 0.62455 1.01932 0.40492
 C1397 C 0.61716 1.02619 0.42121
 C1398 C 0.62751 1.04247 0.43224
 C1399 C 0.64663 1.04868 0.42626
 H1400 H 0.65397 1.04126 0.41370
 O1401 O 0.42831 0.90098 0.47826
 O1402 O 0.40515 0.87756 0.47794
 C1403 C 0.42152 0.88459 0.47133
 C1404 C 0.43259 0.87397 0.45509
 C1405 C 0.42601 0.85535 0.44768
 H1406 H 0.41289 0.84843 0.45415
 O1407 O 0.57225 1.10037 0.48013
 O1408 O 0.59552 1.12368 0.48037
 C1409 C 0.57935 1.11653 0.47324
 C1410 C 0.56902 1.12679 0.45638
 C1411 C 0.57618 1.14509 0.44919
 H1412 H 0.58871 1.15222 0.45675
 O1413 O 0.42847 1.01948 0.39771
 O1414 O 0.40567 1.01925 0.37349
 C1415 C 0.42181 1.02611 0.38104
 C1416 C 0.43276 1.04222 0.37058
 C1417 C 0.42662 1.04872 0.35138
 H1418 H 0.41390 1.04170 0.34404
 O1419 O 0.57410 0.98029 0.39975
 O1420 O 0.59770 0.98012 0.37652
 C1421 C 0.58133 0.97338 0.38343
 C1422 C 0.57078 0.95700 0.37274
 C1423 C 0.57733 0.95026 0.35376
 H1424 H 0.58968 0.95773 0.34645
 O1425 O 0.52184 0.90038 0.42728
 O1426 O 0.52217 0.87689 0.40380
 C1427 C 0.52886 0.88407 0.42028
 C1428 C 0.54534 0.87371 0.43119
 C1429 C 0.55263 0.85505 0.42450
 H1430 H 0.54584 0.84785 0.41150
 O1431 O 0.48145 1.09921 0.42605
 O1432 O 0.48137 1.12240 0.40252
 C1433 C 0.47454 1.11544 0.41890
 C1434 C 0.45812 1.12606 0.42953
 C1435 C 0.45165 1.14498 0.42304
 H1436 H 0.45896 1.15197 0.41036
 O1437 O 0.40011 1.07246 0.47769
 O1438 O 0.37668 1.09590 0.47738
 C1439 C 0.38385 1.07958 0.47056
 C1440 C 0.37348 1.06908 0.45379
 C1441 C 0.35497 1.07617 0.44648
 H1442 H 0.34778 1.08880 0.45385
 O1443 O 0.60147 0.92856 0.48121
 O1444 O 0.62515 0.90537 0.48171
 C1445 C 0.61795 0.92154 0.47463
 C1446 C 0.62858 0.93205 0.45827
 C1447 C 0.64762 0.92555 0.45194
 H1448 H 0.65474 0.91295 0.45935
 O1449 O 0.48179 1.07181 0.39828
 O1450 O 0.48167 1.09487 0.37462
 C1451 C 0.47498 1.07864 0.38174
 C1452 C 0.45879 1.06783 0.37095
 C1453 C 0.45252 1.07401 0.35171
 H1454 H 0.46024 1.08616 0.34437
 O1455 O 0.52185 0.92757 0.39955
 O1456 O 0.52212 0.90417 0.37597
 C1457 C 0.52879 0.92048 0.38316
 C1458 C 0.54508 0.93111 0.37264
 C1459 C 0.55188 0.92449 0.35371
 H1460 H 0.54494 0.91163 0.34661
 O1461 O 0.60156 0.98046 0.42753
 O1462 O 0.62532 0.98028 0.40447
 C1463 C 0.61807 0.97361 0.42079
 C1464 C 0.62863 0.95744 0.43186
 C1465 C 0.64769 0.95071 0.42574
 H1466 H 0.65511 0.95791 0.41324
 O1467 O 0.40032 1.01979 0.42453
 O1468 O 0.37734 1.01972 0.40048
 C1469 C 0.38413 1.02667 0.41703
 C1470 C 0.37351 1.04326 0.42752
 C1471 C 0.35498 1.05062 0.42035
 H1472 H 0.34808 1.04383 0.40719
 O1473 O 0.42775 1.09959 0.47826
 O1474 O 0.40439 1.12310 0.47786
 C1475 C 0.42082 1.11591 0.47130
 C1476 C 0.43180 1.12631 0.45510
 C1477 C 0.42553 1.14526 0.44839
 H1478 H 0.41299 1.15270 0.45566
 O1479 O 0.57430 0.90111 0.48089
 O1480 O 0.59785 0.87778 0.48130
 C1481 C 0.58155 0.88480 0.47415
 C1482 C 0.57116 0.87417 0.45751
 C1483 C 0.57826 0.85557 0.45060
 H1484 H 0.59094 0.84854 0.45806
 O1485 O 0.57420 1.01925 0.39933
 O1486 O 0.59781 1.01917 0.37612
 C1487 C 0.58135 1.02599 0.38299
 C1488 C 0.57054 1.04219 0.37223
 C1489 C 0.57693 1.04875 0.35320
 H1490 H 0.58954 1.04143 0.34591
 O1491 O 0.42875 0.98050 0.39801
 O1492 O 0.40593 0.98016 0.37381
 C1493 C 0.42215 0.97346 0.38145
 C1494 C 0.43329 0.95703 0.37126
 C1495 C 0.42716 0.94994 0.35221
 H1496 H 0.41438 0.95674 0.34472
 O1497 O 0.52056 1.09984 0.42591
 O1498 O 0.52052 1.12296 0.40231
 C1499 C 0.52733 1.11607 0.41881
 C1500 C 0.54363 1.12665 0.42967
 C1501 C 0.55105 1.14498 0.42262
 H1502 H 0.54449 1.15177 0.40932
 O1503 O 0.48263 0.90050 0.42686
 O1504 O 0.48298 0.87701 0.40336
 C1505 C 0.47591 0.88421 0.41965
 C1506 C 0.45931 0.87384 0.42994
 C1507 C 0.45260 0.85525 0.42283
 H1508 H 0.46037 0.84799 0.41045
 O1509 O 0.59989 1.07295 0.48079
 O1510 O 0.62327 1.09615 0.48101
 C1511 C 0.61631 1.07979 0.47416
 C1512 C 0.62713 1.06877 0.45803
 C1513 C 0.64628 1.07482 0.45176
 H1514 H 0.65356 1.08729 0.45923
 O1515 O 0.40046 0.92829 0.47765
 O1516 O 0.37719 0.90499 0.47738
 C1517 C 0.38423 0.92120 0.47055
 C1518 C 0.37376 0.93173 0.45386
 C1519 C 0.35503 0.92512 0.44669
 H1520 H 0.34775 0.91264 0.45392
 Cu1521 Cu 0.50226 0.91643 0.41566
 Cu1522 Cu 0.50258 0.88828 0.38740
 Cu1523 Cu 0.50121 1.08335 0.41466
 Cu1524 Cu 0.50105 1.11106 0.38627
 Cu1525 Cu 0.41679 1.00017 0.41368
 Cu1526 Cu 0.38932 0.99989 0.38471
 Cu1527 Cu 0.58528 0.99986 0.41593
 Cu1528 Cu 0.61374 0.99971 0.38819
 C1529 C 0.44966 0.94774 0.38099
 H1530 H 0.45430 0.95290 0.39581
 C1531 C 0.43708 0.93369 0.34302
 C1532 C 0.55405 1.05172 0.38140
 H1533 H 0.54920 1.04695 0.39618
 C1534 C 0.56702 1.06463 0.34342
 C1535 C 0.38291 0.94808 0.44448
 H1536 H 0.39746 0.95308 0.44974
 C1537 C 0.34554 0.93461 0.43028
 C1538 C 0.61797 1.05246 0.44828
 H1539 H 0.60310 1.04787 0.45281
 C1540 C 0.65616 1.06477 0.43594
 C1541 C 0.44935 0.88299 0.44620
 H1542 H 0.45431 0.89748 0.45156
 C1543 C 0.43591 0.84592 0.43148
 C1544 C 0.55263 1.11780 0.44666
 H1545 H 0.54723 1.10353 0.45198
 C1546 C 0.56741 1.15425 0.43227
 C1547 C 0.44896 1.05179 0.38017
 H1548 H 0.45359 1.04709 0.39510
 C1549 C 0.43642 1.06460 0.34181
 C1550 C 0.55452 0.94747 0.38194
 H1551 H 0.54954 0.95245 0.39668
 C1552 C 0.56797 0.93400 0.34411
 C1553 C 0.55459 0.88303 0.44782
 H1554 H 0.54923 0.89752 0.45289
 C1555 C 0.56913 0.84590 0.43410
 C1556 C 0.44824 1.11694 0.44569
 H1557 H 0.45300 1.10222 0.45059
 C1558 C 0.43541 1.15472 0.43241
 C1559 C 0.38251 1.05252 0.44435
 H1560 H 0.39692 1.04716 0.44978
 C1561 C 0.34562 1.06713 0.42974
 C1562 C 0.61930 0.94813 0.44827
 H1563 H 0.60450 0.95305 0.45291
 C1564 C 0.65733 0.93479 0.43573
 O1565 O 0.51960 0.92905 0.59960
 O1566 O 0.51971 0.90588 0.62314
 C1567 C 0.52654 0.92207 0.61603
 C1568 C 0.54309 0.93264 0.62660
 C1569 C 0.55076 0.92543 0.64501
 H1570 H 0.54421 0.91233 0.65184
 O1571 O 0.47926 1.07343 0.59921
 O1572 O 0.47888 1.09693 0.62268
 C1573 C 0.47217 1.08061 0.61548
 C1574 C 0.45554 1.07026 0.62580
 C1575 C 0.44800 1.07778 0.64407
 H1576 H 0.45512 1.09056 0.65114
 O1577 O 0.39941 1.02045 0.57085
 O1578 O 0.37567 1.02068 0.59393
 C1579 C 0.38296 1.02737 0.57762
 C1580 C 0.37258 1.04373 0.56665
 C1581 C 0.35402 1.05125 0.57339
 H1582 H 0.34697 1.04474 0.58648
 O1583 O 0.60009 0.98230 0.57302
 O1584 O 0.62326 0.98255 0.59688
 C1585 C 0.61642 0.97560 0.58037
 C1586 C 0.62723 0.95918 0.56993
 C1587 C 0.64595 0.95250 0.57708
 H1588 H 0.65296 0.96004 0.58977
 O1589 O 0.57378 0.90144 0.52018
 O1590 O 0.59726 0.87805 0.52066
 C1591 C 0.58076 0.88516 0.52716
 C1592 C 0.56972 0.87467 0.54327
 C1593 C 0.57607 0.85576 0.55000
 H1594 H 0.58874 0.84844 0.54285
 O1595 O 0.42718 1.09990 0.51762
 O1596 O 0.40376 1.12336 0.51716
 C1597 C 0.42001 1.11628 0.52434
 C1598 C 0.43034 1.12695 0.54101
 C1599 C 0.42326 1.14565 0.54768
 H1600 H 0.41081 1.15270 0.53986
 O1601 O 0.42693 0.98183 0.59904
 O1602 O 0.40338 0.98187 0.62231
 C1603 C 0.41983 0.97505 0.61537
 C1604 C 0.43057 0.95868 0.62595
 C1605 C 0.42344 0.95124 0.64436
 H1606 H 0.41024 0.95787 0.65123
 O1607 O 0.57166 1.02122 0.60022
 O1608 O 0.59476 1.02133 0.62416
 C1609 C 0.57847 1.02811 0.61676
 C1610 C 0.56775 1.04462 0.62719
 C1611 C 0.57504 1.05209 0.64561
 H1612 H 0.58785 1.04495 0.65272
 O1613 O 0.48046 0.90158 0.57175
 O1614 O 0.48035 0.87840 0.59527
 C1615 C 0.47350 0.88543 0.57883
 C1616 C 0.45690 0.87510 0.56809
 C1617 C 0.44911 0.85704 0.57544
 H1618 H 0.45557 0.85034 0.58883
 O1619 O 0.51849 1.10078 0.57211
 O1620 O 0.51805 1.12439 0.59548
 C1621 C 0.52511 1.11717 0.57919
 C1622 C 0.54153 1.12765 0.56865
 C1623 C 0.54833 1.14629 0.57564
 H1624 H 0.54122 1.15325 0.58859
 O1625 O 0.40042 0.92899 0.51709
 O1626 O 0.37715 0.90568 0.51683
 C1627 C 0.38411 0.92198 0.52382
 C1628 C 0.37348 0.93251 0.54041
 C1629 C 0.35498 0.92541 0.54731
 H1630 H 0.34795 0.91296 0.53958
 O1631 O 0.59938 1.07340 0.52013
 O1632 O 0.62264 1.09673 0.52033
 C1633 C 0.61557 1.08056 0.52722
 C1634 C 0.62601 1.07031 0.54402
 C1635 C 0.64428 1.07767 0.55144
 H1636 H 0.65124 1.09028 0.54411
 O1637 O 0.51846 1.07393 0.60014
 O1638 O 0.51816 1.09742 0.62363
 C1639 C 0.52520 1.08112 0.61659
 C1640 C 0.54181 1.07065 0.62721
 C1641 C 0.54943 1.07800 0.64564
 H1642 H 0.54278 1.09119 0.65251
 O1643 O 0.48038 0.92935 0.59918
 O1644 O 0.48045 0.90623 0.62277
 C1645 C 0.47351 0.92244 0.61555
 C1646 C 0.45687 0.93299 0.62595
 C1647 C 0.44953 0.92580 0.64432
 H1648 H 0.45677 0.91309 0.65141
 O1649 O 0.59987 1.02134 0.57342
 O1650 O 0.62302 1.02158 0.59730
 C1651 C 0.61602 1.02833 0.58081
 C1652 C 0.62636 1.04484 0.57032
 C1653 C 0.64467 1.05249 0.57761
 H1654 H 0.65165 1.04597 0.59084
 O1655 O 0.39960 0.98142 0.57114
 O1656 O 0.37589 0.98149 0.59423
 C1657 C 0.38326 0.97454 0.57796
 C1658 C 0.37307 0.95800 0.56704
 C1659 C 0.35465 0.95047 0.57388
 H1660 H 0.34767 0.95700 0.58712
 O1661 O 0.57176 1.10078 0.51952
 O1662 O 0.59493 1.12419 0.51979
 C1663 C 0.57861 1.11712 0.52649
 C1664 C 0.56772 1.12764 0.54292
 C1665 C 0.57432 1.14628 0.55015
 H1666 H 0.58697 1.15348 0.54306
 O1667 O 0.42797 0.90154 0.51765
 O1668 O 0.40479 0.87815 0.51738
 C1669 C 0.42094 0.88535 0.52455
 C1670 C 0.43129 0.87513 0.54151
 C1671 C 0.42382 0.85707 0.54902
 H1672 H 0.41110 0.85009 0.54165
 O1673 O 0.57220 0.98213 0.60008
 O1674 O 0.59531 0.98225 0.62400
 C1675 C 0.57918 0.97528 0.61653
 C1676 C 0.56880 0.95864 0.62675
 C1677 C 0.57622 0.95118 0.64509
 H1678 H 0.58902 0.95824 0.65224
 O1679 O 0.42639 1.02085 0.59906
 O1680 O 0.40283 1.02107 0.62231
 C1681 C 0.41914 1.02790 0.61533
 C1682 C 0.42954 1.04457 0.62582
 C1683 C 0.42216 1.05241 0.64412
 H1684 H 0.40899 1.04592 0.65094
 O1685 O 0.47933 1.10093 0.57187
 O1686 O 0.47884 1.12455 0.59522
 C1687 C 0.47223 1.11726 0.57876
 C1688 C 0.45579 1.12751 0.56769
 C1689 C 0.44838 1.14618 0.57424
 H1690 H 0.45498 1.15337 0.58734
 O1691 O 0.51970 0.90154 0.57192
 O1692 O 0.51961 0.87825 0.59534
 C1693 C 0.52654 0.88525 0.57903
 C1694 C 0.54308 0.87466 0.56850
 C1695 C 0.54964 0.85577 0.57503
 H1696 H 0.54223 0.84869 0.58761
 O1697 O 0.60122 0.92879 0.52053
 O1698 O 0.62484 0.90555 0.52109
 C1699 C 0.61755 0.92191 0.52771
 C1700 C 0.62783 0.93286 0.54421
 C1701 C 0.64659 0.92639 0.55156
 H1702 H 0.65387 0.91347 0.54481
 O1703 O 0.39995 1.07238 0.51713
 O1704 O 0.37649 1.09578 0.51678
 C1705 C 0.38356 1.07953 0.52380
 C1706 C 0.37293 1.06918 0.54028
 C1707 C 0.35436 1.07640 0.54718
 H1708 H 0.34730 1.08896 0.53966
 Cu1709 Cu 0.50004 0.91768 0.58325
 Cu1710 Cu 0.50004 0.88987 0.61150
 Cu1711 Cu 0.49894 1.08491 0.58350
 Cu1712 Cu 0.49844 1.11317 0.61162
 Cu1713 Cu 0.41661 0.91728 0.49763
 Cu1714 Cu 0.38874 0.88926 0.49735
 Cu1715 Cu 0.58534 0.91731 0.50069
 Cu1716 Cu 0.61365 0.88934 0.50126
 Cu1717 Cu 0.41609 1.08373 0.49770
 Cu1718 Cu 0.38796 1.11186 0.49726
 Cu1719 Cu 0.58348 1.08455 0.50010
 Cu1720 Cu 0.61142 1.11254 0.50039
 Cu1721 Cu 0.41544 1.00112 0.58273
 Cu1722 Cu 0.38707 1.00129 0.61052
 Cu1723 Cu 0.58365 1.00175 0.58427
 Cu1724 Cu 0.61138 1.00194 0.61302
 C1725 C 0.55213 0.94937 0.61770
 H1726 H 0.54653 0.95484 0.60338
 C1727 C 0.56740 0.93455 0.65428
 C1728 C 0.44634 1.05353 0.61689
 H1729 H 0.45191 1.04784 0.60263
 C1730 C 0.43125 1.06910 0.65327
 C1731 C 0.38182 1.05271 0.54998
 H1732 H 0.39630 1.04724 0.54491
 C1733 C 0.34484 1.06764 0.56378
 C1734 C 0.61839 0.94940 0.55338
 H1735 H 0.60381 0.95430 0.54799
 C1736 C 0.65573 0.93612 0.56802
 C1737 C 0.55309 0.88389 0.55248
 H1738 H 0.54828 0.89858 0.54756
 C1739 C 0.56608 0.84617 0.56585
 C1740 C 0.44674 1.11810 0.55098
 H1741 H 0.45211 1.10356 0.54604
 C1742 C 0.43206 1.15535 0.56433
 C1743 C 0.44742 0.94956 0.61698
 H1744 H 0.45281 0.95497 0.60263
 C1745 C 0.43279 0.93473 0.65358
 C1746 C 0.55101 1.05386 0.61821
 H1747 H 0.54551 1.04833 0.60384
 C1748 C 0.56615 1.06886 0.65485
 C1749 C 0.44795 0.88393 0.55103
 H1750 H 0.45361 0.89801 0.54548
 C1751 C 0.43249 0.84798 0.56605
 C1752 C 0.55119 1.11855 0.55216
 H1753 H 0.54620 1.10404 0.54688
 C1754 C 0.56471 1.15573 0.56651
 C1755 C 0.38229 0.94895 0.55022
 H1756 H 0.39667 0.95437 0.54510
 C1757 C 0.34550 0.93412 0.56414
 C1758 C 0.61726 1.05379 0.55342
 H1759 H 0.60301 1.04823 0.54790
 C1760 C 0.65368 1.06899 0.56828
 O1761 O 0.57079 0.51989 1.10171
 O1762 O 0.59413 0.51997 1.12541
 C1763 C 0.57772 0.52670 1.11823
 C1764 C 0.56690 0.54301 1.12889
 C1765 C 0.57372 0.54989 1.14774
 H1766 H 0.58637 0.54254 1.15495
 O1767 O 0.42745 0.48001 1.10165
 O1768 O 0.40413 0.47970 1.12515
 C1769 C 0.42050 0.47299 1.11794
 C1770 C 0.43133 0.45652 1.12829
 C1771 C 0.42481 0.44959 1.14710
 H1772 H 0.41197 0.45662 1.15425
 O1773 O 0.51694 0.59998 1.07471
 O1774 O 0.51688 0.62335 1.09832
 C1775 C 0.52368 0.61628 1.08186
 C1776 C 0.53993 0.62683 1.07115
 C1777 C 0.54649 0.64565 1.07787
 H1778 H 0.53935 0.65268 1.09077
 O1779 O 0.48064 0.40031 1.07231
 O1780 O 0.48099 0.37675 1.09545
 C1781 C 0.47395 0.38397 1.07916
 C1782 C 0.45739 0.37363 1.06845
 C1783 C 0.45013 0.35532 1.07556
 H1784 H 0.45744 0.34822 1.08829
 O1785 O 0.59800 0.57314 1.02164
 O1786 O 0.62131 0.59642 1.02206
 C1787 C 0.61430 0.58013 1.02870
 C1788 C 0.62491 0.56943 1.04513
 C1789 C 0.64378 0.57593 1.05197
 H1790 H 0.65102 0.58835 1.04459
 O1791 O 0.40018 0.42818 1.01944
 O1792 O 0.37679 0.40498 1.01901
 C1793 C 0.38390 0.42113 1.02620
 C1794 C 0.37346 0.43144 1.04303
 C1795 C 0.35511 0.42418 1.05014
 H1796 H 0.34805 0.41165 1.04256
 O1797 O 0.47828 0.57245 1.10229
 O1798 O 0.47821 0.59567 1.12606
 C1799 C 0.47152 0.57937 1.11882
 C1800 C 0.45544 0.56851 1.12947
 C1801 C 0.44876 0.57499 1.14849
 H1802 H 0.45565 0.58791 1.15554
 O1803 O 0.51951 0.42771 1.10045
 O1804 O 0.51996 0.40420 1.12364
 C1805 C 0.52654 0.42059 1.11675
 C1806 C 0.54292 0.43119 1.12747
 C1807 C 0.55027 0.42406 1.14598
 H1808 H 0.54325 0.41128 1.15293
 O1809 O 0.59910 0.48140 1.07384
 O1810 O 0.62257 0.48149 1.09742
 C1811 C 0.61561 0.47478 1.08084
 C1812 C 0.62658 0.45887 1.06976
 C1813 C 0.64566 0.45248 1.07621
 H1814 H 0.65256 0.45948 1.08926
 O1815 O 0.39948 0.51904 1.07436
 O1816 O 0.37598 0.51867 1.09768
 C1817 C 0.38298 0.52562 1.08136
 C1818 C 0.37206 0.54176 1.07062
 C1819 C 0.35300 0.54803 1.07712
 H1820 H 0.34611 0.54081 1.08991
 O1821 O 0.42483 0.59967 1.02166
 O1822 O 0.40104 0.62274 1.02203
 C1823 C 0.41755 0.61582 1.02877
 C1824 C 0.42816 0.62637 1.04534
 C1825 C 0.42138 0.64513 1.05216
 H1826 H 0.40882 0.65231 1.04464
 O1827 O 0.57321 0.40202 1.02001
 O1828 O 0.59689 0.37884 1.01958
 C1829 C 0.58056 0.38576 1.02669
 C1830 C 0.57024 0.37505 1.04318
 C1831 C 0.57779 0.35673 1.05030
 H1832 H 0.59080 0.35001 1.04318
 O1833 O 0.42670 0.51909 1.10240
 O1834 O 0.40335 0.51883 1.12587
 C1835 C 0.41956 0.52582 1.11886
 C1836 C 0.43002 0.54230 1.12955
 C1837 C 0.42356 0.54897 1.14862
 H1838 H 0.41133 0.54140 1.15603
 O1839 O 0.57167 0.48082 1.10143
 O1840 O 0.59502 0.48086 1.12512
 C1841 C 0.57884 0.47390 1.11778
 C1842 C 0.56850 0.45725 1.12801
 C1843 C 0.57567 0.44986 1.14651
 H1844 H 0.58864 0.45667 1.15359
 O1845 O 0.51993 0.40035 1.07268
 O1846 O 0.52034 0.37672 1.09575
 C1847 C 0.52714 0.38410 1.07954
 C1848 C 0.54401 0.37410 1.06888
 C1849 C 0.55176 0.35572 1.07573
 H1850 H 0.54500 0.34848 1.08858
 O1851 O 0.47777 0.60000 1.07498
 O1852 O 0.47765 0.62337 1.09860
 C1853 C 0.47078 0.61626 1.08216
 C1854 C 0.45418 0.62665 1.07146
 C1855 C 0.44715 0.64542 1.07812
 H1856 H 0.45415 0.65256 1.09103
 O1857 O 0.39796 0.57184 1.02128
 O1858 O 0.37404 0.59478 1.02167
 C1859 C 0.38152 0.57856 1.02831
 C1860 C 0.37132 0.56762 1.04469
 C1861 C 0.35224 0.57368 1.05141
 H1862 H 0.34455 0.58593 1.04398
 O1863 O 0.60027 0.42966 1.01986
 O1864 O 0.62409 0.40662 1.01938
 C1865 C 0.61680 0.42277 1.02652
 C1866 C 0.62723 0.43342 1.04314
 C1867 C 0.64632 0.42721 1.04981
 H1868 H 0.65393 0.41502 1.04213
 O1869 O 0.48039 0.42710 1.10074
 O1870 O 0.48079 0.40364 1.12400
 C1871 C 0.47372 0.41994 1.11711
 C1872 C 0.45727 0.43049 1.12789
 C1873 C 0.45054 0.42378 1.14674
 H1874 H 0.45797 0.41121 1.15389
 O1875 O 0.51739 0.57265 1.10222
 O1876 O 0.51739 0.59588 1.12598
 C1877 C 0.52430 0.57963 1.11869
 C1878 C 0.54086 0.56895 1.12915
 C1879 C 0.54796 0.57565 1.14799
 H1880 H 0.54103 0.58854 1.15515
 O1881 O 0.39986 0.48007 1.07402
 O1882 O 0.37642 0.47964 1.09740
 C1883 C 0.38361 0.47304 1.08091
 C1884 C 0.37331 0.45670 1.06985
 C1885 C 0.35496 0.44916 1.07678
 H1886 H 0.34806 0.45558 1.09012
 O1887 O 0.59849 0.52032 1.07446
 O1888 O 0.62195 0.52042 1.09805
 C1889 C 0.61476 0.52722 1.08166
 C1890 C 0.62514 0.54358 1.07105
 C1891 C 0.64400 0.55029 1.07769
 H1892 H 0.65115 0.54323 1.09054
 O1893 O 0.42752 0.40051 1.01921
 O1894 O 0.40424 0.37722 1.01884
 C1895 C 0.42052 0.38422 1.02591
 C1896 C 0.43119 0.37371 1.04248
 C1897 C 0.42408 0.35540 1.04989
 H1898 H 0.41092 0.34863 1.04314
 O1899 O 0.57001 0.60020 1.02172
 O1900 O 0.59320 0.62360 1.02219
 C1901 C 0.57687 0.61647 1.02883
 C1902 C 0.56596 0.62689 1.04527
 C1903 C 0.57226 0.64573 1.05217
 H1904 H 0.58468 0.65307 1.04482
 Cu1905 Cu 0.58265 0.50058 1.08551
 Cu1906 Cu 0.61073 0.50069 1.11391
 Cu1907 Cu 0.41573 0.49960 1.08580
 Cu1908 Cu 0.38763 0.49918 1.11389
 Cu1909 Cu 0.49758 0.58396 1.08617
 Cu1910 Cu 0.49753 0.61191 1.11462
 Cu1911 Cu 0.50006 0.41619 1.08421
 Cu1912 Cu 0.50055 0.38794 1.11200
 C1913 C 0.55034 0.55251 1.11981
 H1914 H 0.54517 0.54745 1.10514
 C1915 C 0.56442 0.56623 1.15737
 C1916 C 0.44768 0.44700 1.11891
 H1917 H 0.45261 0.45210 1.10428
 C1918 C 0.43433 0.43328 1.15650
 C1919 C 0.54965 0.61766 1.05473
 H1920 H 0.54486 0.60301 1.04965
 C1921 C 0.56264 0.65522 1.06848
 C1922 C 0.44794 0.38259 1.05178
 H1923 H 0.45329 0.39686 1.04641
 C1924 C 0.43342 0.34614 1.06650
 C1925 C 0.61581 0.55314 1.05464
 H1926 H 0.60115 0.54822 1.04961
 C1927 C 0.65346 0.56644 1.06823
 C1928 C 0.38235 0.44783 1.05285
 H1929 H 0.39667 0.45332 1.04762
 C1930 C 0.34580 0.43284 1.06706
 C1931 C 0.44609 0.55206 1.12023
 H1932 H 0.45100 0.54717 1.10543
 C1933 C 0.43289 0.56530 1.15825
 C1934 C 0.55200 0.44792 1.11871
 H1935 H 0.54659 0.45332 1.10429
 C1936 C 0.56668 0.43323 1.15558
 C1937 C 0.61761 0.44939 1.05310
 H1938 H 0.60278 0.45408 1.04822
 C1939 C 0.65567 0.43670 1.06631
 C1940 C 0.38101 0.55153 1.05428
 H1941 H 0.39583 0.54693 1.04936
 C1942 C 0.34294 0.56395 1.06760
 C1943 C 0.44468 0.61735 1.05495
 H1944 H 0.44982 0.60277 1.04991
 C1945 C 0.43074 0.65478 1.06855
 C1946 C 0.55325 0.38352 1.05247
 H1947 H 0.54754 0.39780 1.04727
 C1948 C 0.56869 0.34697 1.06657
 O1949 O 0.57024 0.48274 0.89932
 O1950 O 0.59348 0.48309 0.87575
 C1951 C 0.57729 0.47611 0.88279
 C1952 C 0.56683 0.45966 0.87210
 C1953 C 0.57354 0.45273 0.85322
 H1954 H 0.58597 0.46007 0.84590
 O1955 O 0.42638 0.52126 0.90011
 O1956 O 0.40302 0.52131 0.87643
 C1957 C 0.41925 0.52821 0.88377
 C1958 C 0.42974 0.54478 0.87353
 C1959 C 0.42337 0.55151 0.85448
 H1960 H 0.41110 0.54405 0.84681
 O1961 O 0.47789 0.60188 0.92951
 O1962 O 0.47737 0.62556 0.90650
 C1963 C 0.47067 0.61814 0.92273
 C1964 C 0.45394 0.62815 0.93360
 C1965 C 0.44648 0.64678 0.92719
 H1966 H 0.45329 0.65415 0.91444
 O1967 O 0.51893 0.40256 0.92739
 O1968 O 0.51927 0.37913 0.90383
 C1969 C 0.52593 0.38627 0.92035
 C1970 C 0.54222 0.37573 0.93129
 C1971 C 0.54862 0.35670 0.92494
 H1972 H 0.54135 0.34954 0.91218
 O1973 O 0.59981 0.42955 0.98043
 O1974 O 0.62351 0.40640 0.97984
 C1975 C 0.61604 0.42259 0.97313
 C1976 C 0.62591 0.43320 0.95630
 C1977 C 0.64432 0.42633 0.94842
 H1978 H 0.65169 0.41343 0.95502
 O1979 O 0.39759 0.57242 0.98187
 O1980 O 0.37366 0.59535 0.98224
 C1981 C 0.38108 0.57928 0.97508
 C1982 C 0.37074 0.56868 0.95835
 C1983 C 0.35172 0.57500 0.95157
 H1984 H 0.34432 0.58752 0.95891
 O1985 O 0.51738 0.57530 0.90137
 O1986 O 0.51707 0.59887 0.87824
 C1987 C 0.52415 0.58257 0.88512
 C1988 C 0.54080 0.57218 0.87451
 C1989 C 0.54861 0.57978 0.85644
 H1990 H 0.54213 0.59316 0.84989
 O1991 O 0.47952 0.42953 0.89957
 O1992 O 0.47985 0.40624 0.87587
 C1993 C 0.47283 0.42249 0.88305
 C1994 C 0.45640 0.43308 0.87237
 C1995 C 0.44949 0.42619 0.85357
 H1996 H 0.45687 0.41356 0.84640
 O1997 O 0.59743 0.52121 0.92805
 O1998 O 0.62090 0.52148 0.90468
 C1999 C 0.61381 0.52800 0.92125
 C2000 C 0.62448 0.54391 0.93252
 C2001 C 0.64359 0.55012 0.92645
 H2002 H 0.65070 0.54297 0.91360
 O2003 O 0.39972 0.48167 0.92717
 O2004 O 0.37616 0.48169 0.90369
 C2005 C 0.38344 0.47479 0.92002
 C2006 C 0.37311 0.45833 0.93060
 C2007 C 0.35432 0.45158 0.92382
 H2008 H 0.34721 0.45867 0.91096
 O2009 O 0.57032 0.60077 0.98242
 O2010 O 0.59363 0.62404 0.98286
 C2011 C 0.57732 0.61709 0.97581
 C2012 C 0.56670 0.62784 0.95941
 C2013 C 0.57399 0.64614 0.95236
 H2014 H 0.58688 0.65289 0.95966
 O2015 O 0.42754 0.40078 0.97985
 O2016 O 0.40427 0.37747 0.97941
 C2017 C 0.42057 0.38457 0.97272
 C2018 C 0.43128 0.37424 0.95609
 C2019 C 0.42479 0.35557 0.94884
 H2020 H 0.41236 0.34818 0.95611
 O2021 O 0.42668 0.48219 0.89921
 O2022 O 0.40326 0.48218 0.87559
 C2023 C 0.41966 0.47539 0.88270
 C2024 C 0.43042 0.45902 0.87210
 C2025 C 0.42366 0.45189 0.85328
 H2026 H 0.41071 0.45877 0.84615
 O2027 O 0.56979 0.52187 0.90043
 O2028 O 0.59318 0.52220 0.87700
 C2029 C 0.57688 0.52903 0.88427
 C2030 C 0.56648 0.54589 0.87415
 C2031 C 0.57398 0.55363 0.85609
 H2032 H 0.58676 0.54648 0.84896
 O2033 O 0.47983 0.40179 0.92668
 O2034 O 0.48021 0.37842 0.90305
 C2035 C 0.47326 0.38543 0.91946
 C2036 C 0.45707 0.37472 0.93003
 C2037 C 0.45035 0.35609 0.92293
 H2038 H 0.45732 0.34936 0.90980
 O2039 O 0.51712 0.60224 0.92952
 O2040 O 0.51675 0.62594 0.90652
 C2041 C 0.52383 0.61860 0.92272
 C2042 C 0.54051 0.62873 0.93347
 C2043 C 0.54808 0.64704 0.92657
 H2044 H 0.54131 0.65419 0.91357
 O2045 O 0.40010 0.42841 0.98000
 O2046 O 0.37670 0.40524 0.97955
 C2047 C 0.38379 0.42152 0.97290
 C2048 C 0.37326 0.43232 0.95643
 C2049 C 0.35444 0.42582 0.94942
 H2050 H 0.34719 0.41334 0.95669
 O2051 O 0.59782 0.57319 0.98225
 O2052 O 0.62124 0.59636 0.98266
 C2053 C 0.61416 0.58016 0.97555
 C2054 C 0.62471 0.56949 0.95902
 C2055 C 0.64383 0.57553 0.95269
 H2056 H 0.65133 0.58770 0.96045
 O2057 O 0.51857 0.42953 0.89942
 O2058 O 0.51892 0.40621 0.87575
 C2059 C 0.52544 0.42258 0.88294
 C2060 C 0.54146 0.43345 0.87227
 C2061 C 0.54830 0.42676 0.85339
 H2062 H 0.54152 0.41374 0.84641
 O2063 O 0.47830 0.57469 0.90155
 O2064 O 0.47788 0.59819 0.87833
 C2065 C 0.47136 0.58175 0.88518
 C2066 C 0.45527 0.57091 0.87426
 C2067 C 0.44873 0.57737 0.85522
 H2068 H 0.45572 0.59022 0.84834
 O2069 O 0.39881 0.52063 0.92755
 O2070 O 0.37531 0.52069 0.90402
 C2071 C 0.38232 0.52733 0.92059
 C2072 C 0.37143 0.54330 0.93168
 C2073 C 0.35241 0.54977 0.92516
 H2074 H 0.34529 0.54241 0.91244
 O2075 O 0.59749 0.48224 0.92731
 O2076 O 0.62080 0.48258 0.90379
 C2077 C 0.61384 0.47553 0.92007
 C2078 C 0.62467 0.45906 0.93038
 C2079 C 0.64304 0.45203 0.92279
 H2080 H 0.64970 0.45932 0.90992
 O2081 O 0.57233 0.40240 0.98071
 O2082 O 0.59588 0.37907 0.98019
 C2083 C 0.57935 0.38614 0.97362
 C2084 C 0.56837 0.37565 0.95727
 C2085 C 0.57462 0.35663 0.95065
 H2086 H 0.58712 0.34923 0.95804
 O2087 O 0.42479 0.59995 0.98232
 O2088 O 0.40098 0.62300 0.98267
 C2089 C 0.41743 0.61622 0.97571
 C2090 C 0.42789 0.62711 0.95945
 C2091 C 0.42068 0.64575 0.95285
 H2092 H 0.40791 0.65258 0.96030
 Cu2093 Cu 0.58135 0.50198 0.91609
 Cu2094 Cu 0.60941 0.50239 0.88793
 Cu2095 Cu 0.41527 0.50145 0.91583
 Cu2096 Cu 0.38709 0.50149 0.88756
 Cu2097 Cu 0.58173 0.58448 1.00196
 Cu2098 Cu 0.60968 0.61245 1.00249
 Cu2099 Cu 0.58408 0.41825 1.00031
 Cu2100 Cu 0.61248 0.39041 0.99970
 Cu2101 Cu 0.41366 0.58365 1.00174
 Cu2102 Cu 0.38503 0.61128 1.00219
 Cu2103 Cu 0.41617 0.41678 0.99965
 Cu2104 Cu 0.38813 0.38892 0.99914
 Cu2105 Cu 0.49772 0.58621 0.91782
 Cu2106 Cu 0.49718 0.61454 0.89010
 Cu2107 Cu 0.49919 0.41819 0.91564
 Cu2108 Cu 0.49963 0.39015 0.88725
 C2109 C 0.55065 0.45004 0.88137
 H2110 H 0.54560 0.45509 0.89607
 C2111 C 0.56430 0.43630 0.84373
 C2112 C 0.44582 0.55448 0.88319
 H2113 H 0.45065 0.54956 0.89800
 C2114 C 0.43285 0.56774 0.84517
 C2115 C 0.44464 0.61854 0.94985
 H2116 H 0.45011 0.60404 0.95469
 C2117 C 0.42982 0.65568 0.93671
 C2118 C 0.55203 0.38500 0.94761
 H2119 H 0.54732 0.39980 0.95243
 C2120 C 0.56478 0.34705 0.93453
 C2121 C 0.61631 0.44967 0.94724
 H2122 H 0.60199 0.45487 0.95298
 C2123 C 0.65292 0.43562 0.93158
 C2124 C 0.38038 0.55272 0.94840
 H2125 H 0.39516 0.54796 0.95335
 C2126 C 0.34244 0.56562 0.93497
 C2127 C 0.54976 0.55513 0.88314
 H2128 H 0.54408 0.54939 0.89724
 C2129 C 0.56530 0.57066 0.84719
 C2130 C 0.44690 0.44962 0.88141
 H2131 H 0.45200 0.45482 0.89605
 C2132 C 0.43310 0.43544 0.84393
 C2133 C 0.61526 0.55354 0.94895
 H2134 H 0.60041 0.54896 0.95355
 C2135 C 0.65343 0.56584 0.93647
 C2136 C 0.38237 0.44871 0.94702
 H2137 H 0.39699 0.45365 0.95216
 C2138 C 0.34485 0.43536 0.93314
 C2139 C 0.54984 0.61936 0.95001
 H2140 H 0.54433 0.60509 0.95521
 C2141 C 0.56491 0.65580 0.93589
 C2142 C 0.44757 0.38357 0.94672
 H2143 H 0.45249 0.39808 0.95206
 C2144 C 0.43423 0.34636 0.93224
 C2145 C 1.09673 1.12448 1.29737
 C2146 C 1.08857 1.11774 1.27912
 C2147 C 1.10068 1.10843 1.26456
 C2148 C 1.12129 1.10605 1.26868
 C2149 C 1.12945 1.11262 1.28697
 C2150 C 1.11740 1.12212 1.30169
 C2151 C 1.09132 1.10215 1.24515
 C2152 C 1.10007 1.08960 1.23195
 C2153 C 1.09104 1.08400 1.21227
 C2154 C 1.10390 1.07800 1.19666
 C2155 C 1.09618 1.07207 1.17798
 C2156 C 1.07535 1.07171 1.17456
 C2157 C 1.06242 1.07778 1.19017
 C2158 C 1.07017 1.08383 1.20888
 H2159 H 1.08650 1.13092 1.30827
 H2160 H 1.07264 1.11975 1.27641
 H2161 H 1.13146 1.09971 1.25770
 H2162 H 1.14552 1.11116 1.28888
 H2163 H 1.07668 1.10835 1.24166
 H2164 H 1.11473 1.08338 1.23516
 H2165 H 1.12002 1.07799 1.19889
 H2166 H 1.10657 1.06781 1.16617
 H2167 H 1.04630 1.07734 1.18809
 H2168 H 1.05975 1.08780 1.22073
 C2169 C 1.09380 0.61056 0.80487
 C2170 C 1.08617 0.60295 0.78673
 C2171 C 1.09914 0.59704 0.77114
 C2172 C 1.12000 0.59822 0.77436
 C2173 C 1.12763 0.60580 0.79251
 C2174 C 1.11462 0.61222 0.80790
 C2175 C 1.09033 0.58948 0.75198
 C2176 C 1.09996 0.59002 0.73425
 C2177 C 1.09124 0.58275 0.71495
 C2178 C 1.10435 0.57758 0.69923
 C2179 C 1.09692 0.57093 0.68066
 C2180 C 1.07614 0.56946 0.67731
 C2181 C 1.06296 0.57489 0.69293
 C2182 C 1.07040 0.58149 0.71156
 H2183 H 1.08341 0.61507 0.81658
 H2184 H 1.07006 0.60195 0.78476
 H2185 H 1.13055 0.59316 0.76306
 H2186 H 1.14373 0.60695 0.79436
 H2187 H 1.07522 0.58371 0.75264
 H2188 H 1.11504 0.59588 0.73363
 H2189 H 1.12045 0.57864 0.70134
 H2190 H 1.10744 0.56720 0.66879
 H2191 H 1.04688 0.57389 0.69078
 H2192 H 1.05975 0.58591 0.72303
 C2193 C 0.60319 1.12811 0.79627
 C2194 C 0.59363 1.12105 0.77883
 C2195 C 0.60481 1.11571 0.76170
 C2196 C 0.62584 1.11779 0.76234
 C2197 C 0.63538 1.12478 0.77979
 C2198 C 0.62417 1.13007 0.79692
 C2199 C 0.59400 1.10884 0.74331
 C2200 C 0.60272 1.09778 0.72880
 C2201 C 0.59255 1.09127 0.70995
 C2202 C 0.60460 1.08527 0.69368
 C2203 C 0.59599 1.07841 0.67575
 C2204 C 0.57504 1.07715 0.67368
 C2205 C 0.56287 1.08333 0.68983
 C2206 C 0.57151 1.09026 0.70785
 H2207 H 0.59416 1.13200 0.80928
 H2208 H 0.57743 1.11974 0.77871
 H2209 H 0.63502 1.11465 0.74929
 H2210 H 0.65152 1.12660 0.77969
 H2211 H 0.57838 1.11309 0.74191
 H2212 H 0.61827 1.09337 0.73048
 H2213 H 0.62081 1.08592 0.69483
 H2214 H 0.60577 1.07409 0.66345
 H2215 H 0.54669 1.08229 0.68873
 H2216 H 0.56165 1.09424 0.72015
 C2217 C 0.59403 0.62114 1.30191
 C2218 C 0.58526 0.61372 1.28422
 C2219 C 0.59693 0.60397 1.26962
 C2220 C 0.61749 0.60103 1.27342
 C2221 C 0.62629 0.60831 1.29113
 C2222 C 0.61482 0.61878 1.30570
 C2223 C 0.58716 0.59673 1.25084
 C2224 C 0.59698 0.59509 1.23327
 C2225 C 0.58789 0.58781 1.21413
 C2226 C 0.60082 0.58223 1.19839
 C2227 C 0.59320 0.57528 1.18002
 C2228 C 0.57239 0.57381 1.17690
 C2229 C 0.55937 0.57966 1.19249
 C2230 C 0.56700 0.58663 1.21092
 H2231 H 0.58419 0.62813 1.31283
 H2232 H 0.56929 0.61579 1.28184
 H2233 H 0.62689 0.59300 1.26281
 H2234 H 0.64234 0.60641 1.29273
 H2235 H 0.57139 0.59320 1.25168
 H2236 H 0.61267 0.59915 1.23273
 H2237 H 0.61694 0.58317 1.20033
 H2238 H 0.60362 0.57126 1.16816
 H2239 H 0.54326 0.57866 1.19051
 H2240 H 0.55641 0.59124 1.22236
 C2241 C 0.87479 0.90175 1.29617
 C2242 C 0.88246 0.91112 1.27909
 C2243 C 0.89370 0.90030 1.26493
 C2244 C 0.89799 0.88006 1.26866
 C2245 C 0.89050 0.87066 1.28580
 C2246 C 0.87841 0.88121 1.29979
 C2247 C 0.90096 0.91061 1.24665
 C2248 C 0.90354 0.90106 1.22898
 C2249 C 0.91073 0.91060 1.21018
 C2250 C 0.91643 0.89805 1.19413
 C2251 C 0.92347 0.90602 1.17611
 C2252 C 0.92497 0.92681 1.17365
 C2253 C 0.91892 0.93946 1.18951
 C2254 C 0.91185 0.93148 1.20760
 H2255 H 0.86654 0.91096 1.30678
 H2256 H 0.87934 0.92687 1.27680
 H2257 H 0.90718 0.87138 1.25838
 H2258 H 0.89350 0.85484 1.28734
 H2259 H 0.90352 0.92650 1.24789
 H2260 H 0.90028 0.88524 1.22809
 H2261 H 0.91553 0.88195 1.19555
 H2262 H 0.92762 0.89587 1.16402
 H2263 H 0.91992 0.95555 1.18802
 H2264 H 0.90722 0.94180 1.21929
 C2265 C 0.88303 0.35576 0.78153
 C2266 C 0.89186 0.36299 0.76397
 C2267 C 0.89097 0.38335 0.75917
 C2268 C 0.88099 0.39644 0.77253
 C2269 C 0.87204 0.38923 0.79011
 C2270 C 0.87296 0.36872 0.79510
 C2271 C 0.90092 0.39002 0.74031
 C2272 C 0.89869 0.40824 0.73214
 C2273 C 0.90851 0.41440 0.71309
 C2274 C 0.91114 0.43487 0.70948
 C2275 C 0.91954 0.44145 0.69144
 C2276 C 0.92537 0.42769 0.67643
 C2277 C 0.92286 0.40716 0.68003
 C2278 C 0.91446 0.40057 0.69811
 H2279 H 0.88357 0.33977 0.78386
 H2280 H 0.89930 0.35248 0.75395
 H2281 H 0.88030 0.41235 0.76989
 H2282 H 0.86528 0.40010 0.80016
 H2283 H 0.91052 0.37919 0.73286
 H2284 H 0.88954 0.41942 0.73957
 H2285 H 0.90663 0.44586 0.72069
 H2286 H 0.92146 0.45736 0.68921
 H2287 H 0.92681 0.39621 0.66860
 H2288 H 0.91210 0.38470 0.69993
 C2289 C 0.37974 0.90105 0.79681
 C2290 C 0.38747 0.91005 0.77955
 C2291 C 0.39489 0.89833 0.76358
 C2292 C 0.39520 0.87738 0.76559
 C2293 C 0.38753 0.86839 0.78287
 C2294 C 0.37950 0.88011 0.79856
 C2295 C 0.40244 0.90845 0.74529
 C2296 C 0.40241 0.89977 0.72700
 C2297 C 0.41002 0.90942 0.70848
 C2298 C 0.41558 0.89710 0.69222
 C2299 C 0.42289 0.90534 0.67443
 C2300 C 0.42466 0.92616 0.67243
 C2301 C 0.41869 0.93858 0.68850
 C2302 C 0.41143 0.93032 0.70638
 H2303 H 0.37395 0.91047 0.80881
 H2304 H 0.38734 0.92621 0.77851
 H2305 H 0.40148 0.86784 0.75396
 H2306 H 0.38751 0.85223 0.78377
 H2307 H 0.40773 0.92361 0.74709
 H2308 H 0.39686 0.88467 0.72534
 H2309 H 0.41441 0.88099 0.69332
 H2310 H 0.42700 0.89541 0.66215
 H2311 H 0.41986 0.95468 0.68732
 H2312 H 0.40672 0.94038 0.71829
 C2313 C 0.37897 0.35436 1.27909
 C2314 C 0.38692 0.36094 1.26085
 C2315 C 0.38649 0.38123 1.25579
 C2316 C 0.37735 0.39485 1.26917
 C2317 C 0.36920 0.38830 1.28739
 C2318 C 0.37000 0.36790 1.29288
 C2319 C 0.39508 0.38740 1.23618
 C2320 C 0.40244 0.40571 1.23276
 C2321 C 0.41108 0.41210 1.21319
 C2322 C 0.41310 0.43266 1.20957
 C2323 C 0.42085 0.43951 1.19133
 C2324 C 0.42690 0.42593 1.17624
 C2325 C 0.42535 0.40534 1.17999
 C2326 C 0.41760 0.39847 1.19826
 H2327 H 0.37924 0.33843 1.28182
 H2328 H 0.39350 0.35006 1.25062
 H2329 H 0.37622 0.41058 1.26557
 H2330 H 0.36300 0.39954 1.29741
 H2331 H 0.39560 0.37612 1.22444
 H2332 H 0.40199 0.41678 1.24473
 H2333 H 0.40846 0.44351 1.22086
 H2334 H 0.42218 0.45547 1.18906
 H2335 H 0.42980 0.39449 1.16865
 H2336 H 0.41697 0.38250 1.20053
 C2337 C 0.85785 1.11694 0.71780
 C2338 C 0.86447 1.10917 0.73616
 C2339 C 0.88458 1.11085 0.74204
 C2340 C 0.89794 1.12102 0.72943
 C2341 C 0.89130 1.12906 0.71112
 C2342 C 0.87113 1.12700 0.70480
 C2343 C 0.89080 1.10240 0.76169
 C2344 C 0.90934 1.09533 0.76536
 C2345 C 0.91571 1.08654 0.78491
 C2346 C 0.93633 1.08450 0.78889
 C2347 C 0.94311 1.07663 0.80720
 C2348 C 0.92939 1.07054 0.82195
 C2349 C 0.90875 1.07212 0.81781
 C2350 C 0.90196 1.07991 0.79948
 H2351 H 0.84202 1.11569 0.71437
 H2352 H 0.85380 1.10174 0.74582
 H2353 H 0.91348 1.12303 0.73375
 H2354 H 0.90232 1.13619 0.70168
 H2355 H 0.87935 1.10161 0.77315
 H2356 H 0.92053 1.09610 0.75360
 H2357 H 0.94726 1.08921 0.77787
 H2358 H 0.95912 1.07527 0.80978
 H2359 H 0.89779 1.06767 0.82890
 H2360 H 0.88595 1.08049 0.79692
 C2361 C 0.85512 0.61902 0.22028
 C2362 C 0.86210 0.60990 0.23790
 C2363 C 0.88274 0.60729 0.24133
 C2364 C 0.89632 0.61358 0.22645
 C2365 C 0.88932 0.62271 0.20882
 C2366 C 0.86865 0.62561 0.20558
 C2367 C 0.88933 0.59770 0.26040
 C2368 C 0.90767 0.60003 0.26851
 C2369 C 0.91400 0.59109 0.28799
 C2370 C 0.93460 0.58880 0.29194
 C2371 C 0.94131 0.58109 0.31034
 C2372 C 0.92755 0.57563 0.32530
 C2373 C 0.90692 0.57793 0.32140
 C2374 C 0.90020 0.58564 0.30299
 H2375 H 0.83911 0.62122 0.21833
 H2376 H 0.85131 0.60511 0.24903
 H2377 H 0.91230 0.61121 0.22811
 H2378 H 0.90008 0.62724 0.19756
 H2379 H 0.87832 0.58882 0.26818
 H2380 H 0.91872 0.60888 0.26073
 H2381 H 0.94556 0.59297 0.28072
 H2382 H 0.95730 0.57934 0.31285
 H2383 H 0.89597 0.57427 0.33281
 H2384 H 0.88423 0.58782 0.30093
 C2385 C 0.38830 1.14316 0.21495
 C2386 C 0.39631 1.13660 0.23329
 C2387 C 0.39520 1.11645 0.23883
 C2388 C 0.38578 1.10291 0.22562
 C2389 C 0.37766 1.10943 0.20731
 C2390 C 0.37858 1.12975 0.20160
 C2391 C 0.40305 1.11045 0.25888
 C2392 C 0.40894 1.09173 0.26334
 C2393 C 0.41621 1.08539 0.28357
 C2394 C 0.41717 1.06484 0.28778
 C2395 C 0.42372 1.05806 0.30663
 C2396 C 0.42956 1.07171 0.32170
 C2397 C 0.42882 1.09227 0.31745
 C2398 C 0.42234 1.09905 0.29860
 H2399 H 0.38891 1.15902 0.21194
 H2400 H 0.40324 1.14741 0.24332
 H2401 H 0.38419 1.08731 0.22949
 H2402 H 0.37112 1.09823 0.19751
 H2403 H 0.40393 1.12212 0.27018
 H2404 H 0.40820 1.08027 0.25178
 H2405 H 0.41273 1.05395 0.27648
 H2406 H 0.42442 1.04212 0.30931
 H2407 H 0.43305 1.10319 0.32879
 H2408 H 0.42244 1.11498 0.29601
 C2409 C 0.35504 0.61994 0.71960
 C2410 C 0.36172 0.61071 0.73727
 C2411 C 0.38230 0.60807 0.74104
 C2412 C 0.39613 0.61456 0.72649
 C2413 C 0.38943 0.62381 0.70880
 C2414 C 0.36881 0.62662 0.70517
 C2415 C 0.38854 0.59817 0.76007
 C2416 C 0.40678 0.60022 0.76848
 C2417 C 0.41283 0.59091 0.78788
 C2418 C 0.43338 0.58881 0.79216
 C2419 C 0.43986 0.58094 0.81057
 C2420 C 0.42592 0.57510 0.82521
 C2421 C 0.40534 0.57707 0.82092
 C2422 C 0.39883 0.58497 0.80251
 H2423 H 0.33906 0.62207 0.71735
 H2424 H 0.35074 0.60579 0.74815
 H2425 H 0.41209 0.61221 0.72840
 H2426 H 0.40037 0.62843 0.69776
 H2427 H 0.37735 0.58924 0.76753
 H2428 H 0.41798 0.60915 0.76101
 H2429 H 0.44449 0.59333 0.78123
 H2430 H 0.45583 0.57943 0.81336
 H2431 H 0.39425 0.57308 0.83207
 H2432 H 0.38288 0.58692 0.80018
 C2433 C 1.10263 0.87012 0.70328
 C2434 C 1.09355 0.87663 0.72116
 C2435 C 1.10525 0.88277 0.73771
 C2436 C 1.12632 0.88184 0.73614
 C2437 C 1.13536 0.87543 0.71826
 C2438 C 1.12364 0.86957 0.70163
 C2439 C 1.09500 0.88946 0.75644
 C2440 C 1.10377 0.90115 0.77040
 C2441 C 1.09403 0.90767 0.78942
 C2442 C 1.10638 0.91369 0.80550
 C2443 C 1.09809 0.92054 0.82356
 C2444 C 1.07717 0.92178 0.82592
 C2445 C 1.06472 0.91567 0.80988
 C2446 C 1.07305 0.90873 0.79177
 H2447 H 1.09322 0.86573 0.69067
 H2448 H 1.07732 0.87701 0.72201
 H2449 H 1.13596 0.88558 0.74874
 H2450 H 1.15159 0.87466 0.71759
 H2451 H 1.07969 0.88463 0.75855
 H2452 H 1.11901 0.90610 0.76816
 H2453 H 1.12257 0.91304 0.80411
 H2454 H 1.10809 0.92481 0.83574
 H2455 H 1.04855 0.91673 0.81116
 H2456 H 1.06299 0.90477 0.77956
 C2457 C 1.14295 0.37489 0.22214
 C2458 C 1.13578 0.38228 0.24050
 C2459 C 1.11510 0.38410 0.24394
 C2460 C 1.10163 0.37772 0.22881
 C2461 C 1.10882 0.37018 0.21045
 C2462 C 1.12956 0.36891 0.20686
 C2463 C 1.10834 0.39230 0.26362
 C2464 C 1.09055 0.40140 0.26639
 C2465 C 1.08413 0.41002 0.28603
 C2466 C 1.06353 0.41257 0.28967
 C2467 C 1.05680 0.42045 0.30803
 C2468 C 1.07055 0.42615 0.32311
 C2469 C 1.09118 0.42408 0.31929
 C2470 C 1.09792 0.41618 0.30095
 H2471 H 1.15901 0.37374 0.21992
 H2472 H 1.14647 0.38683 0.25198
 H2473 H 1.08558 0.37828 0.23111
 H2474 H 1.09818 0.36564 0.19893
 H2475 H 1.11882 0.39114 0.27607
 H2476 H 1.08005 0.40250 0.25395
 H2477 H 1.05259 0.40823 0.27835
 H2478 H 1.04081 0.42217 0.31039
 H2479 H 1.10215 0.42827 0.33064
 H2480 H 1.11393 0.41518 0.29853
 C2481 C 0.64751 0.88304 0.21883
 C2482 C 0.64087 0.89116 0.23708
 C2483 C 0.62092 0.88897 0.24317
 C2484 C 0.60771 0.87812 0.23074
 C2485 C 0.61434 0.86982 0.21252
 C2486 C 0.63440 0.87212 0.20612
 C2487 C 0.61478 0.89742 0.26293
 C2488 C 0.59589 0.90309 0.26714
 C2489 C 0.58939 0.91140 0.28693
 C2490 C 0.56873 0.91278 0.29086
 C2491 C 0.56176 0.92023 0.30930
 C2492 C 0.57532 0.92656 0.32429
 C2493 C 0.59599 0.92549 0.32029
 C2494 C 0.60297 0.91812 0.30183
 H2495 H 0.66325 0.88464 0.21533
 H2496 H 0.65145 0.89915 0.24657
 H2497 H 0.59231 0.87568 0.23515
 H2498 H 0.60337 0.86216 0.20327
 H2499 H 0.62653 0.89920 0.27405
 H2500 H 0.58443 0.90149 0.25563
 H2501 H 0.55789 0.90793 0.27965
 H2502 H 0.54573 0.92116 0.31177
 H2503 H 0.60685 0.93011 0.33158
 H2504 H 0.61899 0.91792 0.29945
 C2505 C 0.64672 0.38030 0.72321
 C2506 C 0.63916 0.39009 0.74023
 C2507 C 0.61840 0.39231 0.74300
 C2508 C 0.60529 0.38467 0.72813
 C2509 C 0.61288 0.37486 0.71106
 C2510 C 0.63369 0.37262 0.70840
 C2511 C 0.61130 0.40301 0.76133
 C2512 C 0.59278 0.40119 0.76896
 C2513 C 0.58609 0.41127 0.78781
 C2514 C 0.56542 0.41358 0.79117
 C2515 C 0.55835 0.42211 0.80909
 C2516 C 0.57183 0.42843 0.82416
 C2517 C 0.59253 0.42629 0.82079
 C2518 C 0.59961 0.41772 0.80288
 H2519 H 0.66282 0.37859 0.72173
 H2520 H 0.64961 0.39584 0.75139
 H2521 H 0.58922 0.38658 0.72930
 H2522 H 0.60249 0.36940 0.69973
 H2523 H 0.62211 0.41242 0.76897
 H2524 H 0.58190 0.39190 0.76130
 H2525 H 0.55467 0.40867 0.77990
 H2526 H 0.54231 0.42372 0.81120
 H2527 H 0.60325 0.43062 0.83231
 H2528 H 0.61562 0.41562 0.80130
 C2529 C 1.29688 1.10030 1.12365
 C2530 C 1.27915 1.09109 1.11727
 C2531 C 1.26230 1.10259 1.11181
 C2532 C 1.26350 1.12359 1.11315
 C2533 C 1.28125 1.13278 1.11943
 C2534 C 1.29811 1.12125 1.12478
 C2535 C 1.24365 1.09216 1.10555
 C2536 C 1.22912 1.10090 1.09456
 C2537 C 1.21012 1.09102 1.08856
 C2538 C 1.19384 1.10323 1.08305
 C2539 C 1.17581 1.09487 1.07652
 C2540 C 1.17367 1.07401 1.07511
 C2541 C 1.18985 1.06169 1.08085
 C2542 C 1.20796 1.07009 1.08745
 H2543 H 1.30968 1.09104 1.12762
 H2544 H 1.27861 1.07491 1.11653
 H2545 H 1.25070 1.13307 1.10992
 H2546 H 1.28160 1.14893 1.12065
 H2547 H 1.24206 1.07676 1.11016
 H2548 H 1.23087 1.11622 1.08981
 H2549 H 1.19506 1.11938 1.08378
 H2550 H 1.16351 1.10476 1.07254
 H2551 H 1.18870 1.04558 1.07967
 H2552 H 1.22028 1.06013 1.09105
 C2553 C 1.27983 0.64500 0.61389
 C2554 C 1.26226 0.63748 0.60520
 C2555 C 1.25926 0.61677 0.60340
 C2556 C 1.27463 0.60370 0.60983
 C2557 C 1.29220 0.61123 0.61851
 C2558 C 1.29491 0.63194 0.62085
 C2559 C 1.24009 0.60955 0.59459
 C2560 C 1.23253 0.59132 0.59808
 C2561 C 1.21298 0.58438 0.58991
 C2562 C 1.20946 0.56373 0.58847
 C2563 C 1.19113 0.55652 0.58119
 C2564 C 1.17583 0.56985 0.57532
 C2565 C 1.17922 0.59051 0.57704
 C2566 C 1.19753 0.59772 0.58430
 H2567 H 1.28140 0.66102 0.61561
 H2568 H 1.25076 0.64788 0.60022
 H2569 H 1.27332 0.58768 0.60800
 H2570 H 1.30377 0.60081 0.62329
 H2571 H 1.23176 0.62000 0.58533
 H2572 H 1.24086 0.58084 0.60731
 H2573 H 1.22102 0.55312 0.59285
 H2574 H 1.18901 0.54052 0.57994
 H2575 H 1.16753 0.60115 0.57313
 H2576 H 1.19925 0.61371 0.58592
 C2577 C 0.79605 1.10292 0.62245
 C2578 C 0.77895 1.09392 0.61435
 C2579 C 0.76438 1.10534 0.60437
 C2580 C 0.76775 1.12588 0.60161
 C2581 C 0.78503 1.13491 0.60946
 C2582 C 0.79930 1.12370 0.62055
 C2583 C 0.74600 1.09527 0.59695
 C2584 C 0.72810 1.10450 0.59600
 C2585 C 0.70923 1.09468 0.58936
 C2586 C 0.69292 1.10691 0.58392
 C2587 C 0.67486 1.09855 0.57740
 C2588 C 0.67261 1.07769 0.57622
 C2589 C 0.68869 1.06537 0.58220
 C2590 C 0.70682 1.07374 0.58873
 H2591 H 0.80694 1.09329 0.62976
 H2592 H 0.77694 1.07797 0.61624
 H2593 H 0.75708 1.13503 0.59341
 H2594 H 0.78648 1.15091 0.60767
 H2595 H 0.74734 1.07960 0.59308
 H2596 H 0.72707 1.12014 0.60024
 H2597 H 0.69420 1.12305 0.58454
 H2598 H 0.66260 1.10845 0.57331
 H2599 H 0.68737 1.04925 0.58147
 H2600 H 0.71870 1.06370 0.59339
 C2601 C 0.77823 0.64652 1.11614
 C2602 C 0.76052 0.63950 1.10729
 C2603 C 0.75721 0.61890 1.10497
 C2604 C 0.77234 0.60543 1.11112
 C2605 C 0.79005 0.61246 1.11996
 C2606 C 0.79313 0.63307 1.12272
 C2607 C 0.73798 0.61221 1.09587
 C2608 C 0.73014 0.59402 1.09885
 C2609 C 0.71056 0.58752 1.09038
 C2610 C 0.70675 0.56695 1.08871
 C2611 C 0.68832 0.56009 1.08137
 C2612 C 0.67320 0.57369 1.07565
 C2613 C 0.67694 0.59429 1.07742
 C2614 C 0.69536 0.60115 1.08477
 H2615 H 0.78008 0.66248 1.11820
 H2616 H 0.74920 0.65021 1.10256
 H2617 H 0.77079 0.58948 1.10890
 H2618 H 0.80146 0.60176 1.12446
 H2619 H 0.72988 0.62302 1.08683
 H2620 H 0.73825 0.58323 1.10789
 H2621 H 0.71811 0.55612 1.09305
 H2622 H 0.68595 0.54413 1.08003
 H2623 H 0.66541 0.60512 1.07358
 H2624 H 0.69733 0.61711 1.08650
 C2625 C 1.28193 0.88236 0.85722
 C2626 C 1.26318 0.88907 0.86377
 C2627 C 1.25732 0.88666 0.88385
 C2628 C 1.27043 0.87686 0.89725
 C2629 C 1.28916 0.86991 0.89069
 C2630 C 1.29541 0.87265 0.87054
 C2631 C 1.23722 0.89400 0.88996
 C2632 C 1.23283 0.90000 0.90880
 C2633 C 1.21287 0.90790 0.91499
 C2634 C 1.20846 0.90903 0.93567
 C2635 C 1.18993 0.91639 0.94229
 C2636 C 1.17537 0.92289 0.92835
 C2637 C 1.17983 0.92201 0.90767
 C2638 C 1.19837 0.91472 0.90105
 H2639 H 1.28532 0.88410 0.84139
 H2640 H 1.25319 0.89626 0.85305
 H2641 H 1.26621 0.87427 0.91275
 H2642 H 1.29892 0.86305 0.90179
 H2643 H 1.22600 0.89491 0.87818
 H2644 H 1.24432 0.89915 0.92036
 H2645 H 1.21938 0.90412 0.94677
 H2646 H 1.18709 0.91719 0.95835
 H2647 H 1.16889 0.92676 0.89654
 H2648 H 1.20119 0.91477 0.88502
 C2649 C 1.29470 0.37704 0.39784
 C2650 C 1.27762 0.38530 0.40683
 C2651 C 1.26268 0.39437 0.39508
 C2652 C 1.26568 0.39609 0.37419
 C2653 C 1.28289 0.38804 0.36515
 C2654 C 1.29753 0.37784 0.37673
 C2655 C 1.24431 0.40193 0.40517
 C2656 C 1.22631 0.40239 0.39602
 C2657 C 1.20751 0.40926 0.40588
 C2658 C 1.19121 0.41459 0.39352
 C2659 C 1.17319 0.42125 0.40193
 C2660 C 1.17096 0.42264 0.42297
 C2661 C 1.18704 0.41680 0.43542
 C2662 C 1.20514 0.41015 0.42700
 H2663 H 1.30586 0.37046 0.40772
 H2664 H 1.27590 0.38423 0.42303
 H2665 H 1.25475 0.40360 0.36473
 H2666 H 1.28398 0.38896 0.34891
 H2667 H 1.24573 0.40640 0.42081
 H2668 H 1.22515 0.39761 0.38042
 H2669 H 1.19247 0.41377 0.37725
 H2670 H 1.16092 0.42525 0.39194
 H2671 H 1.18574 0.41769 0.45169
 H2672 H 1.21704 0.40557 0.43713
 C2673 C 0.77988 0.87730 0.35840
 C2674 C 0.76135 0.88440 0.36521
 C2675 C 0.75755 0.88638 0.38592
 C2676 C 0.77251 0.88047 0.39978
 C2677 C 0.79104 0.87323 0.39295
 C2678 C 0.79499 0.87179 0.37218
 C2679 C 0.73770 0.89427 0.39229
 C2680 C 0.73445 0.90346 0.41003
 C2681 C 0.71464 0.91176 0.41607
 C2682 C 0.71060 0.91437 0.43668
 C2683 C 0.69209 0.92199 0.44306
 C2684 C 0.67725 0.92736 0.42893
 C2685 C 0.68145 0.92522 0.40828
 C2686 C 0.69994 0.91758 0.40189
 H2687 H 0.78237 0.87601 0.34231
 H2688 H 0.75002 0.88859 0.35423
 H2689 H 0.76994 0.88115 0.41587
 H2690 H 0.80241 0.86905 0.40389
 H2691 H 0.72552 0.89279 0.38155
 H2692 H 0.74661 0.90488 0.42080
 H2693 H 0.72174 0.91029 0.44791
 H2694 H 0.68942 0.92378 0.45908
 H2695 H 0.67030 0.92917 0.39702
 H2696 H 0.70266 0.91651 0.38585
 C2697 C 0.79457 0.37787 0.89700
 C2698 C 0.77715 0.38553 0.90586
 C2699 C 0.76072 0.39144 0.89393
 C2700 C 0.76222 0.38968 0.87278
 C2701 C 0.77971 0.38204 0.86391
 C2702 C 0.79596 0.37581 0.87594
 C2703 C 0.74211 0.39829 0.90425
 C2704 C 0.72744 0.40879 0.89519
 C2705 C 0.70849 0.41500 0.90525
 C2706 C 0.69207 0.42030 0.89304
 C2707 C 0.67400 0.42664 0.90161
 C2708 C 0.67193 0.42802 0.92266
 C2709 C 0.68829 0.42263 0.93497
 C2710 C 0.70643 0.41628 0.92639
 H2711 H 0.80693 0.37337 0.90665
 H2712 H 0.77643 0.38668 0.92215
 H2713 H 0.74979 0.39345 0.86296
 H2714 H 0.78022 0.38029 0.84767
 H2715 H 0.74061 0.39426 0.91994
 H2716 H 0.72898 0.41286 0.87952
 H2717 H 0.69319 0.41948 0.87675
 H2718 H 0.66158 0.43042 0.89172
 H2719 H 0.68722 0.42384 0.95123
 H2720 H 0.71882 0.41292 0.93640
 C2721 C 0.70810 0.87201 1.10078
 C2722 C 0.72523 0.87954 1.09145
 C2723 C 0.74164 0.88609 1.10302
 C2724 C 0.74072 0.88458 1.12418
 C2725 C 0.72359 0.87711 1.13349
 C2726 C 0.70710 0.87077 1.12191
 C2727 C 0.75967 0.89364 1.09252
 C2728 C 0.77301 0.90586 1.10133
 C2729 C 0.79156 0.91292 1.09149
 C2730 C 0.80741 0.91935 1.10386
 C2731 C 0.82514 0.92639 1.09546
 C2732 C 0.82738 0.92741 1.07442
 C2733 C 0.81153 0.92101 1.06196
 C2734 C 0.79374 0.91388 1.07038
 H2735 H 0.69558 0.86729 1.09148
 H2736 H 0.72561 0.88037 1.07514
 H2737 H 0.75331 0.88862 1.13367
 H2738 H 0.72344 0.87585 1.14977
 H2739 H 0.76181 0.88889 1.07704
 H2740 H 0.77066 0.91072 1.11674
 H2741 H 0.80612 0.91877 1.12014
 H2742 H 0.83720 0.93089 1.10548
 H2743 H 0.81272 0.92192 1.04570
 H2744 H 0.78168 0.90963 1.06031
 C2745 C 0.72532 0.35355 0.61955
 C2746 C 0.74307 0.36094 0.61140
 C2747 C 0.74738 0.38139 0.61223
 C2748 C 0.73364 0.39439 0.62165
 C2749 C 0.71593 0.38704 0.62995
 C2750 C 0.71137 0.36642 0.62913
 C2751 C 0.76671 0.38834 0.60392
 C2752 C 0.76977 0.40704 0.59738
 C2753 C 0.78918 0.41408 0.58921
 C2754 C 0.79267 0.43475 0.58835
 C2755 C 0.81076 0.44210 0.58088
 C2756 C 0.82576 0.42891 0.57399
 C2757 C 0.82219 0.40823 0.57460
 C2758 C 0.80410 0.40089 0.58198
 H2759 H 0.72323 0.33753 0.61911
 H2760 H 0.75356 0.35055 0.60450
 H2761 H 0.73661 0.41022 0.62303
 H2762 H 0.70562 0.39782 0.63644
 H2763 H 0.77865 0.37736 0.60309
 H2764 H 0.75768 0.41789 0.59819
 H2765 H 0.78138 0.44527 0.59359
 H2766 H 0.81293 0.45813 0.58032
 H2767 H 0.83350 0.39766 0.56956
 H2768 H 0.80193 0.38489 0.58169
 C2769 C 0.21651 0.89082 0.63908
 C2770 C 0.23367 0.90044 0.63208
 C2771 C 0.24004 0.89783 0.61216
 C2772 C 0.22852 0.88592 0.59907
 C2773 C 0.21124 0.87642 0.60594
 C2774 C 0.20487 0.87847 0.62620
 C2775 C 0.25857 0.90789 0.60543
 C2776 C 0.27072 0.89994 0.59142
 C2777 C 0.28984 0.90920 0.58521
 C2778 C 0.30526 0.89676 0.57802
 C2779 C 0.32338 0.90482 0.57156
 C2780 C 0.32640 0.92563 0.57176
 C2781 C 0.31093 0.93814 0.57896
 C2782 C 0.29282 0.93002 0.58564
 H2783 H 0.21312 0.89255 0.65492
 H2784 H 0.24232 0.90956 0.64247
 H2785 H 0.23260 0.88422 0.58336
 H2786 H 0.20259 0.86812 0.59493
 H2787 H 0.26300 0.92141 0.61330
 H2788 H 0.26725 0.88538 0.58511
 H2789 H 0.30333 0.88068 0.57754
 H2790 H 0.33509 0.89470 0.56651
 H2791 H 0.31263 0.95423 0.57901
 H2792 H 0.28105 0.94009 0.59059
 C2793 C 0.20599 0.39813 1.12700
 C2794 C 0.22283 0.40757 1.11905
 C2795 C 0.23703 0.39673 1.10791
 C2796 C 0.23365 0.37634 1.10410
 C2797 C 0.21679 0.36686 1.11192
 C2798 C 0.20268 0.37747 1.12380
 C2799 C 0.25497 0.40716 1.10022
 C2800 C 0.27263 0.39781 1.09739
 C2801 C 0.29102 0.40755 1.08972
 C2802 C 0.30689 0.39520 1.08331
 C2803 C 0.32461 0.40342 1.07600
 C2804 C 0.32694 0.42425 1.07498
 C2805 C 0.31122 0.43669 1.08165
 C2806 C 0.29344 0.42846 1.08898
 H2807 H 0.19532 0.40736 1.13510
 H2808 H 0.22487 0.42342 1.12181
 H2809 H 0.24395 0.36759 1.09502
 H2810 H 0.21552 0.35095 1.10927
 H2811 H 0.25348 0.42301 1.09744
 H2812 H 0.27382 0.38203 1.10078
 H2813 H 0.30557 0.37907 1.08389
 H2814 H 0.33660 0.39343 1.07136
 H2815 H 0.31260 0.45280 1.08102
 H2816 H 0.28189 0.43861 1.09420
 C2817 C 0.72533 1.14529 0.87614
 C2818 C 0.74377 1.13803 0.88301
 C2819 C 0.74828 1.11760 0.88202
 C2820 C 0.73425 1.10454 0.87322
 C2821 C 0.71584 1.11182 0.86603
 C2822 C 0.71083 1.13233 0.86770
 C2823 C 0.76788 1.11069 0.88998
 C2824 C 0.77077 1.09258 0.89812
 C2825 C 0.79016 1.08599 0.90706
 C2826 C 0.79384 1.06542 0.90919
 C2827 C 0.81196 1.05853 0.91735
 C2828 C 0.82678 1.07209 0.92369
 C2829 C 0.82290 1.09268 0.92205
 C2830 C 0.80478 1.09958 0.91394
 H2831 H 0.72289 1.16129 0.87688
 H2832 H 0.75452 1.14845 0.88933
 H2833 H 0.73749 1.08872 0.87173
 H2834 H 0.70527 1.10108 0.86002
 H2835 H 0.77999 1.12136 0.88975
 H2836 H 0.75852 1.08202 0.89827
 H2837 H 0.78274 1.05463 0.90433
 H2838 H 0.81435 1.04256 0.91875
 H2839 H 0.83404 1.10351 0.92672
 H2840 H 0.80233 1.11556 0.91333
 C2841 C 0.70071 0.59778 0.38157
 C2842 C 0.71904 0.58966 0.38797
 C2843 C 0.73511 0.60213 0.39328
 C2844 C 0.73250 0.62301 0.39185
 C2845 C 0.71416 0.63111 0.38548
 C2846 C 0.69808 0.61859 0.38021
 C2847 C 0.75445 0.59276 0.39943
 C2848 C 0.76856 0.60228 0.41029
 C2849 C 0.78811 0.59322 0.41618
 C2850 C 0.80381 0.60604 0.42175
 C2851 C 0.82241 0.59837 0.42779
 C2852 C 0.82573 0.57761 0.42858
 C2853 C 0.81005 0.56471 0.42303
 C2854 C 0.79141 0.57240 0.41697
 H2855 H 0.68856 0.58775 0.37777
 H2856 H 0.72064 0.57356 0.38882
 H2857 H 0.74465 0.63319 0.39505
 H2858 H 0.71272 0.64719 0.38414
 H2859 H 0.75689 0.57741 0.39482
 H2860 H 0.76600 0.61760 0.41497
 H2861 H 0.80171 0.62212 0.42133
 H2862 H 0.83426 0.60871 0.43171
 H2863 H 0.81207 0.54865 0.42383
 H2864 H 0.77959 0.56193 0.41343
 C2865 C 0.20156 1.09821 0.37563
 C2866 C 0.21937 1.08950 0.38262
 C2867 C 0.23381 1.10098 0.39269
 C2868 C 0.22972 1.12133 0.39636
 C2869 C 0.21181 1.13007 0.38955
 C2870 C 0.19742 1.11877 0.37874
 C2871 C 0.25262 1.09111 0.39957
 C2872 C 0.27009 1.10084 0.40158
 C2873 C 0.28924 1.09144 0.40837
 C2874 C 0.30505 1.10406 0.41412
 C2875 C 0.32333 1.09617 0.42082
 C2876 C 0.32635 1.07538 0.42189
 C2877 C 0.31074 1.06267 0.41571
 C2878 C 0.29239 1.07057 0.40899
 H2879 H 0.19079 1.08844 0.36840
 H2880 H 0.22195 1.07368 0.37999
 H2881 H 0.24023 1.13057 0.40462
 H2882 H 0.20985 1.14595 0.39210
 H2883 H 0.25190 1.07524 0.40244
 H2884 H 0.27052 1.11666 0.39822
 H2885 H 0.30321 1.12016 0.41358
 H2886 H 0.33519 1.10638 0.42507
 H2887 H 0.31261 1.04659 0.41638
 H2888 H 0.28093 1.06020 0.40422
 C2889 C 0.19658 0.61744 0.90938
 C2890 C 0.21462 0.61044 0.91765
 C2891 C 0.22883 0.60064 0.90558
 C2892 C 0.22429 0.59722 0.88514
 C2893 C 0.20623 0.60407 0.87683
 C2894 C 0.19203 0.61459 0.88870
 C2895 C 0.24797 0.59386 0.91485
 C2896 C 0.26511 0.59220 0.90439
 C2897 C 0.28464 0.58550 0.91300
 C2898 C 0.30017 0.58060 0.89956
 C2899 C 0.31887 0.57422 0.90669
 C2900 C 0.32257 0.57264 0.92750
 C2901 C 0.30718 0.57779 0.94102
 C2902 C 0.28842 0.58418 0.93389
 H2903 H 0.18601 0.62449 0.91955
 H2904 H 0.21756 0.61288 0.93357
 H2905 H 0.23460 0.58916 0.87545
 H2906 H 0.20402 0.60180 0.86082
 H2907 H 0.24776 0.59076 0.93082
 H2908 H 0.26499 0.59590 0.88851
 H2909 H 0.29780 0.58165 0.88341
 H2910 H 0.33053 0.57074 0.89587
 H2911 H 0.30957 0.57665 0.95715
 H2912 H 0.27717 0.58821 0.94489
 C2913 C 1.14432 1.27921 1.11555
 C2914 C 1.13738 1.26157 1.10664
 C2915 C 1.11676 1.25757 1.10546
 C2916 C 1.10313 1.27184 1.11322
 C2917 C 1.11010 1.28951 1.12217
 C2918 C 1.13076 1.29339 1.12341
 C2919 C 1.11030 1.23860 1.09570
 C2920 C 1.09217 1.23036 1.09822
 C2921 C 1.08607 1.21109 1.08887
 C2922 C 1.06552 1.20707 1.08673
 C2923 C 1.05902 1.18882 1.07878
 C2924 C 1.07295 1.17404 1.07294
 C2925 C 1.09354 1.17804 1.07498
 C2926 C 1.10006 1.19632 1.08293
 H2927 H 1.16035 1.28166 1.11648
 H2928 H 1.14822 1.25091 1.10076
 H2929 H 1.08710 1.26976 1.11209
 H2930 H 1.09929 1.30033 1.12777
 H2931 H 1.12125 1.23105 1.08631
 H2932 H 1.08109 1.23788 1.10746
 H2933 H 1.05443 1.21811 1.09125
 H2934 H 1.04306 1.18625 1.07722
 H2935 H 1.10462 1.16679 1.07101
 H2936 H 1.11601 1.19846 1.08494
 C2937 C 1.14657 0.77968 0.61261
 C2938 C 1.13990 0.76171 0.60410
 C2939 C 1.11931 0.75793 0.60187
 C2940 C 1.10547 0.77287 0.60765
 C2941 C 1.11214 0.79083 0.61615
 C2942 C 1.13274 0.79435 0.61893
 C2943 C 1.11296 0.73840 0.59328
 C2944 C 1.09492 0.73028 0.59670
 C2945 C 1.08863 0.71048 0.58875
 C2946 C 1.06804 0.70627 0.58760
 C2947 C 1.06136 0.68766 0.58074
 C2948 C 1.07516 0.67273 0.57500
 C2949 C 1.09579 0.67686 0.57626
 C2950 C 1.10248 0.69549 0.58311
 H2951 H 1.16253 0.78189 0.61467
 H2952 H 1.15089 0.75054 0.59962
 H2953 H 1.08951 0.77095 0.60544
 H2954 H 1.10115 0.80206 0.62043
 H2955 H 1.12388 0.73034 0.58431
 H2956 H 1.08405 0.73836 0.60574
 H2957 H 1.05705 0.71748 0.59196
 H2958 H 1.04537 0.68500 0.57977
 H2959 H 1.10680 0.66551 0.57237
 H2960 H 1.11848 0.69779 0.58443
 C2961 C 0.64649 1.27206 0.62920
 C2962 C 0.63878 1.25420 0.62150
 C2963 C 0.61807 1.25190 0.61846
 C2964 C 0.60509 1.26773 0.62391
 C2965 C 0.61282 1.28560 0.63172
 C2966 C 0.63362 1.28802 0.63424
 C2967 C 0.61079 1.23268 0.60996
 C2968 C 0.59316 1.23055 0.60033
 C2969 C 0.58637 1.21132 0.59143
 C2970 C 0.56573 1.20818 0.58871
 C2971 C 0.55868 1.19023 0.58050
 C2972 C 0.57218 1.17507 0.57461
 C2973 C 0.59288 1.17838 0.57688
 C2974 C 0.59992 1.19631 0.58513
 H2975 H 0.66255 1.27335 0.63132
 H2976 H 0.64910 1.24218 0.61768
 H2977 H 0.58899 1.26637 0.62243
 H2978 H 0.60255 1.29766 0.63550
 H2979 H 0.62075 1.21992 0.61139
 H2980 H 0.58307 1.24321 0.59898
 H2981 H 0.55498 1.21959 0.59316
 H2982 H 0.54266 1.18824 0.57864
 H2983 H 0.60365 1.16696 0.57256
 H2984 H 0.61597 1.19837 0.58628
 C2985 C 0.64394 0.77508 1.12404
 C2986 C 0.63639 0.75685 1.11715
 C2987 C 0.61562 0.75377 1.11573
 C2988 C 0.60248 0.76920 1.12187
 C2989 C 0.61007 0.78744 1.12888
 C2990 C 0.63087 0.79059 1.12989
 C2991 C 0.60847 0.73415 1.10825
 C2992 C 0.59046 0.73134 1.09959
 C2993 C 0.58379 0.71172 1.09154
 C2994 C 0.56314 0.70812 1.08956
 C2995 C 0.55624 0.68982 1.08204
 C2996 C 0.56988 0.67480 1.07615
 C2997 C 0.59055 0.67853 1.07779
 C2998 C 0.59745 0.69680 1.08529
 H2999 H 0.66005 0.77696 1.12502
 H3000 H 0.64682 0.74514 1.11275
 H3001 H 0.58639 0.76722 1.12159
 H3002 H 0.59967 0.79915 1.13334
 H3003 H 0.61884 0.72171 1.10958
 H3004 H 0.58002 0.74373 1.09836
 H3005 H 0.55231 0.71945 1.09400
 H3006 H 0.54022 0.68750 1.08065
 H3007 H 0.60144 0.66722 1.07348
 H3008 H 0.61348 0.69918 1.08584
 C3009 C 0.85651 1.27778 0.88282
 C3010 C 0.86371 1.26012 0.89144
 C3011 C 0.88440 1.25634 0.89285
 C3012 C 0.89783 1.27086 0.88574
 C3013 C 0.89061 1.28854 0.87711
 C3014 C 0.86988 1.29219 0.87554
 C3015 C 0.89117 1.23734 0.90220
 C3016 C 0.90934 1.22910 0.89919
 C3017 C 0.91574 1.20978 0.90813
 C3018 C 0.93634 1.20576 0.91014
 C3019 C 0.94308 1.18754 0.91795
 C3020 C 0.92931 1.17284 0.92377
 C3021 C 0.90868 1.17680 0.92169
 C3022 C 0.90194 1.19502 0.91388
 H3023 H 0.84044 1.28006 0.88163
 H3024 H 0.85303 1.24926 0.89685
 H3025 H 0.91389 1.26891 0.88715
 H3026 H 0.90127 1.29956 0.87199
 H3027 H 0.88044 1.22977 0.91162
 H3028 H 0.92017 1.23666 0.88989
 H3029 H 0.94729 1.21680 0.90571
 H3030 H 0.95907 1.18497 0.91951
 H3031 H 0.89773 1.16558 0.92561
 H3032 H 0.88596 1.19716 0.91188
 C3033 C 0.90069 0.79707 0.37649
 C3034 C 0.90964 0.77946 0.38358
 C3035 C 0.89793 0.76273 0.38818
 C3036 C 0.87700 0.76391 0.38525
 C3037 C 0.86806 0.78151 0.37818
 C3038 C 0.87980 0.79829 0.37369
 C3039 C 0.90815 0.74422 0.39523
 C3040 C 0.89892 0.73002 0.40595
 C3041 C 0.90866 0.71118 0.41282
 C3042 C 0.89628 0.69541 0.41883
 C3043 C 0.90453 0.67748 0.42578
 C3044 C 0.92544 0.67488 0.42706
 C3045 C 0.93791 0.69060 0.42103
 C3046 C 0.92965 0.70861 0.41406
 H3047 H 0.91013 0.80978 0.37331
 H3048 H 0.92578 0.77895 0.38556
 H3049 H 0.86745 0.75117 0.38784
 H3050 H 0.85198 0.78183 0.37572
 H3051 H 0.92384 0.74253 0.39148
 H3052 H 0.88328 0.73199 0.40983
 H3053 H 0.88009 0.69694 0.41806
 H3054 H 0.89449 0.66555 0.43001
 H3055 H 0.95408 0.68913 0.42214
 H3056 H 0.93981 0.72049 0.41015
 C3057 C 0.35656 1.27986 0.38380
 C3058 C 0.36373 1.26229 0.39261
 C3059 C 0.38439 1.25815 0.39340
 C3060 C 0.39782 1.27220 0.38539
 C3061 C 0.39062 1.28979 0.37654
 C3062 C 0.36992 1.29380 0.37567
 C3063 C 0.39108 1.23924 0.40300
 C3064 C 0.40916 1.23080 0.40007
 C3065 C 0.41533 1.21153 0.40922
 C3066 C 0.43588 1.20744 0.41161
 C3067 C 0.44239 1.18917 0.41948
 C3068 C 0.42847 1.17449 0.42497
 C3069 C 0.40789 1.17856 0.42261
 C3070 C 0.40136 1.19684 0.41475
 H3071 H 0.34051 1.28244 0.38316
 H3072 H 0.35305 1.25179 0.39869
 H3073 H 0.41388 1.27000 0.38623
 H3074 H 0.40127 1.30046 0.37071
 H3075 H 0.38035 1.23188 0.41260
 H3076 H 0.42009 1.23812 0.39069
 H3077 H 0.44694 1.21843 0.40737
 H3078 H 0.45835 1.18653 0.42129
 H3079 H 0.39683 1.16737 0.42628
 H3080 H 0.38543 1.19906 0.41247
 C3081 C 0.39983 0.79739 0.87830
 C3082 C 0.40833 0.77976 0.88581
 C3083 C 0.39622 0.76335 0.89055
 C3084 C 0.37536 0.76487 0.88733
 C3085 C 0.36687 0.78250 0.87982
 C3086 C 0.37900 0.79895 0.87520
 C3087 C 0.40597 0.74474 0.89796
 C3088 C 0.39633 0.73088 0.90876
 C3089 C 0.40560 0.71186 0.91570
 C3090 C 0.39286 0.69618 0.92119
 C3091 C 0.40071 0.67798 0.92790
 C3092 C 0.42156 0.67505 0.92946
 C3093 C 0.43437 0.69076 0.92412
 C3094 C 0.42651 0.70900 0.91739
 H3095 H 0.40955 0.80986 0.87500
 H3096 H 0.42444 0.77895 0.88801
 H3097 H 0.36554 0.75236 0.89000
 H3098 H 0.35084 0.78307 0.87714
 H3099 H 0.42164 0.74263 0.89431
 H3100 H 0.38070 0.73322 0.91252
 H3101 H 0.37671 0.69795 0.92010
 H3102 H 0.39044 0.66609 0.93165
 H3103 H 0.45049 0.68905 0.92551
 H3104 H 0.43690 0.72084 0.91396
 C3105 C 1.09170 0.69546 0.88691
 C3106 C 1.08364 0.71362 0.89374
 C3107 C 1.09625 0.72936 0.89961
 C3108 C 1.11718 0.72632 0.89917
 C3109 C 1.12522 0.70818 0.89236
 C3110 C 1.11259 0.69259 0.88602
 C3111 C 1.08709 0.74847 0.90650
 C3112 C 1.09661 0.76607 0.90559
 C3113 C 1.08789 0.78527 0.91274
 C3114 C 1.10104 0.80084 0.91780
 C3115 C 1.09365 0.81924 0.92459
 C3116 C 1.07289 0.82258 0.92629
 C3117 C 1.05966 0.80715 0.92087
 C3118 C 1.06706 0.78867 0.91414
 H3119 H 1.08158 0.68361 0.88244
 H3120 H 1.06748 0.71546 0.89420
 H3121 H 1.12745 0.73776 0.90425
 H3122 H 1.14138 0.70647 0.89177
 H3123 H 1.07193 0.74786 0.91222
 H3124 H 1.11171 0.76660 0.89970
 H3125 H 1.11713 0.79871 0.91663
 H3126 H 1.10420 0.83098 0.92830
 H3127 H 1.04359 0.80933 0.92201
 H3128 H 1.05640 0.77729 0.90980
 C3129 C 1.09729 0.19944 0.38587
 C3130 C 1.08879 0.21721 0.39313
 C3131 C 1.10092 0.23363 0.39798
 C3132 C 1.12191 0.23157 0.39635
 C3133 C 1.13043 0.21375 0.38916
 C3134 C 1.11818 0.19762 0.38351
 C3135 C 1.09114 0.25246 0.40484
 C3136 C 1.09951 0.27053 0.40275
 C3137 C 1.08988 0.28943 0.40955
 C3138 C 1.10223 0.30576 0.41413
 C3139 C 1.09397 0.32381 0.42089
 C3140 C 1.07310 0.32603 0.42301
 C3141 C 1.06062 0.30994 0.41780
 C3142 C 1.06891 0.29178 0.41116
 H3143 H 1.08750 0.18713 0.38197
 H3144 H 1.07263 0.21828 0.39455
 H3145 H 1.13186 0.24360 0.40065
 H3146 H 1.14657 0.21277 0.38751
 H3147 H 1.07633 0.25127 0.41135
 H3148 H 1.11428 0.27170 0.39616
 H3149 H 1.11838 0.30446 0.41274
 H3150 H 1.10393 0.33608 0.42446
 H3151 H 1.04448 0.31130 0.41924
 H3152 H 1.05884 0.27976 0.40712
 C3153 C 0.59753 0.69982 0.38731
 C3154 C 0.58964 0.71777 0.39481
 C3155 C 0.60230 0.73379 0.39971
 C3156 C 0.62319 0.73118 0.39766
 C3157 C 0.63109 0.71321 0.39018
 C3158 C 0.61834 0.69741 0.38471
 C3159 C 0.59316 0.75273 0.40712
 C3160 C 0.60219 0.77056 0.40578
 C3161 C 0.59311 0.78957 0.41304
 C3162 C 0.60590 0.80547 0.41797
 C3163 C 0.59811 0.82371 0.42479
 C3164 C 0.57728 0.82655 0.42662
 C3165 C 0.56441 0.81080 0.42131
 C3166 C 0.57222 0.79248 0.41458
 H3167 H 0.58735 0.68778 0.38356
 H3168 H 0.57353 0.71926 0.39651
 H3169 H 0.63357 0.74285 0.40194
 H3170 H 0.64717 0.71183 0.38831
 H3171 H 0.57828 0.75183 0.41351
 H3172 H 0.61705 0.77148 0.39936
 H3173 H 0.62202 0.80373 0.41668
 H3174 H 0.60839 0.83570 0.42842
 H3175 H 0.54829 0.81259 0.42256
 H3176 H 0.56181 0.78083 0.41031
 C3177 C 0.64444 0.22449 0.88154
 C3178 C 0.63734 0.24191 0.89080
 C3179 C 0.61682 0.24442 0.89475
 C3180 C 0.60350 0.22894 0.88955
 C3181 C 0.61064 0.21145 0.88033
 C3182 C 0.63119 0.20905 0.87625
 C3183 C 0.61014 0.26320 0.90461
 C3184 C 0.59157 0.27081 0.90264
 C3185 C 0.58526 0.29019 0.91160
 C3186 C 0.56470 0.29396 0.91424
 C3187 C 0.55803 0.31229 0.92197
 C3188 C 0.57183 0.32729 0.92714
 C3189 C 0.59240 0.32357 0.92451
 C3190 C 0.59908 0.30528 0.91672
 H3191 H 0.66032 0.22321 0.87834
 H3192 H 0.64790 0.25358 0.89470
 H3193 H 0.58767 0.23004 0.89294
 H3194 H 0.60014 0.19964 0.87676
 H3195 H 0.62131 0.27124 0.91326
 H3196 H 0.58042 0.26270 0.89401
 H3197 H 0.55374 0.28267 0.91029
 H3198 H 0.54207 0.31475 0.92394
 H3199 H 0.60332 0.33505 0.92794
 H3200 H 0.61499 0.30338 0.91422
 C3201 C 0.89646 0.70912 1.12949
 C3202 C 0.90561 0.72654 1.12257
 C3203 C 0.89399 0.74298 1.11633
 C3204 C 0.87293 0.74179 1.11763
 C3205 C 0.86380 0.72437 1.12450
 C3206 C 0.87544 0.70782 1.13043
 C3207 C 0.90434 0.76120 1.10915
 C3208 C 0.89558 0.77475 1.09706
 C3209 C 0.90547 0.79323 1.08994
 C3210 C 0.89325 0.80895 1.08305
 C3211 C 0.90169 0.82652 1.07575
 C3212 C 0.92263 0.82873 1.07495
 C3213 C 0.93494 0.81303 1.08185
 C3214 C 0.92648 0.79542 1.08921
 H3215 H 0.90582 0.69657 1.13388
 H3216 H 0.92184 0.72710 1.12190
 H3217 H 0.86339 0.75435 1.11380
 H3218 H 0.84759 0.72399 1.12554
 H3219 H 0.91974 0.76321 1.11393
 H3220 H 0.88024 0.77254 1.09218
 H3221 H 0.87705 0.80768 1.08341
 H3222 H 0.89178 0.83845 1.07085
 H3223 H 0.95112 0.81419 1.08113
 H3224 H 0.93647 0.78347 1.09380
 C3225 C 0.89686 0.20641 0.62493
 C3226 C 0.90551 0.22407 0.61803
 C3227 C 0.89348 0.23996 0.61114
 C3228 C 0.87244 0.23774 0.61138
 C3229 C 0.86380 0.22003 0.61823
 C3230 C 0.87590 0.20421 0.62520
 C3231 C 0.90348 0.25867 0.60467
 C3232 C 0.89459 0.27274 0.59327
 C3233 C 0.90441 0.29163 0.58710
 C3234 C 0.89215 0.30766 0.58105
 C3235 C 0.90053 0.32561 0.57463
 C3236 C 0.92147 0.32794 0.57390
 C3237 C 0.93382 0.31195 0.58001
 C3238 C 0.92542 0.29395 0.58647
 H3239 H 0.90660 0.19441 0.63002
 H3240 H 0.92171 0.22534 0.61810
 H3241 H 0.86250 0.24975 0.60687
 H3242 H 0.84760 0.21892 0.61864
 H3243 H 0.91883 0.26074 0.60959
 H3244 H 0.87926 0.27070 0.58832
 H3245 H 0.87595 0.30633 0.58136
 H3246 H 0.89058 0.33774 0.57032
 H3247 H 0.95000 0.31319 0.57930
 H3248 H 0.93547 0.28182 0.59040
 C3249 C 0.39712 0.70960 0.62864
 C3250 C 0.40625 0.72706 0.62177
 C3251 C 0.39462 0.74335 0.61514
 C3252 C 0.37354 0.74192 0.61593
 C3253 C 0.36443 0.72444 0.62274
 C3254 C 0.37610 0.70808 0.62912
 C3255 C 0.40500 0.76166 0.60814
 C3256 C 0.39632 0.77536 0.59615
 C3257 C 0.40630 0.79388 0.58921
 C3258 C 0.39415 0.80968 0.58239
 C3259 C 0.40265 0.82726 0.57516
 C3260 C 0.42360 0.82942 0.57436
 C3261 C 0.43585 0.81366 0.58125
 C3262 C 0.42732 0.79603 0.58854
 H3263 H 0.40652 0.69720 0.63336
 H3264 H 0.42249 0.72778 0.62149
 H3265 H 0.36394 0.75432 0.61178
 H3266 H 0.34821 0.72389 0.62340
 H3267 H 0.42038 0.76363 0.61300
 H3268 H 0.38100 0.77324 0.59119
 H3269 H 0.37794 0.80846 0.58271
 H3270 H 0.39277 0.83923 0.57030
 H3271 H 0.45204 0.81477 0.58054
 H3272 H 0.43727 0.78404 0.59310
 C3273 C 0.37291 0.20625 1.09858
 C3274 C 0.37961 0.22393 1.08974
 C3275 C 0.38527 0.24033 1.10174
 C3276 C 0.38361 0.23883 1.12286
 C3277 C 0.37697 0.22115 1.13169
 C3278 C 0.37162 0.20463 1.11967
 C3279 C 0.39224 0.25884 1.09171
 C3280 C 0.40382 0.27251 1.10092
 C3281 C 0.41074 0.29126 1.09138
 C3282 C 0.41719 0.30688 1.10402
 C3283 C 0.42431 0.32469 1.09593
 C3284 C 0.42536 0.32729 1.07494
 C3285 C 0.41889 0.31170 1.06222
 C3286 C 0.41171 0.29383 1.07032
 H3287 H 0.36897 0.19374 1.08893
 H3288 H 0.38056 0.22472 1.07345
 H3289 H 0.38698 0.25133 1.13268
 H3290 H 0.37565 0.22053 1.14795
 H3291 H 0.38775 0.26096 1.07616
 H3292 H 0.40843 0.27016 1.11640
 H3293 H 0.41664 0.30532 1.12027
 H3294 H 0.42887 0.33652 1.10616
 H3295 H 0.41981 0.31316 1.04598
 H3296 H 0.40745 0.28201 1.06000
 C3297 C 1.10166 1.13072 0.70701
 C3298 C 1.09315 1.12333 0.72471
 C3299 C 1.10484 1.11289 0.73884
 C3300 C 1.12545 1.11037 0.73505
 C3301 C 1.13395 1.11756 0.71733
 C3302 C 1.12226 1.12781 0.70283
 C3303 C 1.09511 1.10543 0.75747
 C3304 C 1.10336 1.09158 0.76958
 C3305 C 1.09400 1.08464 0.78850
 C3306 C 1.10653 1.07735 0.80387
 C3307 C 1.09847 1.07037 0.82188
 C3308 C 1.07759 1.07019 0.82484
 C3309 C 1.06498 1.07733 0.80936
 C3310 C 1.07308 1.08449 0.79136
 H3311 H 1.09173 1.13795 0.69632
 H3312 H 1.07724 1.12559 0.72724
 H3313 H 1.13536 1.10332 0.74586
 H3314 H 1.15001 1.11580 0.71565
 H3315 H 1.08058 1.11171 0.76126
 H3316 H 1.11787 1.08522 0.76604
 H3317 H 1.12268 1.07726 0.80202
 H3318 H 1.10864 1.06531 0.83360
 H3319 H 1.04883 1.07705 0.81101
 H3320 H 1.06292 1.08941 0.77960
 C3321 C 1.09918 0.62664 0.20487
 C3322 C 1.09067 0.61979 0.22275
 C3323 C 1.10266 0.61158 0.23805
 C3324 C 1.12353 0.61044 0.23507
 C3325 C 1.13208 0.61719 0.21715
 C3326 C 1.12013 0.62560 0.20168
 C3327 C 1.09287 0.60514 0.25703
 C3328 C 1.10151 0.59280 0.27045
 C3329 C 1.09201 0.58679 0.28967
 C3330 C 1.10448 0.58021 0.30542
 C3331 C 1.09635 0.57390 0.32365
 C3332 C 1.07546 0.57377 0.32652
 C3333 C 1.06290 0.58042 0.31080
 C3334 C 1.07106 0.58681 0.29253
 H3335 H 1.08903 0.63214 0.19336
 H3336 H 1.07454 0.62080 0.22458
 H3337 H 1.13353 0.60499 0.24670
 H3338 H 1.14827 0.61673 0.21612
 H3339 H 1.07795 0.61093 0.25990
 H3340 H 1.11641 0.58698 0.26768
 H3341 H 1.12064 0.58003 0.30364
 H3342 H 1.10646 0.56917 0.33556
 H3343 H 1.04674 0.58018 0.31246
 H3344 H 1.06088 0.59120 0.28058
 C3345 C 0.64388 1.11750 0.21850
 C3346 C 0.63738 1.10850 0.23625
 C3347 C 0.61683 1.10616 0.24009
 C3348 C 0.60285 1.11293 0.22559
 C3349 C 0.60938 1.12198 0.20783
 C3350 C 0.62995 1.12430 0.20407
 C3351 C 0.61083 1.09618 0.25908
 C3352 C 0.59248 1.09774 0.26722
 C3353 C 0.58667 1.08813 0.28645
 C3354 C 0.56619 1.08536 0.29031
 C3355 C 0.55986 1.07727 0.30857
 C3356 C 0.57389 1.07189 0.32350
 C3357 C 0.59442 1.07443 0.31961
 C3358 C 0.60077 1.08255 0.30133
 H3359 H 0.65984 1.11926 0.21612
 H3360 H 0.64848 1.10340 0.24709
 H3361 H 0.58690 1.11088 0.22754
 H3362 H 0.59833 1.12674 0.19680
 H3363 H 0.62227 1.08744 0.26667
 H3364 H 0.58098 1.10640 0.25965
 H3365 H 0.55501 1.08956 0.27917
 H3366 H 0.54394 1.07530 0.31105
 H3367 H 0.60554 1.07079 0.33100
 H3368 H 0.61665 1.08499 0.29931
 C3369 C 0.60206 0.63271 0.70802
 C3370 C 0.59263 0.62608 0.72555
 C3371 C 0.60399 0.62011 0.74239
 C3372 C 0.62507 0.62140 0.74148
 C3373 C 0.63448 0.62797 0.72395
 C3374 C 0.62310 0.63362 0.70700
 C3375 C 0.59336 0.61316 0.76069
 C3376 C 0.60196 0.60136 0.77462
 C3377 C 0.59183 0.59436 0.79316
 C3378 C 0.60387 0.58755 0.80915
 C3379 C 0.59525 0.58018 0.82672
 C3380 C 0.57428 0.57923 0.82869
 C3381 C 0.56214 0.58616 0.81278
 C3382 C 0.57080 0.59360 0.79514
 H3383 H 0.59290 0.63690 0.69517
 H3384 H 0.57640 0.62541 0.72588
 H3385 H 0.63441 0.61779 0.75433
 H3386 H 0.65069 0.62899 0.72378
 H3387 H 0.57789 0.61782 0.76242
 H3388 H 0.61737 0.59657 0.77264
 H3389 H 0.62009 0.58796 0.80806
 H3390 H 0.60503 0.57529 0.83884
 H3391 H 0.54594 0.58536 0.81376
 H3392 H 0.56093 0.59818 0.78300
 C3393 C 0.88785 0.86011 0.71165
 C3394 C 0.89646 0.86623 0.72989
 C3395 C 0.89946 0.88659 0.73404
 C3396 C 0.89398 0.90076 0.71933
 C3397 C 0.88537 0.89461 0.70105
 C3398 C 0.88221 0.87422 0.69702
 C3399 C 0.90868 0.89223 0.75366
 C3400 C 0.90649 0.91031 0.76228
 C3401 C 0.91506 0.91573 0.78226
 C3402 C 0.91735 0.93606 0.78705
 C3403 C 0.92460 0.94196 0.80596
 C3404 C 0.92959 0.92763 0.82060
 C3405 C 0.92740 0.90727 0.81584
 C3406 C 0.92013 0.90135 0.79692
 H3407 H 0.88540 0.84430 0.70909
 H3408 H 0.90060 0.85501 0.74090
 H3409 H 0.89666 0.91654 0.72159
 H3410 H 0.88153 0.90579 0.68990
 H3411 H 0.91716 0.88072 0.76137
 H3412 H 0.89802 0.92182 0.75455
 H3413 H 0.91349 0.94745 0.77611
 H3414 H 0.92630 0.95777 0.80914
 H3415 H 0.93074 0.89591 0.82696
 H3416 H 0.91796 0.88556 0.79420
 C3417 C 0.87691 0.35825 0.22057
 C3418 C 0.88373 0.36535 0.23920
 C3419 C 0.88516 0.38595 0.24296
 C3420 C 0.87906 0.39941 0.22782
 C3421 C 0.87212 0.39228 0.20918
 C3422 C 0.87114 0.37163 0.20532
 C3423 C 0.89263 0.39264 0.26297
 C3424 C 0.90132 0.41042 0.26630
 C3425 C 0.90933 0.41673 0.28625
 C3426 C 0.91164 0.43723 0.29023
 C3427 C 0.91917 0.44385 0.30881
 C3428 C 0.92472 0.43006 0.32378
 C3429 C 0.92275 0.40953 0.31970
 C3430 C 0.91524 0.40291 0.30113
 H3431 H 0.87597 0.34225 0.21815
 H3432 H 0.88809 0.35467 0.25068
 H3433 H 0.87934 0.41539 0.23033
 H3434 H 0.86774 0.40292 0.19769
 H3435 H 0.89127 0.38212 0.27522
 H3436 H 0.90261 0.42096 0.25406
 H3437 H 0.90748 0.44819 0.27896
 H3438 H 0.92081 0.45976 0.31139
 H3439 H 0.92681 0.39853 0.33096
 H3440 H 0.91441 0.38697 0.29850
 C3441 C 0.38269 0.90564 0.19791
 C3442 C 0.38933 0.91392 0.21615
 C3443 C 0.39467 0.90159 0.23241
 C3444 C 0.39298 0.88071 0.23011
 C3445 C 0.38639 0.87244 0.21187
 C3446 C 0.38114 0.88480 0.19560
 C3447 C 0.40107 0.91105 0.25167
 C3448 C 0.41214 0.90154 0.26563
 C3449 C 0.41803 0.91047 0.28529
 C3450 C 0.42343 0.89752 0.30102
 C3451 C 0.42936 0.90507 0.31976
 C3452 C 0.43025 0.92580 0.32319
 C3453 C 0.42489 0.93882 0.30747
 C3454 C 0.41891 0.93126 0.28867
 H3455 H 0.37884 0.91552 0.18559
 H3456 H 0.39034 0.93003 0.21755
 H3457 H 0.39614 0.87066 0.24245
 H3458 H 0.38487 0.85636 0.21068
 H3459 H 0.39641 0.92638 0.25422
 H3460 H 0.41691 0.88627 0.26292
 H3461 H 0.42292 0.88146 0.29883
 H3462 H 0.43313 0.89464 0.33166
 H3463 H 0.42576 0.95487 0.30958
 H3464 H 0.41548 0.94179 0.27681
 C3465 C 0.37888 0.40522 0.69921
 C3466 C 0.38616 0.41406 0.71692
 C3467 C 0.39584 0.40253 0.73164
 C3468 C 0.39888 0.38204 0.72794
 C3469 C 0.39174 0.37316 0.71021
 C3470 C 0.38133 0.38449 0.69553
 C3471 C 0.40292 0.41238 0.75044
 C3472 C 0.40441 0.40268 0.76806
 C3473 C 0.41159 0.41183 0.78721
 C3474 C 0.41712 0.39901 0.80301
 C3475 C 0.42402 0.40668 0.82137
 C3476 C 0.42549 0.42742 0.82444
 C3477 C 0.41966 0.44033 0.80879
 C3478 C 0.41275 0.43265 0.79037
 H3479 H 0.37193 0.41495 0.68820
 H3480 H 0.38402 0.42999 0.71922
 H3481 H 0.40687 0.37275 0.73865
 H3482 H 0.39371 0.35716 0.70869
 H3483 H 0.40647 0.42809 0.74957
 H3484 H 0.40034 0.38705 0.76862
 H3485 H 0.41619 0.38293 0.80111
 H3486 H 0.42803 0.39634 0.83327
 H3487 H 0.42065 0.45639 0.81073
 H3488 H 0.40816 0.44315 0.77888
 C3489 C 1.10092 0.87551 1.29656
 C3490 C 1.09203 0.88387 1.27942
 C3491 C 1.10374 0.89305 1.26470
 C3492 C 1.12454 0.89455 1.26790
 C3493 C 1.13348 0.88636 1.28513
 C3494 C 1.12192 0.87629 1.29969
 C3495 C 1.09369 0.90112 1.24643
 C3496 C 1.10286 0.90240 1.22850
 C3497 C 1.09314 0.91001 1.20981
 C3498 C 1.10550 0.91546 1.19369
 C3499 C 1.09725 0.92263 1.17572
 C3500 C 1.07635 0.92446 1.17336
 C3501 C 1.06388 0.91868 1.18931
 C3502 C 1.07215 0.91150 1.20735
 H3503 H 1.09104 0.86898 1.30759
 H3504 H 1.07590 0.88292 1.27755
 H3505 H 1.13401 0.90210 1.25718
 H3506 H 1.14965 0.88718 1.28634
 H3507 H 1.07810 0.90544 1.24790
 H3508 H 1.11839 0.89770 1.22728
 H3509 H 1.12168 0.91424 1.19503
 H3510 H 1.10725 0.92657 1.16357
 H3511 H 1.04772 0.91993 1.18793
 H3512 H 1.06197 0.90694 1.21908
 C3513 C 1.11751 0.35380 0.78057
 C3514 C 1.10828 0.36081 0.76301
 C3515 C 1.10679 0.38139 0.75921
 C3516 C 1.11459 0.39490 0.77360
 C3517 C 1.12386 0.38786 0.79119
 C3518 C 1.12537 0.36724 0.79489
 C3519 C 1.09665 0.38791 0.74035
 C3520 C 1.09897 0.40602 0.73208
 C3521 C 1.08930 0.41219 0.71286
 C3522 C 1.08722 0.43269 0.70888
 C3523 C 1.07906 0.43926 0.69062
 C3524 C 1.07293 0.42545 0.67580
 C3525 C 1.07485 0.40492 0.67979
 C3526 C 1.08302 0.39833 0.69807
 H3527 H 1.11866 0.33781 0.78287
 H3528 H 1.10239 0.35006 0.75225
 H3529 H 1.11323 0.41089 0.77167
 H3530 H 1.12946 0.39857 0.80213
 H3531 H 1.08718 0.37704 0.73290
 H3532 H 1.10831 0.41700 0.73952
 H3533 H 1.09199 0.44369 0.71994
 H3534 H 1.07760 0.45519 0.68806
 H3535 H 1.07063 0.39394 0.66849
 H3536 H 1.08496 0.38241 0.70016
 C3537 C 0.60074 0.88177 0.79798
 C3538 C 0.59224 0.89006 0.78059
 C3539 C 0.60434 0.89552 0.76428
 C3540 C 0.62531 0.89322 0.76605
 C3541 C 0.63381 0.88496 0.78347
 C3542 C 0.62160 0.87892 0.79952
 C3543 C 0.59454 0.90375 0.74593
 C3544 C 0.60296 0.90316 0.72757
 C3545 C 0.59323 0.91123 0.70913
 C3546 C 0.60547 0.91667 0.69293
 C3547 C 0.59707 0.92422 0.67518
 C3548 C 0.57616 0.92632 0.67314
 C3549 C 0.56382 0.92050 0.68917
 C3550 C 0.57224 0.91303 0.70702
 H3551 H 0.59096 0.87760 0.81025
 H3552 H 0.57609 0.89192 0.77976
 H3553 H 0.63527 0.89789 0.75417
 H3554 H 0.64993 0.88293 0.78419
 H3555 H 0.57968 0.91011 0.74771
 H3556 H 0.61780 0.89677 0.72577
 H3557 H 0.62164 0.91519 0.69404
 H3558 H 0.60694 0.92823 0.66293
 H3559 H 0.54766 0.92192 0.68798
 H3560 H 0.56224 0.90840 0.71889
 C3561 C 0.62769 0.40071 1.29721
 C3562 C 0.62013 0.40988 1.27983
 C3563 C 0.60937 0.39885 1.26543
 C3564 C 0.60575 0.37852 1.26906
 C3565 C 0.61321 0.36933 1.28642
 C3566 C 0.62447 0.38017 1.30089
 C3567 C 0.60166 0.40908 1.24714
 C3568 C 0.59854 0.39947 1.22958
 C3569 C 0.59047 0.40890 1.21096
 C3570 C 0.58449 0.39629 1.19506
 C3571 C 0.57677 0.40418 1.17717
 C3572 C 0.57487 0.42495 1.17468
 C3573 C 0.58102 0.43765 1.19046
 C3574 C 0.58877 0.42976 1.20841
 H3575 H 0.63541 0.41011 1.30802
 H3576 H 0.62278 0.42568 1.27758
 H3577 H 0.59699 0.36961 1.25863
 H3578 H 0.61068 0.35345 1.28787
 H3579 H 0.59895 0.42498 1.24838
 H3580 H 0.60198 0.38365 1.22862
 H3581 H 0.58576 0.38019 1.19648
 H3582 H 0.57253 0.39399 1.16515
 H3583 H 0.57968 0.45373 1.18900
 H3584 H 0.59351 0.44014 1.21999
 C3585 C 0.87223 1.10101 1.29601
 C3586 C 0.88003 1.09209 1.27858
 C3587 C 0.89100 1.10329 1.26470
 C3588 C 0.89456 1.12358 1.26895
 C3589 C 0.88688 1.13253 1.28643
 C3590 C 0.87536 1.12150 1.30032
 C3591 C 0.89891 1.09317 1.24636
 C3592 C 0.90260 1.10284 1.22907
 C3593 C 0.91047 1.09323 1.21037
 C3594 C 0.91711 1.10568 1.19480
 C3595 C 0.92456 1.09759 1.17684
 C3596 C 0.92554 1.07678 1.17393
 C3597 C 0.91872 1.06425 1.18937
 C3598 C 0.91124 1.07234 1.20738
 H3599 H 0.86439 1.09143 1.30639
 H3600 H 0.87740 1.07632 1.27588
 H3601 H 0.90344 1.13263 1.25893
 H3602 H 0.88943 1.14837 1.28843
 H3603 H 0.90119 1.07720 1.24727
 H3604 H 0.89974 1.11877 1.22838
 H3605 H 0.91655 1.12179 1.19653
 H3606 H 0.92932 1.10769 1.16510
 H3607 H 0.91935 1.04815 1.18761
 H3608 H 0.90594 1.06207 1.21866
 C3609 C 0.87175 0.60028 0.79736
 C3610 C 0.87886 0.59157 0.77951
 C3611 C 0.88580 0.60350 0.76367
 C3612 C 0.88510 0.62446 0.76594
 C3613 C 0.87804 0.63315 0.78380
 C3614 C 0.87133 0.62118 0.79972
 C3615 C 0.89300 0.59356 0.74491
 C3616 C 0.90521 0.60236 0.73161
 C3617 C 0.91223 0.59279 0.71262
 C3618 C 0.91908 0.60516 0.69711
 C3619 C 0.92619 0.59699 0.67906
 C3620 C 0.92683 0.57616 0.67612
 C3621 C 0.92003 0.56370 0.69165
 C3622 C 0.91286 0.57190 0.70974
 H3623 H 0.86678 0.59066 0.80941
 H3624 H 0.87907 0.57542 0.77813
 H3625 H 0.88952 0.63429 0.75388
 H3626 H 0.87745 0.64931 0.78499
 H3627 H 0.88806 0.57840 0.74221
 H3628 H 0.91023 0.61748 0.73440
 H3629 H 0.91880 0.62128 0.69891
 H3630 H 0.93102 0.60702 0.66729
 H3631 H 0.92066 0.54759 0.68997
 H3632 H 0.90832 0.56177 0.72151
 C3633 C 0.37119 1.10587 0.79411
 C3634 C 0.37846 1.09650 0.77667
 C3635 C 0.38384 1.10778 0.75976
 C3636 C 0.38161 1.12874 0.76062
 C3637 C 0.37439 1.13810 0.77807
 C3638 C 0.36903 1.12678 0.79497
 C3639 C 0.39088 1.09710 0.74136
 C3640 C 0.40186 1.10581 0.72696
 C3641 C 0.40860 1.09564 0.70818
 C3642 C 0.41461 1.10760 0.69200
 C3643 C 0.42161 1.09896 0.67414
 C3644 C 0.42297 1.07808 0.67205
 C3645 C 0.41683 1.06601 0.68815
 C3646 C 0.40979 1.07467 0.70608
 H3647 H 0.36730 1.09676 0.80694
 H3648 H 0.37990 1.08035 0.77641
 H3649 H 0.38481 1.13800 0.74774
 H3650 H 0.37245 1.15419 0.77812
 H3651 H 0.38684 1.08153 0.73987
 H3652 H 0.40604 1.12133 0.72869
 H3653 H 0.41385 1.12376 0.69316
 H3654 H 0.42591 1.10868 0.66190
 H3655 H 0.41797 1.04988 0.68706
 H3656 H 0.40584 1.06486 0.71832
 C3657 C 0.35486 0.61827 1.28350
 C3658 C 0.36132 0.61057 1.26500
 C3659 C 0.38147 0.61187 1.25929
 C3660 C 0.39502 0.62161 1.27228
 C3661 C 0.38856 0.62953 1.29076
 C3662 C 0.36835 0.62786 1.29689
 C3663 C 0.38749 0.60352 1.23943
 C3664 C 0.40608 0.59677 1.23543
 C3665 C 0.41230 0.58825 1.21563
 C3666 C 0.43290 0.58667 1.21146
 C3667 C 0.43957 0.57903 1.19298
 C3668 C 0.42578 0.57266 1.17821
 C3669 C 0.40517 0.57379 1.18251
 C3670 C 0.39849 0.58140 1.20101
 H3671 H 0.33900 0.61732 1.28674
 H3672 H 0.35048 0.60349 1.25508
 H3673 H 0.41060 0.62339 1.26817
 H3674 H 0.39977 0.63626 1.30045
 H3675 H 0.37589 0.60260 1.22804
 H3676 H 0.41748 0.59762 1.24708
 H3677 H 0.44390 0.59156 1.22248
 H3678 H 0.45556 0.57802 1.19029
 H3679 H 0.39416 0.56909 1.17143
 H3680 H 0.38251 0.58167 1.20370
 C3681 C 1.13052 1.29061 0.89925
 C3682 C 1.12253 1.27373 0.90853
 C3683 C 1.11111 1.25996 0.89746
 C3684 C 1.10719 1.26378 0.87701
 C3685 C 1.11507 1.28066 0.86769
 C3686 C 1.12708 1.29440 0.87854
 C3687 C 1.10317 1.24207 0.90775
 C3688 C 1.09964 1.22480 0.89798
 C3689 C 1.09153 1.20647 0.90744
 C3690 C 1.08567 1.19071 0.89468
 C3691 C 1.07797 1.17306 0.90257
 C3692 C 1.07598 1.17069 0.92350
 C3693 C 1.08198 1.18634 0.93637
 C3694 C 1.08970 1.20404 0.92847
 H3695 H 1.13879 1.30095 0.90868
 H3696 H 1.12542 1.27133 0.92444
 H3697 H 1.09791 1.25385 0.86808
 H3698 H 1.11230 1.28224 0.85170
 H3699 H 1.10076 1.24331 0.92381
 H3700 H 1.10287 1.22384 0.88201
 H3701 H 1.08703 1.19204 0.87846
 H3702 H 1.07384 1.16113 0.89227
 H3703 H 1.08054 1.18495 0.95257
 H3704 H 1.09430 1.21553 0.93899
 C3705 C 1.10173 0.79211 0.37337
 C3706 C 1.09320 0.77455 0.38067
 C3707 C 1.10516 0.75961 0.38945
 C3708 C 1.12600 0.76263 0.39070
 C3709 C 1.13457 0.78023 0.38353
 C3710 C 1.12265 0.79534 0.37455
 C3711 C 1.09532 0.74097 0.39634
 C3712 C 1.10400 0.72769 0.40880
 C3713 C 1.09439 0.70880 0.41508
 C3714 C 1.10678 0.69289 0.42117
 C3715 C 1.09852 0.67489 0.42757
 C3716 C 1.07760 0.67244 0.42833
 C3717 C 1.06513 0.68837 0.42227
 C3718 C 1.07341 0.70639 0.41576
 H3719 H 1.09161 0.80335 0.36744
 H3720 H 1.07709 0.77269 0.37953
 H3721 H 1.13600 0.75129 0.39661
 H3722 H 1.15075 0.78130 0.38413
 H3723 H 1.08032 0.73816 0.39073
 H3724 H 1.11901 0.73027 0.41441
 H3725 H 1.12296 0.69434 0.42082
 H3726 H 1.10856 0.66282 0.43182
 H3727 H 1.04896 0.68705 0.42301
 H3728 H 1.06333 0.71849 0.41179
 C3729 C 0.59986 1.29591 0.37607
 C3730 C 0.59104 1.27811 0.38239
 C3731 C 0.60294 1.26149 0.38752
 C3732 C 0.62395 1.26298 0.38589
 C3733 C 0.63277 1.28080 0.37962
 C3734 C 0.62083 1.29745 0.37462
 C3735 C 0.59287 1.24277 0.39379
 C3736 C 0.60199 1.22855 0.40478
 C3737 C 0.59239 1.20958 0.41096
 C3738 C 0.60489 1.19374 0.41704
 C3739 C 0.59677 1.17574 0.42360
 C3740 C 0.57587 1.17317 0.42443
 C3741 C 0.56328 1.18892 0.41822
 C3742 C 0.57142 1.20699 0.41162
 H3743 H 0.59028 1.30853 0.37243
 H3744 H 0.57483 1.27735 0.38337
 H3745 H 0.63370 1.25036 0.38890
 H3746 H 0.64894 1.28138 0.37818
 H3747 H 0.57739 1.24095 0.38923
 H3748 H 0.61741 1.23060 0.40946
 H3749 H 0.62106 1.19528 0.41670
 H3750 H 0.60688 1.16378 0.42799
 H3751 H 0.54712 1.18746 0.41897
 H3752 H 0.56120 1.21894 0.40761
 C3753 C 0.59864 0.79619 0.87742
 C3754 C 0.58965 0.77873 0.88442
 C3755 C 0.60136 0.76196 0.88950
 C3756 C 0.62234 0.76295 0.88714
 C3757 C 0.63132 0.78042 0.88017
 C3758 C 0.61958 0.79722 0.87521
 C3759 C 0.59111 0.74359 0.89643
 C3760 C 0.60025 0.72937 0.90741
 C3761 C 0.59045 0.71067 0.91408
 C3762 C 0.60278 0.69458 0.91981
 C3763 C 0.59447 0.67676 0.92662
 C3764 C 0.57356 0.67463 0.92806
 C3765 C 0.56114 0.69069 0.92229
 C3766 C 0.56947 0.70857 0.91544
 H3767 H 0.58921 0.80895 0.87384
 H3768 H 0.57348 0.77835 0.88596
 H3769 H 0.63190 0.75017 0.89010
 H3770 H 0.64744 0.78061 0.87817
 H3771 H 0.57547 0.74200 0.89234
 H3772 H 0.61584 0.73117 0.91161
 H3773 H 0.61897 0.69576 0.91893
 H3774 H 0.60445 0.66456 0.93064
 H3775 H 0.54498 0.68957 0.92353
 H3776 H 0.55939 0.72075 0.91174
 C3777 C 0.90103 1.29441 1.12531
 C3778 C 0.91037 1.27734 1.11740
 C3779 C 0.89944 1.26342 1.10604
 C3780 C 0.87909 1.26733 1.10197
 C3781 C 0.86972 1.28442 1.10974
 C3782 C 0.88040 1.29825 1.12183
 C3783 C 0.90974 1.24521 1.09840
 C3784 C 0.90012 1.22787 1.09536
 C3785 C 0.90967 1.20921 1.08772
 C3786 C 0.89708 1.19362 1.08136
 C3787 C 0.90510 1.17568 1.07408
 C3788 C 0.92597 1.17283 1.07301
 C3789 C 0.93865 1.18828 1.07959
 C3790 C 0.93062 1.20629 1.08690
 H3791 H 0.91033 1.30484 1.13359
 H3792 H 0.92620 1.27488 1.12038
 H3793 H 0.87030 1.25725 1.09271
 H3794 H 0.85381 1.28608 1.10690
 H3795 H 0.92570 1.24624 1.09586
 H3796 H 0.88422 1.22716 1.09857
 H3797 H 0.88092 1.19533 1.08199
 H3798 H 0.89493 1.16391 1.06950
 H3799 H 0.95480 1.18652 1.07891
 H3800 H 0.94096 1.21762 1.09203
 C3801 C 0.86394 0.78619 0.60558
 C3802 C 0.87069 0.76802 0.59756
 C3803 C 0.89128 0.76358 0.59676
 C3804 C 0.90508 0.77805 0.60346
 C3805 C 0.89832 0.79624 0.61147
 C3806 C 0.87767 0.80042 0.61281
 C3807 C 0.89760 0.74379 0.58879
 C3808 C 0.91513 0.73496 0.59351
 C3809 C 0.92083 0.71467 0.58639
 C3810 C 0.94125 0.70954 0.58537
 C3811 C 0.94723 0.69043 0.57907
 C3812 C 0.93284 0.67601 0.57382
 C3813 C 0.91239 0.68104 0.57515
 C3814 C 0.90642 0.70012 0.58142
 H3815 H 0.84793 0.78889 0.60658
 H3816 H 0.85976 0.75720 0.59237
 H3817 H 0.92109 0.77555 0.60240
 H3818 H 0.90925 0.80712 0.61651
 H3819 H 0.88697 0.73601 0.57922
 H3820 H 0.92587 0.74270 0.60297
 H3821 H 0.95263 0.72040 0.58930
 H3822 H 0.96310 0.68702 0.57807
 H3823 H 0.90097 0.67007 0.57170
 H3824 H 0.89053 0.70318 0.58281
 C3825 C 0.40217 1.29674 0.62464
 C3826 C 0.41018 1.27847 0.61807
 C3827 C 0.39806 1.26417 0.60855
 C3828 C 0.37754 1.26857 0.60582
 C3829 C 0.36951 1.28687 0.61225
 C3830 C 0.38161 1.30136 0.62191
 C3831 C 0.40735 1.24481 0.60235
 C3832 C 0.39861 1.23157 0.58985
 C3833 C 0.40779 1.21210 0.58412
 C3834 C 0.39508 1.19659 0.57788
 C3835 C 0.40295 1.17814 0.57181
 C3836 C 0.42380 1.17481 0.57155
 C3837 C 0.43658 1.19032 0.57782
 C3838 C 0.42869 1.20880 0.58400
 H3839 H 0.41247 1.30742 0.63120
 H3840 H 0.42605 1.27558 0.62035
 H3841 H 0.36734 1.25783 0.59927
 H3842 H 0.35350 1.28902 0.61048
 H3843 H 0.42204 1.24141 0.60853
 H3844 H 0.38387 1.23464 0.58372
 H3845 H 0.37894 1.19873 0.57780
 H3846 H 0.39266 1.16641 0.56739
 H3847 H 0.45272 1.18832 0.57747
 H3848 H 0.43903 1.22056 0.58811
 C3849 C 0.40404 0.79972 1.12135
 C3850 C 0.41231 0.78171 1.11442
 C3851 C 0.40037 0.76753 1.10453
 C3852 C 0.38004 0.77205 1.10100
 C3853 C 0.37174 0.79011 1.10777
 C3854 C 0.38350 0.80429 1.11833
 C3855 C 0.40971 0.74849 1.09770
 C3856 C 0.39940 0.73138 1.09583
 C3857 C 0.40818 0.71200 1.08904
 C3858 C 0.39499 0.69658 1.08358
 C3859 C 0.40230 0.67805 1.07704
 C3860 C 0.42305 0.67442 1.07585
 C3861 C 0.43633 0.68970 1.08160
 C3862 C 0.42901 0.70828 1.08817
 H3863 H 0.41413 0.81027 1.12845
 H3864 H 0.42813 0.77877 1.11696
 H3865 H 0.37046 0.76175 1.09287
 H3866 H 0.35583 0.79235 1.10537
 H3867 H 0.42563 0.74874 1.09469
 H3868 H 0.38356 0.73142 1.09938
 H3869 H 0.37890 0.69890 1.08430
 H3870 H 0.39167 0.66646 1.07309
 H3871 H 0.45240 0.68736 1.08079
 H3872 H 0.43981 0.71944 1.09267
 C3873 C 0.88037 0.70227 0.90051
 C3874 C 0.88861 0.71967 0.90877
 C3875 C 0.89464 0.73537 0.89628
 C3876 C 0.89307 0.73295 0.87521
 C3877 C 0.88489 0.71551 0.86694
 C3878 C 0.87820 0.70010 0.87951
 C3879 C 0.90266 0.75382 0.90578
 C3880 C 0.90194 0.77178 0.89686
 C3881 C 0.90969 0.79039 0.90626
 C3882 C 0.91490 0.80626 0.89361
 C3883 C 0.92221 0.82413 0.90167
 C3884 C 0.92430 0.82662 0.92263
 C3885 C 0.91868 0.81093 0.93538
 C3886 C 0.91144 0.79297 0.92730
 H3887 H 0.87567 0.69049 0.91056
 H3888 H 0.88992 0.72101 0.92502
 H3889 H 0.89823 0.74436 0.86501
 H3890 H 0.88339 0.71428 0.85071
 H3891 H 0.90886 0.75247 0.92082
 H3892 H 0.89564 0.77309 0.88185
 H3893 H 0.91345 0.80478 0.87738
 H3894 H 0.92607 0.83611 0.89148
 H3895 H 0.92011 0.81246 0.95160
 H3896 H 0.90697 0.78137 0.93762
 C3897 C 0.87965 0.20331 0.40005
 C3898 C 0.88635 0.22121 0.40861
 C3899 C 0.89159 0.23741 0.39638
 C3900 C 0.89018 0.23518 0.37524
 C3901 C 0.88354 0.21722 0.36669
 C3902 C 0.87793 0.20122 0.37902
 C3903 C 0.89736 0.25650 0.40634
 C3904 C 0.90714 0.27125 0.39700
 C3905 C 0.91234 0.29063 0.40667
 C3906 C 0.91680 0.30680 0.39411
 C3907 C 0.92249 0.32518 0.40228
 C3908 C 0.92404 0.32782 0.42327
 C3909 C 0.91930 0.31179 0.43595
 C3910 C 0.91360 0.29332 0.42775
 H3911 H 0.87558 0.19115 0.40992
 H3912 H 0.88725 0.22248 0.42489
 H3913 H 0.89344 0.24738 0.36518
 H3914 H 0.88200 0.21613 0.35045
 H3915 H 0.89315 0.25831 0.42198
 H3916 H 0.91139 0.26942 0.38138
 H3917 H 0.91593 0.30520 0.37785
 H3918 H 0.92578 0.33736 0.39214
 H3919 H 0.92065 0.31334 0.45217
 H3920 H 0.91084 0.28115 0.43802
 C3921 C 0.37462 0.70602 0.40060
 C3922 C 0.38220 0.72368 0.40891
 C3923 C 0.39106 0.73815 0.39668
 C3924 C 0.39236 0.73442 0.37581
 C3925 C 0.38487 0.71670 0.36746
 C3926 C 0.37553 0.70222 0.37962
 C3927 C 0.39785 0.75711 0.40628
 C3928 C 0.41002 0.77030 0.39740
 C3929 C 0.41601 0.78957 0.40678
 C3930 C 0.42211 0.80508 0.39409
 C3931 C 0.42823 0.82341 0.40211
 C3932 C 0.42863 0.82662 0.42308
 C3933 C 0.42251 0.81112 0.43585
 C3934 C 0.41633 0.79275 0.42781
 H3935 H 0.36854 0.69519 0.41094
 H3936 H 0.38112 0.72604 0.42506
 H3937 H 0.39846 0.74533 0.36560
 H3938 H 0.38543 0.71512 0.35122
 H3939 H 0.39226 0.76029 0.42126
 H3940 H 0.41558 0.76736 0.38238
 H3941 H 0.42204 0.80305 0.37786
 H3942 H 0.43256 0.83514 0.39184
 H3943 H 0.42298 0.81304 0.45208
 H3944 H 0.41234 0.78100 0.43816
 C3945 C 0.35318 0.22614 0.87652
 C3946 C 0.36041 0.24437 0.88373
 C3947 C 0.38082 0.24895 0.88251
 C3948 C 0.39388 0.23516 0.87321
 C3949 C 0.38664 0.21694 0.86571
 C3950 C 0.36615 0.21190 0.86750
 C3951 C 0.38767 0.26842 0.89067
 C3952 C 0.40616 0.27144 0.89814
 C3953 C 0.41281 0.29070 0.90715
 C3954 C 0.43346 0.29432 0.90899
 C3955 C 0.44043 0.31226 0.91730
 C3956 C 0.42687 0.32698 0.92409
 C3957 C 0.40619 0.32322 0.92264
 C3958 C 0.39922 0.30527 0.91438
 H3959 H 0.33717 0.22371 0.87742
 H3960 H 0.34996 0.25493 0.89045
 H3961 H 0.40966 0.23842 0.87153
 H3962 H 0.39742 0.20657 0.85932
 H3963 H 0.37666 0.28035 0.89108
 H3964 H 0.41704 0.25935 0.89768
 H3965 H 0.44428 0.28328 0.90383
 H3966 H 0.45647 0.31455 0.91852
 H3967 H 0.39534 0.33429 0.92762
 H3968 H 0.38319 0.30293 0.91398
 C3969 C 1.12298 0.70263 1.09815
 C3970 C 1.11495 0.71967 1.08894
 C3971 C 1.10332 0.73332 1.09999
 C3972 C 1.09904 0.72914 1.12025
 C3973 C 1.10694 0.71208 1.12948
 C3974 C 1.11937 0.69857 1.11873
 C3975 C 1.09572 0.75160 1.08990
 C3976 C 1.09249 0.76880 1.09994
 C3977 C 1.08520 0.78767 1.09063
 C3978 C 1.07964 0.80345 1.10354
 C3979 C 1.07282 0.82163 1.09579
 C3980 C 1.07140 0.82451 1.07486
 C3981 C 1.07710 0.80884 1.06185
 C3982 C 1.08395 0.79061 1.06961
 H3983 H 1.13152 0.69243 1.08876
 H3984 H 1.11809 0.72233 1.07316
 H3985 H 1.08956 0.73899 1.12910
 H3986 H 1.10394 0.71024 1.14537
 H3987 H 1.09354 0.75077 1.07377
 H3988 H 1.09547 0.76930 1.11600
 H3989 H 1.08059 0.80173 1.11976
 H3990 H 1.06890 0.83354 1.10621
 H3991 H 1.07608 0.81062 1.04565
 H3992 H 1.08836 0.77912 1.05899
 C3993 C 1.14065 0.21806 0.61492
 C3994 C 1.13381 0.23569 0.60597
 C3995 C 1.11319 0.23938 0.60352
 C3996 C 1.09949 0.22479 0.60993
 C3997 C 1.10636 0.20711 0.61889
 C3998 C 1.12701 0.20356 0.62149
 C3999 C 1.10682 0.25839 0.59390
 C4000 C 1.08857 0.26668 0.59623
 C4001 C 1.08254 0.28612 0.58727
 C4002 C 1.06200 0.29044 0.58510
 C4003 C 1.05557 0.30885 0.57748
 C4004 C 1.06956 0.32345 0.57196
 C4005 C 1.09012 0.31916 0.57406
 C4006 C 1.09657 0.30075 0.58171
 H4007 H 1.15665 0.21589 0.61694
 H4008 H 1.14469 0.24662 0.60113
 H4009 H 1.08351 0.22668 0.60773
 H4010 H 1.09551 0.19604 0.62345
 H4011 H 1.11795 0.26596 0.58496
 H4012 H 1.07740 0.25909 0.60511
 H4013 H 1.05087 0.27951 0.58935
 H4014 H 1.03961 0.31166 0.57588
 H4015 H 1.10124 0.33028 0.57035
 H4016 H 1.11251 0.29841 0.58378
 C4017 C 0.64497 0.72176 0.61694
 C4018 C 0.63813 0.73925 0.60767
 C4019 C 0.61752 0.74274 0.60484
 C4020 C 0.60385 0.72802 0.61101
 C4021 C 0.61071 0.71052 0.62029
 C4022 C 0.63133 0.70725 0.62347
 C4023 C 0.61107 0.76172 0.59522
 C4024 C 0.59271 0.76980 0.59746
 C4025 C 0.58650 0.78921 0.58855
 C4026 C 0.56593 0.79321 0.58612
 C4027 C 0.55930 0.81155 0.57850
 C4028 C 0.57314 0.82640 0.57326
 C4029 C 0.59374 0.82244 0.57568
 C4030 C 0.60037 0.80409 0.58331
 H4031 H 0.66095 0.71976 0.61934
 H4032 H 0.64900 0.75025 0.60297
 H4033 H 0.58790 0.72972 0.60845
 H4034 H 0.59987 0.69941 0.62476
 H4035 H 0.62219 0.76946 0.58642
 H4036 H 0.58156 0.76207 0.60623
 H4037 H 0.55491 0.78208 0.59014
 H4038 H 0.54334 0.81409 0.57664
 H4039 H 0.60474 0.83375 0.57220
 H4040 H 0.61631 0.80197 0.58560
 C4041 C 0.60263 0.20786 1.13011
 C4042 C 0.59364 0.22531 1.12272
 C4043 C 0.60437 0.23854 1.11058
 C4044 C 0.62429 0.23364 1.10555
 C4045 C 0.63335 0.21623 1.11294
 C4046 C 0.62278 0.20291 1.12550
 C4047 C 0.59407 0.25687 1.10309
 C4048 C 0.60383 0.27316 1.09665
 C4049 C 0.59401 0.29179 1.08916
 C4050 C 0.60637 0.30794 1.08409
 C4051 C 0.59816 0.32577 1.07679
 C4052 C 0.57732 0.32797 1.07439
 C4053 C 0.56486 0.31193 1.07950
 C4054 C 0.57306 0.29400 1.08671
 H4055 H 0.59329 0.19798 1.13880
 H4056 H 0.57814 0.22847 1.12653
 H4057 H 0.63302 0.24305 1.09576
 H4058 H 0.64897 0.21382 1.10926
 H4059 H 0.57788 0.25693 1.10371
 H4060 H 0.62005 0.27324 1.09728
 H4061 H 0.62251 0.30678 1.08578
 H4062 H 0.60815 0.33797 1.07323
 H4063 H 0.54874 0.31314 1.07760
 H4064 H 0.56282 0.28205 1.09011
 C4065 C 1.27459 1.14493 0.88004
 C4066 C 1.25742 1.13743 0.88922
 C4067 C 1.25546 1.11687 0.89274
 C4068 C 1.27126 1.10392 0.88716
 C4069 C 1.28849 1.11145 0.87800
 C4070 C 1.29034 1.13204 0.87436
 C4071 C 1.23695 1.10978 0.90264
 C4072 C 1.22996 1.09108 0.90081
 C4073 C 1.21095 1.08432 0.91005
 C4074 C 1.20803 1.06375 0.91284
 C4075 C 1.19011 1.05667 0.92093
 C4076 C 1.17467 1.07003 0.92632
 C4077 C 1.17752 1.09061 0.92349
 C4078 C 1.19540 1.09770 0.91535
 H4079 H 1.27544 1.16083 0.87720
 H4080 H 1.24551 1.14773 0.89342
 H4081 H 1.27064 1.08807 0.89020
 H4082 H 1.30054 1.10121 0.87414
 H4083 H 1.22862 1.12073 0.91134
 H4084 H 1.23834 1.08012 0.89217
 H4085 H 1.21967 1.05312 0.90875
 H4086 H 1.18834 1.04073 0.92303
 H4087 H 1.16569 1.10121 0.92705
 H4088 H 1.19662 1.11359 0.91275
 C4089 C 1.29507 0.62273 0.40231
 C4090 C 1.27769 0.61520 0.41115
 C4091 C 1.26099 0.61015 0.39923
 C4092 C 1.26190 0.61315 0.37824
 C4093 C 1.27927 0.62066 0.36942
 C4094 C 1.29604 0.62552 0.38134
 C4095 C 1.24270 0.60262 0.40925
 C4096 C 1.22895 0.59137 0.39973
 C4097 C 1.21015 0.58434 0.40914
 C4098 C 1.19429 0.57863 0.39641
 C4099 C 1.17627 0.57180 0.40439
 C4100 C 1.17373 0.57033 0.42536
 C4101 C 1.18961 0.57592 0.43818
 C4102 C 1.20769 0.58279 0.43018
 H4103 H 1.30780 0.62626 0.41187
 H4104 H 1.27732 0.61319 0.42735
 H4105 H 1.24912 0.61026 0.36857
 H4106 H 1.27940 0.62313 0.35328
 H4107 H 1.24072 0.60653 0.42497
 H4108 H 1.23120 0.58734 0.38406
 H4109 H 1.19578 0.57964 0.38017
 H4110 H 1.16421 0.56788 0.39413
 H4111 H 1.18819 0.57462 0.45438
 H4112 H 1.21971 0.58643 0.44054
 C4113 C 0.78110 1.14072 0.38462
 C4114 C 0.76336 1.13415 0.39342
 C4115 C 0.75982 1.11368 0.39603
 C4116 C 0.77458 1.09982 0.38975
 C4117 C 0.79237 1.10642 0.38092
 C4118 C 0.79585 1.12695 0.37837
 C4119 C 0.74083 1.10766 0.40581
 C4120 C 0.73278 1.08940 0.40401
 C4121 C 0.71341 1.08374 0.41326
 C4122 C 0.70942 1.06338 0.41614
 C4123 C 0.69104 1.05725 0.42395
 C4124 C 0.67615 1.07138 0.42894
 C4125 C 0.68014 1.09178 0.42624
 C4126 C 0.69852 1.09792 0.41839
 H4127 H 0.78324 1.15663 0.38261
 H4128 H 0.75229 1.14514 0.39813
 H4129 H 0.77278 1.08395 0.39203
 H4130 H 0.80363 1.09550 0.37655
 H4131 H 0.73312 1.11903 0.41453
 H4132 H 0.74050 1.07794 0.39541
 H4133 H 0.72056 1.05215 0.41225
 H4134 H 0.68844 1.04142 0.42602
 H4135 H 0.66878 1.10296 0.42956
 H4136 H 0.70062 1.11371 0.41578
 C4137 C 0.77977 0.64147 0.88765
 C4138 C 0.76198 0.63499 0.89645
 C4139 C 0.75803 0.61452 0.89846
 C4140 C 0.77249 0.60057 0.89172
 C4141 C 0.79031 0.60708 0.88289
 C4142 C 0.79414 0.62759 0.88077
 C4143 C 0.73889 0.60852 0.90800
 C4144 C 0.73045 0.59051 0.90541
 C4145 C 0.71096 0.58481 0.91437
 C4146 C 0.70659 0.56441 0.91631
 C4147 C 0.68810 0.55827 0.92386
 C4148 C 0.67346 0.57241 0.92951
 C4149 C 0.67782 0.59285 0.92770
 C4150 C 0.69632 0.59901 0.92013
 H4151 H 0.78218 0.65738 0.88602
 H4152 H 0.75116 0.64605 0.90156
 H4153 H 0.77041 0.58467 0.89357
 H4154 H 0.80129 0.59605 0.87808
 H4155 H 0.73139 0.61970 0.91714
 H4156 H 0.73796 0.57928 0.89632
 H4157 H 0.71752 0.55316 0.91193
 H4158 H 0.68524 0.54241 0.92526
 H4159 H 0.66668 0.60408 0.93154
 H4160 H 0.69873 0.61486 0.91825
 C4161 C 1.30168 0.90348 1.11189
 C4162 C 1.28369 0.91137 1.10438
 C4163 C 1.26775 0.89873 1.09912
 C4164 C 1.27048 0.87790 1.10073
 C4165 C 1.28849 0.87001 1.10819
 C4166 C 1.30419 0.88272 1.11409
 C4167 C 1.24870 0.90781 1.09184
 C4168 C 1.23085 0.89880 1.09351
 C4169 C 1.21166 0.90772 1.08644
 C4170 C 1.19560 0.89488 1.08217
 C4171 C 1.17719 0.90250 1.07552
 C4172 C 1.17435 0.92320 1.07318
 C4173 C 1.19025 0.93613 1.07786
 C4174 C 1.20874 0.92850 1.08444
 H4175 H 1.31365 0.91363 1.11599
 H4176 H 1.28209 0.92744 1.10301
 H4177 H 1.25886 0.86759 1.09614
 H4178 H 1.28997 0.85395 1.10975
 H4179 H 1.24955 0.92259 1.08537
 H4180 H 1.23006 0.88406 1.10010
 H4181 H 1.19735 0.87886 1.08384
 H4182 H 1.16508 0.89219 1.07238
 H4183 H 1.18846 0.95215 1.07621
 H4184 H 1.22050 0.93896 1.08820
 C4185 C 1.30058 0.40097 0.61332
 C4186 C 1.28268 0.40880 0.60552
 C4187 C 1.26663 0.39618 0.60055
 C4188 C 1.26915 0.37539 0.60286
 C4189 C 1.28706 0.36756 0.61065
 C4190 C 1.30290 0.38027 0.61616
 C4191 C 1.24776 0.40528 0.59281
 C4192 C 1.22982 0.39634 0.59389
 C4193 C 1.21086 0.40549 0.58645
 C4194 C 1.19485 0.39284 0.58142
 C4195 C 1.17661 0.40073 0.57459
 C4196 C 1.17388 0.42150 0.57283
 C4197 C 1.18977 0.43422 0.57818
 C4198 C 1.20808 0.42633 0.58493
 H4199 H 1.31264 0.41113 0.61710
 H4200 H 1.28127 0.42484 0.60364
 H4201 H 1.25746 0.36504 0.59856
 H4202 H 1.28837 0.35154 0.61270
 H4203 H 1.24880 0.42009 0.58642
 H4204 H 1.22874 0.38155 0.60028
 H4205 H 1.19650 0.37677 0.58270
 H4206 H 1.16452 0.39056 0.57093
 H4207 H 1.18807 0.45029 0.57698
 H4208 H 1.21979 0.43663 0.58927
 C4209 C 0.80132 0.88688 0.59602
 C4210 C 0.78362 0.89514 0.58824
 C4211 C 0.76785 0.90071 0.60110
 C4212 C 0.77051 0.89863 0.62208
 C4213 C 0.78823 0.89039 0.62986
 C4214 C 0.80371 0.88417 0.61691
 C4215 C 0.74905 0.90868 0.59206
 C4216 C 0.73116 0.90778 0.60123
 C4217 C 0.71220 0.91524 0.59213
 C4218 C 0.69630 0.92038 0.60500
 C4219 C 0.67804 0.92720 0.59718
 C4220 C 0.67517 0.92883 0.57624
 C4221 C 0.69094 0.92339 0.56328
 C4222 C 0.70929 0.91665 0.57112
 H4223 H 0.81314 0.88255 0.58569
 H4224 H 0.78209 0.89685 0.57205
 H4225 H 0.75906 0.90341 0.63259
 H4226 H 0.78961 0.88846 0.64602
 H4227 H 0.75006 0.91495 0.57709
 H4228 H 0.73014 0.90146 0.61617
 H4229 H 0.69806 0.91918 0.62121
 H4230 H 0.66603 0.93094 0.60752
 H4231 H 0.68913 0.92450 0.54708
 H4232 H 0.72092 0.91223 0.56065
 C4233 C 0.78233 0.35813 1.11299
 C4234 C 0.76456 0.36526 1.10430
 C4235 C 0.76041 0.38584 1.10364
 C4236 C 0.77469 0.39925 1.11156
 C4237 C 0.79249 0.39210 1.12027
 C4238 C 0.79648 0.37147 1.12110
 C4239 C 0.74124 0.39251 1.09428
 C4240 C 0.73267 0.41041 1.09774
 C4241 C 0.71312 0.41661 1.08889
 C4242 C 0.70869 0.43711 1.08748
 C4243 C 0.69020 0.44364 1.07988
 C4244 C 0.67562 0.42978 1.07366
 C4245 C 0.68000 0.40926 1.07510
 C4246 C 0.69849 0.40272 1.08270
 H4247 H 0.78486 0.34214 1.11361
 H4248 H 0.75389 0.35459 1.09827
 H4249 H 0.77247 0.41525 1.11078
 H4250 H 0.80329 0.40275 1.12605
 H4251 H 0.73379 0.38189 1.08446
 H4252 H 0.74009 0.42116 1.10742
 H4253 H 0.71961 0.44812 1.09225
 H4254 H 0.68733 0.45956 1.07880
 H4255 H 0.66889 0.39823 1.07086
 H4256 H 0.70094 0.38680 1.08421
 C4257 C 0.70320 1.10289 1.11645
 C4258 C 0.72042 1.09428 1.10805
 C4259 C 0.73628 1.10630 1.10154
 C4260 C 0.73416 1.12725 1.10276
 C4261 C 0.71689 1.13586 1.11111
 C4262 C 0.70136 1.12377 1.11833
 C4263 C 0.75460 1.09643 1.09351
 C4264 C 0.77277 1.10497 1.09395
 C4265 C 0.79131 1.09511 1.08641
 C4266 C 0.80752 1.10719 1.08099
 C4267 C 0.82538 1.09867 1.07398
 C4268 C 0.82751 1.07780 1.07241
 C4269 C 0.81145 1.06563 1.07821
 C4270 C 0.79352 1.07417 1.08515
 H4271 H 0.69131 1.09320 1.12157
 H4272 H 0.72153 1.07813 1.10702
 H4273 H 0.74571 1.13708 1.09724
 H4274 H 0.71589 1.15199 1.11236
 H4275 H 0.75298 1.08141 1.08762
 H4276 H 0.77435 1.11997 1.09993
 H4277 H 0.80634 1.12333 1.08207
 H4278 H 0.83763 1.10844 1.06999
 H4279 H 0.81270 1.04950 1.07719
 H4280 H 0.78164 1.06428 1.08980
 C4281 C 0.72111 0.61814 0.64649
 C4282 C 0.73879 0.60905 0.63969
 C4283 C 0.74234 0.60647 0.61898
 C4284 C 0.72746 0.61266 0.60516
 C4285 C 0.70977 0.62175 0.61197
 C4286 C 0.70645 0.62473 0.63269
 C4287 C 0.76151 0.59703 0.61253
 C4288 C 0.76962 0.59962 0.59422
 C4289 C 0.78912 0.59080 0.58790
 C4290 C 0.79319 0.58914 0.56719
 C4291 C 0.81158 0.58153 0.56046
 C4292 C 0.82642 0.57552 0.57432
 C4293 C 0.82241 0.57721 0.59506
 C4294 C 0.80401 0.58483 0.60180
 H4295 H 0.71908 0.62037 0.66255
 H4296 H 0.74991 0.60431 0.65067
 H4297 H 0.72919 0.61027 0.58911
 H4298 H 0.69855 0.62624 0.60100
 H4299 H 0.76934 0.58807 0.62362
 H4300 H 0.76178 0.60863 0.58317
 H4301 H 0.78206 0.59371 0.55614
 H4302 H 0.81415 0.58025 0.54438
 H4303 H 0.83371 0.57312 0.60611
 H4304 H 0.80186 0.58648 0.61788
 C4305 C 0.20454 1.10055 0.62516
 C4306 C 0.22220 1.09164 0.61804
 C4307 C 0.23840 1.10342 0.61189
 C4308 C 0.23673 1.12438 0.61344
 C4309 C 0.21907 1.13327 0.62050
 C4310 C 0.20277 1.12147 0.62639
 C4311 C 0.25695 1.09334 0.60464
 C4312 C 0.27033 1.10225 0.59265
 C4313 C 0.28924 1.09271 0.58572
 C4314 C 0.30487 1.10513 0.57942
 C4315 C 0.32291 1.09699 0.57249
 C4316 C 0.32569 1.07616 0.57147
 C4317 C 0.31005 1.06366 0.57769
 C4318 C 0.29196 1.07182 0.58470
 H4319 H 0.19218 1.09108 0.62952
 H4320 H 0.22315 1.07547 0.61718
 H4321 H 0.24911 1.13403 0.60970
 H4322 H 0.21833 1.14941 0.62177
 H4323 H 0.25940 1.07805 0.60935
 H4324 H 0.26770 1.11748 0.58784
 H4325 H 0.30318 1.12125 0.58002
 H4326 H 0.33478 1.10704 0.56810
 H4327 H 0.31164 1.04755 0.57676
 H4328 H 0.28010 1.06169 0.58881
 C4329 C 0.21899 0.64092 1.12278
 C4330 C 0.23763 0.63418 1.11592
 C4331 C 0.24181 0.61365 1.11434
 C4332 C 0.22710 0.59991 1.12039
 C4333 C 0.20845 0.60668 1.12738
 C4334 C 0.20415 0.62725 1.12847
 C4335 C 0.26180 0.60734 1.10678
 C4336 C 0.26544 0.58954 1.09803
 C4337 C 0.28539 0.58351 1.09007
 C4338 C 0.28978 0.56306 1.08791
 C4339 C 0.30839 0.55670 1.08053
 C4340 C 0.32298 0.57069 1.07496
 C4341 C 0.31845 0.59118 1.07672
 C4342 C 0.29986 0.59754 1.08411
 H4343 H 0.21623 0.65687 1.12381
 H4344 H 0.24877 0.64508 1.11161
 H4345 H 0.22994 0.58398 1.12003
 H4346 H 0.19729 0.59582 1.13169
 H4347 H 0.27376 0.61813 1.10814
 H4348 H 0.25350 0.57871 1.09672
 H4349 H 0.27883 0.55195 1.09212
 H4350 H 0.31131 0.54081 1.07904
 H4351 H 0.32941 0.60232 1.07262
 H4352 H 0.29688 0.61344 1.08483
 C4353 C 0.71830 0.85691 0.88257
 C4354 C 0.73641 0.86354 0.89086
 C4355 C 0.74021 0.88405 0.89321
 C4356 C 0.72524 0.89785 0.88738
 C4357 C 0.70709 0.89120 0.87910
 C4358 C 0.70341 0.87066 0.87658
 C4359 C 0.75967 0.89024 0.90227
 C4360 C 0.76778 0.90840 0.89980
 C4361 C 0.78744 0.91449 0.90852
 C4362 C 0.79169 0.93498 0.91013
 C4363 C 0.81015 0.94149 0.91772
 C4364 C 0.82490 0.92764 0.92379
 C4365 C 0.82071 0.90712 0.92216
 C4366 C 0.80225 0.90059 0.91454
 H4367 H 0.71604 0.84099 0.88063
 H4368 H 0.74761 0.85257 0.89529
 H4369 H 0.72720 0.91375 0.88955
 H4370 H 0.69576 0.90215 0.87501
 H4371 H 0.76762 0.87908 0.91099
 H4372 H 0.75980 0.91952 0.89106
 H4373 H 0.78065 0.94603 0.90554
 H4374 H 0.81286 0.95741 0.91895
 H4375 H 0.83193 0.89608 0.92631
 H4376 H 0.79998 0.88467 0.91295
 C4377 C 0.71808 0.35904 0.38619
 C4378 C 0.73606 0.36593 0.39456
 C4379 C 0.73950 0.38649 0.39701
 C4380 C 0.72427 0.40007 0.39138
 C4381 C 0.70626 0.39317 0.38303
 C4382 C 0.70301 0.37259 0.38022
 C4383 C 0.75895 0.39299 0.40578
 C4384 C 0.76682 0.41120 0.40296
 C4385 C 0.78657 0.41749 0.41123
 C4386 C 0.79054 0.43801 0.41314
 C4387 C 0.80907 0.44465 0.42044
 C4388 C 0.82413 0.43089 0.42589
 C4389 C 0.82026 0.41034 0.42382
 C4390 C 0.80174 0.40369 0.41650
 H4391 H 0.71613 0.34310 0.38405
 H4392 H 0.74747 0.35513 0.39887
 H4393 H 0.72596 0.41599 0.39368
 H4394 H 0.69476 0.40396 0.37899
 H4395 H 0.76718 0.38202 0.41450
 H4396 H 0.75858 0.42218 0.39425
 H4397 H 0.77921 0.44897 0.40906
 H4398 H 0.81156 0.46058 0.42200
 H4399 H 0.83174 0.39938 0.42743
 H4400 H 0.79968 0.38777 0.41456
 C4401 C 0.22087 0.85517 0.37951
 C4402 C 0.23893 0.86201 0.38774
 C4403 C 0.24239 0.88255 0.39034
 C4404 C 0.22717 0.89617 0.38470
 C4405 C 0.20909 0.88931 0.37646
 C4406 C 0.20571 0.86873 0.37380
 C4407 C 0.26173 0.88894 0.39954
 C4408 C 0.26944 0.90734 0.39758
 C4409 C 0.28889 0.91368 0.40660
 C4410 C 0.29266 0.93423 0.40867
 C4411 C 0.31090 0.94101 0.41656
 C4412 C 0.32590 0.92737 0.42249
 C4413 C 0.32219 0.90680 0.42043
 C4414 C 0.30395 0.90000 0.41250
 H4415 H 0.21885 0.83923 0.37745
 H4416 H 0.25032 0.85117 0.39201
 H4417 H 0.22886 0.91208 0.38704
 H4418 H 0.19754 0.90011 0.37258
 H4419 H 0.26990 0.87775 0.40802
 H4420 H 0.26124 0.91850 0.38909
 H4421 H 0.28141 0.94512 0.40419
 H4422 H 0.31322 0.95696 0.41813
 H4423 H 0.33362 0.89593 0.42446
 H4424 H 0.30206 0.88406 0.41057
 C4425 C 0.22444 0.35490 0.87611
 C4426 C 0.24274 0.36219 0.88326
 C4427 C 0.24605 0.38283 0.88491
 C4428 C 0.23078 0.39612 0.87866
 C4429 C 0.21248 0.38881 0.87138
 C4430 C 0.20906 0.36812 0.87021
 C4431 C 0.26573 0.38972 0.89274
 C4432 C 0.26861 0.40762 0.90151
 C4433 C 0.28826 0.41421 0.90975
 C4434 C 0.29180 0.43477 0.91200
 C4435 C 0.31009 0.44165 0.91966
 C4436 C 0.32522 0.42807 0.92544
 C4437 C 0.32155 0.40748 0.92357
 C4438 C 0.30327 0.40059 0.91590
 H4439 H 0.22237 0.33888 0.87502
 H4440 H 0.25431 0.35163 0.88772
 H4441 H 0.23295 0.41213 0.87908
 H4442 H 0.20089 0.39934 0.86692
 H4443 H 0.27812 0.37926 0.89156
 H4444 H 0.25623 0.41811 0.90263
 H4445 H 0.28041 0.44558 0.90765
 H4446 H 0.31235 0.45761 0.92123
 H4447 H 0.33294 0.39664 0.92781
 H4448 H 0.30096 0.38462 0.91512
   
