data_POSCAR
  _audit_creation_date              2014-09-24
  _audit_creation_method            'ToBaCCo'
  _symmetry_space_group_name_H-M    'P1'
  _symmetry_Int_Tables_number       1
  _symmetry_cell_setting            triclinic
  loop_
  _symmetry_equiv_pos_as_xyz
 x,y,z
_cell_length_a 80.1199
_cell_length_b 80.3308
_cell_length_c 81.8571
_cell_angle_alpha 90.332200
_cell_angle_beta 89.910200
_cell_angle_gamma 89.877000
loop_
  _atom_site_label
  _atom_site_type_symbol
  _atom_site_fract_x
  _atom_site_fract_y
  _atom_site_fract_z
N1 N 0.17885 0.21903 0.22315
 N2 N 0.18503 0.20737 0.23260
 C3 C 0.17474 0.20519 0.24545
 C4 C 0.16133 0.21596 0.24384
 C5 C 0.16436 0.22452 0.22954
 H6 H 0.17662 0.19623 0.25508
 H7 H 0.15669 0.23420 0.22429
 Cu8 Cu 0.20548 0.19576 0.22650
 Cu9 Cu 0.19026 0.22666 0.20352
 Cu10 Cu 0.22703 0.20629 0.19299
 N11 N 0.22584 0.18400 0.22039
 N12 N 0.23414 0.18818 0.20718
 C13 C 0.24731 0.17792 0.20535
 C14 C 0.24732 0.16662 0.21809
 C15 C 0.23347 0.17091 0.22741
 H16 H 0.25617 0.17863 0.19541
 H17 H 0.22906 0.16473 0.23827
 N18 N 0.21773 0.22492 0.18025
 N19 N 0.20370 0.23258 0.18420
 C20 C 0.20074 0.24470 0.17329
 C21 C 0.21351 0.24473 0.16184
 C22 C 0.22405 0.23197 0.16670
 H23 H 0.19013 0.25300 0.17376
 H24 H 0.23550 0.22809 0.16084
 H25 H 0.20192 0.20431 0.19820
 H26 H 0.21404 0.21972 0.21047
 N27 N 0.68086 0.72343 0.72260
 N28 N 0.68535 0.70999 0.73055
 C29 C 0.67491 0.70784 0.74329
 C30 C 0.66327 0.72066 0.74333
 C31 C 0.66749 0.73028 0.72997
 H32 H 0.67581 0.69779 0.75197
 H33 H 0.66124 0.74138 0.72576
 Cu34 Cu 0.70448 0.69675 0.72339
 Cu35 Cu 0.69254 0.73120 0.70329
 Cu36 Cu 0.72708 0.70859 0.69070
 N37 N 0.72430 0.68449 0.71641
 N38 N 0.73299 0.68919 0.70362
 C39 C 0.74589 0.67867 0.70142
 C40 C 0.74535 0.66666 0.71349
 C41 C 0.73145 0.67080 0.72281
 H42 H 0.75506 0.67982 0.69181
 H43 H 0.72680 0.66427 0.73337
 N44 N 0.71912 0.72858 0.67924
 N45 N 0.70592 0.73715 0.68403
 C46 C 0.70361 0.75001 0.67380
 C47 C 0.71596 0.74957 0.66196
 C48 C 0.72558 0.73579 0.66583
 H49 H 0.69375 0.75913 0.67500
 H50 H 0.73640 0.73125 0.65927
 H51 H 0.70189 0.70831 0.69600
 H52 H 0.71546 0.72122 0.70961
 N53 N 0.32152 0.77553 0.72628
 N54 N 0.31722 0.78870 0.73489
 C55 C 0.32742 0.78999 0.74791
 C56 C 0.33875 0.77690 0.74742
 C57 C 0.33456 0.76800 0.73348
 H58 H 0.32664 0.79972 0.75704
 H59 H 0.34065 0.75697 0.72873
 Cu60 Cu 0.29884 0.80292 0.72804
 Cu61 Cu 0.31015 0.76919 0.70622
 Cu62 Cu 0.27712 0.79406 0.69393
 N63 N 0.28000 0.81655 0.72123
 N64 N 0.27166 0.81309 0.70784
 C65 C 0.25951 0.82448 0.70586
 C66 C 0.26016 0.83581 0.71875
 C67 C 0.27339 0.83026 0.72827
 H68 H 0.25087 0.82438 0.69575
 H69 H 0.27801 0.83578 0.73943
 N70 N 0.28459 0.77425 0.68156
 N71 N 0.29715 0.76480 0.68629
 C72 C 0.29929 0.75239 0.67537
 C73 C 0.28755 0.75406 0.66309
 C74 C 0.27842 0.76808 0.66747
 H75 H 0.30871 0.74282 0.67635
 H76 H 0.26815 0.77351 0.66082
 H77 H 0.30205 0.79282 0.70005
 H78 H 0.28736 0.77982 0.71227
 N79 N 0.81871 0.28089 0.22781
 N80 N 0.81454 0.29415 0.23635
 C81 C 0.82570 0.29638 0.24843
 C82 C 0.83762 0.28380 0.24751
 C83 C 0.83266 0.27419 0.23419
 H84 H 0.82511 0.30646 0.25718
 H85 H 0.83872 0.26319 0.22935
 Cu86 Cu 0.79501 0.30739 0.23091
 Cu87 Cu 0.80580 0.27349 0.20894
 Cu88 Cu 0.77136 0.29740 0.19845
 N89 N 0.77583 0.32080 0.22469
 N90 N 0.76668 0.31689 0.21195
 C91 C 0.75434 0.32816 0.21039
 C92 C 0.75580 0.33982 0.22286
 C93 C 0.76962 0.33471 0.23169
 H94 H 0.74491 0.32777 0.20097
 H95 H 0.77487 0.34074 0.24232
 N96 N 0.77810 0.27724 0.18629
 N97 N 0.79116 0.26810 0.19027
 C98 C 0.79238 0.25523 0.17971
 C99 C 0.77946 0.25627 0.16851
 C100 C 0.77068 0.27042 0.17312
 H101 H 0.80194 0.24575 0.18022
 H102 H 0.75973 0.27548 0.16728
 H103 H 0.79677 0.29679 0.20300
 H104 H 0.78327 0.28362 0.21627
 N105 N 0.82065 0.72311 0.27180
 N106 N 0.81624 0.71000 0.26320
 C107 C 0.82659 0.70843 0.25029
 C108 C 0.83813 0.72128 0.25082
 C109 C 0.83392 0.73032 0.26470
 H110 H 0.82567 0.69875 0.24112
 H111 H 0.84005 0.74132 0.26938
 Cu112 Cu 0.79731 0.69642 0.26975
 Cu113 Cu 0.80884 0.73000 0.29149
 Cu114 Cu 0.77504 0.70605 0.30342
 N115 N 0.77834 0.68305 0.27655
 N116 N 0.76971 0.68684 0.28972
 C117 C 0.75737 0.67566 0.29160
 C118 C 0.75826 0.66420 0.27888
 C119 C 0.77176 0.66933 0.26958
 H120 H 0.74834 0.67599 0.30141
 H121 H 0.77653 0.66346 0.25863
 N122 N 0.78247 0.72597 0.31560
 N123 N 0.79537 0.73501 0.31104
 C124 C 0.79733 0.74769 0.32166
 C125 C 0.78508 0.74667 0.33356
 C126 C 0.77587 0.73272 0.32929
 H127 H 0.80686 0.75712 0.32067
 H128 H 0.76520 0.72778 0.33571
 H129 H 0.80009 0.70663 0.29771
 H130 H 0.78595 0.71990 0.28518
 N131 N 0.31866 0.22147 -0.22337
 N132 N 0.31460 0.20885 -0.23281
 C133 C 0.32571 0.20771 -0.24515
 C134 C 0.33744 0.22033 -0.24338
 C135 C 0.33246 0.22877 -0.22932
 H136 H 0.32524 0.19832 -0.25463
 H137 H 0.33827 0.23952 -0.22378
 Cu138 Cu 0.29523 0.19509 -0.22803
 Cu139 Cu 0.30568 0.22771 -0.20419
 Cu140 Cu 0.27165 0.20305 -0.19473
 N141 N 0.27640 0.18103 -0.22214
 N142 N 0.26732 0.18417 -0.20911
 C143 C 0.25529 0.17257 -0.20785
 C144 C 0.25687 0.16150 -0.22082
 C145 C 0.27044 0.16730 -0.22963
 H146 H 0.24601 0.17234 -0.19827
 H147 H 0.27570 0.16184 -0.24058
 N148 N 0.27807 0.22271 -0.18169
 N149 N 0.29105 0.23207 -0.18529
 C150 C 0.29215 0.24449 -0.17425
 C151 C 0.27923 0.24296 -0.16309
 C152 C 0.27056 0.22895 -0.16824
 H153 H 0.30166 0.25399 -0.17440
 H154 H 0.25958 0.22367 -0.16265
 H155 H 0.29696 0.20396 -0.19955
 H156 H 0.28321 0.21781 -0.21193
 N157 N 0.68125 0.27740 -0.22046
 N158 N 0.68671 0.28957 -0.22965
 C159 C 0.67603 0.29176 -0.24216
 C160 C 0.66309 0.28033 -0.24074
 C161 C 0.66695 0.27144 -0.22673
 H162 H 0.67754 0.30112 -0.25146
 H163 H 0.65999 0.26135 -0.22139
 Cu164 Cu 0.70704 0.30166 -0.22422
 Cu165 Cu 0.69297 0.27011 -0.20100
 Cu166 Cu 0.72842 0.29193 -0.19006
 N167 N 0.72656 0.31427 -0.21728
 N168 N 0.73479 0.31042 -0.20396
 C169 C 0.74749 0.32116 -0.20195
 C170 C 0.74726 0.33244 -0.21469
 C171 C 0.73376 0.32764 -0.22419
 H172 H 0.75625 0.32071 -0.19194
 H173 H 0.72935 0.33355 -0.23520
 N174 N 0.72000 0.27284 -0.17755
 N175 N 0.70648 0.26453 -0.18173
 C176 C 0.70388 0.25233 -0.17082
 C177 C 0.71636 0.25294 -0.15913
 C178 C 0.72636 0.26614 -0.16385
 H179 H 0.69363 0.24365 -0.17139
 H180 H 0.73740 0.27065 -0.15773
 H181 H 0.70335 0.29314 -0.19590
 H182 H 0.71646 0.27811 -0.20787
 N183 N 0.17748 0.78065 0.27500
 N184 N 0.18458 0.79053 0.26431
 C185 C 0.17424 0.79261 0.25154
 C186 C 0.15982 0.78363 0.25444
 C187 C 0.16231 0.77622 0.26946
 H188 H 0.17691 0.80029 0.24105
 H189 H 0.15386 0.76794 0.27574
 Cu190 Cu 0.20642 0.80013 0.26822
 Cu191 Cu 0.18880 0.77370 0.29485
 Cu192 Cu 0.22515 0.79457 0.30465
 N193 N 0.22450 0.81435 0.27553
 N194 N 0.23177 0.81224 0.28974
 C195 C 0.24350 0.82403 0.29177
 C196 C 0.24361 0.83422 0.27807
 C197 C 0.23131 0.82755 0.26803
 H198 H 0.25118 0.82511 0.30255
 H199 H 0.22732 0.83200 0.25624
 N200 N 0.21614 0.77628 0.31799
 N201 N 0.20220 0.76844 0.31428
 C202 C 0.19939 0.75654 0.32545
 C203 C 0.21219 0.75684 0.33683
 C204 C 0.22258 0.76957 0.33166
 H205 H 0.18889 0.74815 0.32514
 H206 H 0.23405 0.77362 0.33733
 H207 H 0.20069 0.79650 0.29707
 H208 H 0.21327 0.77890 0.28825
 N209 N 0.46940 0.42893 0.47637
 N210 N 0.45559 0.43304 0.48410
 C211 C 0.45267 0.42185 0.49596
 C212 C 0.46540 0.41019 0.49570
 C213 C 0.47583 0.41510 0.48314
 H214 H 0.44223 0.42227 0.50434
 H215 H 0.48707 0.40889 0.47902
 Cu216 Cu 0.44324 0.45295 0.47817
 Cu217 Cu 0.47762 0.44140 0.45765
 Cu218 Cu 0.45512 0.47660 0.44661
 N219 N 0.43090 0.47287 0.47230
 N220 N 0.43563 0.48212 0.45995
 C221 C 0.42522 0.49523 0.45869
 C222 C 0.41331 0.49421 0.47095
 C223 C 0.41735 0.47981 0.47934
 H224 H 0.42642 0.50489 0.44963
 H225 H 0.41092 0.47474 0.48978
 N226 N 0.47520 0.46888 0.43473
 N227 N 0.48381 0.45559 0.43903
 C228 C 0.49652 0.45341 0.42845
 C229 C 0.49595 0.46590 0.41686
 C230 C 0.48224 0.47549 0.42130
 H231 H 0.50542 0.44332 0.42908
 H232 H 0.47754 0.48635 0.41508
 H233 H 0.46789 0.46419 0.46472
 H234 H 0.45487 0.45125 0.45071
 N235 N -0.02949 -0.06881 0.97221
 N236 N -0.04298 -0.06411 0.98017
 C237 C -0.04578 -0.07476 0.99250
 C238 C -0.03342 -0.08686 0.99230
 C239 C -0.02328 -0.08262 0.97921
 H240 H -0.05602 -0.07371 1.00104
 H241 H -0.01226 -0.08913 0.97498
 Cu242 Cu -0.05565 -0.04457 0.97370
 Cu243 Cu -0.02106 -0.05667 0.95335
 Cu244 Cu -0.04320 -0.02149 0.94191
 N245 N -0.06765 -0.02455 0.96736
 N246 N -0.06274 -0.01566 0.95484
 C247 C -0.07309 -0.00260 0.95305
 C248 C -0.08519 -0.00326 0.96513
 C249 C -0.08130 -0.01739 0.97401
 H250 H -0.07173 0.00680 0.94375
 H251 H -0.08798 -0.02217 0.98445
 N252 N -0.02312 -0.02932 0.93031
 N253 N -0.01462 -0.04267 0.93461
 C254 C -0.00158 -0.04458 0.92432
 C255 C -0.00188 -0.03178 0.91301
 C256 C -0.01576 -0.02240 0.91724
 H257 H 0.00752 -0.05448 0.92510
 H258 H -0.02027 -0.01137 0.91119
 H259 H -0.03067 -0.03390 0.96039
 H260 H -0.04370 -0.04687 0.94636
 N261 N 1.02669 0.56750 0.96818
 N262 N 1.03984 0.56377 0.97702
 C263 C 1.04142 0.57509 0.98910
 C264 C 1.02857 0.58657 0.98780
 C265 C 1.01945 0.58131 0.97436
 H266 H 1.05113 0.57491 0.99824
 H267 H 1.00849 0.58719 0.96928
 Cu268 Cu 1.05366 0.54452 0.97187
 Cu269 Cu 1.02015 0.55435 0.94918
 Cu270 Cu 1.04442 0.51971 0.93997
 N271 N 1.06690 0.52484 0.96681
 N272 N 1.06328 0.51522 0.95428
 C273 C 1.07440 0.50266 0.95348
 C274 C 1.08563 0.50445 0.96623
 C275 C 1.08044 0.51868 0.97444
 H276 H 1.07421 0.49289 0.94435
 H277 H 1.08620 0.52426 0.98506
 N278 N 1.02483 0.52631 0.92696
 N279 N 1.01560 0.53948 0.93045
 C280 C 1.00335 0.54075 0.91928
 C281 C 1.00489 0.52775 0.90819
 C282 C 1.01866 0.51884 0.91349
 H283 H 0.99394 0.55041 0.91928
 H284 H 1.02396 0.50785 0.90783
 H285 H 1.03021 0.53218 0.95728
 H286 H 1.04363 0.54518 0.94376
 N287 N 0.52816 0.07229 0.47353
 N288 N 0.54060 0.06726 0.48272
 C289 C 0.54252 0.07803 0.49524
 C290 C 0.53062 0.09051 0.49384
 C291 C 0.52173 0.08639 0.47989
 H292 H 0.55202 0.07700 0.50453
 H293 H 0.51127 0.09305 0.47475
 Cu294 Cu 0.55329 0.04747 0.47684
 Cu295 Cu 0.52110 0.06018 0.45405
 Cu296 Cu 0.54132 0.02272 0.44596
 N297 N 0.56601 0.02769 0.47096
 N298 N 0.56139 0.01814 0.45870
 C299 C 0.57228 0.00543 0.45716
 C300 C 0.58444 0.00712 0.46910
 C301 C 0.58002 0.02144 0.47759
 H302 H 0.57129 -0.00437 0.44811
 H303 H 0.58660 0.02699 0.48776
 N304 N 0.52329 0.03163 0.43204
 N305 N 0.51579 0.04596 0.43507
 C306 C 0.50426 0.04871 0.42347
 C307 C 0.50444 0.03551 0.41250
 C308 C 0.51674 0.02492 0.41836
 H309 H 0.49628 0.05954 0.42313
 H310 H 0.52068 0.01320 0.41307
 H311 H 0.52841 0.03751 0.46270
 H312 H 0.54351 0.04805 0.44881
 N313 N -0.02991 0.06758 0.52458
 N314 N -0.04331 0.06257 0.51676
 C315 C -0.04592 0.07258 0.50387
 C316 C -0.03349 0.08455 0.50357
 C317 C -0.02354 0.08094 0.51694
 H318 H -0.05601 0.07114 0.49525
 H319 H -0.01254 0.08757 0.52093
 Cu320 Cu -0.05601 0.04338 0.52403
 Cu321 Cu -0.02173 0.05636 0.54404
 Cu322 Cu -0.04373 0.02168 0.55692
 N323 N -0.06794 0.02366 0.53117
 N324 N -0.06315 0.01526 0.54407
 C325 C -0.07350 0.00228 0.54624
 C326 C -0.08544 0.00249 0.53400
 C327 C -0.08148 0.01627 0.52467
 H328 H -0.07226 -0.00676 0.55589
 H329 H -0.08802 0.02067 0.51400
 N330 N -0.02378 0.03013 0.56831
 N331 N -0.01543 0.04335 0.56344
 C332 C -0.00256 0.04595 0.57370
 C333 C -0.00276 0.03378 0.58562
 C334 C -0.01642 0.02397 0.58177
 H335 H 0.00640 0.05590 0.57248
 H336 H -0.02078 0.01321 0.58837
 H337 H -0.03118 0.03320 0.53799
 H338 H -0.04441 0.04675 0.55139
 N339 N 0.46851 0.56941 0.02638
 N340 N 0.45508 0.56434 0.01865
 C341 C 0.45209 0.57462 0.00604
 C342 C 0.46430 0.58684 0.00583
 C343 C 0.47451 0.58306 0.01898
 H344 H 0.44177 0.57328 -0.00234
 H345 H 0.48549 0.58970 0.02295
 Cu346 Cu 0.44280 0.54485 0.02588
 Cu347 Cu 0.47720 0.55804 0.04552
 Cu348 Cu 0.45591 0.52293 0.05833
 N349 N 0.43124 0.52488 0.03298
 N350 N 0.43638 0.51642 0.04571
 C351 C 0.42620 0.50333 0.04800
 C352 C 0.41399 0.50354 0.03603
 C353 C 0.41763 0.51742 0.02671
 H354 H 0.42771 0.49427 0.05759
 H355 H 0.41078 0.52186 0.01623
 N356 N 0.47594 0.53150 0.06948
 N357 N 0.48403 0.54487 0.06461
 C358 C 0.49700 0.54759 0.07473
 C359 C 0.49712 0.53534 0.08657
 C360 C 0.48356 0.52536 0.08281
 H361 H 0.50575 0.55771 0.07350
 H362 H 0.47940 0.51452 0.08942
 H363 H 0.46797 0.53482 0.03935
 H364 H 0.45477 0.54803 0.05310
 N365 N 0.53124 -0.06830 0.02719
 N366 N 0.54427 -0.06271 0.01918
 C367 C 0.54763 -0.07311 0.00663
 C368 C 0.53606 -0.08593 0.00672
 C369 C 0.52585 -0.08240 0.02000
 H370 H 0.55772 -0.07139 -0.00197
 H371 H 0.51530 -0.08955 0.02423
 Cu372 Cu 0.55560 -0.04241 0.02593
 Cu373 Cu 0.52216 -0.05691 0.04629
 Cu374 Cu 0.54259 -0.02120 0.05918
 N375 N 0.56714 -0.02257 0.03361
 N376 N 0.56206 -0.01441 0.04665
 C377 C 0.57221 -0.00135 0.04928
 C378 C 0.58436 -0.00126 0.03722
 C379 C 0.58072 -0.01496 0.02749
 H380 H 0.57071 0.00752 0.05916
 H381 H 0.58755 -0.01917 0.01684
 N382 N 0.52266 -0.03004 0.07023
 N383 N 0.51489 -0.04364 0.06535
 C384 C 0.50179 -0.04639 0.07531
 C385 C 0.50125 -0.03389 0.08704
 C386 C 0.51470 -0.02377 0.08340
 H387 H 0.49318 -0.05663 0.07400
 H388 H 0.51852 -0.01270 0.08994
 H389 H 0.53045 -0.03337 0.04033
 H390 H 0.54449 -0.04625 0.05339
 N391 N 1.02922 0.43123 0.52499
 N392 N 1.04202 0.43579 0.51603
 C393 C 1.04419 0.42471 0.50384
 C394 C 1.03211 0.41247 0.50514
 C395 C 1.02278 0.41708 0.51874
 H396 H 1.05384 0.42553 0.49465
 H397 H 1.01226 0.41053 0.52387
 Cu398 Cu 1.05494 0.45558 0.52114
 Cu399 Cu 1.02217 0.44392 0.54421
 Cu400 Cu 1.04557 0.47881 0.55420
 N401 N 1.06813 0.47493 0.52720
 N402 N 1.06450 0.48393 0.54016
 C403 C 1.07567 0.49636 0.54156
 C404 C 1.08695 0.49510 0.52875
 C405 C 1.08173 0.48131 0.51990
 H406 H 1.07549 0.50567 0.55114
 H407 H 1.08753 0.47617 0.50906
 N408 N 1.02599 0.47166 0.56692
 N409 N 1.01707 0.45839 0.56317
 C410 C 1.00464 0.45686 0.57416
 C411 C 1.00574 0.46980 0.58539
 C412 C 1.01946 0.47891 0.58036
 H413 H 0.99538 0.44711 0.57393
 H414 H 1.02444 0.48995 0.58614
 H415 H 1.03138 0.46663 0.53675
 H416 H 1.04552 0.45345 0.54939
 C417 C 0.39861 0.00813 0.22943
 H418 H 0.39921 0.01907 0.23716
 C419 C 0.40946 0.00649 0.21617
 H420 H 0.41821 0.01640 0.21362
 C421 C 0.38643 -0.01807 0.22347
 H422 H 0.37769 -0.02777 0.22656
 C423 C 0.39705 -0.02021 0.21006
 H424 H 0.39634 -0.03158 0.20293
 N425 N 0.38733 -0.00401 0.23277
 C426 C 0.34854 0.02101 0.26134
 H427 H 0.34837 0.01331 0.27214
 C428 C 0.33751 0.03442 0.26004
 H429 H 0.32901 0.03710 0.27001
 C430 C 0.35994 0.02686 0.23528
 H431 H 0.36847 0.02371 0.22551
 C432 C 0.34916 0.04041 0.23349
 H433 H 0.34955 0.04755 0.22232
 Zn434 Zn 0.37394 -0.00099 0.25163
 N435 N 0.35958 0.01759 0.24913
 C436 C 0.38818 0.01631 0.27875
 N437 N 0.38877 0.00232 0.26933
 C438 C 0.40050 -0.00965 0.27185
 C439 C 0.41196 -0.00805 0.28457
 C440 C 0.39948 0.01846 0.29157
 C441 C 0.34864 -0.02394 0.24413
 C442 C 0.33833 -0.03773 0.24645
 C443 C 0.35225 -0.04283 0.27210
 C444 C 0.36226 -0.02894 0.26931
 N445 N 0.36046 -0.01994 0.25539
 H446 H 0.37901 0.02585 0.27634
 H447 H 0.40088 -0.02049 0.26396
 H448 H 0.42123 -0.01770 0.28635
 H449 H 0.39869 0.02955 0.29911
 H450 H 0.34731 -0.01643 0.23328
 H451 H 0.32919 -0.04090 0.23722
 H452 H 0.35380 -0.04975 0.28331
 H453 H 0.37134 -0.02531 0.27837
 C454 C 0.33777 0.04437 0.24599
 C455 C 0.40881 -0.00785 0.20630
 C456 C 0.34014 -0.04744 0.26056
 C457 C 0.41152 0.00613 0.29466
 C458 C 0.09894 -0.01052 0.72733
 H459 H 0.09871 -0.02190 0.73433
 C460 C 0.08759 -0.00822 0.71462
 H461 H 0.07877 -0.01801 0.71177
 C462 C 0.11090 0.01595 0.72250
 H463 H 0.11982 0.02545 0.72575
 C464 C 0.09980 0.01875 0.70965
 H465 H 0.10031 0.03044 0.70314
 N466 N 0.11043 0.00139 0.73089
 C467 C 0.15210 -0.02454 0.75375
 H468 H 0.15335 -0.01731 0.76487
 C469 C 0.16296 -0.03780 0.75064
 H470 H 0.17247 -0.04082 0.75953
 C471 C 0.13797 -0.02948 0.72878
 H472 H 0.12837 -0.02607 0.72018
 C473 C 0.14851 -0.04288 0.72522
 H474 H 0.14690 -0.04965 0.71386
 Zn475 Zn 0.12533 -0.00286 0.74834
 N476 N 0.13975 -0.02080 0.74298
 C477 C 0.11424 -0.02312 0.77457
 N478 N 0.11229 -0.00826 0.76690
 C479 C 0.10062 0.00295 0.77199
 C480 C 0.09070 -0.00037 0.78563
 C481 C 0.10452 -0.02698 0.78821
 C482 C 0.14987 0.02083 0.74100
 C483 C 0.16028 0.03451 0.74367
 C484 C 0.14807 0.03780 0.77050
 C485 C 0.13794 0.02405 0.76734
 N486 N 0.13884 0.01600 0.75269
 H487 H 0.12329 -0.03204 0.77014
 H488 H 0.09910 0.01453 0.76548
 H489 H 0.08148 0.00871 0.78951
 H490 H 0.10645 -0.03875 0.79432
 H491 H 0.15052 0.01405 0.72956
 H492 H 0.16878 0.03833 0.73411
 H493 H 0.14725 0.04396 0.78228
 H494 H 0.12949 0.01976 0.77668
 C495 C 0.16114 -0.04726 0.73628
 C496 C 0.08798 0.00655 0.70552
 C497 C 0.15939 0.04325 0.75856
 C498 C 0.09265 -0.01548 0.79397
 C499 C 0.59587 0.49523 0.23122
 H500 H 0.59508 0.48429 0.23883
 C501 C 0.58489 0.49718 0.21816
 H502 H 0.57579 0.48755 0.21566
 C503 C 0.60890 0.52093 0.22520
 H504 H 0.61811 0.53028 0.22813
 C505 C 0.59817 0.52338 0.21198
 H506 H 0.59925 0.53464 0.20485
 N507 N 0.60770 0.50692 0.23437
 C508 C 0.64734 0.48008 0.25953
 H509 H 0.64839 0.48731 0.27067
 C510 C 0.65792 0.46647 0.25686
 H511 H 0.66696 0.46318 0.26611
 C512 C 0.63422 0.47561 0.23396
 H513 H 0.62522 0.47938 0.22491
 C514 C 0.64450 0.46191 0.23081
 H515 H 0.64325 0.45529 0.21932
 Zn516 Zn 0.62192 0.50302 0.25240
 N517 N 0.63566 0.48425 0.24823
 C518 C 0.60904 0.48519 0.27970
 N519 N 0.60801 0.49938 0.27076
 C520 C 0.59655 0.51136 0.27435
 C521 C 0.58583 0.50956 0.28767
 C522 C 0.59853 0.48286 0.29313
 C523 C 0.64755 0.52547 0.24466
 C524 C 0.65836 0.53889 0.24706
 C525 C 0.64561 0.54369 0.27343
 C526 C 0.63508 0.53018 0.27054
 N527 N 0.63606 0.52152 0.25624
 H528 H 0.61799 0.47566 0.27647
 H529 H 0.59579 0.52237 0.26684
 H530 H 0.57675 0.51922 0.29027
 H531 H 0.59973 0.47163 0.30029
 H532 H 0.64825 0.51821 0.23350
 H533 H 0.66723 0.54202 0.23757
 H534 H 0.64471 0.55033 0.28494
 H535 H 0.62624 0.52658 0.27983
 C536 C 0.65650 0.45715 0.24236
 C537 C 0.58600 0.51138 0.20829
 C538 C 0.65740 0.54825 0.26157
 C539 C 0.58679 0.49520 0.29733
 C540 C 0.89794 0.50695 0.72390
 H541 H 0.89894 0.51832 0.73099
 C542 C 0.90838 0.50434 0.71042
 H543 H 0.91727 0.51388 0.70708
 C544 C 0.88508 0.48076 0.71966
 H545 H 0.87623 0.47143 0.72345
 C546 C 0.89523 0.47766 0.70610
 H547 H 0.89403 0.46593 0.69963
 N548 N 0.88644 0.49531 0.72814
 C549 C 0.84689 0.52103 0.75500
 H550 H 0.84633 0.51321 0.76570
 C551 C 0.83573 0.53426 0.75335
 H552 H 0.82673 0.53668 0.76296
 C553 C 0.85946 0.52736 0.72957
 H554 H 0.86854 0.52446 0.72021
 C555 C 0.84854 0.54077 0.72743
 H556 H 0.84935 0.54807 0.71638
 Zn557 Zn 0.87275 0.49937 0.74668
 N558 N 0.85855 0.51792 0.74328
 C559 C 0.88556 0.51784 0.77348
 N560 N 0.88683 0.50335 0.76487
 C561 C 0.89838 0.49162 0.76885
 C562 C 0.90887 0.49401 0.78228
 C563 C 0.89577 0.52072 0.78700
 C564 C 0.84681 0.47757 0.73913
 C565 C 0.83574 0.46436 0.74125
 C566 C 0.84910 0.45832 0.76699
 C567 C 0.85990 0.47168 0.76439
 N568 N 0.85869 0.48087 0.75053
 H569 H 0.87667 0.52724 0.76989
 H570 H 0.89929 0.48031 0.76166
 H571 H 0.91773 0.48437 0.78547
 H572 H 0.89460 0.53236 0.79364
 H573 H 0.84599 0.48522 0.72832
 H574 H 0.82657 0.46177 0.73189
 H575 H 0.85015 0.45123 0.77815
 H576 H 0.86912 0.47475 0.77352
 C577 C 0.83647 0.54436 0.73942
 C578 C 0.90704 0.48955 0.70127
 C579 C 0.83682 0.45451 0.75533
 C580 C 0.90754 0.50867 0.79164
 C581 C 0.22569 0.39762 0.00703
 H582 H 0.23274 0.39895 0.01822
 C583 C 0.21184 0.40780 0.00423
 H584 H 0.20815 0.41681 0.01344
 C585 C 0.22203 0.38427 -0.01860
 H586 H 0.22624 0.37537 -0.02764
 C587 C 0.20810 0.39415 -0.02188
 H588 H 0.20172 0.39269 -0.03345
 N589 N 0.23042 0.38605 -0.00426
 C590 C 0.25907 0.34872 0.02230
 H591 H 0.27037 0.34853 0.01505
 C592 C 0.25741 0.33797 0.03555
 H593 H 0.26748 0.32945 0.03835
 C594 C 0.23202 0.35972 0.02703
 H595 H 0.22207 0.36807 0.02357
 C596 C 0.22981 0.34915 0.04035
 H597 H 0.21825 0.34972 0.04720
 Zn598 Zn 0.24980 0.37328 0.00005
 N599 N 0.24655 0.35943 0.01842
 C600 C 0.27645 0.38805 0.01793
 N601 N 0.26748 0.38840 0.00384
 C602 C 0.27057 0.39996 -0.00785
 C603 C 0.28341 0.41150 -0.00580
 C604 C 0.28943 0.39933 0.02046
 C605 C 0.24375 0.34699 -0.02171
 C606 C 0.24677 0.33622 -0.03484
 C607 C 0.27280 0.35049 -0.03973
 C608 C 0.26927 0.36100 -0.02653
 N609 N 0.25483 0.35923 -0.01795
 H610 H 0.27353 0.37908 0.02728
 H611 H 0.26309 0.40010 -0.01884
 H612 H 0.28589 0.42037 -0.01540
 H613 H 0.29640 0.39890 0.03178
 H614 H 0.23251 0.34566 -0.01449
 H615 H 0.23782 0.32653 -0.03760
 H616 H 0.28421 0.35232 -0.04660
 H617 H 0.27810 0.37055 -0.02316
 C618 C 0.24263 0.33812 0.04479
 C619 C 0.20283 0.40611 -0.01039
 C620 C 0.26144 0.33794 -0.04409
 C621 C 0.29311 0.41121 0.00847
 C622 C 0.72819 0.10224 -0.00440
 H623 H 0.73589 0.10184 -0.01527
 C624 C 0.71484 0.09126 -0.00279
 H625 H 0.71216 0.08260 -0.01263
 C626 C 0.72248 0.11403 0.02162
 H627 H 0.72572 0.12267 0.03126
 C628 C 0.70896 0.10328 0.02373
 H629 H 0.70190 0.10378 0.03501
 N630 N 0.73171 0.11338 0.00767
 C631 C 0.76027 0.15225 -0.01663
 H632 H 0.77138 0.15239 -0.00914
 C633 C 0.75884 0.16318 -0.02975
 H634 H 0.76888 0.17182 -0.03222
 C635 C 0.73352 0.14106 -0.02220
 H636 H 0.72361 0.13254 -0.01914
 C637 C 0.73155 0.15181 -0.03541
 H638 H 0.72022 0.15119 -0.04257
 Zn639 Zn 0.75081 0.12682 0.00465
 N640 N 0.74782 0.14131 -0.01326
 C641 C 0.77820 0.11300 -0.01314
 N642 N 0.76887 0.11213 0.00073
 C643 C 0.77172 0.10017 0.01208
 C644 C 0.78462 0.08867 0.00990
 C645 C 0.79125 0.10176 -0.01580
 C646 C 0.74358 0.15174 0.02783
 C647 C 0.74646 0.16215 0.04126
 C648 C 0.77316 0.14870 0.04503
 C649 C 0.76975 0.13853 0.03157
 N650 N 0.75509 0.14010 0.02336
 H651 H 0.77546 0.12228 -0.02224
 H652 H 0.76396 0.09963 0.02289
 H653 H 0.78687 0.07942 0.01922
 H654 H 0.79847 0.10255 -0.02696
 H655 H 0.73217 0.15296 0.02088
 H656 H 0.73721 0.17143 0.04455
 H657 H 0.78482 0.14711 0.05151
 H658 H 0.77893 0.12950 0.02763
 C659 C 0.74435 0.16300 -0.03939
 C660 C 0.70505 0.09164 0.01145
 C661 C 0.76144 0.16071 0.05004
 C662 C 0.79462 0.08941 -0.00418
 C663 C 0.22647 0.60340 0.49082
 H664 H 0.23344 0.60255 0.47952
 C665 C 0.21285 0.59290 0.49346
 H666 H 0.20927 0.58412 0.48402
 C667 C 0.22271 0.61589 0.51687
 H668 H 0.22677 0.62457 0.52614
 C669 C 0.20902 0.60568 0.51999
 H670 H 0.20269 0.60669 0.53165
 N671 N 0.23100 0.61474 0.50238
 C672 C 0.25820 0.65370 0.47677
 H673 H 0.26934 0.65413 0.48421
 C674 C 0.25641 0.66462 0.46370
 H675 H 0.26620 0.67353 0.46122
 C676 C 0.23171 0.64183 0.47136
 H677 H 0.22205 0.63305 0.47449
 C678 C 0.22937 0.65257 0.45818
 H679 H 0.21800 0.65173 0.45110
 Zn680 Zn 0.24979 0.62840 0.49832
 N681 N 0.24605 0.64246 0.48021
 C682 C 0.27643 0.61490 0.47961
 N683 N 0.26829 0.61425 0.49419
 C684 C 0.27270 0.60300 0.50578
 C685 C 0.28603 0.59208 0.50306
 C686 C 0.28978 0.60420 0.47636
 C687 C 0.24182 0.65402 0.51996
 C688 C 0.24367 0.66484 0.53322
 C689 C 0.27040 0.65213 0.53885
 C690 C 0.26800 0.64149 0.52549
 N691 N 0.25377 0.64247 0.51651
 H692 H 0.27252 0.62361 0.47038
 H693 H 0.26580 0.60250 0.51713
 H694 H 0.28929 0.58314 0.51237
 H695 H 0.29623 0.60509 0.46477
 H696 H 0.23076 0.65472 0.51242
 H697 H 0.23402 0.67396 0.53573
 H698 H 0.28166 0.65099 0.54606
 H699 H 0.27752 0.63249 0.52235
 C700 C 0.24187 0.66410 0.45417
 C701 C 0.20388 0.59404 0.50819
 C702 C 0.25807 0.66392 0.54292
 C703 C 0.29476 0.59260 0.48817
 C704 C 0.72548 0.89971 0.50449
 H705 H 0.73296 0.90116 0.51540
 C706 C 0.71169 0.91005 0.50197
 H707 H 0.70848 0.91931 0.51111
 C708 C 0.72064 0.88587 0.47931
 H709 H 0.72434 0.87669 0.47032
 C710 C 0.70674 0.89589 0.47632
 H711 H 0.69989 0.89426 0.46503
 N712 N 0.72959 0.88781 0.49330
 C713 C 0.75806 0.84977 0.51891
 H714 H 0.76896 0.84918 0.51110
 C715 C 0.75663 0.83896 0.53210
 H716 H 0.76662 0.83022 0.53452
 C717 C 0.73185 0.86199 0.52517
 H718 H 0.72209 0.87076 0.52224
 C719 C 0.72992 0.85141 0.53853
 H720 H 0.71862 0.85218 0.54578
 Zn721 Zn 0.74875 0.87455 0.49712
 N722 N 0.74584 0.86106 0.51576
 C723 C 0.77623 0.88862 0.51410
 N724 N 0.76711 0.88906 0.50010
 C725 C 0.77048 0.90031 0.48819
 C726 C 0.78371 0.91148 0.48997
 C727 C 0.78957 0.89953 0.51636
 C728 C 0.74088 0.84780 0.47681
 C729 C 0.74274 0.83641 0.46400
 C730 C 0.76854 0.84997 0.45662
 C731 C 0.76620 0.86110 0.46960
 N732 N 0.75242 0.85995 0.47925
 H733 H 0.77309 0.87993 0.52363
 H734 H 0.76288 0.90056 0.47728
 H735 H 0.78636 0.92016 0.48024
 H736 H 0.79657 0.89908 0.52766
 H737 H 0.73014 0.84706 0.48480
 H738 H 0.73324 0.82704 0.46208
 H739 H 0.77962 0.85100 0.44911
 H740 H 0.77544 0.87057 0.47198
 C741 C 0.74240 0.83968 0.54211
 C742 C 0.70208 0.90816 0.48773
 C743 C 0.75669 0.83744 0.45366
 C744 C 0.79349 0.91114 0.50419
 C745 C 0.00877 0.22690 0.40084
 H746 H 0.01973 0.23473 0.40134
 C747 C 0.00694 0.21389 0.41190
 H748 H 0.01670 0.21163 0.42076
 C749 C -0.01720 0.22040 0.38857
 H750 H -0.02673 0.22320 0.37967
 C751 C -0.01953 0.20722 0.39940
 H752 H -0.03088 0.19996 0.39870
 N753 N -0.00316 0.22985 0.38942
 C754 C 0.02517 0.25751 0.35309
 H755 H 0.01842 0.26919 0.35297
 C756 C 0.03926 0.25540 0.34322
 H757 H 0.04339 0.26551 0.33552
 C758 C 0.02775 0.22994 0.36294
 H759 H 0.02308 0.21996 0.37045
 C760 C 0.04169 0.22718 0.35302
 H761 H 0.04784 0.21516 0.35317
 Zn762 Zn 0.00038 0.24832 0.37564
 N763 N 0.01988 0.24497 0.36290
 C764 C 0.01691 0.27607 0.39033
 N765 N 0.00251 0.26715 0.38954
 C766 C -0.01061 0.27075 0.39953
 C767 C -0.00971 0.28400 0.41061
 C768 C 0.01837 0.28939 0.40128
 C769 C -0.02056 0.23849 0.35008
 C770 C -0.03343 0.23982 0.33868
 C771 C -0.03990 0.26709 0.34959
 C772 C -0.02690 0.26523 0.36079
 N773 N -0.01765 0.25101 0.36095
 H774 H 0.02740 0.27273 0.38269
 H775 H -0.02176 0.26321 0.39895
 H776 H -0.02023 0.28655 0.41856
 H777 H 0.02988 0.29642 0.40163
 H778 H -0.01279 0.22746 0.35026
 H779 H -0.03544 0.22977 0.33004
 H780 H -0.04727 0.27840 0.34983
 H781 H -0.02417 0.27522 0.36924
 C782 C 0.04764 0.24004 0.34309
 C783 C -0.00738 0.20386 0.41130
 C784 C -0.04333 0.25427 0.33835
 C785 C 0.00494 0.29350 0.41161
 C786 C -0.00532 0.72705 0.09490
 H787 H -0.01687 0.73403 0.09438
 C788 C -0.00272 0.71365 0.08425
 H789 H -0.01243 0.71026 0.07569
 C790 C 0.02127 0.72296 0.10685
 H791 H 0.03076 0.72683 0.11540
 C792 C 0.02439 0.70947 0.09646
 H793 H 0.03626 0.70306 0.09720
 N794 N 0.00647 0.73124 0.10611
 C795 C -0.02233 0.75669 0.14407
 H796 H -0.01573 0.76840 0.14479
 C797 C -0.03587 0.75373 0.15442
 H798 H -0.03959 0.76323 0.16313
 C799 C -0.02503 0.72983 0.13226
 H800 H -0.02059 0.72042 0.12384
 C801 C -0.03858 0.72633 0.14240
 H802 H -0.04467 0.71435 0.14137
 Zn803 Zn 0.00168 0.74947 0.12016
 N804 N -0.01729 0.74487 0.13317
 C805 C -0.01668 0.77665 0.10670
 N806 N -0.00197 0.76817 0.10670
 C807 C 0.01071 0.77243 0.09652
 C808 C 0.00905 0.78595 0.08603
 C809 C -0.01891 0.79025 0.09635
 C810 C 0.02459 0.74105 0.14462
 C811 C 0.03797 0.74335 0.15530
 C812 C 0.04026 0.77173 0.14595
 C813 C 0.02703 0.76880 0.13524
 N814 N 0.01967 0.75356 0.13458
 H815 H -0.02675 0.77285 0.11464
 H816 H 0.02217 0.76528 0.09658
 H817 H 0.01926 0.78905 0.07793
 H818 H -0.03062 0.79700 0.09665
 H819 H 0.01824 0.72919 0.14415
 H820 H 0.04192 0.73320 0.16305
 H821 H 0.04615 0.78385 0.14620
 H822 H 0.02263 0.77875 0.12754
 C823 C -0.04417 0.73836 0.15367
 C824 C 0.01225 0.70457 0.08505
 C825 C 0.04599 0.75884 0.15598
 C826 C -0.00591 0.79509 0.08588
 C827 C 0.49498 0.21896 0.61554
 H828 H 0.48490 0.21876 0.62430
 C829 C 0.49758 0.20520 0.60536
 H830 H 0.48944 0.19452 0.60642
 C831 C 0.51733 0.23333 0.60298
 H832 H 0.52494 0.24441 0.60214
 C833 C 0.52037 0.21986 0.59255
 H834 H 0.53051 0.22057 0.58383
 N835 N 0.50497 0.23257 0.61435
 C836 C 0.46937 0.25766 0.64147
 H837 H 0.46865 0.26780 0.63291
 C838 C 0.45584 0.25450 0.65177
 H839 H 0.44470 0.26207 0.65072
 C840 C 0.48467 0.23550 0.65323
 H841 H 0.49601 0.22819 0.65373
 C842 C 0.47146 0.23193 0.66377
 H843 H 0.47283 0.22194 0.67249
 Zn844 Zn 0.50175 0.25137 0.62803
 N845 N 0.48330 0.24797 0.64215
 C846 C 0.48496 0.26992 0.60404
 N847 N 0.49831 0.26994 0.61428
 C848 C 0.50962 0.28253 0.61407
 C849 C 0.50756 0.29594 0.60350
 C850 C 0.48226 0.28322 0.59345
 C851 C 0.53451 0.24512 0.64008
 C852 C 0.54841 0.24819 0.64990
 C853 C 0.53351 0.27111 0.66248
 C854 C 0.51993 0.26764 0.65237
 N855 N 0.52072 0.25496 0.64132
 H856 H 0.47635 0.25956 0.60418
 H857 H 0.52048 0.28206 0.62186
 H858 H 0.51696 0.30559 0.60332
 H859 H 0.47129 0.28313 0.58576
 H860 H 0.53476 0.23484 0.63153
 H861 H 0.55926 0.24020 0.64880
 H862 H 0.53276 0.28145 0.67099
 H863 H 0.50874 0.27518 0.65320
 C864 C 0.45672 0.24139 0.66302
 C865 C 0.51048 0.20550 0.59373
 C866 C 0.54804 0.26137 0.66124
 C867 C 0.49366 0.29651 0.59305
 C868 C 0.50998 0.72772 0.90302
 H869 H 0.52110 0.73531 0.90384
 C870 C 0.50781 0.71439 0.91364
 H871 H 0.51728 0.71188 0.92273
 C872 C 0.48396 0.72219 0.89042
 H873 H 0.47461 0.72537 0.88147
 C874 C 0.48126 0.70872 0.90083
 H875 H 0.46996 0.70147 0.89956
 N876 N 0.49826 0.73121 0.89155
 C877 C 0.52587 0.75661 0.85314
 H878 H 0.51891 0.76813 0.85228
 C879 C 0.53937 0.75366 0.84269
 H880 H 0.54288 0.76308 0.83394
 C881 C 0.52968 0.73032 0.86559
 H882 H 0.52566 0.72108 0.87426
 C883 C 0.54327 0.72688 0.85543
 H884 H 0.54958 0.71500 0.85645
 Zn885 Zn 0.50260 0.74956 0.87779
 N886 N 0.52139 0.74507 0.86440
 C887 C 0.52078 0.77718 0.89080
 N888 N 0.50647 0.76813 0.89157
 C889 C 0.49436 0.77180 0.90268
 C890 C 0.49615 0.78531 0.91330
 C891 C 0.52311 0.79082 0.90123
 C892 C 0.47977 0.74204 0.85279
 C893 C 0.46646 0.74484 0.84213
 C894 C 0.46292 0.77216 0.85414
 C895 C 0.47623 0.76882 0.86459
 N896 N 0.48424 0.75388 0.86388
 H897 H 0.53040 0.77387 0.88211
 H898 H 0.48323 0.76420 0.90322
 H899 H 0.48638 0.78796 0.92209
 H900 H 0.53443 0.79807 0.90026
 H901 H 0.48658 0.73040 0.85224
 H902 H 0.46312 0.73530 0.83334
 H903 H 0.45655 0.78403 0.85508
 H904 H 0.48019 0.77825 0.87319
 C905 C 0.54829 0.73863 0.84380
 C906 C 0.49335 0.70461 0.91256
 C907 C 0.45784 0.76007 0.84275
 C908 C 0.51063 0.79510 0.91259
 C909 C 0.13128 0.22288 0.24870
 C910 C 0.11752 0.22460 0.25908
 C911 C 0.11914 0.22178 0.27589
 C912 C 0.13468 0.21672 0.28211
 C913 C 0.14837 0.21465 0.27166
 C914 C 0.14683 0.21785 0.25488
 C915 C 0.10434 0.22371 0.28654
 C916 C 0.10530 0.22987 0.30175
 C917 C 0.09039 0.23232 0.31215
 C918 C 0.08964 0.24610 0.32274
 C919 C 0.07565 0.24874 0.33265
 C920 C 0.06236 0.23737 0.33247
 C921 C 0.06325 0.22339 0.32213
 C922 C 0.07708 0.22093 0.31197
 H923 H 0.12969 0.22524 0.23578
 H924 H 0.10562 0.22834 0.25401
 H925 H 0.13619 0.21411 0.29499
 H926 H 0.16021 0.21076 0.27675
 H927 H 0.09222 0.22101 0.28132
 H928 H 0.11719 0.23426 0.30635
 H929 H 0.09982 0.25495 0.32316
 H930 H 0.07529 0.25953 0.34065
 H931 H 0.05313 0.21447 0.32180
 H932 H 0.07748 0.20999 0.30419
 C933 C 0.64067 0.73883 0.75502
 C934 C 0.62730 0.74155 0.76566
 C935 C 0.62223 0.72916 0.77659
 C936 C 0.63079 0.71383 0.77654
 C937 C 0.64421 0.71111 0.76587
 C938 C 0.64928 0.72356 0.75494
 C939 C 0.60765 0.73263 0.78729
 C940 C 0.60430 0.72428 0.80105
 C941 C 0.58980 0.72821 0.81171
 C942 C 0.59048 0.72384 0.82826
 C943 C 0.57707 0.72729 0.83870
 C944 C 0.56261 0.73510 0.83276
 C945 C 0.56182 0.73929 0.81614
 C946 C 0.57521 0.73582 0.80570
 H947 H 0.64423 0.74880 0.74692
 H948 H 0.62090 0.75344 0.76538
 H949 H 0.62700 0.70376 0.78441
 H950 H 0.65038 0.69912 0.76601
 H951 H 0.59985 0.74309 0.78399
 H952 H 0.61288 0.71482 0.80526
 H953 H 0.60150 0.71787 0.83319
 H954 H 0.57810 0.72401 0.85147
 H955 H 0.55068 0.74496 0.81113
 H956 H 0.57390 0.73881 0.79290
 C957 C 0.36141 0.75823 0.75804
 C958 C 0.37450 0.75492 0.76880
 C959 C 0.37913 0.76661 0.78073
 C960 C 0.37006 0.78159 0.78196
 C961 C 0.35695 0.78491 0.77120
 C962 C 0.35251 0.77332 0.75903
 C963 C 0.39313 0.76249 0.79184
 C964 C 0.40211 0.77399 0.79988
 C965 C 0.41636 0.76988 0.81069
 C966 C 0.42820 0.78229 0.81405
 C967 C 0.44172 0.77908 0.82433
 C968 C 0.44365 0.76338 0.83159
 C969 C 0.43176 0.75098 0.82834
 C970 C 0.41821 0.75419 0.81808
 H971 H 0.35829 0.74887 0.74902
 H972 H 0.38114 0.74320 0.76769
 H973 H 0.37284 0.79071 0.79133
 H974 H 0.35038 0.79663 0.77243
 H975 H 0.39666 0.74951 0.79263
 H976 H 0.39956 0.78705 0.79789
 H977 H 0.42705 0.79449 0.80860
 H978 H 0.45075 0.78885 0.82648
 H979 H 0.43273 0.73888 0.83403
 H980 H 0.40908 0.74446 0.81631
 C981 C -0.14501 0.29273 0.27063
 C982 C -0.13117 0.29052 0.28073
 C983 C -0.12037 0.27697 0.27846
 C984 C -0.12355 0.26573 0.26561
 C985 C -0.13739 0.26794 0.25543
 C986 C -0.14840 0.28148 0.25777
 C987 C -0.10575 0.27538 0.28945
 C988 C -0.09780 0.26097 0.29230
 C989 C -0.08362 0.25956 0.30385
 C990 C -0.08046 0.24417 0.31127
 C991 C -0.06738 0.24242 0.32243
 C992 C -0.05707 0.25602 0.32630
 C993 C -0.06000 0.27133 0.31858
 C994 C -0.07307 0.27308 0.30744
 H995 H -0.15290 0.30338 0.27304
 H996 H -0.12894 0.29945 0.29046
 H997 H -0.11524 0.25539 0.26314
 H998 H -0.13928 0.25898 0.24571
 H999 H -0.10209 0.28643 0.29615
 H1000 H -0.10241 0.24958 0.28684
 H1001 H -0.08830 0.23353 0.30863
 H1002 H -0.06552 0.23049 0.32823
 H1003 H -0.05202 0.28192 0.32099
 H1004 H -0.07468 0.28497 0.30151
 C1005 C -0.13911 0.73968 0.24004
 C1006 C -0.12618 0.74293 0.22906
 C1007 C -0.12183 0.73127 0.21695
 C1008 C -0.13096 0.71636 0.21585
 C1009 C -0.14391 0.71311 0.22684
 C1010 C -0.14813 0.72470 0.23912
 C1011 C -0.10809 0.73539 0.20551
 C1012 C -0.09936 0.72390 0.19712
 C1013 C -0.08536 0.72805 0.18599
 C1014 C -0.07340 0.71576 0.18249
 C1015 C -0.06003 0.71909 0.17203
 C1016 C -0.05840 0.73480 0.16474
 C1017 C -0.07049 0.74706 0.16806
 C1018 C -0.08388 0.74372 0.17850
 H1019 H -0.14205 0.74903 0.24916
 H1020 H -0.11949 0.75459 0.23008
 H1021 H -0.12839 0.70727 0.20638
 H1022 H -0.15056 0.70146 0.22567
 H1023 H -0.10454 0.74835 0.20472
 H1024 H -0.10185 0.71083 0.19908
 H1025 H -0.07429 0.70356 0.18800
 H1026 H -0.05084 0.70944 0.16984
 H1027 H -0.06976 0.75916 0.16235
 H1028 H -0.09315 0.75335 0.18039
 C1029 C 0.36220 0.23706 0.75018
 C1030 C 0.37576 0.24063 0.74006
 C1031 C 0.37887 0.23116 0.72595
 C1032 C 0.36789 0.21810 0.72201
 C1033 C 0.35433 0.21446 0.73215
 C1034 C 0.35122 0.22388 0.74643
 C1035 C 0.39328 0.23572 0.71548
 C1036 C 0.40032 0.22537 0.70452
 C1037 C 0.41480 0.22996 0.69415
 C1038 C 0.42445 0.21718 0.68713
 C1039 C 0.43807 0.22088 0.67712
 C1040 C 0.44232 0.23749 0.67380
 C1041 C 0.43257 0.25030 0.68069
 C1042 C 0.41892 0.24660 0.69068
 H1043 H 0.36049 0.24475 0.76093
 H1044 H 0.38392 0.25086 0.74333
 H1045 H 0.36946 0.21081 0.71097
 H1046 H 0.34626 0.20433 0.72854
 H1047 H 0.39869 0.24788 0.71752
 H1048 H 0.39589 0.21270 0.70351
 H1049 H 0.42145 0.20426 0.68942
 H1050 H 0.44511 0.21070 0.67176
 H1051 H 0.43555 0.26323 0.67843
 H1052 H 0.41155 0.25685 0.69538
 C1053 C 0.63667 0.26643 0.75263
 C1054 C 0.62281 0.26439 0.74251
 C1055 C 0.62103 0.27386 0.72831
 C1056 C 0.63329 0.28575 0.72456
 C1057 C 0.64714 0.28790 0.73474
 C1058 C 0.64912 0.27823 0.74895
 C1059 C 0.60601 0.27134 0.71808
 C1060 C 0.60557 0.27448 0.70201
 C1061 C 0.59062 0.27127 0.69184
 C1062 C 0.59273 0.26761 0.67518
 C1063 C 0.57893 0.26433 0.66526
 C1064 C 0.56269 0.26489 0.67176
 C1065 C 0.56055 0.26890 0.68836
 C1066 C 0.57435 0.27208 0.69830
 H1067 H 0.63739 0.25872 0.76337
 H1068 H 0.61346 0.25525 0.74574
 H1069 H 0.63209 0.29363 0.71396
 H1070 H 0.65621 0.29720 0.73134
 H1071 H 0.59527 0.26571 0.72388
 H1072 H 0.61679 0.27851 0.69583
 H1073 H 0.60512 0.26711 0.66988
 H1074 H 0.58095 0.26155 0.65245
 H1075 H 0.54819 0.26939 0.69371
 H1076 H 0.57219 0.27536 0.71097
 C1077 C 0.12931 0.77841 0.25036
 C1078 C 0.11539 0.77680 0.24021
 C1079 C 0.11703 0.77836 0.22324
 C1080 C 0.13275 0.78215 0.21659
 C1081 C 0.14661 0.78406 0.22676
 C1082 C 0.14506 0.78205 0.24372
 C1083 C 0.10214 0.77633 0.21279
 C1084 C 0.10292 0.76922 0.19796
 C1085 C 0.08804 0.76666 0.18762
 C1086 C 0.08743 0.75271 0.17725
 C1087 C 0.07363 0.75003 0.16716
 C1088 C 0.06037 0.76148 0.16699
 C1089 C 0.06107 0.77559 0.17718
 C1090 C 0.07474 0.77812 0.18748
 H1091 H 0.12771 0.77700 0.26341
 H1092 H 0.10336 0.77405 0.24560
 H1093 H 0.13430 0.78384 0.20356
 H1094 H 0.15859 0.78686 0.22130
 H1095 H 0.09012 0.77975 0.21790
 H1096 H 0.11469 0.76418 0.19363
 H1097 H 0.09760 0.74381 0.17705
 H1098 H 0.07344 0.73917 0.15926
 H1099 H 0.05098 0.78458 0.17723
 H1100 H 0.07504 0.78920 0.19507
 C1101 C 0.27059 0.14789 0.20857
 C1102 C 0.28169 0.13473 0.21109
 C1103 C 0.28168 0.12594 0.22586
 C1104 C 0.27047 0.13087 0.23825
 C1105 C 0.25934 0.14404 0.23572
 C1106 C 0.25922 0.15270 0.22083
 C1107 C 0.29384 0.11214 0.22794
 C1108 C 0.29203 0.09988 0.23887
 C1109 C 0.30407 0.08593 0.24057
 C1110 C 0.29859 0.07101 0.24762
 C1111 C 0.30950 0.05754 0.24943
 C1112 C 0.32620 0.05873 0.24429
 C1113 C 0.33178 0.07375 0.23749
 C1114 C 0.32088 0.08723 0.23572
 H1115 H 0.27087 0.15416 0.19692
 H1116 H 0.29026 0.13130 0.20138
 H1117 H 0.27041 0.12483 0.25002
 H1118 H 0.25099 0.14753 0.24556
 H1119 H 0.30421 0.11172 0.21947
 H1120 H 0.28087 0.09942 0.24632
 H1121 H 0.28575 0.06970 0.25158
 H1122 H 0.30479 0.04610 0.25460
 H1123 H 0.34467 0.07518 0.23378
 H1124 H 0.32580 0.09869 0.23082
 C1125 C 0.76871 0.64829 0.70360
 C1126 C 0.77985 0.63510 0.70579
 C1127 C 0.77964 0.62574 0.72020
 C1128 C 0.76814 0.63005 0.73255
 C1129 C 0.75696 0.64326 0.73035
 C1130 C 0.75710 0.65255 0.71584
 C1131 C 0.79193 0.61201 0.72199
 C1132 C 0.79002 0.59929 0.73238
 C1133 C 0.80221 0.58544 0.73384
 C1134 C 0.79676 0.57021 0.74021
 C1135 C 0.80783 0.55687 0.74194
 C1136 C 0.82468 0.55849 0.73742
 C1137 C 0.83020 0.57378 0.73119
 C1138 C 0.81914 0.58714 0.72948
 H1139 H 0.76919 0.65503 0.69221
 H1140 H 0.78863 0.63213 0.69612
 H1141 H 0.76790 0.62354 0.74407
 H1142 H 0.74841 0.64631 0.74016
 H1143 H 0.80251 0.61206 0.71376
 H1144 H 0.77871 0.59839 0.73954
 H1145 H 0.78383 0.56857 0.74375
 H1146 H 0.80315 0.54520 0.74665
 H1147 H 0.84319 0.57553 0.72795
 H1148 H 0.82401 0.59883 0.72509
 C1149 C 0.77031 0.35136 0.79470
 C1150 C 0.78127 0.36459 0.79212
 C1151 C 0.78101 0.37346 0.77742
 C1152 C 0.76967 0.36862 0.76517
 C1153 C 0.75869 0.35537 0.76776
 C1154 C 0.75885 0.34658 0.78256
 C1155 C 0.79310 0.38723 0.77519
 C1156 C 0.79093 0.39966 0.76451
 C1157 C 0.80297 0.41352 0.76251
 C1158 C 0.79728 0.42858 0.75593
 C1159 C 0.80822 0.44190 0.75367
 C1160 C 0.82516 0.44040 0.75784
 C1161 C 0.83092 0.42527 0.76428
 C1162 C 0.81998 0.41194 0.76652
 H1163 H 0.77082 0.34500 0.80629
 H1164 H 0.78995 0.36797 0.80171
 H1165 H 0.76942 0.37475 0.75345
 H1166 H 0.75025 0.35193 0.75801
 H1167 H 0.80376 0.38747 0.78329
 H1168 H 0.77952 0.40030 0.75750
 H1169 H 0.78427 0.43011 0.75264
 H1170 H 0.80336 0.45345 0.74883
 H1171 H 0.84398 0.42361 0.76727
 H1172 H 0.82501 0.40035 0.77106
 C1173 C 0.25220 -0.14262 0.26050
 C1174 C 0.26211 -0.12864 0.25763
 C1175 C 0.27390 -0.12337 0.26917
 C1176 C 0.27535 -0.13223 0.28387
 C1177 C 0.26545 -0.14622 0.28677
 C1178 C 0.25370 -0.15170 0.27512
 C1179 C 0.28399 -0.10835 0.26563
 C1180 C 0.29878 -0.10520 0.27266
 C1181 C 0.30903 -0.09028 0.26905
 C1182 C 0.32611 -0.09068 0.27280
 C1183 C 0.33621 -0.07685 0.26994
 C1184 C 0.32943 -0.06222 0.26333
 C1185 C 0.31232 -0.06175 0.25964
 C1186 C 0.30219 -0.07558 0.26254
 H1187 H 0.24340 -0.14615 0.25112
 H1188 H 0.26062 -0.12196 0.24627
 H1189 H 0.28387 -0.12826 0.29335
 H1190 H 0.26706 -0.15256 0.29827
 H1191 H 0.27935 -0.10010 0.25627
 H1192 H 0.30412 -0.11425 0.28088
 H1193 H 0.33169 -0.10179 0.27791
 H1194 H 0.34938 -0.07766 0.27278
 H1195 H 0.30667 -0.05054 0.25485
 H1196 H 0.28900 -0.07450 0.25999
 C1197 C 0.25183 -0.14006 0.73549
 C1198 C 0.24159 -0.12620 0.73816
 C1199 C 0.22900 -0.12204 0.72703
 C1200 C 0.22704 -0.13194 0.71293
 C1201 C 0.23722 -0.14584 0.71026
 C1202 C 0.24981 -0.15019 0.72150
 C1203 C 0.21861 -0.10706 0.73035
 C1204 C 0.20365 -0.10435 0.72347
 C1205 C 0.19317 -0.08948 0.72696
 C1206 C 0.17604 -0.09024 0.72346
 C1207 C 0.16567 -0.07655 0.72644
 C1208 C 0.17222 -0.06172 0.73293
 C1209 C 0.18939 -0.06084 0.73625
 C1210 C 0.19979 -0.07452 0.73322
 H1211 H 0.26126 -0.14272 0.74453
 H1212 H 0.24349 -0.11873 0.74905
 H1213 H 0.21790 -0.12889 0.70372
 H1214 H 0.23520 -0.15299 0.69922
 H1215 H 0.22324 -0.09840 0.73943
 H1216 H 0.19833 -0.11372 0.71552
 H1217 H 0.17062 -0.10155 0.71853
 H1218 H 0.15246 -0.07766 0.72388
 H1219 H 0.19484 -0.04946 0.74094
 H1220 H 0.21300 -0.07314 0.73553
 C1221 C 0.74593 0.36313 0.24106
 C1222 C 0.73570 0.37690 0.24414
 C1223 C 0.72418 0.38233 0.23243
 C1224 C 0.72333 0.37383 0.21736
 C1225 C 0.73355 0.36003 0.21429
 C1226 C 0.74495 0.35448 0.22612
 C1227 C 0.71370 0.39711 0.23622
 C1228 C 0.69916 0.40036 0.22878
 C1229 C 0.68856 0.41502 0.23273
 C1230 C 0.67156 0.41448 0.22866
 C1231 C 0.66115 0.42808 0.23189
 C1232 C 0.66754 0.44261 0.23919
 C1233 C 0.68458 0.44322 0.24317
 C1234 C 0.69501 0.42962 0.23992
 H1235 H 0.75448 0.35922 0.25051
 H1236 H 0.73672 0.38329 0.25579
 H1237 H 0.71506 0.37794 0.20776
 H1238 H 0.73264 0.35390 0.20253
 H1239 H 0.71783 0.40507 0.24612
 H1240 H 0.69427 0.39157 0.21996
 H1241 H 0.66629 0.40345 0.22304
 H1242 H 0.64804 0.42717 0.22881
 H1243 H 0.68993 0.45437 0.24848
 H1244 H 0.70814 0.43080 0.24271
 C1245 C 0.74774 0.64112 0.26082
 C1246 C 0.73734 0.62748 0.25794
 C1247 C 0.72605 0.62213 0.26992
 C1248 C 0.72563 0.63055 0.28504
 C1249 C 0.73603 0.64421 0.28792
 C1250 C 0.74720 0.64970 0.27583
 C1251 C 0.71537 0.60749 0.26632
 C1252 C 0.70094 0.60443 0.27408
 C1253 C 0.69011 0.58993 0.27035
 C1254 C 0.67322 0.59069 0.27488
 C1255 C 0.66260 0.57725 0.27191
 C1256 C 0.66866 0.56264 0.26444
 C1257 C 0.68559 0.56181 0.25997
 C1258 C 0.69623 0.57526 0.26296
 H1259 H 0.75609 0.64496 0.25117
 H1260 H 0.73802 0.62115 0.24623
 H1261 H 0.71756 0.62649 0.29483
 H1262 H 0.73544 0.65029 0.29973
 H1263 H 0.71922 0.59949 0.25632
 H1264 H 0.69632 0.61329 0.28302
 H1265 H 0.66819 0.60178 0.28067
 H1266 H 0.64959 0.57834 0.27535
 H1267 H 0.69070 0.55060 0.25450
 H1268 H 0.70927 0.57391 0.25979
 C1269 C 0.24716 0.13877 0.76025
 C1270 C 0.23715 0.12495 0.75685
 C1271 C 0.22601 0.11882 0.76860
 C1272 C 0.22537 0.12663 0.78403
 C1273 C 0.23535 0.14046 0.78742
 C1274 C 0.24634 0.14675 0.77557
 C1275 C 0.21571 0.10405 0.76448
 C1276 C 0.20136 0.10036 0.77214
 C1277 C 0.19093 0.08566 0.76808
 C1278 C 0.17413 0.08569 0.77299
 C1279 C 0.16389 0.07201 0.76981
 C1280 C 0.17024 0.05788 0.76170
 C1281 C 0.18707 0.05778 0.75684
 C1282 C 0.19734 0.07146 0.76005
 H1283 H 0.25541 0.14325 0.75079
 H1284 H 0.23802 0.11909 0.74492
 H1285 H 0.21743 0.12196 0.79366
 H1286 H 0.23459 0.14605 0.79945
 H1287 H 0.21979 0.09648 0.75425
 H1288 H 0.19653 0.10881 0.78134
 H1289 H 0.16888 0.09640 0.77927
 H1290 H 0.15094 0.07254 0.77358
 H1291 H 0.19240 0.04694 0.75087
 H1292 H 0.21033 0.07065 0.75655
 C1293 C 0.20315 0.26784 0.14386
 C1294 C 0.20507 0.27850 0.13056
 C1295 C 0.21944 0.27777 0.12078
 C1296 C 0.23177 0.26586 0.12441
 C1297 C 0.22986 0.25519 0.13771
 C1298 C 0.21554 0.25606 0.14766
 C1299 C 0.22079 0.28922 0.10667
 C1300 C 0.23535 0.29344 0.09970
 C1301 C 0.23669 0.30498 0.08567
 C1302 C 0.25198 0.31296 0.08282
 C1303 C 0.25390 0.32376 0.06962
 C1304 C 0.24057 0.32674 0.05889
 C1305 C 0.22530 0.31863 0.06162
 C1306 C 0.22338 0.30781 0.07481
 H1307 H 0.19187 0.26888 0.15106
 H1308 H 0.19528 0.28743 0.12795
 H1309 H 0.24279 0.26448 0.11687
 H1310 H 0.23965 0.24626 0.14010
 H1311 H 0.20935 0.29495 0.10248
 H1312 H 0.24691 0.28893 0.10488
 H1313 H 0.26246 0.31093 0.09092
 H1314 H 0.26578 0.32992 0.06793
 H1315 H 0.21492 0.32038 0.05335
 H1316 H 0.21159 0.30146 0.07618
 C1317 C 0.70564 0.77256 0.64393
 C1318 C 0.70789 0.78369 0.63106
 C1319 C 0.72282 0.78379 0.62210
 C1320 C 0.73564 0.77268 0.62649
 C1321 C 0.73338 0.76154 0.63936
 C1322 C 0.71835 0.76132 0.64823
 C1323 C 0.72464 0.79596 0.60866
 C1324 C 0.73545 0.79406 0.59625
 C1325 C 0.73695 0.80606 0.58262
 C1326 C 0.74366 0.80049 0.56772
 C1327 C 0.74538 0.81137 0.55457
 C1328 C 0.74053 0.82813 0.55608
 C1329 C 0.73400 0.83378 0.57106
 C1330 C 0.73229 0.82291 0.58423
 H1331 H 0.69385 0.77274 0.65038
 H1332 H 0.69785 0.79217 0.62802
 H1333 H 0.74756 0.77273 0.62028
 H1334 H 0.74356 0.75328 0.64247
 H1335 H 0.71607 0.80639 0.60863
 H1336 H 0.74292 0.78285 0.59543
 H1337 H 0.74744 0.78762 0.56618
 H1338 H 0.75031 0.80660 0.54314
 H1339 H 0.73049 0.84671 0.57270
 H1340 H 0.72765 0.82786 0.59568
 C1341 C 0.79465 0.76993 0.35184
 C1342 C 0.79210 0.78096 0.36486
 C1343 C 0.77734 0.78045 0.37406
 C1344 C 0.76502 0.76873 0.36983
 C1345 C 0.76757 0.75767 0.35679
 C1346 C 0.78241 0.75816 0.34761
 C1347 C 0.77515 0.79271 0.38751
 C1348 C 0.76457 0.79065 0.40005
 C1349 C 0.76279 0.80291 0.41357
 C1350 C 0.75681 0.79745 0.42874
 C1351 C 0.75491 0.80861 0.44177
 C1352 C 0.75883 0.82554 0.43987
 C1353 C 0.76461 0.83106 0.42463
 C1354 C 0.76649 0.81991 0.41159
 H1355 H 0.80630 0.77066 0.34520
 H1356 H 0.80176 0.78990 0.36778
 H1357 H 0.75324 0.76825 0.37628
 H1358 H 0.75776 0.74897 0.35376
 H1359 H 0.78327 0.80346 0.38740
 H1360 H 0.75757 0.77919 0.40105
 H1361 H 0.75376 0.78446 0.43056
 H1362 H 0.75056 0.80395 0.45341
 H1363 H 0.76736 0.84409 0.42269
 H1364 H 0.77052 0.82475 0.39994
 C1365 C 0.26154 0.25095 -0.13881
 C1366 C 0.25807 0.26130 -0.12544
 C1367 C 0.26849 0.27478 -0.12164
 C1368 C 0.28231 0.27794 -0.13177
 C1369 C 0.28579 0.26761 -0.14514
 C1370 C 0.27549 0.25393 -0.14883
 C1371 C 0.26424 0.28553 -0.10743
 C1372 C 0.27552 0.29485 -0.09946
 C1373 C 0.27139 0.30561 -0.08523
 C1374 C 0.28426 0.31028 -0.07454
 C1375 C 0.28104 0.32067 -0.06116
 C1376 C 0.26485 0.32674 -0.05821
 C1377 C 0.25196 0.32219 -0.06897
 C1378 C 0.25519 0.31180 -0.08237
 H1379 H 0.25322 0.24066 -0.14123
 H1380 H 0.24723 0.25868 -0.11795
 H1381 H 0.29033 0.28854 -0.12964
 H1382 H 0.29655 0.27049 -0.15258
 H1383 H 0.25152 0.28504 -0.10300
 H1384 H 0.28853 0.29407 -0.10295
 H1385 H 0.29687 0.30578 -0.07651
 H1386 H 0.29120 0.32382 -0.05301
 H1387 H 0.23943 0.32697 -0.06723
 H1388 H 0.24503 0.30901 -0.09061
 C1389 C 0.70640 0.22987 -0.14093
 C1390 C 0.70829 0.21966 -0.12730
 C1391 C 0.72228 0.22118 -0.11713
 C1392 C 0.73427 0.23339 -0.12075
 C1393 C 0.73239 0.24362 -0.13439
 C1394 C 0.71843 0.24199 -0.14468
 C1395 C 0.72356 0.21021 -0.10266
 C1396 C 0.73798 0.20676 -0.09508
 C1397 C 0.73919 0.19562 -0.08074
 C1398 C 0.75454 0.18796 -0.07734
 C1399 C 0.75624 0.17740 -0.06393
 C1400 C 0.74261 0.17436 -0.05354
 C1401 C 0.72731 0.18224 -0.05677
 C1402 C 0.72561 0.19281 -0.07017
 H1403 H 0.69541 0.22825 -0.14841
 H1404 H 0.69877 0.21047 -0.12472
 H1405 H 0.74498 0.23536 -0.11295
 H1406 H 0.74190 0.25282 -0.13674
 H1407 H 0.71221 0.20416 -0.09869
 H1408 H 0.74957 0.21152 -0.09998
 H1409 H 0.76523 0.19000 -0.08519
 H1410 H 0.76816 0.17141 -0.06184
 H1411 H 0.71669 0.18044 -0.04878
 H1412 H 0.71374 0.19896 -0.07198
 C1413 C 0.20231 0.73361 0.35486
 C1414 C 0.20435 0.72311 0.36826
 C1415 C 0.21849 0.72435 0.37825
 C1416 C 0.23047 0.73662 0.37473
 C1417 C 0.22844 0.74714 0.36132
 C1418 C 0.21435 0.74574 0.35116
 C1419 C 0.21994 0.71300 0.39241
 C1420 C 0.23446 0.70927 0.39969
 C1421 C 0.23586 0.69763 0.41364
 C1422 C 0.25131 0.69002 0.41668
 C1423 C 0.25324 0.67908 0.42976
 C1424 C 0.23975 0.67560 0.44018
 C1425 C 0.22431 0.68333 0.43725
 C1426 C 0.22238 0.69430 0.42419
 H1427 H 0.19124 0.73212 0.34749
 H1428 H 0.19485 0.71389 0.37076
 H1429 H 0.24129 0.73838 0.38242
 H1430 H 0.23793 0.75637 0.35902
 H1431 H 0.20864 0.70684 0.39634
 H1432 H 0.24598 0.71420 0.39480
 H1433 H 0.26192 0.69243 0.40882
 H1434 H 0.26526 0.67320 0.43161
 H1435 H 0.21380 0.68118 0.44529
 H1436 H 0.21043 0.70036 0.42266
 C1437 C 0.29734 0.73101 0.64452
 C1438 C 0.29536 0.72084 0.63077
 C1439 C 0.28136 0.72253 0.62066
 C1440 C 0.26948 0.73490 0.62442
 C1441 C 0.27146 0.74509 0.63819
 C1442 C 0.28539 0.74325 0.64845
 C1443 C 0.27995 0.71149 0.60613
 C1444 C 0.26547 0.70815 0.59859
 C1445 C 0.26408 0.69678 0.58432
 C1446 C 0.24854 0.68955 0.58088
 C1447 C 0.24660 0.67884 0.56751
 C1448 C 0.26017 0.67521 0.55718
 C1449 C 0.27570 0.68257 0.56049
 C1450 C 0.27763 0.69331 0.57385
 H1451 H 0.30835 0.72929 0.65194
 H1452 H 0.30480 0.71154 0.62807
 H1453 H 0.25877 0.73700 0.61667
 H1454 H 0.26201 0.75439 0.64074
 H1455 H 0.29122 0.70524 0.60213
 H1456 H 0.25396 0.71317 0.60351
 H1457 H 0.23787 0.69207 0.58867
 H1458 H 0.23451 0.67325 0.56536
 H1459 H 0.28629 0.68029 0.55255
 H1460 H 0.28967 0.69909 0.57568
 C1461 C 0.76098 0.24655 0.14557
 C1462 C 0.75753 0.23585 0.13250
 C1463 C 0.76880 0.22322 0.12806
 C1464 C 0.78349 0.22127 0.13726
 C1465 C 0.78695 0.23199 0.15034
 C1466 C 0.77577 0.24482 0.15465
 C1467 C 0.76451 0.21214 0.11412
 C1468 C 0.77588 0.20344 0.10553
 C1469 C 0.77165 0.19264 0.09136
 C1470 C 0.78426 0.18868 0.08006
 C1471 C 0.78094 0.17841 0.06663
 C1472 C 0.76491 0.17175 0.06424
 C1473 C 0.75230 0.17559 0.07560
 C1474 C 0.75563 0.18584 0.08907
 H1475 H 0.75194 0.25611 0.14854
 H1476 H 0.74604 0.23752 0.12575
 H1477 H 0.79226 0.21137 0.13461
 H1478 H 0.79842 0.23015 0.15703
 H1479 H 0.75158 0.21192 0.11035
 H1480 H 0.78899 0.20487 0.10835
 H1481 H 0.79672 0.19365 0.08156
 H1482 H 0.79088 0.17582 0.05800
 H1483 H 0.73992 0.17037 0.07427
 H1484 H 0.74569 0.18807 0.09777
 C1485 C 0.45342 0.38813 0.51369
 C1486 C 0.45532 0.37436 0.52388
 C1487 C 0.47126 0.36815 0.52745
 C1488 C 0.48529 0.37564 0.52026
 C1489 C 0.48337 0.38921 0.50981
 C1490 C 0.46742 0.39567 0.50654
 C1491 C 0.47290 0.35364 0.53835
 C1492 C 0.48562 0.35199 0.54882
 C1493 C 0.48714 0.33772 0.56004
 C1494 C 0.49439 0.34019 0.57542
 C1495 C 0.49624 0.32691 0.58622
 C1496 C 0.49125 0.31074 0.58170
 C1497 C 0.48415 0.30828 0.56615
 C1498 C 0.48205 0.32163 0.55546
 H1499 H 0.44097 0.39272 0.51122
 H1500 H 0.44434 0.36868 0.52918
 H1501 H 0.49772 0.37088 0.52250
 H1502 H 0.49438 0.39479 0.50449
 H1503 H 0.46283 0.34466 0.53847
 H1504 H 0.49473 0.36189 0.54992
 H1505 H 0.49844 0.35249 0.57918
 H1506 H 0.50148 0.32938 0.59817
 H1507 H 0.48055 0.29597 0.56205
 H1508 H 0.47685 0.31926 0.54348
 C1509 C -0.04437 0.89486 0.01469
 C1510 C -0.04268 0.88142 0.02531
 C1511 C -0.02814 0.87167 0.02523
 C1512 C -0.01540 0.87545 0.01399
 C1513 C -0.01710 0.88891 0.00335
 C1514 C -0.03158 0.89883 0.00359
 C1515 C -0.02704 0.85742 0.03664
 C1516 C -0.01257 0.85062 0.04146
 C1517 C -0.01147 0.83651 0.05303
 C1518 C 0.00356 0.83394 0.06144
 C1519 C 0.00531 0.82062 0.07220
 C1520 C -0.00792 0.80947 0.07473
 C1521 C -0.02296 0.81197 0.06627
 C1522 C -0.02471 0.82528 0.05547
 H1523 H -0.05581 0.90201 0.01517
 H1524 H -0.05276 0.87868 0.03370
 H1525 H -0.00422 0.86793 0.01314
 H1526 H -0.00700 0.89148 -0.00504
 H1527 H -0.03864 0.85303 0.04184
 H1528 H -0.00092 0.85604 0.03745
 H1529 H 0.01398 0.84233 0.05974
 H1530 H 0.01700 0.81912 0.07866
 H1531 H -0.03325 0.80338 0.06770
 H1532 H -0.03630 0.82644 0.04883
 C1533 C 0.01002 0.60966 -0.00201
 C1534 C 0.00711 0.62352 0.00803
 C1535 C 0.01950 0.62929 0.01875
 C1536 C 0.03505 0.62111 0.01895
 C1537 C 0.03793 0.60725 0.00895
 C1538 C 0.02544 0.60131 -0.00161
 C1539 C 0.01594 0.64411 0.02909
 C1540 C 0.02414 0.64751 0.04299
 C1541 C 0.02065 0.66226 0.05344
 C1542 C 0.02566 0.66190 0.06985
 C1543 C 0.02291 0.67560 0.08010
 C1544 C 0.01517 0.69004 0.07413
 C1545 C 0.01029 0.69049 0.05765
 C1546 C 0.01306 0.67679 0.04738
 H1547 H 0.00008 0.60545 -0.00994
 H1548 H -0.00492 0.62967 0.00752
 H1549 H 0.04517 0.62551 0.02654
 H1550 H 0.05009 0.60138 0.00936
 H1551 H 0.00565 0.65199 0.02541
 H1552 H 0.03334 0.63877 0.04744
 H1553 H 0.03163 0.65093 0.07481
 H1554 H 0.02666 0.67480 0.09278
 H1555 H 0.00462 0.70157 0.05261
 H1556 H 0.00955 0.67782 0.03468
 C1557 C 0.51772 0.11838 0.49992
 C1558 C 0.51538 0.13219 0.51012
 C1559 C 0.52320 0.13306 0.52541
 C1560 C 0.53374 0.11993 0.53018
 C1561 C 0.53610 0.10612 0.51996
 C1562 C 0.52809 0.10515 0.50472
 C1563 C 0.52046 0.14805 0.53573
 C1564 C 0.52237 0.14819 0.55201
 C1565 C 0.51931 0.16312 0.56232
 C1566 C 0.51550 0.16094 0.57890
 C1567 C 0.51258 0.17467 0.58907
 C1568 C 0.51357 0.19092 0.58290
 C1569 C 0.51764 0.19314 0.56635
 C1570 C 0.52054 0.17941 0.55617
 H1571 H 0.51149 0.11823 0.48821
 H1572 H 0.50735 0.14221 0.50606
 H1573 H 0.54043 0.12035 0.54164
 H1574 H 0.54420 0.09622 0.52410
 H1575 H 0.51584 0.15908 0.52968
 H1576 H 0.52542 0.13674 0.55825
 H1577 H 0.51469 0.14855 0.58400
 H1578 H 0.50977 0.17256 0.60184
 H1579 H 0.51845 0.20551 0.56123
 H1580 H 0.52397 0.18166 0.54360
 C1581 C -0.04412 0.10205 0.48045
 C1582 C -0.04208 0.11482 0.46911
 C1583 C -0.02728 0.12410 0.46863
 C1584 C -0.01437 0.12010 0.47957
 C1585 C -0.01641 0.10732 0.49093
 C1586 C -0.03133 0.09816 0.49154
 C1587 C -0.02565 0.13744 0.45627
 C1588 C -0.01516 0.15034 0.45786
 C1589 C -0.01365 0.16384 0.44566
 C1590 C -0.00698 0.17917 0.45067
 C1591 C -0.00505 0.19217 0.43957
 C1592 C -0.00965 0.19009 0.42312
 C1593 C -0.01624 0.17471 0.41805
 C1594 C -0.01815 0.16169 0.42916
 H1595 H -0.05582 0.09536 0.48055
 H1596 H -0.05218 0.11755 0.46075
 H1597 H -0.00253 0.12653 0.47924
 H1598 H -0.00616 0.10452 0.49905
 H1599 H -0.03406 0.13694 0.44595
 H1600 H -0.00790 0.15164 0.46893
 H1601 H -0.00333 0.18115 0.46327
 H1602 H -0.00011 0.20392 0.44391
 H1603 H -0.01957 0.17263 0.40539
 H1604 H -0.02280 0.14991 0.42464
 C1605 C 0.45449 0.60312 0.98146
 C1606 C 0.45615 0.61636 0.97057
 C1607 C 0.46945 0.62759 0.97203
 C1608 C 0.48088 0.62553 0.98488
 C1609 C 0.47922 0.61232 0.99578
 C1610 C 0.46604 0.60089 0.99420
 C1611 C 0.47069 0.64154 0.96031
 C1612 C 0.48513 0.64916 0.95677
 C1613 C 0.48660 0.66314 0.94512
 C1614 C 0.50229 0.66650 0.93827
 C1615 C 0.50444 0.67983 0.92761
 C1616 C 0.49093 0.69023 0.92364
 C1617 C 0.47521 0.68693 0.93052
 C1618 C 0.47306 0.67357 0.94120
 H1619 H 0.44411 0.59471 0.97982
 H1620 H 0.44706 0.61777 0.96089
 H1621 H 0.49096 0.63425 0.98680
 H1622 H 0.48829 0.61121 1.00547
 H1623 H 0.45943 0.64502 0.95387
 H1624 H 0.49660 0.64455 0.96206
 H1625 H 0.51295 0.65872 0.94114
 H1626 H 0.51666 0.68192 0.92236
 H1627 H 0.46464 0.69492 0.92795
 H1628 H 0.46089 0.67177 0.94662
 C1629 C 0.54704 0.89718 0.98303
 C1630 C 0.54579 0.88379 0.97211
 C1631 C 0.53225 0.87279 0.97291
 C1632 C 0.52013 0.87523 0.98515
 C1633 C 0.52138 0.88861 0.99607
 C1634 C 0.53481 0.89981 0.99513
 C1635 C 0.53146 0.85870 0.96115
 C1636 C 0.51716 0.85115 0.95697
 C1637 C 0.51614 0.83702 0.94527
 C1638 C 0.50074 0.83361 0.93785
 C1639 C 0.49900 0.82013 0.92714
 C1640 C 0.51264 0.80965 0.92368
 C1641 C 0.52808 0.81303 0.93109
 C1642 C 0.52982 0.82652 0.94183
 H1643 H 0.55766 0.90537 0.98195
 H1644 H 0.55540 0.88209 0.96292
 H1645 H 0.50981 0.86671 0.98657
 H1646 H 0.51175 0.89007 1.00524
 H1647 H 0.54300 0.85505 0.95523
 H1648 H 0.50547 0.85590 0.96175
 H1649 H 0.48999 0.84143 0.94033
 H1650 H 0.48699 0.81798 0.92148
 H1651 H 0.53873 0.80499 0.92891
 H1652 H 0.54177 0.82836 0.94769
 C1653 C 0.04259 0.39304 0.48331
 C1654 C 0.04062 0.37924 0.47307
 C1655 C 0.02595 0.36976 0.47349
 C1656 C 0.01334 0.37421 0.48471
 C1657 C 0.01533 0.38805 0.49501
 C1658 C 0.02995 0.39768 0.49437
 C1659 C 0.02465 0.35517 0.46236
 C1660 C 0.01016 0.34816 0.45788
 C1661 C 0.00915 0.33397 0.44621
 C1662 C -0.00572 0.33144 0.43751
 C1663 C -0.00711 0.31833 0.42629
 C1664 C 0.00634 0.30740 0.42357
 C1665 C 0.02113 0.30974 0.43249
 C1666 C 0.02251 0.32281 0.44374
 H1667 H 0.05414 0.39993 0.48258
 H1668 H 0.05061 0.37600 0.46469
 H1669 H 0.00204 0.36696 0.48578
 H1670 H 0.00535 0.39120 0.50340
 H1671 H 0.03616 0.35072 0.45694
 H1672 H -0.00150 0.35352 0.46207
 H1673 H -0.01624 0.33976 0.43926
 H1674 H -0.01864 0.31689 0.41954
 H1675 H 0.03155 0.30127 0.43097
 H1676 H 0.03395 0.32388 0.45065
 C1677 C 0.39027 0.50478 0.48913
 C1678 C 0.37720 0.51583 0.49250
 C1679 C 0.37287 0.52828 0.48133
 C1680 C 0.38218 0.52969 0.46681
 C1681 C 0.39526 0.51864 0.46344
 C1682 C 0.39944 0.50600 0.47453
 C1683 C 0.35894 0.53975 0.48551
 C1684 C 0.35016 0.54818 0.47431
 C1685 C 0.33598 0.55937 0.47841
 C1686 C 0.32427 0.56299 0.46620
 C1687 C 0.31085 0.57366 0.46939
 C1688 C 0.30889 0.58106 0.48488
 C1689 C 0.32066 0.57753 0.49710
 C1690 C 0.33411 0.56687 0.49390
 H1691 H 0.39319 0.49539 0.49810
 H1692 H 0.37038 0.51458 0.50387
 H1693 H 0.37962 0.53945 0.45811
 H1694 H 0.40204 0.52004 0.45209
 H1695 H 0.35530 0.54049 0.49823
 H1696 H 0.35281 0.54622 0.46147
 H1697 H 0.32545 0.55746 0.45415
 H1698 H 0.30190 0.57599 0.45977
 H1699 H 0.31966 0.58331 0.50904
 H1700 H 0.34315 0.56489 0.50348
 C1701 C 0.89655 0.02030 -0.04406
 C1702 C 0.88356 0.03160 -0.04137
 C1703 C 0.87449 0.03145 -0.02671
 C1704 C 0.87890 0.01987 -0.01460
 C1705 C 0.89190 0.00855 -0.01729
 C1706 C 0.90089 0.00862 -0.03205
 C1707 C 0.86100 0.04390 -0.02435
 C1708 C 0.84837 0.04200 -0.01374
 C1709 C 0.83481 0.05442 -0.01159
 C1710 C 0.81951 0.04918 -0.00506
 C1711 C 0.80644 0.06049 -0.00271
 C1712 C 0.80845 0.07735 -0.00673
 C1713 C 0.82384 0.08266 -0.01307
 C1714 C 0.83691 0.07136 -0.01541
 H1715 H 0.90309 0.02070 -0.05562
 H1716 H 0.88050 0.04044 -0.05086
 H1717 H 0.87262 0.01970 -0.00290
 H1718 H 0.89505 -0.00006 -0.00766
 H1719 H 0.86114 0.05461 -0.03230
 H1720 H 0.84734 0.03056 -0.00690
 H1721 H 0.81759 0.03624 -0.00191
 H1722 H 0.79469 0.05600 0.00208
 H1723 H 0.82587 0.09564 -0.01594
 H1724 H 0.84870 0.07604 -0.01988
 C1725 C 0.60243 0.02190 0.04784
 C1726 C 0.61541 0.03331 0.04586
 C1727 C 0.62451 0.03389 0.03122
 C1728 C 0.62011 0.02299 0.01842
 C1729 C 0.60715 0.01156 0.02040
 C1730 C 0.59816 0.01085 0.03514
 C1731 C 0.63807 0.04633 0.02964
 C1732 C 0.65074 0.04478 0.01899
 C1733 C 0.66444 0.05707 0.01749
 C1734 C 0.67956 0.05191 0.01041
 C1735 C 0.69274 0.06309 0.00851
 C1736 C 0.69105 0.07976 0.01356
 C1737 C 0.67587 0.08500 0.02054
 C1738 C 0.66267 0.07381 0.02242
 H1739 H 0.59587 0.02169 0.05939
 H1740 H 0.61844 0.04164 0.05588
 H1741 H 0.62638 0.02343 0.00672
 H1742 H 0.60403 0.00349 0.01024
 H1743 H 0.63796 0.05666 0.03818
 H1744 H 0.65168 0.03365 0.01152
 H1745 H 0.68124 0.03913 0.00642
 H1746 H 0.70433 0.05863 0.00325
 H1747 H 0.67409 0.09784 0.02424
 H1748 H 0.65104 0.07846 0.02740
 C1749 C 0.10963 0.50516 0.51007
 C1750 C 0.12331 0.51537 0.50679
 C1751 C 0.12910 0.52674 0.51853
 C1752 C 0.12106 0.52748 0.53383
 C1753 C 0.10735 0.51727 0.53710
 C1754 C 0.10145 0.50600 0.52526
 C1755 C 0.14379 0.53717 0.51452
 C1756 C 0.14725 0.55162 0.52208
 C1757 C 0.16183 0.56217 0.51796
 C1758 C 0.16145 0.57905 0.52244
 C1759 C 0.17501 0.58941 0.51913
 C1760 C 0.18934 0.58308 0.51135
 C1761 C 0.18979 0.56616 0.50691
 C1762 C 0.17623 0.55578 0.51025
 H1763 H 0.10544 0.49672 0.50060
 H1764 H 0.12934 0.51445 0.49496
 H1765 H 0.12546 0.53563 0.54344
 H1766 H 0.10157 0.51808 0.54904
 H1767 H 0.15149 0.53309 0.50438
 H1768 H 0.13868 0.55645 0.53117
 H1769 H 0.15058 0.58428 0.52846
 H1770 H 0.17422 0.60243 0.52257
 H1771 H 0.20080 0.56086 0.50121
 H1772 H 0.17731 0.54273 0.50710
 C1773 C 0.10815 0.49493 -0.01464
 C1774 C 0.12180 0.48477 -0.01096
 C1775 C 0.12765 0.47296 -0.02231
 C1776 C 0.11972 0.47175 -0.03760
 C1777 C 0.10605 0.48190 -0.04127
 C1778 C 0.10008 0.49360 -0.02983
 C1779 C 0.14233 0.46262 -0.01794
 C1780 C 0.14581 0.44791 -0.02504
 C1781 C 0.16048 0.43752 -0.02073
 C1782 C 0.16020 0.42051 -0.02473
 C1783 C 0.17387 0.41030 -0.02127
 C1784 C 0.18819 0.41690 -0.01378
 C1785 C 0.18853 0.43394 -0.00983
 C1786 C 0.17487 0.44417 -0.01333
 H1787 H 0.10389 0.50373 -0.00548
 H1788 H 0.12775 0.48607 0.00085
 H1789 H 0.12420 0.46327 -0.04693
 H1790 H 0.10038 0.48072 -0.05320
 H1791 H 0.15003 0.46704 -0.00798
 H1792 H 0.13723 0.44278 -0.03392
 H1793 H 0.14934 0.41507 -0.03052
 H1794 H 0.17318 0.39719 -0.02433
 H1795 H 0.19953 0.43945 -0.00438
 H1796 H 0.17587 0.45731 -0.01057
 C1797 C 0.60813 0.99757 0.48678
 C1798 C 0.62190 0.98733 0.48968
 C1799 C 0.62685 0.97530 0.47816
 C1800 C 0.61782 0.97391 0.46347
 C1801 C 0.60401 0.98415 0.46057
 C1802 C 0.59899 0.99611 0.47219
 C1803 C 0.64173 0.96493 0.48175
 C1804 C 0.64482 0.95017 0.47458
 C1805 C 0.65961 0.93975 0.47838
 C1806 C 0.65903 0.92266 0.47475
 C1807 C 0.67274 0.91240 0.47789
 C1808 C 0.68742 0.91902 0.48467
 C1809 C 0.68808 0.93614 0.48821
 C1810 C 0.67438 0.94642 0.48503
 H1811 H 0.60463 1.00653 0.49609
 H1812 H 0.62867 0.98875 0.50105
 H1813 H 0.62153 0.96521 0.45400
 H1814 H 0.59747 0.98285 0.44909
 H1815 H 0.64996 0.96936 0.49129
 H1816 H 0.63580 0.94501 0.46614
 H1817 H 0.64787 0.91720 0.46954
 H1818 H 0.67180 0.89923 0.47515
 H1819 H 0.69935 0.94166 0.49310
 H1820 H 0.67561 0.95960 0.48746
 C1821 C 0.89600 0.97937 0.54367
 C1822 C 0.88291 0.96817 0.54115
 C1823 C 0.87410 0.96796 0.52634
 C1824 C 0.87891 0.97902 0.51393
 C1825 C 0.89198 0.99023 0.51646
 C1826 C 0.90067 0.99058 0.53136
 C1827 C 0.86042 0.95572 0.52417
 C1828 C 0.84809 0.95749 0.51322
 C1829 C 0.83434 0.94532 0.51114
 C1830 C 0.81940 0.95064 0.50389
 C1831 C 0.80616 0.93957 0.50160
 C1832 C 0.80761 0.92288 0.50642
 C1833 C 0.82265 0.91747 0.51345
 C1834 C 0.83591 0.92852 0.51572
 H1835 H 0.90234 0.97928 0.55532
 H1836 H 0.87957 0.95971 0.55087
 H1837 H 0.87289 0.97888 0.50212
 H1838 H 0.89540 0.99844 0.50658
 H1839 H 0.86019 0.94530 0.53248
 H1840 H 0.84745 0.96869 0.50597
 H1841 H 0.81790 0.96346 0.50013
 H1842 H 0.79468 0.94416 0.49627
 H1843 H 0.82428 0.90458 0.51695
 H1844 H 0.84740 0.92374 0.52077
 C1845 C 0.39583 0.48030 0.04610
 C1846 C 0.38274 0.46905 0.04391
 C1847 C 0.37353 0.46883 0.02935
 C1848 C 0.37792 0.47994 0.01684
 C1849 C 0.39100 0.49122 0.01904
 C1850 C 0.40009 0.49157 0.03371
 C1851 C 0.35988 0.45650 0.02752
 C1852 C 0.34722 0.45822 0.01695
 C1853 C 0.33354 0.44592 0.01518
 C1854 C 0.31839 0.45111 0.00825
 C1855 C 0.30525 0.43989 0.00613
 C1856 C 0.30700 0.42318 0.01082
 C1857 C 0.32221 0.41793 0.01760
 C1858 C 0.33537 0.42913 0.01969
 H1859 H 0.40247 0.48023 0.05759
 H1860 H 0.37972 0.46054 0.05370
 H1861 H 0.37156 0.47980 0.00519
 H1862 H 0.39410 0.49947 0.00910
 H1863 H 0.35998 0.44605 0.03580
 H1864 H 0.34628 0.46944 0.00976
 H1865 H 0.31668 0.46392 0.00455
 H1866 H 0.29364 0.44435 0.00098
 H1867 H 0.32406 0.40504 0.02099
 H1868 H 0.34701 0.42445 0.02451
 C1869 C 0.51971 0.45636 0.39896
 C1870 C 0.53013 0.45833 0.38542
 C1871 C 0.52846 0.47218 0.37519
 C1872 C 0.51589 0.48394 0.37868
 C1873 C 0.50545 0.48197 0.39223
 C1874 C 0.50721 0.46815 0.40257
 C1875 C 0.53965 0.47353 0.36079
 C1876 C 0.54291 0.48792 0.35320
 C1877 C 0.55426 0.48927 0.33892
 C1878 C 0.56139 0.50478 0.33542
 C1879 C 0.57199 0.50669 0.32199
 C1880 C 0.57560 0.49312 0.31165
 C1881 C 0.56833 0.47761 0.31504
 C1882 C 0.55772 0.47570 0.32847
 H1883 H 0.52146 0.44547 0.40647
 H1884 H 0.53960 0.44899 0.38294
 H1885 H 0.51380 0.49453 0.37084
 H1886 H 0.49596 0.49130 0.39448
 H1887 H 0.54600 0.46229 0.35689
 H1888 H 0.53779 0.49941 0.35804
 H1889 H 0.55887 0.51546 0.34319
 H1890 H 0.57751 0.51877 0.31980
 H1891 H 0.57059 0.46701 0.30709
 H1892 H 0.55201 0.46368 0.33036
 C1893 C 0.00922 -0.01366 0.89062
 C1894 C 0.02016 -0.01069 0.87768
 C1895 C 0.03207 -0.02263 0.87305
 C1896 C 0.03304 -0.03756 0.88192
 C1897 C 0.02207 -0.04054 0.89490
 C1898 C 0.00995 -0.02866 0.89936
 C1899 C 0.04336 -0.01873 0.85920
 C1900 C 0.05181 -0.03024 0.85056
 C1901 C 0.06247 -0.02611 0.83630
 C1902 C 0.06581 -0.03855 0.82463
 C1903 C 0.07561 -0.03514 0.81090
 C1904 C 0.08236 -0.01920 0.80859
 C1905 C 0.07929 -0.00681 0.82041
 C1906 C 0.06955 -0.01023 0.83416
 H1907 H 0.00027 -0.00406 0.89375
 H1908 H 0.01923 0.00099 0.87120
 H1909 H 0.04236 -0.04690 0.87910
 H1910 H 0.02309 -0.05220 0.90136
 H1911 H 0.04387 -0.00585 0.85546
 H1912 H 0.05017 -0.04329 0.85330
 H1913 H 0.06064 -0.05091 0.82602
 H1914 H 0.07769 -0.04492 0.80196
 H1915 H 0.08466 0.00547 0.81915
 H1916 H 0.06787 -0.00046 0.84316
 C1917 C 0.02019 0.04446 0.60375
 C1918 C 0.03128 0.04246 0.61676
 C1919 C 0.03146 0.02771 0.62586
 C1920 C 0.02047 0.01481 0.62143
 C1921 C 0.00936 0.01681 0.60843
 C1922 C 0.00905 0.03168 0.59944
 C1923 C 0.04361 0.02608 0.63943
 C1924 C 0.04170 0.01541 0.65186
 C1925 C 0.05381 0.01372 0.66548
 C1926 C 0.04840 0.00643 0.68010
 C1927 C 0.05943 0.00421 0.69312
 C1928 C 0.07618 0.00916 0.69179
 C1929 C 0.08165 0.01638 0.67713
 C1930 C 0.07063 0.01857 0.66408
 H1931 H 0.02031 0.05611 0.59719
 H1932 H 0.03970 0.05255 0.61981
 H1933 H 0.02059 0.00300 0.62770
 H1934 H 0.00122 0.00656 0.60531
 H1935 H 0.05407 0.03457 0.63945
 H1936 H 0.03045 0.00803 0.65261
 H1937 H 0.03556 0.00249 0.68149
 H1938 H 0.05480 -0.00126 0.70430
 H1939 H 0.09457 0.01999 0.67561
 H1940 H 0.07549 0.02368 0.65286
 C1941 C 0.52019 0.54627 0.10440
 C1942 C 0.53127 0.54451 0.11745
 C1943 C 0.53137 0.52997 0.12685
 C1944 C 0.52039 0.51698 0.12265
 C1945 C 0.50932 0.51874 0.10959
 C1946 C 0.50901 0.53343 0.10035
 C1947 C 0.54335 0.52864 0.14058
 C1948 C 0.54099 0.51860 0.15342
 C1949 C 0.55279 0.51731 0.16731
 C1950 C 0.54690 0.51103 0.18221
 C1951 C 0.55761 0.50924 0.19553
 C1952 C 0.57454 0.51360 0.19423
 C1953 C 0.58049 0.51981 0.17930
 C1954 C 0.56977 0.52158 0.16596
 H1955 H 0.52035 0.55779 0.09763
 H1956 H 0.53969 0.55464 0.12033
 H1957 H 0.52049 0.50532 0.12918
 H1958 H 0.50115 0.50844 0.10668
 H1959 H 0.55399 0.53690 0.14040
 H1960 H 0.52954 0.51153 0.15430
 H1961 H 0.53391 0.50756 0.18357
 H1962 H 0.55261 0.50457 0.20691
 H1963 H 0.59354 0.52294 0.17783
 H1964 H 0.57497 0.52591 0.15456
 C1965 C 0.47803 -0.04475 0.10468
 C1966 C 0.46654 -0.04275 0.11742
 C1967 C 0.46576 -0.02781 0.12634
 C1968 C 0.47649 -0.01470 0.12199
 C1969 C 0.48798 -0.01671 0.10927
 C1970 C 0.48896 -0.03178 0.10050
 C1971 C 0.45337 -0.02622 0.13975
 C1972 C 0.45508 -0.01551 0.15228
 C1973 C 0.44292 -0.01401 0.16590
 C1974 C 0.44832 -0.00703 0.18072
 C1975 C 0.43729 -0.00511 0.19383
 C1976 C 0.42053 -0.01000 0.19237
 C1977 C 0.41506 -0.01687 0.17749
 C1978 C 0.42610 -0.01880 0.16436
 H1979 H 0.47841 -0.05655 0.09827
 H1980 H 0.45833 -0.05299 0.12041
 H1981 H 0.47587 -0.00276 0.12813
 H1982 H 0.49593 -0.00631 0.10622
 H1983 H 0.44300 -0.03482 0.13964
 H1984 H 0.46627 -0.00805 0.15316
 H1985 H 0.46117 -0.00315 0.18222
 H1986 H 0.44194 0.00005 0.20519
 H1987 H 0.40214 -0.02045 0.17589
 H1988 H 0.42128 -0.02369 0.15297
 C1989 C 0.99566 0.48849 0.60809
 C1990 C 0.98544 0.49166 0.62161
 C1991 C 0.97397 0.47972 0.62702
 C1992 C 0.97314 0.46434 0.61873
 C1993 C 0.98336 0.46116 0.60519
 C1994 C 0.99476 0.47320 0.59968
 C1995 C 0.96360 0.48362 0.64161
 C1996 C 0.94913 0.47598 0.64501
 C1997 C 0.93867 0.48000 0.65950
 C1998 C 0.92173 0.47561 0.65924
 C1999 C 0.91145 0.47883 0.67271
 C2000 C 0.91792 0.48644 0.68684
 C2001 C 0.93490 0.49078 0.68717
 C2002 C 0.94520 0.48753 0.67370
 H2003 H 1.00418 0.49812 0.60423
 H2004 H 0.98644 0.50356 0.62782
 H2005 H 0.96490 0.45456 0.62281
 H2006 H 0.98248 0.44915 0.59922
 H2007 H 0.96775 0.49376 0.64934
 H2008 H 0.94421 0.46690 0.63648
 H2009 H 0.91638 0.46972 0.64852
 H2010 H 0.89839 0.47549 0.67200
 H2011 H 0.94033 0.49633 0.69801
 H2012 H 0.95829 0.49059 0.67467
 C2013 C 0.99534 0.50886 0.88548
 C2014 C 0.98536 0.50560 0.87184
 C2015 C 0.97398 0.51753 0.86618
 C2016 C 0.97303 0.53301 0.87428
 C2017 C 0.98300 0.53627 0.88792
 C2018 C 0.99426 0.52423 0.89372
 C2019 C 0.96377 0.51359 0.85154
 C2020 C 0.94919 0.52111 0.84824
 C2021 C 0.93885 0.51728 0.83368
 C2022 C 0.92191 0.52173 0.83395
 C2023 C 0.91174 0.51881 0.82039
 C2024 C 0.91832 0.51145 0.80615
 C2025 C 0.93530 0.50700 0.80582
 C2026 C 0.94549 0.50995 0.81940
 H2027 H 1.00379 0.49924 0.88957
 H2028 H 0.98645 0.49363 0.86575
 H2029 H 0.96489 0.54279 0.86997
 H2030 H 0.98202 0.54836 0.89373
 H2031 H 0.96813 0.50358 0.84373
 H2032 H 0.94412 0.53001 0.85691
 H2033 H 0.91648 0.52746 0.84474
 H2034 H 0.89867 0.52220 0.82110
 H2035 H 0.94080 0.50161 0.79492
 H2036 H 0.95859 0.50683 0.81844
 C2037 C 0.48167 0.04535 0.39379
 C2038 C 0.47144 0.04327 0.38015
 C2039 C 0.47281 0.02904 0.37024
 C2040 C 0.48497 0.01701 0.37411
 C2041 C 0.49523 0.01910 0.38779
 C2042 C 0.49367 0.03327 0.39786
 C2043 C 0.46160 0.02754 0.35589
 C2044 C 0.45812 0.01310 0.34833
 C2045 C 0.44633 0.01173 0.33442
 C2046 C 0.43892 -0.00374 0.33112
 C2047 C 0.42764 -0.00557 0.31823
 C2048 C 0.42357 0.00805 0.30829
 C2049 C 0.43117 0.02348 0.31140
 C2050 C 0.44250 0.02530 0.32425
 H2051 H 0.48004 0.05649 0.40108
 H2052 H 0.46230 0.05280 0.37740
 H2053 H 0.48683 0.00610 0.36652
 H2054 H 0.50439 0.00957 0.39037
 H2055 H 0.45526 0.03877 0.35210
 H2056 H 0.46326 0.00162 0.35301
 H2057 H 0.44172 -0.01442 0.33866
 H2058 H 0.42190 -0.01759 0.31619
 H2059 H 0.42856 0.03409 0.30371
 H2060 H 0.44840 0.03728 0.32594
   
