data_POSCAR
  _audit_creation_date              2014-09-24
  _audit_creation_method            'ToBaCCo'
  _symmetry_space_group_name_H-M    'P1'
  _symmetry_Int_Tables_number       1
  _symmetry_cell_setting            triclinic
  loop_
  _symmetry_equiv_pos_as_xyz
 x,y,z
_cell_length_a 65.7309
_cell_length_b 65.6238
_cell_length_c 65.7399
_cell_angle_alpha 89.063600
_cell_angle_beta 89.508800
_cell_angle_gamma 89.498700
loop_
  _atom_site_label
  _atom_site_type_symbol
  _atom_site_fract_x
  _atom_site_fract_y
  _atom_site_fract_z
C1 C 0.73502 0.65188 0.97308
 H2 H 0.74947 0.65197 0.96506
 C3 C 0.71846 0.66282 0.96517
 H4 H 0.72014 0.67146 0.95109
 C5 C 0.71482 0.63980 1.00073
 H6 H 0.71325 0.63039 1.01426
 C7 C 0.69791 0.65051 0.99337
 H8 H 0.68347 0.64947 1.00138
 N9 N 0.73293 0.64066 0.99056
 C10 C 0.79386 0.63015 1.01470
 H11 H 0.79328 0.61378 1.01673
 C12 C 0.81111 0.64074 1.02054
 H13 H 0.82389 0.63251 1.02710
 C14 C 0.77778 0.66094 1.00392
 H15 H 0.76467 0.66876 0.99766
 C16 C 0.79478 0.67214 1.00958
 H17 H 0.79477 0.68856 1.00759
 Zn18 Zn 0.75517 0.62426 0.99927
 N19 N 0.77773 0.64030 1.00638
 C20 C 0.78139 0.60740 0.96939
 N21 N 0.76227 0.60699 0.97750
 C22 C 0.74750 0.59524 0.96942
 C23 C 0.75179 0.58312 0.95260
 C24 C 0.78631 0.59551 0.95262
 C25 C 0.74387 0.61952 1.03994
 C26 C 0.73783 0.60940 1.05778
 C27 C 0.74037 0.57745 1.04004
 C28 C 0.74639 0.58821 1.02251
 N29 N 0.74768 0.60890 1.02270
 H30 H 0.79278 0.61720 0.97562
 H31 H 0.73233 0.59551 0.97592
 H32 H 0.73993 0.57395 0.94613
 H33 H 0.80151 0.59607 0.94614
 H34 H 0.74527 0.63594 1.03970
 H35 H 0.73451 0.61810 1.07132
 H36 H 0.73908 0.56100 1.03965
 H37 H 0.74988 0.58003 1.00878
 C38 C 0.81160 0.66190 1.01791
 C39 C 0.69971 0.66200 0.97537
 C40 C 0.73591 0.58817 1.05780
 C41 C 0.77137 0.58333 0.94411
 C42 C 0.73479 0.34876 0.51982
 H43 H 0.74932 0.34760 0.52737
 C44 C 0.71825 0.33748 0.52712
 H45 H 0.72003 0.32750 0.54029
 C46 C 0.71440 0.36374 0.49390
 H47 H 0.71276 0.37434 0.48128
 C48 C 0.69751 0.35275 0.50070
 H49 H 0.68302 0.35479 0.49317
 N50 N 0.73261 0.36153 0.50343
 C51 C 0.79346 0.37176 0.47839
 H52 H 0.79323 0.38824 0.47767
 C53 C 0.81052 0.36104 0.47150
 H54 H 0.82352 0.36926 0.46547
 C55 C 0.77675 0.34087 0.48706
 H56 H 0.76349 0.33309 0.49293
 C57 C 0.79354 0.32954 0.48028
 H58 H 0.79322 0.31304 0.48108
 Zn59 Zn 0.75498 0.37783 0.49523
 N60 N 0.77714 0.36161 0.48623
 C61 C 0.78193 0.39147 0.52544
 N62 N 0.76273 0.39323 0.51797
 C63 C 0.74844 0.40514 0.52720
 C64 C 0.75338 0.41619 0.54445
 C65 C 0.78749 0.40226 0.54261
 C66 C 0.74327 0.38564 0.45536
 C67 C 0.73704 0.39702 0.43840
 C68 C 0.74000 0.42765 0.45806
 C69 C 0.74622 0.41567 0.47471
 N70 N 0.74739 0.39502 0.47314
 H71 H 0.79292 0.38153 0.51830
 H72 H 0.73318 0.40595 0.52119
 H73 H 0.74196 0.42565 0.55172
 H74 H 0.80281 0.40076 0.54845
 H75 H 0.74456 0.36923 0.45450
 H76 H 0.73348 0.38938 0.42440
 H77 H 0.73878 0.44404 0.45945
 H78 H 0.74995 0.42286 0.48883
 C79 C 0.81060 0.33975 0.47254
 C80 C 0.69943 0.33958 0.51750
 C81 C 0.73523 0.41819 0.43982
 C82 C 0.77310 0.41472 0.55218
 C83 C 0.23531 -0.15206 0.02066
 H84 H 0.24980 -0.15320 0.02832
 C85 C 0.21878 -0.16347 0.02778
 H86 H 0.22051 -0.17352 0.04090
 C87 C 0.21503 -0.13702 -0.00531
 H88 H 0.21343 -0.12634 -0.01787
 C89 C 0.19816 -0.14813 0.00130
 H90 H 0.18371 -0.14611 -0.00632
 N91 N 0.23319 -0.13920 0.00435
 C92 C 0.29404 -0.12841 -0.02044
 H93 H 0.29368 -0.11193 -0.02109
 C94 C 0.31120 -0.13895 -0.02736
 H95 H 0.32413 -0.13059 -0.03335
 C96 C 0.27760 -0.15948 -0.01192
 H97 H 0.26440 -0.16740 -0.00608
 C98 C 0.29449 -0.17064 -0.01873
 H99 H 0.29432 -0.18714 -0.01801
 Zn100 Zn 0.25551 -0.12272 -0.00361
 N101 N 0.27781 -0.13873 -0.01266
 C102 C 0.28231 -0.10918 0.02677
 N103 N 0.26311 -0.10748 0.01930
 C104 C 0.24874 -0.09573 0.02861
 C105 C 0.25360 -0.08478 0.04596
 C106 C 0.28779 -0.09849 0.04402
 C107 C 0.24402 -0.11460 -0.04349
 C108 C 0.23782 -0.10310 -0.06039
 C109 C 0.24036 -0.07264 -0.04036
 C110 C 0.24656 -0.08476 -0.02381
 N111 N 0.24793 -0.10537 -0.02558
 H112 H 0.29337 -0.11900 0.01955
 H113 H 0.23348 -0.09496 0.02260
 H114 H 0.24212 -0.07544 0.05329
 H115 H 0.30312 -0.09993 0.04985
 H116 H 0.24546 -0.13099 -0.04451
 H117 H 0.23445 -0.11072 -0.07448
 H118 H 0.23900 -0.05627 -0.03871
 H119 H 0.25012 -0.07769 -0.00957
 C120 C 0.31146 -0.16024 -0.02642
 C121 C 0.20002 -0.16140 0.01803
 C122 C 0.23580 -0.08194 -0.05878
 C123 C 0.27333 -0.08619 0.05368
 C124 C 0.23528 0.15208 0.47468
 H125 H 0.24966 0.15240 0.46656
 C126 C 0.21851 0.16284 0.46696
 H127 H 0.21998 0.17159 0.45291
 C128 C 0.21543 0.13956 0.50240
 H129 H 0.21408 0.13003 0.51587
 C130 C 0.19833 0.15007 0.49521
 H131 H 0.18396 0.14877 0.50331
 N132 N 0.23346 0.14072 0.49210
 C133 C 0.29476 0.13055 0.51543
 H134 H 0.29429 0.11416 0.51740
 C135 C 0.31208 0.14117 0.52099
 H136 H 0.32501 0.13297 0.52728
 C137 C 0.27840 0.16131 0.50501
 H138 H 0.26516 0.16909 0.49898
 C139 C 0.29546 0.17255 0.51042
 H140 H 0.29537 0.18897 0.50845
 Zn141 Zn 0.25593 0.12449 0.50053
 N142 N 0.27847 0.14066 0.50740
 C143 C 0.28191 0.10791 0.47027
 N144 N 0.26290 0.10731 0.47864
 C145 C 0.24815 0.09539 0.47077
 C146 C 0.25235 0.08328 0.45392
 C147 C 0.28673 0.09603 0.45347
 C148 C 0.24510 0.11960 0.54131
 C149 C 0.23935 0.10939 0.55920
 C150 C 0.24203 0.07750 0.54143
 C151 C 0.24776 0.08832 0.52383
 N152 N 0.24884 0.10903 0.52402
 H153 H 0.29327 0.11785 0.47634
 H154 H 0.23306 0.09551 0.47747
 H155 H 0.24051 0.07396 0.44763
 H156 H 0.30185 0.09674 0.44680
 H157 H 0.24632 0.13603 0.54106
 H158 H 0.23606 0.11796 0.57280
 H159 H 0.24087 0.06105 0.54113
 H160 H 0.25119 0.08017 0.51007
 C161 C 0.31246 0.16234 0.51841
 C162 C 0.19985 0.16169 0.47727
 C163 C 0.23765 0.08818 0.55921
 C164 C 0.27182 0.08366 0.44520
 C165 C 0.15104 0.47460 0.23480
 H166 H 0.15134 0.46683 0.24943
 C167 C 0.16213 0.46676 0.21842
 H168 H 0.17111 0.45296 0.22043
 C169 C 0.13825 0.50155 0.21394
 H170 H 0.12852 0.51476 0.21206
 C171 C 0.14911 0.49424 0.19720
 H172 H 0.14785 0.50198 0.18258
 N173 N 0.13938 0.49169 0.23229
 C174 C 0.12808 0.51659 0.29251
 H175 H 0.11169 0.51797 0.29183
 C176 C 0.13839 0.52337 0.30954
 H177 H 0.12993 0.52999 0.32205
 C178 C 0.15919 0.50661 0.27686
 H179 H 0.16722 0.50031 0.26398
 C180 C 0.17012 0.51321 0.29366
 H181 H 0.18655 0.51189 0.29374
 Zn182 Zn 0.12278 0.50023 0.25432
 N183 N 0.13853 0.50827 0.27670
 C184 C 0.10675 0.47009 0.28118
 N185 N 0.10606 0.47799 0.26192
 C186 C 0.09442 0.46941 0.24738
 C187 C 0.08271 0.45226 0.25205
 C188 C 0.09528 0.45299 0.28647
 C189 C 0.11712 0.54066 0.24222
 C190 C 0.10660 0.55822 0.23608
 C191 C 0.07512 0.53959 0.23912
 C192 C 0.08625 0.52234 0.24524
 N193 N 0.10690 0.52311 0.24636
 H194 H 0.11647 0.47675 0.29238
 H195 H 0.09446 0.47578 0.23210
 H196 H 0.07363 0.44539 0.24037
 H197 H 0.09608 0.44666 0.30177
 H198 H 0.13352 0.54089 0.24351
 H199 H 0.11489 0.57205 0.23254
 H200 H 0.05872 0.53884 0.23798
 H201 H 0.07838 0.50839 0.24900
 C202 C 0.15958 0.52165 0.31013
 C203 C 0.16103 0.47662 0.19942
 C204 C 0.08544 0.55764 0.23440
 C205 C 0.08322 0.44396 0.27177
 C206 C -0.15393 0.01977 0.23149
 H207 H -0.15503 0.02716 0.24606
 C208 C -0.16525 0.02722 0.21501
 H209 H -0.17518 0.04033 0.21692
 C210 C -0.13904 -0.00582 0.21094
 H211 H -0.12844 -0.01833 0.20921
 C212 C -0.15004 0.00112 0.19411
 H213 H -0.14799 -0.00626 0.17959
 N214 N -0.14118 0.00349 0.22920
 C215 C -0.12989 -0.02268 0.28958
 H216 H -0.11346 -0.02356 0.28876
 C217 C -0.14011 -0.02996 0.30685
 H218 H -0.13156 -0.03650 0.31940
 C219 C -0.16114 -0.01320 0.27413
 H220 H -0.16925 -0.00682 0.26127
 C221 C -0.17199 -0.02032 0.29118
 H222 H -0.18844 -0.01932 0.29148
 Zn223 Zn -0.12464 -0.00487 0.25136
 N224 N -0.14044 -0.01429 0.27377
 C225 C -0.11066 0.02501 0.27838
 N226 N -0.10913 0.01790 0.25908
 C227 C -0.09735 0.02747 0.24478
 C228 C -0.08618 0.04468 0.24981
 C229 C -0.09976 0.04213 0.28403
 C230 C -0.11697 -0.04467 0.23946
 C231 C -0.10566 -0.06152 0.23313
 C232 C -0.07508 -0.04158 0.23576
 C233 C -0.08699 -0.02505 0.24209
 N234 N -0.10758 -0.02680 0.24348
 H235 H -0.12049 0.01759 0.28939
 H236 H -0.09671 0.02174 0.22945
 H237 H -0.07681 0.05221 0.23838
 H238 H -0.10106 0.04766 0.29943
 H239 H -0.13334 -0.04569 0.24093
 H240 H -0.11331 -0.07559 0.22966
 H241 H -0.05873 -0.04004 0.23438
 H242 H -0.07977 -0.01087 0.24573
 C243 C -0.16133 -0.02869 0.30771
 C244 C -0.16319 0.01784 0.19612
 C245 C -0.08455 -0.05992 0.23112
 C246 C -0.08741 0.05204 0.26964
 C247 C 0.34418 0.51893 0.73341
 H248 H 0.34304 0.52637 0.74795
 C249 C 0.33289 0.52632 0.71688
 H250 H 0.32293 0.53941 0.71869
 C251 C 0.35920 0.49335 0.71294
 H252 H 0.36985 0.48087 0.71124
 C253 C 0.34821 0.50024 0.69607
 H254 H 0.35030 0.49289 0.68155
 N255 N 0.35701 0.50270 0.73118
 C256 C 0.36872 0.47699 0.79171
 H257 H 0.38516 0.47634 0.79092
 C258 C 0.35858 0.46958 0.80899
 H259 H 0.36722 0.46320 0.82157
 C260 C 0.33736 0.48592 0.77619
 H261 H 0.32917 0.49210 0.76329
 C262 C 0.32660 0.47866 0.79324
 H263 H 0.31012 0.47937 0.79349
 Zn264 Zn 0.37370 0.49458 0.75331
 N265 N 0.35807 0.48515 0.77585
 C266 C 0.38789 0.52468 0.78002
 N267 N 0.38914 0.51749 0.76074
 C268 C 0.40066 0.52704 0.74621
 C269 C 0.41185 0.54432 0.75099
 C270 C 0.39882 0.54187 0.78542
 C271 C 0.38160 0.45476 0.74156
 C272 C 0.39300 0.43799 0.73516
 C273 C 0.42344 0.45822 0.73745
 C274 C 0.41144 0.47466 0.74384
 N275 N 0.39087 0.47273 0.74543
 H276 H 0.37827 0.51727 0.79122
 H277 H 0.40109 0.52123 0.73091
 H278 H 0.42103 0.55182 0.73938
 H279 H 0.39776 0.54746 0.80081
 H280 H 0.36525 0.45361 0.74317
 H281 H 0.38545 0.42385 0.73180
 H282 H 0.43976 0.45991 0.73589
 H283 H 0.41857 0.48892 0.74737
 C284 C 0.33734 0.47049 0.80980
 C285 C 0.33505 0.51693 0.69802
 C286 C 0.41408 0.43979 0.73293
 C287 C 0.41092 0.55175 0.77079
 C288 C 0.65114 0.97531 0.73354
 H289 H 0.65164 0.96723 0.74801
 C290 C 0.66202 0.96782 0.71685
 H291 H 0.67103 0.95399 0.71846
 C292 C 0.63806 1.00266 0.71341
 H293 H 0.62829 1.01589 0.71193
 C294 C 0.64869 0.99571 0.69638
 H295 H 0.64722 1.00374 0.68193
 N296 N 0.63946 0.99244 0.73155
 C297 C 0.62897 1.01588 0.79253
 H298 H 0.61257 1.01730 0.79210
 C299 C 0.63949 1.02197 0.80969
 H300 H 0.63115 1.02809 0.82255
 C301 C 0.65985 1.00635 0.77617
 H302 H 0.66770 1.00047 0.76299
 C303 C 0.67101 1.01230 0.79308
 H304 H 0.68745 1.01085 0.79289
 Zn305 Zn 0.62315 1.00051 0.75395
 N306 N 0.63919 1.00805 0.77632
 C307 C 0.60735 0.96983 0.78037
 N308 N 0.60650 0.97811 0.76128
 C309 C 0.59474 0.96982 0.74667
 C310 C 0.58302 0.95261 0.75112
 C311 C 0.59587 0.95267 0.78545
 C312 C 0.61740 1.04116 0.74271
 C313 C 0.60686 1.05877 0.73675
 C314 C 0.57541 1.04005 0.73948
 C315 C 0.58656 1.02275 0.74543
 N316 N 0.60721 1.02355 0.74659
 H317 H 0.61717 0.97625 0.79162
 H318 H 0.59466 0.97646 0.73150
 H319 H 0.57381 0.94599 0.73938
 H320 H 0.59676 0.94608 0.80064
 H321 H 0.63379 1.04139 0.74399
 H322 H 0.61513 1.07264 0.73336
 H323 H 0.55902 1.03928 0.73824
 H324 H 0.57871 1.00873 0.74896
 C325 C 0.66070 1.02011 0.81001
 C326 C 0.66065 0.97806 0.69808
 C327 C 0.58571 1.05816 0.73497
 C328 C 0.58364 0.94397 0.77069
 C329 C 0.01921 0.23277 -0.15007
 H330 H 0.02694 0.24726 -0.15063
 C331 C 0.02677 0.21641 -0.16130
 H332 H 0.04030 0.21830 -0.17065
 C333 C -0.00737 0.21226 -0.13658
 H334 H -0.02034 0.21049 -0.12655
 C335 C -0.00032 0.19554 -0.14754
 H336 H -0.00802 0.18106 -0.14606
 N337 N 0.00240 0.23044 -0.13805
 C338 C -0.02221 0.29135 -0.12726
 H339 H -0.02343 0.29055 -0.11085
 C340 C -0.02866 0.30886 -0.13774
 H341 H -0.03486 0.32163 -0.12940
 C342 C -0.01276 0.27563 -0.15823
 H343 H -0.00675 0.26257 -0.16614
 C344 C -0.01907 0.29289 -0.16933
 H345 H -0.01780 0.29315 -0.18577
 Zn346 Zn -0.00597 0.25247 -0.12159
 N347 N -0.01421 0.27530 -0.13755
 C348 C 0.02420 0.27854 -0.10619
 N349 N 0.01643 0.25938 -0.10521
 C350 C 0.02517 0.24453 -0.09342
 C351 C 0.04225 0.24880 -0.08174
 C352 C 0.04121 0.28344 -0.09476
 C353 C -0.04622 0.24109 -0.11535
 C354 C -0.06356 0.23495 -0.10462
 C355 C -0.04459 0.23699 -0.07336
 C356 C -0.02757 0.24313 -0.08472
 N357 N -0.02861 0.24473 -0.10536
 H358 H 0.01745 0.29000 -0.11604
 H359 H 0.01893 0.22932 -0.09323
 H360 H 0.04916 0.23690 -0.07243
 H361 H 0.04732 0.29871 -0.09569
 H362 H -0.04665 0.24274 -0.13175
 H363 H -0.07740 0.23181 -0.11284
 H364 H -0.04353 0.23546 -0.05695
 H365 H -0.01357 0.24650 -0.07703
 C366 C -0.02700 0.30967 -0.15895
 C367 C 0.01695 0.19761 -0.15992
 C368 C -0.06271 0.23272 -0.08344
 C369 C 0.05031 0.26845 -0.08245
 C370 C 0.47537 0.23500 0.15382
 H371 H 0.46775 0.24967 0.15415
 C372 C 0.46759 0.21859 0.16517
 H373 H 0.45399 0.22061 0.17437
 C374 C 0.50185 0.21407 0.14072
 H375 H 0.51484 0.21216 0.13076
 C376 C 0.49459 0.19731 0.15183
 H377 H 0.50216 0.18264 0.15053
 N378 N 0.49221 0.23247 0.14189
 C379 C 0.51774 0.29262 0.12958
 H380 H 0.51906 0.29175 0.11320
 C381 C 0.52463 0.30981 0.13953
 H382 H 0.53131 0.32225 0.13081
 C383 C 0.50764 0.27734 0.16099
 H384 H 0.50120 0.26456 0.16928
 C385 C 0.51436 0.29431 0.17157
 H386 H 0.51300 0.29462 0.18799
 Zn387 Zn 0.50067 0.25450 0.12495
 N388 N 0.50926 0.27692 0.14033
 C389 C 0.47079 0.28169 0.10922
 N390 N 0.47822 0.26228 0.10863
 C391 C 0.46911 0.24782 0.09730
 C392 C 0.45195 0.25276 0.08574
 C393 C 0.45372 0.28726 0.09789
 C394 C 0.54078 0.24217 0.11852
 C395 C 0.55797 0.23584 0.10767
 C396 C 0.53869 0.23890 0.07661
 C397 C 0.52182 0.24520 0.08805
 N398 N 0.52308 0.24640 0.10866
 H399 H 0.47786 0.29284 0.11869
 H400 H 0.47511 0.23242 0.09741
 H401 H 0.44471 0.24117 0.07684
 H402 H 0.44785 0.30272 0.09853
 H403 H 0.54141 0.24352 0.13488
 H404 H 0.57191 0.23222 0.11568
 H405 H 0.53754 0.23769 0.06025
 H406 H 0.50776 0.24904 0.08046
 C407 C 0.52287 0.31070 0.16069
 C408 C 0.47724 0.19955 0.16403
 C409 C 0.55687 0.23406 0.08656
 C410 C 0.44421 0.27267 0.08608
 C411 C 0.97586 0.73657 0.65504
 H412 H 0.96841 0.75131 0.65581
 C413 C 0.96799 0.71997 0.66604
 H414 H 0.95450 0.72191 0.67541
 C415 C 1.00200 0.71572 0.64119
 H416 H 1.01489 0.71393 0.63109
 C417 C 0.99465 0.69876 0.65193
 H418 H 1.00205 0.68406 0.65021
 N419 N 0.99258 0.73418 0.64292
 C420 C 1.01858 0.79439 0.63210
 H421 H 1.01974 0.79399 0.61569
 C422 C 1.02567 0.81123 0.64248
 H423 H 1.03232 0.82388 0.63406
 C424 C 1.00869 0.77827 0.66316
 H425 H 1.00225 0.76530 0.67114
 C426 C 1.01561 0.79488 0.67417
 H427 H 1.01440 0.79472 0.69061
 Zn428 Zn 1.00120 0.75655 0.62653
 N429 N 1.01011 0.77844 0.64248
 C430 C 0.97145 0.78442 0.61185
 N431 N 0.97876 0.76502 0.61051
 C432 C 0.96952 0.75106 0.59868
 C433 C 0.95233 0.75653 0.58738
 C434 C 0.95435 0.79050 0.60082
 C435 C 1.04113 0.74397 0.61972
 C436 C 1.05825 0.73775 0.60872
 C437 C 1.03901 0.74184 0.57772
 C438 C 1.02220 0.74802 0.58932
 N439 N 1.02348 0.74865 0.60997
 H440 H 0.97861 0.79515 0.62172
 H441 H 0.97541 0.73563 0.59820
 H442 H 0.94496 0.74533 0.57808
 H443 H 0.94856 0.80594 0.60209
 H444 H 1.04177 0.74487 0.63612
 H445 H 1.07216 0.73377 0.61664
 H446 H 1.03786 0.74109 0.56132
 H447 H 1.00818 0.75221 0.58183
 C448 C 1.02410 0.81152 0.66368
 C449 C 0.97742 0.70087 0.66434
 C450 C 1.05714 0.73655 0.58755
 C451 C 0.94470 0.77644 0.58851
 C452 C 0.52027 0.73262 0.34794
 H453 H 0.52800 0.74710 0.34712
 C454 C 0.52746 0.71624 0.33650
 H455 H 0.54070 0.71810 0.32675
 C456 C 0.49407 0.71215 0.36225
 H457 H 0.48140 0.71040 0.37266
 C458 C 0.50075 0.69542 0.35110
 H459 H 0.49307 0.68094 0.35282
 N460 N 0.50382 0.73032 0.36046
 C461 C 0.47962 0.79126 0.37186
 H462 H 0.47886 0.79045 0.38830
 C463 C 0.47289 0.80878 0.36158
 H464 H 0.46696 0.82153 0.37014
 C465 C 0.48818 0.77554 0.34065
 H466 H 0.49395 0.76248 0.33258
 C467 C 0.48158 0.79281 0.32973
 H468 H 0.48241 0.79302 0.31325
 Zn469 Zn 0.49593 0.75238 0.37711
 N470 N 0.48730 0.77521 0.36135
 C471 C 0.52652 0.77845 0.39171
 N472 N 0.51874 0.75931 0.39290
 C473 C 0.52765 0.74450 0.40462
 C474 C 0.54487 0.74882 0.41605
 C475 C 0.54368 0.78341 0.40288
 C476 C 0.45584 0.74094 0.38448
 C477 C 0.43881 0.73483 0.39574
 C478 C 0.45859 0.73725 0.42642
 C479 C 0.47529 0.74335 0.41457
 N480 N 0.47370 0.74472 0.39395
 H481 H 0.51961 0.78988 0.38193
 H482 H 0.52138 0.72931 0.40500
 H483 H 0.55188 0.73698 0.42536
 H484 H 0.54977 0.79868 0.40183
 H485 H 0.45495 0.74242 0.36809
 H486 H 0.42474 0.73152 0.38804
 H487 H 0.46001 0.73586 0.44280
 H488 H 0.48947 0.74685 0.42186
 C489 C 0.47395 0.80961 0.34033
 C490 C 0.51764 0.69745 0.33819
 C491 C 0.44025 0.73283 0.41688
 C492 C 0.55292 0.76848 0.41516
 C493 C 0.39898 -0.01692 0.27306
 H494 H 0.39908 -0.00246 0.28073
 C495 C 0.41037 -0.03336 0.28074
 H496 H 0.41938 -0.03157 0.29431
 C497 C 0.38647 -0.03728 0.24652
 H498 H 0.37674 -0.03897 0.23352
 C499 C 0.39762 -0.05407 0.25368
 H500 H 0.39660 -0.06852 0.24603
 N501 N 0.38734 -0.01914 0.25622
 C502 C 0.37562 0.04172 0.23093
 H503 H 0.35925 0.04089 0.22958
 C504 C 0.38578 0.05926 0.22445
 H505 H 0.37725 0.07201 0.21808
 C506 C 0.40676 0.02611 0.24085
 H507 H 0.41486 0.01309 0.24709
 C508 C 0.41754 0.04340 0.23451
 H509 H 0.43394 0.04372 0.23598
 Zn510 Zn 0.37054 0.00294 0.24769
 N511 N 0.38613 0.02571 0.23919
 C512 C 0.35451 0.02922 0.27764
 N513 N 0.35374 0.01005 0.27008
 C514 C 0.34212 -0.00462 0.27917
 C515 C 0.33052 -0.00018 0.29650
 C516 C 0.34315 0.03428 0.29487
 C517 C 0.36533 -0.00829 0.20759
 C518 C 0.35515 -0.01450 0.19027
 C519 C 0.32347 -0.01290 0.20915
 C520 C 0.33427 -0.00668 0.22618
 N521 N 0.35487 -0.00482 0.22516
 H522 H 0.36422 0.04053 0.27062
 H523 H 0.34211 -0.01985 0.27310
 H524 H 0.32145 -0.01197 0.30379
 H525 H 0.34401 0.04953 0.30088
 H526 H 0.38167 -0.00647 0.20717
 H527 H 0.36366 -0.01752 0.17643
 H528 H 0.30711 -0.01465 0.21009
 H529 H 0.32620 -0.00349 0.24016
 C530 C 0.40691 0.06015 0.22634
 C531 C 0.40958 -0.05213 0.27099
 C532 C 0.33407 -0.01697 0.19110
 C533 C 0.33112 0.01945 0.30443
 C534 C 0.09596 1.02515 0.77608
 H535 H 0.09495 1.01053 0.78383
 C536 C 0.08452 1.04173 0.78306
 H537 H 0.07456 1.03986 0.79617
 C538 C 0.11077 1.04578 0.75005
 H539 H 0.12139 1.04749 0.73753
 C540 C 0.09962 1.06271 0.75653
 H541 H 0.10154 1.07730 0.74884
 N542 N 0.10874 1.02744 0.75981
 C543 C 0.12055 0.96683 0.73589
 H544 H 0.13698 0.96747 0.73524
 C545 C 0.11056 0.94963 0.72905
 H546 H 0.11930 0.93695 0.72310
 C547 C 0.08906 0.98267 0.74429
 H548 H 0.08078 0.99567 0.75006
 C549 C 0.07843 0.96569 0.73757
 H550 H 0.06196 0.96558 0.73827
 Zn551 Zn 0.12540 1.00506 0.75223
 N552 N 0.10977 0.98280 0.74354
 C553 C 0.13950 0.97790 0.78302
 N554 N 0.14097 0.99717 0.77519
 C555 C 0.15295 1.01129 0.78403
 C556 C 0.16447 1.00606 0.80115
 C557 C 0.15074 0.97205 0.80007
 C558 C 0.13314 1.01705 0.71214
 C559 C 0.14459 1.02267 0.69503
 C560 C 0.17515 1.01848 0.71492
 C561 C 0.16311 1.01291 0.73170
 N562 N 0.14247 1.01259 0.73009
 H563 H 0.12951 0.96704 0.77618
 H564 H 0.15356 1.02661 0.77773
 H565 H 0.17408 1.01731 0.80804
 H566 H 0.14954 0.95665 0.80613
 H567 H 0.11673 1.01636 0.71123
 H568 H 0.13701 1.02642 0.68087
 H569 H 0.19155 1.01892 0.71632
 H570 H 0.17027 1.00886 0.74594
 C571 C 0.08933 0.94902 0.72996
 C572 C 0.08646 1.06069 0.77323
 C573 C 0.16577 1.02348 0.69646
 C574 C 0.16338 0.98622 0.80917
 C575 C 0.59451 0.52477 0.27252
 H576 H 0.59351 0.51012 0.28022
 C577 C 0.58311 0.54133 0.27960
 H578 H 0.57320 0.53944 0.29273
 C579 C 0.60928 0.54547 0.24652
 H580 H 0.61987 0.54722 0.23399
 C581 C 0.59818 0.56239 0.25310
 H582 H 0.60011 0.57702 0.24547
 N583 N 0.60725 0.52710 0.25623
 C584 C 0.61906 0.46658 0.23214
 H585 H 0.63550 0.46720 0.23150
 C586 C 0.60905 0.44945 0.22517
 H587 H 0.61778 0.43679 0.21914
 C588 C 0.58759 0.48241 0.24059
 H589 H 0.57932 0.49539 0.24642
 C590 C 0.57694 0.46550 0.23375
 H591 H 0.56047 0.46541 0.23443
 Zn592 Zn 0.62392 0.50477 0.24857
 N593 N 0.60830 0.48252 0.23985
 C594 C 0.63814 0.47760 0.27929
 N595 N 0.63954 0.49689 0.27151
 C596 C 0.65142 0.51106 0.28040
 C597 C 0.66293 0.50585 0.29754
 C598 C 0.64937 0.47178 0.29636
 C599 C 0.63156 0.51686 0.20851
 C600 C 0.64297 0.52263 0.19141
 C601 C 0.67356 0.51855 0.21127
 C602 C 0.66157 0.51283 0.22804
 N603 N 0.64093 0.51239 0.22643
 H604 H 0.62823 0.46670 0.27241
 H605 H 0.65197 0.52639 0.27412
 H606 H 0.67245 0.51715 0.30447
 H607 H 0.64824 0.45636 0.30240
 H608 H 0.61516 0.51609 0.20760
 H609 H 0.63536 0.52641 0.17727
 H610 H 0.68996 0.51910 0.21268
 H611 H 0.66876 0.50877 0.24226
 C612 C 0.58782 0.44886 0.22604
 C613 C 0.58507 0.56033 0.26984
 C614 C 0.66414 0.52358 0.19284
 C615 C 0.66191 0.48600 0.30552
 C616 C 0.89872 0.48392 0.77177
 H617 H 0.89878 0.49840 0.77940
 C618 C 0.91009 0.46751 0.77954
 H619 H 0.91904 0.46934 0.79314
 C620 C 0.88631 0.46346 0.74525
 H621 H 0.87663 0.46173 0.73222
 C622 C 0.89745 0.44670 0.75250
 H623 H 0.89645 0.43222 0.74491
 N624 N 0.88715 0.48164 0.75489
 C625 C 0.87541 0.54249 0.72957
 H626 H 0.85905 0.54164 0.72816
 C627 C 0.88557 0.56005 0.72313
 H628 H 0.87704 0.57279 0.71675
 C629 C 0.90654 0.52690 0.73956
 H630 H 0.91464 0.51389 0.74582
 C631 C 0.91732 0.54422 0.73328
 H632 H 0.93371 0.54456 0.73482
 Zn633 Zn 0.87033 0.50369 0.74629
 N634 N 0.88591 0.52648 0.73784
 C635 C 0.85418 0.52989 0.77625
 N636 N 0.85347 0.51075 0.76863
 C637 C 0.84186 0.49602 0.77766
 C638 C 0.83024 0.50038 0.79500
 C639 C 0.84281 0.53487 0.79350
 C640 C 0.86524 0.49235 0.70619
 C641 C 0.85509 0.48616 0.68884
 C642 C 0.82335 0.48794 0.70760
 C643 C 0.83412 0.49414 0.72466
 N644 N 0.85473 0.49590 0.72371
 H645 H 0.86389 0.54124 0.76928
 H646 H 0.84189 0.48082 0.77154
 H647 H 0.82120 0.48855 0.80224
 H648 H 0.84365 0.55009 0.79957
 H649 H 0.88159 0.49409 0.70583
 H650 H 0.86363 0.48308 0.67504
 H651 H 0.80698 0.48629 0.70848
 H652 H 0.82602 0.49740 0.73861
 C653 C 0.90669 0.56096 0.72510
 C654 C 0.90934 0.44871 0.76986
 C655 C 0.83399 0.48380 0.68960
 C656 C 0.83081 0.51998 0.80300
 C657 C 0.26825 0.39636 -0.01562
 H658 H 0.27584 0.39693 -0.00110
 C659 C 0.27608 0.40718 -0.03238
 H660 H 0.28966 0.41622 -0.03077
 C661 C 0.24189 0.38308 -0.03581
 H662 H 0.22894 0.37324 -0.03728
 C663 C 0.24921 0.39366 -0.05292
 H664 H 0.24172 0.39208 -0.06742
 N665 N 0.25147 0.38458 -0.01761
 C666 C 0.22636 0.37384 0.04329
 H667 H 0.22516 0.35742 0.04285
 C668 C 0.21989 0.38425 0.06054
 H669 H 0.21367 0.37585 0.07345
 C670 C 0.23597 0.40486 0.02700
 H671 H 0.24214 0.41281 0.01385
 C672 C 0.22964 0.41589 0.04400
 H673 H 0.23103 0.43233 0.04395
 Zn674 Zn 0.24318 0.36817 0.00491
 N675 N 0.23447 0.38418 0.02710
 C676 C 0.27358 0.35352 0.03177
 N677 N 0.26593 0.35202 0.01268
 C678 C 0.27531 0.34032 -0.00159
 C679 C 0.29312 0.32950 0.00317
 C680 C 0.29128 0.34295 0.03714
 C681 C 0.20316 0.36179 -0.00640
 C682 C 0.18600 0.35098 -0.01209
 C683 C 0.20552 0.31971 -0.00894
 C684 C 0.22237 0.33113 -0.00326
 N685 N 0.22095 0.35181 -0.00240
 H686 H 0.26631 0.36330 0.04274
 H687 H 0.26915 0.33974 -0.01678
 H688 H 0.30068 0.32047 -0.00833
 H689 H 0.29742 0.34448 0.05228
 H690 H 0.20242 0.37821 -0.00534
 H691 H 0.17198 0.35909 -0.01550
 H692 H 0.20678 0.30328 -0.00987
 H693 H 0.23652 0.32347 0.00034
 C694 C 0.22165 0.40544 0.06094
 C695 C 0.26654 0.40568 -0.05123
 C696 C 0.18723 0.32978 -0.01349
 C697 C 0.30120 0.33095 0.02270
 C698 C 0.77251 0.09303 1.02247
 H699 H 0.78025 0.09184 1.00794
 C700 C 0.77980 0.08213 1.03939
 H701 H 0.79312 0.07240 1.03789
 C702 C 0.74621 0.10775 1.04247
 H703 H 0.73347 0.11814 1.04380
 C704 C 0.75299 0.09714 1.05973
 H705 H 0.74529 0.09924 1.07420
 N706 N 0.75596 0.10550 1.02428
 C707 C 0.73172 0.11535 0.96327
 H708 H 0.73071 0.13181 0.96334
 C709 C 0.72516 0.10472 0.94639
 H710 H 0.71907 0.11300 0.93337
 C711 C 0.74078 0.08443 0.98022
 H712 H 0.74670 0.07661 0.99352
 C713 C 0.73434 0.07318 0.96360
 H714 H 0.73541 0.05669 0.96406
 Zn715 Zn 0.74791 0.12151 1.00143
 N716 N 0.73957 0.10516 0.97964
 C717 C 0.77827 0.13601 0.97409
 N718 N 0.77049 0.13751 0.99327
 C719 C 0.77913 0.14982 1.00719
 C720 C 0.79603 0.16161 1.00186
 C721 C 0.79511 0.14753 0.96814
 C722 C 0.70770 0.12863 1.01313
 C723 C 0.69046 0.13986 1.01866
 C724 C 0.70975 0.17078 1.01380
 C725 C 0.72666 0.15895 1.00833
 N726 N 0.72542 0.13825 1.00842
 H727 H 0.77160 0.12577 0.96339
 H728 H 0.77287 0.15044 1.02244
 H729 H 0.80279 0.17143 1.01298
 H730 H 0.80117 0.14627 0.95283
 H731 H 0.70708 0.11217 1.01279
 H732 H 0.67650 0.13206 1.02269
 H733 H 0.71089 0.18723 1.01398
 H734 H 0.74073 0.16634 1.00410
 C735 C 0.72654 0.08347 0.94651
 C736 C 0.76998 0.08430 1.05820
 C737 C 0.69155 0.16111 1.01912
 C738 C 0.80402 0.16047 0.98213
 C739 C 0.27200 0.59450 0.52353
 H740 H 0.27982 0.59348 0.50903
 C741 C 0.27904 0.58323 0.54032
 H742 H 0.29226 0.57338 0.53875
 C743 C 0.24573 0.60920 0.54362
 H744 H 0.23310 0.61971 0.54503
 C745 C 0.25227 0.59821 0.56075
 H746 H 0.24451 0.60016 0.57520
 N747 N 0.25560 0.60716 0.52545
 C748 C 0.23177 0.61869 0.46457
 H749 H 0.23104 0.63515 0.46502
 C750 C 0.22498 0.60858 0.44747
 H751 H 0.21899 0.61726 0.43466
 C752 C 0.24033 0.58724 0.48080
 H753 H 0.24615 0.57902 0.49391
 C754 C 0.23366 0.57650 0.46393
 H755 H 0.23444 0.56000 0.46401
 Zn756 Zn 0.24798 0.62374 0.50286
 N757 N 0.23946 0.60799 0.48070
 C758 C 0.27874 0.63803 0.47592
 N759 N 0.27089 0.63944 0.49508
 C760 C 0.27976 0.65133 0.50923
 C761 C 0.29698 0.66276 0.50415
 C762 C 0.29589 0.64919 0.47023
 C763 C 0.20779 0.63130 0.51417
 C764 C 0.19062 0.64267 0.51959
 C765 C 0.21047 0.67336 0.51582
 C766 C 0.22731 0.66139 0.51043
 N767 N 0.22574 0.64073 0.51000
 H768 H 0.27188 0.62811 0.46504
 H769 H 0.27344 0.65188 0.52446
 H770 H 0.30395 0.67221 0.51546
 H771 H 0.30202 0.64798 0.45494
 H772 H 0.20692 0.61487 0.51342
 H773 H 0.17646 0.63501 0.52314
 H774 H 0.21185 0.68978 0.51639
 H775 H 0.24156 0.66863 0.50663
 C776 C 0.22599 0.58732 0.44711
 C777 C 0.26913 0.58521 0.55911
 C778 C 0.19201 0.66387 0.52053
 C779 C 0.30507 0.66167 0.48445
 C780 C 0.76869 0.89935 0.48287
 H781 H 0.77596 0.90036 0.49751
 C782 C 0.77658 0.91008 0.46607
 H783 H 0.78990 0.91948 0.46779
 C784 C 0.74308 0.88508 0.46241
 H785 H 0.73040 0.87490 0.46086
 C786 C 0.75046 0.89555 0.44527
 H787 H 0.74331 0.89353 0.43066
 N788 N 0.75224 0.88713 0.48075
 C789 C 0.72604 0.87690 0.54124
 H790 H 0.72507 0.86046 0.54095
 C791 C 0.71922 0.88741 0.55828
 H792 H 0.71295 0.87906 0.57120
 C793 C 0.73558 0.90787 0.52480
 H794 H 0.74189 0.91576 0.51168
 C795 C 0.72890 0.91900 0.54160
 H796 H 0.73015 0.93545 0.54144
 Zn797 Zn 0.74380 0.87095 0.50337
 N798 N 0.73432 0.88717 0.52508
 C799 C 0.77384 0.85755 0.53115
 N800 N 0.76667 0.85538 0.51195
 C801 C 0.77658 0.84345 0.49823
 C802 C 0.79444 0.83306 0.50370
 C803 C 0.79156 0.84743 0.53723
 C804 C 0.70419 0.86369 0.49136
 C805 C 0.68734 0.85253 0.48548
 C806 C 0.70728 0.82162 0.48948
 C807 C 0.72381 0.83339 0.49534
 N808 N 0.72204 0.85406 0.49588
 H809 H 0.76617 0.86752 0.54168
 H810 H 0.77081 0.84234 0.48293
 H811 H 0.80242 0.82381 0.49265
 H812 H 0.79730 0.84950 0.55245
 H813 H 0.70316 0.88012 0.49216
 H814 H 0.67327 0.86036 0.48166
 H815 H 0.70881 0.80519 0.48883
 H816 H 0.73801 0.82601 0.49934
 C817 C 0.72080 0.90862 0.55853
 C818 C 0.76745 0.90802 0.44708
 C819 C 0.68893 0.83133 0.48441
 C820 C 0.80201 0.83519 0.52337
 C821 C -0.01675 0.26872 0.39890
 H822 H -0.00218 0.27625 0.39927
 C823 C -0.03320 0.27644 0.41007
 H824 H -0.03131 0.28989 0.41918
 C825 C -0.03737 0.24257 0.38585
 H826 H -0.03914 0.22973 0.37599
 C827 C -0.05418 0.24978 0.39677
 H828 H -0.06874 0.24233 0.39543
 N829 N -0.01909 0.25207 0.38709
 C830 C 0.04150 0.22666 0.37566
 H831 H 0.04077 0.22558 0.35928
 C832 C 0.05890 0.22002 0.38589
 H833 H 0.07164 0.21380 0.37740
 C834 C 0.02577 0.23609 0.40677
 H835 H 0.01277 0.24223 0.41483
 C836 C 0.04292 0.22959 0.41762
 H837 H 0.04314 0.23083 0.43403
 Zn838 Zn 0.00301 0.24372 0.37042
 N839 N 0.02551 0.23478 0.38612
 C840 C 0.02973 0.27394 0.35500
 N841 N 0.01052 0.26647 0.35401
 C842 C -0.00397 0.27590 0.34245
 C843 C 0.00073 0.29348 0.33111
 C844 C 0.03506 0.29142 0.34391
 C845 C -0.00872 0.20374 0.36449
 C846 C -0.01505 0.18667 0.35397
 C847 C -0.01287 0.20631 0.32260
 C848 C -0.00654 0.22306 0.33374
 N849 N -0.00490 0.22155 0.35434
 H850 H 0.04089 0.26664 0.36468
 H851 H -0.01924 0.26989 0.34227
 H852 H -0.01089 0.30101 0.32206
 H853 H 0.05035 0.29734 0.34492
 H854 H -0.00708 0.20293 0.38085
 H855 H -0.01833 0.17264 0.36222
 H856 H -0.01443 0.20764 0.30624
 H857 H -0.00308 0.23723 0.32592
 C858 C 0.05967 0.22161 0.40704
 C859 C -0.05211 0.26694 0.40887
 C860 C -0.01728 0.18801 0.33287
 C861 C 0.02043 0.30130 0.33192
 C862 C 1.02516 0.77425 0.09163
 H863 H 1.01070 0.78210 0.09003
 C864 C 1.04220 0.78118 0.08076
 H865 H 1.04087 0.79433 0.07067
 C866 C 1.04486 0.74803 0.10731
 H867 H 1.04602 0.73546 0.11804
 C868 C 1.06223 0.75445 0.09676
 H869 H 1.07662 0.74666 0.09925
 N870 N 1.02676 0.75791 0.10455
 C871 C 0.96553 0.73425 0.11402
 H872 H 0.96547 0.73354 0.13047
 C873 C 0.94869 0.72758 0.10333
 H874 H 0.93557 0.72173 0.11156
 C875 C 0.98277 0.74263 0.08319
 H876 H 0.99617 0.74832 0.07543
 C877 C 0.96618 0.73608 0.07187
 H878 H 0.96677 0.73684 0.05541
 Zn879 Zn 1.00373 0.75033 0.12037
 N880 N 0.98201 0.74183 0.10390
 C881 C 0.97649 0.78120 0.13355
 N882 N 0.99557 0.77326 0.13567
 C883 C 1.00935 0.78193 0.14815
 C884 C 1.00392 0.79897 0.15956
 C885 C 0.97046 0.79818 0.14466
 C886 C 1.01497 0.71009 0.12850
 C887 C 1.02017 0.69289 0.14012
 C888 C 1.01528 0.71261 0.17054
 C889 C 1.01014 0.72949 0.15833
 N890 N 1.01039 0.72801 0.13769
 H891 H 0.96592 0.77449 0.12318
 H892 H 1.02453 0.77554 0.14927
 H893 H 1.01489 0.80571 0.16958
 H894 H 0.95520 0.80432 0.14296
 H895 H 1.01476 0.70929 0.11208
 H896 H 1.02407 0.67876 0.13266
 H897 H 1.01531 0.71392 0.18695
 H898 H 1.00600 0.74371 0.16537
 C899 C 0.94897 0.72857 0.08209
 C900 C 1.06091 0.77122 0.08345
 C901 C 1.02044 0.69420 0.16131
 C902 C 0.98425 0.80709 0.15783
 C903 C 0.52517 0.27539 0.59288
 H904 H 0.51066 0.28315 0.59132
 C905 C 0.54214 0.28244 0.58201
 H906 H 0.54073 0.29561 0.57196
 C907 C 0.54502 0.24920 0.60843
 H908 H 0.54624 0.23658 0.61909
 C909 C 0.56234 0.25575 0.59787
 H910 H 0.57677 0.24801 0.60029
 N911 N 0.52686 0.25899 0.60572
 C912 C 0.46571 0.23491 0.61453
 H913 H 0.46544 0.23415 0.63099
 C914 C 0.44905 0.22819 0.60360
 H915 H 0.43585 0.22225 0.61163
 C916 C 0.48332 0.24345 0.58395
 H917 H 0.49679 0.24920 0.57639
 C918 C 0.46692 0.23685 0.57240
 H919 H 0.46774 0.23765 0.55594
 Zn920 Zn 0.50381 0.25113 0.62136
 N921 N 0.48229 0.24259 0.60465
 C922 C 0.47628 0.28172 0.63459
 N923 N 0.49540 0.27390 0.63676
 C924 C 0.50905 0.28260 0.64936
 C925 C 0.50345 0.29954 0.66083
 C926 C 0.47008 0.29861 0.64575
 C927 C 0.51530 0.21091 0.62930
 C928 C 0.52057 0.19368 0.64084
 C929 C 0.51537 0.21318 0.67136
 C930 C 0.51016 0.23009 0.65922
 N931 N 0.51053 0.22873 0.63857
 H932 H 0.46581 0.27501 0.62412
 H933 H 0.52427 0.27630 0.65053
 H934 H 0.51433 0.30629 0.67095
 H935 H 0.45479 0.30466 0.64401
 H936 H 0.51518 0.21021 0.61287
 H937 H 0.52462 0.17963 0.63331
 H938 H 0.51531 0.21439 0.68777
 H939 H 0.50589 0.24423 0.66632
 C940 C 0.44962 0.22924 0.58236
 C941 C 0.56090 0.27255 0.58461
 C942 C 0.52072 0.19486 0.66204
 C943 C 0.48375 0.30754 0.65904
 C944 C 0.48343 0.76944 0.89740
 H945 H 0.49799 0.77700 0.89743
 C946 C 0.46717 0.77722 0.90880
 H947 H 0.46921 0.79076 0.91776
 C948 C 0.46262 0.74311 0.88500
 H949 H 0.46070 0.73016 0.87531
 C950 C 0.44600 0.75038 0.89617
 H951 H 0.43144 0.74286 0.89520
 N952 N 0.48090 0.75266 0.88581
 C953 C 0.54129 0.72705 0.87390
 H954 H 0.54037 0.72578 0.85755
 C955 C 0.55880 0.72052 0.88401
 H956 H 0.57145 0.71420 0.87544
 C957 C 0.52593 0.73687 0.90507
 H958 H 0.51304 0.74313 0.91321
 C959 C 0.54321 0.73050 0.91580
 H960 H 0.54363 0.73195 0.93218
 Zn961 Zn 0.50278 0.74413 0.86893
 N962 N 0.52543 0.73530 0.88445
 C963 C 0.52940 0.77420 0.85309
 N964 N 0.51017 0.76674 0.85228
 C965 C 0.49561 0.77613 0.84077
 C966 C 0.50023 0.79369 0.82936
 C967 C 0.53465 0.79165 0.84192
 C968 C 0.49093 0.70411 0.86349
 C969 C 0.48451 0.68695 0.85318
 C970 C 0.48640 0.70629 0.82162
 C971 C 0.49283 0.72315 0.83254
 N972 N 0.49466 0.72183 0.85314
 H973 H 0.54062 0.76695 0.86273
 H974 H 0.48033 0.77014 0.84073
 H975 H 0.48854 0.80121 0.82039
 H976 H 0.54994 0.79758 0.84283
 H977 H 0.49274 0.70345 0.87983
 H978 H 0.48131 0.67298 0.86159
 H979 H 0.48469 0.70747 0.80527
 H980 H 0.49622 0.73725 0.82457
 C981 C 0.55982 0.72238 0.90512
 C982 C 0.44827 0.76765 0.90807
 C983 C 0.48209 0.68809 0.83210
 C984 C 0.51993 0.80152 0.83003
 C985 C 0.43795 -0.10288 0.29470
 C986 C 0.44615 -0.10263 0.31454
 C987 C 0.45433 -0.12081 0.32336
 C988 C 0.45428 -0.13914 0.31228
 C989 C 0.44653 -0.13929 0.29226
 C990 C 0.43834 -0.12110 0.28344
 C991 C 0.43055 -0.12166 0.26345
 C992 C 0.43087 -0.13965 0.25248
 C993 C 0.43890 -0.15742 0.26110
 C994 C 0.44665 -0.15734 0.28076
 C995 C 0.46232 -0.12020 0.34327
 C996 C 0.46224 -0.10215 0.35414
 C997 C 0.45423 -0.08438 0.34552
 C998 C 0.44625 -0.08452 0.32595
 C999 C 0.46162 -0.15791 0.32178
 C1000 C 0.46750 -0.17330 0.33020
 C1001 C 0.42845 -0.08462 0.28619
 C1002 C 0.42012 -0.06965 0.27924
 H1003 H 0.42418 -0.10821 0.25609
 H1004 H 0.42487 -0.13980 0.23720
 H1005 H 0.43912 -0.17136 0.25251
 H1006 H 0.45276 -0.17153 0.28682
 H1007 H 0.46874 -0.13362 0.35063
 H1008 H 0.46842 -0.10196 0.36935
 H1009 H 0.45421 -0.07039 0.35403
 H1010 H 0.44023 -0.07030 0.31988
 C1011 C 0.93756 0.39803 0.79391
 C1012 C 0.94633 0.39855 0.81349
 C1013 C 0.95439 0.38040 0.82249
 C1014 C 0.95365 0.36183 0.81185
 C1015 C 0.94539 0.36142 0.79204
 C1016 C 0.93732 0.37957 0.78305
 C1017 C 0.92900 0.37875 0.76329
 C1018 C 0.92870 0.36052 0.75271
 C1019 C 0.93661 0.34278 0.76150
 C1020 C 0.94487 0.34313 0.78095
 C1021 C 0.96295 0.38129 0.84214
 C1022 C 0.96353 0.39958 0.85259
 C1023 C 0.95565 0.41732 0.84379
 C1024 C 0.94711 0.41690 0.82447
 C1025 C 0.96078 0.34310 0.82159
 C1026 C 0.96646 0.32772 0.83016
 C1027 C 0.92813 0.41626 0.78527
 C1028 C 0.91984 0.43121 0.77822
 H1029 H 0.92270 0.39215 0.75580
 H1030 H 0.92230 0.36017 0.73761
 H1031 H 0.93635 0.32867 0.75322
 H1032 H 0.95088 0.32896 0.78714
 H1033 H 0.96931 0.36790 0.84962
 H1034 H 0.97014 0.39998 0.86760
 H1035 H 0.95614 0.43148 0.85197
 H1036 H 0.94121 0.43111 0.81824
 C1037 C 0.05754 1.11149 0.79501
 C1038 C 0.06413 1.13097 0.78825
 C1039 C 0.05535 1.14883 0.79673
 C1040 C 0.04003 1.14712 0.81191
 C1041 C 0.03310 1.12765 0.81832
 C1042 C 0.04189 1.10979 0.80985
 C1043 C 0.03479 1.09050 0.81658
 C1044 C 0.01944 1.08890 0.83125
 C1045 C 0.01084 1.10636 0.83953
 C1046 C 0.01753 1.12555 0.83321
 C1047 C 0.06227 1.16812 0.78982
 C1048 C 0.07741 1.16973 0.77493
 C1049 C 0.08599 1.15227 0.76663
 C1050 C 0.07949 1.13308 0.77316
 C1051 C 0.03179 1.16530 0.82136
 C1052 C 0.02502 1.18019 0.82963
 C1053 C 0.06730 1.09326 0.78716
 C1054 C 0.07579 1.07828 0.78077
 H1055 H 0.04099 1.07648 0.81057
 H1056 H 0.01418 1.07403 0.83622
 H1057 H -0.00109 1.10503 0.85092
 H1058 H 0.01035 1.13867 0.84007
 H1059 H 0.05603 1.18214 0.79579
 H1060 H 0.08251 1.18460 0.76980
 H1061 H 0.09775 1.15361 0.75506
 H1062 H 0.08661 1.11995 0.76622
 C1063 C 0.55667 0.61121 0.29208
 C1064 C 0.56337 0.63065 0.28534
 C1065 C 0.55488 0.64855 0.29403
 C1066 C 0.53973 0.64689 0.30938
 C1067 C 0.53266 0.62746 0.31575
 C1068 C 0.54116 0.60957 0.30707
 C1069 C 0.53394 0.59032 0.31376
 C1070 C 0.51873 0.58878 0.32859
 C1071 C 0.51042 0.60627 0.33708
 C1072 C 0.51725 0.62543 0.33080
 C1073 C 0.56192 0.66780 0.28714
 C1074 C 0.57690 0.66935 0.27208
 C1075 C 0.58519 0.65186 0.26357
 C1076 C 0.57857 0.63269 0.27007
 C1077 C 0.53183 0.66510 0.31907
 C1078 C 0.52536 0.68001 0.32753
 C1079 C 0.56620 0.59294 0.28405
 C1080 C 0.57453 0.57793 0.27754
 H1081 H 0.53992 0.57628 0.30758
 H1082 H 0.51337 0.57394 0.33352
 H1083 H 0.49860 0.60499 0.34859
 H1084 H 0.51029 0.63858 0.33783
 H1085 H 0.55590 0.68184 0.29328
 H1086 H 0.58209 0.68420 0.26698
 H1087 H 0.59681 0.65314 0.25186
 H1088 H 0.58546 0.61954 0.26297
 C1089 C 0.56131 0.39744 0.20443
 C1090 C 0.57429 0.38337 0.19444
 C1091 C 0.56612 0.36530 0.18627
 C1092 C 0.54503 0.36138 0.18813
 C1093 C 0.53209 0.37536 0.19827
 C1094 C 0.54026 0.39344 0.20645
 C1095 C 0.52703 0.40721 0.21646
 C1096 C 0.50630 0.40324 0.21834
 C1097 C 0.49831 0.38556 0.21035
 C1098 C 0.51099 0.37172 0.20041
 C1099 C 0.57939 0.35152 0.17628
 C1100 C 0.60012 0.35547 0.17442
 C1101 C 0.60811 0.37313 0.18242
 C1102 C 0.59542 0.38696 0.19233
 C1103 C 0.53667 0.34326 0.17908
 C1104 C 0.53016 0.32831 0.17103
 C1105 C 0.56975 0.41601 0.21244
 C1106 C 0.57752 0.43119 0.21880
 H1107 H 0.53256 0.42116 0.22292
 H1108 H 0.49639 0.41394 0.22605
 H1109 H 0.48220 0.38255 0.21186
 H1110 H 0.50408 0.35818 0.19446
 H1111 H 0.57391 0.33756 0.16981
 H1112 H 0.61003 0.34476 0.16672
 H1113 H 0.62422 0.37613 0.18093
 H1114 H 0.60238 0.40047 0.19829
 C1115 C 0.06281 0.89740 0.70877
 C1116 C 0.07592 0.88279 0.69976
 C1117 C 0.06773 0.86478 0.69149
 C1118 C 0.04648 0.86146 0.69227
 C1119 C 0.03341 0.87590 0.70157
 C1120 C 0.04160 0.89393 0.70984
 C1121 C 0.02824 0.90819 0.71896
 C1122 C 0.00736 0.90473 0.71992
 C1123 C -0.00065 0.88710 0.71185
 C1124 C 0.01215 0.87280 0.70275
 C1125 C 0.08114 0.85046 0.68248
 C1126 C 0.10203 0.85383 0.68167
 C1127 C 0.11004 0.87144 0.68975
 C1128 C 0.09722 0.88580 0.69871
 C1129 C 0.03810 0.84355 0.68285
 C1130 C 0.03152 0.82882 0.67445
 C1131 C 0.07126 0.91603 0.71665
 C1132 C 0.07903 0.93126 0.72288
 H1133 H 0.03378 0.92212 0.72545
 H1134 H -0.00265 0.91579 0.72696
 H1135 H -0.01688 0.88449 0.71264
 H1136 H 0.00522 0.85930 0.69671
 H1137 H 0.07565 0.83651 0.67600
 H1138 H 0.11205 0.84272 0.67472
 H1139 H 0.12628 0.87399 0.68908
 H1140 H 0.10420 0.89925 0.70479
 C1141 C 0.93520 0.61334 0.70634
 C1142 C 0.92426 0.63200 0.70727
 C1143 C 0.93323 0.65025 0.69964
 C1144 C 0.95308 0.64974 0.69112
 C1145 C 0.96418 0.63116 0.69060
 C1146 C 0.95522 0.61290 0.69824
 C1147 C 0.96657 0.59450 0.69745
 C1148 C 0.98622 0.59414 0.68934
 C1149 C 0.99499 0.61197 0.68186
 C1150 C 0.98416 0.63031 0.68243
 C1151 C 0.92195 0.66869 0.70063
 C1152 C 0.90237 0.66909 0.70891
 C1153 C 0.89359 0.65125 0.71635
 C1154 C 0.90433 0.63288 0.71558
 C1155 C 0.96178 0.66814 0.68223
 C1156 C 0.96892 0.68322 0.67437
 C1157 C 0.92561 0.59455 0.71321
 C1158 C 0.91725 0.57911 0.71871
 H1159 H 0.96041 0.58024 0.70311
 H1160 H 0.99470 0.57993 0.68886
 H1161 H 1.01026 0.61160 0.67557
 H1162 H 0.99164 0.64379 0.67646
 H1163 H 0.92815 0.68297 0.69505
 H1164 H 0.89397 0.68333 0.70955
 H1165 H 0.87838 0.65165 0.72277
 H1166 H 0.89686 0.61941 0.72159
 C1167 C 0.43534 0.11244 0.20723
 C1168 C 0.45539 0.11200 0.19920
 C1169 C 0.46429 0.13021 0.19136
 C1170 C 0.45309 0.14874 0.19163
 C1171 C 0.43323 0.14927 0.20010
 C1172 C 0.42432 0.13106 0.20792
 C1173 C 0.40437 0.13195 0.21618
 C1174 C 0.39355 0.15029 0.21672
 C1175 C 0.40227 0.16809 0.20909
 C1176 C 0.42187 0.16767 0.20085
 C1177 C 0.48429 0.12936 0.18326
 C1178 C 0.49520 0.11106 0.18294
 C1179 C 0.48650 0.09327 0.19061
 C1180 C 0.46682 0.09364 0.19866
 C1181 C 0.46171 0.16706 0.18248
 C1182 C 0.46880 0.18204 0.17438
 C1183 C 0.42580 0.09368 0.21425
 C1184 C 0.41747 0.07826 0.21986
 H1185 H 0.39695 0.11852 0.22233
 H1186 H 0.37832 0.15069 0.22311
 H1187 H 0.39380 0.18230 0.20955
 H1188 H 0.42802 0.18192 0.19512
 H1189 H 0.49173 0.14280 0.17714
 H1190 H 0.51050 0.11069 0.17670
 H1191 H 0.49505 0.07910 0.19033
 H1192 H 0.46071 0.07942 0.20447
 C1193 C 0.29171 0.43165 -0.10255
 C1194 C 0.31067 0.42401 -0.10960
 C1195 C 0.31954 0.43214 -0.12775
 C1196 C 0.30941 0.44787 -0.13877
 C1197 C 0.29048 0.45555 -0.13171
 C1198 C 0.28160 0.44741 -0.11355
 C1199 C 0.26265 0.45531 -0.10681
 C1200 C 0.25276 0.47083 -0.11768
 C1201 C 0.26145 0.47878 -0.13542
 C1202 C 0.28009 0.47129 -0.14243
 C1203 C 0.33851 0.42423 -0.13447
 C1204 C 0.34841 0.40874 -0.12359
 C1205 C 0.33974 0.40080 -0.10585
 C1206 C 0.32109 0.40828 -0.09886
 C1207 C 0.31863 0.45620 -0.15724
 C1208 C 0.32682 0.46285 -0.17241
 C1209 C 0.28254 0.42303 -0.08419
 C1210 C 0.27514 0.41542 -0.06906
 H1211 H 0.25531 0.44961 -0.09309
 H1212 H 0.23829 0.47671 -0.11230
 H1213 H 0.25370 0.49084 -0.14381
 H1214 H 0.28624 0.47795 -0.15631
 H1215 H 0.34588 0.42990 -0.14818
 H1216 H 0.36290 0.40288 -0.12895
 H1217 H 0.34750 0.38877 -0.09745
 H1218 H 0.31498 0.40160 -0.08497
 C1219 C 0.79278 0.93339 0.39557
 C1220 C 0.80957 0.92322 0.38652
 C1221 C 0.81844 0.93115 0.36829
 C1222 C 0.81049 0.94921 0.35920
 C1223 C 0.79371 0.95938 0.36824
 C1224 C 0.78482 0.95144 0.38649
 C1225 C 0.76806 0.96187 0.39524
 C1226 C 0.76029 0.97964 0.38624
 C1227 C 0.76898 0.98740 0.36842
 C1228 C 0.78550 0.97745 0.35945
 C1229 C 0.83522 0.92070 0.35954
 C1230 C 0.84299 0.90294 0.36854
 C1231 C 0.83431 0.89519 0.38635
 C1232 C 0.81779 0.90514 0.39531
 C1233 C 0.81981 0.95737 0.34071
 C1234 C 0.82807 0.96387 0.32553
 C1235 C 0.78359 0.92506 0.41405
 C1236 C 0.77615 0.91762 0.42924
 H1237 H 0.76080 0.95642 0.40910
 H1238 H 0.74746 0.98743 0.39314
 H1239 H 0.76289 1.00121 0.36149
 H1240 H 0.79174 0.98405 0.34559
 H1241 H 0.84251 0.92612 0.34568
 H1242 H 0.85583 0.89516 0.36163
 H1243 H 0.84041 0.88139 0.39328
 H1244 H 0.81158 0.89851 0.40917
 C1245 C 0.79224 0.05682 1.10990
 C1246 C 0.78583 0.06415 1.12908
 C1247 C 0.79430 0.05569 1.14721
 C1248 C 0.80911 0.03996 1.14605
 C1249 C 0.81520 0.03233 1.12688
 C1250 C 0.80675 0.04080 1.10875
 C1251 C 0.81316 0.03301 1.08978
 C1252 C 0.82749 0.01728 1.08873
 C1253 C 0.83574 0.00898 1.10645
 C1254 C 0.82973 0.01637 1.12534
 C1255 C 0.78773 0.06333 1.16620
 C1256 C 0.77319 0.07886 1.16726
 C1257 C 0.76491 0.08714 1.14955
 C1258 C 0.77111 0.07993 1.13063
 C1259 C 0.81855 0.03200 1.16447
 C1260 C 0.82686 0.02539 1.17951
 C1261 C 0.78428 0.06611 1.09136
 C1262 C 0.77775 0.07416 1.07612
 H1263 H 0.80716 0.03896 1.07557
 H1264 H 0.83221 0.01149 1.07409
 H1265 H 0.84685 -0.00325 1.10555
 H1266 H 0.83656 0.00940 1.13869
 H1267 H 0.79371 0.05735 1.18040
 H1268 H 0.76831 0.08451 1.18191
 H1269 H 0.75362 0.09920 1.15045
 H1270 H 0.76421 0.08684 1.11729
 C1271 C 0.29092 0.55681 0.61054
 C1272 C 0.30720 0.54261 0.60941
 C1273 C 0.31548 0.53399 0.62755
 C1274 C 0.30743 0.53964 0.64672
 C1275 C 0.29087 0.55353 0.64784
 C1276 C 0.28258 0.56213 0.62969
 C1277 C 0.26609 0.57606 0.63121
 C1278 C 0.25802 0.58133 0.65009
 C1279 C 0.26613 0.57291 0.66782
 C1280 C 0.28237 0.55917 0.66680
 C1281 C 0.33183 0.51989 0.62602
 C1282 C 0.33976 0.51447 0.60712
 C1283 C 0.33167 0.52290 0.58940
 C1284 C 0.31558 0.53682 0.59043
 C1285 C 0.31659 0.53159 0.66525
 C1286 C 0.32469 0.52493 0.68039
 C1287 C 0.28311 0.56639 0.59208
 C1288 C 0.27672 0.57472 0.57691
 H1289 H 0.25925 0.58299 0.61784
 H1290 H 0.24540 0.59199 0.65097
 H1291 H 0.25980 0.57705 0.68245
 H1292 H 0.28815 0.55300 0.68101
 H1293 H 0.33862 0.51289 0.63937
 H1294 H 0.35226 0.50366 0.60624
 H1295 H 0.33789 0.51864 0.57476
 H1296 H 0.30978 0.54295 0.57622
 C1297 C 0.20491 0.56045 0.39574
 C1298 C 0.19716 0.57361 0.38031
 C1299 C 0.18880 0.56533 0.36241
 C1300 C 0.18824 0.54394 0.36003
 C1301 C 0.19630 0.53079 0.37530
 C1302 C 0.20467 0.53908 0.39321
 C1303 C 0.21255 0.52565 0.40830
 C1304 C 0.21219 0.50461 0.40577
 C1305 C 0.20400 0.49651 0.38826
 C1306 C 0.19612 0.50938 0.37315
 C1307 C 0.18104 0.57880 0.34726
 C1308 C 0.18153 0.59983 0.34971
 C1309 C 0.18972 0.60794 0.36721
 C1310 C 0.19746 0.59506 0.38238
 C1311 C 0.17873 0.53554 0.34219
 C1312 C 0.17031 0.52898 0.32748
 C1313 C 0.21275 0.56903 0.41430
 C1314 C 0.21895 0.57690 0.42946
 H1315 H 0.21909 0.53126 0.42217
 H1316 H 0.21829 0.49455 0.41746
 H1317 H 0.20376 0.48015 0.38638
 H1318 H 0.18994 0.50237 0.35979
 H1319 H 0.17454 0.57324 0.33335
 H1320 H 0.17553 0.60990 0.33797
 H1321 H 0.19007 0.62429 0.36905
 H1322 H 0.20369 0.60212 0.39569
 C1323 C 0.70650 0.05453 0.89585
 C1324 C 0.69150 0.03923 0.89730
 C1325 C 0.68299 0.03123 0.87932
 C1326 C 0.68957 0.03857 0.86000
 C1327 C 0.70506 0.05339 0.85854
 C1328 C 0.71356 0.06139 0.87652
 C1329 C 0.72890 0.07633 0.87468
 C1330 C 0.73566 0.08315 0.85563
 C1331 C 0.72734 0.07534 0.83806
 C1332 C 0.71220 0.06062 0.83941
 C1333 C 0.66784 0.01609 0.88116
 C1334 C 0.66132 0.00903 0.90021
 C1335 C 0.66965 0.01684 0.91778
 C1336 C 0.68456 0.03178 0.91643
 C1337 C 0.67974 0.03157 0.84172
 C1338 C 0.67107 0.02607 0.82670
 C1339 C 0.71394 0.06399 0.91414
 C1340 C 0.71982 0.07248 0.92909
 H1341 H 0.73588 0.08283 0.88790
 H1342 H 0.74742 0.09457 0.85450
 H1343 H 0.73263 0.08070 0.82330
 H1344 H 0.70622 0.05497 0.82531
 H1345 H 0.66093 0.00952 0.86793
 H1346 H 0.64973 -0.00256 0.90134
 H1347 H 0.66454 0.01130 0.93254
 H1348 H 0.69063 0.03736 0.93052
 C1349 C 0.70207 0.93736 0.61032
 C1350 C 0.69208 0.95655 0.60964
 C1351 C 0.68455 0.96531 0.62789
 C1352 C 0.68706 0.95481 0.64671
 C1353 C 0.69747 0.93584 0.64745
 C1354 C 0.70500 0.92709 0.62921
 C1355 C 0.71523 0.90803 0.63032
 C1356 C 0.71796 0.89793 0.64892
 C1357 C 0.71060 0.90649 0.66675
 C1358 C 0.70045 0.92522 0.66612
 C1359 C 0.67450 0.98446 0.62681
 C1360 C 0.67197 0.99466 0.60823
 C1361 C 0.67933 0.98609 0.59039
 C1362 C 0.68928 0.96726 0.59100
 C1363 C 0.67828 0.96316 0.66517
 C1364 C 0.67053 0.96998 0.68032
 C1365 C 0.70884 0.92787 0.59162
 C1366 C 0.71433 0.91944 0.57633
 H1367 H 0.72126 0.90076 0.61687
 H1368 H 0.72584 0.88338 0.64949
 H1369 H 0.71276 0.89859 0.68117
 H1370 H 0.69503 0.93129 0.68041
 H1371 H 0.66855 0.99176 0.64027
 H1372 H 0.66426 1.00930 0.60768
 H1373 H 0.67732 0.99409 0.57601
 H1374 H 0.69476 0.96122 0.57673
 C1375 C 0.20308 0.43443 0.11267
 C1376 C 0.19375 0.45395 0.11179
 C1377 C 0.18615 0.46295 0.12989
 C1378 C 0.18793 0.45239 0.14876
 C1379 C 0.19770 0.43309 0.14971
 C1380 C 0.20529 0.42408 0.13161
 C1381 C 0.21485 0.40469 0.13294
 C1382 C 0.21688 0.39452 0.15159
 C1383 C 0.20947 0.40334 0.16928
 C1384 C 0.19997 0.42240 0.16844
 C1385 C 0.17675 0.48242 0.12860
 C1386 C 0.17492 0.49269 0.10997
 C1387 C 0.18236 0.48388 0.09229
 C1388 C 0.19168 0.46473 0.09309
 C1389 C 0.17902 0.46103 0.16702
 C1390 C 0.17112 0.46815 0.18195
 C1391 C 0.20988 0.42472 0.09408
 C1392 C 0.21532 0.41622 0.07882
 H1393 H 0.22089 0.39721 0.11961
 H1394 H 0.22425 0.37971 0.15232
 H1395 H 0.21110 0.39538 0.18373
 H1396 H 0.19448 0.42866 0.18261
 H1397 H 0.17076 0.48991 0.14194
 H1398 H 0.16770 0.50757 0.10927
 H1399 H 0.18091 0.49193 0.07786
 H1400 H 0.19725 0.45852 0.07894
 C1401 C -0.10272 0.29118 0.43639
 C1402 C -0.12198 0.28251 0.43273
 C1403 C -0.13989 0.29176 0.44078
 C1404 C -0.13844 0.30963 0.45244
 C1405 C -0.11914 0.31802 0.45651
 C1406 C -0.10123 0.30877 0.44846
 C1407 C -0.08213 0.31751 0.45263
 C1408 C -0.08076 0.33488 0.46443
 C1409 C -0.09826 0.34393 0.47230
 C1410 C -0.11727 0.33567 0.46842
 C1411 C -0.15897 0.28289 0.43681
 C1412 C -0.16033 0.26537 0.42523
 C1413 C -0.14283 0.25632 0.41736
 C1414 C -0.12383 0.26473 0.42100
 C1415 C -0.15676 0.31975 0.45975
 C1416 C -0.17179 0.32860 0.46565
 C1417 C -0.08456 0.28243 0.42718
 C1418 C -0.06963 0.27532 0.41910
 H1419 H -0.06808 0.31100 0.44687
 H1420 H -0.06602 0.34136 0.46749
 H1421 H -0.09711 0.35742 0.48146
 H1422 H -0.13044 0.34325 0.47490
 H1423 H -0.17301 0.28937 0.44264
 H1424 H -0.17505 0.25877 0.42236
 H1425 H -0.14396 0.24271 0.40837
 H1426 H -0.11065 0.25712 0.41458
 C1427 C 0.39825 0.79205 0.93653
 C1428 C 0.39921 0.81170 0.94504
 C1429 C 0.38137 0.82085 0.95334
 C1430 C 0.36266 0.81031 0.95308
 C1431 C 0.36180 0.79047 0.94502
 C1432 C 0.37965 0.78131 0.93671
 C1433 C 0.37838 0.76151 0.92862
 C1434 C 0.36002 0.75105 0.92875
 C1435 C 0.34258 0.76000 0.93688
 C1436 C 0.34337 0.77948 0.94493
 C1437 C 0.38269 0.84056 0.96165
 C1438 C 0.40111 0.85092 0.96177
 C1439 C 0.41854 0.84196 0.95366
 C1440 C 0.41770 0.82259 0.94536
 C1441 C 0.34426 0.82015 0.96058
 C1442 C 0.32916 0.82880 0.96659
 C1443 C 0.41619 0.78322 0.92697
 C1444 C 0.43094 0.77606 0.91861
 H1445 H 0.39154 0.75390 0.92216
 H1446 H 0.35932 0.73590 0.92252
 H1447 H 0.32836 0.75180 0.93695
 H1448 H 0.32941 0.78581 0.95111
 H1449 H 0.36955 0.84816 0.96816
 H1450 H 0.40184 0.86597 0.96821
 H1451 H 0.43281 0.85007 0.95380
 H1452 H 0.43168 0.81625 0.93926
 C1453 C 1.11278 0.79287 0.05610
 C1454 C 1.13196 0.78637 0.06358
 C1455 C 1.15010 0.79492 0.05532
 C1456 C 1.14895 0.80990 0.03962
 C1457 C 1.12980 0.81600 0.03177
 C1458 C 1.11167 0.80747 0.04004
 C1459 C 1.09270 0.81390 0.03204
 C1460 C 1.09168 0.82833 0.01629
 C1461 C 1.10941 0.83668 0.00820
 C1462 C 1.12829 0.83065 0.01579
 C1463 C 1.16907 0.78829 0.06313
 C1464 C 1.17011 0.77360 0.07865
 C1465 C 1.15238 0.76523 0.08672
 C1466 C 1.13348 0.77149 0.07934
 C1467 C 1.16737 0.81950 0.03195
 C1468 C 1.18244 0.82793 0.02563
 C1469 C 1.09423 0.78502 0.06534
 C1470 C 1.07893 0.77868 0.07336
 H1471 H 1.07849 0.80782 0.03781
 H1472 H 1.07705 0.83306 0.01033
 H1473 H 1.10853 0.84788 -0.00404
 H1474 H 1.14165 0.83756 0.00897
 H1475 H 1.18328 0.79433 0.05731
 H1476 H 1.18475 0.76869 0.08443
 H1477 H 1.15328 0.75382 0.09876
 H1478 H 1.12013 0.76451 0.08608
 C1479 C 0.61250 0.29424 0.55677
 C1480 C 0.63175 0.28785 0.56413
 C1481 C 0.64980 0.29634 0.55562
 C1482 C 0.64849 0.31116 0.53978
 C1483 C 0.62926 0.31717 0.53207
 C1484 C 0.61122 0.30869 0.54059
 C1485 C 0.59217 0.31502 0.53271
 C1486 C 0.59098 0.32931 0.51684
 C1487 C 0.60862 0.33760 0.50850
 C1488 C 0.62758 0.33167 0.51597
 C1489 C 0.66886 0.28981 0.56331
 C1490 C 0.67006 0.27528 0.57896
 C1491 C 0.65242 0.26696 0.58728
 C1492 C 0.63345 0.27313 0.58002
 C1493 C 0.66684 0.32069 0.53183
 C1494 C 0.68186 0.32903 0.52530
 C1495 C 0.59405 0.28640 0.56621
 C1496 C 0.57884 0.28004 0.57439
 H1497 H 0.57802 0.30897 0.53867
 H1498 H 0.57628 0.33396 0.51098
 H1499 H 0.60761 0.34869 0.49617
 H1500 H 0.64087 0.33853 0.50896
 H1501 H 0.68301 0.29582 0.55730
 H1502 H 0.68477 0.27044 0.58465
 H1503 H 0.65344 0.25567 0.59942
 H1504 H 0.62016 0.26619 0.58696
 C1505 C 0.39942 0.20903 0.55255
 C1506 C 0.38011 0.21703 0.55807
 C1507 C 0.36217 0.20851 0.54995
 C1508 C 0.36364 0.19202 0.53638
 C1509 C 0.38298 0.18453 0.53026
 C1510 C 0.40093 0.19307 0.53837
 C1511 C 0.42008 0.18521 0.53218
 C1512 C 0.42147 0.16938 0.51835
 C1513 C 0.40392 0.16103 0.51043
 C1514 C 0.38486 0.16844 0.51627
 C1515 C 0.34303 0.21663 0.55584
 C1516 C 0.34165 0.23274 0.56935
 C1517 C 0.35919 0.24108 0.57729
 C1518 C 0.37824 0.23337 0.57178
 C1519 C 0.34531 0.18211 0.52954
 C1520 C 0.33022 0.17340 0.52427
 C1521 C 0.41759 0.21648 0.56229
 C1522 C 0.43240 0.22241 0.57105
 H1523 H 0.43415 0.19125 0.53789
 H1524 H 0.43624 0.16357 0.51375
 H1525 H 0.40509 0.14873 0.49968
 H1526 H 0.37165 0.16149 0.50966
 H1527 H 0.32895 0.21068 0.55004
 H1528 H 0.32689 0.23879 0.57367
 H1529 H 0.35804 0.25360 0.58777
 H1530 H 0.39145 0.24039 0.57832
 C1531 C 0.89800 0.70864 0.05343
 C1532 C 0.87904 0.71167 0.06338
 C1533 C 0.86108 0.70321 0.05524
 C1534 C 0.86219 0.69175 0.03719
 C1535 C 0.88103 0.68929 0.02688
 C1536 C 0.89899 0.69776 0.03503
 C1537 C 0.91768 0.69496 0.02456
 C1538 C 0.91860 0.68411 0.00652
 C1539 C 0.90104 0.67582 -0.00145
 C1540 C 0.88243 0.67832 0.00856
 C1541 C 0.84234 0.70629 0.06556
 C1542 C 0.84136 0.71741 0.08341
 C1543 C 0.85891 0.72569 0.09139
 C1544 C 0.87757 0.72290 0.08156
 C1545 C 0.84413 0.68172 0.02983
 C1546 C 0.82922 0.67295 0.02418
 C1547 C 0.91649 0.71598 0.06266
 C1548 C 0.93153 0.72183 0.07107
 H1549 H 0.93173 0.70115 0.03016
 H1550 H 0.93302 0.68213 -0.00131
 H1551 H 0.90184 0.66742 -0.01547
 H1552 H 0.86918 0.67163 0.00176
 H1553 H 0.82826 0.70019 0.05993
 H1554 H 0.82690 0.71963 0.09110
 H1555 H 0.85807 0.73432 0.10526
 H1556 H 0.89079 0.72968 0.08834
 C1557 C 0.61221 0.70376 0.93343
 C1558 C 0.63076 0.70472 0.92234
 C1559 C 0.64901 0.69713 0.93124
 C1560 C 0.64861 0.68864 0.95117
 C1561 C 0.63015 0.68812 0.96243
 C1562 C 0.61190 0.69571 0.95354
 C1563 C 0.59362 0.69494 0.96505
 C1564 C 0.59337 0.68689 0.98480
 C1565 C 0.61121 0.67945 0.99349
 C1566 C 0.62943 0.68001 0.98251
 C1567 C 0.66734 0.69814 0.91982
 C1568 C 0.66764 0.70643 0.90017
 C1569 C 0.64980 0.71384 0.89146
 C1570 C 0.63153 0.71303 0.90234
 C1571 C 0.66699 0.67978 0.95981
 C1572 C 0.68206 0.67196 0.96691
 C1573 C 0.59342 0.71056 0.92391
 C1574 C 0.57797 0.71601 0.91561
 H1575 H 0.57936 0.70058 0.95895
 H1576 H 0.57926 0.68643 0.99340
 H1577 H 0.61093 0.67321 1.00884
 H1578 H 0.64291 0.67407 0.98994
 H1579 H 0.68161 0.69260 0.92595
 H1580 H 0.68179 0.70710 0.89165
 H1581 H 0.65012 0.72027 0.87619
 H1582 H 0.61806 0.71902 0.89492
 C1583 C 0.11169 0.20268 0.43587
 C1584 C 0.13078 0.20878 0.42780
 C1585 C 0.14905 0.20123 0.43670
 C1586 C 0.14813 0.18762 0.45360
 C1587 C 0.12905 0.18185 0.46194
 C1588 C 0.11078 0.18940 0.45305
 C1589 C 0.09189 0.18332 0.46157
 C1590 C 0.09107 0.17016 0.47840
 C1591 C 0.10893 0.16278 0.48710
 C1592 C 0.12774 0.16850 0.47902
 C1593 C 0.16794 0.20744 0.42829
 C1594 C 0.16877 0.22076 0.41158
 C1595 C 0.15091 0.22815 0.40288
 C1596 C 0.13210 0.22228 0.41083
 C1597 C 0.16674 0.17903 0.46203
 C1598 C 0.18199 0.17142 0.46898
 C1599 C 0.09304 0.20957 0.42614
 C1600 C 0.07770 0.21512 0.41768
 H1601 H 0.07759 0.18869 0.45535
 H1602 H 0.07650 0.16567 0.48473
 H1603 H 0.10821 0.15256 0.50017
 H1604 H 0.14120 0.16238 0.48634
 H1605 H 0.18224 0.20212 0.43454
 H1606 H 0.18335 0.22537 0.40535
 H1607 H 0.15164 0.23849 0.38991
 H1608 H 0.11863 0.22846 0.40356
 C1609 C 0.53951 0.14459 0.69464
 C1610 C 0.53215 0.12514 0.68952
 C1611 C 0.54054 0.10735 0.69892
 C1612 C 0.55624 0.10914 0.71337
 C1613 C 0.56303 0.12863 0.71908
 C1614 C 0.55463 0.14642 0.70969
 C1615 C 0.56178 0.16574 0.71550
 C1616 C 0.57682 0.16743 0.73017
 C1617 C 0.58506 0.15004 0.73934
 C1618 C 0.57832 0.13082 0.73391
 C1619 C 0.53311 0.08805 0.69340
 C1620 C 0.51778 0.08637 0.67902
 C1621 C 0.50957 0.10376 0.66983
 C1622 C 0.51662 0.12297 0.67494
 C1623 C 0.56612 0.09097 0.72157
 C1624 C 0.57480 0.07595 0.72792
 C1625 C 0.53234 0.16258 0.68365
 C1626 C 0.52682 0.17739 0.67405
 H1627 H 0.55579 0.17971 0.70883
 H1628 H 0.58210 0.18233 0.73446
 H1629 H 0.59675 0.15144 0.75073
 H1630 H 0.58515 0.11774 0.74150
 H1631 H 0.53899 0.07409 0.70018
 H1632 H 0.51225 0.07149 0.67500
 H1633 H 0.49767 0.10238 0.65867
 H1634 H 0.50972 0.13605 0.66742
 C1635 C 1.03901 0.64393 0.19401
 C1636 C 1.03229 0.62442 0.18827
 C1637 C 1.04074 0.60665 0.19765
 C1638 C 1.05584 0.60851 0.21271
 C1639 C 1.06195 0.62803 0.21905
 C1640 C 1.05348 0.64580 0.20968
 C1641 C 1.05993 0.66516 0.21614
 C1642 C 1.07433 0.66690 0.23143
 C1643 C 1.08264 0.64952 0.24057
 C1644 C 1.07658 0.63027 0.23450
 C1645 C 1.03396 0.58731 0.19150
 C1646 C 1.01921 0.58557 0.17653
 C1647 C 1.01094 0.60295 0.16737
 C1648 C 1.01735 0.62220 0.17310
 C1649 C 1.06581 0.59039 0.22093
 C1650 C 1.07452 0.57540 0.22730
 C1651 C 1.03191 0.66195 0.18302
 C1652 C 1.02646 0.67676 0.17339
 H1653 H 1.05386 0.67911 0.20952
 H1654 H 1.07907 0.68183 0.23621
 H1655 H 1.09383 0.65096 0.25244
 H1656 H 1.08344 0.61720 0.24209
 H1657 H 1.03991 0.57335 0.19822
 H1658 H 1.01418 0.57066 0.17203
 H1659 H 0.99947 0.60152 0.15577
 H1660 H 1.01043 0.63527 0.16558
 C1661 C 0.96429 0.85639 0.18999
 C1662 C 0.97259 0.87598 0.18650
 C1663 C 0.96371 0.89323 0.19605
 C1664 C 0.94656 0.89077 0.20901
 C1665 C 0.93874 0.87107 0.21311
 C1666 C 0.94763 0.85383 0.20357
 C1667 C 0.93941 0.83432 0.20773
 C1668 C 0.92289 0.83191 0.22095
 C1669 C 0.91421 0.84877 0.23029
 C1670 C 0.92197 0.86816 0.22646
 C1671 C 0.97215 0.91269 0.19219
 C1672 C 0.98892 0.91504 0.17928
 C1673 C 0.99760 0.89818 0.16993
 C1674 C 0.98959 0.87884 0.17343
 C1675 C 0.93628 0.90851 0.21728
 C1676 C 0.92712 0.92304 0.22379
 C1677 C 0.97217 0.83901 0.17891
 C1678 C 0.97805 0.82450 0.16943
 H1679 H 0.94567 0.82073 0.20087
 H1680 H 0.91680 0.81688 0.22397
 H1681 H 0.90138 0.84682 0.24055
 H1682 H 0.91473 0.88079 0.23413
 H1683 H 0.96594 0.92624 0.19916
 H1684 H 0.99522 0.93003 0.17651
 H1685 H 1.01063 0.90010 0.15991
 H1686 H 0.99688 0.86617 0.16585
 C1687 C 0.46323 0.35649 0.69138
 C1688 C 0.47204 0.37598 0.68882
 C1689 C 0.46304 0.39314 0.69844
 C1690 C 0.44529 0.39068 0.71054
 C1691 C 0.43691 0.37106 0.71369
 C1692 C 0.44590 0.35392 0.70408
 C1693 C 0.43712 0.33449 0.70729
 C1694 C 0.41996 0.33207 0.71966
 C1695 C 0.41117 0.34884 0.72906
 C1696 C 0.41947 0.36814 0.72616
 C1697 C 0.47201 0.41250 0.69551
 C1698 C 0.48939 0.41486 0.68345
 C1699 C 0.49818 0.39809 0.67404
 C1700 C 0.48967 0.37884 0.67663
 C1701 C 0.43500 0.40837 0.71891
 C1702 C 0.42581 0.42284 0.72550
 C1703 C 0.47132 0.33925 0.68023
 C1704 C 0.47736 0.32484 0.67070
 H1705 H 0.44343 0.32098 0.70034
 H1706 H 0.41346 0.31711 0.72196
 H1707 H 0.39785 0.34688 0.73867
 H1708 H 0.41211 0.38070 0.73384
 H1709 H 0.46573 0.42598 0.70257
 H1710 H 0.49607 0.42977 0.68139
 H1711 H 0.51169 0.40000 0.66468
 H1712 H 0.49707 0.36624 0.66904
 C1713 C 0.46029 0.63738 0.80450
 C1714 C 0.45015 0.63847 0.78559
 C1715 C 0.44093 0.62078 0.77770
 C1716 C 0.44192 0.60211 0.78877
 C1717 C 0.45261 0.60088 0.80737
 C1718 C 0.46182 0.61856 0.81525
 C1719 C 0.47228 0.61698 0.83396
 C1720 C 0.47359 0.59847 0.84458
 C1721 C 0.46457 0.58118 0.83687
 C1722 C 0.45418 0.58228 0.81850
 C1723 C 0.43073 0.62228 0.75887
 C1724 C 0.42969 0.64073 0.74811
 C1725 C 0.43871 0.65803 0.75582
 C1726 C 0.44884 0.65700 0.77435
 C1727 C 0.43126 0.58437 0.78156
 C1728 C 0.42213 0.56954 0.77627
 C1729 C 0.46838 0.65569 0.81340
 C1730 C 0.47479 0.67063 0.82152
 H1731 H 0.47958 0.62999 0.84057
 H1732 H 0.48165 0.59755 0.85885
 H1733 H 0.46563 0.56684 0.84517
 H1734 H 0.44745 0.56840 0.81312
 H1735 H 0.42351 0.60922 0.75225
 H1736 H 0.42184 0.64161 0.73371
 H1737 H 0.43786 0.67232 0.74740
 H1738 H 0.45566 0.67085 0.77973
 C1739 C -0.03880 0.13761 0.30451
 C1740 C -0.04980 0.13909 0.28612
 C1741 C -0.05886 0.12143 0.27797
 C1742 C -0.05684 0.10241 0.28827
 C1743 C -0.04534 0.10083 0.30635
 C1744 C -0.03630 0.11848 0.31450
 C1745 C -0.02503 0.11655 0.33271
 C1746 C -0.02277 0.09772 0.34258
 C1747 C -0.03161 0.08046 0.33461
 C1748 C -0.04279 0.08190 0.31672
 C1749 C -0.06995 0.12331 0.25968
 C1750 C -0.07202 0.14210 0.24970
 C1751 C -0.06316 0.15936 0.25766
 C1752 C -0.05216 0.15797 0.27566
 C1753 C -0.06731 0.08464 0.28086
 C1754 C -0.07631 0.06981 0.27536
 C1755 C -0.03083 0.15581 0.31372
 C1756 C -0.02449 0.17067 0.32205
 H1757 H -0.01784 0.12952 0.33949
 H1758 H -0.01411 0.09653 0.35648
 H1759 H -0.02981 0.06587 0.34234
 H1760 H -0.04935 0.06803 0.31111
 H1761 H -0.07709 0.11030 0.25289
 H1762 H -0.08055 0.14327 0.23571
 H1763 H -0.06481 0.17392 0.24984
 H1764 H -0.04551 0.17180 0.28126
 C1765 C 0.03770 0.35409 0.30291
 C1766 C 0.05503 0.35376 0.28997
 C1767 C 0.06321 0.37235 0.28228
 C1768 C 0.05402 0.39114 0.28757
 C1769 C 0.03618 0.39141 0.29978
 C1770 C 0.02798 0.37282 0.30746
 C1771 C 0.01025 0.37347 0.31980
 C1772 C 0.00087 0.39198 0.32441
 C1773 C 0.00890 0.41016 0.31692
 C1774 C 0.02636 0.40998 0.30475
 C1775 C 0.08070 0.37166 0.26958
 C1776 C 0.08983 0.35313 0.26461
 C1777 C 0.08183 0.33496 0.27213
 C1778 C 0.06464 0.33517 0.28469
 C1779 C 0.06363 0.41013 0.28145
 C1780 C 0.07224 0.42569 0.27681
 C1781 C 0.03075 0.33532 0.31257
 C1782 C 0.02567 0.31977 0.32111
 H1783 H 0.00341 0.35971 0.32592
 H1784 H -0.01270 0.39220 0.33385
 H1785 H 0.00156 0.42450 0.32056
 H1786 H 0.03202 0.42450 0.29922
 H1787 H 0.08746 0.38539 0.26330
 H1788 H 0.10318 0.35288 0.25486
 H1789 H 0.08897 0.32060 0.26823
 H1790 H 0.05894 0.32064 0.29012
 C1791 C 0.53700 0.85452 0.80130
 C1792 C 0.55300 0.85408 0.78676
 C1793 C 0.56134 0.87263 0.77915
 C1794 C 0.55363 0.89150 0.78614
 C1795 C 0.53701 0.89194 0.79997
 C1796 C 0.52866 0.87338 0.80757
 C1797 C 0.51221 0.87419 0.82158
 C1798 C 0.50423 0.89281 0.82789
 C1799 C 0.51239 0.91096 0.82045
 C1800 C 0.52861 0.91062 0.80666
 C1801 C 0.57750 0.87181 0.76480
 C1802 C 0.58519 0.85320 0.75817
 C1803 C 0.57705 0.83505 0.76562
 C1804 C 0.56114 0.83540 0.77977
 C1805 C 0.56361 0.91032 0.78009
 C1806 C 0.57246 0.92577 0.77555
 C1807 C 0.53011 0.83566 0.81081
 C1808 C 0.52508 0.82004 0.81927
 H1809 H 0.50532 0.86048 0.82773
 H1810 H 0.49163 0.89316 0.83860
 H1811 H 0.50613 0.92538 0.82539
 H1812 H 0.53441 0.92513 0.80125
 H1813 H 0.58429 0.88552 0.75852
 H1814 H 0.59754 0.85285 0.74717
 H1815 H 0.58308 0.82063 0.76042
 H1816 H 0.55526 0.82089 0.78508
 C1817 C 0.69643 0.54357 0.14301
 C1818 C 0.69360 0.53433 0.12393
 C1819 C 0.70294 0.54280 0.10618
 C1820 C 0.71503 0.56046 0.10763
 C1821 C 0.71845 0.56926 0.12681
 C1822 C 0.70912 0.56078 0.14456
 C1823 C 0.71262 0.56993 0.16355
 C1824 C 0.72498 0.58699 0.16496
 C1825 C 0.73408 0.59530 0.14760
 C1826 C 0.73090 0.58661 0.12870
 C1827 C 0.69976 0.53343 0.08725
 C1828 C 0.68770 0.51615 0.08590
 C1829 C 0.67856 0.50786 0.10325
 C1830 C 0.68141 0.51679 0.12209
 C1831 C 0.72315 0.57013 0.08932
 C1832 C 0.72946 0.57860 0.07416
 C1833 C 0.68550 0.53601 0.16082
 C1834 C 0.67599 0.53014 0.17551
 H1835 H 0.70591 0.56398 0.17749
 H1836 H 0.72750 0.59378 0.17960
 H1837 H 0.74367 0.60855 0.14877
 H1838 H 0.73835 0.59360 0.11564
 H1839 H 0.70659 0.53929 0.07334
 H1840 H 0.68545 0.50915 0.07130
 H1841 H 0.66921 0.49444 0.10212
 H1842 H 0.67402 0.50977 0.13517
 C1843 C 0.19816 1.04285 0.64645
 C1844 C 0.19495 1.03372 0.62739
 C1845 C 0.20422 1.04208 0.60955
 C1846 C 0.21664 1.05952 0.61089
 C1847 C 0.22048 1.06817 0.63006
 C1848 C 0.21123 1.05979 0.64790
 C1849 C 0.21516 1.06879 0.66687
 C1850 C 0.22787 1.08560 0.66818
 C1851 C 0.23689 1.09381 0.65073
 C1852 C 0.23329 1.08526 0.63185
 C1853 C 0.20063 1.03283 0.59063
 C1854 C 0.18826 1.01577 0.58937
 C1855 C 0.17920 1.00758 0.60682
 C1856 C 0.18244 1.01640 0.62565
 C1857 C 0.22463 1.06915 0.59250
 C1858 C 0.23081 1.07759 0.57728
 C1859 C 0.18722 1.03551 0.66434
 C1860 C 0.17768 1.02982 0.67908
 H1861 H 0.20852 1.06291 0.68087
 H1862 H 0.23072 1.09228 0.68282
 H1863 H 0.24675 1.10686 0.65183
 H1864 H 0.24070 1.09215 0.61871
 H1865 H 0.20738 1.03863 0.57665
 H1866 H 0.18569 1.00886 0.57479
 H1867 H 0.16961 0.99432 0.60576
 H1868 H 0.17511 1.00945 0.63880
 C1869 C 0.19576 0.96651 0.85872
 C1870 C 0.19248 0.97496 0.87817
 C1871 C 0.20199 0.96598 0.89552
 C1872 C 0.21469 0.94861 0.89329
 C1873 C 0.21860 0.94066 0.87374
 C1874 C 0.20910 0.94964 0.85640
 C1875 C 0.21306 0.94127 0.83703
 C1876 C 0.22603 0.92453 0.83486
 C1877 C 0.23532 0.91575 0.85181
 C1878 C 0.23170 0.92365 0.87107
 C1879 C 0.19834 0.97455 0.91483
 C1880 C 0.18567 0.99154 0.91695
 C1881 C 0.17636 1.00031 0.89999
 C1882 C 0.17967 0.99217 0.88078
 C1883 C 0.22283 0.93820 0.91113
 C1884 C 0.22922 0.92884 0.92570
 C1885 C 0.18461 0.97439 0.84128
 C1886 C 0.17507 0.98020 0.82669
 H1887 H 0.20623 0.94759 0.82338
 H1888 H 0.22890 0.91833 0.81993
 H1889 H 0.24540 0.90275 0.85005
 H1890 H 0.23932 0.91633 0.88378
 H1891 H 0.20528 0.96828 0.92845
 H1892 H 0.18306 0.99793 0.93183
 H1893 H 0.16654 1.01350 0.90172
 H1894 H 0.17214 0.99954 0.86803
 C1895 C 0.69427 0.46623 0.35506
 C1896 C 0.69337 0.47647 0.37383
 C1897 C 0.70290 0.46772 0.39128
 C1898 C 0.71327 0.44880 0.38982
 C1899 C 0.71479 0.43892 0.37087
 C1900 C 0.70525 0.44766 0.35344
 C1901 C 0.70679 0.43738 0.33471
 C1902 C 0.71746 0.41902 0.33324
 C1903 C 0.72680 0.41048 0.35028
 C1904 C 0.72552 0.42025 0.36892
 C1905 C 0.70163 0.47812 0.40994
 C1906 C 0.69127 0.49668 0.41131
 C1907 C 0.68196 0.50524 0.39425
 C1908 C 0.68293 0.49531 0.37569
 C1909 C 0.72149 0.43889 0.40790
 C1910 C 0.72796 0.42988 0.42264
 C1911 C 0.68313 0.47417 0.33763
 C1912 C 0.67359 0.48000 0.32305
 H1913 H 0.69982 0.44343 0.32100
 H1914 H 0.71850 0.41138 0.31879
 H1915 H 0.73508 0.39622 0.34907
 H1916 H 0.73308 0.41301 0.38172
 H1917 H 0.70868 0.47207 0.42360
 H1918 H 0.69047 0.50446 0.42569
 H1919 H 0.67394 0.51966 0.39540
 H1920 H 0.67549 0.50257 0.36282
 C1921 C 0.80683 0.46263 0.63842
 C1922 C 0.78779 0.45271 0.63913
 C1923 C 0.77996 0.44380 0.62128
 C1924 C 0.79122 0.44488 0.60284
 C1925 C 0.81000 0.45529 0.60201
 C1926 C 0.81782 0.46419 0.61985
 C1927 C 0.83672 0.47437 0.61867
 C1928 C 0.84756 0.47571 0.60040
 C1929 C 0.83991 0.46701 0.58296
 C1930 C 0.82135 0.45690 0.58366
 C1931 C 0.76098 0.43382 0.62238
 C1932 C 0.75003 0.43267 0.64061
 C1933 C 0.75770 0.44137 0.65807
 C1934 C 0.77636 0.45129 0.65743
 C1935 C 0.78403 0.43455 0.58495
 C1936 C 0.77869 0.42567 0.57003
 C1937 C 0.81558 0.47049 0.65687
 C1938 C 0.82357 0.47672 0.67196
 H1939 H 0.84330 0.48141 0.63182
 H1940 H 0.86198 0.48354 0.59979
 H1941 H 0.84839 0.46809 0.56880
 H1942 H 0.81602 0.45041 0.56967
 H1943 H 0.75439 0.42686 0.60919
 H1944 H 0.73553 0.42499 0.64119
 H1945 H 0.74913 0.44044 0.67219
 H1946 H 0.78169 0.45786 0.67138
 C1947 C 0.30687 -0.03829 0.14001
 C1948 C 0.28809 -0.04869 0.14084
 C1949 C 0.28029 -0.05764 0.12300
 C1950 C 0.29132 -0.05613 0.10445
 C1951 C 0.30983 -0.04526 0.10351
 C1952 C 0.31762 -0.03632 0.12133
 C1953 C 0.33626 -0.02568 0.12005
 C1954 C 0.34688 -0.02394 0.10168
 C1955 C 0.33926 -0.03270 0.08425
 C1956 C 0.32096 -0.04325 0.08505
 C1957 C 0.26159 -0.06812 0.12423
 C1958 C 0.25088 -0.06970 0.14257
 C1959 C 0.25850 -0.06094 0.16002
 C1960 C 0.27690 -0.05054 0.15925
 C1961 C 0.28416 -0.06644 0.08654
 C1962 C 0.27886 -0.07529 0.07158
 C1963 C 0.31563 -0.03038 0.15844
 C1964 C 0.32362 -0.02410 0.17350
 H1965 H 0.34280 -0.01858 0.13318
 H1966 H 0.36111 -0.01576 0.10098
 H1967 H 0.34757 -0.03131 0.07001
 H1968 H 0.31565 -0.04976 0.07107
 H1969 H 0.25504 -0.07515 0.11106
 H1970 H 0.23658 -0.07776 0.14325
 H1971 H 0.25012 -0.06220 0.17422
 H1972 H 0.28221 -0.04395 0.17320
 C1973 C 0.30204 0.03596 0.35698
 C1974 C 0.28656 0.05110 0.35631
 C1975 C 0.27892 0.05948 0.37468
 C1976 C 0.28683 0.05269 0.39360
 C1977 C 0.30155 0.03682 0.39431
 C1978 C 0.30918 0.02843 0.37594
 C1979 C 0.32410 0.01278 0.37702
 C1980 C 0.33125 0.00559 0.39572
 C1981 C 0.32378 0.01380 0.41369
 C1982 C 0.30911 0.02925 0.41309
 C1983 C 0.26364 0.07478 0.37362
 C1984 C 0.25611 0.08160 0.35494
 C1985 C 0.26359 0.07341 0.33697
 C1986 C 0.27866 0.05834 0.33755
 C1987 C 0.28086 0.06297 0.41213
 C1988 C 0.27645 0.07210 0.42733
 C1989 C 0.31162 0.02926 0.33824
 C1990 C 0.32019 0.02440 0.32275
 H1991 H 0.33031 0.00588 0.36345
 H1992 H 0.34263 -0.00642 0.39627
 H1993 H 0.32938 0.00815 0.42818
 H1994 H 0.30371 0.03512 0.42746
 H1995 H 0.25730 0.08156 0.38719
 H1996 H 0.24440 0.09329 0.35441
 H1997 H 0.25769 0.07876 0.32250
 H1998 H 0.28395 0.05238 0.32318
 C1999 C 0.80181 0.53609 0.85573
 C2000 C 0.80937 0.52883 0.87463
 C2001 C 0.80171 0.53710 0.89306
 C2002 C 0.78656 0.55255 0.89245
 C2003 C 0.77826 0.55903 0.87360
 C2004 C 0.78592 0.55078 0.85518
 C2005 C 0.77761 0.55771 0.83649
 C2006 C 0.76212 0.57235 0.83603
 C2007 C 0.75461 0.58040 0.85405
 C2008 C 0.76254 0.57389 0.87266
 C2009 C 0.80968 0.52981 0.91177
 C2010 C 0.82477 0.51476 0.91226
 C2011 C 0.83226 0.50669 0.89424
 C2012 C 0.82472 0.51360 0.87560
 C2013 C 0.78053 0.56275 0.91101
 C2014 C 0.77607 0.57183 0.92622
 C2015 C 0.81137 0.52955 0.83691
 C2016 C 0.81990 0.52481 0.82137
 H2017 H 0.78291 0.55184 0.82208
 H2018 H 0.75590 0.57746 0.82161
 H2019 H 0.74256 0.59175 0.85361
 H2020 H 0.75616 0.58054 0.88628
 H2021 H 0.80428 0.53559 0.92618
 H2022 H 0.83067 0.50934 0.92670
 H2023 H 0.84398 0.49500 0.89471
 H2024 H 0.83097 0.50681 0.86199
 C2025 C 0.14212 0.69614 0.53987
 C2026 C 0.12254 0.69106 0.53281
 C2027 C 0.10499 0.70047 0.54142
 C2028 C 0.10713 0.71488 0.55703
 C2029 C 0.12674 0.72056 0.56351
 C2030 C 0.14429 0.71116 0.55490
 C2031 C 0.16374 0.71693 0.56175
 C2032 C 0.16578 0.73158 0.57669
 C2033 C 0.14861 0.74077 0.58512
 C2034 C 0.12928 0.73537 0.57867
 C2035 C 0.08556 0.69502 0.53426
 C2036 C 0.08354 0.68069 0.51902
 C2037 C 0.10071 0.67148 0.51060
 C2038 C 0.12002 0.67654 0.51737
 C2039 C 0.08921 0.72305 0.56718
 C2040 C 0.07448 0.72942 0.57617
 C2041 C 0.15991 0.68519 0.53247
 C2042 C 0.17461 0.67569 0.52680
 H2043 H 0.17754 0.71025 0.55561
 H2044 H 0.18076 0.73584 0.58174
 H2045 H 0.15028 0.75214 0.59671
 H2046 H 0.11639 0.74298 0.58564
 H2047 H 0.07177 0.70181 0.54031
 H2048 H 0.06857 0.67671 0.51370
 H2049 H 0.09905 0.66037 0.49875
 H2050 H 0.13293 0.66900 0.51033
 C2051 C 0.64170 0.19315 1.03893
 C2052 C 0.62207 0.18794 1.03214
 C2053 C 0.60457 0.19736 1.04084
 C2054 C 0.60683 0.21195 1.05628
 C2055 C 0.62649 0.21772 1.06253
 C2056 C 0.64398 0.20830 1.05382
 C2057 C 0.66348 0.21419 1.06042
 C2058 C 0.66563 0.22897 1.07522
 C2059 C 0.64852 0.23816 1.08375
 C2060 C 0.62914 0.23266 1.07755
 C2061 C 0.58509 0.19176 1.03395
 C2062 C 0.58296 0.17728 1.01887
 C2063 C 0.60007 0.16806 1.01035
 C2064 C 0.61944 0.17326 1.01686
 C2065 C 0.58897 0.22026 1.06642
 C2066 C 0.57425 0.22676 1.07534
 C2067 C 0.65945 0.18225 1.03138
 C2068 C 0.67413 0.17281 1.02556
 H2069 H 0.67724 0.20750 1.05419
 H2070 H 0.68065 0.23331 1.08008
 H2071 H 0.65027 0.24963 1.09524
 H2072 H 0.61629 0.24027 1.08459
 H2073 H 0.57134 0.19855 1.04009
 H2074 H 0.56795 0.17319 1.01376
 H2075 H 0.59833 0.15682 0.99863
 H2076 H 0.63229 0.16571 1.00975
 C2077 C 0.85369 0.19293 0.96294
 C2078 C 0.87314 0.18877 0.97120
 C2079 C 0.89064 0.19820 0.96253
 C2080 C 0.88858 0.21172 0.94566
 C2081 C 0.86904 0.21652 0.93794
 C2082 C 0.85154 0.20710 0.94661
 C2083 C 0.83219 0.21197 0.93850
 C2084 C 0.83018 0.22577 0.92229
 C2085 C 0.84729 0.23498 0.91381
 C2086 C 0.86654 0.23046 0.92147
 C2087 C 0.90996 0.19364 0.97089
 C2088 C 0.91192 0.18017 0.98739
 C2089 C 0.89480 0.17096 0.99587
 C2090 C 0.87560 0.17514 0.98792
 C2091 C 0.90655 0.21986 0.93558
 C2092 C 0.92137 0.22621 0.92668
 C2093 C 0.83608 0.18185 0.97046
 C2094 C 0.82145 0.17228 0.97612
 H2095 H 0.81842 0.20524 0.94462
 H2096 H 0.81526 0.22935 0.91629
 H2097 H 0.84565 0.24570 0.90122
 H2098 H 0.87939 0.23805 0.91439
 H2099 H 0.92370 0.20048 0.96484
 H2100 H 0.92680 0.17688 0.99362
 H2101 H 0.89641 0.16052 1.00868
 H2102 H 0.86273 0.16765 0.99507
 C2103 C 0.35604 0.69253 0.46611
 C2104 C 0.37545 0.68351 0.46909
 C2105 C 0.39298 0.69272 0.46026
 C2106 C 0.39099 0.71089 0.44851
 C2107 C 0.37169 0.72035 0.44623
 C2108 C 0.35415 0.71115 0.45507
 C2109 C 0.33498 0.72077 0.45243
 C2110 C 0.33319 0.73899 0.44136
 C2111 C 0.35034 0.74798 0.43270
 C2112 C 0.36940 0.73883 0.43505
 C2113 C 0.41221 0.68330 0.46324
 C2114 C 0.41405 0.66530 0.47464
 C2115 C 0.39690 0.65629 0.48328
 C2116 C 0.37778 0.66522 0.48058
 C2117 C 0.40858 0.71919 0.43787
 C2118 C 0.42308 0.72564 0.42855
 C2119 C 0.33794 0.68205 0.47335
 C2120 C 0.32293 0.67296 0.47875
 H2121 H 0.32122 0.71438 0.45892
 H2122 H 0.31841 0.74616 0.43950
 H2123 H 0.34886 0.76213 0.42412
 H2124 H 0.38231 0.74643 0.42808
 H2125 H 0.42599 0.68976 0.45687
 H2126 H 0.42887 0.65830 0.47679
 H2127 H 0.39842 0.64231 0.49213
 H2128 H 0.36490 0.65768 0.48764
 C2129 C 0.63920 0.80089 0.46402
 C2130 C 0.61971 0.80628 0.47165
 C2131 C 0.60200 0.79817 0.46268
 C2132 C 0.60388 0.78473 0.44613
 C2133 C 0.62339 0.77862 0.43911
 C2134 C 0.64111 0.78673 0.44808
 C2135 C 0.66045 0.78061 0.44065
 C2136 C 0.66223 0.76683 0.42481
 C2137 C 0.64490 0.75890 0.41604
 C2138 C 0.62567 0.76468 0.42303
 C2139 C 0.58267 0.80397 0.47040
 C2140 C 0.58089 0.81739 0.48654
 C2141 C 0.59821 0.82533 0.49531
 C2142 C 0.61744 0.81991 0.48800
 C2143 C 0.58582 0.77819 0.43558
 C2144 C 0.57081 0.77341 0.42646
 C2145 C 0.65714 0.81086 0.47171
 C2146 C 0.67180 0.81982 0.47770
 H2147 H 0.67436 0.78632 0.44704
 H2148 H 0.67714 0.76228 0.41933
 H2149 H 0.64637 0.74819 0.40374
 H2150 H 0.61263 0.75806 0.41577
 H2151 H 0.56875 0.79815 0.46412
 H2152 H 0.56599 0.82165 0.49227
 H2153 H 0.59675 0.83575 0.50785
 H2154 H 0.63047 0.82644 0.49536
 C2155 C 0.13683 0.30021 -0.03355
 C2156 C 0.11740 0.30637 -0.02634
 C2157 C 0.09957 0.29845 -0.03527
 C2158 C 0.10128 0.28442 -0.05134
 C2159 C 0.12070 0.27758 -0.05792
 C2160 C 0.13853 0.28550 -0.04900
 C2161 C 0.15778 0.27861 -0.05598
 C2162 C 0.15937 0.26427 -0.07133
 C2163 C 0.14193 0.25653 -0.08007
 C2164 C 0.12278 0.26306 -0.07351
 C2165 C 0.08032 0.30501 -0.02798
 C2166 C 0.07872 0.31898 -0.01229
 C2167 C 0.09616 0.32672 -0.00356
 C2168 C 0.11531 0.32055 -0.01045
 C2169 C 0.08316 0.27800 -0.06187
 C2170 C 0.06815 0.27330 -0.07104
 C2171 C 0.15495 0.30993 -0.02596
 C2172 C 0.16980 0.31863 -0.02006
 H2173 H 0.17177 0.28415 -0.04960
 H2174 H 0.17421 0.25914 -0.07647
 H2175 H 0.14325 0.24540 -0.09199
 H2176 H 0.10965 0.25656 -0.08072
 H2177 H 0.06632 0.29938 -0.03425
 H2178 H 0.06388 0.32382 -0.00688
 H2179 H 0.09484 0.33755 0.00864
 H2180 H 0.12843 0.32695 -0.00314
 C2181 C 0.35571 0.30545 0.03935
 C2182 C 0.37260 0.31856 0.04085
 C2183 C 0.39117 0.31108 0.04913
 C2184 C 0.39273 0.29052 0.05585
 C2185 C 0.37609 0.27721 0.05362
 C2186 C 0.35751 0.28470 0.04534
 C2187 C 0.34102 0.27118 0.04344
 C2188 C 0.34284 0.25080 0.04951
 C2189 C 0.36101 0.24347 0.05761
 C2190 C 0.37749 0.25646 0.05970
 C2191 C 0.40778 0.32454 0.05070
 C2192 C 0.40610 0.34480 0.04424
 C2193 C 0.38795 0.35213 0.03614
 C2194 C 0.37134 0.33923 0.03443
 C2195 C 0.41107 0.28344 0.06599
 C2196 C 0.42623 0.27818 0.07490
 C2197 C 0.33624 0.31366 0.03271
 C2198 C 0.32017 0.32114 0.02781
 H2199 H 0.32661 0.27618 0.03718
 H2200 H 0.33009 0.24064 0.04792
 H2201 H 0.36234 0.22763 0.06230
 H2202 H 0.39133 0.25007 0.06604
 H2203 H 0.42223 0.31955 0.05687
 H2204 H 0.41896 0.35488 0.04554
 H2205 H 0.38672 0.36788 0.03113
 H2206 H 0.35756 0.34563 0.02798
 C2207 C 0.85623 0.81124 0.54285
 C2208 C 0.86294 0.79120 0.53856
 C2209 C 0.88140 0.78363 0.54707
 C2210 C 0.89302 0.79617 0.55978
 C2211 C 0.88651 0.81636 0.56374
 C2212 C 0.86807 0.82391 0.55526
 C2213 C 0.86182 0.84412 0.55954
 C2214 C 0.87347 0.85650 0.57183
 C2215 C 0.89151 0.84911 0.58011
 C2216 C 0.89803 0.82930 0.57618
 C2217 C 0.88776 0.76352 0.54266
 C2218 C 0.87622 0.75122 0.53018
 C2219 C 0.85818 0.75862 0.52186
 C2220 C 0.85153 0.77837 0.52596
 C2221 C 0.91143 0.78832 0.56925
 C2222 C 0.92665 0.78249 0.57771
 C2223 C 0.83695 0.81880 0.53504
 C2224 C 0.82096 0.82582 0.52928
 H2225 H 0.84792 0.85060 0.55344
 H2226 H 0.86846 0.87191 0.57493
 H2227 H 0.90051 0.85879 0.58965
 H2228 H 0.91219 0.82429 0.58297
 H2229 H 0.90170 0.75712 0.54877
 H2230 H 0.88131 0.73587 0.52694
 H2231 H 0.84928 0.74901 0.51217
 H2232 H 0.83742 0.78348 0.51913
   
