data_POSCAR
  _audit_creation_date              2014-09-24
  _audit_creation_method            'ToBaCCo'
  _symmetry_space_group_name_H-M    'P1'
  _symmetry_Int_Tables_number       1
  _symmetry_cell_setting            triclinic
  loop_
  _symmetry_equiv_pos_as_xyz
 x,y,z
_cell_length_a 60.3216
_cell_length_b 59.8399
_cell_length_c 58.5512
_cell_angle_alpha 93.145600
_cell_angle_beta 92.282300
_cell_angle_gamma 93.235100
loop_
  _atom_site_label
  _atom_site_type_symbol
  _atom_site_fract_x
  _atom_site_fract_y
  _atom_site_fract_z
C1 C 0.73323 0.66160 0.97582
 H2 H 0.74934 0.66021 0.96855
 C3 C 0.71788 0.67536 0.96615
 H4 H 0.72245 0.68488 0.95168
 C5 C 0.70740 0.65011 1.00294
 H6 H 0.70311 0.63971 1.01680
 C7 C 0.69160 0.66372 0.99388
 H8 H 0.67528 0.66362 1.00094
 N9 N 0.72767 0.64910 0.99367
 C10 C 0.78808 0.62707 1.02667
 H11 H 0.78369 0.60927 1.02612
 C12 C 0.80832 0.63545 1.03695
 H13 H 0.81954 0.62390 1.04409
 C14 C 0.77887 0.66358 1.01741
 H15 H 0.76726 0.67445 1.00985
 C16 C 0.79904 0.67269 1.02747
 H17 H 0.80276 0.69061 1.02767
 Zn18 Zn 0.74737 0.62749 1.00293
 N19 N 0.77396 0.64109 1.01694
 C20 C 0.77548 0.61061 0.96954
 N21 N 0.75408 0.61052 0.97604
 C22 C 0.73718 0.60056 0.96233
 C23 C 0.74155 0.59009 0.94117
 C24 C 0.78055 0.60052 0.94851
 C25 C 0.73277 0.61922 1.04610
 C26 C 0.72276 0.60766 1.06337
 C27 C 0.71493 0.57603 1.03632
 C28 C 0.72552 0.58816 1.01969
 N29 N 0.73383 0.60949 1.02473
 H30 H 0.78865 0.61907 0.98030
 H31 H 0.72022 0.60130 0.96757
 H32 H 0.72789 0.58258 0.93027
 H33 H 0.79769 0.60084 0.94364
 H34 H 0.73945 0.63628 1.04964
 H35 H 0.72148 0.61691 1.07958
 H36 H 0.70919 0.55894 1.03147
 H37 H 0.72699 0.58048 1.00273
 C38 C 0.81411 0.65852 1.03732
 C39 C 0.69659 0.67624 0.97495
 C40 C 0.71314 0.58562 1.05884
 C41 C 0.76346 0.59029 0.93392
 C42 C 0.73393 0.36875 0.50584
 H43 H 0.74941 0.37157 0.51574
 C44 C 0.71773 0.35330 0.51278
 H45 H 0.72083 0.34464 0.52825
 C46 C 0.71096 0.37692 0.47398
 H47 H 0.70849 0.38587 0.45865
 C48 C 0.69425 0.36166 0.48036
 H49 H 0.67900 0.35914 0.46992
 N50 N 0.73021 0.38046 0.48693
 C51 C 0.79708 0.39933 0.46752
 H52 H 0.79780 0.41728 0.47116
 C53 C 0.81612 0.38880 0.46107
 H54 H 0.83142 0.39884 0.45946
 C55 C 0.77609 0.36451 0.46502
 H56 H 0.76045 0.35513 0.46667
 C57 C 0.79471 0.35331 0.45848
 H58 H 0.79327 0.33527 0.45536
 Zn59 Zn 0.75261 0.40207 0.47935
 N60 N 0.77761 0.38711 0.46940
 C61 C 0.77659 0.41129 0.52055
 N62 N 0.76161 0.42012 0.50617
 C63 C 0.75343 0.44046 0.51132
 C64 C 0.75987 0.45240 0.53199
 C65 C 0.78352 0.42264 0.54122
 C66 C 0.75263 0.42062 0.43588
 C67 C 0.74404 0.43212 0.41771
 C68 C 0.71306 0.44141 0.44061
 C69 C 0.72237 0.42995 0.45844
 N70 N 0.74170 0.41962 0.45572
 H71 H 0.78314 0.39527 0.51602
 H72 H 0.74169 0.44736 0.49966
 H73 H 0.75279 0.46828 0.53608
 H74 H 0.79559 0.41526 0.55226
 H75 H 0.76779 0.41209 0.43385
 H76 H 0.75270 0.43229 0.40187
 H77 H 0.69750 0.44924 0.44295
 H78 H 0.71377 0.42863 0.47421
 C79 C 0.81509 0.36547 0.45650
 C80 C 0.69746 0.34977 0.50013
 C81 C 0.72385 0.44241 0.41986
 C82 C 0.77490 0.44332 0.54739
 C83 C 0.23282 -0.14401 0.00536
 H84 H 0.24848 -0.14360 0.01509
 C85 C 0.21477 -0.15751 0.01179
 H86 H 0.21666 -0.16734 0.02666
 C87 C 0.21120 -0.13082 -0.02522
 H88 H 0.20976 -0.12015 -0.03943
 C89 C 0.19271 -0.14409 -0.01939
 H90 H 0.17733 -0.14379 -0.02951
 N91 N 0.23079 -0.13111 -0.01293
 C92 C 0.29764 -0.11878 -0.03664
 H93 H 0.29841 -0.10067 -0.03657
 C94 C 0.31556 -0.13058 -0.04407
 H95 H 0.33003 -0.12139 -0.04992
 C96 C 0.27744 -0.15269 -0.02972
 H97 H 0.26248 -0.16126 -0.02431
 C98 C 0.29499 -0.16516 -0.03701
 H99 H 0.29347 -0.18326 -0.03674
 Zn100 Zn 0.25578 -0.11246 -0.01961
 N101 N 0.27919 -0.12991 -0.02939
 C102 C 0.28540 -0.09663 0.01721
 N103 N 0.26467 -0.09518 0.00761
 C104 C 0.24941 -0.08274 0.01809
 C105 C 0.25480 -0.07107 0.03909
 C106 C 0.29146 -0.08531 0.03818
 C107 C 0.24398 -0.10412 -0.06463
 C108 C 0.23814 -0.09165 -0.08315
 C109 C 0.24235 -0.05815 -0.05812
 C110 C 0.24819 -0.07135 -0.04014
 N111 N 0.24847 -0.09393 -0.04358
 H112 H 0.29717 -0.10695 0.00892
 H113 H 0.23289 -0.08225 0.01031
 H114 H 0.24230 -0.06164 0.04744
 H115 H 0.30804 -0.08671 0.04555
 H116 H 0.24498 -0.12209 -0.06703
 H117 H 0.23570 -0.10079 -0.09956
 H118 H 0.24119 -0.04051 -0.05378
 H119 H 0.25218 -0.06348 -0.02332
 C120 C 0.31443 -0.15410 -0.04420
 C121 C 0.19435 -0.15764 -0.00062
 C122 C 0.23675 -0.06807 -0.08035
 C123 C 0.27599 -0.07251 0.04952
 C124 C 0.22304 0.18296 0.47437
 H125 H 0.23936 0.18409 0.46734
 C126 C 0.20589 0.19468 0.46485
 H127 H 0.20930 0.20521 0.45080
 C128 C 0.19862 0.16702 0.50056
 H129 H 0.19563 0.15560 0.51391
 C130 C 0.18099 0.17837 0.49152
 H131 H 0.16462 0.17549 0.49812
 N132 N 0.21907 0.16923 0.49168
 C133 C 0.28282 0.15336 0.52269
 H134 H 0.27987 0.13534 0.52233
 C135 C 0.30282 0.16330 0.53204
 H136 H 0.31529 0.15272 0.53863
 C137 C 0.27025 0.18879 0.51373
 H138 H 0.25745 0.19862 0.50665
 C139 C 0.29013 0.19947 0.52291
 H140 H 0.29243 0.21754 0.52289
 Zn141 Zn 0.24141 0.15003 0.50034
 N142 N 0.26717 0.16608 0.51346
 C143 C 0.27008 0.13494 0.46654
 N144 N 0.24879 0.13368 0.47338
 C145 C 0.23224 0.12247 0.46015
 C146 C 0.23686 0.11200 0.43906
 C147 C 0.27542 0.12468 0.44570
 C148 C 0.22847 0.14060 0.54376
 C149 C 0.22168 0.12776 0.56164
 C150 C 0.21957 0.09486 0.53562
 C151 C 0.22670 0.10833 0.51823
 N152 N 0.23085 0.13079 0.52258
 H153 H 0.28295 0.14429 0.47696
 H154 H 0.21536 0.12215 0.46575
 H155 H 0.22341 0.10359 0.42853
 H156 H 0.29253 0.12578 0.44072
 H157 H 0.23202 0.15847 0.54674
 H158 H 0.21977 0.13591 0.57837
 H159 H 0.21638 0.07700 0.53201
 H160 H 0.22903 0.10082 0.50136
 C161 C 0.30681 0.18664 0.53207
 C162 C 0.18437 0.19205 0.47306
 C163 C 0.21716 0.10459 0.55769
 C164 C 0.25869 0.11325 0.43150
 C165 C 0.15866 0.46354 0.22753
 H166 H 0.15908 0.45538 0.24356
 C167 C 0.17070 0.45534 0.20926
 H168 H 0.18040 0.44086 0.21139
 C169 C 0.14407 0.49122 0.20472
 H170 H 0.13318 0.50476 0.20273
 C171 C 0.15576 0.48355 0.18605
 H172 H 0.15407 0.49163 0.17002
 N173 N 0.14545 0.48099 0.22486
 C174 C 0.12821 0.50682 0.29269
 H175 H 0.11044 0.50699 0.28940
 C176 C 0.13749 0.51394 0.31420
 H177 H 0.12675 0.51989 0.32733
 C178 C 0.16367 0.49896 0.27931
 H179 H 0.17375 0.49302 0.26565
 C180 C 0.17371 0.50603 0.30066
 H181 H 0.19151 0.50528 0.30333
 Zn182 Zn 0.12589 0.48845 0.24828
 N183 N 0.14124 0.49913 0.27591
 C184 C 0.11013 0.45322 0.27450
 N185 N 0.10865 0.46191 0.25354
 C186 C 0.09632 0.45099 0.23594
 C187 C 0.08448 0.43073 0.23923
 C188 C 0.09873 0.43301 0.27849
 C189 C 0.11838 0.53205 0.23760
 C190 C 0.10668 0.55007 0.23054
 C191 C 0.07327 0.52568 0.22673
 C192 C 0.08561 0.50811 0.23410
 N193 N 0.10784 0.51152 0.23898
 H194 H 0.12047 0.46171 0.28814
 H195 H 0.09589 0.45794 0.21926
 H196 H 0.07483 0.42217 0.22504
 H197 H 0.09999 0.42653 0.29537
 H198 H 0.13604 0.53431 0.24174
 H199 H 0.11551 0.56615 0.22905
 H200 H 0.05564 0.52271 0.22270
 H201 H 0.07743 0.49181 0.23575
 C202 C 0.16049 0.51333 0.31854
 C203 C 0.16888 0.46505 0.18801
 C204 C 0.08386 0.54697 0.22480
 C205 C 0.08575 0.42145 0.26073
 C206 C -0.13291 -0.00079 0.22739
 H207 H -0.13230 0.00700 0.24454
 C208 C -0.14614 0.00770 0.21019
 H209 H -0.15606 0.02157 0.21495
 C210 C -0.12119 -0.02900 0.20148
 H211 H -0.11106 -0.04300 0.19802
 C212 C -0.13424 -0.02114 0.18373
 H213 H -0.13326 -0.02924 0.16687
 N214 N -0.12095 -0.01892 0.22285
 C215 C -0.11097 -0.05021 0.28752
 H216 H -0.09314 -0.05149 0.28774
 C217 C -0.12313 -0.05812 0.30548
 H218 H -0.11455 -0.06576 0.31938
 C219 C -0.14375 -0.03896 0.26887
 H220 H -0.15175 -0.03157 0.25454
 C221 C -0.15658 -0.04668 0.28648
 H222 H -0.17433 -0.04480 0.28565
 Zn223 Zn -0.10320 -0.02897 0.24715
 N224 N -0.12132 -0.04044 0.26994
 C225 C -0.08643 0.00256 0.28220
 N226 N -0.08511 -0.00401 0.25972
 C227 C -0.07224 0.00800 0.24564
 C228 C -0.06006 0.02750 0.25410
 C229 C -0.07446 0.02179 0.29137
 C230 C -0.09676 -0.07214 0.22935
 C231 C -0.08503 -0.09031 0.22164
 C232 C -0.05083 -0.06764 0.22923
 C233 C -0.06324 -0.04989 0.23686
 N234 N -0.08580 -0.05238 0.23654
 H235 H -0.09721 -0.00672 0.29302
 H236 H -0.07178 0.00263 0.22772
 H237 H -0.05000 0.03695 0.24265
 H238 H -0.07624 0.02700 0.30918
 H239 H -0.11471 -0.07371 0.22955
 H240 H -0.09411 -0.10576 0.21557
 H241 H -0.03287 -0.06542 0.22970
 H242 H -0.05481 -0.03421 0.24312
 C243 C -0.14622 -0.05615 0.30525
 C244 C -0.14711 -0.00241 0.18775
 C245 C -0.06174 -0.08817 0.22143
 C246 C -0.06117 0.03464 0.27726
 C247 C 0.37623 0.51247 0.73374
 H248 H 0.37752 0.52096 0.75057
 C249 C 0.36394 0.52142 0.71605
 H250 H 0.35590 0.53692 0.71940
 C251 C 0.38591 0.48242 0.70876
 H252 H 0.39472 0.46740 0.70582
 C253 C 0.37382 0.49075 0.69062
 H254 H 0.37312 0.48170 0.67406
 N255 N 0.38672 0.49317 0.72989
 C256 C 0.39498 0.46198 0.79502
 H257 H 0.41241 0.45870 0.79445
 C258 C 0.38267 0.45497 0.81326
 H259 H 0.39073 0.44603 0.82655
 C260 C 0.36329 0.47707 0.77792
 H261 H 0.35576 0.48554 0.76404
 C262 C 0.35033 0.47034 0.79587
 H263 H 0.33297 0.47404 0.79575
 Zn264 Zn 0.40372 0.48203 0.75428
 N265 N 0.38527 0.47308 0.77799
 C266 C 0.42473 0.51213 0.78831
 N267 N 0.42457 0.50529 0.76576
 C268 C 0.43767 0.51616 0.75099
 C269 C 0.45137 0.53494 0.75874
 C270 C 0.43830 0.53058 0.79679
 C271 C 0.40405 0.43785 0.73782
 C272 C 0.41257 0.41810 0.72920
 C273 C 0.44947 0.43618 0.73342
 C274 C 0.44018 0.45571 0.74194
 N275 N 0.41779 0.45625 0.74360
 H276 H 0.41383 0.50378 0.79972
 H277 H 0.43698 0.51061 0.73307
 H278 H 0.46142 0.54366 0.74673
 H279 H 0.43763 0.53610 0.81466
 H280 H 0.38633 0.43868 0.73966
 H281 H 0.40130 0.40369 0.72460
 H282 H 0.46727 0.43613 0.73164
 H283 H 0.45081 0.47046 0.74693
 C284 C 0.36005 0.45924 0.81394
 C285 C 0.36261 0.51051 0.69411
 C286 C 0.43554 0.41715 0.72664
 C287 C 0.45166 0.54243 0.78192
 C288 C 0.64435 0.96586 0.71363
 H289 H 0.63260 0.95398 0.72044
 C290 C 0.65761 0.95866 0.69608
 H291 H 0.65627 0.94117 0.69010
 C292 C 0.65983 1.00304 0.71253
 H293 H 0.66019 1.02042 0.71874
 C294 C 0.67347 0.99652 0.69484
 H295 H 0.68432 1.00899 0.68750
 N296 N 0.64560 0.98772 0.72150
 C297 C 0.62637 1.01509 0.78788
 H298 H 0.60861 1.01167 0.78540
 C299 C 0.63519 1.02456 0.80877
 H300 H 0.62372 1.02752 0.82218
 C301 C 0.66228 1.01341 0.77332
 H302 H 0.67275 1.00895 0.75943
 C303 C 0.67191 1.02287 0.79403
 H304 H 0.68974 1.02612 0.79511
 Zn305 Zn 0.62525 0.99716 0.74343
 N306 N 0.63986 1.01000 0.77059
 C307 C 0.61904 0.95666 0.76351
 N308 N 0.60781 0.97194 0.75204
 C309 C 0.58552 0.96903 0.74744
 C310 C 0.57378 0.94972 0.75395
 C311 C 0.60804 0.93713 0.77016
 C312 C 0.60811 1.03991 0.73933
 C313 C 0.59685 1.05637 0.72843
 C314 C 0.58467 1.02873 0.69827
 C315 C 0.59618 1.01277 0.70977
 N316 N 0.60763 1.01859 0.72989
 H317 H 0.63671 0.95958 0.76724
 H318 H 0.57684 0.98157 0.73864
 H319 H 0.55610 0.94744 0.74989
 H320 H 0.61733 0.92517 0.77927
 H321 H 0.61780 1.04445 0.75495
 H322 H 0.59805 1.07336 0.73592
 H323 H 0.57571 1.02378 0.68224
 H324 H 0.59637 0.99579 0.70243
 C325 C 0.65837 1.02892 0.81231
 C326 C 0.67218 0.97409 0.68619
 C327 C 0.58510 1.05095 0.70749
 C328 C 0.58514 0.93337 0.76526
 C329 C 0.00302 0.23953 -0.13939
 H330 H 0.01022 0.25649 -0.13958
 C331 C 0.01172 0.22238 -0.15276
 H332 H 0.02540 0.22638 -0.16354
 C333 C -0.02333 0.21378 -0.12473
 H334 H -0.03660 0.21038 -0.11334
 C335 C -0.01510 0.19610 -0.13778
 H336 H -0.02217 0.17924 -0.13623
 N337 N -0.01420 0.23499 -0.12577
 C338 C -0.04432 0.29850 -0.11177
 H339 H -0.04496 0.29824 -0.09334
 C340 C -0.05221 0.31659 -0.12302
 H341 H -0.05922 0.33008 -0.11314
 C342 C -0.03454 0.28101 -0.14695
 H343 H -0.02769 0.26710 -0.15621
 C344 C -0.04225 0.29880 -0.15892
 H345 H -0.04091 0.29852 -0.17731
 Zn346 Zn -0.02343 0.25877 -0.10644
 N347 N -0.03526 0.28144 -0.12374
 C348 C 0.00929 0.29240 -0.09140
 N349 N 0.00217 0.27070 -0.08913
 C350 C 0.01458 0.25673 -0.07704
 C351 C 0.03541 0.26432 -0.06729
 C352 C 0.02989 0.30063 -0.08195
 C353 C -0.06568 0.24134 -0.09858
 C354 C -0.08344 0.23318 -0.08633
 C355 C -0.06060 0.23988 -0.05158
 C356 C -0.04327 0.24795 -0.06462
 N357 N -0.04603 0.24822 -0.08770
 H358 H -0.00047 0.30317 -0.10141
 H359 H 0.00874 0.23942 -0.07588
 H360 H 0.04551 0.25276 -0.05856
 H361 H 0.03541 0.31784 -0.08437
 H362 H -0.06741 0.24183 -0.11701
 H363 H -0.09804 0.22676 -0.09637
 H364 H -0.05761 0.24092 -0.03324
 H365 H -0.02766 0.25413 -0.05624
 C366 C -0.05092 0.31707 -0.14688
 C367 C 0.00281 0.20025 -0.15187
 C368 C -0.08137 0.23199 -0.06222
 C369 C 0.04351 0.28638 -0.07026
 C370 C 0.46372 0.21896 0.15268
 H371 H 0.45546 0.23450 0.15183
 C372 C 0.45493 0.20181 0.16551
 H373 H 0.44004 0.20437 0.17481
 C374 C 0.49290 0.19655 0.14111
 H375 H 0.50734 0.19429 0.13110
 C376 C 0.48479 0.17906 0.15384
 H377 H 0.49315 0.16350 0.15348
 N378 N 0.48234 0.21603 0.14077
 C379 C 0.51164 0.28159 0.12657
 H380 H 0.51316 0.27860 0.10833
 C381 C 0.51934 0.30207 0.13724
 H382 H 0.52705 0.31469 0.12708
 C383 C 0.50014 0.26835 0.16190
 H384 H 0.49269 0.25509 0.17139
 C385 C 0.50764 0.28870 0.17332
 H386 H 0.50564 0.29106 0.19157
 Zn387 Zn 0.49203 0.23880 0.12165
 N388 N 0.50200 0.26535 0.13887
 C389 C 0.45904 0.26555 0.10494
 N390 N 0.46747 0.24501 0.10224
 C391 C 0.45718 0.22863 0.08787
 C392 C 0.43753 0.23267 0.07558
 C393 C 0.43949 0.27022 0.09319
 C394 C 0.53565 0.22869 0.11852
 C395 C 0.55541 0.22325 0.10869
 C396 C 0.53600 0.21967 0.07164
 C397 C 0.51652 0.22544 0.08223
 N398 N 0.51673 0.22966 0.10532
 H399 H 0.46701 0.27822 0.11682
 H400 H 0.46390 0.21225 0.08643
 H401 H 0.42926 0.21937 0.06455
 H402 H 0.43304 0.28666 0.09573
 H403 H 0.53536 0.23229 0.13681
 H404 H 0.57022 0.22237 0.11960
 H405 H 0.53572 0.21641 0.05325
 H406 H 0.50137 0.22669 0.07201
 C407 C 0.51718 0.30597 0.16088
 C408 C 0.46545 0.18148 0.16609
 C409 C 0.55580 0.21873 0.08496
 C410 C 0.42828 0.25360 0.07854
 C411 C 0.97585 0.73845 0.66277
 H412 H 0.96891 0.75468 0.66194
 C413 C 0.96594 0.72220 0.67594
 H414 H 0.95162 0.72625 0.68561
 C415 C 1.00245 0.71326 0.65043
 H416 H 1.01618 0.70955 0.63984
 C417 C 0.99303 0.69651 0.66332
 H418 H 0.99974 0.68010 0.66247
 N419 N 0.99363 0.73367 0.65018
 C420 C 1.02243 0.79790 0.63038
 H421 H 1.02311 0.79376 0.61221
 C422 C 1.02945 0.81931 0.63926
 H423 H 1.03581 0.83155 0.62784
 C424 C 1.01328 0.78679 0.66726
 H425 H 1.00689 0.77405 0.67804
 C426 C 1.02032 0.80805 0.67693
 H427 H 1.01911 0.81160 0.69515
 Zn428 Zn 1.00341 0.75476 0.62929
 N429 N 1.01407 0.78232 0.64428
 C430 C 0.96991 0.78039 0.61135
 N431 N 0.97840 0.75980 0.61006
 C432 C 0.96779 0.74240 0.59730
 C433 C 0.94782 0.74542 0.58518
 C434 C 0.95002 0.78410 0.59968
 C435 C 1.04644 0.74226 0.62534
 C436 C 1.06540 0.73512 0.61499
 C437 C 1.04458 0.73105 0.57874
 C438 C 1.02596 0.73851 0.58981
 N439 N 1.02723 0.74377 0.61276
 H440 H 0.97808 0.79387 0.62209
 H441 H 0.97454 0.72602 0.59707
 H442 H 0.93932 0.73135 0.57544
 H443 H 0.94352 0.80060 0.60106
 H444 H 1.04700 0.74671 0.64353
 H445 H 1.08046 0.73381 0.62542
 H446 H 1.04342 0.72698 0.56047
 H447 H 1.01064 0.74023 0.58004
 C448 C 1.02817 0.82472 0.66276
 C449 C 0.97425 0.70073 0.67598
 C450 C 1.06465 0.72943 0.59139
 C451 C 0.93855 0.76644 0.58664
 C452 C 0.50794 0.74144 0.36269
 H453 H 0.51648 0.75782 0.36539
 C454 C 0.51640 0.72529 0.34794
 H455 H 0.53129 0.72958 0.33901
 C456 C 0.47807 0.71622 0.37118
 H457 H 0.46323 0.71276 0.38043
 C458 C 0.48612 0.69943 0.35672
 H459 H 0.47748 0.68303 0.35526
 N460 N 0.48923 0.73663 0.37409
 C461 C 0.46687 0.80310 0.39213
 H462 H 0.46717 0.80325 0.41063
 C463 C 0.46036 0.82189 0.38105
 H464 H 0.45521 0.83589 0.39159
 C465 C 0.47172 0.78361 0.35664
 H466 H 0.47603 0.76863 0.34710
 C467 C 0.46531 0.80197 0.34481
 H468 H 0.46582 0.80068 0.32636
 Zn469 Zn 0.48109 0.75910 0.39556
 N470 N 0.47252 0.78449 0.37988
 C471 C 0.51605 0.78802 0.41699
 N472 N 0.50696 0.76663 0.41468
 C473 C 0.51770 0.74943 0.42349
 C474 C 0.53842 0.75334 0.43492
 C475 C 0.53674 0.79268 0.42832
 C476 C 0.43729 0.75802 0.41149
 C477 C 0.41930 0.75011 0.42364
 C478 C 0.44192 0.72151 0.43798
 C479 C 0.45958 0.73014 0.42578
 N480 N 0.45705 0.74811 0.41283
 H481 H 0.50788 0.80142 0.40920
 H482 H 0.51080 0.73243 0.42060
 H483 H 0.54683 0.73934 0.44142
 H484 H 0.54403 0.80967 0.42913
 H485 H 0.43523 0.77185 0.40070
 H486 H 0.40365 0.75805 0.42213
 H487 H 0.44423 0.70716 0.44812
 H488 H 0.47514 0.72214 0.42634
 C489 C 0.45937 0.82170 0.35688
 C490 C 0.50575 0.70377 0.34513
 C491 C 0.42147 0.73156 0.43699
 C492 C 0.54838 0.77515 0.43710
 C493 C 0.37576 -0.01712 0.27351
 C494 C 0.36108 -0.02693 0.25289
 C495 C 0.34765 -0.01207 0.24348
 C496 C 0.34964 0.01133 0.25581
 C497 C 0.38802 0.00367 0.26493
 C498 C 0.37455 0.01857 0.25551
 C499 C 0.35892 -0.00795 0.29003
 C500 C 0.34520 0.00690 0.28097
 H501 H 0.36111 -0.04414 0.24625
 H502 H 0.33834 0.02309 0.24808
 H503 H 0.40595 0.00621 0.26628
 H504 H 0.35777 -0.01309 0.30738
 C505 C 0.10851 1.04652 0.76202
 C506 C 0.12126 1.05552 0.74210
 C507 C 0.13454 1.04071 0.73193
 C508 C 0.13378 1.01778 0.74253
 C509 C 0.09584 1.02492 0.75193
 C510 C 0.10891 1.00976 0.74145
 C511 C 0.12630 1.03798 0.77820
 C512 C 0.13963 1.02310 0.76817
 H513 H 0.11951 1.07226 0.73634
 H514 H 0.14521 1.00627 0.73435
 H515 H 0.07857 1.02097 0.75487
 H516 H 0.12740 1.04246 0.79641
 C517 C 0.58317 0.53670 0.25013
 C518 C 0.59683 0.54248 0.22955
 C519 C 0.60975 0.52596 0.22197
 C520 C 0.60780 0.50479 0.23562
 C521 C 0.56995 0.51464 0.24234
 C522 C 0.58268 0.49795 0.23437
 C523 C 0.60011 0.52962 0.26813
 C524 C 0.61306 0.51308 0.26071
 H525 H 0.59645 0.55850 0.22183
 H526 H 0.61865 0.49166 0.22933
 H527 H 0.55231 0.51188 0.24406
 H528 H 0.60084 0.53633 0.28573
 C529 C 0.88849 0.49034 0.76740
 C530 C 0.87886 0.48367 0.74325
 C531 C 0.86747 0.49979 0.73321
 C532 C 0.86670 0.52148 0.74844
 C533 C 0.90266 0.51218 0.76446
 C534 C 0.89128 0.52845 0.75448
 C535 C 0.86868 0.49788 0.78074
 C536 C 0.85727 0.51410 0.77101
 H537 H 0.88082 0.46731 0.73497
 H538 H 0.85727 0.53469 0.74057
 H539 H 0.92034 0.51430 0.76814
 H540 H 0.86502 0.49195 0.79742
 C541 C 0.26658 0.38046 -0.02114
 C542 C 0.24318 0.36972 -0.02743
 C543 C 0.23446 0.35703 -0.01102
 C544 C 0.25001 0.35580 0.01020
 C545 C 0.26411 0.39321 0.00203
 C546 C 0.25527 0.38044 0.01839
 C547 C 0.28026 0.36049 -0.01552
 C548 C 0.27188 0.34773 0.00098
 H549 H 0.23410 0.37133 -0.04344
 H550 H 0.24301 0.34520 0.02343
 H551 H 0.26743 0.41117 0.00458
 H552 H 0.29603 0.35759 -0.02306
 C553 C 0.74910 0.09838 1.04328
 C554 C 0.72939 0.11278 1.04822
 C555 C 0.72397 0.12632 1.03118
 C556 C 0.73869 0.12405 1.01037
 C557 C 0.74206 0.08551 1.02047
 C558 C 0.73688 0.09879 1.00297
 C559 C 0.76786 0.11505 1.03737
 C560 C 0.76266 0.12837 1.02013
 H561 H 0.71908 0.11094 1.06276
 H562 H 0.73458 0.13537 0.99670
 H563 H 0.74065 0.06739 1.01880
 H564 H 0.78408 0.11595 1.04611
 C565 C 0.25192 0.60000 0.54497
 C566 C 0.23215 0.61425 0.55031
 C567 C 0.22573 0.62704 0.53301
 C568 C 0.23945 0.62426 0.51160
 C569 C 0.24426 0.58631 0.52276
 C570 C 0.23758 0.59882 0.50510
 C571 C 0.27001 0.61680 0.53770
 C572 C 0.26372 0.62930 0.52018
 H573 H 0.22258 0.61315 0.56542
 H574 H 0.23428 0.63535 0.49812
 H575 H 0.24470 0.56826 0.52139
 H576 H 0.28691 0.61758 0.54483
 C577 C 0.76649 0.87787 0.47967
 C578 C 0.74465 0.86403 0.47396
 C579 C 0.73735 0.85164 0.49124
 C580 C 0.75267 0.85431 0.51300
 C581 C 0.76161 0.89203 0.50151
 C582 C 0.75452 0.87983 0.51928
 C583 C 0.78281 0.86102 0.48770
 C584 C 0.77573 0.84869 0.50503
 H585 H 0.73503 0.86525 0.45810
 H586 H 0.74710 0.84332 0.52646
 H587 H 0.76136 0.91002 0.50190
 H588 H 0.79915 0.85981 0.48085
 C589 C -0.03103 0.25821 0.37934
 C590 C -0.03523 0.23442 0.36806
 C591 C -0.01730 0.22623 0.35776
 C592 C 0.00328 0.24262 0.35939
 C593 C -0.01053 0.25670 0.39547
 C594 C 0.00740 0.24846 0.38515
 C595 C -0.02270 0.27209 0.35978
 C596 C -0.00462 0.26422 0.34954
 H597 H -0.05119 0.22522 0.36672
 H598 H 0.01780 0.23603 0.35077
 H599 H -0.01066 0.26090 0.41369
 H600 H -0.02979 0.28759 0.35535
 C601 C 1.04590 0.73890 0.09668
 C602 C 1.05194 0.71949 0.11127
 C603 C 1.03584 0.71262 0.12536
 C604 C 1.01454 0.72548 0.12310
 C605 C 1.02419 0.73011 0.08364
 C606 C 1.00762 0.72337 0.09741
 C607 C 1.03877 0.75710 0.11381
 C608 C 1.02235 0.75027 0.12755
 H609 H 1.06769 0.71171 0.11033
 H610 H 1.00147 0.71996 0.13470
 H611 H 1.02215 0.72852 0.06521
 H612 H 1.04518 0.77438 0.11384
 C613 C 0.54017 0.25185 0.59039
 C614 C 0.54661 0.23047 0.60165
 C615 C 0.53214 0.22307 0.61723
 C616 C 0.51223 0.23781 0.62010
 C617 C 0.51647 0.24585 0.58021
 C618 C 0.50183 0.23860 0.59577
 C619 C 0.53697 0.26880 0.61037
 C620 C 0.52232 0.26169 0.62586
 H621 H 0.56145 0.22198 0.59752
 H622 H 0.50044 0.23190 0.63282
 H623 H 0.51179 0.24573 0.56222
 H624 H 0.54422 0.28582 0.61091
 C625 C 0.48632 0.76113 0.89130
 C626 C 0.48168 0.73856 0.87781
 C627 C 0.49906 0.73149 0.86570
 C628 C 0.51980 0.74778 0.86818
 C629 C 0.50730 0.75763 0.90624
 C630 C 0.52478 0.75046 0.89426
 C631 C 0.49424 0.77729 0.87360
 C632 C 0.51157 0.77050 0.86140
 H633 H 0.46600 0.72886 0.87820
 H634 H 0.53388 0.74198 0.85825
 H635 H 0.50815 0.75938 0.92467
 H636 H 0.48710 0.79331 0.87158
 C637 C 0.44312 -0.16212 0.32252
 C638 C 0.43560 -0.14383 0.31129
 C639 C 0.43704 -0.12229 0.32207
 C640 C 0.44640 -0.11939 0.34449
 C641 C 0.45394 -0.13768 0.35580
 C642 C 0.45233 -0.15953 0.34515
 C643 C 0.42748 -0.10386 0.30962
 C644 C 0.43001 -0.08202 0.31636
 C645 C 0.41818 -0.06467 0.30448
 C646 C 0.41227 -0.04552 0.31715
 C647 C 0.39928 -0.02988 0.30699
 C648 C 0.39156 -0.03321 0.28395
 C649 C 0.39949 -0.05124 0.27076
 C650 C 0.41244 -0.06690 0.28093
 H651 H 0.44053 -0.17839 0.31357
 H652 H 0.42822 -0.14666 0.29412
 H653 H 0.44772 -0.10321 0.35370
 H654 H 0.46158 -0.13427 0.37274
 H655 H 0.41715 -0.10882 0.29444
 H656 H 0.43972 -0.07659 0.33176
 H657 H 0.41717 -0.04300 0.33516
 H658 H 0.39495 -0.01537 0.31736
 H659 H 0.39574 -0.05344 0.25255
 H660 H 0.41794 -0.08068 0.27028
 C661 C 0.93007 0.33376 0.81970
 C662 C 0.92299 0.35228 0.80849
 C663 C 0.92757 0.37412 0.81818
 C664 C 0.93923 0.37705 0.83953
 C665 C 0.94631 0.35853 0.85072
 C666 C 0.94175 0.33668 0.84099
 C667 C 0.91887 0.39317 0.80613
 C668 C 0.92679 0.41452 0.80997
 C669 C 0.91712 0.43352 0.79865
 C670 C 0.93018 0.45349 0.79712
 C671 C 0.92144 0.47197 0.78708
 C672 C 0.89927 0.47088 0.77837
 C673 C 0.88617 0.45090 0.78033
 C674 C 0.89488 0.43253 0.79036
 H675 H 0.92603 0.31713 0.81190
 H676 H 0.91380 0.34953 0.79220
 H677 H 0.94255 0.39349 0.84796
 H678 H 0.95545 0.36134 0.86702
 H679 H 0.90577 0.38916 0.79315
 H680 H 0.94129 0.41836 0.82126
 H681 H 0.94727 0.45481 0.80373
 H682 H 0.93221 0.48690 0.78650
 H683 H 0.86894 0.44961 0.77419
 H684 H 0.88392 0.41783 0.79203
 C685 C -0.00056 1.16347 0.82491
 C686 C 0.00908 1.14545 0.81364
 C687 C 0.03226 1.14495 0.81278
 C688 C 0.04562 1.16328 0.82268
 C689 C 0.03601 1.18123 0.83393
 C690 C 0.01283 1.18148 0.83534
 C691 C 0.04194 1.12539 0.80108
 C692 C 0.06243 1.11913 0.80645
 C693 C 0.07308 1.10026 0.79466
 C694 C 0.09631 1.10027 0.79610
 C695 C 0.10730 1.08295 0.78549
 C696 C 0.09540 1.06473 0.77354
 C697 C 0.07203 1.06478 0.77195
 C698 C 0.06098 1.08228 0.78251
 H699 H -0.01849 1.16334 0.82537
 H700 H -0.00159 1.13172 0.80585
 H701 H 0.06350 1.16400 0.82165
 H702 H 0.04681 1.19477 0.84188
 H703 H 0.03168 1.11591 0.78796
 H704 H 0.07235 1.12855 0.81989
 H705 H 0.10606 1.11392 0.80528
 H706 H 0.12530 1.08378 0.78662
 H707 H 0.06205 1.05165 0.76241
 H708 H 0.04302 1.08145 0.78130
 C709 C 0.53888 0.68455 0.33101
 C710 C 0.54838 0.66761 0.31811
 C711 C 0.53498 0.65124 0.30521
 C712 C 0.51175 0.65250 0.30494
 C713 C 0.50220 0.66963 0.31773
 C714 C 0.51567 0.68580 0.33102
 C715 C 0.54602 0.63335 0.29233
 C716 C 0.53671 0.61264 0.28759
 C717 C 0.54873 0.59401 0.27697
 C718 C 0.53641 0.57510 0.26704
 C719 C 0.54706 0.55665 0.25795
 C720 C 0.57044 0.55652 0.25890
 C721 C 0.58269 0.57574 0.26841
 C722 C 0.57207 0.59409 0.27755
 H723 H 0.54977 0.69643 0.34135
 H724 H 0.56631 0.66701 0.31858
 H725 H 0.50092 0.64055 0.29464
 H726 H 0.48430 0.67036 0.31700
 H727 H 0.56292 0.63732 0.28776
 H728 H 0.51975 0.60881 0.29214
 H729 H 0.51841 0.57459 0.26634
 H730 H 0.53670 0.54277 0.25025
 H731 H 0.60069 0.57636 0.26920
 H732 H 0.58237 0.60791 0.28558
 C733 C 0.53626 0.32937 0.19371
 C734 C 0.54440 0.35015 0.20371
 C735 C 0.54114 0.36998 0.19259
 C736 C 0.52959 0.36859 0.17115
 C737 C 0.52145 0.34787 0.16120
 C738 C 0.52485 0.32800 0.17224
 C739 C 0.55098 0.39156 0.20320
 C740 C 0.54384 0.41160 0.19803
 C741 C 0.55418 0.43328 0.20780
 C742 C 0.54172 0.45234 0.20745
 C743 C 0.55094 0.47322 0.21597
 C744 C 0.57297 0.47563 0.22508
 C745 C 0.58561 0.45657 0.22480
 C746 C 0.57636 0.43567 0.21631
 H747 H 0.53939 0.31433 0.20251
 H748 H 0.55343 0.35071 0.22012
 H749 H 0.52726 0.38331 0.16162
 H750 H 0.51256 0.34739 0.14473
 H751 H 0.56416 0.39071 0.21616
 H752 H 0.52929 0.41235 0.18675
 H753 H 0.52474 0.45108 0.20053
 H754 H 0.54079 0.48749 0.21495
 H755 H 0.60268 0.45753 0.23108
 H756 H 0.58684 0.42159 0.21605
 C757 C 0.02819 0.86638 0.66052
 C758 C 0.03489 0.88813 0.66884
 C759 C 0.04854 0.89175 0.68880
 C760 C 0.05467 0.87315 0.70083
 C761 C 0.04779 0.85136 0.69259
 C762 C 0.03474 0.84776 0.67218
 C763 C 0.05580 0.91508 0.69664
 C764 C 0.07509 0.92037 0.70839
 C765 C 0.08316 0.94367 0.71557
 C766 C 0.10597 0.94822 0.72009
 C767 C 0.11435 0.96967 0.72775
 C768 C 0.10008 0.98719 0.73163
 C769 C 0.07716 0.98266 0.72645
 C770 C 0.06879 0.96118 0.71870
 H771 H 0.01779 0.86411 0.64496
 H772 H 0.02970 0.90217 0.65944
 H773 H 0.06461 0.87534 0.71667
 H774 H 0.05303 0.83732 0.70194
 H775 H 0.04566 0.92828 0.69110
 H776 H 0.08615 0.90722 0.71190
 H777 H 0.11745 0.93508 0.71771
 H778 H 0.13204 0.97203 0.73083
 H779 H 0.06548 0.99561 0.72834
 H780 H 0.05102 0.95833 0.71571
 C781 C 0.93918 0.68010 0.68684
 C782 C 0.92809 0.66186 0.69618
 C783 C 0.93998 0.64545 0.70672
 C784 C 0.96337 0.64787 0.70795
 C785 C 0.97448 0.66617 0.69862
 C786 C 0.96253 0.68236 0.68771
 C787 C 0.92738 0.62549 0.71467
 C788 C 0.93578 0.61126 0.72922
 C789 C 0.92339 0.59060 0.73579
 C790 C 0.92993 0.58087 0.75608
 C791 C 0.91935 0.56087 0.76236
 C792 C 0.90206 0.55006 0.74836
 C793 C 0.89550 0.55976 0.72806
 C794 C 0.90609 0.57973 0.72176
 H795 H 0.92945 0.69202 0.67820
 H796 H 0.91009 0.66034 0.69478
 H797 H 0.97327 0.63541 0.71539
 H798 H 0.99247 0.66748 0.69969
 H799 H 0.91026 0.62275 0.70842
 H800 H 0.95216 0.61496 0.73719
 H801 H 0.94331 0.58877 0.76712
 H802 H 0.92466 0.55390 0.77821
 H803 H 0.88265 0.55154 0.71660
 H804 H 0.90108 0.58614 0.70555
 C805 C 0.46979 0.14929 0.19129
 C806 C 0.46093 0.13071 0.20201
 C807 C 0.43801 0.12491 0.20033
 C808 C 0.42407 0.13827 0.18768
 C809 C 0.43294 0.15694 0.17706
 C810 C 0.45591 0.16254 0.17859
 C811 C 0.42969 0.10430 0.21107
 C812 C 0.40822 0.09935 0.21494
 C813 C 0.40017 0.07844 0.22528
 C814 C 0.37954 0.07792 0.23554
 C815 C 0.37122 0.05853 0.24530
 C816 C 0.38332 0.03915 0.24501
 C817 C 0.40378 0.03952 0.23429
 C818 C 0.41209 0.05887 0.22446
 H819 H 0.48753 0.15329 0.19290
 H820 H 0.47208 0.12072 0.21154
 H821 H 0.40644 0.13414 0.18528
 H822 H 0.42190 0.16659 0.16701
 H823 H 0.44206 0.09311 0.21658
 H824 H 0.39598 0.11134 0.21134
 H825 H 0.36988 0.09264 0.23619
 H826 H 0.35547 0.05894 0.25334
 H827 H 0.41324 0.02469 0.23304
 H828 H 0.42759 0.05818 0.21587
 C829 C 0.32487 0.44273 -0.17067
 C830 C 0.31265 0.43511 -0.15256
 C831 C 0.32186 0.43659 -0.13008
 C832 C 0.34371 0.44599 -0.12610
 C833 C 0.35592 0.45362 -0.14422
 C834 C 0.34671 0.45193 -0.16673
 C835 C 0.30847 0.42708 -0.11177
 C836 C 0.31343 0.43044 -0.08923
 C837 C 0.30048 0.41922 -0.07166
 C838 C 0.31118 0.41487 -0.05082
 C839 C 0.29988 0.40300 -0.03451
 C840 C 0.27756 0.39507 -0.03861
 C841 C 0.26648 0.40088 -0.05892
 C842 C 0.27780 0.41273 -0.07522
 H843 H 0.31740 0.44090 -0.18784
 H844 H 0.29595 0.42781 -0.15620
 H845 H 0.35177 0.44713 -0.10925
 H846 H 0.37264 0.46084 -0.14060
 H847 H 0.29404 0.41632 -0.11740
 H848 H 0.32799 0.44074 -0.08319
 H849 H 0.32854 0.42013 -0.04741
 H850 H 0.30878 0.39947 -0.01880
 H851 H 0.24909 0.39652 -0.06263
 H852 H 0.26864 0.41687 -0.09053
 C853 C 0.81968 0.92504 0.32064
 C854 C 0.80755 0.91769 0.33893
 C855 C 0.81599 0.92163 0.36156
 C856 C 0.83702 0.93292 0.36554
 C857 C 0.84914 0.94025 0.34726
 C858 C 0.84066 0.93632 0.32461
 C859 C 0.80310 0.91250 0.38033
 C860 C 0.80594 0.92012 0.40230
 C861 C 0.79443 0.90968 0.42130
 C862 C 0.79321 0.92209 0.44221
 C863 C 0.78380 0.91237 0.46103
 C864 C 0.77524 0.88992 0.45931
 C865 C 0.77676 0.87750 0.43836
 C866 C 0.78617 0.88718 0.41963
 H867 H 0.81284 0.92148 0.30336
 H868 H 0.79155 0.90877 0.33536
 H869 H 0.84447 0.93570 0.38263
 H870 H 0.86518 0.94905 0.35089
 H871 H 0.79056 0.89924 0.37561
 H872 H 0.81689 0.93480 0.40673
 H873 H 0.79990 0.93931 0.44411
 H874 H 0.78404 0.92243 0.47691
 H875 H 0.77110 0.85996 0.43666
 H876 H 0.78763 0.87666 0.40421
 C877 C 0.83193 -0.00767 1.15044
 C878 C 0.81912 0.00084 1.13285
 C879 C 0.81345 0.02323 1.13409
 C880 C 0.82120 0.03713 1.15318
 C881 C 0.83395 0.02870 1.17081
 C882 C 0.83966 0.00608 1.16988
 C883 C 0.80055 0.03182 1.11467
 C884 C 0.78839 0.04986 1.11687
 C885 C 0.77685 0.06009 1.09752
 C886 C 0.76171 0.07642 1.10258
 C887 C 0.75199 0.08822 1.08525
 C888 C 0.75688 0.08374 1.06217
 C889 C 0.77198 0.06724 1.05714
 C890 C 0.78181 0.05553 1.07450
 H891 H 0.83498 -0.02530 1.14890
 H892 H 0.81344 -0.01023 1.11826
 H893 H 0.81810 0.05478 1.15433
 H894 H 0.84017 0.04048 1.18454
 H895 H 0.80087 0.02259 1.09831
 H896 H 0.78662 0.05767 1.13376
 H897 H 0.75789 0.08061 1.12017
 H898 H 0.74149 0.10147 1.09034
 H899 H 0.77689 0.06399 1.03973
 H900 H 0.79394 0.04370 1.06976
 C901 C 0.35799 0.51915 0.65275
 C902 C 0.34598 0.52779 0.63468
 C903 C 0.32547 0.53708 0.63823
 C904 C 0.31735 0.53785 0.66048
 C905 C 0.32937 0.52919 0.67856
 C906 C 0.34982 0.51972 0.67491
 C907 C 0.31375 0.54662 0.61853
 C908 C 0.29220 0.55114 0.61803
 C909 C 0.28132 0.56225 0.59892
 C910 C 0.26370 0.57579 0.60371
 C911 C 0.25372 0.58764 0.58657
 C912 C 0.26080 0.58584 0.56389
 C913 C 0.27803 0.57159 0.55905
 C914 C 0.28815 0.55991 0.57628
 H915 H 0.37388 0.51234 0.64943
 H916 H 0.35280 0.52723 0.61783
 H917 H 0.30199 0.54544 0.66427
 H918 H 0.32257 0.52979 0.69541
 H919 H 0.32356 0.55032 0.60397
 H920 H 0.28222 0.54774 0.63250
 H921 H 0.25810 0.57781 0.62101
 H922 H 0.24102 0.59859 0.59169
 H923 H 0.28402 0.56987 0.54188
 H924 H 0.30127 0.54910 0.57178
 C925 C 0.15947 0.51372 0.36132
 C926 C 0.16813 0.52077 0.38317
 C927 C 0.18776 0.53453 0.38597
 C928 C 0.19910 0.54036 0.36637
 C929 C 0.19045 0.53322 0.34448
 C930 C 0.17037 0.52009 0.34171
 C931 C 0.19581 0.54230 0.40952
 C932 C 0.20845 0.56129 0.41423
 C933 C 0.21536 0.57018 0.43778
 C934 C 0.22197 0.59297 0.44116
 C935 C 0.22882 0.60223 0.46286
 C936 C 0.22961 0.58890 0.48195
 C937 C 0.22277 0.56598 0.47850
 C938 C 0.21589 0.55671 0.45672
 H939 H 0.14421 0.50321 0.35977
 H940 H 0.15923 0.51577 0.39795
 H941 H 0.21467 0.55031 0.36782
 H942 H 0.19926 0.53835 0.32969
 H943 H 0.18962 0.53286 0.42340
 H944 H 0.21287 0.57169 0.40037
 H945 H 0.22176 0.60377 0.42690
 H946 H 0.23365 0.61986 0.46421
 H947 H 0.22251 0.55500 0.49254
 H948 H 0.21135 0.53895 0.45486
 C949 C 0.65466 0.05226 0.84790
 C950 C 0.66333 0.06168 0.86891
 C951 C 0.68510 0.05817 0.87645
 C952 C 0.69835 0.04542 0.86211
 C953 C 0.68971 0.03595 0.84098
 C954 C 0.66754 0.03893 0.83349
 C955 C 0.69322 0.06856 0.89906
 C956 C 0.71087 0.06209 0.91115
 C957 C 0.71781 0.07211 0.93428
 C958 C 0.73037 0.05969 0.94914
 C959 C 0.73668 0.06832 0.97127
 C960 C 0.73055 0.08969 0.97918
 C961 C 0.71861 0.10237 0.96390
 C962 C 0.71242 0.09379 0.94177
 H963 H 0.63800 0.05629 0.84282
 H964 H 0.65287 0.07182 0.87937
 H965 H 0.71543 0.04275 0.86697
 H966 H 0.70039 0.02560 0.83112
 H967 H 0.68321 0.08126 0.90656
 H968 H 0.71980 0.04805 0.90473
 H969 H 0.73515 0.04311 0.94368
 H970 H 0.74657 0.05822 0.98200
 H971 H 0.71374 0.11893 0.96881
 H972 H 0.70359 0.10438 0.93059
 C973 C 0.70748 0.97411 0.66453
 C974 C 0.71968 0.96605 0.64626
 C975 C 0.70979 0.95039 0.62964
 C976 C 0.68715 0.94380 0.63100
 C977 C 0.67502 0.95181 0.64916
 C978 C 0.68511 0.96673 0.66636
 C979 C 0.72309 0.94137 0.61086
 C980 C 0.71888 0.92055 0.60139
 C981 C 0.73033 0.91066 0.58162
 C982 C 0.72677 0.88759 0.57637
 C983 C 0.73521 0.87755 0.55677
 C984 C 0.74733 0.89032 0.54147
 C985 C 0.75185 0.91337 0.54745
 C986 C 0.74331 0.92345 0.56713
 H987 H 0.71568 0.98565 0.67751
 H988 H 0.73701 0.97165 0.64538
 H989 H 0.67867 0.93258 0.61794
 H990 H 0.65762 0.94639 0.64968
 H991 H 0.73692 0.95182 0.60549
 H992 H 0.70624 0.90981 0.60862
 H993 H 0.71697 0.87725 0.58731
 H994 H 0.73154 0.85982 0.55376
 H995 H 0.76179 0.92394 0.53696
 H996 H 0.74645 0.94132 0.57042
 C997 C 0.16685 0.45226 0.14654
 C998 C 0.17581 0.44190 0.12737
 C999 C 0.19732 0.43417 0.12856
 C1000 C 0.20971 0.43686 0.14953
 C1001 C 0.20064 0.44711 0.16884
 C1002 C 0.17910 0.45493 0.16752
 C1003 C 0.20560 0.42251 0.10788
 C1004 C 0.22718 0.42086 0.10375
 C1005 C 0.23462 0.40969 0.08238
 C1006 C 0.25471 0.41723 0.07330
 C1007 C 0.26162 0.40763 0.05263
 C1008 C 0.24872 0.39003 0.04084
 C1009 C 0.22901 0.38200 0.05033
 C1010 C 0.22205 0.39166 0.07088
 H1011 H 0.15005 0.45768 0.14508
 H1012 H 0.16583 0.43984 0.11151
 H1013 H 0.22614 0.43062 0.15127
 H1014 H 0.21044 0.44891 0.18480
 H1015 H 0.19322 0.41608 0.09491
 H1016 H 0.23976 0.42916 0.11547
 H1017 H 0.26483 0.43091 0.08197
 H1018 H 0.27705 0.41396 0.04586
 H1019 H 0.21858 0.36861 0.04159
 H1020 H 0.20682 0.38494 0.07772
 C1021 C -0.14395 0.36013 0.46028
 C1022 C -0.12510 0.34921 0.45379
 C1023 C -0.12675 0.33171 0.43674
 C1024 C -0.14767 0.32561 0.42596
 C1025 C -0.16651 0.33650 0.43247
 C1026 C -0.16487 0.35386 0.44971
 C1027 C -0.10625 0.32102 0.42990
 C1028 C -0.10636 0.30032 0.41980
 C1029 C -0.08628 0.28975 0.41147
 C1030 C -0.08770 0.26663 0.40581
 C1031 C -0.06993 0.25609 0.39614
 C1032 C -0.05028 0.26856 0.39145
 C1033 C -0.04849 0.29155 0.39829
 C1034 C -0.06630 0.30210 0.40785
 H1035 H -0.14218 0.37332 0.47376
 H1036 H -0.10918 0.35439 0.46222
 H1037 H -0.14955 0.31284 0.41212
 H1038 H -0.18230 0.33164 0.42365
 H1039 H -0.09064 0.33043 0.43401
 H1040 H -0.12189 0.29031 0.41768
 H1041 H -0.10277 0.25663 0.40868
 H1042 H -0.07194 0.23822 0.39252
 H1043 H -0.03339 0.30156 0.39560
 H1044 H -0.06441 0.31999 0.41166
 C1045 C 0.32973 0.81297 0.93455
 C1046 C 0.34764 0.80120 0.92690
 C1047 C 0.36959 0.80911 0.93277
 C1048 C 0.37327 0.82924 0.94635
 C1049 C 0.35536 0.84099 0.95400
 C1050 C 0.33340 0.83305 0.94811
 C1051 C 0.38808 0.79667 0.92333
 C1052 C 0.40894 0.79861 0.93239
 C1053 C 0.42785 0.78753 0.92207
 C1054 C 0.44732 0.78577 0.93559
 C1055 C 0.46613 0.77687 0.92625
 C1056 C 0.46590 0.76941 0.90298
 C1057 C 0.44628 0.77117 0.88951
 C1058 C 0.42754 0.78013 0.89884
 H1059 H 0.31301 0.80660 0.92942
 H1060 H 0.34433 0.78592 0.91623
 H1061 H 0.38987 0.83634 0.95069
 H1062 H 0.35874 0.85632 0.96455
 H1063 H 0.38404 0.78518 0.90866
 H1064 H 0.41247 0.80845 0.94830
 H1065 H 0.44813 0.79166 0.95346
 H1066 H 0.48075 0.77659 0.93738
 H1067 H 0.44566 0.76608 0.87144
 H1068 H 0.41324 0.78188 0.88751
 C1069 C 1.15350 0.83714 0.00584
 C1070 C 1.13529 0.82467 0.01357
 C1071 C 1.13795 0.80357 0.02228
 C1072 C 1.15906 0.79469 0.02214
 C1073 C 1.17726 0.80713 0.01435
 C1074 C 1.17476 0.82864 0.00643
 C1075 C 1.11850 0.79146 0.03157
 C1076 C 1.12043 0.77728 0.04840
 C1077 C 1.10115 0.76693 0.05962
 C1078 C 1.10401 0.76111 0.08235
 C1079 C 1.08619 0.75196 0.09389
 C1080 C 1.06509 0.74770 0.08284
 C1081 C 1.06227 0.75350 0.05993
 C1082 C 1.08013 0.76284 0.04842
 H1083 H 1.15103 0.85371 0.00001
 H1084 H 1.11917 0.83180 0.01335
 H1085 H 1.16158 0.77812 0.02791
 H1086 H 1.19330 0.79988 0.01447
 H1087 H 1.10216 0.79598 0.02579
 H1088 H 1.13676 0.77458 0.05572
 H1089 H 1.12000 0.76416 0.09141
 H1090 H 1.08886 0.74842 0.11170
 H1091 H 1.04632 0.75145 0.05083
 H1092 H 1.07740 0.76679 0.03075
 C1093 C 0.68464 0.31397 0.51727
 C1094 C 0.66800 0.30027 0.52625
 C1095 C 0.64592 0.30653 0.52613
 C1096 C 0.64077 0.32678 0.51654
 C1097 C 0.65742 0.34046 0.50750
 C1098 C 0.67957 0.33435 0.50803
 C1099 C 0.62928 0.29246 0.53778
 C1100 C 0.60722 0.29353 0.53458
 C1101 C 0.59077 0.28121 0.54815
 C1102 C 0.56868 0.27812 0.53964
 C1103 C 0.55228 0.26815 0.55264
 C1104 C 0.55763 0.26089 0.57458
 C1105 C 0.57983 0.26410 0.58304
 C1106 C 0.59616 0.27408 0.57007
 H1107 H 0.70152 0.30870 0.51771
 H1108 H 0.67247 0.28484 0.53362
 H1109 H 0.62416 0.33267 0.51672
 H1110 H 0.65307 0.35626 0.50089
 H1111 H 0.63568 0.28067 0.54939
 H1112 H 0.60071 0.30369 0.52144
 H1113 H 0.56398 0.28386 0.52299
 H1114 H 0.53546 0.26699 0.54555
 H1115 H 0.58443 0.25942 0.60012
 H1116 H 0.61275 0.27693 0.57775
 C1117 C 0.33931 0.21441 0.52936
 C1118 C 0.36060 0.22303 0.53669
 C1119 C 0.37168 0.21454 0.55559
 C1120 C 0.36053 0.19802 0.56779
 C1121 C 0.33925 0.18943 0.56049
 C1122 C 0.32856 0.19722 0.54095
 C1123 C 0.39472 0.22328 0.56202
 C1124 C 0.40959 0.21120 0.57283
 C1125 C 0.43305 0.21907 0.57854
 C1126 C 0.44506 0.20794 0.59505
 C1127 C 0.46735 0.21429 0.60065
 C1128 C 0.47821 0.23182 0.58971
 C1129 C 0.46630 0.24288 0.57305
 C1130 C 0.44399 0.23657 0.56746
 H1131 H 0.33158 0.22068 0.51417
 H1132 H 0.36872 0.23592 0.52714
 H1133 H 0.36807 0.19173 0.58304
 H1134 H 0.33116 0.17662 0.57014
 H1135 H 0.39958 0.23984 0.55682
 H1136 H 0.40456 0.19455 0.57771
 H1137 H 0.43717 0.19424 0.60366
 H1138 H 0.47617 0.20514 0.61324
 H1139 H 0.47418 0.25657 0.56443
 H1140 H 0.43566 0.24521 0.55418
 C1141 C 0.84466 0.65926 0.06779
 C1142 C 0.86576 0.66679 0.07670
 C1143 C 0.87879 0.68255 0.06542
 C1144 C 0.86984 0.69135 0.04546
 C1145 C 0.84868 0.68387 0.03659
 C1146 C 0.83598 0.66751 0.04748
 C1147 C 0.90139 0.68944 0.07517
 C1148 C 0.91789 0.69753 0.06269
 C1149 C 0.94071 0.70382 0.07218
 C1150 C 0.95414 0.71891 0.06052
 C1151 C 0.97582 0.72517 0.06862
 C1152 C 0.98474 0.71624 0.08849
 C1153 C 0.97138 0.70095 0.10004
 C1154 C 0.94965 0.69471 0.09196
 H1155 H 0.83511 0.64695 0.07681
 H1156 H 0.87210 0.65998 0.09226
 H1157 H 0.87899 0.70410 0.03667
 H1158 H 0.84246 0.69053 0.02091
 H1159 H 0.90451 0.68707 0.09317
 H1160 H 0.91476 0.69985 0.04468
 H1161 H 0.94773 0.72612 0.04520
 H1162 H 0.98541 0.73735 0.05949
 H1163 H 0.97773 0.69345 0.11514
 H1164 H 0.94019 0.68242 0.10103
 C1165 C 0.67659 0.68794 0.93956
 C1166 C 0.65900 0.69812 0.92883
 C1167 C 0.64348 0.70926 0.94180
 C1168 C 0.64658 0.71098 0.96582
 C1169 C 0.66415 0.70075 0.97655
 C1170 C 0.67914 0.68881 0.96356
 C1171 C 0.62430 0.71859 0.92967
 C1172 C 0.60493 0.72196 0.93949
 C1173 C 0.58489 0.72960 0.92730
 C1174 C 0.56436 0.72680 0.93754
 C1175 C 0.54494 0.73354 0.92687
 C1176 C 0.54554 0.74345 0.90565
 C1177 C 0.56606 0.74627 0.89536
 C1178 C 0.58556 0.73962 0.90610
 H1179 H 0.68774 0.67872 0.92906
 H1180 H 0.65715 0.69671 0.91032
 H1181 H 0.63557 0.72021 0.97643
 H1182 H 0.66598 0.70211 0.99506
 H1183 H 0.62583 0.72106 0.91164
 H1184 H 0.60302 0.71764 0.95703
 H1185 H 0.56327 0.71912 0.95382
 H1186 H 0.52939 0.73056 0.93511
 H1187 H 0.56720 0.75391 0.87915
 H1188 H 0.60103 0.74268 0.89779
 C1189 C 0.16368 0.20177 0.43728
 C1190 C 0.14475 0.20894 0.42600
 C1191 C 0.12687 0.21645 0.43838
 C1192 C 0.12856 0.21702 0.46247
 C1193 C 0.14755 0.20988 0.47377
 C1194 C 0.16520 0.20186 0.46131
 C1195 C 0.10639 0.22187 0.42540
 C1196 C 0.08989 0.23314 0.43440
 C1197 C 0.06903 0.23700 0.42125
 C1198 C 0.05661 0.25519 0.42799
 C1199 C 0.03662 0.25902 0.41629
 C1200 C 0.02856 0.24459 0.39769
 C1201 C 0.04081 0.22620 0.39115
 C1202 C 0.06076 0.22238 0.40283
 H1203 H 0.17674 0.19532 0.42711
 H1204 H 0.14387 0.20813 0.40746
 H1205 H 0.11507 0.22221 0.47275
 H1206 H 0.14827 0.21030 0.49230
 H1207 H 0.10513 0.21648 0.40742
 H1208 H 0.09175 0.24043 0.45172
 H1209 H 0.06247 0.26657 0.44226
 H1210 H 0.02763 0.27342 0.42165
 H1211 H 0.03473 0.21439 0.37735
 H1212 H 0.06931 0.20763 0.39769
 C1213 C 0.57590 0.06925 0.67098
 C1214 C 0.56746 0.08687 0.65928
 C1215 C 0.55758 0.10450 0.67111
 C1216 C 0.55543 0.10359 0.69490
 C1217 C 0.56386 0.08593 0.70661
 C1218 C 0.57451 0.06873 0.69485
 C1219 C 0.55016 0.12346 0.65794
 C1220 C 0.54740 0.14408 0.66730
 C1221 C 0.54240 0.16353 0.65364
 C1222 C 0.53282 0.18200 0.66435
 C1223 C 0.52909 0.20119 0.65244
 C1224 C 0.53515 0.20241 0.62962
 C1225 C 0.54459 0.18388 0.61883
 C1226 C 0.54826 0.16471 0.63068
 H1227 H 0.58418 0.05641 0.66140
 H1228 H 0.56923 0.08704 0.64094
 H1229 H 0.54721 0.11635 0.70460
 H1230 H 0.56207 0.08575 0.72493
 H1231 H 0.54795 0.12038 0.63959
 H1232 H 0.54933 0.14725 0.68564
 H1233 H 0.52839 0.18165 0.68208
 H1234 H 0.52206 0.21529 0.66131
 H1235 H 0.54923 0.18419 0.60117
 H1236 H 0.55630 0.15123 0.62192
 C1237 C 1.05697 0.56240 0.19678
 C1238 C 1.04726 0.58060 0.18718
 C1239 C 1.05197 0.60249 0.19667
 C1240 C 1.06547 0.60564 0.21690
 C1241 C 1.07526 0.58749 0.22640
 C1242 C 1.07154 0.56576 0.21614
 C1243 C 1.04336 0.62158 0.18452
 C1244 C 1.05378 0.64206 0.18599
 C1245 C 1.04789 0.66049 0.17135
 C1246 C 1.06445 0.67719 0.16780
 C1247 C 1.06034 0.69425 0.15319
 C1248 C 1.03945 0.69518 0.14190
 C1249 C 1.02251 0.67908 0.14618
 C1250 C 1.02667 0.66182 0.16074
 H1251 H 1.05382 0.54583 0.18849
 H1252 H 1.03674 0.57766 0.17175
 H1253 H 1.06871 0.62209 0.22537
 H1254 H 1.08598 0.59047 0.24168
 H1255 H 1.02955 0.61794 0.17226
 H1256 H 1.06879 0.64498 0.19673
 H1257 H 1.08084 0.67678 0.17597
 H1258 H 1.07359 0.70673 0.15067
 H1259 H 1.00625 0.67945 0.13782
 H1260 H 1.01327 0.64964 0.16358
 C1261 C 0.96915 0.89658 0.19897
 C1262 C 0.98070 0.87863 0.19026
 C1263 C 0.97432 0.85652 0.19509
 C1264 C 0.95651 0.85278 0.20949
 C1265 C 0.94493 0.87075 0.21818
 C1266 C 0.95101 0.89282 0.21285
 C1267 C 0.98678 0.83805 0.18487
 C1268 C 0.97860 0.81670 0.18192
 C1269 C 0.99048 0.79894 0.16966
 C1270 C 0.97806 0.78057 0.15872
 C1271 C 0.98849 0.76432 0.14562
 C1272 C 1.01158 0.76609 0.14332
 C1273 C 1.02416 0.78386 0.15516
 C1274 C 1.01376 0.80006 0.16830
 H1275 H 0.97413 0.91337 0.19441
 H1276 H 0.99443 0.88202 0.17934
 H1277 H 0.95155 0.83611 0.21434
 H1278 H 0.93133 0.86739 0.22926
 H1279 H 1.00265 0.84272 0.17797
 H1280 H 0.96189 0.81230 0.18683
 H1281 H 0.96014 0.77919 0.15968
 H1282 H 0.97834 0.75091 0.13655
 H1283 H 1.04206 0.78532 0.15412
 H1284 H 1.02403 0.81340 0.17728
 C1285 C 0.43350 0.38487 0.69743
 C1286 C 0.44179 0.36540 0.68772
 C1287 C 0.46145 0.35709 0.69658
 C1288 C 0.47256 0.36865 0.71574
 C1289 C 0.46428 0.38825 0.72542
 C1290 C 0.44464 0.39654 0.71638
 C1291 C 0.46949 0.33646 0.68517
 C1292 C 0.49014 0.32949 0.68802
 C1293 C 0.49827 0.31038 0.67412
 C1294 C 0.52100 0.31030 0.66993
 C1295 C 0.52901 0.29391 0.65501
 C1296 C 0.51446 0.27710 0.64411
 C1297 C 0.49194 0.27631 0.64942
 C1298 C 0.48392 0.29272 0.66434
 H1299 H 0.41848 0.39097 0.68989
 H1300 H 0.43285 0.35690 0.67302
 H1301 H 0.48743 0.36260 0.72355
 H1302 H 0.47301 0.39671 0.74025
 H1303 H 0.45818 0.32756 0.67255
 H1304 H 0.50223 0.33922 0.69914
 H1305 H 0.53248 0.32347 0.67753
 H1306 H 0.54654 0.29469 0.65159
 H1307 H 0.48028 0.26362 0.64128
 H1308 H 0.46643 0.29168 0.66785
 C1309 C 0.47563 0.56437 0.81216
 C1310 C 0.48483 0.58478 0.82194
 C1311 C 0.48319 0.60461 0.81040
 C1312 C 0.47300 0.60337 0.78825
 C1313 C 0.46385 0.58287 0.77842
 C1314 C 0.46450 0.56329 0.79057
 C1315 C 0.48990 0.62621 0.82319
 C1316 C 0.49224 0.64610 0.81374
 C1317 C 0.49516 0.66755 0.82780
 C1318 C 0.50629 0.68625 0.81901
 C1319 C 0.50805 0.70698 0.83152
 C1320 C 0.49826 0.70945 0.85280
 C1321 C 0.48721 0.69072 0.86160
 C1322 C 0.48562 0.67005 0.84926
 H1323 H 0.47662 0.54949 0.82180
 H1324 H 0.49256 0.58519 0.83899
 H1325 H 0.47095 0.61824 0.77889
 H1326 H 0.45513 0.58260 0.76186
 H1327 H 0.49243 0.62566 0.84157
 H1328 H 0.49188 0.64694 0.79533
 H1329 H 0.51353 0.68483 0.80239
 H1330 H 0.51649 0.72121 0.82426
 H1331 H 0.47969 0.69205 0.87808
 H1332 H 0.47630 0.65626 0.85631
 C1333 C -0.03972 0.05753 0.30874
 C1334 C -0.03146 0.07820 0.31873
 C1335 C -0.03287 0.09782 0.30680
 C1336 C -0.04204 0.09618 0.28423
 C1337 C -0.05029 0.07544 0.27422
 C1338 C -0.04971 0.05600 0.28659
 C1339 C -0.02688 0.11965 0.31938
 C1340 C -0.02331 0.13909 0.30938
 C1341 C -0.02071 0.16096 0.32266
 C1342 C -0.00864 0.17899 0.31374
 C1343 C -0.00708 0.20014 0.32536
 C1344 C -0.01795 0.20370 0.34589
 C1345 C -0.02998 0.18566 0.35484
 C1346 C -0.03140 0.16455 0.34337
 H1347 H -0.03878 0.04278 0.31858
 H1348 H -0.02452 0.07897 0.33613
 H1349 H -0.04397 0.11091 0.27460
 H1350 H -0.05818 0.07484 0.25724
 H1351 H -0.02575 0.11964 0.33789
 H1352 H -0.02221 0.13920 0.29099
 H1353 H -0.00052 0.17672 0.29767
 H1354 H 0.00207 0.21383 0.31793
 H1355 H -0.03840 0.18789 0.37073
 H1356 H -0.04145 0.15129 0.35044
 C1357 C 0.05145 0.39553 0.25713
 C1358 C 0.03955 0.37607 0.26298
 C1359 C 0.04971 0.36044 0.27638
 C1360 C 0.07220 0.36451 0.28353
 C1361 C 0.08403 0.38398 0.27778
 C1362 C 0.07368 0.39988 0.26487
 C1363 C 0.03585 0.34148 0.28456
 C1364 C 0.04421 0.32268 0.29189
 C1365 C 0.03114 0.30579 0.30423
 C1366 C 0.04254 0.29241 0.31918
 C1367 C 0.03091 0.27816 0.33324
 C1368 C 0.00759 0.27693 0.33253
 C1369 C -0.00386 0.28924 0.31658
 C1370 C 0.00776 0.30345 0.30248
 H1371 H 0.04301 0.40759 0.24734
 H1372 H 0.02219 0.37346 0.25747
 H1373 H 0.08053 0.35331 0.29443
 H1374 H 0.10121 0.38683 0.28382
 H1375 H 0.01829 0.34392 0.28564
 H1376 H 0.06177 0.32030 0.29055
 H1377 H 0.06053 0.29373 0.32074
 H1378 H 0.04021 0.26901 0.34545
 H1379 H -0.02185 0.28816 0.31527
 H1380 H -0.00168 0.31270 0.29050
 C1381 C 0.55268 0.91340 0.78241
 C1382 C 0.54231 0.89400 0.79034
 C1383 C 0.55231 0.87338 0.78833
 C1384 C 0.57259 0.87242 0.77731
 C1385 C 0.58301 0.89184 0.76950
 C1386 C 0.57332 0.91259 0.77226
 C1387 C 0.54115 0.85359 0.79822
 C1388 C 0.55140 0.83499 0.80330
 C1389 C 0.54070 0.81669 0.81587
 C1390 C 0.55420 0.80309 0.82860
 C1391 C 0.54476 0.78720 0.84257
 C1392 C 0.52163 0.78463 0.84408
 C1393 C 0.50808 0.79714 0.83015
 C1394 C 0.51747 0.81290 0.81610
 H1395 H 0.54486 0.92916 0.78486
 H1396 H 0.52662 0.89524 0.79858
 H1397 H 0.58052 0.85680 0.77457
 H1398 H 0.59868 0.89064 0.76125
 H1399 H 0.52423 0.85535 0.80319
 H1400 H 0.56886 0.83389 0.80018
 H1401 H 0.57213 0.80539 0.82848
 H1402 H 0.55560 0.77782 0.85300
 H1403 H 0.49015 0.79502 0.83045
 H1404 H 0.50644 0.82220 0.80571
 C1405 C 0.68599 0.55669 0.06952
 C1406 C 0.67357 0.54666 0.08629
 C1407 C 0.67726 0.55338 0.10946
 C1408 C 0.69380 0.57025 0.11565
 C1409 C 0.70599 0.58060 0.09897
 C1410 C 0.70218 0.57444 0.07532
 C1411 C 0.66229 0.54411 0.12651
 C1412 C 0.66855 0.54246 0.14856
 C1413 C 0.65270 0.53633 0.16619
 C1414 C 0.66031 0.52588 0.18567
 C1415 C 0.64611 0.52172 0.20349
 C1416 C 0.62421 0.52850 0.20236
 C1417 C 0.61651 0.53871 0.18278
 C1418 C 0.63055 0.54253 0.16484
 H1419 H 0.68141 0.55136 0.05196
 H1420 H 0.66067 0.53387 0.08106
 H1421 H 0.69692 0.57607 0.13338
 H1422 H 0.71887 0.59301 0.10511
 H1423 H 0.64552 0.53860 0.12062
 H1424 H 0.68584 0.54579 0.15403
 H1425 H 0.67737 0.52119 0.18721
 H1426 H 0.65248 0.51401 0.21853
 H1427 H 0.59964 0.54399 0.18147
 H1428 H 0.62428 0.55115 0.15037
 C1429 C 0.19153 1.07537 0.57359
 C1430 C 0.18346 1.06415 0.59219
 C1431 C 0.19359 1.06823 0.61416
 C1432 C 0.21285 1.08272 0.61685
 C1433 C 0.22076 1.09406 0.59834
 C1434 C 0.20990 1.09089 0.57666
 C1435 C 0.18323 1.05781 0.63389
 C1436 C 0.18555 1.06718 0.65528
 C1437 C 0.17318 1.05919 0.67494
 C1438 C 0.17094 1.07441 0.69367
 C1439 C 0.15869 1.06826 0.71225
 C1440 C 0.14850 1.04662 0.71266
 C1441 C 0.15137 1.03101 0.69437
 C1442 C 0.16358 1.03722 0.67561
 H1443 H 0.18289 1.07260 0.55702
 H1444 H 0.16878 1.05287 0.58957
 H1445 H 0.22180 1.08553 0.63322
 H1446 H 0.23532 1.10549 0.60101
 H1447 H 0.17176 1.04339 0.63021
 H1448 H 0.19548 1.08276 0.65836
 H1449 H 0.17837 1.09133 0.69377
 H1450 H 0.15720 1.08050 0.72635
 H1451 H 0.14371 1.01420 0.69428
 H1452 H 0.16545 1.02479 0.66182
 C1453 C 0.23374 0.96810 0.90264
 C1454 C 0.22575 0.98077 0.88508
 C1455 C 0.21401 0.97046 0.86591
 C1456 C 0.21041 0.94706 0.86458
 C1457 C 0.21826 0.93429 0.88210
 C1458 C 0.22996 0.94442 0.90189
 C1459 C 0.20412 0.98466 0.84871
 C1460 C 0.19892 0.97738 0.82697
 C1461 C 0.18585 0.99017 0.81072
 C1462 C 0.17399 0.97828 0.79237
 C1463 C 0.15960 0.98913 0.77798
 C1464 C 0.15686 1.01214 0.78154
 C1465 C 0.16962 1.02433 0.79911
 C1466 C 0.18406 1.01351 0.81350
 H1467 H 0.24349 0.97728 0.91630
 H1468 H 0.22879 0.99883 0.88650
 H1469 H 0.20059 0.93850 0.85053
 H1470 H 0.21351 0.91661 0.88036
 H1471 H 0.20035 1.00137 0.85471
 H1472 H 0.20299 0.96069 0.82113
 H1473 H 0.17515 0.96033 0.78972
 H1474 H 0.14984 0.97925 0.76486
 H1475 H 0.16817 1.04222 0.80193
 H1476 H 0.19356 1.02352 0.82681
 C1477 C 0.72646 0.46736 0.38685
 C1478 C 0.71677 0.47709 0.36798
 C1479 C 0.69420 0.47245 0.36181
 C1480 C 0.68129 0.45847 0.37531
 C1481 C 0.69090 0.44898 0.39430
 C1482 C 0.71361 0.45321 0.40018
 C1483 C 0.68429 0.48309 0.34189
 C1484 C 0.66736 0.47315 0.32887
 C1485 C 0.65586 0.48396 0.30994
 C1486 C 0.64350 0.47035 0.29317
 C1487 C 0.63042 0.47985 0.27646
 C1488 C 0.62920 0.50316 0.27635
 C1489 C 0.64207 0.51687 0.29271
 C1490 C 0.65527 0.50740 0.30935
 H1491 H 0.74396 0.47106 0.39116
 H1492 H 0.72697 0.48805 0.35803
 H1493 H 0.66368 0.45510 0.37146
 H1494 H 0.68063 0.43806 0.40422
 H1495 H 0.69165 0.49913 0.33754
 H1496 H 0.66165 0.45615 0.33202
 H1497 H 0.64349 0.45225 0.29336
 H1498 H 0.62040 0.46889 0.26444
 H1499 H 0.64146 0.53494 0.29298
 H1500 H 0.66412 0.51848 0.32226
 C1501 C 0.78580 0.47839 0.57214
 C1502 C 0.79392 0.48884 0.59307
 C1503 C 0.79822 0.47601 0.61193
 C1504 C 0.79289 0.45281 0.61000
 C1505 C 0.78465 0.44244 0.58926
 C1506 C 0.78160 0.45498 0.56989
 C1507 C 0.80893 0.48669 0.63328
 C1508 C 0.82476 0.47644 0.64469
 C1509 C 0.83628 0.48535 0.66633
 C1510 C 0.85713 0.47746 0.67188
 C1511 C 0.86763 0.48302 0.69320
 C1512 C 0.85735 0.49634 0.70971
 C1513 C 0.83687 0.50511 0.70389
 C1514 C 0.82636 0.49964 0.68234
 H1515 H 0.78361 0.48852 0.55754
 H1516 H 0.79770 0.50678 0.59428
 H1517 H 0.79530 0.44261 0.62452
 H1518 H 0.78086 0.42450 0.58834
 H1519 H 0.80475 0.50345 0.63876
 H1520 H 0.83015 0.46069 0.63743
 H1521 H 0.86515 0.46652 0.65980
 H1522 H 0.88368 0.47649 0.69689
 H1523 H 0.82849 0.51529 0.71632
 H1524 H 0.81010 0.50570 0.67872
 C1525 C 0.27551 -0.03980 0.07837
 C1526 C 0.28119 -0.02966 0.10010
 C1527 C 0.29280 -0.04127 0.11651
 C1528 C 0.29911 -0.06305 0.11056
 C1529 C 0.29355 -0.07309 0.08888
 C1530 C 0.28172 -0.06161 0.07253
 C1531 C 0.29919 -0.03003 0.13920
 C1532 C 0.30187 -0.04160 0.15801
 C1533 C 0.31109 -0.03202 0.18057
 C1534 C 0.31115 -0.04612 0.19896
 C1535 C 0.32219 -0.03925 0.21975
 C1536 C 0.33340 -0.01804 0.22268
 C1537 C 0.33242 -0.00338 0.20482
 C1538 C 0.32149 -0.01031 0.18387
 H1539 H 0.26661 -0.03045 0.06601
 H1540 H 0.27643 -0.01276 0.10416
 H1541 H 0.30875 -0.07225 0.12243
 H1542 H 0.29843 -0.08997 0.08496
 H1543 H 0.30152 -0.01196 0.14017
 H1544 H 0.29751 -0.05945 0.15681
 H1545 H 0.30325 -0.06287 0.19700
 H1546 H 0.32242 -0.05076 0.23339
 H1547 H 0.34113 0.01300 0.20663
 H1548 H 0.32215 0.00107 0.17019
 C1549 C 0.27962 0.11401 0.39541
 C1550 C 0.28606 0.10382 0.37492
 C1551 C 0.27727 0.08236 0.36736
 C1552 C 0.26088 0.07178 0.38023
 C1553 C 0.25447 0.08198 0.40082
 C1554 C 0.26414 0.10300 0.40888
 C1555 C 0.28647 0.07154 0.34665
 C1556 C 0.28490 0.04934 0.34156
 C1557 C 0.29809 0.03827 0.32380
 C1558 C 0.30258 0.01573 0.32596
 C1559 C 0.31713 0.00528 0.31144
 C1560 C 0.32758 0.01714 0.29436
 C1561 C 0.32182 0.03918 0.29110
 C1562 C 0.30720 0.04966 0.30562
 H1563 H 0.28693 0.13049 0.40081
 H1564 H 0.29846 0.11253 0.36525
 H1565 H 0.25305 0.05559 0.37471
 H1566 H 0.24242 0.07312 0.41076
 H1567 H 0.29700 0.08216 0.33673
 H1568 H 0.27576 0.03844 0.35243
 H1569 H 0.29545 0.00637 0.33948
 H1570 H 0.32047 -0.01202 0.31392
 H1571 H 0.32920 0.04869 0.27794
 H1572 H 0.30342 0.06674 0.30269
 C1573 C 0.75924 0.55913 0.90328
 C1574 C 0.76549 0.54910 0.88256
 C1575 C 0.78093 0.56016 0.86909
 C1576 C 0.78986 0.58164 0.87670
 C1577 C 0.78375 0.59157 0.89748
 C1578 C 0.76863 0.58030 0.91114
 C1579 C 0.78914 0.54791 0.84871
 C1580 C 0.79829 0.55811 0.83117
 C1581 C 0.81052 0.54628 0.81302
 C1582 C 0.82500 0.55905 0.79990
 C1583 C 0.83931 0.54859 0.78501
 C1584 C 0.83943 0.52515 0.78305
 C1585 C 0.82388 0.51235 0.79480
 C1586 C 0.80942 0.52276 0.80948
 H1587 H 0.74769 0.55000 0.91356
 H1588 H 0.75858 0.53244 0.87723
 H1589 H 0.80229 0.59046 0.86722
 H1590 H 0.79111 0.60799 0.90304
 H1591 H 0.78842 0.52987 0.84909
 H1592 H 0.79837 0.57619 0.83093
 H1593 H 0.82605 0.57718 0.80203
 H1594 H 0.85120 0.55882 0.77615
 H1595 H 0.82337 0.49421 0.79315
 H1596 H 0.79792 0.51216 0.81830
 C1597 C 0.10568 0.73248 0.58631
 C1598 C 0.12501 0.72396 0.57790
 C1599 C 0.12401 0.70446 0.56335
 C1600 C 0.10301 0.69408 0.55669
 C1601 C 0.08360 0.70273 0.56504
 C1602 C 0.08481 0.72170 0.58037
 C1603 C 0.14527 0.69459 0.55757
 C1604 C 0.14732 0.67774 0.54183
 C1605 C 0.16836 0.66629 0.53926
 C1606 C 0.17254 0.65513 0.51826
 C1607 C 0.19155 0.64290 0.51593
 C1608 C 0.20650 0.64132 0.53470
 C1609 C 0.20244 0.65268 0.55560
 C1610 C 0.18358 0.66492 0.55791
 H1611 H 0.10709 0.74733 0.59784
 H1612 H 0.14089 0.73233 0.58334
 H1613 H 0.10139 0.67880 0.54588
 H1614 H 0.06773 0.69397 0.56036
 H1615 H 0.16000 0.70144 0.56726
 H1616 H 0.13335 0.67195 0.53048
 H1617 H 0.16095 0.65567 0.50372
 H1618 H 0.19412 0.63407 0.49970
 H1619 H 0.21375 0.65187 0.57033
 H1620 H 0.18066 0.67261 0.57459
 C1621 C 0.59690 0.22473 1.08179
 C1622 C 0.61716 0.21770 1.07425
 C1623 C 0.61796 0.19866 1.05927
 C1624 C 0.59781 0.18725 1.05127
 C1625 C 0.57747 0.19439 1.05877
 C1626 C 0.57688 0.21285 1.07456
 C1627 C 0.64010 0.19025 1.05446
 C1628 C 0.64378 0.17440 1.03817
 C1629 C 0.66550 0.16410 1.03617
 C1630 C 0.67075 0.15371 1.01516
 C1631 C 0.69019 0.14215 1.01325
 C1632 C 0.70460 0.14047 1.03241
 C1633 C 0.69957 0.15121 1.05334
 C1634 C 0.68024 0.16282 1.05526
 H1635 H 0.59691 0.23921 1.09374
 H1636 H 0.63235 0.22683 1.08070
 H1637 H 0.59758 0.17224 1.04011
 H1638 H 0.56229 0.18482 1.05311
 H1639 H 0.65399 0.19735 1.06528
 H1640 H 0.63061 0.16855 1.02585
 H1641 H 0.65957 0.15419 1.00027
 H1642 H 0.69337 0.13373 0.99705
 H1643 H 0.71041 0.15026 1.06841
 H1644 H 0.67654 0.16995 1.07195
 C1645 C 0.90530 0.21544 0.97226
 C1646 C 0.88815 0.20508 0.98394
 C1647 C 0.86654 0.20222 0.97421
 C1648 C 0.86228 0.21042 0.95258
 C1649 C 0.87935 0.22080 0.94081
 C1650 C 0.90155 0.22319 0.95003
 C1651 C 0.84953 0.18908 0.98633
 C1652 C 0.82757 0.18874 0.98141
 C1653 C 0.81130 0.17347 0.99210
 C1654 C 0.78902 0.17902 0.99303
 C1655 C 0.77317 0.16449 1.00226
 C1656 C 0.77930 0.14406 1.01059
 C1657 C 0.80152 0.13838 1.00933
 C1658 C 0.81731 0.15284 1.00014
 H1659 H 0.92167 0.21575 0.98046
 H1660 H 0.89198 0.19869 1.00052
 H1661 H 0.84593 0.20842 0.94424
 H1662 H 0.87450 0.22739 0.92468
 H1663 H 0.85557 0.17920 0.99996
 H1664 H 0.82105 0.20011 0.96944
 H1665 H 0.78390 0.19468 0.98667
 H1666 H 0.75619 0.16938 1.00309
 H1667 H 0.80666 0.12245 1.01493
 H1668 H 0.83405 0.14743 0.99880
 C1669 C 0.38893 0.73662 0.46176
 C1670 C 0.37061 0.72786 0.47296
 C1671 C 0.36503 0.70474 0.47142
 C1672 C 0.37855 0.69041 0.45909
 C1673 C 0.39701 0.69913 0.44815
 C1674 C 0.40228 0.72233 0.44922
 C1675 C 0.34551 0.69588 0.48335
 C1676 C 0.33305 0.67776 0.47509
 C1677 C 0.31408 0.66768 0.48703
 C1678 C 0.29788 0.65412 0.47413
 C1679 C 0.28091 0.64248 0.48489
 C1680 C 0.27991 0.64396 0.50879
 C1681 C 0.29583 0.65786 0.52175
 C1682 C 0.31276 0.66967 0.51100
 H1683 H 0.39280 0.75455 0.46305
 H1684 H 0.36060 0.73918 0.48260
 H1685 H 0.37509 0.67243 0.45813
 H1686 H 0.40699 0.68776 0.43855
 H1687 H 0.34087 0.70508 0.49869
 H1688 H 0.33656 0.67009 0.45853
 H1689 H 0.29868 0.65209 0.45569
 H1690 H 0.26932 0.63140 0.47456
 H1691 H 0.29548 0.65914 0.54026
 H1692 H 0.32525 0.67949 0.52158
 C1693 C 0.58792 0.76457 0.44089
 C1694 C 0.61011 0.76959 0.44795
 C1695 C 0.61641 0.78941 0.46107
 C1696 C 0.59988 0.80400 0.46737
 C1697 C 0.57767 0.79898 0.46029
 C1698 C 0.57149 0.77939 0.44667
 C1699 C 0.64042 0.79523 0.46589
 C1700 C 0.64836 0.81042 0.48231
 C1701 C 0.67207 0.81852 0.48488
 C1702 C 0.68000 0.82921 0.50578
 C1703 C 0.70155 0.83919 0.50815
 C1704 C 0.71555 0.83886 0.48959
 C1705 C 0.70786 0.82767 0.46883
 C1706 C 0.68635 0.81766 0.46644
 H1707 H 0.58379 0.74953 0.43008
 H1708 H 0.62251 0.75818 0.44265
 H1709 H 0.60403 0.81974 0.47695
 H1710 H 0.56536 0.81066 0.46510
 H1711 H 0.65191 0.78663 0.45527
 H1712 H 0.63716 0.81746 0.49438
 H1713 H 0.66929 0.83036 0.52017
 H1714 H 0.70679 0.84805 0.52417
 H1715 H 0.71833 0.82710 0.45423
 H1716 H 0.68077 0.81018 0.44983
 C1717 C 0.07952 0.30678 -0.07759
 C1718 C 0.10105 0.31477 -0.07088
 C1719 C 0.11037 0.31038 -0.04937
 C1720 C 0.09759 0.29750 -0.03466
 C1721 C 0.07592 0.28939 -0.04147
 C1722 C 0.06660 0.29421 -0.06290
 C1723 C 0.13294 0.32051 -0.04305
 C1724 C 0.14571 0.31554 -0.02493
 C1725 C 0.16809 0.32680 -0.02001
 C1726 C 0.18490 0.31526 -0.00930
 C1727 C 0.20648 0.32518 -0.00588
 C1728 C 0.21152 0.34679 -0.01314
 C1729 C 0.19445 0.35871 -0.02278
 C1730 C 0.17297 0.34892 -0.02603
 H1731 H 0.07298 0.31038 -0.09440
 H1732 H 0.11046 0.32457 -0.08260
 H1733 H 0.10395 0.29403 -0.01779
 H1734 H 0.06627 0.27983 -0.02977
 H1735 H 0.13963 0.33246 -0.05459
 H1736 H 0.14041 0.30229 -0.01420
 H1737 H 0.18147 0.29833 -0.00417
 H1738 H 0.21935 0.31571 0.00176
 H1739 H 0.19770 0.37570 -0.02778
 H1740 H 0.16023 0.35880 -0.03324
 C1741 C 0.40256 0.25259 0.04361
 C1742 C 0.38317 0.25910 0.03249
 C1743 C 0.36754 0.27103 0.04461
 C1744 C 0.37155 0.27601 0.06823
 C1745 C 0.39092 0.26963 0.07927
 C1746 C 0.40683 0.25825 0.06702
 C1747 C 0.34866 0.28011 0.03178
 C1748 C 0.32995 0.28614 0.04156
 C1749 C 0.31309 0.29944 0.03019
 C1750 C 0.29924 0.31200 0.04401
 C1751 C 0.28503 0.32695 0.03440
 C1752 C 0.28433 0.32958 0.01073
 C1753 C 0.29707 0.31598 -0.00329
 C1754 C 0.31123 0.30098 0.00629
 H1755 H 0.41461 0.24396 0.03374
 H1756 H 0.38062 0.25527 0.01424
 H1757 H 0.36035 0.28572 0.07814
 H1758 H 0.39371 0.27403 0.09739
 H1759 H 0.35111 0.28300 0.01397
 H1760 H 0.32759 0.28284 0.05931
 H1761 H 0.30016 0.31101 0.06244
 H1762 H 0.27550 0.33728 0.04566
 H1763 H 0.29641 0.31726 -0.02168
 H1764 H 0.32083 0.29096 -0.00513
 C1765 C 0.91193 0.76237 0.55239
 C1766 C 0.89214 0.76765 0.54117
 C1767 C 0.87670 0.78039 0.55266
 C1768 C 0.88133 0.78750 0.57575
 C1769 C 0.90112 0.78234 0.58687
 C1770 C 0.91679 0.77007 0.57521
 C1771 C 0.85725 0.78794 0.53953
 C1772 C 0.83862 0.79421 0.54929
 C1773 C 0.82088 0.80579 0.53717
 C1774 C 0.80631 0.81815 0.55032
 C1775 C 0.79097 0.83143 0.53984
 C1776 C 0.78991 0.83259 0.51597
 C1777 C 0.80354 0.81927 0.50270
 C1778 C 0.81876 0.80588 0.51313
 H1779 H 0.92380 0.75301 0.54297
 H1780 H 0.88908 0.76218 0.52333
 H1781 H 0.87026 0.79790 0.58506
 H1782 H 0.90437 0.78832 0.60455
 H1783 H 0.85915 0.78933 0.52139
 H1784 H 0.83687 0.79230 0.56741
 H1785 H 0.80741 0.81826 0.56884
 H1786 H 0.78070 0.84158 0.55048
 H1787 H 0.80262 0.81943 0.48420
 H1788 H 0.82889 0.79594 0.50221
   
