data_POSCAR
  _audit_creation_date              2014-09-24
  _audit_creation_method            'ToBaCCo'
  _symmetry_space_group_name_H-M    'P1'
  _symmetry_Int_Tables_number       1
  _symmetry_cell_setting            triclinic
  loop_
  _symmetry_equiv_pos_as_xyz
 x,y,z
_cell_length_a 71.9106
_cell_length_b 71.9158
_cell_length_c 71.9431
_cell_angle_alpha 90.083900
_cell_angle_beta 89.965400
_cell_angle_gamma 89.924500
loop_
  _atom_site_label
  _atom_site_type_symbol
  _atom_site_fract_x
  _atom_site_fract_y
  _atom_site_fract_z
N1 N 0.17859 0.22344 0.22722
 N2 N 0.18348 0.20857 0.23662
 C3 C 0.17169 0.20634 0.25100
 C4 C 0.15871 0.22060 0.25063
 C5 C 0.16357 0.23119 0.23530
 H6 H 0.17260 0.19526 0.26109
 H7 H 0.15661 0.24351 0.23024
 Cu8 Cu 0.20483 0.19369 0.22916
 Cu9 Cu 0.19193 0.23160 0.20511
 Cu10 Cu 0.22998 0.20519 0.19151
 N11 N 0.22625 0.17902 0.22143
 N12 N 0.23600 0.18359 0.20669
 C13 C 0.24996 0.17131 0.20447
 C14 C 0.24897 0.15826 0.21861
 C15 C 0.23370 0.16365 0.22910
 H16 H 0.26017 0.17198 0.19347
 H17 H 0.22832 0.15685 0.24135
 N18 N 0.22168 0.22752 0.17799
 N19 N 0.20719 0.23756 0.18315
 C20 C 0.20506 0.25176 0.17115
 C21 C 0.21887 0.25066 0.15775
 C22 C 0.22914 0.23509 0.16259
 H23 H 0.19429 0.26220 0.17218
 H24 H 0.24108 0.22955 0.15534
 H25 H 0.20190 0.20568 0.19762
 H26 H 0.21735 0.22035 0.21243
 N27 N 0.67736 0.72124 0.72562
 N28 N 0.68271 0.70680 0.73542
 C29 C 0.67079 0.70440 0.74968
 C30 C 0.65723 0.71811 0.74878
 C31 C 0.66191 0.72852 0.73328
 H32 H 0.67205 0.69364 0.76007
 H33 H 0.65464 0.74051 0.72789
 Cu34 Cu 0.70486 0.69272 0.72867
 Cu35 Cu 0.69099 0.72986 0.70392
 Cu36 Cu 0.73117 0.70586 0.69229
 N37 N 0.72756 0.67948 0.72205
 N38 N 0.73772 0.68465 0.70778
 C39 C 0.75232 0.67305 0.70608
 C40 C 0.75135 0.65986 0.72006
 C41 C 0.73543 0.66443 0.72996
 H42 H 0.76288 0.67420 0.69544
 H43 H 0.72982 0.65716 0.74183
 N44 N 0.72218 0.72764 0.67830
 N45 N 0.70666 0.73651 0.68250
 C46 C 0.70411 0.75043 0.67026
 C47 C 0.71878 0.75042 0.65782
 C48 C 0.72998 0.73579 0.66336
 H49 H 0.69260 0.76011 0.67057
 H50 H 0.74276 0.73128 0.65684
 H51 H 0.70287 0.70458 0.69697
 H52 H 0.71661 0.72010 0.71260
 N53 N 0.32192 0.77776 0.72679
 N54 N 0.31705 0.79264 0.73623
 C55 C 0.32892 0.79492 0.75053
 C56 C 0.34195 0.78069 0.75004
 C57 C 0.33700 0.77008 0.73474
 H58 H 0.32805 0.80605 0.76060
 H59 H 0.34394 0.75777 0.72959
 Cu60 Cu 0.29573 0.80760 0.72881
 Cu61 Cu 0.30848 0.76946 0.70482
 Cu62 Cu 0.27012 0.79550 0.69164
 N63 N 0.27386 0.82180 0.72150
 N64 N 0.26401 0.81703 0.70689
 C65 C 0.24987 0.82910 0.70481
 C66 C 0.25076 0.84227 0.71894
 C67 C 0.26625 0.83707 0.72928
 H68 H 0.23972 0.82818 0.69380
 H69 H 0.27171 0.84386 0.74150
 N70 N 0.27849 0.77324 0.67800
 N71 N 0.29309 0.76333 0.68301
 C72 C 0.29523 0.74912 0.67099
 C73 C 0.28129 0.75008 0.65774
 C74 C 0.27095 0.76558 0.66267
 H75 H 0.30606 0.73874 0.67192
 H76 H 0.25890 0.77101 0.65554
 H77 H 0.29829 0.79525 0.69731
 H78 H 0.28314 0.78068 0.71253
 N79 N 0.82170 0.27652 0.22550
 N80 N 0.81703 0.29164 0.23463
 C81 C 0.82888 0.29404 0.24892
 C82 C 0.84189 0.27972 0.24866
 C83 C 0.83680 0.26891 0.23347
 H84 H 0.82811 0.30549 0.25863
 H85 H 0.84325 0.25620 0.22871
 Cu86 Cu 0.79604 0.30698 0.22703
 Cu87 Cu 0.80749 0.26738 0.20445
 Cu88 Cu 0.76763 0.29164 0.19290
 N89 N 0.77308 0.31982 0.22062
 N90 N 0.76163 0.31328 0.20796
 C91 C 0.74667 0.32449 0.20685
 C92 C 0.74898 0.33896 0.21930
 C93 C 0.76591 0.33559 0.22778
 H94 H 0.73521 0.32260 0.19731
 H95 H 0.77237 0.34391 0.23850
 N96 N 0.77610 0.26949 0.17919
 N97 N 0.79130 0.26023 0.18361
 C98 C 0.79352 0.24602 0.17159
 C99 C 0.77908 0.24643 0.15889
 C100 C 0.76831 0.26152 0.16415
 H101 H 0.80501 0.23633 0.17180
 H102 H 0.75572 0.26632 0.15750
 H103 H 0.79615 0.29258 0.19625
 H104 H 0.78271 0.27882 0.21376
 N105 N 0.82131 0.72170 0.27301
 N106 N 0.81831 0.70512 0.26595
 C107 C 0.83026 0.70217 0.25183
 C108 C 0.84133 0.71781 0.24988
 C109 C 0.83520 0.72992 0.26358
 H110 H 0.83070 0.68968 0.24347
 H111 H 0.84066 0.74358 0.26668
 Cu112 Cu 0.79898 0.68892 0.27561
 Cu113 Cu 0.80740 0.73113 0.29425
 Cu114 Cu 0.76908 0.70559 0.30770
 N115 N 0.77550 0.67667 0.28091
 N116 N 0.76374 0.68337 0.29320
 C117 C 0.74870 0.67228 0.29396
 C118 C 0.75116 0.65777 0.28150
 C119 C 0.76838 0.66104 0.27347
 H120 H 0.73700 0.67444 0.30315
 H121 H 0.77516 0.65279 0.26287
 N122 N 0.77693 0.72843 0.32060
 N123 N 0.79156 0.73819 0.31547
 C124 C 0.79362 0.75266 0.32718
 C125 C 0.77959 0.75202 0.34040
 C126 C 0.76927 0.73643 0.33571
 H127 H 0.80463 0.76281 0.32621
 H128 H 0.75727 0.73105 0.34293
 H129 H 0.79777 0.70613 0.30480
 H130 H 0.78372 0.71721 0.28585
 N131 N 0.32116 0.22293 -0.22812
 N132 N 0.31655 0.20775 -0.23717
 C133 C 0.32819 0.20549 -0.25167
 C134 C 0.34087 0.22007 -0.25179
 C135 C 0.33585 0.23085 -0.23652
 H136 H 0.32736 0.19408 -0.26140
 H137 H 0.34235 0.24351 -0.23173
 Cu138 Cu 0.29571 0.19245 -0.22925
 Cu139 Cu 0.30784 0.23130 -0.20607
 Cu140 Cu 0.27002 0.20498 -0.19214
 N141 N 0.27401 0.17825 -0.22155
 N142 N 0.26406 0.18321 -0.20704
 C143 C 0.24997 0.17113 -0.20486
 C144 C 0.25106 0.15781 -0.21877
 C145 C 0.26653 0.16283 -0.22911
 H146 H 0.23959 0.17212 -0.19403
 H147 H 0.27202 0.15575 -0.24118
 N148 N 0.27822 0.22747 -0.17883
 N149 N 0.29264 0.23749 -0.18411
 C150 C 0.29475 0.25180 -0.17221
 C151 C 0.28099 0.25080 -0.15876
 C152 C 0.27078 0.23517 -0.16346
 H153 H 0.30546 0.26225 -0.17334
 H154 H 0.25890 0.22965 -0.15612
 H155 H 0.29820 0.20550 -0.19802
 H156 H 0.28272 0.21952 -0.21347
 N157 N 0.67678 0.27687 -0.22685
 N158 N 0.68307 0.28998 -0.23785
 C159 C 0.67141 0.29186 -0.25238
 C160 C 0.65690 0.27923 -0.25038
 C161 C 0.66087 0.27004 -0.23388
 H162 H 0.67338 0.30173 -0.26350
 H163 H 0.65314 0.25881 -0.22761
 Cu164 Cu 0.70590 0.30333 -0.23209
 Cu165 Cu 0.69032 0.26859 -0.20498
 Cu166 Cu 0.73141 0.29146 -0.19465
 N167 N 0.72812 0.31707 -0.22507
 N168 N 0.73824 0.31214 -0.21069
 C169 C 0.75264 0.32395 -0.20896
 C170 C 0.75143 0.33712 -0.22293
 C171 C 0.73567 0.33231 -0.23289
 H172 H 0.76291 0.32333 -0.19801
 H173 H 0.73013 0.33938 -0.24492
 N174 N 0.72203 0.27031 -0.18001
 N175 N 0.70604 0.26207 -0.18357
 C176 C 0.70326 0.24852 -0.17099
 C177 C 0.71827 0.24809 -0.15899
 C178 C 0.72992 0.26210 -0.16514
 H179 H 0.69142 0.23928 -0.17083
 H180 H 0.74308 0.26610 -0.15911
 H181 H 0.70322 0.29377 -0.19971
 H182 H 0.71636 0.27655 -0.21411
 N183 N 0.17833 0.77750 0.27295
 N184 N 0.18372 0.79182 0.26302
 C185 C 0.17192 0.79405 0.24866
 C186 C 0.15839 0.78035 0.24960
 C187 C 0.16297 0.77012 0.26526
 H188 H 0.17316 0.80481 0.23827
 H189 H 0.15566 0.75824 0.27079
 Cu190 Cu 0.20560 0.80623 0.26986
 Cu191 Cu 0.19156 0.76943 0.29510
 Cu192 Cu 0.22986 0.79536 0.30838
 N193 N 0.22683 0.82097 0.27792
 N194 N 0.23616 0.81668 0.29300
 C195 C 0.24995 0.82906 0.29544
 C196 C 0.24935 0.84195 0.28108
 C197 C 0.23439 0.83626 0.27023
 H198 H 0.25966 0.82855 0.30688
 H199 H 0.22926 0.84274 0.25771
 N200 N 0.22133 0.77330 0.32212
 N201 N 0.20672 0.76344 0.31709
 C202 C 0.20448 0.74932 0.32915
 C203 C 0.21837 0.75027 0.34246
 C204 C 0.22878 0.76569 0.33751
 H205 H 0.19365 0.73897 0.32818
 H206 H 0.24085 0.77107 0.34465
 H207 H 0.20190 0.79544 0.30175
 H208 H 0.21730 0.77987 0.28771
 N209 N 0.47185 0.42754 0.47577
 N210 N 0.45709 0.43263 0.48529
 C211 C 0.45482 0.42093 0.49971
 C212 C 0.46894 0.40780 0.49924
 C213 C 0.47948 0.41247 0.48381
 H214 H 0.44391 0.42209 0.50998
 H215 H 0.49178 0.40546 0.47875
 Cu216 Cu 0.44250 0.45429 0.47818
 Cu217 Cu 0.48040 0.44109 0.45401
 Cu218 Cu 0.45592 0.48085 0.44208
 N219 N 0.42901 0.47672 0.47129
 N220 N 0.43438 0.48707 0.45725
 C221 C 0.42259 0.50149 0.45542
 C222 C 0.40905 0.50019 0.46907
 C223 C 0.41364 0.48427 0.47891
 H224 H 0.42384 0.51213 0.44490
 H225 H 0.40620 0.47844 0.49057
 N226 N 0.47802 0.47219 0.42836
 N227 N 0.48695 0.45671 0.43253
 C228 C 0.50088 0.45419 0.42025
 C229 C 0.50083 0.46888 0.40787
 C230 C 0.48617 0.48004 0.41346
 H231 H 0.51057 0.44269 0.42046
 H232 H 0.48161 0.49277 0.40691
 H233 H 0.47001 0.46652 0.46264
 H234 H 0.45502 0.45253 0.44669
 N235 N -0.02788 -0.07113 0.97685
 N236 N -0.03962 -0.06381 0.98880
 C237 C -0.04172 -0.07546 1.00326
 C238 C -0.03069 -0.09099 1.00023
 C239 C -0.02214 -0.08774 0.98327
 H240 H -0.05061 -0.07280 1.01509
 H241 H -0.01199 -0.09647 0.97642
 Cu242 Cu -0.05094 -0.03972 0.98449
 Cu243 Cu -0.01958 -0.05786 0.95476
 Cu244 Cu -0.03817 -0.01385 0.94794
 N245 N -0.06619 -0.01921 0.97573
 N246 N -0.06095 -0.00888 0.96163
 C247 C -0.07342 0.00485 0.95911
 C248 C -0.08737 0.00293 0.97226
 C249 C -0.08232 -0.01255 0.98254
 H250 H -0.07242 0.01535 0.94842
 H251 H -0.08957 -0.01830 0.99439
 N252 N -0.01949 -0.02495 0.93131
 N253 N -0.01280 -0.04188 0.93355
 C254 C -0.00042 -0.04538 0.91994
 C255 C 0.00075 -0.02991 0.90850
 C256 C -0.01163 -0.01726 0.91619
 H257 H 0.00734 -0.05818 0.91864
 H258 H -0.01466 -0.00339 0.91130
 H259 H -0.02359 -0.03198 0.96548
 H260 H -0.04330 -0.04164 0.95168
 N261 N 1.02722 0.57218 0.97632
 N262 N 1.04183 0.56692 0.98593
 C263 C 1.04416 0.57865 1.00036
 C264 C 1.03021 0.59196 0.99980
 C265 C 1.01973 0.58737 0.98431
 H266 H 1.05499 0.57740 1.01068
 H267 H 1.00757 0.59454 0.97916
 Cu268 Cu 1.05609 0.54502 0.97882
 Cu269 Cu 1.01872 0.55875 0.95440
 Cu270 Cu 1.04360 0.51932 0.94184
 N271 N 1.07014 0.52306 0.97146
 N272 N 1.06514 0.51305 0.95702
 C273 C 1.07716 0.49883 0.95493
 C274 C 1.09046 0.49993 0.96883
 C275 C 1.08550 0.51553 0.97907
 H276 H 1.07619 0.48846 0.94410
 H277 H 1.09265 0.52111 0.99103
 N278 N 1.02145 0.52801 0.92820
 N279 N 1.01227 0.54326 0.93272
 C280 C 0.99819 0.54569 0.92062
 C281 C 0.99843 0.53122 0.90794
 C282 C 1.01335 0.52026 0.91320
 H283 H 0.98827 0.55698 0.92117
 H284 H 1.01809 0.50769 0.90643
 H285 H 1.02894 0.53312 0.96239
 H286 H 1.04422 0.54754 0.94719
 N287 N 0.52646 0.06955 0.47975
 N288 N 0.54283 0.06621 0.48720
 C289 C 0.54595 0.07862 0.50089
 C290 C 0.53061 0.09014 0.50223
 C291 C 0.51847 0.08397 0.48867
 H292 H 0.55828 0.07911 0.50947
 H293 H 0.50506 0.08985 0.48525
 Cu294 Cu 0.55772 0.04530 0.47869
 Cu295 Cu 0.51729 0.05581 0.45818
 Cu296 Cu 0.54460 0.01896 0.44271
 N297 N 0.57251 0.02403 0.47092
 N298 N 0.56726 0.01381 0.45671
 C299 C 0.57937 -0.00030 0.45446
 C300 C 0.59292 0.00104 0.46808
 C301 C 0.58809 0.01669 0.47828
 H302 H 0.57806 -0.01103 0.44401
 H303 H 0.59529 0.02223 0.49024
 N304 N 0.52117 0.02641 0.43053
 N305 N 0.51070 0.04028 0.43650
 C306 C 0.49596 0.04209 0.42508
 C307 C 0.49717 0.02870 0.41126
 C308 C 0.51334 0.01902 0.41523
 H309 H 0.48521 0.05248 0.42666
 H310 H 0.51921 0.00767 0.40731
 H311 H 0.53044 0.03109 0.46456
 H312 H 0.54283 0.04710 0.44840
 N313 N -0.02783 0.07322 0.52373
 N314 N -0.04228 0.06790 0.51392
 C315 C -0.04468 0.07977 0.49966
 C316 C -0.03097 0.09330 0.50055
 C317 C -0.02055 0.08863 0.51607
 H318 H -0.05546 0.07849 0.48929
 H319 H -0.00848 0.09579 0.52141
 Cu320 Cu -0.05652 0.04600 0.52080
 Cu321 Cu -0.01900 0.05939 0.54526
 Cu322 Cu -0.03992 0.01670 0.55312
 N323 N -0.06974 0.02338 0.52744
 N324 N -0.06304 0.01187 0.53992
 C325 C -0.07451 -0.00280 0.54153
 C326 C -0.08933 -0.00032 0.52948
 C327 C -0.08581 0.01649 0.52077
 H328 H -0.07232 -0.01430 0.55095
 H329 H -0.09418 0.02306 0.51017
 N330 N -0.01966 0.02653 0.56871
 N331 N -0.01200 0.04295 0.56598
 C332 C 0.00102 0.04584 0.57909
 C333 C 0.00161 0.03050 0.59075
 C334 C -0.01178 0.01857 0.58369
 H335 H 0.00949 0.05819 0.57999
 H336 H -0.01566 0.00511 0.58909
 H337 H -0.02738 0.03473 0.53401
 H338 H -0.04335 0.04510 0.55179
 N339 N 0.47300 0.57145 0.02385
 N340 N 0.45844 0.56628 0.01413
 C341 C 0.45591 0.57836 0.00006
 C342 C 0.46966 0.59183 0.00098
 C343 C 0.48024 0.58694 0.01632
 H344 H 0.44499 0.57731 -0.01019
 H345 H 0.49227 0.59413 0.02171
 Cu346 Cu 0.44428 0.54420 0.02076
 Cu347 Cu 0.48163 0.55768 0.04546
 Cu348 Cu 0.45627 0.51878 0.05816
 N349 N 0.42988 0.52263 0.02844
 N350 N 0.43462 0.51279 0.04306
 C351 C 0.42239 0.49883 0.04527
 C352 C 0.40918 0.49990 0.03127
 C353 C 0.41445 0.51524 0.02086
 H354 H 0.42313 0.48868 0.05631
 H355 H 0.40757 0.52068 0.00868
 N356 N 0.47861 0.52712 0.07168
 N357 N 0.48820 0.54198 0.06687
 C358 C 0.50256 0.54404 0.07868
 C359 C 0.50206 0.52977 0.09158
 C360 C 0.48665 0.51931 0.08667
 H361 H 0.51278 0.55500 0.07781
 H362 H 0.48158 0.50700 0.09359
 H363 H 0.47114 0.53211 0.03757
 H364 H 0.45587 0.54695 0.05249
 N365 N 0.52723 -0.07192 0.02417
 N366 N 0.54156 -0.06654 0.01422
 C367 C 0.54394 -0.07849 -0.00002
 C368 C 0.53034 -0.09210 0.00103
 C369 C 0.51999 -0.08742 0.01661
 H370 H 0.55468 -0.07727 -0.01046
 H371 H 0.50815 -0.09479 0.02218
 Cu372 Cu 0.55561 -0.04436 0.02079
 Cu373 Cu 0.51899 -0.05850 0.04621
 Cu374 Cu 0.54430 -0.01951 0.05883
 N375 N 0.56989 -0.02264 0.02830
 N376 N 0.56541 -0.01304 0.04320
 C377 C 0.57744 0.00113 0.04523
 C378 C 0.59021 0.00045 0.03081
 C379 C 0.58495 -0.01487 0.02034
 H380 H 0.57677 0.01126 0.05631
 H381 H 0.59166 -0.02008 0.00794
 N382 N 0.52248 -0.02827 0.07286
 N383 N 0.51283 -0.04311 0.06805
 C384 C 0.49882 -0.04542 0.08025
 C385 C 0.49962 -0.03136 0.09341
 C386 C 0.51484 -0.02076 0.08823
 H387 H 0.48866 -0.05645 0.07947
 H388 H 0.52006 -0.00852 0.09519
 H389 H 0.52902 -0.03274 0.03842
 H390 H 0.54478 -0.04761 0.05273
 N391 N 1.02712 0.42868 0.52267
 N392 N 1.04257 0.43306 0.51394
 C393 C 1.04525 0.42103 0.49982
 C394 C 1.03064 0.40852 0.49961
 C395 C 1.01939 0.41383 0.51432
 H396 H 1.05679 0.42151 0.49020
 H397 H 1.00664 0.40724 0.51877
 Cu398 Cu 1.05725 0.45440 0.52167
 Cu399 Cu 1.01838 0.44228 0.54446
 Cu400 Cu 1.04491 0.47997 0.55875
 N401 N 1.07196 0.47565 0.52960
 N402 N 1.06703 0.48560 0.54413
 C403 C 1.07926 0.49955 0.54644
 C404 C 1.09262 0.49837 0.53258
 C405 C 1.08749 0.48298 0.52216
 H406 H 1.07827 0.50996 0.55725
 H407 H 1.09452 0.47751 0.51006
 N408 N 1.02206 0.47204 0.57166
 N409 N 1.01195 0.45775 0.56620
 C410 C 0.99741 0.45582 0.57784
 C411 C 0.99835 0.46956 0.59134
 C412 C 1.01420 0.47957 0.58691
 H413 H 0.98690 0.44518 0.57655
 H414 H 1.01974 0.49139 0.59434
 H415 H 1.03020 0.46749 0.53746
 H416 H 1.04413 0.45187 0.55278
 Si417 Si 0.37374 -0.00019 0.25126
 Si418 Si 0.12576 -0.00019 0.74983
 Si419 Si 0.62676 0.49890 0.25017
 Si420 Si 0.87311 0.49873 0.75029
 Si421 Si 0.24998 0.37600 -0.00024
 Si422 Si 0.74981 0.12331 -0.00123
 Si423 Si 0.24974 0.62438 0.49991
 Si424 Si 0.75093 0.87596 0.50047
 Si425 Si -0.00101 0.25075 0.37412
 Si426 Si -0.00065 0.75026 0.12494
 Si427 Si 0.49946 0.24967 0.62464
 Si428 Si 0.50004 0.74970 0.87540
 C429 C 0.11306 0.22982 0.28850
 C430 C 0.11891 0.24395 0.27635
 C431 C 0.13369 0.24096 0.26409
 C432 C 0.14304 0.22379 0.26370
 C433 C 0.13724 0.20968 0.27589
 C434 C 0.12241 0.21265 0.28812
 C435 C 0.09722 0.23294 0.30136
 N436 N 0.09093 0.21904 0.31247
 N437 N 0.07657 0.22179 0.32386
 C438 C 0.06789 0.23856 0.32465
 N439 N 0.07422 0.25248 0.31358
 N440 N 0.08857 0.24973 0.30219
 C441 C 0.05168 0.24155 0.33706
 C442 C 0.04305 0.25909 0.33817
 C443 C 0.02747 0.26176 0.34947
 C444 C 0.02022 0.24699 0.35984
 C445 C 0.02883 0.22953 0.35898
 C446 C 0.04444 0.22682 0.34770
 H447 H 0.11204 0.25736 0.27626
 H448 H 0.13785 0.25221 0.25504
 H449 H 0.14397 0.19623 0.27590
 H450 H 0.11828 0.20144 0.29726
 H451 H 0.04824 0.27074 0.33021
 H452 H 0.02095 0.27534 0.34997
 H453 H 0.02339 0.21789 0.36677
 H454 H 0.05071 0.21314 0.34718
 C455 C 0.61113 0.72709 0.78621
 C456 C 0.62149 0.71051 0.78693
 C457 C 0.63643 0.70759 0.77481
 C458 C 0.64137 0.72116 0.76166
 C459 C 0.63099 0.73773 0.76096
 C460 C 0.61607 0.74066 0.77307
 C461 C 0.59527 0.73023 0.79904
 N462 N 0.58535 0.74630 0.79839
 N463 N 0.57110 0.74915 0.80989
 C464 C 0.56614 0.73605 0.82253
 N465 N 0.57607 0.71997 0.82318
 N466 N 0.59032 0.71713 0.81168
 C467 C 0.55027 0.73924 0.83533
 C468 C 0.54504 0.72558 0.84829
 C469 C 0.53010 0.72862 0.86036
 C470 C 0.52020 0.74540 0.85977
 C471 C 0.52519 0.75896 0.84675
 C472 C 0.54012 0.75596 0.83467
 H473 H 0.61806 0.69974 0.79685
 H474 H 0.64397 0.69460 0.77572
 H475 H 0.63441 0.74859 0.75117
 H476 H 0.60844 0.75361 0.77213
 H477 H 0.55245 0.71249 0.84911
 H478 H 0.52629 0.71776 0.87000
 H479 H 0.51753 0.77192 0.84594
 H480 H 0.54367 0.76676 0.82482
 C481 C 0.38814 0.77167 0.78727
 C482 C 0.38285 0.75790 0.77445
 C483 C 0.36787 0.76081 0.76243
 C484 C 0.35778 0.77757 0.76293
 C485 C 0.36303 0.79131 0.77581
 C486 C 0.37802 0.78840 0.78783
 C487 C 0.40412 0.76860 0.79993
 N488 N 0.40929 0.78186 0.81236
 N489 N 0.42367 0.77911 0.82370
 C490 C 0.43352 0.76298 0.82309
 N491 N 0.42835 0.74973 0.81066
 N492 N 0.41397 0.75248 0.79933
 C493 C 0.44953 0.75989 0.83571
 C494 C 0.45971 0.74319 0.83498
 C495 C 0.47475 0.74028 0.84692
 C496 C 0.47981 0.75391 0.85988
 C497 C 0.46989 0.77068 0.86052
 C498 C 0.45484 0.77363 0.84859
 H499 H 0.39028 0.74482 0.77365
 H500 H 0.36420 0.74982 0.75285
 H501 H 0.35572 0.80444 0.77657
 H502 H 0.38171 0.79933 0.79752
 H503 H 0.45609 0.73234 0.82519
 H504 H 0.48242 0.72733 0.84607
 H505 H 0.47375 0.78159 0.87012
 H506 H 0.44741 0.78671 0.84946
 C507 C -0.11314 0.27057 0.28582
 C508 C -0.11511 0.25969 0.26974
 C509 C -0.12998 0.26259 0.25761
 C510 C -0.14318 0.27670 0.26104
 C511 C -0.14103 0.28769 0.27716
 C512 C -0.12631 0.28454 0.28945
 C513 C -0.09734 0.26741 0.29861
 N514 N -0.09794 0.27359 0.31645
 N515 N -0.08368 0.27072 0.32792
 C516 C -0.06818 0.26167 0.32196
 N517 N -0.06758 0.25554 0.30411
 N518 N -0.08188 0.25829 0.29269
 C519 C -0.05217 0.25876 0.33453
 C520 C -0.03443 0.25501 0.32722
 C521 C -0.01919 0.25265 0.33901
 C522 C -0.02140 0.25386 0.35834
 C523 C -0.03919 0.25704 0.36571
 C524 C -0.05441 0.25970 0.35392
 H525 H -0.10521 0.24877 0.26658
 H526 H -0.13079 0.25383 0.24542
 H527 H -0.15079 0.29862 0.28057
 H528 H -0.12511 0.29321 0.30171
 H529 H -0.03226 0.25414 0.31235
 H530 H -0.00575 0.24983 0.33289
 H531 H -0.04131 0.25745 0.38060
 H532 H -0.06795 0.26228 0.35998
 C533 C -0.11400 0.72681 0.21097
 C534 C -0.11997 0.70869 0.21518
 C535 C -0.13460 0.70576 0.22764
 C536 C -0.14346 0.72088 0.23633
 C537 C -0.13753 0.73899 0.23209
 C538 C -0.12304 0.74193 0.21949
 C539 C -0.09832 0.72995 0.19797
 N540 N -0.09456 0.74726 0.19146
 N541 N -0.08028 0.75016 0.18002
 C542 C -0.06911 0.73589 0.17465
 N543 N -0.07289 0.71856 0.18114
 N544 N -0.08721 0.71565 0.19252
 C545 C -0.05297 0.73923 0.16227
 C546 C -0.03933 0.72544 0.15968
 C547 C -0.02384 0.72885 0.14845
 C548 C -0.02168 0.74605 0.13955
 C549 C -0.03553 0.75963 0.14167
 C550 C -0.05094 0.75632 0.15304
 H551 H -0.11335 0.69673 0.20883
 H552 H -0.13874 0.69163 0.23070
 H553 H -0.14417 0.75096 0.23839
 H554 H -0.11880 0.75607 0.21658
 H555 H -0.04050 0.71208 0.16648
 H556 H -0.01362 0.71794 0.14663
 H557 H -0.03457 0.77285 0.13469
 H558 H -0.06130 0.76717 0.15454
 C559 C 0.38521 0.22940 0.71023
 C560 C 0.38166 0.24199 0.72474
 C561 C 0.36709 0.23895 0.73721
 C562 C 0.35555 0.22320 0.73553
 C563 C 0.35913 0.21065 0.72086
 C564 C 0.37376 0.21370 0.70843
 C565 C 0.40087 0.23256 0.69719
 N566 N 0.40507 0.21993 0.68376
 N567 N 0.41933 0.22269 0.67225
 C568 C 0.42998 0.23822 0.67366
 N569 N 0.42572 0.25087 0.68704
 N570 N 0.41149 0.24811 0.69855
 C571 C 0.44614 0.24114 0.66120
 C572 C 0.45684 0.25744 0.66260
 C573 C 0.47248 0.25993 0.65139
 C574 C 0.47790 0.24615 0.63869
 C575 C 0.46698 0.23013 0.63680
 C576 C 0.45127 0.22761 0.64800
 H577 H 0.39021 0.25424 0.72657
 H578 H 0.36503 0.24909 0.74812
 H579 H 0.35078 0.19832 0.71886
 H580 H 0.37608 0.20370 0.69740
 H581 H 0.45324 0.26824 0.67246
 H582 H 0.48056 0.27255 0.65283
 H583 H 0.47051 0.21950 0.62677
 H584 H 0.44325 0.21497 0.64642
 C585 C 0.61164 0.26941 0.71296
 C586 C 0.61251 0.26052 0.73029
 C587 C 0.62740 0.26372 0.74233
 C588 C 0.64179 0.27611 0.73748
 C589 C 0.64072 0.28516 0.72013
 C590 C 0.62592 0.28173 0.70800
 C591 C 0.59587 0.26587 0.70022
 N592 N 0.59698 0.27042 0.68193
 N593 N 0.58274 0.26727 0.67052
 C594 C 0.56676 0.25953 0.67695
 N595 N 0.56565 0.25501 0.69523
 N596 N 0.57992 0.25805 0.70661
 C597 C 0.55074 0.25644 0.66440
 C598 C 0.53288 0.25349 0.67172
 C599 C 0.51762 0.25126 0.65992
 C600 C 0.51987 0.25198 0.64055
 C601 C 0.53784 0.25394 0.63323
 C602 C 0.55310 0.25645 0.64501
 H603 H 0.60173 0.25092 0.73454
 H604 H 0.62736 0.25650 0.75549
 H605 H 0.65136 0.29474 0.71562
 H606 H 0.62560 0.28888 0.69476
 H607 H 0.53061 0.25316 0.68659
 H608 H 0.50417 0.24890 0.66612
 H609 H 0.54022 0.25331 0.61843
 H610 H 0.56676 0.25820 0.63893
 C611 C 0.11212 0.77146 0.21238
 C612 C 0.11633 0.75847 0.22634
 C613 C 0.13131 0.76134 0.23835
 C614 C 0.14249 0.77729 0.23674
 C615 C 0.13829 0.79027 0.22275
 C616 C 0.12330 0.78739 0.21072
 C617 C 0.09614 0.76841 0.19970
 N618 N 0.09219 0.78073 0.18596
 N619 N 0.07780 0.77799 0.17463
 C620 C 0.06674 0.76281 0.17654
 N621 N 0.07070 0.75049 0.19028
 N622 N 0.08508 0.75323 0.20160
 C623 C 0.05065 0.75979 0.16400
 C624 C 0.03900 0.74427 0.16634
 C625 C 0.02377 0.74149 0.15462
 C626 C 0.01979 0.75417 0.14040
 C627 C 0.03152 0.76952 0.13783
 C628 C 0.04676 0.77235 0.14954
 H629 H 0.10805 0.74601 0.22801
 H630 H 0.13411 0.75094 0.24881
 H631 H 0.14646 0.80277 0.22108
 H632 H 0.12046 0.79770 0.20015
 H633 H 0.04162 0.73424 0.17723
 H634 H 0.01517 0.72936 0.15670
 H635 H 0.02909 0.77931 0.12670
 H636 H 0.05551 0.78436 0.14722
 C637 C 0.28556 0.11158 0.22808
 C638 C 0.28642 0.12165 0.21138
 C639 C 0.27457 0.13676 0.20830
 C640 C 0.26153 0.14217 0.22185
 C641 C 0.26066 0.13207 0.23855
 C642 C 0.27252 0.11697 0.24163
 C643 C 0.29818 0.09558 0.23136
 N644 N 0.29736 0.08579 0.24747
 N645 N 0.30871 0.07145 0.25042
 C646 C 0.32138 0.06627 0.23738
 N647 N 0.32219 0.07605 0.22127
 N648 N 0.31084 0.09040 0.21832
 C649 C 0.33404 0.05031 0.24066
 C650 C 0.34714 0.04500 0.22711
 C651 C 0.35909 0.02998 0.23021
 C652 C 0.35826 0.02008 0.24694
 C653 C 0.34510 0.02514 0.26040
 C654 C 0.33314 0.04016 0.25734
 H655 H 0.29626 0.11789 0.20061
 H656 H 0.27560 0.14405 0.19521
 H657 H 0.25094 0.13584 0.24939
 H658 H 0.27147 0.10955 0.25467
 H659 H 0.34815 0.05241 0.21406
 H660 H 0.36884 0.02613 0.21943
 H661 H 0.34410 0.01747 0.27331
 H662 H 0.32319 0.04377 0.26805
 C663 C 0.78860 0.61377 0.72969
 C664 C 0.78900 0.62352 0.71277
 C665 C 0.77701 0.63851 0.70970
 C666 C 0.76426 0.64410 0.72344
 C667 C 0.76390 0.63439 0.74039
 C668 C 0.77594 0.61943 0.74349
 C669 C 0.80118 0.59771 0.73284
 N670 N 0.80144 0.58875 0.74945
 N671 N 0.81257 0.57419 0.75219
 C672 C 0.82392 0.56794 0.73842
 N673 N 0.82369 0.57692 0.72182
 N674 N 0.81257 0.59149 0.71910
 C675 C 0.83610 0.55153 0.74134
 C676 C 0.84682 0.54432 0.72663
 C677 C 0.85798 0.52861 0.72927
 C678 C 0.85866 0.51987 0.74664
 C679 C 0.84817 0.52708 0.76140
 C680 C 0.83695 0.54275 0.75879
 H681 H 0.79855 0.61954 0.70182
 H682 H 0.77761 0.64551 0.69642
 H683 H 0.75440 0.63838 0.75136
 H684 H 0.77525 0.61227 0.75669
 H685 H 0.84649 0.55068 0.71301
 H686 H 0.86588 0.52325 0.71763
 H687 H 0.84855 0.52049 0.77492
 H688 H 0.82892 0.54793 0.77043
 C689 C 0.78751 0.38408 0.76819
 C690 C 0.76928 0.38406 0.76114
 C691 C 0.75765 0.36875 0.76386
 C692 C 0.76390 0.35320 0.77388
 C693 C 0.78210 0.35321 0.78096
 C694 C 0.79382 0.36844 0.77806
 C695 C 0.79980 0.40037 0.76537
 N696 N 0.81830 0.39928 0.76906
 N697 N 0.82931 0.41396 0.76660
 C698 C 0.82228 0.43037 0.76043
 N699 N 0.80379 0.43146 0.75677
 N700 N 0.79279 0.41676 0.75915
 C701 C 0.83449 0.44677 0.75787
 C702 C 0.82679 0.46453 0.75512
 C703 C 0.83827 0.48004 0.75293
 C704 C 0.85767 0.47810 0.75341
 C705 C 0.86540 0.46035 0.75576
 C706 C 0.85395 0.44485 0.75814
 H707 H 0.76399 0.39586 0.75345
 H708 H 0.74365 0.36927 0.75837
 H709 H 0.78739 0.34139 0.78860
 H710 H 0.80776 0.36801 0.78370
 H711 H 0.81186 0.46651 0.75478
 H712 H 0.83187 0.49347 0.75079
 H713 H 0.88034 0.45846 0.75567
 H714 H 0.86034 0.43134 0.76000
 C715 C 0.28525 -0.11191 0.27243
 C716 C 0.27091 -0.11586 0.25979
 C717 C 0.25907 -0.13100 0.26263
 C718 C 0.26126 -0.14271 0.27819
 C719 C 0.27571 -0.13865 0.29081
 C720 C 0.28749 -0.12349 0.28797
 C721 C 0.29784 -0.09586 0.26944
 N722 N 0.31110 -0.09151 0.28216
 N723 N 0.32243 -0.07712 0.27949
 C724 C 0.32102 -0.06647 0.26398
 N725 N 0.30776 -0.07082 0.25125
 N726 N 0.29641 -0.08520 0.25393
 C727 C 0.33371 -0.05051 0.26100
 C728 C 0.33296 -0.04012 0.24447
 C729 C 0.34501 -0.02515 0.24167
 C730 C 0.35808 -0.02034 0.25528
 C731 C 0.35874 -0.03046 0.27189
 C732 C 0.34674 -0.04547 0.27470
 H733 H 0.26877 -0.10723 0.24766
 H734 H 0.24827 -0.13340 0.25246
 H735 H 0.27809 -0.14707 0.30301
 H736 H 0.29840 -0.12089 0.29800
 H737 H 0.32308 -0.04355 0.23364
 H738 H 0.34416 -0.01733 0.22884
 H739 H 0.36842 -0.02682 0.28278
 H740 H 0.34763 -0.05305 0.28765
 C741 C 0.21441 -0.11193 0.72809
 C742 C 0.22921 -0.11546 0.74032
 C743 C 0.24119 -0.13051 0.73733
 C744 C 0.23868 -0.14252 0.72202
 C745 C 0.22374 -0.13890 0.70984
 C746 C 0.21184 -0.12383 0.71283
 C747 C 0.20173 -0.09594 0.73120
 N748 N 0.18819 -0.09181 0.71871
 N749 N 0.17680 -0.07745 0.72146
 C750 C 0.17842 -0.06661 0.73684
 N751 N 0.19195 -0.07074 0.74935
 N752 N 0.20337 -0.08509 0.74659
 C753 C 0.16570 -0.05065 0.73990
 C754 C 0.16657 -0.04019 0.75642
 C755 C 0.15452 -0.02520 0.75927
 C756 C 0.14136 -0.02042 0.74574
 C757 C 0.14058 -0.03062 0.72916
 C758 C 0.15257 -0.04566 0.72629
 H759 H 0.23162 -0.10657 0.75223
 H760 H 0.25235 -0.13258 0.74716
 H761 H 0.22110 -0.14757 0.69786
 H762 H 0.20056 -0.12155 0.70312
 H763 H 0.17653 -0.04359 0.76717
 H764 H 0.15545 -0.01732 0.77208
 H765 H 0.13082 -0.02700 0.71833
 H766 H 0.15161 -0.05330 0.71335
 C767 C 0.71219 0.38526 0.22790
 C768 C 0.70502 0.36756 0.22387
 C769 C 0.71701 0.35252 0.22090
 C770 C 0.73633 0.35483 0.22244
 C771 C 0.74349 0.37246 0.22680
 C772 C 0.73153 0.38761 0.22925
 C773 C 0.69957 0.40123 0.23066
 N774 N 0.70490 0.41865 0.22576
 N775 N 0.69351 0.43306 0.22823
 C776 C 0.67643 0.43065 0.23591
 N777 N 0.67113 0.41324 0.24090
 N778 N 0.68243 0.39878 0.23821
 C779 C 0.66402 0.44670 0.23906
 C780 C 0.65189 0.44699 0.25436
 C781 C 0.64073 0.46255 0.25783
 C782 C 0.64118 0.47783 0.24577
 C783 C 0.65291 0.47736 0.23020
 C784 C 0.66445 0.46204 0.22701
 H785 H 0.69016 0.36542 0.22270
 H786 H 0.71117 0.33904 0.21764
 H787 H 0.75835 0.37460 0.22795
 H788 H 0.73738 0.40111 0.23244
 H789 H 0.65141 0.43539 0.26394
 H790 H 0.63200 0.46262 0.27005
 H791 H 0.65340 0.48903 0.22071
 H792 H 0.67361 0.46210 0.21506
 C793 C 0.71409 0.61174 0.27166
 C794 C 0.73291 0.61064 0.26645
 C795 C 0.74488 0.62564 0.26947
 C796 C 0.73836 0.64204 0.27789
 C797 C 0.71952 0.64318 0.28302
 C798 C 0.70751 0.62823 0.27987
 C799 C 0.70148 0.59571 0.26870
 N800 N 0.68285 0.59740 0.27140
 N801 N 0.67157 0.58294 0.26884
 C802 C 0.67845 0.56614 0.26355
 N803 N 0.69708 0.56445 0.26087
 N804 N 0.70834 0.57892 0.26337
 C805 C 0.66597 0.54999 0.26072
 C806 C 0.67342 0.53211 0.25797
 C807 C 0.66175 0.51687 0.25508
 C808 C 0.64240 0.51919 0.25462
 C809 C 0.63489 0.53695 0.25765
 C810 C 0.64654 0.55222 0.26068
 H811 H 0.73844 0.59818 0.26004
 H812 H 0.75932 0.62423 0.26546
 H813 H 0.71398 0.65566 0.28936
 H814 H 0.69310 0.62957 0.28404
 H815 H 0.68831 0.52983 0.25814
 H816 H 0.66801 0.50333 0.25327
 H817 H 0.61997 0.53902 0.25762
 H818 H 0.64032 0.56577 0.26282
 C819 C 0.21428 0.11130 0.77209
 C820 C 0.22740 0.11641 0.75854
 C821 C 0.23932 0.13146 0.76150
 C822 C 0.23842 0.14180 0.77808
 C823 C 0.22529 0.13667 0.79163
 C824 C 0.21338 0.12162 0.78867
 C825 C 0.20162 0.09534 0.76895
 N826 N 0.18895 0.09037 0.78204
 N827 N 0.17756 0.07605 0.77922
 C828 C 0.17834 0.06608 0.76319
 N829 N 0.19101 0.07104 0.75010
 N830 N 0.20240 0.08536 0.75292
 C831 C 0.16563 0.05015 0.76005
 C832 C 0.16642 0.03988 0.74341
 C833 C 0.15441 0.02490 0.74048
 C834 C 0.14132 0.02000 0.75403
 C835 C 0.14059 0.03002 0.77072
 C836 C 0.15259 0.04501 0.77369
 H837 H 0.22847 0.10881 0.74558
 H838 H 0.24911 0.13503 0.75067
 H839 H 0.22424 0.14416 0.80463
 H840 H 0.20348 0.11807 0.79943
 H841 H 0.17633 0.04337 0.73264
 H842 H 0.15532 0.01715 0.72759
 H843 H 0.13088 0.02629 0.78156
 H844 H 0.15166 0.05252 0.78671
 C845 C 0.22787 0.28747 0.11125
 C846 C 0.24130 0.27414 0.11613
 C847 C 0.23839 0.26222 0.13118
 C848 C 0.22196 0.26333 0.14175
 C849 C 0.20854 0.27669 0.13686
 C850 C 0.21145 0.28860 0.12180
 C851 C 0.23096 0.30012 0.09527
 N852 N 0.21796 0.31295 0.09045
 N853 N 0.22074 0.32431 0.07612
 C854 C 0.23664 0.32334 0.06596
 N855 N 0.24965 0.31050 0.07077
 N856 N 0.24687 0.29914 0.08511
 C857 C 0.23975 0.33603 0.05002
 C858 C 0.25632 0.33512 0.03965
 C859 C 0.25925 0.34714 0.02469
 C860 C 0.24576 0.36036 0.01990
 C861 C 0.22913 0.36118 0.03000
 C862 C 0.22617 0.34918 0.04497
 H863 H 0.25413 0.27288 0.10834
 H864 H 0.24913 0.25225 0.13455
 H865 H 0.19565 0.27792 0.14452
 H866 H 0.20078 0.29869 0.11844
 H867 H 0.26706 0.32513 0.04307
 H868 H 0.27209 0.34615 0.01687
 H869 H 0.21833 0.37098 0.02636
 H870 H 0.21319 0.35020 0.05256
 C871 C 0.72781 0.78831 0.61239
 C872 C 0.70982 0.78537 0.61944
 C873 C 0.70690 0.77312 0.63422
 C874 C 0.72187 0.76337 0.64214
 C875 C 0.73983 0.76619 0.63500
 C876 C 0.74279 0.77860 0.62036
 C877 C 0.73094 0.80139 0.59680
 N878 N 0.74837 0.80721 0.59248
 N879 N 0.75121 0.81891 0.57843
 C880 C 0.73675 0.82522 0.56805
 N881 N 0.71932 0.81938 0.57236
 N882 N 0.71647 0.80776 0.58647
 C883 C 0.73999 0.83795 0.55221
 C884 C 0.72600 0.84114 0.53895
 C885 C 0.72934 0.85265 0.52368
 C886 C 0.74667 0.86127 0.52139
 C887 C 0.76045 0.85859 0.53489
 C888 C 0.75722 0.84692 0.55006
 H889 H 0.69798 0.79263 0.61363
 H890 H 0.69287 0.77114 0.63929
 H891 H 0.75168 0.75901 0.64088
 H892 H 0.75681 0.78050 0.61523
 H893 H 0.71253 0.83454 0.54022
 H894 H 0.71831 0.85485 0.51368
 H895 H 0.77379 0.86532 0.53382
 H896 H 0.76822 0.84496 0.56014
 C897 C 0.77094 0.78905 0.38694
 C898 C 0.78685 0.79069 0.37571
 C899 C 0.78963 0.77875 0.36061
 C900 C 0.77655 0.76486 0.35633
 C901 C 0.76059 0.76330 0.36753
 C902 C 0.75783 0.77523 0.38264
 C903 C 0.76807 0.80160 0.40307
 N904 N 0.75298 0.79966 0.41426
 N905 N 0.75042 0.81087 0.42880
 C906 C 0.76285 0.82452 0.43277
 N907 N 0.77794 0.82647 0.42158
 N908 N 0.78050 0.81525 0.40705
 C909 C 0.76002 0.83696 0.44900
 C910 C 0.77263 0.85140 0.45281
 C911 C 0.76995 0.86308 0.46813
 C912 C 0.75472 0.86048 0.48001
 C913 C 0.74201 0.84624 0.47614
 C914 C 0.74464 0.83456 0.46083
 H915 H 0.79726 0.80117 0.37862
 H916 H 0.80213 0.78041 0.35244
 H917 H 0.75012 0.75291 0.36469
 H918 H 0.74538 0.77358 0.39094
 H919 H 0.78455 0.85376 0.44393
 H920 H 0.77974 0.87423 0.47048
 H921 H 0.72997 0.84414 0.48488
 H922 H 0.73458 0.82366 0.45827
 C923 C 0.27203 0.28782 -0.11229
 C924 C 0.28849 0.28879 -0.12279
 C925 C 0.29139 0.27683 -0.13786
 C926 C 0.27790 0.26358 -0.14280
 C927 C 0.26142 0.26264 -0.13231
 C928 C 0.25852 0.27460 -0.11726
 C929 C 0.26895 0.30047 -0.09627
 N930 N 0.25303 0.29957 -0.08615
 N931 N 0.25027 0.31091 -0.07175
 C932 C 0.26331 0.32365 -0.06685
 N933 N 0.27923 0.32456 -0.07698
 N934 N 0.28199 0.31322 -0.09138
 C935 C 0.26021 0.33629 -0.05083
 C936 C 0.27378 0.34941 -0.04571
 C937 C 0.27082 0.36135 -0.03064
 C938 C 0.25421 0.36048 -0.02050
 C939 C 0.24074 0.34730 -0.02538
 C940 C 0.24366 0.33535 -0.04044
 H941 H 0.29921 0.29878 -0.11936
 H942 H 0.30430 0.27793 -0.14547
 H943 H 0.25062 0.25276 -0.13573
 H944 H 0.24566 0.27347 -0.10952
 H945 H 0.28673 0.35046 -0.05331
 H946 H 0.28160 0.37114 -0.02695
 H947 H 0.22791 0.34629 -0.01755
 H948 H 0.23293 0.32539 -0.04391
 C949 C 0.72699 0.21007 -0.11363
 C950 C 0.74217 0.21878 -0.12231
 C951 C 0.73934 0.23130 -0.13689
 C952 C 0.72129 0.23517 -0.14327
 C953 C 0.70612 0.22643 -0.13463
 C954 C 0.70893 0.21411 -0.11990
 C955 C 0.72996 0.19687 -0.09812
 N956 N 0.71566 0.19191 -0.08684
 N957 N 0.71836 0.18019 -0.07277
 C958 C 0.73545 0.17284 -0.06948
 N959 N 0.74973 0.17773 -0.08082
 N960 N 0.74705 0.18953 -0.09482
 C961 C 0.73855 0.16012 -0.05360
 C962 C 0.75482 0.14930 -0.05255
 C963 C 0.75806 0.13783 -0.03721
 C964 C 0.74528 0.13726 -0.02252
 C965 C 0.72884 0.14766 -0.02372
 C966 C 0.72546 0.15896 -0.03913
 H967 H 0.75626 0.21603 -0.11777
 H968 H 0.75132 0.23771 -0.14335
 H969 H 0.69203 0.22925 -0.13911
 H970 H 0.69694 0.20762 -0.11352
 H971 H 0.76507 0.14970 -0.06357
 H972 H 0.77066 0.12965 -0.03686
 H973 H 0.71873 0.14727 -0.01256
 H974 H 0.71278 0.16708 -0.03951
 C975 C 0.22740 0.71326 0.38878
 C976 C 0.21073 0.71261 0.37861
 C977 C 0.20780 0.72459 0.36362
 C978 C 0.22147 0.73755 0.35841
 C979 C 0.23813 0.73821 0.36861
 C980 C 0.24106 0.72622 0.38359
 C981 C 0.23053 0.70051 0.40467
 N982 N 0.24662 0.70112 0.41452
 N983 N 0.24944 0.68966 0.42878
 C984 C 0.23629 0.67709 0.43380
 N985 N 0.22019 0.67648 0.42395
 N986 N 0.21737 0.68794 0.40969
 C987 C 0.23944 0.66432 0.44967
 C988 C 0.22577 0.65134 0.45486
 C989 C 0.22876 0.63931 0.46981
 C990 C 0.24550 0.63995 0.47975
 C991 C 0.25907 0.65299 0.47479
 C992 C 0.25612 0.66502 0.45985
 H993 H 0.19988 0.70283 0.38222
 H994 H 0.19473 0.72374 0.35624
 H995 H 0.24906 0.74787 0.36497
 H996 H 0.25409 0.72710 0.39108
 H997 H 0.21272 0.65048 0.44742
 H998 H 0.21791 0.62964 0.47359
 H999 H 0.27199 0.65383 0.48247
 H1000 H 0.26692 0.67488 0.45631
 C1001 C 0.27214 0.71308 0.61136
 C1002 C 0.28883 0.71237 0.62150
 C1003 C 0.29179 0.72434 0.63652
 C1004 C 0.27814 0.73734 0.64179
 C1005 C 0.26145 0.73803 0.63164
 C1006 C 0.25849 0.72605 0.61663
 C1007 C 0.26900 0.70037 0.59541
 N1008 N 0.25288 0.70102 0.58560
 N1009 N 0.25005 0.68961 0.57129
 C1010 C 0.26323 0.67706 0.56615
 N1011 N 0.27935 0.67641 0.57596
 N1012 N 0.28218 0.68782 0.59028
 C1013 C 0.26007 0.66433 0.55023
 C1014 C 0.27377 0.65139 0.54491
 C1015 C 0.27078 0.63938 0.52993
 C1016 C 0.25399 0.63999 0.52008
 C1017 C 0.24038 0.65300 0.52514
 C1018 C 0.24334 0.66502 0.54012
 H1019 H 0.29968 0.70257 0.61782
 H1020 H 0.30488 0.72345 0.64386
 H1021 H 0.25053 0.74772 0.63533
 H1022 H 0.24544 0.72697 0.60917
 H1023 H 0.28687 0.65055 0.55229
 H1024 H 0.28167 0.62975 0.52607
 H1025 H 0.22742 0.65381 0.51752
 H1026 H 0.23251 0.67485 0.54375
 C1027 C 0.77081 0.20987 0.11212
 C1028 C 0.76252 0.22758 0.11254
 C1029 C 0.76507 0.23936 0.12779
 C1030 C 0.77611 0.23379 0.14289
 C1031 C 0.78441 0.21609 0.14248
 C1032 C 0.78172 0.20422 0.12731
 C1033 C 0.76814 0.19744 0.09589
 N1034 N 0.77335 0.17928 0.09659
 N1035 N 0.77089 0.16813 0.08198
 C1036 C 0.76322 0.17470 0.06604
 N1037 N 0.75806 0.19286 0.06534
 N1038 N 0.76044 0.20398 0.07996
 C1039 C 0.76039 0.16235 0.04977
 C1040 C 0.75549 0.16987 0.03242
 C1041 C 0.75254 0.15829 0.01711
 C1042 C 0.75418 0.13896 0.01890
 C1043 C 0.75931 0.13138 0.03608
 C1044 C 0.76242 0.14296 0.05140
 H1045 H 0.75400 0.23237 0.10110
 H1046 H 0.75860 0.25296 0.12757
 H1047 H 0.79287 0.21130 0.15396
 H1048 H 0.78831 0.19068 0.12744
 H1049 H 0.75398 0.18475 0.03062
 H1050 H 0.74891 0.16456 0.00396
 H1051 H 0.76079 0.11648 0.03767
 H1052 H 0.76620 0.13671 0.06455
 C1053 C 0.47855 0.36290 0.53777
 C1054 C 0.49255 0.36850 0.52536
 C1055 C 0.48943 0.38303 0.51286
 C1056 C 0.47224 0.39235 0.51250
 C1057 C 0.45825 0.38679 0.52495
 C1058 C 0.46136 0.37222 0.53742
 C1059 C 0.48180 0.34735 0.55089
 N1060 N 0.46796 0.34118 0.56216
 N1061 N 0.47081 0.32703 0.57375
 C1062 C 0.48764 0.31847 0.57460
 N1063 N 0.50150 0.32469 0.56340
 N1064 N 0.49864 0.33882 0.55179
 C1065 C 0.49068 0.30243 0.58718
 C1066 C 0.50826 0.29397 0.58847
 C1067 C 0.51096 0.27847 0.59985
 C1068 C 0.49620 0.27111 0.61024
 C1069 C 0.47864 0.27957 0.60899
 C1070 C 0.47593 0.29511 0.59767
 H1071 H 0.50597 0.36165 0.52524
 H1072 H 0.50060 0.38701 0.50361
 H1073 H 0.44479 0.39352 0.52499
 H1074 H 0.45024 0.36827 0.54676
 H1075 H 0.51993 0.29916 0.58052
 H1076 H 0.52450 0.27206 0.60006
 H1077 H 0.46681 0.27404 0.61640
 H1078 H 0.46216 0.30117 0.59693
 C1079 C -0.02193 0.86237 0.03681
 C1080 C -0.02998 0.87890 0.04349
 C1081 C -0.03300 0.89395 0.03159
 C1082 C -0.02794 0.89287 0.01275
 C1083 C -0.01997 0.87632 0.00604
 C1084 C -0.01705 0.86123 0.01791
 C1085 C -0.01858 0.84646 0.04946
 N1086 N -0.01296 0.82974 0.04267
 N1087 N -0.00996 0.81544 0.05402
 C1088 C -0.01239 0.81725 0.07266
 N1089 N -0.01796 0.83399 0.07947
 N1090 N -0.02100 0.84828 0.06811
 C1091 C -0.00922 0.80126 0.08525
 C1092 C -0.00935 0.80364 0.10466
 C1093 C -0.00662 0.78844 0.11645
 C1094 C -0.00396 0.77057 0.10911
 C1095 C -0.00351 0.76820 0.08977
 C1096 C -0.00611 0.78337 0.07795
 H1097 H -0.03397 0.88025 0.05795
 H1098 H -0.03905 0.90651 0.03728
 H1099 H -0.01606 0.87492 -0.00842
 H1100 H -0.01085 0.84870 0.01228
 H1101 H -0.01149 0.81724 0.11076
 H1102 H -0.00656 0.79066 0.13134
 H1103 H -0.00113 0.75468 0.08364
 H1104 H -0.00583 0.78103 0.06309
 C1105 C 0.02084 0.63707 0.03829
 C1106 C 0.03797 0.62765 0.03795
 C1107 C 0.04101 0.61301 0.02550
 C1108 C 0.02701 0.60749 0.01304
 C1109 C 0.00988 0.61693 0.01337
 C1110 C 0.00682 0.63151 0.02586
 C1111 C 0.01762 0.65268 0.05142
 N1112 N 0.00078 0.66120 0.05236
 N1113 N -0.00208 0.67536 0.06398
 C1114 C 0.01179 0.68162 0.07515
 N1115 N 0.02863 0.67307 0.07425
 N1116 N 0.03147 0.65889 0.06264
 C1117 C 0.00872 0.69767 0.08776
 C1118 C 0.02345 0.70503 0.09831
 C1119 C 0.02068 0.72058 0.10967
 C1120 C 0.00313 0.72900 0.11071
 C1121 C -0.01167 0.72157 0.10049
 C1122 C -0.00892 0.70606 0.08910
 H1123 H 0.04909 0.63157 0.04730
 H1124 H 0.05442 0.60619 0.02555
 H1125 H -0.00130 0.61298 0.00413
 H1126 H -0.00655 0.63844 0.02573
 H1127 H 0.03722 0.69895 0.09762
 H1128 H 0.03234 0.72614 0.11736
 H1129 H -0.02532 0.72793 0.10114
 H1130 H -0.02060 0.70076 0.08123
 C1131 C 0.52272 0.13606 0.53956
 C1132 C 0.54023 0.13267 0.53160
 C1133 C 0.54288 0.11749 0.51973
 C1134 C 0.52791 0.10585 0.51515
 C1135 C 0.51035 0.10937 0.52292
 C1136 C 0.50784 0.12419 0.53528
 C1137 C 0.51993 0.15209 0.55204
 N1138 N 0.50862 0.15075 0.56711
 N1139 N 0.50602 0.16531 0.57830
 C1140 C 0.51441 0.18182 0.57468
 N1141 N 0.52564 0.18318 0.55956
 N1142 N 0.52846 0.16855 0.54854
 C1143 C 0.51107 0.19810 0.58668
 C1144 C 0.50920 0.21585 0.57882
 C1145 C 0.50546 0.23126 0.59007
 C1146 C 0.50407 0.22924 0.60940
 C1147 C 0.50642 0.21159 0.61733
 C1148 C 0.50955 0.19606 0.60603
 H1149 H 0.55191 0.14163 0.53476
 H1150 H 0.55652 0.11508 0.51381
 H1151 H 0.49864 0.10050 0.51963
 H1152 H 0.49419 0.12661 0.54119
 H1153 H 0.51022 0.21772 0.56392
 H1154 H 0.50366 0.24466 0.58355
 H1155 H 0.50557 0.20980 0.63225
 H1156 H 0.51108 0.18251 0.61240
 C1157 C -0.02212 0.13917 0.46291
 C1158 C -0.03821 0.12819 0.46158
 C1159 C -0.04109 0.11335 0.47377
 C1160 C -0.02795 0.10911 0.48761
 C1161 C -0.01186 0.12012 0.48892
 C1162 C -0.00898 0.13496 0.47674
 C1163 C -0.01904 0.15494 0.45000
 N1164 N -0.00365 0.16577 0.45151
 N1165 N -0.00090 0.17996 0.43997
 C1166 C -0.01342 0.18395 0.42641
 N1167 N -0.02880 0.17312 0.42489
 N1168 N -0.03156 0.15892 0.43644
 C1169 C -0.01039 0.19985 0.41366
 C1170 C -0.02322 0.20383 0.39946
 C1171 C -0.02042 0.21894 0.38757
 C1172 C -0.00483 0.23042 0.38971
 C1173 C 0.00812 0.22634 0.40368
 C1174 C 0.00537 0.21125 0.41556
 H1175 H -0.04865 0.13105 0.45112
 H1176 H -0.05371 0.10532 0.47234
 H1177 H -0.00134 0.11729 0.49927
 H1178 H 0.00359 0.14310 0.47817
 H1179 H -0.03544 0.19528 0.39748
 H1180 H -0.03045 0.22146 0.37667
 H1181 H 0.02044 0.23474 0.40542
 H1182 H 0.01561 0.20854 0.42624
 C1183 C 0.47818 0.63835 0.96411
 C1184 C 0.46164 0.62798 0.96336
 C1185 C 0.45886 0.61291 0.97531
 C1186 C 0.47255 0.60785 0.98830
 C1187 C 0.48909 0.61825 0.98904
 C1188 C 0.49186 0.63329 0.97710
 C1189 C 0.48118 0.65431 0.95142
 N1190 N 0.49722 0.66424 0.95206
 N1191 N 0.49995 0.67855 0.94065
 C1192 C 0.48676 0.68355 0.92810
 N1193 N 0.47072 0.67362 0.92746
 N1194 N 0.46798 0.65931 0.93887
 C1195 C 0.48985 0.69946 0.91537
 C1196 C 0.47612 0.70470 0.90247
 C1197 C 0.47908 0.71966 0.89044
 C1198 C 0.49584 0.72954 0.89100
 C1199 C 0.50947 0.72455 0.90397
 C1200 C 0.50655 0.70960 0.91600
 H1201 H 0.45078 0.63149 0.95355
 H1202 H 0.44590 0.60537 0.97438
 H1203 H 0.50003 0.61474 0.99872
 H1204 H 0.50479 0.64093 0.97805
 H1205 H 0.46305 0.69730 0.90167
 H1206 H 0.46817 0.72347 0.88084
 H1207 H 0.52241 0.73220 0.90475
 H1208 H 0.51740 0.70603 0.92580
 C1209 C 0.52179 0.86140 0.96401
 C1210 C 0.53826 0.87187 0.96316
 C1211 C 0.54104 0.88693 0.97514
 C1212 C 0.52742 0.89190 0.98828
 C1213 C 0.51095 0.88142 0.98911
 C1214 C 0.50816 0.86637 0.97713
 C1215 C 0.51880 0.84541 0.95130
 N1216 N 0.50283 0.83538 0.95204
 N1217 N 0.50012 0.82104 0.94063
 C1218 C 0.51327 0.81608 0.92800
 N1219 N 0.52925 0.82610 0.92726
 N1220 N 0.53196 0.84046 0.93867
 C1221 C 0.51021 0.80012 0.91528
 C1222 C 0.52390 0.79489 0.90230
 C1223 C 0.52097 0.77988 0.89030
 C1224 C 0.50425 0.76991 0.89097
 C1225 C 0.49066 0.77489 0.90401
 C1226 C 0.49356 0.78989 0.91602
 H1227 H 0.54907 0.86842 0.95325
 H1228 H 0.55396 0.89455 0.97415
 H1229 H 0.50005 0.88487 0.99889
 H1230 H 0.49528 0.85866 0.97816
 H1231 H 0.53693 0.80237 0.90142
 H1232 H 0.53184 0.77608 0.88063
 H1233 H 0.47776 0.76719 0.90487
 H1234 H 0.48274 0.79345 0.92587
 C1235 C 0.02188 0.36325 0.46137
 C1236 C 0.00684 0.37120 0.47103
 C1237 C 0.00971 0.38581 0.48353
 C1238 C 0.02764 0.39294 0.48648
 C1239 C 0.04267 0.38508 0.47675
 C1240 C 0.03984 0.37030 0.46442
 C1241 C 0.01883 0.34765 0.44826
 N1242 N 0.03331 0.33711 0.44217
 N1243 N 0.03052 0.32295 0.43055
 C1244 C 0.01314 0.31880 0.42443
 N1245 N -0.00132 0.32939 0.43045
 N1246 N 0.00146 0.34349 0.44214
 C1247 C 0.00995 0.30288 0.41175
 C1248 C -0.00705 0.30100 0.40232
 C1249 C -0.01029 0.28572 0.39074
 C1250 C 0.00326 0.27183 0.38866
 C1251 C 0.02041 0.27391 0.39768
 C1252 C 0.02376 0.28929 0.40909
 H1253 H -0.00716 0.36606 0.46905
 H1254 H -0.00218 0.39166 0.49069
 H1255 H 0.05668 0.39015 0.47883
 H1256 H 0.05172 0.36450 0.45719
 H1257 H -0.01788 0.31137 0.40382
 H1258 H -0.02343 0.28490 0.38360
 H1259 H 0.03132 0.26368 0.39586
 H1260 H 0.03707 0.29038 0.41603
 C1261 C 0.36227 0.53675 0.47813
 C1262 C 0.37286 0.53796 0.46175
 C1263 C 0.38805 0.52617 0.45885
 C1264 C 0.39301 0.51283 0.47224
 C1265 C 0.38243 0.51165 0.48864
 C1266 C 0.36726 0.52347 0.49155
 C1267 C 0.34611 0.54924 0.48116
 N1268 N 0.33597 0.54828 0.49707
 N1269 N 0.32147 0.55950 0.49978
 C1270 C 0.31647 0.57216 0.48671
 N1271 N 0.32660 0.57312 0.47080
 N1272 N 0.34111 0.56190 0.46809
 C1273 C 0.30036 0.58471 0.48975
 C1274 C 0.29507 0.59762 0.47606
 C1275 C 0.27996 0.60952 0.47898
 C1276 C 0.26997 0.60882 0.49568
 C1277 C 0.27498 0.59582 0.50926
 C1278 C 0.29008 0.58390 0.50637
 H1279 H 0.36942 0.54802 0.45110
 H1280 H 0.39573 0.52743 0.44599
 H1281 H 0.38589 0.50170 0.49935
 H1282 H 0.35944 0.52217 0.50435
 H1283 H 0.30258 0.59855 0.46304
 H1284 H 0.27614 0.61916 0.46811
 H1285 H 0.26725 0.59493 0.52215
 H1286 H 0.29368 0.57409 0.51719
 C1287 C 0.86505 0.03840 -0.01918
 C1288 C 0.88073 0.04493 -0.02882
 C1289 C 0.89610 0.03337 -0.03176
 C1290 C 0.89620 0.01507 -0.02495
 C1291 C 0.88054 0.00852 -0.01531
 C1292 C 0.86510 0.02002 -0.01253
 C1293 C 0.84874 0.05065 -0.01609
 N1294 N 0.83249 0.04361 -0.00956
 N1295 N 0.81779 0.05458 -0.00690
 C1296 C 0.81873 0.07308 -0.01057
 N1297 N 0.83501 0.08014 -0.01703
 N1298 N 0.84969 0.06915 -0.01976
 C1299 C 0.80226 0.08521 -0.00787
 C1300 C 0.80386 0.10468 -0.00882
 C1301 C 0.78820 0.11601 -0.00660
 C1302 C 0.77063 0.10810 -0.00377
 C1303 C 0.76904 0.08873 -0.00241
 C1304 C 0.78469 0.07739 -0.00445
 H1305 H 0.88114 0.05899 -0.03418
 H1306 H 0.90799 0.03890 -0.03912
 H1307 H 0.88010 -0.00557 -0.01005
 H1308 H 0.85325 0.01452 -0.00507
 H1309 H 0.81722 0.11118 -0.01123
 H1310 H 0.78976 0.13097 -0.00728
 H1311 H 0.75577 0.08223 0.00027
 H1312 H 0.78295 0.06246 -0.00351
 C1313 C 0.63605 0.03782 0.02083
 C1314 C 0.63045 0.02506 0.00712
 C1315 C 0.61561 0.01294 0.01035
 C1316 C 0.60599 0.01330 0.02736
 C1317 C 0.61159 0.02608 0.04106
 C1318 C 0.62643 0.03818 0.03784
 C1319 C 0.65186 0.05061 0.01745
 N1320 N 0.65741 0.06282 0.03076
 N1321 N 0.67172 0.07418 0.02780
 C1322 C 0.68108 0.07384 0.01140
 N1323 N 0.67550 0.06166 -0.00192
 N1324 N 0.66120 0.05030 0.00104
 C1325 C 0.69723 0.08625 0.00823
 C1326 C 0.70700 0.08573 -0.00871
 C1327 C 0.72254 0.09703 -0.01147
 C1328 C 0.72869 0.10894 0.00266
 C1329 C 0.71879 0.10985 0.01941
 C1330 C 0.70322 0.09857 0.02220
 H1331 H 0.63752 0.02440 -0.00616
 H1332 H 0.61165 0.00343 -0.00060
 H1333 H 0.60467 0.02670 0.05439
 H1334 H 0.63038 0.04778 0.04874
 H1335 H 0.70274 0.07651 -0.01982
 H1336 H 0.72993 0.09630 -0.02458
 H1337 H 0.72304 0.11917 0.03041
 H1338 H 0.69597 0.09944 0.03537
 C1339 C 0.13898 0.53525 0.52320
 C1340 C 0.13380 0.52214 0.50966
 C1341 C 0.11882 0.51016 0.51273
 C1342 C 0.10863 0.51099 0.52940
 C1343 C 0.11385 0.52409 0.54295
 C1344 C 0.12884 0.53606 0.53989
 C1345 C 0.15482 0.54802 0.51991
 N1346 N 0.15989 0.56069 0.53297
 N1347 N 0.17409 0.57218 0.53000
 C1348 C 0.18384 0.57152 0.51383
 N1349 N 0.17877 0.55885 0.50077
 N1350 N 0.16458 0.54735 0.50374
 C1351 C 0.19963 0.58434 0.51052
 C1352 C 0.20966 0.58367 0.49374
 C1353 C 0.22455 0.59576 0.49067
 C1354 C 0.22960 0.60880 0.50422
 C1355 C 0.21980 0.60942 0.52105
 C1356 C 0.20491 0.59735 0.52415
 H1357 H 0.14127 0.52112 0.49663
 H1358 H 0.11518 0.50039 0.50189
 H1359 H 0.10648 0.52508 0.55602
 H1360 H 0.13245 0.54596 0.55065
 H1361 H 0.20606 0.57379 0.48296
 H1362 H 0.23213 0.59493 0.47768
 H1363 H 0.22366 0.61908 0.53190
 H1364 H 0.19759 0.59818 0.53729
 C1365 C 0.13732 0.46344 -0.02211
 C1366 C 0.12684 0.46228 -0.03856
 C1367 C 0.11165 0.47406 -0.04148
 C1368 C 0.10655 0.48733 -0.02803
 C1369 C 0.11701 0.48845 -0.01156
 C1370 C 0.13220 0.47666 -0.00864
 C1371 C 0.15348 0.45097 -0.01904
 N1372 N 0.16359 0.45200 -0.00313
 N1373 N 0.17810 0.44081 -0.00038
 C1374 C 0.18315 0.42810 -0.01344
 N1375 N 0.17304 0.42707 -0.02935
 N1376 N 0.15853 0.43826 -0.03210
 C1377 C 0.19928 0.41559 -0.01037
 C1378 C 0.20454 0.40256 -0.02401
 C1379 C 0.21967 0.39070 -0.02108
 C1380 C 0.22972 0.39154 -0.00443
 C1381 C 0.22473 0.40466 0.00909
 C1382 C 0.20961 0.41654 0.00620
 H1383 H 0.13038 0.45228 -0.04926
 H1384 H 0.10406 0.47282 -0.05439
 H1385 H 0.11347 0.49835 -0.00079
 H1386 H 0.13991 0.47793 0.00422
 H1387 H 0.19700 0.40152 -0.03699
 H1388 H 0.22346 0.38098 -0.03192
 H1389 H 0.23250 0.40566 0.02195
 H1390 H 0.20604 0.42645 0.01697
 C1391 C 0.63842 0.96316 0.47791
 C1392 C 0.63289 0.97592 0.49168
 C1393 C 0.61823 0.98828 0.48845
 C1394 C 0.60868 0.98813 0.47141
 C1395 C 0.61423 0.97539 0.45763
 C1396 C 0.62893 0.96308 0.46083
 C1397 C 0.65398 0.95005 0.48133
 N1398 N 0.66013 0.93852 0.46767
 N1399 N 0.67421 0.92686 0.47069
 C1400 C 0.68273 0.92619 0.48753
 N1401 N 0.67654 0.93767 0.50122
 N1402 N 0.66247 0.94935 0.49818
 C1403 C 0.69865 0.91348 0.49078
 C1404 C 0.70690 0.91219 0.50847
 C1405 C 0.72230 0.90069 0.51134
 C1406 C 0.72977 0.89033 0.49662
 C1407 C 0.72147 0.89132 0.47904
 C1408 C 0.70603 0.90277 0.47614
 H1409 H 0.63988 0.97638 0.50499
 H1410 H 0.61428 0.99776 0.49945
 H1411 H 0.60733 0.97499 0.44428
 H1412 H 0.63283 0.95348 0.44989
 H1413 H 0.70157 0.92018 0.52007
 H1414 H 0.72856 0.90007 0.52502
 H1415 H 0.72704 0.88353 0.46743
 H1416 H 0.70005 0.90342 0.46235
 C1417 C 0.86407 0.96311 0.52055
 C1418 C 0.88050 0.95645 0.52878
 C1419 C 0.89558 0.96833 0.53177
 C1420 C 0.89464 0.98710 0.52647
 C1421 C 0.87823 0.99376 0.51820
 C1422 C 0.86311 0.98192 0.51535
 C1423 C 0.84802 0.95057 0.51743
 N1424 N 0.83132 0.95749 0.51198
 N1425 N 0.81686 0.94626 0.50924
 C1426 C 0.81850 0.92762 0.51177
 N1427 N 0.83522 0.92068 0.51718
 N1428 N 0.84967 0.93192 0.51998
 C1429 C 0.80234 0.91518 0.50884
 C1430 C 0.80455 0.89575 0.50881
 C1431 C 0.78922 0.88410 0.50616
 C1432 C 0.77138 0.89161 0.50379
 C1433 C 0.76917 0.91098 0.50355
 C1434 C 0.78448 0.92265 0.50605
 H1435 H 0.88171 0.94205 0.53298
 H1436 H 0.90805 0.96270 0.53804
 H1437 H 0.87695 1.00817 0.51411
 H1438 H 0.85067 0.98753 0.50897
 H1439 H 0.81813 0.88952 0.51070
 H1440 H 0.79132 0.86919 0.50592
 H1441 H 0.75567 0.91723 0.50140
 H1442 H 0.78227 0.93754 0.50592
 C1443 C 0.36221 0.46359 0.02216
 C1444 C 0.37439 0.46057 0.03712
 C1445 C 0.38959 0.47231 0.04006
 C1446 C 0.39300 0.48741 0.02813
 C1447 C 0.38078 0.49042 0.01317
 C1448 C 0.36560 0.47866 0.01021
 C1449 C 0.34610 0.45111 0.01902
 N1450 N 0.33506 0.45317 0.00385
 N1451 N 0.32063 0.44192 0.00102
 C1452 C 0.31659 0.42815 0.01327
 N1453 N 0.32762 0.42609 0.02845
 N1454 N 0.34207 0.43732 0.03126
 C1455 C 0.30054 0.41560 0.01012
 C1456 C 0.29553 0.40230 0.02355
 C1457 C 0.28044 0.39044 0.02057
 C1458 C 0.27020 0.39151 0.00404
 C1459 C 0.27498 0.40485 -0.00930
 C1460 C 0.29002 0.41677 -0.00632
 H1461 H 0.37224 0.44908 0.04659
 H1462 H 0.39861 0.46943 0.05172
 H1463 H 0.38283 0.50185 0.00366
 H1464 H 0.35649 0.48144 -0.00144
 H1465 H 0.30321 0.40110 0.03643
 H1466 H 0.27683 0.38054 0.03126
 H1467 H 0.26708 0.40601 -0.02206
 H1468 H 0.29343 0.42686 -0.01694
 C1469 C 0.53803 0.47778 0.36188
 C1470 C 0.53436 0.45970 0.36828
 C1471 C 0.52240 0.45683 0.38333
 C1472 C 0.51362 0.47195 0.39207
 C1473 C 0.51716 0.49001 0.38559
 C1474 C 0.52938 0.49292 0.37075
 C1475 C 0.55078 0.48082 0.34602
 N1476 N 0.55884 0.49766 0.34323
 N1477 N 0.57035 0.50036 0.32898
 C1478 C 0.57416 0.48637 0.31685
 N1479 N 0.56605 0.46956 0.31960
 N1480 N 0.55465 0.46682 0.33393
 C1481 C 0.58685 0.48939 0.30093
 C1482 C 0.58638 0.47746 0.28547
 C1483 C 0.59823 0.48040 0.27037
 C1484 C 0.61097 0.49516 0.27050
 C1485 C 0.61170 0.50688 0.28609
 C1486 C 0.59962 0.50415 0.30108
 H1487 H 0.54086 0.44777 0.36178
 H1488 H 0.51983 0.44274 0.38793
 H1489 H 0.51070 0.50194 0.39215
 H1490 H 0.53188 0.50701 0.36610
 H1491 H 0.57673 0.46592 0.28495
 H1492 H 0.59761 0.47087 0.25879
 H1493 H 0.62161 0.51811 0.28690
 H1494 H 0.60048 0.51345 0.31290
 C1495 C 0.03673 -0.02184 0.86109
 C1496 C 0.02358 -0.00826 0.86608
 C1497 C 0.01185 -0.01092 0.88134
 C1498 C 0.01298 -0.02724 0.89204
 C1499 C 0.02607 -0.04088 0.88695
 C1500 C 0.03779 -0.03822 0.87168
 C1501 C 0.04936 -0.01889 0.84506
 N1502 N 0.06207 -0.03202 0.84017
 N1503 N 0.07351 -0.02930 0.82587
 C1504 C 0.07275 -0.01334 0.81582
 N1505 N 0.06003 -0.00022 0.82070
 N1506 N 0.04859 -0.00294 0.83500
 C1507 C 0.08556 -0.01026 0.79996
 C1508 C 0.08486 0.00637 0.78972
 C1509 C 0.09699 0.00927 0.77482
 C1510 C 0.11010 -0.00431 0.76997
 C1511 C 0.11074 -0.02100 0.77996
 C1512 C 0.09863 -0.02393 0.79487
 H1513 H 0.02234 0.00452 0.85822
 H1514 H 0.00194 -0.00010 0.88467
 H1515 H 0.02745 -0.05362 0.89478
 H1516 H 0.04775 -0.04900 0.86825
 H1517 H 0.07494 0.01718 0.79317
 H1518 H 0.09615 0.02215 0.76708
 H1519 H 0.12047 -0.03186 0.77627
 H1520 H 0.09949 -0.03695 0.80236
 C1521 C 0.03761 0.02175 0.63800
 C1522 C 0.03840 0.03840 0.62783
 C1523 C 0.02672 0.04125 0.61259
 C1524 C 0.01393 0.02752 0.60708
 C1525 C 0.01311 0.01089 0.61732
 C1526 C 0.02479 0.00804 0.63258
 C1527 C 0.05013 0.01869 0.65409
 N1528 N 0.04943 0.00262 0.66397
 N1529 N 0.06075 -0.00015 0.67836
 C1530 C 0.07326 0.01303 0.68348
 N1531 N 0.07395 0.02910 0.67361
 N1532 N 0.06263 0.03187 0.65923
 C1533 C 0.08594 0.00993 0.69944
 C1534 C 0.09892 0.02360 0.70464
 C1535 C 0.11091 0.02065 0.71963
 C1536 C 0.11023 0.00395 0.72961
 C1537 C 0.09717 -0.00961 0.72467
 C1538 C 0.08518 -0.00671 0.70967
 H1539 H 0.04808 0.04928 0.63161
 H1540 H 0.02783 0.05426 0.60517
 H1541 H 0.00351 -0.00005 0.61360
 H1542 H 0.02379 -0.00496 0.64009
 H1543 H 0.09982 0.03662 0.69716
 H1544 H 0.12058 0.03151 0.72341
 H1545 H 0.09629 -0.02249 0.73240
 H1546 H 0.07531 -0.01750 0.70614
 C1547 C 0.54027 0.52010 0.13679
 C1548 C 0.52786 0.50612 0.13108
 C1549 C 0.51546 0.50926 0.11645
 C1550 C 0.51519 0.52643 0.10715
 C1551 C 0.52762 0.54039 0.11285
 C1552 C 0.53999 0.53727 0.12749
 C1553 C 0.55332 0.51685 0.15242
 N1554 N 0.56487 0.53055 0.15836
 N1555 N 0.57644 0.52771 0.17253
 C1556 C 0.57698 0.51104 0.18135
 N1557 N 0.56547 0.49732 0.17537
 N1558 N 0.55389 0.50016 0.16121
 C1559 C 0.58958 0.50800 0.19739
 C1560 C 0.59029 0.49064 0.20632
 C1561 C 0.60168 0.48798 0.22182
 C1562 C 0.61242 0.50263 0.22887
 C1563 C 0.61229 0.51976 0.21958
 C1564 C 0.60091 0.52246 0.20406
 H1565 H 0.52769 0.49272 0.13791
 H1566 H 0.50623 0.49811 0.11238
 H1567 H 0.52773 0.55385 0.10616
 H1568 H 0.54931 0.54838 0.13153
 H1569 H 0.58201 0.47908 0.20139
 H1570 H 0.60217 0.47437 0.22814
 H1571 H 0.62087 0.53116 0.22418
 H1572 H 0.60092 0.53594 0.19739
 C1573 C 0.46273 -0.02240 0.13995
 C1574 C 0.46209 -0.03908 0.12976
 C1575 C 0.47404 -0.04198 0.11470
 C1576 C 0.48694 -0.02828 0.10944
 C1577 C 0.48757 -0.01161 0.11965
 C1578 C 0.47562 -0.00871 0.13470
 C1579 C 0.45002 -0.01931 0.15591
 N1580 N 0.45067 -0.00325 0.16585
 N1581 N 0.43925 -0.00047 0.18017
 C1582 C 0.42669 -0.01363 0.18519
 N1583 N 0.42604 -0.02969 0.17526
 N1584 N 0.43746 -0.03248 0.16093
 C1585 C 0.41393 -0.01050 0.20111
 C1586 C 0.40087 -0.02413 0.20620
 C1587 C 0.38879 -0.02114 0.22115
 C1588 C 0.38947 -0.00445 0.23118
 C1589 C 0.40261 0.00907 0.22635
 C1590 C 0.41469 0.00612 0.21141
 H1591 H 0.45236 -0.04996 0.13341
 H1592 H 0.47319 -0.05506 0.10732
 H1593 H 0.49718 -0.00065 0.11598
 H1594 H 0.47649 0.00433 0.14221
 H1595 H 0.39996 -0.03714 0.19868
 H1596 H 0.37905 -0.03195 0.22483
 H1597 H 0.40348 0.02196 0.23411
 H1598 H 0.42462 0.01688 0.20795
 C1599 C 0.96090 0.47857 0.63747
 C1600 C 0.97492 0.49153 0.63336
 C1601 C 0.98701 0.48864 0.61841
 C1602 C 0.98540 0.47271 0.60716
 C1603 C 0.97133 0.45978 0.61126
 C1604 C 0.95924 0.46268 0.62620
 C1605 C 0.94816 0.48157 0.65343
 N1606 N 0.93436 0.46926 0.65720
 N1607 N 0.92298 0.47190 0.67158
 C1608 C 0.92492 0.48696 0.68283
 N1609 N 0.93871 0.49927 0.67906
 N1610 N 0.95008 0.49664 0.66466
 C1611 C 0.91233 0.48983 0.69893
 C1612 C 0.91470 0.50516 0.71085
 C1613 C 0.90294 0.50777 0.72611
 C1614 C 0.88863 0.49509 0.72981
 C1615 C 0.88601 0.47995 0.71781
 C1616 C 0.89778 0.47729 0.70256
 H1617 H 0.97660 0.50396 0.64170
 H1618 H 0.99754 0.49900 0.61569
 H1619 H 0.96965 0.44728 0.60306
 H1620 H 0.94862 0.45238 0.62896
 H1621 H 0.92568 0.51517 0.70844
 H1622 H 0.90505 0.51974 0.73494
 H1623 H 0.87482 0.47019 0.72002
 H1624 H 0.89542 0.46543 0.69359
 C1625 C 0.96054 0.52205 0.86248
 C1626 C 0.96317 0.54000 0.86977
 C1627 C 0.97540 0.54296 0.88458
 C1628 C 0.98544 0.52807 0.89227
 C1629 C 0.98293 0.51015 0.88491
 C1630 C 0.97053 0.50715 0.87025
 C1631 C 0.94751 0.51887 0.84685
 N1632 N 0.94186 0.50141 0.84240
 N1633 N 0.93020 0.49853 0.82831
 C1634 C 0.92375 0.51298 0.81802
 N1635 N 0.92940 0.53045 0.82246
 N1636 N 0.94099 0.53334 0.83661
 C1637 C 0.91104 0.50971 0.80214
 C1638 C 0.90782 0.52371 0.78891
 C1639 C 0.89634 0.52035 0.77360
 C1640 C 0.88778 0.50299 0.77125
 C1641 C 0.89048 0.48921 0.78475
 C1642 C 0.90213 0.49246 0.79995
 H1643 H 0.95567 0.55177 0.86412
 H1644 H 0.97713 0.55695 0.88983
 H1645 H 0.99034 0.49837 0.89062
 H1646 H 0.96887 0.49316 0.86494
 H1647 H 0.91438 0.53719 0.79022
 H1648 H 0.89411 0.53138 0.76363
 H1649 H 0.88378 0.47585 0.78365
 H1650 H 0.90411 0.48146 0.81002
 C1651 C 0.46041 0.02032 0.36459
 C1652 C 0.45919 0.03656 0.37543
 C1653 C 0.47100 0.03923 0.39062
 C1654 C 0.48436 0.02575 0.39534
 C1655 C 0.48549 0.00946 0.38456
 C1656 C 0.47367 0.00678 0.36939
 C1657 C 0.44801 0.01753 0.34835
 N1658 N 0.44907 0.00175 0.33800
 N1659 N 0.43799 -0.00076 0.32339
 C1660 C 0.42536 0.01240 0.31848
 N1661 N 0.42429 0.02818 0.32882
 N1662 N 0.43537 0.03070 0.34344
 C1663 C 0.41298 0.00955 0.30223
 C1664 C 0.40006 0.02329 0.29701
 C1665 C 0.38830 0.02051 0.28179
 C1666 C 0.38914 0.00390 0.27162
 C1667 C 0.40217 -0.00971 0.27656
 C1668 C 0.41394 -0.00696 0.29176
 H1669 H 0.44914 0.04729 0.37214
 H1670 H 0.46977 0.05201 0.39848
 H1671 H 0.49544 -0.00133 0.38784
 H1672 H 0.47498 -0.00593 0.36140
 H1673 H 0.39902 0.03623 0.30465
 H1674 H 0.37865 0.03140 0.27803
 H1675 H 0.40317 -0.02253 0.26870
 H1676 H 0.42377 -0.01781 0.29530
   
