data_POSCAR
  _audit_creation_date              2014-09-24
  _audit_creation_method            'ToBaCCo'
  _symmetry_space_group_name_H-M    'P1'
  _symmetry_Int_Tables_number       1
  _symmetry_cell_setting            triclinic
  loop_
  _symmetry_equiv_pos_as_xyz
 x,y,z
_cell_length_a 95.6820
_cell_length_b 95.7365
_cell_length_c 96.1954
_cell_angle_alpha 89.966800
_cell_angle_beta 89.987000
_cell_angle_gamma 89.987800
loop_
  _atom_site_label
  _atom_site_type_symbol
  _atom_site_fract_x
  _atom_site_fract_y
  _atom_site_fract_z
N1 N 0.35628 0.31837 0.32762
 N2 N 0.35657 0.32861 0.31852
 C3 C 0.36749 0.32671 0.30988
 C4 C 0.37433 0.31456 0.31371
 C5 C 0.36689 0.30953 0.32500
 H6 H 0.37022 0.33356 0.30137
 H7 H 0.36925 0.30032 0.33107
 Cu8 Cu 0.34253 0.34331 0.31877
 Cu9 Cu 0.34265 0.31768 0.34268
 Cu10 Cu 0.31879 0.34492 0.34446
 N11 N 0.32867 0.35817 0.31951
 N12 N 0.31972 0.35898 0.32985
 C13 C 0.31137 0.37012 0.32791
 C14 C 0.31519 0.37658 0.31561
 C15 C 0.32621 0.36870 0.31056
 H16 H 0.30284 0.37304 0.33468
 H17 H 0.33198 0.37054 0.30107
 N18 N 0.31941 0.32963 0.35815
 N19 N 0.32813 0.31898 0.35718
 C20 C 0.32550 0.30998 0.36763
 C21 C 0.31467 0.31524 0.37560
 C22 C 0.31110 0.32772 0.36929
 H23 H 0.33116 0.30037 0.36944
 H24 H 0.30282 0.33473 0.37243
 H25 H 0.32701 0.32879 0.33276
 H26 H 0.33958 0.33901 0.34357
 N27 N 0.35570 0.81871 -0.17255
 N28 N 0.35664 0.82945 -0.18100
 C29 C 0.36767 0.82761 -0.18950
 C30 C 0.37395 0.81491 -0.18634
 C31 C 0.36594 0.80955 -0.17554
 H32 H 0.37073 0.83491 -0.19750
 H33 H 0.36772 0.79999 -0.16984
 Cu34 Cu 0.34324 0.84470 -0.18027
 Cu35 Cu 0.34213 0.81805 -0.15747
 Cu36 Cu 0.31906 0.84587 -0.15487
 N37 N 0.32899 0.85917 -0.17970
 N38 N 0.32012 0.86005 -0.16932
 C39 C 0.31166 0.87110 -0.17136
 C40 C 0.31522 0.87740 -0.18387
 C41 C 0.32630 0.86947 -0.18885
 H42 H 0.30312 0.87386 -0.16454
 H43 H 0.33209 0.87109 -0.19836
 N44 N 0.31948 0.83033 -0.14145
 N45 N 0.32780 0.81942 -0.14281
 C46 C 0.32506 0.81028 -0.13251
 C47 C 0.31456 0.81573 -0.12424
 C48 C 0.31130 0.82846 -0.13021
 H49 H 0.33045 0.80048 -0.13099
 H50 H 0.30332 0.83567 -0.12679
 H51 H 0.32703 0.83008 -0.16722
 H52 H 0.33971 0.83938 -0.15571
 N53 N 0.85726 0.32016 -0.17143
 N54 N 0.85609 0.32903 -0.18180
 C55 C 0.86681 0.32709 -0.19068
 C56 C 0.87497 0.31626 -0.18569
 C57 C 0.86859 0.31210 -0.17348
 H58 H 0.86836 0.33286 -0.20022
 H59 H 0.87197 0.30384 -0.16659
 Cu60 Cu 0.84035 0.34180 -0.18317
 Cu61 Cu 0.84390 0.31948 -0.15622
 Cu62 Cu 0.81658 0.34313 -0.15753
 N63 N 0.82727 0.35725 -0.18151
 N64 N 0.81843 0.35807 -0.17111
 C65 C 0.81065 0.36969 -0.17252
 C66 C 0.81465 0.37649 -0.18465
 C67 C 0.82528 0.36821 -0.19005
 H68 H 0.80227 0.37255 -0.16554
 H69 H 0.83124 0.37001 -0.19942
 N70 N 0.81860 0.32922 -0.14260
 N71 N 0.82921 0.32045 -0.14190
 C72 C 0.82763 0.31229 -0.13060
 C73 C 0.81537 0.31602 -0.12395
 C74 C 0.80993 0.32680 -0.13184
 H75 H 0.83463 0.30393 -0.12765
 H76 H 0.80036 0.33247 -0.12988
 H77 H 0.82714 0.32676 -0.16721
 H78 H 0.83784 0.34022 -0.15807
 N79 N 0.85710 0.81943 0.32895
 N80 N 0.85802 0.83017 0.32047
 C81 C 0.86902 0.82832 0.31192
 C82 C 0.87531 0.81572 0.31520
 C83 C 0.86745 0.81036 0.32605
 H84 H 0.87207 0.83545 0.30374
 H85 H 0.86922 0.80068 0.33157
 Cu86 Cu 0.84416 0.84498 0.32126
 Cu87 Cu 0.84264 0.81802 0.34326
 Cu88 Cu 0.81739 0.84417 0.34344
 N89 N 0.82965 0.85917 0.32050
 N90 N 0.81888 0.85841 0.32895
 C91 C 0.80983 0.86870 0.32587
 C92 C 0.81523 0.87650 0.31494
 C93 C 0.82790 0.87010 0.31185
 H94 H 0.80017 0.87046 0.33142
 H95 H 0.83511 0.87288 0.30366
 N96 N 0.81783 0.82884 0.35717
 N97 N 0.82720 0.81871 0.35689
 C98 C 0.82467 0.80988 0.36751
 C99 C 0.81327 0.81477 0.37490
 C100 C 0.80922 0.82681 0.36806
 H101 H 0.83088 0.80077 0.36996
 H102 H 0.80059 0.83354 0.37081
 H103 H 0.82781 0.82902 0.33230
 H104 H 0.83834 0.83906 0.34516
 N105 N 0.64308 0.68151 0.32974
 N106 N 0.64363 0.67222 0.31970
 C107 C 0.63313 0.67468 0.31068
 C108 C 0.62554 0.68603 0.31543
 C109 C 0.63215 0.69008 0.32756
 H110 H 0.63095 0.66849 0.30154
 H111 H 0.62930 0.69870 0.33424
 Cu112 Cu 0.65764 0.65747 0.31993
 Cu113 Cu 0.65663 0.68194 0.34486
 Cu114 Cu 0.68126 0.65533 0.34563
 N115 N 0.67171 0.64279 0.32017
 N116 N 0.68057 0.64175 0.33057
 C117 C 0.68887 0.63060 0.32851
 C118 C 0.68509 0.62434 0.31611
 C119 C 0.67417 0.63237 0.31108
 H120 H 0.69724 0.62745 0.33538
 H121 H 0.66836 0.63063 0.30160
 N122 N 0.68030 0.67016 0.35980
 N123 N 0.67121 0.68052 0.35927
 C124 C 0.67380 0.68941 0.36980
 C125 C 0.68500 0.68436 0.37738
 C126 C 0.68882 0.67212 0.37078
 H127 H 0.66798 0.69887 0.37184
 H128 H 0.69746 0.66539 0.37353
 H129 H 0.67267 0.67175 0.33458
 H130 H 0.66039 0.66073 0.34492
 N131 N 0.64089 0.18006 -0.16923
 N132 N 0.64155 0.17094 -0.17942
 C133 C 0.63094 0.17330 -0.18832
 C134 C 0.62317 0.18444 -0.18337
 C135 C 0.62976 0.18842 -0.17121
 H136 H 0.62902 0.16743 -0.19772
 H137 H 0.62698 0.19711 -0.16458
 Cu138 Cu 0.65645 0.15714 -0.18011
 Cu139 Cu 0.65520 0.18127 -0.15489
 Cu140 Cu 0.68282 0.15783 -0.15711
 N141 N 0.67129 0.14327 -0.18060
 N142 N 0.68196 0.14406 -0.17204
 C143 C 0.69095 0.13362 -0.17486
 C144 C 0.68553 0.12565 -0.18567
 C145 C 0.67299 0.13215 -0.18899
 H146 H 0.70044 0.13172 -0.16909
 H147 H 0.66572 0.12918 -0.19705
 N148 N 0.68158 0.17242 -0.14267
 N149 N 0.67078 0.18093 -0.14150
 C150 C 0.67268 0.18921 -0.13034
 C151 C 0.68531 0.18582 -0.12422
 C152 C 0.69068 0.17515 -0.13233
 H153 H 0.66553 0.19729 -0.12704
 H154 H 0.70038 0.16962 -0.13064
 H155 H 0.67115 0.17311 -0.16688
 H156 H 0.66151 0.16057 -0.15554
 N157 N 0.14240 0.68101 -0.17042
 N158 N 0.14269 0.67167 -0.18042
 C159 C 0.13205 0.67416 -0.18925
 C160 C 0.12464 0.68559 -0.18444
 C161 C 0.13149 0.68964 -0.17244
 H162 H 0.12974 0.66803 -0.19841
 H163 H 0.12889 0.69840 -0.16584
 Cu164 Cu 0.15690 0.65714 -0.18079
 Cu165 Cu 0.15651 0.68166 -0.15583
 Cu166 Cu 0.18193 0.65584 -0.15633
 N167 N 0.17098 0.64247 -0.18077
 N168 N 0.18094 0.64225 -0.17136
 C169 C 0.18956 0.63146 -0.17397
 C170 C 0.18467 0.62445 -0.18556
 C171 C 0.17283 0.63169 -0.18958
 H172 H 0.19862 0.62880 -0.16780
 H173 H 0.16624 0.62942 -0.19842
 N174 N 0.18114 0.67053 -0.14201
 N175 N 0.17166 0.68054 -0.14201
 C176 C 0.17421 0.68925 -0.13132
 C177 C 0.18577 0.68441 -0.12416
 C178 C 0.18986 0.67250 -0.13119
 H179 H 0.16805 0.69837 -0.12881
 H180 H 0.19872 0.66594 -0.12875
 H181 H 0.17225 0.67194 -0.16694
 H182 H 0.16085 0.66052 -0.15601
 N183 N 0.14212 0.18053 0.32973
 N184 N 0.14214 0.17094 0.31996
 C185 C 0.13150 0.17346 0.31113
 C186 C 0.12436 0.18515 0.31573
 C187 C 0.13137 0.18934 0.32758
 H188 H 0.12901 0.16718 0.30213
 H189 H 0.12899 0.19830 0.33400
 Cu190 Cu 0.15594 0.15601 0.31980
 Cu191 Cu 0.15633 0.18123 0.34417
 Cu192 Cu 0.18175 0.15547 0.34358
 N193 N 0.17046 0.14177 0.31951
 N194 N 0.18068 0.14182 0.32864
 C195 C 0.18948 0.13123 0.32583
 C196 C 0.18446 0.12406 0.31439
 C197 C 0.17234 0.13102 0.31067
 H198 H 0.19876 0.12880 0.33177
 H199 H 0.16557 0.12857 0.30202
 N200 N 0.18107 0.17019 0.35787
 N201 N 0.17157 0.18019 0.35789
 C202 C 0.17417 0.18892 0.36856
 C203 C 0.18576 0.18410 0.37567
 C204 C 0.18984 0.17219 0.36864
 H205 H 0.16800 0.19803 0.37109
 H206 H 0.19871 0.16563 0.37106
 H207 H 0.17167 0.17120 0.33276
 H208 H 0.16067 0.16008 0.34439
 N209 N 0.64297 0.31901 0.67084
 N210 N 0.64348 0.32830 0.68089
 C211 C 0.63292 0.32587 0.68984
 C212 C 0.62532 0.31454 0.68505
 C213 C 0.63200 0.31047 0.67296
 H214 H 0.63069 0.33206 0.69897
 H215 H 0.62917 0.30186 0.66626
 Cu216 Cu 0.65755 0.34300 0.68071
 Cu217 Cu 0.65658 0.31854 0.65577
 Cu218 Cu 0.68129 0.34506 0.65511
 N219 N 0.67167 0.35765 0.68053
 N220 N 0.68057 0.35864 0.67016
 C221 C 0.68889 0.36978 0.67223
 C222 C 0.68508 0.37607 0.68460
 C223 C 0.67412 0.36807 0.68961
 H224 H 0.69730 0.37288 0.66538
 H225 H 0.66827 0.36986 0.69906
 N226 N 0.68035 0.33024 0.64092
 N227 N 0.67123 0.31991 0.64142
 C228 C 0.67383 0.31102 0.63088
 C229 C 0.68506 0.31605 0.62334
 C230 C 0.68889 0.32827 0.62996
 H231 H 0.66798 0.30159 0.62881
 H232 H 0.69756 0.33498 0.62724
 H233 H 0.67260 0.32868 0.66611
 H234 H 0.66040 0.33974 0.65573
 N235 N 0.64269 0.81907 1.17007
 N236 N 0.64299 0.82839 1.18009
 C237 C 0.63233 0.82594 1.18890
 C238 C 0.62488 0.81455 1.18405
 C239 C 0.63173 0.81049 1.17206
 H240 H 0.63003 0.83205 1.19807
 H241 H 0.62911 0.80175 1.16543
 Cu242 Cu 0.65725 0.84287 1.18055
 Cu243 Cu 0.65682 0.81840 1.15552
 Cu244 Cu 0.68229 0.84416 1.15607
 N245 N 0.67133 0.85751 1.18051
 N246 N 0.68130 0.85774 1.17110
 C247 C 0.68992 0.86852 1.17373
 C248 C 0.68503 0.87552 1.18533
 C249 C 0.67317 0.86828 1.18933
 H250 H 0.69900 0.87118 1.16757
 H251 H 0.66658 0.87054 1.19817
 N252 N 0.68151 0.82948 1.14172
 N253 N 0.67200 0.81949 1.14172
 C254 C 0.67456 0.81078 1.13103
 C255 C 0.68614 0.81558 1.12389
 C256 C 0.69025 0.82748 1.13092
 H257 H 0.66838 0.80166 1.12852
 H258 H 0.69914 0.83401 1.12850
 H259 H 0.67256 0.82807 1.16663
 H260 H 0.66120 0.83954 1.15574
 N261 N 0.14194 0.31941 1.16977
 N262 N 0.14336 0.32782 1.18046
 C263 C 0.13289 0.32541 1.18952
 C264 C 0.12445 0.31496 1.18418
 C265 C 0.13051 0.31143 1.17161
 H266 H 0.13144 0.33092 1.19922
 H267 H 0.12708 0.30339 1.16450
 Cu268 Cu 0.15859 0.34128 1.18157
 Cu269 Cu 0.15548 0.31872 1.15474
 Cu270 Cu 0.18195 0.34325 1.15532
 N271 N 0.17270 0.35592 1.18072
 N272 N 0.18155 0.35684 1.17031
 C273 C 0.18976 0.36809 1.17215
 C274 C 0.18594 0.37456 1.18444
 C275 C 0.17508 0.36652 1.18961
 H276 H 0.19803 0.37124 1.16516
 H277 H 0.16918 0.36844 1.19901
 N278 N 0.18060 0.32866 1.14098
 N279 N 0.17024 0.31957 1.14051
 C280 C 0.17218 0.31102 1.12956
 C281 C 0.18442 0.31482 1.12291
 C282 C 0.18948 0.32604 1.13044
 H283 H 0.16545 0.30237 1.12687
 H284 H 0.19893 0.33186 1.12836
 H285 H 0.17224 0.32687 1.16562
 H286 H 0.16065 0.33963 1.15640
 N287 N 0.14319 0.81901 0.67001
 N288 N 0.14478 0.82713 0.68091
 C289 C 0.13420 0.82483 0.68986
 C290 C 0.12550 0.81475 0.68424
 C291 C 0.13153 0.81132 0.67161
 H292 H 0.13287 0.83020 0.69966
 H293 H 0.12791 0.80357 0.66429
 Cu294 Cu 0.16034 0.84010 0.68238
 Cu295 Cu 0.15674 0.81844 0.65494
 Cu296 Cu 0.18329 0.84289 0.65610
 N297 N 0.17273 0.85613 0.68063
 N298 N 0.18137 0.85739 0.67009
 C299 C 0.18884 0.86920 0.67157
 C300 C 0.18473 0.87567 0.68377
 C301 C 0.17447 0.86707 0.68925
 H302 H 0.19704 0.87252 0.66458
 H303 H 0.16874 0.86860 0.69882
 N304 N 0.18153 0.82911 0.64105
 N305 N 0.17158 0.81957 0.64077
 C306 C 0.17370 0.81111 0.62979
 C307 C 0.18546 0.81565 0.62275
 C308 C 0.19011 0.82713 0.63013
 H309 H 0.16722 0.80226 0.62713
 H310 H 0.19933 0.83328 0.62795
 H311 H 0.17357 0.82593 0.66573
 H312 H 0.16216 0.83926 0.65720
 N313 N 0.35713 0.68089 0.67179
 N314 N 0.35838 0.66994 0.67993
 C315 C 0.36932 0.67186 0.68852
 C316 C 0.37523 0.68474 0.68565
 C317 C 0.36719 0.69019 0.67497
 H318 H 0.37265 0.66449 0.69637
 H319 H 0.36874 0.70004 0.66968
 Cu320 Cu 0.34572 0.65411 0.67865
 Cu321 Cu 0.34305 0.68193 0.65721
 Cu322 Cu 0.31843 0.65553 0.65652
 N323 N 0.33041 0.64079 0.67959
 N324 N 0.31969 0.64151 0.67108
 C325 C 0.31058 0.63128 0.67421
 C326 C 0.31589 0.62367 0.68525
 C327 C 0.32852 0.62999 0.68838
 H328 H 0.30088 0.62942 0.66875
 H329 H 0.33567 0.62710 0.69659
 N330 N 0.31892 0.67069 0.64271
 N331 N 0.32805 0.68100 0.64321
 C332 C 0.32552 0.68985 0.63260
 C333 C 0.31434 0.68478 0.62500
 C334 C 0.31044 0.67261 0.63170
 H335 H 0.33155 0.69913 0.63037
 H336 H 0.30195 0.66574 0.62883
 H337 H 0.32892 0.67016 0.66846
 H338 H 0.33944 0.66076 0.65497
 N339 N 0.35819 0.17967 1.17116
 N340 N 0.35860 0.16926 1.18005
 C341 C 0.36925 0.17131 1.18897
 C342 C 0.37579 0.18374 1.18553
 C343 C 0.36847 0.18877 1.17417
 H344 H 0.37198 0.16434 1.19739
 H345 H 0.37066 0.19816 1.16831
 Cu346 Cu 0.34527 0.15394 1.17919
 Cu347 Cu 0.34514 0.17990 1.15568
 Cu348 Cu 0.31646 0.15830 1.15935
 N349 N 0.32979 0.14078 1.17962
 N350 N 0.31848 0.14264 1.17209
 C351 C 0.30927 0.13242 1.17497
 C352 C 0.31513 0.12362 1.18481
 C353 C 0.32818 0.12926 1.18749
 H354 H 0.29909 0.13143 1.17018
 H355 H 0.33578 0.12548 1.19491
 N356 N 0.31804 0.17241 1.14448
 N357 N 0.32908 0.18053 1.14299
 C358 C 0.32737 0.18856 1.13162
 C359 C 0.31462 0.18534 1.12563
 C360 C 0.30898 0.17508 1.13409
 H361 H 0.33485 0.19619 1.12798
 H362 H 0.29920 0.16965 1.13256
 H363 H 0.33057 0.17194 1.16884
 H364 H 0.33748 0.15933 1.15566
 N365 N 0.85620 0.68132 1.17231
 N366 N 0.85615 0.67141 1.18177
 C367 C 0.86706 0.67332 1.19040
 C368 C 0.87424 0.68514 1.18621
 C369 C 0.86702 0.68997 1.17471
 H370 H 0.86955 0.66670 1.19917
 H371 H 0.86963 0.69894 1.16839
 Cu372 Cu 0.84184 0.65696 1.18202
 Cu373 Cu 0.84262 0.68201 1.15727
 Cu374 Cu 0.81722 0.65633 1.15715
 N375 N 0.82805 0.64203 1.18095
 N376 N 0.81879 0.64153 1.17087
 C377 C 0.81061 0.63024 1.17261
 C378 C 0.81487 0.62334 1.18452
 C379 C 0.82597 0.63111 1.18954
 H380 H 0.80187 0.62753 1.16602
 H381 H 0.83205 0.62897 1.19877
 N382 N 0.81850 0.67076 1.14265
 N383 N 0.82793 0.68081 1.14294
 C384 C 0.82575 0.68942 1.13208
 C385 C 0.81449 0.68447 1.12453
 C386 C 0.81020 0.67259 1.13150
 H387 H 0.83196 0.69855 1.12973
 H388 H 0.80146 0.66597 1.12881
 H389 H 0.82703 0.67239 1.16810
 H390 H 0.83838 0.66084 1.15726
 N391 N 0.85726 0.18112 0.67205
 N392 N 0.85797 0.17060 0.68082
 C393 C 0.86897 0.17250 0.68934
 C394 C 0.87546 0.18492 0.68577
 C395 C 0.86772 0.19011 0.67476
 H396 H 0.87191 0.16555 0.69769
 H397 H 0.86967 0.19962 0.66901
 Cu398 Cu 0.84395 0.15591 0.68046
 Cu399 Cu 0.84304 0.18220 0.65752
 Cu400 Cu 0.81816 0.15575 0.65700
 N401 N 0.82976 0.14139 0.68064
 N402 N 0.81947 0.14163 0.67158
 C403 C 0.81064 0.13104 0.67431
 C404 C 0.81569 0.12371 0.68565
 C405 C 0.82788 0.13054 0.68937
 H406 H 0.80125 0.12882 0.66846
 H407 H 0.83461 0.12802 0.69804
 N408 N 0.81866 0.17100 0.64320
 N409 N 0.82787 0.18127 0.64362
 C410 C 0.82533 0.19010 0.63300
 C411 C 0.81408 0.18508 0.62546
 C412 C 0.81015 0.17295 0.63222
 H413 H 0.83140 0.19933 0.63069
 H414 H 0.80161 0.16612 0.62939
 H415 H 0.82786 0.17134 0.66823
 H416 H 0.83911 0.16105 0.65615
 N417 N 0.31891 0.35785 0.66981
 N418 N 0.32852 0.35784 0.67957
 C419 C 0.32600 0.36845 0.68841
 C420 C 0.31429 0.37558 0.68384
 C421 C 0.31009 0.36859 0.67198
 H422 H 0.33229 0.37094 0.69741
 H423 H 0.30111 0.37097 0.66557
 Cu424 Cu 0.34348 0.34407 0.67973
 Cu425 Cu 0.31822 0.34366 0.65536
 Cu426 Cu 0.34403 0.31829 0.65595
 N427 N 0.35772 0.32957 0.68002
 N428 N 0.35768 0.31935 0.67090
 C429 C 0.36828 0.31056 0.67372
 C430 C 0.37543 0.31559 0.68516
 C431 C 0.36847 0.32769 0.68887
 H432 H 0.37071 0.30128 0.66779
 H433 H 0.37091 0.33446 0.69753
 N434 N 0.32930 0.31897 0.64166
 N435 N 0.31929 0.32845 0.64163
 C436 C 0.31056 0.32585 0.63095
 C437 C 0.31540 0.31427 0.62384
 C438 C 0.32733 0.31021 0.63088
 H439 H 0.30144 0.33200 0.62841
 H440 H 0.33390 0.30135 0.62846
 H441 H 0.32828 0.32834 0.66677
 H442 H 0.33939 0.33935 0.65514
 N443 N 0.31952 0.85772 0.16991
 N444 N 0.32912 0.85770 0.17967
 C445 C 0.32660 0.86831 0.18852
 C446 C 0.31489 0.87545 0.18394
 C447 C 0.31069 0.86845 0.17207
 H448 H 0.33287 0.87079 0.19753
 H449 H 0.30172 0.87083 0.16567
 Cu450 Cu 0.34408 0.84392 0.17984
 Cu451 Cu 0.31882 0.84353 0.15546
 Cu452 Cu 0.34460 0.81813 0.15605
 N453 N 0.35831 0.82940 0.18012
 N454 N 0.35826 0.81919 0.17100
 C455 C 0.36884 0.81037 0.17383
 C456 C 0.37599 0.81538 0.18529
 C457 C 0.36905 0.82750 0.18898
 H458 H 0.37125 0.80109 0.16790
 H459 H 0.37149 0.83426 0.19765
 N460 N 0.32988 0.81882 0.14175
 N461 N 0.31987 0.82831 0.14173
 C462 C 0.31114 0.82572 0.13106
 C463 C 0.31596 0.81414 0.12394
 C464 C 0.32788 0.81007 0.13098
 H465 H 0.30202 0.83189 0.12852
 H466 H 0.33444 0.80120 0.12856
 H467 H 0.32887 0.82820 0.16687
 H468 H 0.33998 0.83920 0.15524
 N469 N 0.81961 0.35829 0.17098
 N470 N 0.83040 0.35908 0.17938
 C471 C 0.82850 0.36984 0.18821
 C472 C 0.81578 0.37605 0.18522
 C473 C 0.81043 0.36842 0.17422
 H474 H 0.83572 0.37276 0.19635
 H475 H 0.80067 0.37022 0.16886
 Cu476 Cu 0.84582 0.34590 0.17824
 Cu477 Cu 0.81833 0.34429 0.15641
 Cu478 Cu 0.84304 0.31798 0.15701
 N479 N 0.85846 0.33006 0.17961
 N480 N 0.85717 0.31906 0.17154
 C481 C 0.86722 0.30976 0.17475
 C482 C 0.87530 0.31525 0.18537
 C483 C 0.86941 0.32816 0.18819
 H484 H 0.86875 0.29989 0.16951
 H485 H 0.87278 0.33558 0.19597
 N486 N 0.82798 0.31887 0.14305
 N487 N 0.81881 0.32916 0.14259
 C488 C 0.81030 0.32723 0.13162
 C489 C 0.81421 0.31507 0.12491
 C490 C 0.82544 0.31003 0.13246
 H491 H 0.80177 0.33407 0.12879
 H492 H 0.83149 0.30077 0.13021
 H493 H 0.82898 0.32975 0.16833
 H494 H 0.83934 0.33912 0.15467
 N495 N 0.81930 0.85871 0.67050
 N496 N 0.82892 0.85871 0.68025
 C497 C 0.82638 0.86930 0.68911
 C498 C 0.81464 0.87639 0.68457
 C499 C 0.81044 0.86940 0.67270
 H500 H 0.83267 0.87177 0.69811
 H501 H 0.80144 0.87175 0.66633
 Cu502 Cu 0.84393 0.84497 0.68037
 Cu503 Cu 0.81861 0.84452 0.65605
 Cu504 Cu 0.84441 0.81916 0.65660
 N505 N 0.85815 0.83044 0.68064
 N506 N 0.85807 0.82022 0.67152
 C507 C 0.86864 0.81139 0.67434
 C508 C 0.87582 0.81639 0.68578
 C509 C 0.86890 0.82853 0.68949
 H510 H 0.87103 0.80210 0.66841
 H511 H 0.87137 0.83528 0.69815
 N512 N 0.82968 0.81985 0.64232
 N513 N 0.81966 0.82932 0.64231
 C514 C 0.81093 0.82672 0.63164
 C515 C 0.81577 0.81516 0.62452
 C516 C 0.82770 0.81109 0.63154
 H517 H 0.80180 0.83288 0.62911
 H518 H 0.83428 0.80224 0.62911
 H519 H 0.82870 0.82922 0.66747
 H520 H 0.83978 0.84023 0.65579
 N521 N 0.68113 0.64388 0.67221
 N522 N 0.67062 0.64331 0.68099
 C523 C 0.67251 0.63241 0.68964
 C524 C 0.68491 0.62584 0.68615
 C525 C 0.69012 0.63344 0.67505
 H526 H 0.66546 0.62950 0.69794
 H527 H 0.69955 0.63130 0.66925
 Cu528 Cu 0.65555 0.65694 0.68038
 Cu529 Cu 0.68197 0.65758 0.65725
 Cu530 Cu 0.65482 0.68148 0.65533
 N531 N 0.64114 0.67128 0.67988
 N532 N 0.64063 0.68052 0.66979
 C533 C 0.62968 0.68909 0.67188
 C534 C 0.62304 0.68511 0.68403
 C535 C 0.63062 0.67378 0.68885
 H536 H 0.62701 0.69785 0.66530
 H537 H 0.62858 0.66780 0.69817
 N538 N 0.67022 0.68089 0.64177
 N539 N 0.68084 0.67216 0.64279
 C540 C 0.68993 0.67479 0.63241
 C541 C 0.68472 0.68563 0.62442
 C542 C 0.67221 0.68922 0.63065
 H543 H 0.69953 0.66910 0.63064
 H544 H 0.66521 0.69749 0.62748
 H545 H 0.67054 0.67285 0.66736
 H546 H 0.66068 0.66066 0.65580
 N547 N 0.68018 0.14202 0.16987
 N548 N 0.67178 0.14342 0.18060
 C549 C 0.67425 0.13297 0.18965
 C550 C 0.68470 0.12455 0.18427
 C551 C 0.68818 0.13061 0.17169
 H552 H 0.66877 0.13151 0.19938
 H553 H 0.69623 0.12720 0.16456
 Cu554 Cu 0.65833 0.15865 0.18177
 Cu555 Cu 0.68083 0.15558 0.15487
 Cu556 Cu 0.65632 0.18207 0.15557
 N557 N 0.64369 0.17279 0.18100
 N558 N 0.64277 0.18166 0.17061
 C559 C 0.63154 0.18991 0.17252
 C560 C 0.62511 0.18608 0.18483
 C561 C 0.63312 0.17518 0.18994
 H562 H 0.62839 0.19821 0.16557
 H563 H 0.63124 0.16928 0.19934
 N564 N 0.67088 0.18071 0.14119
 N565 N 0.67995 0.17035 0.14067
 C566 C 0.68848 0.17228 0.12970
 C567 C 0.68468 0.18452 0.12307
 C568 C 0.67349 0.18959 0.13064
 H569 H 0.69712 0.16553 0.12697
 H570 H 0.66767 0.19905 0.12858
 H571 H 0.67271 0.17232 0.16581
 H572 H 0.65991 0.16077 0.15660
 N573 N 0.18095 0.64342 0.17145
 N574 N 0.17043 0.64283 0.18022
 C575 C 0.17232 0.63193 0.18888
 C576 C 0.18474 0.62539 0.18540
 C577 C 0.18995 0.63300 0.17431
 H578 H 0.16527 0.62902 0.19717
 H579 H 0.19940 0.63088 0.16852
 Cu580 Cu 0.15534 0.65644 0.17961
 Cu581 Cu 0.18179 0.65712 0.15651
 Cu582 Cu 0.15464 0.68102 0.15459
 N583 N 0.14096 0.67079 0.17912
 N584 N 0.14045 0.68004 0.16903
 C585 C 0.12952 0.68862 0.17114
 C586 C 0.12289 0.68463 0.18329
 C587 C 0.13044 0.67329 0.18809
 H588 H 0.12686 0.69740 0.16458
 H589 H 0.12840 0.66731 0.19741
 N590 N 0.17004 0.68044 0.14105
 N591 N 0.18066 0.67170 0.14207
 C592 C 0.18976 0.67434 0.13170
 C593 C 0.18456 0.68520 0.12372
 C594 C 0.17204 0.68878 0.12995
 H595 H 0.19936 0.66866 0.12993
 H596 H 0.16505 0.69706 0.12678
 H597 H 0.17034 0.67237 0.16664
 H598 H 0.16050 0.66019 0.15505
 N599 N 0.18096 0.14359 0.67160
 N600 N 0.17046 0.14300 0.68039
 C601 C 0.17239 0.13211 0.68905
 C602 C 0.18480 0.12559 0.68555
 C603 C 0.18998 0.13319 0.67445
 H604 H 0.16536 0.12920 0.69736
 H605 H 0.19942 0.13107 0.66864
 Cu606 Cu 0.15537 0.15660 0.67981
 Cu607 Cu 0.18175 0.15727 0.65663
 Cu608 Cu 0.15460 0.18117 0.65477
 N609 N 0.14100 0.17096 0.67936
 N610 N 0.14047 0.18021 0.66927
 C611 C 0.12955 0.18880 0.67142
 C612 C 0.12296 0.18482 0.68359
 C613 C 0.13052 0.17347 0.68837
 H614 H 0.12687 0.19758 0.66486
 H615 H 0.12851 0.16750 0.69769
 N616 N 0.16996 0.18056 0.64117
 N617 N 0.18058 0.17183 0.64218
 C618 C 0.18964 0.17444 0.63177
 C619 C 0.18443 0.18528 0.62379
 C620 C 0.17192 0.18887 0.63004
 H621 H 0.19924 0.16875 0.62999
 H622 H 0.16493 0.19715 0.62688
 H623 H 0.17033 0.17253 0.66679
 H624 H 0.16046 0.16034 0.65523
 N625 N 0.31896 0.64230 0.32793
 N626 N 0.32948 0.64158 0.31916
 C627 C 0.32758 0.63056 0.31067
 C628 C 0.31517 0.62408 0.31425
 C629 C 0.30996 0.63183 0.32524
 H630 H 0.33455 0.62761 0.30232
 H631 H 0.30046 0.62988 0.33099
 Cu632 Cu 0.34419 0.65557 0.31946
 Cu633 Cu 0.31788 0.65650 0.34244
 Cu634 Cu 0.34444 0.68121 0.34310
 N635 N 0.35883 0.66966 0.31948
 N636 N 0.35861 0.67988 0.32860
 C637 C 0.36928 0.68865 0.32598
 C638 C 0.37663 0.68362 0.31465
 C639 C 0.36973 0.67153 0.31082
 H640 H 0.37153 0.69798 0.33190
 H641 H 0.37225 0.66484 0.30212
 N642 N 0.32915 0.68077 0.35683
 N643 N 0.31881 0.67164 0.35634
 C644 C 0.30995 0.67422 0.36693
 C645 C 0.31502 0.68540 0.37450
 C646 C 0.32721 0.68927 0.36781
 H647 H 0.30067 0.66820 0.36919
 H648 H 0.33408 0.69775 0.37068
 H649 H 0.32883 0.67164 0.33179
 H650 H 0.33907 0.66028 0.34379
 N651 N 0.31965 0.14156 0.82852
 N652 N 0.33035 0.14086 0.81999
 C653 C 0.32846 0.13008 0.81119
 C654 C 0.31583 0.12375 0.81433
 C655 C 0.31053 0.13133 0.82538
 H656 H 0.33560 0.12722 0.80296
 H657 H 0.30084 0.12945 0.83085
 Cu658 Cu 0.34567 0.15418 0.82093
 Cu659 Cu 0.31840 0.15553 0.84311
 Cu660 Cu 0.34307 0.18188 0.84248
 N661 N 0.35839 0.16997 0.81973
 N662 N 0.35716 0.18089 0.82791
 C663 C 0.36725 0.19017 0.82478
 C664 C 0.37530 0.18476 0.81409
 C665 C 0.36935 0.17191 0.81116
 H666 H 0.36882 0.19999 0.83011
 H667 H 0.37268 0.16457 0.80329
 N668 N 0.32805 0.18094 0.85648
 N669 N 0.31891 0.17064 0.85696
 C670 C 0.31043 0.17253 0.86798
 C671 C 0.31435 0.18468 0.87471
 C672 C 0.32554 0.18975 0.86711
 H673 H 0.30194 0.16567 0.87083
 H674 H 0.33159 0.19901 0.86937
 H675 H 0.32889 0.17019 0.83120
 H676 H 0.33942 0.16071 0.84465
 N677 N 0.81938 0.64299 0.82846
 N678 N 0.82992 0.64221 0.81973
 C679 C 0.82800 0.63117 0.81127
 C680 C 0.81554 0.62475 0.81484
 C681 C 0.81035 0.63255 0.82579
 H682 H 0.83496 0.62818 0.80293
 H683 H 0.80081 0.63066 0.83152
 Cu684 Cu 0.84463 0.65623 0.81976
 Cu685 Cu 0.81829 0.65724 0.84288
 Cu686 Cu 0.84476 0.68195 0.84351
 N687 N 0.85923 0.67036 0.81999
 N688 N 0.85897 0.68062 0.82907
 C689 C 0.86959 0.68943 0.82642
 C690 C 0.87697 0.68440 0.81510
 C691 C 0.87013 0.67225 0.81132
 H692 H 0.87179 0.69881 0.83228
 H693 H 0.87266 0.66556 0.80263
 N694 N 0.82946 0.68154 0.85722
 N695 N 0.81915 0.67240 0.85672
 C696 C 0.81025 0.67497 0.86727
 C697 C 0.81527 0.68618 0.87484
 C698 C 0.82747 0.69006 0.86818
 H699 H 0.80097 0.66893 0.86952
 H700 H 0.83432 0.69856 0.87105
 H701 H 0.82925 0.67232 0.83207
 H702 H 0.83952 0.66097 0.84409
 N703 N 0.81954 0.14181 0.33003
 N704 N 0.82895 0.14205 0.32007
 C705 C 0.82649 0.13140 0.31127
 C706 C 0.81500 0.12403 0.31604
 C707 C 0.81089 0.13091 0.32800
 H708 H 0.83263 0.12907 0.30212
 H709 H 0.80206 0.12837 0.33455
 Cu710 Cu 0.84343 0.15628 0.31966
 Cu711 Cu 0.81877 0.15600 0.34451
 Cu712 Cu 0.84453 0.18150 0.34388
 N713 N 0.85805 0.17039 0.31958
 N714 N 0.85818 0.18044 0.32890
 C715 C 0.86889 0.18912 0.32620
 C716 C 0.87595 0.18420 0.31464
 C717 C 0.86881 0.17226 0.31074
 H718 H 0.87145 0.19828 0.33226
 H719 H 0.87113 0.16564 0.30194
 N720 N 0.82979 0.18076 0.35818
 N721 N 0.81980 0.17125 0.35822
 C722 C 0.81106 0.17384 0.36889
 C723 C 0.81586 0.18544 0.37598
 C724 C 0.82777 0.18953 0.36894
 H725 H 0.80196 0.16767 0.37144
 H726 H 0.83431 0.19841 0.37134
 H727 H 0.82851 0.17166 0.33331
 H728 H 0.83991 0.16042 0.34439
 N729 N 0.68159 0.35614 0.32852
 N730 N 0.67133 0.35642 0.31944
 C731 C 0.67317 0.36736 0.31083
 C732 C 0.68531 0.37422 0.31464
 C733 C 0.69040 0.36678 0.32589
 H734 H 0.66628 0.37010 0.30235
 H735 H 0.69961 0.36916 0.33194
 Cu736 Cu 0.65666 0.34239 0.31969
 Cu737 Cu 0.68232 0.34250 0.34356
 Cu738 Cu 0.65508 0.31866 0.34540
 N739 N 0.64181 0.32855 0.32048
 N740 N 0.64100 0.31962 0.33083
 C741 C 0.62983 0.31129 0.32890
 C742 C 0.62338 0.31512 0.31660
 C743 C 0.63127 0.32612 0.31154
 H744 H 0.62691 0.30277 0.33568
 H745 H 0.62943 0.33189 0.30205
 N746 N 0.67041 0.31927 0.35905
 N747 N 0.68105 0.32798 0.35806
 C748 C 0.69009 0.32534 0.36847
 C749 C 0.68484 0.31451 0.37644
 C750 C 0.67233 0.31095 0.37017
 H751 H 0.69971 0.33098 0.37025
 H752 H 0.66533 0.30268 0.37332
 H753 H 0.67121 0.32688 0.33367
 H754 H 0.66099 0.33945 0.34448
 N755 N 0.68056 0.85724 0.82973
 N756 N 0.67227 0.85585 0.81892
 C757 C 0.67462 0.86644 0.81001
 C758 C 0.68490 0.87496 0.81556
 C759 C 0.68839 0.86880 0.82811
 H760 H 0.66916 0.86792 0.80028
 H761 H 0.69629 0.87226 0.83535
 Cu762 Cu 0.65910 0.84043 0.81749
 Cu763 Cu 0.68116 0.84361 0.84470
 Cu764 Cu 0.65664 0.81713 0.84351
 N765 N 0.64321 0.82783 0.81914
 N766 N 0.64208 0.81904 0.82958
 C767 C 0.63038 0.81142 0.82801
 C768 C 0.62384 0.81556 0.81586
 C769 C 0.63228 0.82603 0.81050
 H770 H 0.62719 0.80308 0.83490
 H771 H 0.63065 0.83183 0.80099
 N772 N 0.67049 0.81879 0.85851
 N773 N 0.68006 0.82871 0.85879
 C774 C 0.68854 0.82656 0.86975
 C775 C 0.68398 0.81482 0.87680
 C776 C 0.67247 0.81020 0.86943
 H777 H 0.69740 0.83302 0.87243
 H778 H 0.66629 0.80101 0.87162
 H779 H 0.67347 0.82696 0.83378
 H780 H 0.66028 0.83827 0.84263
 N781 N 0.18045 0.35805 0.83047
 N782 N 0.17154 0.35704 0.82012
 C783 C 0.17398 0.36746 0.81101
 C784 C 0.18495 0.37546 0.81599
 C785 C 0.18876 0.36918 0.82837
 H786 H 0.16814 0.36922 0.80156
 H787 H 0.19718 0.37229 0.83520
 Cu788 Cu 0.15743 0.34240 0.81996
 Cu789 Cu 0.18118 0.34446 0.84554
 Cu790 Cu 0.15648 0.31793 0.84490
 N791 N 0.14339 0.32770 0.81979
 N792 N 0.14286 0.31840 0.82985
 C793 C 0.13190 0.30987 0.82772
 C794 C 0.12523 0.31396 0.81562
 C795 C 0.13283 0.32529 0.81083
 H796 H 0.12906 0.30125 0.83441
 H797 H 0.13061 0.33148 0.80170
 N798 N 0.17113 0.31930 0.85925
 N799 N 0.18026 0.32963 0.85973
 C800 C 0.18882 0.32764 0.87067
 C801 C 0.18500 0.31541 0.87729
 C802 C 0.17376 0.31039 0.86977
 H803 H 0.19749 0.33434 0.87337
 H804 H 0.16793 0.30095 0.87185
 H805 H 0.17250 0.32807 0.83455
 H806 H 0.16029 0.33913 0.84493
 N807 N 0.18113 0.85668 0.32925
 N808 N 0.17181 0.85618 0.31921
 C809 C 0.17425 0.86673 0.31025
 C810 C 0.18561 0.87430 0.31501
 C811 C 0.18969 0.86761 0.32710
 H812 H 0.16804 0.86897 0.30112
 H813 H 0.19832 0.87043 0.33379
 Cu814 Cu 0.15707 0.84217 0.31941
 Cu815 Cu 0.18159 0.84307 0.34431
 Cu816 Cu 0.15499 0.81844 0.34503
 N817 N 0.14239 0.82809 0.31961
 N818 N 0.14138 0.81919 0.32998
 C819 C 0.13022 0.81090 0.32792
 C820 C 0.12393 0.81472 0.31554
 C821 C 0.13195 0.82566 0.31053
 H822 H 0.12710 0.80251 0.33477
 H823 H 0.13019 0.83150 0.30106
 N824 N 0.16985 0.81934 0.35919
 N825 N 0.18021 0.82843 0.35867
 C826 C 0.18913 0.82579 0.36918
 C827 C 0.18410 0.81457 0.37673
 C828 C 0.17183 0.81078 0.37014
 H829 H 0.19859 0.83160 0.37122
 H830 H 0.16511 0.80213 0.37288
 H831 H 0.17139 0.82707 0.33399
 H832 H 0.16036 0.83930 0.34438
 C833 C 0.24462 0.99937 0.25499
 C834 C 0.25472 0.99935 0.24493
 C835 C 0.26081 1.01252 0.23934
 C836 C 0.26029 0.98617 0.23885
 C837 C 0.23906 0.98621 0.26113
 C838 C 0.23848 1.01258 0.26045
 C839 C 0.26128 1.01463 0.22492
 C840 C 0.26707 1.02680 0.21939
 C841 C 0.27248 1.03722 0.22817
 C842 C 0.27216 1.03502 0.24264
 C843 C 0.26653 1.02272 0.24816
 C844 C 0.25137 0.97591 0.23336
 C845 C 0.25688 0.96361 0.22772
 C846 C 0.27143 0.96149 0.22711
 C847 C 0.28030 0.97200 0.23227
 C848 C 0.27479 0.98415 0.23811
 C849 C 0.24798 0.97595 0.26664
 C850 C 0.24249 0.96363 0.27225
 C851 C 0.22794 0.96147 0.27280
 C852 C 0.21906 0.97198 0.26764
 C853 C 0.22456 0.98416 0.26184
 C854 C 0.23779 1.01470 0.27486
 C855 C 0.23194 1.02689 0.28027
 C856 C 0.22673 1.03735 0.27139
 C857 C 0.22727 1.03511 0.25693
 C858 C 0.23291 1.02278 0.25153
 H859 H 0.25712 1.00681 0.21791
 H860 H 0.26744 1.02795 0.20820
 H861 H 0.27614 1.04284 0.24972
 H862 H 0.26658 1.02119 0.25931
 H863 H 0.24015 0.97738 0.23349
 H864 H 0.24971 0.95573 0.22398
 H865 H 0.28187 0.99201 0.24209
 H866 H 0.25920 0.97744 0.26653
 H867 H 0.24967 0.95575 0.27600
 H868 H 0.20781 0.97090 0.26822
 H869 H 0.21747 0.99201 0.25784
 H870 H 0.24182 1.00689 0.28196
 H871 H 0.23138 1.02803 0.29145
 H872 H 0.22347 1.04295 0.24975
 H873 H 0.23300 1.02122 0.24038
 H874 H 0.29155 0.97095 0.23166
 C875 C 0.24456 0.49965 0.75501
 C876 C 0.25471 0.49968 0.74500
 C877 C 0.26089 0.51287 0.73956
 C878 C 0.26023 0.48652 0.73883
 C879 C 0.23901 0.48645 0.76107
 C880 C 0.23838 0.51281 0.76051
 C881 C 0.26160 0.51503 0.72516
 C882 C 0.26747 0.52723 0.71978
 C883 C 0.27269 0.53764 0.72868
 C884 C 0.27213 0.53537 0.74314
 C885 C 0.26645 0.52304 0.74851
 C886 C 0.25127 0.47632 0.73329
 C887 C 0.25672 0.46402 0.72762
 C888 C 0.27126 0.46182 0.72702
 C889 C 0.28018 0.47228 0.73221
 C890 C 0.27472 0.48443 0.73809
 C891 C 0.24794 0.47622 0.76661
 C892 C 0.24246 0.46388 0.77217
 C893 C 0.22791 0.46168 0.77265
 C894 C 0.21903 0.47215 0.76744
 C895 C 0.22451 0.48435 0.76168
 C896 C 0.23756 0.51483 0.77493
 C897 C 0.23168 0.52699 0.78037
 C898 C 0.22658 0.53753 0.77151
 C899 C 0.22724 0.53540 0.75704
 C900 C 0.23291 0.52309 0.75161
 H901 H 0.25757 0.50724 0.71805
 H902 H 0.26805 0.52840 0.70860
 H903 H 0.27595 0.54318 0.75033
 H904 H 0.26633 0.52146 0.75966
 H905 H 0.24006 0.47784 0.73341
 H906 H 0.24951 0.45618 0.72385
 H907 H 0.28184 0.49224 0.74211
 H908 H 0.25915 0.47774 0.76656
 H909 H 0.24964 0.45602 0.77598
 H910 H 0.20778 0.47102 0.76795
 H911 H 0.21742 0.49218 0.75765
 H912 H 0.24151 0.50696 0.78201
 H913 H 0.23101 0.52805 0.79155
 H914 H 0.22354 0.54329 0.74988
 H915 H 0.23309 0.52161 0.74045
 H916 H 0.29142 0.47118 0.73160
 C917 C 0.74468 0.00032 0.24486
 C918 C 0.75494 0.00031 0.25475
 C919 C 0.76116 -0.01286 0.26029
 C920 C 0.76050 0.01352 0.26078
 C921 C 0.73910 0.01351 0.23881
 C922 C 0.73842 -0.01283 0.23941
 C923 C 0.76259 -0.01456 0.27470
 C924 C 0.76856 -0.02665 0.28020
 C925 C 0.77302 -0.03754 0.27143
 C926 C 0.77173 -0.03574 0.25694
 C927 C 0.76611 -0.02343 0.25144
 C928 C 0.75158 0.02369 0.26646
 C929 C 0.75707 0.03597 0.27211
 C930 C 0.77162 0.03816 0.27258
 C931 C 0.78049 0.02775 0.26723
 C932 C 0.77499 0.01563 0.26134
 C933 C 0.74799 0.02366 0.23306
 C934 C 0.74248 0.03598 0.22748
 C935 C 0.72794 0.03825 0.22721
 C936 C 0.71908 0.02786 0.23264
 C937 C 0.72460 0.01567 0.23840
 C938 C 0.73755 -0.01486 0.22500
 C939 C 0.73169 -0.02704 0.21959
 C940 C 0.72666 -0.03758 0.22848
 C941 C 0.72733 -0.03542 0.24295
 C942 C 0.73298 -0.02309 0.24835
 H943 H 0.75907 -0.00646 0.28175
 H944 H 0.76976 -0.02735 0.29136
 H945 H 0.77490 -0.04387 0.24981
 H946 H 0.76553 -0.02222 0.24026
 H947 H 0.74037 0.02214 0.26647
 H948 H 0.74989 0.04377 0.27601
 H949 H 0.78208 0.00783 0.25723
 H950 H 0.75919 0.02208 0.23295
 H951 H 0.74963 0.04378 0.22350
 H952 H 0.70784 0.02904 0.23230
 H953 H 0.71754 0.00790 0.24259
 H954 H 0.74148 -0.00700 0.21790
 H955 H 0.73101 -0.02812 0.20842
 H956 H 0.72367 -0.04332 0.25013
 H957 H 0.73322 -0.02160 0.25950
 H958 H 0.79173 0.02885 0.26773
 C959 C 0.74456 0.50053 0.74512
 C960 C 0.75463 0.50059 0.75521
 C961 C 0.76036 0.48747 0.76136
 C962 C 0.76060 0.51385 0.76073
 C963 C 0.73835 0.51369 0.73959
 C964 C 0.73908 0.48734 0.73899
 C965 C 0.75161 0.47683 0.76639
 C966 C 0.75730 0.46461 0.77203
 C967 C 0.77189 0.46298 0.77329
 C968 C 0.78057 0.47393 0.76870
 C969 C 0.77488 0.48592 0.76271
 C970 C 0.76115 0.51597 0.77514
 C971 C 0.76697 0.52815 0.78060
 C972 C 0.77230 0.53859 0.77176
 C973 C 0.77184 0.53638 0.75730
 C974 C 0.76622 0.52406 0.75185
 C975 C 0.73778 0.51582 0.72518
 C976 C 0.73195 0.52801 0.71972
 C977 C 0.72663 0.53844 0.72855
 C978 C 0.72703 0.53618 0.74302
 C979 C 0.73266 0.52386 0.74847
 C980 C 0.74805 0.47714 0.73345
 C981 C 0.74261 0.46478 0.72790
 C982 C 0.72808 0.46251 0.72744
 C983 C 0.71915 0.47297 0.73261
 C984 C 0.72459 0.48519 0.73835
 H985 H 0.74036 0.47791 0.76588
 H986 H 0.75022 0.45643 0.77527
 H987 H 0.79180 0.47336 0.76986
 H988 H 0.78187 0.49407 0.75913
 H989 H 0.75707 0.50815 0.78220
 H990 H 0.76747 0.52928 0.79178
 H991 H 0.76623 0.52250 0.74070
 H992 H 0.74191 0.50804 0.71812
 H993 H 0.73150 0.52917 0.70853
 H994 H 0.72314 0.54400 0.75017
 H995 H 0.73267 0.52230 0.75961
 H996 H 0.75926 0.47870 0.73353
 H997 H 0.74982 0.45694 0.72412
 H998 H 0.70791 0.47181 0.73210
 H999 H 0.71746 0.49300 0.74237
 H1000 H 0.77572 0.54421 0.75015
 C1001 C 0.24434 0.50002 0.24412
 C1002 C 0.25447 0.50000 0.25414
 C1003 C 0.26006 0.48680 0.26017
 C1004 C 0.26059 0.51316 0.25971
 C1005 C 0.23818 0.51322 0.23866
 C1006 C 0.23879 0.48686 0.23798
 C1007 C 0.25116 0.47657 0.26578
 C1008 C 0.25669 0.46427 0.27140
 C1009 C 0.27124 0.46210 0.27184
 C1010 C 0.28009 0.47255 0.26653
 C1011 C 0.27456 0.48472 0.26073
 C1012 C 0.26131 0.51514 0.27415
 C1013 C 0.26715 0.52729 0.27966
 C1014 C 0.27233 0.53783 0.27087
 C1015 C 0.27176 0.53575 0.25639
 C1016 C 0.26612 0.52346 0.25088
 C1017 C 0.23753 0.51538 0.22425
 C1018 C 0.23173 0.52760 0.21884
 C1019 C 0.22650 0.53804 0.22773
 C1020 C 0.22699 0.53576 0.24218
 C1021 C 0.23260 0.52341 0.24758
 C1022 C 0.24773 0.47667 0.23237
 C1023 C 0.24226 0.46436 0.22675
 C1024 C 0.22772 0.46213 0.22629
 C1025 C 0.21882 0.47256 0.23156
 C1026 C 0.22430 0.48474 0.23737
 H1027 H 0.23995 0.47808 0.26577
 H1028 H 0.24954 0.45642 0.27528
 H1029 H 0.29133 0.47145 0.26700
 H1030 H 0.28162 0.49255 0.25665
 H1031 H 0.25731 0.50725 0.28117
 H1032 H 0.26773 0.52831 0.29085
 H1033 H 0.26600 0.52203 0.23972
 H1034 H 0.24158 0.50758 0.21715
 H1035 H 0.23121 0.52878 0.20766
 H1036 H 0.22318 0.54359 0.24936
 H1037 H 0.23268 0.52183 0.25873
 H1038 H 0.25894 0.47821 0.23241
 H1039 H 0.24946 0.45654 0.22290
 H1040 H 0.20758 0.47141 0.23107
 H1041 H 0.21720 0.49254 0.24145
 H1042 H 0.27554 0.54366 0.24929
 C1043 C 0.74414 1.00008 0.75597
 C1044 C 0.75437 1.00005 0.74604
 C1045 C 0.76064 1.01319 0.74056
 C1046 C 0.75992 0.98685 0.73996
 C1047 C 0.73855 0.98688 0.76200
 C1048 C 0.73794 1.01327 0.76148
 C1049 C 0.76145 1.01523 0.72614
 C1050 C 0.76738 1.02737 0.72070
 C1051 C 0.77254 1.03786 0.72956
 C1052 C 0.77190 1.03570 0.74403
 C1053 C 0.76618 1.02341 0.74946
 C1054 C 0.75100 0.97665 0.73435
 C1055 C 0.75649 0.96437 0.72867
 C1056 C 0.77104 0.96220 0.72811
 C1057 C 0.77991 0.97265 0.73338
 C1058 C 0.77441 0.98477 0.73928
 C1059 C 0.74744 0.97673 0.76775
 C1060 C 0.74194 0.96440 0.77332
 C1061 C 0.72740 0.96212 0.77356
 C1062 C 0.71854 0.97250 0.76812
 C1063 C 0.72406 0.98470 0.76238
 C1064 C 0.73652 1.01503 0.77589
 C1065 C 0.73065 1.02719 0.78134
 C1066 C 0.72625 1.03808 0.77253
 C1067 C 0.72750 1.03621 0.75805
 C1068 C 0.73303 1.02384 0.75259
 H1069 H 0.75745 1.00740 0.71906
 H1070 H 0.76803 1.02844 0.70952
 H1071 H 0.77567 1.04357 0.75118
 H1072 H 0.76597 1.02192 0.76062
 H1073 H 0.73978 0.97816 0.73441
 H1074 H 0.74931 0.95654 0.72483
 H1075 H 0.78151 0.99258 0.74334
 H1076 H 0.75864 0.97832 0.76787
 H1077 H 0.74909 0.95662 0.77730
 H1078 H 0.70730 0.97130 0.76844
 H1079 H 0.71699 0.99248 0.75819
 H1080 H 0.73999 1.00694 0.78297
 H1081 H 0.72948 1.02795 0.79250
 H1082 H 0.72438 1.04434 0.75088
 H1083 H 0.73358 1.02259 0.74142
 H1084 H 0.79116 0.97158 0.73280
 C1085 C 0.74430 0.49973 0.25564
 C1086 C 0.75442 0.49960 0.24561
 C1087 C 0.76009 0.51269 0.23944
 C1088 C 0.76045 0.48635 0.24014
 C1089 C 0.73807 0.48662 0.26123
 C1090 C 0.73882 0.51298 0.26164
 C1091 C 0.75127 0.52298 0.23383
 C1092 C 0.75688 0.53519 0.22812
 C1093 C 0.77145 0.53719 0.22754
 C1094 C 0.78023 0.52666 0.23281
 C1095 C 0.77461 0.51460 0.23873
 C1096 C 0.76106 0.48422 0.22572
 C1097 C 0.76690 0.47203 0.22029
 C1098 C 0.77218 0.46160 0.22915
 C1099 C 0.77169 0.46382 0.24362
 C1100 C 0.76603 0.47614 0.24904
 C1101 C 0.73734 0.48463 0.27566
 C1102 C 0.73150 0.47248 0.28117
 C1103 C 0.72633 0.46194 0.27237
 C1104 C 0.72688 0.46406 0.25790
 C1105 C 0.73251 0.47635 0.25239
 C1106 C 0.74780 0.52319 0.26714
 C1107 C 0.74239 0.53558 0.27264
 C1108 C 0.72785 0.53787 0.27310
 C1109 C 0.71891 0.52743 0.26793
 C1110 C 0.72434 0.51517 0.26224
 H1111 H 0.74004 0.52159 0.23394
 H1112 H 0.74978 0.54310 0.22428
 H1113 H 0.79148 0.52762 0.23222
 H1114 H 0.78163 0.50671 0.24279
 H1115 H 0.75701 0.49203 0.21865
 H1116 H 0.76742 0.47090 0.20911
 H1117 H 0.76597 0.47769 0.26019
 H1118 H 0.74136 0.49250 0.28268
 H1119 H 0.73092 0.47142 0.29236
 H1120 H 0.72312 0.45616 0.25078
 H1121 H 0.73262 0.47781 0.24123
 H1122 H 0.75901 0.52160 0.26710
 H1123 H 0.74961 0.54341 0.27641
 H1124 H 0.70767 0.52862 0.26843
 H1125 H 0.71720 0.50736 0.25824
 H1126 H 0.77555 0.45599 0.25077
 C1127 C 0.24444 0.00017 0.74403
 C1128 C 0.25454 0.00006 0.75409
 C1129 C 0.26010 -0.01315 0.76017
 C1130 C 0.26070 0.01323 0.75962
 C1131 C 0.23838 0.01342 0.73860
 C1132 C 0.23879 -0.01292 0.73784
 C1133 C 0.25119 -0.02369 0.76517
 C1134 C 0.25672 -0.03602 0.77074
 C1135 C 0.27128 -0.03786 0.77194
 C1136 C 0.28011 -0.02703 0.76738
 C1137 C 0.27459 -0.01492 0.76146
 C1138 C 0.26130 0.01534 0.77404
 C1139 C 0.26719 0.02748 0.77950
 C1140 C 0.27254 0.03790 0.77066
 C1141 C 0.27209 0.03569 0.75619
 C1142 C 0.26639 0.02341 0.75074
 C1143 C 0.23779 0.01564 0.72419
 C1144 C 0.23201 0.02788 0.71882
 C1145 C 0.22675 0.03828 0.72773
 C1146 C 0.22719 0.03595 0.74218
 C1147 C 0.23278 0.02357 0.74754
 C1148 C 0.24761 -0.02319 0.73222
 C1149 C 0.24200 -0.03542 0.72654
 C1150 C 0.22743 -0.03746 0.72604
 C1151 C 0.21866 -0.02693 0.73131
 C1152 C 0.22427 -0.01485 0.73717
 H1153 H 0.23996 -0.02243 0.76470
 H1154 H 0.24953 -0.04411 0.77398
 H1155 H 0.29134 -0.02777 0.76850
 H1156 H 0.28169 -0.00686 0.75791
 H1157 H 0.25717 0.00754 0.78109
 H1158 H 0.26769 0.02860 0.79068
 H1159 H 0.26637 0.02187 0.73959
 H1160 H 0.24186 0.00786 0.71708
 H1161 H 0.23153 0.02910 0.70764
 H1162 H 0.22335 0.04374 0.74937
 H1163 H 0.23280 0.02195 0.75868
 H1164 H 0.25884 -0.02179 0.73231
 H1165 H 0.24910 -0.04332 0.72269
 H1166 H 0.20740 -0.02793 0.73078
 H1167 H 0.21725 -0.00697 0.74125
 H1168 H 0.27600 0.04351 0.74905
 C1169 C 0.25590 0.24360 1.00007
 C1170 C 0.24585 0.25375 1.00010
 C1171 C 0.23978 0.25935 1.01323
 C1172 C 0.24028 0.25991 0.98700
 C1173 C 0.26140 0.23746 0.98693
 C1174 C 0.26201 0.23801 1.01318
 C1175 C 0.23416 0.25047 1.02343
 C1176 C 0.22851 0.25601 1.03567
 C1177 C 0.22803 0.27056 1.03779
 C1178 C 0.23333 0.27938 1.02735
 C1179 C 0.23918 0.27384 1.01526
 C1180 C 0.22578 0.26061 0.98497
 C1181 C 0.22027 0.26648 0.97289
 C1182 C 0.22913 0.27172 0.96244
 C1183 C 0.24368 0.27116 0.96457
 C1184 C 0.24919 0.26548 0.97680
 C1185 C 0.27589 0.23675 0.98482
 C1186 C 0.28134 0.23101 0.97264
 C1187 C 0.27241 0.22591 0.96219
 C1188 C 0.25787 0.22645 0.96442
 C1189 C 0.25244 0.23199 0.97674
 C1190 C 0.26774 0.24690 1.02330
 C1191 C 0.27330 0.24139 1.03558
 C1192 C 0.27355 0.22686 1.03785
 C1193 C 0.26816 0.21801 1.02749
 C1194 C 0.26243 0.22353 1.01533
 H1195 H 0.23419 0.23926 1.02196
 H1196 H 0.22464 0.24887 1.04350
 H1197 H 0.23282 0.29063 1.02841
 H1198 H 0.24325 0.28090 1.00744
 H1199 H 0.21870 0.25657 0.99279
 H1200 H 0.20902 0.26705 0.97182
 H1201 H 0.26041 0.26537 0.97827
 H1202 H 0.28302 0.24071 0.99263
 H1203 H 0.29258 0.23045 0.97149
 H1204 H 0.25065 0.22274 0.95659
 H1205 H 0.24123 0.23211 0.97827
 H1206 H 0.26782 0.25810 1.02173
 H1207 H 0.27726 0.24854 1.04335
 H1208 H 0.26848 0.20677 1.02870
 H1209 H 0.25825 0.21646 1.00758
 H1210 H 0.25085 0.27499 0.95673
 C1211 C 0.25601 0.74401 0.49971
 C1212 C 0.24593 0.75414 0.49966
 C1213 C 0.24034 0.76034 0.51274
 C1214 C 0.23983 0.75966 0.48651
 C1215 C 0.26218 0.73846 0.48661
 C1216 C 0.26148 0.73785 0.51286
 C1217 C 0.22584 0.76125 0.51464
 C1218 C 0.22030 0.76719 0.52668
 C1219 C 0.22914 0.77224 0.53723
 C1220 C 0.24370 0.77146 0.53523
 C1221 C 0.24924 0.76575 0.52303
 C1222 C 0.23421 0.75071 0.47637
 C1223 C 0.22852 0.75617 0.46413
 C1224 C 0.22800 0.77070 0.46191
 C1225 C 0.23331 0.77960 0.47228
 C1226 C 0.23919 0.77414 0.48439
 C1227 C 0.26776 0.74739 0.47643
 C1228 C 0.27333 0.74193 0.46414
 C1229 C 0.27379 0.72740 0.46193
 C1230 C 0.26859 0.71850 0.47236
 C1231 C 0.26282 0.72398 0.48452
 C1232 C 0.27596 0.73714 0.51500
 C1233 C 0.28137 0.73138 0.52719
 C1234 C 0.27241 0.72625 0.53762
 C1235 C 0.25788 0.72679 0.53535
 C1236 C 0.25248 0.73236 0.52302
 H1237 H 0.21876 0.75735 0.50676
 H1238 H 0.20906 0.76796 0.52762
 H1239 H 0.25086 0.77512 0.54314
 H1240 H 0.26047 0.76551 0.52165
 H1241 H 0.23427 0.73951 0.47792
 H1242 H 0.22465 0.74898 0.45635
 H1243 H 0.24327 0.78125 0.49215
 H1244 H 0.26770 0.75860 0.47796
 H1245 H 0.27712 0.74912 0.45632
 H1246 H 0.26909 0.70727 0.47123
 H1247 H 0.25877 0.71688 0.49232
 H1248 H 0.28311 0.74113 0.50722
 H1249 H 0.29260 0.73082 0.52836
 H1250 H 0.25064 0.72306 0.54316
 H1251 H 0.24127 0.73248 0.52147
 H1252 H 0.23277 0.79084 0.47115
 C1253 C 0.24530 0.74483 -0.00016
 C1254 C 0.25540 0.75492 -0.00017
 C1255 C 0.26090 0.76107 -0.01330
 C1256 C 0.26161 0.76041 0.01293
 C1257 C 0.23917 0.73930 0.01297
 C1258 C 0.23977 0.73868 -0.01327
 C1259 C 0.27538 0.76162 -0.01549
 C1260 C 0.28081 0.76741 -0.02766
 C1261 C 0.27188 0.77274 -0.03799
 C1262 C 0.25735 0.77235 -0.03569
 C1263 C 0.25193 0.76672 -0.02340
 C1264 C 0.26715 0.75144 0.02309
 C1265 C 0.27282 0.75685 0.03535
 C1266 C 0.27343 0.77138 0.03755
 C1267 C 0.26825 0.78032 0.02714
 C1268 C 0.26237 0.77489 0.01502
 C1269 C 0.23360 0.74823 0.02314
 C1270 C 0.22799 0.74277 0.03542
 C1271 C 0.22750 0.72823 0.03763
 C1272 C 0.23273 0.71934 0.02721
 C1273 C 0.23852 0.72481 0.01507
 C1274 C 0.22527 0.73795 -0.01534
 C1275 C 0.21981 0.73209 -0.02745
 C1276 C 0.22873 0.72691 -0.03788
 C1277 C 0.24327 0.72750 -0.03571
 C1278 C 0.24872 0.73315 -0.02345
 H1279 H 0.28251 0.75750 -0.00776
 H1280 H 0.29205 0.76785 -0.02889
 H1281 H 0.25013 0.77625 -0.04344
 H1282 H 0.24072 0.76671 -0.02180
 H1283 H 0.26700 0.74023 0.02157
 H1284 H 0.27659 0.74963 0.04316
 H1285 H 0.25836 0.78203 0.00724
 H1286 H 0.23368 0.75944 0.02161
 H1287 H 0.22417 0.74995 0.04323
 H1288 H 0.23220 0.70810 0.02835
 H1289 H 0.24256 0.71771 0.00728
 H1290 H 0.21816 0.74195 -0.00754
 H1291 H 0.20857 0.73149 -0.02855
 H1292 H 0.25048 0.72373 -0.04353
 H1293 H 0.25994 0.73327 -0.02194
 H1294 H 0.26886 0.79155 0.02826
 C1295 C 0.24504 0.24470 0.49973
 C1296 C 0.25512 0.25481 0.49971
 C1297 C 0.26065 0.26095 0.48658
 C1298 C 0.26129 0.26033 0.51282
 C1299 C 0.23890 0.23917 0.51286
 C1300 C 0.23954 0.23851 0.48662
 C1301 C 0.27514 0.26161 0.48448
 C1302 C 0.28061 0.26740 0.47233
 C1303 C 0.27170 0.27261 0.46191
 C1304 C 0.25716 0.27211 0.46412
 C1305 C 0.25170 0.26650 0.47641
 C1306 C 0.26684 0.25138 0.52300
 C1307 C 0.27248 0.25682 0.53526
 C1308 C 0.27304 0.27135 0.53746
 C1309 C 0.26785 0.28027 0.52703
 C1310 C 0.26200 0.27481 0.51490
 C1311 C 0.23331 0.24811 0.52301
 C1312 C 0.22771 0.24266 0.53530
 C1313 C 0.22725 0.22813 0.53754
 C1314 C 0.23250 0.21922 0.52714
 C1315 C 0.23828 0.22469 0.51498
 C1316 C 0.22505 0.23774 0.48454
 C1317 C 0.21962 0.23184 0.47243
 C1318 C 0.22855 0.22667 0.46202
 C1319 C 0.24309 0.22729 0.46421
 C1320 C 0.24852 0.23297 0.47646
 H1321 H 0.28225 0.25758 0.49227
 H1322 H 0.29185 0.26793 0.47119
 H1323 H 0.24996 0.27592 0.45631
 H1324 H 0.24049 0.26642 0.47794
 H1325 H 0.26673 0.24017 0.52148
 H1326 H 0.27625 0.24961 0.54308
 H1327 H 0.25798 0.28193 0.50711
 H1328 H 0.23336 0.25932 0.52146
 H1329 H 0.22388 0.24985 0.54310
 H1330 H 0.23200 0.20799 0.52830
 H1331 H 0.24234 0.21758 0.50721
 H1332 H 0.21791 0.24174 0.49232
 H1333 H 0.20838 0.23122 0.47132
 H1334 H 0.25032 0.22352 0.45640
 H1335 H 0.25973 0.23313 0.47798
 H1336 H 0.26843 0.29150 0.52814
 C1337 C 0.75553 0.74443 0.99992
 C1338 C 0.74546 0.75456 1.00000
 C1339 C 0.74000 0.76070 1.01316
 C1340 C 0.73925 0.76016 0.98694
 C1341 C 0.76164 0.73894 0.98676
 C1342 C 0.76108 0.73820 1.01300
 C1343 C 0.72552 0.76148 1.01528
 C1344 C 0.72011 0.76739 1.02739
 C1345 C 0.72907 0.77258 1.03778
 C1346 C 0.74361 0.77194 1.03556
 C1347 C 0.74901 0.76622 1.02330
 C1348 C 0.73375 0.75128 0.97668
 C1349 C 0.72802 0.75682 0.96449
 C1350 C 0.72728 0.77137 0.96248
 C1351 C 0.73241 0.78020 0.97299
 C1352 C 0.73838 0.77466 0.98502
 C1353 C 0.76718 0.74792 0.97660
 C1354 C 0.77278 0.74252 0.96430
 C1355 C 0.77331 0.72799 0.96204
 C1356 C 0.76811 0.71905 0.97244
 C1357 C 0.76230 0.72447 0.98461
 C1358 C 0.77558 0.73735 1.01498
 C1359 C 0.78106 0.73150 1.02709
 C1360 C 0.77217 0.72647 1.03762
 C1361 C 0.75762 0.72715 1.03552
 C1362 C 0.75214 0.73277 1.02325
 H1363 H 0.71836 0.75748 1.00752
 H1364 H 0.70888 0.76804 1.02852
 H1365 H 0.75084 0.77571 1.04334
 H1366 H 0.76021 0.76606 1.02175
 H1367 H 0.73396 0.74006 0.97808
 H1368 H 0.72431 0.74967 0.95661
 H1369 H 0.74234 0.78173 0.99287
 H1370 H 0.76709 0.75913 0.97816
 H1371 H 0.77656 0.74974 0.95650
 H1372 H 0.76865 0.70782 0.97128
 H1373 H 0.75828 0.71733 0.99238
 H1374 H 0.78269 0.74127 1.00713
 H1375 H 0.79231 0.73081 1.02812
 H1376 H 0.75043 0.72350 1.04340
 H1377 H 0.74092 0.73298 1.02181
 H1378 H 0.73168 0.79144 0.97204
 C1379 C 0.75557 0.24451 0.50028
 C1380 C 0.74546 0.25460 0.50027
 C1381 C 0.73991 0.26074 0.51338
 C1382 C 0.73934 0.26016 0.48715
 C1383 C 0.76177 0.23904 0.48717
 C1384 C 0.76108 0.23833 0.51341
 C1385 C 0.72541 0.26142 0.51544
 C1386 C 0.71992 0.26727 0.52755
 C1387 C 0.72881 0.27251 0.53796
 C1388 C 0.74336 0.27197 0.53580
 C1389 C 0.74884 0.26630 0.52355
 C1390 C 0.73377 0.25125 0.47696
 C1391 C 0.72816 0.25674 0.46469
 C1392 C 0.72769 0.27128 0.46250
 C1393 C 0.73293 0.28015 0.47292
 C1394 C 0.73872 0.27465 0.48506
 C1395 C 0.76731 0.24803 0.47703
 C1396 C 0.77296 0.24263 0.46474
 C1397 C 0.77353 0.22811 0.46250
 C1398 C 0.76835 0.21916 0.47290
 C1399 C 0.76250 0.22456 0.48504
 C1400 C 0.77557 0.23761 0.51551
 C1401 C 0.78102 0.23179 0.52766
 C1402 C 0.77210 0.22664 0.53810
 C1403 C 0.75755 0.22719 0.53588
 C1404 C 0.75212 0.23281 0.52359
 H1405 H 0.71831 0.25738 0.50765
 H1406 H 0.70868 0.26784 0.52865
 H1407 H 0.75054 0.27579 0.54361
 H1408 H 0.76005 0.26621 0.52204
 H1409 H 0.73383 0.24004 0.47847
 H1410 H 0.72434 0.24958 0.45687
 H1411 H 0.74277 0.28174 0.49286
 H1412 H 0.76719 0.25923 0.47858
 H1413 H 0.77672 0.24987 0.45694
 H1414 H 0.76894 0.20792 0.47175
 H1415 H 0.75848 0.21742 0.49281
 H1416 H 0.78270 0.24162 0.50772
 H1417 H 0.79226 0.23122 0.52878
 H1418 H 0.75033 0.22344 0.54370
 H1419 H 0.74090 0.23292 0.52206
 H1420 H 0.73243 0.29139 0.47180
 C1421 C 0.74536 0.24559 -0.00009
 C1422 C 0.75538 0.25576 -0.00004
 C1423 C 0.76151 0.26137 -0.01313
 C1424 C 0.76088 0.26190 0.01310
 C1425 C 0.73980 0.23942 0.01300
 C1426 C 0.73933 0.24001 -0.01323
 C1427 C 0.76726 0.25250 -0.02326
 C1428 C 0.77290 0.25804 -0.03549
 C1429 C 0.77322 0.27258 -0.03770
 C1430 C 0.76780 0.28141 -0.02733
 C1431 C 0.76198 0.27586 -0.01523
 C1432 C 0.77537 0.26265 0.01518
 C1433 C 0.78081 0.26843 0.02734
 C1434 C 0.77189 0.27353 0.03780
 C1435 C 0.75735 0.27296 0.03560
 C1436 C 0.75191 0.26737 0.02330
 C1437 C 0.72530 0.23874 0.01504
 C1438 C 0.71980 0.23292 0.02716
 C1439 C 0.72867 0.22772 0.03761
 C1440 C 0.74322 0.22825 0.03546
 C1441 C 0.74872 0.23388 0.02321
 C1442 C 0.73367 0.24889 -0.02341
 C1443 C 0.72810 0.24338 -0.03568
 C1444 C 0.72776 0.22884 -0.03789
 C1445 C 0.73309 0.21999 -0.02748
 C1446 C 0.73883 0.22552 -0.01534
 H1447 H 0.76732 0.24130 -0.02172
 H1448 H 0.77687 0.25091 -0.04327
 H1449 H 0.76818 0.29265 -0.02847
 H1450 H 0.75779 0.28291 -0.00747
 H1451 H 0.78250 0.25870 0.00737
 H1452 H 0.79205 0.26903 0.02846
 H1453 H 0.74070 0.26723 0.02179
 H1454 H 0.71821 0.24277 0.00723
 H1455 H 0.70855 0.23237 0.02825
 H1456 H 0.75039 0.22445 0.04330
 H1457 H 0.75994 0.23398 0.02172
 H1458 H 0.73363 0.26010 -0.02188
 H1459 H 0.72420 0.25053 -0.04349
 H1460 H 0.73269 0.20875 -0.02862
 H1461 H 0.74294 0.21845 -0.00754
 H1462 H 0.75013 0.27667 0.04343
 C1463 C 0.74530 0.74559 0.50053
 C1464 C 0.75535 0.75573 0.50050
 C1465 C 0.76082 0.76191 0.48735
 C1466 C 0.76155 0.76124 0.51359
 C1467 C 0.73922 0.74000 0.51367
 C1468 C 0.73976 0.73943 0.48743
 C1469 C 0.77530 0.76267 0.48521
 C1470 C 0.78070 0.76847 0.47303
 C1471 C 0.77174 0.77356 0.46261
 C1472 C 0.75720 0.77298 0.46487
 C1473 C 0.75181 0.76739 0.47718
 C1474 C 0.76715 0.75229 0.52373
 C1475 C 0.77282 0.75773 0.53598
 C1476 C 0.77336 0.77226 0.53818
 C1477 C 0.76813 0.78118 0.52778
 C1478 C 0.76225 0.77573 0.51567
 C1479 C 0.73363 0.74889 0.52387
 C1480 C 0.72804 0.74338 0.53614
 C1481 C 0.72761 0.72884 0.53832
 C1482 C 0.73287 0.71998 0.52789
 C1483 C 0.73863 0.72551 0.51575
 C1484 C 0.72527 0.73876 0.48536
 C1485 C 0.71980 0.73294 0.47323
 C1486 C 0.72871 0.72774 0.46281
 C1487 C 0.74325 0.72826 0.46499
 C1488 C 0.74871 0.73389 0.47726
 H1489 H 0.78247 0.75871 0.49299
 H1490 H 0.79194 0.76907 0.47187
 H1491 H 0.74996 0.77669 0.45705
 H1492 H 0.74060 0.76725 0.47874
 H1493 H 0.76705 0.74108 0.52221
 H1494 H 0.77663 0.75052 0.54378
 H1495 H 0.75819 0.78284 0.50790
 H1496 H 0.73365 0.76010 0.52236
 H1497 H 0.72420 0.75053 0.54397
 H1498 H 0.73239 0.70874 0.52900
 H1499 H 0.74269 0.71844 0.50794
 H1500 H 0.71816 0.74279 0.49315
 H1501 H 0.70856 0.73240 0.47211
 H1502 H 0.75044 0.72447 0.45718
 H1503 H 0.75992 0.73398 0.47877
 H1504 H 0.76870 0.79241 0.52889
 C1505 C 1.00011 0.25507 0.24475
 C1506 C 1.00015 0.24492 0.25475
 C1507 C 1.01335 0.23941 0.26087
 C1508 C 0.98698 0.23870 0.26023
 C1509 C 0.98690 0.26116 0.23924
 C1510 C 1.01329 0.26070 0.23870
 C1511 C 1.01545 0.22492 0.26159
 C1512 C 1.02761 0.21946 0.26747
 C1513 C 1.03806 0.22836 0.27268
 C1514 C 1.03587 0.24289 0.27210
 C1515 C 1.02356 0.24835 0.26643
 C1516 C 0.97678 0.23313 0.25131
 C1517 C 0.96448 0.22741 0.25673
 C1518 C 0.96229 0.22680 0.27119
 C1519 C 0.97275 0.23200 0.28006
 C1520 C 0.98490 0.23792 0.27464
 C1521 C 0.97664 0.26667 0.24813
 C1522 C 0.96428 0.27223 0.24270
 C1523 C 0.96206 0.27272 0.22823
 C1524 C 0.97255 0.26754 0.21938
 C1525 C 0.98479 0.26180 0.22482
 C1526 C 1.01536 0.27519 0.23821
 C1527 C 1.02755 0.28075 0.23249
 C1528 C 1.03803 0.27193 0.22717
 C1529 C 1.03585 0.25738 0.22753
 C1530 C 1.02353 0.25184 0.23308
 H1531 H 1.00763 0.21781 0.25757
 H1532 H 1.02871 0.20822 0.26806
 H1533 H 1.04370 0.25009 0.27589
 H1534 H 1.02202 0.25955 0.26633
 H1535 H 0.97831 0.23328 0.24016
 H1536 H 0.95664 0.22361 0.24956
 H1537 H 0.99272 0.24195 0.28173
 H1538 H 0.97817 0.26659 0.25929
 H1539 H 0.95641 0.27601 0.24985
 H1540 H 0.97140 0.26805 0.20820
 H1541 H 0.99264 0.25780 0.21775
 H1542 H 1.00752 0.28223 0.24231
 H1543 H 1.02868 0.29199 0.23208
 H1544 H 1.04372 0.25026 0.22365
 H1545 H 1.02203 0.24063 0.23306
 H1546 H 0.97165 0.23138 0.29124
 C1547 C 0.50007 0.25553 0.74486
 C1548 C 0.50002 0.24537 0.75485
 C1549 C 0.51318 0.23977 0.76095
 C1550 C 0.48680 0.23925 0.76033
 C1551 C 0.48690 0.26173 0.73937
 C1552 C 0.51328 0.26109 0.73879
 C1553 C 0.51525 0.22527 0.76150
 C1554 C 0.52740 0.21973 0.76730
 C1555 C 0.53786 0.22856 0.77264
 C1556 C 0.53569 0.24310 0.77222
 C1557 C 0.52340 0.24864 0.76659
 C1558 C 0.47657 0.23373 0.75141
 C1559 C 0.46421 0.22811 0.75682
 C1560 C 0.46197 0.22758 0.77128
 C1561 C 0.47244 0.23276 0.78016
 C1562 C 0.48466 0.23855 0.77474
 C1563 C 0.47667 0.26727 0.74827
 C1564 C 0.46434 0.27292 0.74285
 C1565 C 0.46215 0.27349 0.72838
 C1566 C 0.47264 0.26832 0.71952
 C1567 C 0.48482 0.26247 0.72495
 C1568 C 0.51536 0.27558 0.73813
 C1569 C 0.52756 0.28108 0.73236
 C1570 C 0.53806 0.27221 0.72719
 C1571 C 0.53588 0.25767 0.72770
 C1572 C 0.52354 0.25218 0.73327
 H1573 H 0.50742 0.21822 0.75739
 H1574 H 0.52851 0.20849 0.76776
 H1575 H 0.54353 0.25024 0.77611
 H1576 H 0.52189 0.25985 0.76659
 H1577 H 0.47812 0.23383 0.74026
 H1578 H 0.45637 0.22432 0.74965
 H1579 H 0.49249 0.24255 0.78183
 H1580 H 0.47819 0.26714 0.75943
 H1581 H 0.45648 0.27669 0.75001
 H1582 H 0.47153 0.26891 0.70834
 H1583 H 0.49266 0.25845 0.71787
 H1584 H 0.50750 0.28267 0.74213
 H1585 H 0.52865 0.29232 0.73181
 H1586 H 0.54376 0.25049 0.72394
 H1587 H 0.52203 0.24097 0.73334
 H1588 H 0.47128 0.23221 0.79134
 C1589 C -0.00016 0.24559 0.74549
 C1590 C -0.00014 0.25573 0.75549
 C1591 C -0.01330 0.26198 0.76095
 C1592 C 0.01308 0.26122 0.76161
 C1593 C 0.01303 0.24001 0.73942
 C1594 C -0.01334 0.23946 0.73996
 C1595 C -0.02359 0.26737 0.75202
 C1596 C -0.03588 0.27311 0.75742
 C1597 C -0.03796 0.27399 0.77189
 C1598 C -0.02739 0.26900 0.78077
 C1599 C -0.01527 0.26300 0.77536
 C1600 C 0.01524 0.27569 0.76225
 C1601 C 0.02744 0.28112 0.76808
 C1602 C 0.03786 0.27218 0.77331
 C1603 C 0.03559 0.25765 0.77281
 C1604 C 0.02325 0.25224 0.76719
 C1605 C 0.01510 0.22552 0.73880
 C1606 C 0.02727 0.22001 0.73301
 C1607 C 0.03776 0.22887 0.72778
 C1608 C 0.03560 0.24341 0.72828
 C1609 C 0.02328 0.24891 0.73386
 C1610 C -0.02363 0.23397 0.74883
 C1611 C -0.03594 0.22830 0.74335
 C1612 C -0.03805 0.22768 0.72888
 C1613 C -0.02751 0.23283 0.72005
 C1614 C -0.01535 0.23869 0.72553
 H1615 H -0.02215 0.26705 0.74086
 H1616 H -0.04380 0.27672 0.75024
 H1617 H -0.02837 0.26984 0.79195
 H1618 H -0.00739 0.25912 0.78246
 H1619 H 0.00745 0.28283 0.75820
 H1620 H 0.02860 0.29235 0.76861
 H1621 H 0.02167 0.24104 0.76713
 H1622 H 0.00725 0.21844 0.74284
 H1623 H 0.02836 0.20877 0.73248
 H1624 H 0.04347 0.25058 0.72447
 H1625 H 0.02177 0.26012 0.73391
 H1626 H -0.02218 0.23413 0.75999
 H1627 H -0.04384 0.22455 0.75048
 H1628 H -0.02856 0.23221 0.70887
 H1629 H -0.00747 0.24266 0.71848
 H1630 H 0.04340 0.25043 0.77662
 C1631 C 0.49991 0.24470 0.24517
 C1632 C 0.49988 0.25487 0.25513
 C1633 C 0.48668 0.26104 0.26062
 C1634 C 0.51306 0.26044 0.26120
 C1635 C 0.51312 0.23916 0.23907
 C1636 C 0.48674 0.23849 0.23973
 C1637 C 0.47640 0.26648 0.25172
 C1638 C 0.46407 0.27215 0.25715
 C1639 C 0.46193 0.27284 0.27162
 C1640 C 0.47247 0.26777 0.28048
 C1641 C 0.48465 0.26190 0.27504
 C1642 C 0.51519 0.27492 0.26171
 C1643 C 0.52736 0.28042 0.26750
 C1644 C 0.53778 0.27155 0.27285
 C1645 C 0.53556 0.25701 0.27246
 C1646 C 0.52325 0.25153 0.26685
 C1647 C 0.51525 0.22467 0.23846
 C1648 C 0.52743 0.21919 0.23262
 C1649 C 0.53785 0.22808 0.22731
 C1650 C 0.53562 0.24262 0.22778
 C1651 C 0.52330 0.24809 0.23343
 C1652 C 0.47653 0.23297 0.24867
 C1653 C 0.46421 0.22728 0.24328
 C1654 C 0.46201 0.22666 0.22882
 C1655 C 0.47248 0.23182 0.21992
 C1656 C 0.48465 0.23771 0.22532
 H1657 H 0.47787 0.26627 0.24056
 H1658 H 0.45618 0.27585 0.24998
 H1659 H 0.47140 0.26845 0.29166
 H1660 H 0.49253 0.25797 0.28213
 H1661 H 0.50739 0.28200 0.25758
 H1662 H 0.52851 0.29166 0.26794
 H1663 H 0.52170 0.24032 0.26687
 H1664 H 0.50745 0.21757 0.24255
 H1665 H 0.52857 0.20796 0.23212
 H1666 H 0.54343 0.24980 0.22391
 H1667 H 0.52176 0.25929 0.23346
 H1668 H 0.47806 0.23314 0.25982
 H1669 H 0.45636 0.22351 0.25046
 H1670 H 0.47137 0.23120 0.20875
 H1671 H 0.49248 0.24172 0.21822
 H1672 H 0.54338 0.24985 0.27637
 C1673 C 1.00057 0.75580 0.74459
 C1674 C 1.00060 0.74558 0.75451
 C1675 C 1.01380 0.73999 0.76055
 C1676 C 0.98742 0.73941 0.76002
 C1677 C 0.98737 0.76203 0.73922
 C1678 C 1.01373 0.76139 0.73847
 C1679 C 1.01585 0.72549 0.76120
 C1680 C 1.02797 0.71997 0.76709
 C1681 C 1.03844 0.72881 0.77237
 C1682 C 1.03631 0.74336 0.77182
 C1683 C 1.02404 0.74888 0.76614
 C1684 C 0.97713 0.73397 0.75113
 C1685 C 0.96481 0.72832 0.75658
 C1686 C 0.96269 0.72765 0.77106
 C1687 C 0.97323 0.73274 0.77990
 C1688 C 0.98540 0.73859 0.77444
 C1689 C 0.97720 0.76752 0.74823
 C1690 C 0.96484 0.77321 0.74292
 C1691 C 0.96255 0.77385 0.72847
 C1692 C 0.97297 0.76871 0.71951
 C1693 C 0.98519 0.76283 0.72483
 C1694 C 1.01584 0.77589 0.73799
 C1695 C 1.02798 0.78142 0.73212
 C1696 C 1.03836 0.77258 0.72665
 C1697 C 1.03614 0.75804 0.72700
 C1698 C 1.02388 0.75252 0.73270
 H1699 H 1.00800 0.71842 0.75715
 H1700 H 1.02904 0.70872 0.76765
 H1701 H 1.04416 0.75051 0.77567
 H1702 H 1.02254 0.76009 0.76608
 H1703 H 0.97860 0.73417 0.73997
 H1704 H 0.95691 0.72460 0.74944
 H1705 H 0.99328 0.74253 0.78151
 H1706 H 0.97880 0.76734 0.75937
 H1707 H 0.95703 0.77696 0.75015
 H1708 H 0.97177 0.76935 0.70834
 H1709 H 0.99297 0.75885 0.71767
 H1710 H 1.00807 0.78294 0.74219
 H1711 H 1.02913 0.79266 0.73173
 H1712 H 1.04393 0.75091 0.72299
 H1713 H 1.02233 0.74132 0.73266
 H1714 H 0.97217 0.73207 0.79108
 C1715 C 0.50056 0.75502 0.24489
 C1716 C 0.50060 0.74484 0.25486
 C1717 C 0.51381 0.73930 0.26095
 C1718 C 0.48743 0.73862 0.26033
 C1719 C 0.48734 0.76119 0.23945
 C1720 C 0.51371 0.76058 0.23874
 C1721 C 0.51591 0.72482 0.26164
 C1722 C 0.52809 0.71934 0.26747
 C1723 C 0.53857 0.72824 0.27266
 C1724 C 0.53637 0.74278 0.27209
 C1725 C 0.52405 0.74824 0.26646
 C1726 C 0.47721 0.73313 0.25139
 C1727 C 0.46489 0.72744 0.25679
 C1728 C 0.46270 0.72679 0.27125
 C1729 C 0.47318 0.73192 0.28014
 C1730 C 0.48536 0.73781 0.27474
 C1731 C 0.47712 0.76667 0.24840
 C1732 C 0.46477 0.77234 0.24302
 C1733 C 0.46255 0.77297 0.22856
 C1734 C 0.47304 0.76784 0.21966
 C1735 C 0.48524 0.76198 0.22504
 C1736 C 0.51579 0.77507 0.23810
 C1737 C 0.52793 0.78056 0.23221
 C1738 C 0.53837 0.77168 0.22692
 C1739 C 0.53619 0.75714 0.22743
 C1740 C 0.52390 0.75166 0.23311
 H1741 H 0.50807 0.71771 0.25765
 H1742 H 0.52920 0.70811 0.26805
 H1743 H 0.54423 0.74997 0.27586
 H1744 H 0.52253 0.75945 0.26637
 H1745 H 0.47873 0.73332 0.24024
 H1746 H 0.45703 0.72371 0.24961
 H1747 H 0.49319 0.74179 0.28184
 H1748 H 0.47866 0.76650 0.25955
 H1749 H 0.45692 0.77609 0.25020
 H1750 H 0.47191 0.76847 0.20848
 H1751 H 0.49306 0.75800 0.21793
 H1752 H 0.50798 0.78215 0.24218
 H1753 H 0.52904 0.79180 0.23168
 H1754 H 0.54402 0.74997 0.22357
 H1755 H 0.52238 0.74045 0.23318
 H1756 H 0.47207 0.73126 0.29132
 C1757 C -0.00052 0.74491 0.24510
 C1758 C -0.00052 0.75499 0.25515
 C1759 C -0.01369 0.76110 0.26072
 C1760 C 0.01268 0.76056 0.26121
 C1761 C 0.01269 0.73941 0.23898
 C1762 C -0.01368 0.73874 0.23955
 C1763 C -0.02397 0.76666 0.25188
 C1764 C -0.03626 0.77231 0.25738
 C1765 C -0.03839 0.77284 0.27186
 C1766 C -0.02787 0.76760 0.28066
 C1767 C -0.01571 0.76176 0.27515
 C1768 C 0.01478 0.77505 0.26177
 C1769 C 0.02700 0.78055 0.26746
 C1770 C 0.03750 0.77169 0.27266
 C1771 C 0.03530 0.75715 0.27224
 C1772 C 0.02294 0.75165 0.26674
 C1773 C 0.01482 0.72494 0.23835
 C1774 C 0.02701 0.71949 0.23252
 C1775 C 0.03744 0.72841 0.22728
 C1776 C 0.03521 0.74294 0.22778
 C1777 C 0.02287 0.74837 0.23340
 C1778 C -0.02400 0.73327 0.24841
 C1779 C -0.03627 0.72757 0.24292
 C1780 C -0.03832 0.72685 0.22843
 C1781 C -0.02774 0.73195 0.21963
 C1782 C -0.01563 0.73788 0.22512
 H1783 H -0.02250 0.76658 0.24072
 H1784 H -0.04415 0.77613 0.25027
 H1785 H -0.02894 0.76814 0.29185
 H1786 H -0.00784 0.75772 0.28217
 H1787 H 0.00692 0.78213 0.25774
 H1788 H 0.02813 0.79179 0.26793
 H1789 H 0.02142 0.74045 0.26673
 H1790 H 0.00702 0.71782 0.24240
 H1791 H 0.02815 0.70826 0.23198
 H1792 H 0.04303 0.75014 0.22396
 H1793 H 0.02131 0.75958 0.23347
 H1794 H -0.02258 0.73347 0.25957
 H1795 H -0.04420 0.72387 0.25005
 H1796 H -0.02872 0.73125 0.20844
 H1797 H -0.00773 0.74183 0.21808
 H1798 H 0.04317 0.74998 0.27603
 C1799 C 0.49945 0.74554 0.74553
 C1800 C 0.49936 0.75572 0.75550
 C1801 C 0.48611 0.76185 0.76097
 C1802 C 0.51252 0.76137 0.76158
 C1803 C 0.51270 0.74003 0.73950
 C1804 C 0.48634 0.73928 0.73999
 C1805 C 0.47561 0.76684 0.75206
 C1806 C 0.46322 0.77237 0.75748
 C1807 C 0.46127 0.77354 0.77196
 C1808 C 0.47208 0.76902 0.78081
 C1809 C 0.48427 0.76315 0.77538
 C1810 C 0.51453 0.77587 0.76212
 C1811 C 0.52666 0.78146 0.76794
 C1812 C 0.53716 0.77267 0.77327
 C1813 C 0.53504 0.75812 0.77285
 C1814 C 0.52277 0.75254 0.76724
 C1815 C 0.51485 0.72555 0.73891
 C1816 C 0.52706 0.72009 0.73314
 C1817 C 0.53752 0.72899 0.72791
 C1818 C 0.53527 0.74352 0.72837
 C1819 C 0.52291 0.74897 0.73394
 C1820 C 0.47612 0.73364 0.74885
 C1821 C 0.46382 0.72797 0.74338
 C1822 C 0.46164 0.72750 0.72890
 C1823 C 0.47212 0.73279 0.72009
 C1824 C 0.48428 0.73863 0.72557
 H1825 H 0.47693 0.76636 0.74089
 H1826 H 0.45515 0.77558 0.75029
 H1827 H 0.47125 0.77012 0.79197
 H1828 H 0.49231 0.75961 0.78249
 H1829 H 0.50668 0.78290 0.75801
 H1830 H 0.52770 0.79271 0.76840
 H1831 H 0.52130 0.74133 0.76725
 H1832 H 0.50704 0.71844 0.74295
 H1833 H 0.52820 0.70885 0.73263
 H1834 H 0.54310 0.75072 0.72456
 H1835 H 0.52135 0.76017 0.73395
 H1836 H 0.47762 0.73373 0.76001
 H1837 H 0.45597 0.72410 0.75050
 H1838 H 0.47101 0.73228 0.70890
 H1839 H 0.49211 0.74273 0.71852
 H1840 H 0.54292 0.75100 0.77674
 C1841 C 0.41125 0.29665 0.29522
 C1842 C 0.40863 0.31108 0.29428
 C1843 C 0.39658 0.31687 0.30016
 C1844 C 0.38698 0.30840 0.30729
 C1845 C 0.38958 0.29401 0.30830
 C1846 C 0.40151 0.28818 0.30225
 C1847 C 0.42414 0.29046 0.28904
 C1848 C 0.43093 0.27919 0.29555
 C1849 C 0.44302 0.27339 0.28980
 C1850 C 0.44882 0.27884 0.27750
 C1851 C 0.44204 0.29013 0.27099
 C1852 C 0.42983 0.29581 0.27664
 H1853 H 0.39494 0.32803 0.29936
 H1854 H 0.38227 0.28720 0.31359
 H1855 H 0.44777 0.26456 0.29500
 H1856 H 0.44627 0.29474 0.26161
 H1857 H 0.40299 0.27700 0.30294
 H1858 H 0.42702 0.27491 0.30521
 H1859 H 0.41600 0.31799 0.28923
 H1860 H 0.42480 0.30434 0.27121
 C1861 C 0.41035 0.79713 0.79546
 C1862 C 0.40665 0.81110 0.79282
 C1863 C 0.39455 0.81688 0.79859
 C1864 C 0.38595 0.80898 0.80752
 C1865 C 0.38972 0.79502 0.81023
 C1866 C 0.40162 0.78914 0.80415
 C1867 C 0.42329 0.79097 0.78932
 C1868 C 0.43086 0.78063 0.79649
 C1869 C 0.44296 0.77484 0.79076
 C1870 C 0.44810 0.77947 0.77784
 C1871 C 0.44058 0.78987 0.77070
 C1872 C 0.42828 0.79541 0.77628
 H1873 H 0.39229 0.82771 0.79633
 H1874 H 0.38336 0.78840 0.81679
 H1875 H 0.44823 0.76667 0.79650
 H1876 H 0.44424 0.79390 0.76084
 H1877 H 0.40384 0.77825 0.80618
 H1878 H 0.42758 0.77706 0.80665
 H1879 H 0.41323 0.81774 0.78649
 H1880 H 0.42266 0.80316 0.77028
 C1881 C -0.08843 0.29819 0.79552
 C1882 C -0.09139 0.31252 0.79393
 C1883 C -0.10338 0.31836 0.79987
 C1884 C -0.11250 0.31009 0.80778
 C1885 C -0.10959 0.29583 0.80944
 C1886 C -0.09779 0.28991 0.80325
 C1887 C -0.07559 0.29193 0.78933
 C1888 C -0.06861 0.28091 0.79607
 C1889 C -0.05662 0.27498 0.79030
 C1890 C -0.05102 0.28010 0.77777
 C1891 C -0.05795 0.29115 0.77103
 C1892 C -0.07013 0.29691 0.77668
 H1893 H -0.10535 0.32943 0.79856
 H1894 H -0.11658 0.28917 0.81531
 H1895 H -0.05177 0.26631 0.79568
 H1896 H -0.05389 0.29552 0.76147
 H1897 H -0.09611 0.27880 0.80443
 H1898 H -0.07230 0.27691 0.80593
 H1899 H -0.08432 0.31931 0.78831
 H1900 H -0.07529 0.30523 0.77104
 C1901 C -0.08846 0.79717 0.29604
 C1902 C -0.09060 0.81170 0.29554
 C1903 C -0.10242 0.81770 0.30164
 C1904 C -0.11229 0.80934 0.30855
 C1905 C -0.11016 0.79485 0.30912
 C1906 C -0.09844 0.78882 0.30285
 C1907 C -0.07581 0.79078 0.28963
 C1908 C -0.06925 0.77925 0.29591
 C1909 C -0.05730 0.77332 0.29003
 C1910 C -0.05143 0.77889 0.27781
 C1911 C -0.05800 0.79041 0.27151
 C1912 C -0.07007 0.79623 0.27730
 H1913 H -0.10367 0.82893 0.30118
 H1914 H -0.11766 0.78811 0.31421
 H1915 H -0.05269 0.76432 0.29507
 H1916 H -0.05370 0.79509 0.26220
 H1917 H -0.09733 0.77757 0.30319
 H1918 H -0.07324 0.77488 0.30550
 H1919 H -0.08303 0.81849 0.29060
 H1920 H -0.07495 0.80495 0.27204
 C1921 C 0.58887 0.70439 0.29693
 C1922 C 0.59878 0.69737 0.28868
 C1923 C 0.61062 0.69131 0.29470
 C1924 C 0.61295 0.69233 0.30907
 C1925 C 0.60316 0.69943 0.31732
 C1926 C 0.59120 0.70529 0.31135
 C1927 C 0.57612 0.71066 0.29057
 C1928 C 0.57036 0.72310 0.29585
 C1929 C 0.55823 0.72880 0.29007
 C1930 C 0.55163 0.72232 0.27872
 C1931 C 0.55752 0.71001 0.27329
 C1932 C 0.56953 0.70420 0.27920
 H1933 H 0.61808 0.68604 0.28806
 H1934 H 0.60458 0.70021 0.32846
 H1935 H 0.55394 0.73818 0.29466
 H1936 H 0.55290 0.70484 0.26441
 H1937 H 0.58368 0.71032 0.31810
 H1938 H 0.57526 0.72851 0.30444
 H1939 H 0.59751 0.69669 0.27753
 H1940 H 0.57351 0.69453 0.27495
 C1941 C 0.58747 0.20393 0.79745
 C1942 C 0.58938 0.20448 0.81195
 C1943 C 0.60101 0.19822 0.81815
 C1944 C 0.61088 0.19107 0.81005
 C1945 C 0.60899 0.19043 0.79559
 C1946 C 0.59748 0.19687 0.78935
 C1947 C 0.57501 0.21050 0.79085
 C1948 C 0.56861 0.20431 0.77923
 C1949 C 0.55677 0.21031 0.77319
 C1950 C 0.55085 0.22255 0.77873
 C1951 C 0.55730 0.22881 0.79029
 C1952 C 0.56927 0.22292 0.79621
 H1953 H 0.60213 0.19876 0.82934
 H1954 H 0.61654 0.18517 0.78905
 H1955 H 0.55227 0.20532 0.76414
 H1956 H 0.55298 0.23815 0.79495
 H1957 H 0.59655 0.19647 0.77815
 H1958 H 0.57259 0.19467 0.77490
 H1959 H 0.58176 0.20954 0.81857
 H1960 H 0.57403 0.22813 0.80500
 C1961 C 1.08841 0.70463 0.79694
 C1962 C 1.09064 0.70541 0.81138
 C1963 C 1.10247 0.69934 0.81741
 C1964 C 1.11221 0.69215 0.80918
 C1965 C 1.11001 0.69130 0.79478
 C1966 C 1.09831 0.69756 0.78872
 C1967 C 1.07576 0.71100 0.79051
 C1968 C 1.06923 0.70463 0.77905
 C1969 C 1.05731 0.71052 0.77307
 C1970 C 1.05142 0.72282 0.77851
 C1971 C 1.05795 0.72922 0.78995
 C1972 C 1.07001 0.72343 0.79581
 H1973 H 1.10383 0.70003 0.82857
 H1974 H 1.11745 0.68599 0.78816
 H1975 H 1.05275 0.70543 0.76411
 H1976 H 1.05366 0.73860 0.79455
 H1977 H 1.09714 0.69699 0.77755
 H1978 H 1.07319 0.69495 0.77479
 H1979 H 1.08312 0.71049 0.81810
 H1980 H 1.07485 0.72877 0.80448
 C1981 C 1.08821 0.20432 0.29708
 C1982 C 1.09800 0.19705 0.28888
 C1983 C 1.10967 0.19074 0.29495
 C1984 C 1.11198 0.19178 0.30932
 C1985 C 1.10238 0.19918 0.31751
 C1986 C 1.09056 0.20528 0.31149
 C1987 C 1.07554 0.21069 0.29066
 C1988 C 1.06985 0.22318 0.29589
 C1989 C 1.05775 0.22892 0.29008
 C1990 C 1.05111 0.22244 0.27875
 C1991 C 1.05696 0.21009 0.27336
 C1992 C 1.06892 0.20424 0.27930
 H1993 H 1.11702 0.18526 0.28836
 H1994 H 1.10382 0.20001 0.32865
 H1995 H 1.05349 0.23833 0.29465
 H1996 H 1.05233 0.20492 0.26448
 H1997 H 1.08314 0.21051 0.31820
 H1998 H 1.07477 0.22859 0.30447
 H1999 H 1.09675 0.19634 0.27772
 H2000 H 1.07283 0.19452 0.27508
 C2001 C 0.58851 0.29617 0.70328
 C2002 C 0.59835 0.30321 0.71160
 C2003 C 0.61023 0.30928 0.70567
 C2004 C 0.61268 0.30826 0.69132
 C2005 C 0.60295 0.30117 0.68300
 C2006 C 0.59095 0.29530 0.68888
 C2007 C 0.57573 0.28987 0.70955
 C2008 C 0.57002 0.27744 0.70420
 C2009 C 0.55785 0.27172 0.70989
 C2010 C 0.55116 0.27816 0.72122
 C2011 C 0.55700 0.29046 0.72671
 C2012 C 0.56904 0.29629 0.72089
 H2013 H 0.61763 0.31455 0.71237
 H2014 H 0.60445 0.30039 0.67187
 H2015 H 0.55360 0.26234 0.70525
 H2016 H 0.55231 0.29560 0.73558
 H2017 H 0.58349 0.29026 0.68207
 H2018 H 0.57498 0.27206 0.69563
 H2019 H 0.59700 0.30388 0.72275
 H2020 H 0.57298 0.30596 0.72520
 C2021 C 0.58851 0.79568 0.20255
 C2022 C 0.59076 0.79495 0.18811
 C2023 C 0.60264 0.80096 0.18213
 C2024 C 0.61241 0.80805 0.19040
 C2025 C 0.61018 0.80887 0.20480
 C2026 C 0.59844 0.80265 0.21082
 C2027 C 0.57581 0.78935 0.20894
 C2028 C 0.56929 0.79571 0.22041
 C2029 C 0.55733 0.78987 0.22634
 C2030 C 0.55139 0.77762 0.22083
 C2031 C 0.55792 0.77124 0.20938
 C2032 C 0.57002 0.77697 0.20357
 H2033 H 0.60402 0.80031 0.17098
 H2034 H 0.61765 0.81410 0.21145
 H2035 H 0.55276 0.79496 0.23530
 H2036 H 0.55358 0.76190 0.20473
 H2037 H 0.59725 0.80318 0.22200
 H2038 H 0.57330 0.80535 0.22472
 H2039 H 0.58323 0.78994 0.18136
 H2040 H 0.57486 0.77164 0.19489
 C2041 C 1.08801 0.29632 0.20287
 C2042 C 1.08995 0.29601 0.18838
 C2043 C 1.10178 0.30203 0.18234
 C2044 C 1.11188 0.30867 0.19061
 C2045 C 1.10992 0.30911 0.20507
 C2046 C 1.09817 0.30293 0.21114
 C2047 C 1.07540 0.28987 0.20930
 C2048 C 1.06900 0.29600 0.22095
 C2049 C 1.05705 0.29007 0.22685
 C2050 C 1.05106 0.27793 0.22117
 C2051 C 1.05752 0.27174 0.20957
 C2052 C 1.06957 0.27758 0.20377
 H2053 H 1.10290 0.30168 0.17115
 H2054 H 1.11761 0.31399 0.21175
 H2055 H 1.05253 0.29501 0.23592
 H2056 H 1.05314 0.26248 0.20481
 H2057 H 1.09718 0.30317 0.22235
 H2058 H 1.07307 0.30555 0.22541
 H2059 H 1.08222 0.29130 0.18165
 H2060 H 1.07433 0.27242 0.19495
 C2061 C 1.08852 0.79666 0.70243
 C2062 C 1.09877 0.80294 0.71085
 C2063 C 1.11069 0.80895 0.70493
 C2064 C 1.11273 0.80866 0.69048
 C2065 C 1.10254 0.80237 0.68205
 C2066 C 1.09054 0.79651 0.68795
 C2067 C 1.07577 0.79036 0.70873
 C2068 C 1.06977 0.77822 0.70307
 C2069 C 1.05768 0.77243 0.70887
 C2070 C 1.05136 0.77857 0.72057
 C2071 C 1.05747 0.79061 0.72632
 C2072 C 1.06945 0.79648 0.72044
 H2073 H 1.11843 0.81356 0.71172
 H2074 H 1.10372 0.80214 0.67086
 H2075 H 1.05320 0.76326 0.70405
 H2076 H 1.05303 0.79550 0.73546
 H2077 H 1.08274 0.79204 0.68111
 H2078 H 1.07446 0.77309 0.69419
 H2079 H 1.09772 0.80304 0.72205
 H2080 H 1.07365 0.80593 0.72498
 C2081 C 0.41147 0.70332 0.70480
 C2082 C 0.40141 0.71169 0.69812
 C2083 C 0.38968 0.70566 0.69188
 C2084 C 0.38763 0.69114 0.69231
 C2085 C 0.39759 0.68277 0.69907
 C2086 C 0.40940 0.68877 0.70517
 C2087 C 0.42414 0.70969 0.71118
 C2088 C 0.42994 0.70416 0.72344
 C2089 C 0.44204 0.70993 0.72922
 C2090 C 0.44858 0.72149 0.72296
 C2091 C 0.44264 0.72716 0.71083
 C2092 C 0.43065 0.72129 0.70497
 H2093 H 0.38212 0.71241 0.68688
 H2094 H 0.39642 0.67153 0.69942
 H2095 H 0.44638 0.70518 0.73847
 H2096 H 0.44722 0.73621 0.70584
 H2097 H 0.41705 0.68196 0.70995
 H2098 H 0.42510 0.69537 0.72864
 H2099 H 0.40250 0.72293 0.69784
 H2100 H 0.42662 0.72574 0.69543
 C2101 C 0.41191 0.20227 0.20483
 C2102 C 0.40202 0.21060 0.19786
 C2103 C 0.39034 0.20457 0.19156
 C2104 C 0.38813 0.19010 0.19227
 C2105 C 0.39788 0.18175 0.19934
 C2106 C 0.40969 0.18775 0.20546
 C2107 C 0.42457 0.20867 0.21120
 C2108 C 0.43028 0.20330 0.22358
 C2109 C 0.44236 0.20914 0.22934
 C2110 C 0.44895 0.22060 0.22295
 C2111 C 0.44307 0.22612 0.21072
 C2112 C 0.43113 0.22016 0.20487
 H2113 H 0.38293 0.21128 0.18629
 H2114 H 0.39657 0.17053 0.19986
 H2115 H 0.44665 0.20451 0.23867
 H2116 H 0.44769 0.23508 0.20563
 H2117 H 0.41721 0.18096 0.21047
 H2118 H 0.42540 0.19460 0.22888
 H2119 H 0.40320 0.22184 0.19740
 H2120 H 0.42719 0.22447 0.19523
 C2121 C -0.08881 0.70296 0.20462
 C2122 C -0.09841 0.71140 0.19737
 C2123 C -0.11034 0.70559 0.19132
 C2124 C -0.11310 0.69125 0.19257
 C2125 C -0.10365 0.68280 0.19992
 C2126 C -0.09158 0.68856 0.20578
 C2127 C -0.07595 0.70913 0.21083
 C2128 C -0.07039 0.70390 0.22333
 C2129 C -0.05822 0.70959 0.22903
 C2130 C -0.05137 0.72081 0.22248
 C2131 C -0.05703 0.72614 0.21007
 C2132 C -0.06906 0.72031 0.20426
 H2133 H -0.11754 0.71238 0.18586
 H2134 H -0.10542 0.67168 0.20090
 H2135 H -0.05410 0.70506 0.23849
 H2136 H -0.05223 0.73492 0.20482
 H2137 H -0.08432 0.68167 0.21100
 H2138 H -0.07550 0.69544 0.22882
 H2139 H -0.09683 0.72256 0.19651
 H2140 H -0.07285 0.72449 0.19451
 C2141 C -0.08821 0.20342 0.70480
 C2142 C -0.09809 0.21176 0.69783
 C2143 C -0.10983 0.20575 0.69159
 C2144 C -0.11208 0.19128 0.69234
 C2145 C -0.10233 0.18293 0.69941
 C2146 C -0.09049 0.18891 0.70549
 C2147 C -0.07552 0.20978 0.71116
 C2148 C -0.06985 0.20442 0.72356
 C2149 C -0.05775 0.21021 0.72932
 C2150 C -0.05110 0.22164 0.72294
 C2151 C -0.05691 0.22713 0.71067
 C2152 C -0.06888 0.22123 0.70481
 H2153 H -0.11726 0.21248 0.68637
 H2154 H -0.10369 0.17172 0.70002
 H2155 H -0.05352 0.20558 0.73868
 H2156 H -0.05225 0.23607 0.70557
 H2157 H -0.08299 0.18210 0.71051
 H2158 H -0.07478 0.19575 0.72887
 H2159 H -0.09687 0.22299 0.69732
 H2160 H -0.07280 0.22553 0.69516
 C2161 C 0.29580 0.41241 0.29657
 C2162 C 0.30276 0.40238 0.28842
 C2163 C 0.30917 0.39083 0.29462
 C2164 C 0.30858 0.38891 0.30907
 C2165 C 0.30152 0.39881 0.31723
 C2166 C 0.29530 0.41048 0.31107
 C2167 C 0.28925 0.42491 0.29001
 C2168 C 0.27685 0.43066 0.29540
 C2169 C 0.27097 0.44264 0.28949
 C2170 C 0.27724 0.44910 0.27793
 C2171 C 0.28947 0.44317 0.27237
 C2172 C 0.29545 0.43131 0.27839
 H2173 H 0.31436 0.38326 0.28804
 H2174 H 0.30103 0.39769 0.32842
 H2175 H 0.26163 0.44697 0.29416
 H2176 H 0.29447 0.44768 0.26332
 H2177 H 0.29030 0.41811 0.31772
 H2178 H 0.27163 0.42590 0.30419
 H2179 H 0.30313 0.40334 0.27722
 H2180 H 0.30509 0.42732 0.27404
 C2181 C 0.29585 -0.08760 0.79689
 C2182 C 0.29311 -0.09092 0.81087
 C2183 C 0.29931 -0.10254 0.81715
 C2184 C 0.30878 -0.11100 0.80975
 C2185 C 0.31161 -0.10759 0.79578
 C2186 C 0.30509 -0.09621 0.78941
 C2187 C 0.28931 -0.07511 0.79021
 C2188 C 0.29640 -0.06767 0.77975
 C2189 C 0.29041 -0.05589 0.77363
 C2190 C 0.27730 -0.05089 0.77803
 C2191 C 0.27017 -0.05835 0.78846
 C2192 C 0.27602 -0.07037 0.79434
 H2193 H 0.29694 -0.10454 0.82796
 H2194 H 0.31858 -0.11389 0.78953
 H2195 H 0.29613 -0.05071 0.76540
 H2196 H 0.26015 -0.05481 0.79231
 H2197 H 0.30722 -0.09431 0.77852
 H2198 H 0.30673 -0.07078 0.77638
 H2199 H 0.28636 -0.08440 0.81714
 H2200 H 0.27004 -0.07592 0.80213
 C2201 C 0.79660 0.41296 0.79759
 C2202 C 0.80569 0.40445 0.78982
 C2203 C 0.81186 0.39263 0.79575
 C2204 C 0.80881 0.38869 0.80953
 C2205 C 0.79962 0.39716 0.81726
 C2206 C 0.79376 0.40920 0.81145
 C2207 C 0.79017 0.42570 0.79129
 C2208 C 0.77687 0.43036 0.79548
 C2209 C 0.77098 0.44243 0.78975
 C2210 C 0.77807 0.45003 0.77939
 C2211 C 0.79125 0.44520 0.77501
 C2212 C 0.79728 0.43335 0.78099
 H2213 H 0.81865 0.38640 0.78926
 H2214 H 0.79713 0.39477 0.82797
 H2215 H 0.76093 0.44586 0.79360
 H2216 H 0.79696 0.45050 0.76686
 H2217 H 0.78715 0.41564 0.81794
 H2218 H 0.77089 0.42467 0.80317
 H2219 H 0.80790 0.40672 0.77903
 H2220 H 0.80763 0.43032 0.77760
 C2221 C 0.79703 -0.08788 0.29570
 C2222 C 0.78916 -0.09642 0.30466
 C2223 C 0.79518 -0.10804 0.31109
 C2224 C 0.80917 -0.11175 0.30845
 C2225 C 0.81695 -0.10337 0.29921
 C2226 C 0.81102 -0.09153 0.29308
 C2227 C 0.79071 -0.07516 0.28926
 C2228 C 0.79503 -0.07041 0.27609
 C2229 C 0.78936 -0.05825 0.27032
 C2230 C 0.77899 -0.05064 0.27741
 C2231 C 0.77448 -0.05558 0.29045
 C2232 C 0.78038 -0.06752 0.29636
 H2233 H 0.78863 -0.11424 0.31787
 H2234 H 0.82780 -0.10562 0.29697
 H2235 H 0.79330 -0.05473 0.26037
 H2236 H 0.76632 -0.05027 0.29616
 H2237 H 0.81753 -0.08512 0.28646
 H2238 H 0.80275 -0.07610 0.27013
 H2239 H 0.77823 -0.09429 0.30662
 H2240 H 0.77691 -0.07063 0.30660
 C2241 C 0.29715 0.58779 0.70483
 C2242 C 0.31171 0.58987 0.70533
 C2243 C 0.31777 0.60161 0.69913
 C2244 C 0.30946 0.61143 0.69212
 C2245 C 0.29494 0.60940 0.69163
 C2246 C 0.28884 0.59778 0.69799
 C2247 C 0.29070 0.57514 0.71119
 C2248 C 0.27914 0.56867 0.70488
 C2249 C 0.27318 0.55670 0.71069
 C2250 C 0.27875 0.55072 0.72285
 C2251 C 0.29027 0.55723 0.72920
 C2252 C 0.29612 0.56932 0.72349
 H2253 H 0.32901 0.60281 0.69955
 H2254 H 0.28823 0.61690 0.68648
 H2255 H 0.26417 0.55214 0.70563
 H2256 H 0.29495 0.55286 0.73848
 H2257 H 0.27759 0.59671 0.69764
 H2258 H 0.27478 0.57270 0.69531
 H2259 H 0.31848 0.58228 0.71026
 H2260 H 0.30488 0.57413 0.72876
 C2261 C 0.29665 1.08724 0.20380
 C2262 C 0.31123 1.08908 0.20371
 C2263 C 0.31721 1.10089 0.19758
 C2264 C 0.30877 1.11110 0.19129
 C2265 C 0.29421 1.10927 0.19131
 C2266 C 0.28821 1.09752 0.19755
 C2267 C 0.29029 1.07461 0.21026
 C2268 C 0.27848 1.06828 0.20428
 C2269 C 0.27261 1.05632 0.21020
 C2270 C 0.27848 1.05026 0.22218
 C2271 C 0.29025 1.05663 0.22821
 C2272 C 0.29604 1.06869 0.22236
 H2273 H 0.32848 1.10189 0.19760
 H2274 H 0.28739 1.11702 0.18671
 H2275 H 0.26342 1.05184 0.20539
 H2276 H 0.29515 1.05219 0.23734
 H2277 H 0.27693 1.09660 0.19764
 H2278 H 0.27387 1.07243 0.19487
 H2279 H 0.31807 1.08127 0.20817
 H2280 H 0.30501 1.07339 0.22736
 C2281 C 0.79601 0.58698 0.20303
 C2282 C 0.80308 0.59684 0.21128
 C2283 C 0.80934 0.60855 0.20525
 C2284 C 0.80848 0.61080 0.19086
 C2285 C 0.80133 0.60107 0.18259
 C2286 C 0.79526 0.58923 0.18859
 C2287 C 0.78955 0.57436 0.20943
 C2288 C 0.77705 0.56874 0.20413
 C2289 C 0.77117 0.55674 0.20999
 C2290 C 0.77753 0.55013 0.22142
 C2291 C 0.78990 0.55589 0.22685
 C2292 C 0.79588 0.56777 0.22087
 H2293 H 0.81461 0.61598 0.21190
 H2294 H 0.80063 0.60247 0.17145
 H2295 H 0.76174 0.55253 0.20540
 H2296 H 0.79498 0.55127 0.23579
 H2297 H 0.79016 0.58175 0.18185
 H2298 H 0.77174 0.57366 0.19549
 H2299 H 0.80363 0.59564 0.22245
 H2300 H 0.80560 0.57164 0.22514
 C2301 C 0.79698 1.08788 0.70535
 C2302 C 0.78870 1.09766 0.69817
 C2303 C 0.79479 1.10924 0.69172
 C2304 C 0.80927 1.11145 0.69249
 C2305 C 0.81755 1.10185 0.69983
 C2306 C 0.81150 1.09014 0.70610
 C2307 C 0.79053 1.07527 0.71180
 C2308 C 0.79584 1.06964 0.72424
 C2309 C 0.79000 1.05758 0.73004
 C2310 C 0.77860 1.05091 0.72364
 C2311 C 0.77313 1.05671 0.71135
 C2312 C 0.77909 1.06864 0.70545
 H2313 H 0.78812 1.11658 0.68632
 H2314 H 0.82876 1.10321 0.70048
 H2315 H 0.79461 1.05336 0.73942
 H2316 H 0.76419 1.05206 0.70624
 H2317 H 0.81825 1.08272 0.71129
 H2318 H 0.80450 1.07457 0.72956
 H2319 H 0.77747 1.09648 0.69763
 H2320 H 0.77481 1.07251 0.69577
 C2321 C 0.70383 0.58804 0.29732
 C2322 C 0.70442 0.59009 0.31179
 C2323 C 0.69840 0.60190 0.31786
 C2324 C 0.69147 0.61185 0.30965
 C2325 C 0.69077 0.60980 0.29521
 C2326 C 0.69696 0.59809 0.28911
 C2327 C 0.71023 0.57542 0.29088
 C2328 C 0.70391 0.56893 0.27937
 C2329 C 0.70976 0.55695 0.27348
 C2330 C 0.72198 0.55098 0.27905
 C2331 C 0.72836 0.55752 0.29049
 C2332 C 0.72261 0.56962 0.29627
 H2333 H 0.69895 0.60309 0.32904
 H2334 H 0.68565 0.61738 0.28859
 H2335 H 0.70468 0.55237 0.26453
 H2336 H 0.73768 0.55317 0.29517
 H2337 H 0.69652 0.59702 0.27792
 H2338 H 0.69430 0.57297 0.27502
 H2339 H 0.70933 0.58244 0.31850
 H2340 H 0.72792 0.57445 0.30497
 C2341 C 0.70300 1.08909 0.79618
 C2342 C 0.71101 1.09764 0.80500
 C2343 C 0.70523 1.10957 0.81108
 C2344 C 0.69135 1.11357 0.80824
 C2345 C 0.68343 1.10513 0.79920
 C2346 C 0.68910 1.09299 0.79343
 C2347 C 0.70906 1.07611 0.79000
 C2348 C 0.70467 1.07126 0.77690
 C2349 C 0.71013 1.05894 0.77129
 C2350 C 0.72039 1.05126 0.77846
 C2351 C 0.72496 1.05626 0.79144
 C2352 C 0.71925 1.06837 0.79720
 H2353 H 0.71187 1.11580 0.81774
 H2354 H 0.67265 1.10756 0.79684
 H2355 H 0.70614 1.05540 0.76138
 H2356 H 0.73304 1.05087 0.79721
 H2357 H 0.68243 1.08655 0.78699
 H2358 H 0.69704 1.07700 0.77087
 H2359 H 0.72185 1.09526 0.80713
 H2360 H 0.72277 1.07154 0.80741
 C2361 C 0.20271 0.58802 0.79528
 C2362 C 0.21114 0.59766 0.80247
 C2363 C 0.20525 0.60943 0.80874
 C2364 C 0.19085 0.61200 0.80776
 C2365 C 0.18242 0.60256 0.80039
 C2366 C 0.18826 0.59064 0.79433
 C2367 C 0.20894 0.57521 0.78902
 C2368 C 0.20361 0.56959 0.77659
 C2369 C 0.20930 0.55740 0.77092
 C2370 C 0.22058 0.55062 0.77741
 C2371 C 0.22604 0.55637 0.78972
 C2372 C 0.22022 0.56841 0.79550
 H2373 H 0.21204 0.61665 0.81417
 H2374 H 0.17126 0.60422 0.79959
 H2375 H 0.20469 0.55321 0.76153
 H2376 H 0.23489 0.55162 0.79490
 H2377 H 0.18138 0.58334 0.78914
 H2378 H 0.19508 0.57462 0.77118
 H2379 H 0.22233 0.59621 0.80317
 H2380 H 0.22449 0.57226 0.80519
 C2381 C 0.20270 1.08780 0.29510
 C2382 C 0.18821 1.09022 0.29435
 C2383 C 0.18231 1.10209 0.30044
 C2384 C 0.19072 1.11169 0.30763
 C2385 C 0.20518 1.10932 0.30839
 C2386 C 0.21112 1.09759 0.30210
 C2387 C 0.20899 1.07502 0.28883
 C2388 C 0.22042 1.06837 0.29522
 C2389 C 0.22627 1.05634 0.28944
 C2390 C 0.22072 1.05045 0.27724
 C2391 C 0.20931 1.05710 0.27082
 C2392 C 0.20358 1.06928 0.27649
 H2393 H 0.17111 1.10358 0.29982
 H2394 H 0.21194 1.11665 0.31369
 H2395 H 0.23520 1.05168 0.29456
 H2396 H 0.20463 1.05281 0.26152
 H2397 H 0.22234 1.09628 0.30263
 H2398 H 0.22476 1.07233 0.30482
 H2399 H 0.18135 1.08281 0.28930
 H2400 H 0.19494 1.07421 0.27115
 C2401 C 0.70391 0.41236 0.70332
 C2402 C 0.69695 0.40238 0.71155
 C2403 C 0.69072 0.39068 0.70547
 C2404 C 0.69147 0.38857 0.69105
 C2405 C 0.69847 0.39846 0.68281
 C2406 C 0.70452 0.41026 0.68886
 C2407 C 0.71035 0.42498 0.70974
 C2408 C 0.72275 0.43071 0.70433
 C2409 C 0.72854 0.44281 0.71008
 C2410 C 0.72217 0.44941 0.72150
 C2411 C 0.70993 0.44349 0.72708
 C2412 C 0.70405 0.43152 0.72122
 H2413 H 0.68554 0.38315 0.71210
 H2414 H 0.69906 0.39722 0.67164
 H2415 H 0.73788 0.44711 0.70540
 H2416 H 0.70486 0.44810 0.73603
 H2417 H 0.70950 0.41785 0.68214
 H2418 H 0.72805 0.42584 0.69565
 H2419 H 0.69647 0.40349 0.72273
 H2420 H 0.69441 0.42753 0.72558
 C2421 C 0.70302 -0.08812 0.20464
 C2422 C 0.71147 -0.09773 0.19743
 C2423 C 0.70560 -0.10948 0.19110
 C2424 C 0.69120 -0.11205 0.19205
 C2425 C 0.68275 -0.10264 0.19944
 C2426 C 0.68857 -0.09075 0.20556
 C2427 C 0.70921 -0.07533 0.21096
 C2428 C 0.70386 -0.06975 0.22340
 C2429 C 0.70950 -0.05755 0.22910
 C2430 C 0.72076 -0.05071 0.22261
 C2431 C 0.72625 -0.05645 0.21031
 C2432 C 0.72049 -0.06850 0.20450
 H2433 H 0.71239 -0.11667 0.18564
 H2434 H 0.67159 -0.10429 0.20021
 H2435 H 0.70486 -0.05338 0.23849
 H2436 H 0.73508 -0.05166 0.20513
 H2437 H 0.68168 -0.08348 0.21078
 H2438 H 0.69534 -0.07482 0.22880
 H2439 H 0.72266 -0.09627 0.19676
 H2440 H 0.72478 -0.07232 0.19482
 C2441 C 0.20399 0.41160 0.20246
 C2442 C 0.19729 0.40161 0.21087
 C2443 C 0.19132 0.38965 0.20501
 C2444 C 0.19210 0.38730 0.19063
 C2445 C 0.19886 0.39719 0.18221
 C2446 C 0.20465 0.40925 0.18803
 C2447 C 0.21020 0.42444 0.20867
 C2448 C 0.22251 0.43030 0.20318
 C2449 C 0.22818 0.44249 0.20887
 C2450 C 0.22181 0.44905 0.22030
 C2451 C 0.20962 0.44307 0.22591
 C2452 C 0.20384 0.43100 0.22012
 H2453 H 0.18633 0.38213 0.21179
 H2454 H 0.19946 0.39576 0.17107
 H2455 H 0.23748 0.44685 0.20415
 H2456 H 0.20452 0.44766 0.23486
 H2457 H 0.20944 0.41682 0.18118
 H2458 H 0.22784 0.42544 0.19452
 H2459 H 0.19680 0.40290 0.22204
 H2460 H 0.19426 0.42693 0.22453
 C2461 C 0.20287 -0.08742 0.70194
 C2462 C 0.19611 -0.09741 0.71032
 C2463 C 0.19003 -0.10927 0.70440
 C2464 C 0.19071 -0.11152 0.68999
 C2465 C 0.19745 -0.10158 0.68160
 C2466 C 0.20338 -0.08963 0.68749
 C2467 C 0.20931 -0.07475 0.70824
 C2468 C 0.22171 -0.06907 0.70277
 C2469 C 0.22761 -0.05703 0.70854
 C2470 C 0.22134 -0.05044 0.72002
 C2471 C 0.20906 -0.05625 0.72561
 C2472 C 0.20308 -0.06817 0.71974
 H2473 H 0.18508 -0.11683 0.71117
 H2474 H 0.19800 -0.10294 0.67045
 H2475 H 0.23698 -0.05279 0.70384
 H2476 H 0.20406 -0.05163 0.73459
 H2477 H 0.20821 -0.08203 0.68067
 H2478 H 0.22695 -0.07396 0.69407
 H2479 H 0.19572 -0.09620 0.72150
 H2480 H 0.19344 -0.07211 0.72413
 C2481 C 0.29577 0.29673 0.41186
 C2482 C 0.30256 0.28837 0.40190
 C2483 C 0.30878 0.29438 0.39020
 C2484 C 0.30820 0.30888 0.38806
 C2485 C 0.30134 0.31725 0.39791
 C2486 C 0.29528 0.31126 0.40972
 C2487 C 0.28939 0.29037 0.42450
 C2488 C 0.27704 0.29586 0.43026
 C2489 C 0.27128 0.29010 0.44233
 C2490 C 0.27762 0.27859 0.44887
 C2491 C 0.28983 0.27295 0.44296
 C2492 C 0.29568 0.27881 0.43101
 H2493 H 0.31384 0.28764 0.38270
 H2494 H 0.30087 0.32847 0.39664
 H2495 H 0.26196 0.29484 0.44664
 H2496 H 0.29488 0.26394 0.44755
 H2497 H 0.29041 0.31808 0.41728
 H2498 H 0.27176 0.30460 0.42542
 H2499 H 0.30292 0.27712 0.40305
 H2500 H 0.30529 0.27440 0.42700
 C2501 C 0.29578 0.79705 -0.08800
 C2502 C 0.30227 0.78870 -0.09816
 C2503 C 0.30844 0.79477 -0.10987
 C2504 C 0.30812 0.80930 -0.11179
 C2505 C 0.30156 0.81766 -0.10172
 C2506 C 0.29554 0.81162 -0.08992
 C2507 C 0.28944 0.79063 -0.07538
 C2508 C 0.27722 0.79623 -0.06945
 C2509 C 0.27149 0.79042 -0.05739
 C2510 C 0.27775 0.77876 -0.05102
 C2511 C 0.28983 0.77302 -0.05710
 C2512 C 0.29564 0.77893 -0.06906
 H2513 H 0.31326 0.78803 -0.11753
 H2514 H 0.30130 0.82891 -0.10281
 H2515 H 0.26228 0.79522 -0.05294
 H2516 H 0.29481 0.76391 -0.05264
 H2517 H 0.29091 0.81841 -0.08220
 H2518 H 0.27202 0.80509 -0.07415
 H2519 H 0.30244 0.77744 -0.09717
 H2520 H 0.30514 0.77443 -0.07321
 C2521 C 0.79723 0.29692 -0.08764
 C2522 C 0.81178 0.29663 -0.08979
 C2523 C 0.81766 0.30276 -0.10162
 C2524 C 0.80916 0.30950 -0.11145
 C2525 C 0.79466 0.30986 -0.10931
 C2526 C 0.78875 0.30355 -0.09760
 C2527 C 0.79095 0.29049 -0.07499
 C2528 C 0.77926 0.29661 -0.06856
 C2529 C 0.77341 0.29068 -0.05664
 C2530 C 0.77921 0.27858 -0.05068
 C2531 C 0.79087 0.27242 -0.05713
 C2532 C 0.79662 0.27825 -0.06917
 H2533 H 0.82889 0.30245 -0.10293
 H2534 H 0.78782 0.31479 -0.11682
 H2535 H 0.76429 0.29559 -0.05213
 H2536 H 0.79573 0.26319 -0.05276
 H2537 H 0.77749 0.30373 -0.09647
 H2538 H 0.77471 0.30613 -0.07260
 H2539 H 0.81867 0.29187 -0.08224
 H2540 H 0.80547 0.27311 -0.07395
 C2541 C 0.79513 0.79701 0.41190
 C2542 C 0.80207 0.78850 0.40216
 C2543 C 0.80803 0.79428 0.39021
 C2544 C 0.80700 0.80866 0.38757
 C2545 C 0.79997 0.81717 0.39718
 C2546 C 0.79421 0.81144 0.40925
 C2547 C 0.78901 0.79090 0.42479
 C2548 C 0.77662 0.79633 0.43054
 C2549 C 0.77103 0.79075 0.44277
 C2550 C 0.77757 0.77946 0.44950
 C2551 C 0.78985 0.77391 0.44365
 C2552 C 0.79555 0.77962 0.43154
 H2553 H 0.81325 0.78744 0.38290
 H2554 H 0.79919 0.82833 0.39552
 H2555 H 0.76167 0.79543 0.44703
 H2556 H 0.79507 0.76507 0.44837
 H2557 H 0.78925 0.81840 0.41663
 H2558 H 0.77115 0.80486 0.42554
 H2559 H 0.80277 0.77732 0.40368
 H2560 H 0.80520 0.77526 0.42758
 C2561 C 0.70455 0.29713 0.58764
 C2562 C 0.70518 0.31167 0.58971
 C2563 C 0.69896 0.31779 0.60136
 C2564 C 0.69178 0.30955 0.61109
 C2565 C 0.69110 0.29505 0.60906
 C2566 C 0.69751 0.28890 0.59754
 C2567 C 0.71101 0.29062 0.57513
 C2568 C 0.70469 0.27907 0.56866
 C2569 C 0.71059 0.27308 0.55680
 C2570 C 0.72287 0.27860 0.55093
 C2571 C 0.72925 0.29010 0.55743
 C2572 C 0.72345 0.29598 0.56942
 H2573 H 0.69952 0.32902 0.60258
 H2574 H 0.68582 0.28841 0.61651
 H2575 H 0.70551 0.26407 0.55226
 H2576 H 0.73862 0.29475 0.55314
 H2577 H 0.69705 0.27765 0.59648
 H2578 H 0.69502 0.27475 0.57261
 H2579 H 0.71025 0.31839 0.58219
 H2580 H 0.72875 0.30471 0.57423
 C2581 C 0.70525 0.79705 1.08779
 C2582 C 0.69806 0.78876 1.09754
 C2583 C 0.69180 0.79479 1.10920
 C2584 C 0.69278 0.80923 1.11154
 C2585 C 0.70013 0.81752 1.10198
 C2586 C 0.70619 0.81153 1.09017
 C2587 C 0.71155 0.79065 1.07513
 C2588 C 0.72402 0.79591 1.06942
 C2589 C 0.72972 0.79007 1.05736
 C2590 C 0.72320 0.77869 1.05078
 C2591 C 0.71085 0.77329 1.05663
 C2592 C 0.70505 0.77926 1.06855
 H2593 H 0.68638 0.78811 1.11651
 H2594 H 0.70092 0.82871 1.10345
 H2595 H 0.73914 0.79464 1.05309
 H2596 H 0.70564 0.76439 1.05204
 H2597 H 0.71138 0.81831 1.08279
 H2598 H 0.72946 0.80452 1.07430
 H2599 H 0.69738 0.77755 1.09626
 H2600 H 0.69533 0.77503 1.07247
 C2601 C 0.20335 0.29515 1.08730
 C2602 C 0.21159 0.30225 1.09715
 C2603 C 0.20543 0.30872 1.10864
 C2604 C 0.19092 0.30806 1.11069
 C2605 C 0.18268 0.30083 1.10100
 C2606 C 0.18880 0.29454 1.08938
 C2607 C 0.20988 0.28860 1.07484
 C2608 C 0.20450 0.27615 1.06919
 C2609 C 0.21039 0.27027 1.05725
 C2610 C 0.22194 0.27657 1.05073
 C2611 C 0.22749 0.28885 1.05654
 C2612 C 0.22148 0.29484 1.06835
 H2613 H 0.21207 0.31403 1.11605
 H2614 H 0.17144 0.30028 1.10223
 H2615 H 0.20572 0.26090 1.05301
 H2616 H 0.23653 0.29388 1.05198
 H2617 H 0.18208 0.28943 1.08191
 H2618 H 0.19573 0.27090 1.07402
 H2619 H 0.22284 0.30269 1.09609
 H2620 H 0.22582 0.30451 1.07225
 C2621 C 0.20470 0.79688 0.58686
 C2622 C 0.19705 0.78872 0.59637
 C2623 C 0.19068 0.79485 0.60792
 C2624 C 0.19203 0.80922 0.61040
 C2625 C 0.19980 0.81739 0.60106
 C2626 C 0.20595 0.81131 0.58935
 C2627 C 0.21117 0.79039 0.57432
 C2628 C 0.22388 0.79543 0.56894
 C2629 C 0.22973 0.78956 0.55697
 C2630 C 0.22313 0.77835 0.55017
 C2631 C 0.21056 0.77315 0.55572
 C2632 C 0.20460 0.77916 0.56754
 H2633 H 0.18493 0.78827 0.61507
 H2634 H 0.20089 0.82853 0.60266
 H2635 H 0.23932 0.79398 0.55294
 H2636 H 0.20529 0.76436 0.55098
 H2637 H 0.21150 0.81800 0.58215
 H2638 H 0.22939 0.80389 0.57399
 H2639 H 0.19611 0.77754 0.59501
 H2640 H 0.19472 0.77510 0.57121
 C2641 C 0.29597 0.70270 0.58819
 C2642 C 0.30283 0.71119 0.59799
 C2643 C 0.30888 0.70536 0.60988
 C2644 C 0.30801 0.69095 0.61238
 C2645 C 0.30105 0.68245 0.60271
 C2646 C 0.29519 0.68824 0.59070
 C2647 C 0.28977 0.70887 0.57536
 C2648 C 0.27741 0.70339 0.56961
 C2649 C 0.27178 0.70900 0.55741
 C2650 C 0.27826 0.72036 0.55072
 C2651 C 0.29049 0.72596 0.55661
 C2652 C 0.29622 0.72023 0.56869
 H2653 H 0.31402 0.71219 0.61724
 H2654 H 0.30038 0.67127 0.60426
 H2655 H 0.26246 0.70428 0.55312
 H2656 H 0.29566 0.73485 0.55192
 H2657 H 0.29027 0.68132 0.58328
 H2658 H 0.27201 0.69479 0.57456
 H2659 H 0.30340 0.72239 0.59658
 H2660 H 0.30585 0.72462 0.57267
 C2661 C 0.29700 0.20293 1.08828
 C2662 C 0.31153 0.20308 1.09053
 C2663 C 0.31722 0.19742 1.10267
 C2664 C 0.30855 0.19133 1.11278
 C2665 C 0.29407 0.19099 1.11048
 C2666 C 0.28835 0.19680 1.09842
 C2667 C 0.29092 0.20916 1.07543
 C2668 C 0.27922 0.20308 1.06901
 C2669 C 0.27351 0.20891 1.05697
 C2670 C 0.27945 0.22090 1.05091
 C2671 C 0.29114 0.22701 1.05734
 C2672 C 0.29676 0.22125 1.06948
 H2673 H 0.32845 0.19762 1.10402
 H2674 H 0.28710 0.18647 1.11813
 H2675 H 0.26437 0.20404 1.05246
 H2676 H 0.29610 0.23614 1.05290
 H2677 H 0.27711 0.19670 1.09717
 H2678 H 0.27454 0.19367 1.07318
 H2679 H 0.31855 0.20741 1.08284
 H2680 H 0.30564 0.22637 1.07424
 C2681 C 0.79606 0.70258 1.08786
 C2682 C 0.79502 0.68815 1.09045
 C2683 C 0.80093 0.68229 1.10239
 C2684 C 0.80821 0.69068 1.11191
 C2685 C 0.80935 0.70506 1.10933
 C2686 C 0.80325 0.71097 1.09751
 C2687 C 0.78978 0.70884 1.07513
 C2688 C 0.79634 0.72006 1.06832
 C2689 C 0.79053 0.72588 1.05633
 C2690 C 0.77811 0.72049 1.05065
 C2691 C 0.77152 0.70927 1.05746
 C2692 C 0.77723 0.70359 1.06958
 H2693 H 0.80002 0.67114 1.10402
 H2694 H 0.81474 0.71182 1.11659
 H2695 H 0.79578 0.73467 1.05156
 H2696 H 0.76204 0.70471 1.05333
 H2697 H 0.80403 0.72215 1.09605
 H2698 H 0.80611 0.72427 1.07214
 H2699 H 0.78983 0.68131 1.08314
 H2700 H 0.77173 0.69512 1.07465
 C2701 C 0.79574 0.20298 0.58861
 C2702 C 0.80274 0.21145 0.59833
 C2703 C 0.80878 0.20562 0.61023
 C2704 C 0.80776 0.19123 0.61283
 C2705 C 0.80067 0.18276 0.60323
 C2706 C 0.79483 0.18854 0.59121
 C2707 C 0.78954 0.20915 0.57577
 C2708 C 0.77714 0.20373 0.57006
 C2709 C 0.77149 0.20936 0.55788
 C2710 C 0.77799 0.22069 0.55117
 C2711 C 0.79028 0.22623 0.55700
 C2712 C 0.79603 0.22047 0.56905
 H2713 H 0.81403 0.21244 0.61752
 H2714 H 0.79987 0.17160 0.60485
 H2715 H 0.76212 0.20469 0.55363
 H2716 H 0.79546 0.23510 0.55230
 H2717 H 0.78980 0.18162 0.58386
 H2718 H 0.77170 0.19517 0.57504
 H2719 H 0.80343 0.22264 0.59686
 H2720 H 0.80570 0.22481 0.57298
 C2721 C 0.70448 0.70325 0.41307
 C2722 C 0.70508 0.68871 0.41102
 C2723 C 0.69885 0.68260 0.39937
 C2724 C 0.69170 0.69085 0.38962
 C2725 C 0.69105 0.70536 0.39165
 C2726 C 0.69746 0.71150 0.40317
 C2727 C 0.71095 0.70975 0.42558
 C2728 C 0.70463 0.72131 0.43206
 C2729 C 0.71052 0.72726 0.44394
 C2730 C 0.72278 0.72170 0.44982
 C2731 C 0.72916 0.71020 0.44329
 C2732 C 0.72337 0.70436 0.43129
 H2733 H 0.69939 0.67137 0.39816
 H2734 H 0.68580 0.71200 0.38419
 H2735 H 0.70545 0.73627 0.44850
 H2736 H 0.73852 0.70553 0.44758
 H2737 H 0.69703 0.72275 0.40422
 H2738 H 0.69497 0.72565 0.42810
 H2739 H 0.71013 0.68199 0.41854
 H2740 H 0.72867 0.69563 0.42647
 C2741 C 0.70373 0.20462 -0.08787
 C2742 C 0.71215 0.19801 -0.09791
 C2743 C 0.70617 0.19182 -0.10965
 C2744 C 0.69165 0.19225 -0.11173
 C2745 C 0.68323 0.19891 -0.10178
 C2746 C 0.68918 0.20494 -0.08996
 C2747 C 0.71006 0.21102 -0.07524
 C2748 C 0.70443 0.22328 -0.06943
 C2749 C 0.71017 0.22908 -0.05738
 C2750 C 0.72179 0.22286 -0.05089
 C2751 C 0.72754 0.21073 -0.05684
 C2752 C 0.72171 0.20484 -0.06879
 H2753 H 0.71295 0.18691 -0.11721
 H2754 H 0.67199 0.19926 -0.10300
 H2755 H 0.70535 0.23832 -0.05303
 H2756 H 0.73663 0.20577 -0.05230
 H2757 H 0.68232 0.20966 -0.08234
 H2758 H 0.69561 0.22846 -0.07422
 H2759 H 0.72340 0.19777 -0.09681
 H2760 H 0.72622 0.19531 -0.07283
 C2761 C 0.20483 0.70276 -0.08798
 C2762 C 0.20572 0.68829 -0.09039
 C2763 C 0.19967 0.68235 -0.10222
 C2764 C 0.19239 0.69070 -0.11177
 C2765 C 0.19144 0.70513 -0.10940
 C2766 C 0.19770 0.71111 -0.09771
 C2767 C 0.21115 0.70909 -0.07530
 C2768 C 0.20468 0.72048 -0.06867
 C2769 C 0.21050 0.72636 -0.05672
 C2770 C 0.22282 0.72088 -0.05089
 C2771 C 0.22931 0.70951 -0.05753
 C2772 C 0.22360 0.70376 -0.06961
 H2773 H 0.20043 0.67117 -0.10372
 H2774 H 0.18606 0.71185 -0.11670
 H2775 H 0.20532 0.73527 -0.05208
 H2776 H 0.23871 0.70488 -0.05328
 H2777 H 0.19705 0.72232 -0.09640
 H2778 H 0.19499 0.72477 -0.07258
 H2779 H 0.21087 0.68147 -0.08302
 H2780 H 0.22902 0.69515 -0.07453
 C2781 C 0.20480 0.20246 0.41187
 C2782 C 0.19767 0.21081 0.40213
 C2783 C 0.19143 0.20483 0.39043
 C2784 C 0.19239 0.19040 0.38805
 C2785 C 0.19969 0.18206 0.39760
 C2786 C 0.20572 0.18799 0.40944
 C2787 C 0.21107 0.20879 0.42458
 C2788 C 0.22352 0.20347 0.43029
 C2789 C 0.22919 0.20924 0.44239
 C2790 C 0.22268 0.22061 0.44900
 C2791 C 0.21035 0.22607 0.44316
 C2792 C 0.20457 0.22017 0.43119
 H2793 H 0.18605 0.21155 0.38313
 H2794 H 0.20046 0.17088 0.39609
 H2795 H 0.23859 0.20463 0.44666
 H2796 H 0.20515 0.23496 0.44778
 H2797 H 0.21086 0.18117 0.41682
 H2798 H 0.22896 0.19487 0.42539
 H2799 H 0.19700 0.22202 0.40345
 H2800 H 0.19487 0.22444 0.42726
 C2801 C 0.29520 0.41170 0.70256
 C2802 C 0.29420 0.40937 0.68814
 C2803 C 0.30026 0.39756 0.68210
 C2804 C 0.30767 0.38794 0.69027
 C2805 C 0.30875 0.39023 0.70464
 C2806 C 0.30248 0.40190 0.71073
 C2807 C 0.28886 0.42437 0.70900
 C2808 C 0.29536 0.43097 0.72034
 C2809 C 0.28953 0.44293 0.72630
 C2810 C 0.27717 0.44878 0.72093
 C2811 C 0.27064 0.44217 0.70961
 C2812 C 0.27636 0.43007 0.70379
 H2813 H 0.29941 0.39613 0.67097
 H2814 H 0.31424 0.38288 0.71121
 H2815 H 0.29473 0.44755 0.73516
 H2816 H 0.26122 0.44643 0.70507
 H2817 H 0.30322 0.40314 0.72189
 H2818 H 0.30509 0.42705 0.72453
 H2819 H 0.28896 0.41680 0.68145
 H2820 H 0.27091 0.42516 0.69523
 C2821 C 0.29566 0.91150 0.20266
 C2822 C 0.30297 0.90172 0.21084
 C2823 C 0.30930 0.89008 0.20474
 C2824 C 0.30824 0.88779 0.19037
 C2825 C 0.30081 0.89739 0.18220
 C2826 C 0.29469 0.90918 0.18825
 C2827 C 0.28925 0.92412 0.20911
 C2828 C 0.27672 0.92976 0.20389
 C2829 C 0.27093 0.94182 0.20971
 C2830 C 0.27741 0.94847 0.22104
 C2831 C 0.28979 0.94268 0.22642
 C2832 C 0.29569 0.93075 0.22046
 H2833 H 0.31481 0.88274 0.21132
 H2834 H 0.29997 0.89596 0.17106
 H2835 H 0.26149 0.94605 0.20517
 H2836 H 0.29496 0.94732 0.23529
 H2837 H 0.28943 0.91659 0.18155
 H2838 H 0.27131 0.92483 0.19531
 H2839 H 0.30370 0.90296 0.22200
 H2840 H 0.30544 0.92688 0.22467
 C2841 C 0.79689 0.41173 0.20501
 C2842 C 0.78861 0.40170 0.19820
 C2843 C 0.79476 0.39014 0.19177
 C2844 C 0.80930 0.38822 0.19217
 C2845 C 0.81758 0.39808 0.19915
 C2846 C 0.81146 0.40976 0.20541
 C2847 C 0.79037 0.42430 0.21144
 C2848 C 0.79581 0.43010 0.22374
 C2849 C 0.78989 0.44212 0.22953
 C2850 C 0.77829 0.44858 0.22325
 C2851 C 0.77271 0.44262 0.21110
 C2852 C 0.77873 0.43072 0.20521
 H2853 H 0.78807 0.38262 0.18665
 H2854 H 0.82883 0.39697 0.19950
 H2855 H 0.79458 0.44647 0.23880
 H2856 H 0.76364 0.44714 0.20609
 H2857 H 0.81820 0.41738 0.21032
 H2858 H 0.80463 0.42532 0.22894
 H2859 H 0.77735 0.40269 0.19791
 H2860 H 0.77436 0.42671 0.19564
 C2861 C 0.79529 0.91231 0.70342
 C2862 C 0.79430 0.91003 0.68900
 C2863 C 0.80045 0.89828 0.68291
 C2864 C 0.80795 0.88869 0.69104
 C2865 C 0.80902 0.89095 0.70541
 C2866 C 0.80266 0.90254 0.71156
 C2867 C 0.78886 0.92491 0.70992
 C2868 C 0.79530 0.93150 0.72130
 C2869 C 0.78939 0.94338 0.72732
 C2870 C 0.77700 0.94920 0.72198
 C2871 C 0.77053 0.94260 0.71061
 C2872 C 0.77632 0.93056 0.70473
 H2873 H 0.79959 0.89688 0.67177
 H2874 H 0.81458 0.88361 0.71196
 H2875 H 0.79456 0.94798 0.73622
 H2876 H 0.76108 0.94684 0.70608
 H2877 H 0.80340 0.90375 0.72272
 H2878 H 0.80505 0.92762 0.72549
 H2879 H 0.78899 0.91743 0.68234
 H2880 H 0.77092 0.92567 0.69614
 C2881 C 0.70288 0.58907 0.70484
 C2882 C 0.71139 0.59897 0.69810
 C2883 C 0.70555 0.61086 0.69199
 C2884 C 0.69109 0.61326 0.69266
 C2885 C 0.68258 0.60350 0.69952
 C2886 C 0.68839 0.59149 0.70545
 C2887 C 0.70908 0.57622 0.71107
 C2888 C 0.70352 0.57038 0.72331
 C2889 C 0.70918 0.55817 0.72898
 C2890 C 0.72066 0.55155 0.72266
 C2891 C 0.72634 0.55751 0.71053
 C2892 C 0.72056 0.56959 0.70477
 H2893 H 0.71239 0.61829 0.68692
 H2894 H 0.67137 0.60497 0.70005
 H2895 H 0.70440 0.55383 0.73821
 H2896 H 0.73532 0.55288 0.70549
 H2897 H 0.68146 0.58399 0.71028
 H2898 H 0.69481 0.57528 0.72859
 H2899 H 0.72261 0.59763 0.69766
 H2900 H 0.72502 0.57363 0.69523
 C2901 C 0.70356 0.08822 0.20293
 C2902 C 0.69699 0.09840 0.21122
 C2903 C 0.69074 0.11011 0.20515
 C2904 C 0.69108 0.11202 0.19069
 C2905 C 0.69769 0.10193 0.18239
 C2906 C 0.70378 0.09012 0.18843
 C2907 C 0.71003 0.07562 0.20935
 C2908 C 0.72227 0.06973 0.20375
 C2909 C 0.72811 0.05768 0.20955
 C2910 C 0.72195 0.05128 0.22120
 C2911 C 0.70986 0.05733 0.22695
 C2912 C 0.70393 0.06927 0.22105
 H2913 H 0.68588 0.11780 0.21184
 H2914 H 0.69797 0.10302 0.17120
 H2915 H 0.73733 0.05326 0.20474
 H2916 H 0.70496 0.05286 0.23607
 H2917 H 0.70847 0.08238 0.18168
 H2918 H 0.72740 0.07446 0.19489
 H2919 H 0.69683 0.09743 0.22243
 H2920 H 0.69442 0.07339 0.22556
 C2921 C 0.20276 0.58868 0.20412
 C2922 C 0.18826 0.59107 0.20471
 C2923 C 0.18243 0.60306 0.19877
 C2924 C 0.19094 0.61284 0.19192
 C2925 C 0.20540 0.61048 0.19128
 C2926 C 0.21126 0.59860 0.19740
 C2927 C 0.20897 0.57584 0.21034
 C2928 C 0.22044 0.56923 0.20401
 C2929 C 0.22622 0.55713 0.20975
 C2930 C 0.22056 0.55117 0.22188
 C2931 C 0.20909 0.55779 0.22823
 C2932 C 0.20342 0.57000 0.22258
 H2933 H 0.17123 0.60450 0.19927
 H2934 H 0.21224 0.61792 0.18622
 H2935 H 0.23519 0.55249 0.20468
 H2936 H 0.20433 0.55343 0.23747
 H2937 H 0.22249 0.59729 0.19697
 H2938 H 0.22488 0.57327 0.19447
 H2939 H 0.18134 0.58355 0.20953
 H2940 H 0.19473 0.57490 0.22788
 C2941 C 0.20291 0.08891 0.70423
 C2942 C 0.18840 0.09124 0.70479
 C2943 C 0.18254 0.10322 0.69887
 C2944 C 0.19103 0.11305 0.69206
 C2945 C 0.20550 0.11074 0.69144
 C2946 C 0.21139 0.09887 0.69755
 C2947 C 0.20915 0.07607 0.71043
 C2948 C 0.22065 0.06952 0.70410
 C2949 C 0.22646 0.05743 0.70981
 C2950 C 0.22078 0.05141 0.72191
 C2951 C 0.20928 0.05797 0.72826
 C2952 C 0.20359 0.07018 0.72264
 H2953 H 0.17133 0.10463 0.69935
 H2954 H 0.21232 0.11822 0.68641
 H2955 H 0.23545 0.05283 0.70475
 H2956 H 0.20451 0.05357 0.73748
 H2957 H 0.22262 0.09760 0.69715
 H2958 H 0.22510 0.07360 0.69458
 H2959 H 0.18149 0.08369 0.70958
 H2960 H 0.19487 0.07504 0.72793
 C2961 C 0.29662 0.58785 0.29514
 C2962 C 0.28829 0.59773 0.30210
 C2963 C 0.29432 0.60943 0.30838
 C2964 C 0.30880 0.61164 0.30768
 C2965 C 0.31715 0.60188 0.30063
 C2966 C 0.31115 0.59007 0.29452
 C2967 C 0.29023 0.57521 0.28872
 C2968 C 0.29562 0.56957 0.27633
 C2969 C 0.28982 0.55751 0.27051
 C2970 C 0.27837 0.55086 0.27685
 C2971 C 0.27283 0.55665 0.28911
 C2972 C 0.27875 0.56858 0.29502
 H2973 H 0.28759 0.61687 0.31358
 H2974 H 0.32837 0.60321 0.30006
 H2975 H 0.29448 0.55329 0.26116
 H2976 H 0.26387 0.55199 0.29417
 H2977 H 0.31795 0.58257 0.28951
 H2978 H 0.30431 0.57450 0.27105
 H2979 H 0.27704 0.59654 0.30257
 H2980 H 0.27442 0.57248 0.30466
 C2981 C 0.29708 0.08792 0.79470
 C2982 C 0.28878 0.09788 0.80158
 C2983 C 0.29487 0.10948 0.80796
 C2984 C 0.30939 0.11152 0.80744
 C2985 C 0.31770 0.10173 0.80039
 C2986 C 0.31163 0.09001 0.79418
 C2987 C 0.29062 0.07529 0.78832
 C2988 C 0.29606 0.06950 0.77601
 C2989 C 0.29020 0.05744 0.77026
 C2990 C 0.27865 0.05093 0.77657
 C2991 C 0.27307 0.05687 0.78874
 C2992 C 0.27904 0.06880 0.79459
 H2993 H 0.28817 0.11696 0.81314
 H2994 H 0.32894 0.10294 0.79995
 H2995 H 0.29489 0.05311 0.76097
 H2996 H 0.26404 0.05232 0.79378
 H2997 H 0.31840 0.08245 0.78922
 H2998 H 0.30482 0.07432 0.77076
 H2999 H 0.27752 0.09680 0.80195
 H3000 H 0.27468 0.07281 0.80417
 C3001 C 0.79684 0.58859 0.79579
 C3002 C 0.78854 0.59858 0.80265
 C3003 C 0.79462 0.61026 0.80890
 C3004 C 0.80913 0.61234 0.80827
 C3005 C 0.81744 0.60249 0.80130
 C3006 C 0.81138 0.59070 0.79522
 C3007 C 0.79039 0.57596 0.78943
 C3008 C 0.79580 0.57019 0.77711
 C3009 C 0.78993 0.55813 0.77135
 C3010 C 0.77839 0.55161 0.77768
 C3011 C 0.77284 0.55753 0.78987
 C3012 C 0.77882 0.56947 0.79572
 H3013 H 0.78792 0.61777 0.81403
 H3014 H 0.82867 0.60374 0.80079
 H3015 H 0.79461 0.55381 0.76205
 H3016 H 0.76382 0.55298 0.79492
 H3017 H 0.81815 0.58312 0.79028
 H3018 H 0.80456 0.57501 0.77184
 H3019 H 0.77728 0.59748 0.80306
 H3020 H 0.77448 0.57346 0.80532
 C3021 C 0.79581 0.08802 0.29727
 C3022 C 0.79497 0.09022 0.31171
 C3023 C 0.80109 0.10197 0.31779
 C3024 C 0.80839 0.11167 0.30961
 C3025 C 0.80931 0.10950 0.29522
 C3026 C 0.80298 0.09788 0.28909
 C3027 C 0.78941 0.07542 0.29078
 C3028 C 0.79579 0.06891 0.27932
 C3029 C 0.78989 0.05703 0.27330
 C3030 C 0.77757 0.05114 0.27872
 C3031 C 0.77115 0.05767 0.29016
 C3032 C 0.77694 0.06970 0.29604
 H3033 H 0.80034 0.10332 0.32894
 H3034 H 0.81471 0.11692 0.28863
 H3035 H 0.79501 0.05249 0.26434
 H3036 H 0.76176 0.05338 0.29474
 H3037 H 0.80361 0.09674 0.27792
 H3038 H 0.80550 0.07285 0.27508
 H3039 H 0.78980 0.08273 0.31839
 H3040 H 0.77158 0.07453 0.30471
 C3041 C 0.70293 0.41123 0.29615
 C3042 C 0.68849 0.40858 0.29536
 C3043 C 0.68279 0.39650 0.30124
 C3044 C 0.69136 0.38690 0.30824
 C3045 C 0.70576 0.38953 0.30913
 C3046 C 0.71150 0.40149 0.30306
 C3047 C 0.70900 0.42413 0.28994
 C3048 C 0.72032 0.43094 0.29635
 C3049 C 0.72601 0.44305 0.29056
 C3050 C 0.72042 0.44884 0.27833
 C3051 C 0.70908 0.44205 0.27192
 C3052 C 0.70351 0.42981 0.27760
 H3053 H 0.67162 0.39484 0.30055
 H3054 H 0.71265 0.38222 0.31431
 H3055 H 0.73488 0.44781 0.29568
 H3056 H 0.70436 0.44628 0.26260
 H3057 H 0.72270 0.40300 0.30364
 H3058 H 0.72470 0.42703 0.30596
 H3059 H 0.68151 0.41595 0.29040
 H3060 H 0.69495 0.42477 0.27225
 C3061 C 0.70328 0.91182 0.79745
 C3062 C 0.70349 0.90972 0.81192
 C3063 C 0.69755 0.89775 0.81779
 C3064 C 0.69109 0.88768 0.80934
 C3065 C 0.69075 0.88980 0.79491
 C3066 C 0.69685 0.90167 0.78902
 C3067 C 0.70963 0.92456 0.79120
 C3068 C 0.70352 0.93097 0.77953
 C3069 C 0.70939 0.94298 0.77372
 C3070 C 0.72144 0.94905 0.77952
 C3071 C 0.72759 0.94262 0.79116
 C3072 C 0.72181 0.93050 0.79687
 H3073 H 0.69783 0.89651 0.82897
 H3074 H 0.68601 0.88214 0.78811
 H3075 H 0.70448 0.94748 0.76462
 H3076 H 0.73678 0.94706 0.79602
 H3077 H 0.69670 0.90278 0.77782
 H3078 H 0.69405 0.92682 0.77497
 H3079 H 0.70808 0.91742 0.81878
 H3080 H 0.72695 0.92574 0.80571
 C3081 C 0.20371 0.41169 0.79709
 C3082 C 0.20431 0.40966 0.81156
 C3083 C 0.19828 0.39787 0.81767
 C3084 C 0.19133 0.38792 0.80948
 C3085 C 0.19060 0.38996 0.79505
 C3086 C 0.19680 0.40165 0.78890
 C3087 C 0.21014 0.42428 0.79060
 C3088 C 0.20384 0.43076 0.77908
 C3089 C 0.20973 0.44270 0.77314
 C3090 C 0.22198 0.44862 0.77867
 C3091 C 0.22834 0.44209 0.79014
 C3092 C 0.22254 0.43003 0.79597
 H3093 H 0.19885 0.39668 0.82884
 H3094 H 0.18545 0.38238 0.78845
 H3095 H 0.20466 0.44728 0.76416
 H3096 H 0.23768 0.44641 0.79479
 H3097 H 0.19634 0.40271 0.77771
 H3098 H 0.19420 0.42676 0.77475
 H3099 H 0.20925 0.41730 0.81824
 H3100 H 0.22784 0.42520 0.80467
 C3101 C 0.20399 0.91107 0.29675
 C3102 C 0.19693 0.90124 0.28844
 C3103 C 0.19086 0.88937 0.29438
 C3104 C 0.19190 0.88692 0.30873
 C3105 C 0.19901 0.89665 0.31704
 C3106 C 0.20489 0.90863 0.31115
 C3107 C 0.21028 0.92384 0.29047
 C3108 C 0.22272 0.92954 0.29581
 C3109 C 0.22845 0.94170 0.29010
 C3110 C 0.22198 0.94840 0.27878
 C3111 C 0.20966 0.94256 0.27331
 C3112 C 0.20384 0.93053 0.27914
 H3113 H 0.18557 0.88197 0.28769
 H3114 H 0.19981 0.89514 0.32817
 H3115 H 0.23784 0.94595 0.29473
 H3116 H 0.20451 0.94725 0.26445
 H3117 H 0.20994 0.91609 0.31795
 H3118 H 0.22813 0.92458 0.30437
 H3119 H 0.19624 0.90259 0.27729
 H3120 H 0.19415 0.92660 0.27485
 C3121 C 0.41169 0.29740 0.70455
 C3122 C 0.40191 0.28897 0.69755
 C3123 C 0.39018 0.29490 0.69122
 C3124 C 0.38781 0.30934 0.69195
 C3125 C 0.39739 0.31776 0.69913
 C3126 C 0.40926 0.31188 0.70527
 C3127 C 0.42446 0.29113 0.71086
 C3128 C 0.43017 0.29656 0.72320
 C3129 C 0.44235 0.29085 0.72890
 C3130 C 0.44904 0.27946 0.72250
 C3131 C 0.44318 0.27390 0.71029
 C3132 C 0.43114 0.27972 0.70449
 H3133 H 0.38285 0.28812 0.68592
 H3134 H 0.39590 0.32896 0.69973
 H3135 H 0.44662 0.29554 0.73821
 H3136 H 0.44787 0.26498 0.70519
 H3137 H 0.41667 0.31875 0.71032
 H3138 H 0.42522 0.30519 0.72853
 H3139 H 0.40323 0.27776 0.69704
 H3140 H 0.42721 0.27537 0.69488
 C3141 C 0.41214 0.79704 0.20475
 C3142 C 0.40236 0.78866 0.19770
 C3143 C 0.39067 0.79463 0.19134
 C3144 C 0.38833 0.80908 0.19210
 C3145 C 0.39791 0.81746 0.19934
 C3146 C 0.40975 0.81153 0.20550
 C3147 C 0.42489 0.79072 0.21107
 C3148 C 0.43060 0.79610 0.22344
 C3149 C 0.44277 0.79035 0.22913
 C3150 C 0.44944 0.77897 0.22271
 C3151 C 0.44358 0.77345 0.21048
 C3152 C 0.43155 0.77931 0.20469
 H3153 H 0.38334 0.78789 0.18601
 H3154 H 0.39645 0.82866 0.19997
 H3155 H 0.44704 0.79500 0.23846
 H3156 H 0.44825 0.76453 0.20536
 H3157 H 0.41715 0.81836 0.21060
 H3158 H 0.42566 0.80473 0.22878
 H3159 H 0.40365 0.77745 0.19716
 H3160 H 0.42762 0.77500 0.19506
 C3161 C 0.91168 0.29675 0.20437
 C3162 C 0.90160 0.28836 0.19777
 C3163 C 0.88982 0.29436 0.19158
 C3164 C 0.88774 0.30888 0.19200
 C3165 C 0.89771 0.31727 0.19871
 C3166 C 0.90957 0.31129 0.20475
 C3167 C 0.92440 0.29041 0.21069
 C3168 C 0.93023 0.29594 0.22293
 C3169 C 0.94238 0.29020 0.22864
 C3170 C 0.94895 0.27868 0.22235
 C3171 C 0.94298 0.27301 0.21024
 C3172 C 0.93093 0.27885 0.20444
 H3173 H 0.88225 0.28759 0.18664
 H3174 H 0.89651 0.32850 0.19905
 H3175 H 0.94674 0.29496 0.23788
 H3176 H 0.94759 0.26401 0.20522
 H3177 H 0.91722 0.31812 0.20948
 H3178 H 0.92538 0.30470 0.22816
 H3179 H 0.90272 0.27711 0.19749
 H3180 H 0.92687 0.27441 0.19492
 C3181 C 0.91203 0.79800 0.70504
 C3182 C 0.90216 0.78963 0.69809
 C3183 C 0.89044 0.79562 0.69181
 C3184 C 0.88816 0.81008 0.69255
 C3185 C 0.89783 0.81845 0.69969
 C3186 C 0.90969 0.81250 0.70576
 C3187 C 0.92480 0.79166 0.71126
 C3188 C 0.93062 0.79704 0.72357
 C3189 C 0.94281 0.79127 0.72918
 C3190 C 0.94941 0.77987 0.72271
 C3191 C 0.94345 0.77435 0.71053
 C3192 C 0.93139 0.78023 0.70483
 H3193 H 0.88305 0.78889 0.68655
 H3194 H 0.89640 0.82965 0.70028
 H3195 H 0.94717 0.79592 0.73847
 H3196 H 0.94807 0.76542 0.70538
 H3197 H 0.91716 0.81932 0.71078
 H3198 H 0.92574 0.80568 0.72895
 H3199 H 0.90342 0.77841 0.69758
 H3200 H 0.92737 0.77592 0.69523
 C3201 C 0.58751 0.29589 0.29757
 C3202 C 0.58938 0.29544 0.31207
 C3203 C 0.60107 0.30160 0.31823
 C3204 C 0.61105 0.30855 0.31007
 C3205 C 0.60919 0.30909 0.29561
 C3206 C 0.59762 0.30274 0.28941
 C3207 C 0.57500 0.28940 0.29101
 C3208 C 0.56866 0.29560 0.27936
 C3209 C 0.55678 0.28967 0.27334
 C3210 C 0.55078 0.27750 0.27894
 C3211 C 0.55717 0.27123 0.29053
 C3212 C 0.56917 0.27706 0.29644
 H3213 H 0.60216 0.30115 0.32943
 H3214 H 0.61682 0.31420 0.28903
 H3215 H 0.55232 0.29465 0.26426
 H3216 H 0.55278 0.26194 0.29523
 H3217 H 0.59670 0.30306 0.27820
 H3218 H 0.57272 0.30519 0.27498
 H3219 H 0.58169 0.29052 0.31872
 H3220 H 0.57389 0.27185 0.30525
 C3221 C 0.58712 0.79717 0.79750
 C3222 C 0.58933 0.79657 0.81195
 C3223 C 0.60123 0.80256 0.81790
 C3224 C 0.61112 0.80946 0.80957
 C3225 C 0.60888 0.81022 0.79517
 C3226 C 0.59708 0.80407 0.78919
 C3227 C 0.57448 0.79072 0.79115
 C3228 C 0.56791 0.79697 0.77965
 C3229 C 0.55599 0.79100 0.77375
 C3230 C 0.55016 0.77872 0.77931
 C3231 C 0.55675 0.77243 0.79078
 C3232 C 0.56880 0.77830 0.79657
 H3233 H 0.60259 0.80193 0.82905
 H3234 H 0.61640 0.81530 0.78845
 H3235 H 0.55138 0.79603 0.76477
 H3236 H 0.55250 0.76306 0.79546
 H3237 H 0.59590 0.80452 0.77801
 H3238 H 0.57185 0.80663 0.77529
 H3239 H 0.58178 0.79162 0.81873
 H3240 H 0.57369 0.77304 0.80526
 C3241 C 0.08839 0.29576 0.79733
 C3242 C 0.09079 0.29486 0.81174
 C3243 C 0.10281 0.30066 0.81764
 C3244 C 0.11260 0.30770 0.80933
 C3245 C 0.11020 0.30873 0.79497
 C3246 C 0.09830 0.30273 0.78902
 C3247 C 0.07558 0.28957 0.79104
 C3248 C 0.06898 0.29604 0.77968
 C3249 C 0.05691 0.29030 0.77384
 C3250 C 0.05097 0.27804 0.77932
 C3251 C 0.05757 0.27155 0.79068
 C3252 C 0.06977 0.27718 0.79639
 H3253 H 0.10428 0.29988 0.82877
 H3254 H 0.11765 0.31396 0.78828
 H3255 H 0.05229 0.29548 0.76495
 H3256 H 0.05324 0.26220 0.79531
 H3257 H 0.09698 0.30341 0.77787
 H3258 H 0.07300 0.30569 0.77538
 H3259 H 0.08328 0.28988 0.81853
 H3260 H 0.07466 0.27175 0.80498
 C3261 C 0.08761 0.79595 0.29680
 C3262 C 0.08969 0.79537 0.31127
 C3263 C 0.10150 0.80140 0.31732
 C3264 C 0.11143 0.80835 0.30909
 C3265 C 0.10934 0.80909 0.29466
 C3266 C 0.09762 0.80287 0.28857
 C3267 C 0.07500 0.78951 0.29038
 C3268 C 0.06846 0.79578 0.27887
 C3269 C 0.05649 0.78988 0.27300
 C3270 C 0.05059 0.77764 0.27860
 C3271 C 0.05718 0.77131 0.29005
 C3272 C 0.06927 0.77711 0.29580
 H3273 H 0.10273 0.80083 0.32849
 H3274 H 0.11689 0.81423 0.28803
 H3275 H 0.05187 0.79492 0.26404
 H3276 H 0.05288 0.76198 0.29475
 H3277 H 0.09652 0.80333 0.27738
 H3278 H 0.07244 0.80541 0.27450
 H3279 H 0.08208 0.79043 0.31799
 H3280 H 0.07414 0.77184 0.30450
 C3281 C 0.58734 0.70462 0.70321
 C3282 C 0.58939 0.70539 0.68874
 C3283 C 0.60103 0.69915 0.68254
 C3284 C 0.61078 0.69179 0.69062
 C3285 C 0.60876 0.69094 0.70505
 C3286 C 0.59724 0.69737 0.71129
 C3287 C 0.57484 0.71114 0.70980
 C3288 C 0.56834 0.70481 0.72130
 C3289 C 0.55645 0.71075 0.72731
 C3290 C 0.55058 0.72306 0.72186
 C3291 C 0.55715 0.72946 0.71043
 C3292 C 0.56917 0.72364 0.70455
 H3293 H 0.60225 0.69985 0.67137
 H3294 H 0.61621 0.68550 0.71157
 H3295 H 0.55188 0.70565 0.73627
 H3296 H 0.55287 0.73886 0.70584
 H3297 H 0.59621 0.69678 0.72248
 H3298 H 0.57226 0.69511 0.72555
 H3299 H 0.58187 0.71061 0.68213
 H3300 H 0.57402 0.72896 0.69587
 C3301 C 0.58824 0.20428 0.20313
 C3302 C 0.59051 0.20497 0.18869
 C3303 C 0.60251 0.19913 0.18278
 C3304 C 0.61243 0.19229 0.19112
 C3305 C 0.61015 0.19149 0.20551
 C3306 C 0.59825 0.19750 0.21146
 C3307 C 0.57545 0.21053 0.20944
 C3308 C 0.56893 0.20416 0.22091
 C3309 C 0.55690 0.20995 0.22679
 C3310 C 0.55091 0.22216 0.22124
 C3311 C 0.55743 0.22855 0.20978
 C3312 C 0.56958 0.22285 0.20401
 H3313 H 0.60389 0.19976 0.17162
 H3314 H 0.61768 0.18644 0.21223
 H3315 H 0.55234 0.20485 0.23575
 H3316 H 0.55305 0.23785 0.20510
 H3317 H 0.59702 0.19699 0.22263
 H3318 H 0.57300 0.19456 0.22528
 H3319 H 0.58292 0.20982 0.18189
 H3320 H 0.57441 0.22819 0.19533
 C3321 C 0.08724 0.70414 0.20250
 C3322 C 0.08923 0.70487 0.18803
 C3323 C 0.10086 0.69864 0.18181
 C3324 C 0.11065 0.69133 0.18989
 C3325 C 0.10869 0.69053 0.20433
 C3326 C 0.09718 0.69696 0.21058
 C3327 C 0.07475 0.71064 0.20911
 C3328 C 0.06828 0.70430 0.22062
 C3329 C 0.05640 0.71021 0.22665
 C3330 C 0.05049 0.72250 0.22120
 C3331 C 0.05701 0.72892 0.20976
 C3332 C 0.06903 0.72311 0.20385
 H3333 H 0.10204 0.69930 0.17064
 H3334 H 0.11618 0.68513 0.21084
 H3335 H 0.05185 0.70511 0.23562
 H3336 H 0.05271 0.73830 0.20517
 H3337 H 0.09618 0.69641 0.22177
 H3338 H 0.07224 0.69461 0.22487
 H3339 H 0.08167 0.71005 0.18142
 H3340 H 0.07386 0.72844 0.19516
 C3341 C 0.08740 0.20437 0.70292
 C3342 C 0.08935 0.20511 0.68844
 C3343 C 0.10095 0.19885 0.68219
 C3344 C 0.11075 0.19152 0.69023
 C3345 C 0.10882 0.19070 0.70467
 C3346 C 0.09734 0.19715 0.71096
 C3347 C 0.07495 0.21093 0.70956
 C3348 C 0.06847 0.20461 0.72108
 C3349 C 0.05663 0.21058 0.72713
 C3350 C 0.05077 0.22290 0.72169
 C3351 C 0.05731 0.22929 0.71024
 C3352 C 0.06930 0.22343 0.70432
 H3353 H 0.10210 0.19952 0.67101
 H3354 H 0.11631 0.18529 0.71116
 H3355 H 0.05206 0.20549 0.73610
 H3356 H 0.05305 0.23870 0.70566
 H3357 H 0.09636 0.19660 0.72216
 H3358 H 0.07239 0.19490 0.72532
 H3359 H 0.08179 0.21031 0.68186
 H3360 H 0.07413 0.22874 0.69562
 C3361 C 0.41257 0.70233 0.29518
 C3362 C 0.41033 0.68782 0.29442
 C3363 C 0.39858 0.68176 0.30061
 C3364 C 0.38893 0.69004 0.30790
 C3365 C 0.39113 0.70451 0.30867
 C3366 C 0.40274 0.71060 0.30229
 C3367 C 0.42521 0.70878 0.28881
 C3368 C 0.43181 0.72021 0.29520
 C3369 C 0.44377 0.72617 0.28938
 C3370 C 0.44962 0.72073 0.27711
 C3371 C 0.44299 0.70934 0.27066
 C3372 C 0.43089 0.70350 0.27639
 H3373 H 0.39721 0.67056 0.29996
 H3374 H 0.38374 0.71118 0.31403
 H3375 H 0.44841 0.73510 0.29451
 H3376 H 0.44725 0.70475 0.26129
 H3377 H 0.40392 0.72183 0.30284
 H3378 H 0.42789 0.72447 0.30487
 H3379 H 0.41778 0.68107 0.28928
 H3380 H 0.42598 0.69486 0.27103
 C3381 C 0.41163 0.20337 0.79510
 C3382 C 0.40953 0.18883 0.79465
 C3383 C 0.39768 0.18282 0.80069
 C3384 C 0.38773 0.19117 0.80748
 C3385 C 0.38981 0.20568 0.80798
 C3386 C 0.40157 0.21172 0.80179
 C3387 C 0.42434 0.20976 0.78879
 C3388 C 0.43086 0.22129 0.79509
 C3389 C 0.44290 0.22717 0.78930
 C3390 C 0.44887 0.22157 0.77715
 C3391 C 0.44231 0.21007 0.77081
 C3392 C 0.43017 0.20429 0.77652
 H3393 H 0.39648 0.17159 0.80029
 H3394 H 0.38225 0.21242 0.81299
 H3395 H 0.44749 0.23617 0.79435
 H3396 H 0.44666 0.20536 0.76155
 H3397 H 0.40269 0.22296 0.80214
 H3398 H 0.42681 0.22569 0.80464
 H3399 H 0.41717 0.18203 0.78986
 H3400 H 0.42533 0.19555 0.77125
 C3401 C 0.91271 0.70320 0.79532
 C3402 C 0.90291 0.71145 0.80252
 C3403 C 0.89137 0.70533 0.80900
 C3404 C 0.88921 0.69085 0.80826
 C3405 C 0.89883 0.68260 0.80091
 C3406 C 0.91050 0.68868 0.79460
 C3407 C 0.92528 0.70968 0.78884
 C3408 C 0.93088 0.70439 0.77638
 C3409 C 0.94294 0.71023 0.77057
 C3410 C 0.94962 0.72162 0.77698
 C3411 C 0.94385 0.72707 0.78928
 C3412 C 0.93193 0.72111 0.79519
 H3413 H 0.88401 0.71198 0.81441
 H3414 H 0.89750 0.67139 0.80028
 H3415 H 0.94713 0.70565 0.76117
 H3416 H 0.94853 0.73598 0.79439
 H3417 H 0.91793 0.68196 0.78939
 H3418 H 0.92593 0.69575 0.77107
 H3419 H 0.90406 0.72269 0.80304
 H3420 H 0.92807 0.72536 0.80488
 C3421 C 0.91203 0.20256 0.29513
 C3422 C 0.90227 0.21092 0.30224
 C3423 C 0.89061 0.20494 0.30862
 C3424 C 0.88828 0.19049 0.30784
 C3425 C 0.89784 0.18212 0.30054
 C3426 C 0.90965 0.18807 0.29436
 C3427 C 0.92475 0.20891 0.28878
 C3428 C 0.93046 0.20355 0.27640
 C3429 C 0.94259 0.20934 0.27068
 C3430 C 0.94923 0.22075 0.27709
 C3431 C 0.94337 0.22625 0.28932
 C3432 C 0.93139 0.22034 0.29515
 H3433 H 0.88329 0.21166 0.31399
 H3434 H 0.89635 0.17093 0.29989
 H3435 H 0.94685 0.20470 0.26133
 H3436 H 0.94801 0.23519 0.29443
 H3437 H 0.91705 0.18125 0.28922
 H3438 H 0.92553 0.19490 0.27107
 H3439 H 0.90355 0.22213 0.30279
 H3440 H 0.92747 0.22464 0.30480
 C3441 C 0.29710 0.29519 0.58762
 C3442 C 0.28873 0.30233 0.59734
 C3443 C 0.29469 0.30858 0.60904
 C3444 C 0.30912 0.30764 0.61145
 C3445 C 0.31750 0.30035 0.60192
 C3446 C 0.31158 0.29430 0.59008
 C3447 C 0.29080 0.28890 0.57492
 C3448 C 0.29616 0.27646 0.56924
 C3449 C 0.29043 0.27077 0.55713
 C3450 C 0.27905 0.27725 0.55048
 C3451 C 0.27355 0.28955 0.55631
 C3452 C 0.27941 0.29536 0.56827
 H3453 H 0.28795 0.31396 0.61632
 H3454 H 0.32868 0.29960 0.60345
 H3455 H 0.29507 0.26138 0.55289
 H3456 H 0.26464 0.29472 0.55165
 H3457 H 0.31842 0.28916 0.58272
 H3458 H 0.30477 0.27105 0.57417
 H3459 H 0.27752 0.30297 0.59600
 H3460 H 0.27510 0.30504 0.57218
 C3461 C 0.29759 0.79511 0.08773
 C3462 C 0.28924 0.80224 0.09746
 C3463 C 0.29522 0.80848 0.10916
 C3464 C 0.30965 0.80751 0.11156
 C3465 C 0.31801 0.80023 0.10201
 C3466 C 0.31207 0.79420 0.09017
 C3467 C 0.29126 0.78885 0.07502
 C3468 C 0.29660 0.77641 0.06932
 C3469 C 0.29084 0.77074 0.05721
 C3470 C 0.27947 0.77725 0.05058
 C3471 C 0.27400 0.78956 0.05642
 C3472 C 0.27988 0.79534 0.06839
 H3473 H 0.28850 0.81386 0.11646
 H3474 H 0.32919 0.79945 0.10353
 H3475 H 0.29546 0.76135 0.05295
 H3476 H 0.26510 0.79475 0.05179
 H3477 H 0.31890 0.78906 0.08280
 H3478 H 0.30520 0.77097 0.07423
 H3479 H 0.27803 0.80291 0.09614
 H3480 H 0.27560 0.80503 0.07232
 C3481 C 0.79566 0.29712 0.08822
 C3482 C 0.79488 0.31158 0.09072
 C3483 C 0.80080 0.31738 0.10268
 C3484 C 0.80783 0.30890 0.11232
 C3485 C 0.80872 0.29448 0.10983
 C3486 C 0.80261 0.28864 0.09798
 C3487 C 0.78940 0.29094 0.07544
 C3488 C 0.79584 0.27959 0.06874
 C3489 C 0.79006 0.27385 0.05670
 C3490 C 0.77778 0.27943 0.05087
 C3491 C 0.77132 0.29078 0.05758
 C3492 C 0.77700 0.29639 0.06974
 H3493 H 0.80010 0.32856 0.10423
 H3494 H 0.81393 0.28766 0.11717
 H3495 H 0.79522 0.26497 0.05199
 H3496 H 0.76196 0.29548 0.05334
 H3497 H 0.80320 0.27744 0.09658
 H3498 H 0.80550 0.27521 0.07267
 H3499 H 0.78989 0.31849 0.08333
 H3500 H 0.77161 0.30498 0.07471
 C3501 C 0.79746 0.79608 0.58833
 C3502 C 0.81195 0.79524 0.59074
 C3503 C 0.81787 0.80128 0.60258
 C3504 C 0.80949 0.80852 0.61214
 C3505 C 0.79504 0.80942 0.60977
 C3506 C 0.78908 0.80316 0.59807
 C3507 C 0.79115 0.78979 0.57563
 C3508 C 0.77974 0.79623 0.56901
 C3509 C 0.77387 0.79044 0.55705
 C3510 C 0.77939 0.77815 0.55120
 C3511 C 0.79079 0.77169 0.55782
 C3512 C 0.79653 0.77737 0.56992
 H3513 H 0.82906 0.80057 0.60408
 H3514 H 0.78831 0.81477 0.61708
 H3515 H 0.76494 0.79559 0.55242
 H3516 H 0.79545 0.76232 0.55355
 H3517 H 0.77786 0.80377 0.59676
 H3518 H 0.77542 0.80590 0.57294
 H3519 H 0.81879 0.79013 0.58336
 H3520 H 0.80516 0.77198 0.57483
 C3521 C 0.29724 0.70371 0.41138
 C3522 C 0.31171 0.70441 0.40886
 C3523 C 0.31745 0.69858 0.39683
 C3524 C 0.30890 0.69171 0.38715
 C3525 C 0.29448 0.69090 0.38966
 C3526 C 0.28869 0.69692 0.40158
 C3527 C 0.29112 0.70992 0.42422
 C3528 C 0.27971 0.70353 0.43090
 C3529 C 0.27401 0.70929 0.44298
 C3530 C 0.27968 0.72149 0.44885
 C3531 C 0.29109 0.72789 0.44217
 C3532 C 0.29667 0.72223 0.42998
 H3533 H 0.32864 0.69920 0.39527
 H3534 H 0.28761 0.68581 0.38229
 H3535 H 0.26508 0.70418 0.44766
 H3536 H 0.29586 0.73719 0.44646
 H3537 H 0.27748 0.69641 0.40300
 H3538 H 0.27527 0.69394 0.42692
 H3539 H 0.31867 0.70927 0.41629
 H3540 H 0.30530 0.72759 0.42503
 C3541 C 0.29604 0.20248 0.91160
 C3542 C 0.29525 0.18803 0.90905
 C3543 C 0.30109 0.18228 0.89702
 C3544 C 0.30805 0.19080 0.88736
 C3545 C 0.30894 0.20521 0.88990
 C3546 C 0.30291 0.21100 0.90181
 C3547 C 0.28983 0.20861 0.92444
 C3548 C 0.29629 0.21995 0.93114
 C3549 C 0.29054 0.22565 0.94323
 C3550 C 0.27829 0.22004 0.94908
 C3551 C 0.27182 0.20870 0.94238
 C3552 C 0.27747 0.20312 0.93018
 H3553 H 0.30040 0.17111 0.89544
 H3554 H 0.31408 0.21206 0.88255
 H3555 H 0.29570 0.23452 0.94794
 H3556 H 0.26249 0.20398 0.94665
 H3557 H 0.30349 0.22220 0.90325
 H3558 H 0.30592 0.22435 0.92718
 H3559 H 0.29033 0.18108 0.91646
 H3560 H 0.27207 0.19454 0.92520
 C3561 C 0.79718 0.70445 0.91161
 C3562 C 0.81166 0.70526 0.90915
 C3563 C 0.81750 0.69945 0.89715
 C3564 C 0.80905 0.69250 0.88744
 C3565 C 0.79462 0.69159 0.88989
 C3566 C 0.78873 0.69760 0.90177
 C3567 C 0.79095 0.71063 0.92442
 C3568 C 0.77954 0.70417 0.93104
 C3569 C 0.77373 0.70990 0.94308
 C3570 C 0.77929 0.72214 0.94898
 C3571 C 0.79069 0.72861 0.94237
 C3572 C 0.79638 0.72298 0.93021
 H3573 H 0.82869 0.70015 0.89563
 H3574 H 0.78782 0.68645 0.88250
 H3575 H 0.76481 0.70474 0.94771
 H3576 H 0.79539 0.73793 0.94668
 H3577 H 0.77752 0.69700 0.90314
 H3578 H 0.77518 0.69454 0.92704
 H3579 H 0.81856 0.71017 0.91660
 H3580 H 0.80501 0.72839 0.92531
 C3581 C 0.79754 0.20445 0.41222
 C3582 C 0.78917 0.19738 0.40247
 C3583 C 0.79513 0.19115 0.39076
 C3584 C 0.80957 0.19206 0.38837
 C3585 C 0.81795 0.19930 0.39793
 C3586 C 0.81203 0.20532 0.40979
 C3587 C 0.79124 0.21071 0.42495
 C3588 C 0.79662 0.22312 0.43067
 C3589 C 0.79090 0.22876 0.44281
 C3590 C 0.77953 0.22226 0.44944
 C3591 C 0.77400 0.20999 0.44357
 C3592 C 0.77985 0.20424 0.43157
 H3593 H 0.78839 0.18581 0.38345
 H3594 H 0.82914 0.20002 0.39642
 H3595 H 0.79556 0.23812 0.44709
 H3596 H 0.76510 0.20481 0.44821
 H3597 H 0.81887 0.21041 0.41717
 H3598 H 0.80523 0.22853 0.42576
 H3599 H 0.77795 0.19676 0.40380
 H3600 H 0.77553 0.19458 0.42762
 C3601 C 0.70345 0.29553 0.41260
 C3602 C 0.68891 0.29507 0.41052
 C3603 C 0.68289 0.30116 0.39875
 C3604 C 0.69124 0.30802 0.38887
 C3605 C 0.70575 0.30857 0.39095
 C3606 C 0.71180 0.30231 0.40262
 C3607 C 0.70986 0.28910 0.42519
 C3608 C 0.72145 0.29534 0.43167
 C3609 C 0.72734 0.28945 0.44359
 C3610 C 0.72169 0.27724 0.44949
 C3611 C 0.71015 0.27094 0.44298
 C3612 C 0.70436 0.27675 0.43095
 H3613 H 0.67165 0.30072 0.39753
 H3614 H 0.71248 0.31362 0.38343
 H3615 H 0.73637 0.29447 0.44815
 H3616 H 0.70540 0.26164 0.44729
 H3617 H 0.72305 0.30265 0.40372
 H3618 H 0.72587 0.30494 0.42767
 H3619 H 0.68211 0.29021 0.41810
 H3620 H 0.69558 0.27151 0.42613
 C3621 C 0.70266 0.79570 0.91279
 C3622 C 0.71086 0.80324 0.90324
 C3623 C 0.70476 0.80956 0.89164
 C3624 C 0.69037 0.80827 0.88917
 C3625 C 0.68217 0.80060 0.89855
 C3626 C 0.68821 0.79450 0.91030
 C3627 C 0.70911 0.78928 0.92537
 C3628 C 0.70403 0.77662 0.93081
 C3629 C 0.70989 0.77081 0.94280
 C3630 C 0.72115 0.77738 0.94956
 C3631 C 0.72639 0.78990 0.94395
 C3632 C 0.72038 0.79583 0.93212
 H3633 H 0.71138 0.81523 0.88445
 H3634 H 0.67101 0.79956 0.89695
 H3635 H 0.70544 0.76125 0.94688
 H3636 H 0.73520 0.79516 0.94867
 H3637 H 0.68149 0.78904 0.91754
 H3638 H 0.69554 0.77112 0.92579
 H3639 H 0.72205 0.80414 0.90460
 H3640 H 0.72447 0.80569 0.92839
 C3641 C 0.20465 0.29641 0.91288
 C3642 C 0.19755 0.28820 0.90302
 C3643 C 0.19108 0.29438 0.89154
 C3644 C 0.19177 0.30888 0.88951
 C3645 C 0.19901 0.31710 0.89921
 C3646 C 0.20528 0.31095 0.91082
 C3647 C 0.21118 0.28987 0.92535
 C3648 C 0.22364 0.29522 0.93100
 C3649 C 0.22950 0.28932 0.94296
 C3650 C 0.22315 0.27781 0.94949
 C3651 C 0.21084 0.27230 0.94367
 C3652 C 0.20489 0.27831 0.93185
 H3653 H 0.18576 0.28776 0.88412
 H3654 H 0.19958 0.32833 0.89798
 H3655 H 0.23889 0.29396 0.94720
 H3656 H 0.20578 0.26329 0.94824
 H3657 H 0.21041 0.31766 0.91830
 H3658 H 0.22893 0.30396 0.92617
 H3659 H 0.19709 0.27696 0.90408
 H3660 H 0.19519 0.27400 0.92794
 C3661 C 0.20316 0.79498 0.41232
 C3662 C 0.18860 0.79436 0.41030
 C3663 C 0.18243 0.80062 0.39869
 C3664 C 0.19064 0.80781 0.38894
 C3665 C 0.20516 0.80847 0.39091
 C3666 C 0.21136 0.80203 0.40240
 C3667 C 0.20973 0.78850 0.42480
 C3668 C 0.22133 0.79481 0.43122
 C3669 C 0.22737 0.78890 0.44305
 C3670 C 0.22186 0.77663 0.44895
 C3671 C 0.21031 0.77027 0.44250
 C3672 C 0.20438 0.77608 0.43054
 H3673 H 0.17120 0.80006 0.39750
 H3674 H 0.21178 0.81375 0.38345
 H3675 H 0.23641 0.79397 0.44755
 H3676 H 0.20567 0.76091 0.44682
 H3677 H 0.22262 0.80247 0.40341
 H3678 H 0.22564 0.80447 0.42724
 H3679 H 0.18191 0.78928 0.41783
 H3680 H 0.19561 0.77079 0.42577
 C3681 C 0.70338 0.70455 0.58823
 C3682 C 0.71171 0.69773 0.59820
 C3683 C 0.70565 0.69149 0.60988
 C3684 C 0.69114 0.69209 0.61197
 C3685 C 0.68280 0.69896 0.60209
 C3686 C 0.68883 0.70503 0.59032
 C3687 C 0.70979 0.71098 0.57564
 C3688 C 0.70428 0.72333 0.56989
 C3689 C 0.71006 0.72915 0.55786
 C3690 C 0.72161 0.72286 0.55133
 C3691 C 0.72727 0.71065 0.55722
 C3692 C 0.72138 0.70475 0.56915
 H3693 H 0.71237 0.68642 0.61740
 H3694 H 0.67157 0.69943 0.60332
 H3695 H 0.70530 0.73845 0.55356
 H3696 H 0.73630 0.70564 0.55265
 H3697 H 0.68204 0.70990 0.58274
 H3698 H 0.69550 0.72857 0.57472
 H3699 H 0.72297 0.69737 0.59710
 H3700 H 0.72581 0.69515 0.57314
 C3701 C 0.70426 0.20332 0.08734
 C3702 C 0.69722 0.21159 0.09720
 C3703 C 0.69077 0.20548 0.10873
 C3704 C 0.69141 0.19098 0.11081
 C3705 C 0.69858 0.18270 0.10110
 C3706 C 0.70485 0.18878 0.08945
 C3707 C 0.71078 0.20979 0.07483
 C3708 C 0.72321 0.20438 0.06917
 C3709 C 0.72905 0.21020 0.05717
 C3710 C 0.72270 0.22170 0.05060
 C3711 C 0.71043 0.22728 0.05644
 C3712 C 0.70449 0.22134 0.06831
 H3713 H 0.68550 0.21214 0.11615
 H3714 H 0.69912 0.17148 0.10236
 H3715 H 0.73841 0.20552 0.05291
 H3716 H 0.70538 0.23629 0.05185
 H3717 H 0.70992 0.18204 0.08197
 H3718 H 0.72848 0.19564 0.07402
 H3719 H 0.69680 0.22284 0.09611
 H3720 H 0.69483 0.22570 0.07223
 C3721 C 0.20326 0.70411 0.08757
 C3722 C 0.21158 0.69732 0.09756
 C3723 C 0.20551 0.69108 0.10924
 C3724 C 0.19100 0.69166 0.11130
 C3725 C 0.18267 0.69853 0.10141
 C3726 C 0.18871 0.70460 0.08964
 C3727 C 0.20967 0.71052 0.07498
 C3728 C 0.20419 0.72286 0.06922
 C3729 C 0.20997 0.72864 0.05717
 C3730 C 0.22150 0.72230 0.05065
 C3731 C 0.22714 0.71010 0.05656
 C3732 C 0.22125 0.70424 0.06850
 H3733 H 0.21222 0.68602 0.11677
 H3734 H 0.17143 0.69899 0.10262
 H3735 H 0.20524 0.73794 0.05284
 H3736 H 0.23616 0.70506 0.05200
 H3737 H 0.18192 0.70946 0.08205
 H3738 H 0.19543 0.72813 0.07404
 H3739 H 0.22284 0.69695 0.09647
 H3740 H 0.22566 0.69464 0.07251
 C3741 C 0.20306 0.20409 0.58755
 C3742 C 0.18851 0.20459 0.58965
 C3743 C 0.18249 0.19856 0.60145
 C3744 C 0.19084 0.19171 0.61134
 C3745 C 0.20535 0.19112 0.60925
 C3746 C 0.21140 0.19732 0.59755
 C3747 C 0.20946 0.21047 0.57494
 C3748 C 0.22103 0.20418 0.56846
 C3749 C 0.22691 0.21002 0.55650
 C3750 C 0.22126 0.22221 0.55057
 C3751 C 0.20973 0.22855 0.55709
 C3752 C 0.20396 0.22280 0.56915
 H3753 H 0.17125 0.19903 0.60268
 H3754 H 0.21207 0.18607 0.61678
 H3755 H 0.23593 0.20497 0.55194
 H3756 H 0.20499 0.23785 0.55275
 H3757 H 0.22265 0.19695 0.59644
 H3758 H 0.22545 0.19459 0.57248
 H3759 H 0.18171 0.20944 0.58206
 H3760 H 0.19521 0.22808 0.57397
   
