data_POSCAR
  _audit_creation_date              2014-09-24
  _audit_creation_method            'ToBaCCo'
  _symmetry_space_group_name_H-M    'P1'
  _symmetry_Int_Tables_number       1
  _symmetry_cell_setting            triclinic
  loop_
  _symmetry_equiv_pos_as_xyz
 x,y,z
_cell_length_a 94.1401
_cell_length_b 93.2951
_cell_length_c 92.9620
_cell_angle_alpha 89.975100
_cell_angle_beta 89.992100
_cell_angle_gamma 89.999600
loop_
  _atom_site_label
  _atom_site_type_symbol
  _atom_site_fract_x
  _atom_site_fract_y
  _atom_site_fract_z
C1 C 0.35655 0.33748 0.33675
 C2 C 0.35050 0.33129 0.34909
 C3 C 0.33825 0.33718 0.35539
 C4 C 0.33209 0.34944 0.34922
 C5 C 0.33798 0.35578 0.33688
 C6 C 0.35023 0.34974 0.33075
 H7 H 0.35527 0.32180 0.35375
 H8 H 0.32239 0.35377 0.35375
 H9 H 0.35502 0.35476 0.32143
 C10 C 0.35670 0.83676 -0.16351
 C11 C 0.35045 0.84920 -0.16947
 C12 C 0.33811 0.85549 -0.16353
 C13 C 0.33213 0.84906 -0.15120
 C14 C 0.33810 0.83674 -0.14504
 C15 C 0.35031 0.83072 -0.15120
 H16 H 0.35518 0.85398 -0.17888
 H17 H 0.32227 0.85302 -0.14675
 H18 H 0.35514 0.82167 -0.14583
 C19 C 0.85665 0.33689 -0.16282
 C20 C 0.85042 0.33088 -0.15053
 C21 C 0.83828 0.33700 -0.14434
 C22 C 0.83239 0.34937 -0.15055
 C23 C 0.83838 0.35572 -0.16296
 C24 C 0.85062 0.34926 -0.16892
 H25 H 0.85520 0.32152 -0.14561
 H26 H 0.82256 0.35342 -0.14609
 H27 H 0.85580 0.35391 -0.17820
 C28 C 0.85600 0.83686 0.33676
 C29 C 0.84997 0.84919 0.33059
 C30 C 0.83770 0.85566 0.33650
 C31 C 0.83169 0.84935 0.34893
 C32 C 0.83760 0.83702 0.35520
 C33 C 0.84976 0.83088 0.34906
 H34 H 0.85515 0.85380 0.32132
 H35 H 0.82186 0.85341 0.35335
 H36 H 0.85454 0.82155 0.35403
 C37 C 0.64344 0.66333 0.33700
 C38 C 0.64966 0.66944 0.34929
 C39 C 0.66192 0.66346 0.35546
 C40 C 0.66792 0.65115 0.34923
 C41 C 0.66187 0.64488 0.33694
 C42 C 0.64961 0.65103 0.33092
 H43 H 0.64500 0.67897 0.35400
 H44 H 0.67719 0.64629 0.35412
 H45 H 0.64514 0.64651 0.32119
 C46 C 0.64405 0.16234 -0.16314
 C47 C 0.65030 0.15001 -0.16907
 C48 C 0.66274 0.14393 -0.16312
 C49 C 0.66864 0.15059 -0.15085
 C50 C 0.66252 0.16291 -0.14478
 C51 C 0.65022 0.16868 -0.15098
 H52 H 0.64559 0.14554 -0.17868
 H53 H 0.67769 0.14589 -0.14544
 H54 H 0.64568 0.17843 -0.14662
 C55 C 0.14423 0.66314 -0.16347
 C56 C 0.15047 0.66911 -0.15117
 C57 C 0.16264 0.66299 -0.14504
 C58 C 0.16856 0.65066 -0.15131
 C59 C 0.16255 0.64436 -0.16374
 C60 C 0.15027 0.65082 -0.16964
 H61 H 0.14568 0.67844 -0.14620
 H62 H 0.17840 0.64662 -0.14690
 H63 H 0.14509 0.64620 -0.17891
 C64 C 0.14353 0.16332 0.33715
 C65 C 0.14963 0.15099 0.33105
 C66 C 0.16188 0.14479 0.33701
 C67 C 0.16801 0.15103 0.34928
 C68 C 0.16208 0.16336 0.35555
 C69 C 0.14981 0.16939 0.34943
 H70 H 0.14488 0.14628 0.32155
 H71 H 0.17771 0.14658 0.35367
 H72 H 0.14500 0.17870 0.35438
 C73 C 0.64413 0.33712 0.66381
 C74 C 0.65023 0.34942 0.66996
 C75 C 0.66249 0.35564 0.66403
 C76 C 0.66860 0.34946 0.65172
 C77 C 0.66266 0.33717 0.64540
 C78 C 0.65040 0.33110 0.65150
 H79 H 0.64528 0.35431 0.67927
 H80 H 0.67809 0.35417 0.64711
 H81 H 0.64601 0.32137 0.64695
 C82 C 0.64337 0.83734 1.16290
 C83 C 0.64964 0.84972 1.16894
 C84 C 0.66200 0.85604 1.16307
 C85 C 0.66795 0.84972 1.15068
 C86 C 0.66194 0.83747 1.14441
 C87 C 0.64972 0.83141 1.15052
 H88 H 0.64423 0.85513 1.17762
 H89 H 0.67761 0.85393 1.14603
 H90 H 0.64578 0.82151 1.14598
 C91 C 0.14317 0.33668 1.16349
 C92 C 0.14936 0.34911 1.16951
 C93 C 0.16168 0.35527 1.16362
 C94 C 0.16790 0.34902 1.15144
 C95 C 0.16202 0.33672 1.14518
 C96 C 0.14971 0.33068 1.15120
 H97 H 0.14499 0.35387 1.17914
 H98 H 0.17763 0.35348 1.14712
 H99 H 0.14494 0.32165 1.14573
 C100 C 0.14408 0.83706 0.66320
 C101 C 0.15033 0.84946 0.66925
 C102 C 0.16272 0.85576 0.66339
 C103 C 0.16873 0.84937 0.65106
 C104 C 0.16277 0.83709 0.64483
 C105 C 0.15052 0.83107 0.65090
 H106 H 0.14556 0.85421 0.67865
 H107 H 0.17863 0.85333 0.64668
 H108 H 0.14570 0.82205 0.64547
 C109 C 0.35649 0.66262 0.66260
 C110 C 0.35022 0.65035 0.66863
 C111 C 0.33795 0.64429 0.66255
 C112 C 0.33199 0.65062 0.65024
 C113 C 0.33811 0.66290 0.64404
 C114 C 0.35038 0.66880 0.65029
 H115 H 0.35506 0.64534 0.67793
 H116 H 0.32229 0.64628 0.64576
 H117 H 0.35512 0.67830 0.64561
 C118 C 0.35604 0.16274 1.16344
 C119 C 0.35001 0.15039 1.16956
 C120 C 0.33774 0.14394 1.16366
 C121 C 0.33174 0.15025 1.15124
 C122 C 0.33764 0.16262 1.14500
 C123 C 0.34980 0.16875 1.15115
 H124 H 0.35542 0.14551 1.17857
 H125 H 0.32214 0.14596 1.14656
 H126 H 0.35415 0.17851 1.14662
 C127 C 0.85571 0.66292 1.16288
 C128 C 0.84942 0.66896 1.15058
 C129 C 0.83714 0.66293 1.14451
 C130 C 0.83119 0.65064 1.15083
 C131 C 0.83733 0.64443 1.16312
 C132 C 0.84961 0.65063 1.16904
 H133 H 0.85425 0.67825 1.14558
 H134 H 0.82148 0.64619 1.14647
 H135 H 0.85436 0.64594 1.17855
 C136 C 0.85711 0.16299 0.66337
 C137 C 0.85088 0.15056 0.66938
 C138 C 0.83851 0.14426 0.66351
 C139 C 0.83248 0.15068 0.65120
 C140 C 0.83842 0.16299 0.64500
 C141 C 0.85065 0.16901 0.65108
 H142 H 0.85565 0.14580 0.67877
 H143 H 0.82259 0.14672 0.64682
 H144 H 0.85546 0.17806 0.64567
 C145 C 0.33783 0.35552 0.66334
 C146 C 0.35009 0.34945 0.66943
 C147 C 0.35637 0.33718 0.66341
 C148 C 0.35027 0.33102 0.65109
 C149 C 0.33801 0.33692 0.64483
 C150 C 0.33189 0.34919 0.65101
 H151 H 0.35491 0.35445 0.67874
 H152 H 0.35502 0.32152 0.64642
 H153 H 0.32219 0.35354 0.64651
 C154 C 0.33711 0.85584 0.16324
 C155 C 0.34942 0.84976 0.16919
 C156 C 0.35566 0.83752 0.16304
 C157 C 0.34945 0.83142 0.15074
 C158 C 0.33713 0.83735 0.14463
 C159 C 0.33107 0.84959 0.15093
 H160 H 0.35411 0.85449 0.17871
 H161 H 0.35394 0.82173 0.14621
 H162 H 0.32176 0.85441 0.14609
 C163 C 0.83696 0.35573 0.16348
 C164 C 0.84926 0.34968 0.16950
 C165 C 0.85551 0.33740 0.16345
 C166 C 0.84933 0.33122 0.15117
 C167 C 0.83702 0.33712 0.14499
 C168 C 0.83096 0.34940 0.15120
 H169 H 0.85393 0.35446 0.17901
 H170 H 0.85382 0.32150 0.14670
 H171 H 0.82166 0.35420 0.14631
 C172 C 0.83812 0.85614 0.66249
 C173 C 0.85037 0.85012 0.66866
 C174 C 0.85668 0.83783 0.66271
 C175 C 0.85063 0.83160 0.65039
 C176 C 0.83839 0.83746 0.64407
 C177 C 0.83223 0.84975 0.65018
 H178 H 0.85493 0.85495 0.67819
 H179 H 0.85540 0.82209 0.64579
 H180 H 0.82275 0.85429 0.64541
 C181 C 0.66296 0.64420 0.66357
 C182 C 0.65064 0.65024 0.66956
 C183 C 0.64437 0.66249 0.66347
 C184 C 0.65055 0.66865 0.65117
 C185 C 0.66287 0.66277 0.64502
 C186 C 0.66897 0.65052 0.65128
 H187 H 0.64598 0.64547 0.67908
 H188 H 0.64604 0.67835 0.64668
 H189 H 0.67828 0.64573 0.64640
 C190 C 0.66220 0.14386 0.16262
 C191 C 0.66807 0.15030 0.15032
 C192 C 0.66184 0.16256 0.14421
 C193 C 0.64955 0.16833 0.15052
 C194 C 0.64352 0.16205 0.16282
 C195 C 0.64991 0.14980 0.16878
 H196 H 0.67758 0.14582 0.14555
 H197 H 0.64473 0.17782 0.14591
 H198 H 0.64536 0.14494 0.17831
 C199 C 0.16220 0.64427 0.16283
 C200 C 0.14995 0.65041 0.16887
 C201 C 0.14376 0.66270 0.16281
 C202 C 0.14993 0.66882 0.15049
 C203 C 0.16218 0.66284 0.14428
 C204 C 0.16822 0.65054 0.15052
 H205 H 0.14507 0.64545 0.17818
 H206 H 0.14525 0.67833 0.14579
 H207 H 0.17791 0.64613 0.14606
 C208 C 0.16273 0.14421 0.66327
 C209 C 0.15048 0.15041 0.66926
 C210 C 0.14438 0.16274 0.66317
 C211 C 0.15064 0.16881 0.65088
 C212 C 0.16289 0.16278 0.64473
 C213 C 0.16884 0.15046 0.65098
 H214 H 0.14576 0.14570 0.67878
 H215 H 0.14580 0.17813 0.64593
 H216 H 0.17853 0.14600 0.64657
 C217 C 0.33745 0.64461 0.33621
 C218 C 0.33134 0.65085 0.34850
 C219 C 0.33728 0.66317 0.35475
 C220 C 0.34954 0.66921 0.34861
 C221 C 0.35580 0.66314 0.33632
 C222 C 0.34969 0.65082 0.33022
 H223 H 0.32165 0.64639 0.35291
 H224 H 0.35437 0.67852 0.35356
 H225 H 0.35442 0.64611 0.32071
 C226 C 0.33757 0.14443 0.83702
 C227 C 0.33144 0.15068 0.84929
 C228 C 0.33738 0.16301 0.85555
 C229 C 0.34964 0.16903 0.84943
 C230 C 0.35593 0.16296 0.83716
 C231 C 0.34983 0.15063 0.83105
 H232 H 0.32174 0.14623 0.85368
 H233 H 0.35447 0.17834 0.85438
 H234 H 0.35458 0.14592 0.82156
 C235 C 0.83809 0.64474 0.83701
 C236 C 0.83207 0.65104 0.84930
 C237 C 0.83809 0.66337 0.85548
 C238 C 0.85031 0.66937 0.84923
 C239 C 0.85648 0.66323 0.83693
 C240 C 0.85032 0.65089 0.83093
 H241 H 0.82240 0.64662 0.85379
 H242 H 0.85497 0.67891 0.85389
 H243 H 0.85520 0.64591 0.82164
 C244 C 0.83708 0.14442 0.33686
 C245 C 0.84935 0.15063 0.33093
 C246 C 0.85548 0.16290 0.33711
 C247 C 0.84922 0.16892 0.34942
 C248 C 0.83695 0.16287 0.35552
 C249 C 0.83099 0.15059 0.34919
 H250 H 0.85386 0.14619 0.32118
 H251 H 0.85384 0.17842 0.35421
 H252 H 0.82172 0.14568 0.35402
 C253 C 0.66247 0.35526 0.33719
 C254 C 0.66845 0.34897 0.34952
 C255 C 0.66242 0.33664 0.35570
 C256 C 0.65021 0.33066 0.34943
 C257 C 0.64408 0.33677 0.33709
 C258 C 0.65027 0.34910 0.33108
 H259 H 0.67789 0.35362 0.35426
 H260 H 0.64532 0.32134 0.35432
 H261 H 0.64586 0.35363 0.32132
 C262 C 0.66229 0.85590 0.83651
 C263 C 0.66822 0.84959 0.84885
 C264 C 0.66208 0.83733 0.85506
 C265 C 0.64982 0.83142 0.84880
 C266 C 0.64374 0.83758 0.83646
 C267 C 0.65003 0.84984 0.83043
 H268 H 0.67792 0.85394 0.85335
 H269 H 0.64507 0.82193 0.85349
 H270 H 0.64521 0.85483 0.82110
 C271 C 0.16248 0.35585 0.83705
 C272 C 0.16859 0.34969 0.84938
 C273 C 0.16267 0.33738 0.85570
 C274 C 0.15045 0.33127 0.84958
 C275 C 0.14419 0.33726 0.83725
 C276 C 0.15026 0.34958 0.83109
 H277 H 0.17805 0.35443 0.85399
 H278 H 0.14609 0.32152 0.85413
 H279 H 0.14531 0.35445 0.82178
 C280 C 0.16168 0.85580 0.33699
 C281 C 0.16763 0.84948 0.34931
 C282 C 0.16155 0.83716 0.35546
 C283 C 0.14934 0.83121 0.34917
 C284 C 0.14323 0.83737 0.33684
 C285 C 0.14946 0.84969 0.33086
 H286 H 0.17730 0.85386 0.35383
 H287 H 0.14463 0.82167 0.35381
 H288 H 0.14463 0.85468 0.32155
 O289 O 0.23199 0.98631 0.25211
 O290 O 0.25184 1.01417 0.23253
 O291 O 0.25180 0.98624 0.23261
 O292 O 0.23202 1.01425 0.25202
 O293 O 0.24834 1.01428 0.26904
 O294 O 0.26813 0.98625 0.24962
 O295 O 0.26817 1.01419 0.24954
 O296 O 0.24832 0.98633 0.26913
 Cu297 Cu 0.24028 1.00024 0.24062
 Cu298 Cu 0.25987 1.00027 0.26104
 C299 C 0.23678 0.98151 0.26395
 C300 C 0.26339 1.01898 0.23770
 C301 C 0.26333 0.98141 0.23781
 C302 C 0.23681 1.01910 0.26383
 O303 O 0.24809 0.51419 0.76767
 O304 O 0.26777 0.48618 0.74815
 O305 O 0.26778 0.51411 0.74803
 O306 O 0.24808 0.48626 0.76778
 O307 O 0.23165 0.48620 0.75088
 O308 O 0.25134 0.51406 0.73113
 O309 O 0.25133 0.48612 0.73124
 O310 O 0.23166 0.51414 0.75076
 Cu311 Cu 0.25958 0.50019 0.75960
 Cu312 Cu 0.23985 0.50013 0.73931
 C313 C 0.23653 0.51900 0.76254
 C314 C 0.26290 0.48131 0.73637
 C315 C 0.26291 0.51890 0.73622
 C316 C 0.23651 0.48142 0.76269
 O317 O 0.75200 -0.01423 0.26795
 O318 O 0.73219 0.01368 0.24841
 O319 O 0.73216 -0.01426 0.24849
 O320 O 0.75205 0.01370 0.26785
 O321 O 0.76834 0.01364 0.25080
 O322 O 0.74845 -0.01433 0.23144
 O323 O 0.74848 0.01361 0.23136
 O324 O 0.76830 -0.01430 0.25091
 Cu325 Cu 0.74047 -0.00027 0.25988
 Cu326 Cu 0.76003 -0.00036 0.23942
 C327 C 0.76352 -0.01909 0.26276
 C328 C 0.73696 0.01846 0.23656
 C329 C 0.73692 -0.01912 0.23667
 C330 C 0.76358 0.01850 0.26262
 O331 O 0.74865 0.48592 0.73270
 O332 O 0.76842 0.51388 0.75220
 O333 O 0.76849 0.48594 0.75216
 O334 O 0.74861 0.51385 0.73271
 O335 O 0.73229 0.51381 0.74974
 O336 O 0.75218 0.48588 0.76919
 O337 O 0.75211 0.51382 0.76923
 O338 O 0.73234 0.48587 0.74973
 Cu339 Cu 0.76018 0.49990 0.74074
 Cu340 Cu 0.74060 0.49984 0.76118
 C341 C 0.73713 0.48108 0.73789
 C342 C 0.76363 0.51867 0.76403
 C343 C 0.76372 0.48109 0.76399
 C344 C 0.73707 0.51865 0.73791
 O345 O 0.26773 0.51380 0.25122
 O346 O 0.24798 0.48575 0.23183
 O347 O 0.24802 0.51369 0.23163
 O348 O 0.26770 0.48587 0.25142
 O349 O 0.25130 0.48599 0.26836
 O350 O 0.23161 0.51382 0.24857
 O351 O 0.23157 0.48588 0.24877
 O352 O 0.25133 0.51393 0.26816
 Cu353 Cu 0.25950 0.49976 0.23983
 Cu354 Cu 0.23981 0.49992 0.26016
 C355 C 0.26289 0.51871 0.26299
 C356 C 0.23641 0.48098 0.23700
 C357 C 0.23647 0.51856 0.23673
 C358 C 0.26286 0.48113 0.26326
 O359 O 0.73251 0.98625 0.75123
 O360 O 0.75220 1.01427 0.73171
 O361 O 0.75225 0.98634 0.73165
 O362 O 0.73243 1.01418 0.75125
 O363 O 0.74881 1.01418 0.76822
 O364 O 0.76863 0.98633 0.74861
 O365 O 0.76858 1.01426 0.74867
 O366 O 0.74888 0.98625 0.76819
 Cu367 Cu 0.74071 1.00026 0.73976
 Cu368 Cu 0.76037 1.00026 0.76012
 C369 C 0.73734 0.98142 0.76303
 C370 C 0.76375 1.01910 0.73687
 C371 C 0.76381 0.98152 0.73679
 C372 C 0.73724 1.01899 0.76307
 O373 O 0.76731 0.48633 0.24894
 O374 O 0.74732 0.51422 0.26830
 O375 O 0.74743 0.48628 0.26836
 O376 O 0.76720 0.51426 0.24887
 O377 O 0.75093 0.51418 0.23180
 O378 O 0.73116 0.48619 0.25130
 O379 O 0.73105 0.51414 0.25124
 O380 O 0.75104 0.48624 0.23187
 Cu381 Cu 0.75894 0.50029 0.26033
 Cu382 Cu 0.73941 0.50018 0.23984
 C383 C 0.76258 0.48147 0.23710
 C384 C 0.73579 0.51900 0.26307
 C385 C 0.73593 0.48140 0.26314
 C386 C 0.76243 0.51905 0.23702
 O387 O 0.25197 -0.01428 0.76848
 O388 O 0.23224 0.01364 0.74885
 O389 O 0.23228 -0.01430 0.74885
 O390 O 0.25192 0.01366 0.76847
 O391 O 0.26836 0.01369 0.75156
 O392 O 0.24871 -0.01428 0.73194
 O393 O 0.24867 0.01366 0.73194
 O394 O 0.26840 -0.01425 0.75157
 Cu395 Cu 0.24046 -0.00032 0.76036
 Cu396 Cu 0.26018 -0.00029 0.74006
 C397 C 0.26354 -0.01909 0.76337
 C398 C 0.23710 0.01847 0.73705
 C399 C 0.23715 -0.01912 0.73706
 C400 C 0.26348 0.01851 0.76335
 O401 O 0.24838 0.26822 0.98639
 O402 O 0.26816 0.24871 1.01439
 O403 O 0.26802 0.24862 0.98635
 O404 O 0.24849 0.26828 1.01443
 O405 O 0.23203 0.25146 1.01455
 O406 O 0.25156 0.23180 0.98648
 O407 O 0.25171 0.23189 1.01452
 O408 O 0.23191 0.25140 0.98651
 Cu409 Cu 0.25991 0.26015 1.00038
 Cu410 Cu 0.24015 0.23995 1.00053
 C411 C 0.23678 0.26313 0.98162
 C412 C 0.26331 0.23698 1.01929
 C413 C 0.26311 0.23686 0.98157
 C414 C 0.23693 0.26321 1.01933
 O415 O 0.24822 0.76827 0.48570
 O416 O 0.26807 0.74870 0.51362
 O417 O 0.26786 0.74867 0.48558
 O418 O 0.24844 0.76832 0.51374
 O419 O 0.23197 0.75151 0.51390
 O420 O 0.25139 0.73186 0.48574
 O421 O 0.25160 0.73190 0.51378
 O422 O 0.23174 0.75147 0.48587
 Cu423 Cu 0.25980 0.76018 0.49964
 Cu424 Cu 0.24002 0.74000 0.49984
 C425 C 0.23660 0.76320 0.48097
 C426 C 0.26321 0.73697 0.51852
 C427 C 0.26293 0.73692 0.48080
 C428 C 0.23690 0.76326 0.51868
 O429 O 0.26857 0.75101 -0.01426
 O430 O 0.24889 0.73143 0.01379
 O431 O 0.24894 0.73139 -0.01425
 O432 O 0.26857 0.75100 0.01378
 O433 O 0.25210 0.76781 0.01375
 O434 O 0.23248 0.74820 -0.01428
 O435 O 0.23243 0.74824 0.01375
 O436 O 0.25210 0.76783 -0.01428
 Cu437 Cu 0.26039 0.73952 -0.00023
 Cu438 Cu 0.24063 0.75971 -0.00027
 C439 C 0.26368 0.76275 -0.01911
 C440 C 0.23730 0.73650 0.01861
 C441 C 0.23737 0.73646 -0.01911
 C442 C 0.26367 0.76274 0.01861
 O443 O 0.24909 0.23154 0.51400
 O444 O 0.26875 0.25117 0.48598
 O445 O 0.26875 0.25113 0.51402
 O446 O 0.24905 0.23161 0.48596
 O447 O 0.23261 0.24845 0.48601
 O448 O 0.25230 0.26797 0.51405
 O449 O 0.25230 0.26800 0.48601
 O450 O 0.23265 0.24838 0.51405
 Cu451 Cu 0.26056 0.23968 0.49999
 Cu452 Cu 0.24082 0.25988 0.50003
 C453 C 0.23753 0.23662 0.51886
 C454 C 0.26387 0.26292 0.48116
 C455 C 0.26387 0.26288 0.51888
 C456 C 0.23748 0.23671 0.48115
 O457 O 0.74770 0.76813 0.98588
 O458 O 0.76729 0.74844 1.01390
 O459 O 0.76740 0.74859 0.98587
 O460 O 0.74760 0.76800 1.01391
 O461 O 0.73117 0.75115 1.01379
 O462 O 0.75098 0.73173 0.98573
 O463 O 0.75086 0.73159 1.01377
 O464 O 0.73127 0.75128 0.98575
 Cu465 Cu 0.75914 0.75998 0.99991
 Cu466 Cu 0.73942 0.73975 0.99974
 C467 C 0.73615 0.76306 0.98098
 C468 C 0.76241 0.73666 1.01867
 C469 C 0.76256 0.73686 0.98096
 C470 C 0.73602 0.76288 1.01870
 O471 O 0.75159 0.23167 0.48660
 O472 O 0.73188 0.25114 0.51467
 O473 O 0.73186 0.25119 0.48664
 O474 O 0.75161 0.23162 0.51463
 O475 O 0.76801 0.24849 0.51463
 O476 O 0.74827 0.26807 0.48664
 O477 O 0.74829 0.26802 0.51468
 O478 O 0.76799 0.24854 0.48660
 Cu479 Cu 0.74009 0.23971 0.50063
 Cu480 Cu 0.75979 0.25997 0.50064
 C481 C 0.76314 0.23679 0.48175
 C482 C 0.73673 0.26289 0.51952
 C483 C 0.73671 0.26296 0.48181
 C484 C 0.76317 0.23672 0.51946
 O485 O 0.73151 0.24925 -0.01400
 O486 O 0.75141 0.26845 0.01413
 O487 O 0.75137 0.26864 -0.01391
 O488 O 0.73154 0.24907 0.01403
 O489 O 0.74784 0.23208 0.01391
 O490 O 0.76766 0.25165 -0.01402
 O491 O 0.76770 0.25146 0.01401
 O492 O 0.74780 0.23227 -0.01412
 Cu493 Cu 0.73983 0.26056 0.00008
 Cu494 Cu 0.75938 0.24016 -0.00007
 C495 C 0.73627 0.23749 -0.01891
 C496 C 0.76294 0.26322 0.01892
 C497 C 0.76289 0.26347 -0.01879
 C498 C 0.73631 0.23724 0.01879
 O499 O 0.73123 0.74950 0.48618
 O500 O 0.75123 0.76886 0.51413
 O501 O 0.75104 0.76894 0.48609
 O502 O 0.73140 0.74944 0.51423
 O503 O 0.74773 0.73249 0.51408
 O504 O 0.76736 0.75199 0.48595
 O505 O 0.76756 0.75191 0.51398
 O506 O 0.74757 0.73255 0.48605
 Cu507 Cu 0.73959 0.76088 0.50017
 Cu508 Cu 0.75919 0.74054 0.50000
 C509 C 0.73600 0.73773 0.48129
 C510 C 0.76281 0.76368 0.51887
 C511 C 0.76254 0.76379 0.48117
 C512 C 0.73623 0.73765 0.51901
 O513 O 1.01325 0.26803 0.24852
 O514 O 0.98556 0.24821 0.26819
 O515 O 1.01325 0.24823 0.26821
 O516 O 0.98556 0.26801 0.24850
 O517 O 0.98558 0.25138 0.23165
 O518 O 1.01328 0.23159 0.25137
 O519 O 0.98558 0.23157 0.25135
 O520 O 1.01327 0.25140 0.23167
 Cu521 Cu 0.99940 0.25979 0.26004
 Cu522 Cu 0.99943 0.23982 0.23982
 C523 C 1.01804 0.26309 0.23675
 C524 C 0.98078 0.23652 0.26311
 C525 C 1.01805 0.23655 0.26314
 C526 C 0.98078 0.26306 0.23672
 O527 O 0.51398 0.26763 0.74856
 O528 O 0.48626 0.24791 0.76829
 O529 O 0.51395 0.24786 0.76829
 O530 O 0.48630 0.26772 0.74860
 O531 O 0.48624 0.25107 0.73176
 O532 O 0.51390 0.23121 0.75146
 O533 O 0.48621 0.23126 0.75146
 O534 O 0.51393 0.25098 0.73172
 Cu535 Cu 0.50013 0.25945 0.76012
 Cu536 Cu 0.50007 0.23946 0.73991
 C537 C 0.51875 0.26266 0.73679
 C538 C 0.48144 0.23623 0.76323
 C539 C 0.51871 0.23617 0.76322
 C540 C 0.48149 0.26277 0.73684
 O541 O -0.01333 0.23133 0.74903
 O542 O 0.01434 0.25100 0.76887
 O543 O -0.01335 0.25109 0.76876
 O544 O 0.01436 0.23127 0.74911
 O545 O 0.01445 0.24796 0.73231
 O546 O -0.01325 0.26778 0.75195
 O547 O 0.01444 0.26769 0.75207
 O548 O -0.01323 0.24802 0.73222
 Cu549 Cu 0.00049 0.23950 0.76063
 Cu550 Cu 0.00062 0.25954 0.74045
 C551 C -0.01806 0.23633 0.73725
 C552 C 0.01917 0.26268 0.76384
 C553 C -0.01809 0.26280 0.76369
 C554 C 0.01919 0.23625 0.73737
 O555 O 0.51402 0.24851 0.23132
 O556 O 0.48642 0.26848 0.25099
 O557 O 0.51412 0.26838 0.25094
 O558 O 0.48633 0.24869 0.23130
 O559 O 0.48625 0.23208 0.24819
 O560 O 0.51405 0.25177 0.26782
 O561 O 0.48636 0.25187 0.26787
 O562 O 0.51393 0.23190 0.24822
 Cu563 Cu 0.50023 0.26018 0.23944
 Cu564 Cu 0.50014 0.24024 0.25972
 C565 C 0.51874 0.23680 0.23643
 C566 C 0.48162 0.26357 0.26278
 C567 C 0.51888 0.26343 0.26272
 C568 C 0.48149 0.23704 0.23640
 O569 O 0.98644 0.75207 0.73164
 O570 O 1.01410 0.73222 0.75132
 O571 O 0.98641 0.73230 0.75137
 O572 O 1.01413 0.75202 0.73162
 O573 O 1.01419 0.76867 0.74845
 O574 O 0.98647 0.74896 0.76820
 O575 O 1.01416 0.74887 0.76815
 O576 O 0.98650 0.76873 0.74847
 Cu577 Cu 1.00027 0.74048 0.73980
 Cu578 Cu 1.00033 0.76047 0.76001
 C579 C 0.98169 0.76377 0.73671
 C580 C 1.01891 0.73717 0.76308
 C581 C 0.98165 0.73728 0.76314
 C582 C 1.01895 0.76369 0.73668
 O583 O 0.48593 0.75136 0.23070
 O584 O 0.51362 0.73156 0.25042
 O585 O 0.48592 0.73156 0.25040
 O586 O 0.51363 0.75134 0.23069
 O587 O 0.51363 0.76799 0.24752
 O588 O 0.48593 0.74821 0.26723
 O589 O 0.51361 0.74821 0.26724
 O590 O 0.48594 0.76800 0.24753
 Cu591 Cu 0.49977 0.73978 0.23886
 Cu592 Cu 0.49978 0.75977 0.25907
 C593 C 0.48115 0.76305 0.23577
 C594 C 0.51840 0.73652 0.26219
 C595 C 0.48114 0.73652 0.26217
 C596 C 0.51841 0.76302 0.23576
 O597 O 0.01365 0.75133 0.26792
 O598 O -0.01402 0.73154 0.24822
 O599 O 0.01367 0.73160 0.24817
 O600 O -0.01403 0.75131 0.26793
 O601 O -0.01407 0.76799 0.25110
 O602 O 0.01363 0.74828 0.23135
 O603 O -0.01406 0.74821 0.23140
 O604 O 0.01361 0.76802 0.25110
 Cu605 Cu -0.00018 0.73977 0.25974
 Cu606 Cu -0.00023 0.75979 0.23955
 C607 C 0.01841 0.76304 0.26286
 C608 C -0.01882 0.73651 0.23646
 C609 C 0.01844 0.73659 0.23640
 C610 C -0.01884 0.76300 0.26288
 O611 O 0.48632 0.76821 0.75087
 O612 O 0.51408 0.74844 0.73125
 O613 O 0.48639 0.74841 0.73119
 O614 O 0.51400 0.76825 0.75093
 O615 O 0.51399 0.75162 0.76779
 O616 O 0.48637 0.73178 0.74806
 O617 O 0.51406 0.73181 0.74812
 O618 O 0.48631 0.75158 0.76774
 Cu619 Cu 0.50020 0.76000 0.73937
 Cu620 Cu 0.50018 0.74003 0.75961
 C621 C 0.48152 0.76326 0.76265
 C622 C 0.51887 0.73676 0.73635
 C623 C 0.48161 0.73672 0.73627
 C624 C 0.51877 0.76331 0.76272
 C625 C 0.38213 0.32349 0.30850
 C626 C 0.39324 0.31831 0.31704
 C627 C 0.39245 0.31950 0.33203
 C628 C 0.38056 0.32580 0.33846
 C629 C 0.36931 0.33099 0.32996
 C630 C 0.37025 0.32980 0.31490
 C631 C 0.40534 0.31158 0.31040
 C632 C 0.41536 0.30586 0.30472
 C633 C 0.42696 0.29906 0.29795
 C634 C 0.43676 0.29316 0.29207
 C635 C 0.44831 0.28597 0.28495
 C636 C 0.45384 0.27327 0.29066
 C637 C 0.46478 0.26604 0.28353
 C638 C 0.47033 0.27144 0.27056
 C639 C 0.46478 0.28430 0.26497
 C640 C 0.45384 0.29150 0.27212
 H641 H 0.38261 0.32257 0.29689
 H642 H 0.40100 0.31553 0.33874
 H643 H 0.38022 0.32672 0.35007
 H644 H 0.36168 0.33351 0.30809
 H645 H 0.44962 0.26888 0.30058
 H646 H 0.46880 0.25618 0.28812
 H647 H 0.46882 0.28874 0.25500
 H648 H 0.44963 0.30132 0.26759
 C649 C 0.38361 0.80926 0.82526
 C650 C 0.39313 0.81759 0.81733
 C651 C 0.39076 0.83229 0.81588
 C652 C 0.37887 0.83866 0.82223
 C653 C 0.36900 0.83042 0.83022
 C654 C 0.37171 0.81555 0.83165
 C655 C 0.40519 0.81098 0.81051
 C656 C 0.41519 0.80533 0.80473
 C657 C 0.42677 0.79858 0.79788
 C658 C 0.43656 0.79270 0.79196
 C659 C 0.44812 0.78554 0.78482
 C660 C 0.45363 0.79109 0.77199
 C661 C 0.46459 0.78392 0.76483
 C662 C 0.47018 0.77107 0.77042
 C663 C 0.46464 0.76565 0.78338
 C664 C 0.45368 0.77284 0.79052
 H665 H 0.38528 0.79782 0.82635
 H666 H 0.39815 0.83888 0.80986
 H667 H 0.37784 0.85016 0.82122
 H668 H 0.36437 0.80850 0.83712
 H669 H 0.44939 0.80090 0.76747
 H670 H 0.46862 0.78838 0.75488
 H671 H 0.46869 0.75579 0.78797
 H672 H 0.44947 0.76844 0.80043
 C673 C -0.10734 0.33218 0.81937
 C674 C -0.10669 0.31726 0.81787
 C675 C -0.11795 0.30878 0.82278
 C676 C -0.12983 0.31516 0.82912
 C677 C -0.13062 0.33014 0.83062
 C678 C -0.11922 0.33859 0.82570
 C679 C -0.09458 0.31064 0.81116
 C680 C -0.08454 0.30498 0.80546
 C681 C -0.07292 0.29820 0.79871
 C682 C -0.06310 0.29230 0.79286
 C683 C -0.05151 0.28513 0.78577
 C684 C -0.04603 0.27239 0.79146
 C685 C -0.03505 0.26519 0.78437
 C686 C -0.02943 0.27064 0.77145
 C687 C -0.03493 0.28352 0.76588
 C688 C -0.04591 0.29071 0.77300
 H689 H -0.09867 0.33885 0.81562
 H690 H -0.11758 0.29723 0.82164
 H691 H -0.13850 0.30839 0.83264
 H692 H -0.11944 0.35014 0.82687
 H693 H -0.05031 0.26797 0.80133
 H694 H -0.03106 0.25530 0.78894
 H695 H -0.03084 0.28801 0.75596
 H696 H -0.05009 0.30055 0.76849
 C697 C -0.11855 0.80873 0.32245
 C698 C -0.10732 0.81723 0.31750
 C699 C -0.10798 0.83214 0.31897
 C700 C -0.11986 0.83855 0.32530
 C701 C -0.13125 0.83010 0.33025
 C702 C -0.13043 0.81511 0.32879
 C703 C -0.09522 0.81062 0.31074
 C704 C -0.08520 0.80497 0.30501
 C705 C -0.07359 0.79822 0.29819
 C706 C -0.06379 0.79235 0.29229
 C707 C -0.05222 0.78521 0.28513
 C708 C -0.04671 0.79080 0.27232
 C709 C -0.03575 0.78365 0.26514
 C710 C -0.03017 0.77079 0.27068
 C711 C -0.03570 0.76533 0.28364
 C712 C -0.04666 0.77250 0.29080
 H713 H -0.11817 0.79718 0.32133
 H714 H -0.09933 0.83882 0.31519
 H715 H -0.12010 0.85010 0.32644
 H716 H -0.13910 0.80834 0.33234
 H717 H -0.05096 0.80062 0.26782
 H718 H -0.03174 0.78814 0.25519
 H719 H -0.03164 0.75547 0.28820
 H720 H -0.05086 0.76807 0.30070
 C721 C 0.61788 0.69123 0.32240
 C722 C 0.60686 0.68261 0.31719
 C723 C 0.60771 0.66770 0.31855
 C724 C 0.61957 0.66141 0.32505
 C725 C 0.63073 0.66998 0.33029
 C726 C 0.62973 0.68497 0.32892
 C727 C 0.59478 0.68911 0.31029
 C728 C 0.58476 0.69468 0.30445
 C729 C 0.57316 0.70135 0.29755
 C730 C 0.56336 0.70718 0.29161
 C731 C 0.55179 0.71430 0.28444
 C732 C 0.54629 0.70872 0.27163
 C733 C 0.53532 0.71587 0.26444
 C734 C 0.52973 0.72872 0.26999
 C735 C 0.53525 0.73417 0.28295
 C736 C 0.54621 0.72700 0.29011
 H737 H 0.61735 0.70278 0.32135
 H738 H 0.59923 0.66093 0.31456
 H739 H 0.61997 0.64985 0.32610
 H740 H 0.63824 0.69184 0.33265
 H741 H 0.55054 0.69891 0.26713
 H742 H 0.53131 0.71138 0.25450
 H743 H 0.53119 0.74403 0.28750
 H744 H 0.55041 0.73143 0.30001
 C745 C 0.61848 0.17656 0.80870
 C746 C 0.60735 0.18163 0.81728
 C747 C 0.60814 0.18030 0.83226
 C748 C 0.62004 0.17397 0.83864
 C749 C 0.63130 0.16887 0.83010
 C750 C 0.63038 0.17022 0.81505
 C751 C 0.59523 0.18836 0.81069
 C752 C 0.58518 0.19408 0.80506
 C753 C 0.57355 0.20087 0.79833
 C754 C 0.56372 0.20675 0.79248
 C755 C 0.55213 0.21389 0.78537
 C756 C 0.54657 0.22659 0.79108
 C757 C 0.53559 0.23377 0.78395
 C758 C 0.53004 0.22834 0.77100
 C759 C 0.53561 0.21549 0.76542
 C760 C 0.54659 0.20833 0.77257
 H761 H 0.61801 0.17759 0.79710
 H762 H 0.59958 0.18419 0.83900
 H763 H 0.62040 0.17296 0.85024
 H764 H 0.63897 0.16660 0.80821
 H765 H 0.55079 0.23099 0.80097
 H766 H 0.53154 0.24363 0.78853
 H767 H 0.53158 0.21103 0.75548
 H768 H 0.55083 0.19852 0.76804
 C769 C 1.10818 0.66783 0.81880
 C770 C 1.10750 0.68275 0.81734
 C771 C 1.11873 0.69125 0.82227
 C772 C 1.13064 0.68487 0.82858
 C773 C 1.13147 0.66988 0.83003
 C774 C 1.12009 0.66143 0.82510
 C775 C 1.09538 0.68936 0.81063
 C776 C 1.08534 0.69502 0.80493
 C777 C 1.07371 0.70178 0.79817
 C778 C 1.06389 0.70767 0.79231
 C779 C 1.05230 0.71483 0.78521
 C780 C 1.04680 0.72755 0.79090
 C781 C 1.03583 0.73476 0.78379
 C782 C 1.03023 0.72932 0.77086
 C783 C 1.03575 0.71645 0.76529
 C784 C 1.04672 0.70927 0.77243
 H785 H 1.09953 0.66115 0.81504
 H786 H 1.11834 0.70280 0.82115
 H787 H 1.13930 0.69165 0.83211
 H788 H 1.12034 0.64988 0.82624
 H789 H 1.05106 0.73197 0.80078
 H790 H 1.03182 0.74464 0.78836
 H791 H 1.03169 0.71198 0.75537
 H792 H 1.05092 0.69943 0.76792
 C793 C 1.11784 0.19126 0.32288
 C794 C 1.10677 0.18267 0.31773
 C795 C 1.10763 0.16775 0.31904
 C796 C 1.11954 0.16143 0.32542
 C797 C 1.13075 0.16998 0.33059
 C798 C 1.12975 0.18497 0.32927
 C799 C 1.09465 0.18919 0.31093
 C800 C 1.08460 0.19477 0.30517
 C801 C 1.07295 0.20144 0.29835
 C802 C 1.06312 0.20727 0.29245
 C803 C 1.05151 0.21437 0.28532
 C804 C 1.04600 0.20879 0.27252
 C805 C 1.03501 0.21592 0.26536
 C806 C 1.02939 0.22876 0.27093
 C807 C 1.03493 0.23421 0.28388
 C808 C 1.04592 0.22705 0.29101
 H809 H 1.11731 0.20282 0.32187
 H810 H 1.09911 0.16099 0.31511
 H811 H 1.11993 0.14987 0.32644
 H812 H 1.13828 0.19183 0.33296
 H813 H 1.05026 0.19899 0.26800
 H814 H 1.03099 0.21144 0.25541
 H815 H 1.03086 0.24406 0.28845
 H816 H 1.05013 0.23148 0.30091
 C817 C 0.60845 0.31858 0.66800
 C818 C 0.60745 0.31736 0.68298
 C819 C 0.61836 0.32269 0.69168
 C820 C 0.63025 0.32917 0.68545
 C821 C 0.63139 0.33041 0.67041
 C822 C 0.62034 0.32505 0.66175
 C823 C 0.59533 0.31052 0.68945
 C824 C 0.58528 0.30473 0.69501
 C825 C 0.57364 0.29788 0.70167
 C826 C 0.56381 0.29198 0.70750
 C827 C 0.55221 0.28484 0.71461
 C828 C 0.54667 0.29043 0.72740
 C829 C 0.53568 0.28330 0.73455
 C830 C 0.53010 0.27045 0.72900
 C831 C 0.53566 0.26498 0.71606
 C832 C 0.54665 0.27214 0.70893
 H833 H 0.60005 0.31451 0.66117
 H834 H 0.61773 0.32175 0.70328
 H835 H 0.63867 0.33300 0.69240
 H836 H 0.62084 0.32600 0.65015
 H837 H 0.55091 0.30025 0.73190
 H838 H 0.53164 0.28779 0.74448
 H839 H 0.53161 0.25512 0.71150
 H840 H 0.55088 0.26771 0.69904
 C841 C 0.60963 0.81625 0.16718
 C842 C 0.60697 0.81792 0.18186
 C843 C 0.61620 0.82612 0.19025
 C844 C 0.62810 0.83259 0.18404
 C845 C 0.63109 0.83098 0.16919
 C846 C 0.62153 0.82267 0.16090
 C847 C 0.59489 0.81106 0.18840
 C848 C 0.58487 0.80525 0.19399
 C849 C 0.57325 0.79838 0.20068
 C850 C 0.56344 0.79245 0.20651
 C851 C 0.55186 0.78529 0.21361
 C852 C 0.54628 0.79086 0.22639
 C853 C 0.53530 0.78370 0.23353
 C854 C 0.52976 0.77084 0.22798
 C855 C 0.53535 0.76538 0.21505
 C856 C 0.54633 0.77257 0.20793
 H857 H 0.60248 0.81000 0.16056
 H858 H 0.61430 0.82738 0.20168
 H859 H 0.63522 0.83829 0.19114
 H860 H 0.62283 0.82146 0.14941
 H861 H 0.55049 0.80069 0.23090
 H862 H 0.53124 0.78819 0.24346
 H863 H 0.53133 0.75551 0.21049
 H864 H 0.55058 0.76814 0.19805
 C865 C 1.10916 0.33211 0.18413
 C866 C 1.10665 0.31746 0.18242
 C867 C 1.11607 0.30919 0.17433
 C868 C 1.12801 0.31549 0.16802
 C869 C 1.13085 0.33031 0.16968
 C870 C 1.12109 0.33849 0.17786
 C871 C 1.09455 0.31084 0.18916
 C872 C 1.08451 0.30518 0.19487
 C873 C 1.07289 0.29842 0.20165
 C874 C 1.06307 0.29253 0.20752
 C875 C 1.05148 0.28538 0.21463
 C876 C 1.04594 0.27268 0.20892
 C877 C 1.03496 0.26549 0.21603
 C878 C 1.02938 0.27092 0.22898
 C879 C 1.03494 0.28377 0.23456
 C880 C 1.04592 0.29093 0.22743
 H881 H 1.10185 0.33865 0.19030
 H882 H 1.11430 0.29778 0.17305
 H883 H 1.13527 0.30846 0.16241
 H884 H 1.12224 0.34995 0.17909
 H885 H 1.05018 0.26827 0.19903
 H886 H 1.03092 0.25563 0.21145
 H887 H 1.03090 0.28823 0.24450
 H888 H 1.05015 0.30075 0.23195
 C889 C 1.11706 0.80956 0.67420
 C890 C 1.10753 0.81788 0.68211
 C891 C 1.10992 0.83257 0.68363
 C892 C 1.12185 0.83894 0.67736
 C893 C 1.13174 0.83072 0.66938
 C894 C 1.12900 0.81586 0.66788
 C895 C 1.09543 0.81126 0.68886
 C896 C 1.08540 0.80561 0.69460
 C897 C 1.07378 0.79887 0.70141
 C898 C 1.06397 0.79301 0.70731
 C899 C 1.05239 0.78588 0.71446
 C900 C 1.04687 0.79147 0.72726
 C901 C 1.03589 0.78433 0.73443
 C902 C 1.03030 0.77148 0.72888
 C903 C 1.03584 0.76602 0.71593
 C904 C 1.04682 0.77318 0.70879
 H905 H 1.11538 0.79813 0.67306
 H906 H 1.10252 0.83915 0.68965
 H907 H 1.12290 0.85043 0.67841
 H908 H 1.13635 0.80882 0.66242
 H909 H 1.05112 0.80128 0.73175
 H910 H 1.03187 0.78882 0.74437
 H911 H 1.03178 0.75616 0.71138
 H912 H 1.05103 0.76875 0.69889
 C913 C 0.38217 0.67668 0.69072
 C914 C 0.39322 0.68191 0.68213
 C915 C 0.39236 0.68071 0.66714
 C916 C 0.38046 0.67436 0.66077
 C917 C 0.36927 0.66913 0.66932
 C918 C 0.37027 0.67033 0.68438
 C919 C 0.40531 0.68869 0.68871
 C920 C 0.41533 0.69445 0.69434
 C921 C 0.42693 0.70129 0.70106
 C922 C 0.43673 0.70721 0.70692
 C923 C 0.44829 0.71438 0.71405
 C924 C 0.45383 0.72709 0.70835
 C925 C 0.46477 0.73430 0.71550
 C926 C 0.47031 0.72888 0.72847
 C927 C 0.46474 0.71602 0.73404
 C928 C 0.45380 0.70884 0.72688
 H929 H 0.38269 0.67761 0.70233
 H930 H 0.40087 0.68470 0.66039
 H931 H 0.38007 0.67343 0.64917
 H932 H 0.36174 0.66659 0.69124
 H933 H 0.44962 0.73149 0.69844
 H934 H 0.46881 0.74417 0.71092
 H935 H 0.46876 0.71157 0.74400
 H936 H 0.44957 0.69902 0.73139
 C937 C 0.39172 0.18128 0.16766
 C938 C 0.39270 0.18250 0.18263
 C939 C 0.38176 0.17719 0.19132
 C940 C 0.36987 0.17072 0.18509
 C941 C 0.36877 0.16947 0.17004
 C942 C 0.37984 0.17482 0.16139
 C943 C 0.40482 0.18932 0.18912
 C944 C 0.41487 0.19508 0.19469
 C945 C 0.42652 0.20190 0.20137
 C946 C 0.43635 0.20778 0.20719
 C947 C 0.44797 0.21490 0.21429
 C948 C 0.45349 0.20932 0.22710
 C949 C 0.46449 0.21644 0.23424
 C950 C 0.47011 0.22926 0.22864
 C951 C 0.46457 0.23471 0.21569
 C952 C 0.45357 0.22757 0.20857
 H953 H 0.40014 0.18534 0.16083
 H954 H 0.38237 0.17813 0.20292
 H955 H 0.36144 0.16689 0.19202
 H956 H 0.37936 0.17387 0.14979
 H957 H 0.44921 0.19953 0.23163
 H958 H 0.46851 0.21196 0.24418
 H959 H 0.46866 0.24455 0.21109
 H960 H 0.44936 0.23199 0.19867
 C961 C -0.10836 0.66741 0.18091
 C962 C -0.10750 0.68234 0.18214
 C963 C -0.11857 0.69091 0.17697
 C964 C -0.13049 0.68460 0.17064
 C965 C -0.13150 0.66960 0.16940
 C966 C -0.12029 0.66107 0.17459
 C967 C -0.09536 0.68889 0.18888
 C968 C -0.08530 0.69451 0.19459
 C969 C -0.07366 0.70123 0.20136
 C970 C -0.06383 0.70709 0.20722
 C971 C -0.05224 0.71423 0.21432
 C972 C -0.04673 0.72696 0.20864
 C973 C -0.03575 0.73415 0.21576
 C974 C -0.03015 0.72869 0.22868
 C975 C -0.03568 0.71581 0.23424
 C976 C -0.04666 0.70864 0.22710
 H977 H -0.09984 0.66068 0.18486
 H978 H -0.11804 0.70247 0.17792
 H979 H -0.13904 0.69144 0.16693
 H980 H -0.12068 0.64951 0.17363
 H981 H -0.05098 0.73140 0.19877
 H982 H -0.03174 0.74403 0.21120
 H983 H -0.03162 0.71131 0.24416
 H984 H -0.05087 0.69881 0.23160
 C985 C -0.10875 0.16749 0.68381
 C986 C -0.10640 0.18219 0.68233
 C987 C -0.11594 0.19051 0.67443
 C988 C -0.12786 0.18421 0.66810
 C989 C -0.13057 0.16935 0.66956
 C990 C -0.12067 0.16111 0.67752
 C991 C -0.09432 0.18881 0.68912
 C992 C -0.08432 0.19446 0.69489
 C993 C -0.07274 0.20120 0.70174
 C994 C -0.06295 0.20706 0.70768
 C995 C -0.05140 0.21418 0.71488
 C996 C -0.04581 0.22689 0.70924
 C997 C -0.03486 0.23404 0.71644
 C998 C -0.02937 0.22856 0.72941
 C999 C -0.03499 0.21570 0.73492
 C1000 C -0.04594 0.20857 0.72770
 H1001 H -0.10134 0.16091 0.68981
 H1002 H -0.11428 0.20196 0.67333
 H1003 H -0.13523 0.19125 0.66265
 H1004 H -0.12168 0.14961 0.67853
 H1005 H -0.04998 0.23134 0.69933
 H1006 H -0.03078 0.24391 0.71191
 H1007 H -0.03101 0.21120 0.74487
 H1008 H -0.05021 0.19875 0.73217
 C1009 C 0.31916 0.39153 0.33249
 C1010 C 0.31794 0.39244 0.31752
 C1011 C 0.32335 0.38144 0.30887
 C1012 C 0.32992 0.36956 0.31516
 C1013 C 0.33117 0.36851 0.33021
 C1014 C 0.32573 0.37964 0.33881
 C1015 C 0.31101 0.40455 0.31098
 C1016 C 0.30516 0.41459 0.30536
 C1017 C 0.29825 0.42621 0.29863
 C1018 C 0.29229 0.43604 0.29275
 C1019 C 0.28511 0.44763 0.28557
 C1020 C 0.29055 0.45314 0.27269
 C1021 C 0.28338 0.46413 0.26549
 C1022 C 0.27065 0.46975 0.27108
 C1023 C 0.26534 0.46422 0.28410
 C1024 C 0.27253 0.45323 0.29128
 H1025 H 0.31503 0.39999 0.33928
 H1026 H 0.32241 0.38201 0.29727
 H1027 H 0.33382 0.36108 0.30826
 H1028 H 0.32667 0.37922 0.35042
 H1029 H 0.30027 0.44887 0.26817
 H1030 H 0.28776 0.46814 0.25550
 H1031 H 0.25557 0.46831 0.28869
 H1032 H 0.26822 0.44903 0.30124
 C1033 C 0.32662 -0.11740 0.80894
 C1034 C 0.31856 -0.10802 0.81733
 C1035 C 0.31706 -0.11059 0.83205
 C1036 C 0.32352 -0.12252 0.83838
 C1037 C 0.33169 -0.13222 0.83008
 C1038 C 0.33312 -0.12934 0.81519
 C1039 C 0.31166 -0.09590 0.81077
 C1040 C 0.30583 -0.08585 0.80515
 C1041 C 0.29894 -0.07420 0.79844
 C1042 C 0.29299 -0.06435 0.79260
 C1043 C 0.28580 -0.05272 0.78548
 C1044 C 0.27321 -0.04717 0.79122
 C1045 C 0.26602 -0.03613 0.78410
 C1046 C 0.27134 -0.03050 0.77113
 C1047 C 0.28408 -0.03608 0.76551
 C1048 C 0.29125 -0.04711 0.77265
 H1049 H 0.32773 -0.11559 0.79748
 H1050 H 0.31091 -0.10332 0.83869
 H1051 H 0.32244 -0.12374 0.84990
 H1052 H 0.33867 -0.13658 0.80807
 H1053 H 0.26889 -0.05144 0.80114
 H1054 H 0.25625 -0.03208 0.78871
 H1055 H 0.28846 -0.03199 0.75555
 H1056 H 0.30098 -0.05135 0.76810
 C1057 C 0.81748 0.38972 0.83246
 C1058 C 0.81916 0.39231 0.81777
 C1059 C 0.82734 0.38297 0.80946
 C1060 C 0.83376 0.37101 0.81577
 C1061 C 0.83211 0.36807 0.83063
 C1062 C 0.82386 0.37777 0.83884
 C1063 C 0.81229 0.40441 0.81114
 C1064 C 0.80645 0.41444 0.80551
 C1065 C 0.79950 0.42607 0.79880
 C1066 C 0.79349 0.43590 0.79298
 C1067 C 0.78623 0.44750 0.78592
 C1068 C 0.79156 0.45312 0.77304
 C1069 C 0.78431 0.46413 0.76596
 C1070 C 0.77160 0.46968 0.77167
 C1071 C 0.76639 0.46404 0.78469
 C1072 C 0.77366 0.45302 0.79175
 H1073 H 0.81125 0.39696 0.83903
 H1074 H 0.82860 0.38481 0.79802
 H1075 H 0.83943 0.36380 0.80871
 H1076 H 0.82263 0.37654 0.85034
 H1077 H 0.80127 0.44891 0.76842
 H1078 H 0.78861 0.46823 0.75597
 H1079 H 0.75664 0.46806 0.78937
 H1080 H 0.76943 0.44874 0.80170
 C1081 C 0.82674 -0.11721 0.30878
 C1082 C 0.81855 -0.10783 0.31703
 C1083 C 0.81682 -0.11037 0.33173
 C1084 C 0.82316 -0.12230 0.33817
 C1085 C 0.83144 -0.13203 0.33002
 C1086 C 0.83313 -0.12915 0.31516
 C1087 C 0.81173 -0.09573 0.31034
 C1088 C 0.80594 -0.08570 0.30464
 C1089 C 0.79906 -0.07408 0.29786
 C1090 C 0.79311 -0.06425 0.29198
 C1091 C 0.78589 -0.05265 0.28486
 C1092 C 0.77334 -0.04706 0.29065
 C1093 C 0.76612 -0.03605 0.28354
 C1094 C 0.77136 -0.03049 0.27050
 C1095 C 0.78405 -0.03610 0.26482
 C1096 C 0.79126 -0.04711 0.27196
 H1097 H 0.82803 -0.11542 0.29734
 H1098 H 0.81058 -0.10309 0.33826
 H1099 H 0.82191 -0.12348 0.34967
 H1100 H 0.83880 -0.13639 0.30814
 H1101 H 0.76909 -0.05129 0.30062
 H1102 H 0.75638 -0.03197 0.28820
 H1103 H 0.78838 -0.03206 0.25482
 H1104 H 0.80096 -0.05138 0.26737
 C1105 C 0.31917 0.60853 0.66701
 C1106 C 0.31801 0.60761 0.68199
 C1107 C 0.32346 0.61860 0.69061
 C1108 C 0.33001 0.63049 0.68430
 C1109 C 0.33118 0.63155 0.66925
 C1110 C 0.32571 0.62042 0.66066
 C1111 C 0.31109 0.59550 0.68855
 C1112 C 0.30524 0.58547 0.69417
 C1113 C 0.29833 0.57384 0.70091
 C1114 C 0.29237 0.56402 0.70678
 C1115 C 0.28518 0.55242 0.71395
 C1116 C 0.29063 0.54687 0.72680
 C1117 C 0.28346 0.53587 0.73399
 C1118 C 0.27071 0.53028 0.72841
 C1119 C 0.26538 0.53586 0.71542
 C1120 C 0.27258 0.54686 0.70825
 H1121 H 0.31500 0.60007 0.66023
 H1122 H 0.32257 0.61802 0.70222
 H1123 H 0.33393 0.63896 0.69119
 H1124 H 0.32660 0.62085 0.64906
 H1125 H 0.30037 0.55111 0.73132
 H1126 H 0.28785 0.53182 0.74397
 H1127 H 0.25560 0.53180 0.71084
 H1128 H 0.26825 0.55109 0.69832
 C1129 C 0.32687 1.11680 0.19139
 C1130 C 0.31866 1.10741 0.18317
 C1131 C 0.31691 1.10992 0.16847
 C1132 C 0.32324 1.12185 0.16200
 C1133 C 0.33152 1.13160 0.17013
 C1134 C 0.33324 1.12873 0.18499
 C1135 C 0.31182 1.09534 0.18990
 C1136 C 0.30601 1.08534 0.19563
 C1137 C 0.29910 1.07376 0.20244
 C1138 C 0.29311 1.06398 0.20835
 C1139 C 0.28586 1.05242 0.21552
 C1140 C 0.27329 1.04687 0.20974
 C1141 C 0.26602 1.03590 0.21689
 C1142 C 0.27125 1.03035 0.22993
 C1143 C 0.28397 1.03593 0.23559
 C1144 C 0.29121 1.04690 0.22842
 H1145 H 0.32818 1.11502 0.20283
 H1146 H 0.31065 1.10264 0.16198
 H1147 H 0.32196 1.12300 0.15050
 H1148 H 0.33894 1.13598 0.19198
 H1149 H 0.26904 1.05108 0.19977
 H1150 H 0.25627 1.03184 0.21224
 H1151 H 0.28828 1.03190 0.24561
 H1152 H 0.30092 1.05114 0.23300
 C1153 C 0.81884 0.60857 0.16794
 C1154 C 0.81769 0.60778 0.18293
 C1155 C 0.82308 0.61888 0.19145
 C1156 C 0.82955 0.63075 0.18502
 C1157 C 0.83070 0.63168 0.16996
 C1158 C 0.82530 0.62044 0.16149
 C1159 C 0.81081 0.59570 0.18959
 C1160 C 0.80496 0.58569 0.19526
 C1161 C 0.79804 0.57408 0.20202
 C1162 C 0.79205 0.56426 0.20788
 C1163 C 0.78482 0.55266 0.21499
 C1164 C 0.79015 0.54712 0.22789
 C1165 C 0.78294 0.53610 0.23501
 C1166 C 0.77027 0.53047 0.22930
 C1167 C 0.76505 0.53604 0.21626
 C1168 C 0.77228 0.54707 0.20917
 H1169 H 0.81471 0.60003 0.16125
 H1170 H 0.82220 0.61841 0.20306
 H1171 H 0.83341 0.63932 0.19183
 H1172 H 0.82617 0.62078 0.14987
 H1173 H 0.79984 0.55138 0.23250
 H1174 H 0.78725 0.53206 0.24502
 H1175 H 0.75532 0.53196 0.21158
 H1176 H 0.76804 0.55129 0.19919
 C1177 C 0.81744 1.11038 0.66809
 C1178 C 0.81899 1.10785 0.68281
 C1179 C 0.82710 1.11723 0.69115
 C1180 C 0.83361 1.12914 0.68484
 C1181 C 0.83212 1.13199 0.66995
 C1182 C 0.82390 1.12229 0.66171
 C1183 C 0.81207 1.09578 0.68944
 C1184 C 0.80621 1.08576 0.69509
 C1185 C 0.79928 1.07415 0.70183
 C1186 C 0.79329 1.06433 0.70769
 C1187 C 0.78607 1.05273 0.71481
 C1188 C 0.79148 1.04713 0.72766
 C1189 C 0.78428 1.03611 0.73478
 C1190 C 0.77156 1.03053 0.72914
 C1191 C 0.76627 1.03616 0.71616
 C1192 C 0.77348 1.04719 0.70905
 H1193 H 0.81125 1.10312 0.66150
 H1194 H 0.82825 1.11544 0.70261
 H1195 H 0.83920 1.13638 0.69193
 H1196 H 0.82278 1.12348 0.65020
 H1197 H 0.80120 1.05135 0.73222
 H1198 H 0.78864 1.03202 0.74475
 H1199 H 0.75650 1.03212 0.71153
 H1200 H 0.76919 1.05146 0.69912
 C1201 C 0.68970 0.61924 0.32244
 C1202 C 0.68124 0.60808 0.31717
 C1203 C 0.66645 0.60888 0.31843
 C1204 C 0.66012 0.62082 0.32490
 C1205 C 0.66854 0.63211 0.33021
 C1206 C 0.68341 0.63117 0.32892
 C1207 C 0.68778 0.59591 0.31035
 C1208 C 0.69341 0.58582 0.30460
 C1209 C 0.70017 0.57413 0.29781
 C1210 C 0.70608 0.56426 0.29197
 C1211 C 0.71329 0.55262 0.28492
 C1212 C 0.70798 0.54703 0.27204
 C1213 C 0.71522 0.53599 0.26498
 C1214 C 0.72789 0.53041 0.27073
 C1215 C 0.73308 0.53602 0.28376
 C1216 C 0.72582 0.54706 0.29079
 H1217 H 0.70116 0.61875 0.32147
 H1218 H 0.65980 0.60030 0.31441
 H1219 H 0.64867 0.62116 0.32588
 H1220 H 0.69016 0.63977 0.33271
 H1221 H 0.69830 0.55127 0.26739
 H1222 H 0.71094 0.53191 0.25497
 H1223 H 0.74280 0.53197 0.28848
 H1224 H 0.73004 0.55132 0.30076
 C1225 C 0.69034 1.11707 0.82582
 C1226 C 0.68225 1.10745 0.81774
 C1227 C 0.66768 1.10975 0.81612
 C1228 C 0.66121 1.12166 0.82246
 C1229 C 0.66921 1.13162 0.83062
 C1230 C 0.68394 1.12899 0.83220
 C1231 C 0.68897 1.09537 0.81094
 C1232 C 0.69472 1.08537 0.80516
 C1233 C 0.70159 1.07378 0.79832
 C1234 C 0.70755 1.06399 0.79241
 C1235 C 0.71479 1.05243 0.78525
 C1236 C 0.70941 1.04688 0.77237
 C1237 C 0.71665 1.03591 0.76521
 C1238 C 0.72938 1.03035 0.77084
 C1239 C 0.73465 1.03593 0.78386
 C1240 C 0.72739 1.04690 0.79100
 H1241 H 0.70168 1.11546 0.82703
 H1242 H 0.66128 1.10229 0.80998
 H1243 H 0.64983 1.12264 0.82131
 H1244 H 0.69082 1.13641 0.83778
 H1245 H 0.69968 1.05110 0.76782
 H1246 H 0.71231 1.03186 0.75522
 H1247 H 0.74442 1.03189 0.78848
 H1248 H 0.73166 1.05113 0.80095
 C1249 C 0.18346 0.61040 0.83149
 C1250 C 0.18172 0.60786 0.81679
 C1251 C 0.17352 0.61724 0.80855
 C1252 C 0.16712 0.62918 0.81492
 C1253 C 0.16883 0.63206 0.82978
 C1254 C 0.17711 0.62233 0.83793
 C1255 C 0.18852 0.59576 0.81010
 C1256 C 0.19430 0.58573 0.80441
 C1257 C 0.20116 0.57410 0.79763
 C1258 C 0.20710 0.56427 0.79175
 C1259 C 0.21428 0.55265 0.78462
 C1260 C 0.20884 0.54706 0.77178
 C1261 C 0.21600 0.53603 0.76465
 C1262 C 0.22873 0.53044 0.77027
 C1263 C 0.23406 0.53605 0.78325
 C1264 C 0.22687 0.54709 0.79036
 H1265 H 0.18971 0.60312 0.83801
 H1266 H 0.17221 0.61545 0.79711
 H1267 H 0.16144 0.63642 0.80791
 H1268 H 0.17838 0.62351 0.84943
 H1269 H 0.19911 0.55130 0.76724
 H1270 H 0.21162 0.53195 0.75469
 H1271 H 0.24382 0.53200 0.78786
 H1272 H 0.23118 0.55135 0.80028
 C1273 C 0.18032 1.10889 0.33240
 C1274 C 0.18151 1.10805 0.31742
 C1275 C 0.17616 1.11912 0.30883
 C1276 C 0.16969 1.13102 0.31519
 C1277 C 0.16850 1.13201 0.33025
 C1278 C 0.17386 1.12079 0.33878
 C1279 C 0.18841 1.09594 0.31083
 C1280 C 0.19426 1.08590 0.30523
 C1281 C 0.20119 1.07425 0.29855
 C1282 C 0.20719 1.06441 0.29275
 C1283 C 0.21442 1.05278 0.28570
 C1284 C 0.20907 1.04716 0.27285
 C1285 C 0.21628 1.03612 0.26578
 C1286 C 0.22897 1.03054 0.27150
 C1287 C 0.23421 1.03619 0.28449
 C1288 C 0.22698 1.04724 0.29154
 H1289 H 0.18442 1.10036 0.33915
 H1290 H 0.17707 1.11861 0.29723
 H1291 H 0.16585 1.13958 0.30834
 H1292 H 0.17297 1.12117 0.35039
 H1293 H 0.19937 1.05139 0.26823
 H1294 H 0.21196 1.03202 0.25580
 H1295 H 0.24395 1.03214 0.28918
 H1296 H 0.23123 1.05152 0.30148
 C1297 C 0.68078 0.39161 0.66878
 C1298 C 0.68194 0.39240 0.68377
 C1299 C 0.67661 0.38127 0.69230
 C1300 C 0.67020 0.36937 0.68589
 C1301 C 0.66904 0.36843 0.67083
 C1302 C 0.67437 0.37971 0.66234
 C1303 C 0.68879 0.40449 0.69041
 C1304 C 0.69461 0.41452 0.69608
 C1305 C 0.70152 0.42613 0.70283
 C1306 C 0.70750 0.43594 0.70870
 C1307 C 0.71473 0.44753 0.71582
 C1308 C 0.70938 0.45305 0.72872
 C1309 C 0.71660 0.46406 0.73585
 C1310 C 0.72929 0.46967 0.73016
 C1311 C 0.73452 0.46412 0.71712
 C1312 C 0.72728 0.45312 0.71001
 H1313 H 0.68485 0.40018 0.66208
 H1314 H 0.67751 0.38174 0.70391
 H1315 H 0.66637 0.36078 0.69270
 H1316 H 0.67349 0.37938 0.65073
 H1317 H 0.69969 0.44879 0.73332
 H1318 H 0.71229 0.46809 0.74586
 H1319 H 0.74425 0.46820 0.71245
 H1320 H 0.73153 0.44890 0.70004
 C1321 C 0.68302 -0.11007 0.16788
 C1322 C 0.68132 -0.10759 0.18259
 C1323 C 0.67309 -0.11696 0.19082
 C1324 C 0.66664 -0.12884 0.18441
 C1325 C 0.66830 -0.13167 0.16954
 C1326 C 0.67661 -0.12195 0.16140
 C1327 C 0.68822 -0.09555 0.18931
 C1328 C 0.69408 -0.08558 0.19501
 C1329 C 0.70104 -0.07401 0.20178
 C1330 C 0.70707 -0.06422 0.20764
 C1331 C 0.71437 -0.05265 0.21474
 C1332 C 0.70906 -0.04707 0.22763
 C1333 C 0.71632 -0.03607 0.23472
 C1334 C 0.72903 -0.03052 0.22899
 C1335 C 0.73423 -0.03615 0.21597
 C1336 C 0.72694 -0.04714 0.20890
 H1337 H 0.68929 -0.10280 0.16137
 H1338 H 0.67181 -0.11520 0.20227
 H1339 H 0.66091 -0.13609 0.19140
 H1340 H 0.67785 -0.12308 0.14990
 H1341 H 0.69935 -0.05127 0.23225
 H1342 H 0.71204 -0.03199 0.24472
 H1343 H 0.74397 -0.03212 0.21128
 H1344 H 0.73115 -0.05140 0.19894
 C1345 C 0.17999 0.39122 0.16834
 C1346 C 0.18131 0.39196 0.18331
 C1347 C 0.17611 0.38078 0.19186
 C1348 C 0.16965 0.36889 0.18548
 C1349 C 0.16831 0.36802 0.17043
 C1350 C 0.17354 0.37933 0.16192
 C1351 C 0.18818 0.40407 0.18993
 C1352 C 0.19400 0.41411 0.19556
 C1353 C 0.20090 0.42576 0.20226
 C1354 C 0.20687 0.43561 0.20807
 C1355 C 0.21408 0.44726 0.21513
 C1356 C 0.20866 0.45293 0.22793
 C1357 C 0.21586 0.46399 0.23500
 C1358 C 0.22859 0.46952 0.22934
 C1359 C 0.23389 0.46382 0.21639
 C1360 C 0.22668 0.45276 0.20934
 H1361 H 0.18397 0.39982 0.16162
 H1362 H 0.17714 0.38121 0.20347
 H1363 H 0.16594 0.36026 0.19230
 H1364 H 0.17254 0.37902 0.15032
 H1365 H 0.19893 0.44873 0.23251
 H1366 H 0.21149 0.46813 0.24494
 H1367 H 0.24367 0.46783 0.21174
 H1368 H 0.23098 0.44843 0.19944
 C1369 C 0.18381 -0.11039 0.66804
 C1370 C 0.18223 -0.10789 0.68277
 C1371 C 0.17412 -0.11728 0.69108
 C1372 C 0.16762 -0.12918 0.68475
 C1373 C 0.16912 -0.13200 0.66986
 C1374 C 0.17736 -0.12228 0.66164
 C1375 C 0.18912 -0.09581 0.68941
 C1376 C 0.19494 -0.08579 0.69509
 C1377 C 0.20182 -0.07417 0.70186
 C1378 C 0.20777 -0.06435 0.70775
 C1379 C 0.21494 -0.05274 0.71490
 C1380 C 0.20949 -0.04718 0.72775
 C1381 C 0.21664 -0.03615 0.73490
 C1382 C 0.22937 -0.03054 0.72930
 C1383 C 0.23471 -0.03613 0.71631
 C1384 C 0.22753 -0.04716 0.70918
 H1385 H 0.19000 -0.10310 0.66147
 H1386 H 0.17295 -0.11553 0.70254
 H1387 H 0.16203 -0.13645 0.69182
 H1388 H 0.17849 -0.12345 0.65012
 H1389 H 0.19976 -0.05144 0.73228
 H1390 H 0.21225 -0.03210 0.74487
 H1391 H 0.24447 -0.03205 0.71171
 H1392 H 0.23185 -0.05139 0.69925
 C1393 C 0.32410 0.30885 0.38098
 C1394 C 0.31876 0.31730 0.39218
 C1395 C 0.31991 0.33224 0.39144
 C1396 C 0.32632 0.33872 0.37953
 C1397 C 0.33167 0.33032 0.36818
 C1398 C 0.33052 0.31530 0.36907
 C1399 C 0.31193 0.31062 0.40430
 C1400 C 0.30613 0.30492 0.41435
 C1401 C 0.29925 0.29814 0.42600
 C1402 C 0.29331 0.29224 0.43585
 C1403 C 0.28612 0.28509 0.44748
 C1404 C 0.27352 0.29077 0.45307
 C1405 C 0.26633 0.28363 0.46412
 C1406 C 0.27166 0.27069 0.46972
 C1407 C 0.28440 0.26513 0.46410
 C1408 C 0.29157 0.27229 0.45305
 H1409 H 0.32322 0.29728 0.38141
 H1410 H 0.31582 0.33888 0.40006
 H1411 H 0.32719 0.35029 0.37923
 H1412 H 0.33435 0.30856 0.36042
 H1413 H 0.26919 0.30067 0.44883
 H1414 H 0.25655 0.28820 0.46820
 H1415 H 0.28879 0.25519 0.46816
 H1416 H 0.30131 0.26778 0.44879
 C1417 C 0.32362 0.80855 -0.11949
 C1418 C 0.31839 0.81703 -0.10827
 C1419 C 0.31968 0.83196 -0.10899
 C1420 C 0.32614 0.83839 -0.12091
 C1421 C 0.33139 0.82995 -0.13227
 C1422 C 0.33008 0.81494 -0.13141
 C1423 C 0.31156 0.81039 -0.09612
 C1424 C 0.30579 0.80472 -0.08604
 C1425 C 0.29895 0.79794 -0.07437
 C1426 C 0.29303 0.79205 -0.06450
 C1427 C 0.28588 0.78491 -0.05284
 C1428 C 0.27327 0.79057 -0.04725
 C1429 C 0.26610 0.78344 -0.03619
 C1430 C 0.27146 0.77051 -0.03057
 C1431 C 0.28421 0.76497 -0.03618
 C1432 C 0.29136 0.77212 -0.04725
 H1433 H 0.32262 0.79698 -0.11907
 H1434 H 0.31569 0.83863 -0.10035
 H1435 H 0.32713 0.84995 -0.12120
 H1436 H 0.33385 0.80817 -0.14007
 H1437 H 0.26892 0.80046 -0.05151
 H1438 H 0.25632 0.78800 -0.03211
 H1439 H 0.28862 0.75504 -0.03210
 H1440 H 0.30110 0.76763 -0.05151
 C1441 C 0.81973 0.33239 -0.10835
 C1442 C 0.81834 0.31747 -0.10762
 C1443 C 0.82356 0.30894 -0.11880
 C1444 C 0.83012 0.31527 -0.13070
 C1445 C 0.83152 0.33027 -0.13158
 C1446 C 0.82627 0.33876 -0.12025
 C1447 C 0.81140 0.31090 -0.09550
 C1448 C 0.80552 0.30528 -0.08545
 C1449 C 0.79857 0.29856 -0.07382
 C1450 C 0.79257 0.29270 -0.06398
 C1451 C 0.78532 0.28558 -0.05237
 C1452 C 0.79067 0.27272 -0.04684
 C1453 C 0.78345 0.26558 -0.03582
 C1454 C 0.77075 0.27122 -0.03020
 C1455 C 0.76551 0.28422 -0.03575
 C1456 C 0.77276 0.29134 -0.04677
 H1457 H 0.81573 0.33910 -0.09974
 H1458 H 0.82249 0.29738 -0.11837
 H1459 H 0.83387 0.30846 -0.13933
 H1460 H 0.82734 0.35031 -0.12055
 H1461 H 0.80038 0.26815 -0.05111
 H1462 H 0.78776 0.25559 -0.03179
 H1463 H 0.75577 0.28885 -0.03167
 H1464 H 0.76852 0.30128 -0.05099
 C1465 C 0.81899 0.83252 0.39118
 C1466 C 0.81763 0.81760 0.39198
 C1467 C 0.82290 0.80903 0.38085
 C1468 C 0.82945 0.81533 0.36893
 C1469 C 0.83082 0.83032 0.36798
 C1470 C 0.82553 0.83885 0.37926
 C1471 C 0.81071 0.81107 0.40413
 C1472 C 0.80485 0.80547 0.41420
 C1473 C 0.79793 0.79877 0.42588
 C1474 C 0.79197 0.79293 0.43574
 C1475 C 0.78478 0.78583 0.44740
 C1476 C 0.79017 0.77298 0.45294
 C1477 C 0.78300 0.76586 0.46401
 C1478 C 0.77032 0.77151 0.46969
 C1479 C 0.76505 0.78449 0.46412
 C1480 C 0.77223 0.79159 0.45305
 H1481 H 0.81497 0.83926 0.39975
 H1482 H 0.82186 0.79747 0.38133
 H1483 H 0.83323 0.80849 0.36033
 H1484 H 0.82657 0.85041 0.37891
 H1485 H 0.79986 0.76842 0.44863
 H1486 H 0.78735 0.75589 0.46805
 H1487 H 0.75532 0.78912 0.46825
 H1488 H 0.76796 0.80152 0.44883
 C1489 C 0.69070 0.32267 0.61993
 C1490 C 0.68233 0.31742 0.60866
 C1491 C 0.66753 0.31871 0.60933
 C1492 C 0.66112 0.32518 0.62124
 C1493 C 0.66944 0.33046 0.63264
 C1494 C 0.68431 0.32915 0.63184
 C1495 C 0.68895 0.31057 0.59652
 C1496 C 0.69463 0.30478 0.58645
 C1497 C 0.70140 0.29794 0.57478
 C1498 C 0.70730 0.29204 0.56492
 C1499 C 0.71448 0.28492 0.55326
 C1500 C 0.70904 0.27212 0.54768
 C1501 C 0.71621 0.26500 0.53661
 C1502 C 0.72894 0.27061 0.53099
 C1503 C 0.73425 0.28355 0.53660
 C1504 C 0.72706 0.29064 0.54767
 H1505 H 0.70216 0.32167 0.61955
 H1506 H 0.66095 0.31469 0.60066
 H1507 H 0.64966 0.32617 0.62149
 H1508 H 0.69100 0.33291 0.64053
 H1509 H 0.69932 0.26759 0.55194
 H1510 H 0.71184 0.25507 0.53253
 H1511 H 0.74401 0.28815 0.53252
 H1512 H 0.73137 0.30054 0.55193
 C1513 C 0.66681 0.81912 1.10829
 C1514 C 0.68158 0.81745 1.10780
 C1515 C 0.68993 0.82239 1.11921
 C1516 C 0.68357 0.82895 1.13109
 C1517 C 0.66873 0.83066 1.13171
 C1518 C 0.66041 0.82567 1.12017
 C1519 C 0.68818 0.81055 1.09567
 C1520 C 0.69384 0.80473 1.08561
 C1521 C 0.70060 0.79787 1.07395
 C1522 C 0.70650 0.79196 1.06409
 C1523 C 0.71370 0.78485 1.05243
 C1524 C 0.72630 0.79057 1.04688
 C1525 C 0.73350 0.78350 1.03582
 C1526 C 0.72819 0.77057 1.03016
 C1527 C 0.71545 0.76497 1.03574
 C1528 C 0.70826 0.77207 1.04681
 H1529 H 0.66024 0.81534 1.09951
 H1530 H 0.70137 0.82109 1.11897
 H1531 H 0.69023 0.83247 1.13990
 H1532 H 0.64898 0.82696 1.12029
 H1533 H 0.73061 0.80045 1.05117
 H1534 H 0.74328 0.78810 1.03177
 H1535 H 0.71108 0.75504 1.03163
 H1536 H 0.69852 0.76753 1.05104
 C1537 C 0.18083 0.33222 1.10930
 C1538 C 0.18207 0.31729 1.10847
 C1539 C 0.17668 0.30872 1.11955
 C1540 C 0.17011 0.31503 1.13145
 C1541 C 0.16884 0.33003 1.13242
 C1542 C 0.17426 0.33856 1.12120
 C1543 C 0.18899 0.31074 1.09633
 C1544 C 0.19484 0.30512 1.08626
 C1545 C 0.20173 0.29840 1.07460
 C1546 C 0.20767 0.29254 1.06473
 C1547 C 0.21482 0.28539 1.05308
 C1548 C 0.20934 0.27260 1.04753
 C1549 C 0.21646 0.26543 1.03646
 C1550 C 0.22919 0.27099 1.03080
 C1551 C 0.23455 0.28392 1.03638
 C1552 C 0.22741 0.29106 1.04745
 H1553 H 0.18495 0.33895 1.10077
 H1554 H 0.17763 0.29716 1.11904
 H1555 H 0.16622 0.30819 1.14000
 H1556 H 0.17331 0.35012 1.12157
 H1557 H 0.19961 0.26810 1.05182
 H1558 H 0.21204 0.25551 1.03241
 H1559 H 0.24432 0.28848 1.03227
 H1560 H 0.23176 0.30095 1.05168
 C1561 C 0.17729 0.80899 0.61923
 C1562 C 0.18259 0.81752 0.60806
 C1563 C 0.18134 0.83244 0.60884
 C1564 C 0.17485 0.83883 0.62076
 C1565 C 0.16952 0.83034 0.63206
 C1566 C 0.17080 0.81534 0.63115
 C1567 C 0.18942 0.81092 0.59590
 C1568 C 0.19519 0.80526 0.58581
 C1569 C 0.20200 0.79850 0.57411
 C1570 C 0.20788 0.79261 0.56422
 C1571 C 0.21496 0.78545 0.55253
 C1572 C 0.22753 0.79111 0.54684
 C1573 C 0.23462 0.78397 0.53574
 C1574 C 0.22921 0.77103 0.53019
 C1575 C 0.21651 0.76549 0.53591
 C1576 C 0.20944 0.77266 0.54701
 H1577 H 0.17826 0.79742 0.61876
 H1578 H 0.18538 0.83915 0.60024
 H1579 H 0.17388 0.85039 0.62109
 H1580 H 0.16698 0.80854 0.63976
 H1581 H 0.23190 0.80100 0.55105
 H1582 H 0.24437 0.78852 0.53158
 H1583 H 0.21207 0.75557 0.53189
 H1584 H 0.19973 0.76817 0.55135
 C1585 C 0.32384 0.69120 0.61850
 C1586 C 0.31848 0.68274 0.60733
 C1587 C 0.31965 0.66780 0.60806
 C1588 C 0.32610 0.66134 0.61996
 C1589 C 0.33148 0.66975 0.63128
 C1590 C 0.33030 0.68476 0.63040
 C1591 C 0.31161 0.68941 0.59522
 C1592 C 0.30578 0.69510 0.58518
 C1593 C 0.29887 0.70187 0.57355
 C1594 C 0.29288 0.70774 0.56372
 C1595 C 0.28564 0.71487 0.55210
 C1596 C 0.27301 0.70918 0.54661
 C1597 C 0.26576 0.71630 0.53559
 C1598 C 0.27107 0.72923 0.52992
 C1599 C 0.28385 0.73480 0.53545
 C1600 C 0.29107 0.72766 0.54647
 H1601 H 0.32294 0.70277 0.61807
 H1602 H 0.31554 0.66116 0.59946
 H1603 H 0.32698 0.64977 0.62026
 H1604 H 0.33415 0.69151 0.63903
 H1605 H 0.26870 0.69930 0.55091
 H1606 H 0.25596 0.71172 0.53158
 H1607 H 0.28822 0.74472 0.53134
 H1608 H 0.30084 0.73217 0.55066
 C1609 C 0.30960 0.17739 1.11968
 C1610 C 0.31795 0.18250 1.10833
 C1611 C 0.33274 0.18105 1.10891
 C1612 C 0.33916 0.17454 1.12081
 C1613 C 0.33084 0.16939 1.13228
 C1614 C 0.31599 0.17088 1.13158
 C1615 C 0.31132 0.18934 1.09619
 C1616 C 0.30563 0.19512 1.08613
 C1617 C 0.29882 0.20195 1.07446
 C1618 C 0.29289 0.20784 1.06460
 C1619 C 0.28568 0.21495 1.05296
 C1620 C 0.29112 0.22772 1.04730
 C1621 C 0.28392 0.23484 1.03626
 C1622 C 0.27114 0.22926 1.03073
 C1623 C 0.26582 0.21635 1.03641
 C1624 C 0.27305 0.20926 1.04746
 H1625 H 0.29815 0.17852 1.11938
 H1626 H 0.33931 0.18495 1.10018
 H1627 H 0.35061 0.17343 1.12099
 H1628 H 0.30932 0.16723 1.14034
 H1629 H 0.30088 0.23223 1.05150
 H1630 H 0.28830 0.24475 1.03212
 H1631 H 0.25602 0.21177 1.03240
 H1632 H 0.26873 0.19939 1.05178
 C1633 C 0.81836 0.66748 1.10863
 C1634 C 0.81722 0.68242 1.10775
 C1635 C 0.82266 0.69097 1.11881
 C1636 C 0.82919 0.68465 1.13072
 C1637 C 0.83037 0.66964 1.13174
 C1638 C 0.82489 0.66112 1.12055
 C1639 C 0.81033 0.68899 1.09561
 C1640 C 0.80451 0.69463 1.08554
 C1641 C 0.79763 0.70138 1.07387
 C1642 C 0.79170 0.70726 1.06401
 C1643 C 0.78455 0.71442 1.05236
 C1644 C 0.79001 0.72725 1.04684
 C1645 C 0.78288 0.73443 1.03579
 C1646 C 0.77017 0.72887 1.03012
 C1647 C 0.76482 0.71591 1.03566
 C1648 C 0.77198 0.70875 1.04672
 H1649 H 0.81420 0.66076 1.10012
 H1650 H 0.82178 0.70254 1.11827
 H1651 H 0.83312 0.69148 1.13926
 H1652 H 0.82577 0.64956 1.12095
 H1653 H 0.79973 0.73175 1.05115
 H1654 H 0.78728 0.74438 1.03177
 H1655 H 0.75506 0.71134 1.03154
 H1656 H 0.76765 0.69883 1.05093
 C1657 C 0.81978 0.16769 0.60906
 C1658 C 0.81846 0.18262 0.60833
 C1659 C 0.82375 0.19113 0.61950
 C1660 C 0.83030 0.18475 0.63138
 C1661 C 0.83164 0.16976 0.63225
 C1662 C 0.82633 0.16129 0.62094
 C1663 C 0.81153 0.18922 0.59622
 C1664 C 0.80567 0.19487 0.58619
 C1665 C 0.79873 0.20161 0.57455
 C1666 C 0.79274 0.20748 0.56472
 C1667 C 0.78552 0.21461 0.55310
 C1668 C 0.79095 0.22741 0.54749
 C1669 C 0.78375 0.23455 0.53646
 C1670 C 0.77100 0.22898 0.53089
 C1671 C 0.76568 0.21604 0.53652
 C1672 C 0.77291 0.20891 0.54756
 H1673 H 0.81574 0.16100 0.60046
 H1674 H 0.82273 0.20269 0.61907
 H1675 H 0.83411 0.19154 0.64000
 H1676 H 0.82734 0.14973 0.62124
 H1677 H 0.80070 0.23192 0.55172
 H1678 H 0.78813 0.24449 0.53237
 H1679 H 0.75590 0.21146 0.53248
 H1680 H 0.76860 0.19902 0.55183
 C1681 C 0.66657 0.68198 0.39154
 C1682 C 0.68136 0.68330 0.39227
 C1683 C 0.68979 0.67804 0.38106
 C1684 C 0.68347 0.67152 0.36913
 C1685 C 0.66861 0.67019 0.36826
 C1686 C 0.66022 0.67548 0.37961
 C1687 C 0.68792 0.69017 0.40443
 C1688 C 0.69356 0.69598 0.41451
 C1689 C 0.70033 0.70283 0.42618
 C1690 C 0.70625 0.70872 0.43603
 C1691 C 0.71348 0.71580 0.44767
 C1692 C 0.72605 0.71001 0.45322
 C1693 C 0.73332 0.71707 0.46425
 C1694 C 0.72810 0.73005 0.46987
 C1695 C 0.71539 0.73573 0.46430
 C1696 C 0.70814 0.72864 0.45326
 H1697 H 0.65994 0.68600 0.40017
 H1698 H 0.70125 0.67905 0.38149
 H1699 H 0.69020 0.66774 0.36048
 H1700 H 0.64877 0.67446 0.37932
 H1701 H 0.73029 0.70008 0.44896
 H1702 H 0.74306 0.71241 0.46830
 H1703 H 0.71109 0.74569 0.46838
 H1704 H 0.69843 0.73323 0.44903
 C1705 C 0.66698 0.18183 -0.10888
 C1706 C 0.68177 0.18323 -0.10813
 C1707 C 0.69025 0.17796 -0.11930
 C1708 C 0.68400 0.17132 -0.13118
 C1709 C 0.66914 0.16987 -0.13207
 C1710 C 0.66070 0.17520 -0.12078
 C1711 C 0.68828 0.19016 -0.09597
 C1712 C 0.69390 0.19598 -0.08589
 C1713 C 0.70065 0.20282 -0.07421
 C1714 C 0.70657 0.20869 -0.06434
 C1715 C 0.71380 0.21573 -0.05268
 C1716 C 0.72635 0.20989 -0.04711
 C1717 C 0.73360 0.21690 -0.03604
 C1718 C 0.72840 0.22987 -0.03039
 C1719 C 0.71572 0.23560 -0.03598
 C1720 C 0.70848 0.22856 -0.04706
 H1721 H 0.66032 0.18586 -0.10029
 H1722 H 0.70170 0.17904 -0.11884
 H1723 H 0.69077 0.16751 -0.13979
 H1724 H 0.64925 0.17410 -0.12108
 H1725 H 0.73057 0.19997 -0.05140
 H1726 H 0.74333 0.21221 -0.03198
 H1727 H 0.71143 0.24556 -0.03188
 H1728 H 0.69879 0.23318 -0.05130
 C1729 C 0.18122 0.66750 -0.10905
 C1730 C 0.18254 0.68242 -0.10826
 C1731 C 0.17728 0.69099 -0.11941
 C1732 C 0.17076 0.68468 -0.13133
 C1733 C 0.16941 0.66969 -0.13227
 C1734 C 0.17470 0.66116 -0.12098
 C1735 C 0.18942 0.68897 -0.09610
 C1736 C 0.19524 0.69459 -0.08602
 C1737 C 0.20212 0.70131 -0.07434
 C1738 C 0.20805 0.70717 -0.06447
 C1739 C 0.21520 0.71431 -0.05282
 C1740 C 0.20973 0.72710 -0.04725
 C1741 C 0.21687 0.73425 -0.03619
 C1742 C 0.22961 0.72869 -0.03056
 C1743 C 0.23496 0.71576 -0.03615
 C1744 C 0.22780 0.70863 -0.04722
 H1745 H 0.18524 0.66076 -0.10047
 H1746 H 0.17830 0.70255 -0.11892
 H1747 H 0.16698 0.69152 -0.13993
 H1748 H 0.17368 0.64960 -0.12133
 H1749 H 0.19999 0.73159 -0.05152
 H1750 H 0.21246 0.74418 -0.03213
 H1751 H 0.24474 0.71120 -0.03207
 H1752 H 0.23214 0.69874 -0.05146
 C1753 C 0.18086 0.16793 0.39141
 C1754 C 0.18208 0.18285 0.39223
 C1755 C 0.17664 0.19141 0.38116
 C1756 C 0.17007 0.18508 0.36927
 C1757 C 0.16885 0.17008 0.36830
 C1758 C 0.17430 0.16157 0.37952
 C1759 C 0.18904 0.18942 0.40434
 C1760 C 0.19494 0.19503 0.41437
 C1761 C 0.20190 0.20173 0.42601
 C1762 C 0.20791 0.20757 0.43585
 C1763 C 0.21514 0.21467 0.44747
 C1764 C 0.20970 0.22745 0.45311
 C1765 C 0.21690 0.23457 0.46415
 C1766 C 0.22966 0.22899 0.46970
 C1767 C 0.23499 0.21607 0.46404
 C1768 C 0.22777 0.20897 0.45299
 H1769 H 0.18502 0.16120 0.39993
 H1770 H 0.17758 0.20297 0.38166
 H1771 H 0.16616 0.19191 0.36072
 H1772 H 0.17337 0.15000 0.37916
 H1773 H 0.19995 0.23196 0.44890
 H1774 H 0.21252 0.24448 0.46826
 H1775 H 0.24478 0.21149 0.46806
 H1776 H 0.23208 0.19910 0.44869
 C1777 C 0.32333 0.38125 0.69134
 C1778 C 0.31791 0.39224 0.68269
 C1779 C 0.31909 0.39131 0.66771
 C1780 C 0.32562 0.37940 0.66139
 C1781 C 0.33106 0.36827 0.67000
 C1782 C 0.32986 0.36935 0.68505
 C1783 C 0.31101 0.40437 0.68921
 C1784 C 0.30517 0.41443 0.69480
 C1785 C 0.29827 0.42610 0.70147
 C1786 C 0.29231 0.43596 0.70729
 C1787 C 0.28513 0.44761 0.71437
 C1788 C 0.27254 0.45315 0.70862
 C1789 C 0.26536 0.46421 0.71570
 C1790 C 0.27069 0.46986 0.72866
 C1791 C 0.28342 0.46429 0.73429
 C1792 C 0.29058 0.45323 0.72719
 H1793 H 0.32242 0.38183 0.70294
 H1794 H 0.31495 0.39977 0.66091
 H1795 H 0.32653 0.37896 0.64979
 H1796 H 0.33376 0.36086 0.69196
 H1797 H 0.26823 0.44887 0.69871
 H1798 H 0.25559 0.46826 0.71108
 H1799 H 0.28780 0.46839 0.74424
 H1800 H 0.30031 0.44900 0.73174
 C1801 C 0.33243 0.89182 0.18175
 C1802 C 0.31765 0.89251 0.18315
 C1803 C 0.30922 0.88130 0.17795
 C1804 C 0.31555 0.86941 0.17141
 C1805 C 0.33041 0.86858 0.16999
 C1806 C 0.33879 0.87994 0.17522
 C1807 C 0.31108 0.90463 0.19005
 C1808 C 0.30545 0.91467 0.19588
 C1809 C 0.29871 0.92631 0.20276
 C1810 C 0.29283 0.93615 0.20867
 C1811 C 0.28564 0.94777 0.21580
 C1812 C 0.27311 0.95338 0.20999
 C1813 C 0.26590 0.96441 0.21708
 C1814 C 0.27115 0.96998 0.23011
 C1815 C 0.28383 0.96434 0.23580
 C1816 C 0.29101 0.95331 0.22869
 H1817 H 0.33905 0.90046 0.18572
 H1818 H 0.29777 0.88169 0.17902
 H1819 H 0.30883 0.86076 0.16768
 H1820 H 0.35023 0.87969 0.17413
 H1821 H 0.26885 0.94916 0.20003
 H1822 H 0.25618 0.96851 0.21241
 H1823 H 0.28815 0.96838 0.24580
 H1824 H 0.30070 0.94903 0.23329
 C1825 C 0.83220 0.39183 0.18175
 C1826 C 0.81741 0.39251 0.18309
 C1827 C 0.80902 0.38125 0.17794
 C1828 C 0.81537 0.36933 0.17151
 C1829 C 0.83024 0.36850 0.17015
 C1830 C 0.83859 0.37990 0.17533
 C1831 C 0.81081 0.40467 0.18986
 C1832 C 0.80513 0.41475 0.19559
 C1833 C 0.79832 0.42641 0.20236
 C1834 C 0.79237 0.43627 0.20820
 C1835 C 0.78513 0.44789 0.21524
 C1836 C 0.77258 0.45343 0.20937
 C1837 C 0.76530 0.46445 0.21641
 C1838 C 0.77048 0.47007 0.22944
 C1839 C 0.78317 0.46451 0.23519
 C1840 C 0.79043 0.45349 0.22813
 H1841 H 0.83880 0.40050 0.18568
 H1842 H 0.79756 0.38165 0.17896
 H1843 H 0.80867 0.36065 0.16781
 H1844 H 0.85004 0.37965 0.17428
 H1845 H 0.76837 0.44916 0.19941
 H1846 H 0.75557 0.46848 0.21170
 H1847 H 0.78744 0.46860 0.24519
 H1848 H 0.80012 0.44927 0.23278
 C1849 C 0.81002 0.88154 0.67687
 C1850 C 0.81836 0.89284 0.68203
 C1851 C 0.83316 0.89223 0.68069
 C1852 C 0.83960 0.88034 0.67426
 C1853 C 0.83130 0.86890 0.66909
 C1854 C 0.81644 0.86965 0.67044
 C1855 C 0.81172 0.90495 0.68887
 C1856 C 0.80604 0.91498 0.69466
 C1857 C 0.79925 0.92660 0.70152
 C1858 C 0.79335 0.93642 0.70745
 C1859 C 0.78615 0.94802 0.71461
 C1860 C 0.79155 0.95354 0.72749
 C1861 C 0.78436 0.96453 0.73466
 C1862 C 0.77164 0.97014 0.72903
 C1863 C 0.76637 0.96459 0.71600
 C1864 C 0.77358 0.95360 0.70886
 H1865 H 0.79856 0.88188 0.67791
 H1866 H 0.83972 0.90093 0.68463
 H1867 H 0.85106 0.88014 0.67323
 H1868 H 0.80978 0.86093 0.66676
 H1869 H 0.80126 0.94928 0.73205
 H1870 H 0.78870 0.96856 0.74466
 H1871 H 0.75662 0.96867 0.71137
 H1872 H 0.76930 0.94939 0.69890
 C1873 C 0.66772 0.60816 0.68197
 C1874 C 0.68251 0.60750 0.68335
 C1875 C 0.69091 0.61874 0.67816
 C1876 C 0.68455 0.63064 0.67166
 C1877 C 0.66969 0.63145 0.67028
 C1878 C 0.66134 0.62006 0.67549
 C1879 C 0.68911 0.59537 0.69021
 C1880 C 0.69476 0.58532 0.69601
 C1881 C 0.70153 0.57368 0.70287
 C1882 C 0.70744 0.56384 0.70877
 C1883 C 0.71465 0.55223 0.71589
 C1884 C 0.72719 0.54665 0.71007
 C1885 C 0.73443 0.53563 0.71716
 C1886 C 0.72921 0.53006 0.73020
 C1887 C 0.71652 0.53566 0.73591
 C1888 C 0.70931 0.54668 0.72879
 H1889 H 0.66113 0.59950 0.68593
 H1890 H 0.70236 0.61837 0.67921
 H1891 H 0.69125 0.63932 0.66794
 H1892 H 0.64989 0.62029 0.67442
 H1893 H 0.73144 0.55088 0.70010
 H1894 H 0.74416 0.53156 0.71248
 H1895 H 0.71222 0.53161 0.74592
 H1896 H 0.69962 0.55094 0.73340
 C1897 C 0.66735 0.10775 0.18075
 C1898 C 0.68215 0.10721 0.18209
 C1899 C 0.69043 0.11858 0.17697
 C1900 C 0.68395 0.13046 0.17057
 C1901 C 0.66908 0.13113 0.16922
 C1902 C 0.66085 0.11963 0.17436
 C1903 C 0.68886 0.09511 0.18888
 C1904 C 0.69459 0.08508 0.19463
 C1905 C 0.70143 0.07345 0.20145
 C1906 C 0.70737 0.06363 0.20734
 C1907 C 0.71458 0.05202 0.21447
 C1908 C 0.72712 0.04642 0.20866
 C1909 C 0.73435 0.03541 0.21577
 C1910 C 0.72912 0.02986 0.22882
 C1911 C 0.71644 0.03549 0.23451
 C1912 C 0.70923 0.04650 0.22737
 H1913 H 0.66084 0.09900 0.18466
 H1914 H 0.70189 0.11830 0.17801
 H1915 H 0.69056 0.13923 0.16691
 H1916 H 0.64939 0.11976 0.17332
 H1917 H 0.73137 0.05064 0.19868
 H1918 H 0.74408 0.03133 0.21110
 H1919 H 0.71213 0.03146 0.24453
 H1920 H 0.69954 0.05077 0.23198
 C1921 C 0.17646 0.61853 0.19097
 C1922 C 0.18185 0.60749 0.18238
 C1923 C 0.18073 0.60839 0.16739
 C1924 C 0.17429 0.62031 0.16101
 C1925 C 0.16888 0.63149 0.16957
 C1926 C 0.17002 0.63046 0.18462
 C1927 C 0.18866 0.59534 0.18897
 C1928 C 0.19443 0.58527 0.19462
 C1929 C 0.20126 0.57361 0.20138
 C1930 C 0.20716 0.56375 0.20727
 C1931 C 0.21429 0.55213 0.21444
 C1932 C 0.22686 0.54649 0.20872
 C1933 C 0.23401 0.53547 0.21589
 C1934 C 0.22869 0.52995 0.22891
 C1935 C 0.21597 0.53561 0.23451
 C1936 C 0.20884 0.54662 0.22731
 H1937 H 0.17733 0.61798 0.20258
 H1938 H 0.18485 0.59988 0.16064
 H1939 H 0.17343 0.62073 0.14941
 H1940 H 0.16614 0.63898 0.19149
 H1941 H 0.23118 0.55069 0.19877
 H1942 H 0.24377 0.53136 0.21130
 H1943 H 0.21159 0.53160 0.24450
 H1944 H 0.19913 0.55092 0.23184
 C1945 C 0.17698 0.11853 0.69148
 C1946 C 0.18230 0.10744 0.68291
 C1947 C 0.18113 0.10828 0.66793
 C1948 C 0.17471 0.12020 0.66153
 C1949 C 0.16936 0.13143 0.67005
 C1950 C 0.17055 0.13045 0.68511
 C1951 C 0.18913 0.09530 0.68953
 C1952 C 0.19491 0.08524 0.69518
 C1953 C 0.20176 0.07358 0.70192
 C1954 C 0.20769 0.06373 0.70778
 C1955 C 0.21486 0.05209 0.71491
 C1956 C 0.22745 0.04653 0.70918
 C1957 C 0.23463 0.03550 0.71631
 C1958 C 0.22930 0.02988 0.72929
 C1959 C 0.21656 0.03546 0.73489
 C1960 C 0.20940 0.04650 0.72774
 H1961 H 0.17789 0.11802 0.70309
 H1962 H 0.18520 0.09974 0.66119
 H1963 H 0.17381 0.12058 0.64992
 H1964 H 0.16673 0.13902 0.69195
 H1965 H 0.23178 0.05080 0.69927
 H1966 H 0.24441 0.03145 0.71171
 H1967 H 0.21217 0.03139 0.74485
 H1968 H 0.19967 0.05074 0.73228
 C1969 C 0.32319 0.61893 0.30803
 C1970 C 0.31787 0.60784 0.31662
 C1971 C 0.31905 0.60868 0.33160
 C1972 C 0.32548 0.62060 0.33799
 C1973 C 0.33082 0.63183 0.32945
 C1974 C 0.32963 0.63085 0.31439
 C1975 C 0.31103 0.59570 0.31003
 C1976 C 0.30523 0.58564 0.30441
 C1977 C 0.29835 0.57397 0.29772
 C1978 C 0.29240 0.56410 0.29191
 C1979 C 0.28520 0.55245 0.28486
 C1980 C 0.27261 0.54693 0.29065
 C1981 C 0.26541 0.53586 0.28361
 C1982 C 0.27071 0.53017 0.27066
 C1983 C 0.28344 0.53572 0.26499
 C1984 C 0.29062 0.54679 0.27205
 H1985 H 0.32228 0.61842 0.29643
 H1986 H 0.31498 0.60014 0.33834
 H1987 H 0.32639 0.62098 0.34959
 H1988 H 0.33345 0.63941 0.30754
 H1989 H 0.26831 0.55125 0.30055
 H1990 H 0.25564 0.53184 0.28826
 H1991 H 0.28780 0.53158 0.25505
 H1992 H 0.30035 0.55099 0.26747
 C1993 C 0.31919 0.10850 0.83238
 C1994 C 0.31805 0.10764 0.81739
 C1995 C 0.32340 0.11873 0.80882
 C1996 C 0.32981 0.13066 0.81519
 C1997 C 0.33096 0.13165 0.83025
 C1998 C 0.32560 0.12042 0.83878
 C1999 C 0.31125 0.09550 0.81078
 C2000 C 0.30549 0.08542 0.80514
 C2001 C 0.29866 0.07375 0.79841
 C2002 C 0.29276 0.06387 0.79256
 C2003 C 0.28562 0.05222 0.78545
 C2004 C 0.29108 0.04665 0.77261
 C2005 C 0.28396 0.03559 0.76548
 C2006 C 0.27125 0.02995 0.77110
 C2007 C 0.26591 0.03555 0.78408
 C2008 C 0.27305 0.04661 0.79119
 H2009 H 0.31510 0.09996 0.83911
 H2010 H 0.32252 0.11821 0.79721
 H2011 H 0.33364 0.13922 0.80834
 H2012 H 0.32646 0.12081 0.85038
 H2013 H 0.30079 0.05092 0.76806
 H2014 H 0.28835 0.03153 0.75552
 H2015 H 0.25615 0.03146 0.78870
 H2016 H 0.26872 0.05086 0.80111
 C2017 C 0.82384 0.61887 0.80901
 C2018 C 0.81848 0.60785 0.81766
 C2019 C 0.81962 0.60881 0.83264
 C2020 C 0.82606 0.62076 0.83896
 C2021 C 0.83144 0.63192 0.83034
 C2022 C 0.83028 0.63083 0.81529
 C2023 C 0.81164 0.59568 0.81114
 C2024 C 0.80586 0.58559 0.80556
 C2025 C 0.79900 0.57390 0.79889
 C2026 C 0.79307 0.56402 0.79308
 C2027 C 0.78590 0.55236 0.78601
 C2028 C 0.77338 0.54674 0.79184
 C2029 C 0.76619 0.53569 0.78477
 C2030 C 0.77144 0.53011 0.77174
 C2031 C 0.78411 0.53575 0.76604
 C2032 C 0.79128 0.54681 0.77314
 H2033 H 0.82295 0.61827 0.79741
 H2034 H 0.81552 0.60033 0.83944
 H2035 H 0.82694 0.62122 0.85056
 H2036 H 0.83413 0.63933 0.80838
 H2037 H 0.76911 0.55098 0.80179
 H2038 H 0.75646 0.53159 0.78944
 H2039 H 0.78844 0.53170 0.75604
 H2040 H 0.80096 0.55109 0.76852
 C2041 C 0.80936 0.11878 0.32217
 C2042 C 0.81786 0.10767 0.31686
 C2043 C 0.83265 0.10851 0.31815
 C2044 C 0.83892 0.12043 0.32469
 C2045 C 0.83046 0.13167 0.33004
 C2046 C 0.81560 0.13070 0.32872
 C2047 C 0.81136 0.09550 0.30999
 C2048 C 0.80576 0.08542 0.30420
 C2049 C 0.79904 0.07373 0.29739
 C2050 C 0.79316 0.06385 0.29153
 C2051 C 0.78597 0.05219 0.28448
 C2052 C 0.79131 0.04660 0.27160
 C2053 C 0.78411 0.03555 0.26454
 C2054 C 0.77143 0.02994 0.27028
 C2055 C 0.76622 0.03556 0.28330
 C2056 C 0.77344 0.04661 0.29033
 H2057 H 0.79790 0.11827 0.32118
 H2058 H 0.83932 0.09996 0.31409
 H2059 H 0.85038 0.12080 0.32569
 H2060 H 0.80882 0.13926 0.33254
 H2061 H 0.80099 0.05086 0.26696
 H2062 H 0.78841 0.03147 0.25454
 H2063 H 0.75649 0.03149 0.28801
 H2064 H 0.76920 0.05087 0.30029
 C2065 C 0.66709 0.39130 0.31876
 C2066 C 0.68188 0.39209 0.31749
 C2067 C 0.69033 0.38091 0.32274
 C2068 C 0.68403 0.36897 0.32920
 C2069 C 0.66917 0.36804 0.33050
 C2070 C 0.66076 0.37935 0.32522
 C2071 C 0.68842 0.40427 0.31066
 C2072 C 0.69402 0.41437 0.30490
 C2073 C 0.70073 0.42607 0.29808
 C2074 C 0.70658 0.43597 0.29221
 C2075 C 0.71371 0.44765 0.28512
 C2076 C 0.72621 0.45332 0.29096
 C2077 C 0.73338 0.46439 0.28389
 C2078 C 0.72813 0.46995 0.27085
 C2079 C 0.71549 0.46426 0.26513
 C2080 C 0.70834 0.45318 0.27223
 H2081 H 0.66045 0.39990 0.31475
 H2082 H 0.70179 0.38138 0.32176
 H2083 H 0.69078 0.36035 0.33297
 H2084 H 0.64930 0.37902 0.32620
 H2085 H 0.73047 0.44910 0.30093
 H2086 H 0.74308 0.46852 0.28858
 H2087 H 0.71117 0.46829 0.25512
 H2088 H 0.69869 0.44886 0.26760
 C2089 C 0.68106 0.89166 0.83202
 C2090 C 0.68224 0.89255 0.81704
 C2091 C 0.67681 0.88154 0.80843
 C2092 C 0.67027 0.86966 0.81475
 C2093 C 0.66907 0.86863 0.82981
 C2094 C 0.67452 0.87978 0.83838
 C2095 C 0.68915 0.90466 0.81047
 C2096 C 0.69499 0.91470 0.80484
 C2097 C 0.70190 0.92633 0.79811
 C2098 C 0.70786 0.93617 0.79225
 C2099 C 0.71506 0.94778 0.78512
 C2100 C 0.70964 0.95337 0.77228
 C2101 C 0.71681 0.96440 0.76514
 C2102 C 0.72954 0.96998 0.77077
 C2103 C 0.73485 0.96436 0.78375
 C2104 C 0.72765 0.95333 0.79087
 H2105 H 0.68520 0.90014 0.83879
 H2106 H 0.67772 0.88210 0.79682
 H2107 H 0.66636 0.86117 0.80787
 H2108 H 0.67361 0.87937 0.84998
 H2109 H 0.69991 0.94914 0.76772
 H2110 H 0.71244 0.96848 0.75517
 H2111 H 0.74461 0.96842 0.78837
 H2112 H 0.73195 0.94907 0.80080
 C2113 C 0.17654 0.38151 0.80875
 C2114 C 0.18181 0.39267 0.81726
 C2115 C 0.18064 0.39189 0.83225
 C2116 C 0.17429 0.37996 0.83871
 C2117 C 0.16901 0.36866 0.83024
 C2118 C 0.17017 0.36959 0.81517
 C2119 C 0.18860 0.40480 0.81060
 C2120 C 0.19436 0.41485 0.80490
 C2121 C 0.20119 0.42648 0.79810
 C2122 C 0.20711 0.43631 0.79219
 C2123 C 0.21427 0.44791 0.78500
 C2124 C 0.22686 0.45350 0.79070
 C2125 C 0.23405 0.46450 0.78352
 C2126 C 0.22872 0.47004 0.77051
 C2127 C 0.21599 0.46442 0.76493
 C2128 C 0.20883 0.45343 0.77214
 H2129 H 0.17744 0.38198 0.79714
 H2130 H 0.18467 0.40048 0.83895
 H2131 H 0.17339 0.37963 0.85032
 H2132 H 0.16639 0.36098 0.80837
 H2133 H 0.23119 0.44929 0.80065
 H2134 H 0.24382 0.46858 0.78810
 H2135 H 0.21160 0.46845 0.75494
 H2136 H 0.19910 0.44916 0.76762
 C2137 C 0.18030 0.89166 0.33266
 C2138 C 0.18152 0.89260 0.31769
 C2139 C 0.17615 0.88161 0.30902
 C2140 C 0.16963 0.86968 0.31529
 C2141 C 0.16840 0.86859 0.33034
 C2142 C 0.17379 0.87973 0.33896
 C2143 C 0.18842 0.90475 0.31118
 C2144 C 0.19427 0.91481 0.30561
 C2145 C 0.20119 0.92647 0.29893
 C2146 C 0.20717 0.93632 0.29311
 C2147 C 0.21438 0.94794 0.28602
 C2148 C 0.20902 0.95351 0.27314
 C2149 C 0.21623 0.96452 0.26602
 C2150 C 0.22893 0.97012 0.27169
 C2151 C 0.23417 0.96453 0.28472
 C2152 C 0.22694 0.95351 0.29182
 H2153 H 0.18440 0.90013 0.33947
 H2154 H 0.17709 0.88220 0.29742
 H2155 H 0.16578 0.86119 0.30837
 H2156 H 0.17286 0.87927 0.35056
 H2157 H 0.19931 0.94926 0.26854
 H2158 H 0.21190 0.96858 0.25602
 H2159 H 0.24391 0.96859 0.28938
 H2160 H 0.23120 0.94926 0.30177
 C2161 C 0.39223 0.31909 0.66795
 C2162 C 0.39308 0.31784 0.68293
 C2163 C 0.38203 0.32306 0.69153
 C2164 C 0.37015 0.32944 0.68519
 C2165 C 0.36915 0.33067 0.67014
 C2166 C 0.38035 0.32546 0.66158
 C2167 C 0.40517 0.31102 0.68949
 C2168 C 0.41518 0.30522 0.69510
 C2169 C 0.42678 0.29834 0.70179
 C2170 C 0.43657 0.29238 0.70762
 C2171 C 0.44814 0.28517 0.71472
 C2172 C 0.45371 0.29071 0.72752
 C2173 C 0.46466 0.28350 0.73465
 C2174 C 0.47018 0.27063 0.72907
 C2175 C 0.46459 0.26522 0.71612
 C2176 C 0.45363 0.27245 0.70901
 H2177 H 0.40074 0.31511 0.66119
 H2178 H 0.38255 0.32209 0.70313
 H2179 H 0.36162 0.33317 0.69205
 H2180 H 0.37996 0.32642 0.64998
 H2181 H 0.44951 0.30053 0.73204
 H2182 H 0.46872 0.28795 0.74459
 H2183 H 0.46859 0.25535 0.71154
 H2184 H 0.44938 0.26807 0.69911
 C2185 C 0.39148 0.81927 0.16726
 C2186 C 0.39242 0.81794 0.18222
 C2187 C 0.38142 0.82312 0.19092
 C2188 C 0.36951 0.82956 0.18470
 C2189 C 0.36843 0.83090 0.16966
 C2190 C 0.37956 0.82571 0.16100
 C2191 C 0.40455 0.81110 0.18868
 C2192 C 0.41460 0.80530 0.19421
 C2193 C 0.42624 0.79843 0.20084
 C2194 C 0.43608 0.79250 0.20662
 C2195 C 0.44769 0.78533 0.21369
 C2196 C 0.45330 0.79091 0.22645
 C2197 C 0.46428 0.78374 0.23357
 C2198 C 0.46981 0.77087 0.22800
 C2199 C 0.46418 0.76542 0.21509
 C2200 C 0.45319 0.77261 0.20799
 H2201 H 0.39993 0.81532 0.16042
 H2202 H 0.38201 0.82208 0.20252
 H2203 H 0.36103 0.83325 0.19164
 H2204 H 0.37910 0.82673 0.14941
 H2205 H 0.44910 0.80075 0.23096
 H2206 H 0.46837 0.78823 0.24348
 H2207 H 0.46819 0.75553 0.21052
 H2208 H 0.44891 0.76818 0.19813
 C2209 C 0.88119 0.32315 0.19149
 C2210 C 0.89220 0.31790 0.18285
 C2211 C 0.89130 0.31914 0.16787
 C2212 C 0.87941 0.32555 0.16155
 C2213 C 0.86826 0.33081 0.17014
 C2214 C 0.86930 0.32957 0.18519
 C2215 C 0.90430 0.31107 0.18938
 C2216 C 0.91433 0.30529 0.19497
 C2217 C 0.92595 0.29843 0.20166
 C2218 C 0.93577 0.29250 0.20748
 C2219 C 0.94735 0.28534 0.21458
 C2220 C 0.95289 0.27262 0.20889
 C2221 C 0.96386 0.26543 0.21601
 C2222 C 0.96944 0.27088 0.22895
 C2223 C 0.96389 0.28374 0.23451
 C2224 C 0.95291 0.29090 0.22737
 H2225 H 0.88175 0.32219 0.20309
 H2226 H 0.89977 0.31512 0.16109
 H2227 H 0.87898 0.32649 0.14995
 H2228 H 0.86081 0.33332 0.19208
 H2229 H 0.94864 0.26821 0.19900
 H2230 H 0.96789 0.25557 0.21144
 H2231 H 0.96794 0.28821 0.24444
 H2232 H 0.94870 0.30072 0.23189
 C2233 C 0.89256 0.81983 0.66750
 C2234 C 0.89330 0.81857 0.68248
 C2235 C 0.88217 0.82373 0.69100
 C2236 C 0.87030 0.83007 0.68459
 C2237 C 0.86941 0.83133 0.66953
 C2238 C 0.88069 0.82617 0.66105
 C2239 C 0.90537 0.81181 0.68913
 C2240 C 0.91538 0.80606 0.69480
 C2241 C 0.92697 0.79922 0.70155
 C2242 C 0.93676 0.79330 0.70742
 C2243 C 0.94832 0.78612 0.71454
 C2244 C 0.95390 0.79169 0.72733
 C2245 C 0.96486 0.78450 0.73448
 C2246 C 0.97037 0.77162 0.72893
 C2247 C 0.96478 0.76617 0.71600
 C2248 C 0.95382 0.77338 0.70887
 H2249 H 0.90113 0.81589 0.66080
 H2250 H 0.88261 0.82275 0.70261
 H2251 H 0.86171 0.83376 0.69139
 H2252 H 0.88038 0.82714 0.64945
 H2253 H 0.94971 0.80153 0.73182
 H2254 H 0.96892 0.78898 0.74440
 H2255 H 0.96878 0.75629 0.71144
 H2256 H 0.94957 0.76896 0.69899
 C2257 C 0.61850 0.30885 0.32259
 C2258 C 0.60752 0.31746 0.31727
 C2259 C 0.60842 0.33238 0.31850
 C2260 C 0.62028 0.33869 0.32498
 C2261 C 0.63139 0.33012 0.33034
 C2262 C 0.63036 0.31513 0.32908
 C2263 C 0.59542 0.31093 0.31044
 C2264 C 0.58539 0.30533 0.30466
 C2265 C 0.57377 0.29862 0.29784
 C2266 C 0.56396 0.29276 0.29195
 C2267 C 0.55236 0.28563 0.28483
 C2268 C 0.54685 0.29118 0.27201
 C2269 C 0.53586 0.28404 0.26487
 C2270 C 0.53025 0.27122 0.27047
 C2271 C 0.53578 0.26579 0.28344
 C2272 C 0.54677 0.27296 0.29056
 H2273 H 0.61794 0.29729 0.32165
 H2274 H 0.59996 0.33914 0.31443
 H2275 H 0.62069 0.35025 0.32594
 H2276 H 0.63883 0.30826 0.33291
 H2277 H 0.55112 0.30098 0.26747
 H2278 H 0.53185 0.28850 0.25491
 H2279 H 0.53170 0.25595 0.28804
 H2280 H 0.55098 0.26855 0.30047
 C2281 C 0.60788 0.81949 0.83188
 C2282 C 0.60706 0.81824 0.81690
 C2283 C 0.61813 0.82345 0.80832
 C2284 C 0.63000 0.82982 0.81468
 C2285 C 0.63098 0.83106 0.82973
 C2286 C 0.61976 0.82585 0.83827
 C2287 C 0.59498 0.81144 0.81032
 C2288 C 0.58497 0.80567 0.80468
 C2289 C 0.57339 0.79881 0.79794
 C2290 C 0.56360 0.79287 0.79208
 C2291 C 0.55206 0.78567 0.78494
 C2292 C 0.54655 0.79121 0.77212
 C2293 C 0.53562 0.78402 0.76494
 C2294 C 0.53006 0.77115 0.77052
 C2295 C 0.53560 0.76574 0.78349
 C2296 C 0.54653 0.77296 0.79064
 H2297 H 0.59935 0.81551 0.83863
 H2298 H 0.61763 0.82249 0.79672
 H2299 H 0.63855 0.83354 0.80783
 H2300 H 0.62012 0.82681 0.84987
 H2301 H 0.55077 0.80104 0.76760
 H2302 H 0.53160 0.78847 0.75498
 H2303 H 0.53157 0.75587 0.78807
 H2304 H 0.55074 0.76857 0.80055
 C2305 C 0.10858 0.31860 0.83298
 C2306 C 0.10762 0.31739 0.81800
 C2307 C 0.11854 0.32275 0.80933
 C2308 C 0.13040 0.32927 0.81558
 C2309 C 0.13149 0.33050 0.83062
 C2310 C 0.12043 0.32511 0.83926
 C2311 C 0.09553 0.31052 0.81150
 C2312 C 0.08551 0.30472 0.80591
 C2313 C 0.07391 0.29787 0.79920
 C2314 C 0.06411 0.29196 0.79333
 C2315 C 0.05254 0.28484 0.78617
 C2316 C 0.04704 0.29045 0.77337
 C2317 C 0.03609 0.28333 0.76617
 C2318 C 0.03049 0.27046 0.77168
 C2319 C 0.03601 0.26497 0.78463
 C2320 C 0.04697 0.27211 0.79181
 H2321 H 0.10017 0.31450 0.83980
 H2322 H 0.11794 0.32182 0.79772
 H2323 H 0.13882 0.33312 0.80865
 H2324 H 0.12090 0.32605 0.85086
 H2325 H 0.05129 0.30028 0.76890
 H2326 H 0.03208 0.28784 0.75623
 H2327 H 0.03195 0.25509 0.78916
 H2328 H 0.05117 0.26766 0.80170
 C2329 C 0.11771 0.82323 0.30862
 C2330 C 0.10665 0.81795 0.31717
 C2331 C 0.10746 0.81913 0.33216
 C2332 C 0.11931 0.82552 0.33858
 C2333 C 0.13051 0.83081 0.33007
 C2334 C 0.12956 0.82963 0.31501
 C2335 C 0.09460 0.81114 0.31054
 C2336 C 0.08461 0.80536 0.30488
 C2337 C 0.07304 0.79850 0.29812
 C2338 C 0.06327 0.79256 0.29224
 C2339 C 0.05173 0.78537 0.28509
 C2340 C 0.04624 0.77262 0.29074
 C2341 C 0.03530 0.76541 0.28359
 C2342 C 0.02972 0.77087 0.27066
 C2343 C 0.03523 0.78377 0.26512
 C2344 C 0.04617 0.79096 0.27230
 H2345 H 0.11722 0.82232 0.29701
 H2346 H 0.09895 0.81510 0.33888
 H2347 H 0.11966 0.82643 0.35018
 H2348 H 0.13809 0.83342 0.30818
 H2349 H 0.05048 0.76820 0.30063
 H2350 H 0.03130 0.75552 0.28813
 H2351 H 0.03118 0.78826 0.25520
 H2352 H 0.05036 0.80081 0.26782
 C2353 C 0.61863 0.67675 0.69144
 C2354 C 0.60762 0.68195 0.68277
 C2355 C 0.60854 0.68067 0.66780
 C2356 C 0.62045 0.67427 0.66151
 C2357 C 0.63160 0.66906 0.67013
 C2358 C 0.63054 0.67034 0.68517
 C2359 C 0.59550 0.68876 0.68927
 C2360 C 0.58545 0.69455 0.69483
 C2361 C 0.57381 0.70140 0.70147
 C2362 C 0.56397 0.70733 0.70727
 C2363 C 0.55236 0.71449 0.71433
 C2364 C 0.54684 0.72720 0.70860
 C2365 C 0.53584 0.73438 0.71568
 C2366 C 0.53023 0.72895 0.72862
 C2367 C 0.53577 0.71609 0.73421
 C2368 C 0.54677 0.70893 0.72711
 H2369 H 0.61805 0.67774 0.70303
 H2370 H 0.60006 0.68464 0.66099
 H2371 H 0.62089 0.67330 0.64991
 H2372 H 0.63903 0.66663 0.69209
 H2373 H 0.55111 0.73161 0.69872
 H2374 H 0.53182 0.74425 0.71109
 H2375 H 0.53170 0.71162 0.74414
 H2376 H 0.55098 0.69911 0.73165
 C2377 C 0.60761 0.17998 0.16753
 C2378 C 0.60686 0.18129 0.18251
 C2379 C 0.61797 0.17614 0.19106
 C2380 C 0.62984 0.16977 0.18467
 C2381 C 0.63075 0.16848 0.16962
 C2382 C 0.61947 0.17362 0.16112
 C2383 C 0.59481 0.18814 0.18912
 C2384 C 0.58483 0.19398 0.19474
 C2385 C 0.57328 0.20093 0.20144
 C2386 C 0.56351 0.20694 0.20726
 C2387 C 0.55199 0.21422 0.21435
 C2388 C 0.54639 0.20873 0.22716
 C2389 C 0.53548 0.21600 0.23428
 C2390 C 0.53002 0.22889 0.22868
 C2391 C 0.53564 0.23426 0.21572
 C2392 C 0.54656 0.22697 0.20862
 H2393 H 0.59905 0.18391 0.16082
 H2394 H 0.61753 0.17715 0.20266
 H2395 H 0.63843 0.16610 0.19149
 H2396 H 0.61979 0.17263 0.14952
 H2397 H 0.55053 0.19888 0.23170
 H2398 H 0.53139 0.21158 0.24423
 H2399 H 0.53169 0.24415 0.21112
 H2400 H 0.55084 0.23132 0.19872
 C2401 C 0.11807 0.67689 0.19086
 C2402 C 0.10705 0.68212 0.18224
 C2403 C 0.10794 0.68090 0.16726
 C2404 C 0.11984 0.67453 0.16092
 C2405 C 0.13100 0.66929 0.16950
 C2406 C 0.12997 0.67051 0.18455
 C2407 C 0.09493 0.68889 0.18880
 C2408 C 0.08489 0.69462 0.19442
 C2409 C 0.07326 0.70142 0.20115
 C2410 C 0.06344 0.70730 0.20701
 C2411 C 0.05186 0.71442 0.21415
 C2412 C 0.04629 0.72714 0.20849
 C2413 C 0.03532 0.73429 0.21564
 C2414 C 0.02977 0.72881 0.22859
 C2415 C 0.03536 0.71595 0.23412
 C2416 C 0.04633 0.70882 0.22695
 H2417 H 0.11752 0.67783 0.20246
 H2418 H 0.09945 0.68490 0.16049
 H2419 H 0.12025 0.67359 0.14932
 H2420 H 0.13847 0.66676 0.19143
 H2421 H 0.05051 0.73158 0.19860
 H2422 H 0.03126 0.74416 0.21109
 H2423 H 0.03134 0.71144 0.24406
 H2424 H 0.05058 0.69899 0.23143
 C2425 C 0.11876 0.19070 0.67751
 C2426 C 0.10770 0.18212 0.68270
 C2427 C 0.10853 0.16720 0.68139
 C2428 C 0.12042 0.16087 0.67497
 C2429 C 0.13163 0.16941 0.66977
 C2430 C 0.13065 0.18440 0.67109
 C2431 C 0.09560 0.18865 0.68952
 C2432 C 0.08558 0.19425 0.69530
 C2433 C 0.07397 0.20096 0.70215
 C2434 C 0.06416 0.20682 0.70806
 C2435 C 0.05259 0.21397 0.71519
 C2436 C 0.04704 0.20839 0.72799
 C2437 C 0.03608 0.21556 0.73515
 C2438 C 0.03052 0.22843 0.72959
 C2439 C 0.03610 0.23387 0.71665
 C2440 C 0.04706 0.22669 0.70951
 H2441 H 0.11825 0.20226 0.67852
 H2442 H 0.10002 0.16045 0.68534
 H2443 H 0.12079 0.14931 0.67396
 H2444 H 0.13918 0.19125 0.66737
 H2445 H 0.05126 0.19856 0.73250
 H2446 H 0.03203 0.21108 0.74509
 H2447 H 0.03207 0.24375 0.71208
 H2448 H 0.05129 0.23111 0.69962
 C2449 C 0.38145 0.69110 0.32201
 C2450 C 0.39251 0.68252 0.31683
 C2451 C 0.39166 0.66760 0.31813
 C2452 C 0.37976 0.66127 0.32453
 C2453 C 0.36856 0.66981 0.32972
 C2454 C 0.36956 0.68481 0.32842
 C2455 C 0.40462 0.68905 0.31002
 C2456 C 0.41466 0.69465 0.30425
 C2457 C 0.42629 0.70134 0.29742
 C2458 C 0.43611 0.70719 0.29151
 C2459 C 0.44770 0.71431 0.28437
 C2460 C 0.45322 0.70873 0.27156
 C2461 C 0.46420 0.71588 0.26440
 C2462 C 0.46980 0.72872 0.26996
 C2463 C 0.46425 0.73417 0.28292
 C2464 C 0.45328 0.72700 0.29006
 H2465 H 0.38197 0.70266 0.32101
 H2466 H 0.40018 0.66085 0.31417
 H2467 H 0.37938 0.64971 0.32554
 H2468 H 0.36102 0.69166 0.33213
 H2469 H 0.44897 0.69892 0.26705
 H2470 H 0.46823 0.71140 0.25446
 H2471 H 0.46832 0.74402 0.28748
 H2472 H 0.44907 0.73142 0.29995
 C2473 C 0.38162 0.19091 0.82290
 C2474 C 0.39270 0.18232 0.81777
 C2475 C 0.39184 0.16740 0.81908
 C2476 C 0.37993 0.16108 0.82544
 C2477 C 0.36870 0.16962 0.83059
 C2478 C 0.36970 0.18461 0.82928
 C2479 C 0.40483 0.18885 0.81100
 C2480 C 0.41489 0.19444 0.80525
 C2481 C 0.42653 0.20113 0.79845
 C2482 C 0.43637 0.20697 0.79255
 C2483 C 0.44797 0.21407 0.78542
 C2484 C 0.45349 0.20849 0.77262
 C2485 C 0.46448 0.21561 0.76546
 C2486 C 0.47009 0.22845 0.77102
 C2487 C 0.46455 0.23390 0.78397
 C2488 C 0.45356 0.22676 0.79111
 H2489 H 0.38214 0.20246 0.82189
 H2490 H 0.40037 0.16065 0.81515
 H2491 H 0.37954 0.14952 0.82646
 H2492 H 0.36116 0.19147 0.83295
 H2493 H 0.44922 0.19868 0.76811
 H2494 H 0.46850 0.21113 0.75552
 H2495 H 0.46863 0.24375 0.78854
 H2496 H 0.44936 0.23118 0.80101
 C2497 C 0.88211 0.67739 0.80880
 C2498 C 0.89313 0.68268 0.81739
 C2499 C 0.89225 0.68152 0.83237
 C2500 C 0.88038 0.67513 0.83875
 C2501 C 0.86922 0.66982 0.83021
 C2502 C 0.87024 0.67099 0.81515
 C2503 C 0.90522 0.68947 0.81080
 C2504 C 0.91524 0.69522 0.80515
 C2505 C 0.92685 0.70204 0.79841
 C2506 C 0.93666 0.70794 0.79253
 C2507 C 0.94823 0.71508 0.78539
 C2508 C 0.95380 0.72779 0.79105
 C2509 C 0.96477 0.73495 0.78390
 C2510 C 0.97031 0.72949 0.77095
 C2511 C 0.96472 0.71664 0.76541
 C2512 C 0.95375 0.70949 0.77258
 H2513 H 0.88266 0.67829 0.79719
 H2514 H 0.90073 0.68556 0.83912
 H2515 H 0.87998 0.67423 0.85036
 H2516 H 0.86174 0.66719 0.80829
 H2517 H 0.94959 0.73222 0.80095
 H2518 H 0.96883 0.74481 0.78845
 H2519 H 0.96874 0.71215 0.75547
 H2520 H 0.94950 0.69968 0.76809
 C2521 C 0.88107 0.19094 0.32282
 C2522 C 0.89212 0.18238 0.31759
 C2523 C 0.89128 0.16745 0.31883
 C2524 C 0.87940 0.16110 0.32523
 C2525 C 0.86820 0.16962 0.33049
 C2526 C 0.86919 0.18462 0.32923
 C2527 C 0.90423 0.18894 0.31080
 C2528 C 0.91427 0.19456 0.30505
 C2529 C 0.92590 0.20127 0.29824
 C2530 C 0.93573 0.20713 0.29235
 C2531 C 0.94733 0.21426 0.28524
 C2532 C 0.95288 0.20870 0.27244
 C2533 C 0.96386 0.21586 0.26530
 C2534 C 0.96944 0.22870 0.27088
 C2535 C 0.96387 0.23414 0.28383
 C2536 C 0.95288 0.22696 0.29095
 H2537 H 0.88158 0.20250 0.32185
 H2538 H 0.89979 0.16073 0.31483
 H2539 H 0.87901 0.14954 0.32619
 H2540 H 0.86066 0.19145 0.33297
 H2541 H 0.94864 0.19889 0.26792
 H2542 H 0.96791 0.21139 0.25537
 H2543 H 0.96791 0.24399 0.28841
 H2544 H 0.94865 0.23137 0.30084
 C2545 C 0.32385 0.30863 0.61924
 C2546 C 0.31852 0.31709 0.60804
 C2547 C 0.31966 0.33203 0.60879
 C2548 C 0.32605 0.33850 0.62072
 C2549 C 0.33140 0.33008 0.63205
 C2550 C 0.33025 0.31507 0.63117
 C2551 C 0.31173 0.31042 0.59590
 C2552 C 0.30598 0.30473 0.58582
 C2553 C 0.29915 0.29796 0.57415
 C2554 C 0.29324 0.29208 0.56427
 C2555 C 0.28608 0.28495 0.55262
 C2556 C 0.27349 0.29065 0.54702
 C2557 C 0.26632 0.28354 0.53595
 C2558 C 0.27166 0.27061 0.53034
 C2559 C 0.28439 0.26503 0.53596
 C2560 C 0.29154 0.27216 0.54703
 H2561 H 0.32297 0.29706 0.61880
 H2562 H 0.31558 0.33868 0.60017
 H2563 H 0.32692 0.35006 0.62102
 H2564 H 0.33407 0.30831 0.63981
 H2565 H 0.26916 0.30054 0.55128
 H2566 H 0.25655 0.28812 0.53187
 H2567 H 0.28878 0.25510 0.53189
 H2568 H 0.30127 0.26764 0.55130
 C2569 C 0.30927 0.82274 0.11904
 C2570 C 0.31770 0.81750 0.10782
 C2571 C 0.33249 0.81883 0.10855
 C2572 C 0.33884 0.82533 0.12049
 C2573 C 0.33044 0.83060 0.13184
 C2574 C 0.31558 0.82925 0.13097
 C2575 C 0.31115 0.81063 0.09565
 C2576 C 0.30553 0.80483 0.08556
 C2577 C 0.29881 0.79796 0.07387
 C2578 C 0.29296 0.79204 0.06400
 C2579 C 0.28583 0.78489 0.05233
 C2580 C 0.29130 0.77209 0.04678
 C2581 C 0.28417 0.76494 0.03572
 C2582 C 0.27144 0.77050 0.03006
 C2583 C 0.26609 0.78345 0.03564
 C2584 C 0.27324 0.79058 0.04671
 H2585 H 0.29781 0.82171 0.11860
 H2586 H 0.33912 0.81483 0.09991
 H2587 H 0.35029 0.82637 0.12078
 H2588 H 0.30884 0.83300 0.13963
 H2589 H 0.30102 0.76759 0.05108
 H2590 H 0.28857 0.75500 0.03167
 H2591 H 0.25633 0.78802 0.03153
 H2592 H 0.26890 0.80047 0.05094
 C2593 C 0.83240 0.31844 0.10900
 C2594 C 0.81761 0.31715 0.10824
 C2595 C 0.80917 0.32244 0.11944
 C2596 C 0.81548 0.32897 0.13136
 C2597 C 0.83034 0.33029 0.13225
 C2598 C 0.83874 0.32496 0.12092
 C2599 C 0.81104 0.31031 0.09606
 C2600 C 0.80539 0.30456 0.08597
 C2601 C 0.79859 0.29778 0.07427
 C2602 C 0.79266 0.29195 0.06439
 C2603 C 0.78542 0.28494 0.05271
 C2604 C 0.77288 0.29078 0.04716
 C2605 C 0.76561 0.28379 0.03608
 C2606 C 0.77081 0.27083 0.03041
 C2607 C 0.78350 0.26509 0.03599
 C2608 C 0.79074 0.27211 0.04707
 H2609 H 0.83903 0.31440 0.10038
 H2610 H 0.79771 0.32145 0.11899
 H2611 H 0.80874 0.33277 0.13999
 H2612 H 0.85020 0.32597 0.12123
 H2613 H 0.76865 0.30070 0.05146
 H2614 H 0.75589 0.28849 0.03203
 H2615 H 0.78778 0.25514 0.03187
 H2616 H 0.80043 0.26748 0.05131
 C2617 C 0.82412 0.80912 0.61861
 C2618 C 0.81885 0.81756 0.60736
 C2619 C 0.82013 0.83249 0.60799
 C2620 C 0.82658 0.83897 0.61987
 C2621 C 0.83184 0.83059 0.63128
 C2622 C 0.83058 0.81558 0.63049
 C2623 C 0.81191 0.81088 0.59530
 C2624 C 0.80599 0.80521 0.58531
 C2625 C 0.79897 0.79848 0.57373
 C2626 C 0.79288 0.79265 0.56394
 C2627 C 0.78553 0.78558 0.55238
 C2628 C 0.79082 0.77275 0.54673
 C2629 C 0.78350 0.76567 0.53575
 C2630 C 0.77075 0.77135 0.53027
 C2631 C 0.76557 0.78432 0.53594
 C2632 C 0.77291 0.79137 0.54693
 H2633 H 0.82313 0.79756 0.61825
 H2634 H 0.81610 0.83912 0.59934
 H2635 H 0.82755 0.85054 0.62010
 H2636 H 0.83435 0.80885 0.63918
 H2637 H 0.80057 0.76816 0.55089
 H2638 H 0.78778 0.75571 0.53162
 H2639 H 0.75579 0.78897 0.53197
 H2640 H 0.76871 0.80129 0.55124
 C2641 C 0.32284 0.69125 0.38041
 C2642 C 0.31744 0.68271 0.39152
 C2643 C 0.31861 0.66778 0.39068
 C2644 C 0.32511 0.66140 0.37876
 C2645 C 0.33054 0.66990 0.36752
 C2646 C 0.32935 0.68491 0.36850
 C2647 C 0.31057 0.68929 0.40367
 C2648 C 0.30478 0.69494 0.41375
 C2649 C 0.29793 0.70169 0.42543
 C2650 C 0.29203 0.70757 0.43531
 C2651 C 0.28492 0.71473 0.44698
 C2652 C 0.27234 0.70907 0.45265
 C2653 C 0.26524 0.71622 0.46374
 C2654 C 0.27063 0.72915 0.46930
 C2655 C 0.28335 0.73469 0.46360
 C2656 C 0.29043 0.72752 0.45251
 H2657 H 0.32194 0.70282 0.38093
 H2658 H 0.31449 0.66106 0.39923
 H2659 H 0.32602 0.64984 0.37840
 H2660 H 0.33323 0.69173 0.35993
 H2661 H 0.26797 0.69918 0.44844
 H2662 H 0.25548 0.71166 0.46789
 H2663 H 0.28778 0.74462 0.46763
 H2664 H 0.30015 0.73201 0.44818
 C2665 C 0.32294 0.19111 0.88119
 C2666 C 0.31755 0.18258 0.89230
 C2667 C 0.31870 0.16765 0.89147
 C2668 C 0.32519 0.16126 0.87955
 C2669 C 0.33062 0.16975 0.86830
 C2670 C 0.32943 0.18475 0.86927
 C2671 C 0.31072 0.18918 0.90446
 C2672 C 0.30495 0.19484 0.91455
 C2673 C 0.29813 0.20161 0.92624
 C2674 C 0.29225 0.20749 0.93612
 C2675 C 0.28514 0.21465 0.94779
 C2676 C 0.27256 0.20899 0.95346
 C2677 C 0.26545 0.21614 0.96454
 C2678 C 0.27083 0.22908 0.97010
 C2679 C 0.28355 0.23462 0.96441
 C2680 C 0.29065 0.22745 0.95332
 H2681 H 0.32206 0.20268 0.88169
 H2682 H 0.31458 0.16094 0.90003
 H2683 H 0.32608 0.14969 0.87919
 H2684 H 0.33332 0.19157 0.86070
 H2685 H 0.26820 0.19911 0.94924
 H2686 H 0.25568 0.21159 0.96867
 H2687 H 0.28798 0.24455 0.96844
 H2688 H 0.30037 0.23193 0.94900
 C2689 C 0.82353 0.69157 0.88096
 C2690 C 0.81821 0.68307 0.89213
 C2691 C 0.81951 0.66814 0.89142
 C2692 C 0.82605 0.66172 0.87955
 C2693 C 0.83138 0.67017 0.86823
 C2694 C 0.83008 0.68518 0.86908
 C2695 C 0.81125 0.68968 0.90421
 C2696 C 0.80534 0.69532 0.91423
 C2697 C 0.79835 0.70203 0.92585
 C2698 C 0.79231 0.70785 0.93568
 C2699 C 0.78503 0.71493 0.94729
 C2700 C 0.77240 0.70920 0.95276
 C2701 C 0.76513 0.71626 0.96380
 C2702 C 0.77042 0.72918 0.96951
 C2703 C 0.78319 0.73479 0.96400
 C2704 C 0.79043 0.72771 0.95297
 H2705 H 0.82253 0.70313 0.88137
 H2706 H 0.81544 0.66146 0.90003
 H2707 H 0.82703 0.65016 0.87927
 H2708 H 0.83389 0.69196 0.86045
 H2709 H 0.76811 0.69933 0.94843
 H2710 H 0.75534 0.71166 0.96779
 H2711 H 0.78755 0.74470 0.96815
 H2712 H 0.80020 0.73224 0.94880
 C2713 C 0.83219 0.18113 0.39171
 C2714 C 0.81740 0.18242 0.39243
 C2715 C 0.80900 0.17721 0.38117
 C2716 C 0.81535 0.17079 0.36921
 C2717 C 0.83022 0.16949 0.36835
 C2718 C 0.83858 0.17471 0.37975
 C2719 C 0.81081 0.18922 0.40462
 C2720 C 0.80516 0.19498 0.41472
 C2721 C 0.79841 0.20179 0.42642
 C2722 C 0.79253 0.20768 0.43631
 C2723 C 0.78538 0.21478 0.44798
 C2724 C 0.77280 0.20905 0.45359
 C2725 C 0.76562 0.21614 0.46466
 C2726 C 0.77093 0.22908 0.47028
 C2727 C 0.78365 0.23469 0.46464
 C2728 C 0.79081 0.22758 0.45356
 H2729 H 0.83880 0.18510 0.40039
 H2730 H 0.79754 0.17820 0.38159
 H2731 H 0.80864 0.16706 0.36052
 H2732 H 0.85003 0.17371 0.37948
 H2733 H 0.76849 0.19916 0.44933
 H2734 H 0.75587 0.21153 0.46876
 H2735 H 0.78802 0.24463 0.46872
 H2736 H 0.80053 0.23212 0.44929
 C2737 C 0.68063 0.33194 0.39185
 C2738 C 0.68187 0.31701 0.39263
 C2739 C 0.67663 0.30850 0.38143
 C2740 C 0.67023 0.31488 0.36947
 C2741 C 0.66899 0.32988 0.36854
 C2742 C 0.67423 0.33835 0.37989
 C2743 C 0.68868 0.31040 0.40480
 C2744 C 0.69445 0.30476 0.41489
 C2745 C 0.70131 0.29802 0.42658
 C2746 C 0.70724 0.29217 0.43646
 C2747 C 0.71442 0.28505 0.44811
 C2748 C 0.70898 0.27225 0.45371
 C2749 C 0.71616 0.26512 0.46477
 C2750 C 0.72890 0.27070 0.47037
 C2751 C 0.73422 0.28365 0.46474
 C2752 C 0.72702 0.29076 0.45369
 H2753 H 0.68462 0.33863 0.40047
 H2754 H 0.67759 0.29694 0.38190
 H2755 H 0.66648 0.30809 0.36082
 H2756 H 0.67328 0.34991 0.37956
 H2757 H 0.69925 0.26773 0.44946
 H2758 H 0.71178 0.25519 0.46885
 H2759 H 0.74399 0.28823 0.46881
 H2760 H 0.73133 0.30065 0.44942
 C2761 C 0.68045 0.83246 0.89110
 C2762 C 0.68159 0.81752 0.89187
 C2763 C 0.67625 0.80906 0.88068
 C2764 C 0.66984 0.81548 0.86875
 C2765 C 0.66869 0.83050 0.86785
 C2766 C 0.67405 0.83892 0.87917
 C2767 C 0.68839 0.81086 0.90402
 C2768 C 0.69415 0.80516 0.91409
 C2769 C 0.70098 0.79837 0.92576
 C2770 C 0.70688 0.79247 0.93562
 C2771 C 0.71402 0.78530 0.94727
 C2772 C 0.70856 0.77247 0.95279
 C2773 C 0.71568 0.76529 0.96384
 C2774 C 0.72839 0.77085 0.96953
 C2775 C 0.73374 0.78381 0.96399
 C2776 C 0.72659 0.79098 0.95293
 H2777 H 0.68453 0.83912 0.89971
 H2778 H 0.67713 0.79749 0.88114
 H2779 H 0.66601 0.80872 0.86012
 H2780 H 0.67317 0.85049 0.87885
 H2781 H 0.69884 0.76797 0.94847
 H2782 H 0.71129 0.75533 0.96786
 H2783 H 0.74349 0.78838 0.96812
 H2784 H 0.73092 0.80089 0.94873
 C2785 C 0.19070 0.32296 0.88124
 C2786 C 0.18233 0.31768 0.89248
 C2787 C 0.16753 0.31893 0.89179
 C2788 C 0.16112 0.32539 0.87986
 C2789 C 0.16945 0.33070 0.86848
 C2790 C 0.18433 0.32943 0.86931
 C2791 C 0.18895 0.31084 0.90464
 C2792 C 0.19461 0.30505 0.91471
 C2793 C 0.20138 0.29821 0.92639
 C2794 C 0.20729 0.29231 0.93626
 C2795 C 0.21447 0.28519 0.94791
 C2796 C 0.20901 0.27242 0.95356
 C2797 C 0.21619 0.26530 0.96462
 C2798 C 0.22896 0.27086 0.97017
 C2799 C 0.23430 0.28377 0.96449
 C2800 C 0.22710 0.29087 0.95344
 H2801 H 0.20217 0.32200 0.88164
 H2802 H 0.16094 0.31489 0.90045
 H2803 H 0.14966 0.32635 0.87960
 H2804 H 0.19102 0.33322 0.86063
 H2805 H 0.19925 0.26792 0.94935
 H2806 H 0.21179 0.25539 0.96874
 H2807 H 0.24410 0.28834 0.96852
 H2808 H 0.23143 0.30074 0.94913
 C2809 C 0.17591 0.80889 0.38099
 C2810 C 0.18121 0.81736 0.39220
 C2811 C 0.17996 0.83229 0.39149
 C2812 C 0.17349 0.83875 0.37959
 C2813 C 0.16819 0.83032 0.36824
 C2814 C 0.16944 0.81532 0.36909
 C2815 C 0.18809 0.81071 0.40430
 C2816 C 0.19394 0.80504 0.41434
 C2817 C 0.20088 0.79828 0.42596
 C2818 C 0.20688 0.79242 0.43579
 C2819 C 0.21413 0.78530 0.44740
 C2820 C 0.22678 0.79098 0.45287
 C2821 C 0.23404 0.78387 0.46389
 C2822 C 0.22873 0.77094 0.46956
 C2823 C 0.21594 0.76538 0.46406
 C2824 C 0.20871 0.77251 0.45305
 H2825 H 0.17688 0.79733 0.38140
 H2826 H 0.18401 0.83895 0.40011
 H2827 H 0.17255 0.85031 0.37930
 H2828 H 0.16565 0.80856 0.36044
 H2829 H 0.23109 0.80086 0.44856
 H2830 H 0.24385 0.78844 0.46788
 H2831 H 0.21157 0.75546 0.46819
 H2832 H 0.19893 0.76801 0.44887
 C2833 C 0.69068 0.67754 0.61944
 C2834 C 0.68222 0.68280 0.60825
 C2835 C 0.66744 0.68144 0.60900
 C2836 C 0.66112 0.67488 0.62092
 C2837 C 0.66954 0.66958 0.63225
 C2838 C 0.68440 0.67097 0.63136
 C2839 C 0.68875 0.68972 0.59608
 C2840 C 0.69435 0.69556 0.58600
 C2841 C 0.70106 0.70246 0.57432
 C2842 C 0.70692 0.70840 0.56444
 C2843 C 0.71406 0.71555 0.55278
 C2844 C 0.70865 0.72841 0.54729
 C2845 C 0.71579 0.73555 0.53621
 C2846 C 0.72846 0.72991 0.53049
 C2847 C 0.73374 0.71692 0.53601
 C2848 C 0.72658 0.70980 0.54709
 H2849 H 0.70214 0.67858 0.61899
 H2850 H 0.66079 0.68547 0.60038
 H2851 H 0.64967 0.67383 0.62123
 H2852 H 0.69115 0.66719 0.63999
 H2853 H 0.69897 0.73296 0.55163
 H2854 H 0.71144 0.74553 0.53220
 H2855 H 0.74346 0.71229 0.53186
 H2856 H 0.73087 0.69986 0.55128
 C2857 C 0.67587 0.19104 0.11874
 C2858 C 0.68118 0.18267 0.10748
 C2859 C 0.68003 0.16772 0.10811
 C2860 C 0.67366 0.16117 0.12001
 C2861 C 0.66835 0.16949 0.13143
 C2862 C 0.66949 0.18451 0.13064
 C2863 C 0.68799 0.18942 0.09539
 C2864 C 0.69379 0.19517 0.08537
 C2865 C 0.70068 0.20200 0.07375
 C2866 C 0.70665 0.20792 0.06394
 C2867 C 0.71389 0.21508 0.05235
 C2868 C 0.72645 0.20933 0.04673
 C2869 C 0.73369 0.21647 0.03572
 C2870 C 0.72846 0.22949 0.03020
 C2871 C 0.71577 0.23513 0.03585
 C2872 C 0.70854 0.22796 0.04685
 H2873 H 0.67676 0.20261 0.11839
 H2874 H 0.68408 0.16114 0.09943
 H2875 H 0.67279 0.14960 0.12023
 H2876 H 0.66570 0.19120 0.13935
 H2877 H 0.73069 0.19937 0.05092
 H2878 H 0.74343 0.21184 0.03162
 H2879 H 0.71146 0.24512 0.03184
 H2880 H 0.69884 0.23252 0.05114
 C2881 C 0.18077 0.66755 0.10833
 C2882 C 0.18202 0.68247 0.10756
 C2883 C 0.17666 0.69099 0.11870
 C2884 C 0.17014 0.68462 0.13060
 C2885 C 0.16888 0.66962 0.13151
 C2886 C 0.17425 0.66115 0.12023
 C2887 C 0.18895 0.68908 0.09545
 C2888 C 0.19482 0.69471 0.08540
 C2889 C 0.20177 0.70144 0.07376
 C2890 C 0.20776 0.70729 0.06392
 C2891 C 0.21499 0.71441 0.05229
 C2892 C 0.20954 0.72719 0.04666
 C2893 C 0.21673 0.73432 0.03561
 C2894 C 0.22950 0.72876 0.03006
 C2895 C 0.23483 0.71585 0.03572
 C2896 C 0.22762 0.70873 0.04677
 H2897 H 0.18486 0.66085 0.09976
 H2898 H 0.17763 0.70255 0.11824
 H2899 H 0.16630 0.69142 0.13920
 H2900 H 0.17330 0.64958 0.12056
 H2901 H 0.19977 0.73169 0.05087
 H2902 H 0.21233 0.74424 0.03150
 H2903 H 0.24463 0.71128 0.03169
 H2904 H 0.23194 0.69886 0.05107
 C2905 C 0.17732 0.19090 0.61908
 C2906 C 0.18271 0.18237 0.60797
 C2907 C 0.18154 0.16744 0.60880
 C2908 C 0.17505 0.16105 0.62071
 C2909 C 0.16963 0.16953 0.63196
 C2910 C 0.17082 0.18454 0.63100
 C2911 C 0.18957 0.18898 0.59582
 C2912 C 0.19538 0.19463 0.58575
 C2913 C 0.20224 0.20140 0.57408
 C2914 C 0.20817 0.20728 0.56421
 C2915 C 0.21533 0.21443 0.55256
 C2916 C 0.22792 0.20875 0.54695
 C2917 C 0.23509 0.21590 0.53589
 C2918 C 0.22975 0.22885 0.53031
 C2919 C 0.21702 0.23441 0.53596
 C2920 C 0.20987 0.22724 0.54701
 H2921 H 0.17822 0.20247 0.61858
 H2922 H 0.18566 0.16074 0.60024
 H2923 H 0.17415 0.14948 0.62108
 H2924 H 0.16694 0.19135 0.63957
 H2925 H 0.23225 0.19885 0.55119
 H2926 H 0.24486 0.21133 0.53179
 H2927 H 0.21262 0.24435 0.53191
 H2928 H 0.20014 0.23175 0.55129
   
