data_POSCAR
  _audit_creation_date              2014-09-24
  _audit_creation_method            'ToBaCCo'
  _symmetry_space_group_name_H-M    'P1'
  _symmetry_Int_Tables_number       1
  _symmetry_cell_setting            triclinic
  loop_
  _symmetry_equiv_pos_as_xyz
 x,y,z
_cell_length_a 66.8813
_cell_length_b 66.7011
_cell_length_c 66.3746
_cell_angle_alpha 90.436700
_cell_angle_beta 90.129800
_cell_angle_gamma 90.013500
loop_
  _atom_site_label
  _atom_site_type_symbol
  _atom_site_fract_x
  _atom_site_fract_y
  _atom_site_fract_z
C1 C 0.19293 0.21950 0.21589
 C2 C 0.20392 0.22517 0.19890
 C3 C 0.22075 0.21446 0.19336
 C4 C 0.22685 0.19792 0.20477
 C5 C 0.21604 0.19235 0.22154
 C6 C 0.19901 0.20326 0.22720
 C7 C 0.17592 0.22708 0.22473
 N8 N 0.17157 0.21589 0.24118
 C9 C 0.18565 0.20130 0.24280
 C10 C 0.22521 0.17571 0.22948
 N11 N 0.24134 0.17103 0.21793
 C12 C 0.24245 0.18461 0.20279
 C13 C 0.22841 0.22334 0.17640
 N14 N 0.21666 0.23922 0.17150
 C15 C 0.20162 0.24039 0.18522
 H16 H 0.16747 0.23995 0.21969
 H17 H 0.18600 0.18991 0.25433
 H18 H 0.22053 0.16771 0.24278
 H19 H 0.25352 0.18459 0.19093
 H20 H 0.24178 0.21875 0.16845
 H21 H 0.18971 0.25138 0.18519
 C22 C 0.69016 0.71655 0.71318
 C23 C 0.70142 0.72254 0.69648
 C24 C 0.71815 0.71174 0.69082
 C25 C 0.72392 0.69483 0.70184
 C26 C 0.71282 0.68893 0.71831
 C27 C 0.69584 0.69989 0.72405
 C28 C 0.67326 0.72423 0.72214
 N29 N 0.66852 0.71264 0.73821
 C30 C 0.68230 0.69771 0.73945
 C31 C 0.72187 0.67217 0.72611
 N32 N 0.73821 0.66772 0.71478
 C33 C 0.73955 0.68155 0.69989
 C34 C 0.72611 0.72099 0.67420
 N35 N 0.71462 0.73716 0.66964
 C36 C 0.69947 0.73818 0.68324
 H37 H 0.66523 0.73749 0.71746
 H38 H 0.68238 0.68594 0.75058
 H39 H 0.71704 0.66403 0.73928
 H40 H 0.75090 0.68183 0.68830
 H41 H 0.73948 0.71643 0.66623
 H42 H 0.68771 0.74932 0.68337
 C43 C 0.30641 0.77572 0.71658
 C44 C 0.29487 0.76991 0.69985
 C45 C 0.27859 0.78133 0.69416
 C46 C 0.27351 0.79859 0.70519
 C47 C 0.28492 0.80438 0.72155
 C48 C 0.30145 0.79283 0.72736
 C49 C 0.32313 0.76765 0.72550
 N50 N 0.32843 0.77940 0.74148
 C51 C 0.31521 0.79485 0.74268
 C52 C 0.27669 0.82176 0.72912
 N53 N 0.26032 0.82671 0.71787
 C54 C 0.25842 0.81241 0.70316
 C55 C 0.27047 0.77248 0.67725
 N56 N 0.28140 0.75593 0.67253
 C57 C 0.29633 0.75421 0.68634
 H58 H 0.33070 0.75405 0.72083
 H59 H 0.31570 0.80688 0.75371
 H60 H 0.28209 0.82970 0.74231
 H61 H 0.24729 0.81215 0.69132
 H62 H 0.25750 0.77768 0.66901
 H63 H 0.30770 0.74267 0.68629
 C64 C 0.80802 0.27655 0.21536
 C65 C 0.79699 0.27125 0.19813
 C66 C 0.78040 0.28234 0.19271
 C67 C 0.77456 0.29885 0.20449
 C68 C 0.78541 0.30403 0.22150
 C69 C 0.80222 0.29273 0.22700
 C70 C 0.82486 0.26861 0.22411
 N71 N 0.82960 0.27951 0.24097
 C72 C 0.81559 0.29433 0.24269
 C73 C 0.77647 0.32070 0.22984
 N74 N 0.76046 0.32581 0.21830
 C75 C 0.75920 0.31245 0.20276
 C76 C 0.77270 0.27382 0.17541
 N77 N 0.78419 0.25780 0.17020
 C78 C 0.79911 0.25616 0.18405
 H79 H 0.83262 0.25548 0.21858
 H80 H 0.81519 0.30597 0.25409
 H81 H 0.78123 0.32841 0.24343
 H82 H 0.74818 0.31280 0.19081
 H83 H 0.75949 0.27877 0.16743
 H84 H 0.81082 0.24497 0.18381
 C85 C 0.80632 0.72457 0.28393
 C86 C 0.79566 0.72964 0.30142
 C87 C 0.77915 0.71850 0.30692
 C88 C 0.77300 0.70220 0.29496
 C89 C 0.78338 0.69737 0.27763
 C90 C 0.80015 0.70867 0.27206
 C91 C 0.82320 0.73240 0.27522
 N92 N 0.82760 0.72168 0.25818
 C93 C 0.81332 0.70714 0.25625
 C94 C 0.77424 0.68086 0.26917
 N95 N 0.75859 0.67537 0.28101
 C96 C 0.75779 0.68846 0.29684
 C97 C 0.77176 0.72684 0.32441
 N98 N 0.78334 0.74282 0.32963
 C99 C 0.79805 0.74456 0.31563
 H100 H 0.83129 0.74527 0.28094
 H101 H 0.81273 0.69563 0.24472
 H102 H 0.77871 0.67353 0.25531
 H103 H 0.74728 0.68785 0.30917
 H104 H 0.75861 0.72188 0.33244
 H105 H 0.80974 0.75578 0.31580
 C106 C 0.30673 0.22191 -0.21453
 C107 C 0.29523 0.22784 -0.19787
 C108 C 0.27870 0.21671 -0.19239
 C109 C 0.27337 0.19959 -0.20356
 C110 C 0.28472 0.19375 -0.21990
 C111 C 0.30143 0.20511 -0.22554
 C112 C 0.32364 0.22973 -0.22321
 N113 N 0.32879 0.21821 -0.23948
 C114 C 0.31508 0.20309 -0.24089
 C115 C 0.27631 0.17650 -0.22759
 N116 N 0.25991 0.17164 -0.21641
 C117 C 0.25812 0.18591 -0.20168
 C118 C 0.27057 0.22575 -0.17561
 N119 N 0.28171 0.24216 -0.17082
 C120 C 0.29682 0.24356 -0.18440
 H121 H 0.33111 0.24326 -0.21821
 H122 H 0.31514 0.19099 -0.25182
 H123 H 0.28165 0.16853 -0.24076
 H124 H 0.24702 0.18620 -0.18986
 H125 H 0.25739 0.22084 -0.16759
 H126 H 0.30832 0.25498 -0.18431
 C127 C 0.69009 0.28385 -0.21340
 C128 C 0.70177 0.27751 -0.19708
 C129 C 0.71905 0.28778 -0.19201
 C130 C 0.72490 0.30451 -0.20324
 C131 C 0.71335 0.31076 -0.21925
 C132 C 0.69592 0.30024 -0.22449
 C133 C 0.67267 0.27669 -0.22182
 N134 N 0.66773 0.28820 -0.23801
 C135 C 0.68206 0.30268 -0.23960
 C136 C 0.72240 0.32744 -0.22714
 N137 N 0.73936 0.33160 -0.21641
 C138 C 0.74090 0.31741 -0.20177
 C139 C 0.72731 0.27831 -0.17562
 N140 N 0.71548 0.26252 -0.17065
 C141 C 0.69982 0.26196 -0.18374
 H142 H 0.66476 0.26353 -0.21675
 H143 H 0.68237 0.31457 -0.25057
 H144 H 0.71703 0.33549 -0.24016
 H145 H 0.75236 0.31667 -0.19028
 H146 H 0.74108 0.28247 -0.16808
 H147 H 0.68772 0.25119 -0.18345
 C148 C 0.19068 0.78462 0.28570
 C149 C 0.20247 0.77822 0.30192
 C150 C 0.21955 0.78872 0.30717
 C151 C 0.22510 0.80575 0.29625
 C152 C 0.21342 0.81215 0.28041
 C153 C 0.19613 0.80146 0.27501
 C154 C 0.17347 0.77721 0.27703
 N155 N 0.16834 0.78910 0.26129
 C156 C 0.18215 0.80401 0.26001
 C157 C 0.22228 0.82906 0.27277
 N158 N 0.23928 0.83316 0.28347
 C159 C 0.24097 0.81876 0.29789
 C160 C 0.22792 0.77922 0.32347
 N161 N 0.21633 0.76321 0.32830
 C162 C 0.20074 0.76250 0.31512
 H163 H 0.16555 0.76385 0.28161
 H164 H 0.18203 0.81594 0.24905
 H165 H 0.21683 0.83725 0.25988
 H166 H 0.25250 0.81790 0.30929
 H167 H 0.24156 0.78360 0.33112
 H168 H 0.18874 0.75161 0.31531
 C169 C 0.47259 0.44610 0.46611
 C170 C 0.47817 0.45690 0.44897
 C171 C 0.46693 0.47318 0.44291
 C172 C 0.45002 0.47896 0.45396
 C173 C 0.44460 0.46839 0.47092
 C174 C 0.45595 0.45183 0.47702
 C175 C 0.48043 0.42940 0.47524
 N176 N 0.46892 0.42478 0.49142
 C177 C 0.45391 0.43850 0.49260
 C178 C 0.42766 0.47727 0.47856
 N179 N 0.42252 0.49297 0.46662
 C180 C 0.43621 0.49402 0.45150
 C181 C 0.47575 0.48068 0.42584
 N182 N 0.49211 0.46938 0.42141
 C183 C 0.49365 0.45477 0.43551
 H184 H 0.49362 0.42128 0.47044
 H185 H 0.44206 0.43854 0.50368
 H186 H 0.41986 0.47269 0.49202
 H187 H 0.43603 0.50471 0.43932
 H188 H 0.47078 0.49364 0.41748
 H189 H 0.50504 0.44326 0.43585
 C190 C -0.03239 -0.05954 0.96077
 C191 C -0.02613 -0.04807 0.94431
 C192 C -0.03672 -0.03114 0.93890
 C193 C -0.05373 -0.02544 0.94988
 C194 C -0.05991 -0.03680 0.96598
 C195 C -0.04904 -0.05385 0.97159
 C196 C -0.02489 -0.07655 0.96959
 N197 N -0.03647 -0.08136 0.98578
 C198 C -0.05133 -0.06737 0.98694
 C199 C -0.07687 -0.02797 0.97360
 N200 N -0.08127 -0.01132 0.96260
 C201 C -0.06695 -0.00976 0.94807
 C202 C -0.02724 -0.02300 0.92250
 N203 N -0.01113 -0.03456 0.91783
 C204 C -0.01037 -0.04994 0.93115
 H205 H -0.01147 -0.08425 0.96481
 H206 H -0.06335 -0.06706 0.99779
 H207 H -0.08494 -0.03322 0.98663
 H208 H -0.06633 0.00150 0.93645
 H209 H -0.03163 -0.00947 0.91475
 H210 H 0.00066 -0.06180 0.93114
 C211 C 1.02997 0.55905 0.96580
 C212 C 1.02411 0.54754 0.94903
 C213 C 1.03462 0.53040 0.94393
 C214 C 1.05111 0.52451 0.95557
 C215 C 1.05686 0.53587 0.97203
 C216 C 1.04611 0.55318 0.97729
 C217 C 1.02258 0.57639 0.97427
 N218 N 1.03373 0.58129 0.99085
 C219 C 1.04819 0.56696 0.99266
 C220 C 1.07344 0.52686 0.98022
 N221 N 1.07803 0.51011 0.96921
 C222 C 1.06420 0.50868 0.95409
 C223 C 1.02569 0.52233 0.92702
 N224 N 1.00997 0.53413 0.92176
 C225 C 1.00893 0.54959 0.93518
 H226 H 1.00955 0.58433 0.96888
 H227 H 1.05988 0.56663 1.00393
 H228 H 1.08114 0.53213 0.99358
 H229 H 1.06384 0.49743 0.94229
 H230 H 1.03016 0.50871 0.91931
 H231 H 0.99810 0.56164 0.93478
 C232 C 0.53070 0.06024 0.46576
 C233 C 0.52464 0.04846 0.44926
 C234 C 0.53539 0.03152 0.44401
 C235 C 0.55231 0.02609 0.45523
 C236 C 0.55839 0.03777 0.47134
 C237 C 0.54745 0.05493 0.47673
 C238 C 0.52305 0.07739 0.47441
 N239 N 0.53471 0.08263 0.49043
 C240 C 0.54970 0.06893 0.49189
 C241 C 0.57530 0.02905 0.47920
 N242 N 0.57971 0.01215 0.46835
 C243 C 0.56552 0.01037 0.45362
 C244 C 0.52627 0.02316 0.42736
 N245 N 0.51023 0.03463 0.42232
 C246 C 0.50912 0.05012 0.43572
 H247 H 0.50971 0.08522 0.46961
 H248 H 0.56151 0.06919 0.50306
 H249 H 0.58328 0.03453 0.49230
 H250 H 0.56492 -0.00110 0.44205
 H251 H 0.53092 0.00964 0.41958
 H252 H 0.49811 0.06201 0.43541
 C253 C -0.02720 0.05326 0.53532
 C254 C -0.02133 0.04198 0.55207
 C255 C -0.03282 0.02594 0.55822
 C256 C -0.05032 0.02090 0.54766
 C257 C -0.05615 0.03206 0.53120
 C258 C -0.04450 0.04836 0.52498
 C259 C -0.01902 0.06968 0.52606
 N260 N -0.03095 0.07500 0.51034
 C261 C -0.04659 0.06196 0.50964
 C262 C -0.07367 0.02386 0.52402
 N263 N -0.07861 0.00795 0.53570
 C264 C -0.06438 0.00608 0.55022
 C265 C -0.02375 0.01802 0.57499
 N266 N -0.00704 0.02891 0.57925
 C267 C -0.00548 0.04359 0.56523
 H268 H -0.00522 0.07702 0.53039
 H269 H -0.05888 0.06246 0.49902
 H270 H -0.08200 0.02893 0.51102
 H271 H -0.06434 -0.00508 0.56198
 H272 H -0.02894 0.00519 0.58339
 H273 H 0.00606 0.05496 0.56486
 C274 C 0.47444 0.55306 0.03436
 C275 C 0.47973 0.54238 0.05169
 C276 C 0.46842 0.52611 0.05762
 C277 C 0.45176 0.52017 0.04616
 C278 C 0.44674 0.53054 0.02893
 C279 C 0.45819 0.54709 0.02298
 C280 C 0.48225 0.56986 0.02546
 N281 N 0.47120 0.57438 0.00879
 C282 C 0.45648 0.56026 0.00724
 C283 C 0.42993 0.52162 0.02097
 N284 N 0.42447 0.50610 0.03298
 C285 C 0.43785 0.50516 0.04844
 C286 C 0.47699 0.51871 0.07491
 N287 N 0.49331 0.53002 0.07951
 C288 C 0.49504 0.54457 0.06540
 H289 H 0.49532 0.57785 0.03080
 H290 H 0.44469 0.55986 -0.00393
 H291 H 0.42239 0.52611 0.00729
 H292 H 0.43734 0.49466 0.06076
 H293 H 0.47197 0.50578 0.08326
 H294 H 0.50655 0.55598 0.06516
 C295 C 0.53185 -0.05967 0.03532
 C296 C 0.52618 -0.04818 0.05214
 C297 C 0.53709 -0.03136 0.05753
 C298 C 0.55379 -0.02575 0.04613
 C299 C 0.55937 -0.03707 0.02954
 C300 C 0.54830 -0.05413 0.02407
 C301 C 0.52406 -0.07675 0.02660
 N302 N 0.53537 -0.08174 0.01032
 C303 C 0.55024 -0.06794 0.00869
 C304 C 0.57603 -0.02815 0.02142
 N305 N 0.58072 -0.01168 0.03267
 C306 C 0.56714 -0.01013 0.04783
 C307 C 0.52820 -0.02320 0.07438
 N308 N 0.51214 -0.03464 0.07934
 C309 C 0.51084 -0.04997 0.06577
 H310 H 0.51094 -0.08477 0.03162
 H311 H 0.56181 -0.06804 -0.00268
 H312 H 0.58395 -0.03318 0.00812
 H313 H 0.56711 0.00134 0.05945
 H314 H 0.53294 -0.00974 0.08224
 H315 H 0.49971 -0.06175 0.06591
 C316 C 1.02776 0.44458 0.53179
 C317 C 1.02192 0.45619 0.54846
 C318 C 1.03281 0.47301 0.55387
 C319 C 1.04967 0.47849 0.54264
 C320 C 1.05550 0.46697 0.52635
 C321 C 1.04444 0.44992 0.52082
 C322 C 1.02006 0.42745 0.52310
 N323 N 1.03166 0.42221 0.50709
 C324 C 1.04663 0.43593 0.50565
 C325 C 1.07241 0.47563 0.51853
 N326 N 1.07712 0.49233 0.52959
 C327 C 1.06307 0.49404 0.54441
 C328 C 1.02396 0.48111 0.57077
 N329 N 1.00796 0.46960 0.57577
 C330 C 1.00661 0.45434 0.56213
 H331 H 1.00679 0.41959 0.52797
 H332 H 1.05848 0.43565 0.49458
 H333 H 1.08021 0.47020 0.50533
 H334 H 1.06269 0.50534 0.55616
 H335 H 1.02881 0.49446 0.57876
 H336 H 0.99560 0.44245 0.56237
 C337 C 0.40692 0.01002 0.22251
 H338 H 0.40731 0.02389 0.23105
 C339 C 0.42005 0.00711 0.20643
 H340 H 0.43035 0.01898 0.20250
 C341 C 0.39289 -0.02223 0.21729
 H342 H 0.38261 -0.03383 0.22182
 C343 C 0.40575 -0.02576 0.20110
 H344 H 0.40515 -0.04007 0.19331
 N345 N 0.39349 -0.00445 0.22744
 C346 C 0.34621 0.02784 0.25917
 H347 H 0.34561 0.01920 0.27289
 C348 C 0.33318 0.04394 0.25647
 H349 H 0.32275 0.04778 0.26834
 C350 C 0.36071 0.03329 0.22714
 H351 H 0.37119 0.02887 0.21558
 C352 C 0.34795 0.04952 0.22380
 H353 H 0.34877 0.05743 0.20965
 Zn354 Zn 0.37646 0.00063 0.24968
 N355 N 0.35978 0.02298 0.24472
 C356 C 0.39232 0.02328 0.28256
 N357 N 0.39305 0.00555 0.27233
 C358 C 0.40624 -0.00904 0.27754
 C359 C 0.41910 -0.00627 0.29392
 C360 C 0.40492 0.02668 0.29905
 C361 C 0.34665 -0.02712 0.23948
 C362 C 0.33349 -0.04311 0.24224
 C363 C 0.34633 -0.04681 0.27605
 C364 C 0.35939 -0.03088 0.27256
 N365 N 0.35946 -0.02153 0.25443
 H366 H 0.38214 0.03492 0.27787
 H367 H 0.40666 -0.02290 0.26898
 H368 H 0.42924 -0.01821 0.29804
 H369 H 0.40427 0.04096 0.30689
 H370 H 0.34677 -0.01919 0.22532
 H371 H 0.32381 -0.04762 0.22992
 H372 H 0.34628 -0.05379 0.29072
 H373 H 0.36921 -0.02581 0.28449
 C374 C 0.33397 0.05505 0.23860
 C375 C 0.41952 -0.01095 0.19543
 C376 C 0.33319 -0.05321 0.26074
 C377 C 0.41851 0.01177 0.30495
 C378 C 0.09844 -0.01126 0.72327
 H379 H 0.09821 -0.02498 0.73186
 C380 C 0.08538 -0.00888 0.70704
 H381 H 0.07527 -0.02096 0.70304
 C382 C 0.11200 0.02111 0.71809
 H383 H 0.12205 0.03295 0.72270
 C384 C 0.09925 0.02410 0.70169
 H385 H 0.09970 0.03823 0.69379
 N386 N 0.11156 0.00352 0.72833
 C387 C 0.15770 -0.02920 0.76097
 H388 H 0.15755 -0.02126 0.77525
 C389 C 0.17051 -0.04551 0.75818
 H390 H 0.17988 -0.05023 0.77058
 C391 C 0.14530 -0.03276 0.72768
 H392 H 0.13572 -0.02751 0.71571
 C393 C 0.15804 -0.04898 0.72415
 H394 H 0.15810 -0.05599 0.70939
 Zn395 Zn 0.12833 -0.00109 0.75085
 N396 N 0.14517 -0.02340 0.74595
 C397 C 0.11148 -0.02362 0.78298
 N398 N 0.11134 -0.00583 0.77310
 C399 C 0.09824 0.00895 0.77819
 C400 C 0.08488 0.00631 0.79407
 C401 C 0.09838 -0.02689 0.79898
 C402 C 0.15776 0.02695 0.74103
 C403 C 0.17050 0.04331 0.74385
 C404 C 0.15774 0.04705 0.77768
 C405 C 0.14504 0.03077 0.77412
 N406 N 0.14509 0.02126 0.75592
 H407 H 0.12151 -0.03545 0.77832
 H408 H 0.09824 0.02283 0.76987
 H409 H 0.07479 0.01838 0.79809
 H410 H 0.09855 -0.04123 0.80652
 H411 H 0.15775 0.01888 0.72683
 H412 H 0.17997 0.04793 0.73152
 H413 H 0.15766 0.05419 0.79238
 H414 H 0.13536 0.02561 0.78600
 C415 C 0.17078 -0.05569 0.73956
 C416 C 0.08574 0.00896 0.69596
 C417 C 0.17061 0.05365 0.76238
 C418 C 0.08485 -0.01180 0.80472
 C419 C 0.59711 0.48975 0.22489
 H420 H 0.59509 0.47739 0.23515
 C421 C 0.58417 0.49204 0.20853
 H422 H 0.57236 0.48116 0.20617
 C423 C 0.61531 0.51865 0.21540
 H424 H 0.62755 0.52891 0.21806
 C425 C 0.60264 0.52159 0.19894
 H426 H 0.60507 0.53439 0.18933
 N427 N 0.61226 0.50301 0.22805
 C428 C 0.65747 0.47027 0.26204
 H429 H 0.65780 0.47857 0.27611
 C430 C 0.66994 0.45369 0.25941
 H431 H 0.67964 0.44917 0.27164
 C432 C 0.64434 0.46610 0.22909
 H433 H 0.63455 0.47114 0.21719
 C434 C 0.65654 0.44940 0.22583
 H435 H 0.65603 0.44177 0.21138
 Zn436 Zn 0.62864 0.49925 0.25096
 N437 N 0.64498 0.47617 0.24699
 C438 C 0.61235 0.47824 0.28438
 N439 N 0.61145 0.49542 0.27347
 C440 C 0.59759 0.50976 0.27776
 C441 C 0.58447 0.50745 0.29391
 C442 C 0.59953 0.47532 0.30067
 C443 C 0.66548 0.52019 0.25525
 C444 C 0.67787 0.53681 0.25813
 C445 C 0.64854 0.55778 0.25986
 C446 C 0.63669 0.54071 0.25722
 N447 N 0.64523 0.52229 0.25506
 H448 H 0.62274 0.46654 0.28035
 H449 H 0.59643 0.52289 0.26845
 H450 H 0.57377 0.51920 0.29721
 H451 H 0.60040 0.46146 0.30901
 H452 H 0.67220 0.50566 0.25302
 H453 H 0.69389 0.53457 0.25868
 H454 H 0.64136 0.57229 0.26102
 H455 H 0.62068 0.54232 0.25631
 C456 C 0.66960 0.44304 0.24109
 C457 C 0.58676 0.50821 0.19535
 C458 C 0.66946 0.55598 0.26042
 C459 C 0.58541 0.49009 0.30568
 C460 C 0.90588 0.50960 0.72246
 H461 H 0.90624 0.52336 0.73119
 C462 C 0.91879 0.50709 0.70613
 H463 H 0.92888 0.51913 0.70222
 C464 C 0.89208 0.47730 0.71691
 H465 H 0.88195 0.46556 0.72138
 C466 C 0.90471 0.47417 0.70047
 H467 H 0.90410 0.46000 0.69242
 N468 N 0.89264 0.49495 0.72732
 C469 C 0.84509 0.52682 0.75903
 H470 H 0.84458 0.51831 0.77283
 C471 C 0.83186 0.54272 0.75612
 H472 H 0.82134 0.54656 0.76792
 C473 C 0.85953 0.53209 0.72694
 H474 H 0.87003 0.52766 0.71541
 C475 C 0.84659 0.54812 0.72341
 H476 H 0.84732 0.55589 0.70917
 Zn477 Zn 0.87563 0.49978 0.74962
 N478 N 0.85871 0.52195 0.74462
 C479 C 0.89145 0.52259 0.78242
 N480 N 0.89224 0.50484 0.77221
 C481 C 0.90556 0.49036 0.77737
 C482 C 0.91851 0.49324 0.79365
 C483 C 0.90415 0.52611 0.79880
 C484 C 0.84611 0.47172 0.73943
 C485 C 0.83312 0.45560 0.74218
 C486 C 0.84599 0.45201 0.77599
 C487 C 0.85890 0.46807 0.77250
 N488 N 0.85888 0.47743 0.75437
 H489 H 0.88115 0.53413 0.77776
 H490 H 0.90603 0.47649 0.76882
 H491 H 0.92875 0.48137 0.79773
 H492 H 0.90346 0.54041 0.80660
 H493 H 0.84614 0.47967 0.72528
 H494 H 0.82348 0.45102 0.72986
 H495 H 0.84601 0.44503 0.79066
 H496 H 0.86868 0.47322 0.78443
 C497 C 0.83253 0.55363 0.73813
 C498 C 0.91821 0.48923 0.69481
 C499 C 0.83290 0.44550 0.76068
 C500 C 0.91789 0.51131 0.80464
 C501 C 0.21885 0.40436 0.01375
 H502 H 0.22622 0.40375 0.02826
 C503 C 0.20237 0.41690 0.01111
 H504 H 0.19696 0.42559 0.02381
 C505 C 0.21693 0.39356 -0.02027
 H506 H 0.22281 0.38464 -0.03256
 C507 C 0.20049 0.40602 -0.02363
 H508 H 0.19399 0.40661 -0.03856
 N509 N 0.22576 0.39293 -0.00181
 C510 C 0.25897 0.34564 0.02936
 H511 H 0.27275 0.34528 0.02099
 C512 C 0.25632 0.33237 0.04531
 H513 H 0.26838 0.32234 0.04937
 C514 C 0.22636 0.35862 0.03397
 H515 H 0.21439 0.36831 0.02918
 C516 C 0.22309 0.34564 0.05004
 H517 H 0.20871 0.34575 0.05751
 Zn518 Zn 0.24862 0.37640 0.00219
 N519 N 0.24424 0.35872 0.02421
 C520 C 0.28997 0.38448 0.00845
 N521 N 0.27149 0.39295 0.00713
 C522 C 0.26919 0.41318 0.00868
 C523 C 0.28568 0.42561 0.01196
 C524 C 0.30691 0.39639 0.01147
 C525 C 0.23944 0.34545 -0.02476
 C526 C 0.24188 0.33272 -0.04137
 C527 C 0.27164 0.35116 -0.05026
 C528 C 0.26854 0.36363 -0.03356
 N529 N 0.25276 0.36044 -0.02110
 H530 H 0.29173 0.36852 0.00644
 H531 H 0.25459 0.41986 0.00724
 H532 H 0.28333 0.44160 0.01351
 H533 H 0.32147 0.38931 0.01188
 H534 H 0.22693 0.34336 -0.01469
 H535 H 0.23097 0.32102 -0.04410
 H536 H 0.28457 0.35365 -0.05968
 H537 H 0.27879 0.37581 -0.03057
 C538 C 0.23823 0.33237 0.05598
 C539 C 0.19299 0.41794 -0.00781
 C540 C 0.25826 0.33537 -0.05431
 C541 C 0.30492 0.41729 0.01328
 C542 C 0.72215 0.09388 -0.01265
 H543 H 0.73053 0.09326 -0.02656
 C544 C 0.70611 0.08083 -0.00971
 H545 H 0.70205 0.07036 -0.02157
 C546 C 0.71731 0.10837 0.01968
 H547 H 0.72197 0.11881 0.03128
 C548 C 0.70116 0.09562 0.02324
 H549 H 0.69352 0.09644 0.03759
 N550 N 0.72731 0.10743 0.00187
 C551 C 0.75940 0.15405 -0.03051
 H552 H 0.77329 0.15421 -0.02211
 C553 C 0.75662 0.16731 -0.04643
 H554 H 0.76859 0.17746 -0.05041
 C555 C 0.72701 0.14047 -0.03548
 H556 H 0.71535 0.13027 -0.03091
 C557 C 0.72358 0.15349 -0.05151
 H558 H 0.70925 0.15314 -0.05913
 Zn559 Zn 0.74967 0.12405 -0.00318
 N560 N 0.74477 0.14087 -0.02547
 C561 C 0.78097 0.10694 -0.02660
 N562 N 0.77167 0.10695 -0.00840
 C563 C 0.77731 0.09410 0.00636
 C564 C 0.79335 0.08104 0.00338
 C565 C 0.79695 0.09395 -0.03032
 C566 C 0.74064 0.15453 0.02446
 C567 C 0.74361 0.16757 0.04074
 C568 C 0.77630 0.15298 0.04566
 C569 C 0.77270 0.14023 0.02927
 N570 N 0.75496 0.14100 0.01924
 H571 H 0.77587 0.11679 -0.03838
 H572 H 0.76942 0.09418 0.02058
 H573 H 0.79793 0.07140 0.01559
 H574 H 0.80391 0.09398 -0.04502
 H575 H 0.72680 0.15506 0.01601
 H576 H 0.73185 0.17794 0.04492
 H577 H 0.79056 0.15223 0.05338
 H578 H 0.78420 0.12989 0.02451
 C579 C 0.73850 0.16715 -0.05717
 C580 C 0.69536 0.08162 0.00843
 C581 C 0.76161 0.16682 0.05165
 C582 C 0.80345 0.08084 -0.01517
 C583 C 0.21826 0.59741 0.48511
 H584 H 0.22552 0.59804 0.47058
 C585 C 0.20170 0.58497 0.48775
 H586 H 0.19613 0.57637 0.47504
 C587 C 0.21672 0.60803 0.51921
 H588 H 0.22279 0.61682 0.53152
 C589 C 0.20021 0.59568 0.52255
 H590 H 0.19382 0.59506 0.53751
 N591 N 0.22542 0.60867 0.50072
 C592 C 0.25926 0.65540 0.46950
 H593 H 0.27315 0.65544 0.47774
 C594 C 0.25672 0.66868 0.45352
 H595 H 0.26897 0.67842 0.44935
 C596 C 0.22630 0.64317 0.46516
 H597 H 0.21417 0.63375 0.47007
 C598 C 0.22314 0.65616 0.44908
 H599 H 0.20868 0.65637 0.44172
 Zn600 Zn 0.24847 0.62491 0.49680
 N601 N 0.24428 0.64269 0.47481
 C602 C 0.28970 0.61628 0.49081
 N603 N 0.27109 0.60807 0.49187
 C604 C 0.26848 0.58790 0.49007
 C605 C 0.28479 0.57526 0.48681
 C606 C 0.30648 0.60415 0.48784
 C607 C 0.23981 0.65589 0.52387
 C608 C 0.24233 0.66835 0.54067
 C609 C 0.27167 0.64927 0.54970
 C610 C 0.26849 0.63708 0.53279
 N611 N 0.25287 0.64070 0.52019
 H612 H 0.29170 0.63220 0.49302
 H613 H 0.25378 0.58142 0.49129
 H614 H 0.28219 0.55932 0.48505
 H615 H 0.32114 0.61101 0.48766
 H616 H 0.22741 0.65831 0.51368
 H617 H 0.23160 0.68020 0.54343
 H618 H 0.28446 0.64640 0.55928
 H619 H 0.27852 0.62472 0.52980
 C620 C 0.23851 0.66907 0.44299
 C621 C 0.19250 0.58390 0.50671
 C622 C 0.25853 0.66522 0.55381
 C623 C 0.30416 0.58330 0.48578
 C624 C 0.72021 0.90597 0.51302
 H625 H 0.72807 0.90583 0.52728
 C626 C 0.70413 0.91900 0.51021
 H627 H 0.69949 0.92856 0.52260
 C628 C 0.71670 0.89340 0.47972
 H629 H 0.72189 0.88369 0.46774
 C630 C 0.70069 0.90635 0.47619
 H631 H 0.69378 0.90642 0.46143
 N632 N 0.72597 0.89330 0.49798
 C633 C 0.75770 0.84554 0.52933
 H634 H 0.77149 0.84533 0.52084
 C635 C 0.75492 0.83207 0.54507
 H636 H 0.76679 0.82170 0.54881
 C637 C 0.72553 0.85943 0.53472
 H638 H 0.71392 0.86979 0.53038
 C639 C 0.72212 0.84623 0.55058
 H640 H 0.70789 0.84665 0.55833
 Zn641 Zn 0.74819 0.87640 0.50277
 N642 N 0.74321 0.85904 0.52464
 C643 C 0.78066 0.89197 0.52596
 N644 N 0.77037 0.89320 0.50831
 C645 C 0.77525 0.90701 0.49418
 C646 C 0.79142 0.91991 0.49726
 C647 C 0.79696 0.90458 0.52966
 C648 C 0.73896 0.84655 0.47452
 C649 C 0.74198 0.83363 0.45817
 C650 C 0.77465 0.84834 0.45352
 C651 C 0.77102 0.86096 0.46999
 N652 N 0.75331 0.85999 0.47998
 H653 H 0.77622 0.88131 0.53726
 H654 H 0.76663 0.90784 0.48040
 H655 H 0.79533 0.93049 0.48562
 H656 H 0.80492 0.90346 0.54383
 H657 H 0.72513 0.84593 0.48291
 H658 H 0.73025 0.82325 0.45386
 H659 H 0.78891 0.84917 0.44588
 H660 H 0.78247 0.87133 0.47488
 C661 C 0.73695 0.83236 0.55598
 C662 C 0.69410 0.91933 0.49158
 C663 C 0.76001 0.83445 0.44741
 C664 C 0.80258 0.91872 0.51516
 C665 C -0.00550 0.22706 0.41325
 H666 H -0.00442 0.24191 0.41965
 C667 C -0.00849 0.21086 0.42607
 H668 H -0.01015 0.21368 0.44206
 C669 C -0.00471 0.20535 0.38490
 H670 H -0.00255 0.20314 0.36893
 C671 C -0.00746 0.18869 0.39722
 H672 H -0.00759 0.17387 0.39045
 N673 N -0.00391 0.22416 0.39299
 C674 C 0.02578 0.25534 0.34390
 H675 H 0.01539 0.26754 0.34162
 C676 C 0.04210 0.25296 0.33103
 H677 H 0.04427 0.26361 0.31900
 C678 C 0.03577 0.22706 0.36282
 H679 H 0.03341 0.21717 0.37540
 C680 C 0.05220 0.22403 0.35021
 H681 H 0.06202 0.21145 0.35298
 Zn682 Zn 0.00017 0.24668 0.37580
 N683 N 0.02287 0.24241 0.35935
 C684 C 0.02231 0.27947 0.39181
 N685 N 0.00423 0.27011 0.39179
 C686 C -0.01111 0.27706 0.40333
 C687 C -0.00851 0.29386 0.41571
 C688 C 0.02553 0.29641 0.40388
 C689 C -0.02974 0.23490 0.34765
 C690 C -0.04608 0.23757 0.33481
 C691 C -0.04660 0.27260 0.34413
 C692 C -0.03030 0.26925 0.35684
 N693 N -0.02234 0.25056 0.35862
 H694 H 0.03437 0.27365 0.38267
 H695 H -0.02537 0.26940 0.40300
 H696 H -0.02090 0.29917 0.42476
 H697 H 0.04011 0.30348 0.40397
 H698 H -0.02299 0.22029 0.34874
 H699 H -0.05194 0.22479 0.32656
 H700 H -0.05248 0.28765 0.34276
 H701 H -0.02381 0.28173 0.36496
 C702 C 0.05553 0.23705 0.33400
 C703 C -0.00947 0.19132 0.41813
 C704 C -0.05477 0.25662 0.33295
 C705 C 0.01004 0.30371 0.41614
 C706 C -0.01066 0.72392 0.09592
 H707 H -0.02496 0.73149 0.09605
 C708 C -0.00757 0.70760 0.08303
 H709 H -0.01978 0.70248 0.07357
 C710 C 0.02245 0.72141 0.10839
 H711 H 0.03424 0.72711 0.11801
 C712 C 0.02626 0.70515 0.09558
 H713 H 0.04104 0.69853 0.09551
 N714 N 0.00416 0.73032 0.10845
 C715 C -0.02980 0.76346 0.15375
 H716 H -0.02223 0.77778 0.15317
 C717 C -0.04608 0.76091 0.16660
 H718 H -0.05114 0.77351 0.17561
 C719 C -0.03243 0.72981 0.14238
 H720 H -0.02682 0.71760 0.13324
 C721 C -0.04868 0.72655 0.15513
 H722 H -0.05539 0.71179 0.15560
 Zn723 Zn -0.00126 0.75296 0.12488
 N724 N -0.02353 0.74813 0.14173
 C725 C -0.02499 0.78308 0.10639
 N726 N -0.00654 0.77455 0.10730
 C727 C 0.00842 0.78053 0.09488
 C728 C 0.00536 0.79620 0.08139
 C729 C -0.02877 0.79865 0.09296
 C730 C 0.02622 0.74435 0.15527
 C731 C 0.04212 0.74762 0.16855
 C732 C 0.04620 0.78071 0.15459
 C733 C 0.03019 0.77682 0.14159
 N734 N 0.02074 0.75876 0.14197
 H735 H -0.03692 0.77763 0.11582
 H736 H 0.02283 0.77320 0.09560
 H737 H 0.01769 0.80108 0.07210
 H738 H -0.04366 0.80498 0.09228
 H739 H 0.01826 0.73024 0.15545
 H740 H 0.04650 0.73581 0.17876
 H741 H 0.05344 0.79522 0.15419
 H742 H 0.02521 0.78834 0.13141
 C743 C -0.05581 0.74226 0.16738
 C744 C 0.01112 0.69797 0.08269
 C745 C 0.05239 0.76599 0.16827
 C746 C -0.01345 0.80553 0.08030
 C747 C 0.48934 0.22569 0.59586
 H748 H 0.47529 0.23371 0.59554
 C749 C 0.49250 0.20958 0.58270
 H750 H 0.48068 0.20510 0.57244
 C751 C 0.52177 0.22179 0.60974
 H752 H 0.53333 0.22687 0.61994
 C753 C 0.52555 0.20558 0.59687
 H754 H 0.54001 0.19829 0.59740
 N755 N 0.50379 0.23131 0.60920
 C756 C 0.46972 0.26330 0.65531
 H757 H 0.47728 0.27764 0.65520
 C758 C 0.45356 0.26027 0.66820
 H759 H 0.44856 0.27257 0.67764
 C760 C 0.46707 0.23005 0.64281
 H761 H 0.47264 0.21818 0.63319
 C762 C 0.45102 0.22627 0.65567
 H763 H 0.44447 0.21143 0.65577
 Zn764 Zn 0.49828 0.25362 0.62612
 N765 N 0.47593 0.24840 0.64272
 C766 C 0.47562 0.28566 0.60920
 N767 N 0.49340 0.27576 0.60910
 C768 C 0.50828 0.28097 0.59624
 C769 C 0.50581 0.29708 0.58317
 C770 C 0.47253 0.30190 0.59641
 C771 C 0.52602 0.24433 0.65622
 C772 C 0.54198 0.24746 0.66946
 C773 C 0.54494 0.28125 0.65697
 C774 C 0.52908 0.27738 0.64379
 N775 N 0.52014 0.25906 0.64347
 H776 H 0.46372 0.28091 0.61904
 H777 H 0.52217 0.27266 0.59629
 H778 H 0.51799 0.30124 0.57333
 H779 H 0.45825 0.30955 0.59661
 H780 H 0.51841 0.23001 0.65591
 H781 H 0.54678 0.23528 0.67899
 H782 H 0.55162 0.29604 0.65717
 H783 H 0.52376 0.28912 0.63403
 C784 C 0.44397 0.24152 0.66855
 C785 C 0.51079 0.19925 0.58315
 C786 C 0.55173 0.26614 0.66995
 C787 C 0.48777 0.30784 0.58322
 C788 C 0.51050 0.71831 0.90526
 H789 H 0.52451 0.72642 0.90503
 C790 C 0.50816 0.70201 0.91810
 H791 H 0.52064 0.69748 0.92743
 C792 C 0.47746 0.71428 0.89298
 H793 H 0.46541 0.71931 0.88341
 C794 C 0.47438 0.69804 0.90577
 H795 H 0.45988 0.69082 0.90589
 N796 N 0.49540 0.72387 0.89276
 C797 C 0.52642 0.75544 0.84467
 H798 H 0.51799 0.76928 0.84445
 C799 C 0.54226 0.75261 0.83128
 H800 H 0.54611 0.76448 0.82095
 C801 C 0.53165 0.72324 0.85856
 H802 H 0.52722 0.71163 0.86887
 C803 C 0.54759 0.71978 0.84545
 H804 H 0.55531 0.70552 0.84590
 Zn805 Zn 0.49987 0.74605 0.87571
 N806 N 0.52164 0.74099 0.85818
 C807 C 0.52279 0.77869 0.89132
 N808 N 0.50522 0.76849 0.89253
 C809 C 0.49114 0.77357 0.90640
 C810 C 0.49423 0.78980 0.91944
 C811 C 0.52650 0.79504 0.90407
 C812 C 0.47182 0.73616 0.84605
 C813 C 0.45553 0.73887 0.83316
 C814 C 0.45077 0.77189 0.84756
 C815 C 0.46716 0.76855 0.86018
 N816 N 0.47718 0.75082 0.85934
 H817 H 0.53406 0.77410 0.88063
 H818 H 0.47742 0.76502 0.90723
 H819 H 0.48265 0.79382 0.93011
 H820 H 0.54063 0.80287 0.90301
 H821 H 0.48022 0.72231 0.84552
 H822 H 0.45131 0.72688 0.82292
 H823 H 0.44313 0.78619 0.84827
 H824 H 0.47197 0.78024 0.87044
 C825 C 0.55316 0.73462 0.83165
 C826 C 0.48991 0.69157 0.91846
 C827 C 0.44476 0.75693 0.83382
 C828 C 0.51208 0.80082 0.91834
 C829 C 0.12245 0.22495 0.28055
 C830 C 0.12018 0.22886 0.25992
 C831 C 0.13650 0.22593 0.24699
 C832 C 0.15491 0.21896 0.25454
 C833 C 0.15687 0.21502 0.27528
 C834 C 0.14071 0.21809 0.28837
 C835 C 0.10537 0.22809 0.29423
 C836 C 0.10768 0.22436 0.31489
 C837 C 0.09140 0.22744 0.32785
 C838 C 0.07283 0.23401 0.32025
 C839 C 0.07082 0.23759 0.29942
 C840 C 0.08705 0.23475 0.28638
 C841 C 0.14245 0.21450 0.30914
 C842 C 0.12623 0.21763 0.32218
 C843 C 0.10163 0.23554 0.25262
 C844 C 0.08533 0.23839 0.26562
 H845 H 0.15647 0.20925 0.31537
 H846 H 0.12821 0.21470 0.33809
 H847 H 0.09968 0.23857 0.23672
 H848 H 0.07127 0.24353 0.25937
 H849 H 0.13481 0.22875 0.23103
 H850 H 0.17106 0.20989 0.28122
 H851 H 0.09328 0.22493 0.34385
 H852 H 0.05656 0.24232 0.29331
 C853 C 0.61951 0.72186 0.77780
 C854 C 0.63696 0.71266 0.78503
 C855 C 0.65308 0.70963 0.77189
 C856 C 0.65186 0.71573 0.75163
 C857 C 0.63420 0.72492 0.74466
 C858 C 0.61798 0.72803 0.75768
 C859 C 0.60252 0.72512 0.79156
 C860 C 0.58507 0.73434 0.78433
 C861 C 0.56897 0.73742 0.79749
 C862 C 0.57022 0.73133 0.81775
 C863 C 0.58786 0.72209 0.82471
 C864 C 0.60405 0.71895 0.81168
 C865 C 0.60026 0.73716 0.75098
 C866 C 0.58409 0.74026 0.76409
 C867 C 0.63794 0.70673 0.80528
 C868 C 0.62177 0.70982 0.81838
 H869 H 0.59889 0.74196 0.73548
 H870 H 0.57071 0.74737 0.75832
 H871 H 0.65133 0.69964 0.81105
 H872 H 0.62314 0.70502 0.83388
 H873 H 0.66667 0.70281 0.77751
 H874 H 0.63297 0.72942 0.72907
 H875 H 0.55538 0.74430 0.79193
 H876 H 0.58907 0.71760 0.84032
 C877 C 0.37773 0.76977 0.78068
 C878 C 0.37885 0.76320 0.76057
 C879 C 0.36252 0.76638 0.74770
 C880 C 0.34516 0.77610 0.75479
 C881 C 0.34434 0.78258 0.77504
 C882 C 0.36058 0.77945 0.78805
 C883 C 0.39487 0.76647 0.79428
 C884 C 0.39376 0.77304 0.81440
 C885 C 0.41010 0.76987 0.82726
 C886 C 0.42748 0.76022 0.82014
 C887 C 0.42830 0.75374 0.79989
 C888 C 0.41204 0.75682 0.78690
 C889 C 0.36000 0.78577 0.80828
 C890 C 0.37630 0.78261 0.82123
 C891 C 0.39630 0.75362 0.75373
 C892 C 0.41262 0.75049 0.76667
 H893 H 0.34683 0.79323 0.81415
 H894 H 0.37525 0.78774 0.83672
 H895 H 0.39736 0.74850 0.73824
 H896 H 0.42579 0.74304 0.76079
 H897 H 0.36343 0.76158 0.73210
 H898 H 0.33098 0.78980 0.78074
 H899 H 0.40920 0.77468 0.84287
 H900 H 0.44169 0.74655 0.79418
 C901 C -0.12183 0.26964 0.27984
 C902 C -0.12250 0.25976 0.26114
 C903 C -0.13879 0.26302 0.24823
 C904 C -0.15450 0.27623 0.25373
 C905 C -0.15334 0.28601 0.27275
 C906 C -0.13714 0.28273 0.28577
 C907 C -0.10471 0.26624 0.29346
 C908 C -0.10408 0.27609 0.31221
 C909 C -0.08777 0.27282 0.32510
 C910 C -0.07210 0.25988 0.31930
 C911 C -0.07301 0.25015 0.30039
 C912 C -0.08930 0.25325 0.28744
 C913 C -0.13600 0.29229 0.30470
 C914 C -0.11977 0.28901 0.31770
 C915 C -0.10679 0.24684 0.25564
 C916 C -0.09046 0.24366 0.26855
 H917 H -0.14776 0.30241 0.30950
 H918 H -0.11947 0.29668 0.33214
 H919 H -0.10710 0.23913 0.24122
 H920 H -0.07867 0.23360 0.26372
 H921 H -0.13873 0.25556 0.23374
 H922 H -0.16514 0.29584 0.27786
 H923 H -0.08739 0.28017 0.33971
 H924 H -0.06093 0.24040 0.29563
 C925 C -0.12344 0.73058 0.21982
 C926 C -0.13938 0.71847 0.21337
 C927 C -0.15572 0.71554 0.22623
 C928 C -0.15642 0.72472 0.24554
 C929 C -0.14013 0.73701 0.25153
 C930 C -0.12366 0.73987 0.23883
 C931 C -0.10614 0.73355 0.20641
 C932 C -0.09008 0.74550 0.21297
 C933 C -0.07363 0.74821 0.20021
 C934 C -0.07322 0.73920 0.18092
 C935 C -0.08954 0.72731 0.17460
 C936 C -0.10599 0.72438 0.18732
 C937 C -0.10732 0.75175 0.24486
 C938 C -0.09080 0.75449 0.23216
 C939 C -0.13870 0.70954 0.19413
 C940 C -0.12231 0.71247 0.18131
 H941 H -0.10727 0.75898 0.25953
 H942 H -0.07850 0.76375 0.23741
 H943 H -0.15094 0.70019 0.18893
 H944 H -0.12239 0.70532 0.16660
 H945 H -0.16801 0.70646 0.22077
 H946 H -0.13975 0.74397 0.26628
 H947 H -0.06106 0.75713 0.20540
 H948 H -0.08957 0.72054 0.15971
 C949 C 0.37739 0.22776 0.72192
 C950 C 0.36177 0.21511 0.71572
 C951 C 0.34564 0.21180 0.72874
 C952 C 0.34474 0.22129 0.74789
 C953 C 0.36071 0.23408 0.75366
 C954 C 0.37704 0.23722 0.74085
 C955 C 0.39445 0.23120 0.70831
 C956 C 0.41021 0.24364 0.71465
 C957 C 0.42643 0.24680 0.70169
 C958 C 0.42684 0.23787 0.68236
 C959 C 0.41078 0.22550 0.67626
 C960 C 0.39463 0.22201 0.68922
 C961 C 0.39310 0.24959 0.74666
 C962 C 0.40943 0.25269 0.73381
 C963 C 0.36252 0.20611 0.69651
 C964 C 0.37863 0.20956 0.68347
 H965 H 0.39305 0.25694 0.76128
 H966 H 0.42151 0.26232 0.73889
 H967 H 0.35053 0.19635 0.69150
 H968 H 0.37859 0.20236 0.66877
 H969 H 0.33356 0.20233 0.72349
 H970 H 0.36092 0.24121 0.76834
 H971 H 0.43879 0.25604 0.70678
 H972 H 0.41069 0.21878 0.66134
 C973 C 0.61853 0.27956 0.72358
 C974 C 0.61873 0.27041 0.74252
 C975 C 0.63522 0.27331 0.75531
 C976 C 0.65152 0.28551 0.74948
 C977 C 0.65075 0.29475 0.73034
 C978 C 0.63445 0.29169 0.71735
 C979 C 0.60136 0.27630 0.70995
 C980 C 0.60134 0.28515 0.69084
 C981 C 0.58512 0.28176 0.67783
 C982 C 0.56883 0.26981 0.68389
 C983 C 0.56906 0.26124 0.70326
 C984 C 0.58534 0.26432 0.71627
 C985 C 0.63384 0.30040 0.69814
 C986 C 0.61761 0.29713 0.68508
 C987 C 0.60240 0.25854 0.74834
 C988 C 0.58596 0.25560 0.73547
 H989 H 0.64606 0.30976 0.69311
 H990 H 0.61778 0.30405 0.67037
 H991 H 0.60232 0.25144 0.76297
 H992 H 0.57368 0.24632 0.74054
 H993 H 0.63491 0.26642 0.76999
 H994 H 0.66305 0.30379 0.72505
 H995 H 0.58534 0.28819 0.66289
 H996 H 0.55652 0.25232 0.70830
 C997 C 0.11887 0.77991 0.22202
 C998 C 0.13606 0.78952 0.21480
 C999 C 0.15231 0.79260 0.22785
 C1000 C 0.15147 0.78615 0.24801
 C1001 C 0.13403 0.77659 0.25498
 C1002 C 0.11770 0.77342 0.24205
 C1003 C 0.10179 0.77649 0.20831
 C1004 C 0.08463 0.76678 0.21551
 C1005 C 0.06849 0.76345 0.20238
 C1006 C 0.06943 0.76975 0.18218
 C1007 C 0.08676 0.77954 0.17526
 C1008 C 0.10299 0.78293 0.18826
 C1009 C 0.10023 0.76386 0.24873
 C1010 C 0.08398 0.76059 0.23568
 C1011 C 0.13670 0.79575 0.19463
 C1012 C 0.12044 0.79252 0.18159
 H1013 H 0.09913 0.75880 0.26416
 H1014 H 0.07081 0.75311 0.24143
 H1015 H 0.14990 0.80318 0.18887
 H1016 H 0.12156 0.79754 0.16615
 H1017 H 0.16573 0.79969 0.22221
 H1018 H 0.13308 0.77181 0.27051
 H1019 H 0.05513 0.75614 0.20791
 H1020 H 0.08772 0.78422 0.15969
 C1021 C 0.28066 0.12184 0.22667
 C1022 C 0.28790 0.13940 0.21772
 C1023 C 0.27486 0.15562 0.21490
 C1024 C 0.25472 0.15437 0.22097
 C1025 C 0.24776 0.13661 0.22995
 C1026 C 0.26065 0.12030 0.23282
 C1027 C 0.29429 0.10473 0.22965
 C1028 C 0.28704 0.08717 0.23858
 C1029 C 0.30006 0.07096 0.24141
 C1030 C 0.32022 0.07222 0.23540
 C1031 C 0.32721 0.08997 0.22642
 C1032 C 0.31430 0.10627 0.22351
 C1033 C 0.25394 0.10246 0.24167
 C1034 C 0.26690 0.08617 0.24450
 C1035 C 0.30803 0.14040 0.21180
 C1036 C 0.32101 0.12411 0.21465
 H1037 H 0.23852 0.10108 0.24646
 H1038 H 0.26112 0.07270 0.25139
 H1039 H 0.31381 0.15387 0.20489
 H1040 H 0.33643 0.12550 0.20987
 H1041 H 0.28045 0.16928 0.20822
 H1042 H 0.23224 0.13536 0.23441
 H1043 H 0.29445 0.05728 0.24807
 H1044 H 0.34274 0.09119 0.22197
 C1045 C 0.77822 0.61928 0.72457
 C1046 C 0.78528 0.63686 0.71554
 C1047 C 0.77201 0.65280 0.71231
 C1048 C 0.75179 0.65125 0.71805
 C1049 C 0.74499 0.63345 0.72707
 C1050 C 0.75813 0.61743 0.73038
 C1051 C 0.79212 0.60248 0.72804
 C1052 C 0.78505 0.58490 0.73710
 C1053 C 0.79833 0.56898 0.74038
 C1054 C 0.81854 0.57055 0.73465
 C1055 C 0.82535 0.58831 0.72556
 C1056 C 0.81220 0.60433 0.72223
 C1057 C 0.75160 0.59958 0.73935
 C1058 C 0.76483 0.58359 0.74266
 C1059 C 0.80550 0.63817 0.70997
 C1060 C 0.81873 0.62218 0.71326
 H1061 H 0.73613 0.59795 0.74388
 H1062 H 0.75919 0.57010 0.74964
 H1063 H 0.81114 0.65167 0.70300
 H1064 H 0.83419 0.62380 0.70872
 H1065 H 0.77749 0.66650 0.70563
 H1066 H 0.72943 0.63196 0.73128
 H1067 H 0.79288 0.55529 0.74713
 H1068 H 0.84093 0.58976 0.72133
 C1069 C 0.77882 0.37945 0.77385
 C1070 C 0.75973 0.37983 0.76511
 C1071 C 0.74664 0.36373 0.76827
 C1072 C 0.75232 0.34725 0.78036
 C1073 C 0.77169 0.34737 0.78907
 C1074 C 0.78495 0.36330 0.78576
 C1075 C 0.79266 0.39632 0.77047
 C1076 C 0.81187 0.39583 0.77901
 C1077 C 0.82500 0.41186 0.77567
 C1078 C 0.81897 0.42844 0.76407
 C1079 C 0.79955 0.42867 0.75574
 C1080 C 0.78640 0.41261 0.75879
 C1081 C 0.80430 0.36335 0.79408
 C1082 C 0.81755 0.37931 0.79071
 C1083 C 0.75401 0.39639 0.75347
 C1084 C 0.76709 0.41253 0.75041
 H1085 H 0.80927 0.35094 0.80326
 H1086 H 0.83234 0.37874 0.79739
 H1087 H 0.73927 0.39690 0.74668
 H1088 H 0.76207 0.42501 0.74136
 H1089 H 0.73185 0.36456 0.76175
 H1090 H 0.77686 0.33489 0.79797
 H1091 H 0.83997 0.41130 0.78191
 H1092 H 0.79455 0.44145 0.74709
 C1093 C 0.27882 -0.11902 0.27388
 C1094 C 0.28494 -0.13525 0.28568
 C1095 C 0.27164 -0.15115 0.28896
 C1096 C 0.25224 -0.15117 0.28033
 C1097 C 0.24656 -0.13459 0.26836
 C1098 C 0.25969 -0.11853 0.26523
 C1099 C 0.29272 -0.10220 0.27051
 C1100 C 0.28650 -0.08584 0.25891
 C1101 C 0.29972 -0.06983 0.25585
 C1102 C 0.31917 -0.07019 0.26412
 C1103 C 0.32516 -0.08684 0.27564
 C1104 C 0.31196 -0.10281 0.27897
 C1105 C 0.25400 -0.10189 0.25367
 C1106 C 0.26715 -0.08580 0.25061
 C1107 C 0.30432 -0.13531 0.29393
 C1108 C 0.31762 -0.11940 0.29058
 H1109 H 0.23924 -0.10129 0.24694
 H1110 H 0.26216 -0.07326 0.24162
 H1111 H 0.30927 -0.14779 0.30303
 H1112 H 0.33243 -0.12007 0.29719
 H1113 H 0.27683 -0.16369 0.29776
 H1114 H 0.23174 -0.13370 0.26190
 H1115 H 0.29477 -0.05701 0.24725
 H1116 H 0.34015 -0.08749 0.28182
 C1117 C 0.22274 -0.12370 0.72690
 C1118 C 0.24164 -0.12400 0.73606
 C1119 C 0.25412 -0.14066 0.73312
 C1120 C 0.24802 -0.15702 0.72082
 C1121 C 0.22889 -0.15618 0.71166
 C1122 C 0.21622 -0.13971 0.71475
 C1123 C 0.20949 -0.10628 0.73009
 C1124 C 0.19045 -0.10613 0.72116
 C1125 C 0.17785 -0.08963 0.72438
 C1126 C 0.18424 -0.07318 0.73624
 C1127 C 0.20350 -0.07358 0.74495
 C1128 C 0.21611 -0.09014 0.74204
 C1129 C 0.19707 -0.13899 0.70602
 C1130 C 0.18438 -0.12252 0.70922
 C1131 C 0.24774 -0.10756 0.74794
 C1132 C 0.23522 -0.09089 0.75083
 H1133 H 0.19182 -0.15129 0.69665
 H1134 H 0.16972 -0.12260 0.70224
 H1135 H 0.26233 -0.10756 0.75507
 H1136 H 0.24053 -0.07853 0.76008
 H1137 H 0.26878 -0.14041 0.74000
 H1138 H 0.22339 -0.16854 0.70259
 H1139 H 0.16298 -0.08972 0.71786
 H1140 H 0.20877 -0.06093 0.75382
 C1141 C 0.72178 0.37541 0.22824
 C1142 C 0.71444 0.35824 0.21835
 C1143 C 0.72725 0.34187 0.21517
 C1144 C 0.74730 0.34260 0.22176
 C1145 C 0.75436 0.35999 0.23168
 C1146 C 0.74168 0.37642 0.23496
 C1147 C 0.70840 0.39268 0.23157
 C1148 C 0.71576 0.40986 0.24145
 C1149 C 0.70299 0.42625 0.24455
 C1150 C 0.68299 0.42557 0.23784
 C1151 C 0.67588 0.40820 0.22794
 C1152 C 0.68852 0.39170 0.22479
 C1153 C 0.74851 0.39388 0.24475
 C1154 C 0.73576 0.41031 0.24795
 C1155 C 0.69443 0.35778 0.21185
 C1156 C 0.68169 0.37424 0.21500
 H1157 H 0.76383 0.39485 0.25000
 H1158 H 0.74162 0.42349 0.25557
 H1159 H 0.68858 0.34461 0.20422
 H1160 H 0.66638 0.37328 0.20972
 H1161 H 0.72155 0.32851 0.20778
 H1162 H 0.76980 0.36087 0.23655
 H1163 H 0.70868 0.43964 0.25193
 H1164 H 0.66046 0.40745 0.22293
 C1165 C 0.72035 0.62510 0.27165
 C1166 C 0.71403 0.64089 0.28418
 C1167 C 0.72657 0.65755 0.28701
 C1168 C 0.74550 0.65839 0.27767
 C1169 C 0.75154 0.64228 0.26518
 C1170 C 0.73899 0.62570 0.26202
 C1171 C 0.70724 0.60754 0.26863
 C1172 C 0.71351 0.59182 0.25597
 C1173 C 0.70101 0.57516 0.25315
 C1174 C 0.68245 0.57394 0.26315
 C1175 C 0.67645 0.58990 0.27583
 C1176 C 0.68873 0.60678 0.27852
 C1177 C 0.74476 0.60966 0.24948
 C1178 C 0.73220 0.59305 0.24644
 C1179 C 0.69532 0.63967 0.29370
 C1180 C 0.68293 0.62287 0.29098
 H1181 H 0.75911 0.60995 0.24193
 H1182 H 0.73722 0.58101 0.23664
 H1183 H 0.69027 0.65176 0.30342
 H1184 H 0.66867 0.62248 0.29869
 H1185 H 0.72147 0.66985 0.29638
 H1186 H 0.76610 0.64240 0.25812
 H1187 H 0.70568 0.56324 0.24303
 H1188 H 0.66239 0.58909 0.28386
 C1189 C 0.22238 0.12193 0.77476
 C1190 C 0.21582 0.13803 0.78672
 C1191 C 0.22846 0.15457 0.78973
 C1192 C 0.24760 0.15537 0.78065
 C1193 C 0.25372 0.13893 0.76851
 C1194 C 0.24128 0.12220 0.76567
 C1195 C 0.20919 0.10443 0.77168
 C1196 C 0.21587 0.08819 0.75994
 C1197 C 0.20331 0.07156 0.75712
 C1198 C 0.18403 0.07119 0.76571
 C1199 C 0.17759 0.08772 0.77738
 C1200 C 0.19014 0.10430 0.78051
 C1201 C 0.24744 0.10567 0.75399
 C1202 C 0.23498 0.08892 0.75123
 C1203 C 0.19667 0.13733 0.79537
 C1204 C 0.18402 0.12079 0.79226
 H1205 H 0.26203 0.10565 0.74693
 H1206 H 0.24033 0.07649 0.74213
 H1207 H 0.19139 0.14970 0.80459
 H1208 H 0.16936 0.12088 0.79917
 H1209 H 0.22295 0.16699 0.79867
 H1210 H 0.26838 0.13865 0.76171
 H1211 H 0.20865 0.05885 0.74841
 H1212 H 0.16271 0.08784 0.78380
 C1213 C 0.22580 0.27870 0.12244
 C1214 C 0.21617 0.28577 0.13987
 C1215 C 0.21319 0.27267 0.15601
 C1216 C 0.21973 0.25261 0.15483
 C1217 C 0.22935 0.24580 0.13717
 C1218 C 0.23244 0.25878 0.12095
 C1219 C 0.22901 0.29243 0.10543
 C1220 C 0.23866 0.28537 0.08801
 C1221 C 0.24168 0.29849 0.07188
 C1222 C 0.23507 0.31853 0.07309
 C1223 C 0.22541 0.32533 0.09071
 C1224 C 0.22235 0.31234 0.10693
 C1225 C 0.24200 0.25225 0.10325
 C1226 C 0.24506 0.26532 0.08706
 C1227 C 0.20977 0.30582 0.14083
 C1228 C 0.21280 0.31888 0.12463
 H1229 H 0.24717 0.23691 0.10190
 H1230 H 0.25251 0.25968 0.07369
 H1231 H 0.20234 0.31146 0.15420
 H1232 H 0.20761 0.33422 0.12598
 H1233 H 0.20605 0.27818 0.16959
 H1234 H 0.23420 0.23035 0.13595
 H1235 H 0.24890 0.29305 0.05830
 H1236 H 0.22050 0.34078 0.09188
 C1237 C 0.72421 0.77755 0.62144
 C1238 C 0.73047 0.75755 0.61946
 C1239 C 0.72730 0.74427 0.63543
 C1240 C 0.71793 0.75088 0.65329
 C1241 C 0.71178 0.77103 0.65498
 C1242 C 0.71488 0.78443 0.63911
 C1243 C 0.72748 0.79157 0.60469
 C1244 C 0.72121 0.81157 0.60668
 C1245 C 0.72433 0.82484 0.59070
 C1246 C 0.73367 0.81822 0.57283
 C1247 C 0.73986 0.79808 0.57112
 C1248 C 0.73680 0.78469 0.58701
 C1249 C 0.70886 0.80457 0.64056
 C1250 C 0.71197 0.81791 0.62461
 C1251 C 0.73972 0.75121 0.60152
 C1252 C 0.74283 0.76455 0.58557
 H1253 H 0.70166 0.81006 0.65413
 H1254 H 0.70708 0.83331 0.62634
 H1255 H 0.74460 0.73580 0.59979
 H1256 H 0.75002 0.75906 0.57200
 H1257 H 0.73185 0.72876 0.63384
 H1258 H 0.70483 0.77636 0.66873
 H1259 H 0.71975 0.84035 0.59227
 H1260 H 0.74681 0.79278 0.55735
 C1261 C 0.77382 0.78157 0.37978
 C1262 C 0.78303 0.78907 0.36241
 C1263 C 0.78622 0.77618 0.34593
 C1264 C 0.78027 0.75592 0.34672
 C1265 C 0.77110 0.74868 0.36434
 C1266 C 0.76783 0.76144 0.38090
 C1267 C 0.77033 0.79509 0.39710
 C1268 C 0.76106 0.78761 0.41446
 C1269 C 0.75773 0.80054 0.43086
 C1270 C 0.76360 0.82082 0.43001
 C1271 C 0.77291 0.82803 0.41246
 C1272 C 0.77630 0.81523 0.39596
 C1273 C 0.75867 0.75449 0.39855
 C1274 C 0.75534 0.76735 0.41504
 C1275 C 0.78878 0.80932 0.36182
 C1276 C 0.78547 0.82218 0.37832
 H1277 H 0.75399 0.73898 0.39961
 H1278 H 0.74820 0.76140 0.42836
 H1279 H 0.79588 0.81528 0.34849
 H1280 H 0.79013 0.83769 0.37725
 H1281 H 0.79300 0.78202 0.33239
 H1282 H 0.76670 0.73309 0.36524
 H1283 H 0.75080 0.79478 0.44439
 H1284 H 0.77725 0.84365 0.41156
 C1285 C 0.27148 0.28176 -0.12159
 C1286 C 0.27917 0.28935 -0.13966
 C1287 C 0.28259 0.27619 -0.15587
 C1288 C 0.27821 0.25561 -0.15414
 C1289 C 0.27041 0.24829 -0.13592
 C1290 C 0.26710 0.26128 -0.11956
 C1291 C 0.26798 0.29550 -0.10444
 C1292 C 0.26051 0.28786 -0.08630
 C1293 C 0.25737 0.30096 -0.06999
 C1294 C 0.26149 0.32161 -0.07174
 C1295 C 0.26887 0.32900 -0.09014
 C1296 C 0.27223 0.31599 -0.10650
 C1297 C 0.25959 0.25421 -0.10118
 C1298 C 0.25639 0.26727 -0.08482
 C1299 C 0.28323 0.30996 -0.14115
 C1300 C 0.27978 0.32306 -0.12487
 H1301 H 0.25619 0.23844 -0.09942
 H1302 H 0.25062 0.26119 -0.07090
 H1303 H 0.28913 0.31601 -0.15503
 H1304 H 0.28312 0.33884 -0.12666
 H1305 H 0.28837 0.28196 -0.16991
 H1306 H 0.26725 0.23245 -0.13439
 H1307 H 0.25202 0.29500 -0.05585
 H1308 H 0.27183 0.34487 -0.09181
 C1309 C 0.72540 0.22202 -0.12259
 C1310 C 0.71548 0.21531 -0.14004
 C1311 C 0.71227 0.22874 -0.15587
 C1312 C 0.71892 0.24876 -0.15436
 C1313 C 0.72889 0.25519 -0.13673
 C1314 C 0.73215 0.24189 -0.12079
 C1315 C 0.72876 0.20798 -0.10586
 C1316 C 0.73863 0.21470 -0.08839
 C1317 C 0.74176 0.20130 -0.07252
 C1318 C 0.73513 0.18127 -0.07404
 C1319 C 0.72525 0.17481 -0.09171
 C1320 C 0.72202 0.18810 -0.10766
 C1321 C 0.74195 0.24807 -0.10306
 C1322 C 0.74513 0.23471 -0.08713
 C1323 C 0.70899 0.19530 -0.14131
 C1324 C 0.71221 0.18193 -0.12540
 H1325 H 0.74721 0.26337 -0.10147
 H1326 H 0.75276 0.24008 -0.07371
 H1327 H 0.70134 0.18994 -0.15471
 H1328 H 0.70696 0.16663 -0.12698
 H1329 H 0.70485 0.22356 -0.16946
 H1330 H 0.73383 0.27060 -0.13529
 H1331 H 0.74912 0.20651 -0.05888
 H1332 H 0.72032 0.15939 -0.09315
 C1333 C 0.22617 0.72314 0.37678
 C1334 C 0.23316 0.74294 0.37828
 C1335 C 0.22993 0.75609 0.36221
 C1336 C 0.21978 0.74957 0.34470
 C1337 C 0.21293 0.72960 0.34347
 C1338 C 0.21606 0.71634 0.35947
 C1339 C 0.22943 0.70928 0.39368
 C1340 C 0.22235 0.68951 0.39221
 C1341 C 0.22540 0.67642 0.40837
 C1342 C 0.23546 0.68298 0.42590
 C1343 C 0.24251 0.70288 0.42707
 C1344 C 0.23951 0.71610 0.41101
 C1345 C 0.20928 0.69641 0.35852
 C1346 C 0.21236 0.68323 0.37462
 C1347 C 0.24317 0.74922 0.39587
 C1348 C 0.24630 0.73602 0.41195
 H1349 H 0.20148 0.69097 0.34524
 H1350 H 0.20686 0.66800 0.37329
 H1351 H 0.24863 0.76446 0.39722
 H1352 H 0.25408 0.74147 0.42524
 H1353 H 0.23501 0.77146 0.36348
 H1354 H 0.20537 0.72432 0.33000
 H1355 H 0.22014 0.66108 0.40722
 H1356 H 0.25004 0.70814 0.44058
 C1357 C 0.27154 0.71738 0.62233
 C1358 C 0.26747 0.73795 0.62061
 C1359 C 0.27066 0.75058 0.63728
 C1360 C 0.27803 0.74282 0.65553
 C1361 C 0.28213 0.72216 0.65695
 C1362 C 0.27881 0.70935 0.64041
 C1363 C 0.26815 0.70402 0.60485
 C1364 C 0.27208 0.68343 0.60660
 C1365 C 0.26879 0.67078 0.58993
 C1366 C 0.26178 0.67862 0.57154
 C1367 C 0.25800 0.69936 0.57010
 C1368 C 0.26107 0.71210 0.58672
 C1369 C 0.28258 0.68866 0.64159
 C1370 C 0.27923 0.67592 0.62498
 C1371 C 0.26036 0.74547 0.60222
 C1372 C 0.25726 0.73277 0.58555
 H1373 H 0.28816 0.68227 0.65546
 H1374 H 0.28232 0.66006 0.62653
 H1375 H 0.25720 0.76132 0.60069
 H1376 H 0.25180 0.73919 0.57163
 H1377 H 0.26774 0.76649 0.63598
 H1378 H 0.28760 0.71606 0.67100
 H1379 H 0.27148 0.65484 0.59136
 H1380 H 0.25294 0.70565 0.55597
 C1381 C 0.77477 0.21927 0.11981
 C1382 C 0.76868 0.23938 0.11879
 C1383 C 0.77185 0.25204 0.13545
 C1384 C 0.78104 0.24474 0.15307
 C1385 C 0.78706 0.22450 0.15378
 C1386 C 0.78397 0.21171 0.13720
 C1387 C 0.77144 0.20587 0.10234
 C1388 C 0.77753 0.18576 0.10338
 C1389 C 0.77430 0.17308 0.08675
 C1390 C 0.76505 0.18037 0.06917
 C1391 C 0.75905 0.20061 0.06841
 C1392 C 0.76222 0.21343 0.08496
 C1393 C 0.78982 0.19149 0.13768
 C1394 C 0.78666 0.17874 0.12105
 C1395 C 0.75955 0.24641 0.10111
 C1396 C 0.75637 0.23365 0.08448
 H1397 H 0.79692 0.18547 0.15102
 H1398 H 0.79141 0.16324 0.12205
 H1399 H 0.75479 0.26190 0.10012
 H1400 H 0.74926 0.23967 0.07115
 H1401 H 0.76740 0.26763 0.13462
 H1402 H 0.79387 0.21863 0.16732
 H1403 H 0.77873 0.15748 0.08758
 H1404 H 0.75216 0.20643 0.05487
 C1405 C 0.47703 0.37520 0.53042
 C1406 C 0.48376 0.37390 0.51044
 C1407 C 0.48110 0.39033 0.49765
 C1408 C 0.47180 0.40800 0.50470
 C1409 C 0.46520 0.40902 0.52485
 C1410 C 0.46775 0.39266 0.53776
 C1411 C 0.47972 0.35794 0.54392
 C1412 C 0.47294 0.35922 0.56389
 C1413 C 0.47553 0.34276 0.57665
 C1414 C 0.48489 0.32514 0.56958
 C1415 C 0.49159 0.32414 0.54948
 C1416 C 0.48902 0.34050 0.53658
 C1417 C 0.46122 0.39340 0.55786
 C1418 C 0.46376 0.37696 0.57070
 C1419 C 0.49295 0.35617 0.50363
 C1420 C 0.49555 0.33975 0.51648
 H1421 H 0.45405 0.40679 0.56371
 H1422 H 0.45848 0.37814 0.58608
 H1423 H 0.49819 0.35498 0.48823
 H1424 H 0.50273 0.32637 0.51063
 H1425 H 0.48596 0.38922 0.48213
 H1426 H 0.45829 0.42259 0.53055
 H1427 H 0.47056 0.34376 0.59216
 H1428 H 0.49857 0.31057 0.54383
 C1429 C -0.02717 0.87075 0.02533
 C1430 C -0.01765 0.87068 0.00653
 C1431 C -0.02075 0.88674 -0.00664
 C1432 C -0.03353 0.90287 -0.00133
 C1433 C -0.04309 0.90238 0.01769
 C1434 C -0.03985 0.88652 0.03105
 C1435 C -0.02374 0.85402 0.03933
 C1436 C -0.03301 0.85428 0.05828
 C1437 C -0.02954 0.83845 0.07162
 C1438 C -0.01708 0.82228 0.06606
 C1439 C -0.00804 0.82224 0.04687
 C1440 C -0.01122 0.83813 0.03352
 C1441 C -0.04894 0.88621 0.05012
 C1442 C -0.04553 0.87039 0.06353
 C1443 C -0.00521 0.85449 0.00124
 C1444 C -0.00211 0.83847 0.01447
 H1445 H -0.05873 0.89832 0.05475
 H1446 H -0.05278 0.87077 0.07811
 H1447 H 0.00218 0.85421 -0.01327
 H1448 H 0.00759 0.82629 0.00979
 H1449 H -0.01356 0.88620 -0.02120
 H1450 H -0.05257 0.91459 0.02261
 H1451 H -0.03633 0.83888 0.08642
 H1452 H 0.00130 0.80978 0.04222
 C1453 C 0.02468 0.63064 0.02933
 C1454 C 0.01561 0.63033 0.01027
 C1455 C 0.01862 0.61378 -0.00253
 C1456 C 0.03085 0.59751 0.00342
 C1457 C 0.03996 0.59838 0.02271
 C1458 C 0.03682 0.61477 0.03569
 C1459 C 0.02135 0.64793 0.04292
 C1460 C 0.03018 0.64810 0.06213
 C1461 C 0.02678 0.66446 0.07508
 C1462 C 0.01479 0.68069 0.06887
 C1463 C 0.00623 0.68029 0.04943
 C1464 C 0.00935 0.66391 0.03646
 C1465 C 0.04547 0.61551 0.05500
 C1466 C 0.04216 0.63186 0.06802
 C1467 C 0.00371 0.64663 0.00432
 C1468 C 0.00068 0.66315 0.01717
 H1469 H 0.05484 0.60332 0.06014
 H1470 H 0.04907 0.63180 0.08280
 H1471 H -0.00333 0.64661 -0.01039
 H1472 H -0.00860 0.67540 0.01200
 H1473 H 0.01180 0.61404 -0.01730
 H1474 H 0.04902 0.58611 0.02810
 H1475 H 0.03322 0.66440 0.09007
 H1476 H -0.00271 0.69280 0.04429
 C1477 C 0.52493 0.13228 0.52965
 C1478 C 0.53459 0.11514 0.53700
 C1479 C 0.53784 0.09882 0.52397
 C1480 C 0.53152 0.09954 0.50370
 C1481 C 0.52191 0.11694 0.49661
 C1482 C 0.51856 0.13333 0.50952
 C1483 C 0.52137 0.14945 0.54332
 C1484 C 0.51164 0.16657 0.53599
 C1485 C 0.50822 0.18282 0.54907
 C1486 C 0.51449 0.18203 0.56934
 C1487 C 0.52427 0.16473 0.57640
 C1488 C 0.52773 0.14838 0.56346
 C1489 C 0.50895 0.15076 0.50272
 C1490 C 0.50554 0.16709 0.51573
 C1491 C 0.54072 0.11462 0.55725
 C1492 C 0.53735 0.13097 0.57026
 H1493 H 0.50397 0.15176 0.48721
 H1494 H 0.49804 0.18023 0.50989
 H1495 H 0.54817 0.10147 0.56311
 H1496 H 0.54231 0.12996 0.58577
 H1497 H 0.54498 0.08545 0.52969
 H1498 H 0.51723 0.11781 0.48101
 H1499 H 0.50093 0.19616 0.54343
 H1500 H 0.52891 0.16388 0.59203
 C1501 C -0.02144 0.12408 0.47095
 C1502 C -0.03328 0.10788 0.46449
 C1503 C -0.03626 0.09167 0.47747
 C1504 C -0.02768 0.09164 0.49692
 C1505 C -0.01589 0.10813 0.50311
 C1506 C -0.01265 0.12431 0.49016
 C1507 C -0.01823 0.14117 0.45735
 C1508 C -0.00631 0.15732 0.46379
 C1509 C -0.00332 0.17353 0.45083
 C1510 C -0.01236 0.17384 0.43161
 C1511 C -0.02429 0.15745 0.42543
 C1512 C -0.02720 0.14106 0.43821
 C1513 C -0.00083 0.14076 0.49608
 C1514 C 0.00234 0.15695 0.48309
 C1515 C -0.04191 0.10825 0.44517
 C1516 C -0.03898 0.12458 0.43228
 H1517 H 0.00606 0.14111 0.51087
 H1518 H 0.01157 0.16933 0.48824
 H1519 H -0.05108 0.09584 0.44000
 H1520 H -0.04597 0.12429 0.41754
 H1521 H -0.04508 0.07902 0.47232
 H1522 H -0.00945 0.10857 0.51808
 H1523 H 0.00619 0.18582 0.45566
 H1524 H -0.03156 0.15759 0.41083
 C1525 C 0.47935 0.62354 0.97062
 C1526 C 0.48863 0.62346 0.98958
 C1527 C 0.48609 0.60688 1.00218
 C1528 C 0.47404 0.59039 0.99619
 C1529 C 0.46483 0.59095 0.97695
 C1530 C 0.46754 0.60736 0.96415
 C1531 C 0.48203 0.64094 0.95730
 C1532 C 0.47295 0.64091 0.93822
 C1533 C 0.47563 0.65743 0.92556
 C1534 C 0.48710 0.67407 0.93196
 C1535 C 0.49597 0.67385 0.95127
 C1536 C 0.49359 0.65728 0.96392
 C1537 C 0.45867 0.60787 0.94494
 C1538 C 0.46138 0.62433 0.93217
 C1539 C 0.50016 0.64007 0.99566
 C1540 C 0.50254 0.65672 0.98308
 H1541 H 0.44955 0.59544 0.93971
 H1542 H 0.45429 0.62410 0.91747
 H1543 H 0.50736 0.64023 1.01030
 H1544 H 0.51151 0.66923 0.98837
 H1545 H 0.49302 0.60734 1.01691
 H1546 H 0.45597 0.57847 0.97153
 H1547 H 0.46900 0.65720 0.91066
 H1548 H 0.50454 0.68663 0.95656
 C1549 C 0.52571 0.86835 0.97134
 C1550 C 0.53466 0.88576 0.96374
 C1551 C 0.53784 0.90218 0.97668
 C1552 C 0.53214 0.90130 0.99709
 C1553 C 0.52320 0.88367 1.00443
 C1554 C 0.51995 0.86715 0.99162
 C1555 C 0.52229 0.85105 0.95780
 C1556 C 0.51333 0.83365 0.96540
 C1557 C 0.51006 0.81725 0.95245
 C1558 C 0.51567 0.81818 0.93202
 C1559 C 0.52468 0.83578 0.92468
 C1560 C 0.52802 0.85226 0.93751
 C1561 C 0.51108 0.84946 0.99869
 C1562 C 0.50782 0.83299 0.98580
 C1563 C 0.54017 0.88641 0.94334
 C1564 C 0.53691 0.86995 0.93045
 H1565 H 0.50659 0.84834 1.01432
 H1566 H 0.50091 0.81964 0.99186
 H1567 H 0.54707 0.89977 0.93729
 H1568 H 0.54138 0.87107 0.91482
 H1569 H 0.54447 0.91574 0.97080
 H1570 H 0.51901 0.88269 1.02014
 H1571 H 0.50337 0.80370 0.95831
 H1572 H 0.52882 0.83675 0.90894
 C1573 C 0.02257 0.37191 0.46845
 C1574 C 0.01548 0.37134 0.48833
 C1575 C 0.01859 0.38795 0.50103
 C1576 C 0.02861 0.40512 0.49398
 C1577 C 0.03558 0.40538 0.47393
 C1578 C 0.03264 0.38881 0.46114
 C1579 C 0.01937 0.35446 0.45504
 C1580 C 0.02655 0.35498 0.43518
 C1581 C 0.02351 0.33832 0.42251
 C1582 C 0.01326 0.32131 0.42956
 C1583 C 0.00613 0.32109 0.44952
 C1584 C 0.00919 0.33761 0.46234
 C1585 C 0.03954 0.38880 0.44115
 C1586 C 0.03658 0.37216 0.42840
 C1587 C 0.00545 0.35417 0.49511
 C1588 C 0.00233 0.33760 0.48233
 H1589 H 0.04733 0.40175 0.43532
 H1590 H 0.04216 0.37276 0.41311
 H1591 H -0.00008 0.35355 0.51043
 H1592 H -0.00552 0.32467 0.48814
 H1593 H 0.01343 0.38738 0.51646
 H1594 H 0.04304 0.41856 0.46819
 H1595 H 0.02886 0.33867 0.40712
 H1596 H -0.00154 0.30796 0.45513
 C1597 C 0.37239 0.53142 0.47481
 C1598 C 0.37238 0.51236 0.48362
 C1599 C 0.38888 0.49971 0.48076
 C1600 C 0.40551 0.50605 0.46940
 C1601 C 0.40524 0.52534 0.46080
 C1602 C 0.38868 0.53801 0.46335
 C1603 C 0.35499 0.54472 0.47764
 C1604 C 0.35489 0.56371 0.46865
 C1605 C 0.33823 0.57623 0.47126
 C1606 C 0.32181 0.56998 0.48296
 C1607 C 0.32232 0.55091 0.49200
 C1608 C 0.33878 0.53818 0.48927
 C1609 C 0.38809 0.55716 0.45467
 C1610 C 0.37145 0.56976 0.45722
 C1611 C 0.35584 0.50632 0.49510
 C1612 C 0.33936 0.51904 0.49794
 H1613 H 0.40057 0.56243 0.44578
 H1614 H 0.37158 0.58438 0.45021
 H1615 H 0.35566 0.49165 0.50199
 H1616 H 0.32694 0.51382 0.50694
 H1617 H 0.38860 0.48487 0.48721
 H1618 H 0.41795 0.53064 0.45230
 H1619 H 0.33796 0.59071 0.46398
 H1620 H 0.31002 0.54602 0.50136
 C1621 C 0.87011 0.02740 -0.02830
 C1622 C 0.86997 0.00837 -0.01950
 C1623 C 0.88631 -0.00447 -0.02247
 C1624 C 0.90280 0.00138 -0.03443
 C1625 C 0.90242 0.02065 -0.04327
 C1626 C 0.88625 0.03369 -0.04013
 C1627 C 0.85302 0.04103 -0.02505
 C1628 C 0.85330 0.06021 -0.03360
 C1629 C 0.83711 0.07317 -0.03029
 C1630 C 0.82058 0.06701 -0.01870
 C1631 C 0.82053 0.04759 -0.01042
 C1632 C 0.83676 0.03462 -0.01342
 C1633 C 0.88596 0.05299 -0.04850
 C1634 C 0.86980 0.06604 -0.04524
 C1635 C 0.85342 0.00248 -0.00794
 C1636 C 0.83707 0.01536 -0.00501
 H1637 H 0.89835 0.05807 -0.05763
 H1638 H 0.87020 0.08080 -0.05193
 H1639 H 0.85309 -0.01221 -0.00111
 H1640 H 0.82461 0.01022 0.00399
 H1641 H 0.88568 -0.01923 -0.01589
 H1642 H 0.91488 0.02594 -0.05210
 H1643 H 0.83753 0.08814 -0.03650
 H1644 H 0.80781 0.04248 -0.00179
 C1645 C 0.62933 0.02794 0.02232
 C1646 C 0.63089 0.00777 0.01632
 C1647 C 0.61481 -0.00524 0.01978
 C1648 C 0.59722 0.00177 0.02916
 C1649 C 0.59596 0.02209 0.03505
 C1650 C 0.61196 0.03522 0.03168
 C1651 C 0.64621 0.04168 0.01874
 C1652 C 0.64466 0.06184 0.02477
 C1653 C 0.66077 0.07484 0.02135
 C1654 C 0.67833 0.06781 0.01196
 C1655 C 0.67959 0.04752 0.00600
 C1656 C 0.66358 0.03439 0.00937
 C1657 C 0.61094 0.05551 0.03745
 C1658 C 0.62702 0.06860 0.03406
 C1659 C 0.64853 0.00102 0.00703
 C1660 C 0.66459 0.01410 0.00360
 H1661 H 0.59762 0.06133 0.04467
 H1662 H 0.62563 0.08412 0.03876
 H1663 H 0.64993 -0.01452 0.00234
 H1664 H 0.67792 0.00829 -0.00362
 H1665 H 0.61609 -0.02087 0.01544
 H1666 H 0.58243 0.02774 0.04201
 H1667 H 0.65956 0.09047 0.02577
 H1668 H 0.69312 0.04189 -0.00098
 C1669 C 0.12562 0.53099 0.51986
 C1670 C 0.11006 0.53709 0.53262
 C1671 C 0.09391 0.52410 0.53591
 C1672 C 0.09302 0.50501 0.52641
 C1673 C 0.10896 0.49934 0.51354
 C1674 C 0.12522 0.51218 0.51031
 C1675 C 0.14268 0.54457 0.51645
 C1676 C 0.15834 0.53836 0.50383
 C1677 C 0.17458 0.55126 0.50073
 C1678 C 0.17518 0.57034 0.51002
 C1679 C 0.15924 0.57632 0.52257
 C1680 C 0.14300 0.56346 0.52589
 C1681 C 0.14119 0.50650 0.49776
 C1682 C 0.15748 0.51935 0.49461
 C1683 C 0.11090 0.55613 0.54181
 C1684 C 0.12707 0.56911 0.53847
 H1685 H 0.14110 0.49199 0.49033
 H1686 H 0.16948 0.51438 0.48484
 H1687 H 0.09895 0.56106 0.55167
 H1688 H 0.12712 0.58366 0.54585
 H1689 H 0.08190 0.52929 0.54547
 H1690 H 0.10921 0.48476 0.50635
 H1691 H 0.18688 0.54632 0.49132
 H1692 H 0.15937 0.59105 0.52959
 C1693 C 0.12621 0.47109 -0.02083
 C1694 C 0.11060 0.46510 -0.03364
 C1695 C 0.09453 0.47818 -0.03697
 C1696 C 0.09376 0.49727 -0.02744
 C1697 C 0.10972 0.50279 -0.01445
 C1698 C 0.12592 0.48987 -0.01121
 C1699 C 0.14324 0.45745 -0.01744
 C1700 C 0.15898 0.46357 -0.00480
 C1701 C 0.17521 0.45063 -0.00176
 C1702 C 0.17570 0.43157 -0.01110
 C1703 C 0.15967 0.42566 -0.02366
 C1704 C 0.14346 0.43858 -0.02694
 C1705 C 0.14195 0.49545 0.00137
 C1706 C 0.15822 0.48255 0.00448
 C1707 C 0.11133 0.44607 -0.04288
 C1708 C 0.12746 0.43302 -0.03955
 H1709 H 0.14194 0.50995 0.00885
 H1710 H 0.17028 0.48746 0.01427
 H1711 H 0.09934 0.44122 -0.05278
 H1712 H 0.12743 0.41850 -0.04697
 H1713 H 0.08248 0.47309 -0.04660
 H1714 H 0.11007 0.51736 -0.00723
 H1715 H 0.18756 0.45552 0.00765
 H1716 H 0.15971 0.41095 -0.03070
 C1717 C 0.62782 0.97305 0.47824
 C1718 C 0.62801 0.99217 0.48716
 C1719 C 0.61184 1.00515 0.48394
 C1720 C 0.59547 0.99933 0.47162
 C1721 C 0.59579 0.97994 0.46274
 C1722 C 0.61179 0.96679 0.46610
 C1723 C 0.64476 0.95931 0.48168
 C1724 C 0.64444 0.94008 0.47295
 C1725 C 0.66053 0.92704 0.47634
 C1726 C 0.67700 0.93318 0.48818
 C1727 C 0.67706 0.95262 0.49672
 C1728 C 0.66094 0.96568 0.49361
 C1729 C 0.61201 0.94742 0.45759
 C1730 C 0.62803 0.93428 0.46101
 C1731 C 0.64447 0.99800 0.49905
 C1732 C 0.66067 0.98501 0.50217
 H1733 H 0.59969 0.94237 0.44823
 H1734 H 0.62760 0.91948 0.45419
 H1735 H 0.64484 1.01276 0.50598
 H1736 H 0.67307 0.99011 0.51142
 H1737 H 0.61249 1.01996 0.49061
 H1738 H 0.58340 0.97464 0.45367
 H1739 H 0.66010 0.91206 0.46994
 H1740 H 0.68975 0.95769 0.50557
 C1741 C 0.87076 0.97027 0.52757
 C1742 C 0.86969 0.99043 0.52173
 C1743 C 0.88643 1.00282 0.52450
 C1744 C 0.90416 0.99519 0.53304
 C1745 C 0.90490 0.97492 0.53885
 C1746 C 0.88825 0.96240 0.53614
 C1747 C 0.85324 0.95714 0.52458
 C1748 C 0.85434 0.93696 0.53034
 C1749 C 0.83769 0.92450 0.52734
 C1750 C 0.82004 0.93208 0.51861
 C1751 C 0.81920 0.95241 0.51300
 C1752 C 0.83576 0.96500 0.51594
 C1753 C 0.88878 0.94213 0.54173
 C1754 C 0.87211 0.92962 0.53888
 C1755 C 0.85191 0.99778 0.51323
 C1756 C 0.83523 0.98528 0.51038
 H1757 H 0.90220 0.93586 0.54834
 H1758 H 0.87315 0.91407 0.54337
 H1759 H 0.85089 1.01331 0.50868
 H1760 H 0.82183 0.99153 0.50372
 H1761 H 0.88559 1.01844 0.52024
 H1762 H 0.91852 0.96881 0.54516
 H1763 H 0.83858 0.90883 0.53146
 H1764 H 0.80561 0.95846 0.50653
 C1765 C 0.37390 0.46823 0.02445
 C1766 C 0.38999 0.46154 0.03622
 C1767 C 0.40670 0.47401 0.03886
 C1768 C 0.40734 0.49319 0.03003
 C1769 C 0.39092 0.49961 0.01834
 C1770 C 0.37426 0.48717 0.01541
 C1771 C 0.35631 0.45516 0.02156
 C1772 C 0.34030 0.46180 0.00965
 C1773 C 0.32365 0.44930 0.00687
 C1774 C 0.32277 0.43036 0.01614
 C1775 C 0.33900 0.42400 0.02811
 C1776 C 0.35584 0.43629 0.03078
 C1777 C 0.35791 0.49332 0.00364
 C1778 C 0.34126 0.48082 0.00074
 C1779 C 0.38902 0.44251 0.04512
 C1780 C 0.37221 0.43013 0.04251
 H1781 H 0.35802 0.50790 -0.00343
 H1782 H 0.32899 0.48612 -0.00848
 H1783 H 0.40134 0.43717 0.05425
 H1784 H 0.37205 0.41560 0.04969
 H1785 H 0.41925 0.46865 0.04762
 H1786 H 0.39092 0.51439 0.01172
 H1787 H 0.31150 0.45426 -0.00269
 H1788 H 0.33843 0.40961 0.03557
 C1789 C 0.53171 0.47837 0.37237
 C1790 C 0.53898 0.46992 0.39024
 C1791 C 0.52584 0.46697 0.40638
 C1792 C 0.50554 0.47243 0.40475
 C1793 C 0.49853 0.48092 0.38668
 C1794 C 0.51155 0.48391 0.37044
 C1795 C 0.54546 0.48147 0.35533
 C1796 C 0.53818 0.48989 0.33744
 C1797 C 0.55131 0.49274 0.32126
 C1798 C 0.57159 0.48722 0.32290
 C1799 C 0.57862 0.47883 0.34101
 C1800 C 0.56562 0.47591 0.35726
 C1801 C 0.50481 0.49228 0.35228
 C1802 C 0.51790 0.49522 0.33606
 C1803 C 0.55926 0.46460 0.39163
 C1804 C 0.57236 0.46755 0.37542
 H1805 H 0.48928 0.49660 0.35059
 H1806 H 0.51209 0.50171 0.32233
 H1807 H 0.56507 0.45809 0.40536
 H1808 H 0.58788 0.46322 0.37710
 H1809 H 0.53146 0.46071 0.42029
 H1810 H 0.48292 0.48492 0.38515
 H1811 H 0.54569 0.49895 0.30731
 H1812 H 0.59424 0.47477 0.34251
 C1813 C 0.02966 -0.02465 0.86995
 C1814 C 0.00980 -0.01812 0.86806
 C1815 C -0.00360 -0.02139 0.88392
 C1816 C 0.00273 -0.03114 0.90160
 C1817 C 0.02276 -0.03755 0.90321
 C1818 C 0.03627 -0.03436 0.88743
 C1819 C 0.04380 -0.02130 0.85329
 C1820 C 0.06366 -0.02788 0.85517
 C1821 C 0.07702 -0.02471 0.83926
 C1822 C 0.07066 -0.01503 0.82156
 C1823 C 0.05068 -0.00851 0.81998
 C1824 C 0.03718 -0.01162 0.83579
 C1825 C 0.05627 -0.04066 0.88879
 C1826 C 0.06973 -0.03748 0.87293
 C1827 C 0.00372 -0.00850 0.85030
 C1828 C 0.01718 -0.00531 0.83444
 H1829 H 0.06157 -0.04815 0.90221
 H1830 H 0.08502 -0.04261 0.87457
 H1831 H -0.01157 -0.00340 0.84865
 H1832 H 0.01189 0.00217 0.82101
 H1833 H -0.01900 -0.01664 0.88238
 H1834 H 0.02788 -0.04479 0.91682
 H1835 H 0.09242 -0.02956 0.84073
 H1836 H 0.04556 -0.00130 0.80633
 C1837 C 0.03244 0.02009 0.62864
 C1838 C 0.01239 0.01410 0.63025
 C1839 C -0.00056 0.01698 0.61388
 C1840 C 0.00641 0.02575 0.59595
 C1841 C 0.02663 0.03159 0.59462
 C1842 C 0.03969 0.02883 0.61093
 C1843 C 0.04609 0.01722 0.64586
 C1844 C 0.06612 0.02332 0.64429
 C1845 C 0.07902 0.02062 0.66074
 C1846 C 0.07202 0.01183 0.67862
 C1847 C 0.05188 0.00576 0.67990
 C1848 C 0.03884 0.00846 0.66357
 C1849 C 0.05985 0.03466 0.60989
 C1850 C 0.07284 0.03197 0.62629
 C1851 C 0.00567 0.00542 0.64824
 C1852 C 0.01868 0.00263 0.66461
 H1853 H 0.06563 0.04141 0.59629
 H1854 H 0.08826 0.03671 0.62488
 H1855 H -0.00977 0.00074 0.64967
 H1856 H 0.01290 -0.00412 0.67820
 H1857 H -0.01611 0.01270 0.61525
 H1858 H 0.03225 0.03808 0.58085
 H1859 H 0.09454 0.02511 0.65954
 H1860 H 0.04630 -0.00078 0.69369
 C1861 C 0.53292 0.52059 0.12857
 C1862 C 0.51247 0.51645 0.13090
 C1863 C 0.49944 0.51953 0.11462
 C1864 C 0.50673 0.52686 0.09619
 C1865 C 0.52728 0.53099 0.09417
 C1866 C 0.54046 0.52780 0.11028
 C1867 C 0.54670 0.51731 0.14560
 C1868 C 0.56717 0.52130 0.14322
 C1869 C 0.58021 0.51815 0.15946
 C1870 C 0.57291 0.51122 0.17807
 C1871 C 0.55229 0.50733 0.18015
 C1872 C 0.53914 0.51027 0.16395
 C1873 C 0.56104 0.53163 0.10847
 C1874 C 0.57417 0.52839 0.12464
 C1875 C 0.50547 0.50939 0.14948
 C1876 C 0.51857 0.50639 0.16574
 H1877 H 0.56704 0.53716 0.09442
 H1878 H 0.58993 0.53153 0.12261
 H1879 H 0.48972 0.50617 0.15149
 H1880 H 0.51255 0.50096 0.17982
 H1881 H 0.48363 0.51653 0.11635
 H1882 H 0.53304 0.53637 0.07995
 H1883 H 0.59606 0.52090 0.15754
 H1884 H 0.54641 0.50230 0.19445
 C1885 C 0.47283 -0.02443 0.12855
 C1886 C 0.46561 -0.03395 0.11106
 C1887 C 0.47865 -0.03727 0.09486
 C1888 C 0.49880 -0.03114 0.09604
 C1889 C 0.50575 -0.02157 0.11373
 C1890 C 0.49283 -0.01819 0.13003
 C1891 C 0.45919 -0.02094 0.14565
 C1892 C 0.46642 -0.01143 0.16316
 C1893 C 0.45339 -0.00818 0.17939
 C1894 C 0.43326 -0.01437 0.17820
 C1895 C 0.42629 -0.02387 0.16048
 C1896 C 0.43919 -0.02720 0.14417
 C1897 C 0.49953 -0.00875 0.14780
 C1898 C 0.48654 -0.00543 0.16409
 C1899 C 0.44549 -0.03995 0.11012
 C1900 C 0.43250 -0.03663 0.12640
 H1901 H 0.51493 -0.00388 0.14914
 H1902 H 0.49231 0.00191 0.17751
 H1903 H 0.43972 -0.04730 0.09670
 H1904 H 0.41710 -0.04150 0.12506
 H1905 H 0.47305 -0.04437 0.08125
 H1906 H 0.52125 -0.01704 0.11493
 H1907 H 0.45897 -0.00110 0.19303
 H1908 H 0.41078 -0.02845 0.15930
 C1909 C 0.96981 0.47824 0.62616
 C1910 C 0.96223 0.46909 0.60863
 C1911 C 0.97487 0.46638 0.59200
 C1912 C 0.99496 0.47272 0.59281
 C1913 C 1.00226 0.48194 0.61054
 C1914 C 0.98976 0.48472 0.62726
 C1915 C 0.95662 0.48105 0.64374
 C1916 C 0.96421 0.49016 0.66129
 C1917 C 0.95161 0.49278 0.67797
 C1918 C 0.93154 0.48634 0.67716
 C1919 C 0.92421 0.47722 0.65940
 C1920 C 0.93668 0.47454 0.64265
 C1921 C 0.99683 0.49376 0.64510
 C1922 C 0.98427 0.49644 0.66182
 C1923 C 0.94218 0.46283 0.60809
 C1924 C 0.92962 0.46551 0.62481
 H1925 H 1.01220 0.49881 0.64614
 H1926 H 0.99031 0.50348 0.67528
 H1927 H 0.93614 0.45577 0.59463
 H1928 H 0.91425 0.46044 0.62377
 H1929 H 0.96901 0.45952 0.57837
 H1930 H 1.01775 0.48661 0.61145
 H1931 H 0.95747 0.49958 0.69163
 H1932 H 0.90873 0.47247 0.65853
 C1933 C 0.97092 0.52447 0.87207
 C1934 C 0.96369 0.53410 0.88946
 C1935 C 0.97665 0.53726 0.90582
 C1936 C 0.99671 0.53083 0.90489
 C1937 C 1.00367 0.52117 0.88730
 C1938 C 0.99084 0.51797 0.87084
 C1939 C 0.95736 0.52113 0.85481
 C1940 C 0.96460 0.51152 0.83740
 C1941 C 0.95164 0.50838 0.82104
 C1942 C 0.93156 0.51474 0.82200
 C1943 C 0.92459 0.52436 0.83961
 C1944 C 0.93742 0.52760 0.85605
 C1945 C 0.99755 0.50844 0.85315
 C1946 C 0.98465 0.50528 0.83671
 C1947 C 0.94364 0.54034 0.89016
 C1948 C 0.93072 0.53714 0.87374
 H1949 H 1.01290 0.50337 0.85200
 H1950 H 0.99042 0.49786 0.82336
 H1951 H 0.93787 0.54777 0.90351
 H1952 H 0.91537 0.54219 0.87490
 H1953 H 0.97106 0.54445 0.91936
 H1954 H 1.01912 0.51641 0.88631
 H1955 H 0.95725 0.50123 0.80747
 H1956 H 0.90911 0.52908 0.84062
 C1957 C 0.47123 0.02472 0.37264
 C1958 C 0.49119 0.01833 0.37142
 C1959 C 0.50398 0.02158 0.38789
 C1960 C 0.49696 0.03118 0.40550
 C1961 C 0.47685 0.03747 0.40643
 C1962 C 0.46393 0.03428 0.39005
 C1963 C 0.45773 0.02138 0.35534
 C1964 C 0.43777 0.02779 0.35654
 C1965 C 0.42501 0.02461 0.34003
 C1966 C 0.43208 0.01508 0.32240
 C1967 C 0.45217 0.00875 0.32149
 C1968 C 0.46505 0.01186 0.33791
 C1969 C 0.44385 0.04043 0.39071
 C1970 C 0.43099 0.03725 0.37424
 C1971 C 0.49798 0.00887 0.35373
 C1972 C 0.48513 0.00570 0.33725
 H1973 H 0.43802 0.04780 0.40406
 H1974 H 0.41562 0.04225 0.37537
 H1975 H 0.51335 0.00389 0.35260
 H1976 H 0.49096 -0.00165 0.32389
 H1977 H 0.51946 0.01695 0.38688
 H1978 H 0.47122 0.04462 0.41997
 H1979 H 0.40952 0.02930 0.34098
 H1980 H 0.45783 0.00167 0.30791
   
