data_POSCAR
  _audit_creation_date              2014-09-24
  _audit_creation_method            'ToBaCCo'
  _symmetry_space_group_name_H-M    'P1'
  _symmetry_Int_Tables_number       1
  _symmetry_cell_setting            triclinic
  loop_
  _symmetry_equiv_pos_as_xyz
 x,y,z
_cell_length_a 47.0367
_cell_length_b 46.9867
_cell_length_c 47.0232
_cell_angle_alpha 89.995700
_cell_angle_beta 90.091100
_cell_angle_gamma 89.928500
loop_
  _atom_site_label
  _atom_site_type_symbol
  _atom_site_fract_x
  _atom_site_fract_y
  _atom_site_fract_z
C1 C 0.34422 1.34444 0.30658
 C2 C 0.35678 1.32123 0.32071
 C3 C 0.34344 1.30869 0.34415
 C4 C 0.31784 1.32001 0.35437
 C5 C 0.30532 1.34386 0.34124
 C6 C 0.31907 1.35624 0.31772
 H7 H 0.37632 1.31196 0.31271
 H8 H 0.30818 1.31070 0.37310
 H9 H 0.30986 1.37488 0.30765
 C10 C 0.35556 0.85896 0.82265
 C11 C 0.32622 0.86221 0.82811
 C12 C 0.31313 0.85012 0.85207
 C13 C 0.32851 0.83036 0.86836
 C14 C 0.35692 0.82437 0.86174
 C15 C 0.37068 0.83973 0.84017
 H16 H 0.31269 0.87374 0.81355
 H17 H 0.31875 0.81999 0.88647
 H18 H 0.39309 0.83582 0.83707
 C19 C 0.85306 1.35415 0.81661
 C20 C 0.86416 1.32893 0.82792
 C21 C 0.85226 1.31700 0.85239
 C22 C 0.82936 1.33049 0.86582
 C23 C 0.81876 1.35662 0.85553
 C24 C 0.83063 1.36807 0.83052
 H25 H 0.88173 1.31832 0.81741
 H26 H 0.82060 1.32112 0.88496
 H27 H 0.82194 1.38738 0.82133
 C28 C 0.86148 0.86260 0.32474
 C29 C 0.83697 0.87495 0.33640
 C30 C 0.82435 0.86318 0.36071
 C31 C 0.83608 0.83861 0.37300
 C32 C 0.86064 0.82625 0.36154
 C33 C 0.87309 0.83812 0.33721
 H34 H 0.82784 0.89378 0.32667
 H35 H 0.82623 0.82929 0.39163
 H36 H 0.89193 0.82842 0.32813
 C37 C 0.63801 0.63634 0.32513
 C38 C 0.66306 0.62549 0.33753
 C39 C 0.67564 0.63903 0.36094
 C40 C 0.66418 0.66463 0.37100
 C41 C 0.64005 0.67648 0.35810
 C42 C 0.62673 0.66207 0.33562
 H43 H 0.67233 0.60589 0.32964
 H44 H 0.67418 0.67549 0.38872
 H45 H 0.60834 0.67164 0.32547
 C46 C 0.63774 0.13659 0.82659
 C47 C 0.62600 0.16196 0.83700
 C48 C 0.63777 0.17530 0.86090
 C49 C 0.66182 0.16354 0.87405
 C50 C 0.67350 0.13766 0.86440
 C51 C 0.66149 0.12465 0.84019
 H52 H 0.60773 0.17135 0.82648
 H53 H 0.67061 0.17397 0.89265
 H54 H 0.67092 0.10546 0.83152
 C55 C 1.15123 0.65128 0.81155
 C56 C 1.17584 0.64020 0.82423
 C57 C 1.18651 0.65218 0.84936
 C58 C 1.17194 0.67477 0.86228
 C59 C 1.14704 0.68569 0.84999
 C60 C 1.13696 0.67413 0.82438
 H61 H 1.18686 0.62250 0.81436
 H62 H 1.17993 0.68375 0.88197
 H63 H 1.11788 0.68269 0.81462
 C64 C 1.14193 0.14035 0.32242
 C65 C 1.16949 0.13292 0.33174
 C66 C 1.18209 0.14655 0.35527
 C67 C 1.16687 0.16814 0.36926
 C68 C 1.14021 0.17687 0.35934
 C69 C 1.12785 0.16303 0.33603
 H70 H 1.18052 0.11528 0.32176
 H71 H 1.17632 0.17915 0.38720
 H72 H 1.10761 0.17062 0.32797
 C73 C 0.64261 1.36039 0.67722
 C74 C 0.66879 1.37072 0.66738
 C75 C 0.68383 1.35629 0.64588
 C76 C 0.67139 1.33214 0.63329
 C77 C 0.64489 1.32218 0.64250
 C78 C 0.63090 1.33593 0.66487
 H79 H 0.67796 1.38937 0.67738
 H80 H 0.68197 1.32140 0.61584
 H81 H 0.61082 1.32768 0.67257
 C82 C 0.64819 0.85387 1.18364
 C83 C 0.67092 0.86774 1.17028
 C84 C 0.68244 0.85681 1.14503
 C85 C 0.67139 0.83162 1.13348
 C86 C 0.64883 0.81754 1.14688
 C87 C 0.63700 0.82897 1.17170
 H88 H 0.67971 0.88693 1.17958
 H89 H 0.68043 0.82289 1.11415
 H90 H 0.61950 0.81816 1.18208
 C91 C 1.13795 1.36361 1.17298
 C92 C 1.16267 1.37562 1.16108
 C93 C 1.17660 1.36266 1.13795
 C94 C 1.16661 1.33618 1.12819
 C95 C 1.14260 1.32349 1.14035
 C96 C 1.12810 1.33743 1.16232
 H97 H 1.17096 1.39536 1.16968
 H98 H 1.17706 1.32561 1.11056
 H99 H 1.10985 1.32718 1.17195
 C100 C 1.14572 0.85489 0.67982
 C101 C 1.16977 0.86775 0.66786
 C102 C 1.18345 0.85528 0.64446
 C103 C 1.17357 0.82920 0.63379
 C104 C 1.14991 0.81589 0.64611
 C105 C 1.13599 0.82888 0.66901
 H106 H 1.17751 0.88772 0.67640
 H107 H 1.18400 0.81947 0.61570
 H108 H 1.11752 0.81880 0.67839
 C109 C 0.34781 0.65032 0.68622
 C110 C 0.36040 0.67421 0.67369
 C111 C 0.34765 0.68734 0.65019
 C112 C 0.32258 0.67604 0.63875
 C113 C 0.30893 0.65288 0.65184
 C114 C 0.32177 0.64014 0.67575
 H115 H 0.38019 0.68250 0.68213
 H116 H 0.31310 0.68613 0.62027
 H117 H 0.31219 0.62156 0.68549
 C118 C 0.36324 0.13723 1.17345
 C119 C 0.37499 0.16161 1.16093
 C120 C 0.36284 0.17334 1.13629
 C121 C 0.33840 0.16083 1.12456
 C122 C 0.32655 0.13638 1.13692
 C123 C 0.33889 0.12485 1.16151
 H124 H 0.39370 0.17134 1.17025
 H125 H 0.32855 0.17018 1.10590
 H126 H 0.32957 0.10621 1.17136
 C127 C 0.85870 0.64077 1.17658
 C128 C 0.86897 0.66673 1.16572
 C129 C 0.85539 0.68014 1.14277
 C130 C 0.83171 0.66725 1.13006
 C131 C 0.82105 0.64160 1.14080
 C132 C 0.83409 0.62886 1.16438
 H133 H 0.88702 0.67706 1.17569
 H134 H 0.82145 0.67728 1.11199
 H135 H 0.82571 0.60893 1.17239
 C136 C 0.85005 0.14968 0.68452
 C137 C 0.86254 0.17342 0.67133
 C138 C 0.85342 0.18239 0.64442
 C139 C 0.83150 0.16781 0.63049
 C140 C 0.81905 0.14356 0.64286
 C141 C 0.82851 0.13483 0.66994
 H142 H 0.88006 0.18444 0.68152
 H143 H 0.82396 0.17566 0.61015
 H144 H 0.81907 0.11623 0.67977
 C145 C 1.35387 0.35521 0.68105
 C146 C 1.32953 0.36644 0.66800
 C147 C 1.31959 0.35498 0.64239
 C148 C 1.33475 0.33300 0.62910
 C149 C 1.35969 0.32192 0.64152
 C150 C 1.36868 0.33290 0.66792
 H151 H 1.31803 0.38371 0.67807
 H152 H 1.32649 0.32392 0.60957
 H153 H 1.38771 0.32463 0.67803
 C154 C 1.35171 0.85389 1.18349
 C155 C 1.32698 0.86513 1.17116
 C156 C 1.31422 0.85151 1.14793
 C157 C 1.32660 0.82679 1.13672
 C158 C 1.35035 0.81427 1.14997
 C159 C 1.36294 0.82821 1.17326
 H160 H 1.31763 0.88440 1.17973
 H161 H 1.31671 0.81650 1.11859
 H162 H 1.38200 0.81952 1.18296
 C163 C 0.86295 0.36450 1.17094
 C164 C 0.87585 0.34041 1.15899
 C165 C 0.86567 0.32864 1.13337
 C166 C 0.84132 0.34074 1.12067
 C167 C 0.82794 0.36451 1.13283
 C168 C 0.83878 0.37623 1.15801
 H169 H 0.89456 0.33152 1.16918
 H170 H 0.83226 0.33125 1.10170
 H171 H 0.82832 0.39439 1.16765
 C172 C 0.86056 0.86236 0.67414
 C173 C 0.87289 0.83768 0.66276
 C174 C 0.86142 0.82500 0.63829
 C175 C 0.83708 0.83675 0.62562
 C176 C 0.82459 0.86139 0.63688
 C177 C 0.83623 0.87395 0.66132
 H178 H 0.89153 0.82848 0.67277
 H179 H 0.82808 0.82695 0.60678
 H180 H 0.82636 0.89276 0.67034
 C181 C 0.65681 0.65644 0.69277
 C182 C 0.68117 0.64395 0.68090
 C183 C 0.69403 0.65604 0.65690
 C184 C 0.68210 0.68037 0.64439
 C185 C 0.65759 0.69276 0.65595
 C186 C 0.64492 0.68065 0.68001
 H187 H 0.69015 0.62492 0.69039
 H188 H 0.69169 0.68947 0.62552
 H189 H 0.62589 0.69016 0.68889
 C190 C 0.64324 1.14527 1.17947
 C191 C 0.62924 1.16681 1.16422
 C192 C 0.64109 1.17795 1.13906
 C193 C 0.66750 1.16729 1.12978
 C194 C 0.68125 1.14536 1.14460
 C195 C 0.66887 1.13412 1.16915
 H196 H 0.60978 1.17577 1.17275
 H197 H 0.67720 1.17556 1.11058
 H198 H 0.67959 1.11727 1.18073
 C199 C 0.14005 0.64098 1.17578
 C200 C 0.16774 0.63297 1.16790
 C201 C 0.18132 0.64588 1.14484
 C202 C 0.16760 0.66779 1.13000
 C203 C 0.13998 0.67661 1.13750
 C204 C 0.12635 0.66286 1.16044
 H205 H 0.17853 0.61595 1.17918
 H206 H 0.17826 0.67737 1.11195
 H207 H 0.10577 0.67041 1.16760
 C208 C 0.13961 1.14063 0.67471
 C209 C 0.16626 1.13077 0.66578
 C210 C 0.18047 1.14411 0.64332
 C211 C 0.16780 1.16733 0.62949
 C212 C 0.14067 1.17715 0.63759
 C213 C 0.12700 1.16384 0.66070
 H214 H 0.17612 1.11288 0.67653
 H215 H 0.17879 1.17709 0.61175
 H216 H 0.10690 1.17205 0.66847
 C217 C 1.36128 0.64024 0.32401
 C218 C 1.37366 0.66357 0.33785
 C219 C 1.36020 0.67645 0.36132
 C220 C 1.33340 0.66611 0.36985
 C221 C 1.32086 0.64283 0.35602
 C222 C 1.33498 0.62984 0.33326
 H223 H 1.39354 0.67203 0.32986
 H224 H 1.32249 0.67565 0.38777
 H225 H 1.32538 0.61181 0.32256
 C226 C 1.36122 1.14128 0.82372
 C227 C 1.37191 1.16714 0.83352
 C228 C 1.35759 1.18218 0.85487
 C229 C 1.33070 1.17235 0.86349
 C230 C 1.32191 1.14409 0.85783
 C231 C 1.33806 1.12868 0.83759
 H232 H 1.39083 1.17606 0.82386
 H233 H 1.31747 1.18655 0.87561
 H234 H 1.33248 1.10739 0.83115
 C235 C 0.85216 0.64890 0.81443
 C236 C 0.86535 0.67174 0.82832
 C237 C 0.85386 0.68272 0.85356
 C238 C 0.82859 0.67121 0.86436
 C239 C 0.81513 0.64855 0.85040
 C240 C 0.82723 0.63714 0.82567
 H241 H 0.88458 0.68090 0.81955
 H242 H 0.81942 0.67982 0.88368
 H243 H 0.81699 0.61950 0.81492
 C244 C 0.86148 1.13916 0.32457
 C245 C 0.87315 1.16354 0.33713
 C246 C 0.86090 1.17524 0.36165
 C247 C 0.83642 1.16280 0.37321
 C248 C 0.82453 1.13846 0.36071
 C249 C 0.83699 1.12682 0.33625
 H250 H 0.89188 1.17329 0.32794
 H251 H 0.82670 1.17197 0.39199
 H252 H 0.82777 1.10811 0.32642
 C253 C 0.63869 0.36175 0.32360
 C254 C 0.62807 0.33594 0.33446
 C255 C 0.64276 0.32097 0.35590
 C256 C 0.66716 0.33334 0.36801
 C257 C 0.67750 0.35943 0.35805
 C258 C 0.66392 0.37289 0.33519
 H259 H 0.60953 0.32635 0.32463
 H260 H 0.67785 0.32294 0.38563
 H261 H 0.67253 0.39272 0.32715
 C262 C 0.64597 0.85447 0.81696
 C263 C 0.66962 0.86753 0.82961
 C264 C 0.68049 0.85720 0.85540
 C265 C 0.66772 0.83370 0.86850
 C266 C 0.64375 0.82089 0.85628
 C267 C 0.63300 0.83127 0.83043
 H268 H 0.67951 0.88568 0.81942
 H269 H 0.67615 0.82569 0.88843
 H270 H 0.61465 0.82120 0.82076
 C271 C 0.15179 0.34924 0.81212
 C272 C 0.17269 0.36429 0.82744
 C273 C 0.18372 0.35352 0.85298
 C274 C 0.17347 0.32769 0.86372
 C275 C 0.15213 0.31278 0.84923
 C276 C 0.14123 0.32367 0.82365
 H277 H 0.18121 0.38400 0.81903
 H278 H 0.18208 0.31919 0.88337
 H279 H 0.12419 0.31237 0.81298
 C280 C 0.13501 0.86598 0.32807
 C281 C 0.16049 0.87690 0.33946
 C282 C 0.17300 0.86462 0.36363
 C283 C 0.16090 0.84021 0.37566
 C284 C 0.13595 0.82862 0.36425
 C285 C 0.12308 0.84151 0.34059
 H286 H 0.17020 0.89563 0.33017
 H287 H 0.17079 0.83034 0.39402
 H288 H 0.10431 0.83180 0.33135
 O289 O 0.97006 0.89938 0.85684
 O290 O 0.96937 0.86625 0.82362
 C291 C 0.96004 0.88953 0.83378
 C292 C 0.93690 0.90503 0.81902
 C293 C 0.92706 0.89583 0.79238
 H294 H 0.93696 0.87777 0.78201
 O295 O 1.02661 1.10351 0.85663
 O296 O 1.02652 1.13707 0.82382
 C297 C 1.03588 1.11355 0.83333
 C298 C 1.05842 1.09811 0.81774
 C299 C 1.06811 1.10785 0.79122
 H300 H 1.05842 1.12632 0.78134
 O301 O 0.85759 0.97436 0.89723
 O302 O 0.82400 0.97448 0.86446
 C303 C 0.83441 0.96461 0.88740
 C304 C 0.81987 0.94104 0.90239
 C305 C 0.79377 0.93052 0.89235
 H306 H 0.78358 0.94018 0.87405
 O307 O 1.13843 1.02805 0.89402
 O308 O 1.17158 1.02850 0.86093
 C309 C 1.16116 1.03839 0.88383
 C310 C 1.17551 1.06210 0.89887
 C311 C 1.19911 1.07598 0.88680
 H312 H 1.20495 1.07047 0.86532
 O313 O 0.89711 0.85977 0.97196
 O314 O 0.86374 0.82685 0.97215
 C315 C 0.88681 0.83676 0.96224
 C316 C 0.90137 0.82193 0.93860
 C317 C 0.89115 0.79577 0.92841
 H318 H 0.87309 0.78567 0.93851
 O319 O 1.10420 1.13952 0.97217
 O320 O 1.13819 1.17179 0.97161
 C321 C 1.11496 1.16206 0.96183
 C322 C 1.10088 1.17654 0.93756
 C323 C 1.11332 1.20073 0.92520
 H324 H 1.13245 1.20982 0.93429
 O325 O 0.89561 1.03067 0.85868
 O326 O 0.86190 1.03124 0.82604
 C327 C 0.88498 1.04106 0.83611
 C328 C 0.89910 1.06543 0.82203
 C329 C 0.88666 1.07842 0.79818
 H330 H 0.86702 1.07010 0.78944
 O331 O 1.09989 0.97253 0.85501
 O332 O 1.13298 0.97257 0.82182
 C333 C 1.10987 0.96288 0.83186
 C334 C 1.09492 0.93949 0.81709
 C335 C 1.10526 0.92873 0.79128
 H336 H 1.12367 0.93831 0.78132
 O337 O 1.02573 0.86010 0.89517
 O338 O 1.02519 0.82675 0.86216
 C339 C 1.03529 0.83692 0.88511
 C340 C 1.05893 0.82214 0.89983
 C341 C 1.06993 0.79656 0.88899
 H342 H 1.06066 0.78699 0.87018
 O343 O 0.97286 1.14279 0.89761
 O344 O 0.97304 1.17660 0.86509
 C345 C 0.96317 1.16611 0.88794
 C346 C 0.93919 1.18040 0.90256
 C347 C 0.92707 1.20514 0.89094
 H348 H 0.93613 1.21481 0.87209
 O349 O 0.85784 1.10383 0.97350
 O350 O 0.82451 1.13688 0.97405
 C351 C 0.83440 1.11369 0.96429
 C352 C 0.81899 1.09843 0.94142
 C353 C 0.79174 1.10723 0.93282
 H354 H 0.78121 1.12451 0.94387
 O355 O 1.13965 0.89794 0.97057
 O356 O 1.17276 0.86467 0.97031
 C357 C 1.16252 0.88769 0.96045
 C358 C 1.17645 0.90165 0.93587
 C359 C 1.20038 0.88903 0.92321
 H360 H 1.21036 0.87075 0.93315
 O361 O 0.97132 1.10449 0.85829
 O362 O 0.97120 1.13826 0.82571
 C363 C 0.96115 1.11523 0.83566
 C364 C 0.93662 1.10143 0.82152
 C365 C 0.92424 1.11365 0.79721
 H366 H 0.93375 1.13225 0.78749
 O367 O 1.02544 0.89814 0.85547
 O368 O 1.02483 0.86493 0.82234
 C369 C 1.03485 0.88795 0.83228
 C370 C 1.05825 0.90268 0.81730
 C371 C 1.06901 0.89206 0.79153
 H372 H 1.05969 0.87332 0.78188
 O373 O 1.13865 0.97195 0.89393
 O374 O 1.17184 0.97200 0.86089
 C375 C 1.16146 0.96178 0.88365
 C376 C 1.17541 0.93712 0.89775
 C377 C 1.19846 0.92321 0.88471
 H378 H 1.20648 0.93092 0.86454
 O379 O 0.85704 1.02983 0.89763
 O380 O 0.82321 1.03000 0.86510
 C381 C 0.83366 1.03954 0.88813
 C382 C 0.81887 1.06252 0.90380
 C383 C 0.79199 1.07215 0.89500
 H384 H 0.78180 1.06266 0.87663
 O385 O 0.89748 1.14213 0.97251
 O386 O 0.86426 1.17528 0.97250
 C387 C 0.88724 1.16508 0.96256
 C388 C 0.90174 1.17961 0.93868
 C389 C 0.88989 1.20425 0.92655
 H390 H 0.87054 1.21334 0.93515
 O391 O 1.10055 0.85929 0.97052
 O392 O 1.13365 0.82601 0.97008
 C393 C 1.11055 0.83627 0.96046
 C394 C 1.09567 0.82181 0.93673
 C395 C 1.10627 0.79618 0.92561
 H396 H 1.12481 0.78622 0.93505
 O397 O 1.09993 1.02774 0.85493
 O398 O 1.13296 1.02784 0.82168
 C399 C 1.10984 1.03747 0.83177
 C400 C 1.09472 1.06085 0.81703
 C401 C 1.10421 1.07093 0.79060
 H402 H 1.12217 1.06094 0.78019
 O403 O 0.89568 0.97499 0.85749
 O404 O 0.86230 0.97539 0.82452
 C405 C 0.88551 0.96554 0.83431
 C406 C 0.90047 0.94227 0.81915
 C407 C 0.89087 0.93267 0.79250
 H408 H 0.87282 0.94280 0.78232
 O409 O 1.02872 1.14118 0.89679
 O410 O 1.02898 1.17479 0.86406
 C411 C 1.03913 1.16396 0.88669
 C412 C 1.06397 1.17738 0.90078
 C413 C 1.07704 1.20130 0.88856
 H414 H 1.06843 1.21063 0.86930
 O415 O 0.97030 0.85994 0.89537
 O416 O 0.96962 0.82662 0.86236
 C417 C 0.96034 0.83681 0.88558
 C418 C 0.93728 0.82203 0.90103
 C419 C 0.92671 0.79590 0.89115
 H420 H 0.93588 0.78597 0.87249
 O421 O 1.14163 1.09894 0.97366
 O422 O 1.17570 1.13115 0.97328
 C423 C 1.16510 1.10806 0.96400
 C424 C 1.17913 1.09310 0.94012
 C425 C 1.20554 1.10252 0.93024
 H426 H 1.21829 1.11529 0.94441
 O427 O 0.85838 0.89896 0.97216
 O428 O 0.82492 0.86612 0.97235
 C429 C 0.83514 0.88911 0.96251
 C430 C 0.82028 0.90408 0.93906
 C431 C 0.79429 0.89377 0.92855
 H432 H 0.78443 0.87527 0.93811
 Cu433 Cu 0.99793 0.88272 0.87901
 Cu434 Cu 0.99712 0.84276 0.83931
 Cu435 Cu 0.99994 1.11968 0.88065
 Cu436 Cu 0.99999 1.16018 0.84151
 Cu437 Cu 0.87988 1.00238 0.88099
 Cu438 Cu 0.83952 1.00275 0.84168
 Cu439 Cu 1.11602 1.00007 0.87789
 Cu440 Cu 1.15586 1.00024 0.83815
 C441 C 0.92369 0.92847 0.83207
 H442 H 0.93095 0.93545 0.85280
 C443 C 0.90429 0.90968 0.77896
 C444 C 1.07161 1.07436 0.83024
 H445 H 1.06451 1.06700 0.85087
 C446 C 1.09085 1.09422 0.77756
 C447 C 0.83279 0.92788 0.92598
 H448 H 0.85307 0.93565 0.93364
 C449 C 0.78095 0.90700 0.90539
 C450 C 1.16483 1.07186 0.92496
 H451 H 1.14507 1.06339 0.93317
 C452 C 1.21465 1.09665 0.90227
 C453 C 0.92466 0.83472 0.92496
 H454 H 0.93241 0.85510 0.93244
 C455 C 0.90388 0.78260 0.90490
 C456 C 1.07604 1.16516 0.92533
 H457 H 1.06652 1.14630 0.93449
 C458 C 1.10189 1.21277 0.90039
 C459 C 0.92409 1.07710 0.83355
 H460 H 0.93338 1.06768 0.85243
 C461 C 0.89890 1.10269 0.78588
 C462 C 1.07118 0.92658 0.82972
 H463 H 1.06333 0.93458 0.84984
 C464 C 1.09232 0.90517 0.77836
 C465 C 1.07179 0.83446 0.92388
 H466 H 1.06373 0.85444 0.93209
 C467 C 1.09340 0.78343 0.90193
 C468 C 0.92654 1.16794 0.92663
 H469 H 0.93545 1.14858 0.93544
 C470 C 0.90238 1.21686 0.90268
 C471 C 0.83212 1.07572 0.92712
 H472 H 0.85315 1.06885 0.93360
 C473 C 0.77797 1.09398 0.90984
 C474 C 1.16440 0.92597 0.92323
 H475 H 1.14590 0.93578 0.93283
 C476 C 1.21086 0.89891 0.89709
 O477 O 1.02841 0.89610 1.14197
 O478 O 1.02846 0.86275 1.17498
 C479 C 1.03807 0.88599 1.16511
 C480 C 1.06080 0.90147 1.18043
 C481 C 1.06984 0.89272 1.20757
 H482 H 1.06030 0.87424 1.21748
 O483 O 0.97368 1.10468 1.14158
 O484 O 0.97377 1.13800 1.17459
 C485 C 0.96408 1.11478 1.16470
 C486 C 0.94110 1.09951 1.17986
 C487 C 0.93149 1.10897 1.20652
 H488 H 0.94128 1.12724 1.21659
 O489 O 0.86044 1.02906 1.10430
 O490 O 0.82756 1.02911 1.13768
 C491 C 0.83752 1.03897 1.11460
 C492 C 0.82287 1.06282 1.10009
 C493 C 0.79782 1.07443 1.11150
 H494 H 0.78845 1.06532 1.13047
 O495 O 1.13969 0.97138 1.10329
 O496 O 1.17289 0.97056 1.13645
 C497 C 1.16257 0.96108 1.11330
 C498 C 1.17685 0.93730 1.09830
 C499 C 1.20163 0.92504 1.10965
 H500 H 1.21096 0.93346 1.12898
 O501 O 1.10115 0.85824 1.02605
 O502 O 1.13417 0.82489 1.02549
 C503 C 1.11114 0.83488 1.03541
 C504 C 1.09627 0.81969 1.05865
 C505 C 1.10563 0.79279 1.06778
 H506 H 1.12315 0.78239 1.05701
 O507 O 0.89792 1.14304 1.02809
 O508 O 0.86511 1.17660 1.02811
 C509 C 0.88826 1.16641 1.03766
 C510 C 0.90391 1.18157 1.06044
 C511 C 0.89521 1.20871 1.06947
 H512 H 0.87690 1.21879 1.05971
 O513 O 0.89946 0.97316 1.14280
 O514 O 0.86664 0.97317 1.17625
 C515 C 0.88963 0.96340 1.16599
 C516 C 0.90469 0.93995 1.18070
 C517 C 0.89551 0.93036 1.20743
 H518 H 0.87777 0.94066 1.21795
 O519 O 1.10209 1.02771 1.14233
 O520 O 1.13537 1.02736 1.17542
 C521 C 1.11236 1.03742 1.16535
 C522 C 1.09776 1.06114 1.18008
 C523 C 1.10733 1.07066 1.20671
 H524 H 1.12484 1.05992 1.21720
 O525 O 0.97247 0.85823 1.10276
 O526 O 0.97232 0.82472 1.13560
 C527 C 0.96246 0.83519 1.11269
 C528 C 0.93850 0.82103 1.09792
 C529 C 0.92669 0.79590 1.10895
 H530 H 0.93570 0.78612 1.12779
 O531 O 1.02926 1.14295 1.10241
 O532 O 1.02972 1.17636 1.13535
 C533 C 1.03933 1.16598 1.11232
 C534 C 1.06304 1.18022 1.09734
 C535 C 1.07445 1.20579 1.10775
 H536 H 1.06525 1.21591 1.12629
 O537 O 0.85913 0.89916 1.02778
 O538 O 0.82557 0.86643 1.02792
 C539 C 0.83602 0.88938 1.03769
 C540 C 0.82165 0.90434 1.06138
 C541 C 0.79558 0.89437 1.07190
 H542 H 0.78527 0.87627 1.06202
 O543 O 1.14215 1.10113 1.02896
 O544 O 1.17611 1.13347 1.02842
 C545 C 1.16556 1.11075 1.03847
 C546 C 1.18034 1.09560 1.06177
 C547 C 1.20725 1.10453 1.07111
 H548 H 1.21769 1.12238 1.06094
 O549 O 1.02910 1.10448 1.14166
 O550 O 1.02936 1.13769 1.17479
 C551 C 1.03894 1.11447 1.16476
 C552 C 1.06210 1.09909 1.17969
 C553 C 1.07232 1.10861 1.20613
 H554 H 1.06307 1.12726 1.21605
 O555 O 0.97317 0.89688 1.14184
 O556 O 0.97308 0.86357 1.17490
 C557 C 0.96358 0.88691 1.16501
 C558 C 0.94075 0.90238 1.18017
 C559 C 0.93118 0.89305 1.20686
 H560 H 0.94100 0.87479 1.21700
 O561 O 1.14153 1.02682 1.10406
 O562 O 1.17501 1.02614 1.13695
 C563 C 1.16496 1.03603 1.11390
 C564 C 1.18016 1.05894 1.09863
 C565 C 1.20712 1.06813 1.10768
 H566 H 1.21750 1.05787 1.12554
 O567 O 0.86049 0.97351 1.10378
 O568 O 0.82752 0.97347 1.13707
 C569 C 0.83741 0.96382 1.11384
 C570 C 0.82236 0.94064 1.09871
 C571 C 0.79631 0.93026 1.10893
 H572 H 0.78663 0.93964 1.12761
 O573 O 1.10375 1.14072 1.02786
 O574 O 1.13763 1.17311 1.02736
 C575 C 1.11430 1.16377 1.03723
 C576 C 1.09974 1.17921 1.06052
 C577 C 1.11081 1.20483 1.07122
 H578 H 1.12949 1.21429 1.06164
 O579 O 0.89741 0.85953 1.02753
 O580 O 0.86391 0.82674 1.02770
 C581 C 0.88714 0.83656 1.03737
 C582 C 0.90177 0.82167 1.06100
 C583 C 0.89043 0.79644 1.07226
 H584 H 0.87165 0.78696 1.06284
 O585 O 1.10172 0.97220 1.14312
 O586 O 1.13477 0.97186 1.17644
 C587 C 1.11152 0.96251 1.16638
 C588 C 1.09615 0.93951 1.18134
 C589 C 1.10430 0.93104 1.20879
 H590 H 1.12111 0.94235 1.21978
 O591 O 0.89981 1.02874 1.14271
 O592 O 0.86705 1.02874 1.17621
 C593 C 0.89003 1.03848 1.16592
 C594 C 0.90510 1.06195 1.18056
 C595 C 0.89589 1.07166 1.20724
 H596 H 0.87818 1.06140 1.21779
 O597 O 0.97385 1.14351 1.10235
 O598 O 0.97415 1.17712 1.13508
 C599 C 0.96443 1.16694 1.11199
 C600 C 0.94147 1.18203 1.09648
 C601 C 0.93296 1.20950 1.10465
 H602 H 0.94404 1.22035 1.12171
 O603 O 1.02796 0.85782 1.10237
 O604 O 1.02805 0.82420 1.13509
 C605 C 1.03762 0.83450 1.11202
 C606 C 1.06058 0.81964 1.09642
 C607 C 1.07057 0.79297 1.10554
 H608 H 1.06127 0.78285 1.12402
 O609 O 1.13962 0.89772 1.02642
 O610 O 1.17268 0.86441 1.02613
 C611 C 1.16258 0.88737 1.03625
 C612 C 1.17702 0.90150 1.06046
 C613 C 1.20188 0.88969 1.07211
 H614 H 1.21145 0.87098 1.06261
 O615 O 0.85942 1.10379 1.02897
 O616 O 0.82647 1.13722 1.02952
 C617 C 0.83666 1.11409 1.03919
 C618 C 0.82244 1.09952 1.06319
 C619 C 0.79733 1.11069 1.07483
 H620 H 0.78747 1.12935 1.06552
 Cu621 Cu 1.00056 0.88057 1.11892
 Cu622 Cu 1.00050 0.84037 1.15839
 Cu623 Cu 1.00140 1.12058 1.11871
 Cu624 Cu 1.00170 1.16067 1.15826
 Cu625 Cu 0.88136 0.88265 0.99983
 Cu626 Cu 0.84117 0.84325 1.00005
 Cu627 Cu 1.11697 0.88167 0.99848
 Cu628 Cu 1.15671 0.84175 0.99800
 Cu629 Cu 0.88147 1.11987 1.00072
 Cu630 Cu 0.84178 1.15986 1.00106
 Cu631 Cu 1.11948 1.11690 1.00078
 Cu632 Cu 1.16026 1.15568 1.00007
 Cu633 Cu 0.88335 1.00108 1.12006
 Cu634 Cu 0.84387 1.00108 1.16014
 Cu635 Cu 1.11792 0.99960 1.11990
 Cu636 Cu 1.15787 0.99891 1.15963
 C637 C 1.07403 0.92495 1.16758
 H638 H 1.06765 0.93141 1.14640
 C639 C 1.09108 0.90785 1.22217
 C640 C 0.92793 1.07582 1.16720
 H641 H 0.93493 1.06865 1.14647
 C642 C 0.90914 1.09493 1.22036
 C643 C 0.83491 1.07541 1.07581
 H644 H 0.85452 1.06693 1.06721
 C645 C 0.78524 1.09849 1.09917
 C646 C 1.16479 0.92549 1.07356
 H647 H 1.14535 0.93444 1.06500
 C648 C 1.21393 0.90111 1.09686
 C649 C 1.07345 0.83271 1.07284
 H650 H 1.06624 0.85353 1.06602
 C651 C 1.09272 0.77920 1.09101
 C652 C 0.92714 1.16848 1.07400
 H653 H 0.93357 1.14729 1.06759
 C654 C 0.91006 1.22311 1.09104
 C655 C 0.92754 0.92602 1.16740
 H656 H 0.93452 0.93309 1.14663
 C657 C 0.90881 0.90713 1.22063
 C658 C 1.07488 1.07523 1.16695
 H659 H 1.06749 1.06806 1.14634
 C660 C 1.09457 1.09418 1.21996
 C661 C 0.92600 0.83364 1.07381
 H662 H 0.93460 0.85334 1.06553
 C663 C 0.90251 0.78380 1.09642
 C664 C 1.07567 1.16726 1.07356
 H665 H 1.06730 1.14727 1.06575
 C666 C 1.09841 1.21798 1.09496
 C667 C 0.83472 0.92770 1.07473
 H668 H 0.85503 0.93527 1.06699
 C669 C 0.78278 0.90734 1.09546
 C670 C 1.16711 1.07263 1.07547
 H671 H 1.14620 1.06587 1.06857
 C672 C 1.22085 1.09067 1.09377
 O673 O 0.97090 0.39774 0.35587
 O674 O 0.97041 0.36458 0.32268
 C675 C 0.96099 0.38784 0.33277
 C676 C 0.93787 0.40331 0.31796
 C677 C 0.92832 0.39447 0.29108
 H678 H 0.93843 0.37664 0.28051
 O679 O 1.02674 0.60498 0.35646
 O680 O 1.02648 0.63831 0.32345
 C681 C 1.03622 0.61506 0.33328
 C682 C 1.05928 0.59984 0.31812
 C683 C 1.06920 0.60953 0.29165
 H684 H 1.05952 0.62792 0.28162
 O685 O 0.85834 0.47327 0.39600
 O686 O 0.82481 0.47365 0.36317
 C687 C 0.83507 0.46373 0.38615
 C688 C 0.82028 0.44036 0.40123
 C689 C 0.79394 0.43019 0.39144
 H690 H 0.78373 0.43997 0.37322
 O691 O 1.13996 0.52745 0.39391
 O692 O 1.17283 0.52729 0.36054
 C693 C 1.16310 0.53698 0.38380
 C694 C 1.17819 0.56032 0.39869
 C695 C 1.20359 0.57145 0.38762
 H696 H 1.21314 0.56206 0.36888
 O697 O 0.89712 0.35932 0.47117
 O698 O 0.86388 0.32625 0.47127
 C699 C 0.88698 0.33622 0.46149
 C700 C 0.90186 0.32120 0.43816
 C701 C 0.89256 0.29434 0.42900
 H702 H 0.87492 0.28397 0.43956
 O703 O 1.10304 0.64173 0.46985
 O704 O 1.13640 0.67466 0.46981
 C705 C 1.11308 0.66493 0.46029
 C706 C 1.09773 0.68036 0.43750
 C707 C 1.10682 0.70736 0.42851
 H708 H 1.12484 0.71750 0.43871
 O709 O 0.89740 0.52871 0.35716
 O710 O 0.86405 0.52917 0.32414
 C711 C 0.88735 0.53859 0.33410
 C712 C 0.90247 0.56188 0.31924
 C713 C 0.89354 0.57098 0.29222
 H714 H 0.87652 0.55982 0.28142
 O715 O 1.09951 0.47338 0.35437
 O716 O 1.13209 0.47349 0.32068
 C717 C 1.10899 0.46396 0.33089
 C718 C 1.09361 0.44090 0.31593
 C719 C 1.10222 0.43201 0.28879
 H720 H 1.11911 0.44327 0.27794
 O721 O 1.02613 0.35850 0.39475
 O722 O 1.02580 0.32504 0.36186
 C723 C 1.03555 0.33514 0.38497
 C724 C 1.05852 0.32003 0.40035
 C725 C 1.06802 0.29323 0.39114
 H726 H 1.05804 0.28291 0.37310
 O727 O 0.97205 0.64379 0.39646
 O728 O 0.97159 0.67734 0.36366
 C729 C 0.96222 0.66705 0.38680
 C730 C 0.93912 0.68175 0.40232
 C731 C 0.92927 0.70852 0.39335
 H732 H 0.93911 0.71910 0.37541
 O733 O 0.85913 0.60342 0.47219
 O734 O 0.82575 0.63641 0.47259
 C735 C 0.83587 0.61336 0.46269
 C736 C 0.82089 0.59833 0.43939
 C737 C 0.79418 0.60781 0.42990
 H738 H 0.78387 0.62569 0.44018
 O739 O 1.14013 0.39716 0.46887
 O740 O 1.17307 0.36373 0.46827
 C741 C 1.16280 0.38678 0.45849
 C742 C 1.17651 0.40076 0.43382
 C743 C 1.20001 0.38797 0.42056
 H744 H 1.20960 0.36908 0.42971
 O745 O 0.97129 0.60499 0.35759
 O746 O 0.97081 0.63829 0.32453
 C747 C 0.96118 0.61515 0.33468
 C748 C 0.93785 0.59996 0.31995
 C749 C 0.92766 0.60957 0.29356
 H750 H 0.93656 0.62858 0.28405
 O751 O 1.02628 0.39708 0.35539
 O752 O 1.02599 0.36390 0.32223
 C753 C 1.03578 0.38706 0.33217
 C754 C 1.05857 0.40253 0.31691
 C755 C 1.06827 0.39324 0.29019
 H756 H 1.05927 0.37430 0.28062
 O757 O 1.13867 0.47170 0.39302
 O758 O 1.17128 0.47141 0.35937
 C759 C 1.16120 0.46132 0.38232
 C760 C 1.17525 0.43666 0.39613
 C761 C 1.19810 0.42287 0.38270
 H762 H 1.20596 0.43069 0.36251
 O763 O 0.85866 0.52880 0.39634
 O764 O 0.82510 0.52928 0.36354
 C765 C 0.83545 0.53872 0.38667
 C766 C 0.82071 0.56187 0.40219
 C767 C 0.79396 0.57163 0.39311
 H768 H 0.78352 0.56179 0.37506
 O769 O 0.89774 0.64272 0.47188
 O770 O 0.86450 0.67588 0.47217
 C771 C 0.88759 0.66591 0.46234
 C772 C 0.90251 0.68108 0.43918
 C773 C 0.89292 0.70782 0.42985
 H774 H 0.87492 0.71794 0.44008
 O775 O 1.10122 0.35828 0.46980
 O776 O 1.13413 0.32480 0.46941
 C777 C 1.11090 0.33500 0.46005
 C778 C 1.09540 0.32005 0.43709
 C779 C 1.10469 0.29335 0.42745
 H780 H 1.12282 0.28307 0.43734
 O781 O 1.10054 0.52888 0.35535
 O782 O 1.13333 0.52886 0.32187
 C783 C 1.11046 0.53880 0.33227
 C784 C 1.09562 0.56253 0.31775
 C785 C 1.10519 0.57251 0.29132
 H786 H 1.12306 0.56232 0.28093
 O787 O 0.89668 0.47320 0.35658
 O788 O 0.86333 0.47364 0.32357
 C789 C 0.88645 0.46370 0.33343
 C790 C 0.90136 0.44044 0.31828
 C791 C 0.89206 0.43124 0.29141
 H792 H 0.87414 0.44155 0.28117
 O793 O 1.02740 0.64347 0.39584
 O794 O 1.02710 0.67708 0.36310
 C795 C 1.03702 0.66672 0.38603
 C796 C 1.06042 0.68134 0.40121
 C797 C 1.06972 0.70840 0.39262
 H798 H 1.05931 0.71926 0.37513
 O799 O 0.97084 0.35892 0.39486
 O800 O 0.97033 0.32547 0.36196
 C801 C 0.96094 0.33575 0.38513
 C802 C 0.93794 0.32098 0.40073
 C803 C 0.92829 0.29413 0.39187
 H804 H 0.93802 0.28367 0.37379
 O805 O 1.14144 0.60196 0.46949
 O806 O 1.17490 0.63478 0.46930
 C807 C 1.16449 0.61182 0.45953
 C808 C 1.17877 0.59701 0.43566
 C809 C 1.20406 0.60788 0.42414
 H810 H 1.21390 0.62657 0.43337
 O811 O 0.85836 0.39848 0.47127
 O812 O 0.82498 0.36557 0.47135
 C813 C 0.83518 0.38859 0.46155
 C814 C 0.82039 0.40360 0.43811
 C815 C 0.79411 0.39371 0.42793
 H816 H 0.78397 0.37552 0.43781
 Cu817 Cu 0.99861 0.38140 0.37849
 Cu818 Cu 0.99810 0.34139 0.33885
 Cu819 Cu 0.99945 0.62096 0.37986
 Cu820 Cu 0.99896 0.66111 0.34034
 Cu821 Cu 0.88111 0.50095 0.37980
 Cu822 Cu 0.84095 0.50153 0.34031
 Cu823 Cu 1.11643 0.50040 0.37756
 Cu824 Cu 1.15574 0.50028 0.33733
 C825 C 0.92445 0.42651 0.33122
 H826 H 0.93151 0.43325 0.35210
 C827 C 0.90569 0.40854 0.27762
 C828 C 1.07247 0.57615 0.33084
 H829 H 1.06522 0.56877 0.35140
 C830 C 1.09197 0.59579 0.27810
 C831 C 0.83317 0.42710 0.42477
 H832 H 0.85364 0.43457 0.43223
 C833 C 0.78078 0.40703 0.40483
 C834 C 1.16612 0.57308 0.42291
 H835 H 1.14629 0.56495 0.43129
 C836 C 1.21632 0.59542 0.40001
 C837 C 0.92476 0.33421 0.42408
 H838 H 0.93182 0.35508 0.43083
 C839 C 0.90586 0.28064 0.40612
 C840 C 1.07437 0.66766 0.42388
 H841 H 1.06750 0.64668 0.43045
 C842 C 1.09273 0.72153 0.40635
 C843 C 0.92509 0.57609 0.33262
 H844 H 0.93223 0.56905 0.35338
 C845 C 0.90616 0.59468 0.27910
 C846 C 1.07137 0.42642 0.32953
 H847 H 1.06461 0.43324 0.35046
 C848 C 1.08963 0.40829 0.27567
 C849 C 1.07211 0.33309 0.42359
 H850 H 1.06515 0.35392 0.43060
 C851 C 1.09098 0.27986 0.40470
 C852 C 0.92580 0.66836 0.42546
 H853 H 0.93304 0.64756 0.43230
 C854 C 0.90638 0.72167 0.40719
 C855 C 0.83386 0.57516 0.42555
 H856 H 0.85464 0.56799 0.43248
 C857 C 0.78058 0.59438 0.40702
 C858 C 1.16452 0.42537 0.42166
 H859 H 1.14626 0.43525 0.43161
 C860 C 1.21022 0.39825 0.39450
 O861 O 1.02869 0.39636 0.64050
 O862 O 1.02893 0.36283 0.67332
 C863 C 1.03875 0.38595 0.66333
 C864 C 1.06298 0.40016 0.67758
 C865 C 1.07553 0.38802 0.70185
 H866 H 1.06636 0.36918 0.71143
 O867 O 0.97392 0.60331 0.64058
 O868 O 0.97430 0.63658 0.67365
 C869 C 0.96428 0.61358 0.66362
 C870 C 0.94046 0.59917 0.67827
 C871 C 0.92826 0.61120 0.70274
 H872 H 0.93698 0.63051 0.71183
 O873 O 0.86050 0.52837 0.60278
 O874 O 0.82762 0.52842 0.63617
 C875 C 0.83768 0.53839 0.61318
 C876 C 0.82342 0.56279 0.59923
 C877 C 0.80005 0.57599 0.61233
 H878 H 0.79147 0.56753 0.63196
 O879 O 1.14212 0.47122 0.60017
 O880 O 1.17580 0.47108 0.63286
 C881 C 1.16538 0.46142 0.60986
 C882 C 1.17985 0.43784 0.59479
 C883 C 1.20500 0.42600 0.60578
 H884 H 1.21465 0.43480 0.62478
 O885 O 1.10228 0.35834 0.52527
 O886 O 1.13526 0.32493 0.52475
 C887 C 1.11233 0.33510 0.53480
 C888 C 1.09760 0.32016 0.55828
 C889 C 1.10722 0.29347 0.56777
 H890 H 1.12489 0.28313 0.55720
 O891 O 0.89848 0.64254 0.52729
 O892 O 0.86542 0.67587 0.52754
 C893 C 0.88862 0.66573 0.53706
 C894 C 0.90394 0.68057 0.56025
 C895 C 0.89442 0.70706 0.57030
 H896 H 0.87627 0.71736 0.56047
 O897 O 0.89944 0.47244 0.64144
 O898 O 0.86650 0.47259 0.67477
 C899 C 0.88940 0.46263 0.66451
 C900 C 0.90379 0.43858 0.67890
 C901 C 0.89212 0.42673 0.70366
 H902 H 0.87336 0.43606 0.71324
 O903 O 1.10356 0.52651 0.63987
 O904 O 1.13711 0.52635 0.67268
 C905 C 1.11405 0.53639 0.66274
 C906 C 1.10002 0.56068 0.67713
 C907 C 1.11259 0.57327 0.70116
 H908 H 1.13188 0.56442 0.71020
 O909 O 0.97276 0.35803 0.60152
 O910 O 0.97285 0.32442 0.63425
 C911 C 0.96294 0.33487 0.61136
 C912 C 0.93914 0.32049 0.59649
 C913 C 0.92819 0.29466 0.60679
 H914 H 0.93769 0.28453 0.62520
 O915 O 1.02950 0.64163 0.60129
 O916 O 1.03011 0.67482 0.63445
 C917 C 1.03970 0.66454 0.61139
 C918 C 1.06367 0.67871 0.59678
 C919 C 1.07630 0.70305 0.60864
 H920 H 1.06778 0.71237 0.62791
 O921 O 0.85866 0.39845 0.52688
 O922 O 0.82532 0.36549 0.52701
 C923 C 0.83566 0.38844 0.53685
 C924 C 0.82157 0.40294 0.56099
 C925 C 0.79683 0.39147 0.57312
 H926 H 0.78680 0.37299 0.56367
 O927 O 1.14162 0.60209 0.52531
 O928 O 1.17506 0.63495 0.52517
 C929 C 1.16456 0.61223 0.53536
 C930 C 1.17843 0.59832 0.56001
 C931 C 1.20133 0.61168 0.57377
 H932 H 1.20958 0.63163 0.56570
 O933 O 1.02947 0.60258 0.63998
 O934 O 1.02998 0.63575 0.67317
 C935 C 1.03962 0.61265 0.66291
 C936 C 1.06367 0.59802 0.67712
 C937 C 1.07658 0.61021 0.70112
 H938 H 1.06815 0.62965 0.71025
 O939 O 0.97322 0.39655 0.64085
 O940 O 0.97324 0.36307 0.67372
 C941 C 0.96349 0.38630 0.66385
 C942 C 0.93990 0.40106 0.67857
 C943 C 0.92780 0.38945 0.70330
 H944 H 0.93640 0.37011 0.71249
 O945 O 1.14188 0.52681 0.60057
 O946 O 1.17541 0.52670 0.63341
 C947 C 1.16491 0.53676 0.61061
 C948 C 1.17884 0.56123 0.59652
 C949 C 1.20223 0.57456 0.60947
 H950 H 1.21144 0.56573 0.62869
 O951 O 0.86036 0.47265 0.60264
 O952 O 0.82745 0.47273 0.63599
 C953 C 0.83741 0.46284 0.61291
 C954 C 0.82272 0.43903 0.59846
 C955 C 0.79836 0.42683 0.61060
 H956 H 0.78969 0.43539 0.63015
 O957 O 1.10335 0.64132 0.52534
 O958 O 1.13685 0.67414 0.52523
 C959 C 1.11386 0.66416 0.53526
 C960 C 1.09991 0.67855 0.55951
 C961 C 1.11220 0.70289 0.57173
 H962 H 1.13119 0.71215 0.56260
 O963 O 0.89731 0.35921 0.52671
 O964 O 0.86401 0.32620 0.52676
 C965 C 0.88718 0.33614 0.53648
 C966 C 0.90206 0.32119 0.55992
 C967 C 0.89144 0.29538 0.57058
 H968 H 0.87282 0.28571 0.56105
 O969 O 1.10386 0.47069 0.63972
 O970 O 1.13751 0.47049 0.67243
 C971 C 1.11441 0.46060 0.66249
 C972 C 1.10026 0.43642 0.67693
 C973 C 1.11281 0.42358 0.70085
 H974 H 1.13246 0.43196 0.70950
 O975 O 0.89959 0.52809 0.64146
 O976 O 0.86666 0.52817 0.67480
 C977 C 0.88958 0.53800 0.66451
 C978 C 0.90404 0.56206 0.67878
 C979 C 0.89223 0.57437 0.70328
 H980 H 0.87320 0.56547 0.71271
 O981 O 0.97395 0.64223 0.60160
 O982 O 0.97455 0.67559 0.63458
 C983 C 0.96451 0.66550 0.61160
 C984 C 0.94108 0.68048 0.59673
 C985 C 0.93121 0.70695 0.60650
 H986 H 0.94122 0.71709 0.62462
 O987 O 1.02835 0.35789 0.60127
 O988 O 1.02851 0.32421 0.63394
 C989 C 1.03819 0.33464 0.61098
 C990 C 1.06154 0.32003 0.59570
 C991 C 1.07183 0.29362 0.60521
 H992 H 1.06247 0.28352 0.62367
 O993 O 1.14136 0.39716 0.52452
 O994 O 1.17441 0.36383 0.52401
 C995 C 1.16453 0.38694 0.53397
 C996 C 1.17950 0.40148 0.55756
 C997 C 1.20474 0.39006 0.56879
 H998 H 1.21426 0.37133 0.55929
 O999 O 0.85969 0.60365 0.52788
 O1000 O 0.82658 0.63693 0.52835
 C1001 C 0.83693 0.61395 0.53816
 C1002 C 0.82308 0.59977 0.56260
 C1003 C 0.79972 0.61261 0.57607
 H1004 H 0.79079 0.63222 0.56780
 Cu1005 Cu 1.00072 0.38056 0.61776
 Cu1006 Cu 1.00089 0.34027 0.65712
 Cu1007 Cu 1.00161 0.61911 0.61754
 Cu1008 Cu 1.00226 0.65900 0.65732
 Cu1009 Cu 0.88118 0.38219 0.49898
 Cu1010 Cu 0.84117 0.34259 0.49907
 Cu1011 Cu 1.11798 0.38112 0.49720
 Cu1012 Cu 1.15760 0.34105 0.49657
 Cu1013 Cu 0.88205 0.61972 0.49973
 Cu1014 Cu 0.84215 0.65954 0.50013
 Cu1015 Cu 1.11905 0.61844 0.49737
 Cu1016 Cu 1.15925 0.65785 0.49723
 Cu1017 Cu 0.88328 0.50036 0.61872
 Cu1018 Cu 0.84373 0.50045 0.65876
 Cu1019 Cu 1.11945 0.49877 0.61684
 Cu1020 Cu 1.15980 0.49860 0.65615
 C1021 C 1.07530 0.42459 0.66551
 H1022 H 1.06595 0.43387 0.64659
 C1023 C 1.10080 0.39918 0.71312
 C1024 C 0.92833 0.57445 0.66659
 H1025 H 0.93723 0.56538 0.64739
 C1026 C 0.90404 0.59904 0.71504
 C1027 C 0.83466 0.57471 0.57422
 H1028 H 0.85307 0.56503 0.56435
 C1029 C 0.78850 0.60105 0.60110
 C1030 C 1.16739 0.42557 0.57053
 H1031 H 1.14766 0.43419 0.56230
 C1032 C 1.21726 0.40197 0.59308
 C1033 C 1.07448 0.33305 0.57213
 H1034 H 1.06702 0.35368 0.56501
 C1035 C 1.09426 0.27997 0.59100
 C1036 C 0.92747 0.66762 0.57341
 H1037 H 0.93470 0.64701 0.56602
 C1038 C 0.90814 0.72043 0.59317
 C1039 C 0.92786 0.42578 0.66668
 H1040 H 0.93666 0.43452 0.64729
 C1041 C 0.90375 0.40201 0.71562
 C1042 C 1.07541 0.57309 0.66540
 H1043 H 1.06594 0.56390 0.64651
 C1044 C 1.10116 0.59815 0.71291
 C1045 C 0.92609 0.33342 0.57285
 H1046 H 0.93413 0.35355 0.56503
 C1047 C 0.90451 0.28198 0.59380
 C1048 C 1.07550 0.66674 0.57206
 H1049 H 1.06623 0.64765 0.56310
 C1050 C 1.10067 0.71493 0.59639
 C1051 C 0.83414 0.42698 0.57361
 H1052 H 0.85340 0.43577 0.56459
 C1053 C 0.78557 0.40287 0.59829
 C1054 C 1.16728 0.57309 0.57158
 H1055 H 1.14901 0.56316 0.56166
 C1056 C 1.21296 0.60021 0.59873
 O1057 O 0.47100 0.89817 0.35831
 O1058 O 0.47057 0.86536 0.32478
 C1059 C 0.46101 0.88843 0.33518
 C1060 C 0.43742 0.90357 0.32076
 C1061 C 0.42642 0.89330 0.29497
 H1062 H 0.43587 0.87485 0.28487
 O1063 O 0.52698 1.10427 0.35813
 O1064 O 0.52675 1.13752 0.32502
 C1065 C 0.53654 1.11436 0.33497
 C1066 C 0.55992 1.09951 0.32003
 C1067 C 0.57113 1.11063 0.29469
 H1068 H 0.56201 1.12961 0.28525
 O1069 O 0.35724 0.97429 0.39800
 O1070 O 0.32369 0.97469 0.36518
 C1071 C 0.33390 0.96485 0.38821
 C1072 C 0.31899 0.94167 0.40342
 C1073 C 0.29216 0.93221 0.39429
 H1074 H 0.28172 0.94237 0.37640
 O1075 O 0.64045 1.02889 0.39612
 O1076 O 0.67347 1.02878 0.36286
 C1077 C 0.66358 1.03850 0.38604
 C1078 C 0.67875 1.06161 0.40113
 C1079 C 0.70542 1.07103 0.39162
 H1080 H 0.71550 1.06091 0.37353
 O1081 O 0.39671 0.85923 0.47134
 O1082 O 0.36321 0.82644 0.47163
 C1083 C 0.38640 0.83617 0.46179
 C1084 C 0.40130 0.82096 0.43860
 C1085 C 0.39225 0.79393 0.42965
 H1086 H 0.37478 0.78352 0.44044
 O1087 O 0.60285 1.14281 0.47176
 O1088 O 0.63632 1.17562 0.47143
 C1089 C 0.61301 1.16580 0.46190
 C1090 C 0.59811 1.18058 0.43834
 C1091 C 0.60915 1.20584 0.42686
 H1092 H 0.62768 1.21569 0.43638
 O1093 O 0.39647 1.02928 0.35881
 O1094 O 0.36337 1.02943 0.32553
 C1095 C 0.38657 1.03896 0.33558
 C1096 C 0.40192 1.06199 0.32058
 C1097 C 0.39296 1.07128 0.29361
 H1098 H 0.37510 1.06113 0.28317
 O1099 O 0.60103 0.97330 0.35768
 O1100 O 0.63402 0.97314 0.32441
 C1101 C 0.61107 0.96331 0.33470
 C1102 C 0.59662 0.93925 0.32040
 C1103 C 0.60843 0.92716 0.29581
 H1104 H 0.62734 0.93627 0.28635
 O1105 O 0.52629 0.85813 0.39654
 O1106 O 0.52593 0.82517 0.36315
 C1107 C 0.53586 0.83502 0.38628
 C1108 C 0.55947 0.82007 0.40090
 C1109 C 0.57033 0.79442 0.39004
 H1110 H 0.56074 0.78470 0.37146
 O1111 O 0.47185 1.14313 0.39768
 O1112 O 0.47130 1.17622 0.36442
 C1113 C 0.46172 1.16606 0.38753
 C1114 C 0.43772 1.18035 0.40209
 C1115 C 0.42432 1.20395 0.38950
 H1116 H 0.43227 1.21265 0.36971
 O1117 O 0.35907 1.10456 0.47339
 O1118 O 0.32596 1.13782 0.47403
 C1119 C 0.33609 1.11499 0.46368
 C1120 C 0.32164 1.10103 0.43937
 C1121 C 0.29744 1.11348 0.42695
 H1122 H 0.28864 1.13290 0.43573
 O1123 O 0.64065 0.89708 0.47002
 O1124 O 0.67414 0.86419 0.46954
 C1125 C 0.66380 0.88733 0.46010
 C1126 C 0.67854 0.90283 0.43704
 C1127 C 0.70532 0.89381 0.42742
 H1128 H 0.71572 0.87568 0.43721
 O1129 O 0.47161 1.10417 0.35874
 O1130 O 0.47142 1.13717 0.32537
 C1131 C 0.46183 1.11404 0.33554
 C1132 C 0.43870 1.09876 0.32062
 C1133 C 0.42943 1.10774 0.29367
 H1134 H 0.43971 1.12549 0.28320
 O1135 O 0.52654 0.89747 0.35804
 O1136 O 0.52626 0.86462 0.32455
 C1137 C 0.53628 0.88749 0.33491
 C1138 C 0.56020 0.90207 0.32053
 C1139 C 0.57248 0.89026 0.29599
 H1140 H 0.56384 0.87098 0.28677
 O1141 O 0.64046 0.97336 0.39603
 O1142 O 0.67354 0.97334 0.36283
 C1143 C 0.66354 0.96361 0.38594
 C1144 C 0.67847 0.94023 0.40087
 C1145 C 0.70527 0.93090 0.39158
 H1146 H 0.71566 0.94140 0.37390
 O1147 O 0.35803 1.02986 0.39813
 O1148 O 0.32481 1.03037 0.36499
 C1149 C 0.33512 1.04005 0.38804
 C1150 C 0.32101 1.06418 0.40262
 C1151 C 0.29641 1.07655 0.39099
 H1152 H 0.28656 1.06731 0.37230
 O1153 O 0.39808 1.14310 0.47357
 O1154 O 0.36494 1.17635 0.47409
 C1155 C 0.38778 1.16615 0.46388
 C1156 C 0.40164 1.18045 0.43953
 C1157 C 0.38864 1.20407 0.42662
 H1158 H 0.36923 1.21292 0.43533
 O1159 O 0.60192 0.85783 0.47050
 O1160 O 0.63525 0.82479 0.47003
 C1161 C 0.61194 0.83477 0.46060
 C1162 C 0.59677 0.82000 0.43725
 C1163 C 0.60732 0.79438 0.42605
 H1164 H 0.62607 0.78454 0.43520
 O1165 O 0.60136 1.02895 0.35725
 O1166 O 0.63427 1.02888 0.32390
 C1167 C 0.61130 1.03873 0.33413
 C1168 C 0.59652 1.06248 0.31961
 C1169 C 0.60745 1.07397 0.29432
 H1170 H 0.62618 1.06477 0.28455
 O1171 O 0.39615 0.97376 0.35913
 O1172 O 0.36277 0.97388 0.32615
 C1173 C 0.38589 0.96399 0.33613
 C1174 C 0.40059 0.94040 0.32127
 C1175 C 0.38988 0.92972 0.29549
 H1176 H 0.37117 0.93918 0.28586
 O1177 O 0.52752 1.14299 0.39723
 O1178 O 0.52712 1.17630 0.36419
 C1179 C 0.53728 1.16603 0.38706
 C1180 C 0.56133 1.18045 0.40146
 C1181 C 0.57318 1.20529 0.38988
 H1182 H 0.56422 1.21453 0.37074
 O1183 O 0.47080 0.85847 0.39638
 O1184 O 0.47037 0.82547 0.36304
 C1185 C 0.46082 0.83550 0.38622
 C1186 C 0.43752 0.82074 0.40137
 C1187 C 0.42774 0.79400 0.39227
 H1188 H 0.43737 0.78379 0.37400
 O1189 O 0.64176 1.10373 0.47135
 O1190 O 0.67540 1.13637 0.47130
 C1191 C 0.66497 1.11342 0.46157
 C1192 C 0.67952 1.09817 0.43816
 C1193 C 0.70624 1.10721 0.42839
 H1194 H 0.71687 1.12501 0.43847
 O1195 O 0.35793 0.89857 0.47222
 O1196 O 0.32424 0.86598 0.47244
 C1197 C 0.33446 0.88904 0.46280
 C1198 C 0.31930 0.90458 0.43993
 C1199 C 0.29245 0.89548 0.43053
 H1200 H 0.28215 0.87751 0.44063
 Cu1201 Cu 0.49869 0.88134 0.38067
 Cu1202 Cu 0.49823 0.84190 0.34047
 Cu1203 Cu 0.49952 1.12036 0.38131
 Cu1204 Cu 0.49909 1.16022 0.34150
 Cu1205 Cu 0.38029 1.00175 0.38183
 Cu1206 Cu 0.34028 1.00211 0.34217
 Cu1207 Cu 0.61750 1.00118 0.38009
 Cu1208 Cu 0.65708 1.00104 0.34009
 C1209 C 0.42455 0.92735 0.33360
 H1210 H 0.43266 0.93515 0.35371
 C1211 C 0.40283 0.90635 0.28224
 C1212 C 0.57257 1.07524 0.33214
 H1213 H 0.56435 1.06685 0.35194
 C1214 C 0.59497 1.09810 0.28200
 C1215 C 0.33223 0.92789 0.42645
 H1216 H 0.35310 0.93478 0.43335
 C1217 C 0.27871 0.90937 0.40797
 C1218 C 0.66610 1.07516 0.42457
 H1219 H 0.64536 1.06827 0.43177
 C1220 C 0.71932 1.09356 0.40533
 C1221 C 0.42423 0.83394 0.42462
 H1222 H 0.43128 0.85481 0.43140
 C1223 C 0.40556 0.78018 0.40672
 C1224 C 0.57393 1.16829 0.42573
 H1225 H 0.56543 1.14867 0.43430
 C1226 C 0.59728 1.21785 0.40221
 C1227 C 0.42499 1.07569 0.33376
 H1228 H 0.43180 1.06889 0.35471
 C1229 C 0.40684 1.09390 0.28000
 C1230 C 0.57233 0.92671 0.33248
 H1231 H 0.56340 0.93560 0.35176
 C1232 C 0.59675 0.90249 0.28389
 C1233 C 0.57266 0.83251 0.42470
 H1234 H 0.56472 0.85255 0.43288
 C1235 C 0.59434 0.78172 0.40236
 C1236 C 0.42635 1.16890 0.42727
 H1237 H 0.43614 1.15029 0.43674
 C1238 C 0.39963 1.21550 0.40145
 C1239 C 0.33326 1.07637 0.42703
 H1240 H 0.35239 1.06711 0.43597
 C1241 C 0.28498 1.10158 0.40257
 C1242 C 0.66541 0.92624 0.42381
 H1243 H 0.64459 0.93311 0.43087
 C1244 C 0.71886 0.90797 0.40496
 O1245 O 0.52751 0.89626 0.63963
 O1246 O 0.52753 0.86326 0.67298
 C1247 C 0.53730 0.88633 0.66279
 C1248 C 0.56113 0.90103 0.67730
 C1249 C 0.57288 0.88966 0.70233
 H1250 H 0.56374 0.87083 0.71196
 O1251 O 0.47507 1.10424 0.64269
 O1252 O 0.47535 1.13735 0.67594
 C1253 C 0.46559 1.11423 0.66593
 C1254 C 0.44245 1.09910 0.68091
 C1255 C 0.43194 1.10916 0.70703
 H1256 H 0.44125 1.12778 0.71694
 O1257 O 0.36119 1.02908 0.60399
 O1258 O 0.32853 1.02875 0.63759
 C1259 C 0.33821 1.03870 0.61443
 C1260 C 0.32321 1.06238 0.59997
 C1261 C 0.29807 1.07376 0.61144
 H1262 H 0.28875 1.06449 0.63035
 O1263 O 0.64184 0.97188 0.60101
 O1264 O 0.67547 0.97142 0.63376
 C1265 C 0.66510 0.96199 0.61065
 C1266 C 0.67985 0.93887 0.59516
 C1267 C 0.70654 0.92906 0.60434
 H1268 H 0.71692 0.93887 0.62245
 O1269 O 0.60285 0.85795 0.52609
 O1270 O 0.63639 0.82510 0.52579
 C1271 C 0.61349 0.83515 0.53601
 C1272 C 0.59980 0.82093 0.56050
 C1273 C 0.61314 0.79774 0.57384
 H1274 H 0.63281 0.78916 0.56542
 O1275 O 0.39861 1.14271 0.52913
 O1276 O 0.36568 1.17615 0.52966
 C1277 C 0.38884 1.16586 0.53911
 C1278 C 0.40429 1.18063 0.56226
 C1279 C 0.39486 1.20714 0.57232
 H1280 H 0.37616 1.21701 0.56308
 O1281 O 0.40185 0.97426 0.64227
 O1282 O 0.36935 0.97405 0.67605
 C1283 C 0.39253 0.96475 0.66574
 C1284 C 0.40752 0.94114 0.68015
 C1285 C 0.39880 0.93209 0.70710
 H1286 H 0.38632 0.94664 0.71974
 O1287 O 0.60374 1.02726 0.64106
 O1288 O 0.63703 1.02652 0.67412
 C1289 C 0.61394 1.03657 0.66431
 C1290 C 0.59908 1.05979 0.67960
 C1291 C 0.60812 1.06854 0.70672
 H1292 H 0.62562 1.05771 0.71715
 O1293 O 0.47288 0.85653 0.60028
 O1294 O 0.47300 0.82328 0.63338
 C1295 C 0.46316 0.83345 0.61034
 C1296 C 0.43912 0.81918 0.59590
 C1297 C 0.42648 0.79499 0.60801
 H1298 H 0.43524 0.78565 0.62720
 O1299 O 0.53019 1.14279 0.60322
 O1300 O 0.53076 1.17597 0.63639
 C1301 C 0.54011 1.16588 0.61315
 C1302 C 0.56320 1.18070 0.59781
 C1303 C 0.57344 1.20702 0.60750
 H1304 H 0.56381 1.21719 0.62580
 O1305 O 0.35981 0.89857 0.52785
 O1306 O 0.32599 0.86609 0.52810
 C1307 C 0.33681 0.88882 0.53803
 C1308 C 0.32296 0.90355 0.56219
 C1309 C 0.29718 0.89334 0.57316
 H1310 H 0.28677 0.87524 0.56338
 O1311 O 0.64185 1.10327 0.52687
 O1312 O 0.67536 1.13606 0.52691
 C1313 C 0.66507 1.11302 0.53662
 C1314 C 0.67986 1.09769 0.55989
 C1315 C 0.70614 1.10741 0.57024
 H1316 H 0.71590 1.12616 0.56106
 O1317 O 0.53034 1.10348 0.64178
 O1318 O 0.53079 1.13640 0.67521
 C1319 C 0.54019 1.11318 0.66498
 C1320 C 0.56310 1.09742 0.67984
 C1321 C 0.57249 1.10593 0.70688
 H1322 H 0.56269 1.12398 0.71737
 O1323 O 0.47187 0.89477 0.63954
 O1324 O 0.47168 0.86161 0.67273
 C1325 C 0.46171 0.88451 0.66237
 C1326 C 0.43828 0.89970 0.67693
 C1327 C 0.42514 0.88836 0.70134
 H1328 H 0.43086 0.86707 0.70783
 O1329 O 0.64180 1.02740 0.60119
 O1330 O 0.67528 1.02692 0.63406
 C1331 C 0.66510 1.03686 0.61105
 C1332 C 0.68004 1.06019 0.59601
 C1333 C 0.70665 1.06982 0.60556
 H1334 H 0.71699 1.05935 0.62333
 O1335 O 0.36183 0.97332 0.60409
 O1336 O 0.32921 0.97295 0.63771
 C1337 C 0.33901 0.96329 0.61446
 C1338 C 0.32405 0.93978 0.59962
 C1339 C 0.29821 0.92919 0.61021
 H1340 H 0.28862 0.93857 0.62895
 O1341 O 0.60371 1.14289 0.52722
 O1342 O 0.63704 1.17586 0.52703
 C1343 C 0.61400 1.16590 0.53694
 C1344 C 0.59938 1.18072 0.56053
 C1345 C 0.60945 1.20695 0.57067
 H1346 H 0.62769 1.21695 0.56079
 O1347 O 0.39730 0.85834 0.52665
 O1348 O 0.36351 0.82582 0.52698
 C1349 C 0.38695 0.83536 0.53641
 C1350 C 0.40170 0.82024 0.55977
 C1351 C 0.38946 0.79598 0.57211
 H1352 H 0.36988 0.78726 0.56364
 O1353 O 0.60276 0.97162 0.63973
 O1354 O 0.63629 0.97084 0.67256
 C1355 C 0.61304 0.96134 0.66252
 C1356 C 0.59831 0.93752 0.67700
 C1357 C 0.60972 0.92570 0.70197
 H1358 H 0.62875 0.93462 0.71143
 O1359 O 0.40060 1.02943 0.64250
 O1360 O 0.36795 1.02908 0.67613
 C1361 C 0.39088 1.03891 0.66585
 C1362 C 0.40597 1.06210 0.68079
 C1363 C 0.39591 1.07229 0.70695
 H1364 H 0.37757 1.06255 0.71690
 O1365 O 0.47481 1.14267 0.60323
 O1366 O 0.47524 1.17600 0.63624
 C1367 C 0.46533 1.16593 0.61317
 C1368 C 0.44201 1.18091 0.59813
 C1369 C 0.43273 1.20778 0.60733
 H1370 H 0.44350 1.21830 0.62479
 O1371 O 0.52837 0.85711 0.60107
 O1372 O 0.52872 0.82402 0.63433
 C1373 C 0.53862 0.83434 0.61142
 C1374 C 0.56317 0.82053 0.59739
 C1375 C 0.57686 0.79736 0.61038
 H1376 H 0.56872 0.78857 0.63005
 O1377 O 0.64132 0.89708 0.52544
 O1378 O 0.67492 0.86429 0.52492
 C1379 C 0.66469 0.88728 0.53484
 C1380 C 0.67969 0.90237 0.55807
 C1381 C 0.70638 0.89288 0.56759
 H1382 H 0.71668 0.87497 0.55734
 O1383 O 0.35960 1.10386 0.52912
 O1384 O 0.32656 1.13718 0.52983
 C1385 C 0.33674 1.11399 0.53933
 C1386 C 0.32252 1.09923 0.56321
 C1387 C 0.29744 1.11030 0.57502
 H1388 H 0.28753 1.12903 0.56589
 Cu1389 Cu 0.50012 0.87950 0.61682
 Cu1390 Cu 0.50029 0.83969 0.65668
 Cu1391 Cu 0.50256 1.11998 0.61941
 Cu1392 Cu 0.50309 1.15980 0.65927
 Cu1393 Cu 0.38128 0.88197 0.49940
 Cu1394 Cu 0.34079 0.84287 0.49974
 Cu1395 Cu 0.61829 0.88074 0.49798
 Cu1396 Cu 0.65847 0.84121 0.49745
 Cu1397 Cu 0.38212 1.12019 0.50132
 Cu1398 Cu 0.34244 1.16019 0.50205
 Cu1399 Cu 0.61920 1.11989 0.49929
 Cu1400 Cu 0.65939 1.15928 0.49914
 Cu1401 Cu 0.38456 1.00155 0.61976
 Cu1402 Cu 0.34540 1.00109 0.66018
 Cu1403 Cu 0.61917 0.99964 0.61749
 Cu1404 Cu 0.65934 0.99888 0.65695
 C1405 C 0.57385 0.92516 0.66493
 H1406 H 0.56526 0.93375 0.64534
 C1407 C 0.59727 0.90171 0.71447
 C1408 C 0.42946 1.07539 0.66812
 H1409 H 0.43706 1.06785 0.64774
 C1410 C 0.40855 1.09597 0.71989
 C1411 C 0.33510 1.07511 0.57569
 H1412 H 0.35474 1.06678 0.56702
 C1413 C 0.28535 1.09782 0.59922
 C1414 C 0.66673 0.92557 0.57181
 H1415 H 0.64596 0.93276 0.56484
 C1416 C 0.71996 0.90632 0.59047
 C1417 C 0.57468 0.83204 0.57231
 H1418 H 0.56458 0.85031 0.56250
 C1419 C 0.60199 0.78626 0.59893
 C1420 C 0.42797 1.16775 0.57523
 H1421 H 0.43497 1.14699 0.56803
 C1422 C 0.40933 1.22113 0.59439
 C1423 C 0.42826 0.92549 0.66577
 H1424 H 0.43618 0.93313 0.64554
 C1425 C 0.40487 0.90435 0.71688
 C1426 C 0.57635 1.07416 0.66652
 H1427 H 0.56946 1.06772 0.64550
 C1428 C 0.59468 1.09133 0.72057
 C1429 C 0.42674 0.83147 0.57159
 H1430 H 0.43595 0.85054 0.56255
 C1431 C 0.40149 0.78367 0.59646
 C1432 C 0.57607 1.16791 0.57408
 H1433 H 0.56847 1.14745 0.56668
 C1434 C 0.59635 1.22032 0.59388
 C1435 C 0.33614 0.92695 0.57543
 H1436 H 0.35623 0.93470 0.56734
 C1437 C 0.28469 0.90615 0.59694
 C1438 C 0.66706 1.07397 0.57283
 H1439 H 0.64649 1.06675 0.56540
 C1440 C 0.71991 1.09328 0.59270
 O1441 O 0.47110 0.39922 0.85725
 O1442 O 0.47054 0.36615 0.82396
 C1443 C 0.46092 0.38921 0.83430
 C1444 C 0.43693 0.40395 0.82016
 C1445 C 0.42484 0.39270 0.79527
 H1446 H 0.43377 0.37379 0.78555
 O1447 O 0.52708 0.60482 0.85901
 O1448 O 0.52709 0.63840 0.82625
 C1449 C 0.53703 0.61527 0.83620
 C1450 C 0.56125 0.60107 0.82186
 C1451 C 0.57469 0.61412 0.79858
 H1452 H 0.56665 0.63404 0.79017
 O1453 O 0.35783 0.47450 0.89824
 O1454 O 0.32426 0.47497 0.86545
 C1455 C 0.33452 0.46502 0.88842
 C1456 C 0.31972 0.44158 0.90335
 C1457 C 0.29385 0.43094 0.89289
 H1458 H 0.28395 0.44057 0.87441
 O1459 O 0.64091 0.52802 0.89624
 O1460 O 0.67385 0.52809 0.86291
 C1461 C 0.66388 0.53785 0.88604
 C1462 C 0.67848 0.56167 0.90056
 C1463 C 0.70286 0.57397 0.88853
 H1464 H 0.71189 0.56529 0.86919
 O1465 O 0.39665 0.36008 0.97192
 O1466 O 0.36333 0.32711 0.97168
 C1467 C 0.38633 0.33725 0.96181
 C1468 C 0.40085 0.32288 0.93781
 C1469 C 0.39048 0.29700 0.92700
 H1470 H 0.37240 0.28673 0.93689
 O1471 O 0.60291 0.64187 0.97231
 O1472 O 0.63630 0.67479 0.97253
 C1473 C 0.61304 0.66504 0.96282
 C1474 C 0.59799 0.68027 0.93970
 C1475 C 0.60812 0.70648 0.92957
 H1476 H 0.62654 0.71631 0.93933
 O1477 O 0.39684 0.52985 0.85919
 O1478 O 0.36347 0.53015 0.82618
 C1479 C 0.38662 0.53983 0.83624
 C1480 C 0.40123 0.56360 0.82167
 C1481 C 0.39021 0.57480 0.79627
 H1482 H 0.37147 0.56546 0.78663
 O1483 O 0.60125 0.47337 0.85686
 O1484 O 0.63406 0.47352 0.82341
 C1485 C 0.61095 0.46393 0.83350
 C1486 C 0.59563 0.44096 0.81841
 C1487 C 0.60524 0.43111 0.79194
 H1488 H 0.62340 0.44104 0.78183
 O1489 O 0.52677 0.35967 0.89548
 O1490 O 0.52631 0.32651 0.86230
 C1491 C 0.53628 0.33647 0.88537
 C1492 C 0.55967 0.32141 0.90025
 C1493 C 0.56925 0.29474 0.89067
 H1494 H 0.55903 0.28450 0.87272
 O1495 O 0.47214 0.64388 0.89871
 O1496 O 0.47194 0.67750 0.86599
 C1497 C 0.46259 0.66734 0.88920
 C1498 C 0.43990 0.68248 0.90498
 C1499 C 0.43052 0.70950 0.89620
 H1500 H 0.44065 0.71995 0.87835
 O1501 O 0.35907 0.60461 0.97357
 O1502 O 0.32612 0.63804 0.97393
 C1503 C 0.33611 0.61504 0.96383
 C1504 C 0.32155 0.60095 0.93973
 C1505 C 0.29721 0.61329 0.92751
 H1506 H 0.28800 0.63235 0.93664
 O1507 O 0.64119 0.39764 0.97074
 O1508 O 0.67438 0.36445 0.97034
 C1509 C 0.66431 0.38772 0.96091
 C1510 C 0.67908 0.40294 0.93766
 C1511 C 0.70562 0.39347 0.92781
 H1512 H 0.71614 0.37580 0.93826
 O1513 O 0.47141 0.60516 0.85929
 O1514 O 0.47119 0.63859 0.82638
 C1515 C 0.46143 0.61544 0.83637
 C1516 C 0.43771 0.60070 0.82173
 C1517 C 0.42637 0.61154 0.79626
 H1518 H 0.43557 0.63028 0.78652
 O1519 O 0.52650 0.39885 0.85661
 O1520 O 0.52605 0.36588 0.82325
 C1521 C 0.53588 0.38895 0.83331
 C1522 C 0.55896 0.40414 0.81828
 C1523 C 0.56893 0.39452 0.79181
 H1524 H 0.55926 0.37620 0.78169
 O1525 O 0.64050 0.47238 0.89563
 O1526 O 0.67344 0.47244 0.86232
 C1527 C 0.66347 0.46254 0.88538
 C1528 C 0.67838 0.43905 0.90023
 C1529 C 0.70452 0.42868 0.89014
 H1530 H 0.71402 0.43788 0.87129
 O1531 O 0.35821 0.53013 0.89814
 O1532 O 0.32481 0.53060 0.86516
 C1533 C 0.33527 0.54034 0.88810
 C1534 C 0.32124 0.56451 0.90260
 C1535 C 0.29710 0.57737 0.89055
 H1536 H 0.28792 0.56892 0.87115
 O1537 O 0.39802 0.64360 0.97417
 O1538 O 0.36514 0.67710 0.97482
 C1539 C 0.38817 0.66704 0.96491
 C1540 C 0.40333 0.68227 0.94190
 C1541 C 0.39394 0.70907 0.93248
 H1542 H 0.37563 0.71901 0.94233
 O1543 O 0.60217 0.35886 0.97011
 O1544 O 0.63519 0.32550 0.96970
 C1545 C 0.61209 0.33579 0.96011
 C1546 C 0.59685 0.32118 0.93672
 C1547 C 0.60616 0.29458 0.92676
 H1548 H 0.62421 0.28415 0.93665
 O1549 O 0.60148 0.52891 0.85802
 O1550 O 0.63443 0.52908 0.82470
 C1551 C 0.61161 0.53908 0.83516
 C1552 C 0.59755 0.56368 0.82133
 C1553 C 0.61042 0.57693 0.79792
 H1554 H 0.62974 0.56823 0.78887
 O1555 O 0.39619 0.47423 0.85872
 O1556 O 0.36266 0.47454 0.82588
 C1557 C 0.38577 0.46455 0.83573
 C1558 C 0.40013 0.44078 0.82088
 C1559 C 0.38841 0.42924 0.79593
 H1560 H 0.36944 0.43848 0.78661
 O1561 O 0.52747 0.64337 0.89808
 O1562 O 0.52730 0.67704 0.86539
 C1563 C 0.53724 0.66656 0.88826
 C1564 C 0.56091 0.68098 0.90319
 C1565 C 0.57143 0.70711 0.89329
 H1566 H 0.56177 0.71733 0.87500
 O1567 O 0.47117 0.36053 0.89611
 O1568 O 0.47067 0.32738 0.86291
 C1569 C 0.46103 0.33764 0.88598
 C1570 C 0.43728 0.32323 0.90072
 C1571 C 0.42637 0.29758 0.89007
 H1572 H 0.43573 0.28784 0.87140
 O1573 O 0.64159 0.60262 0.97159
 O1574 O 0.67503 0.63548 0.97168
 C1575 C 0.66462 0.61264 0.96169
 C1576 C 0.67883 0.59823 0.93759
 C1577 C 0.70332 0.61007 0.92533
 H1578 H 0.71283 0.62903 0.93436
 O1579 O 0.35783 0.39901 0.97292
 O1580 O 0.32437 0.36617 0.97276
 C1581 C 0.33457 0.38929 0.96320
 C1582 C 0.31975 0.40454 0.93992
 C1583 C 0.29391 0.39420 0.92908
 H1584 H 0.28416 0.37546 0.93829
 Cu1585 Cu 0.49904 0.38287 0.87970
 Cu1586 Cu 0.49841 0.34312 0.83978
 Cu1587 Cu 0.49944 0.62091 0.88200
 Cu1588 Cu 0.49927 0.66117 0.84262
 Cu1589 Cu 0.38062 0.50208 0.88187
 Cu1590 Cu 0.34043 0.50256 0.84237
 Cu1591 Cu 0.61775 0.50056 0.88006
 Cu1592 Cu 0.65724 0.50071 0.83997
 C1593 C 0.42456 0.42815 0.83268
 H1594 H 0.43343 0.43662 0.85219
 C1595 C 0.40047 0.40504 0.78334
 C1596 C 0.57279 0.57574 0.83300
 H1597 H 0.56305 0.56593 0.85141
 C1598 C 0.59950 0.60240 0.78697
 C1599 C 0.33233 0.42844 0.92711
 H1600 H 0.35251 0.43622 0.93502
 C1601 C 0.28082 0.40742 0.90575
 C1602 C 0.66673 0.57384 0.92521
 H1603 H 0.64755 0.56488 0.93424
 C1604 C 0.71506 0.59833 0.90059
 C1605 C 0.42449 0.33565 0.92471
 H1606 H 0.43249 0.35571 0.93274
 C1607 C 0.40338 0.28416 0.90338
 C1608 C 0.57416 0.66788 0.92658
 H1609 H 0.56644 0.64750 0.93404
 C1610 C 0.59477 0.72007 0.90659
 C1611 C 0.42517 0.57652 0.83408
 H1612 H 0.43350 0.56827 0.85394
 C1613 C 0.40280 0.59853 0.78338
 C1614 C 0.57226 0.42757 0.83122
 H1615 H 0.56500 0.43482 0.85184
 C1616 C 0.59190 0.40809 0.77851
 C1617 C 0.57343 0.33429 0.92348
 H1618 H 0.56637 0.35498 0.93079
 C1619 C 0.59230 0.28122 0.90399
 C1620 C 0.42647 0.66929 0.92815
 H1621 H 0.43344 0.64837 0.93490
 C1622 C 0.40771 0.72301 0.90997
 C1623 C 0.33324 0.57638 0.92729
 H1624 H 0.35226 0.56700 0.93632
 C1625 C 0.28532 0.60193 0.90264
 C1626 C 0.66591 0.42609 0.92407
 H1627 H 0.64542 0.43349 0.93154
 C1628 C 0.71858 0.40632 0.90419
 O1629 O 0.52787 0.39562 1.14097
 O1630 O 0.52800 0.36230 1.17400
 C1631 C 0.53760 0.38553 1.16409
 C1632 C 0.56060 0.40089 1.17918
 C1633 C 0.57008 0.39188 1.20607
 H1634 H 0.56065 0.37334 1.21597
 O1635 O 0.47430 0.60302 1.14247
 O1636 O 0.47475 0.63583 1.17601
 C1637 C 0.46492 0.61279 1.16583
 C1638 C 0.44190 0.59754 1.18092
 C1639 C 0.43240 0.60699 1.20759
 H1640 H 0.44250 0.62504 1.21777
 O1641 O 0.36023 0.52874 1.10438
 O1642 O 0.32748 0.52896 1.13788
 C1643 C 0.33744 0.53883 1.11480
 C1644 C 0.32291 0.56288 1.10045
 C1645 C 0.29824 0.57492 1.11226
 H1646 H 0.28906 0.56601 1.13141
 O1647 O 0.64125 0.47085 1.10242
 O1648 O 0.67477 0.47047 1.13526
 C1649 C 0.66451 0.46102 1.11210
 C1650 C 0.67944 0.43811 1.09642
 C1651 C 0.70667 0.42904 1.10480
 H1652 H 0.71722 0.43906 1.12269
 O1653 O 0.60214 0.35798 1.02556
 O1654 O 0.63518 0.32464 1.02519
 C1655 C 0.61204 0.33462 1.03492
 C1656 C 0.59689 0.31940 1.05793
 C1657 C 0.60599 0.29237 1.06690
 H1658 H 0.62339 0.28189 1.05602
 O1659 O 0.39826 0.64245 1.02972
 O1660 O 0.36507 0.67565 1.03033
 C1661 C 0.38807 0.66526 1.04004
 C1662 C 0.40250 0.67931 1.06423
 C1663 C 0.39009 0.70314 1.07725
 H1664 H 0.37031 0.71175 1.06910
 O1665 O 0.39907 0.47230 1.14244
 O1666 O 0.36605 0.47217 1.17568
 C1667 C 0.38890 0.46217 1.16531
 C1668 C 0.40286 0.43750 1.17912
 C1669 C 0.39017 0.42444 1.20276
 H1670 H 0.37134 0.43367 1.21230
 O1671 O 0.60289 0.52636 1.14194
 O1672 O 0.63611 0.52588 1.17510
 C1673 C 0.61295 0.53573 1.16521
 C1674 C 0.59787 0.55880 1.18046
 C1675 C 0.60641 0.56715 1.20785
 H1676 H 0.62338 0.55577 1.21856
 O1677 O 0.47269 0.35696 1.10148
 O1678 O 0.47302 0.32310 1.13398
 C1679 C 0.46316 0.33356 1.11106
 C1680 C 0.43982 0.31893 1.09578
 C1681 C 0.43024 0.29207 1.10469
 H1682 H 0.44058 0.28133 1.12229
 O1683 O 0.52955 0.64193 1.10342
 O1684 O 0.53013 0.67487 1.13683
 C1685 C 0.53967 0.66479 1.11365
 C1686 C 0.56349 0.67914 1.09895
 C1687 C 0.57574 0.70383 1.11048
 H1688 H 0.56711 0.71323 1.12966
 O1689 O 0.35873 0.39857 1.02842
 O1690 O 0.32520 0.36581 1.02830
 C1691 C 0.33555 0.38878 1.03815
 C1692 C 0.32091 0.40394 1.06158
 C1693 C 0.29407 0.39499 1.07102
 H1694 H 0.28339 0.37752 1.06043
 O1695 O 0.64152 0.60169 1.02718
 O1696 O 0.67521 0.63429 1.02727
 C1697 C 0.66481 0.61128 1.03691
 C1698 C 0.67947 0.59598 1.06024
 C1699 C 0.70583 0.60561 1.07038
 H1700 H 0.71602 0.62384 1.06065
 O1701 O 0.52965 0.60292 1.14217
 O1702 O 0.53010 0.63571 1.17574
 C1703 C 0.53954 0.61258 1.16539
 C1704 C 0.56244 0.59686 1.18025
 C1705 C 0.57192 0.60553 1.20721
 H1706 H 0.56261 0.62408 1.21724
 O1707 O 0.47236 0.39562 1.14056
 O1708 O 0.47225 0.36190 1.17317
 C1709 C 0.46235 0.38507 1.16329
 C1710 C 0.43829 0.39935 1.17776
 C1711 C 0.42473 0.38621 1.20089
 H1712 H 0.43237 0.36593 1.20880
 O1713 O 0.64112 0.52640 1.10236
 O1714 O 0.67453 0.52612 1.13532
 C1715 C 0.66434 0.53599 1.11227
 C1716 C 0.67923 0.55927 1.09716
 C1717 C 0.70565 0.56922 1.10694
 H1718 H 0.71578 0.55933 1.12515
 O1719 O 0.35970 0.47305 1.10403
 O1720 O 0.32660 0.47324 1.13719
 C1721 C 0.33655 0.46345 1.11405
 C1722 C 0.32149 0.44024 1.09890
 C1723 C 0.29492 0.43051 1.10843
 H1724 H 0.28505 0.44015 1.12688
 O1725 O 0.60350 0.64151 1.02778
 O1726 O 0.63712 0.67419 1.02800
 C1727 C 0.61399 0.66433 1.03778
 C1728 C 0.59975 0.67894 1.06173
 C1729 C 0.61151 0.70377 1.07343
 H1730 H 0.63028 0.71325 1.06405
 O1731 O 0.39699 0.35871 1.02744
 O1732 O 0.36367 0.32574 1.02729
 C1733 C 0.38700 0.33542 1.03685
 C1734 C 0.40243 0.31989 1.05955
 C1735 C 0.39313 0.29303 1.06881
 H1736 H 0.37485 0.28308 1.05891
 O1737 O 0.60211 0.47102 1.14123
 O1738 O 0.63539 0.47055 1.17434
 C1739 C 0.61203 0.46126 1.16440
 C1740 C 0.59655 0.43840 1.17951
 C1741 C 0.60498 0.42982 1.20683
 H1742 H 0.62209 0.44093 1.21755
 O1743 O 0.39946 0.52792 1.14308
 O1744 O 0.36681 0.52784 1.17668
 C1745 C 0.38984 0.53751 1.16642
 C1746 C 0.40520 0.56069 1.18125
 C1747 C 0.39592 0.57056 1.20786
 H1748 H 0.37781 0.56076 1.21814
 O1749 O 0.47402 0.64236 1.10392
 O1750 O 0.47437 0.67530 1.13732
 C1751 C 0.46430 0.66535 1.11429
 C1752 C 0.44013 0.67981 1.10014
 C1753 C 0.42788 0.70423 1.11228
 H1754 H 0.43742 0.71391 1.13090
 O1755 O 0.52811 0.35738 1.10139
 O1756 O 0.52852 0.32380 1.13415
 C1757 C 0.53804 0.33419 1.11111
 C1758 C 0.56115 0.31946 1.09562
 C1759 C 0.57113 0.29281 1.10480
 H1760 H 0.56193 0.28286 1.12342
 O1761 O 0.64110 0.39695 1.02621
 O1762 O 0.67435 0.36383 1.02584
 C1763 C 0.66429 0.38689 1.03577
 C1764 C 0.67936 0.40192 1.05900
 C1765 C 0.70663 0.39325 1.06762
 H1766 H 0.71721 0.37588 1.05677
 O1767 O 0.35935 0.60382 1.02920
 O1768 O 0.32616 0.63702 1.02960
 C1769 C 0.33642 0.61393 1.03927
 C1770 C 0.32227 0.59939 1.06333
 C1771 C 0.29753 0.61095 1.07538
 H1772 H 0.28771 0.62966 1.06611
 Cu1773 Cu 0.50028 0.37977 1.11785
 Cu1774 Cu 0.50052 0.33943 1.15716
 Cu1775 Cu 0.50183 0.61931 1.11960
 Cu1776 Cu 0.50237 0.65882 1.15977
 Cu1777 Cu 0.38090 0.38236 1.00026
 Cu1778 Cu 0.34079 0.34290 1.00006
 Cu1779 Cu 0.61834 0.38119 0.99822
 Cu1780 Cu 0.65811 0.34126 0.99776
 Cu1781 Cu 0.38198 0.62026 1.00152
 Cu1782 Cu 0.34227 0.66027 1.00216
 Cu1783 Cu 0.61902 0.61863 0.99968
 Cu1784 Cu 0.65931 0.65795 0.99989
 Cu1785 Cu 0.38290 0.50053 1.12014
 Cu1786 Cu 0.34345 0.50058 1.16022
 Cu1787 Cu 0.61853 0.49867 1.11867
 Cu1788 Cu 0.65859 0.49818 1.15828
 C1789 C 0.57395 0.42421 1.16613
 H1790 H 0.56730 0.43081 1.14507
 C1791 C 0.59177 0.40670 1.22037
 C1792 C 0.42839 0.57415 1.16809
 H1793 H 0.43539 0.56696 1.14736
 C1794 C 0.40965 0.59345 1.22123
 C1795 C 0.33467 0.57519 1.07587
 H1796 H 0.35402 0.56642 1.06698
 C1797 C 0.28574 0.59910 1.10003
 C1798 C 0.66609 0.42457 1.07333
 H1799 H 0.64496 0.43120 1.06696
 C1800 C 0.72050 0.40694 1.09022
 C1801 C 0.57410 0.33251 1.07209
 H1802 H 0.56698 0.35338 1.06531
 C1803 C 0.59310 0.27884 1.09018
 C1804 C 0.42752 0.66777 1.07583
 H1805 H 0.43668 0.64880 1.06646
 C1806 C 0.40240 0.71545 1.10145
 C1807 C 0.42718 0.42501 1.16702
 H1808 H 0.43690 0.43478 1.14858
 C1809 C 0.40038 0.39835 1.21306
 C1810 C 0.57549 0.57342 1.16710
 H1811 H 0.56875 0.56705 1.14600
 C1812 C 0.59335 0.59033 1.22150
 C1813 C 0.42598 0.33249 1.07299
 H1814 H 0.43302 0.35336 1.06624
 C1815 C 0.40714 0.27895 1.09112
 C1816 C 0.57554 0.66696 1.07445
 H1817 H 0.56662 0.64755 1.06581
 C1818 C 0.59992 0.71594 1.09802
 C1819 C 0.33423 0.42688 1.07538
 H1820 H 0.35497 0.43387 1.06827
 C1821 C 0.28082 0.40833 1.09421
 C1822 C 0.66646 0.57260 1.07359
 H1823 H 0.64591 0.56532 1.06615
 C1824 C 0.71909 0.59216 1.09347
 C1825 C 1.10032 1.11770 1.29810
 C1826 C 1.12940 1.12647 1.29877
 C1827 C 1.14621 1.12196 1.27447
 C1828 C 1.13449 1.11142 1.24946
 C1829 C 1.10563 1.10446 1.24772
 C1830 C 1.08838 1.10687 1.27232
 C1831 C 1.08341 1.11728 1.32296
 C1832 C 1.05518 1.10838 1.32211
 C1833 C 1.04338 1.09872 1.29679
 C1834 C 1.05983 1.09752 1.27221
 H1835 H 1.09200 1.12285 1.34351
 H1836 H 1.04257 1.10843 1.34134
 H1837 H 1.02156 1.09144 1.29635
 H1838 H 1.05008 1.08855 1.25342
 H1839 H 1.16837 1.12822 1.27416
 H1840 H 1.14803 1.10934 1.23095
 C1841 C 1.14130 0.65232 0.75856
 C1842 C 1.13994 0.63838 0.78524
 C1843 C 1.12738 0.61147 0.78722
 C1844 C 1.11536 0.59859 0.76343
 C1845 C 1.11555 0.61229 0.73701
 C1846 C 1.12902 0.63914 0.73419
 C1847 C 1.15506 0.67882 0.75547
 C1848 C 1.15661 0.69206 0.72896
 C1849 C 1.14464 0.67918 0.70513
 C1850 C 1.13104 0.65294 0.70758
 H1851 H 1.16494 0.68937 0.77339
 H1852 H 1.16728 0.71235 0.72685
 H1853 H 1.14601 0.68950 0.68462
 H1854 H 1.12253 0.64346 0.68842
 H1855 H 1.12646 0.60055 0.80750
 H1856 H 1.10533 0.57798 0.76575
 C1857 C 0.59773 1.11238 0.79939
 C1858 C 0.62587 1.12312 0.80068
 C1859 C 0.64322 1.12159 0.77656
 C1860 C 0.63287 1.11068 0.75107
 C1861 C 0.60483 1.10093 0.74886
 C1862 C 0.58710 1.10120 0.77326
 C1863 C 0.58011 1.11191 0.82366
 C1864 C 0.55256 1.10110 0.82216
 C1865 C 0.54218 1.09019 0.79667
 C1866 C 0.55926 1.08999 0.77246
 H1867 H 0.58755 1.11948 0.84406
 H1868 H 0.53929 1.10093 0.84094
 H1869 H 0.52087 1.08157 0.79571
 H1870 H 0.55057 1.08066 0.75331
 H1871 H 0.66482 1.12956 0.77731
 H1872 H 0.64668 1.11048 0.73265
 C1873 C 0.59603 0.61691 1.29896
 C1874 C 0.62571 0.62268 1.30134
 C1875 C 0.64366 0.61499 1.27874
 C1876 C 0.63275 0.60429 1.25346
 C1877 C 0.60353 0.59988 1.24993
 C1878 C 0.58498 0.60515 1.27318
 C1879 C 0.57740 0.62046 1.32230
 C1880 C 0.54864 0.61374 1.32002
 C1881 C 0.53792 0.60250 1.29487
 C1882 C 0.55587 0.59783 1.27181
 H1883 H 0.58490 0.62759 1.34283
 H1884 H 0.53472 0.61670 1.33809
 H1885 H 0.51567 0.59680 1.29343
 H1886 H 0.54678 0.58773 1.25326
 H1887 H 0.66633 0.61897 1.27987
 H1888 H 0.64731 0.60021 1.23610
 C1889 C 0.88817 0.90194 1.29925
 C1890 C 0.87477 0.87493 1.29910
 C1891 C 0.87406 0.85894 1.27399
 C1892 C 0.88559 0.86961 1.24896
 C1893 C 0.89823 0.89655 1.24828
 C1894 C 0.90003 0.91284 1.27360
 C1895 C 0.89066 0.91806 1.32447
 C1896 C 0.90437 0.94435 1.32437
 C1897 C 0.91604 0.95493 1.29934
 C1898 C 0.91401 0.93940 1.27416
 H1899 H 0.88240 0.91038 1.34451
 H1900 H 0.90619 0.95645 1.34387
 H1901 H 0.92699 0.97516 1.29949
 H1902 H 0.92382 0.94821 1.25532
 H1903 H 0.86408 0.83817 1.27371
 H1904 H 0.88422 0.85691 1.22977
 C1905 C 0.84959 0.36532 0.76399
 C1906 C 0.86490 0.36581 0.78998
 C1907 C 0.89249 0.37693 0.79067
 C1908 C 0.90482 0.38823 0.76628
 C1909 C 0.88994 0.38866 0.74049
 C1910 C 0.86226 0.37676 0.73898
 C1911 C 0.82223 0.35310 0.76215
 C1912 C 0.80766 0.35230 0.73631
 C1913 C 0.82008 0.36332 0.71184
 C1914 C 0.84715 0.37533 0.71302
 H1915 H 0.81198 0.34383 0.78052
 H1916 H 0.78671 0.34284 0.73521
 H1917 H 0.80876 0.36238 0.69178
 H1918 H 0.85620 0.38310 0.69337
 H1919 H 0.90446 0.37711 0.81037
 H1920 H 0.92604 0.39708 0.76761
 C1921 C 0.35739 0.89757 0.78343
 C1922 C 0.36945 0.87345 0.79738
 C1923 C 0.39357 0.86104 0.78467
 C1924 C 0.40509 0.87178 0.75959
 C1925 C 0.39089 0.89270 0.74348
 C1926 C 0.36476 0.90340 0.75466
 C1927 C 0.33820 0.91625 0.79697
 C1928 C 0.32149 0.93493 0.78103
 C1929 C 0.32394 0.93532 0.75154
 C1930 C 0.34528 0.91949 0.73833
 H1931 H 0.33566 0.91614 0.81983
 H1932 H 0.30597 0.94833 0.79148
 H1933 H 0.30985 0.94852 0.73895
 H1934 H 0.34649 0.92015 0.71538
 H1935 H 0.40409 0.84278 0.79379
 H1936 H 0.42517 0.86292 0.75286
 C1937 C 0.34173 0.36173 1.25647
 C1938 C 0.35708 0.35604 1.28206
 C1939 C 0.38631 0.36220 1.28304
 C1940 C 0.39979 0.37575 1.26053
 C1941 C 0.38484 0.38307 1.23586
 C1942 C 0.35579 0.37522 1.23321
 C1943 C 0.31341 0.35227 1.25254
 C1944 C 0.29898 0.35718 1.22710
 C1945 C 0.31258 0.37070 1.20467
 C1946 C 0.34078 0.37927 1.20743
 H1947 H 0.30233 0.34019 1.26861
 H1948 H 0.27730 0.34988 1.22458
 H1949 H 0.30143 0.37398 1.18477
 H1950 H 0.35077 0.38837 1.18887
 H1951 H 0.39863 0.35786 1.30205
 H1952 H 0.42209 0.38114 1.26263
 C1953 C 0.86461 1.15719 0.73515
 C1954 C 0.86035 1.13946 0.71086
 C1955 C 0.86709 1.11038 0.71292
 C1956 C 0.87951 1.09918 0.73725
 C1957 C 0.88510 1.11631 0.76091
 C1958 C 0.87689 1.14543 0.76039
 C1959 C 0.85488 1.18570 0.73580
 C1960 C 0.85819 1.20245 0.76004
 C1961 C 0.87047 1.19106 0.78442
 C1962 C 0.87937 1.16278 0.78483
 H1963 H 0.84382 1.19517 0.71799
 H1964 H 0.85067 1.22423 0.76010
 H1965 H 0.87258 1.20406 0.80331
 H1966 H 0.88752 1.15460 0.80472
 H1967 H 0.86412 1.09629 0.69490
 H1968 H 0.88533 1.07685 0.73742
 C1969 C 0.90175 0.62302 0.20226
 C1970 C 0.87182 0.62762 0.20023
 C1971 C 0.85444 0.61909 0.22294
 C1972 C 0.86603 0.60844 0.24793
 C1973 C 0.89543 0.60492 0.25109
 C1974 C 0.91354 0.61137 0.22779
 C1975 C 0.92001 0.62763 0.17880
 C1976 C 0.94910 0.62250 0.18087
 C1977 C 0.96053 0.61157 0.20583
 C1978 C 0.94298 0.60540 0.22882
 H1979 H 0.91205 0.63448 0.15835
 H1980 H 0.96277 0.62646 0.16280
 H1981 H 0.98306 0.60731 0.20721
 H1982 H 0.95275 0.59533 0.24703
 H1983 H 0.83162 0.62223 0.22208
 H1984 H 0.85179 0.60357 0.26536
 C1985 C 0.38805 1.09763 0.20072
 C1986 C 0.37583 1.12523 0.19971
 C1987 C 0.37511 1.14190 0.22437
 C1988 C 0.38549 1.13143 0.25004
 C1989 C 0.39696 1.10397 0.25184
 C1990 C 0.39874 1.08692 0.22702
 C1991 C 0.39054 1.08071 0.17603
 C1992 C 0.40307 1.05382 0.17727
 C1993 C 0.41359 1.04342 0.20293
 C1994 C 0.41159 1.05975 0.22759
 H1995 H 0.38324 1.08820 0.15553
 H1996 H 0.40488 1.04110 0.15817
 H1997 H 0.42364 1.02271 0.20368
 H1998 H 0.42053 1.05105 0.24693
 H1999 H 0.36594 1.16307 0.22383
 H2000 H 0.38418 1.14472 0.26882
 C2001 C 0.37387 0.60810 0.70768
 C2002 C 0.36228 0.63587 0.71017
 C2003 C 0.36532 0.65083 0.73573
 C2004 C 0.37893 0.63852 0.75896
 C2005 C 0.39001 0.61088 0.75735
 C2006 C 0.38789 0.59551 0.73147
 C2007 C 0.37251 0.59283 0.68184
 C2008 C 0.38437 0.56571 0.67960
 C2009 C 0.39810 0.55345 0.70280
 C2010 C 0.40006 0.56818 0.72846
 H2011 H 0.36259 0.60174 0.66308
 H2012 H 0.38313 0.55426 0.65966
 H2013 H 0.40750 0.53251 0.70082
 H2014 H 0.41151 0.55810 0.74570
 H2015 H 0.35680 0.67217 0.73777
 H2016 H 0.38044 0.65051 0.77859
 C2017 C 1.10270 0.87903 0.70180
 C2018 C 1.13093 0.86855 0.70394
 C2019 C 1.14566 0.87102 0.72968
 C2020 C 1.13275 0.88303 0.75338
 C2021 C 1.10471 0.89303 0.75210
 C2022 C 1.08947 0.89141 0.72610
 C2023 C 1.08759 0.87816 0.67583
 C2024 C 1.06001 0.88893 0.67395
 C2025 C 1.04712 0.90106 0.69766
 C2026 C 1.06168 0.90252 0.72347
 H2027 H 1.09699 0.86950 0.65672
 H2028 H 1.04868 0.88809 0.65392
 H2029 H 1.02581 0.90962 0.69597
 H2030 H 1.05108 0.91270 0.74114
 H2031 H 1.16728 0.86321 0.73152
 H2032 H 1.14467 0.88426 0.77309
 C2033 C 1.09469 0.38115 0.19840
 C2034 C 1.12463 0.37651 0.19664
 C2035 C 1.14179 0.38443 0.21978
 C2036 C 1.12996 0.39452 0.24487
 C2037 C 1.10053 0.39816 0.24770
 C2038 C 1.08266 0.39235 0.22400
 C2039 C 1.07669 0.37707 0.17461
 C2040 C 1.04766 0.38276 0.17624
 C2041 C 1.03601 0.39348 0.20118
 C2042 C 1.05328 0.39864 0.22470
 H2043 H 1.08487 0.37029 0.15424
 H2044 H 1.03423 0.37941 0.15783
 H2045 H 1.01353 0.39839 0.20211
 H2046 H 1.04342 0.40829 0.24306
 H2047 H 1.16460 0.38121 0.21917
 H2048 H 1.14402 0.39897 0.26259
 C2049 C 0.65118 0.86508 0.23629
 C2050 C 0.63603 0.86537 0.21020
 C2051 C 0.60845 0.87653 0.20923
 C2052 C 0.59597 0.88812 0.23340
 C2053 C 0.61071 0.88882 0.25927
 C2054 C 0.63836 0.87682 0.26109
 C2055 C 0.67851 0.85279 0.23842
 C2056 C 0.69292 0.85220 0.26435
 C2057 C 0.68035 0.86352 0.28863
 C2058 C 0.65329 0.87559 0.28716
 H2059 H 0.68885 0.84326 0.22022
 H2060 H 0.71386 0.84269 0.26568
 H2061 H 0.69154 0.86275 0.30876
 H2062 H 0.64412 0.88356 0.30668
 H2063 H 0.59661 0.87659 0.18943
 H2064 H 0.57476 0.89702 0.23185
 C2065 C 0.60069 0.38555 0.70058
 C2066 C 0.62856 0.37400 0.70190
 C2067 C 0.64357 0.37473 0.72762
 C2068 C 0.63131 0.38600 0.75201
 C2069 C 0.60359 0.39687 0.75154
 C2070 C 0.58806 0.39701 0.72566
 C2071 C 0.58537 0.38667 0.67476
 C2072 C 0.55809 0.39830 0.67377
 C2073 C 0.54573 0.40935 0.69828
 C2074 C 0.56054 0.40894 0.72398
 H2075 H 0.59439 0.37895 0.65507
 H2076 H 0.54658 0.39897 0.65383
 H2077 H 0.52464 0.41855 0.69731
 H2078 H 0.55037 0.41831 0.74235
 H2079 H 0.66487 0.36602 0.72894
 H2080 H 0.64345 0.38589 0.77162
 C2081 C 1.29964 1.11138 1.09718
 C2082 C 1.30051 1.12340 1.12484
 C2083 C 1.27602 1.12312 1.14172
 C2084 C 1.25063 1.11198 1.13141
 C2085 C 1.24891 1.10078 1.10388
 C2086 C 1.27359 1.10003 1.08658
 C2087 C 1.32424 1.10969 1.08010
 C2088 C 1.32310 1.09766 1.05302
 C2089 C 1.29766 1.08669 1.04262
 C2090 C 1.27315 1.08762 1.05923
 H2091 H 1.34460 1.11723 1.08761
 H2092 H 1.34214 1.09658 1.04016
 H2093 H 1.29699 1.07714 1.02169
 H2094 H 1.25403 1.07820 1.05057
 H2095 H 1.27645 1.13206 1.16296
 H2096 H 1.23196 1.11259 1.14487
 C2097 C 1.25868 0.63651 0.65608
 C2098 C 1.28380 0.64163 0.63995
 C2099 C 1.28378 0.63520 0.61077
 C2100 C 1.26070 0.62192 0.59803
 C2101 C 1.23632 0.61533 0.61366
 C2102 C 1.23465 0.62360 0.64269
 C2103 C 1.25603 0.64597 0.68453
 C2104 C 1.23081 0.64210 0.69958
 C2105 C 1.20752 0.62940 0.68656
 C2106 C 1.20920 0.62052 0.65834
 H2107 H 1.27300 0.65721 0.69520
 H2108 H 1.22916 0.64950 0.72132
 H2109 H 1.18789 0.62683 0.69824
 H2110 H 1.19011 0.61194 0.64883
 H2111 H 1.30247 0.63910 0.59789
 H2112 H 1.26213 0.61620 0.57576
 C2113 C 0.79652 1.12133 0.59997
 C2114 C 0.79634 1.12912 0.62933
 C2115 C 0.77219 1.12262 0.64568
 C2116 C 0.74807 1.11083 0.63341
 C2117 C 0.74710 1.10444 0.60437
 C2118 C 0.77168 1.10897 0.58748
 C2119 C 0.82142 1.12341 0.58325
 C2120 C 0.82143 1.11521 0.55477
 C2121 C 0.79705 1.10387 0.54252
 C2122 C 0.77255 1.10031 0.55871
 H2123 H 0.84140 1.13052 0.59208
 H2124 H 0.84064 1.11716 0.54228
 H2125 H 0.79734 1.09717 0.52052
 H2126 H 0.75462 1.09009 0.54859
 H2127 H 0.77122 1.12821 0.66801
 H2128 H 0.72958 1.10739 0.64668
 C2129 C 0.79661 0.61635 1.09982
 C2130 C 0.79595 0.62807 1.12760
 C2131 C 0.77094 0.62659 1.14360
 C2132 C 0.74647 0.61445 1.13230
 C2133 C 0.74628 0.60334 1.10467
 C2134 C 0.77156 0.60382 1.08826
 C2135 C 0.82181 0.61620 1.08352
 C2136 C 0.82222 0.60422 1.05640
 C2137 C 0.79778 0.59190 1.04514
 C2138 C 0.77269 0.59149 1.06089
 H2139 H 0.84143 0.62502 1.09164
 H2140 H 0.84168 0.60426 1.04414
 H2141 H 0.79832 0.58239 1.02418
 H2142 H 0.75439 0.58114 1.05157
 H2143 H 0.77028 0.63529 1.16493
 H2144 H 0.72731 0.61415 1.14506
 C2145 C 1.26309 0.84216 0.86855
 C2146 C 1.28615 0.86016 0.86079
 C2147 C 1.28248 0.88980 0.86264
 C2148 C 1.25801 0.90163 0.87408
 C2149 C 1.23549 0.88450 0.88317
 C2150 C 1.23737 0.85448 0.87922
 C2151 C 1.26411 0.81245 0.86384
 C2152 C 1.24084 0.79523 0.87009
 C2153 C 1.21582 0.80721 0.88028
 C2154 C 1.21386 0.83652 0.88442
 H2155 H 1.28246 0.80230 0.85445
 H2156 H 1.24201 0.77251 0.86636
 H2157 H 1.19763 0.79378 0.88447
 H2158 H 1.19349 0.84490 0.89095
 H2159 H 1.29956 0.90415 0.85691
 H2160 H 1.25707 0.92453 0.87662
 C2161 C 1.25544 0.34002 0.35886
 C2162 C 1.28025 0.35616 0.35232
 C2163 C 1.28007 0.38560 0.35756
 C2164 C 1.25726 0.39864 0.37108
 C2165 C 1.23331 0.38301 0.37919
 C2166 C 1.23176 0.35362 0.37216
 C2167 C 1.25270 0.31124 0.35043
 C2168 C 1.22800 0.29594 0.35607
 C2169 C 1.20511 0.30912 0.36927
 C2170 C 1.20668 0.33773 0.37683
 H2171 H 1.26912 0.30049 0.33855
 H2172 H 1.22638 0.27390 0.34956
 H2173 H 1.18578 0.29728 0.37309
 H2174 H 1.18774 0.34730 0.38564
 H2175 H 1.29850 0.39852 0.35265
 H2176 H 1.25862 0.42116 0.37585
 C2177 C 0.79775 0.88788 0.40070
 C2178 C 0.79843 0.87618 0.37289
 C2179 C 0.77375 0.87639 0.35622
 C2180 C 0.74835 0.88712 0.36689
 C2181 C 0.74683 0.89797 0.39459
 C2182 C 0.77170 0.89884 0.41166
 C2183 C 0.82253 0.88955 0.41761
 C2184 C 0.82158 0.90135 0.44480
 C2185 C 0.79614 0.91201 0.45552
 C2186 C 0.77143 0.91098 0.43913
 H2187 H 0.84289 0.88213 0.40991
 H2188 H 0.84074 0.90247 0.45753
 H2189 H 0.79560 0.92136 0.47655
 H2190 H 0.75230 0.92008 0.44806
 H2191 H 0.77404 0.86766 0.33489
 H2192 H 0.72952 0.88649 0.35359
 C2193 C 0.79518 0.39977 0.87594
 C2194 C 0.79565 0.37013 0.86924
 C2195 C 0.77190 0.35346 0.87628
 C2196 C 0.74748 0.36563 0.88755
 C2197 C 0.74591 0.39487 0.89308
 C2198 C 0.77017 0.41212 0.88806
 C2199 C 0.81968 0.41699 0.87306
 C2200 C 0.81921 0.44567 0.88055
 C2201 C 0.79474 0.45770 0.89193
 C2202 C 0.77059 0.44110 0.89608
 H2203 H 0.83975 0.40841 0.86590
 H2204 H 0.83814 0.45851 0.87807
 H2205 H 0.79468 0.47987 0.89819
 H2206 H 0.75263 0.45112 0.90631
 H2207 H 0.77154 0.33088 0.87157
 H2208 H 0.72927 0.35207 0.89142
 C2209 C 0.70563 0.89898 1.12034
 C2210 C 0.70701 0.87089 1.13136
 C2211 C 0.73246 0.85553 1.12949
 C2212 C 0.75659 0.86769 1.11758
 C2213 C 0.75606 0.89560 1.10716
 C2214 C 0.73040 0.91145 1.10816
 C2215 C 0.68000 0.91467 1.12045
 C2216 C 0.67892 0.94212 1.10924
 C2217 C 0.70311 0.95432 1.09740
 C2218 C 0.72860 0.93915 1.09664
 H2219 H 0.66053 0.90581 1.12881
 H2220 H 0.65913 0.95390 1.10950
 H2221 H 0.70206 0.97554 1.08851
 H2222 H 0.74668 0.94921 1.08666
 H2223 H 0.73375 0.83402 1.13771
 H2224 H 0.77603 0.85531 1.11683
 C2225 C 0.73475 0.34902 0.63283
 C2226 C 0.71029 0.36669 0.63628
 C2227 C 0.71233 0.39572 0.62945
 C2228 C 0.73680 0.40683 0.61726
 C2229 C 0.76052 0.38962 0.61212
 C2230 C 0.76007 0.36069 0.62083
 C2231 C 0.73545 0.32071 0.64310
 C2232 C 0.75985 0.30406 0.64058
 C2233 C 0.78434 0.31536 0.62858
 C2234 C 0.78467 0.34344 0.61911
 H2235 H 0.71755 0.31136 0.65402
 H2236 H 0.75994 0.28243 0.64853
 H2237 H 0.80338 0.30247 0.62715
 H2238 H 0.80461 0.35159 0.61116
 H2239 H 0.69422 0.40976 0.63205
 H2240 H 0.73702 0.42909 0.61121
 C2241 C 0.20682 0.89686 0.61893
 C2242 C 0.20836 0.86935 0.63134
 C2243 C 0.23431 0.85471 0.63153
 C2244 C 0.25870 0.86704 0.62028
 C2245 C 0.25796 0.89444 0.60861
 C2246 C 0.23189 0.90958 0.60764
 C2247 C 0.18077 0.91171 0.61672
 C2248 C 0.17960 0.93865 0.60432
 C2249 C 0.20413 0.95115 0.59356
 C2250 C 0.23004 0.93677 0.59497
 H2251 H 0.16104 0.90257 0.62412
 H2252 H 0.15949 0.94979 0.60284
 H2253 H 0.20303 0.97199 0.58380
 H2254 H 0.24844 0.94703 0.58580
 H2255 H 0.23576 0.83363 0.64078
 H2256 H 0.27846 0.85519 0.62091
 C2257 C 0.20247 0.40442 1.11750
 C2258 C 0.20101 0.37515 1.12559
 C2259 C 0.22502 0.35783 1.12129
 C2260 C 0.25039 0.36906 1.11122
 C2261 C 0.25279 0.39793 1.10441
 C2262 C 0.22856 0.41581 1.10689
 C2263 C 0.17807 0.42211 1.11747
 C2264 C 0.17964 0.45043 1.10884
 C2265 C 0.20519 0.46160 1.09915
 C2266 C 0.22932 0.44446 1.09774
 H2267 H 0.15732 0.41416 1.12319
 H2268 H 0.16077 0.46364 1.10913
 H2269 H 0.20615 0.48349 1.09204
 H2270 H 0.24828 0.45378 1.08875
 H2271 H 0.22469 0.33551 1.12712
 H2272 H 0.26860 0.35505 1.10922
 C2273 C 0.69987 1.09638 0.88525
 C2274 C 0.69764 1.12580 0.87796
 C2275 C 0.72069 1.14383 0.88404
 C2276 C 0.74616 1.13313 0.89461
 C2277 C 0.74951 1.10408 0.90030
 C2278 C 0.72597 1.08555 0.89655
 C2279 C 0.67617 1.07790 0.88368
 C2280 C 0.67847 1.04939 0.89150
 C2281 C 0.70401 1.03883 0.90197
 C2282 C 0.72740 1.05671 0.90496
 H2283 H 0.65538 1.08535 0.87729
 H2284 H 0.66014 1.03555 0.88998
 H2285 H 0.70554 1.01681 0.90845
 H2286 H 0.74627 1.04778 0.91460
 H2287 H 0.71970 1.16631 0.87895
 H2288 H 0.76379 1.14766 0.89760
 C2289 C 0.70166 0.59960 0.38740
 C2290 C 0.70143 0.62685 0.37435
 C2291 C 0.72645 0.64294 0.37362
 C2292 C 0.75172 0.63219 0.38469
 C2293 C 0.75277 0.60498 0.39678
 C2294 C 0.72758 0.58855 0.39862
 C2295 C 0.67655 0.58338 0.39019
 C2296 C 0.67709 0.55676 0.40329
 C2297 C 0.70243 0.54595 0.41414
 C2298 C 0.72747 0.56164 0.41199
 H2299 H 0.65626 0.59122 0.38269
 H2300 H 0.65768 0.54457 0.40528
 H2301 H 0.70265 0.52543 0.42456
 H2302 H 0.74655 0.55266 0.42122
 H2303 H 0.72653 0.66385 0.36389
 H2304 H 0.77081 0.64501 0.38335
 C2305 C 0.23331 1.13444 0.34819
 C2306 C 0.20885 1.13774 0.36578
 C2307 C 0.21123 1.13173 0.39497
 C2308 C 0.23604 1.12038 0.40634
 C2309 C 0.25982 1.11534 0.38924
 C2310 C 0.25903 1.12344 0.36014
 C2311 C 0.23355 1.14391 0.31962
 C2312 C 0.25801 1.14174 0.30307
 C2313 C 0.28293 1.13085 0.31468
 C2314 C 0.28363 1.12206 0.34297
 H2315 H 0.21522 1.15392 0.30998
 H2316 H 0.25777 1.14910 0.28125
 H2317 H 0.30200 1.12972 0.30186
 H2318 H 0.30385 1.11499 0.35134
 H2319 H 0.19312 1.13427 0.40898
 H2320 H 0.23643 1.11476 0.42869
 C2321 C 0.23814 0.65658 0.86446
 C2322 C 0.21264 0.64061 0.86248
 C2323 C 0.21183 0.61277 0.87302
 C2324 C 0.23557 0.60074 0.88595
 C2325 C 0.26091 0.61612 0.88864
 C2326 C 0.26256 0.64416 0.87749
 C2327 C 0.24013 0.68432 0.85305
 C2328 C 0.26550 0.69954 0.85462
 C2329 C 0.28944 0.68734 0.86708
 C2330 C 0.28816 0.65987 0.87822
 H2331 H 0.22228 0.69438 0.84255
 H2332 H 0.26670 0.72080 0.84583
 H2333 H 0.30918 0.69914 0.86791
 H2334 H 0.30749 0.65104 0.88703
 H2335 H 0.19250 0.60035 0.87146
 H2336 H 0.23412 0.57923 0.89414
 C2337 C 1.14890 1.27043 1.13171
 C2338 C 1.13235 1.29564 1.12975
 C2339 C 1.10531 1.29453 1.11729
 C2340 C 1.09477 1.26921 1.10617
 C2341 C 1.11094 1.24419 1.10713
 C2342 C 1.13811 1.24449 1.12028
 C2343 C 1.17561 1.27024 1.14550
 C2344 C 1.19147 1.24524 1.14758
 C2345 C 1.18095 1.21994 1.13639
 C2346 C 1.15447 1.21941 1.12304
 H2347 H 1.18433 1.28922 1.15513
 H2348 H 1.21191 1.24544 1.15818
 H2349 H 1.19326 1.20054 1.13832
 H2350 H 1.14690 1.19913 1.11526
 H2351 H 1.09239 1.31359 1.11586
 H2352 H 1.07386 1.26915 1.09647
 C2353 C 1.15382 0.76304 0.63513
 C2354 C 1.13860 0.78911 0.63411
 C2355 C 1.11156 0.78992 0.62165
 C2356 C 1.09966 0.76563 0.60970
 C2357 C 1.11444 0.73979 0.60983
 C2358 C 1.14161 0.73813 0.62290
 C2359 C 1.18054 0.76100 0.64872
 C2360 C 1.19498 0.73507 0.65002
 C2361 C 1.18307 0.71074 0.63807
 C2362 C 1.15659 0.71211 0.62474
 H2363 H 1.19035 0.77925 0.65872
 H2364 H 1.21543 0.73381 0.66054
 H2365 H 1.19427 0.69063 0.63940
 H2366 H 1.14787 0.69257 0.61628
 H2367 H 1.09965 0.80967 0.62095
 H2368 H 1.07880 0.76706 0.59999
 C2369 C 0.62105 1.29777 0.60074
 C2370 C 0.63182 1.29707 0.62890
 C2371 C 0.62989 1.27201 0.64483
 C2372 C 0.61811 1.24755 0.63313
 C2373 C 0.60777 1.24741 0.60518
 C2374 C 0.60879 1.27275 0.58879
 C2375 C 0.62157 1.32300 0.58443
 C2376 C 0.61040 1.32352 0.55695
 C2377 C 0.59824 1.29915 0.54535
 C2378 C 0.59722 1.27402 0.56108
 H2379 H 0.63032 1.34257 0.59281
 H2380 H 0.61095 1.34301 0.54469
 H2381 H 0.58933 1.29979 0.52412
 H2382 H 0.58699 1.25581 0.55145
 H2383 H 0.63791 1.27133 0.66644
 H2384 H 0.61737 1.22837 0.64591
 C2385 C 0.65372 0.76525 1.13437
 C2386 C 0.63753 0.79073 1.13499
 C2387 C 0.60968 0.79079 1.12447
 C2388 C 0.59789 0.76632 1.11275
 C2389 C 0.61356 0.74102 1.11127
 C2390 C 0.64158 0.74012 1.12252
 C2391 C 0.68142 0.76399 1.14596
 C2392 C 0.69688 0.73866 1.14566
 C2393 C 0.68498 0.71407 1.13427
 C2394 C 0.65755 0.71463 1.12299
 H2395 H 0.69127 0.78239 1.15563
 H2396 H 0.71810 0.73803 1.15458
 H2397 H 0.69697 0.69439 1.13440
 H2398 H 0.64894 0.69484 1.11503
 H2399 H 0.59707 0.81009 1.12507
 H2400 H 0.57640 0.76719 1.10445
 C2401 C 0.85158 1.26363 0.85956
 C2402 C 0.86422 1.29054 0.86433
 C2403 C 0.88896 1.29256 0.88077
 C2404 C 0.90107 1.26841 0.89293
 C2405 C 0.88874 1.24162 0.88898
 C2406 C 0.86398 1.23890 0.87197
 C2407 C 0.82710 1.26071 0.84241
 C2408 C 0.81517 1.23397 0.83756
 C2409 C 0.82733 1.20977 0.84963
 C2410 C 0.85153 1.21209 0.86665
 H2411 H 0.81714 1.27897 0.83249
 H2412 H 0.79646 1.23201 0.82428
 H2413 H 0.81805 1.18908 0.84565
 H2414 H 0.86047 1.19273 0.87537
 H2415 H 0.89885 1.31307 0.88436
 H2416 H 0.92012 1.27064 0.90572
 C2417 C 0.90044 0.80057 0.38749
 C2418 C 0.87310 0.80055 0.37473
 C2419 C 0.85718 0.77541 0.37414
 C2420 C 0.86822 0.75022 0.38511
 C2421 C 0.89551 0.74942 0.39701
 C2422 C 0.91175 0.77476 0.39873
 C2423 C 0.91650 0.82583 0.38995
 C2424 C 0.94316 0.82558 0.40296
 C2425 C 0.95416 0.80038 0.41398
 C2426 C 0.93868 0.77517 0.41201
 H2427 H 0.90851 0.84600 0.38225
 H2428 H 0.95522 0.84511 0.40475
 H2429 H 0.97466 0.80042 0.42437
 H2430 H 0.94783 0.75620 0.42132
 H2431 H 0.83619 0.77520 0.36461
 H2432 H 0.85555 0.73102 0.38386
 C2433 C 0.34399 1.25650 0.35829
 C2434 C 0.35671 1.28386 0.35828
 C2435 C 0.38301 1.28784 0.37169
 C2436 C 0.39657 1.26544 0.38552
 C2437 C 0.38417 1.23842 0.38645
 C2438 C 0.35777 1.23359 0.37264
 C2439 C 0.31829 1.25117 0.34368
 C2440 C 0.30611 1.22412 0.34376
 C2441 C 0.31944 1.20180 0.35797
 C2442 C 0.34512 1.20633 0.37211
 H2443 H 0.30763 1.26768 0.33172
 H2444 H 0.28636 1.22039 0.33252
 H2445 H 0.30999 1.18081 0.35779
 H2446 H 0.35504 1.18822 0.38233
 H2447 H 0.39305 1.30859 0.37159
 H2448 H 0.41685 1.26924 0.39579
 C2449 C 0.37977 0.79987 0.90439
 C2450 C 0.37151 0.80003 0.87542
 C2451 C 0.37649 0.77597 0.85863
 C2452 C 0.38862 0.75159 0.87017
 C2453 C 0.39651 0.75048 0.89890
 C2454 C 0.39270 0.77501 0.91620
 C2455 C 0.37596 0.82407 0.92173
 C2456 C 0.38483 0.82390 0.95004
 C2457 C 0.39790 0.79986 0.96145
 C2458 C 0.40200 0.77568 0.94474
 H2459 H 0.36639 0.84334 0.91349
 H2460 H 0.38183 0.84262 0.96311
 H2461 H 0.40508 0.80002 0.98334
 H2462 H 0.41286 0.75777 0.95431
 H2463 H 0.37025 0.77583 0.83643
 H2464 H 0.39131 0.73312 0.85663
 C2465 C 1.10400 0.70722 0.87463
 C2466 C 1.13202 0.70968 0.86375
 C2467 C 1.14657 0.73552 0.86638
 C2468 C 1.13370 0.75898 0.87897
 C2469 C 1.10589 0.75736 0.88941
 C2470 C 1.09081 0.73129 0.88757
 C2471 C 1.08908 0.68117 0.87368
 C2472 C 1.06170 0.67901 0.88479
 C2473 C 1.04883 0.70250 0.89739
 C2474 C 1.06322 0.72838 0.89900
 H2475 H 1.09848 0.66218 0.86470
 H2476 H 1.05052 0.65891 0.88387
 H2477 H 1.02769 0.70060 0.90623
 H2478 H 1.05266 0.74587 0.90958
 H2479 H 1.16804 0.73761 0.85832
 H2480 H 1.14543 0.77876 0.88029
 C2481 C 1.09991 0.20097 0.38623
 C2482 C 1.12641 0.20219 0.37194
 C2483 C 1.14044 0.22832 0.36924
 C2484 C 1.12852 0.25313 0.38001
 C2485 C 1.10219 0.25262 0.39376
 C2486 C 1.08762 0.22647 0.39714
 C2487 C 1.08574 0.17489 0.39062
 C2488 C 1.05985 0.17402 0.40501
 C2489 C 1.04779 0.19895 0.41553
 C2490 C 1.06149 0.22498 0.41175
 H2491 H 1.09472 0.15498 0.38345
 H2492 H 1.04923 0.15386 0.40825
 H2493 H 1.02790 0.19806 0.42699
 H2494 H 1.05161 0.24380 0.42061
 H2495 H 1.16073 0.22954 0.35843
 H2496 H 1.13981 0.27302 0.37740
 C2497 C 0.64472 0.72984 0.36488
 C2498 C 0.62897 0.70428 0.36789
 C2499 C 0.60213 0.70502 0.38071
 C2500 C 0.59115 0.73036 0.39144
 C2501 C 0.60667 0.75569 0.38965
 C2502 C 0.63346 0.75577 0.37585
 C2503 C 0.67111 0.73033 0.35059
 C2504 C 0.68616 0.75569 0.34746
 C2505 C 0.67516 0.78102 0.35817
 C2506 C 0.64903 0.78120 0.37212
 H2507 H 0.68019 0.71129 0.34139
 H2508 H 0.70635 0.75574 0.33644
 H2509 H 0.68683 0.80067 0.35544
 H2510 H 0.64105 0.80145 0.37959
 H2511 H 0.58981 0.68567 0.38287
 H2512 H 0.57052 0.73014 0.40167
 C2513 C 0.59780 0.20194 0.88555
 C2514 C 0.62490 0.20166 0.87235
 C2515 C 0.64054 0.22690 0.87046
 C2516 C 0.62959 0.25238 0.88086
 C2517 C 0.60268 0.25339 0.89349
 C2518 C 0.58659 0.22804 0.89621
 C2519 C 0.58194 0.17670 0.88916
 C2520 C 0.55561 0.17720 0.90271
 C2521 C 0.54472 0.20267 0.91318
 C2522 C 0.55998 0.22789 0.91007
 H2523 H 0.58989 0.15634 0.88198
 H2524 H 0.54372 0.15767 0.90538
 H2525 H 0.52449 0.20283 0.92408
 H2526 H 0.55093 0.24710 0.91896
 H2527 H 0.66137 0.22689 0.86065
 H2528 H 0.64217 0.27158 0.87887
 C2529 C 0.85005 0.73301 1.13257
 C2530 C 0.86632 0.70756 1.13183
 C2531 C 0.89386 0.70803 1.12058
 C2532 C 0.90521 0.73295 1.10942
 C2533 C 0.88938 0.75819 1.10916
 C2534 C 0.86169 0.75856 1.12115
 C2535 C 0.82279 0.73384 1.14512
 C2536 C 0.80721 0.75908 1.14598
 C2537 C 0.81857 0.78403 1.13485
 C2538 C 0.84561 0.78394 1.12275
 H2539 H 0.81339 0.71517 1.15469
 H2540 H 0.78631 0.75936 1.15560
 H2541 H 0.80648 0.80362 1.13585
 H2542 H 0.85384 0.80398 1.11505
 H2543 H 0.90656 0.68877 1.12013
 H2544 H 0.92645 0.73248 1.10056
 C2545 C 0.89486 0.20485 0.61851
 C2546 C 0.86731 0.20687 0.63051
 C2547 C 0.85252 0.23268 0.62928
 C2548 C 0.86485 0.25663 0.61702
 C2549 C 0.89231 0.25544 0.60556
 C2550 C 0.90743 0.22931 0.60580
 C2551 C 0.90996 0.17886 0.61837
 C2552 C 0.93677 0.17700 0.60590
 C2553 C 0.94892 0.20081 0.59321
 C2554 C 0.93448 0.22675 0.59307
 H2555 H 0.90109 0.15973 0.62758
 H2556 H 0.94807 0.15692 0.60584
 H2557 H 0.96954 0.19912 0.58321
 H2558 H 0.94452 0.24457 0.58257
 H2559 H 0.83137 0.23438 0.63823
 H2560 H 0.85302 0.27643 0.61682
 C2561 C 0.34686 0.73984 0.63779
 C2562 C 0.36062 0.71296 0.63745
 C2563 C 0.38736 0.71023 0.62471
 C2564 C 0.40030 0.73341 0.61168
 C2565 C 0.38687 0.75999 0.61102
 C2566 C 0.36012 0.76359 0.62449
 C2567 C 0.32054 0.74383 0.65169
 C2568 C 0.30746 0.77047 0.65216
 C2569 C 0.32045 0.79368 0.63922
 C2570 C 0.34659 0.79044 0.62567
 H2571 H 0.30999 0.72657 0.66262
 H2572 H 0.28728 0.77318 0.66286
 H2573 H 0.31034 0.81437 0.63993
 H2574 H 0.35616 0.80922 0.61649
 H2575 H 0.39813 0.68983 0.62453
 H2576 H 0.42086 0.73054 0.60172
 C2577 C 0.38637 0.20009 1.09554
 C2578 C 0.37513 0.19941 1.12353
 C2579 C 0.37552 0.22419 1.14007
 C2580 C 0.38614 0.24957 1.12921
 C2581 C 0.39669 0.25105 1.10142
 C2582 C 0.39715 0.22615 1.08435
 C2583 C 0.38789 0.17526 1.07869
 C2584 C 0.39919 0.17618 1.05131
 C2585 C 0.40958 0.20163 1.04036
 C2586 C 0.40882 0.22638 1.05670
 H2587 H 0.38080 0.15489 1.08660
 H2588 H 0.40015 0.15698 1.03863
 H2589 H 0.41857 0.20214 1.01918
 H2590 H 0.41775 0.24550 1.04759
 H2591 H 0.36716 0.22394 1.16153
 H2592 H 0.38580 0.26839 1.14251
 C2593 C 1.09880 1.11459 0.69902
 C2594 C 1.12593 1.12776 0.70001
 C2595 C 1.14072 1.12896 0.72586
 C2596 C 1.12899 1.11787 0.75061
 C2597 C 1.10198 1.10542 0.75038
 C2598 C 1.08660 1.10359 0.72450
 C2599 C 1.08389 1.11132 0.67317
 C2600 C 1.05723 1.09839 0.67254
 C2601 C 1.04514 1.08806 0.69748
 C2602 C 1.05969 1.09038 0.72323
 H2603 H 1.09286 1.11822 0.65321
 H2604 H 1.04601 1.09615 0.65255
 H2605 H 1.02451 1.07788 0.69681
 H2606 H 1.04980 1.08150 0.74199
 H2607 H 1.16149 1.13885 0.72694
 H2608 H 1.14098 1.11928 0.77025
 C2609 C 1.09905 0.61702 0.19954
 C2610 C 1.12716 0.62838 0.19983
 C2611 C 1.14299 0.62696 0.22518
 C2612 C 1.13111 0.61654 0.25012
 C2613 C 1.10312 0.60658 0.25068
 C2614 C 1.08700 0.60611 0.22519
 C2615 C 1.08359 0.61385 0.17393
 C2616 C 1.05670 0.60143 0.17372
 C2617 C 1.04487 0.59128 0.19881
 C2618 C 1.05976 0.59354 0.22434
 H2619 H 1.09256 0.61970 0.15367
 H2620 H 1.04529 0.59904 0.15386
 H2621 H 1.02439 0.58087 0.19834
 H2622 H 1.05008 0.58454 0.24314
 H2623 H 1.16450 0.63518 0.22611
 H2624 H 1.14383 0.61657 0.26936
 C2625 C 0.64599 1.13799 0.23289
 C2626 C 0.63140 1.13477 0.20664
 C2627 C 0.60507 1.12090 0.20604
 C2628 C 0.59349 1.10939 0.23072
 C2629 C 0.60795 1.11135 0.25667
 C2630 C 0.63421 1.12606 0.25810
 C2631 C 0.67170 1.15341 0.23479
 C2632 C 0.68570 1.15649 0.26078
 C2633 C 0.67430 1.14463 0.28535
 C2634 C 0.64874 1.12969 0.28417
 H2635 H 0.68104 1.16353 0.21640
 H2636 H 0.70540 1.16833 0.26188
 H2637 H 0.68518 1.14726 0.30549
 H2638 H 0.64037 1.12132 0.30389
 H2639 H 0.59362 1.11855 0.18617
 H2640 H 0.57326 1.09846 0.22950
 C2641 C 0.65692 0.64182 0.74480
 C2642 C 0.64309 0.64370 0.71803
 C2643 C 0.61534 0.63335 0.71503
 C2644 C 0.60145 0.62046 0.73771
 C2645 C 0.61491 0.61749 0.76409
 C2646 C 0.64271 0.62859 0.76804
 C2647 C 0.68427 0.65343 0.74919
 C2648 C 0.69751 0.65157 0.77569
 C2649 C 0.68369 0.63855 0.79834
 C2650 C 0.65646 0.62742 0.79476
 H2651 H 0.69556 0.66430 0.73238
 H2652 H 0.71852 0.66047 0.77873
 H2653 H 0.69403 0.63725 0.81886
 H2654 H 0.64627 0.61823 0.81319
 H2655 H 0.60448 0.63488 0.69474
 H2656 H 0.58017 0.61224 0.73452
 C2657 C 0.88442 0.90342 0.70005
 C2658 C 0.87269 0.87561 0.70002
 C2659 C 0.87224 0.85983 0.72525
 C2660 C 0.88257 0.87131 0.75049
 C2661 C 0.89366 0.89894 0.75132
 C2662 C 0.89492 0.91523 0.72595
 C2663 C 0.88668 0.91946 0.67477
 C2664 C 0.89850 0.94666 0.67507
 C2665 C 0.90865 0.95822 0.70036
 C2666 C 0.90712 0.94267 0.72557
 H2667 H 0.87978 0.91102 0.65453
 H2668 H 0.90003 0.95871 0.65551
 H2669 H 0.91803 0.97925 0.70039
 H2670 H 0.91586 0.95224 0.74458
 H2671 H 0.86347 0.83852 0.72547
 H2672 H 0.88167 0.85858 0.76968
 C2673 C 0.88621 0.40486 0.19844
 C2674 C 0.87455 0.37703 0.19741
 C2675 C 0.87414 0.36037 0.22208
 C2676 C 0.88444 0.37096 0.24772
 C2677 C 0.89548 0.39856 0.24953
 C2678 C 0.89673 0.41574 0.22474
 C2679 C 0.88842 0.42182 0.17375
 C2680 C 0.90021 0.44899 0.17502
 C2681 C 0.91042 0.45963 0.20069
 C2682 C 0.90894 0.44317 0.22532
 H2683 H 0.88146 0.41415 0.15323
 H2684 H 0.90170 0.46176 0.15591
 H2685 H 0.91981 0.48064 0.20147
 H2686 H 0.91775 0.45204 0.24463
 H2687 H 0.86548 0.33901 0.22152
 H2688 H 0.88352 0.35757 0.26646
 C2689 C 0.37703 0.89632 0.20550
 C2690 C 0.36549 0.86851 0.20773
 C2691 C 0.36721 0.85390 0.23361
 C2692 C 0.37952 0.86652 0.25734
 C2693 C 0.39050 0.89417 0.25597
 C2694 C 0.38958 0.90930 0.22988
 C2695 C 0.37714 0.91122 0.17941
 C2696 C 0.38884 0.93841 0.17753
 C2697 C 0.40097 0.95110 0.20135
 C2698 C 0.40156 0.93671 0.22728
 H2699 H 0.36860 0.90195 0.16018
 H2700 H 0.38873 0.94958 0.15740
 H2701 H 0.41024 0.97208 0.19966
 H2702 H 0.41178 0.94713 0.24506
 H2703 H 0.35863 0.83259 0.23553
 H2704 H 0.38022 0.85471 0.27713
 C2705 C 0.34864 0.36629 0.73373
 C2706 C 0.36448 0.36734 0.70810
 C2707 C 0.39137 0.38010 0.70798
 C2708 C 0.40255 0.39220 0.73254
 C2709 C 0.38718 0.39198 0.75799
 C2710 C 0.36008 0.37876 0.75891
 C2711 C 0.32206 0.35240 0.73513
 C2712 C 0.30691 0.35126 0.76057
 C2713 C 0.31805 0.36348 0.78513
 C2714 C 0.34445 0.37692 0.78447
 H2715 H 0.31288 0.34202 0.71677
 H2716 H 0.28654 0.34059 0.76130
 H2717 H 0.30628 0.36230 0.80487
 H2718 H 0.35254 0.38552 0.80421
 H2719 H 0.40373 0.38089 0.68857
 H2720 H 0.42337 0.40202 0.73167
 C2721 C 1.09321 0.88445 1.30070
 C2722 C 1.12282 0.87826 1.30343
 C2723 C 1.14081 0.88408 1.28032
 C2724 C 1.13003 0.89358 1.25451
 C2725 C 1.10091 0.89848 1.25078
 C2726 C 1.08227 0.89473 1.27422
 C2727 C 1.07459 0.88290 1.32426
 C2728 C 1.04590 0.88980 1.32155
 C2729 C 1.03524 0.89934 1.29567
 C2730 C 1.05321 0.90223 1.27234
 H2731 H 1.08206 0.87729 1.34524
 H2732 H 1.03199 0.88832 1.33980
 H2733 H 1.01303 0.90517 1.29384
 H2734 H 1.04417 0.91108 1.25314
 H2735 H 1.16340 0.87970 1.28162
 H2736 H 1.14463 0.89655 1.23696
 C2737 C 1.13743 0.34383 0.76116
 C2738 C 1.14086 0.36042 0.78638
 C2739 C 1.13296 0.38929 0.78575
 C2740 C 1.12013 0.40123 0.76194
 C2741 C 1.11514 0.38505 0.73750
 C2742 C 1.12450 0.35631 0.73659
 C2743 C 1.14865 0.31594 0.75890
 C2744 C 1.14592 0.30034 0.73385
 C2745 C 1.13284 0.31232 0.71020
 C2746 C 1.12257 0.34011 0.71132
 H2747 H 1.16047 0.30615 0.77601
 H2748 H 1.15455 0.27900 0.73260
 H2749 H 1.13122 0.30025 0.69065
 H2750 H 1.11381 0.34888 0.69195
 H2751 H 1.13540 0.40257 0.80444
 H2752 H 1.11350 0.42331 0.76279
 C2753 C 0.64916 0.86266 0.76374
 C2754 C 0.63438 0.86542 0.78985
 C2755 C 0.60779 0.87882 0.79037
 C2756 C 0.59602 0.89019 0.76568
 C2757 C 0.61049 0.88845 0.73976
 C2758 C 0.63707 0.87421 0.73844
 C2759 C 0.67537 0.84808 0.76209
 C2760 C 0.68936 0.84503 0.73613
 C2761 C 0.67751 0.85622 0.71139
 C2762 C 0.65159 0.87062 0.71241
 H2763 H 0.68511 0.83865 0.78070
 H2764 H 0.70941 0.83373 0.73517
 H2765 H 0.68837 0.85357 0.69128
 H2766 H 0.64293 0.87856 0.69261
 H2767 H 0.59622 0.88081 0.81018
 H2768 H 0.57558 0.90079 0.76685
 C2769 C 0.59594 0.38038 1.29794
 C2770 C 0.62574 0.37497 1.29989
 C2771 C 0.64316 0.38232 1.27680
 C2772 C 0.63167 0.39252 1.25159
 C2773 C 0.60236 0.39682 1.24856
 C2774 C 0.58428 0.39169 1.27220
 C2775 C 0.57779 0.37693 1.32166
 C2776 C 0.54892 0.38336 1.31982
 C2777 C 0.53761 0.39420 1.29474
 C2778 C 0.55507 0.39874 1.27128
 H2779 H 0.58575 0.37009 1.34212
 H2780 H 0.53536 0.38050 1.33818
 H2781 H 0.51528 0.39969 1.29364
 H2782 H 0.54552 0.40852 1.25279
 H2783 H 0.66588 0.37850 1.27754
 H2784 H 0.64589 0.39644 1.23391
 C2785 C 0.88827 1.09989 1.29895
 C2786 C 0.87477 1.12689 1.29886
 C2787 C 0.87414 1.14298 1.27381
 C2788 C 0.88582 1.13243 1.24877
 C2789 C 0.89855 1.10549 1.24804
 C2790 C 0.90030 1.08911 1.27331
 C2791 C 0.89070 1.08366 1.32411
 C2792 C 0.90451 1.05738 1.32397
 C2793 C 0.91634 1.04692 1.29895
 C2794 C 0.91437 1.06256 1.27383
 H2795 H 0.88231 1.09123 1.34414
 H2796 H 0.90628 1.04519 1.34343
 H2797 H 0.92736 1.02671 1.29907
 H2798 H 0.92432 1.05386 1.25501
 H2799 H 0.86411 1.16375 1.27357
 H2800 H 0.88449 1.14520 1.22963
 C2801 C 0.86289 0.65155 0.76173
 C2802 C 0.86461 0.63713 0.78814
 C2803 C 0.87840 0.61078 0.78978
 C2804 C 0.89100 0.59881 0.76585
 C2805 C 0.89014 0.61284 0.73961
 C2806 C 0.87568 0.63925 0.73719
 C2807 C 0.84821 0.67765 0.75905
 C2808 C 0.84615 0.69127 0.73277
 C2809 C 0.85849 0.67917 0.70874
 C2810 C 0.87306 0.65338 0.71080
 H2811 H 0.83798 0.68757 0.77711
 H2812 H 0.83477 0.71123 0.73099
 H2813 H 0.85665 0.68976 0.68837
 H2814 H 0.88194 0.64455 0.69151
 H2815 H 0.87963 0.59953 0.80986
 H2816 H 0.90174 0.57848 0.76783
 C2817 C 0.35663 1.13179 0.77110
 C2818 C 0.37219 1.12922 0.79688
 C2819 C 0.39927 1.11686 0.79665
 C2820 C 0.41086 1.10641 0.77145
 C2821 C 0.39572 1.10819 0.74584
 C2822 C 0.36854 1.12128 0.74536
 C2823 C 0.32976 1.14531 0.77022
 C2824 C 0.31497 1.14818 0.74465
 C2825 C 0.32668 1.13802 0.71948
 C2826 C 0.35324 1.12483 0.71969
 H2827 H 0.32000 1.15402 0.78912
 H2828 H 0.29443 1.15858 0.74434
 H2829 H 0.31523 1.14057 0.69965
 H2830 H 0.36175 1.11782 0.69951
 H2831 H 0.41149 1.11531 0.81614
 H2832 H 0.43174 1.09666 0.77194
 C2833 C 0.38615 0.59926 1.29912
 C2834 C 0.37529 0.62742 1.29896
 C2835 C 0.37725 0.64384 1.27422
 C2836 C 0.38886 0.63256 1.24949
 C2837 C 0.39898 0.60451 1.24873
 C2838 C 0.39820 0.58773 1.27381
 C2839 C 0.38583 0.58252 1.32405
 C2840 C 0.39700 0.55502 1.32401
 C2841 C 0.40894 0.54381 1.29937
 C2842 C 0.40973 0.55997 1.27450
 H2843 H 0.37729 0.59060 1.34381
 H2844 H 0.39664 0.54243 1.34329
 H2845 H 0.41783 0.52255 1.29957
 H2846 H 0.41977 0.55064 1.25605
 H2847 H 0.36913 0.66544 1.27390
 H2848 H 0.38944 0.64566 1.23053
 C2849 C 1.15680 1.26089 0.86383
 C2850 C 1.14048 1.28618 0.86136
 C2851 C 1.11228 1.28645 0.87080
 C2852 C 1.10027 1.26246 0.88323
 C2853 C 1.11599 1.23734 0.88650
 C2854 C 1.14441 1.23617 0.87630
 C2855 C 1.18494 1.25942 0.85351
 C2856 C 1.20058 1.23428 0.85556
 C2857 C 1.18842 1.21006 0.86744
 C2858 C 1.16056 1.21081 0.87748
 H2859 H 1.19500 1.27752 0.84350
 H2860 H 1.22215 1.23348 0.84760
 H2861 H 1.20057 1.19050 0.86863
 H2862 H 1.15180 1.19125 0.88576
 H2863 H 1.09958 1.30562 0.86892
 H2864 H 1.07851 1.26361 0.89071
 C2865 C 1.09725 0.80135 0.39017
 C2866 C 1.12399 0.80214 0.37633
 C2867 C 1.13992 0.77710 0.37366
 C2868 C 1.12950 0.75131 0.38374
 C2869 C 1.10283 0.74976 0.39680
 C2870 C 1.08657 0.77492 0.40050
 C2871 C 1.08122 0.82636 0.39466
 C2872 C 1.05521 0.82533 0.40880
 C2873 C 1.04485 0.79953 0.41897
 C2874 C 1.06028 0.77451 0.41492
 H2875 H 1.08882 0.84693 0.38775
 H2876 H 1.04319 0.84469 0.41219
 H2877 H 1.02491 0.79894 0.43035
 H2878 H 1.05165 0.75502 0.42356
 H2879 H 1.16048 0.77748 0.36329
 H2880 H 1.14221 0.73225 0.38099
 C2881 C 0.65051 1.26990 0.36845
 C2882 C 0.63267 1.29434 0.36551
 C2883 C 0.60374 1.29197 0.37252
 C2884 C 0.59289 1.26714 0.38433
 C2885 C 0.61026 1.24338 0.38889
 C2886 C 0.63912 1.24424 0.38006
 C2887 C 0.67873 1.26957 0.35798
 C2888 C 0.69556 1.24524 0.36004
 C2889 C 0.68453 1.22042 0.37166
 C2890 C 0.65653 1.21970 0.38121
 H2891 H 0.68788 1.28768 0.34724
 H2892 H 0.71711 1.24546 0.35198
 H2893 H 0.69754 1.20143 0.37269
 H2894 H 0.64860 1.19950 0.38875
 H2895 H 0.58957 1.31004 0.37026
 H2896 H 0.57071 1.26666 0.39048
 C2897 C 0.60228 0.79736 0.88150
 C2898 C 0.63025 0.79623 0.87034
 C2899 C 0.64600 0.77103 0.87253
 C2900 C 0.63425 0.74681 0.88474
 C2901 C 0.60640 0.74705 0.89524
 C2902 C 0.59026 0.77256 0.89414
 C2903 C 0.58623 0.82278 0.88101
 C2904 C 0.55891 0.82367 0.89244
 C2905 C 0.54722 0.79950 0.90487
 C2906 C 0.56272 0.77420 0.90593
 H2907 H 0.59470 0.84223 0.87212
 H2908 H 0.54685 0.84330 0.89190
 H2909 H 0.52611 0.80042 0.91397
 H2910 H 0.55304 0.75616 0.91639
 H2911 H 0.66746 0.76999 0.86423
 H2912 H 0.64684 0.72749 0.88554
 C2913 C 0.88575 1.30145 1.09228
 C2914 C 0.87872 1.30414 1.12169
 C2915 C 0.88464 1.28122 1.13999
 C2916 C 0.89495 1.25552 1.12962
 C2917 C 0.90055 1.25177 1.10065
 C2918 C 0.89686 1.27512 1.08180
 C2919 C 0.88417 1.32493 1.07347
 C2920 C 0.89194 1.32224 1.04502
 C2921 C 0.90233 1.29652 1.03480
 C2922 C 0.90519 1.27329 1.05299
 H2923 H 0.87784 1.34584 1.08062
 H2924 H 0.89047 1.34043 1.03095
 H2925 H 0.90881 1.29473 1.01279
 H2926 H 0.91470 1.25422 1.04434
 H2927 H 0.87969 1.28253 1.16245
 H2928 H 0.89786 1.23805 1.14439
 C2929 C 0.90232 0.79908 0.61427
 C2930 C 0.87458 0.79911 0.62609
 C2931 C 0.85864 0.77396 0.62611
 C2932 C 0.86987 0.74883 0.61524
 C2933 C 0.89740 0.74803 0.60397
 C2934 C 0.91384 0.77331 0.60313
 C2935 C 0.91859 0.82427 0.61257
 C2936 C 0.94566 0.82400 0.60055
 C2937 C 0.95691 0.79885 0.58969
 C2938 C 0.94116 0.77375 0.59074
 H2939 H 0.91047 0.84443 0.62014
 H2940 H 0.95789 0.84346 0.59943
 H2941 H 0.97784 0.79884 0.58016
 H2942 H 0.95049 0.75487 0.58146
 H2943 H 0.83736 0.77375 0.63492
 H2944 H 0.85705 0.72968 0.61589
 C2945 C 0.38158 1.29805 0.59937
 C2946 C 0.37435 1.29891 0.62883
 C2947 C 0.38143 1.27549 0.64605
 C2948 C 0.39301 1.25089 0.63449
 C2949 C 0.39875 1.24884 0.60538
 C2950 C 0.39397 1.27286 0.58767
 C2951 C 0.37885 1.32231 0.58173
 C2952 C 0.38676 1.32141 0.55320
 C2953 C 0.39839 1.29674 0.54177
 C2954 C 0.40237 1.27282 0.55882
 H2955 H 0.37146 1.34250 0.58988
 H2956 H 0.38440 1.34016 0.54003
 H2957 H 0.40495 1.29633 0.51972
 H2958 H 0.41275 1.25465 0.54929
 H2959 H 0.37633 1.27542 0.66852
 H2960 H 0.39673 1.23287 0.64839
 C2961 C 0.36743 0.76451 1.15681
 C2962 C 0.36189 0.78871 1.13933
 C2963 C 0.36807 0.78722 1.11018
 C2964 C 0.38139 0.76353 1.09862
 C2965 C 0.38816 0.73992 1.11547
 C2966 C 0.38031 0.73981 1.14464
 C2967 C 0.35837 0.76335 1.18548
 C2968 C 0.36268 0.73904 1.20191
 C2969 C 0.37528 0.71507 1.19005
 C2970 C 0.38368 0.71521 1.16166
 H2971 H 0.34706 0.78077 1.19534
 H2972 H 0.35563 0.73859 1.22381
 H2973 H 0.37804 0.69605 1.20276
 H2974 H 0.39209 0.69558 1.15315
 H2975 H 0.36386 0.80520 1.09635
 H2976 H 0.38679 0.76377 1.07623
 C2977 C 0.89566 0.70558 0.87923
 C2978 C 0.86761 0.70702 0.86812
 C2979 C 0.85207 0.73231 0.87066
 C2980 C 0.86406 0.75631 0.88310
 C2981 C 0.89200 0.75580 0.89340
 C2982 C 0.90798 0.73022 0.89193
 C2983 C 0.91149 0.68003 0.87866
 C2984 C 0.93894 0.67891 0.88987
 C2985 C 0.95098 0.70298 0.90218
 C2986 C 0.93567 0.72838 0.90344
 H2987 H 0.90275 0.66062 0.86994
 H2988 H 0.95083 0.65918 0.88924
 H2989 H 0.97218 0.70190 0.91109
 H2990 H 0.94560 0.74635 0.91381
 H2991 H 0.83058 0.73364 0.86242
 H2992 H 0.85160 0.77569 0.88418
 C2993 C 0.90111 0.20165 0.38626
 C2994 C 0.87324 0.20109 0.37470
 C2995 C 0.85668 0.22586 0.37497
 C2996 C 0.86755 0.25125 0.38557
 C2997 C 0.89532 0.25267 0.39623
 C2998 C 0.91226 0.22769 0.39710
 C2999 C 0.91791 0.17677 0.38793
 C3000 C 0.94514 0.17761 0.39965
 C3001 C 0.95601 0.20304 0.41022
 C3002 C 0.93977 0.22785 0.40915
 H3003 H 0.91007 0.15642 0.38059
 H3004 H 0.95778 0.15838 0.40079
 H3005 H 0.97702 0.20349 0.41957
 H3006 H 0.94884 0.24697 0.41817
 H3007 H 0.83531 0.22565 0.36633
 H3008 H 0.85433 0.27015 0.38497
 C3009 C 0.40168 0.70183 0.38300
 C3010 C 0.37242 0.70038 0.37494
 C3011 C 0.35497 0.72415 0.38004
 C3012 C 0.36613 0.74945 0.39047
 C3013 C 0.39507 0.75198 0.39690
 C3014 C 0.41300 0.72782 0.39402
 C3015 C 0.41944 0.67749 0.38250
 C3016 C 0.44778 0.67904 0.39104
 C3017 C 0.45888 0.70449 0.40115
 C3018 C 0.44166 0.72855 0.40307
 H3019 H 0.41152 0.65679 0.37642
 H3020 H 0.46105 0.66021 0.39034
 H3021 H 0.48078 0.70543 0.40819
 H3022 H 0.45092 0.74742 0.41238
 H3023 H 0.33265 0.72385 0.37429
 H3024 H 0.35206 0.76758 0.39282
 C3025 C 0.39822 0.20659 0.87856
 C3026 C 0.36986 0.20654 0.86752
 C3027 C 0.35320 0.23123 0.87053
 C3028 C 0.36436 0.25591 0.88241
 C3029 C 0.39247 0.25685 0.89206
 C3030 C 0.40955 0.23202 0.89069
 C3031 C 0.41488 0.18145 0.87999
 C3032 C 0.44228 0.18180 0.89125
 C3033 C 0.45348 0.20681 0.90225
 C3034 C 0.43725 0.23158 0.90241
 H3035 H 0.40681 0.16100 0.87337
 H3036 H 0.45470 0.16239 0.89197
 H3037 H 0.47459 0.20685 0.91138
 H3038 H 0.44645 0.25012 0.91243
 H3039 H 0.33160 0.23192 0.86252
 H3040 H 0.35106 0.27472 0.88355
 C3041 C 1.09823 0.70099 1.11481
 C3042 C 1.12730 0.70025 1.12361
 C3043 C 1.14414 0.72457 1.11906
 C3044 C 1.13254 0.74956 1.10830
 C3045 C 1.10372 0.75133 1.10120
 C3046 C 1.08637 0.72678 1.10379
 C3047 C 1.08127 0.67617 1.11450
 C3048 C 1.05302 0.67705 1.10560
 C3049 C 1.04127 0.70238 1.09581
 C3050 C 1.05780 0.72691 1.09444
 H3051 H 1.08989 0.65564 1.12007
 H3052 H 1.04035 0.65783 1.10575
 H3053 H 1.01943 0.70284 1.08852
 H3054 H 1.04812 0.74570 1.08534
 H3055 H 1.16630 0.72493 1.12541
 H3056 H 1.14615 0.76804 1.10623
 C3057 C 1.09927 0.20185 0.61498
 C3058 C 1.12830 0.20096 0.62385
 C3059 C 1.14536 0.22510 0.61929
 C3060 C 1.13395 0.25017 0.60850
 C3061 C 1.10515 0.25210 0.60126
 C3062 C 1.08766 0.22764 0.60373
 C3063 C 1.08208 0.17716 0.61483
 C3064 C 1.05394 0.17816 0.60561
 C3065 C 1.04252 0.20345 0.59539
 C3066 C 1.05921 0.22786 0.59402
 H3067 H 1.09041 0.15662 0.62081
 H3068 H 1.04111 0.15905 0.60583
 H3069 H 1.02082 0.20400 0.58777
 H3070 H 1.04975 0.24660 0.58461
 H3071 H 1.16753 0.22520 0.62564
 H3072 H 1.14766 0.26858 0.60646
 C3073 C 0.65766 0.74482 0.64165
 C3074 C 0.64442 0.71774 0.64215
 C3075 C 0.61783 0.71408 0.62928
 C3076 C 0.60446 0.73655 0.61544
 C3077 C 0.61729 0.76335 0.61407
 C3078 C 0.64392 0.76789 0.62754
 C3079 C 0.68387 0.74968 0.65551
 C3080 C 0.69632 0.77661 0.65531
 C3081 C 0.68286 0.79918 0.64162
 C3082 C 0.65686 0.79501 0.62795
 H3083 H 0.69477 0.73288 0.66687
 H3084 H 0.71640 0.78003 0.66605
 H3085 H 0.69252 0.82008 0.64176
 H3086 H 0.64692 0.81327 0.61804
 H3087 H 0.60747 0.69349 0.62972
 H3088 H 0.58399 0.73297 0.60547
 C3089 C 0.59850 0.20188 1.11786
 C3090 C 0.62807 0.20098 1.12467
 C3091 C 0.64514 0.22441 1.11741
 C3092 C 0.63340 0.24901 1.10601
 C3093 C 0.60421 0.25108 1.10060
 C3094 C 0.58659 0.22707 1.10560
 C3095 C 0.58091 0.17765 1.12087
 C3096 C 0.55226 0.17858 1.11332
 C3097 C 0.54066 0.20322 1.10177
 C3098 C 0.55763 0.22712 1.09754
 H3099 H 0.58917 0.15748 1.12821
 H3100 H 0.53913 0.15986 1.11589
 H3101 H 0.51851 0.20363 1.09548
 H3102 H 0.54795 0.24526 1.08723
 H3103 H 0.66768 0.22450 1.12224
 H3104 H 0.64724 0.26702 1.10217
 C3105 C 1.28148 1.14340 0.89557
 C3106 C 1.29521 1.13161 0.87115
 C3107 C 1.28140 1.10857 0.85777
 C3108 C 1.25618 1.09728 0.86829
 C3109 C 1.24077 1.11097 0.88995
 C3110 C 1.25247 1.13671 0.90100
 C3111 C 1.29540 1.16132 0.91525
 C3112 C 1.27973 1.17810 0.93405
 C3113 C 1.25016 1.17677 0.93380
 C3114 C 1.23651 1.15624 0.91731
 H3115 H 1.31834 1.16264 0.91609
 H3116 H 1.29050 1.19274 0.94819
 H3117 H 1.23786 1.19089 0.94719
 H3118 H 1.21352 1.15543 0.91780
 H3119 H 1.28984 1.09837 0.83908
 H3120 H 1.24899 1.07767 0.85879
 C3121 C 1.26832 0.63216 0.34906
 C3122 C 1.29327 0.63150 0.36603
 C3123 C 1.29218 0.61977 0.39338
 C3124 C 1.26709 0.60822 0.40390
 C3125 C 1.24227 0.60804 0.38743
 C3126 C 1.24256 0.62040 0.35987
 C3127 C 1.26818 0.64497 0.32189
 C3128 C 1.24337 0.64591 0.30564
 C3129 C 1.21822 0.63454 0.31621
 C3130 C 1.21765 0.62209 0.34312
 H3131 H 1.28706 0.65467 0.31309
 H3132 H 1.24360 0.65578 0.28483
 H3133 H 1.19897 0.63560 0.30360
 H3134 H 1.19747 0.61416 0.35070
 H3135 H 1.31106 0.61927 0.40659
 H3136 H 1.26707 0.59909 0.42506
 C3137 C 0.79842 1.11230 0.40002
 C3138 C 0.79861 1.12552 0.37291
 C3139 C 0.77350 1.12683 0.35695
 C3140 C 0.74815 1.11607 0.36771
 C3141 C 0.74717 1.10363 0.39476
 C3142 C 0.77247 1.10121 0.41102
 C3143 C 0.82358 1.10923 0.41616
 C3144 C 0.82315 1.09567 0.44253
 C3145 C 0.79783 1.08472 0.45320
 C3146 C 0.77269 1.08738 0.43768
 H3147 H 0.84382 1.11689 0.40842
 H3148 H 0.84261 1.09339 0.45464
 H3149 H 0.79772 1.07385 0.47348
 H3150 H 0.75361 1.07816 0.44656
 H3151 H 0.77343 1.13673 0.33613
 H3152 H 0.72899 1.11786 0.35501
 C3153 C 0.76268 0.65217 0.86231
 C3154 C 0.78850 0.63656 0.86191
 C3155 C 0.78926 0.60891 0.87296
 C3156 C 0.76518 0.59686 0.88515
 C3157 C 0.73964 0.61211 0.88667
 C3158 C 0.73801 0.63984 0.87478
 C3159 C 0.76068 0.67950 0.84996
 C3160 C 0.73503 0.69441 0.85010
 C3161 C 0.71092 0.68239 0.86226
 C3162 C 0.71224 0.65533 0.87438
 H3163 H 0.77875 0.68944 0.83982
 H3164 H 0.73380 0.71533 0.84051
 H3165 H 0.69101 0.69396 0.86205
 H3166 H 0.69280 0.64657 0.88291
 H3167 H 0.80883 0.59673 0.87256
 H3168 H 0.76658 0.57557 0.89390
 C3169 C 1.26178 0.84764 1.13559
 C3170 C 1.28771 0.86307 1.13549
 C3171 C 1.28855 0.89034 1.12350
 C3172 C 1.26443 0.90224 1.11112
 C3173 C 1.23877 0.88723 1.11029
 C3174 C 1.23711 0.85980 1.12281
 C3175 C 1.25958 0.82073 1.14884
 C3176 C 1.23390 0.80594 1.14894
 C3177 C 1.20985 0.81777 1.13636
 C3178 C 1.21126 0.84452 1.12362
 H3179 H 1.27747 0.81100 1.15955
 H3180 H 1.23259 0.78530 1.15909
 H3181 H 1.18991 0.80628 1.13673
 H3182 H 1.19186 0.85314 1.11474
 H3183 H 1.30817 0.90240 1.12352
 H3184 H 1.26584 0.92332 1.10187
 C3185 C 1.26743 0.34939 0.63015
 C3186 C 1.29281 0.36564 0.62988
 C3187 C 1.29266 0.39304 0.61823
 C3188 C 1.26799 0.40437 0.60642
 C3189 C 1.24272 0.38866 0.60598
 C3190 C 1.24211 0.36104 0.61821
 C3191 C 1.26650 0.32209 0.64270
 C3192 C 1.24124 0.30660 0.64335
 C3193 C 1.21645 0.31805 0.63188
 C3194 C 1.21672 0.34505 0.61958
 H3195 H 1.28513 0.31259 0.65234
 H3196 H 1.24085 0.28570 0.65302
 H3197 H 1.19684 0.30603 0.63272
 H3198 H 1.19682 0.35331 0.61151
 H3199 H 1.31190 0.40570 0.61818
 H3200 H 1.26862 0.42557 0.59738
 C3201 C 0.79863 0.90125 0.61113
 C3202 C 0.79889 0.87369 0.62344
 C3203 C 0.77402 0.85736 0.62339
 C3204 C 0.74883 0.86818 0.61223
 C3205 C 0.74773 0.89568 0.60080
 C3206 C 0.77280 0.91239 0.59979
 C3207 C 0.82364 0.91774 0.60921
 C3208 C 0.82309 0.94473 0.59692
 C3209 C 0.79784 0.95566 0.58596
 C3210 C 0.77292 0.93965 0.58715
 H3211 H 0.84385 0.90980 0.61676
 H3212 H 0.84243 0.95714 0.59565
 H3213 H 0.79761 0.97653 0.57622
 H3214 H 0.75394 0.94871 0.57779
 H3215 H 0.77399 0.83620 0.63258
 H3216 H 0.72983 0.85517 0.61299
 C3217 C 0.79982 0.40448 1.10947
 C3218 C 0.80162 0.37625 1.12003
 C3219 C 0.77755 0.35877 1.11923
 C3220 C 0.75168 0.36903 1.10913
 C3221 C 0.74902 0.39712 1.09949
 C3222 C 0.77330 0.41502 1.09911
 C3223 C 0.82397 0.42226 1.10835
 C3224 C 0.82197 0.44988 1.09769
 C3225 C 0.79611 0.46016 1.08757
 C3226 C 0.77201 0.44292 1.08803
 H3227 H 0.84462 0.41489 1.11528
 H3228 H 0.84067 0.46327 1.09700
 H3229 H 0.79478 0.48153 1.07904
 H3230 H 0.75254 0.45156 1.07930
 H3231 H 0.77866 0.33713 1.12712
 H3232 H 0.73337 0.35507 1.10937
 C3233 C 0.73393 1.15084 1.13481
 C3234 C 0.70878 1.13424 1.13437
 C3235 C 0.70963 1.10642 1.12379
 C3236 C 0.73468 1.09514 1.11282
 C3237 C 0.75963 1.11134 1.11217
 C3238 C 0.75963 1.13925 1.12372
 C3239 C 0.73424 1.17847 1.14663
 C3240 C 0.75924 1.19437 1.14734
 C3241 C 0.78439 1.18300 1.13668
 C3242 C 0.78473 1.15567 1.12512
 H3243 H 0.71533 1.18791 1.15571
 H3244 H 0.75916 1.21551 1.15647
 H3245 H 0.80379 1.19534 1.13756
 H3246 H 0.80489 1.14748 1.11770
 H3247 H 0.69057 1.09350 1.12358
 H3248 H 0.73450 1.07372 1.10430
 C3249 C 0.74632 0.65615 0.64376
 C3250 C 0.71940 0.64262 0.64412
 C3251 C 0.71617 0.61583 0.63152
 C3252 C 0.73886 0.60266 0.61788
 C3253 C 0.76544 0.61591 0.61643
 C3254 C 0.76959 0.64264 0.62983
 C3255 C 0.75080 0.68249 0.65751
 C3256 C 0.77753 0.69531 0.65736
 C3257 C 0.80028 0.68210 0.64382
 C3258 C 0.79650 0.65596 0.63028
 H3259 H 0.73385 0.69321 0.66877
 H3260 H 0.78066 0.71549 0.66801
 H3261 H 0.82102 0.69206 0.64396
 H3262 H 0.81490 0.64622 0.62051
 H3263 H 0.69571 0.60524 0.63183
 H3264 H 0.73557 0.58209 0.60798
 C3265 C 0.23372 1.14912 0.63588
 C3266 C 0.20830 1.13308 0.63363
 C3267 C 0.20910 1.10582 0.62164
 C3268 C 0.23435 1.09463 0.61103
 C3269 C 0.25956 1.11036 0.61212
 C3270 C 0.25961 1.13763 0.62509
 C3271 C 0.23413 1.17606 0.64919
 C3272 C 0.25939 1.19136 0.65166
 C3273 C 0.28469 1.18010 0.64122
 C3274 C 0.28493 1.15346 0.62815
 H3275 H 0.21507 1.18537 0.65810
 H3276 H 0.25939 1.21198 0.66194
 H3277 H 0.30427 1.19198 0.64343
 H3278 H 0.30515 1.14530 0.62082
 H3279 H 0.18984 1.09328 0.62000
 H3280 H 0.23413 1.07368 0.60139
 C3281 C 0.23414 0.65189 1.13487
 C3282 C 0.20917 0.63501 1.13500
 C3283 C 0.21034 0.60693 1.12510
 C3284 C 0.23543 0.59564 1.11430
 C3285 C 0.26019 0.61206 1.11309
 C3286 C 0.25993 0.64027 1.12393
 C3287 C 0.23423 0.67981 1.14598
 C3288 C 0.25909 0.69597 1.14616
 C3289 C 0.28431 0.68458 1.13567
 C3290 C 0.28488 0.65697 1.12480
 H3291 H 0.21527 0.68926 1.15493
 H3292 H 0.25884 0.71735 1.15475
 H3293 H 0.30360 0.69713 1.13617
 H3294 H 0.30508 0.64879 1.11748
 H3295 H 0.19143 0.59378 1.12520
 H3296 H 0.23539 0.57402 1.10628
 C3297 C 0.70324 0.89754 0.88295
 C3298 C 0.70530 0.87098 0.86882
 C3299 C 0.73142 0.85675 0.86785
 C3300 C 0.75558 0.86868 0.88007
 C3301 C 0.75429 0.89515 0.89369
 C3302 C 0.72795 0.90970 0.89559
 C3303 C 0.67701 0.91198 0.88534
 C3304 C 0.67517 0.93769 0.90003
 C3305 C 0.69925 0.94940 0.91265
 C3306 C 0.72547 0.93568 0.91044
 H3307 H 0.65771 0.90339 0.87621
 H3308 H 0.65489 0.94845 0.90188
 H3309 H 0.69756 0.96908 0.92446
 H3310 H 0.74359 0.94537 0.92080
 H3311 H 0.73314 0.83631 0.85730
 H3312 H 0.77559 0.85731 0.87864
 C3313 C 0.70216 0.39947 0.38479
 C3314 C 0.70296 0.37245 0.37128
 C3315 C 0.72862 0.35737 0.37009
 C3316 C 0.75348 0.36888 0.38126
 C3317 C 0.75348 0.39586 0.39390
 C3318 C 0.72769 0.41132 0.39606
 C3319 C 0.67643 0.41465 0.38806
 C3320 C 0.67597 0.44105 0.40159
 C3321 C 0.70093 0.45268 0.41241
 C3322 C 0.72657 0.43800 0.40985
 H3323 H 0.65640 0.40616 0.38061
 H3324 H 0.65609 0.45244 0.40393
 H3325 H 0.70038 0.47302 0.42315
 H3326 H 0.74535 0.44757 0.41906
 H3327 H 0.72947 0.33664 0.36003
 H3328 H 0.77305 0.35679 0.37970
 C3329 C 0.19970 0.90482 0.38805
 C3330 C 0.19911 0.87708 0.37611
 C3331 C 0.22393 0.86063 0.37593
 C3332 C 0.24934 0.87141 0.38658
 C3333 C 0.25076 0.89900 0.39776
 C3334 C 0.22577 0.91589 0.39893
 C3335 C 0.17481 0.92154 0.39012
 C3336 C 0.17566 0.94863 0.40219
 C3337 C 0.20110 0.95944 0.41275
 C3338 C 0.22592 0.94324 0.41136
 H3339 H 0.15445 0.91377 0.38280
 H3340 H 0.15642 0.96120 0.40359
 H3341 H 0.20155 0.98038 0.42233
 H3342 H 0.24505 0.95224 0.42043
 H3343 H 0.22371 0.83935 0.36705
 H3344 H 0.26825 0.85823 0.38572
 C3345 C 0.20480 0.37966 0.89547
 C3346 C 0.20726 0.36857 0.86752
 C3347 C 0.23290 0.37161 0.85275
 C3348 C 0.25621 0.38466 0.86538
 C3349 C 0.25467 0.39511 0.89322
 C3350 C 0.22874 0.39304 0.90844
 C3351 C 0.17891 0.37840 0.91055
 C3352 C 0.17675 0.38967 0.93790
 C3353 C 0.20011 0.40270 0.95057
 C3354 C 0.22584 0.40459 0.93601
 H3355 H 0.16004 0.36905 0.90130
 H3356 H 0.15677 0.38852 0.94922
 H3357 H 0.19821 0.41163 0.97170
 H3358 H 0.24324 0.41547 0.94641
 H3359 H 0.23503 0.36332 0.83135
 H3360 H 0.27588 0.38613 0.85350
   
