data_POSCAR
  _audit_creation_date              2014-09-24
  _audit_creation_method            'ToBaCCo'
  _symmetry_space_group_name_H-M    'P1'
  _symmetry_Int_Tables_number       1
  _symmetry_cell_setting            triclinic
  loop_
  _symmetry_equiv_pos_as_xyz
 x,y,z
_cell_length_a 67.2707
_cell_length_b 65.0870
_cell_length_c 68.8777
_cell_angle_alpha 90.158100
_cell_angle_beta 90.385700
_cell_angle_gamma 89.166500
loop_
  _atom_site_label
  _atom_site_type_symbol
  _atom_site_fract_x
  _atom_site_fract_y
  _atom_site_fract_z
C1 C 0.43378 0.00719 0.27170
 H2 H 0.44110 0.00842 0.25786
 C3 C 0.44526 0.00424 0.28853
 H4 H 0.46129 0.00336 0.28740
 C5 C 0.40411 0.00529 0.28985
 H6 H 0.38809 0.00477 0.29026
 C7 C 0.41497 0.00236 0.30697
 H8 H 0.40706 0.00048 0.32047
 N9 N 0.41356 0.00747 0.27260
 C10 C 0.41523 -0.01365 0.21755
 H11 H 0.40656 -0.02646 0.22243
 C12 C 0.42666 -0.01571 0.20081
 H13 H 0.42687 -0.03043 0.19349
 C14 C 0.42620 0.02039 0.22197
 H15 H 0.42610 0.03442 0.23045
 C16 C 0.43715 0.01932 0.20478
 H17 H 0.44484 0.03288 0.20006
 Zn18 Zn 0.39774 0.00702 0.24955
 N19 N 0.41480 0.00436 0.22756
 C20 C 0.38237 0.04385 0.23146
 N21 N 0.38127 0.03143 0.24731
 C22 C 0.36810 0.03582 0.26170
 C23 C 0.35601 0.05347 0.26083
 C24 C 0.37088 0.06191 0.23020
 C25 C 0.38940 -0.03415 0.25857
 C26 C 0.37772 -0.05147 0.26148
 C27 C 0.34932 -0.03219 0.24957
 C28 C 0.36159 -0.01525 0.24698
 N29 N 0.38123 -0.01647 0.25150
 H30 H 0.39212 0.03991 0.21964
 H31 H 0.36669 0.02548 0.27380
 H32 H 0.34548 0.05624 0.27238
 H33 H 0.37275 0.07181 0.21778
 H34 H 0.40511 -0.03479 0.26202
 H35 H 0.38543 -0.06521 0.26632
 H36 H 0.33369 -0.02971 0.24663
 H37 H 0.35529 -0.00098 0.24158
 C38 C 0.43716 0.00119 0.19357
 C39 C 0.43583 0.00135 0.30643
 C40 C 0.35708 -0.05102 0.25705
 C41 C 0.35754 0.06713 0.24511
 C42 C 0.08079 0.01330 0.72256
 H43 H 0.08237 0.02648 0.73199
 C44 C 0.06925 0.01503 0.70566
 H45 H 0.06168 0.02945 0.70253
 C46 C 0.08925 -0.02115 0.71479
 H47 H 0.09729 -0.03516 0.71805
 C48 C 0.07789 -0.02009 0.69777
 H49 H 0.07754 -0.03330 0.68819
 N50 N 0.09032 -0.00469 0.72699
 C51 C 0.09127 -0.02085 0.78672
 H52 H 0.10358 -0.03165 0.78587
 C53 C 0.07909 -0.02078 0.80308
 H54 H 0.08228 -0.03160 0.81464
 C55 C 0.07309 0.00719 0.77339
 H56 H 0.07092 0.01830 0.76197
 C57 C 0.06047 0.00771 0.78942
 H58 H 0.04851 0.01900 0.78985
 Zn59 Zn 0.10555 -0.00647 0.75050
 N60 N 0.08808 -0.00703 0.77221
 C61 C 0.12440 0.02573 0.77077
 N62 N 0.12175 0.01715 0.75292
 C63 C 0.13038 0.02525 0.73693
 C64 C 0.14212 0.04276 0.73854
 C65 C 0.13609 0.04317 0.77306
 C66 C 0.11307 -0.04950 0.75017
 C67 C 0.12447 -0.06754 0.74849
 C68 C 0.15400 -0.04697 0.74732
 C69 C 0.14201 -0.02928 0.74883
 N70 N 0.12189 -0.03080 0.74999
 H71 H 0.11753 0.01895 0.78332
 H72 H 0.12803 0.01818 0.72288
 H73 H 0.14852 0.04915 0.72555
 H74 H 0.13824 0.04950 0.78746
 H75 H 0.09707 -0.05037 0.75129
 H76 H 0.11713 -0.08224 0.74857
 H77 H 0.16994 -0.04542 0.74607
 H78 H 0.14879 -0.01433 0.74876
 C79 C 0.06340 -0.00636 0.80462
 C80 C 0.06764 -0.00185 0.69301
 C81 C 0.14522 -0.06643 0.74690
 C82 C 0.14515 0.05200 0.75681
 C83 C 0.57699 0.50578 0.22547
 H84 H 0.57428 0.51641 0.23729
 C85 C 0.56555 0.50711 0.20848
 H86 H 0.55406 0.51886 0.20727
 C87 C 0.59517 0.47740 0.21274
 H88 H 0.60694 0.46606 0.21426
 C89 C 0.58393 0.47802 0.19562
 H90 H 0.58720 0.46713 0.18412
 N91 N 0.59139 0.49101 0.22734
 C92 C 0.57436 0.47338 0.27487
 H93 H 0.57557 0.45992 0.26582
 C94 C 0.56064 0.47373 0.29003
 H95 H 0.55159 0.46037 0.29248
 C96 C 0.58398 0.50732 0.28235
 H97 H 0.59267 0.52067 0.27908
 C98 C 0.57051 0.50831 0.29766
 H99 H 0.56968 0.52213 0.30641
 Zn100 Zn 0.60541 0.48925 0.25131
 N101 N 0.58617 0.48982 0.27165
 C102 C 0.63133 0.51527 0.27201
 N103 N 0.62229 0.51238 0.25447
 C104 C 0.62495 0.52578 0.23962
 C105 C 0.63699 0.54294 0.24219
 C106 C 0.64312 0.53245 0.27533
 C107 C 0.61272 0.44598 0.24822
 C108 C 0.62430 0.42799 0.24712
 C109 C 0.65347 0.44812 0.25340
 C110 C 0.64135 0.46574 0.25431
 N111 N 0.62131 0.46446 0.25176
 H112 H 0.62909 0.50432 0.28356
 H113 H 0.61776 0.52317 0.22577
 H114 H 0.63899 0.55349 0.23025
 H115 H 0.65008 0.53461 0.28939
 H116 H 0.59695 0.44520 0.24543
 H117 H 0.61710 0.41351 0.24428
 H118 H 0.66939 0.44962 0.25513
 H119 H 0.64813 0.48048 0.25663
 C120 C 0.55885 0.49122 0.30192
 C121 C 0.56887 0.49298 0.19336
 C122 C 0.64499 0.42890 0.24966
 C123 C 0.64608 0.54649 0.26028
 C124 C 0.92896 0.51704 0.77436
 H125 H 0.93040 0.52869 0.76330
 C126 C 0.94161 0.51709 0.79059
 H127 H 0.95289 0.52874 0.79140
 C128 C 0.91287 0.48748 0.78589
 H129 H 0.90132 0.47624 0.78439
 C130 C 0.92545 0.48664 0.80209
 H131 H 0.92282 0.47485 0.81276
 N132 N 0.91487 0.50241 0.77232
 C133 C 0.92729 0.48691 0.72335
 H134 H 0.92854 0.47425 0.73334
 C135 C 0.93870 0.48661 0.70643
 H136 H 0.94832 0.47350 0.70350
 C137 C 0.91416 0.51971 0.71533
 H138 H 0.90501 0.53289 0.71891
 C139 C 0.92535 0.52009 0.69832
 H140 H 0.92401 0.53325 0.68879
 Zn141 Zn 0.89813 0.50266 0.74983
 N142 N 0.91474 0.50299 0.72720
 C143 C 0.86941 0.53011 0.73394
 N144 N 0.88146 0.52683 0.74964
 C145 C 0.88181 0.54047 0.76465
 C146 C 0.87001 0.55836 0.76403
 C147 C 0.85764 0.54794 0.73259
 C148 C 0.88990 0.45954 0.75045
 C149 C 0.87813 0.44214 0.75254
 C150 C 0.84914 0.46429 0.75396
 C151 C 0.86148 0.48128 0.75197
 N152 N 0.88153 0.47874 0.75027
 H153 H 0.86920 0.51896 0.72226
 H154 H 0.89128 0.53755 0.77710
 H155 H 0.87060 0.56913 0.77602
 H156 H 0.84827 0.55033 0.71992
 H157 H 0.90582 0.45762 0.74981
 H158 H 0.88517 0.42708 0.75273
 H159 H 0.83330 0.46678 0.75568
 H160 H 0.85496 0.49652 0.75236
 C161 C 0.93754 0.50321 0.69345
 C162 C 0.94016 0.50163 0.80488
 C163 C 0.85744 0.44437 0.75445
 C164 C 0.85787 0.56237 0.74775
 C165 C 0.22977 0.39360 0.98227
 H166 H 0.23938 0.39322 0.96974
 C167 C 0.21178 0.40470 0.98150
 H168 H 0.20800 0.41322 0.96849
 C169 C 0.22293 0.38257 1.01422
 H170 H 0.22708 0.37357 1.02681
 C171 C 0.20480 0.39341 1.01405
 H172 H 0.19526 0.39252 1.02660
 N173 N 0.23492 0.38263 0.99839
 C174 C 0.29937 0.36976 0.99697
 H175 H 0.29934 0.35346 0.99987
 C176 C 0.31737 0.38021 0.99751
 H177 H 0.33105 0.37165 1.00005
 C178 C 0.28153 0.40084 0.99151
 H179 H 0.26752 0.40898 0.98985
 C180 C 0.29928 0.41189 0.99173
 H181 H 0.29869 0.42842 0.99001
 Zn182 Zn 0.25789 0.36485 0.99771
 N183 N 0.28184 0.38011 0.99421
 C184 C 0.26950 0.33449 0.96928
 N185 N 0.25409 0.34547 0.97706
 C186 C 0.23531 0.34354 0.96987
 C187 C 0.23163 0.33118 0.95368
 C188 C 0.26644 0.32179 0.95310
 C189 C 0.27259 0.35970 1.03540
 C190 C 0.27574 0.35043 1.05336
 C191 C 0.25347 0.32343 1.04376
 C192 C 0.25109 0.33305 1.02566
 N193 N 0.26059 0.35091 1.02187
 H194 H 0.28429 0.33594 0.97519
 H195 H 0.22309 0.35182 0.97650
 H196 H 0.21663 0.33023 0.94798
 H197 H 0.27900 0.31381 0.94666
 H198 H 0.27978 0.37405 1.03228
 H199 H 0.28584 0.35761 1.06353
 H200 H 0.24534 0.30956 1.04669
 H201 H 0.24150 0.32641 1.01473
 C202 C 0.31749 0.40160 0.99511
 C203 C 0.19884 0.40452 0.99745
 C204 C 0.26590 0.33219 1.05799
 C205 C 0.24736 0.32042 0.94482
 C206 C 0.76649 0.09915 0.99947
 H207 H 0.75273 0.09139 1.00235
 C208 C 0.78430 0.08773 0.99811
 H209 H 0.78360 0.07123 0.99972
 C210 C 0.78355 0.12983 0.99298
 H211 H 0.78319 0.14633 0.99116
 C212 C 0.80152 0.11904 0.99101
 H213 H 0.81473 0.12781 0.98828
 N214 N 0.76646 0.11987 0.99702
 C215 C 0.70519 0.12440 0.98371
 H216 H 0.70796 0.13485 0.97192
 C217 C 0.68707 0.11416 0.98434
 H218 H 0.67626 0.11680 0.97287
 C219 C 0.71532 0.10924 1.01341
 H220 H 0.72631 0.10762 1.02486
 C221 C 0.69728 0.09877 1.01468
 H222 H 0.69473 0.08881 1.02695
 Zn223 Zn 0.74317 0.13706 0.99775
 N224 N 0.71904 0.12165 0.99800
 C225 C 0.74467 0.14351 0.95780
 N226 N 0.74464 0.15368 0.97507
 C227 C 0.74799 0.17424 0.97592
 C228 C 0.75180 0.18530 0.95893
 C229 C 0.74811 0.15396 0.94052
 C230 C 0.75720 0.14890 1.03478
 C231 C 0.75614 0.15850 1.05290
 C232 C 0.72744 0.17789 1.04170
 C233 C 0.72886 0.16766 1.02381
 N234 N 0.74348 0.15333 1.02076
 H235 H 0.74240 0.12709 0.95753
 H236 H 0.74853 0.18196 0.98983
 H237 H 0.75513 0.20148 0.96003
 H238 H 0.74777 0.14545 0.92700
 H239 H 0.76849 0.13725 1.03224
 H240 H 0.76681 0.15430 1.06411
 H241 H 0.71538 0.18878 1.04415
 H242 H 0.71792 0.17067 1.01254
 C243 C 0.68286 0.10108 0.99995
 C244 C 0.80233 0.09754 0.99360
 C245 C 0.74093 0.17293 1.05665
 C246 C 0.75218 0.17510 0.94088
 C247 C 0.26226 0.59862 0.49485
 H248 H 0.24807 0.59114 0.49580
 C249 C 0.27971 0.58676 0.49273
 H250 H 0.27875 0.57017 0.49220
 C251 C 0.28082 0.62924 0.49376
 H252 H 0.28112 0.64585 0.49406
 C253 C 0.29851 0.61802 0.49141
 H254 H 0.31238 0.62614 0.49025
 N255 N 0.26315 0.61950 0.49540
 C256 C 0.20203 0.62597 0.48198
 H257 H 0.20491 0.63696 0.47065
 C258 C 0.18370 0.61609 0.48235
 H259 H 0.17280 0.61954 0.47115
 C260 C 0.21218 0.60911 0.51086
 H261 H 0.22329 0.60668 0.52208
 C262 C 0.19399 0.59893 0.51183
 H263 H 0.19142 0.58839 0.52365
 Zn264 Zn 0.24028 0.63717 0.49656
 N265 N 0.21594 0.62225 0.49602
 C266 C 0.24246 0.64517 0.45699
 N267 N 0.24241 0.65462 0.47460
 C268 C 0.24631 0.67502 0.47631
 C269 C 0.25074 0.68664 0.45984
 C270 C 0.24660 0.65620 0.44020
 C271 C 0.25375 0.64748 0.53428
 C272 C 0.25261 0.65691 0.55248
 C273 C 0.22468 0.67728 0.54095
 C274 C 0.22618 0.66724 0.52299
 N275 N 0.24050 0.65258 0.52004
 H276 H 0.23973 0.62885 0.45606
 H277 H 0.24685 0.68213 0.49049
 H278 H 0.25447 0.70266 0.46157
 H279 H 0.24639 0.64827 0.42636
 H280 H 0.26478 0.63554 0.53181
 H281 H 0.26297 0.65230 0.56381
 H282 H 0.21290 0.68853 0.54327
 H283 H 0.21559 0.67075 0.51154
 C284 C 0.17941 0.60233 0.49742
 C285 C 0.29814 0.59648 0.49082
 C286 C 0.23776 0.67179 0.55607
 C287 C 0.25124 0.67716 0.44146
 C288 C 0.73088 0.89246 0.48384
 H289 H 0.74023 0.89089 0.47119
 C290 C 0.71305 0.90378 0.48261
 H291 H 0.70906 0.91123 0.46908
 C292 C 0.72458 0.88424 0.51667
 H293 H 0.72892 0.87624 0.52980
 C294 C 0.70667 0.89547 0.51610
 H295 H 0.69741 0.89594 0.52890
 N296 N 0.73619 0.88276 0.50061
 C297 C 0.80059 0.86944 0.49881
 H298 H 0.80068 0.85304 0.50126
 C299 C 0.81856 0.87997 0.49907
 H300 H 0.83236 0.87143 0.50105
 C301 C 0.78251 0.90057 0.49443
 H302 H 0.76842 0.90867 0.49322
 C303 C 0.80020 0.91169 0.49434
 H304 H 0.79950 0.92825 0.49290
 Zn305 Zn 0.75890 0.86471 0.50035
 N306 N 0.78295 0.87980 0.49678
 C307 C 0.77007 0.83655 0.46976
 N308 N 0.75479 0.84538 0.47981
 C309 C 0.73556 0.84146 0.47493
 C310 C 0.73108 0.82903 0.45897
 C311 C 0.76624 0.82367 0.45389
 C312 C 0.77486 0.85723 0.53755
 C313 C 0.77769 0.84715 0.55519
 C314 C 0.75160 0.82381 0.54631
 C315 C 0.74949 0.83418 0.52856
 N316 N 0.76111 0.85055 0.52451
 H317 H 0.78525 0.83979 0.47370
 H318 H 0.72359 0.84834 0.48320
 H319 H 0.71569 0.82653 0.45502
 H320 H 0.77854 0.81718 0.44574
 H321 H 0.78369 0.87051 0.53436
 H322 H 0.78914 0.85258 0.56497
 H323 H 0.74191 0.81112 0.54942
 H324 H 0.73854 0.82921 0.51806
 C325 C 0.81854 0.90142 0.49704
 C326 C 0.70053 0.90521 0.49882
 C327 C 0.76587 0.83030 0.55997
 C328 C 0.74653 0.82014 0.44812
 C329 C 0.01512 0.28017 0.38681
 H330 H 0.03041 0.27511 0.38516
 C331 C 0.01060 0.29672 0.39882
 H332 H 0.02251 0.30449 0.40636
 C333 C -0.01889 0.27671 0.37819
 H334 H -0.03028 0.26884 0.37005
 C335 C -0.02408 0.29341 0.38994
 H336 H -0.03948 0.29839 0.39084
 N337 N 0.00047 0.27059 0.37675
 C338 C 0.02330 0.20904 0.36529
 H339 H 0.02048 0.20749 0.34993
 C340 C 0.02864 0.19162 0.37594
 H341 H 0.02976 0.17721 0.36816
 C342 C 0.02204 0.22913 0.39391
 H343 H 0.01892 0.24351 0.40110
 C344 C 0.02745 0.21219 0.40512
 H345 H 0.02930 0.21446 0.42058
 Zn346 Zn 0.00799 0.24909 0.35996
 N347 N 0.01960 0.22723 0.37439
 C348 C 0.03390 0.24604 0.32832
 N349 N 0.02561 0.25930 0.34130
 C350 C 0.02958 0.27974 0.34082
 C351 C 0.04378 0.28721 0.32814
 C352 C 0.04818 0.25282 0.31542
 C353 C -0.02381 0.22240 0.35307
 C354 C -0.04124 0.21621 0.34389
 C355 C -0.03888 0.24546 0.32244
 C356 C -0.02149 0.25103 0.33197
 N357 N -0.01447 0.23959 0.34703
 H358 H 0.02987 0.23010 0.32824
 H359 H 0.02201 0.29032 0.35042
 H360 H 0.04742 0.30336 0.32848
 H361 H 0.05557 0.24172 0.30610
 H362 H -0.01806 0.21380 0.36533
 H363 H -0.04871 0.20264 0.34896
 H364 H -0.04470 0.25522 0.31097
 H365 H -0.01381 0.26477 0.32772
 C366 C 0.02991 0.19272 0.39637
 C367 C -0.00918 0.30358 0.40035
 C368 C -0.04908 0.22798 0.32854
 C369 C 0.05373 0.27351 0.31572
 C370 C 0.00834 0.72884 0.11370
 H371 H 0.01897 0.74099 0.11196
 C372 C 0.00812 0.71253 0.10066
 H373 H 0.01843 0.71244 0.08867
 C374 C -0.01824 0.71460 0.13140
 H375 H -0.02846 0.71550 0.14338
 C376 C -0.01869 0.69771 0.11891
 H377 H -0.02907 0.68553 0.12172
 N378 N -0.00453 0.72945 0.12880
 C379 C 0.01540 0.78931 0.13308
 H380 H 0.02629 0.78740 0.14452
 C381 C 0.01589 0.80670 0.12134
 H382 H 0.02692 0.81827 0.12427
 C383 C -0.01253 0.77690 0.11571
 H384 H -0.02360 0.76518 0.11372
 C385 C -0.01229 0.79372 0.10337
 H386 H -0.02306 0.79460 0.09164
 Zn387 Zn -0.00149 0.75170 0.14579
 N388 N 0.00105 0.77511 0.13030
 C389 C 0.02607 0.76135 0.17478
 N390 N 0.02095 0.74707 0.16132
 C391 C 0.03150 0.72926 0.15916
 C392 C 0.04876 0.72587 0.16995
 C393 C 0.04343 0.75876 0.18566
 C394 C -0.03471 0.77235 0.16094
 C395 C -0.05147 0.77463 0.17246
 C396 C -0.04379 0.74170 0.18701
 C397 C -0.02711 0.74018 0.17522
 N398 N -0.02335 0.75502 0.16206
 H399 H 0.01698 0.77507 0.17658
 H400 H 0.02673 0.71775 0.14890
 H401 H 0.05719 0.71175 0.16782
 H402 H 0.04796 0.77089 0.19545
 H403 H -0.03082 0.78448 0.15107
 H404 H -0.05954 0.78907 0.17140
 H405 H -0.04675 0.72859 0.19605
 H406 H -0.01741 0.72680 0.17613
 C407 C 0.00180 0.80914 0.10633
 C408 C -0.00520 0.69642 0.10345
 C409 C -0.05695 0.75885 0.18540
 C410 C 0.05524 0.74103 0.18293
 C411 C 0.51128 0.21036 0.61670
 H412 H 0.52420 0.21034 0.62606
 C413 C 0.50889 0.19451 0.60338
 H414 H 0.51999 0.18232 0.60255
 C415 C 0.48087 0.22592 0.60638
 H416 H 0.47017 0.23842 0.60762
 C417 C 0.47776 0.21018 0.59299
 H418 H 0.46463 0.21043 0.58380
 N419 N 0.49760 0.22588 0.61761
 C420 C 0.51067 0.28962 0.62839
 H421 H 0.51066 0.29027 0.64409
 C422 C 0.51311 0.30749 0.61764
 H423 H 0.51460 0.32203 0.62515
 C424 C 0.50776 0.26989 0.59952
 H425 H 0.50581 0.25520 0.59252
 C426 C 0.51032 0.28730 0.58823
 H427 H 0.51016 0.28587 0.57255
 Zn428 Zn 0.50156 0.24839 0.63405
 N429 N 0.50723 0.27152 0.61918
 C430 C 0.54125 0.24251 0.64231
 N431 N 0.52307 0.24356 0.65070
 C432 C 0.52080 0.24192 0.67025
 C433 C 0.53734 0.23862 0.68216
 C434 C 0.55811 0.23912 0.65362
 C435 C 0.46800 0.27052 0.64794
 C436 C 0.45032 0.27257 0.65819
 C437 C 0.45403 0.23715 0.66837
 C438 C 0.47162 0.23581 0.65798
 N439 N 0.47828 0.25239 0.64819
 H440 H 0.54256 0.24432 0.62676
 H441 H 0.50625 0.24335 0.67665
 H442 H 0.53546 0.23734 0.69772
 H443 H 0.57255 0.23861 0.64674
 H444 H 0.47328 0.28333 0.63962
 H445 H 0.44228 0.28710 0.65799
 H446 H 0.44871 0.22366 0.67578
 H447 H 0.47996 0.22148 0.65750
 C448 C 0.51235 0.30647 0.59730
 C449 C 0.49212 0.19454 0.59123
 C450 C 0.44316 0.25570 0.66850
 C451 C 0.55622 0.23710 0.67378
 C452 C 0.50666 0.78412 0.88638
 H453 H 0.52159 0.77794 0.88679
 C454 C 0.50207 0.80143 0.89734
 H455 H 0.51367 0.80871 0.90577
 C456 C 0.47330 0.78212 0.87526
 H457 H 0.46203 0.77430 0.86697
 C458 C 0.46810 0.79968 0.88584
 H459 H 0.45292 0.80546 0.88549
 N460 N 0.49240 0.77485 0.87556
 C461 C 0.51737 0.71358 0.87065
 H462 H 0.51950 0.71247 0.85513
 C463 C 0.52203 0.69688 0.88252
 H464 H 0.52747 0.68277 0.87596
 C465 C 0.50607 0.73291 0.89777
 H466 H 0.49934 0.74677 0.90357
 C467 C 0.51080 0.71674 0.91021
 H468 H 0.50794 0.71844 0.92558
 Zn469 Zn 0.50010 0.75135 0.86129
 N470 N 0.50895 0.73083 0.87836
 C471 C 0.53928 0.75997 0.85386
 N472 N 0.52133 0.75791 0.84497
 C473 C 0.51923 0.76013 0.82541
 C474 C 0.53552 0.76532 0.81412
 C475 C 0.55587 0.76519 0.84319
 C476 C 0.47096 0.72268 0.85071
 C477 C 0.45395 0.71596 0.84112
 C478 C 0.45259 0.74821 0.82376
 C479 C 0.46948 0.75436 0.83378
 N480 N 0.47830 0.74163 0.84695
 H481 H 0.54086 0.75701 0.86921
 H482 H 0.50509 0.75775 0.81843
 H483 H 0.53371 0.76706 0.79858
 H484 H 0.57013 0.76632 0.85048
 H485 H 0.47790 0.71296 0.86155
 H486 H 0.44799 0.70103 0.84447
 H487 H 0.44537 0.75881 0.81377
 H488 H 0.47521 0.76962 0.83156
 C489 C 0.51818 0.69817 0.90250
 C490 C 0.48263 0.80938 0.89709
 C491 C 0.44455 0.72889 0.82757
 C492 C 0.55406 0.76801 0.82309
 C493 C -0.23791 0.67350 0.97391
 H494 H -0.22533 0.67621 0.98341
 C495 C -0.24027 0.68498 0.95676
 H496 H -0.22930 0.69633 0.95310
 C497 C -0.26677 0.65462 0.96646
 H498 H -0.27680 0.64236 0.96965
 C499 C -0.26988 0.66588 0.94957
 H500 H -0.28268 0.66244 0.94059
 N501 N -0.25103 0.65850 0.97836
 C502 C -0.24635 0.64311 1.03980
 H503 H -0.24549 0.62667 1.03751
 C504 C -0.24546 0.65098 1.05853
 H505 H -0.24315 0.64000 1.07009
 C506 C -0.24827 0.67657 1.02658
 H507 H -0.24933 0.68641 1.01398
 C508 C -0.24765 0.68524 1.04530
 H509 H -0.24883 0.70177 1.04659
 Zn510 Zn -0.24743 0.64107 1.00049
 N511 N -0.24755 0.65581 1.02428
 C512 C -0.20782 0.63215 1.01159
 N513 N -0.22232 0.62677 0.99874
 C514 C -0.21879 0.61201 0.98509
 C515 C -0.20050 0.60135 0.98473
 C516 C -0.18938 0.62204 1.01168
 C517 C -0.28748 0.63230 1.00449
 C518 C -0.30502 0.62114 1.00348
 C519 C -0.28539 0.59021 0.99884
 C520 C -0.26814 0.60207 0.99956
 N521 N -0.26952 0.62285 1.00177
 H522 H -0.21038 0.64450 1.02181
 H523 H -0.23026 0.60829 0.97463
 H524 H -0.19824 0.58927 0.97411
 H525 H -0.17815 0.62685 1.02199
 H526 H -0.28820 0.64878 1.00658
 H527 H -0.31919 0.62908 1.00502
 H528 H -0.28415 0.57377 0.99656
 H529 H -0.25377 0.59467 0.99797
 C530 C -0.24641 0.67241 1.06186
 C531 C -0.25630 0.68095 0.94414
 C532 C -0.30414 0.59988 1.00028
 C533 C -0.18552 0.60616 0.99834
 C534 C -0.25440 0.32804 0.52358
 H535 H -0.24976 0.31882 0.51130
 C536 C -0.25575 0.31937 0.54120
 H537 H -0.25154 0.30336 0.54256
 C538 C -0.26436 0.36088 0.53557
 H539 H -0.26785 0.37698 0.53331
 C540 C -0.26650 0.35199 0.55506
 H541 H -0.27247 0.36217 0.56602
 N542 N -0.25873 0.34957 0.52100
 C543 C -0.23902 0.33280 0.47405
 H544 H -0.22738 0.33438 0.48485
 C545 C -0.23621 0.31956 0.45823
 H546 H -0.22250 0.31074 0.45718
 C547 C -0.27087 0.34269 0.46224
 H548 H -0.28418 0.35206 0.46363
 C549 C -0.26869 0.32964 0.44621
 H550 H -0.28042 0.32921 0.43538
 Zn551 Zn -0.25812 0.36328 0.49659
 N552 N -0.25612 0.34405 0.47578
 C553 C -0.22277 0.38153 0.51100
 N554 N -0.23528 0.38046 0.49543
 C555 C -0.23084 0.39003 0.47847
 C556 C -0.21323 0.40115 0.47672
 C557 C -0.20512 0.39254 0.50991
 C558 C -0.29937 0.36877 0.49929
 C559 C -0.31755 0.37934 0.50083
 C560 C -0.30087 0.41063 0.49253
 C561 C -0.28290 0.39945 0.49151
 N562 N -0.28245 0.37889 0.49492
 H563 H -0.22623 0.37349 0.52422
 H564 H -0.24082 0.38870 0.46617
 H565 H -0.21000 0.40865 0.46311
 H566 H -0.19527 0.39280 0.52240
 H567 H -0.29866 0.35242 0.50206
 H568 H -0.33059 0.37047 0.50400
 H569 H -0.30033 0.42706 0.49043
 H570 H -0.26925 0.40736 0.48848
 C571 C -0.25112 0.31791 0.44394
 C572 C -0.26213 0.33191 0.55842
 C573 C -0.31871 0.40075 0.49761
 C574 C -0.20003 0.40249 0.49258
 C575 C 0.25157 -0.17112 0.02542
 H576 H 0.25652 -0.18040 0.01328
 C577 C 0.25038 -0.17945 0.04321
 H578 H 0.25497 -0.19532 0.04491
 C579 C 0.24094 -0.13823 0.03681
 H580 H 0.23700 -0.12230 0.03420
 C581 C 0.23902 -0.14675 0.05646
 H582 H 0.23284 -0.13647 0.06723
 N583 N 0.24667 -0.14979 0.02245
 C584 C 0.23310 -0.17017 -0.02603
 H585 H 0.21997 -0.16933 -0.01713
 C586 C 0.23378 -0.18392 -0.04167
 H587 H 0.22112 -0.19358 -0.04452
 C588 C 0.26546 -0.15873 -0.03316
 H589 H 0.27789 -0.14901 -0.02979
 C590 C 0.26675 -0.17222 -0.04896
 H591 H 0.27998 -0.17222 -0.05782
 Zn592 Zn 0.24646 -0.13709 -0.00238
 N593 N 0.24859 -0.15749 -0.02236
 C594 C 0.28143 -0.11712 0.01085
 N595 N 0.26849 -0.11875 -0.00434
 C596 C 0.27178 -0.10861 -0.02129
 C597 C 0.28875 -0.09660 -0.02352
 C598 C 0.29841 -0.10509 0.00931
 C599 C 0.20522 -0.13248 0.00226
 C600 C 0.18676 -0.12243 0.00346
 C601 C 0.20178 -0.09195 -0.00928
 C602 C 0.22006 -0.10256 -0.00996
 N603 N 0.22149 -0.12253 -0.00429
 H604 H 0.27884 -0.12547 0.02410
 H605 H 0.26148 -0.11031 -0.03329
 H606 H 0.29116 -0.08879 -0.03714
 H607 H 0.30864 -0.10434 0.02149
 H608 H 0.20667 -0.14819 0.00718
 H609 H 0.17428 -0.13126 0.00836
 H610 H 0.20161 -0.07589 -0.01326
 H611 H 0.23318 -0.09460 -0.01458
 C612 C 0.25059 -0.18474 -0.05370
 C613 C 0.24368 -0.16669 0.06016
 C614 C 0.18459 -0.10169 -0.00223
 C615 C 0.30238 -0.09475 -0.00809
 C616 C 0.26539 1.16968 0.46951
 H617 H 0.27817 1.17186 0.47887
 C618 C 0.26321 1.18140 0.45249
 H619 H 0.27453 1.19235 0.44881
 C620 C 0.23566 1.15216 0.46243
 H621 H 0.22509 1.14044 0.46582
 C622 C 0.23275 1.16364 0.44561
 H623 H 0.21961 1.16089 0.43689
 N624 N 0.25159 1.15546 0.47425
 C625 C 0.25159 1.14530 0.53696
 H626 H 0.25018 1.12877 0.53653
 C627 C 0.25121 1.15557 0.55473
 H628 H 0.24949 1.14683 0.56795
 C629 C 0.25563 1.17669 0.52019
 H630 H 0.25719 1.18486 0.50667
 C631 C 0.25561 1.18761 0.53778
 H632 H 0.25705 1.20416 0.53770
 Zn633 Zn 0.25398 1.13922 0.49740
 N634 N 0.25372 1.15587 0.52014
 C635 C 0.29250 1.12788 0.51071
 N636 N 0.27840 1.12367 0.49704
 C637 C 0.28171 1.10892 0.48336
 C638 C 0.29938 1.09721 0.48358
 C639 C 0.31045 1.11681 0.51127
 C640 C 0.21335 1.13151 0.50061
 C641 C 0.19576 1.12041 0.49965
 C642 C 0.21532 1.08913 0.49735
 C643 C 0.23261 1.10090 0.49798
 N644 N 0.23132 1.12178 0.49900
 H645 H 0.28997 1.14000 0.52117
 H646 H 0.27048 1.10601 0.47241
 H647 H 0.30130 1.08513 0.47291
 H648 H 0.32146 1.12086 0.52210
 H649 H 0.21269 1.14809 0.50177
 H650 H 0.18160 1.12851 0.50032
 H651 H 0.21655 1.07258 0.49601
 H652 H 0.24697 1.09331 0.49728
 C653 C 0.25320 1.17699 0.55531
 C654 C 0.24669 1.17839 0.44021
 C655 C 0.19660 1.09897 0.49767
 C656 C 0.31411 1.10100 0.49775
 C657 C 0.13177 0.48447 0.26912
 H658 H 0.12922 0.49397 0.28180
 C659 C 0.14307 0.46632 0.27076
 H660 H 0.14942 0.46212 0.28471
 C661 C 0.12650 0.47844 0.23557
 H662 H 0.11987 0.48313 0.22191
 C663 C 0.13785 0.46027 0.23652
 H664 H 0.13976 0.45108 0.22352
 N665 N 0.12364 0.49011 0.25175
 C666 C 0.11371 0.55720 0.25248
 H667 H 0.09765 0.55837 0.25254
 C668 C 0.12498 0.57509 0.25143
 H669 H 0.11745 0.58990 0.25124
 C670 C 0.14291 0.53650 0.25215
 H671 H 0.14988 0.52143 0.25197
 C672 C 0.15475 0.55398 0.25119
 H673 H 0.17074 0.55208 0.25036
 Zn674 Zn 0.10689 0.51402 0.25109
 N675 N 0.12274 0.53833 0.25260
 C676 C 0.08687 0.52745 0.28588
 N677 N 0.08929 0.51196 0.27273
 C678 C 0.08008 0.49367 0.27520
 C679 C 0.06773 0.49048 0.29111
 C680 C 0.07457 0.52492 0.30201
 C681 C 0.09413 0.53051 0.21469
 C682 C 0.08317 0.53154 0.19740
 C683 C 0.06803 0.49947 0.20573
 C684 C 0.07911 0.49926 0.22299
 N685 N 0.09184 0.51467 0.22727
 H686 H 0.09470 0.54167 0.28414
 H687 H 0.08276 0.48124 0.26510
 H688 H 0.06054 0.47580 0.29266
 H689 H 0.07314 0.53732 0.31245
 H690 H 0.10479 0.54231 0.21776
 H691 H 0.08646 0.54408 0.18776
 H692 H 0.05758 0.48719 0.20372
 H693 H 0.07751 0.48665 0.23295
 C694 C 0.14582 0.57365 0.25059
 C695 C 0.14622 0.45391 0.25433
 C696 C 0.06974 0.51582 0.19229
 C697 C 0.06484 0.50619 0.30485
 C698 C -0.11986 1.01876 0.26966
 H699 H -0.11038 1.01385 0.28154
 C700 C -0.13062 1.03720 0.27130
 H701 H -0.12892 1.04640 0.28430
 C702 C -0.13302 1.01304 0.23818
 H703 H -0.13375 1.00359 0.22525
 C704 C -0.14416 1.03134 0.23925
 H705 H -0.15365 1.03563 0.22713
 N706 N -0.12105 1.00718 0.25321
 C707 C -0.11185 0.94008 0.25281
 H708 H -0.09580 0.93891 0.25326
 C709 C -0.12315 0.92221 0.25231
 H710 H -0.11566 0.90737 0.25255
 C711 C -0.14105 0.96082 0.25216
 H712 H -0.14802 0.97587 0.25197
 C713 C -0.15292 0.94335 0.25182
 H714 H -0.16894 0.94520 0.25127
 Zn715 Zn -0.10486 0.98299 0.25102
 N716 N -0.12087 0.95895 0.25235
 C717 C -0.08753 0.97031 0.28700
 N718 N -0.08596 0.98339 0.27173
 C719 C -0.07190 0.99823 0.27162
 C720 C -0.05901 1.00064 0.28741
 C721 C -0.07487 0.97214 0.30308
 C722 C -0.08904 0.96628 0.21581
 C723 C -0.07863 0.96671 0.19833
 C724 C -0.07311 1.00285 0.20340
 C725 C -0.08356 1.00166 0.22082
 N726 N -0.09114 0.98354 0.22682
 H727 H -0.09908 0.95895 0.28709
 H728 H -0.07104 1.00867 0.25954
 H729 H -0.04810 1.01270 0.28711
 H730 H -0.07680 0.96203 0.31536
 H731 H -0.09553 0.95207 0.22036
 H732 H -0.07800 0.95272 0.18984
 H733 H -0.06675 1.01747 0.19973
 H734 H -0.08568 1.01533 0.22956
 C735 C -0.14398 0.92370 0.25165
 C736 C -0.14287 1.04387 0.25590
 C737 C -0.07038 0.98519 0.19165
 C738 C -0.06056 0.98766 0.30352
 C739 C 0.37000 0.51769 -0.22876
 H740 H 0.37208 0.50719 -0.21674
 C741 C 0.35841 0.53556 -0.22634
 H742 H 0.35135 0.53858 -0.21251
 C743 C 0.37683 0.52665 -0.26131
 H744 H 0.38438 0.52350 -0.27479
 C745 C 0.36517 0.54449 -0.25961
 H746 H 0.36374 0.55475 -0.27191
 N747 N 0.37881 0.51347 -0.24610
 C748 C 0.38960 0.44586 -0.25103
 H749 H 0.40553 0.44540 -0.25317
 C750 C 0.37912 0.42856 -0.25248
 H751 H 0.38708 0.41430 -0.25520
 C752 C 0.36081 0.46615 -0.24393
 H753 H 0.35358 0.48082 -0.24140
 C754 C 0.34869 0.44742 -0.24494
 H755 H 0.33281 0.44939 -0.24324
 Zn756 Zn 0.39533 0.48941 -0.24790
 N757 N 0.37989 0.46515 -0.24679
 C758 C 0.41547 0.47558 -0.21361
 N759 N 0.41365 0.49081 -0.22700
 C760 C 0.42387 0.50859 -0.22514
 C761 C 0.43629 0.51178 -0.20913
 C762 C 0.42786 0.47807 -0.19741
 C763 C 0.39790 0.48715 -0.28830
 C764 C 0.40694 0.48683 -0.30646
 C765 C 0.43902 0.48800 -0.29056
 C766 C 0.42933 0.48862 -0.27263
 N767 N 0.40909 0.48859 -0.27186
 H768 H 0.40695 0.46172 -0.21522
 H769 H 0.42198 0.52052 -0.23593
 H770 H 0.44414 0.52613 -0.20780
 H771 H 0.42874 0.46604 -0.18660
 H772 H 0.38188 0.48660 -0.28727
 H773 H 0.39777 0.48620 -0.31944
 H774 H 0.45509 0.48853 -0.29103
 H775 H 0.43798 0.48922 -0.25938
 C776 C 0.35716 0.42899 -0.24934
 C777 C 0.35574 0.54912 -0.24197
 C778 C 0.42773 0.48750 -0.30773
 C779 C 0.43824 0.49650 -0.19489
 C780 C 0.63346 -0.02074 -0.23291
 H781 H 0.63334 -0.00996 -0.22092
 C782 C 0.64371 -0.03853 -0.23139
 H783 H 0.65213 -0.04139 -0.21822
 C784 C 0.62232 -0.02857 -0.26492
 H785 H 0.61346 -0.02518 -0.27766
 C786 C 0.63370 -0.04811 -0.26408
 H787 H 0.63237 -0.05830 -0.27643
 N788 N 0.62256 -0.01580 -0.25037
 C789 C 0.61406 0.05110 -0.25342
 H790 H 0.59805 0.05179 -0.25498
 C791 C 0.62507 0.06907 -0.25500
 H792 H 0.61696 0.08338 -0.25699
 C793 C 0.64337 0.03130 -0.24845
 H794 H 0.65049 0.01645 -0.24649
 C795 C 0.65499 0.04892 -0.24969
 H796 H 0.67095 0.04689 -0.24890
 Zn797 Zn 0.60697 0.00899 -0.25112
 N798 N 0.62327 0.03268 -0.25029
 C799 C 0.59007 0.02321 -0.21566
 N800 N 0.58954 0.00839 -0.22958
 C801 C 0.57728 -0.00795 -0.22800
 C802 C 0.56479 -0.00980 -0.21198
 C803 C 0.57786 0.02195 -0.19937
 C804 C 0.60284 0.01230 -0.29136
 C805 C 0.59322 0.01526 -0.30917
 C806 C 0.56179 0.01619 -0.29244
 C807 C 0.57204 0.01297 -0.27492
 N808 N 0.59221 0.01103 -0.27471
 H809 H 0.60020 0.03586 -0.21698
 H810 H 0.57730 -0.01965 -0.23920
 H811 H 0.55503 -0.02284 -0.21111
 H812 H 0.57886 0.03369 -0.18825
 H813 H 0.61889 0.01111 -0.29077
 H814 H 0.60207 0.01576 -0.32222
 H815 H 0.54579 0.01816 -0.29223
 H816 H 0.56387 0.01255 -0.26148
 C817 C 0.64601 0.06837 -0.25325
 C818 C 0.64424 -0.05335 -0.24798
 C819 C 0.57240 0.01749 -0.30991
 C820 C 0.56500 0.00525 -0.19732
 C821 C 0.02649 0.25664 0.84458
 H822 H 0.01652 0.26936 0.84127
 C823 C 0.04395 0.25417 0.83421
 H824 H 0.04699 0.26471 0.82251
 C825 C 0.03461 0.22774 0.86414
 H826 H 0.03098 0.21767 0.87599
 C827 C 0.05262 0.22506 0.85450
 H828 H 0.06284 0.21308 0.85926
 N829 N 0.02229 0.24370 0.85938
 C830 C -0.03639 0.26986 0.86390
 H831 H -0.03632 0.27582 0.87850
 C832 C -0.05292 0.27343 0.85207
 H833 H -0.06551 0.28184 0.85795
 C834 C -0.02095 0.25005 0.83916
 H835 H -0.00885 0.24018 0.83447
 C836 C -0.03692 0.25367 0.82668
 H837 H -0.03660 0.24706 0.81224
 Zn838 Zn -0.00001 0.25067 0.87424
 N839 N -0.02094 0.25813 0.85738
 C840 C -0.00612 0.27846 0.90488
 N841 N 0.00669 0.27257 0.89068
 C842 C 0.02429 0.28221 0.88815
 C843 C 0.02889 0.29943 0.89918
 C844 C -0.00220 0.29576 0.91614
 C845 C -0.02476 0.21835 0.88442
 C846 C -0.03019 0.20099 0.89474
 C847 C -0.00117 0.20528 0.91523
 C848 C 0.00364 0.22263 0.90458
 N849 N -0.00788 0.22846 0.88925
 H850 H -0.01958 0.26996 0.90719
 H851 H 0.03468 0.27687 0.87734
 H852 H 0.04277 0.30719 0.89668
 H853 H -0.01309 0.30091 0.92665
 H854 H -0.03377 0.22344 0.87227
 H855 H -0.04348 0.19286 0.89054
 H856 H 0.00869 0.20026 0.92682
 H857 H 0.01687 0.23115 0.90814
 C858 C -0.05344 0.26499 0.83329
 C859 C 0.05766 0.23876 0.83966
 C860 C -0.01809 0.19403 0.91010
 C861 C 0.01528 0.30676 0.91295
 C862 C 0.48196 0.25250 0.16844
 H863 H 0.49581 0.25761 0.17470
 C864 C 0.46546 0.25025 0.18025
 H865 H 0.46671 0.25350 0.19564
 C866 C 0.46337 0.24224 0.14074
 H867 H 0.46279 0.23932 0.12527
 C868 C 0.44648 0.23986 0.15199
 H869 H 0.43271 0.23541 0.14503
 N870 N 0.48051 0.24875 0.14907
 C871 C 0.53255 0.23904 0.15816
 H872 H 0.52595 0.22423 0.15592
 C873 C 0.54916 0.24063 0.17008
 H874 H 0.55553 0.22683 0.17649
 C875 C 0.53259 0.27492 0.15218
 H876 H 0.52580 0.28826 0.14542
 C877 C 0.54930 0.27722 0.16401
 H878 H 0.55553 0.29232 0.16609
 Zn879 Zn 0.50251 0.25259 0.13330
 N880 N 0.52485 0.25597 0.14922
 C881 C 0.51427 0.28257 0.10720
 N882 N 0.49864 0.27595 0.11776
 C883 C 0.48076 0.28596 0.11738
 C884 C 0.47800 0.30325 0.10576
 C885 C 0.51220 0.29982 0.09546
 C886 C 0.50266 0.21059 0.12610
 C887 C 0.50458 0.19259 0.11532
 C888 C 0.51263 0.21299 0.08724
 C889 C 0.51061 0.23062 0.09858
 N890 N 0.50587 0.22911 0.11769
 H891 H 0.52842 0.27451 0.10808
 H892 H 0.46860 0.28059 0.12607
 H893 H 0.46364 0.31097 0.10544
 H894 H 0.52492 0.30512 0.08744
 H895 H 0.49824 0.20983 0.14114
 H896 H 0.50162 0.17799 0.12214
 H897 H 0.51649 0.21439 0.07206
 H898 H 0.51272 0.24542 0.09201
 C899 C 0.55784 0.25985 0.17294
 C900 C 0.44740 0.24412 0.17196
 C901 C 0.50960 0.19372 0.09564
 C902 C 0.49387 0.31033 0.09463
 C903 C -0.03039 0.76455 0.65704
 H904 H -0.02334 0.77935 0.65593
 C905 C -0.04541 0.76206 0.66926
 H906 H -0.05050 0.77531 0.67741
 C907 C -0.03206 0.72998 0.64565
 H908 H -0.02704 0.71765 0.63633
 C909 C -0.04859 0.72642 0.65898
 H910 H -0.05451 0.71108 0.65943
 N911 N -0.02379 0.74788 0.64492
 C912 C 0.03808 0.75493 0.63199
 H913 H 0.03805 0.75141 0.61666
 C914 C 0.05608 0.75649 0.64188
 H915 H 0.06986 0.75445 0.63402
 C916 C 0.02025 0.75988 0.66127
 H917 H 0.00636 0.76071 0.66891
 C918 C 0.03791 0.76146 0.67175
 H919 H 0.03742 0.76381 0.68731
 Zn920 Zn -0.00292 0.75265 0.62767
 N921 N 0.02064 0.75678 0.64173
 C922 C 0.00561 0.78291 0.60065
 N923 N -0.00897 0.77570 0.61223
 C924 C -0.02747 0.78448 0.61230
 C925 C -0.03161 0.80171 0.60090
 C926 C 0.00208 0.79990 0.58893
 C927 C 0.00878 0.71235 0.61952
 C928 C 0.01093 0.69469 0.60824
 C929 C -0.00194 0.71369 0.58063
 C930 C -0.00404 0.73091 0.59249
 N931 N 0.00102 0.72981 0.61158
 H932 H 0.02003 0.77549 0.60047
 H933 H -0.03909 0.77809 0.62107
 H934 H -0.04629 0.80876 0.60121
 H935 H 0.01403 0.80572 0.58015
 H936 H 0.01276 0.71205 0.63476
 H937 H 0.01628 0.68064 0.61500
 H938 H -0.00621 0.71475 0.56548
 H939 H -0.01011 0.74501 0.58652
 C940 C 0.05605 0.75964 0.66201
 C941 C -0.05557 0.74186 0.67031
 C942 C 0.00523 0.69518 0.58860
 C943 C -0.01667 0.80956 0.58911
 C944 C 0.53053 0.75753 0.35096
 H945 H 0.52566 0.77343 0.35181
 C946 C 0.54667 0.75211 0.33951
 H947 H 0.55440 0.76397 0.33169
 C948 C 0.52683 0.72290 0.36087
 H949 H 0.51902 0.71164 0.36929
 C950 C 0.54312 0.71681 0.34972
 H951 H 0.54789 0.70085 0.34960
 N952 N 0.52103 0.74301 0.36139
 C953 C 0.46206 0.76902 0.36984
 H954 H 0.46010 0.76706 0.38523
 C955 C 0.44588 0.77530 0.35852
 H956 H 0.43172 0.77824 0.36546
 C957 C 0.48193 0.76491 0.34178
 H958 H 0.49561 0.76000 0.33508
 C959 C 0.46616 0.77120 0.32993
 H960 H 0.46810 0.77146 0.31434
 Zn961 Zn 0.49979 0.75169 0.37705
 N962 N 0.47960 0.76370 0.36137
 C963 C 0.49600 0.77810 0.40912
 N964 N 0.50909 0.77037 0.39596
 C965 C 0.52859 0.77571 0.39643
 C966 C 0.53514 0.79072 0.40934
 C967 C 0.50188 0.79314 0.42225
 C968 C 0.47381 0.71873 0.38178
 C969 C 0.46693 0.70099 0.39064
 C970 C 0.49213 0.70498 0.41556
 C971 C 0.49852 0.72258 0.40624
 N972 N 0.48940 0.72898 0.38965
 H973 H 0.48089 0.77285 0.40930
 H974 H 0.53911 0.76863 0.38666
 H975 H 0.55053 0.79533 0.40908
 H976 H 0.49090 0.79996 0.43182
 H977 H 0.46703 0.72406 0.36840
 H978 H 0.45466 0.69278 0.38415
 H979 H 0.50003 0.69969 0.42839
 H980 H 0.51108 0.73092 0.41194
 C981 C 0.44771 0.77593 0.33827
 C982 C 0.55320 0.73157 0.33894
 C983 C 0.47627 0.69386 0.40765
 C984 C 0.52154 0.80006 0.42204
 Zr985 Zr 0.01083 -0.01870 1.02187
 O986 O 0.03167 -0.00679 1.04197
 O987 O 0.00910 -0.04924 1.03085
 O988 O -0.00056 -0.01858 1.05056
 O989 O 0.04510 -0.02583 0.98511
 O990 O -0.03040 -0.00166 1.04744
 O991 O 0.03980 -0.03120 1.01737
 O992 O -0.01575 -0.06209 1.01185
 O993 O -0.01960 -0.02442 1.01855
 O994 O 0.00754 -0.03414 0.99542
 O995 O -0.00347 0.01028 1.02264
 O996 O 0.02292 0.00090 1.00075
 Zr997 Zr -0.02648 0.00902 0.97018
 Zr998 Zr -0.03364 0.00446 1.01775
 Zr999 Zr 0.01791 -0.01422 0.97428
 Zr1000 Zr -0.02274 -0.03878 0.99164
 O1001 O 0.04162 0.00316 0.96319
 O1002 O -0.04971 -0.04885 1.00396
 O1003 O -0.01225 -0.02014 0.96916
 O1004 O -0.03821 -0.01067 0.99128
 O1005 O -0.02335 0.02458 0.99664
 O1006 O 0.00389 0.01457 0.97371
 C1007 C -0.00283 -0.06350 1.02567
 C1008 C 0.05076 -0.03199 1.00203
 C1009 C -0.01672 -0.01064 1.05753
 O1010 O -0.05863 -0.01223 1.02694
 O1011 O -0.05977 0.01892 1.00742
 O1012 O -0.05465 0.02325 0.97497
 C1013 C -0.06525 0.02516 0.99047
 O1014 O 0.03035 0.03404 1.02091
 Zr1015 Zr 0.00709 0.02896 1.00049
 O1016 O -0.02500 0.03980 0.96156
 O1017 O -0.03825 0.03196 1.03364
 O1018 O -0.00256 0.05248 1.01978
 O1019 O 0.03186 0.04134 0.98592
 O1020 O -0.00392 0.05372 0.98389
 C1021 C -0.01598 0.05504 0.96937
 O1022 O -0.04824 -0.00250 0.95083
 O1023 O 0.02427 -0.04233 0.95990
 O1024 O -0.01592 0.00725 0.94126
 O1025 O 0.01302 -0.01131 0.94434
 O1026 O -0.01158 -0.06407 0.97534
 O1027 O -0.04257 -0.04540 0.96837
 C1028 C -0.00053 -0.00213 0.93422
 H1029 H 0.01499 -0.04736 0.99502
 H1030 H -0.05248 -0.01323 0.98881
 H1031 H 0.00925 0.02317 0.96319
 H1032 H -0.00119 0.01722 1.03525
 H1033 H -0.05023 -0.06396 1.00224
 H1034 H -0.06588 -0.00338 1.03633
 H1035 H -0.05065 0.03027 1.04112
 H1036 H 0.00443 0.06522 1.01623
 H1037 H -0.01892 -0.07639 0.97947
 H1038 H 0.03664 -0.04035 0.95244
 H1039 H 0.04877 -0.00578 0.95381
 H1040 H 0.03173 0.05635 0.98839
 H1041 H -0.04757 -0.05955 0.96977
 H1042 H -0.05230 0.00898 0.94215
 H1043 H 0.03585 -0.01829 1.05058
 H1044 H 0.03393 0.04874 1.02086
 Zr1045 Zr 0.50780 0.48468 0.52148
 O1046 O 0.52741 0.49831 0.54176
 O1047 O 0.50724 0.45430 0.53116
 O1048 O 0.49557 0.48519 0.54989
 O1049 O 0.54378 0.47894 0.48605
 O1050 O 0.46459 0.49900 0.54495
 O1051 O 0.53737 0.47331 0.51809
 O1052 O 0.48539 0.43901 0.51043
 O1053 O 0.47796 0.47681 0.51715
 O1054 O 0.50645 0.46864 0.49515
 O1055 O 0.49177 0.51270 0.52104
 O1056 O 0.51948 0.50467 0.50041
 Zr1057 Zr 0.47086 0.50889 0.46787
 Zr1058 Zr 0.46228 0.50472 0.51520
 Zr1059 Zr 0.51645 0.48878 0.47407
 Zr1060 Zr 0.47675 0.46185 0.49037
 O1061 O 0.53936 0.50763 0.46358
 O1062 O 0.45044 0.45014 0.50270
 O1063 O 0.48694 0.48075 0.46800
 O1064 O 0.45958 0.48886 0.48890
 O1065 O 0.47208 0.52511 0.49411
 O1066 O 0.50068 0.51655 0.47230
 C1067 C 0.49740 0.43876 0.52507
 C1068 C 0.54893 0.47289 0.50317
 C1069 C 0.47849 0.49181 0.55598
 O1070 O 0.43781 0.48673 0.52348
 O1071 O 0.43596 0.51771 0.50385
 O1072 O 0.44187 0.52173 0.47151
 C1073 C 0.43075 0.52344 0.48668
 O1074 O 0.52411 0.53881 0.51992
 Zr1075 Zr 0.50197 0.53165 0.49890
 O1076 O 0.47096 0.53945 0.45842
 O1077 O 0.45553 0.53201 0.53073
 O1078 O 0.49031 0.55488 0.51745
 O1079 O 0.52632 0.54538 0.48477
 O1080 O 0.48975 0.55527 0.48157
 C1081 C 0.47840 0.55546 0.46646
 O1082 O 0.45033 0.49563 0.44824
 O1083 O 0.52526 0.46096 0.46039
 O1084 O 0.48231 0.50657 0.43932
 O1085 O 0.51237 0.49049 0.44395
 O1086 O 0.48973 0.43739 0.47421
 O1087 O 0.45777 0.45348 0.46695
 C1088 C 0.49846 0.49797 0.43308
 H1089 H 0.51466 0.45590 0.49515
 H1090 H 0.44559 0.48537 0.48603
 H1091 H 0.50585 0.52523 0.46174
 H1092 H 0.49308 0.52006 0.53357
 H1093 H 0.45096 0.43499 0.50129
 H1094 H 0.42978 0.49518 0.53259
 H1095 H 0.44288 0.52968 0.53764
 H1096 H 0.49656 0.56801 0.51382
 H1097 H 0.48316 0.42455 0.47818
 H1098 H 0.53772 0.46370 0.45331
 H1099 H 0.54740 0.49905 0.45459
 H1100 H 0.52506 0.56042 0.48677
 H1101 H 0.45337 0.43916 0.46874
 H1102 H 0.44592 0.50664 0.43918
 H1103 H 0.53194 0.48729 0.55075
 H1104 H 0.52692 0.55370 0.51948
 Zr1105 Zr 0.48765 1.01830 0.52088
 O1106 O 0.46839 1.00801 0.54290
 O1107 O 0.48687 1.05008 0.52518
 O1108 O 0.49948 1.02357 0.54903
 O1109 O 0.45207 1.01733 0.48434
 O1110 O 0.53183 1.01280 0.54646
 O1111 O 0.45773 1.02752 0.51556
 O1112 O 0.50838 1.06216 0.50258
 O1113 O 0.51712 1.02665 0.51555
 O1114 O 0.48856 1.02901 0.49230
 O1115 O 0.50495 0.99156 0.52557
 O1116 O 0.47684 0.99401 0.50359
 Zr1117 Zr 0.52581 0.98590 0.47278
 Zr1118 Zr 0.53409 0.99967 0.51870
 Zr1119 Zr 0.47935 1.00463 0.47501
 Zr1120 Zr 0.51794 1.03615 0.48669
 O1121 O 0.45640 0.98354 0.46922
 O1122 O 0.54374 1.05115 0.49697
 O1123 O 0.50851 1.01275 0.46785
 O1124 O 0.53628 1.01015 0.49012
 O1125 O 0.52516 0.97505 0.50135
 O1126 O 0.49636 0.97781 0.47829
 C1127 C 0.49626 1.06462 0.51681
 C1128 C 0.44654 1.02593 0.50032
 C1129 C 0.51718 1.02068 0.55593
 O1130 O 0.55843 1.01944 0.52305
 O1131 O 0.56040 0.98439 0.51024
 O1132 O 0.55510 0.97503 0.47874
 C1133 C 0.56594 0.97577 0.49428
 O1134 O 0.47407 0.96427 0.52907
 Zr1135 Zr 0.49562 0.96811 0.50700
 O1136 O 0.52683 0.95402 0.46870
 O1137 O 0.54133 0.97709 0.53975
 O1138 O 0.50879 0.94946 0.52891
 O1139 O 0.47165 0.95077 0.49581
 O1140 O 0.50814 0.94194 0.49354
 C1141 C 0.51957 0.93936 0.47880
 O1142 O 0.54612 0.99582 0.45153
 O1143 O 0.47070 1.02835 0.45562
 O1144 O 0.51460 0.98269 0.44407
 O1145 O 0.48266 0.99492 0.44618
 O1146 O 0.50427 1.05679 0.46672
 O1147 O 0.53647 1.04036 0.46219
 C1148 C 0.49737 0.98715 0.43674
 H1149 H 0.47998 1.04125 0.49001
 H1150 H 0.55016 1.01350 0.48679
 H1151 H 0.49153 0.96690 0.46947
 H1152 H 0.50393 0.98685 0.53917
 H1153 H 0.54267 1.06573 0.49293
 H1154 H 0.56667 1.01337 0.53361
 H1155 H 0.55395 0.98132 0.54599
 H1156 H 0.50312 0.93554 0.52766
 H1157 H 0.51066 1.07031 0.46844
 H1158 H 0.45816 1.02401 0.44927
 H1159 H 0.44808 0.98960 0.45872
 H1160 H 0.47338 0.93650 0.50060
 H1161 H 0.54076 1.05484 0.46170
 H1162 H 0.55088 0.98341 0.44446
 H1163 H 0.46341 1.02036 0.54992
 H1164 H 0.47233 0.94944 0.53160
 Zr1165 Zr -0.01172 0.52237 1.02191
 O1166 O -0.03366 0.51173 1.04118
 O1167 O -0.00947 0.55307 1.03039
 O1168 O -0.00141 0.52274 1.05111
 O1169 O -0.04365 0.53107 0.98304
 O1170 O 0.02777 0.50436 1.05003
 O1171 O -0.04017 0.53542 1.01573
 O1172 O 0.01663 0.56463 1.01268
 O1173 O 0.01904 0.52671 1.02029
 O1174 O -0.00658 0.53715 0.99553
 O1175 O 0.00129 0.49286 1.02385
 O1176 O -0.02365 0.50300 1.00028
 Zr1177 Zr 0.02671 0.49212 0.97270
 Zr1178 Zr 0.03188 0.49722 1.02061
 Zr1179 Zr -0.01678 0.51738 0.97397
 Zr1180 Zr 0.02401 0.54042 0.99348
 O1181 O -0.04097 0.50101 0.96210
 O1182 O 0.05054 0.54962 1.00763
 O1183 O 0.01382 0.52186 0.97054
 O1184 O 0.03827 0.51164 0.99430
 O1185 O 0.02171 0.47722 0.99910
 O1186 O -0.00400 0.48800 0.97459
 C1187 C 0.00303 0.56687 1.02560
 C1188 C -0.05011 0.53716 0.99967
 C1189 C 0.01414 0.51444 1.05911
 O1190 O 0.05735 0.51275 1.03076
 O1191 O 0.05749 0.48088 1.01185
 O1192 O 0.05431 0.47728 0.97906
 C1193 C 0.06385 0.47462 0.99523
 O1194 O -0.03341 0.47076 1.02041
 Zr1195 Zr -0.00904 0.47428 1.00129
 O1196 O 0.02448 0.46120 0.96454
 O1197 O 0.03441 0.47006 1.03731
 O1198 O -0.00115 0.45077 1.02129
 O1199 O -0.03367 0.46265 0.98557
 O1200 O 0.00149 0.44877 0.98548
 C1201 C 0.01427 0.44658 0.97180
 O1202 O 0.04953 0.50244 0.95426
 O1203 O -0.02086 0.54531 0.95867
 O1204 O 0.01729 0.49330 0.94324
 O1205 O -0.01097 0.51316 0.94434
 O1206 O 0.01487 0.56566 0.97600
 O1207 O 0.04548 0.54563 0.97160
 C1208 C 0.00250 0.50293 0.93517
 H1209 H -0.01346 0.55065 0.99452
 H1210 H 0.05274 0.51352 0.99266
 H1211 H -0.00930 0.47938 0.96393
 H1212 H -0.00182 0.48635 1.03642
 H1213 H 0.05176 0.56464 1.00579
 H1214 H 0.06379 0.50375 1.04061
 H1215 H 0.04666 0.47125 1.04528
 H1216 H -0.00852 0.43828 1.01752
 H1217 H 0.02250 0.57776 0.98037
 H1218 H -0.03301 0.54385 0.95059
 H1219 H -0.04729 0.51005 0.95221
 H1220 H -0.03437 0.44775 0.98835
 H1221 H 0.05103 0.55954 0.97325
 H1222 H 0.05354 0.49064 0.94593
 H1223 H -0.03779 0.52358 1.04938
 H1224 H -0.03743 0.45618 1.02058
 Zr1225 Zr -0.02755 0.48470 0.46900
 O1226 O -0.04926 0.49579 0.44909
 O1227 O -0.02466 0.45386 0.46044
 O1228 O -0.01677 0.48475 0.44005
 O1229 O -0.06049 0.47742 0.50665
 O1230 O 0.01279 0.50147 0.44247
 O1231 O -0.05605 0.47220 0.47421
 O1232 O -0.00013 0.44140 0.48035
 O1233 O 0.00320 0.47960 0.47173
 O1234 O -0.02294 0.46990 0.49561
 O1235 O -0.01468 0.51397 0.46773
 O1236 O -0.03998 0.50444 0.49026
 Zr1237 Zr 0.00975 0.51396 0.51968
 Zr1238 Zr 0.01585 0.50882 0.47196
 Zr1239 Zr -0.03371 0.48990 0.51678
 Zr1240 Zr 0.00762 0.46586 0.49876
 O1241 O -0.05799 0.50703 0.52812
 O1242 O 0.03397 0.45577 0.48472
 O1243 O -0.00317 0.48463 0.52128
 O1244 O 0.02184 0.49423 0.49843
 O1245 O 0.00519 0.52908 0.49318
 O1246 O -0.02096 0.51889 0.51683
 C1247 C -0.01304 0.43940 0.46663
 C1248 C -0.06651 0.47123 0.48986
 C1249 C -0.00081 0.49228 0.43276
 O1250 O 0.04188 0.49290 0.46301
 O1251 O 0.04086 0.52507 0.48147
 O1252 O 0.03722 0.52853 0.51418
 C1253 C 0.04684 0.53131 0.49823
 O1254 O -0.04901 0.53765 0.46968
 Zr1255 Zr -0.02551 0.53284 0.49002
 O1256 O 0.00705 0.54478 0.52806
 O1257 O 0.01837 0.53571 0.45499
 O1258 O -0.01664 0.55642 0.47089
 O1259 O -0.05105 0.54437 0.50455
 O1260 O -0.01620 0.55785 0.50707
 C1261 C -0.00359 0.55960 0.52109
 O1262 O 0.03255 0.50316 0.53855
 O1263 O -0.03844 0.46200 0.53168
 O1264 O 0.00008 0.51216 0.54892
 O1265 O -0.02827 0.49340 0.54660
 O1266 O -0.00144 0.44134 0.51673
 O1267 O 0.02922 0.46011 0.52083
 C1268 C -0.01475 0.50267 0.55641
 H1269 H -0.02986 0.45662 0.49648
 H1270 H 0.03629 0.49206 0.50049
 H1271 H -0.02651 0.52746 0.52744
 H1272 H -0.01749 0.52063 0.45509
 H1273 H 0.03520 0.44071 0.48660
 H1274 H 0.04847 0.50173 0.45336
 H1275 H 0.03092 0.53435 0.44761
 H1276 H -0.02401 0.56913 0.47454
 H1277 H 0.00619 0.42890 0.51279
 H1278 H -0.05078 0.46386 0.53931
 H1279 H -0.06452 0.49813 0.53774
 H1280 H -0.05183 0.55938 0.50218
 H1281 H 0.03497 0.44614 0.51910
 H1282 H 0.03625 0.51481 0.54710
 H1283 H -0.05310 0.48403 0.44073
 H1284 H -0.05288 0.55239 0.46956
 Zr1285 Zr 0.47328 -0.00970 -0.03245
 O1286 O 0.45266 0.00360 -0.05226
 O1287 O 0.47446 -0.04031 -0.04198
 O1288 O 0.48467 -0.00953 -0.06109
 O1289 O 0.43919 -0.01626 0.00422
 O1290 O 0.51496 0.00555 -0.05763
 O1291 O 0.44410 -0.02099 -0.02820
 O1292 O 0.49756 -0.05508 -0.02182
 O1293 O 0.50362 -0.01691 -0.02928
 O1294 O 0.47641 -0.02561 -0.00626
 O1295 O 0.48798 0.01867 -0.03245
 O1296 O 0.46159 0.01020 -0.01092
 Zr1297 Zr 0.51124 0.01518 0.02003
 Zr1298 Zr 0.51803 0.01136 -0.02781
 Zr1299 Zr 0.46635 -0.00561 0.01517
 Zr1300 Zr 0.50659 -0.03180 -0.00262
 O1301 O 0.44271 0.01269 0.02619
 O1302 O 0.53253 -0.04312 -0.01660
 O1303 O 0.49637 -0.01318 0.02024
 O1304 O 0.52256 -0.00448 -0.00170
 O1305 O 0.50824 0.03148 -0.00607
 O1306 O 0.48095 0.02234 0.01663
 C1307 C 0.48486 -0.05573 -0.03585
 C1308 C 0.43330 -0.02190 -0.01276
 C1309 C 0.50108 -0.00254 -0.06786
 O1310 O 0.54315 -0.00602 -0.03684
 O1311 O 0.54378 0.02554 -0.01729
 O1312 O 0.53960 0.02842 0.01541
 C1313 C 0.54972 0.03104 -0.00028
 O1314 O 0.45528 0.04490 -0.03036
 Zr1315 Zr 0.47794 0.03749 -0.00978
 O1316 O 0.50985 0.04561 0.02974
 O1317 O 0.52275 0.03859 -0.04375
 O1318 O 0.48883 0.06097 -0.02798
 O1319 O 0.45287 0.05022 0.00468
 O1320 O 0.48862 0.06116 0.00823
 C1321 C 0.50063 0.06144 0.02286
 O1322 O 0.53320 0.00241 0.03877
 O1323 O 0.45969 -0.03349 0.02933
 O1324 O 0.50100 0.01215 0.04912
 O1325 O 0.47096 -0.00308 0.04502
 O1326 O 0.49578 -0.05627 0.01442
 O1327 O 0.52733 -0.03968 0.01966
 C1328 C 0.48501 0.00393 0.05574
 H1329 H 0.46869 -0.03844 -0.00588
 H1330 H 0.53683 -0.00766 0.00055
 H1331 H 0.47566 0.03083 0.02742
 H1332 H 0.48585 0.02596 -0.04491
 H1333 H 0.53276 -0.05827 -0.01521
 H1334 H 0.55046 0.00264 -0.04612
 H1335 H 0.53531 0.03657 -0.05101
 H1336 H 0.48233 0.07407 -0.02401
 H1337 H 0.50283 -0.06901 0.01028
 H1338 H 0.44717 -0.03115 0.03657
 H1339 H 0.43540 0.00401 0.03545
 H1340 H 0.45323 0.06533 0.00299
 H1341 H 0.53250 -0.05380 0.01744
 H1342 H 0.53731 0.01348 0.04782
 H1343 H 0.44825 -0.00754 -0.06109
 H1344 H 0.45236 0.05985 -0.02991
 Zr1345 Zr 0.52462 0.51746 -0.02710
 O1346 O 0.54590 0.50540 -0.04674
 O1347 O 0.52295 0.54838 -0.03549
 O1348 O 0.51400 0.51795 -0.05611
 O1349 O 0.55857 0.52251 0.01055
 O1350 O 0.48343 0.50326 -0.05413
 O1351 O 0.55336 0.52911 -0.02162
 O1352 O 0.49907 0.56186 -0.01568
 O1353 O 0.49421 0.52425 -0.02442
 O1354 O 0.52110 0.53224 -0.00033
 O1355 O 0.51025 0.48900 -0.02891
 O1356 O 0.53637 0.49683 -0.00621
 Zr1357 Zr 0.48656 0.48979 0.02288
 Zr1358 Zr 0.48006 0.49583 -0.02474
 Zr1359 Zr 0.53122 0.51144 0.02051
 Zr1360 Zr 0.49081 0.53787 0.00283
 O1361 O 0.55471 0.49289 0.03166
 O1362 O 0.46450 0.54945 -0.01059
 O1363 O 0.50101 0.51832 0.02505
 O1364 O 0.47515 0.51036 0.00197
 O1365 O 0.48994 0.47474 -0.00381
 O1366 O 0.51696 0.48322 0.02004
 C1367 C 0.51183 0.56326 -0.02942
 C1368 C 0.56422 0.52916 -0.00609
 C1369 C 0.49763 0.51146 -0.06361
 O1370 O 0.45495 0.51345 -0.03364
 O1371 O 0.45411 0.48130 -0.01549
 O1372 O 0.45857 0.47634 0.01702
 C1373 C 0.44836 0.47478 0.00114
 O1374 O 0.54338 0.46347 -0.02731
 Zr1375 Zr 0.52038 0.46929 -0.00693
 O1376 O 0.48799 0.45897 0.03114
 O1377 O 0.47575 0.46929 -0.04200
 O1378 O 0.51006 0.44650 -0.02647
 O1379 O 0.54540 0.45602 0.00744
 O1380 O 0.50985 0.44463 0.00972
 C1381 C 0.49760 0.44358 0.02395
 O1382 O 0.46447 0.50166 0.04175
 O1383 O 0.53758 0.53886 0.03579
 O1384 O 0.49665 0.49052 0.05211
 O1385 O 0.52588 0.50783 0.05025
 O1386 O 0.50144 0.56199 0.02068
 O1387 O 0.47023 0.54436 0.02539
 C1388 C 0.51206 0.49900 0.05979
 H1389 H 0.52859 0.54518 0.00067
 H1390 H 0.46085 0.51328 0.00411
 H1391 H 0.52221 0.47423 0.03051
 H1392 H 0.51261 0.48231 -0.04163
 H1393 H 0.46405 0.56451 -0.00842
 H1394 H 0.44782 0.50519 -0.04352
 H1395 H 0.46328 0.47157 -0.04948
 H1396 H 0.51679 0.43337 -0.02299
 H1397 H 0.49416 0.57473 0.01689
 H1398 H 0.54984 0.53619 0.04350
 H1399 H 0.56180 0.50131 0.04142
 H1400 H 0.54531 0.44106 0.00476
 H1401 H 0.46501 0.55858 0.02397
 H1402 H 0.46023 0.49015 0.05010
 H1403 H 0.55025 0.51694 -0.05501
 H1404 H 0.54646 0.44855 -0.02772
 Zr1405 Zr 0.02623 1.01434 0.47034
 O1406 O 0.04725 1.00044 0.45149
 O1407 O 0.02548 1.04463 0.46026
 O1408 O 0.01566 1.01331 0.44130
 O1409 O 0.06021 1.02080 0.50777
 O1410 O -0.01508 0.99914 0.44406
 O1411 O 0.05521 1.02568 0.47528
 O1412 O 0.00260 1.06039 0.47974
 O1413 O -0.00399 1.02226 0.47256
 O1414 O 0.02311 1.03074 0.49631
 O1415 O 0.01106 0.98629 0.47010
 O1416 O 0.03744 0.99468 0.49233
 Zr1417 Zr -0.01262 0.99092 0.52177
 Zr1418 Zr -0.01894 0.99430 0.47385
 Zr1419 Zr 0.03263 1.01093 0.51823
 Zr1420 Zr -0.00699 1.03758 0.49906
 O1421 O 0.05563 0.99228 0.53016
 O1422 O -0.03265 1.04919 0.48452
 O1423 O 0.00262 1.01907 0.52233
 O1424 O -0.02344 1.01055 0.49975
 O1425 O -0.00959 0.97432 0.49587
 O1426 O 0.01757 0.98318 0.51933
 C1427 C 0.01535 1.06042 0.46588
 C1428 C 0.06599 1.02645 0.49084
 C1429 C -0.00068 1.00633 0.43413
 O1430 O -0.04337 1.01222 0.46379
 O1431 O -0.04532 0.98117 0.48385
 O1432 O -0.04091 0.97789 0.51658
 C1433 C -0.05114 0.97563 0.50079
 O1434 O 0.04401 0.96030 0.47352
 Zr1435 Zr 0.02066 0.96770 0.49308
 O1436 O -0.01248 0.96047 0.53137
 O1437 O -0.02418 0.96678 0.45833
 O1438 O 0.01048 0.94417 0.47427
 O1439 O 0.04472 0.95420 0.50876
 O1440 O 0.00841 0.94435 0.51012
 C1441 C -0.00401 0.94434 0.52426
 O1442 O -0.03436 1.00465 0.53993
 O1443 O 0.03978 1.03890 0.53223
 O1444 O -0.00252 0.99312 0.55095
 O1445 O 0.02728 1.00918 0.54809
 O1446 O 0.00411 1.06216 0.51606
 O1447 O -0.02777 1.04614 0.52085
 C1448 C 0.01318 1.00153 0.55815
 H1449 H 0.03097 1.04347 0.49673
 H1450 H -0.03766 1.01402 0.50169
 H1451 H 0.02244 0.97459 0.53026
 H1452 H 0.01330 0.97873 0.45780
 H1453 H -0.03259 1.06436 0.48577
 H1454 H -0.05076 1.00356 0.45443
 H1455 H -0.03651 0.96900 0.45060
 H1456 H 0.01693 0.93111 0.47844
 H1457 H -0.00266 1.07494 0.51160
 H1458 H 0.05201 1.03630 0.54000
 H1459 H 0.06302 1.00099 0.53947
 H1460 H 0.04403 0.93914 0.50683
 H1461 H -0.03261 1.06036 0.51848
 H1462 H -0.03898 0.99380 0.54885
 H1463 H 0.05194 1.01131 0.44263
 H1464 H 0.04707 0.94539 0.47417
 Zr1465 Zr 0.73764 0.25557 0.22808
 O1466 O 0.74764 0.27548 0.20606
 O1467 O 0.70733 0.25385 0.22182
 O1468 O 0.73489 0.24185 0.20011
 O1469 O 0.73370 0.29345 0.26324
 O1470 O 0.74891 0.21010 0.20451
 O1471 O 0.72590 0.28568 0.23179
 O1472 O 0.69569 0.23164 0.24446
 O1473 O 0.73185 0.22461 0.23367
 O1474 O 0.72530 0.25433 0.25587
 O1475 O 0.76529 0.24034 0.22593
 O1476 O 0.75856 0.26932 0.24690
 Zr1477 Zr 0.76844 0.22033 0.27968
 Zr1478 Zr 0.75961 0.20978 0.23309
 Zr1479 Zr 0.74643 0.26634 0.27472
 Zr1480 Zr 0.72056 0.22352 0.26175
 O1481 O 0.76456 0.29144 0.28237
 O1482 O 0.70910 0.19578 0.25035
 O1483 O 0.74069 0.23569 0.28203
 O1484 O 0.74750 0.20700 0.26083
 O1485 O 0.78099 0.22157 0.25199
 O1486 O 0.77398 0.25131 0.27400
 C1487 C 0.69333 0.24382 0.22989
 C1488 C 0.72604 0.29794 0.24657
 C1489 C 0.73998 0.22373 0.19403
 O1490 O 0.74359 0.18246 0.22830
 O1491 O 0.77668 0.18479 0.24312
 O1492 O 0.78205 0.19100 0.27531
 C1493 C 0.78412 0.18002 0.25977
 O1494 O 0.78890 0.27488 0.22396
 Zr1495 Zr 0.78544 0.25249 0.24604
 O1496 O 0.79876 0.22227 0.28618
 O1497 O 0.78341 0.20422 0.21372
 O1498 O 0.80623 0.24052 0.22578
 O1499 O 0.79906 0.27885 0.25809
 O1500 O 0.81062 0.24181 0.26150
 C1501 C 0.81293 0.23057 0.27672
 O1502 O 0.75890 0.19896 0.30066
 O1503 O 0.72100 0.27434 0.29122
 O1504 O 0.76859 0.23292 0.30816
 O1505 O 0.75223 0.26372 0.30458
 O1506 O 0.69848 0.23591 0.28044
 O1507 O 0.71612 0.20376 0.28581
 C1508 C 0.76091 0.24978 0.31488
 H1509 H 0.71272 0.26228 0.25710
 H1510 H 0.74533 0.19244 0.26422
 H1511 H 0.78325 0.25742 0.28355
 H1512 H 0.77068 0.24154 0.21264
 H1513 H 0.69466 0.19571 0.25314
 H1514 H 0.75098 0.17442 0.21839
 H1515 H 0.78108 0.19068 0.20756
 H1516 H 0.81896 0.24769 0.22795
 H1517 H 0.68603 0.22835 0.27795
 H1518 H 0.72369 0.28774 0.29750
 H1519 H 0.75696 0.29980 0.29189
 H1520 H 0.81331 0.27819 0.25455
 H1521 H 0.70252 0.19819 0.28518
 H1522 H 0.77067 0.19528 0.30876
 H1523 H 0.73585 0.27941 0.19810
 H1524 H 0.80316 0.27812 0.22262
 Zr1525 Zr 0.76792 0.73714 0.72636
 O1526 O 0.75927 0.71788 0.70306
 O1527 O 0.79859 0.73842 0.72265
 O1528 O 0.77252 0.75133 0.69899
 O1529 O 0.76885 0.69859 0.76080
 O1530 O 0.75975 0.78365 0.70349
 O1531 O 0.77873 0.70658 0.73018
 O1532 O 0.80915 0.75973 0.74682
 O1533 O 0.77413 0.76774 0.73348
 O1534 O 0.77816 0.73732 0.75512
 O1535 O 0.74099 0.75342 0.72237
 O1536 O 0.74521 0.72359 0.74279
 Zr1537 Zr 0.73425 0.77201 0.77633
 Zr1538 Zr 0.74697 0.78356 0.73106
 Zr1539 Zr 0.75526 0.72550 0.77160
 Zr1540 Zr 0.78328 0.76775 0.76246
 O1541 O 0.73632 0.70029 0.77608
 O1542 O 0.79622 0.79557 0.75328
 O1543 O 0.76129 0.75566 0.78053
 O1544 O 0.75698 0.78517 0.75983
 O1545 O 0.72386 0.77195 0.74760
 O1546 O 0.72830 0.74143 0.76902
 C1547 C 0.81220 0.74801 0.73200
 C1548 C 0.77762 0.69416 0.74474
 C1549 C 0.76854 0.76982 0.69319
 O1550 O 0.76421 0.81035 0.72850
 O1551 O 0.73008 0.80892 0.74055
 O1552 O 0.72170 0.80182 0.77179
 C1553 C 0.72131 0.81342 0.75657
 O1554 O 0.71660 0.71995 0.71697
 Zr1555 Zr 0.71901 0.74138 0.74017
 O1556 O 0.70341 0.77099 0.77981
 O1557 O 0.72484 0.79058 0.71001
 O1558 O 0.70018 0.75484 0.71875
 O1559 O 0.70388 0.71501 0.74993
 O1560 O 0.69299 0.75203 0.75388
 C1561 C 0.68977 0.76310 0.76907
 O1562 O 0.74261 0.79248 0.79878
 O1563 O 0.77876 0.71693 0.79065
 O1564 O 0.73164 0.75864 0.80433
 O1565 O 0.74586 0.72682 0.80045
 O1566 O 0.80372 0.75405 0.78230
 O1567 O 0.78632 0.78635 0.78769
 C1568 C 0.73712 0.74075 0.81068
 H1569 H 0.79045 0.72904 0.75717
 H1570 H 0.75929 0.79955 0.76390
 H1571 H 0.71809 0.73531 0.77742
 H1572 H 0.73654 0.75280 0.70866
 H1573 H 0.81038 0.79516 0.75734
 H1574 H 0.75781 0.81896 0.71833
 H1575 H 0.72807 0.80418 0.70452
 H1576 H 0.68712 0.74803 0.71950
 H1577 H 0.81645 0.76142 0.78116
 H1578 H 0.77539 0.70337 0.79615
 H1579 H 0.74281 0.69148 0.78605
 H1580 H 0.68998 0.71613 0.74516
 H1581 H 0.80004 0.79162 0.78844
 H1582 H 0.73034 0.79625 0.80595
 H1583 H 0.77155 0.71389 0.69600
 H1584 H 0.70239 0.71732 0.71423
 Zr1585 Zr 0.23633 0.22406 0.77978
 O1586 O 0.24755 0.20379 0.80134
 O1587 O 0.20640 0.22687 0.78742
 O1588 O 0.23535 0.23783 0.80773
 O1589 O 0.23095 0.18606 0.74507
 O1590 O 0.24862 0.26948 0.80280
 O1591 O 0.22431 0.19428 0.77661
 O1592 O 0.19433 0.25093 0.76614
 O1593 O 0.23030 0.25520 0.77422
 O1594 O 0.22244 0.22560 0.75256
 O1595 O 0.26402 0.23866 0.78085
 O1596 O 0.25633 0.20970 0.76034
 Zr1597 Zr 0.26437 0.25819 0.72696
 Zr1598 Zr 0.25793 0.26940 0.77379
 Zr1599 Zr 0.24266 0.21290 0.73305
 Zr1600 Zr 0.21753 0.25655 0.74663
 O1601 O 0.26036 0.18734 0.72451
 O1602 O 0.20687 0.28537 0.75694
 O1603 O 0.23654 0.24364 0.72573
 O1604 O 0.24442 0.27226 0.74646
 O1605 O 0.27840 0.25690 0.75418
 O1606 O 0.27021 0.22710 0.73262
 C1607 C 0.19261 0.23873 0.78068
 C1608 C 0.22402 0.18187 0.76195
 C1609 C 0.24049 0.25588 0.81352
 O1610 O 0.24174 0.29688 0.77948
 O1611 O 0.27309 0.29467 0.76265
 O1612 O 0.27831 0.28702 0.73071
 C1613 C 0.27991 0.29883 0.74573
 O1614 O 0.28803 0.20376 0.78239
 Zr1615 Zr 0.28318 0.22584 0.76011
 O1616 O 0.29426 0.25526 0.71932
 O1617 O 0.28303 0.27454 0.79173
 O1618 O 0.30504 0.23768 0.77927
 O1619 O 0.29603 0.19880 0.74801
 O1620 O 0.30746 0.23519 0.74334
 C1621 C 0.30894 0.24636 0.72804
 O1622 O 0.25382 0.27982 0.70628
 O1623 O 0.21628 0.20542 0.71781
 O1624 O 0.26291 0.24560 0.69848
 O1625 O 0.24661 0.21551 0.70304
 O1626 O 0.19383 0.24421 0.73005
 O1627 O 0.21183 0.27521 0.72187
 C1628 C 0.25458 0.22909 0.69215
 H1629 H 0.20975 0.21811 0.75203
 H1630 H 0.24196 0.28683 0.74298
 H1631 H 0.27892 0.22064 0.72274
 H1632 H 0.27014 0.23740 0.79392
 H1633 H 0.19232 0.28592 0.75460
 H1634 H 0.24960 0.30484 0.78904
 H1635 H 0.28090 0.28809 0.79804
 H1636 H 0.31770 0.23023 0.77664
 H1637 H 0.18171 0.25238 0.73312
 H1638 H 0.21873 0.19203 0.71130
 H1639 H 0.25225 0.17926 0.71526
 H1640 H 0.31046 0.19899 0.75099
 H1641 H 0.19814 0.28096 0.72254
 H1642 H 0.26516 0.28310 0.69775
 H1643 H 0.23625 0.20026 0.80982
 H1644 H 0.30239 0.20032 0.78329
 Zr1645 Zr 0.26933 0.77747 0.28128
 O1646 O 0.25938 0.79566 0.30492
 O1647 O 0.29999 0.77622 0.28623
 O1648 O 0.27311 0.76215 0.30822
 O1649 O 0.26914 0.81814 0.24910
 O1650 O 0.26211 0.72977 0.30186
 O1651 O 0.27947 0.80809 0.27928
 O1652 O 0.31188 0.75668 0.26122
 O1653 O 0.27700 0.74735 0.27297
 O1654 O 0.28021 0.77906 0.25296
 O1655 O 0.24297 0.76064 0.28340
 O1656 O 0.24642 0.79168 0.26480
 Zr1657 Zr 0.23824 0.74524 0.22848
 Zr1658 Zr 0.25044 0.73106 0.27357
 Zr1659 Zr 0.25722 0.79161 0.23634
 Zr1660 Zr 0.28672 0.74915 0.24433
 O1661 O 0.23724 0.81666 0.23223
 O1662 O 0.30060 0.72102 0.25258
 O1663 O 0.26470 0.76209 0.22612
 O1664 O 0.26109 0.73132 0.24510
 O1665 O 0.22724 0.74339 0.25677
 O1666 O 0.23086 0.77526 0.23707
 C1667 C 0.31418 0.76751 0.27673
 C1668 C 0.27778 0.82147 0.26552
 C1669 C 0.26953 0.74345 0.31317
 O1670 O 0.26905 0.70465 0.27567
 O1671 O 0.23541 0.70573 0.26195
 O1672 O 0.22627 0.71536 0.23131
 C1673 C 0.22670 0.70248 0.24557
 O1674 O 0.21706 0.79340 0.28968
 Zr1675 Zr 0.22089 0.77342 0.26549
 O1676 O 0.20756 0.74632 0.22365
 O1677 O 0.22785 0.72237 0.29302
 O1678 O 0.20209 0.75856 0.28549
 O1679 O 0.20488 0.80010 0.25652
 O1680 O 0.19564 0.76312 0.25031
 C1681 C 0.19331 0.75310 0.23434
 O1682 O 0.24797 0.72602 0.20548
 O1683 O 0.28086 0.80184 0.21885
 O1684 O 0.23570 0.76014 0.20105
 O1685 O 0.24895 0.79160 0.20705
 O1686 O 0.30709 0.76410 0.22593
 O1687 O 0.29107 0.73207 0.21832
 C1688 C 0.24090 0.77833 0.19574
 H1689 H 0.29221 0.78757 0.25176
 H1690 H 0.26408 0.71725 0.24035
 H1691 H 0.22064 0.78174 0.22859
 H1692 H 0.23806 0.76046 0.29692
 H1693 H 0.31483 0.72187 0.24911
 H1694 H 0.26282 0.69536 0.28516
 H1695 H 0.23154 0.70854 0.29797
 H1696 H 0.18879 0.76527 0.28460
 H1697 H 0.32006 0.75678 0.22715
 H1698 H 0.27692 0.81558 0.21383
 H1699 H 0.24361 0.82613 0.22299
 H1700 H 0.19091 0.79847 0.26067
 H1701 H 0.30497 0.72686 0.21786
 H1702 H 0.23602 0.72251 0.19770
 H1703 H 0.27129 0.79934 0.31269
 H1704 H 0.20269 0.79581 0.29194
 Zr1705 Zr 0.23304 0.75721 0.72600
 O1706 O 0.24394 0.77617 0.70366
 O1707 O 0.20289 0.75587 0.71908
 O1708 O 0.23053 0.74272 0.69839
 O1709 O 0.23008 0.79646 0.75986
 O1710 O 0.24365 0.71076 0.70391
 O1711 O 0.22192 0.78772 0.72872
 O1712 O 0.19023 0.73464 0.74203
 O1713 O 0.22624 0.72667 0.73245
 O1714 O 0.22016 0.75732 0.75357
 O1715 O 0.26024 0.74101 0.72475
 O1716 O 0.25407 0.77093 0.74470
 Zr1717 Zr 0.26211 0.72282 0.77912
 Zr1718 Zr 0.25352 0.71093 0.73276
 Zr1719 Zr 0.24141 0.76924 0.77238
 Zr1720 Zr 0.21446 0.72691 0.76035
 O1721 O 0.26029 0.79373 0.78004
 O1722 O 0.20242 0.69894 0.75009
 O1723 O 0.23472 0.73907 0.78050
 O1724 O 0.24094 0.70958 0.76041
 O1725 O 0.27503 0.72267 0.75155
 O1726 O 0.26859 0.75340 0.77260
 C1727 C 0.18853 0.74620 0.72693
 C1728 C 0.22253 0.80055 0.74305
 C1729 C 0.23533 0.72431 0.69288
 O1730 O 0.23638 0.68432 0.72812
 O1731 O 0.26870 0.68529 0.74405
 O1732 O 0.27483 0.69291 0.77582
 C1733 C 0.27589 0.68088 0.76088
 O1734 O 0.28476 0.77485 0.72214
 Zr1735 Zr 0.28042 0.75324 0.74475
 O1736 O 0.29252 0.72383 0.78576
 O1737 O 0.27779 0.70369 0.71445
 O1738 O 0.30116 0.74023 0.72499
 O1739 O 0.29470 0.77943 0.75638
 O1740 O 0.30507 0.74212 0.76059
 C1741 C 0.30702 0.73122 0.77605
 O1742 O 0.25178 0.70253 0.80066
 O1743 O 0.21586 0.77901 0.78787
 O1744 O 0.26209 0.73634 0.80726
 O1745 O 0.24588 0.76699 0.80241
 O1746 O 0.19240 0.74095 0.77802
 O1747 O 0.20899 0.70849 0.78513
 C1748 C 0.25406 0.75329 0.81338
 H1749 H 0.20777 0.76566 0.75427
 H1750 H 0.23821 0.69525 0.76423
 H1751 H 0.27788 0.75949 0.78214
 H1752 H 0.26591 0.74156 0.71154
 H1753 H 0.18794 0.69941 0.75266
 H1754 H 0.24369 0.67563 0.71863
 H1755 H 0.27507 0.69010 0.70855
 H1756 H 0.31402 0.74716 0.72708
 H1757 H 0.17973 0.73380 0.77548
 H1758 H 0.21901 0.79238 0.79400
 H1759 H 0.25275 0.80259 0.78920
 H1760 H 0.30898 0.77822 0.75305
 H1761 H 0.19512 0.70360 0.78465
 H1762 H 0.26336 0.69878 0.80899
 H1763 H 0.23240 0.78016 0.69538
 H1764 H 0.29909 0.77787 0.72106
 Zr1765 Zr 0.26959 0.24388 0.22636
 O1766 O 0.26096 0.22491 0.20284
 O1767 O 0.30030 0.24513 0.22280
 O1768 O 0.27420 0.25839 0.19916
 O1769 O 0.27074 0.20503 0.26051
 O1770 O 0.26121 0.29057 0.20389
 O1771 O 0.28040 0.21325 0.22984
 O1772 O 0.31071 0.26630 0.24717
 O1773 O 0.27587 0.27438 0.23392
 O1774 O 0.27966 0.24365 0.25517
 O1775 O 0.24274 0.26036 0.22249
 O1776 O 0.24674 0.23015 0.24248
 Zr1777 Zr 0.23574 0.27808 0.27666
 Zr1778 Zr 0.24878 0.29036 0.23162
 Zr1779 Zr 0.25663 0.23161 0.27137
 Zr1780 Zr 0.28484 0.27393 0.26296
 O1781 O 0.23769 0.20626 0.27500
 O1782 O 0.29781 0.30195 0.25440
 O1783 O 0.26272 0.26160 0.28076
 O1784 O 0.25861 0.29143 0.26047
 O1785 O 0.22555 0.27856 0.24787
 O1786 O 0.22970 0.24766 0.26887
 C1787 C 0.31382 0.25471 0.23229
 C1788 C 0.27960 0.20084 0.24444
 C1789 C 0.27000 0.27685 0.19344
 O1790 O 0.26644 0.31685 0.22914
 O1791 O 0.23256 0.31598 0.24163
 O1792 O 0.22361 0.30811 0.27256
 C1793 C 0.22383 0.32025 0.25774
 O1794 O 0.21843 0.22679 0.21666
 Zr1795 Zr 0.22062 0.24812 0.23997
 O1796 O 0.20483 0.27746 0.27975
 O1797 O 0.22641 0.29797 0.21099
 O1798 O 0.20203 0.26155 0.21832
 O1799 O 0.20505 0.22197 0.24956
 O1800 O 0.19458 0.25932 0.25326
 C1801 C 0.19126 0.27025 0.26852
 O1802 O 0.24407 0.29795 0.29961
 O1803 O 0.27985 0.22287 0.29068
 O1804 O 0.23275 0.26412 0.30441
 O1805 O 0.24685 0.23231 0.30009
 O1806 O 0.30526 0.25980 0.28255
 O1807 O 0.28781 0.29197 0.28855
 C1808 C 0.23807 0.24606 0.31047
 H1809 H 0.29196 0.23539 0.25720
 H1810 H 0.26101 0.30571 0.26477
 H1811 H 0.21936 0.24150 0.27709
 H1812 H 0.23830 0.25995 0.20876
 H1813 H 0.31196 0.30145 0.25851
 H1814 H 0.26011 0.32567 0.21908
 H1815 H 0.22978 0.31158 0.20559
 H1816 H 0.18898 0.25470 0.21891
 H1817 H 0.31800 0.26717 0.28155
 H1818 H 0.27640 0.20927 0.29604
 H1819 H 0.24399 0.19730 0.28497
 H1820 H 0.19119 0.22334 0.24470
 H1821 H 0.30155 0.29716 0.28948
 H1822 H 0.23175 0.30170 0.30671
 H1823 H 0.27324 0.22099 0.19575
 H1824 H 0.20425 0.22394 0.21397
 Zr1825 Zr 0.73300 0.71964 0.28633
 O1826 O 0.74316 0.70120 0.30976
 O1827 O 0.70238 0.72112 0.29148
 O1828 O 0.72982 0.73474 0.31349
 O1829 O 0.73279 0.67952 0.25344
 O1830 O 0.74101 0.76709 0.30763
 O1831 O 0.72304 0.68887 0.28387
 O1832 O 0.69035 0.74108 0.26679
 O1833 O 0.72548 0.74994 0.27855
 O1834 O 0.72155 0.71855 0.25806
 O1835 O 0.75957 0.73622 0.28854
 O1836 O 0.75551 0.70557 0.26943
 Zr1837 Zr 0.76331 0.75237 0.23381
 Zr1838 Zr 0.75219 0.76602 0.27927
 Zr1839 Zr 0.74415 0.70619 0.24105
 Zr1840 Zr 0.71517 0.74866 0.24996
 O1841 O 0.76396 0.68123 0.23593
 O1842 O 0.70168 0.77676 0.25884
 O1843 O 0.73666 0.73585 0.23139
 O1844 O 0.74095 0.76624 0.25087
 O1845 O 0.77493 0.75374 0.26207
 O1846 O 0.77067 0.72220 0.24181
 C1847 C 0.68814 0.73016 0.28215
 C1848 C 0.72461 0.67573 0.26983
 C1849 C 0.73361 0.75335 0.31871
 O1850 O 0.73386 0.79257 0.28194
 O1851 O 0.76718 0.79139 0.26794
 O1852 O 0.77541 0.78207 0.23703
 C1853 C 0.77545 0.79476 0.25147
 O1854 O 0.78546 0.70325 0.29408
 Zr1855 Zr 0.78121 0.72354 0.27023
 O1856 O 0.79391 0.75113 0.22880
 O1857 O 0.77527 0.77417 0.29872
 O1858 O 0.80057 0.73803 0.29029
 O1859 O 0.79668 0.69677 0.26072
 O1860 O 0.80624 0.73367 0.25499
 C1861 C 0.80832 0.74398 0.23924
 O1862 O 0.75334 0.77210 0.21126
 O1863 O 0.71993 0.69610 0.22387
 O1864 O 0.76476 0.73805 0.20598
 O1865 O 0.75110 0.70685 0.21161
 O1866 O 0.69440 0.73409 0.23136
 O1867 O 0.71033 0.76623 0.22435
 C1868 C 0.75874 0.72021 0.20031
 H1869 H 0.70950 0.71009 0.25681
 H1870 H 0.73795 0.78040 0.24639
 H1871 H 0.78060 0.71576 0.23305
 H1872 H 0.76476 0.73617 0.30202
 H1873 H 0.68736 0.77609 0.25547
 H1874 H 0.74040 0.80170 0.29151
 H1875 H 0.77181 0.78796 0.30394
 H1876 H 0.81380 0.73124 0.28919
 H1877 H 0.68146 0.74140 0.23279
 H1878 H 0.72370 0.68244 0.21853
 H1879 H 0.75735 0.67207 0.22645
 H1880 H 0.81077 0.69817 0.26474
 H1881 H 0.69643 0.77143 0.22406
 H1882 H 0.76516 0.77559 0.20345
 H1883 H 0.73132 0.69750 0.31745
 H1884 H 0.79986 0.70071 0.29617
 Zr1885 Zr 0.76713 0.27271 0.77834
 O1886 O 0.75784 0.29113 0.80209
 O1887 O 0.79784 0.27062 0.78302
 O1888 O 0.77076 0.25730 0.80527
 O1889 O 0.76736 0.31346 0.74623
 O1890 O 0.75894 0.22521 0.79905
 O1891 O 0.77784 0.30314 0.77627
 O1892 O 0.80880 0.25019 0.75819
 O1893 O 0.77409 0.24248 0.76985
 O1894 O 0.77777 0.27414 0.74993
 O1895 O 0.74045 0.25643 0.78067
 O1896 O 0.74429 0.28739 0.76212
 Zr1897 Zr 0.73493 0.24126 0.72575
 Zr1898 Zr 0.74727 0.22672 0.77074
 Zr1899 Zr 0.75482 0.28722 0.73356
 Zr1900 Zr 0.78353 0.24413 0.74110
 O1901 O 0.73529 0.31270 0.72977
 O1902 O 0.79683 0.21543 0.74847
 O1903 O 0.76164 0.25761 0.72313
 O1904 O 0.75763 0.22685 0.74215
 O1905 O 0.72414 0.23952 0.75414
 O1906 O 0.72815 0.27137 0.73450
 C1907 C 0.81153 0.26094 0.77365
 C1908 C 0.77622 0.31659 0.76256
 C1909 C 0.76675 0.23872 0.81030
 O1910 O 0.76565 0.20015 0.77290
 O1911 O 0.73215 0.20151 0.75902
 O1912 O 0.72292 0.21141 0.72845
 C1913 C 0.72348 0.19839 0.74260
 O1914 O 0.71519 0.28969 0.78722
 Zr1915 Zr 0.71840 0.26966 0.76299
 O1916 O 0.70422 0.24255 0.72150
 O1917 O 0.72450 0.21834 0.79011
 O1918 O 0.69955 0.25513 0.78317
 O1919 O 0.70283 0.29666 0.75417
 O1920 O 0.69275 0.25990 0.74805
 C1921 C 0.69018 0.24962 0.73227
 O1922 O 0.74414 0.22222 0.70243
 O1923 O 0.77849 0.29697 0.71587
 O1924 O 0.73207 0.25645 0.69847
 O1925 O 0.74613 0.28754 0.70439
 O1926 O 0.80434 0.25893 0.72307
 O1927 O 0.78711 0.22757 0.71468
 C1928 C 0.73753 0.27456 0.69317
 H1929 H 0.78997 0.28234 0.74870
 H1930 H 0.76038 0.21275 0.73732
 H1931 H 0.71793 0.27805 0.72615
 H1932 H 0.73564 0.25633 0.79422
 H1933 H 0.81100 0.21594 0.74469
 H1934 H 0.75931 0.19091 0.78236
 H1935 H 0.72803 0.20448 0.79508
 H1936 H 0.68637 0.26208 0.78243
 H1937 H 0.81708 0.25115 0.72410
 H1938 H 0.77477 0.31077 0.71088
 H1939 H 0.74173 0.32207 0.72049
 H1940 H 0.68887 0.29533 0.75844
 H1941 H 0.80093 0.22224 0.71380
 H1942 H 0.73205 0.21889 0.69479
 H1943 H 0.76991 0.29449 0.80976
 H1944 H 0.70089 0.29237 0.78962
 C1945 C 0.46782 0.98868 0.35935
 C1946 C 0.45031 0.97805 0.35511
 C1947 C 0.44033 0.98186 0.33755
 C1948 C 0.44747 0.99649 0.32434
 C1949 C 0.46538 1.00663 0.32860
 C1950 C 0.47558 1.00284 0.34616
 C1951 C 0.47765 0.98568 0.37839
 C1952 C 0.49462 0.99707 0.38309
 C1953 C 0.50270 0.99570 0.40195
 C1954 C 0.49350 0.98349 0.41601
 C1955 C 0.47711 0.97147 0.41079
 C1956 C 0.46909 0.97251 0.39201
 C1957 C 0.49300 1.01339 0.35109
 C1958 C 0.50236 1.01056 0.36923
 C1959 C 0.44275 0.96427 0.36878
 C1960 C 0.45194 0.96161 0.38695
 H1961 H 0.49921 1.02428 0.34102
 H1962 H 0.51545 1.01942 0.37263
 H1963 H 0.42930 0.95589 0.36561
 H1964 H 0.44527 0.95133 0.39732
 H1965 H 0.42683 0.97361 0.33426
 H1966 H 0.47098 1.01797 0.31861
 H1967 H 0.51500 1.00538 0.40615
 H1968 H 0.46982 0.96239 0.42177
 C1969 C -0.02560 0.50131 0.85692
 C1970 C -0.03198 0.48265 0.84902
 C1971 C -0.04288 0.48277 0.83155
 C1972 C -0.04745 0.50141 0.82174
 C1973 C -0.04001 0.51991 0.82967
 C1974 C -0.02946 0.51996 0.84735
 C1975 C -0.01551 0.50141 0.87605
 C1976 C -0.01054 0.52026 0.88463
 C1977 C -0.00295 0.52046 0.90364
 C1978 C -0.00016 0.50201 0.91396
 C1979 C -0.00410 0.48314 0.90482
 C1980 C -0.01214 0.48278 0.88591
 C1981 C -0.02341 0.53843 0.85604
 C1982 C -0.01424 0.53859 0.87441
 C1983 C -0.02777 0.46425 0.85900
 C1984 C -0.01798 0.46431 0.87710
 H1985 H -0.02628 0.55295 0.84882
 H1986 H -0.01037 0.55322 0.88084
 H1987 H -0.03247 0.44970 0.85298
 H1988 H -0.01547 0.44982 0.88449
 H1989 H -0.04747 0.46819 0.82553
 H1990 H -0.04357 0.53455 0.82298
 H1991 H -0.00020 0.53501 0.91082
 H1992 H -0.00241 0.46897 0.91295
 C1993 C 0.02865 -0.00452 0.85676
 C1994 C 0.03461 -0.02355 0.84891
 C1995 C 0.04536 -0.02406 0.83155
 C1996 C 0.05058 -0.00569 0.82219
 C1997 C 0.04409 0.01328 0.83009
 C1998 C 0.03313 0.01394 0.84739
 C1999 C 0.01835 -0.00388 0.87562
 C2000 C 0.01308 0.01519 0.88392
 C2001 C 0.00486 0.01574 0.90266
 C2002 C 0.00256 -0.00259 0.91311
 C2003 C 0.00715 -0.02157 0.90427
 C2004 C 0.01504 -0.02232 0.88552
 C2005 C 0.02709 0.03270 0.85583
 C2006 C 0.01721 0.03332 0.87375
 C2007 C 0.03022 -0.04171 0.85889
 C2008 C 0.02068 -0.04110 0.87693
 H2009 H 0.03037 0.04707 0.84870
 H2010 H 0.01323 0.04813 0.87993
 H2011 H 0.03465 -0.05649 0.85294
 H2012 H 0.01810 -0.05542 0.88442
 H2013 H 0.04990 -0.03875 0.82548
 H2014 H 0.04817 0.02755 0.82322
 H2015 H 0.00172 0.03037 0.90965
 H2016 H 0.00557 -0.03566 0.91245
 C2017 C 0.52544 0.49217 0.35474
 C2018 C 0.52530 0.50973 0.34297
 C2019 C 0.53550 0.50915 0.32523
 C2020 C 0.54596 0.49122 0.31939
 C2021 C 0.54533 0.47358 0.33117
 C2022 C 0.53522 0.47401 0.34887
 C2023 C 0.51608 0.49313 0.37405
 C2024 C 0.51732 0.47589 0.38620
 C2025 C 0.51011 0.47740 0.40513
 C2026 C 0.50184 0.49597 0.41206
 C2027 C 0.49969 0.51287 0.39948
 C2028 C 0.50708 0.51158 0.38041
 C2029 C 0.53541 0.45684 0.36117
 C2030 C 0.52663 0.45778 0.37955
 C2031 C 0.51556 0.52770 0.34951
 C2032 C 0.50660 0.52861 0.36790
 H2033 H 0.54285 0.44272 0.35677
 H2034 H 0.52757 0.44437 0.38882
 H2035 H 0.51524 0.54133 0.34051
 H2036 H 0.49968 0.54292 0.37254
 H2037 H 0.53566 0.52274 0.31618
 H2038 H 0.55355 0.45982 0.32705
 H2039 H 0.51175 0.46437 0.41483
 H2040 H 0.49355 0.52725 0.40489
 C2041 C 0.53768 0.49634 0.13896
 C2042 C 0.54481 0.51440 0.14761
 C2043 C 0.55435 0.51327 0.16575
 C2044 C 0.55720 0.49421 0.17503
 C2045 C 0.54968 0.47627 0.16630
 C2046 C 0.53985 0.47727 0.14826
 C2047 C 0.52860 0.49730 0.11941
 C2048 C 0.52201 0.47916 0.11045
 C2049 C 0.51477 0.47997 0.09124
 C2050 C 0.51479 0.49864 0.08100
 C2051 C 0.52078 0.51675 0.09044
 C2052 C 0.52766 0.51620 0.10965
 C2053 C 0.53261 0.45953 0.13908
 C2054 C 0.52379 0.46047 0.12053
 C2055 C 0.54286 0.53313 0.13766
 C2056 C 0.53450 0.53400 0.11896
 H2057 H 0.53409 0.44473 0.14614
 H2058 H 0.51878 0.44637 0.11382
 H2059 H 0.54826 0.54717 0.14419
 H2060 H 0.53376 0.54867 0.11157
 H2061 H 0.56028 0.52709 0.17227
 H2062 H 0.55167 0.46157 0.17347
 H2063 H 0.51050 0.46597 0.08385
 H2064 H 0.52090 0.53110 0.08248
 C2065 C 0.03767 1.00198 0.63787
 C2066 C 0.04839 1.01887 0.64483
 C2067 C 0.05756 1.01775 0.66313
 C2068 C 0.05629 0.99983 0.67444
 C2069 C 0.04505 0.98319 0.66741
 C2070 C 0.03577 0.98416 0.64909
 C2071 C 0.02906 1.00263 0.61810
 C2072 C 0.01903 0.98543 0.61075
 C2073 C 0.01225 0.98557 0.59135
 C2074 C 0.01599 1.00258 0.57940
 C2075 C 0.02530 1.01997 0.58732
 C2076 C 0.03194 1.02006 0.60659
 C2077 C 0.02511 0.96749 0.64149
 C2078 C 0.01689 0.96811 0.62266
 C2079 C 0.05030 1.03632 0.63308
 C2080 C 0.04224 1.03689 0.61427
 H2081 H 0.02345 0.95367 0.65003
 H2082 H 0.00918 0.95474 0.61724
 H2083 H 0.05848 1.04947 0.63831
 H2084 H 0.04447 1.05045 0.60549
 H2085 H 0.06639 1.03052 0.66820
 H2086 H 0.04376 0.96941 0.67609
 H2087 H 0.00530 0.97207 0.58523
 H2088 H 0.02816 1.03312 0.57815
 C2089 C -0.03562 0.50165 0.63703
 C2090 C -0.04403 0.48378 0.64464
 C2091 C -0.05204 0.48424 0.66338
 C2092 C -0.05199 0.50247 0.67446
 C2093 C -0.04310 0.52017 0.66673
 C2094 C -0.03491 0.51983 0.64799
 C2095 C -0.02820 0.50153 0.61689
 C2096 C -0.02034 0.51955 0.60896
 C2097 C -0.01449 0.51966 0.58934
 C2098 C -0.01705 0.50203 0.57773
 C2099 C -0.02434 0.48397 0.58615
 C2100 C -0.02994 0.48361 0.60567
 C2101 C -0.02649 0.53743 0.63976
 C2102 C -0.01931 0.53728 0.62061
 C2103 C -0.04487 0.46597 0.63313
 C2104 C -0.03799 0.46590 0.61395
 H2105 H -0.02575 0.55155 0.64809
 H2106 H -0.01328 0.55129 0.61476
 H2107 H -0.05128 0.45209 0.63885
 H2108 H -0.03932 0.45197 0.60542
 H2109 H -0.05909 0.47065 0.66901
 H2110 H -0.04280 0.53422 0.67519
 H2111 H -0.00910 0.53366 0.58285
 H2112 H -0.02628 0.47035 0.57727
 C2113 C 0.46226 -0.00035 0.13604
 C2114 C 0.44672 -0.01351 0.14085
 C2115 C 0.43885 -0.01290 0.15956
 C2116 C 0.44669 0.00026 0.17394
 C2117 C 0.46278 0.01301 0.16894
 C2118 C 0.47037 0.01300 0.14989
 C2119 C 0.46969 -0.00012 0.11591
 C2120 C 0.48448 0.01382 0.11059
 C2121 C 0.49048 0.01480 0.09096
 C2122 C 0.48163 0.00189 0.07696
 C2123 C 0.46760 -0.01264 0.08302
 C2124 C 0.46133 -0.01344 0.10222
 C2125 C 0.48560 0.02631 0.14426
 C2126 C 0.49243 0.02681 0.12494
 C2127 C 0.43896 -0.02679 0.12672
 C2128 C 0.44626 -0.02688 0.10776
 H2129 H 0.49205 0.03672 0.15477
 H2130 H 0.50388 0.03761 0.12119
 H2131 H 0.42704 -0.03710 0.13031
 H2132 H 0.43973 -0.03723 0.09723
 H2133 H 0.42611 -0.02230 0.16258
 H2134 H 0.46932 0.02306 0.17969
 H2135 H 0.50130 0.02600 0.08652
 H2136 H 0.46091 -0.02299 0.07258
 C2137 C 0.37259 0.43418 -0.00084
 C2138 C 0.35890 0.43914 -0.01567
 C2139 C 0.34082 0.42865 -0.01678
 C2140 C 0.33647 0.41307 -0.00336
 C2141 C 0.35039 0.40835 0.01147
 C2142 C 0.36844 0.41892 0.01283
 C2143 C 0.39174 0.44503 0.00025
 C2144 C 0.40546 0.44012 0.01507
 C2145 C 0.42382 0.45029 0.01580
 C2146 C 0.42855 0.46495 0.00158
 C2147 C 0.41444 0.46972 -0.01304
 C2148 C 0.39604 0.45990 -0.01374
 C2149 C 0.38249 0.41448 0.02752
 C2150 C 0.40063 0.42492 0.02864
 C2151 C 0.36369 0.45434 -0.02923
 C2152 C 0.38195 0.46450 -0.02832
 H2153 H 0.37946 0.40277 0.03820
 H2154 H 0.41104 0.42093 0.04015
 H2155 H 0.35329 0.45832 -0.04075
 H2156 H 0.38509 0.47599 -0.03917
 H2157 H 0.33032 0.43227 -0.02832
 H2158 H 0.34709 0.39659 0.02203
 H2159 H 0.43459 0.44639 0.02703
 H2160 H 0.41780 0.48108 -0.02398
 C2161 C -0.12662 0.93454 0.50019
 C2162 C -0.14064 0.93943 0.48565
 C2163 C -0.15862 0.92873 0.48482
 C2164 C -0.16253 0.91299 0.49821
 C2165 C -0.14824 0.90830 0.51271
 C2166 C -0.13030 0.91909 0.51382
 C2167 C -0.10760 0.94565 0.50101
 C2168 C -0.09354 0.94082 0.51555
 C2169 C -0.07530 0.95119 0.51600
 C2170 C -0.07098 0.96595 0.50174
 C2171 C -0.08541 0.97067 0.48740
 C2172 C -0.10373 0.96067 0.48701
 C2173 C -0.11593 0.91473 0.52821
 C2174 C -0.09791 0.92543 0.52910
 C2175 C -0.13630 0.95480 0.47209
 C2176 C -0.11815 0.96517 0.47272
 H2177 H -0.11859 0.90288 0.53886
 H2178 H -0.08723 0.92147 0.54037
 H2179 H -0.14696 0.95873 0.46079
 H2180 H -0.11534 0.97677 0.46187
 H2181 H -0.16941 0.93234 0.47352
 H2182 H -0.15120 0.89639 0.52324
 H2183 H -0.06424 0.94729 0.52696
 H2184 H -0.08231 0.98208 0.47642
 C2185 C -0.14234 0.06521 0.98984
 C2186 C -0.15738 0.05766 1.00178
 C2187 C -0.17584 0.06804 1.00255
 C2188 C -0.17932 0.08639 0.99194
 C2189 C -0.16381 0.09355 0.97993
 C2190 C -0.14547 0.08298 0.97873
 C2191 C -0.12281 0.05447 0.98920
 C2192 C -0.10777 0.06189 0.97711
 C2193 C -0.08908 0.05181 0.97687
 C2194 C -0.08530 0.03485 0.98908
 C2195 C -0.10064 0.02761 1.00101
 C2196 C -0.11944 0.03723 1.00101
 C2197 C -0.13012 0.08990 0.96672
 C2198 C -0.11166 0.07950 0.96585
 C2199 C -0.15352 0.04007 1.01307
 C2200 C -0.13486 0.03011 1.01278
 H2201 H -0.13235 0.10356 0.95797
 H2202 H -0.10024 0.08545 0.95647
 H2203 H -0.16495 0.03409 1.02242
 H2204 H -0.13246 0.01677 1.02191
 H2205 H -0.18700 0.06232 1.01233
 H2206 H -0.16607 0.10700 0.97092
 H2207 H -0.07731 0.05758 0.96779
 H2208 H -0.09789 0.01448 1.01036
 C2209 C 0.35341 0.56281 0.48583
 C2210 C 0.33902 0.55631 0.49909
 C2211 C 0.32078 0.56702 0.50026
 C2212 C 0.31697 0.58436 0.48853
 C2213 C 0.33154 0.59052 0.47515
 C2214 C 0.34977 0.57976 0.47372
 C2215 C 0.37286 0.55195 0.48498
 C2216 C 0.38740 0.55854 0.47190
 C2217 C 0.40615 0.54857 0.47168
 C2218 C 0.41044 0.53249 0.48480
 C2219 C 0.39549 0.52592 0.49753
 C2220 C 0.37671 0.53552 0.49766
 C2221 C 0.36457 0.58577 0.46064
 C2222 C 0.38301 0.57532 0.45971
 C2223 C 0.34332 0.53948 0.51121
 C2224 C 0.36186 0.52931 0.51055
 H2225 H 0.36194 0.59879 0.45115
 H2226 H 0.39403 0.58062 0.44955
 H2227 H 0.33237 0.53430 0.52149
 H2228 H 0.36465 0.51659 0.52036
 H2229 H 0.30981 0.56229 0.51074
 H2230 H 0.32869 0.60370 0.46591
 H2231 H 0.41762 0.55385 0.46198
 H2232 H 0.39859 0.51347 0.50759
 C2233 C 0.12281 0.57212 0.49845
 C2234 C 0.13279 0.57457 0.48077
 C2235 C 0.15126 0.58431 0.48062
 C2236 C 0.15989 0.59166 0.49797
 C2237 C 0.14969 0.58893 0.51563
 C2238 C 0.13110 0.57921 0.51593
 C2239 C 0.10329 0.56191 0.49861
 C2240 C 0.09320 0.55942 0.51623
 C2241 C 0.07463 0.54956 0.51624
 C2242 C 0.06624 0.54220 0.49874
 C2243 C 0.07673 0.54503 0.48124
 C2244 C 0.09514 0.55480 0.48110
 C2245 C 0.12056 0.57649 0.53330
 C2246 C 0.10197 0.56679 0.53344
 C2247 C 0.12408 0.56723 0.46356
 C2248 C 0.10560 0.55751 0.46372
 H2249 H 0.12673 0.58191 0.54691
 H2250 H 0.09441 0.56503 0.54717
 H2251 H 0.13162 0.56901 0.44983
 H2252 H 0.09945 0.55207 0.45010
 H2253 H 0.15903 0.58599 0.46700
 H2254 H 0.15602 0.59468 0.52906
 H2255 H 0.06683 0.54756 0.52980
 H2256 H 0.07063 0.53954 0.46761
 C2257 C 0.62664 0.07008 0.00098
 C2258 C 0.63726 0.07147 -0.01644
 C2259 C 0.65565 0.08137 -0.01653
 C2260 C 0.66358 0.08995 0.00062
 C2261 C 0.65281 0.08816 0.01808
 C2262 C 0.63427 0.07830 0.01831
 C2263 C 0.60708 0.05993 0.00101
 C2264 C 0.59624 0.05864 0.01833
 C2265 C 0.57749 0.04910 0.01814
 C2266 C 0.56964 0.04094 0.00070
 C2267 C 0.58099 0.04239 -0.01644
 C2268 C 0.59957 0.05183 -0.01638
 C2269 C 0.62306 0.07665 0.03541
 C2270 C 0.60441 0.06702 0.03542
 C2271 C 0.62923 0.06304 -0.03351
 C2272 C 0.61072 0.05339 -0.03348
 H2273 H 0.62870 0.08293 0.04891
 H2274 H 0.59631 0.06619 0.04892
 H2275 H 0.63728 0.06398 -0.04704
 H2276 H 0.60505 0.04716 -0.04700
 H2277 H 0.66387 0.08231 -0.02998
 H2278 H 0.65863 0.09482 0.03135
 H2279 H 0.56903 0.04816 0.03143
 H2280 H 0.57539 0.03621 -0.03000
 C2281 C 0.64366 0.93643 0.49595
 C2282 C 0.65567 0.93854 0.51258
 C2283 C 0.67428 0.92849 0.51334
 C2284 C 0.68098 0.91635 0.49763
 C2285 C 0.66873 0.91456 0.48098
 C2286 C 0.65004 0.92453 0.48010
 C2287 C 0.62393 0.94676 0.49522
 C2288 C 0.61176 0.94451 0.47870
 C2289 C 0.59288 0.95419 0.47822
 C2290 C 0.58615 0.96601 0.49417
 C2291 C 0.59876 0.96812 0.51053
 C2292 C 0.61756 0.95854 0.51114
 C2293 C 0.63749 0.92269 0.46378
 C2294 C 0.61871 0.93249 0.46309
 C2295 C 0.64878 0.95057 0.52817
 C2296 C 0.63007 0.96040 0.52746
 H2297 H 0.64220 0.91353 0.45143
 H2298 H 0.60952 0.93057 0.45026
 H2299 H 0.65790 0.95235 0.54108
 H2300 H 0.62531 0.96945 0.53986
 H2301 H 0.68361 0.93023 0.52611
 H2302 H 0.67355 0.90507 0.46890
 H2303 H 0.58340 0.95234 0.46557
 H2304 H 0.59394 0.97714 0.52293
 C2305 C 0.14141 0.43484 0.99587
 C2306 C 0.15271 0.43492 1.01309
 C2307 C 0.17152 0.42528 1.01341
 C2308 C 0.17911 0.41540 0.99671
 C2309 C 0.16752 0.41559 0.97949
 C2310 C 0.14868 0.42530 0.97901
 C2311 C 0.12153 0.44488 0.99554
 C2312 C 0.11016 0.44487 0.97834
 C2313 C 0.09126 0.45454 0.97814
 C2314 C 0.08370 0.46406 0.99507
 C2315 C 0.09544 0.46375 1.01217
 C2316 C 0.11429 0.45428 1.01247
 C2317 C 0.13687 0.42556 0.96207
 C2318 C 0.11799 0.43519 0.96173
 C2319 C 0.14494 0.44459 1.02970
 C2320 C 0.12606 0.45407 1.02941
 H2321 H 0.14227 0.41825 0.94893
 H2322 H 0.10944 0.43501 0.94835
 H2323 H 0.15350 0.44478 1.04309
 H2324 H 0.12063 0.46131 1.04257
 H2325 H 0.18031 0.42559 1.02664
 H2326 H 0.17297 0.40784 0.96660
 H2327 H 0.08247 0.45461 0.96490
 H2328 H 0.09001 0.47104 1.02531
 C2329 C -0.01664 0.35962 0.43135
 C2330 C -0.02627 0.35728 0.41334
 C2331 C -0.02491 0.33833 0.40372
 C2332 C -0.01373 0.32206 0.41193
 C2333 C -0.00497 0.32438 0.43036
 C2334 C -0.00623 0.34319 0.44009
 C2335 C -0.01662 0.37991 0.44078
 C2336 C -0.00626 0.38239 0.45836
 C2337 C -0.00540 0.40187 0.46679
 C2338 C -0.01473 0.41887 0.45777
 C2339 C -0.02546 0.41607 0.44035
 C2340 C -0.02634 0.39658 0.43172
 C2341 C 0.00344 0.34613 0.45797
 C2342 C 0.00343 0.36544 0.46698
 C2343 C -0.03628 0.37417 0.40494
 C2344 C -0.03634 0.39351 0.41400
 H2345 H 0.01145 0.33352 0.46485
 H2346 H 0.01137 0.36720 0.48060
 H2347 H -0.04380 0.37253 0.39107
 H2348 H -0.04395 0.40624 0.40690
 H2349 H -0.03151 0.33660 0.38942
 H2350 H 0.00350 0.31176 0.43674
 H2351 H 0.00271 0.40377 0.48032
 H2352 H -0.03272 0.42906 0.43332
 C2353 C 0.47639 -0.13446 -0.07214
 C2354 C 0.46884 -0.13572 -0.09117
 C2355 C 0.46952 -0.15467 -0.10086
 C2356 C 0.47804 -0.17197 -0.09167
 C2357 C 0.48456 -0.17068 -0.07230
 C2358 C 0.48394 -0.15192 -0.06250
 C2359 C 0.47745 -0.11432 -0.06252
 C2360 C 0.48593 -0.11302 -0.04389
 C2361 C 0.48802 -0.09378 -0.03525
 C2362 C 0.48179 -0.07586 -0.04507
 C2363 C 0.47280 -0.07741 -0.06353
 C2364 C 0.47075 -0.09667 -0.07241
 C2365 C 0.49164 -0.15010 -0.04360
 C2366 C 0.49262 -0.13093 -0.03443
 C2367 C 0.46172 -0.11783 -0.10041
 C2368 C 0.46263 -0.09861 -0.09117
 H2369 H 0.49741 -0.16351 -0.03604
 H2370 H 0.49905 -0.13005 -0.01999
 H2371 H 0.45581 -0.11862 -0.11506
 H2372 H 0.45733 -0.08512 -0.09891
 H2373 H 0.46464 -0.15570 -0.11586
 H2374 H 0.49098 -0.18412 -0.06524
 H2375 H 0.49468 -0.09278 -0.02090
 H2376 H 0.46793 -0.06366 -0.07116
 C2377 C 0.00022 -0.13693 1.07098
 C2378 C -0.01762 -0.14654 1.07579
 C2379 C -0.01696 -0.16397 1.08756
 C2380 C 0.00138 -0.17219 1.09409
 C2381 C 0.01916 -0.16244 1.08897
 C2382 C 0.01863 -0.14465 1.07759
 C2383 C -0.00046 -0.11835 1.05892
 C2384 C 0.01732 -0.10830 1.05463
 C2385 C 0.01651 -0.09029 1.04360
 C2386 C -0.00185 -0.08274 1.03656
 C2387 C -0.01945 -0.09319 1.04061
 C2388 C -0.01888 -0.11088 1.05205
 C2389 C 0.03614 -0.13438 1.07273
 C2390 C 0.03548 -0.11641 1.06154
 C2391 C -0.03577 -0.13853 1.06878
 C2392 C -0.03639 -0.12105 1.05698
 H2393 H 0.05044 -0.14019 1.07776
 H2394 H 0.04928 -0.10883 1.05824
 H2395 H -0.04961 -0.14589 1.07240
 H2396 H -0.05067 -0.11535 1.05180
 H2397 H -0.03078 -0.17097 1.09177
 H2398 H 0.03339 -0.16874 1.09366
 H2399 H 0.03008 -0.08222 1.04038
 H2400 H -0.03361 -0.08718 1.03535
 C2401 C 0.50800 0.36222 0.56512
 C2402 C 0.49592 0.34561 0.56005
 C2403 C 0.49787 0.32727 0.57035
 C2404 C 0.51176 0.32543 0.58564
 C2405 C 0.52400 0.34209 0.59038
 C2406 C 0.52214 0.36059 0.58016
 C2407 C 0.50550 0.38177 0.55474
 C2408 C 0.51732 0.39852 0.55999
 C2409 C 0.51463 0.41720 0.55025
 C2410 C 0.50023 0.41913 0.53538
 C2411 C 0.48860 0.40212 0.53027
 C2412 C 0.49114 0.38343 0.53992
 C2413 C 0.53387 0.37760 0.58486
 C2414 C 0.53150 0.39627 0.57493
 C2415 C 0.48184 0.34779 0.54504
 C2416 C 0.47950 0.36641 0.53511
 H2417 H 0.54486 0.37651 0.59640
 H2418 H 0.54074 0.40909 0.57906
 H2419 H 0.47248 0.33503 0.54102
 H2420 H 0.46840 0.36754 0.52367
 H2421 H 0.48810 0.31466 0.56691
 H2422 H 0.53479 0.34068 0.60208
 H2423 H 0.52374 0.43016 0.55425
 H2424 H 0.47746 0.40340 0.51887
 C2425 C 0.48914 1.14331 0.55331
 C2426 C 0.50479 1.15722 0.55143
 C2427 C 0.50508 1.17465 0.56328
 C2428 C 0.48991 1.17813 0.57684
 C2429 C 0.47378 1.16475 0.57790
 C2430 C 0.47347 1.14704 0.56632
 C2431 C 0.48985 1.12391 0.54237
 C2432 C 0.47500 1.10933 0.54529
 C2433 C 0.47671 1.09017 0.53620
 C2434 C 0.49318 1.08557 0.52436
 C2435 C 0.50742 1.10070 0.52084
 C2436 C 0.50597 1.11982 0.53003
 C2437 C 0.45840 1.13250 0.56819
 C2438 C 0.45918 1.11390 0.55787
 C2439 C 0.52028 1.15294 0.53842
 C2440 C 0.52083 1.13455 0.52782
 H2441 H 0.44622 1.13524 0.57813
 H2442 H 0.44757 1.10280 0.56013
 H2443 H 0.53233 1.16365 0.53679
 H2444 H 0.53327 1.13156 0.51827
 H2445 H 0.51742 1.18515 0.56251
 H2446 H 0.46219 1.16750 0.58850
 H2447 H 0.46555 1.07865 0.53879
 H2448 H 0.52015 1.09726 0.51177
 C2449 C -0.00211 0.64233 1.06818
 C2450 C 0.01540 0.65275 1.07284
 C2451 C 0.01423 0.67045 1.08431
 C2452 C -0.00430 0.67798 1.09084
 C2453 C -0.02177 0.66752 1.08574
 C2454 C -0.02073 0.64954 1.07458
 C2455 C -0.00089 0.62331 1.05667
 C2456 C -0.01832 0.61247 1.05260
 C2457 C -0.01697 0.59401 1.04223
 C2458 C 0.00160 0.58666 1.03572
 C2459 C 0.01887 0.59791 1.03950
 C2460 C 0.01775 0.61616 1.05022
 C2461 C -0.03789 0.63849 1.06990
 C2462 C -0.03670 0.62017 1.05916
 C2463 C 0.03376 0.64514 1.06615
 C2464 C 0.03491 0.62718 1.05492
 H2465 H -0.05234 0.64390 1.07476
 H2466 H -0.05024 0.61195 1.05604
 H2467 H 0.04736 0.65310 1.06966
 H2468 H 0.04935 0.62176 1.05008
 H2469 H 0.02783 0.67807 1.08848
 H2470 H -0.03612 0.67332 1.09045
 H2471 H -0.03031 0.58538 1.03919
 H2472 H 0.03320 0.59214 1.03463
 C2473 C 0.51833 0.64221 -0.06545
 C2474 C 0.50341 0.65708 -0.06214
 C2475 C 0.50403 0.67570 -0.07207
 C2476 C 0.51939 0.67956 -0.08529
 C2477 C 0.53461 0.66476 -0.08801
 C2478 C 0.53407 0.64595 -0.07820
 C2479 C 0.51705 0.62212 -0.05589
 C2480 C 0.53160 0.60695 -0.05963
 C2481 C 0.52992 0.58762 -0.05094
 C2482 C 0.51383 0.58354 -0.03860
 C2483 C 0.49955 0.59905 -0.03488
 C2484 C 0.50103 0.61831 -0.04353
 C2485 C 0.54860 0.63057 -0.08127
 C2486 C 0.54738 0.61138 -0.07214
 C2487 C 0.48779 0.65281 -0.04944
 C2488 C 0.48664 0.63372 -0.04024
 H2489 H 0.56085 0.63329 -0.09103
 H2490 H 0.55876 0.59984 -0.07505
 H2491 H 0.47623 0.66422 -0.04678
 H2492 H 0.47425 0.63092 -0.03067
 H2493 H 0.49200 0.68677 -0.07019
 H2494 H 0.54656 0.66770 -0.09806
 H2495 H 0.54108 0.57584 -0.05377
 H2496 H 0.48708 0.59609 -0.02544
 C2497 C 0.02862 1.13741 0.42805
 C2498 C 0.02090 1.15549 0.43634
 C2499 C 0.02252 1.17400 0.42631
 C2500 C 0.03137 1.17463 0.40772
 C2501 C 0.03989 1.15631 0.40014
 C2502 C 0.03842 1.13770 0.41016
 C2503 C 0.02573 1.11770 0.43796
 C2504 C 0.03310 1.09952 0.42949
 C2505 C 0.02975 1.08074 0.43870
 C2506 C 0.01893 1.08013 0.45613
 C2507 C 0.01181 1.09856 0.46447
 C2508 C 0.01520 1.11738 0.45547
 C2509 C 0.04600 1.11925 0.40232
 C2510 C 0.04340 1.10046 0.41185
 C2511 C 0.01087 1.15462 0.45414
 C2512 C 0.00804 1.13585 0.46354
 H2513 H 0.05369 1.11928 0.38856
 H2514 H 0.04923 1.08654 0.40521
 H2515 H 0.00484 1.16851 0.46067
 H2516 H -0.00002 1.13577 0.47711
 H2517 H 0.01527 1.18743 0.43247
 H2518 H 0.04766 1.15634 0.38643
 H2519 H 0.03533 1.06664 0.43217
 H2520 H 0.00367 1.09831 0.47800
 C2521 C 0.73653 0.70924 0.88806
 C2522 C 0.73217 0.68841 0.89057
 C2523 C 0.73485 0.67944 0.90882
 C2524 C 0.74155 0.69109 0.92481
 C2525 C 0.74594 0.71205 0.92206
 C2526 C 0.74350 0.72119 0.90363
 C2527 C 0.73433 0.71850 0.86859
 C2528 C 0.73947 0.73914 0.86572
 C2529 C 0.73875 0.74735 0.84676
 C2530 C 0.73324 0.73481 0.83096
 C2531 C 0.72723 0.71452 0.83438
 C2532 C 0.72793 0.70623 0.85305
 C2533 C 0.74801 0.74193 0.90033
 C2534 C 0.74609 0.75072 0.88172
 C2535 C 0.72540 0.67680 0.87471
 C2536 C 0.72328 0.68557 0.85626
 H2537 H 0.75335 0.75139 0.91218
 H2538 H 0.75011 0.76664 0.87979
 H2539 H 0.72193 0.66071 0.87652
 H2540 H 0.71834 0.67599 0.84433
 H2541 H 0.73198 0.66320 0.91048
 H2542 H 0.75105 0.72122 0.93421
 H2543 H 0.74369 0.76287 0.84415
 H2544 H 0.72304 0.70482 0.82223
 C2545 C 0.23818 0.21046 0.38605
 C2546 C 0.24669 0.22093 0.40182
 C2547 C 0.24954 0.21052 0.41959
 C2548 C 0.24411 0.18972 0.42148
 C2549 C 0.23585 0.17955 0.40528
 C2550 C 0.23271 0.18982 0.38769
 C2551 C 0.23555 0.22105 0.36723
 C2552 C 0.22762 0.21022 0.35141
 C2553 C 0.22663 0.21965 0.33322
 C2554 C 0.23391 0.23960 0.33054
 C2555 C 0.24093 0.25076 0.34669
 C2556 C 0.24191 0.24142 0.36516
 C2557 C 0.22440 0.17970 0.37161
 C2558 C 0.22186 0.18974 0.35378
 C2559 C 0.25232 0.24150 0.39939
 C2560 C 0.25005 0.25153 0.38138
 H2561 H 0.22005 0.16378 0.37274
 H2562 H 0.21574 0.18125 0.34163
 H2563 H 0.25886 0.24983 0.41142
 H2564 H 0.25502 0.26722 0.38007
 H2565 H 0.25580 0.21863 0.43190
 H2566 H 0.23212 0.16345 0.40621
 H2567 H 0.22140 0.21097 0.32077
 H2568 H 0.24691 0.26597 0.34461
 C2569 C 0.75648 0.28201 0.39186
 C2570 C 0.73801 0.28233 0.40125
 C2571 C 0.73580 0.29356 0.41856
 C2572 C 0.75182 0.30466 0.42643
 C2573 C 0.77038 0.30378 0.41699
 C2574 C 0.77276 0.29257 0.39965
 C2575 C 0.75856 0.27119 0.37307
 C2576 C 0.77677 0.27168 0.36318
 C2577 C 0.77815 0.26281 0.34456
 C2578 C 0.76139 0.25382 0.33588
 C2579 C 0.74348 0.25288 0.34623
 C2580 C 0.74195 0.26156 0.36483
 C2581 C 0.79091 0.29220 0.38962
 C2582 C 0.79287 0.28196 0.37171
 C2583 C 0.72195 0.27189 0.39285
 C2584 C 0.72387 0.26173 0.37494
 H2585 H 0.80360 0.30026 0.39547
 H2586 H 0.80699 0.28248 0.36427
 H2587 H 0.70764 0.27195 0.39998
 H2588 H 0.71097 0.25431 0.36875
 H2589 H 0.72154 0.29385 0.42579
 H2590 H 0.78276 0.31244 0.42271
 H2591 H 0.79177 0.26404 0.33635
 H2592 H 0.73045 0.24642 0.33930
 C2593 C 0.25114 0.78249 0.89201
 C2594 C 0.26845 0.78254 0.90349
 C2595 C 0.26813 0.79266 0.92159
 C2596 C 0.25065 0.80274 0.92812
 C2597 C 0.23336 0.80205 0.91650
 C2598 C 0.23354 0.79207 0.89845
 C2599 C 0.25165 0.77297 0.87251
 C2600 C 0.23456 0.77389 0.86076
 C2601 C 0.23544 0.76625 0.84179
 C2602 C 0.25322 0.75776 0.83440
 C2603 C 0.27008 0.75606 0.84656
 C2604 C 0.26942 0.76394 0.86567
 C2605 C 0.21659 0.79208 0.88644
 C2606 C 0.21710 0.78317 0.86790
 C2607 C 0.28582 0.77293 0.89639
 C2608 C 0.28629 0.76378 0.87783
 H2609 H 0.20291 0.79940 0.89127
 H2610 H 0.20381 0.78390 0.85894
 H2611 H 0.29929 0.77277 0.90511
 H2612 H 0.30010 0.75689 0.87283
 H2613 H 0.28150 0.79291 0.93045
 H2614 H 0.21994 0.81004 0.92110
 H2615 H 0.22241 0.76751 0.83248
 H2616 H 0.28384 0.74974 0.84084
 C2617 C 0.23899 0.80892 0.11737
 C2618 C 0.23958 0.79540 0.10153
 C2619 C 0.24104 0.80342 0.08258
 C2620 C 0.24218 0.82494 0.07932
 C2621 C 0.24191 0.83802 0.09586
 C2622 C 0.24005 0.83020 0.11464
 C2623 C 0.23771 0.80069 0.13731
 C2624 C 0.23740 0.81440 0.15302
 C2625 C 0.23712 0.80668 0.17189
 C2626 C 0.23772 0.78533 0.17541
 C2627 C 0.23731 0.77165 0.15948
 C2628 C 0.23738 0.77933 0.14030
 C2629 C 0.23950 0.84339 0.13079
 C2630 C 0.23808 0.83564 0.14966
 C2631 C 0.23874 0.77411 0.10501
 C2632 C 0.23775 0.76623 0.12402
 H2633 H 0.24025 0.85988 0.12886
 H2634 H 0.23786 0.84635 0.16173
 H2635 H 0.23911 0.76341 0.09294
 H2636 H 0.23745 0.74973 0.12599
 H2637 H 0.24071 0.79272 0.07057
 H2638 H 0.24394 0.85439 0.09455
 H2639 H 0.23714 0.81744 0.18394
 H2640 H 0.23783 0.75522 0.16199
 C2641 C 0.73392 0.30654 0.61533
 C2642 C 0.73418 0.29330 0.59927
 C2643 C 0.73531 0.30165 0.58043
 C2644 C 0.73647 0.32323 0.57747
 C2645 C 0.73645 0.33601 0.59421
 C2646 C 0.73493 0.32785 0.61290
 C2647 C 0.73306 0.29794 0.63515
 C2648 C 0.73310 0.31137 0.65109
 C2649 C 0.73324 0.30330 0.66983
 C2650 C 0.73392 0.28190 0.67301
 C2651 C 0.73317 0.26849 0.65688
 C2652 C 0.73281 0.27653 0.63782
 C2653 C 0.73471 0.34076 0.62928
 C2654 C 0.73370 0.33266 0.64804
 C2655 C 0.73341 0.27194 0.60243
 C2656 C 0.73283 0.26372 0.62133
 H2657 H 0.73543 0.35728 0.62759
 H2658 H 0.73374 0.34315 0.66029
 H2659 H 0.73353 0.26146 0.59019
 H2660 H 0.73258 0.24718 0.62305
 H2661 H 0.73474 0.29115 0.56827
 H2662 H 0.73848 0.35240 0.59315
 H2663 H 0.73353 0.31384 0.68205
 H2664 H 0.73376 0.25202 0.65912
 C2665 C 0.25153 0.20470 0.61178
 C2666 C 0.23631 0.19149 0.60583
 C2667 C 0.23666 0.18320 0.58707
 C2668 C 0.25211 0.18788 0.57424
 C2669 C 0.26694 0.20174 0.58012
 C2670 C 0.26681 0.21006 0.59904
 C2671 C 0.25182 0.21244 0.63196
 C2672 C 0.26738 0.22507 0.63830
 C2673 C 0.26805 0.23146 0.65790
 C2674 C 0.25343 0.22490 0.67100
 C2675 C 0.23766 0.21280 0.66407
 C2676 C 0.23683 0.20645 0.64471
 C2677 C 0.28191 0.22311 0.60573
 C2678 C 0.28219 0.23047 0.62499
 C2679 C 0.22131 0.18633 0.61892
 C2680 C 0.22155 0.19369 0.63804
 H2681 H 0.29379 0.22742 0.59608
 H2682 H 0.29428 0.24021 0.62959
 H2683 H 0.20946 0.17621 0.61446
 H2684 H 0.20988 0.18906 0.64780
 H2685 H 0.22511 0.17274 0.58254
 H2686 H 0.27893 0.20530 0.57031
 H2687 H 0.28024 0.24074 0.66310
 H2688 H 0.22615 0.20790 0.67391
 C2689 C 0.75644 0.69407 0.12015
 C2690 C 0.74963 0.67428 0.11610
 C2691 C 0.74804 0.66773 0.09686
 C2692 C 0.75393 0.68033 0.08123
 C2693 C 0.76034 0.70054 0.08570
 C2694 C 0.76160 0.70743 0.10513
 C2695 C 0.75804 0.70093 0.14056
 C2696 C 0.76439 0.72092 0.14488
 C2697 C 0.76528 0.72743 0.16449
 C2698 C 0.75995 0.71389 0.17952
 C2699 C 0.75422 0.69372 0.17462
 C2700 C 0.75297 0.68731 0.15536
 C2701 C 0.76811 0.72729 0.10995
 C2702 C 0.76939 0.73394 0.12943
 C2703 C 0.74455 0.66119 0.13138
 C2704 C 0.74632 0.66755 0.15070
 H2705 H 0.77218 0.73784 0.09856
 H2706 H 0.77434 0.74940 0.13242
 H2707 H 0.73929 0.64584 0.12840
 H2708 H 0.74230 0.65696 0.16209
 H2709 H 0.74161 0.65283 0.09430
 H2710 H 0.76519 0.71072 0.07434
 H2711 H 0.76969 0.74297 0.16797
 H2712 H 0.75017 0.68291 0.18581
 C2713 C 0.18164 0.62777 0.24590
 C2714 C 0.18787 0.61158 0.25805
 C2715 C 0.17614 0.59398 0.25946
 C2716 C 0.15817 0.59245 0.24893
 C2717 C 0.15216 0.60891 0.23678
 C2718 C 0.16386 0.62659 0.23520
 C2719 C 0.19383 0.64646 0.24462
 C2720 C 0.18755 0.66281 0.23266
 C2721 C 0.19889 0.68086 0.23208
 C2722 C 0.21616 0.68265 0.24367
 C2723 C 0.22237 0.66584 0.25521
 C2724 C 0.21130 0.64777 0.25576
 C2725 C 0.15815 0.64317 0.22322
 C2726 C 0.16977 0.66093 0.22197
 C2727 C 0.20563 0.61339 0.26871
 C2728 C 0.21712 0.63118 0.26761
 H2729 H 0.14449 0.64247 0.21484
 H2730 H 0.16468 0.67339 0.21270
 H2731 H 0.21063 0.60102 0.27813
 H2732 H 0.23060 0.63201 0.27626
 H2733 H 0.18082 0.58161 0.26904
 H2734 H 0.13852 0.60786 0.22840
 H2735 H 0.19383 0.69377 0.22334
 H2736 H 0.23564 0.66698 0.26414
 C2737 C 0.68030 0.12261 0.74198
 C2738 C 0.66184 0.12164 0.73252
 C2739 C 0.65054 0.10370 0.73409
 C2740 C 0.65757 0.08651 0.74496
 C2741 C 0.67644 0.08797 0.75411
 C2742 C 0.68770 0.10591 0.75279
 C2743 C 0.69198 0.14165 0.74087
 C2744 C 0.71010 0.14282 0.75098
 C2745 C 0.72066 0.16122 0.75074
 C2746 C 0.71332 0.17844 0.74041
 C2747 C 0.69545 0.17681 0.72976
 C2748 C 0.68457 0.15848 0.73015
 C2749 C 0.70611 0.10757 0.76239
 C2750 C 0.71709 0.12572 0.76155
 C2751 C 0.65500 0.13870 0.72173
 C2752 C 0.66616 0.15676 0.72054
 H2753 H 0.71201 0.09480 0.77080
 H2754 H 0.73108 0.12642 0.76938
 H2755 H 0.64080 0.13815 0.71425
 H2756 H 0.66021 0.16959 0.71223
 H2757 H 0.63661 0.10306 0.72619
 H2758 H 0.68215 0.07563 0.76315
 H2759 H 0.73443 0.16229 0.75893
 H2760 H 0.68959 0.19002 0.72198
 C2761 C 0.82698 0.10262 0.25859
 C2762 C 0.82858 0.09067 0.27546
 C2763 C 0.83826 0.07138 0.27455
 C2764 C 0.84641 0.06409 0.25691
 C2765 C 0.84470 0.07646 0.24020
 C2766 C 0.83496 0.09563 0.24093
 C2767 C 0.81665 0.12279 0.25937
 C2768 C 0.81485 0.13448 0.24237
 C2769 C 0.80458 0.15330 0.24296
 C2770 C 0.79604 0.16064 0.26035
 C2771 C 0.79842 0.14900 0.27747
 C2772 C 0.80860 0.12990 0.27699
 C2773 C 0.83306 0.10796 0.22431
 C2774 C 0.82314 0.12704 0.22501
 C2775 C 0.82042 0.09828 0.29287
 C2776 C 0.81065 0.11755 0.29362
 H2777 H 0.83919 0.10277 0.21061
 H2778 H 0.82186 0.13599 0.21181
 H2779 H 0.82157 0.08925 0.30603
 H2780 H 0.80454 0.12275 0.30733
 H2781 H 0.83926 0.06199 0.28749
 H2782 H 0.85122 0.07134 0.22665
 H2783 H 0.80312 0.16220 0.22973
 H2784 H 0.79189 0.15448 0.29090
 C2785 C 0.31953 0.60386 0.76177
 C2786 C 0.33320 0.59950 0.77674
 C2787 C 0.34477 0.58131 0.77579
 C2788 C 0.34292 0.56782 0.75980
 C2789 C 0.32897 0.57243 0.74507
 C2790 C 0.31723 0.59036 0.74599
 C2791 C 0.30765 0.62313 0.76239
 C2792 C 0.29419 0.62745 0.74727
 C2793 C 0.28344 0.64598 0.74748
 C2794 C 0.28615 0.66052 0.76249
 C2795 C 0.29941 0.65577 0.77786
 C2796 C 0.31026 0.63704 0.77783
 C2797 C 0.30339 0.59515 0.73129
 C2798 C 0.29203 0.61336 0.73194
 C2799 C 0.33521 0.61361 0.79213
 C2800 C 0.32399 0.63205 0.79264
 H2801 H 0.30143 0.58481 0.71909
 H2802 H 0.28165 0.61656 0.72020
 H2803 H 0.34570 0.61048 0.80379
 H2804 H 0.32621 0.64256 0.80465
 H2805 H 0.35556 0.57792 0.78713
 H2806 H 0.32728 0.56202 0.73288
 H2807 H 0.27320 0.64922 0.73563
 H2808 H 0.30169 0.66680 0.78945
 C2809 C 0.32312 0.37455 0.74606
 C2810 C 0.31640 0.39078 0.75785
 C2811 C 0.32757 0.40876 0.75920
 C2812 C 0.34571 0.41077 0.74904
 C2813 C 0.35217 0.39401 0.73731
 C2814 C 0.34090 0.37602 0.73569
 C2815 C 0.31147 0.35549 0.74483
 C2816 C 0.31816 0.33914 0.73307
 C2817 C 0.30727 0.32079 0.73247
 C2818 C 0.29016 0.31872 0.74397
 C2819 C 0.28358 0.33544 0.75539
 C2820 C 0.29410 0.35384 0.75583
 C2821 C 0.34704 0.35942 0.72392
 C2822 C 0.33587 0.34135 0.72259
 C2823 C 0.29872 0.38863 0.76835
 C2824 C 0.28780 0.37046 0.76741
 H2825 H 0.36070 0.36036 0.71573
 H2826 H 0.34126 0.32890 0.71347
 H2827 H 0.29336 0.40104 0.77753
 H2828 H 0.27438 0.36936 0.77593
 H2829 H 0.32243 0.42070 0.76898
 H2830 H 0.36556 0.39508 0.72877
 H2831 H 0.31254 0.30790 0.72382
 H2832 H 0.27038 0.33400 0.76420
 C2833 C 0.82037 0.86943 0.24955
 C2834 C 0.81486 0.88580 0.26181
 C2835 C 0.82649 0.90352 0.26232
 C2836 C 0.84367 0.90490 0.25083
 C2837 C 0.84900 0.88828 0.23863
 C2838 C 0.83735 0.87053 0.23788
 C2839 C 0.80827 0.85066 0.24914
 C2840 C 0.81378 0.83421 0.23696
 C2841 C 0.80247 0.81618 0.23704
 C2842 C 0.78604 0.81446 0.24951
 C2843 C 0.78063 0.83128 0.26140
 C2844 C 0.79163 0.84940 0.26124
 C2845 C 0.84234 0.85380 0.22579
 C2846 C 0.83075 0.83598 0.22531
 C2847 C 0.79791 0.88405 0.27347
 C2848 C 0.78654 0.86614 0.27323
 H2849 H 0.85538 0.85445 0.21667
 H2850 H 0.83524 0.82341 0.21589
 H2851 H 0.79350 0.89656 0.28299
 H2852 H 0.77371 0.86535 0.28261
 H2853 H 0.82240 0.91608 0.27192
 H2854 H 0.86207 0.88927 0.22958
 H2855 H 0.80688 0.80327 0.22800
 H2856 H 0.76798 0.83016 0.27100
 C2857 C 0.67704 0.89028 0.75478
 C2858 C 0.67015 0.89931 0.77200
 C2859 C 0.65953 0.91813 0.77112
 C2860 C 0.65537 0.92783 0.75307
 C2861 C 0.66269 0.91824 0.73599
 C2862 C 0.67346 0.89968 0.73678
 C2863 C 0.68828 0.87058 0.75556
 C2864 C 0.69535 0.86185 0.73827
 C2865 C 0.70608 0.84331 0.73897
 C2866 C 0.70981 0.83317 0.75677
 C2867 C 0.70240 0.84205 0.77406
 C2868 C 0.69171 0.86089 0.77351
 C2869 C 0.68079 0.89037 0.71980
 C2870 C 0.69157 0.87180 0.72054
 C2871 C 0.67388 0.88920 0.78974
 C2872 C 0.68440 0.87033 0.79047
 H2873 H 0.67817 0.89750 0.70580
 H2874 H 0.69697 0.86516 0.70709
 H2875 H 0.66858 0.89591 0.80319
 H2876 H 0.68688 0.86311 0.80445
 H2877 H 0.65382 0.92458 0.78450
 H2878 H 0.66080 0.92550 0.72197
 H2879 H 0.71141 0.83671 0.72548
 H2880 H 0.70510 0.83446 0.78784
 C2881 C 0.18051 0.39765 0.25740
 C2882 C 0.16685 0.40225 0.27215
 C2883 C 0.15581 0.42078 0.27127
 C2884 C 0.15824 0.43452 0.25564
 C2885 C 0.17210 0.42959 0.24105
 C2886 C 0.18328 0.41124 0.24187
 C2887 C 0.19201 0.37811 0.25809
 C2888 C 0.20554 0.37358 0.24325
 C2889 C 0.21613 0.35491 0.24366
 C2890 C 0.21327 0.34053 0.25868
 C2891 C 0.19978 0.34545 0.27368
 C2892 C 0.18907 0.36426 0.27340
 C2893 C 0.19710 0.40616 0.22739
 C2894 C 0.20805 0.38767 0.22807
 C2895 C 0.16440 0.38810 0.28734
 C2896 C 0.17527 0.36945 0.28793
 H2897 H 0.19941 0.41652 0.21535
 H2898 H 0.21848 0.38431 0.21653
 H2899 H 0.15388 0.39141 0.29882
 H2900 H 0.17278 0.35896 0.29983
 H2901 H 0.14506 0.42432 0.28249
 H2902 H 0.17430 0.44013 0.22913
 H2903 H 0.22648 0.35152 0.23205
 H2904 H 0.19732 0.33456 0.28526
 C2905 C 0.11581 0.23820 0.81524
 C2906 C 0.10588 0.25698 0.81850
 C2907 C 0.08700 0.25692 0.82665
 C2908 C 0.07769 0.23827 0.83101
 C2909 C 0.08780 0.21952 0.82759
 C2910 C 0.10700 0.21942 0.81984
 C2911 C 0.13578 0.23825 0.80680
 C2912 C 0.14595 0.21951 0.80384
 C2913 C 0.16496 0.21972 0.79574
 C2914 C 0.17333 0.23844 0.79017
 C2915 C 0.16299 0.25703 0.79316
 C2916 C 0.14427 0.25706 0.80170
 C2917 C 0.11756 0.20096 0.81658
 C2918 C 0.13679 0.20101 0.80880
 C2919 C 0.11499 0.27549 0.81355
 C2920 C 0.13385 0.27553 0.80513
 H2921 H 0.11093 0.18637 0.82010
 H2922 H 0.14447 0.18647 0.80651
 H2923 H 0.10739 0.29005 0.81603
 H2924 H 0.14034 0.29010 0.80131
 H2925 H 0.07966 0.27147 0.82978
 H2926 H 0.08072 0.20509 0.83082
 H2927 H 0.17299 0.20540 0.79323
 H2928 H 0.16963 0.27143 0.78895
 C2929 C 0.60887 0.72355 0.31131
 C2930 C 0.60583 0.71429 0.32942
 C2931 C 0.58697 0.71551 0.33781
 C2932 C 0.57146 0.72626 0.32832
 C2933 C 0.57443 0.73442 0.30972
 C2934 C 0.59319 0.73329 0.30120
 C2935 C 0.62905 0.72415 0.30332
 C2936 C 0.63220 0.73433 0.28569
 C2937 C 0.65155 0.73596 0.27873
 C2938 C 0.66773 0.72765 0.28933
 C2939 C 0.66426 0.71703 0.30675
 C2940 C 0.64492 0.71534 0.31387
 C2941 C 0.59680 0.74266 0.28326
 C2942 C 0.61602 0.74316 0.27562
 C2943 C 0.62196 0.70502 0.33925
 C2944 C 0.64120 0.70551 0.33158
 H2945 H 0.58477 0.75014 0.27532
 H2946 H 0.61831 0.75094 0.26194
 H2947 H 0.61977 0.69777 0.35320
 H2948 H 0.65333 0.69855 0.33978
 H2949 H 0.58471 0.70940 0.35224
 H2950 H 0.56239 0.74256 0.30237
 H2951 H 0.65399 0.74399 0.26521
 H2952 H 0.67658 0.71045 0.31497
 C2953 C 0.61433 0.25785 0.20070
 C2954 C 0.61147 0.27053 0.18442
 C2955 C 0.59251 0.27226 0.17613
 C2956 C 0.57663 0.26122 0.18390
 C2957 C 0.57950 0.24947 0.20083
 C2958 C 0.59840 0.24754 0.20918
 C2959 C 0.63450 0.25457 0.20847
 C2960 C 0.63748 0.24126 0.22426
 C2961 C 0.65680 0.23762 0.23114
 C2962 C 0.67304 0.24718 0.22231
 C2963 C 0.66973 0.26063 0.20659
 C2964 C 0.65050 0.26434 0.19958
 C2965 C 0.60185 0.23479 0.22531
 C2966 C 0.62110 0.23170 0.23273
 C2967 C 0.62778 0.28044 0.17621
 C2968 C 0.64700 0.27743 0.18371
 H2969 H 0.58964 0.22683 0.23198
 H2970 H 0.62323 0.22150 0.24500
 H2971 H 0.62571 0.29030 0.16369
 H2972 H 0.65926 0.28513 0.17683
 H2973 H 0.59040 0.28114 0.16296
 H2974 H 0.56719 0.24116 0.20697
 H2975 H 0.65914 0.22736 0.24334
 H2976 H 0.68209 0.26821 0.19973
 C2977 C 0.11163 0.75659 0.69168
 C2978 C 0.09544 0.74578 0.69906
 C2979 C 0.07703 0.74744 0.68965
 C2980 C 0.07490 0.75960 0.67290
 C2981 C 0.09112 0.77067 0.66591
 C2982 C 0.10958 0.76920 0.67524
 C2983 C 0.13121 0.75424 0.70101
 C2984 C 0.14745 0.76476 0.69341
 C2985 C 0.16613 0.76209 0.70203
 C2986 C 0.16869 0.74893 0.71809
 C2987 C 0.15220 0.73862 0.72565
 C2988 C 0.13341 0.74121 0.71713
 C2989 C 0.12610 0.77973 0.66824
 C2990 C 0.14476 0.77757 0.67720
 C2991 C 0.09811 0.73314 0.71538
 C2992 C 0.11681 0.73089 0.72429
 H2993 H 0.12465 0.78954 0.65561
 H2994 H 0.15721 0.78580 0.67128
 H2995 H 0.08570 0.72475 0.72119
 H2996 H 0.11833 0.72085 0.73675
 H2997 H 0.06458 0.73869 0.69489
 H2998 H 0.08939 0.78017 0.65308
 H2999 H 0.17867 0.77021 0.69612
 H3000 H 0.15398 0.72852 0.73805
 C3001 C 0.89080 0.73940 0.70139
 C3002 C 0.89420 0.72533 0.68629
 C3003 C 0.91243 0.72538 0.67671
 C3004 C 0.92729 0.73963 0.68187
 C3005 C 0.92386 0.75276 0.69795
 C3006 C 0.90561 0.75292 0.70753
 C3007 C 0.87104 0.74068 0.71030
 C3008 C 0.86733 0.75539 0.72484
 C3009 C 0.84813 0.75745 0.73235
 C3010 C 0.83273 0.74505 0.72521
 C3011 C 0.83691 0.72991 0.71110
 C3012 C 0.85599 0.72775 0.70353
 C3013 C 0.90162 0.76689 0.72265
 C3014 C 0.88276 0.76814 0.73115
 C3015 C 0.87896 0.71214 0.68037
 C3016 C 0.86015 0.71331 0.68888
 H3017 H 0.91301 0.77732 0.72760
 H3018 H 0.88012 0.77945 0.74244
 H3019 H 0.88146 0.70115 0.66877
 H3020 H 0.84864 0.70317 0.68365
 H3021 H 0.91410 0.71538 0.66424
 H3022 H 0.93527 0.76302 0.70311
 H3023 H 0.84507 0.76906 0.74329
 H3024 H 0.82525 0.72005 0.70570
 C3025 C 0.39261 0.24539 0.20245
 C3026 C 0.39695 0.22877 0.19005
 C3027 C 0.41538 0.22786 0.18084
 C3028 C 0.42921 0.24358 0.18372
 C3029 C 0.42491 0.25975 0.19671
 C3030 C 0.40657 0.26077 0.20607
 C3031 C 0.37277 0.24719 0.21111
 C3032 C 0.36817 0.26416 0.22298
 C3033 C 0.34894 0.26633 0.23039
 C3034 C 0.33437 0.25185 0.22564
 C3035 C 0.33935 0.23469 0.21408
 C3036 C 0.35853 0.23229 0.20675
 C3037 C 0.40163 0.27727 0.21840
 C3038 C 0.38273 0.27891 0.22677
 C3039 C 0.38253 0.21381 0.18656
 C3040 C 0.36359 0.21555 0.19477
 H3041 H 0.41233 0.28918 0.22134
 H3042 H 0.37937 0.29203 0.23596
 H3043 H 0.38577 0.20089 0.17708
 H3044 H 0.35272 0.20391 0.19145
 H3045 H 0.41877 0.21525 0.17103
 H3046 H 0.43543 0.27204 0.19878
 H3047 H 0.34517 0.27956 0.23929
 H3048 H 0.32825 0.22331 0.21061
 C3049 C 0.39297 0.77762 0.30712
 C3050 C 0.40816 0.76407 0.30113
 C3051 C 0.42661 0.76465 0.31053
 C3052 C 0.42980 0.77844 0.32599
 C3053 C 0.41476 0.79263 0.33116
 C3054 C 0.39621 0.79217 0.32187
 C3055 C 0.37301 0.77576 0.29855
 C3056 C 0.35758 0.78864 0.30520
 C3057 C 0.33837 0.78599 0.29784
 C3058 C 0.33456 0.77055 0.28398
 C3059 C 0.35031 0.75813 0.27710
 C3060 C 0.36956 0.76058 0.28443
 C3061 C 0.38058 0.80530 0.32763
 C3062 C 0.36155 0.80357 0.31941
 C3063 C 0.40432 0.74952 0.28655
 C3064 C 0.38531 0.74782 0.27830
 H3065 H 0.38294 0.81666 0.33891
 H3066 H 0.34976 0.81371 0.32451
 H3067 H 0.41598 0.73905 0.28178
 H3068 H 0.38284 0.73614 0.26734
 H3069 H 0.43800 0.75345 0.30668
 H3070 H 0.41724 0.80338 0.34296
 H3071 H 0.32640 0.79583 0.30304
 H3072 H 0.34752 0.74625 0.26639
 C3073 C 0.89078 0.26560 0.80359
 C3074 C 0.90352 0.24847 0.80175
 C3075 C 0.92210 0.24874 0.81085
 C3076 C 0.92808 0.26606 0.82159
 C3077 C 0.91548 0.28350 0.82252
 C3078 C 0.89664 0.28322 0.81381
 C3079 C 0.87064 0.26474 0.79533
 C3080 C 0.85748 0.28144 0.79805
 C3081 C 0.83803 0.28010 0.79097
 C3082 C 0.83192 0.26238 0.78099
 C3083 C 0.84538 0.24599 0.77798
 C3084 C 0.86472 0.24698 0.78534
 C3085 C 0.88330 0.29990 0.81569
 C3086 C 0.86398 0.29898 0.80801
 C3087 C 0.89719 0.23108 0.79145
 C3088 C 0.87810 0.23040 0.78327
 H3089 H 0.88769 0.31359 0.82351
 H3090 H 0.85398 0.31200 0.81007
 H3091 H 0.90697 0.21781 0.78991
 H3092 H 0.87367 0.21665 0.77557
 H3093 H 0.93144 0.23505 0.81034
 H3094 H 0.92007 0.29703 0.83049
 H3095 H 0.82769 0.29282 0.79311
 H3096 H 0.84063 0.23229 0.77037
 C3097 C 0.54414 1.02592 0.63441
 C3098 C 0.56237 1.03534 0.63832
 C3099 C 0.57107 1.03320 0.65676
 C3100 C 0.56202 1.02121 0.67117
 C3101 C 0.54345 1.01225 0.66711
 C3102 C 0.53445 1.01457 0.64874
 C3103 C 0.53552 1.02713 0.61466
 C3104 C 0.51762 1.01709 0.61051
 C3105 C 0.51039 1.01681 0.59129
 C3106 C 0.52139 1.02587 0.57635
 C3107 C 0.53886 1.03653 0.58089
 C3108 C 0.54598 1.03728 0.60004
 C3109 C 0.51627 1.00524 0.64419
 C3110 C 0.50798 1.00652 0.62543
 C3111 C 0.57190 1.04617 0.62351
 C3112 C 0.56390 1.04702 0.60466
 H3113 H 0.50857 0.99652 0.65513
 H3114 H 0.49417 0.99870 0.62245
 H3115 H 0.58594 1.05358 0.62637
 H3116 H 0.57204 1.05498 0.59351
 H3117 H 0.58508 1.04062 0.65977
 H3118 H 0.53635 1.00285 0.67793
 H3119 H 0.49717 1.00822 0.58773
 H3120 H 0.54742 1.04332 0.56932
 C3121 C 0.03990 0.51654 1.13829
 C3122 C 0.04655 0.53502 1.14629
 C3123 C 0.05617 0.53481 1.16448
 C3124 C 0.05935 0.51620 1.17499
 C3125 C 0.05176 0.49789 1.16659
 C3126 C 0.04237 0.49798 1.14833
 C3127 C 0.03086 0.51650 1.11866
 C3128 C 0.02539 0.49776 1.11020
 C3129 C 0.01848 0.49753 1.09097
 C3130 C 0.01689 0.51585 1.08026
 C3131 C 0.02153 0.53468 1.08914
 C3132 C 0.02881 0.53505 1.10836
 C3133 C 0.03601 0.47963 1.13961
 C3134 C 0.02777 0.47951 1.12084
 C3135 C 0.04373 0.55337 1.13579
 C3136 C 0.03500 0.55339 1.11718
 H3137 H 0.03783 0.46515 1.14718
 H3138 H 0.02353 0.46495 1.11448
 H3139 H 0.04865 0.56782 1.14186
 H3140 H 0.03352 0.56782 1.10946
 H3141 H 0.06046 0.54946 1.17050
 H3142 H 0.05432 0.48309 1.17329
 H3143 H 0.01518 0.48301 1.08397
 H3144 H 0.02073 0.54873 1.08073
 C3145 C -0.04210 -0.01230 1.13671
 C3146 C -0.05069 0.00556 1.14467
 C3147 C -0.05957 0.00474 1.16299
 C3148 C -0.06028 -0.01389 1.17353
 C3149 C -0.05113 -0.03163 1.16523
 C3150 C -0.04210 -0.03089 1.14690
 C3151 C -0.03355 -0.01165 1.11703
 C3152 C -0.02537 -0.02964 1.10876
 C3153 C -0.01840 -0.02915 1.08951
 C3154 C -0.02016 -0.01094 1.07863
 C3155 C -0.02779 0.00704 1.08741
 C3156 C -0.03451 0.00679 1.10656
 C3157 C -0.03333 -0.04848 1.13839
 C3158 C -0.02511 -0.04786 1.11967
 C3159 C -0.05079 0.02387 1.13390
 C3160 C -0.04287 0.02446 1.11515
 H3161 H -0.03311 -0.06294 1.14615
 H3162 H -0.01885 -0.06185 1.11355
 H3163 H -0.05735 0.03778 1.13989
 H3164 H -0.04360 0.03879 1.10719
 H3165 H -0.06695 0.01850 1.16828
 H3166 H -0.05053 -0.04601 1.17307
 H3167 H -0.01276 -0.04307 1.08269
 H3168 H -0.02911 0.02109 1.07903
 C3169 C 0.45330 0.49120 0.63565
 C3170 C 0.43820 0.50512 0.64122
 C3171 C 0.43024 0.50387 0.65985
 C3172 C 0.43726 0.48895 0.67301
 C3173 C 0.45280 0.47541 0.66749
 C3174 C 0.46075 0.47635 0.64864
 C3175 C 0.46104 0.49192 0.61567
 C3176 C 0.47566 0.47762 0.60969
 C3177 C 0.48223 0.47785 0.59025
 C3178 C 0.47397 0.49215 0.57702
 C3179 C 0.45987 0.50675 0.58364
 C3180 C 0.45324 0.50661 0.60277
 C3181 C 0.47568 0.46255 0.64232
 C3182 C 0.48297 0.46314 0.62319
 C3183 C 0.43110 0.51983 0.62794
 C3184 C 0.43853 0.52060 0.60903
 H3185 H 0.48161 0.45101 0.65217
 H3186 H 0.49425 0.45203 0.61889
 H3187 H 0.41953 0.53069 0.63213
 H3188 H 0.43248 0.53203 0.59913
 H3189 H 0.41848 0.51447 0.66416
 H3190 H 0.45821 0.46386 0.67760
 H3191 H 0.49308 0.46657 0.58530
 H3192 H 0.45364 0.51809 0.57373
 C3193 C 0.47041 0.50622 -0.14176
 C3194 C 0.47266 0.48744 -0.15167
 C3195 C 0.46252 0.48451 -0.16931
 C3196 C 0.45017 0.50017 -0.17702
 C3197 C 0.44850 0.51910 -0.16711
 C3198 C 0.45845 0.52215 -0.14939
 C3199 C 0.47995 0.50888 -0.12257
 C3200 C 0.47668 0.52719 -0.11210
 C3201 C 0.48419 0.52884 -0.09308
 C3202 C 0.49478 0.51232 -0.08470
 C3203 C 0.49865 0.49446 -0.09561
 C3204 C 0.49114 0.49257 -0.11456
 C3205 C 0.45615 0.54053 -0.13882
 C3206 C 0.46505 0.54298 -0.12047
 C3207 C 0.48454 0.47176 -0.14345
 C3208 C 0.49362 0.47429 -0.12521
 H3209 H 0.44699 0.55295 -0.14458
 H3210 H 0.46245 0.55719 -0.11259
 H3211 H 0.48648 0.45725 -0.15099
 H3212 H 0.50225 0.46162 -0.11918
 H3213 H 0.46403 0.46998 -0.17694
 H3214 H 0.43882 0.53115 -0.17280
 H3215 H 0.48079 0.54236 -0.08441
 H3216 H 0.50636 0.48155 -0.08887
 C3217 C -0.02730 0.99683 0.35610
 C3218 C -0.02974 0.97682 0.34884
 C3219 C -0.04004 0.97396 0.33130
 C3220 C -0.04806 0.99091 0.32111
 C3221 C -0.04500 1.01093 0.32835
 C3222 C -0.03474 1.01396 0.34592
 C3223 C -0.01770 0.99980 0.37521
 C3224 C -0.01624 1.01972 0.38304
 C3225 C -0.00878 1.02224 0.40202
 C3226 C -0.00316 1.00493 0.41302
 C3227 C -0.00394 0.98522 0.40469
 C3228 C -0.01127 0.98252 0.38581
 C3229 C -0.03237 1.03371 0.35387
 C3230 C -0.02331 1.03654 0.37211
 C3231 C -0.02239 0.96000 0.35957
 C3232 C -0.01333 0.96281 0.37777
 H3233 H -0.03799 1.04707 0.34612
 H3234 H -0.02226 1.05198 0.37791
 H3235 H -0.02409 0.94451 0.35408
 H3236 H -0.00836 0.94939 0.38582
 H3237 H -0.04212 0.95854 0.32573
 H3238 H -0.05132 1.02406 0.32075
 H3239 H -0.00861 1.03736 0.40867
 H3240 H 0.00006 0.97190 0.41339
 C3241 C 0.03021 0.49709 0.35635
 C3242 C 0.02878 0.51590 0.34646
 C3243 C 0.03981 0.51866 0.32943
 C3244 C 0.05233 0.50282 0.32233
 C3245 C 0.05327 0.48391 0.33231
 C3246 C 0.04232 0.48100 0.34936
 C3247 C 0.01952 0.49452 0.37485
 C3248 C 0.02180 0.47610 0.38530
 C3249 C 0.01315 0.47449 0.40377
 C3250 C 0.00251 0.49122 0.41172
 C3251 C -0.00034 0.50922 0.40074
 C3252 C 0.00821 0.51101 0.38230
 C3253 C 0.04367 0.46254 0.35988
 C3254 C 0.03363 0.46015 0.37755
 C3255 C 0.01673 0.53176 0.35405
 C3256 C 0.00665 0.52937 0.37168
 H3257 H 0.05291 0.44997 0.35462
 H3258 H 0.03550 0.44585 0.38541
 H3259 H 0.01541 0.54632 0.34652
 H3260 H -0.00207 0.54218 0.37726
 H3261 H 0.03875 0.53317 0.32178
 H3262 H 0.06303 0.47169 0.32719
 H3263 H 0.01586 0.46088 0.41250
 H3264 H -0.00804 0.52231 0.40715
 C3265 C 0.53075 0.00033 -0.14510
 C3266 C 0.53899 -0.01751 -0.15347
 C3267 C 0.54973 -0.01593 -0.17083
 C3268 C 0.55235 0.00334 -0.17974
 C3269 C 0.54348 0.02097 -0.17134
 C3270 C 0.53282 0.01958 -0.15397
 C3271 C 0.52054 -0.00101 -0.12623
 C3272 C 0.51331 0.01705 -0.11739
 C3273 C 0.50531 0.01600 -0.09870
 C3274 C 0.50452 -0.00287 -0.08889
 C3275 C 0.51098 -0.02101 -0.09818
 C3276 C 0.51922 -0.02012 -0.11689
 C3277 C 0.52468 0.03717 -0.14501
 C3278 C 0.51516 0.03593 -0.12699
 C3279 C 0.53683 -0.03645 -0.14399
 C3280 C 0.52712 -0.03774 -0.12603
 H3281 H 0.52610 0.05209 -0.15175
 H3282 H 0.50956 0.04995 -0.12033
 H3283 H 0.54305 -0.05036 -0.15033
 H3284 H 0.52619 -0.05258 -0.11903
 H3285 H 0.55664 -0.02958 -0.17698
 H3286 H 0.54508 0.03582 -0.17819
 H3287 H 0.50069 0.03000 -0.09131
 H3288 H 0.51081 -0.03545 -0.09038
 C3289 C 0.64101 0.56736 -0.00497
 C3290 C 0.64424 0.58461 -0.01666
 C3291 C 0.66232 0.59502 -0.01499
 C3292 C 0.67721 0.58814 -0.00194
 C3293 C 0.67392 0.57050 0.00932
 C3294 C 0.65572 0.56021 0.00805
 C3295 C 0.62169 0.55687 -0.00608
 C3296 C 0.61814 0.54020 0.00624
 C3297 C 0.59944 0.53090 0.00580
 C3298 C 0.58441 0.53796 -0.00702
 C3299 C 0.58843 0.55431 -0.01971
 C3300 C 0.60698 0.56402 -0.01909
 C3301 C 0.65174 0.54316 0.01980
 C3302 C 0.63325 0.53340 0.01899
 C3303 C 0.62923 0.59123 -0.02960
 C3304 C 0.61097 0.58107 -0.03086
 H3305 H 0.66291 0.53748 0.02992
 H3306 H 0.63072 0.52050 0.02852
 H3307 H 0.63156 0.60448 -0.03875
 H3308 H 0.59976 0.58678 -0.04093
 H3309 H 0.66485 0.60849 -0.02381
 H3310 H 0.68527 0.56523 0.01947
 H3311 H 0.59650 0.51828 0.01557
 H3312 H 0.57690 0.56000 -0.02946
 C3313 C 0.14225 1.06558 0.49221
 C3314 C 0.14547 1.08256 0.48018
 C3315 C 0.16332 1.09336 0.48200
 C3316 C 0.17800 1.08710 0.49555
 C3317 C 0.17469 1.06976 0.50721
 C3318 C 0.15672 1.05909 0.50576
 C3319 C 0.12317 1.05465 0.49088
 C3320 C 0.11961 1.03825 0.50352
 C3321 C 0.10108 1.02863 0.50293
 C3322 C 0.08621 1.03512 0.48968
 C3323 C 0.09028 1.05114 0.47663
 C3324 C 0.10866 1.06116 0.47737
 C3325 C 0.15276 1.04228 0.51782
 C3326 C 0.13450 1.03211 0.51679
 C3327 C 0.13068 1.08852 0.46672
 C3328 C 0.11264 1.07796 0.46529
 H3329 H 0.16377 1.03711 0.52835
 H3330 H 0.13195 1.01943 0.52658
 H3331 H 0.13301 1.10155 0.45730
 H3332 H 0.10159 1.08319 0.45482
 H3333 H 0.16588 1.10657 0.47285
 H3334 H 0.18586 1.06497 0.51774
 H3335 H 0.09809 1.01629 0.51300
 H3336 H 0.07884 1.05640 0.46657
 C3337 C 0.12866 -0.07036 1.00170
 C3338 C 0.13291 -0.08679 1.01423
 C3339 C 0.15139 -0.09708 1.01292
 C3340 C 0.16591 -0.09105 0.99923
 C3341 C 0.16119 -0.07416 0.98699
 C3342 C 0.14266 -0.06397 0.98807
 C3343 C 0.10904 -0.05983 1.00268
 C3344 C 0.10461 -0.04386 0.98965
 C3345 C 0.08571 -0.03449 0.99003
 C3346 C 0.07122 -0.04082 1.00339
 C3347 C 0.07611 -0.05647 1.01679
 C3348 C 0.09497 -0.06621 1.01632
 C3349 C 0.13774 -0.04766 0.97551
 C3350 C 0.11904 -0.03783 0.97624
 C3351 C 0.11853 -0.09262 1.02784
 C3352 C 0.09993 -0.08250 1.02889
 H3353 H 0.14839 -0.04255 0.96488
 H3354 H 0.11581 -0.02548 0.96614
 H3355 H 0.12163 -0.10522 1.03770
 H3356 H 0.08928 -0.08764 1.03949
 H3357 H 0.15456 -0.10931 1.02314
 H3358 H 0.17143 -0.06940 0.97588
 H3359 H 0.08218 -0.02239 0.97972
 H3360 H 0.06503 -0.06160 1.02698
 C3361 C 0.62627 0.43356 0.50296
 C3362 C 0.62950 0.41561 0.51378
 C3363 C 0.64768 0.40482 0.51197
 C3364 C 0.66292 0.41189 0.49957
 C3365 C 0.65926 0.43034 0.48914
 C3366 C 0.64100 0.44100 0.49061
 C3367 C 0.60690 0.44457 0.50429
 C3368 C 0.60338 0.46200 0.49276
 C3369 C 0.58461 0.47170 0.49318
 C3370 C 0.56940 0.46426 0.50517
 C3371 C 0.57342 0.44721 0.51724
 C3372 C 0.59209 0.43712 0.51663
 C3373 C 0.63704 0.45881 0.47965
 C3374 C 0.61854 0.46905 0.48063
 C3375 C 0.61442 0.40875 0.52615
 C3376 C 0.59610 0.41934 0.52760
 H3377 H 0.64824 0.46474 0.47002
 H3378 H 0.61604 0.48252 0.47169
 H3379 H 0.61674 0.39496 0.53470
 H3380 H 0.58486 0.41336 0.53716
 H3381 H 0.65004 0.39130 0.52085
 H3382 H 0.67012 0.43600 0.47902
 H3383 H 0.58168 0.48481 0.48386
 H3384 H 0.56174 0.44120 0.52629
 C3385 C -0.14413 0.43390 0.48978
 C3386 C -0.15054 0.42244 0.47368
 C3387 C -0.16902 0.41253 0.47441
 C3388 C -0.18097 0.41392 0.49119
 C3389 C -0.17431 0.42580 0.50704
 C3390 C -0.15595 0.43573 0.50644
 C3391 C -0.12453 0.44394 0.48933
 C3392 C -0.11811 0.45511 0.50558
 C3393 C -0.09936 0.46420 0.50535
 C3394 C -0.08679 0.46222 0.48906
 C3395 C -0.09362 0.45116 0.47270
 C3396 C -0.11249 0.44191 0.47282
 C3397 C -0.14906 0.44728 0.52231
 C3398 C -0.13048 0.45679 0.52189
 C3399 C -0.13816 0.42089 0.45733
 C3400 C -0.11950 0.43044 0.45691
 H3401 H -0.15804 0.44884 0.53525
 H3402 H -0.12568 0.46541 0.53452
 H3403 H -0.14287 0.41210 0.44478
 H3404 H -0.11043 0.42870 0.44405
 H3405 H -0.17383 0.40331 0.46218
 H3406 H -0.18344 0.42729 0.51989
 H3407 H -0.09451 0.47272 0.51802
 H3408 H -0.08418 0.44943 0.46010
 C3409 C 0.35649 -0.06059 -0.01238
 C3410 C 0.35062 -0.07304 -0.02801
 C3411 C 0.33263 -0.08380 -0.02683
 C3412 C 0.32074 -0.08236 -0.01003
 C3413 C 0.32684 -0.06954 0.00535
 C3414 C 0.34464 -0.05864 0.00426
 C3415 C 0.37564 -0.04973 -0.01324
 C3416 C 0.38156 -0.03760 0.00256
 C3417 C 0.40003 -0.02797 0.00210
 C3418 C 0.41288 -0.03049 -0.01391
 C3419 C 0.40648 -0.04234 -0.02993
 C3420 C 0.38786 -0.05207 -0.02960
 C3421 C 0.35098 -0.04607 0.01963
 C3422 C 0.36910 -0.03571 0.01879
 C3423 C 0.36307 -0.07476 -0.04429
 C3424 C 0.38134 -0.06450 -0.04506
 H3425 H 0.34195 -0.04438 0.03252
 H3426 H 0.37352 -0.02636 0.03107
 H3427 H 0.35876 -0.08431 -0.05648
 H3428 H 0.39054 -0.06649 -0.05780
 H3429 H 0.32820 -0.09376 -0.03868
 H3430 H 0.31772 -0.06810 0.01821
 H3431 H 0.40456 -0.01883 0.01449
 H3432 H 0.41618 -0.04451 -0.04229
 C3433 C 0.36972 1.06701 0.49937
 C3434 C 0.36015 1.07057 0.48149
 C3435 C 0.34203 1.08158 0.48104
 C3436 C 0.33323 1.08886 0.49834
 C3437 C 0.34300 1.08478 0.51621
 C3438 C 0.36131 1.07407 0.51677
 C3439 C 0.38904 1.05586 0.49986
 C3440 C 0.39892 1.05276 0.51768
 C3441 C 0.41759 1.04267 0.51795
 C3442 C 0.42627 1.03549 0.50055
 C3443 C 0.41584 1.03849 0.48288
 C3444 C 0.39738 1.04878 0.48243
 C3445 C 0.37148 1.07041 0.53438
 C3446 C 0.38997 1.06004 0.53481
 C3447 C 0.36901 1.06321 0.46436
 C3448 C 0.38725 1.05244 0.46483
 H3449 H 0.36517 1.07579 0.54793
 H3450 H 0.39736 1.05776 0.54868
 H3451 H 0.36180 1.06582 0.45045
 H3452 H 0.39356 1.04708 0.45127
 H3453 H 0.33504 1.08482 0.46715
 H3454 H 0.33637 1.08984 0.52972
 H3455 H 0.42539 1.04053 0.53163
 H3456 H 0.42230 1.03329 0.46932
 C3457 C -0.12822 0.57563 0.99922
 C3458 C -0.13719 0.58134 1.01678
 C3459 C -0.15605 0.59093 1.01641
 C3460 C -0.16590 0.59506 0.99862
 C3461 C -0.15665 0.58903 0.98115
 C3462 C -0.13785 0.57932 0.98137
 C3463 C -0.10829 0.56573 0.99950
 C3464 C -0.09936 0.56006 0.98192
 C3465 C -0.08044 0.55071 0.98221
 C3466 C -0.07026 0.54704 0.99991
 C3467 C -0.07948 0.55290 1.01746
 C3468 C -0.09853 0.56221 1.01732
 C3469 C -0.12837 0.57338 0.96408
 C3470 C -0.10949 0.56390 0.96435
 C3471 C -0.12704 0.57746 1.03435
 C3472 C -0.10805 0.56811 1.03461
 H3473 H -0.13561 0.57612 0.95021
 H3474 H -0.10273 0.55959 0.95067
 H3475 H -0.13379 0.58179 1.04803
 H3476 H -0.10076 0.56550 1.04848
 H3477 H -0.16306 0.59511 1.03000
 H3478 H -0.16383 0.59231 0.96735
 H3479 H -0.07365 0.54641 0.96854
 H3480 H -0.07191 0.55020 1.03118
 C3481 C 0.00351 0.63867 0.55713
 C3482 C 0.01989 0.64262 0.56925
 C3483 C 0.02080 0.66147 0.57902
 C3484 C 0.00533 0.67612 0.57691
 C3485 C -0.01079 0.67201 0.56444
 C3486 C -0.01178 0.65333 0.55450
 C3487 C 0.00205 0.61862 0.54742
 C3488 C -0.01450 0.61459 0.53555
 C3489 C -0.01608 0.59533 0.52674
 C3490 C -0.00140 0.58006 0.52992
 C3491 C 0.01520 0.58439 0.54173
 C3492 C 0.01702 0.60370 0.55050
 C3493 C -0.02799 0.64884 0.54235
 C3494 C -0.02930 0.62978 0.53298
 C3495 C 0.03479 0.62748 0.57167
 C3496 C 0.03336 0.60831 0.56246
 H3497 H -0.03984 0.66008 0.54020
 H3498 H -0.04212 0.62682 0.52383
 H3499 H 0.04751 0.63038 0.58095
 H3500 H 0.04504 0.59694 0.56486
 H3501 H 0.03337 0.66464 0.58844
 H3502 H -0.02295 0.68303 0.56301
 H3503 H -0.02895 0.59211 0.51773
 H3504 H 0.02667 0.57278 0.54411
 C3505 C 0.50957 0.13829 0.06265
 C3506 C 0.51954 0.13870 0.08062
 C3507 C 0.52006 0.15710 0.09112
 C3508 C 0.51061 0.17489 0.08378
 C3509 C 0.50112 0.17436 0.06553
 C3510 C 0.50046 0.15604 0.05493
 C3511 C 0.50808 0.11877 0.05202
 C3512 C 0.49755 0.11823 0.03437
 C3513 C 0.49546 0.09947 0.02471
 C3514 C 0.50376 0.08132 0.03262
 C3515 C 0.51465 0.08223 0.05014
 C3516 C 0.51677 0.10091 0.05995
 C3517 C 0.49041 0.15500 0.03703
 C3518 C 0.48897 0.13638 0.02691
 C3519 C 0.52838 0.12061 0.08793
 C3520 C 0.52703 0.10200 0.07774
 H3521 H 0.48338 0.16863 0.03094
 H3522 H 0.48087 0.13613 0.01326
 H3523 H 0.53617 0.12078 0.10175
 H3524 H 0.53384 0.08832 0.08396
 H3525 H 0.52754 0.15755 0.10511
 H3526 H 0.49362 0.18799 0.05996
 H3527 H 0.48716 0.09900 0.01117
 H3528 H 0.52113 0.06837 0.05637
 C3529 C -0.02408 0.13553 0.93678
 C3530 C -0.01947 0.15264 0.94834
 C3531 C -0.01869 0.17204 0.93975
 C3532 C -0.02205 0.17427 0.91968
 C3533 C -0.02739 0.15709 0.90843
 C3534 C -0.02837 0.13764 0.91691
 C3535 C -0.02344 0.11491 0.94542
 C3536 C -0.02733 0.09770 0.93371
 C3537 C -0.02557 0.07802 0.94177
 C3538 C -0.01952 0.07562 0.96122
 C3539 C -0.01616 0.09304 0.97287
 C3540 C -0.01809 0.11274 0.96504
 C3541 C -0.03271 0.12014 0.90575
 C3542 C -0.03225 0.10048 0.91404
 C3543 C -0.01492 0.14991 0.96809
 C3544 C -0.01420 0.13025 0.97631
 H3545 H -0.03610 0.12162 0.89041
 H3546 H -0.03533 0.08733 0.90488
 H3547 H -0.01142 0.16302 0.97716
 H3548 H -0.01019 0.12871 0.99151
 H3549 H -0.01483 0.18527 0.94851
 H3550 H -0.02974 0.15864 0.89292
 H3551 H -0.02814 0.06463 0.93275
 H3552 H -0.01177 0.09128 0.98795
 C3553 C 0.46789 0.63518 0.43300
 C3554 C 0.46944 0.65251 0.44508
 C3555 C 0.47062 0.67195 0.43667
 C3556 C 0.47082 0.67405 0.41636
 C3557 C 0.46821 0.65667 0.40445
 C3558 C 0.46686 0.63712 0.41272
 C3559 C 0.46869 0.61457 0.44169
 C3560 C 0.46811 0.59717 0.42958
 C3561 C 0.47038 0.57762 0.43783
 C3562 C 0.47377 0.57561 0.45791
 C3563 C 0.47366 0.59314 0.46989
 C3564 C 0.47113 0.61267 0.46186
 C3565 C 0.46560 0.61940 0.40111
 C3566 C 0.46615 0.59973 0.40941
 C3567 C 0.47089 0.64999 0.46527
 C3568 C 0.47176 0.63037 0.47354
 H3569 H 0.46469 0.62072 0.38545
 H3570 H 0.46561 0.58643 0.39993
 H3571 H 0.47199 0.66328 0.47471
 H3572 H 0.47347 0.62903 0.48914
 H3573 H 0.47234 0.68536 0.44587
 H3574 H 0.46855 0.65817 0.38879
 H3575 H 0.47049 0.56410 0.42859
 H3576 H 0.47597 0.59159 0.48542
 C3577 C 0.52992 0.85690 0.45113
 C3578 C 0.52045 0.84091 0.46094
 C3579 C 0.51926 0.82161 0.45206
 C3580 C 0.52699 0.81846 0.43334
 C3581 C 0.53751 0.83427 0.42425
 C3582 C 0.53886 0.85361 0.43301
 C3583 C 0.52915 0.87779 0.45929
 C3584 C 0.53748 0.89402 0.44887
 C3585 C 0.53511 0.91413 0.45579
 C3586 C 0.52416 0.91805 0.47280
 C3587 C 0.51668 0.90148 0.48351
 C3588 C 0.51900 0.88133 0.47675
 C3589 C 0.54786 0.87004 0.42345
 C3590 C 0.54721 0.88994 0.43127
 C3591 C 0.51132 0.84486 0.47885
 C3592 C 0.51060 0.86477 0.48664
 H3593 H 0.55490 0.86764 0.40951
 H3594 H 0.55381 0.90233 0.42319
 H3595 H 0.50408 0.83261 0.48659
 H3596 H 0.50287 0.86733 0.50020
 H3597 H 0.51138 0.80938 0.45922
 H3598 H 0.54330 0.83204 0.40973
 H3599 H 0.54108 0.92673 0.44751
 H3600 H 0.50840 0.90426 0.49674
 C3601 C 0.02046 0.36546 0.93992
 C3602 C 0.01389 0.34877 0.95094
 C3603 C 0.01312 0.32931 0.94234
 C3604 C 0.01852 0.32660 0.92280
 C3605 C 0.02562 0.34339 0.91214
 C3606 C 0.02659 0.36287 0.92063
 C3607 C 0.02010 0.38616 0.94848
 C3608 C 0.02608 0.40296 0.93727
 C3609 C 0.02477 0.42277 0.94517
 C3610 C 0.01717 0.42575 0.96395
 C3611 C 0.01167 0.40870 0.97513
 C3612 C 0.01310 0.38886 0.96746
 C3613 C 0.03289 0.37994 0.90999
 C3614 C 0.03269 0.39968 0.91820
 C3615 C 0.00760 0.35199 0.97011
 C3616 C 0.00717 0.37174 0.97824
 H3617 H 0.03772 0.37808 0.89511
 H3618 H 0.03738 0.41251 0.90944
 H3619 H 0.00257 0.33921 0.97875
 H3620 H 0.00186 0.37368 0.99295
 H3621 H 0.00788 0.31638 0.95068
 H3622 H 0.02951 0.34150 0.89699
 H3623 H 0.02899 0.43586 0.93649
 H3624 H 0.00604 0.41087 0.98972
 C3625 C 0.49083 0.36584 0.06202
 C3626 C 0.50019 0.34843 0.05394
 C3627 C 0.50044 0.33003 0.06436
 C3628 C 0.49169 0.32910 0.08283
 C3629 C 0.48189 0.34653 0.09049
 C3630 C 0.48147 0.36499 0.08016
 C3631 C 0.49151 0.38551 0.05165
 C3632 C 0.48270 0.40306 0.06002
 C3633 C 0.48422 0.42193 0.05057
 C3634 C 0.49472 0.42337 0.03300
 C3635 C 0.50308 0.40552 0.02458
 C3636 C 0.50155 0.38655 0.03388
 C3637 C 0.47242 0.38276 0.08787
 C3638 C 0.47300 0.40150 0.07794
 C3639 C 0.50959 0.34991 0.03587
 C3640 C 0.51028 0.36868 0.02600
 H3641 H 0.46510 0.38225 0.10182
 H3642 H 0.46610 0.41496 0.08449
 H3643 H 0.51678 0.33653 0.02947
 H3644 H 0.51797 0.36930 0.01225
 H3645 H 0.50775 0.31654 0.05829
 H3646 H 0.47533 0.34596 0.10481
 H3647 H 0.47771 0.43555 0.05719
 H3648 H 0.51106 0.40643 0.01100
 C3649 C -0.01894 0.86599 0.55850
 C3650 C -0.01209 0.84817 0.54899
 C3651 C -0.01283 0.82936 0.55861
 C3652 C -0.01993 0.82840 0.57772
 C3653 C -0.02778 0.84615 0.58669
 C3654 C -0.02714 0.86511 0.57718
 C3655 C -0.01635 0.88607 0.54922
 C3656 C -0.02228 0.90402 0.55910
 C3657 C -0.01863 0.92315 0.55071
 C3658 C -0.00883 0.92430 0.53274
 C3659 C -0.00347 0.90612 0.52284
 C3660 C -0.00714 0.88698 0.53103
 C3661 C -0.03352 0.88332 0.58635
 C3662 C -0.03116 0.90248 0.57743
 C3663 C -0.00368 0.84963 0.53046
 C3664 C -0.00124 0.86876 0.52162
 H3665 H -0.03993 0.88281 0.60072
 H3666 H -0.03588 0.91622 0.58514
 H3667 H 0.00155 0.83594 0.52298
 H3668 H 0.00576 0.86932 0.50751
 H3669 H -0.00699 0.81560 0.55165
 H3670 H -0.03312 0.84543 0.60149
 H3671 H -0.02289 0.93707 0.55839
 H3672 H 0.00381 0.90683 0.50887
 C3673 C 0.27277 0.30690 0.11544
 C3674 C 0.27009 0.29347 0.09969
 C3675 C 0.26795 0.30163 0.08084
 C3676 C 0.26816 0.32311 0.07781
 C3677 C 0.27061 0.33621 0.09398
 C3678 C 0.27314 0.32824 0.11267
 C3679 C 0.27459 0.29856 0.13530
 C3680 C 0.27682 0.31218 0.15096
 C3681 C 0.27713 0.30446 0.16985
 C3682 C 0.27461 0.28334 0.17338
 C3683 C 0.27335 0.26965 0.15752
 C3684 C 0.27322 0.27728 0.13835
 C3685 C 0.27580 0.34130 0.12871
 C3686 C 0.27770 0.33339 0.14753
 C3687 C 0.26941 0.27219 0.10320
 C3688 C 0.27085 0.26426 0.12218
 H3689 H 0.27622 0.35780 0.12672
 H3690 H 0.27942 0.34402 0.15954
 H3691 H 0.26740 0.26160 0.09121
 H3692 H 0.26980 0.24781 0.12423
 H3693 H 0.26625 0.29130 0.06861
 H3694 H 0.27020 0.35273 0.09213
 H3695 H 0.27825 0.31510 0.18194
 H3696 H 0.27122 0.25342 0.16009
 C3697 C 0.77250 0.80214 0.61623
 C3698 C 0.76763 0.78978 0.60021
 C3699 C 0.76556 0.79889 0.58175
 C3700 C 0.76810 0.82026 0.57937
 C3701 C 0.77283 0.83230 0.59578
 C3702 C 0.77521 0.82335 0.61411
 C3703 C 0.77413 0.79287 0.63574
 C3704 C 0.77841 0.80549 0.65173
 C3705 C 0.77840 0.79708 0.67037
 C3706 C 0.77364 0.77632 0.67330
 C3707 C 0.77039 0.76350 0.65708
 C3708 C 0.77047 0.77182 0.63818
 C3709 C 0.77995 0.83534 0.63043
 C3710 C 0.78158 0.82655 0.64892
 C3711 C 0.76469 0.76864 0.60309
 C3712 C 0.76601 0.75984 0.62173
 H3713 H 0.78217 0.85171 0.62894
 H3714 H 0.78489 0.83641 0.66119
 H3715 H 0.76099 0.75887 0.59087
 H3716 H 0.76318 0.74359 0.62330
 H3717 H 0.76209 0.78935 0.56930
 H3718 H 0.77430 0.84879 0.59442
 H3719 H 0.78096 0.80702 0.68278
 H3720 H 0.76647 0.74758 0.65925
 C3721 C 0.23155 0.69524 0.61400
 C3722 C 0.23258 0.67394 0.61072
 C3723 C 0.23442 0.66655 0.59171
 C3724 C 0.23511 0.68020 0.57595
 C3725 C 0.23349 0.70155 0.57937
 C3726 C 0.23194 0.70917 0.59848
 C3727 C 0.23060 0.70307 0.63414
 C3728 C 0.23040 0.72437 0.63763
 C3729 C 0.23080 0.73164 0.65696
 C3730 C 0.23161 0.71764 0.67256
 C3731 C 0.23088 0.69638 0.66860
 C3732 C 0.23061 0.68903 0.64953
 C3733 C 0.23118 0.73039 0.60248
 C3734 C 0.23049 0.73784 0.62170
 C3735 C 0.23210 0.66042 0.62654
 C3736 C 0.23108 0.66784 0.64562
 H3737 H 0.23144 0.74134 0.59067
 H3738 H 0.23029 0.75430 0.62409
 H3739 H 0.23277 0.64396 0.62416
 H3740 H 0.23105 0.65688 0.65744
 H3741 H 0.23533 0.65012 0.58913
 H3742 H 0.23403 0.71212 0.56726
 H3743 H 0.23141 0.74801 0.65982
 H3744 H 0.23124 0.68541 0.68042
 C3745 C 0.73501 0.19579 0.11483
 C3746 C 0.73591 0.17453 0.11131
 C3747 C 0.73760 0.16735 0.09221
 C3748 C 0.73827 0.18118 0.07659
 C3749 C 0.73676 0.20249 0.08024
 C3750 C 0.73538 0.20990 0.09945
 C3751 C 0.73429 0.20337 0.13507
 C3752 C 0.73428 0.22462 0.13881
 C3753 C 0.73494 0.23165 0.15824
 C3754 C 0.73583 0.21743 0.17366
 C3755 C 0.73486 0.19624 0.16945
 C3756 C 0.73434 0.18914 0.15030
 C3757 C 0.73479 0.23107 0.10371
 C3758 C 0.73432 0.23829 0.12301
 C3759 C 0.73546 0.16081 0.12698
 C3760 C 0.73463 0.16800 0.14615
 H3761 H 0.73503 0.24216 0.09202
 H3762 H 0.73426 0.25472 0.12559
 H3763 H 0.73602 0.14438 0.12442
 H3764 H 0.73462 0.15689 0.15785
 H3765 H 0.73848 0.15095 0.08945
 H3766 H 0.73728 0.21320 0.06823
 H3767 H 0.73574 0.24796 0.16128
 H3768 H 0.73527 0.18512 0.18115
 C3769 C 0.76495 0.20559 0.88702
 C3770 C 0.77161 0.18531 0.89001
 C3771 C 0.76798 0.17579 0.90785
 C3772 C 0.75722 0.18611 0.92256
 C3773 C 0.75098 0.20666 0.91940
 C3774 C 0.75484 0.21647 0.90165
 C3775 C 0.76789 0.21531 0.86789
 C3776 C 0.76074 0.23541 0.86465
 C3777 C 0.76223 0.24397 0.84598
 C3778 C 0.77014 0.23222 0.83058
 C3779 C 0.77786 0.21239 0.83427
 C3780 C 0.77686 0.20388 0.85291
 C3781 C 0.74833 0.23674 0.89802
 C3782 C 0.75129 0.24606 0.87988
 C3783 C 0.78130 0.17472 0.87491
 C3784 C 0.78376 0.18380 0.85664
 H3785 H 0.74060 0.24537 0.90920
 H3786 H 0.74568 0.26156 0.87761
 H3787 H 0.78658 0.15908 0.87707
 H3788 H 0.79080 0.17487 0.84522
 H3789 H 0.77340 0.16023 0.91016
 H3790 H 0.74259 0.21480 0.93045
 H3791 H 0.75587 0.25907 0.84308
 H3792 H 0.78377 0.20325 0.82239
 C3793 C 0.26626 0.70916 0.38912
 C3794 C 0.25553 0.71962 0.40361
 C3795 C 0.25099 0.70933 0.42092
 C3796 C 0.25709 0.68869 0.42375
 C3797 C 0.26846 0.67878 0.40925
 C3798 C 0.27286 0.68881 0.39186
 C3799 C 0.26986 0.71935 0.37035
 C3800 C 0.27942 0.70833 0.35546
 C3801 C 0.28088 0.71721 0.33703
 C3802 C 0.27292 0.73695 0.33343
 C3803 C 0.26450 0.74836 0.34879
 C3804 C 0.26261 0.73945 0.36727
 C3805 C 0.28320 0.67866 0.37691
 C3806 C 0.28633 0.68821 0.35898
 C3807 C 0.24906 0.73995 0.40021
 C3808 C 0.25257 0.74970 0.38238
 H3809 H 0.28844 0.66298 0.37890
 H3810 H 0.29382 0.67960 0.34763
 H3811 H 0.24085 0.74826 0.41128
 H3812 H 0.24691 0.76520 0.38023
 H3813 H 0.24215 0.71713 0.43186
 H3814 H 0.27371 0.66313 0.41138
 H3815 H 0.28719 0.70834 0.32516
 H3816 H 0.25798 0.76340 0.34594
 C3817 C 0.73515 0.78771 0.39501
 C3818 C 0.74729 0.77844 0.40927
 C3819 C 0.75085 0.78896 0.42679
 C3820 C 0.74208 0.80843 0.43014
 C3821 C 0.72953 0.81722 0.41587
 C3822 C 0.72624 0.80707 0.39818
 C3823 C 0.73242 0.77738 0.37607
 C3824 C 0.72149 0.78740 0.36135
 C3825 C 0.72060 0.77852 0.34281
 C3826 C 0.73033 0.75967 0.33900
 C3827 C 0.74029 0.74922 0.35414
 C3828 C 0.74171 0.75824 0.37268
 C3829 C 0.71472 0.81619 0.38336
 C3830 C 0.71249 0.80658 0.36521
 C3831 C 0.75595 0.75905 0.40551
 C3832 C 0.75313 0.74909 0.38758
 H3833 H 0.70776 0.83111 0.38563
 H3834 H 0.70395 0.81441 0.35400
 H3835 H 0.76524 0.75165 0.41642
 H3836 H 0.76039 0.73434 0.38518
 H3837 H 0.76045 0.78211 0.43777
 H3838 H 0.72295 0.83231 0.41829
 H3839 H 0.71316 0.78669 0.33106
 H3840 H 0.74820 0.73495 0.35109
 C3841 C 0.23921 0.28912 0.89043
 C3842 C 0.25031 0.27941 0.90521
 C3843 C 0.25276 0.28950 0.92316
 C3844 C 0.24405 0.30906 0.92634
 C3845 C 0.23265 0.31831 0.91142
 C3846 C 0.23033 0.30852 0.89342
 C3847 C 0.23752 0.27917 0.87119
 C3848 C 0.22742 0.28952 0.85613
 C3849 C 0.22732 0.28091 0.83748
 C3850 C 0.23707 0.26205 0.83383
 C3851 C 0.24632 0.25131 0.84921
 C3852 C 0.24684 0.26000 0.86795
 C3853 C 0.21975 0.31802 0.87816
 C3854 C 0.21840 0.30872 0.85981
 C3855 C 0.25904 0.26003 0.90158
 C3856 C 0.25729 0.25047 0.88330
 H3857 H 0.21280 0.33297 0.88031
 H3858 H 0.21051 0.31680 0.84831
 H3859 H 0.26756 0.25230 0.91287
 H3860 H 0.26456 0.23571 0.88105
 H3861 H 0.26146 0.28223 0.93459
 H3862 H 0.22616 0.33347 0.91360
 H3863 H 0.22038 0.28926 0.82556
 H3864 H 0.25419 0.23698 0.84630
 C3865 C 0.82065 0.39141 0.76157
 C3866 C 0.81424 0.40752 0.74940
 C3867 C 0.82623 0.42484 0.74730
 C3868 C 0.84464 0.42610 0.75711
 C3869 C 0.85076 0.40980 0.76936
 C3870 C 0.83881 0.39243 0.77164
 C3871 C 0.80832 0.37291 0.76340
 C3872 C 0.81487 0.35658 0.77524
 C3873 C 0.80357 0.33857 0.77609
 C3874 C 0.78610 0.33671 0.76482
 C3875 C 0.77950 0.35356 0.75352
 C3876 C 0.79053 0.37164 0.75273
 C3877 C 0.84472 0.37594 0.78363
 C3878 C 0.83297 0.35835 0.78540
 C3879 C 0.79611 0.40584 0.73933
 C3880 C 0.78448 0.38819 0.74093
 H3881 H 0.85868 0.37653 0.79155
 H3882 H 0.83824 0.34590 0.79458
 H3883 H 0.79097 0.41816 0.72992
 H3884 H 0.77076 0.38740 0.73265
 H3885 H 0.82146 0.43712 0.73767
 H3886 H 0.86475 0.41070 0.77719
 H3887 H 0.80891 0.32565 0.78464
 H3888 H 0.76608 0.35233 0.74481
 C3889 C 0.32129 0.89686 0.26452
 C3890 C 0.31479 0.91280 0.25231
 C3891 C 0.32662 0.93022 0.25005
 C3892 C 0.34527 0.93208 0.25975
 C3893 C 0.35121 0.91559 0.27221
 C3894 C 0.33938 0.89813 0.27457
 C3895 C 0.30914 0.87822 0.26640
 C3896 C 0.31582 0.86202 0.27833
 C3897 C 0.30474 0.84385 0.27917
 C3898 C 0.28736 0.84174 0.26782
 C3899 C 0.28059 0.85847 0.25646
 C3900 C 0.29142 0.87668 0.25567
 C3901 C 0.34539 0.88179 0.28672
 C3902 C 0.33383 0.86407 0.28856
 C3903 C 0.29671 0.91085 0.24215
 C3904 C 0.28525 0.89310 0.24378
 H3905 H 0.35930 0.88258 0.29470
 H3906 H 0.33922 0.85173 0.29783
 H3907 H 0.29148 0.92305 0.23265
 H3908 H 0.27158 0.89211 0.23543
 H3909 H 0.32150 0.94154 0.23965
 H3910 H 0.36463 0.91634 0.28089
 H3911 H 0.31023 0.83100 0.28774
 H3912 H 0.26724 0.85704 0.24769
 C3913 C 0.18048 0.87819 0.74199
 C3914 C 0.18673 0.89398 0.75447
 C3915 C 0.17532 0.91216 0.75577
 C3916 C 0.15760 0.91453 0.74492
 C3917 C 0.15162 0.89854 0.73239
 C3918 C 0.16305 0.88035 0.73083
 C3919 C 0.19218 0.85881 0.74096
 C3920 C 0.18581 0.84287 0.72870
 C3921 C 0.19652 0.82413 0.72846
 C3922 C 0.21317 0.82118 0.74074
 C3923 C 0.21956 0.83756 0.75257
 C3924 C 0.20916 0.85639 0.75273
 C3925 C 0.15730 0.86418 0.71852
 C3926 C 0.16849 0.84580 0.71745
 C3927 C 0.20408 0.89112 0.76566
 C3928 C 0.21507 0.87263 0.76485
 H3929 H 0.14391 0.86567 0.70977
 H3930 H 0.16337 0.83365 0.70794
 H3931 H 0.20908 0.90317 0.77533
 H3932 H 0.22818 0.87095 0.77396
 H3933 H 0.17993 0.92425 0.76560
 H3934 H 0.13814 0.90031 0.72381
 H3935 H 0.19133 0.81154 0.71950
 H3936 H 0.23237 0.83547 0.76205
 C3937 C 0.68152 0.37423 0.24609
 C3938 C 0.68557 0.38908 0.26036
 C3939 C 0.67366 0.40692 0.26136
 C3940 C 0.65768 0.40999 0.24829
 C3941 C 0.65389 0.39493 0.23400
 C3942 C 0.66577 0.37702 0.23284
 C3943 C 0.69378 0.35524 0.24524
 C3944 C 0.68958 0.34021 0.23117
 C3945 C 0.70083 0.32180 0.23095
 C3946 C 0.71595 0.31831 0.24490
 C3947 C 0.72020 0.33384 0.25858
 C3948 C 0.70917 0.35227 0.25884
 C3949 C 0.66217 0.36176 0.21880
 C3950 C 0.67386 0.34369 0.21798
 C3951 C 0.70133 0.38567 0.27350
 C3952 C 0.71291 0.36758 0.27277
 H3953 H 0.65010 0.36372 0.20844
 H3954 H 0.67042 0.33224 0.20706
 H3955 H 0.70463 0.39701 0.28456
 H3956 H 0.72477 0.36547 0.28333
 H3957 H 0.67658 0.41823 0.27256
 H3958 H 0.64182 0.39722 0.22369
 H3959 H 0.69728 0.30992 0.22048
 H3960 H 0.73183 0.33141 0.26934
 C3961 C 0.68254 0.59942 0.26790
 C3962 C 0.66713 0.59592 0.28108
 C3963 C 0.65546 0.57829 0.27884
 C3964 C 0.65888 0.56459 0.26327
 C3965 C 0.67443 0.56834 0.25028
 C3966 C 0.68640 0.58563 0.25259
 C3967 C 0.69453 0.61816 0.26982
 C3968 C 0.70972 0.62167 0.25645
 C3969 C 0.72036 0.63993 0.25760
 C3970 C 0.71564 0.65508 0.27161
 C3971 C 0.70080 0.65101 0.28541
 C3972 C 0.69015 0.63252 0.28453
 C3973 C 0.70198 0.58956 0.23974
 C3974 C 0.71349 0.60723 0.24168
 C3975 C 0.66350 0.61034 0.29594
 C3976 C 0.67473 0.62836 0.29758
 H3977 H 0.70517 0.57899 0.22794
 H3978 H 0.72520 0.60983 0.23128
 H3979 H 0.65166 0.60785 0.30622
 H3980 H 0.67116 0.63923 0.30902
 H3981 H 0.64341 0.57549 0.28882
 H3982 H 0.67721 0.55772 0.23840
 H3983 H 0.73182 0.64268 0.24696
 H3984 H 0.69693 0.66254 0.29618
 C3985 C 0.18103 0.10604 0.76209
 C3986 C 0.16412 0.10418 0.77374
 C3987 C 0.15250 0.08646 0.77208
 C3988 C 0.15771 0.07063 0.75890
 C3989 C 0.17494 0.07274 0.74755
 C3990 C 0.18655 0.09043 0.74900
 C3991 C 0.19296 0.12491 0.76330
 C3992 C 0.20946 0.12699 0.75115
 C3993 C 0.22010 0.14534 0.75153
 C3994 C 0.21441 0.16162 0.76396
 C3995 C 0.19824 0.15901 0.77660
 C3996 C 0.18730 0.14072 0.77615
 C3997 C 0.20346 0.09291 0.73743
 C3998 C 0.21468 0.11090 0.73844
 C3999 C 0.15904 0.12023 0.78659
 C4000 C 0.17044 0.13815 0.78780
 H4001 H 0.20791 0.08096 0.72730
 H4002 H 0.22742 0.11232 0.72903
 H4003 H 0.14604 0.11900 0.79569
 H4004 H 0.16585 0.15021 0.79775
 H4005 H 0.13919 0.08522 0.78074
 H4006 H 0.17937 0.06060 0.73763
 H4007 H 0.23254 0.14717 0.74179
 H4008 H 0.19361 0.17151 0.78605
 C4009 C 0.32368 0.12399 0.24400
 C4010 C 0.32974 0.11547 0.26182
 C4011 C 0.34085 0.09708 0.26199
 C4012 C 0.34563 0.08678 0.24454
 C4013 C 0.33923 0.09556 0.22674
 C4014 C 0.32843 0.11426 0.22640
 C4015 C 0.31221 0.14354 0.24380
 C4016 C 0.30649 0.15245 0.22600
 C4017 C 0.29580 0.17127 0.22599
 C4018 C 0.29052 0.18082 0.24367
 C4019 C 0.29634 0.17143 0.26131
 C4020 C 0.30727 0.15299 0.26147
 C4021 C 0.32230 0.12350 0.20886
 C4022 C 0.31164 0.14229 0.20866
 C4023 C 0.32463 0.12554 0.27918
 C4024 C 0.31350 0.14392 0.27901
 H4025 H 0.32587 0.11620 0.19514
 H4026 H 0.30734 0.14889 0.19480
 H4027 H 0.32921 0.11912 0.29303
 H4028 H 0.30982 0.15115 0.29274
 H4029 H 0.34600 0.09102 0.27579
 H4030 H 0.34246 0.08783 0.21316
 H4031 H 0.29148 0.17835 0.21235
 H4032 H 0.29272 0.17870 0.27504
 C4033 C 0.82193 0.61742 0.74505
 C4034 C 0.83344 0.61172 0.72893
 C4035 C 0.84502 0.59355 0.72976
 C4036 C 0.84536 0.58137 0.74668
 C4037 C 0.83373 0.58739 0.76269
 C4038 C 0.82190 0.60531 0.76191
 C4039 C 0.80985 0.63657 0.74437
 C4040 C 0.79839 0.64218 0.76051
 C4041 C 0.78734 0.66057 0.76007
 C4042 C 0.78785 0.67370 0.74377
 C4043 C 0.79925 0.66766 0.72753
 C4044 C 0.81026 0.64906 0.72776
 C4045 C 0.81009 0.61141 0.77770
 C4046 C 0.79850 0.62949 0.77699
 C4047 C 0.83327 0.62444 0.71244
 C4048 C 0.82196 0.64280 0.71190
 H4049 H 0.80987 0.60218 0.79076
 H4050 H 0.78970 0.63369 0.78955
 H4051 H 0.84209 0.62026 0.69990
 H4052 H 0.82245 0.65223 0.69897
 H4053 H 0.85404 0.58909 0.71743
 H4054 H 0.83374 0.57799 0.77566
 H4055 H 0.77873 0.66486 0.77273
 H4056 H 0.79989 0.67757 0.71493
 C4057 C 0.88739 0.75718 0.21192
 C4058 C 0.90320 0.74569 0.21985
 C4059 C 0.92207 0.74713 0.21163
 C4060 C 0.92537 0.75958 0.19509
 C4061 C 0.90919 0.77189 0.18818
 C4062 C 0.89030 0.77056 0.19636
 C4063 C 0.86725 0.75455 0.21958
 C4064 C 0.85128 0.76544 0.21109
 C4065 C 0.83202 0.76204 0.21769
 C4066 C 0.82869 0.74787 0.23269
 C4067 C 0.84494 0.73749 0.24140
 C4068 C 0.86425 0.74069 0.23482
 C4069 C 0.87405 0.78172 0.18864
 C4070 C 0.85484 0.77920 0.19590
 C4071 C 0.89975 0.73248 0.23554
 C4072 C 0.88057 0.73000 0.24290
 H4073 H 0.87614 0.79219 0.17664
 H4074 H 0.84264 0.78782 0.18935
 H4075 H 0.91190 0.72363 0.24190
 H4076 H 0.87844 0.71938 0.25476
 H4077 H 0.93409 0.73864 0.21854
 H4078 H 0.91039 0.78124 0.17531
 H4079 H 0.81965 0.77029 0.21102
 H4080 H 0.84255 0.72661 0.25302
 C4081 C 0.38662 0.25563 0.69582
 C4082 C 0.40310 0.24679 0.70544
 C4083 C 0.42177 0.24765 0.69679
 C4084 C 0.42394 0.25697 0.67855
 C4085 C 0.40741 0.26627 0.66934
 C4086 C 0.38866 0.26560 0.67791
 C4087 C 0.36679 0.25384 0.70437
 C4088 C 0.35025 0.26224 0.69454
 C4089 C 0.33133 0.25991 0.70243
 C4090 C 0.32892 0.24911 0.71994
 C4091 C 0.34572 0.24102 0.72972
 C4092 C 0.36469 0.24332 0.72199
 C4093 C 0.37182 0.27416 0.66867
 C4094 C 0.35291 0.27254 0.67688
 C4095 C 0.40049 0.23681 0.72327
 C4096 C 0.38157 0.23509 0.73141
 H4097 H 0.37325 0.28195 0.65488
 H4098 H 0.34024 0.27916 0.66923
 H4099 H 0.41313 0.23002 0.73083
 H4100 H 0.38010 0.22705 0.74507
 H4101 H 0.43455 0.24072 0.70403
 H4102 H 0.40898 0.27327 0.65518
 H4103 H 0.31852 0.26628 0.69481
 H4104 H 0.34407 0.23282 0.74328
 C4105 C 0.38700 0.72079 0.80357
 C4106 C 0.39046 0.71564 0.82310
 C4107 C 0.40980 0.71675 0.83059
 C4108 C 0.42539 0.72338 0.81874
 C4109 C 0.42190 0.72736 0.79897
 C4110 C 0.40267 0.72628 0.79132
 C4111 C 0.36649 0.72180 0.79615
 C4112 C 0.36302 0.72815 0.77696
 C4113 C 0.34348 0.73064 0.77040
 C4114 C 0.32743 0.72704 0.78291
 C4115 C 0.33112 0.71992 0.80190
 C4116 C 0.35069 0.71746 0.80866
 C4117 C 0.39866 0.73167 0.77197
 C4118 C 0.37912 0.73259 0.76489
 C4119 C 0.37436 0.71061 0.83499
 C4120 C 0.35478 0.71148 0.82787
 H4121 H 0.41067 0.73581 0.76239
 H4122 H 0.37655 0.73735 0.75000
 H4123 H 0.37687 0.70652 0.85005
 H4124 H 0.34273 0.70798 0.83762
 H4125 H 0.41246 0.71389 0.84589
 H4126 H 0.43399 0.73230 0.78983
 H4127 H 0.34080 0.73580 0.75565
 H4128 H 0.31884 0.71702 0.81158
 C4129 C 0.89276 0.22146 0.30503
 C4130 C 0.90860 0.22550 0.29249
 C4131 C 0.92790 0.22616 0.30005
 C4132 C 0.93131 0.22336 0.32004
 C4133 C 0.91540 0.21841 0.33226
 C4134 C 0.89604 0.21753 0.32483
 C4135 C 0.87228 0.22248 0.29751
 C4136 C 0.85638 0.21923 0.31020
 C4137 C 0.83690 0.22135 0.30321
 C4138 C 0.83335 0.22710 0.28380
 C4139 C 0.84945 0.22987 0.27117
 C4140 C 0.86896 0.22757 0.27795
 C4141 C 0.87982 0.21377 0.33698
 C4142 C 0.86029 0.21455 0.32976
 C4143 C 0.90473 0.22973 0.27284
 C4144 C 0.88520 0.23079 0.26569
 H4145 H 0.88220 0.21063 0.35227
 H4146 H 0.84813 0.21193 0.33966
 H4147 H 0.91686 0.23277 0.26303
 H4148 H 0.88277 0.23457 0.25053
 H4149 H 0.94017 0.22970 0.29055
 H4150 H 0.91788 0.21649 0.34772
 H4151 H 0.82455 0.21921 0.31300
 H4152 H 0.84680 0.23402 0.25613
 C4153 C 0.10989 0.28238 0.29017
 C4154 C 0.10558 0.29204 0.30793
 C4155 C 0.08634 0.29091 0.31532
 C4156 C 0.07168 0.27981 0.30528
 C4157 C 0.07580 0.27166 0.28679
 C4158 C 0.09501 0.27262 0.27928
 C4159 C 0.13063 0.28096 0.28369
 C4160 C 0.13512 0.26999 0.26668
 C4161 C 0.15499 0.26704 0.26152
 C4162 C 0.17034 0.27472 0.27338
 C4163 C 0.16555 0.28642 0.28998
 C4164 C 0.14570 0.28944 0.29529
 C4165 C 0.09995 0.26273 0.26180
 C4166 C 0.11971 0.26144 0.25558
 C4167 C 0.12090 0.30127 0.31864
 C4168 C 0.14066 0.30002 0.31239
 H4169 H 0.08856 0.25527 0.25322
 H4170 H 0.12303 0.25310 0.24233
 H4171 H 0.11769 0.30887 0.33230
 H4172 H 0.15215 0.30679 0.32134
 H4173 H 0.08331 0.29704 0.32967
 H4174 H 0.06445 0.26332 0.27894
 H4175 H 0.15847 0.25823 0.24857
 H4176 H 0.17723 0.29264 0.29908
 C4177 C 0.60931 0.77292 0.79437
 C4178 C 0.60517 0.78597 0.81014
 C4179 C 0.58635 0.78552 0.81857
 C4180 C 0.57198 0.77181 0.81159
 C4181 C 0.57593 0.75972 0.79508
 C4182 C 0.59469 0.76007 0.78650
 C4183 C 0.62966 0.77166 0.78682
 C4184 C 0.63405 0.75776 0.77178
 C4185 C 0.65370 0.75549 0.76563
 C4186 C 0.66894 0.76675 0.77464
 C4187 C 0.66418 0.78112 0.78926
 C4188 C 0.64455 0.78357 0.79548
 C4189 C 0.59946 0.74696 0.77095
 C4190 C 0.61885 0.74585 0.76367
 C4191 C 0.62024 0.79833 0.81786
 C4192 C 0.63964 0.79715 0.81063
 H4193 H 0.58827 0.73707 0.76472
 H4194 H 0.62208 0.73516 0.75198
 H4195 H 0.61715 0.80853 0.82996
 H4196 H 0.65100 0.80652 0.81730
 H4197 H 0.58320 0.79500 0.83118
 H4198 H 0.56495 0.74899 0.78981
 H4199 H 0.65717 0.74446 0.75429
 H4200 H 0.67577 0.79006 0.79610
 C4201 C 0.61109 0.23632 0.70435
 C4202 C 0.59548 0.24892 0.71113
 C4203 C 0.57693 0.24804 0.70191
 C4204 C 0.57419 0.23495 0.68588
 C4205 C 0.58960 0.22158 0.67999
 C4206 C 0.60819 0.22234 0.68905
 C4207 C 0.63112 0.23874 0.71256
 C4208 C 0.64692 0.22701 0.70494
 C4209 C 0.66617 0.23049 0.71170
 C4210 C 0.66969 0.24554 0.72598
 C4211 C 0.65361 0.25665 0.73400
 C4212 C 0.63427 0.25345 0.72717
 C4213 C 0.62418 0.21019 0.68245
 C4214 C 0.64328 0.21250 0.69028
 C4215 C 0.59902 0.26291 0.72627
 C4216 C 0.61812 0.26511 0.73421
 H4217 H 0.62204 0.19926 0.67075
 H4218 H 0.65537 0.20322 0.68449
 H4219 H 0.58704 0.27261 0.73169
 H4220 H 0.62035 0.27639 0.74558
 H4221 H 0.56509 0.25849 0.70633
 H4222 H 0.58737 0.21135 0.66774
 H4223 H 0.67843 0.22171 0.70557
 H4224 H 0.65619 0.26821 0.74506
 C4225 C 0.11360 0.74073 0.20733
 C4226 C 0.09758 0.74765 0.21870
 C4227 C 0.07829 0.74669 0.21110
 C4228 C 0.07507 0.73929 0.19213
 C4229 C 0.09126 0.73183 0.18119
 C4230 C 0.11055 0.73252 0.18871
 C4231 C 0.13400 0.74295 0.21469
 C4232 C 0.15001 0.73662 0.20304
 C4233 C 0.16940 0.73965 0.20971
 C4234 C 0.17283 0.74920 0.22777
 C4235 C 0.15659 0.75508 0.23945
 C4236 C 0.13712 0.75201 0.23295
 C4237 C 0.12691 0.72590 0.17766
 C4238 C 0.14635 0.72786 0.18475
 C4239 C 0.10125 0.75604 0.23716
 C4240 C 0.12073 0.75822 0.24417
 H4241 H 0.12468 0.71948 0.16329
 H4242 H 0.15861 0.72286 0.17569
 H4243 H 0.08900 0.76136 0.24609
 H4244 H 0.12298 0.76512 0.25833
 H4245 H 0.06586 0.75221 0.21969
 H4246 H 0.08899 0.72644 0.16645
 H4247 H 0.18177 0.73493 0.20065
 H4248 H 0.15904 0.76226 0.25346
   
