data_POSCAR
  _audit_creation_date              2014-09-24
  _audit_creation_method            'ToBaCCo'
  _symmetry_space_group_name_H-M    'P1'
  _symmetry_Int_Tables_number       1
  _symmetry_cell_setting            triclinic
  loop_
  _symmetry_equiv_pos_as_xyz
 x,y,z
_cell_length_a 37.6710
_cell_length_b 38.0072
_cell_length_c 38.1665
_cell_angle_alpha 90.446400
_cell_angle_beta 90.232100
_cell_angle_gamma 90.891000
loop_
  _atom_site_label
  _atom_site_type_symbol
  _atom_site_fract_x
  _atom_site_fract_y
  _atom_site_fract_z
C1 C 0.15174 -0.04889 0.25751
 C2 C 0.13272 -0.01924 0.26724
 C3 C 0.11916 -0.01641 0.30108
 C4 C 0.12247 -0.04398 0.32502
 C5 C 0.14072 -0.07445 0.31472
 C6 C 0.15570 -0.07696 0.28073
 C7 C 0.12588 0.00870 0.24186
 C8 C 0.10951 0.00084 0.20972
 C9 C 0.09887 0.02791 0.18735
 C10 C 0.10753 0.06319 0.19659
 C11 C 0.12666 0.07074 0.22749
 C12 C 0.13417 0.04350 0.25068
 H13 H 0.16266 -0.05039 0.23128
 H14 H 0.10562 0.00744 0.30848
 H15 H 0.10311 -0.02637 0.20319
 H16 H 0.14730 0.04924 0.27545
 H17 H 0.14383 -0.09545 0.33345
 H18 H 0.10188 0.08450 0.17886
 C19 C 0.36698 -0.04633 0.74493
 C20 C 0.38174 -0.01348 0.73605
 C21 C 0.40086 -0.00993 0.70489
 C22 C 0.40688 -0.03934 0.68348
 C23 C 0.39334 -0.07232 0.69317
 C24 C 0.37231 -0.07574 0.72313
 C25 C 0.38113 0.01628 0.76092
 C26 C 0.39938 0.01360 0.79278
 C27 C 0.40413 0.04321 0.81491
 C28 C 0.39011 0.07552 0.80429
 C29 C 0.37013 0.07791 0.77338
 C30 C 0.36608 0.04832 0.75145
 H31 H 0.35202 -0.04911 0.76897
 H32 H 0.41264 0.01536 0.69828
 H33 H 0.41166 -0.01120 0.79869
 H34 H 0.35190 0.05035 0.72680
 H35 H 0.39788 -0.09507 0.67654
 H36 H 0.39338 0.09868 0.82087
 C37 C 0.86969 0.45675 0.25454
 C38 C 0.87810 0.49129 0.24472
 C39 C 0.88833 0.49820 0.21019
 C40 C 0.89132 0.47072 0.18583
 C41 C 0.88374 0.43607 0.19613
 C42 C 0.87188 0.42906 0.23018
 C43 C 0.87820 0.51999 0.27086
 C44 C 0.89378 0.51522 0.30383
 C45 C 0.89717 0.54350 0.32772
 C46 C 0.88507 0.57674 0.31778
 C47 C 0.86769 0.58107 0.28568
 C48 C 0.86453 0.55278 0.26222
 H49 H 0.86161 0.45151 0.28122
 H50 H 0.89610 0.52472 0.20293
 H51 H 0.90528 0.49000 0.30957
 H52 H 0.85169 0.55639 0.23706
 H53 H 0.88628 0.41468 0.17738
 H54 H 0.88743 0.59890 0.33575
 C55 C 0.63704 0.45626 0.74925
 C56 C 0.62222 0.48876 0.75807
 C57 C 0.60190 0.49176 0.78860
 C58 C 0.59469 0.46194 0.80907
 C59 C 0.60845 0.42928 0.79920
 C60 C 0.63067 0.42652 0.76998
 C61 C 0.62362 0.51775 0.73263
 C62 C 0.61093 0.51125 0.69869
 C63 C 0.60964 0.53823 0.67400
 C64 C 0.62222 0.57194 0.68312
 C65 C 0.63563 0.57877 0.71690
 C66 C 0.63598 0.55163 0.74183
 H67 H 0.65261 0.45396 0.72555
 H68 H 0.58999 0.51670 0.79525
 H69 H 0.60145 0.48505 0.69167
 H70 H 0.64583 0.55682 0.76811
 H71 H 0.60296 0.40630 0.81506
 H72 H 0.62156 0.59286 0.66396
 C73 C 0.23742 0.14493 1.04798
 C74 C 0.23355 0.12743 1.01584
 C75 C 0.20129 0.11114 1.00694
 C76 C 0.17186 0.11386 1.02908
 C77 C 0.17540 0.13333 1.06067
 C78 C 0.20846 0.14787 1.07061
 C79 C 0.26275 0.12810 0.99066
 C80 C 0.29518 0.11321 0.99932
 C81 C 0.32459 0.11716 0.97726
 C82 C 0.32086 0.13648 0.94594
 C83 C 0.28758 0.14965 0.93618
 C84 C 0.25869 0.14549 0.95883
 H85 H 0.26260 0.15750 1.05467
 H86 H 0.19902 0.09698 0.98221
 H87 H 0.29756 0.09912 1.02382
 H88 H 0.23336 0.15702 0.95241
 H89 H 0.15343 0.13550 1.07872
 H90 H 0.34284 0.13953 0.92798
 C91 C 0.75525 0.34156 1.04283
 C92 C 0.76433 0.35899 1.01202
 C93 C 0.79784 0.37455 1.00852
 C94 C 0.82182 0.37486 1.03675
 C95 C 0.81187 0.35898 1.06844
 C96 C 0.77833 0.34213 1.07160
 C97 C 0.73728 0.36375 0.98498
 C98 C 0.70648 0.38193 0.99337
 C99 C 0.67839 0.38388 0.96939
 C100 C 0.68195 0.36758 0.93624
 C101 C 0.71390 0.35149 0.92701
 C102 C 0.74151 0.34951 0.95154
 H103 H 0.72915 0.32927 1.04498
 H104 H 0.80472 0.38720 0.98406
 H105 H 0.70412 0.39377 1.01922
 H106 H 0.76561 0.33566 0.94515
 H107 H 0.83054 0.35923 1.09012
 H108 H 0.66106 0.36896 0.91676
 C109 C 0.25578 0.84918 0.53887
 C110 C 0.26362 0.86594 0.50725
 C111 C 0.29723 0.88145 0.50228
 C112 C 0.32381 0.87934 0.52823
 C113 C 0.31635 0.85995 0.55862
 C114 C 0.28226 0.84575 0.56448
 C115 C 0.23761 0.86598 0.47833
 C116 C 0.20422 0.88111 0.48271
 C117 C 0.18154 0.88490 0.45377
 C118 C 0.19200 0.87279 0.42068
 C119 C 0.22424 0.85541 0.41665
 C120 C 0.24721 0.85259 0.44544
 H121 H 0.22984 0.83710 0.54265
 H122 H 0.30253 0.89403 0.47748
 H123 H 0.19680 0.89173 0.50804
 H124 H 0.27287 0.84048 0.44219
 H125 H 0.33670 0.85697 0.57854
 H126 H 0.17454 0.87598 0.39829
 C127 C 0.73791 0.64010 0.54889
 C128 C 0.72884 0.62673 0.51568
 C129 C 0.69373 0.61634 0.50868
 C130 C 0.66780 0.61879 0.53487
 C131 C 0.67697 0.63288 0.56783
 C132 C 0.71209 0.64367 0.57502
 C133 C 0.75659 0.62321 0.48881
 C134 C 0.78833 0.60671 0.49728
 C135 C 0.81694 0.60664 0.47396
 C136 C 0.81272 0.62235 0.44071
 C137 C 0.78010 0.63751 0.43117
 C138 C 0.75220 0.63775 0.45556
 H139 H 0.76529 0.64746 0.55427
 H140 H 0.68678 0.60549 0.48316
 H141 H 0.79108 0.59482 0.52289
 H142 H 0.72702 0.64938 0.44893
 H143 H 0.65696 0.63474 0.58808
 H144 H 0.83407 0.62183 0.42179
 C145 C -0.03514 0.26946 0.15435
 C146 C -0.00694 0.27194 0.13103
 C147 C -0.00042 0.30304 0.11302
 C148 C -0.02060 0.33291 0.11953
 C149 C -0.04850 0.33086 0.14424
 C150 C -0.05662 0.29862 0.16061
 C151 C 0.01755 0.24290 0.12688
 C152 C 0.00613 0.21064 0.11287
 C153 C 0.03081 0.18385 0.10670
 C154 C 0.06672 0.18986 0.11561
 C155 C 0.07738 0.22140 0.13178
 C156 C 0.05293 0.24819 0.13640
 H157 H -0.03986 0.24500 0.16811
 H158 H 0.02135 0.30410 0.09448
 H159 H -0.02143 0.20768 0.10517
 H160 H 0.06131 0.27308 0.14810
 H161 H -0.06545 0.35313 0.14896
 H162 H 0.08606 0.16934 0.11175
 C163 C -0.04255 0.73535 0.34583
 C164 C -0.00823 0.72888 0.35820
 C165 C 0.00065 0.69497 0.36885
 C166 C -0.02450 0.66741 0.36751
 C167 C -0.05810 0.67362 0.35315
 C168 C -0.06744 0.70764 0.34276
 C169 C 0.01885 0.75719 0.35970
 C170 C 0.01182 0.78923 0.37654
 C171 C 0.03864 0.81509 0.37980
 C172 C 0.07203 0.80931 0.36504
 C173 C 0.07899 0.77763 0.34771
 C174 C 0.05251 0.75149 0.34541
 H175 H -0.04922 0.76147 0.33699
 H176 H 0.02714 0.69026 0.37876
 H177 H -0.01379 0.79318 0.38868
 H178 H 0.05769 0.72710 0.33158
 H179 H -0.07748 0.65232 0.35131
 H180 H 0.09270 0.82941 0.36724
 C181 C 0.45452 0.23861 0.84399
 C182 C 0.48877 0.23639 0.85796
 C183 C 0.50056 0.20426 0.87132
 C184 C 0.47824 0.17403 0.87052
 C185 C 0.44465 0.17648 0.85432
 C186 C 0.43243 0.20874 0.84179
 C187 C 0.51282 0.26736 0.85641
 C188 C 0.50208 0.30012 0.86945
 C189 C 0.52402 0.33037 0.86583
 C190 C 0.55584 0.32729 0.84690
 C191 C 0.56708 0.29445 0.83460
 C192 C 0.54562 0.26455 0.83972
 H193 H 0.44582 0.26328 0.83305
 H194 H 0.52724 0.20335 0.88175
 H195 H 0.47639 0.30148 0.88184
 H196 H 0.55357 0.23935 0.82912
 H197 H 0.42725 0.15351 0.85256
 H198 H 0.57289 0.35019 0.84307
 C199 C 0.45986 0.75522 0.64501
 C200 C 0.48927 0.76021 0.62331
 C201 C 0.49089 0.78914 0.60087
 C202 C 0.46243 0.81256 0.59913
 C203 C 0.43221 0.80641 0.61980
 C204 C 0.43130 0.77815 0.64333
 C205 C 0.51729 0.73392 0.62286
 C206 C 0.51169 0.70231 0.60450
 C207 C 0.53772 0.67637 0.60454
 C208 C 0.56911 0.68197 0.62373
 C209 C 0.57466 0.71339 0.64260
 C210 C 0.54882 0.73961 0.64172
 H211 H 0.45894 0.73308 0.66276
 H212 H 0.51388 0.79292 0.58425
 H213 H 0.48733 0.69826 0.58968
 H214 H 0.55257 0.76377 0.65663
 H215 H 0.41017 0.82438 0.61871
 H216 H 0.58914 0.66178 0.62414
 C217 C 0.86552 1.05564 0.75866
 C218 C 0.87785 1.02239 0.76765
 C219 C 0.88930 1.01585 0.80166
 C220 C 0.88952 1.04249 0.82733
 C221 C 0.87562 1.07563 0.81843
 C222 C 0.86341 1.08242 0.78410
 C223 C 0.88041 0.99428 0.74130
 C224 C 0.90052 0.99996 0.71124
 C225 C 0.90475 0.97318 0.68636
 C226 C 0.88874 0.93974 0.69269
 C227 C 0.86898 0.93347 0.72348
 C228 C 0.86510 0.96117 0.74761
 H229 H 0.85777 1.06035 0.73179
 H230 H 0.89784 0.98953 0.80755
 H231 H 0.91288 1.02560 0.70731
 H232 H 0.85100 0.95727 0.77190
 H233 H 0.87483 1.09641 0.83802
 H234 H 0.89246 0.91808 0.67459
 C235 C 0.36816 0.54267 0.25020
 C236 C 0.37948 0.50906 0.25938
 C237 C 0.39096 0.50274 0.29370
 C238 C 0.39161 0.52982 0.31896
 C239 C 0.37932 0.56332 0.30949
 C240 C 0.36724 0.56993 0.27515
 C241 C 0.37845 0.48032 0.23308
 C242 C 0.39057 0.48624 0.19893
 C243 C 0.38941 0.45924 0.17361
 C244 C 0.37482 0.42629 0.18272
 C245 C 0.36215 0.42010 0.21684
 C246 C 0.36459 0.44719 0.24193
 H247 H 0.35977 0.54720 0.22353
 H248 H 0.39922 0.47653 0.30055
 H249 H 0.40088 0.51205 0.19221
 H250 H 0.35559 0.44278 0.26844
 H251 H 0.37909 0.58426 0.32892
 H252 H 0.37348 0.40537 0.16327
 C253 C 0.64301 1.04808 0.24505
 C254 C 0.62837 1.01507 0.23574
 C255 C 0.61667 1.00905 0.20118
 C256 C 0.61898 1.03579 0.17601
 C257 C 0.63411 1.06848 0.18568
 C258 C 0.64634 1.07488 0.22005
 C259 C 0.62550 0.98669 0.26206
 C260 C 0.61126 0.99353 0.29538
 C261 C 0.60865 0.96669 0.32067
 C262 C 0.62146 0.93310 0.31195
 C263 C 0.63561 0.92581 0.27870
 C264 C 0.63714 0.95275 0.25378
 H265 H 0.65172 1.05273 0.27177
 H266 H 0.60567 0.98349 0.19406
 H267 H 0.60270 1.01993 0.30119
 H268 H 0.64747 0.94762 0.22787
 H269 H 0.63613 1.08919 0.16637
 H270 H 0.62007 0.91217 0.33109
 C271 C 0.13508 0.54470 0.75675
 C272 C 0.12041 0.51074 0.75166
 C273 C 0.10072 0.50318 0.72125
 C274 C 0.09615 0.52868 0.69556
 C275 C 0.11143 0.56247 0.70048
 C276 C 0.13097 0.57092 0.73114
 C277 C 0.12345 0.48348 0.77896
 C278 C 0.11274 0.49107 0.81319
 C279 C 0.11089 0.46464 0.83868
 C280 C 0.12286 0.43057 0.82982
 C281 C 0.13513 0.42262 0.79560
 C282 C 0.13432 0.44934 0.77023
 H283 H 0.14913 0.55048 0.78094
 H284 H 0.08850 0.47736 0.71774
 H285 H 0.10478 0.51762 0.81946
 H286 H 0.14163 0.44382 0.74339
 H287 H 0.10756 0.58236 0.68069
 H288 H 0.12214 0.41010 0.84942
 C289 C 0.73785 0.85749 -0.04446
 C290 C 0.72980 0.86911 -0.01062
 C291 C 0.69586 0.88155 -0.00319
 C292 C 0.67009 0.88394 -0.02976
 C293 C 0.67836 0.87131 -0.06368
 C294 C 0.71219 0.85756 -0.07118
 C295 C 0.75757 0.86943 0.01670
 C296 C 0.79088 0.88465 0.00971
 C297 C 0.81777 0.88587 0.03547
 C298 C 0.81066 0.87016 0.06816
 C299 C 0.77734 0.85451 0.07534
 C300 C 0.75077 0.85481 0.04952
 H301 H 0.76448 0.84870 -0.04972
 H302 H 0.69008 0.88998 0.02328
 H303 H 0.79514 0.89531 -0.01608
 H304 H 0.72467 0.84383 0.05472
 H305 H 0.65860 0.87253 -0.08434
 H306 H 0.83096 0.87048 0.08839
 C307 C 0.23554 0.35541 0.45756
 C308 C 0.22729 0.36828 0.49093
 C309 C 0.19368 0.38183 0.49740
 C310 C 0.16844 0.38407 0.47040
 C311 C 0.17674 0.37020 0.43699
 C312 C 0.21033 0.35543 0.43038
 C313 C 0.25465 0.36935 0.51863
 C314 C 0.28847 0.38282 0.51106
 C315 C 0.31478 0.38518 0.53702
 C316 C 0.30707 0.37231 0.57080
 C317 C 0.27322 0.35801 0.57869
 C318 C 0.24696 0.35747 0.55244
 H319 H 0.26199 0.34581 0.45303
 H320 H 0.18768 0.39134 0.52347
 H321 H 0.29401 0.39151 0.48470
 H322 H 0.22044 0.34774 0.55794
 H323 H 0.15726 0.37130 0.41608
 H324 H 0.32746 0.37333 0.59091
 C325 C 0.26435 0.63688 -0.05490
 C326 C 0.27050 0.62368 -0.02143
 C327 C 0.30468 0.61367 -0.01168
 C328 C 0.33277 0.61508 -0.03583
 C329 C 0.32633 0.62934 -0.06935
 C330 C 0.29221 0.64103 -0.07879
 C331 C 0.24096 0.62150 0.00361
 C332 C 0.20905 0.60479 -0.00612
 C333 C 0.17926 0.60581 0.01570
 C334 C 0.18255 0.62317 0.04877
 C335 C 0.21529 0.63882 0.05946
 C336 C 0.24421 0.63765 0.03645
 H337 H 0.23763 0.64419 -0.06202
 H338 H 0.30886 0.60453 0.01475
 H339 H 0.20723 0.59182 -0.03151
 H340 H 0.26961 0.64919 0.04389
 H341 H 0.34781 0.63128 -0.08808
 H342 H 0.16043 0.62342 0.06678
 C343 C 0.76477 0.13186 0.45525
 C344 C 0.77123 0.11793 0.48835
 C345 C 0.80468 0.10455 0.49641
 C346 C 0.83202 0.10439 0.47124
 C347 C 0.82528 0.11981 0.43831
 C348 C 0.79182 0.13387 0.43025
 C349 C 0.74303 0.11854 0.51495
 C350 C 0.70893 0.10552 0.50690
 C351 C 0.68164 0.10682 0.53183
 C352 C 0.68885 0.12271 0.56467
 C353 C 0.72285 0.13663 0.57271
 C354 C 0.74994 0.13363 0.54786
 H355 H 0.73854 0.14147 0.44938
 H356 H 0.80876 0.09464 0.52253
 H357 H 0.70393 0.09470 0.48102
 H358 H 0.77648 0.14337 0.55374
 H359 H 0.84599 0.12064 0.41867
 H360 H 0.66789 0.12445 0.58395
 C361 C 1.05028 0.76874 0.86956
 C362 C 1.01682 0.77683 0.88255
 C363 C 1.00998 0.81052 0.89499
 C364 C 1.03694 0.83662 0.89599
 C365 C 1.07032 0.82859 0.88092
 C366 C 1.07713 0.79453 0.86734
 C367 C 0.98942 0.74909 0.88437
 C368 C 0.99750 0.71773 0.90092
 C369 C 0.97376 0.68922 0.90033
 C370 C 0.94038 0.69306 0.88346
 C371 C 0.93115 0.72548 0.86803
 C372 C 0.95611 0.75341 0.86894
 H373 H 1.05498 0.74193 0.86137
 H374 H 0.98336 0.81571 0.90387
 H375 H 1.02320 0.71536 0.91360
 H376 H 0.95011 0.77869 0.85777
 H377 H 1.09122 0.84850 0.88041
 H378 H 0.92109 0.67166 0.88333
 C379 C 0.55301 0.25293 0.36682
 C380 C 0.51838 0.26013 0.37776
 C381 C 0.51043 0.29374 0.39047
 C382 C 0.53675 0.32016 0.39291
 C383 C 0.57130 0.31276 0.38120
 C384 C 0.57967 0.27921 0.36784
 C385 C 0.49037 0.23242 0.37642
 C386 C 0.49770 0.19830 0.38770
 C387 C 0.47096 0.17219 0.38818
 C388 C 0.43678 0.18043 0.37598
 C389 C 0.42911 0.21443 0.36399
 C390 C 0.45608 0.24033 0.36473
 H391 H 0.55893 0.22675 0.35748
 H392 H 0.48357 0.29909 0.39857
 H393 H 0.52428 0.19238 0.39643
 H394 H 0.45060 0.26683 0.35640
 H395 H 0.59170 0.33316 0.38247
 H396 H 0.41604 0.16034 0.37596
 C397 C 1.04434 0.23527 0.62958
 C398 C 1.01275 0.23196 0.61069
 C399 C 1.00306 0.19985 0.59521
 C400 C 1.02426 0.17007 0.59905
 C401 C 1.05611 0.17346 0.61920
 C402 C 1.06623 0.20629 0.63462
 C403 C 0.98859 0.26180 0.60976
 C404 C 1.00016 0.29424 0.59688
 C405 C 0.97917 0.32423 0.60022
 C406 C 0.94559 0.32082 0.61684
 C407 C 0.93352 0.28779 0.62935
 C408 C 0.95518 0.25844 0.62502
 H409 H 1.05158 0.26082 0.64037
 H410 H 0.97835 0.19810 0.58054
 H411 H 1.02621 0.29614 0.58495
 H412 H 0.94653 0.23274 0.63392
 H413 H 1.07356 0.15133 0.62218
 H414 H 0.92834 0.34318 0.61933
 C415 C 0.54636 0.74375 0.12863
 C416 C 0.51477 0.73932 0.10954
 C417 C 0.50788 0.70807 0.09124
 C418 C 0.53191 0.68060 0.09219
 C419 C 0.56352 0.68462 0.11196
 C420 C 0.57101 0.71636 0.13042
 C421 C 0.48851 0.76734 0.10848
 C422 C 0.49665 0.79903 0.09207
 C423 C 0.47126 0.82525 0.08961
 C424 C 0.43735 0.81984 0.10464
 C425 C 0.42878 0.78769 0.12134
 C426 C 0.45463 0.76136 0.12216
 H427 H 0.55156 0.76872 0.14160
 H428 H 0.48357 0.70520 0.07607
 H429 H 0.52262 0.80295 0.08043
 H430 H 0.44874 0.73569 0.13288
 H431 H 0.58251 0.66350 0.11235
 H432 H 0.41760 0.84017 0.10267
 O433 O -0.02951 0.99313 0.90732
 O434 O 0.02440 1.02043 0.90634
 O435 O -0.01729 0.90988 0.98117
 O436 O 0.00249 0.90958 1.04388
 O437 O -0.10824 0.97361 0.98564
 O438 O -0.11920 1.03151 1.00892
 O439 O 0.05935 1.01491 1.08248
 O440 O 0.07137 0.96179 1.05626
 O441 O 0.05077 1.09237 1.01073
 O442 O 0.02118 1.09729 0.95192
 O443 O -0.03056 1.08060 1.08083
 O444 O -0.08047 1.03873 1.08773
 O445 O 0.00757 1.03553 1.10484
 O446 O -0.05065 0.99884 1.10822
 O447 O -0.00487 1.10861 1.03470
 O448 O -0.02753 1.11034 0.97152
 O449 O 0.08220 1.04613 1.03131
 O450 O 0.09156 0.98778 1.00165
 O451 O -0.08061 1.01405 0.93089
 O452 O -0.10165 1.05800 0.96640
 O453 O -0.07945 0.93020 1.01433
 O454 O -0.04550 0.92065 1.06261
 O455 O 0.00788 0.93861 0.93526
 O456 O 0.05815 0.98063 0.93368
 Zr457 Zr 0.00571 0.99198 0.95023
 O458 O 0.03405 1.02798 0.98243
 Zr459 Zr -0.02693 0.94936 1.01902
 O460 O 0.00026 0.98334 1.05424
 Zr461 Zr -0.07131 1.01575 0.98517
 O462 O -0.04643 1.05280 1.01878
 Zr463 Zr 0.04610 1.00350 1.03006
 O464 O 0.02120 0.96606 0.99637
 Zr465 Zr 0.00144 1.07005 0.99612
 O466 O -0.02560 1.03623 0.96088
 Zr467 Zr -0.03072 1.02756 1.06501
 O468 O -0.05966 0.99156 1.03311
 O469 O -0.04133 0.97214 0.97171
 O470 O 0.01573 1.04683 1.04287
 C471 C -0.06116 1.00515 0.90483
 C472 C -0.00185 0.91047 0.95116
 C473 C -0.10736 0.94351 1.00066
 C474 C 0.04087 1.02900 1.10696
 C475 C 0.07870 1.07879 1.02394
 C476 C -0.01706 1.10776 1.06595
 H477 H 0.05591 1.03605 0.97045
 H478 H -0.06270 1.07244 1.02343
 H479 H -0.05423 0.95581 0.95559
 H480 H 0.00653 0.97054 1.07580
 H481 H 0.07020 0.94117 1.04032
 H482 H 0.02365 0.90520 1.02931
 H483 H -0.04738 1.11672 0.98711
 H484 H -0.08456 1.07497 0.95606
 H485 H 0.11266 0.99238 1.01672
 H486 H 0.05718 0.96770 0.91098
 H487 H -0.09205 1.05639 1.07280
 H488 H -0.12097 1.01881 1.03141
 H489 H 0.01487 1.04446 0.90854
 H490 H 0.04473 1.08770 0.94616
 H491 H -0.05747 0.93787 1.07794
 H492 H -0.03095 0.98522 1.11830
 O493 O 0.47330 0.48049 0.40151
 O494 O 0.52884 0.50451 0.40027
 O495 O 0.48073 0.39641 0.47621
 O496 O 0.49368 0.38951 0.53172
 O497 O 0.39322 0.47027 0.48353
 O498 O 0.38937 0.52989 0.50289
 O499 O 0.56611 0.49641 0.57530
 O500 O 0.57246 0.44051 0.55000
 O501 O 0.56600 0.57111 0.50217
 O502 O 0.53335 0.58149 0.44672
 O503 O 0.48350 0.56687 0.57641
 O504 O 0.42921 0.53101 0.58260
 O505 O 0.51410 0.51271 0.60060
 O506 O 0.45230 0.48838 0.60178
 O507 O 0.51164 0.59362 0.53100
 O508 O 0.48807 0.59916 0.46871
 O509 O 0.59241 0.52147 0.52168
 O510 O 0.59356 0.46296 0.49406
 O511 O 0.42406 0.50495 0.42539
 O512 O 0.41032 0.55330 0.45997
 O513 O 0.41912 0.42261 0.50782
 O514 O 0.45467 0.41466 0.56035
 O515 O 0.50659 0.42355 0.42974
 O516 O 0.55932 0.46125 0.42630
 Zr517 Zr 0.50860 0.47710 0.44418
 O518 O 0.54063 0.51002 0.47625
 Zr519 Zr 0.47283 0.43710 0.51293
 O520 O 0.50397 0.46769 0.54786
 Zr521 Zr 0.43488 0.50789 0.47965
 O522 O 0.46383 0.54183 0.51369
 Zr523 Zr 0.55110 0.48418 0.52349
 O524 O 0.52208 0.44967 0.49010
 Zr525 Zr 0.51308 0.55516 0.49121
 O526 O 0.48235 0.52432 0.45564
 Zr527 Zr 0.47714 0.51446 0.55939
 O528 O 0.44439 0.48213 0.52725
 O529 O 0.46009 0.46141 0.46588
 O530 O 0.52540 0.53021 0.53768
 C531 C 0.44245 0.49433 0.39910
 C532 C 0.49602 0.39600 0.44618
 C533 C 0.39191 0.43958 0.49751
 C534 C 0.54745 0.50653 0.60154
 C535 C 0.59297 0.55398 0.51324
 C536 C 0.49884 0.59341 0.56213
 H537 H 0.56277 0.51586 0.46357
 H538 H 0.44969 0.56289 0.51894
 H539 H 0.44559 0.44607 0.45012
 H540 H 0.50923 0.45405 0.56917
 H541 H 0.56951 0.41993 0.53413
 H542 H 0.51634 0.39566 0.54354
 H543 H 0.46846 0.60619 0.48430
 H544 H 0.42935 0.56749 0.44883
 H545 H 0.61534 0.46423 0.50872
 H546 H 0.55672 0.44910 0.40328
 H547 H 0.42014 0.55082 0.56868
 H548 H 0.38713 0.51926 0.52639
 H549 H 0.51996 0.52884 0.40187
 H550 H 0.55376 0.56796 0.43798
 H551 H 0.43565 0.42993 0.56934
 H552 H 0.46725 0.46833 0.60847
 O553 O 0.42621 0.00388 0.56929
 O554 O 0.41970 0.05522 0.53838
 O555 O 0.42609 -0.07790 0.49163
 O556 O 0.45663 -0.08979 0.44232
 O557 O 0.50833 -0.07593 0.57096
 O558 O 0.55949 -0.04097 0.58158
 O559 O 0.52530 0.01362 0.39938
 O560 O 0.47089 -0.01265 0.39422
 O561 O 0.51971 0.09408 0.47270
 O562 O 0.49981 0.10098 0.53119
 O563 O 0.60109 0.02003 0.48233
 O564 O 0.60196 -0.04270 0.50351
 O565 O 0.57314 -0.01172 0.42505
 O566 O 0.58524 -0.06214 0.45808
 O567 O 0.57588 0.06834 0.50655
 O568 O 0.53756 0.07824 0.55873
 O569 O 0.49387 0.06773 0.42511
 O570 O 0.43823 0.03348 0.42181
 O571 O 0.47469 -0.01969 0.59571
 O572 O 0.53512 0.00409 0.59999
 O573 O 0.48165 -0.10288 0.52415
 O574 O 0.50766 -0.10639 0.46468
 O575 O 0.40015 -0.02812 0.51219
 O576 O 0.40065 0.03144 0.48674
 Zr577 Zr 0.44196 0.00903 0.51687
 O578 O 0.47359 0.04202 0.48565
 Zr579 Zr 0.47984 -0.06320 0.48581
 O580 O 0.51221 -0.03286 0.45232
 Zr581 Zr 0.51333 -0.02300 0.55611
 O582 O 0.54786 0.00826 0.52585
 Zr583 Zr 0.48783 0.01482 0.43994
 O584 O 0.45321 -0.01765 0.46966
 Zr585 Zr 0.52187 0.05426 0.51076
 O586 O 0.48841 0.02459 0.54417
 Zr587 Zr 0.55924 -0.01748 0.47834
 O588 O 0.52843 -0.05112 0.51094
 O589 O 0.46601 -0.03747 0.53165
 O590 O 0.53598 0.02974 0.46381
 C591 C 0.44274 -0.00816 0.59602
 C592 C 0.39912 -0.06035 0.50190
 C593 C 0.49455 -0.10290 0.55539
 C594 C 0.55663 0.00077 0.39839
 C595 C 0.50617 0.09480 0.44175
 C596 C 0.60281 0.05123 0.49557
 H597 H 0.45982 0.06325 0.48026
 H598 H 0.56940 0.01322 0.54001
 H599 H 0.45048 -0.05230 0.54653
 H600 H 0.51715 -0.04663 0.43087
 H601 H 0.44936 -0.02632 0.40077
 H602 H 0.46678 -0.07917 0.42096
 H603 H 0.55759 0.06471 0.56825
 H604 H 0.52158 0.02605 0.60276
 H605 H 0.44160 0.04332 0.39803
 H606 H 0.37777 0.02795 0.49914
 H607 H 0.60906 -0.02812 0.52404
 H608 H 0.57149 -0.05663 0.56468
 H609 H 0.43820 0.06641 0.55343
 H610 H 0.47560 0.10298 0.52139
 H611 H 0.52901 -0.10950 0.47949
 H612 H 0.56770 -0.07561 0.44381
 O613 O -0.07777 0.42775 1.01095
 O614 O -0.04114 0.41466 0.96223
 O615 O -0.00850 0.45442 1.09431
 O616 O 0.04182 0.48895 1.09933
 O617 O -0.09320 0.51840 1.07234
 O618 O -0.10244 0.56559 1.03048
 O619 O 0.08675 0.54226 0.99597
 O620 O 0.09419 0.49347 1.02580
 O621 O 0.01864 0.51133 0.90932
 O622 O -0.03544 0.48345 0.90224
 O623 O -0.00554 0.60315 0.96514
 O624 O -0.03214 0.61319 1.02634
 O625 O 0.05330 0.59032 1.00795
 O626 O 0.01576 0.60995 1.04741
 O627 O -0.02476 0.56578 0.92211
 O628 O -0.07160 0.51732 0.91804
 O629 O 0.06749 0.49835 0.94167
 O630 O 0.07265 0.45107 0.98499
 O631 O -0.11060 0.47728 1.01790
 O632 O -0.11850 0.53256 0.98992
 O633 O -0.04384 0.50796 1.10506
 O634 O 0.01327 0.54075 1.10698
 O635 O -0.02252 0.41646 1.04973
 O636 O 0.00975 0.40633 0.99391
 Zr637 Zr -0.02567 0.44790 1.00458
 O638 O 0.00586 0.47538 0.96825
 Zr639 Zr -0.00277 0.50292 1.06882
 O640 O 0.02965 0.53214 1.03505
 Zr641 Zr -0.07376 0.51922 1.02043
 O642 O -0.04418 0.54912 0.98459
 Zr643 Zr 0.04876 0.50061 0.99393
 O644 O 0.01924 0.46979 1.03039
 Zr645 Zr -0.02287 0.51621 0.94577
 O646 O -0.05602 0.48646 0.97938
 Zr647 Zr 0.00045 0.57133 1.00993
 O648 O -0.03158 0.54465 1.04732
 O649 O -0.04597 0.47931 1.04397
 O650 O 0.02135 0.54119 0.96902
 C651 C -0.10736 0.44383 1.01495
 C652 C -0.01662 0.42375 1.08226
 C653 C -0.07729 0.51263 1.10156
 C654 C 0.08328 0.57505 1.00421
 C655 C 0.05132 0.50254 0.91225
 C656 C -0.01801 0.59666 0.93422
 H657 H 0.01426 0.45846 0.95042
 H658 H -0.06040 0.56687 0.97503
 H659 H -0.06138 0.46549 1.05979
 H660 H 0.04912 0.54225 1.04954
 H661 H 0.08773 0.47516 1.04306
 H662 H 0.06266 0.50200 1.09016
 H663 H -0.08348 0.53950 0.92441
 H664 H -0.11832 0.51717 0.96889
 H665 H 0.09682 0.45513 0.97546
 H666 H -0.00181 0.38380 1.00080
 H667 H -0.05163 0.61526 1.00907
 H668 H -0.08895 0.57909 1.04854
 H669 H -0.05909 0.42752 0.94854
 H670 H -0.02696 0.45961 0.90769
 H671 H -0.00430 0.55985 1.10638
 H672 H 0.02490 0.59716 1.06795
 O673 O 0.09981 0.47839 0.51720
 O674 O 0.10813 0.52980 0.48779
 O675 O 0.03188 0.50672 0.60308
 O676 O -0.02679 0.53545 0.60486
 O677 O 0.00690 0.41435 0.54244
 O678 O -0.02094 0.40712 0.48284
 O679 O -0.05988 0.59085 0.49242
 O680 O -0.03596 0.60151 0.54785
 O681 O 0.00698 0.56960 0.42077
 O682 O 0.06011 0.53102 0.41450
 O683 O -0.07664 0.49934 0.43675
 O684 O -0.08941 0.45275 0.48059
 O685 O -0.09415 0.54156 0.48425
 O686 O -0.10488 0.48640 0.51844
 O687 O -0.02780 0.51629 0.40585
 O688 O 0.02622 0.48442 0.40154
 O689 O -0.00206 0.60541 0.46787
 O690 O 0.02458 0.61042 0.52803
 O691 O 0.06713 0.43110 0.49808
 O692 O 0.02867 0.40923 0.46249
 O693 O -0.01407 0.44949 0.58587
 O694 O -0.05485 0.49124 0.59620
 O695 O 0.08059 0.52107 0.57094
 O696 O 0.08888 0.56827 0.52869
 Zr697 Zr 0.06275 0.51919 0.51880
 O698 O 0.03396 0.55042 0.48371
 Zr699 Zr -0.00927 0.50048 0.56535
 O700 O -0.04149 0.53038 0.53177
 Zr701 Zr 0.01411 0.44819 0.49928
 O702 O -0.01622 0.47622 0.46258
 Zr703 Zr -0.01081 0.57060 0.50911
 O704 O 0.02051 0.54310 0.54578
 Zr705 Zr 0.01318 0.51916 0.44290
 O706 O 0.04493 0.48827 0.47598
 Zr707 Zr -0.05897 0.49935 0.48906
 O708 O -0.03054 0.46837 0.52495
 O709 O 0.03437 0.47750 0.54133
 O710 O -0.03036 0.54081 0.46726
 C711 C 0.09680 0.44657 0.50576
 C712 C 0.06460 0.51669 0.60018
 C713 C -0.00732 0.41919 0.57270
 C714 C -0.08932 0.57512 0.48431
 C715 C 0.00223 0.59995 0.43505
 C716 C -0.06077 0.50795 0.40836
 H717 H 0.04977 0.56948 0.47519
 H718 H -0.02404 0.46020 0.44341
 H719 H 0.04884 0.46310 0.55735
 H720 H -0.06162 0.54034 0.54488
 H721 H -0.02351 0.59702 0.57016
 H722 H -0.00864 0.55444 0.60723
 H723 H 0.04479 0.46875 0.41069
 H724 H 0.02769 0.42042 0.43921
 H725 H 0.01425 0.63357 0.52249
 H726 H 0.11229 0.56415 0.53986
 H727 H -0.07865 0.43984 0.46079
 H728 H -0.04106 0.40672 0.49946
 H729 H 0.10393 0.51822 0.46480
 H730 H 0.07016 0.55354 0.42351
 H731 H -0.07295 0.48082 0.58018
 H732 H -0.10904 0.50575 0.53535
 O733 O 0.44734 1.09833 -0.00896
 O734 O 0.47687 1.10475 0.04607
 O735 O 0.52146 1.07601 -0.08412
 O736 O 0.56894 1.03945 -0.08917
 O737 O 0.43177 1.00726 -0.07585
 O738 O 0.41250 0.96369 -0.03668
 O739 O 0.60106 0.97712 0.01634
 O740 O 0.61422 1.02796 -0.01049
 O741 O 0.52715 1.00164 0.09646
 O742 O 0.47437 1.03132 0.10035
 O743 O 0.50449 0.91597 0.03083
 O744 O 0.48315 0.91167 -0.03323
 O745 O 0.56748 0.93086 -0.00395
 O746 O 0.53228 0.91628 -0.05018
 O747 O 0.48486 0.95031 0.07549
 O748 O 0.43818 0.99771 0.07832
 O749 O 0.57946 1.01516 0.06984
 O750 O 0.59141 1.06694 0.03269
 O751 O 0.41222 1.05097 -0.02368
 O752 O 0.39824 0.99512 0.00480
 O753 O 0.48341 1.02118 -0.10370
 O754 O 0.53989 0.99000 -0.10269
 O755 O 0.50733 1.11053 -0.03731
 O756 O 0.53257 1.11364 0.02250
 Zr757 Zr 0.49609 1.07496 0.00319
 O758 O 0.52223 1.04350 0.04005
 Zr759 Zr 0.52152 1.02468 -0.06328
 O760 O 0.54936 0.99183 -0.02912
 Zr761 Zr 0.44563 1.00694 -0.02254
 O762 O 0.47027 0.97260 0.01256
 Zr763 Zr 0.56574 1.01942 0.01626
 O764 O 0.54174 1.05383 -0.02021
 Zr765 Zr 0.48936 1.00162 0.05587
 O766 O 0.46131 1.03565 0.02236
 Zr767 Zr 0.51595 0.95141 -0.01036
 O768 O 0.48860 0.98234 -0.04756
 O769 O 0.47769 1.04752 -0.04077
 O770 O 0.53413 0.97769 0.03463
 C771 C 0.41761 1.08416 -0.01846
 C772 C 0.51538 1.10600 -0.06963
 C773 C 0.45011 1.01347 -0.10339
 C774 C 0.59725 0.94510 0.00564
 C775 C 0.56058 1.00858 0.09712
 C776 C 0.49115 0.92028 0.06160
 H777 H 0.52987 1.05839 0.06016
 H778 H 0.45259 0.95434 0.01907
 H779 H 0.46515 1.06235 -0.05787
 H780 H 0.56985 0.98244 -0.04209
 H781 H 0.61072 1.04860 -0.02572
 H782 H 0.58863 1.02745 -0.07722
 H783 H 0.42629 0.97650 0.06831
 H784 H 0.39714 1.01171 0.02488
 H785 H 0.61434 1.06100 0.04389
 H786 H 0.52324 1.13727 0.01711
 H787 H 0.46261 0.90784 -0.01756
 H788 H 0.42739 0.94739 -0.05037
 H789 H 0.45589 1.09193 0.05536
 H790 H 0.48293 1.05572 0.09666
 H791 H 0.52254 0.97020 -0.10421
 H792 H 0.54699 0.93010 -0.06668
 O793 O 0.47955 0.50069 0.09646
 O794 O 0.53080 0.47043 0.09722
 O795 O 0.50184 0.58946 0.03076
 O796 O 0.51646 0.60011 -0.02422
 O797 O 0.40412 0.52615 0.01357
 O798 O 0.39208 0.47128 -0.01098
 O799 O 0.57599 0.49860 -0.07465
 O800 O 0.59029 0.54436 -0.03815
 O801 O 0.55893 0.40877 -0.01507
 O802 O 0.52890 0.39888 0.04326
 O803 O 0.48788 0.42946 -0.08577
 O804 O 0.43690 0.47038 -0.09130
 O805 O 0.52504 0.48174 -0.10296
 O806 O 0.46624 0.51308 -0.10487
 O807 O 0.49912 0.39479 -0.03885
 O808 O 0.48017 0.38889 0.02279
 O809 O 0.59378 0.45623 -0.02841
 O810 O 0.60528 0.50860 0.01086
 O811 O 0.42784 0.48502 0.06890
 O812 O 0.40973 0.43954 0.02813
 O813 O 0.43656 0.57299 -0.00577
 O814 O 0.47543 0.58257 -0.05544
 O815 O 0.51998 0.55515 0.07576
 O816 O 0.56827 0.51251 0.07572
 Zr817 Zr 0.51623 0.50370 0.05549
 O818 O 0.54460 0.47044 0.02159
 Zr819 Zr 0.48865 0.55367 -0.01014
 O820 O 0.51701 0.52329 -0.04661
 Zr821 Zr 0.44021 0.48466 0.01482
 O822 O 0.46529 0.45139 -0.02166
 Zr823 Zr 0.56048 0.49966 -0.02214
 O824 O 0.53493 0.53383 0.01315
 Zr825 Zr 0.51087 0.43063 0.00161
 O826 O 0.48372 0.46105 0.03908
 Zr827 Zr 0.48512 0.48070 -0.06416
 O828 O 0.45541 0.51314 -0.03000
 O829 O 0.47109 0.52658 0.03377
 O830 O 0.52929 0.45818 -0.04171
 C831 C 0.44669 0.49123 0.09659
 C832 C 0.51477 0.58516 0.06175
 C833 C 0.40703 0.55784 0.00248
 C834 C 0.55839 0.48981 -0.10225
 C835 C 0.58808 0.42300 -0.02548
 C836 C 0.49283 0.39941 -0.07145
 H837 H 0.56539 0.46063 0.03378
 H838 H 0.44826 0.43278 -0.02925
 H839 H 0.45821 0.54196 0.05033
 H840 H 0.52491 0.53857 -0.06602
 H841 H 0.58828 0.56218 -0.01922
 H842 H 0.53938 0.59256 -0.03402
 H843 H 0.45750 0.38764 0.00962
 H844 H 0.42444 0.42553 0.04423
 H845 H 0.62692 0.50501 -0.00336
 H846 H 0.56669 0.52257 0.09974
 H847 H 0.42538 0.44965 -0.08040
 H848 H 0.39429 0.48044 -0.03509
 H849 H 0.52133 0.44669 0.09132
 H850 H 0.55358 0.40606 0.04909
 H851 H 0.45583 0.56949 -0.06731
 H852 H 0.48451 0.53149 -0.10927
 O853 O -0.09682 0.01595 0.51669
 O854 O -0.10672 -0.03424 0.48292
 O855 O -0.02543 -0.01489 0.59700
 O856 O 0.02881 -0.03687 0.60133
 O857 O -0.00101 0.08045 0.53555
 O858 O 0.01915 0.08920 0.47753
 O859 O 0.06326 -0.09769 0.49538
 O860 O 0.02902 -0.10873 0.54405
 O861 O -0.01238 -0.07641 0.41397
 O862 O -0.06273 -0.03526 0.40964
 O863 O 0.07623 -0.01479 0.42745
 O864 O 0.09043 0.03825 0.46713
 O865 O 0.09524 -0.04965 0.47792
 O866 O 0.10712 0.00782 0.50747
 O867 O 0.02432 -0.02290 0.39769
 O868 O -0.03366 0.00734 0.39687
 O869 O 0.01139 -0.10982 0.45710
 O870 O -0.02482 -0.11874 0.51208
 O871 O -0.06478 0.06351 0.49786
 O872 O -0.02696 0.07888 0.45184
 O873 O 0.01727 0.04500 0.57955
 O874 O 0.06318 0.00256 0.58332
 O875 O -0.07523 -0.02997 0.56613
 O876 O -0.08770 -0.07379 0.52255
 Zr877 Zr -0.06044 -0.02526 0.51373
 O878 O -0.03340 -0.05709 0.47764
 Zr879 Zr 0.01364 -0.00609 0.55805
 O880 O 0.04393 -0.03708 0.52363
 Zr881 Zr -0.01213 0.04551 0.49326
 O882 O 0.01686 0.01667 0.45563
 Zr883 Zr 0.01209 -0.07737 0.50173
 O884 O -0.01714 -0.04881 0.53909
 Zr885 Zr -0.01433 -0.02580 0.43675
 O886 O -0.04438 0.00554 0.47100
 Zr887 Zr 0.06024 -0.00724 0.48012
 O888 O 0.03355 0.02500 0.51685
 O889 O -0.03085 0.01658 0.53570
 O890 O 0.03018 -0.04843 0.45920
 C891 C -0.09406 0.04809 0.50671
 C892 C -0.05789 -0.02604 0.59475
 C893 C 0.01215 0.07545 0.56633
 C894 C 0.09200 -0.08255 0.48492
 C895 C 0.00039 -0.10518 0.42563
 C896 C 0.05818 -0.02021 0.39915
 H897 H -0.04926 -0.07624 0.46894
 H898 H 0.02455 0.03233 0.43647
 H899 H -0.04422 0.03085 0.55285
 H900 H 0.06424 -0.04675 0.53670
 H901 H 0.01191 -0.10501 0.56332
 H902 H 0.03840 -0.05896 0.59169
 H903 H -0.01647 0.02704 0.39405
 H904 H -0.04254 0.06463 0.43613
 H905 H -0.01319 -0.14128 0.50634
 H906 H -0.11102 -0.06921 0.53361
 H907 H 0.08101 0.04763 0.44491
 H908 H 0.04363 0.08458 0.48561
 H909 H -0.10474 -0.01920 0.46194
 H910 H -0.07453 -0.05597 0.42031
 H911 H 0.07645 0.01996 0.56909
 H912 H 0.11058 -0.00923 0.52659
 O913 O 0.75758 0.33034 0.19245
 O914 O 0.70028 0.33219 0.21938
 O915 O 0.83346 0.32572 0.26901
 O916 O 0.84523 0.29344 0.31731
 O917 O 0.83204 0.24831 0.18611
 O918 O 0.79722 0.19664 0.17407
 O919 O 0.74331 0.22368 0.35704
 O920 O 0.76699 0.27795 0.36440
 O921 O 0.65993 0.23289 0.28338
 O922 O 0.65309 0.25376 0.22714
 O923 O 0.73485 0.15192 0.27172
 O924 O 0.79755 0.15150 0.24891
 O925 O 0.76836 0.17730 0.32879
 O926 O 0.81846 0.16677 0.29424
 O927 O 0.68628 0.17790 0.24853
 O928 O 0.67711 0.21791 0.19686
 O929 O 0.68641 0.25536 0.33253
 O930 O 0.72080 0.31065 0.33798
 O931 O 0.77572 0.28144 0.16282
 O932 O 0.75200 0.22183 0.15579
 O933 O 0.85897 0.27258 0.23427
 O934 O 0.86255 0.24388 0.29242
 O935 O 0.78239 0.35213 0.25199
 O936 O 0.72139 0.35047 0.27305
 Zr937 Zr 0.74619 0.31074 0.24277
 O938 O 0.71287 0.27824 0.27279
 Zr939 Zr 0.81888 0.27215 0.27272
 O940 O 0.78816 0.23867 0.30444
 Zr941 Zr 0.77871 0.24166 0.20079
 O942 O 0.74697 0.20625 0.22944
 Zr943 Zr 0.73997 0.26225 0.31796
 O944 O 0.77270 0.29780 0.28968
 Zr945 Zr 0.70061 0.23146 0.24570
 O946 O 0.73059 0.26588 0.21349
 Zr947 Zr 0.77290 0.19314 0.27626
 O948 O 0.80702 0.22506 0.24525
 O949 O 0.79317 0.28735 0.22763
 O950 O 0.72514 0.21551 0.29199
 C951 C 0.76868 0.31441 0.16480
 C952 C 0.81518 0.35280 0.26096
 C953 C 0.85898 0.26179 0.20226
 C954 C 0.75694 0.19284 0.35647
 C955 C 0.65905 0.24464 0.31503
 C956 C 0.70329 0.15082 0.25879
 H957 H 0.69134 0.29161 0.27863
 H958 H 0.74185 0.18543 0.21449
 H959 H 0.80871 0.30337 0.21410
 H960 H 0.80224 0.23305 0.32551
 H961 H 0.78121 0.29919 0.35846
 H962 H 0.83471 0.28214 0.33816
 H963 H 0.69000 0.19754 0.18723
 H964 H 0.72963 0.23500 0.15373
 H965 H 0.71033 0.30638 0.36140
 H966 H 0.72442 0.37338 0.26101
 H967 H 0.78262 0.14539 0.22830
 H968 H 0.81383 0.18498 0.19026
 H969 H 0.69317 0.31643 0.19971
 H970 H 0.65475 0.27929 0.23216
 H971 H 0.86621 0.22376 0.27626
 H972 H 0.83197 0.18347 0.30939
 O973 O 0.76096 0.68166 0.67528
 O974 O 0.81598 0.67666 0.70549
 O975 O 0.68126 0.68017 0.75030
 O976 O 0.66708 0.70977 0.79955
 O977 O 0.68538 0.76394 0.67332
 O978 O 0.72078 0.81588 0.66742
 O979 O 0.76700 0.77556 0.84971
 O980 O 0.74395 0.72091 0.85112
 O981 O 0.85393 0.77134 0.77919
 O982 O 0.86319 0.75414 0.72197
 O983 O 0.78002 0.85330 0.76942
 O984 O 0.71686 0.85438 0.74479
 O985 O 0.74352 0.82408 0.82436
 O986 O 0.69685 0.83844 0.78990
 O987 O 0.82922 0.82866 0.74607
 O988 O 0.84027 0.79094 0.69288
 O989 O 0.82568 0.74569 0.82519
 O990 O 0.79145 0.69037 0.82415
 O991 O 0.74352 0.73259 0.64950
 O992 O 0.76622 0.79230 0.64891
 O993 O 0.65700 0.73658 0.71830
 O994 O 0.65133 0.76033 0.77862
 O995 O 0.73240 0.65484 0.73209
 O996 O 0.79239 0.65477 0.75596
 Zr997 Zr 0.76906 0.69676 0.72808
 O998 O 0.80133 0.72693 0.76225
 Zr999 Zr 0.69562 0.73352 0.75814
 O1000 O 0.72520 0.76464 0.79376
 Zr1001 Zr 0.73820 0.76894 0.69087
 O1002 O 0.76916 0.80189 0.72368
 Zr1003 Zr 0.77276 0.74002 0.80751
 O1004 O 0.74107 0.70664 0.77488
 Zr1005 Zr 0.81486 0.77534 0.73975
 O1006 O 0.78577 0.74358 0.70353
 Zr1007 Zr 0.74168 0.81200 0.77035
 O1008 O 0.70848 0.78245 0.73548
 O1009 O 0.72265 0.72129 0.71279
 O1010 O 0.78882 0.78841 0.78626
 C1011 C 0.75152 0.69989 0.64861
 C1012 C 0.69958 0.65349 0.74076
 C1013 C 0.65786 0.74983 0.68743
 C1014 C 0.75318 0.80632 0.85121
 C1015 C 0.85367 0.75757 0.80987
 C1016 C 0.81174 0.85521 0.75710
 H1017 H 0.82258 0.71310 0.76796
 H1018 H 0.77475 0.82353 0.71048
 H1019 H 0.70778 0.70628 0.69711
 H1020 H 0.71017 0.76883 0.81449
 H1021 H 0.73038 0.69993 0.84280
 H1022 H 0.67785 0.71836 0.82173
 H1023 H 0.82797 0.81195 0.68408
 H1024 H 0.78887 0.77963 0.64667
 H1025 H 0.80074 0.69288 0.84842
 H1026 H 0.78979 0.63279 0.74189
 H1027 H 0.73300 0.86281 0.72616
 H1028 H 0.70321 0.82620 0.68358
 H1029 H 0.82473 0.69424 0.68843
 H1030 H 0.86163 0.72841 0.72541
 H1031 H 0.64813 0.78159 0.76418
 H1032 H 0.68086 0.82031 0.79994
 O1033 O 0.31708 0.17373 0.74533
 O1034 O 0.32348 0.20662 0.69327
 O1035 O 0.31557 0.25336 0.82553
 O1036 O 0.28226 0.30001 0.83965
 O1037 O 0.23635 0.16899 0.82358
 O1038 O 0.18267 0.15977 0.79004
 O1039 O 0.21638 0.34337 0.74005
 O1040 O 0.27099 0.34833 0.76332
 O1041 O 0.22474 0.27038 0.65531
 O1042 O 0.24564 0.21308 0.64753
 O1043 O 0.14144 0.25623 0.72712
 O1044 O 0.14064 0.23386 0.79073
 O1045 O 0.16807 0.31575 0.76362
 O1046 O 0.15322 0.28158 0.80862
 O1047 O 0.16857 0.23277 0.67949
 O1048 O 0.20921 0.18285 0.66963
 O1049 O 0.24805 0.31889 0.68268
 O1050 O 0.30316 0.32275 0.71613
 O1051 O 0.26717 0.14532 0.76459
 O1052 O 0.20645 0.14052 0.74540
 O1053 O 0.26124 0.21700 0.85055
 O1054 O 0.23253 0.27526 0.85516
 O1055 O 0.34138 0.22790 0.77805
 O1056 O 0.34309 0.25773 0.72053
 Zr1057 Zr 0.30080 0.22613 0.74013
 O1058 O 0.26962 0.25769 0.70769
 Zr1059 Zr 0.26141 0.25597 0.81176
 O1060 O 0.22874 0.28871 0.78197
 Zr1061 Zr 0.22916 0.18495 0.77116
 O1062 O 0.19524 0.21488 0.73965
 Zr1063 Zr 0.25384 0.30294 0.73509
 O1064 O 0.28860 0.27326 0.76687
 Zr1065 Zr 0.22215 0.23143 0.69439
 O1066 O 0.25495 0.19795 0.72399
 Zr1067 Zr 0.18221 0.26190 0.76563
 O1068 O 0.21312 0.22986 0.79934
 O1069 O 0.27595 0.21036 0.78592
 O1070 O 0.20629 0.27802 0.71906
 C1071 C 0.29982 0.14597 0.75489
 C1072 C 0.34224 0.24009 0.80952
 C1073 C 0.25010 0.18490 0.85034
 C1074 C 0.18517 0.34361 0.75375
 C1075 C 0.23732 0.30205 0.65522
 C1076 C 0.14087 0.24242 0.69611
 H1077 H 0.28380 0.26392 0.68683
 H1078 H 0.17419 0.19994 0.73425
 H1079 H 0.29146 0.19527 0.80015
 H1080 H 0.22331 0.30954 0.79653
 H1081 H 0.29254 0.34164 0.77647
 H1082 H 0.27282 0.32132 0.82852
 H1083 H 0.18865 0.17245 0.68209
 H1084 H 0.21845 0.13847 0.72246
 H1085 H 0.29960 0.34687 0.70714
 H1086 H 0.36554 0.24467 0.72312
 H1087 H 0.13342 0.21401 0.77523
 H1088 H 0.17259 0.17564 0.80798
 H1089 H 0.30634 0.18928 0.68320
 H1090 H 0.27024 0.22248 0.64684
 H1091 H 0.21225 0.25881 0.85878
 H1092 H 0.17092 0.29049 0.82587
 O1093 O 0.28451 0.64593 0.21828
 O1094 O 0.23100 0.63568 0.24174
 O1095 O 0.26232 0.72655 0.14050
 O1096 O 0.24414 0.78162 0.14005
 O1097 O 0.35425 0.73465 0.20894
 O1098 O 0.35840 0.75784 0.27128
 O1099 O 0.17633 0.80576 0.25443
 O1100 O 0.16855 0.78446 0.19549
 O1101 O 0.19069 0.72767 0.32114
 O1102 O 0.22669 0.67431 0.32255
 O1103 O 0.26080 0.81087 0.31900
 O1104 O 0.31501 0.82555 0.28208
 O1105 O 0.22642 0.83591 0.27111
 O1106 O 0.28499 0.84789 0.24365
 O1107 O 0.24599 0.75827 0.34355
 O1108 O 0.27507 0.70258 0.34059
 O1109 O 0.15932 0.75152 0.27632
 O1110 O 0.15388 0.72516 0.21600
 O1111 O 0.33074 0.67310 0.24664
 O1112 O 0.35367 0.70675 0.28577
 O1113 O 0.32380 0.76207 0.16580
 O1114 O 0.28326 0.81173 0.16541
 O1115 O 0.24418 0.67471 0.16440
 O1116 O 0.19467 0.66261 0.20427
 Zr1117 Zr 0.24493 0.68454 0.21885
 O1118 O 0.21259 0.70964 0.25609
 Zr1119 Zr 0.27078 0.76063 0.18379
 O1120 O 0.23878 0.78908 0.21919
 Zr1121 Zr 0.31699 0.72648 0.24906
 O1122 O 0.28764 0.75323 0.28757
 Zr1123 Zr 0.19581 0.75770 0.23565
 O1124 O 0.22504 0.73100 0.19678
 Zr1125 Zr 0.24240 0.72333 0.30083
 O1126 O 0.27380 0.69501 0.26533
 Zr1127 Zr 0.26769 0.79956 0.26546
 O1128 O 0.30087 0.77470 0.22836
 O1129 O 0.28979 0.71325 0.20299
 O1130 O 0.22380 0.77024 0.28111
 C1131 C 0.31487 0.64567 0.23386
 C1132 C 0.25042 0.69469 0.13807
 C1133 C 0.35269 0.75110 0.17973
 C1134 C 0.19257 0.83275 0.26761
 C1135 C 0.16229 0.74023 0.30774
 C1136 C 0.25215 0.79153 0.34517
 H1137 H 0.19198 0.69434 0.26179
 H1138 H 0.30268 0.75792 0.30844
 H1139 H 0.30426 0.69997 0.18592
 H1140 H 0.23021 0.81088 0.20825
 H1141 H 0.17097 0.77004 0.17394
 H1142 H 0.22108 0.79007 0.14869
 H1143 H 0.29011 0.68465 0.32928
 H1144 H 0.34142 0.70634 0.30865
 H1145 H 0.13127 0.73736 0.22057
 H1146 H 0.19807 0.64155 0.18915
 H1147 H 0.32428 0.81288 0.30264
 H1148 H 0.36086 0.77915 0.25667
 H1149 H 0.23939 0.63678 0.26633
 H1150 H 0.20538 0.66555 0.30981
 H1151 H 0.30201 0.82153 0.18108
 H1152 H 0.26850 0.85371 0.22438
 O1153 O 0.30974 0.74746 0.66574
 O1154 O 0.27792 0.69305 0.66311
 O1155 O 0.23266 0.82541 0.67625
 O1156 O 0.18598 0.83642 0.71080
 O1157 O 0.32104 0.82557 0.74724
 O1158 O 0.33638 0.79176 0.79711
 O1159 O 0.14844 0.73658 0.78094
 O1160 O 0.13815 0.75671 0.72725
 O1161 O 0.22291 0.65318 0.76689
 O1162 O 0.27855 0.64747 0.74138
 O1163 O 0.23927 0.72765 0.84678
 O1164 O 0.25898 0.78444 0.85265
 O1165 O 0.17978 0.76253 0.82557
 O1166 O 0.22254 0.81461 0.83127
 O1167 O 0.26312 0.68058 0.81893
 O1168 O 0.31142 0.67197 0.77494
 O1169 O 0.17164 0.67820 0.74873
 O1170 O 0.16309 0.71043 0.69381
 O1171 O 0.34220 0.76966 0.71158
 O1172 O 0.35282 0.74660 0.77040
 O1173 O 0.26949 0.85179 0.73166
 O1174 O 0.21041 0.85277 0.75900
 O1175 O 0.25344 0.77695 0.64804
 O1176 O 0.22398 0.71793 0.64917
 Zr1177 Zr 0.25918 0.73939 0.68755
 O1178 O 0.23084 0.70572 0.72118
 Zr1179 Zr 0.23152 0.81060 0.72949
 O1180 O 0.20127 0.77970 0.76393
 Zr1181 Zr 0.30638 0.77244 0.75395
 O1182 O 0.27920 0.74089 0.79038
 Zr1183 Zr 0.18606 0.73152 0.74055
 O1184 O 0.21253 0.76460 0.70399
 Zr1185 Zr 0.26115 0.69431 0.76571
 O1186 O 0.29160 0.72443 0.72982
 Zr1187 Zr 0.23256 0.76546 0.80713
 O1188 O 0.26245 0.79947 0.77419
 O1189 O 0.27643 0.78629 0.71083
 O1190 O 0.21514 0.71764 0.78513
 C1191 C 0.33865 0.75973 0.67936
 C1192 C 0.24315 0.80898 0.64867
 C1193 C 0.30276 0.85260 0.73906
 C1194 C 0.15063 0.75159 0.81127
 C1195 C 0.18998 0.65149 0.75795
 C1196 C 0.25358 0.69713 0.84667
 H1197 H 0.22394 0.68421 0.70793
 H1198 H 0.29555 0.73634 0.81009
 H1199 H 0.28998 0.80188 0.69494
 H1200 H 0.18050 0.79379 0.77063
 H1201 H 0.14276 0.76980 0.70536
 H1202 H 0.16513 0.82308 0.71949
 H1203 H 0.32299 0.68551 0.79418
 H1204 H 0.35443 0.72480 0.75616
 H1205 H 0.13970 0.69963 0.69955
 H1206 H 0.23500 0.72083 0.62578
 H1207 H 0.28457 0.78013 0.84937
 H1208 H 0.32090 0.80828 0.80988
 H1209 H 0.29751 0.68429 0.67788
 H1210 H 0.26878 0.64698 0.71730
 H1211 H 0.22707 0.85767 0.77862
 H1212 H 0.19968 0.82309 0.82195
 O1213 O 0.25665 0.16828 0.18460
 O1214 O 0.30989 0.16315 0.21615
 O1215 O 0.17486 0.17153 0.25980
 O1216 O 0.16533 0.20070 0.31065
 O1217 O 0.17796 0.24747 0.18066
 O1218 O 0.21187 0.30052 0.17122
 O1219 O 0.26512 0.27075 0.35420
 O1220 O 0.24259 0.21608 0.35924
 O1221 O 0.34963 0.26294 0.28053
 O1222 O 0.35552 0.24138 0.22226
 O1223 O 0.27532 0.34389 0.27006
 O1224 O 0.21772 0.34946 0.25100
 O1225 O 0.24064 0.31772 0.32698
 O1226 O 0.18800 0.32580 0.28672
 O1227 O 0.32347 0.31782 0.24610
 O1228 O 0.33360 0.27937 0.19496
 O1229 O 0.32302 0.24035 0.32898
 O1230 O 0.28962 0.18475 0.33254
 O1231 O 0.23346 0.21597 0.15730
 O1232 O 0.25812 0.27559 0.15246
 O1233 O 0.15038 0.22898 0.23032
 O1234 O 0.14794 0.25131 0.29018
 O1235 O 0.22535 0.14481 0.24157
 O1236 O 0.28551 0.14489 0.26741
 Zr1237 Zr 0.26323 0.18555 0.23690
 O1238 O 0.29659 0.21749 0.26827
 Zr1239 Zr 0.19105 0.22435 0.26745
 O1240 O 0.22167 0.25715 0.30054
 Zr1241 Zr 0.23096 0.25518 0.19641
 O1242 O 0.26266 0.28992 0.22652
 Zr1243 Zr 0.26963 0.23309 0.31371
 O1244 O 0.23686 0.19801 0.28401
 Zr1245 Zr 0.30903 0.26446 0.24249
 O1246 O 0.27898 0.23068 0.20899
 Zr1247 Zr 0.23711 0.30288 0.27364
 O1248 O 0.20304 0.27165 0.24117
 O1249 O 0.21639 0.20933 0.22184
 O1250 O 0.28474 0.28008 0.28920
 C1251 C 0.24412 0.18398 0.15759
 C1252 C 0.19244 0.14445 0.25006
 C1253 C 0.15045 0.23781 0.19802
 C1254 C 0.25111 0.30145 0.35448
 C1255 C 0.35042 0.25104 0.31193
 C1256 C 0.30657 0.34490 0.25667
 H1257 H 0.31800 0.20393 0.27407
 H1258 H 0.26776 0.31092 0.21217
 H1259 H 0.20105 0.19392 0.20703
 H1260 H 0.20730 0.26229 0.32151
 H1261 H 0.22936 0.19429 0.35266
 H1262 H 0.17622 0.21087 0.33213
 H1263 H 0.31919 0.29811 0.18442
 H1264 H 0.28015 0.26192 0.14996
 H1265 H 0.29974 0.18881 0.35629
 H1266 H 0.28187 0.12210 0.25493
 H1267 H 0.22330 0.34840 0.22573
 H1268 H 0.19401 0.31084 0.18707
 H1269 H 0.32006 0.18037 0.19948
 H1270 H 0.35741 0.21765 0.23247
 H1271 H 0.14438 0.27287 0.27629
 H1272 H 0.17914 0.31419 0.30817
 O1273 O 0.74077 0.67727 0.32876
 O1274 O 0.68437 0.67101 0.29963
 O1275 O 0.81810 0.67622 0.25097
 O1276 O 0.83016 0.70382 0.20041
 O1277 O 0.81809 0.75902 0.32740
 O1278 O 0.78407 0.81260 0.33266
 O1279 O 0.72945 0.76655 0.15321
 O1280 O 0.75380 0.71187 0.15217
 O1281 O 0.64554 0.76150 0.22565
 O1282 O 0.64251 0.74276 0.28963
 O1283 O 0.72086 0.84583 0.23245
 O1284 O 0.77979 0.85290 0.25254
 O1285 O 0.75327 0.81632 0.17798
 O1286 O 0.80672 0.82887 0.21506
 O1287 O 0.67178 0.82068 0.25675
 O1288 O 0.65785 0.78990 0.30701
 O1289 O 0.67291 0.73648 0.17890
 O1290 O 0.70550 0.68152 0.18001
 O1291 O 0.75966 0.72913 0.35354
 O1292 O 0.73893 0.78856 0.35440
 O1293 O 0.84408 0.73303 0.28033
 O1294 O 0.84751 0.75599 0.22027
 O1295 O 0.76772 0.65010 0.27186
 O1296 O 0.70726 0.64732 0.24947
 Zr1297 Zr 0.73121 0.69102 0.27591
 O1298 O 0.69818 0.71925 0.24192
 Zr1299 Zr 0.80380 0.72862 0.24254
 O1300 O 0.77358 0.75813 0.20747
 Zr1301 Zr 0.76459 0.76444 0.31152
 O1302 O 0.73246 0.79549 0.27928
 Zr1303 Zr 0.72565 0.73174 0.19578
 O1304 O 0.75772 0.70003 0.22802
 Zr1305 Zr 0.68582 0.76793 0.26440
 O1306 O 0.71607 0.73831 0.30046
 Zr1307 Zr 0.75839 0.80534 0.23167
 O1308 O 0.79252 0.77765 0.26576
 O1309 O 0.77841 0.71681 0.28910
 O1310 O 0.71074 0.78018 0.21720
 C1311 C 0.75114 0.69631 0.35510
 C1312 C 0.80025 0.64957 0.26222
 C1313 C 0.84478 0.74537 0.31171
 C1314 C 0.74241 0.79802 0.15147
 C1315 C 0.64527 0.74778 0.19462
 C1316 C 0.68925 0.84726 0.24480
 H1317 H 0.67675 0.70472 0.23683
 H1318 H 0.72718 0.81742 0.29219
 H1319 H 0.79345 0.70243 0.30453
 H1320 H 0.78780 0.76222 0.18614
 H1321 H 0.76658 0.69092 0.16046
 H1322 H 0.81998 0.71295 0.17843
 H1323 H 0.67517 0.80406 0.32089
 H1324 H 0.71550 0.77665 0.35666
 H1325 H 0.69641 0.68322 0.15566
 H1326 H 0.70988 0.62607 0.26416
 H1327 H 0.77072 0.85544 0.27668
 H1328 H 0.80251 0.82134 0.31633
 H1329 H 0.67660 0.68874 0.31700
 H1330 H 0.63642 0.72114 0.27618
 H1331 H 0.85118 0.77784 0.23420
 H1332 H 0.81616 0.81431 0.19574
 O1333 O 0.68108 0.32949 0.73771
 O1334 O 0.67390 0.29698 0.68470
 O1335 O 0.68321 0.25024 0.81640
 O1336 O 0.71628 0.20460 0.83147
 O1337 O 0.76400 0.33413 0.81405
 O1338 O 0.81668 0.34237 0.77983
 O1339 O 0.77882 0.15821 0.73007
 O1340 O 0.72406 0.15466 0.75412
 O1341 O 0.77081 0.22967 0.64587
 O1342 O 0.75137 0.28741 0.63812
 O1343 O 0.85510 0.24215 0.71798
 O1344 O 0.86270 0.26241 0.77513
 O1345 O 0.82790 0.18570 0.75305
 O1346 O 0.83921 0.22637 0.80432
 O1347 O 0.82845 0.26581 0.67032
 O1348 O 0.78922 0.31697 0.66000
 O1349 O 0.74749 0.18200 0.67373
 O1350 O 0.69225 0.18012 0.70648
 O1351 O 0.73190 0.35744 0.75616
 O1352 O 0.79210 0.36087 0.73490
 O1353 O 0.73906 0.28659 0.84090
 O1354 O 0.76646 0.22744 0.84499
 O1355 O 0.65676 0.27524 0.76921
 O1356 O 0.65384 0.24611 0.71086
 Zr1357 Zr 0.69681 0.27692 0.73108
 O1358 O 0.72696 0.24430 0.69840
 Zr1359 Zr 0.73702 0.24720 0.80226
 O1360 O 0.76826 0.21312 0.77242
 Zr1361 Zr 0.76951 0.31743 0.76154
 O1362 O 0.80247 0.28623 0.73020
 Zr1363 Zr 0.74202 0.19913 0.72574
 O1364 O 0.70850 0.22994 0.75770
 Zr1365 Zr 0.77488 0.26932 0.68495
 O1366 O 0.74293 0.30397 0.71453
 Zr1367 Zr 0.81477 0.23944 0.75620
 O1368 O 0.78529 0.27291 0.78968
 O1369 O 0.72268 0.29275 0.77674
 O1370 O 0.78981 0.22292 0.70980
 C1371 C 0.69893 0.35707 0.74739
 C1372 C 0.65635 0.26329 0.80059
 C1373 C 0.75070 0.31848 0.84079
 C1374 C 0.81036 0.15801 0.74319
 C1375 C 0.75808 0.19805 0.64616
 C1376 C 0.85585 0.25514 0.68696
 H1377 H 0.71248 0.23805 0.67754
 H1378 H 0.82390 0.30043 0.72467
 H1379 H 0.70759 0.30800 0.79138
 H1380 H 0.77325 0.19230 0.78688
 H1381 H 0.70244 0.16189 0.76677
 H1382 H 0.72248 0.18281 0.81877
 H1383 H 0.80999 0.32711 0.67266
 H1384 H 0.77925 0.36268 0.71233
 H1385 H 0.69519 0.15568 0.69779
 H1386 H 0.63161 0.25942 0.71398
 H1387 H 0.86298 0.28732 0.76786
 H1388 H 0.82711 0.32647 0.79739
 H1389 H 0.69111 0.31424 0.67498
 H1390 H 0.72618 0.27971 0.63824
 H1391 H 0.78693 0.24370 0.84882
 H1392 H 0.82584 0.20620 0.81423
 C1393 C 0.08074 1.01855 1.15633
 C1394 C 0.05924 1.04019 1.13916
 H1395 H 0.08211 0.99151 1.14712
 H1396 H 0.05281 1.06574 1.14989
 C1397 C 0.59433 0.53133 0.63901
 C1398 C 0.56489 0.51156 0.63536
 H1399 H 0.60567 0.54454 0.61649
 H1400 H 0.55109 0.50189 0.65830
 C1401 C 0.42795 -0.03620 0.65134
 C1402 C 0.42313 -0.00987 0.62894
 H1403 H 0.44583 -0.05730 0.64472
 H1404 H 0.40257 0.00923 0.63365
 C1405 C -0.09372 0.47726 1.15095
 C1406 C -0.09851 0.50700 1.13299
 H1407 H -0.07705 0.45694 1.13996
 H1408 H -0.11733 0.52659 1.14132
 C1409 C -0.08640 0.53993 0.36044
 C1410 C -0.08167 0.50907 0.37633
 H1411 H -0.07783 0.56369 0.37423
 H1412 H -0.09356 0.48477 0.36671
 C1413 C 0.42292 1.04193 -0.15322
 C1414 C 0.43142 1.01214 -0.13688
 H1415 H 0.42970 1.06665 -0.14019
 H1416 H 0.42232 0.98658 -0.14601
 C1417 C 0.57229 0.46433 -0.15951
 C1418 C 0.57819 0.48919 -0.13520
 H1419 H 0.55291 0.44354 -0.15478
 H1420 H 0.60019 0.50764 -0.13821
 C1421 C 0.10663 -0.04075 0.36050
 C1422 C 0.07645 -0.02311 0.36542
 H1423 H 0.11873 -0.05434 0.38222
 H1424 H 0.06215 -0.01323 0.34297
 C1425 C 0.14074 1.09547 1.01954
 C1426 C 0.10860 1.10231 1.03223
 H1427 H 0.14270 1.07477 0.99988
 H1428 H 0.10371 1.12537 1.04818
 C1429 C 0.63178 0.60435 0.52875
 C1430 C 0.62755 0.57181 0.51586
 H1431 H 0.60911 0.61872 0.53820
 H1432 H 0.65076 0.55621 0.51030
 C1433 C 0.64859 0.40318 -0.02085
 C1434 C 0.61666 0.39969 -0.03584
 H1435 H 0.65121 0.42125 0.00124
 H1436 H 0.61069 0.37898 -0.05467
 C1437 C 0.14832 -0.09579 0.45712
 C1438 C 0.12375 -0.10406 0.48097
 H1439 H 0.14366 -0.07472 0.43877
 H1440 H 0.12684 -0.12702 0.49730
 C1441 C 0.35747 -0.10437 0.52469
 C1442 C 0.36445 -0.07819 0.50222
 H1443 H 0.37835 -0.11161 0.54283
 H1444 H 0.34372 -0.06647 0.48676
 C1445 C -0.14336 0.39291 1.03361
 C1446 C -0.14041 0.42335 1.01651
 H1447 H -0.12068 0.38259 1.04752
 H1448 H -0.16397 0.43567 1.00619
 C1449 C -0.15204 0.58964 0.48479
 C1450 C -0.11937 0.59654 0.47279
 H1451 H -0.15438 0.57091 0.50605
 H1452 H -0.11430 0.61820 0.45515
 C1453 C 0.35575 1.09977 -0.01344
 C1454 C 0.38798 1.10741 -0.02595
 H1455 H 0.35369 1.07896 0.00584
 H1456 H 0.39301 1.13060 -0.04155
 C1457 C 0.02132 1.15193 1.09066
 C1458 C -0.01200 1.13967 1.08661
 H1459 H 0.04273 1.13565 1.08107
 H1460 H -0.03466 1.15159 1.09899
 C1461 C 0.53302 0.64395 0.58366
 C1462 C 0.50245 0.62567 0.58309
 H1463 H 0.55580 0.63397 0.56972
 H1464 H 0.48070 0.63325 0.59990
 C1465 C -0.01692 0.63296 0.38342
 C1466 C 0.00160 0.63138 0.41331
 H1467 H -0.03061 0.60964 0.37350
 H1468 H 0.01163 0.65542 0.42546
 C1469 C 0.48738 1.14184 -0.11383
 C1470 C 0.51468 1.13745 -0.09157
 H1471 H 0.46909 1.11971 -0.11737
 H1472 H 0.53201 1.15906 -0.08387
 C1473 C 0.51636 0.36310 -0.11846
 C1474 C 0.49208 0.36760 -0.09327
 H1475 H 0.53373 0.38534 -0.12431
 H1476 H 0.47655 0.34577 -0.08334
 C1477 C 0.03363 -0.15344 0.40161
 C1478 C 0.00389 -0.13478 0.40126
 H1479 H 0.05566 -0.14497 0.41821
 H1480 H -0.01707 -0.14054 0.38246
 C1481 C 0.46424 -0.15634 0.57622
 C1482 C 0.49332 -0.13572 0.57533
 H1483 H 0.44047 -0.14859 0.56235
 H1484 H 0.51560 -0.14127 0.59236
 C1485 C -0.01299 0.36266 1.09933
 C1486 C -0.02216 0.39541 1.10756
 H1487 H 0.00257 0.35900 1.07570
 H1488 H -0.03363 0.40176 1.13275
 C1489 C 0.76716 0.32541 0.10224
 C1490 C 0.77747 0.33566 0.13424
 H1491 H 0.74728 0.30449 0.10011
 H1492 H 0.79293 0.35963 0.13829
 C1493 C 0.27569 0.82540 0.59650
 C1494 C 0.24641 0.82880 0.61597
 H1495 H 0.29688 0.80871 0.60563
 H1496 H 0.22673 0.84820 0.60947
 C1497 C 0.72145 0.65793 0.61005
 C1498 C 0.74721 0.68215 0.61482
 H1499 H 0.70487 0.65052 0.63207
 H1500 H 0.76128 0.69315 0.59269
 C1501 C 0.21226 0.16729 0.10401
 C1502 C 0.24057 0.16361 0.12496
 H1503 H 0.19071 0.18403 0.11211
 H1504 H 0.26047 0.14424 0.11886
 C1505 C 0.28336 0.16883 0.90297
 C1506 C 0.25445 0.16465 0.88262
 H1507 H 0.30494 0.18595 0.89457
 H1508 H 0.23446 0.14493 0.88894
 C1509 C 0.77512 0.65234 0.39557
 C1510 C 0.75419 0.67996 0.38970
 H1511 H 0.79034 0.64152 0.37409
 H1512 H 0.74218 0.69364 0.41151
 C1513 C 0.23347 0.84036 0.38227
 C1514 C 0.24789 0.80853 0.37939
 H1515 H 0.22487 0.85395 0.35891
 H1516 H 0.25277 0.79311 0.40264
 C1517 C 0.71751 0.33484 0.89246
 C1518 C 0.74699 0.33853 0.87332
 H1519 H 0.69522 0.31936 0.88242
 H1520 H 0.76805 0.35660 0.88139
 C1521 C 0.86055 0.39299 0.23936
 C1522 C 0.83265 0.38721 0.26014
 H1523 H 0.87188 0.37113 0.22505
 H1524 H 0.81819 0.40915 0.27096
 C1525 C 0.35569 0.88989 0.73066
 C1526 C 0.32093 0.88696 0.73702
 H1527 H 0.37121 0.86645 0.72646
 H1528 H 0.30486 0.91038 0.73770
 C1529 C 0.17495 0.89398 0.26888
 C1530 C 0.17091 0.86143 0.28119
 H1531 H 0.19239 0.89753 0.24654
 H1532 H 0.15048 0.85509 0.30007
 C1533 C 0.64705 0.39245 0.76159
 C1534 C 0.68054 0.39065 0.75028
 H1535 H 0.63276 0.36850 0.76834
 H1536 H 0.69625 0.41456 0.74724
 C1537 C 0.64971 0.61425 0.72527
 C1538 C 0.68223 0.61872 0.73873
 H1539 H 0.63535 0.63684 0.71589
 H1540 H 0.69820 0.59589 0.74418
 C1541 C 0.14132 0.10641 0.23434
 C1542 C 0.17423 0.11039 0.24733
 H1543 H 0.12685 0.12911 0.22542
 H1544 H 0.19020 0.08744 0.25218
 C1545 C 0.35312 0.11144 0.76499
 C1546 C 0.31872 0.11255 0.75641
 H1547 H 0.36767 0.13568 0.77055
 H1548 H 0.30322 0.08832 0.75464
 C1549 C 0.85165 0.61490 0.27744
 C1550 C 0.81831 0.61617 0.26569
 H1551 H 0.86586 0.63888 0.28457
 H1552 H 0.80274 0.59212 0.26242
 C1553 C 0.91194 0.29487 0.18334
 C1554 C 0.89159 0.26565 0.18194
 H1555 H 0.90411 0.31698 0.19948
 H1556 H 0.89712 0.24526 0.16281
 C1557 C 0.40143 0.77303 0.66742
 C1558 C 0.36901 0.76447 0.65565
 H1559 H 0.40686 0.77436 0.69530
 H1560 H 0.36456 0.76117 0.62771
 C1561 C 0.39742 0.21058 0.82450
 C1562 C 0.37595 0.23807 0.82874
 H1563 H 0.38880 0.18839 0.80842
 H1564 H 0.38263 0.25872 0.84746
 C1565 C 0.89781 0.71299 0.32612
 C1566 C 0.87819 0.74169 0.33118
 H1567 H 0.88768 0.69195 0.30942
 H1568 H 0.88603 0.76156 0.35031
 C1569 C 0.11291 0.77337 0.32961
 C1570 C 0.13099 0.74338 0.32992
 H1571 H 0.12332 0.79582 0.31537
 H1572 H 0.12301 0.72171 0.34655
 C1573 C 0.60074 0.29193 0.81534
 C1574 C 0.62302 0.26529 0.82010
 H1575 H 0.60807 0.31330 0.79803
 H1576 H 0.61763 0.24573 0.83997
 C1577 C 0.60660 0.71746 0.66464
 C1578 C 0.62551 0.74745 0.66616
 H1579 H 0.61594 0.69451 0.67843
 H1580 H 0.61874 0.76935 0.64953
 C1581 C 0.11300 0.22528 0.14697
 C1582 C 0.11638 0.23617 0.18014
 H1583 H 0.13578 0.21627 0.13238
 H1584 H 0.09293 0.24122 0.19569
 C1585 C -0.09693 1.03660 0.86127
 C1586 C -0.07578 1.00946 0.86951
 H1587 H -0.10224 1.05608 0.88144
 H1588 H -0.06554 0.99199 0.84966
 C1589 C 0.40417 0.52344 0.35540
 C1590 C 0.42784 0.49855 0.36346
 H1591 H 0.39519 0.54108 0.37586
 H1592 H 0.43961 0.48290 0.34289
 C1593 C 0.59384 -0.02814 0.35428
 C1594 C 0.57414 -0.00047 0.36391
 H1595 H 0.59666 -0.04918 0.37311
 H1596 H 0.56697 0.01954 0.34534
 C1597 C 0.09561 0.47232 0.87409
 C1598 C 0.07049 0.49682 0.87894
 H1599 H 0.10313 0.45586 0.89586
 H1600 H 0.06010 0.51061 0.85652
 C1601 C 0.07408 0.51963 0.66450
 C1602 C 0.08583 0.52486 0.63196
 H1603 H 0.04881 0.50633 0.66861
 H1604 H 0.11214 0.53620 0.62835
 C1605 C 0.60557 1.03048 0.13962
 C1606 C 0.57747 1.00963 0.13203
 H1607 H 0.61697 1.04665 0.11914
 H1608 H 0.56370 0.99604 0.15291
 C1609 C 0.40317 0.46511 0.13765
 C1610 C 0.43027 0.48746 0.13128
 H1611 H 0.39248 0.44897 0.11646
 H1612 H 0.44346 0.50101 0.15286
 C1613 C -0.07489 -0.01879 0.65648
 C1614 C -0.07704 -0.03685 0.62645
 H1615 H -0.05876 0.00513 0.65672
 H1616 H -0.09614 -0.05821 0.62334
 C1617 C -0.14888 0.90250 1.02995
 C1618 C -0.14110 0.92360 1.00268
 H1619 H -0.12882 0.89980 1.05019
 H1620 H -0.16084 0.93018 0.98335
 C1621 C 0.35054 0.40010 0.52898
 C1622 C 0.35661 0.42338 0.50309
 H1623 H 0.37229 0.39291 0.54605
 H1624 H 0.33482 0.43357 0.48790
 C1625 C 0.36854 0.60119 -0.02687
 C1626 C 0.37356 0.57695 -0.00181
 H1627 H 0.39068 0.60862 -0.04343
 H1628 H 0.35120 0.56666 0.01273
 C1629 C -0.13456 0.08907 0.47759
 C1630 C -0.12727 0.06789 0.50481
 H1631 H -0.11415 0.09250 0.45787
 H1632 H -0.14747 0.06035 0.52338
 C1633 C 0.64536 0.09264 0.52406
 C1634 C 0.63843 0.06748 0.49981
 H1635 H 0.62390 0.10173 0.54047
 H1636 H 0.65982 0.05580 0.48518
 C1637 C 0.14801 0.58833 1.00375
 C1638 C 0.11519 0.59620 1.01420
 H1639 H 0.15048 0.56857 0.98326
 H1640 H 0.11115 0.61866 1.03128
 C1641 C 0.13372 0.40119 0.47691
 C1642 C 0.13006 0.42726 0.50071
 H1643 H 0.11135 0.39369 0.46039
 H1644 H 0.15310 0.43738 0.51477
 C1645 C 0.63494 0.90021 -0.02276
 C1646 C 0.63002 0.92447 0.00267
 H1647 H 0.61342 0.89440 -0.04093
 H1648 H 0.65218 0.93327 0.01876
 C1649 C 0.03105 0.86995 0.91163
 C1650 C 0.00408 0.87623 0.93403
 H1651 H 0.05027 0.89092 0.90701
 H1652 H -0.01286 0.85505 0.94315
 C1653 C 0.52845 0.35566 0.40702
 C1654 C 0.50227 0.36126 0.43021
 H1655 H 0.54563 0.37746 0.39956
 H1656 H 0.48705 0.33933 0.44052
 C1657 C -0.00748 0.35571 0.58554
 C1658 C -0.01905 0.38807 0.59292
 H1659 H 0.01453 0.35365 0.56741
 H1660 H -0.03834 0.39217 0.61342
 C1661 C 0.48055 0.85659 0.06879
 C1662 C 0.48065 0.88910 0.08228
 H1663 H 0.49067 0.85221 0.04260
 H1664 H 0.47166 0.89310 0.10894
 C1665 C 0.52344 0.64907 0.07065
 C1666 C 0.52518 0.61638 0.08302
 H1667 H 0.51228 0.65330 0.04482
 H1668 H 0.53485 0.61230 0.10944
 C1669 C 0.01260 0.13897 0.58149
 C1670 C 0.02396 0.10635 0.58776
 H1671 H -0.00834 0.14148 0.56209
 H1672 H 0.04231 0.10167 0.60905
 C1673 C 0.47796 0.13629 0.40137
 C1674 C 0.50317 0.12953 0.42533
 H1675 H 0.45995 0.11527 0.39313
 H1676 H 0.51926 0.15071 0.43636
 C1677 C -0.01538 0.65879 0.91785
 C1678 C -0.02841 0.62643 0.91208
 H1679 H 0.00652 0.66148 0.93633
 H1680 H -0.04746 0.62141 0.89125
 C1681 C 0.28548 0.65675 0.88625
 C1682 C 0.26000 0.68069 0.88094
 H1683 H 0.30274 0.64952 0.86480
 H1684 H 0.24497 0.69067 0.90288
 C1685 C 0.78542 0.15006 0.39554
 C1686 C 0.76094 0.17495 0.39028
 H1687 H 0.80273 0.14269 0.37418
 H1688 H 0.74569 0.18504 0.41200
 C1689 C 0.21905 0.34121 0.39491
 C1690 C 0.24512 0.31792 0.38907
 H1691 H 0.20226 0.34881 0.37321
 H1692 H 0.26010 0.30742 0.41071
 C1693 C 0.72079 0.84451 0.89291
 C1694 C 0.74668 0.82119 0.88641
 H1695 H 0.70420 0.85307 0.87144
 H1696 H 0.76130 0.80975 0.90782
 C1697 C 0.77059 0.83934 0.11042
 C1698 C 0.74645 0.81365 0.11648
 H1699 H 0.78745 0.84858 0.13177
 H1700 H 0.73149 0.80180 0.09507
 C1701 C 0.26593 0.34396 0.61435
 C1702 C 0.24090 0.31915 0.62080
 H1703 H 0.28345 0.35245 0.63547
 H1704 H 0.22534 0.30792 0.59950
 C1705 C 0.72960 0.15382 0.60722
 C1706 C 0.75416 0.17952 0.61225
 H1707 H 0.71227 0.14651 0.62866
 H1708 H 0.76943 0.18950 0.59042
 C1709 C 0.21998 0.65450 0.09522
 C1710 C 0.24397 0.68035 0.10242
 H1711 H 0.20327 0.64452 0.11606
 H1712 H 0.25829 0.69291 0.08129
 C1713 C 0.14569 0.60746 0.73585
 C1714 C 0.17306 0.61598 0.75728
 H1715 H 0.13497 0.62776 0.71924
 H1716 H 0.18618 0.59566 0.77192
 C1717 C 0.66143 0.11014 0.22905
 C1718 C 0.68620 0.11587 0.25399
 H1719 H 0.65365 0.13187 0.21262
 H1720 H 0.69672 0.09406 0.26863
 C1721 C 0.84961 0.11777 0.77520
 C1722 C 0.82649 0.12336 0.74886
 H1723 H 0.85707 0.13957 0.79232
 H1724 H 0.81604 0.10145 0.73354
 C1725 C 0.35386 0.60535 0.26598
 C1726 C 0.33137 0.61119 0.23913
 H1727 H 0.36089 0.62698 0.28347
 H1728 H 0.32135 0.58958 0.22318
 C1729 C 0.34720 0.38500 0.22577
 C1730 C 0.32328 0.37968 0.25135
 H1731 H 0.35461 0.36305 0.20917
 H1732 H 0.31292 0.40161 0.26614
 C1733 C 0.85391 0.89760 0.73026
 C1734 C 0.82814 0.89060 0.75378
 H1735 H 0.86345 0.87627 0.71399
 H1736 H 0.81602 0.91159 0.76849
 C1737 C 0.64827 0.88970 0.27107
 C1738 C 0.67312 0.88232 0.24706
 H1739 H 0.63886 0.86882 0.28802
 H1740 H 0.68517 0.90316 0.23182
 C1741 C 0.14754 0.38619 0.78675
 C1742 C 0.16922 0.37874 0.75960
 H1743 H 0.14040 0.36520 0.80456
 H1744 H 0.17931 0.39985 0.74345
 C1745 C 0.11231 0.78572 0.85178
 C1746 C 0.11690 0.75832 0.82950
 H1747 H 0.13460 0.80327 0.85742
 H1748 H 0.09438 0.74258 0.82077
 C1749 C 0.61628 0.27230 0.35523
 C1750 C 0.62372 0.24742 0.33118
 H1751 H 0.63734 0.29007 0.36400
 H1752 H 0.60259 0.23161 0.31956
 C1753 C 0.60534 0.72099 0.14963
 C1754 C 0.61070 0.74417 0.17619
 H1755 H 0.62681 0.70391 0.14206
 H1756 H 0.58891 0.75945 0.18615
 C1757 C 0.10048 0.21106 0.65413
 C1758 C 0.10603 0.23640 0.67880
 H1759 H 0.12177 0.19327 0.64782
 H1760 H 0.08419 0.25214 0.68793
 C1761 C 0.89806 0.28379 0.64607
 C1762 C 0.89080 0.25882 0.67005
 H1763 H 0.87780 0.30251 0.63927
 H1764 H 0.91173 0.24227 0.67975
 C1765 C 0.39283 0.78140 0.13687
 C1766 C 0.38697 0.75722 0.16194
 H1767 H 0.37122 0.79792 0.12858
 H1768 H 0.40900 0.74281 0.17258
 C1769 C 0.39272 0.22219 0.35127
 C1770 C 0.38565 0.24785 0.32832
 H1771 H 0.37145 0.20435 0.35895
 H1772 H 0.40694 0.26383 0.31764
 C1773 C 0.89532 0.72999 0.85190
 C1774 C 0.88838 0.75461 0.82766
 H1775 H 0.87444 0.71154 0.85914
 H1776 H 0.90958 0.77113 0.81768
   
