data_POSCAR
  _audit_creation_date              2014-09-24
  _audit_creation_method            'ToBaCCo'
  _symmetry_space_group_name_H-M    'P1'
  _symmetry_Int_Tables_number       1
  _symmetry_cell_setting            triclinic
  loop_
  _symmetry_equiv_pos_as_xyz
 x,y,z
_cell_length_a 41.0105
_cell_length_b 41.2651
_cell_length_c 41.6152
_cell_angle_alpha 89.835500
_cell_angle_beta 90.444600
_cell_angle_gamma 90.219200
loop_
  _atom_site_label
  _atom_site_type_symbol
  _atom_site_fract_x
  _atom_site_fract_y
  _atom_site_fract_z
C1 C 0.34915 1.34531 0.30945
 N2 N 0.31970 1.35850 0.31579
 C3 C 0.30389 1.35107 0.34342
 N4 N 0.31712 1.32940 0.36438
 C5 C 0.34654 1.31587 0.35815
 N6 N 0.36222 1.32362 0.33043
 C7 C 0.34396 0.86068 0.81248
 N8 N 0.36271 0.83658 0.82536
 C9 C 0.34993 0.81591 0.84752
 N10 N 0.31827 0.81906 0.85618
 C11 C 0.29959 0.84275 0.84316
 N12 N 0.31237 0.86349 0.82131
 C13 C 0.84504 1.34267 0.80581
 N14 N 0.81569 1.35565 0.81321
 C15 C 0.80081 1.34791 0.84128
 N16 N 0.81481 1.32621 0.86160
 C17 C 0.84396 1.31276 0.85442
 N18 N 0.85882 1.32073 0.82624
 C19 C 0.84634 0.83241 0.29482
 N20 N 0.83110 0.85511 0.31257
 C21 C 0.81500 0.84668 0.33960
 N22 N 0.81375 0.81483 0.34864
 C23 C 0.82927 0.79158 0.33132
 N24 N 0.84468 0.80073 0.30385
 C25 C 0.63008 0.64772 0.33419
 N26 N 0.65520 0.62949 0.34638
 C27 C 0.66821 0.63712 0.37578
 N28 N 0.65701 0.66260 0.39216
 C29 C 0.63316 0.68112 0.38025
 N30 N 0.61942 0.67386 0.35115
 C31 C 0.66567 0.16846 0.80278
 N32 N 0.69432 0.15410 0.80992
 C33 C 0.70967 0.16022 0.83811
 N34 N 0.69669 0.18146 0.85933
 C35 C 0.66780 0.19605 0.85241
 N36 N 0.65255 0.18978 0.82383
 C37 C 1.14056 0.63224 0.82439
 N38 N 1.12344 0.65891 0.83339
 C39 C 1.13122 0.67457 0.86106
 N40 N 1.15619 0.66379 0.87961
 C41 C 1.17329 0.63743 0.87105
 N42 N 1.16559 0.62157 0.84326
 C43 C 1.16608 0.16471 0.30192
 N44 N 1.19680 0.15437 0.30808
 C45 C 1.21274 0.16424 0.33493
 N46 N 1.19833 0.18475 0.35565
 C47 C 1.16783 0.19559 0.34980
 N48 N 1.15171 0.18596 0.32252
 C49 C 0.64934 1.36411 0.68076
 N50 N 0.62980 1.34082 0.66758
 C51 C 0.64163 1.32053 0.64490
 N52 N 0.67337 1.32312 0.63601
 C53 C 0.69293 1.34616 0.64927
 N54 N 0.68093 1.36650 0.67173
 C55 C 0.65724 0.83899 1.21141
 N56 N 0.63930 0.81683 1.19539
 C57 C 0.64471 0.81086 1.16400
 N58 N 0.66898 0.82735 1.14828
 C59 C 0.68690 0.85030 1.16459
 N60 N 0.68084 0.85579 1.19609
 C61 C 1.15678 1.34361 1.20069
 N62 N 1.13781 1.32081 1.18625
 C63 C 1.14769 1.30668 1.15851
 N64 N 1.17732 1.31484 1.14591
 C65 C 1.19617 1.33787 1.16051
 N66 N 1.18584 1.35174 1.18790
 C67 C 1.13834 0.87384 0.68028
 N68 N 1.12085 0.84826 0.66890
 C69 C 1.13461 0.82678 0.64857
 N70 N 1.16676 0.83032 0.64059
 C71 C 1.18422 0.85610 0.65218
 N72 N 1.16981 0.87750 0.67192
 C73 C 0.35182 0.64923 0.68072
 N74 N 0.32030 0.64151 0.67307
 C75 C 0.30567 0.65578 0.64716
 N76 N 0.32223 0.67796 0.62966
 C77 C 0.35329 0.68591 0.63743
 N78 N 0.36795 0.67176 0.66313
 C79 C 0.34237 0.15630 1.20799
 N80 N 0.31580 0.14812 1.19032
 C81 C 0.31235 0.15902 1.15989
 N82 N 0.33538 0.17908 1.14736
 C83 C 0.36237 0.18731 1.16496
 N84 N 0.36559 0.17611 1.19552
 C85 C 0.86732 0.63813 1.17333
 N86 N 0.83951 0.62278 1.16375
 C87 C 0.82325 0.63296 1.13707
 N88 N 0.83476 0.65877 1.12009
 C89 C 0.86260 0.67393 1.12968
 N90 N 0.87862 0.66364 1.15637
 C91 C 0.84563 0.15292 0.70176
 N92 N 0.81669 0.14794 0.68655
 C93 C 0.81126 0.16067 0.65704
 N94 N 0.83454 0.17912 0.64309
 C95 C 0.86357 0.18450 0.65814
 N96 N 0.86899 0.17167 0.68783
 C97 C 1.33845 0.33876 0.69252
 N98 N 1.34891 0.30910 0.68369
 C99 C 1.33983 0.29632 0.65516
 N100 N 1.31975 0.31300 0.63526
 C101 C 1.30885 0.34272 0.64363
 N102 N 1.31770 0.35551 0.67276
 C103 C 1.37588 0.85901 1.18224
 N104 N 1.37890 0.82825 1.17131
 C105 C 1.35876 0.81719 1.14772
 N106 N 1.33488 0.83689 1.13581
 C107 C 1.33200 0.86789 1.14676
 N108 N 1.35235 0.87852 1.16999
 C109 C 0.85173 0.34535 1.18480
 N110 N 0.82729 0.35824 1.16657
 C111 C 0.82355 0.34925 1.13523
 N112 N 0.84392 0.32668 1.12271
 C113 C 0.86845 0.31396 1.14107
 N114 N 0.87202 0.32328 1.17197
 C115 C 0.85896 0.86590 0.67611
 N116 N 0.83387 0.87751 0.65825
 C117 C 0.82471 0.86235 0.63068
 N118 N 0.84055 0.83536 0.62119
 C119 C 0.86584 0.82367 0.63894
 N120 N 0.87493 0.83885 0.66645
 C121 C 0.63872 0.63447 0.67941
 N122 N 0.66490 0.62453 0.66231
 C123 C 0.67588 0.64271 0.63723
 N124 N 0.66068 0.67101 0.62968
 C125 C 0.63450 0.68101 0.64699
 N126 N 0.62373 0.66271 0.67169
 C127 C 0.65447 1.15113 1.19629
 N128 N 0.67516 1.13037 1.18173
 C129 C 0.68822 1.13794 1.15284
 N130 N 0.68088 1.16696 1.13877
 C131 C 0.65988 1.18781 1.15314
 N132 N 0.64730 1.17999 1.18222
 C133 C 0.15609 0.66185 1.21440
 N134 N 0.14991 0.68935 1.19782
 C135 C 0.16414 0.69501 1.16926
 N136 N 0.18553 0.67295 1.15736
 C137 C 0.19177 0.64485 1.17380
 N138 N 0.17725 0.63963 1.20266
 C139 C 0.13545 1.14806 0.68097
 N140 N 0.13227 1.17878 0.66968
 C141 C 0.15276 1.18995 0.64669
 N142 N 0.17682 1.17053 0.63552
 C143 C 0.18012 1.13975 0.64684
 N144 N 0.15959 1.12878 0.66970
 C145 C 1.34984 0.65356 0.31290
 N146 N 1.36948 0.67741 0.32449
 C147 C 1.36393 0.69019 0.35391
 N148 N 1.33831 0.67951 0.37157
 C149 C 1.31842 0.65591 0.36025
 N150 N 1.32403 0.64307 0.33063
 C151 C 1.34456 1.16677 0.80319
 N152 N 1.32457 1.14845 0.82226
 C153 C 1.31445 1.16056 0.85112
 N154 N 1.32328 1.19081 0.85987
 C155 C 1.34222 1.20914 0.84072
 N156 N 1.35269 1.19729 0.81236
 C157 C 0.86130 0.64253 0.81780
 N158 N 0.83333 0.62570 0.82413
 C159 C 0.81554 0.63287 0.85061
 N160 N 0.82570 0.65678 0.87067
 C161 C 0.85340 0.67339 0.86472
 N162 N 0.87116 0.66638 0.83812
 C163 C 0.84660 1.15925 0.29970
 N164 N 0.82730 1.14335 0.32135
 C165 C 0.81847 1.15838 0.34924
 N166 N 0.82791 1.18919 0.35460
 C167 C 0.84611 1.20528 0.33295
 N168 N 0.85526 1.19054 0.30538
 C169 C 0.66103 0.33680 0.30384
 N170 N 0.67928 0.35034 0.32769
 C171 C 0.68669 0.33316 0.35478
 N172 N 0.67645 0.30211 0.35750
 C173 C 0.65855 0.28841 0.33364
 N174 N 0.65121 0.30553 0.30665
 C175 C 0.63090 0.86521 0.82691
 N176 N 0.61953 0.83827 0.84205
 C177 C 0.63574 0.82623 0.86813
 N178 N 0.66347 0.84099 0.87858
 C179 C 0.67479 0.86789 0.86332
 N180 N 0.65854 0.87980 0.83759
 C181 C 0.13691 0.34672 0.81006
 N182 N 0.13246 0.31545 0.81895
 C183 C 0.15099 0.30227 0.84262
 N184 N 0.17443 0.32038 0.85735
 C185 C 0.17896 0.35190 0.84866
 N186 N 0.16042 0.36486 0.82472
 C187 C 0.14829 0.85963 0.31901
 N188 N 0.13401 0.83402 0.33422
 C189 C 0.14045 0.82861 0.36603
 N190 N 0.16189 0.84797 0.38185
 C191 C 0.17588 0.87346 0.36661
 N192 N 0.16911 0.87906 0.33532
 O193 O 1.12663 1.03789 1.16367
 O194 O 1.16527 1.03940 1.20072
 C195 C 1.13852 1.05020 1.18918
 C196 C 1.12152 1.07839 1.20414
 C197 C 1.13830 1.10004 1.22485
 H198 H 1.16359 1.09566 1.23111
 O199 O 0.88422 0.96313 1.15707
 O200 O 0.84566 0.96241 1.19369
 C201 C 0.87214 0.95112 1.18248
 C202 C 0.88781 0.92232 1.19774
 C203 C 0.86892 0.90089 1.21642
 H204 H 0.84341 0.90598 1.22063
 O205 O 1.03620 1.15581 1.11390
 O206 O 1.03544 1.19566 1.14901
 C207 C 1.04764 1.18263 1.12410
 C208 C 1.07597 1.19825 1.10739
 C209 C 1.09122 1.22616 1.12035
 H210 H 1.08197 1.23684 1.14217
 O211 O 0.98193 0.83875 1.11955
 O212 O 0.98258 0.80152 1.15768
 C213 C 0.97178 0.81200 1.13088
 C214 C 0.94610 0.79363 1.11349
 C215 C 0.93619 0.76298 1.12451
 H216 H 0.94830 0.75183 1.14494
 O217 O 1.16968 1.11350 1.02765
 O218 O 1.20625 1.15275 1.02528
 C219 C 1.19551 1.12703 1.03822
 C220 C 1.21179 1.11495 1.06767
 C221 C 1.23325 1.13572 1.08400
 H222 H 1.23957 1.15910 1.07382
 O223 O 0.84250 0.87300 1.03581
 O224 O 0.80642 0.83326 1.03689
 C225 C 0.81643 0.86055 1.04690
 C226 C 0.79795 0.87760 1.07213
 C227 C 0.76898 0.86414 1.08407
 H228 H 0.75934 0.84184 1.07405
 O229 O 0.96960 1.11407 1.15818
 O230 O 0.96742 1.15447 1.19254
 C231 C 0.95632 1.12749 1.18226
 C232 C 0.92678 1.11222 1.19730
 C233 C 0.90727 1.12980 1.21910
 H234 H 0.91397 1.15434 1.22563
 O235 O 1.04130 0.88795 1.16491
 O236 O 1.04100 0.85130 1.20357
 C237 C 1.05224 0.87739 1.19150
 C238 C 1.08041 0.89356 1.20719
 C239 C 1.09780 0.87658 1.23093
 H240 H 1.08907 0.85335 1.23960
 O241 O 1.17132 0.97490 1.11954
 O242 O 1.21065 0.97526 1.15588
 C243 C 1.19831 0.96390 1.13002
 C244 C 1.21437 0.93700 1.11203
 C245 C 1.24437 0.92319 1.12220
 H246 H 1.25688 0.93248 1.14327
 O247 O 0.83862 1.02548 1.11158
 O248 O 0.80062 1.02656 1.14868
 C249 C 0.81240 1.03737 1.12248
 C250 C 0.79650 1.06493 1.10507
 C251 C 0.76813 1.07982 1.11714
 H252 H 0.75691 1.07059 1.13879
 O253 O 0.88841 1.15396 1.02261
 O254 O 0.85050 1.19175 1.02238
 C255 C 0.87742 1.18062 1.03286
 C256 C 0.89533 1.19874 1.05783
 C257 C 0.88436 1.22950 1.06650
 H258 H 0.86399 1.24054 1.05390
 O259 O 1.12518 0.83997 1.03978
 O260 O 1.16483 0.80396 1.03939
 C261 C 1.13891 0.81491 1.05148
 C262 C 1.12605 0.79935 1.08064
 C263 C 1.14574 0.77761 1.09779
 H264 H 1.16950 0.77099 1.08873
 O265 O 0.88258 1.02724 1.15689
 O266 O 0.84471 1.02716 1.19415
 C267 C 0.87071 1.03910 1.18243
 C268 C 0.88561 1.06855 1.19746
 C269 C 0.86718 1.08653 1.21942
 H270 H 0.84316 1.07811 1.22631
 O271 O 1.12746 0.97415 1.16408
 O272 O 1.16632 0.97441 1.20094
 C273 C 1.13987 0.96263 1.18971
 C274 C 1.12420 0.93422 1.20558
 C275 C 1.14159 0.91594 1.22858
 H276 H 1.16609 0.92300 1.23561
 O277 O 1.04546 0.83913 1.12599
 O278 O 1.04606 0.80290 1.16504
 C279 C 1.05784 0.81401 1.13915
 C280 C 1.08687 0.79874 1.12439
 C281 C 1.10731 0.77705 1.14163
 H282 H 1.10151 0.77026 1.16609
 O283 O 0.97229 1.15702 1.11193
 O284 O 0.97156 1.19734 1.14654
 C285 C 0.96129 1.18437 1.12075
 C286 C 0.93562 1.20072 1.10131
 C287 C 0.92338 1.23128 1.11033
 H288 H 0.93320 1.24349 1.13129
 O289 O 0.84199 1.11087 1.02433
 O290 O 0.80399 1.14851 1.02375
 C291 C 0.81558 1.12236 1.03525
 C292 C 0.79848 1.10606 1.06226
 C293 C 0.77006 1.11995 1.07453
 H294 H 0.75998 1.14162 1.06359
 O295 O 1.16511 0.88885 1.03421
 O296 O 1.20414 0.85227 1.03339
 C297 C 1.19259 0.87873 1.04395
 C298 C 1.21107 0.89647 1.06900
 C299 C 1.24093 0.88393 1.07911
 H300 H 1.25122 0.86299 1.06727
 O301 O 0.97699 0.88303 1.16303
 O302 O 0.97679 0.84586 1.20121
 C303 C 0.96430 0.87080 1.18810
 C304 C 0.93313 0.88364 1.20068
 C305 C 0.91382 0.86320 1.21980
 H306 H 0.92252 0.83937 1.22663
 O307 O 1.03466 1.11469 1.16105
 O308 O 1.03255 1.15453 1.19610
 C309 C 1.04537 1.12837 1.18637
 C310 C 1.07501 1.11581 1.20301
 C311 C 1.09204 1.13639 1.22408
 H312 H 1.08216 1.15994 1.22995
 O313 O 0.83672 0.96145 1.11560
 O314 O 0.79831 0.96239 1.15229
 C315 C 0.81027 0.95007 1.12710
 C316 C 0.79451 0.92127 1.11164
 C317 C 0.76580 0.90677 1.12397
 H318 H 0.75390 0.91738 1.14453
 O319 O 1.17127 1.03824 1.11989
 O320 O 1.21001 1.03954 1.15690
 C321 C 1.19762 1.05034 1.13092
 C322 C 1.21277 1.07820 1.11386
 C323 C 1.23415 1.09980 1.13000
 H324 H 1.24081 1.09553 1.15489
 O325 O 0.89291 0.83472 1.03620
 O326 O 0.85697 0.79483 1.03721
 C327 C 0.88327 0.80788 1.04747
 C328 C 0.90250 0.79193 1.07307
 C329 C 0.89309 0.76138 1.08444
 H330 H 0.87227 0.74913 1.07381
 O331 O 1.12234 1.15472 1.02609
 O332 O 1.15912 1.19378 1.02495
 C333 C 1.13334 1.18142 1.03686
 C334 C 1.11714 1.19765 1.06451
 C335 C 1.13147 1.22549 1.07796
 H336 H 1.15326 1.23585 1.06745
 Cu337 Cu 1.14541 1.00624 1.13826
 Cu338 Cu 1.19178 1.00708 1.18244
 Cu339 Cu 0.86414 0.99426 1.13163
 Cu340 Cu 0.81879 0.99484 1.17601
 Cu341 Cu 1.00310 1.13132 1.13302
 Cu342 Cu 1.00156 1.17920 1.17470
 Cu343 Cu 1.01155 0.86588 1.13959
 Cu344 Cu 1.01141 0.82201 1.18595
 C345 C 1.08972 1.08659 1.19362
 H346 H 1.07711 1.07113 1.17654
 C347 C 1.12365 1.12928 1.23451
 C348 C 0.92000 0.91332 1.18982
 H349 H 0.93428 0.92871 1.17412
 C350 C 0.88171 0.87119 1.22697
 C351 C 1.08926 1.18425 1.07935
 H352 H 1.07835 1.16246 1.06950
 C353 C 1.11913 1.23965 1.10576
 C354 C 0.92931 0.80779 1.08743
 H355 H 0.93631 0.83172 1.07915
 C356 C 0.90975 0.74698 1.11021
 C357 C 1.20202 1.08598 1.08252
 H358 H 1.18460 1.07039 1.07035
 C359 C 1.24392 1.12886 1.11505
 C360 C 0.81011 0.90638 1.08561
 H361 H 0.83256 0.91662 1.07645
 C362 C 0.75292 0.87810 1.11003
 C363 C 0.91558 1.08148 1.18679
 H364 H 0.92946 1.06823 1.16915
 C365 C 0.87731 1.11713 1.22997
 C366 C 1.09349 0.92272 1.19497
 H367 H 1.08055 0.93552 1.17606
 C368 C 1.12847 0.88712 1.24099
 C369 C 1.19807 0.92329 1.08517
 H370 H 1.17461 0.93265 1.07756
 C371 C 1.25738 0.89640 1.10550
 C372 C 0.81135 1.07830 1.07744
 H373 H 0.83358 1.06776 1.06834
 C374 C 0.75501 1.10748 1.10184
 C375 C 0.92143 1.18472 1.07483
 H376 H 0.92974 1.16075 1.06829
 C377 C 0.89760 1.24554 1.09282
 C378 C 1.09642 0.80922 1.09371
 H379 H 1.08153 0.82645 1.08056
 C380 C 1.13696 0.76659 1.12816
 O381 O 1.11583 0.96613 0.84065
 O382 O 1.15152 0.96445 0.80121
 C383 C 1.12487 0.95527 0.81365
 C384 C 1.10439 0.93110 0.79720
 C385 C 1.11029 0.92229 0.76523
 H386 H 1.12975 0.93395 0.75202
 O387 O 0.88458 1.02164 0.84073
 O388 O 0.84565 1.02001 0.80382
 C389 C 0.87159 1.03275 0.81524
 C390 C 0.88488 1.06260 0.80039
 C391 C 0.86416 1.08193 0.78149
 H392 H 0.83945 1.07406 0.77626
 O393 O 0.97120 1.15672 0.87965
 O394 O 0.97168 1.19386 0.84142
 C395 C 0.96073 1.18316 0.86786
 C396 C 0.93421 1.20067 0.88405
 C397 C 0.92222 1.22962 0.87101
 H398 H 0.93377 1.24042 0.85021
 O399 O 1.03504 0.83575 0.89048
 O400 O 1.03701 0.79744 0.85365
 C401 C 1.04718 0.80971 0.87977
 C402 C 1.07326 0.79347 0.89804
 C403 C 1.08487 0.76314 0.88829
 H404 H 1.07449 0.75135 0.86735
 O405 O 1.16351 0.88153 0.97117
 O406 O 1.20213 0.84438 0.97144
 C407 C 1.18872 0.86890 0.95878
 C408 C 1.20115 0.88079 0.92789
 C409 C 1.21856 0.85947 0.90826
 H410 H 1.22436 0.83521 0.91650
 O411 O 0.84166 1.10976 0.96135
 O412 O 0.80437 1.14820 0.96066
 C413 C 0.81574 1.12189 0.94977
 C414 C 0.80031 1.10687 0.92150
 C415 C 0.78307 1.12659 0.89980
 H416 H 0.77878 1.15189 0.90522
 O417 O 1.03162 1.11006 0.83512
 O418 O 1.03046 1.14605 0.79583
 C419 C 1.04187 1.12033 0.80820
 C420 C 1.06857 1.10303 0.79220
 C421 C 1.08090 1.11393 0.76261
 H422 H 1.06983 1.13437 0.75040
 O423 O 0.96820 0.87441 0.84650
 O424 O 0.97010 0.83596 0.80976
 C425 C 0.95788 0.86192 0.82046
 C426 C 0.93159 0.87794 0.80234
 C427 C 0.92250 0.86685 0.77181
 H428 H 0.93483 0.84638 0.76117
 O429 O 1.16531 1.02621 0.88302
 O430 O 1.20190 1.02380 0.84455
 C431 C 1.19185 1.03577 0.87074
 C432 C 1.21022 1.06238 0.88614
 C433 C 1.23785 1.07522 0.87118
 H434 H 1.24720 1.06424 0.84952
 O435 O 0.84157 0.95866 0.88656
 O436 O 0.80269 0.95641 0.84972
 C437 C 0.81498 0.94668 0.87619
 C438 C 0.79884 0.92059 0.89484
 C439 C 0.76754 0.90932 0.88642
 H440 H 0.75453 0.92032 0.86648
 O441 O 1.12317 1.15396 0.96253
 O442 O 1.16002 1.19302 0.96176
 C443 C 1.13433 1.18006 0.95046
 C444 C 1.11913 1.19443 0.92147
 C445 C 1.13753 1.21597 0.90269
 H446 H 1.16182 1.22324 0.91024
 O447 O 0.88728 0.82821 0.97416
 O448 O 0.85089 0.78875 0.97506
 C449 C 0.87669 0.80106 0.96375
 C450 C 0.89451 0.78454 0.93775
 C451 C 0.88339 0.75518 0.92397
 H452 H 0.86152 0.74350 0.93279
 O453 O 0.88373 0.95838 0.84026
 O454 O 0.84530 0.95614 0.80298
 C455 C 0.87217 0.94626 0.81453
 C456 C 0.88987 0.91966 0.79882
 C457 C 0.88089 0.90827 0.76815
 H458 H 0.86108 0.91965 0.75505
 O459 O 1.11901 1.02795 0.84019
 O460 O 1.15559 1.02606 0.80161
 C461 C 1.12963 1.03766 0.81325
 C462 C 1.11182 1.06280 0.79525
 C463 C 1.12329 1.07336 0.76543
 H464 H 1.14487 1.06263 0.75508
 O465 O 0.97234 0.83252 0.89242
 O466 O 0.97444 0.79421 0.85557
 C467 C 0.96322 0.80525 0.88163
 C468 C 0.93817 0.78667 0.89854
 C469 C 0.92781 0.75708 0.88604
 H470 H 0.93987 0.74666 0.86542
 O471 O 1.03486 1.15409 0.87876
 O472 O 1.03538 1.19004 0.83941
 C473 C 1.04725 1.17898 0.86554
 C474 C 1.07689 1.19398 0.87971
 C475 C 1.09592 1.21546 0.86128
 H476 H 1.08828 1.22227 0.83723
 O477 O 0.84592 0.87544 0.97358
 O478 O 0.80917 0.83624 0.97442
 C479 C 0.81968 0.86302 0.96313
 C480 C 0.80142 0.87965 0.93737
 C481 C 0.77026 0.86884 0.92867
 H482 H 0.75907 0.84867 0.94124
 O483 O 1.16977 1.11141 0.96442
 O484 O 1.20629 1.15066 0.96245
 C485 C 1.19557 1.12352 0.95242
 C486 C 1.21204 1.10620 0.92563
 C487 C 1.23954 1.11919 0.90979
 H488 H 1.25010 1.14181 0.91800
 O489 O 1.03047 0.88040 0.84642
 O490 O 1.03190 0.84209 0.80951
 C491 C 1.04048 0.86976 0.81974
 C492 C 1.06259 0.88948 0.80041
 C493 C 1.06801 0.88143 0.76832
 H494 H 1.05501 0.86137 0.75729
 O495 O 0.96810 1.10985 0.83855
 O496 O 0.96676 1.14711 0.80043
 C497 C 0.95541 1.12137 0.81308
 C498 C 0.92576 1.10603 0.79933
 C499 C 0.90472 1.12456 0.77988
 H500 H 0.91105 1.14926 0.77349
 O501 O 0.83942 1.02197 0.88267
 O502 O 0.80077 1.01963 0.84546
 C503 C 0.81324 1.03278 0.87021
 C504 C 0.79922 1.06307 0.88237
 C505 C 0.78270 1.08346 0.86075
 H506 H 0.77804 1.07574 0.83626
 O507 O 1.16193 0.96295 0.88282
 O508 O 1.19754 0.96018 0.84343
 C509 C 1.18630 0.94962 0.86977
 C510 C 1.20026 0.92022 0.88429
 C511 C 1.21806 0.89870 0.86514
 H512 H 1.22336 0.90458 0.84032
 O513 O 1.11861 0.83845 0.97743
 O514 O 1.15749 0.80159 0.97768
 C515 C 1.13023 0.81193 0.96733
 C516 C 1.11290 0.79391 0.94190
 C517 C 1.12407 0.76350 0.93205
 H518 H 1.14428 0.75198 0.94446
 O519 O 0.88416 1.15673 0.96033
 O520 O 0.84643 1.19468 0.96057
 C521 C 0.87275 1.18336 0.94948
 C522 C 0.89018 1.20066 0.92327
 C523 C 0.87813 1.22968 0.90950
 H524 H 0.85596 1.24040 0.91852
 Cu525 Cu 1.13708 0.99610 0.86586
 Cu526 Cu 1.18075 0.99357 0.81902
 Cu527 Cu 0.86617 0.98996 0.86632
 Cu528 Cu 0.81978 0.98746 0.82169
 Cu529 Cu 1.14261 1.12942 0.99512
 Cu530 Cu 1.18642 1.17652 0.99351
 Cu531 Cu 1.13919 0.86599 1.00576
 Cu532 Cu 1.18616 0.82203 1.00562
 Cu533 Cu 0.86775 1.12897 0.99205
 Cu534 Cu 0.82227 1.17434 0.99220
 Cu535 Cu 0.87079 0.85660 1.00485
 Cu536 Cu 0.82721 0.80942 1.00612
 Cu537 Cu 1.00148 1.12900 0.86190
 Cu538 Cu 1.00094 1.17296 0.81539
 Cu539 Cu 1.00148 0.85970 0.87280
 Cu540 Cu 1.00375 0.81336 0.82845
 C541 C 1.08012 0.91487 0.81449
 H542 H 1.07613 0.92075 0.83951
 C543 C 1.09202 0.89727 0.75087
 C544 C 0.91575 1.07487 0.80931
 H545 H 0.93130 1.06084 0.82522
 C546 C 0.87378 1.11284 0.77169
 C547 C 0.91844 1.18672 0.91048
 H548 H 0.92747 1.16409 0.92027
 C549 C 0.89430 1.24414 0.88323
 C550 C 1.08713 0.80853 0.92506
 H551 H 1.07868 0.83225 0.93225
 C552 C 1.11028 0.74819 0.90532
 C553 C 1.19204 0.91118 0.91579
 H554 H 1.17749 0.92721 0.93041
 C555 C 1.22657 0.86820 0.87697
 C556 C 0.80795 1.07492 0.91284
 H557 H 0.82244 1.06002 0.92895
 C558 C 0.77523 1.11520 0.86922
 C559 C 1.08409 1.07729 0.80822
 H560 H 1.07530 1.06929 0.83141
 C561 C 1.10835 1.09899 0.74934
 C562 C 0.91541 0.90447 0.81554
 H563 H 0.92226 0.91286 0.83930
 C564 C 0.89745 0.88185 0.75462
 C565 C 1.19798 1.07750 0.91368
 H566 H 1.17632 1.06772 0.92492
 C567 C 1.25240 1.10359 0.88238
 C568 C 0.81545 0.90576 0.92062
 H569 H 0.83976 0.91391 0.92707
 C570 C 0.75327 0.88347 0.90350
 C571 C 1.08867 1.18368 0.90995
 H572 H 1.07485 1.16627 0.92388
 C573 C 1.12631 1.22609 0.87265
 C574 C 0.92208 0.79987 0.92486
 H575 H 0.93023 0.82296 0.93437
 C576 C 0.90037 0.74163 0.89791
 O577 O 1.11407 0.53881 0.65799
 O578 O 1.15213 0.53945 0.69569
 C579 C 1.12536 0.54995 0.68439
 C580 C 1.10745 0.57606 0.70131
 C581 C 1.11743 0.58757 0.73185
 H582 H 1.13809 0.57670 0.74406
 O583 O 0.88551 0.45959 0.66054
 O584 O 0.84802 0.45868 0.69822
 C585 C 0.87406 0.44749 0.68636
 C586 C 0.88994 0.41864 0.70127
 C587 C 0.87322 0.39932 0.72405
 H588 H 0.84926 0.40636 0.73220
 O589 O 1.02721 0.66735 0.61264
 O590 O 1.02590 0.70534 0.64965
 C591 C 1.03803 0.69399 0.62397
 C592 C 1.06563 0.71089 0.60723
 C593 C 1.08070 0.73926 0.61977
 H594 H 1.07162 0.75012 0.64157
 O595 O 0.97444 0.33326 0.61003
 O596 O 0.97695 0.29497 0.64700
 C597 C 0.96481 0.30617 0.62101
 C598 C 0.93824 0.28846 0.60397
 C599 C 0.92440 0.26019 0.61731
 H600 H 0.93394 0.25033 0.63959
 O601 O 1.15554 0.62487 0.52547
 O602 O 1.19227 0.66404 0.52527
 C603 C 1.18109 0.63786 0.53724
 C604 C 1.19659 0.62349 0.56642
 C605 C 1.21830 0.64206 0.58532
 H606 H 1.22496 0.66638 0.57794
 O607 O 0.84257 0.37485 0.52980
 O608 O 0.80623 0.33530 0.53005
 C609 C 0.81762 0.36140 0.54185
 C610 C 0.80274 0.37514 0.57097
 C611 C 0.78136 0.35606 0.58917
 H612 H 0.77468 0.33191 0.58129
 O613 O 0.96422 0.61996 0.65571
 O614 O 0.96162 0.65785 0.69277
 C615 C 0.95209 0.63064 0.68167
 C616 C 0.92648 0.61110 0.69856
 C617 C 0.91290 0.62132 0.72807
 H618 H 0.92120 0.64357 0.73922
 O619 O 1.03452 0.38211 0.65454
 O620 O 1.03722 0.34450 0.69220
 C621 C 1.04634 0.37174 0.68087
 C622 C 1.07154 0.39125 0.69788
 C623 C 1.08466 0.38068 0.72739
 H624 H 1.07566 0.35859 0.73833
 O625 O 1.15885 0.47673 0.61207
 O626 O 1.19703 0.47810 0.64962
 C627 C 1.18568 0.46639 0.62359
 C628 C 1.20339 0.43950 0.60770
 C629 C 1.23099 0.42636 0.62290
 H630 H 1.24014 0.43672 0.64513
 O631 O 0.83924 0.52206 0.61516
 O632 O 0.80202 0.52070 0.65307
 C633 C 0.81263 0.53233 0.62682
 C634 C 0.79422 0.55887 0.61065
 C635 C 0.76486 0.56974 0.62403
 H636 H 0.75501 0.55800 0.64517
 O637 O 0.87455 0.65668 0.52590
 O638 O 0.83352 0.69098 0.52793
 C639 C 0.86179 0.68201 0.53726
 C640 C 0.87976 0.70069 0.56207
 C641 C 0.86852 0.73114 0.57161
 H642 H 0.84718 0.74166 0.56020
 O643 O 1.12280 0.34309 0.52673
 O644 O 1.16297 0.30773 0.52612
 C645 C 1.13637 0.31778 0.53786
 C646 C 1.12245 0.30103 0.56614
 C647 C 1.14171 0.27882 0.58331
 H648 H 1.16595 0.27282 0.57507
 O649 O 0.88632 0.52401 0.65731
 O650 O 0.84900 0.52266 0.69511
 C651 C 0.87464 0.53516 0.68314
 C652 C 0.88974 0.56381 0.69903
 C653 C 0.87701 0.57447 0.72820
 H654 H 0.85760 0.56098 0.73973
 O655 O 1.11364 0.47532 0.65548
 O656 O 1.15191 0.47639 0.69298
 C657 C 1.12566 0.46447 0.68155
 C658 C 1.10984 0.43693 0.69827
 C659 C 1.12220 0.42616 0.72794
 H660 H 1.14231 0.43882 0.73944
 O661 O 1.03843 0.33650 0.61205
 O662 O 1.04126 0.29874 0.64953
 C663 C 1.05189 0.31131 0.62377
 C664 C 1.08125 0.29762 0.60826
 C665 C 1.10091 0.27498 0.62482
 H666 H 1.09393 0.26623 0.64835
 O667 O 0.96312 0.66302 0.60982
 O668 O 0.96124 0.70137 0.64649
 C669 C 0.95074 0.68896 0.62041
 C670 C 0.92324 0.70420 0.60268
 C671 C 0.91136 0.73462 0.61197
 H672 H 0.92303 0.74763 0.63150
 O673 O 0.83090 0.61101 0.52959
 O674 O 0.78958 0.64490 0.53155
 C675 C 0.80417 0.61996 0.54219
 C676 C 0.79019 0.60183 0.56992
 C677 C 0.76095 0.61238 0.58416
 H678 H 0.74824 0.63323 0.57450
 O679 O 1.16472 0.39008 0.52670
 O680 O 1.20489 0.35479 0.52650
 C681 C 1.19166 0.38001 0.53821
 C682 C 1.20664 0.39706 0.56646
 C683 C 1.23406 0.38409 0.58272
 H684 H 1.24528 0.36215 0.57396
 O685 O 0.97127 0.37594 0.65576
 O686 O 0.97386 0.33751 0.69263
 C687 C 0.96084 0.36313 0.68159
 C688 C 0.93229 0.37715 0.69818
 C689 C 0.91518 0.35839 0.72070
 H690 H 0.92346 0.33418 0.72664
 O691 O 1.02766 0.62187 0.65569
 O692 O 1.02554 0.65945 0.69315
 C693 C 1.03775 0.63350 0.68216
 C694 C 1.06441 0.61698 0.69985
 C695 C 1.07457 0.62798 0.73014
 H696 H 1.06230 0.64821 0.74129
 O697 O 0.84189 0.45836 0.61539
 O698 O 0.80474 0.45715 0.65342
 C699 C 0.81642 0.44589 0.62758
 C700 C 0.80163 0.41665 0.61278
 C701 C 0.77985 0.39719 0.63044
 H702 H 0.77222 0.40444 0.65421
 O703 O 1.15621 0.54040 0.61153
 O704 O 1.19404 0.54159 0.64946
 C705 C 1.18203 0.55267 0.62342
 C706 C 1.19711 0.58150 0.60824
 C707 C 1.21937 0.60018 0.62613
 H708 H 1.22686 0.59256 0.65000
 O709 O 0.88820 0.33196 0.52534
 O710 O 0.85191 0.29240 0.52448
 C711 C 0.87833 0.30456 0.53535
 C712 C 0.89651 0.28761 0.56139
 C713 C 0.88373 0.25912 0.57472
 H714 H 0.86188 0.24824 0.56458
 O715 O 1.11035 0.66768 0.52550
 O716 O 1.14714 0.70677 0.52395
 C717 C 1.12162 0.69432 0.53614
 C718 C 1.10604 0.71044 0.56390
 C719 C 1.12052 0.73824 0.57692
 H720 H 1.14203 0.74866 0.56593
 Cu721 Cu 1.13185 0.50782 0.63055
 Cu722 Cu 1.17774 0.50884 0.67550
 Cu723 Cu 0.86704 0.49109 0.63345
 Cu724 Cu 0.82230 0.48999 0.67873
 Cu725 Cu 0.99569 0.63949 0.62974
 Cu726 Cu 0.99329 0.68490 0.67410
 Cu727 Cu 1.00438 0.36060 0.62930
 Cu728 Cu 1.00764 0.31508 0.67397
 C729 C 1.08075 0.59082 0.68584
 H730 H 1.07320 0.58251 0.66226
 C731 C 1.10079 0.61355 0.74631
 C732 C 0.91971 0.40741 0.68894
 H733 H 0.93229 0.42150 0.67083
 C734 C 0.88569 0.36900 0.73355
 C735 C 1.07856 0.69702 0.57906
 H736 H 1.06776 0.67512 0.56932
 C737 C 1.10840 0.75278 0.60449
 C738 C 0.92419 0.30180 0.57584
 H739 H 0.93385 0.32418 0.56604
 C740 C 0.89696 0.24572 0.60275
 C741 C 1.18617 0.59309 0.57817
 H742 H 1.16836 0.57915 0.56464
 C743 C 1.22946 0.63051 0.61516
 C744 C 0.81264 0.40554 0.58282
 H745 H 0.83001 0.41992 0.56938
 C746 C 0.77013 0.36682 0.61877
 C747 C 0.91468 0.58209 0.68444
 H748 H 0.92427 0.57417 0.66161
 C749 C 0.88803 0.60282 0.74277
 C750 C 1.08416 0.41961 0.68362
 H751 H 1.07484 0.42754 0.66049
 C752 C 1.11008 0.39809 0.74238
 C753 C 1.19155 0.42491 0.57930
 H754 H 1.16991 0.43463 0.56778
 C755 C 1.24606 0.39866 0.61117
 C756 C 0.80660 0.57493 0.58337
 H757 H 0.82941 0.56703 0.57310
 C758 C 0.74833 0.59642 0.61127
 C759 C 0.90745 0.68755 0.57745
 H760 H 0.91603 0.66380 0.57051
 C761 C 0.88407 0.74808 0.59637
 C762 C 1.09210 0.31016 0.57867
 H763 H 1.07764 0.32818 0.56613
 C764 C 1.13128 0.26597 0.61251
 O765 O 1.10975 0.47419 0.33506
 O766 O 1.14581 0.47866 0.29616
 C767 C 1.12135 0.46469 0.30843
 C768 C 1.10877 0.43496 0.29324
 C769 C 1.13021 0.41591 0.27519
 H770 H 1.15480 0.42429 0.27051
 O771 O 0.88206 0.52371 0.33838
 O772 O 0.84341 0.52285 0.30117
 C773 C 0.86987 0.53438 0.31236
 C774 C 0.88570 0.56129 0.29538
 C775 C 0.87512 0.56967 0.26449
 H776 H 0.85664 0.55530 0.25230
 O777 O 0.94762 0.66898 0.38265
 O778 O 0.94608 0.70423 0.34279
 C779 C 0.93444 0.69326 0.36882
 C780 C 0.90416 0.70724 0.38248
 C781 C 0.88227 0.72552 0.36326
 H782 H 0.88836 0.73092 0.33853
 O783 O 1.03287 0.34236 0.37943
 O784 O 1.03384 0.30396 0.34271
 C785 C 1.04475 0.31623 0.36863
 C786 C 1.07251 0.30032 0.38514
 C787 C 1.08542 0.27220 0.37174
 H788 H 1.07405 0.26130 0.35078
 O789 O 1.16405 0.38973 0.46317
 O790 O 1.20387 0.35399 0.46237
 C791 C 1.19028 0.37917 0.45101
 C792 C 1.20339 0.39475 0.42169
 C793 C 1.22453 0.37741 0.40153
 H794 H 1.23321 0.35364 0.40855
 O795 O 0.83018 0.60840 0.46644
 O796 O 0.78825 0.64161 0.46809
 C797 C 0.80220 0.61677 0.45641
 C798 C 0.78674 0.59816 0.42989
 C799 C 0.75607 0.60686 0.41736
 H800 H 0.74283 0.62660 0.42822
 O801 O 1.01650 0.62554 0.34597
 O802 O 1.01647 0.66249 0.30745
 C803 C 1.02894 0.63761 0.32074
 C804 C 1.05963 0.62452 0.30782
 C805 C 1.08039 0.64580 0.29137
 H806 H 1.07363 0.67093 0.28781
 O807 O 0.96701 0.38109 0.33277
 O808 O 0.96862 0.34271 0.29597
 C809 C 0.95579 0.36813 0.30723
 C810 C 0.92612 0.38172 0.29209
 C811 C 0.90696 0.36323 0.27054
 H812 H 0.91497 0.33948 0.26297
 O813 O 1.15371 0.53742 0.38075
 O814 O 1.19021 0.53940 0.34211
 C815 C 1.17969 0.54924 0.36888
 C816 C 1.19742 0.57567 0.38526
 C817 C 1.22693 0.58672 0.37259
 H818 H 1.23760 0.57473 0.35207
 O819 O 0.83869 0.46068 0.38318
 O820 O 0.79973 0.46096 0.34629
 C821 C 0.81150 0.45037 0.37258
 C822 C 0.79366 0.42504 0.39018
 C823 C 0.76404 0.41361 0.37792
 H824 H 0.75328 0.42466 0.35671
 O825 O 1.10827 0.66781 0.46272
 O826 O 1.14548 0.70642 0.46116
 C827 C 1.11847 0.69459 0.45137
 C828 C 1.09888 0.71175 0.42624
 C829 C 1.11030 0.74068 0.41213
 H830 H 1.13325 0.75108 0.42008
 O831 O 0.88414 0.33573 0.46254
 O832 O 0.84650 0.29734 0.46135
 C833 C 0.87167 0.31073 0.44960
 C834 C 0.88518 0.29865 0.41926
 C835 C 0.86454 0.28320 0.39688
 H836 H 0.83925 0.27835 0.40260
 O837 O 0.88048 0.46042 0.33655
 O838 O 0.84114 0.46029 0.30004
 C839 C 0.86777 0.44925 0.31088
 C840 C 0.88288 0.42183 0.29438
 C841 C 0.86426 0.40339 0.27275
 H842 H 0.83954 0.41044 0.26663
 O843 O 1.10502 0.53804 0.34060
 O844 O 1.14209 0.54191 0.30263
 C845 C 1.11620 0.55204 0.31583
 C846 C 1.10131 0.58244 0.30410
 C847 C 1.12093 0.60399 0.28650
 H848 H 1.14541 0.59727 0.27958
 O849 O 0.96919 0.33990 0.37883
 O850 O 0.97058 0.30183 0.34162
 C851 C 0.95828 0.31379 0.36680
 C852 C 0.92836 0.29935 0.37944
 C853 C 0.90767 0.28337 0.35777
 H854 H 0.91527 0.27884 0.33329
 O855 O 1.01220 0.67065 0.38747
 O856 O 1.01087 0.70738 0.34889
 C857 C 1.02296 0.69664 0.37509
 C858 C 1.05148 0.71319 0.38986
 C859 C 1.06363 0.74174 0.37600
 H860 H 1.05089 0.75306 0.35604
 O861 O 0.83729 0.37668 0.46734
 O862 O 0.79993 0.33809 0.46747
 C863 C 0.81046 0.36503 0.45692
 C864 C 0.79271 0.38250 0.43102
 C865 C 0.76352 0.37028 0.41730
 H866 H 0.75269 0.34817 0.42646
 O867 O 1.15600 0.62546 0.46223
 O868 O 1.19351 0.66379 0.46144
 C869 C 1.18234 0.63708 0.45093
 C870 C 1.19917 0.61939 0.42471
 C871 C 1.22897 0.63037 0.41137
 H872 H 1.24084 0.65186 0.42076
 O873 O 1.03042 0.38579 0.33408
 O874 O 1.03213 0.34715 0.29755
 C875 C 1.04217 0.37406 0.30854
 C876 C 1.06978 0.39039 0.29310
 C877 C 1.09125 0.37199 0.27453
 H878 H 1.08599 0.34676 0.26940
 O879 O 0.95372 0.62124 0.34191
 O880 O 0.95371 0.65657 0.30207
 C881 C 0.94422 0.62985 0.31408
 C882 C 0.92143 0.60863 0.29609
 C883 C 0.91043 0.61681 0.26500
 H884 H 0.91924 0.63867 0.25345
 O885 O 0.83711 0.52298 0.38171
 O886 O 0.79887 0.52255 0.34406
 C887 C 0.81016 0.53318 0.37040
 C888 C 0.79141 0.55772 0.38756
 C889 C 0.76085 0.56677 0.37542
 H890 H 0.75078 0.55545 0.35406
 O891 O 1.15401 0.47422 0.37957
 O892 O 1.18972 0.47686 0.34022
 C893 C 1.17982 0.46416 0.36626
 C894 C 1.19742 0.43606 0.37987
 C895 C 1.21807 0.41810 0.36006
 H896 H 1.22214 0.42559 0.33543
 O897 O 1.12170 0.34312 0.46370
 O898 O 1.16141 0.30731 0.46281
 C899 C 1.13418 0.31759 0.45202
 C900 C 1.11703 0.30072 0.42490
 C901 C 1.13020 0.27286 0.41005
 H902 H 1.15298 0.26277 0.41869
 O903 O 0.86583 0.66057 0.46356
 O904 O 0.82380 0.69366 0.46558
 C905 C 0.85044 0.68525 0.45287
 C906 C 0.86275 0.70299 0.42418
 C907 C 0.84137 0.72129 0.40474
 H908 H 0.81611 0.72373 0.41176
 Cu909 Cu 1.12672 0.50566 0.36274
 Cu910 Cu 1.17035 0.50960 0.31624
 Cu911 Cu 0.86383 0.49194 0.36360
 Cu912 Cu 0.81698 0.49163 0.31900
 Cu913 Cu 1.12901 0.64246 0.49362
 Cu914 Cu 1.17337 0.68903 0.49255
 Cu915 Cu 1.13948 0.37009 0.49507
 Cu916 Cu 1.18736 0.32755 0.49444
 Cu917 Cu 0.85433 0.63091 0.49612
 Cu918 Cu 0.80465 0.67097 0.49873
 Cu919 Cu 0.86674 0.35870 0.49625
 Cu920 Cu 0.82259 0.31167 0.49605
 Cu921 Cu 0.98197 0.64325 0.36871
 Cu922 Cu 0.98145 0.68650 0.32156
 Cu923 Cu 0.99987 0.36630 0.35992
 Cu924 Cu 1.00183 0.31993 0.31583
 C925 C 1.07842 0.42212 0.30194
 H926 H 1.06256 0.43596 0.31741
 C927 C 1.12172 0.38437 0.26643
 C928 C 0.90919 0.58050 0.31088
 H929 H 0.91690 0.57426 0.33507
 C930 C 0.88716 0.59717 0.24931
 C931 C 0.89432 0.69702 0.41315
 H932 H 0.91053 0.68220 0.42763
 C933 C 0.85045 0.73214 0.37398
 C934 C 1.08806 0.31418 0.41204
 H935 H 1.07818 0.33615 0.42223
 C936 C 1.11418 0.25874 0.38327
 C937 C 1.19035 0.42435 0.41079
 H938 H 1.17331 0.43740 0.42568
 C939 C 1.23133 0.38882 0.37055
 C940 C 0.80410 0.57313 0.41495
 H941 H 0.82801 0.56638 0.42388
 C942 C 0.74320 0.59111 0.38991
 C943 C 1.07044 0.59283 0.31474
 H944 H 1.05546 0.57680 0.32911
 C945 C 1.11094 0.63577 0.28124
 C946 C 0.91401 0.41130 0.30334
 H947 H 0.92804 0.42527 0.32063
 C948 C 0.87595 0.37416 0.26103
 C949 C 1.18394 0.59175 0.41153
 H950 H 1.16081 0.58340 0.42091
 C951 C 1.24277 0.61376 0.38511
 C952 C 0.80736 0.41008 0.41727
 H953 H 0.83044 0.41896 0.42660
 C954 C 0.74930 0.38611 0.39060
 C955 C 1.06914 0.69847 0.41514
 H956 H 1.06035 0.67594 0.42535
 C957 C 1.09275 0.75557 0.38687
 C958 C 0.91714 0.30687 0.41028
 H959 H 0.93268 0.32040 0.42664
 C960 C 0.87576 0.27627 0.36604
 O961 O 0.46800 0.89335 0.34398
 O962 O 0.46676 0.85420 0.30793
 C963 C 0.45686 0.88130 0.31818
 C964 C 0.43067 0.89821 0.30120
 C965 C 0.42147 0.88946 0.26995
 H966 H 0.43499 0.87112 0.25717
 O967 O 0.52857 1.10671 0.33530
 O968 O 0.52625 1.14276 0.29610
 C969 C 0.53924 1.11794 0.30890
 C970 C 0.56953 1.10487 0.29477
 C971 C 0.58780 1.12519 0.27453
 H972 H 0.57845 1.14867 0.26737
 O973 O 0.33459 0.96742 0.39827
 O974 O 0.29504 0.96434 0.36226
 C975 C 0.30762 0.95571 0.38889
 C976 C 0.29106 0.93138 0.40889
 C977 C 0.25956 0.92087 0.40104
 H978 H 0.24693 0.93162 0.38073
 O979 O 0.66733 1.02891 0.38329
 O980 O 0.70437 1.02774 0.34515
 C981 C 0.69381 1.03910 0.37141
 C982 C 0.71186 1.06552 0.38724
 C983 C 0.74061 1.07697 0.37349
 H984 H 0.75080 1.06500 0.35272
 O985 O 0.38607 0.84460 0.48088
 O986 O 0.34979 0.80497 0.48185
 C987 C 0.37484 0.81819 0.46974
 C988 C 0.39020 0.80295 0.44181
 C989 C 0.37843 0.77309 0.43070
 H990 H 0.35902 0.76058 0.44325
 O991 O 0.62192 1.15731 0.45851
 O992 O 0.65839 1.19662 0.45536
 C993 C 0.63307 1.18243 0.44466
 C994 C 0.61804 1.19368 0.41437
 C995 C 0.63715 1.21048 0.39180
 H996 H 0.66212 1.21715 0.39743
 O997 O 0.37533 1.02879 0.34963
 O998 O 0.33540 1.02643 0.31362
 C999 C 0.36183 1.03896 0.32401
 C1000 C 0.37547 1.06733 0.30761
 C1001 C 0.35441 1.08793 0.29069
 H1002 H 0.32877 1.08195 0.28806
 O1003 O 0.62150 0.96572 0.34144
 O1004 O 0.65840 0.96477 0.30308
 C1005 C 0.63274 0.95357 0.31592
 C1006 C 0.61768 0.92409 0.30303
 C1007 C 0.63735 0.90154 0.28729
 H1008 H 0.66250 0.90727 0.28173
 O1009 O 0.52736 0.85056 0.39312
 O1010 O 0.52501 0.81073 0.35783
 C1011 C 0.53653 0.82307 0.38350
 C1012 C 0.56186 0.80539 0.40102
 C1013 C 0.56936 0.77437 0.39080
 H1014 H 0.55509 0.76272 0.37203
 O1015 O 0.46824 1.15490 0.38010
 O1016 O 0.46795 1.19143 0.34130
 C1017 C 0.45803 1.18157 0.36843
 C1018 C 0.43335 1.20079 0.38578
 C1019 C 0.42206 1.23012 0.37279
 H1020 H 0.43258 1.23970 0.35091
 O1021 O 0.33955 1.12012 0.46552
 O1022 O 0.30282 1.15917 0.46429
 C1023 C 0.31421 1.13303 0.45334
 C1024 C 0.29949 1.11900 0.42447
 C1025 C 0.28728 1.13970 0.40048
 H1026 H 0.28636 1.16565 0.40434
 O1027 O 0.66723 0.88899 0.46986
 O1028 O 0.70404 0.85024 0.47236
 C1029 C 0.69333 0.87601 0.45976
 C1030 C 0.71075 0.88982 0.43210
 C1031 C 0.73738 0.87334 0.41924
 H1032 H 0.74643 0.85150 0.43069
 O1033 O 0.46373 1.10827 0.33812
 O1034 O 0.46203 1.14534 0.29983
 C1035 C 0.45042 1.12020 0.31314
 C1036 C 0.41929 1.10675 0.30139
 C1037 C 0.39811 1.12662 0.28349
 H1038 H 0.40584 1.15045 0.27555
 O1039 O 0.53175 0.88751 0.34413
 O1040 O 0.52984 0.84763 0.30884
 C1041 C 0.54323 0.87304 0.31976
 C1042 C 0.57403 0.88416 0.30566
 C1043 C 0.59424 0.86165 0.29037
 H1044 H 0.58625 0.83683 0.28691
 O1045 O 0.66964 0.96628 0.38149
 O1046 O 0.70635 0.96508 0.34307
 C1047 C 0.69565 0.95461 0.36971
 C1048 C 0.71232 0.92789 0.38722
 C1049 C 0.73914 0.91087 0.37436
 H1050 H 0.74915 0.91797 0.35139
 O1051 O 0.33088 1.03026 0.39144
 O1052 O 0.29267 1.02852 0.35364
 C1053 C 0.30548 1.04179 0.37809
 C1054 C 0.29388 1.07352 0.38808
 C1055 C 0.28139 1.09436 0.36442
 H1056 H 0.27628 1.08562 0.34035
 O1057 O 0.38614 1.16239 0.46641
 O1058 O 0.34917 1.20107 0.46616
 C1059 C 0.37529 1.18896 0.45523
 C1060 C 0.39254 1.20476 0.42811
 C1061 C 0.38115 1.23394 0.41434
 H1062 H 0.36033 1.24614 0.42451
 O1063 O 0.61851 0.84862 0.47275
 O1064 O 0.65503 0.80957 0.47354
 C1065 C 0.62834 0.82133 0.46283
 C1066 C 0.60815 0.80405 0.43833
 C1067 C 0.61599 0.77283 0.42680
 H1068 H 0.63739 0.76038 0.43581
 O1069 O 0.62198 1.02876 0.33948
 O1070 O 0.65883 1.02885 0.30114
 C1071 C 0.63278 1.04002 0.31320
 C1072 C 0.61588 1.06764 0.29757
 C1073 C 0.63360 1.08865 0.27751
 H1074 H 0.65905 1.08398 0.27256
 O1075 O 0.37523 0.96707 0.34969
 O1076 O 0.33715 0.96601 0.31191
 C1077 C 0.36458 0.95698 0.32278
 C1078 C 0.38463 0.93480 0.30398
 C1079 C 0.37593 0.92653 0.27250
 H1080 H 0.35433 0.93678 0.26133
 O1081 O 0.53138 1.15148 0.37739
 O1082 O 0.53050 1.18723 0.33775
 C1083 C 0.54328 1.17611 0.36336
 C1084 C 0.57408 1.19026 0.37480
 C1085 C 0.59368 1.20658 0.35258
 H1086 H 0.58534 1.21042 0.32809
 O1087 O 0.46489 0.84890 0.38864
 O1088 O 0.46270 0.81023 0.35214
 C1089 C 0.45283 0.82245 0.37817
 C1090 C 0.42730 0.80542 0.39646
 C1091 C 0.41485 0.77560 0.38545
 H1092 H 0.42378 0.76510 0.36340
 O1093 O 0.66971 1.11664 0.46287
 O1094 O 0.70596 1.15613 0.46048
 C1095 C 0.69579 1.12853 0.45120
 C1096 C 0.71310 1.11031 0.42555
 C1097 C 0.74159 1.12229 0.41045
 H1098 H 0.75230 1.14500 0.41823
 O1099 O 0.33959 0.88607 0.48547
 O1100 O 0.30316 0.84653 0.48633
 C1101 C 0.31277 0.87389 0.47599
 C1102 C 0.29332 0.89133 0.45183
 C1103 C 0.26178 0.88086 0.44366
 H1104 H 0.25080 0.86043 0.45597
 Cu1105 Cu 0.49768 0.87452 0.37067
 Cu1106 Cu 0.49585 0.82673 0.32799
 Cu1107 Cu 0.49766 1.12634 0.36146
 Cu1108 Cu 0.49632 1.17009 0.31460
 Cu1109 Cu 0.35776 0.99797 0.37633
 Cu1110 Cu 0.31041 0.99425 0.33267
 Cu1111 Cu 0.64140 0.99746 0.36523
 Cu1112 Cu 0.68545 0.99693 0.31889
 C1113 C 0.41244 0.92116 0.31788
 H1114 H 0.41903 0.92725 0.34240
 C1115 C 0.39410 0.90381 0.25562
 C1116 C 0.58373 1.07595 0.30615
 H1117 H 0.57045 1.06083 0.32291
 C1118 C 0.61983 1.11764 0.26662
 C1119 C 0.30754 0.91697 0.43473
 H1120 H 0.33221 0.92462 0.44048
 C1121 C 0.24498 0.89536 0.41817
 C1122 C 0.69876 1.08166 0.41371
 H1123 H 0.67628 1.07275 0.42405
 C1124 C 0.75526 1.10531 0.38424
 C1125 C 0.41493 0.81890 0.42478
 H1126 H 0.42397 0.84212 0.43314
 C1127 C 0.39034 0.75956 0.40261
 C1128 C 0.58637 1.18365 0.40569
 H1129 H 0.57184 1.16974 0.42248
 C1130 C 0.62508 1.21615 0.36080
 C1131 C 0.40794 1.07682 0.31297
 H1132 H 0.42380 1.06174 0.32759
 C1133 C 0.36559 1.11751 0.27901
 C1134 C 0.58588 0.91542 0.31188
 H1135 H 0.57103 0.93239 0.32510
 C1136 C 0.62590 0.87024 0.28175
 C1137 C 0.58079 0.82003 0.42512
 H1138 H 0.57486 0.84440 0.43264
 C1139 C 0.59621 0.75835 0.40273
 C1140 C 0.41889 1.18866 0.41378
 H1141 H 0.42723 1.16577 0.42356
 C1142 C 0.39601 1.24662 0.38658
 C1143 C 0.30266 1.08588 0.41823
 H1144 H 0.31384 1.07015 0.43605
 C1145 C 0.27902 1.12737 0.37035
 C1146 C 0.69887 0.91733 0.41641
 H1147 H 0.67798 0.92967 0.42632
 C1148 C 0.75157 0.88333 0.39060
 O1149 O 0.53977 0.89587 0.66506
 O1150 O 0.54198 0.85945 0.70391
 C1151 C 0.55152 0.88602 0.69159
 C1152 C 0.57700 0.90521 0.70807
 C1153 C 0.58813 0.89569 0.73854
 H1154 H 0.57720 0.87495 0.75035
 O1155 O 0.47052 1.12377 0.66011
 O1156 O 0.46996 1.16500 0.69367
 C1157 C 0.45833 1.13788 0.68434
 C1158 C 0.42911 1.12351 0.70047
 C1159 C 0.40993 1.14237 0.72134
 H1160 H 0.41691 1.16716 0.72657
 O1161 O 0.33967 1.03431 0.61842
 O1162 O 0.30194 1.03611 0.65574
 C1163 C 0.31323 1.04597 0.62890
 C1164 C 0.29653 1.07210 0.61000
 C1165 C 0.26706 1.08605 0.62054
 H1166 H 0.25548 1.07713 0.64213
 O1167 O 0.66369 0.98465 0.61692
 O1168 O 0.70316 0.98481 0.65320
 C1169 C 0.69049 0.97355 0.62748
 C1170 C 0.70693 0.94676 0.61037
 C1171 C 0.73722 0.93594 0.62161
 H1172 H 0.74904 0.94770 0.64185
 O1173 O 0.62211 0.84903 0.53525
 O1174 O 0.65934 0.81057 0.53576
 C1175 C 0.63346 0.82271 0.54667
 C1176 C 0.61725 0.80599 0.57336
 C1177 C 0.62809 0.77528 0.58265
 H1178 H 0.64730 0.76333 0.56948
 O1179 O 0.38420 1.16290 0.52922
 O1180 O 0.34593 1.20042 0.52888
 C1181 C 0.37178 1.18849 0.54067
 C1182 C 0.38556 1.20289 0.56987
 C1183 C 0.36457 1.21927 0.59066
 H1184 H 0.33923 1.22310 0.58417
 O1185 O 0.38644 0.97483 0.66573
 O1186 O 0.34945 0.97548 0.70384
 C1187 C 0.37580 0.96418 0.69231
 C1188 C 0.39381 0.93745 0.70885
 C1189 C 0.38140 0.92240 0.73674
 H1190 H 0.35891 0.93090 0.74718
 O1191 O 0.62339 1.04886 0.66281
 O1192 O 0.66289 1.04965 0.69908
 C1193 C 0.63622 1.06081 0.68805
 C1194 C 0.62045 1.08905 0.70334
 C1195 C 0.63820 1.11026 0.72357
 H1196 H 0.66336 1.10510 0.72978
 O1197 O 0.47828 0.84625 0.62402
 O1198 O 0.48044 0.80961 0.66270
 C1199 C 0.46881 0.81958 0.63613
 C1200 C 0.44337 0.80063 0.61939
 C1201 C 0.43339 0.77019 0.63100
 H1202 H 0.44505 0.75965 0.65199
 O1203 O 0.53419 1.16443 0.61135
 O1204 O 0.53483 1.20519 0.64544
 C1205 C 0.54573 1.19164 0.62020
 C1206 C 0.57279 1.20724 0.60167
 C1207 C 0.58710 1.23633 0.61277
 H1208 H 0.57797 1.24782 0.63424
 O1209 O 0.34311 0.88383 0.54709
 O1210 O 0.30738 0.84370 0.54787
 C1211 C 0.31781 0.87052 0.55867
 C1212 C 0.30091 0.88570 0.58572
 C1213 C 0.27729 0.86814 0.60256
 H1214 H 0.27046 0.84391 0.59501
 O1215 O 0.66783 1.12094 0.52559
 O1216 O 0.70326 1.16123 0.52323
 C1217 C 0.69284 1.13553 0.53654
 C1218 C 0.70843 1.12411 0.56652
 C1219 C 0.72900 1.14513 0.58365
 H1220 H 0.73510 1.16877 0.57395
 O1221 O 0.53486 1.12593 0.66112
 O1222 O 0.53433 1.16678 0.69515
 C1223 C 0.54620 1.14017 0.68586
 C1224 C 0.57542 1.12749 0.70234
 C1225 C 0.59326 1.14807 0.72264
 H1226 H 0.58414 1.17196 0.72837
 O1227 O 0.47629 0.89297 0.66540
 O1228 O 0.47847 0.85648 0.70416
 C1229 C 0.46596 0.88190 0.69194
 C1230 C 0.43835 0.89781 0.70838
 C1231 C 0.42610 0.88409 0.73661
 H1232 H 0.43770 0.86301 0.74720
 O1233 O 0.66697 1.04776 0.61822
 O1234 O 0.70626 1.04821 0.65475
 C1235 C 0.69378 1.05913 0.62892
 C1236 C 0.70928 1.08664 0.61202
 C1237 C 0.73049 1.10783 0.62859
 H1238 H 0.73738 1.10292 0.65331
 O1239 O 0.33825 0.97079 0.62583
 O1240 O 0.30099 0.97209 0.66368
 C1241 C 0.31264 0.95912 0.63871
 C1242 C 0.29777 0.92912 0.62522
 C1243 C 0.27439 0.91075 0.64231
 H1244 H 0.26555 0.91915 0.66527
 O1245 O 0.61995 1.16111 0.52187
 O1246 O 0.65538 1.20128 0.51883
 C1247 C 0.62994 1.18870 0.53126
 C1248 C 0.61320 1.20579 0.55809
 C1249 C 0.62672 1.23472 0.56993
 H1250 H 0.64807 1.24521 0.55872
 O1251 O 0.39028 0.84237 0.54324
 O1252 O 0.35443 0.80237 0.54395
 C1253 C 0.38097 0.81500 0.55373
 C1254 C 0.40057 0.79839 0.57853
 C1255 C 0.39101 0.76799 0.59018
 H1256 H 0.37012 0.75588 0.57952
 O1257 O 0.62261 0.98559 0.66389
 O1258 O 0.66168 0.98590 0.70060
 C1259 C 0.63473 0.97485 0.68998
 C1260 C 0.61774 0.94855 0.70750
 C1261 C 0.62872 0.93843 0.73798
 H1262 H 0.64918 0.95050 0.74950
 O1263 O 0.38369 1.03833 0.66366
 O1264 O 0.34619 1.03976 0.70127
 C1265 C 0.37210 1.05106 0.68890
 C1266 C 0.38741 1.08065 0.70281
 C1267 C 0.36939 1.09969 0.72421
 H1268 H 0.34533 1.09193 0.73165
 O1269 O 0.47002 1.16573 0.61415
 O1270 O 0.47113 1.20667 0.64823
 C1271 C 0.45861 1.19240 0.62424
 C1272 C 0.42823 1.20511 0.61059
 C1273 C 0.40689 1.22154 0.63105
 H1274 H 0.41397 1.22699 0.65560
 O1275 O 0.54117 0.84860 0.62403
 O1276 O 0.54344 0.81192 0.66263
 C1277 C 0.55321 0.82276 0.63579
 C1278 C 0.57891 0.80565 0.61776
 C1279 C 0.59038 0.77471 0.62707
 H1280 H 0.58034 0.76265 0.64793
 O1281 O 0.66404 0.89601 0.53221
 O1282 O 0.70123 0.85762 0.53474
 C1283 C 0.69012 0.88482 0.54425
 C1284 C 0.70701 0.90329 0.57014
 C1285 C 0.73727 0.89281 0.58224
 H1286 H 0.74882 0.87164 0.57216
 O1287 O 0.34176 1.11660 0.52831
 O1288 O 0.30370 1.15421 0.52704
 C1289 C 0.31518 1.12797 0.53871
 C1290 C 0.29794 1.11162 0.56558
 C1291 C 0.26870 1.12471 0.57654
 H1292 H 0.25800 1.14548 0.56451
 Cu1293 Cu 0.50877 0.87456 0.64069
 Cu1294 Cu 0.51133 0.83088 0.68748
 Cu1295 Cu 0.50252 1.14085 0.63331
 Cu1296 Cu 0.50288 1.18985 0.67403
 Cu1297 Cu 0.36855 0.86823 0.51418
 Cu1298 Cu 0.32512 0.82020 0.51508
 Cu1299 Cu 0.63930 0.87448 0.50222
 Cu1300 Cu 0.68366 0.82836 0.50424
 Cu1301 Cu 0.36677 1.13671 0.49728
 Cu1302 Cu 0.32161 1.18249 0.49667
 Cu1303 Cu 0.64130 1.13501 0.49227
 Cu1304 Cu 0.68413 1.18298 0.48931
 Cu1305 Cu 0.36550 1.00445 0.63966
 Cu1306 Cu 0.32106 1.00621 0.68491
 Cu1307 Cu 0.64018 1.01678 0.63692
 Cu1308 Cu 0.68748 1.01681 0.68057
 C1309 C 0.59158 0.93195 0.69286
 H1310 H 0.58336 0.93909 0.66909
 C1311 C 0.61401 0.91209 0.75349
 C1312 C 0.41750 1.09254 0.69146
 H1313 H 0.43108 1.07833 0.67432
 C1314 C 0.38001 1.13062 0.73307
 C1315 C 0.31157 1.08505 0.58222
 H1316 H 0.33457 1.07526 0.57420
 C1317 C 0.25333 1.11248 0.60371
 C1318 C 0.69204 0.93055 0.58429
 H1319 H 0.66837 0.93848 0.57572
 C1320 C 0.75223 0.90916 0.60801
 C1321 C 0.59248 0.82091 0.59070
 H1322 H 0.58439 0.84485 0.58354
 C1323 C 0.61510 0.75959 0.60917
 C1324 C 0.41747 1.19577 0.57992
 H1325 H 0.43327 1.18167 0.56463
 C1326 C 0.37500 1.22778 0.62134
 C1327 C 0.42240 0.92483 0.69491
 H1328 H 0.43167 0.93533 0.67291
 C1329 C 0.39762 0.89557 0.75047
 C1330 C 0.58879 1.09771 0.69345
 H1331 H 0.57536 1.08223 0.67700
 C1332 C 0.62455 1.13997 0.73291
 C1333 C 0.42715 0.81425 0.59285
 H1334 H 0.43424 0.83804 0.58426
 C1335 C 0.40712 0.75395 0.61663
 C1336 C 0.58604 1.19219 0.57411
 H1337 H 0.57587 1.16946 0.56571
 C1338 C 0.61424 1.24986 0.59711
 C1339 C 0.31043 0.91638 0.59669
 H1340 H 0.32897 0.92972 0.58372
 C1341 C 0.26414 0.88024 0.63076
 C1342 C 0.69890 1.09473 0.58073
 H1343 H 0.68193 1.07898 0.56814
 C1344 C 0.73980 1.13732 0.61452
 O1345 O 0.61832 0.53616 1.16359
 O1346 O 0.65905 0.53774 1.19838
 C1347 C 0.63129 0.54773 1.18905
 C1348 C 0.61437 0.57360 1.20757
 C1349 C 0.62616 0.58345 1.23785
 H1350 H 0.64712 0.57145 1.24843
 O1351 O 0.38817 0.46334 1.16765
 O1352 O 0.35141 0.46086 1.20592
 C1353 C 0.37758 0.45044 1.19333
 C1354 C 0.39460 0.42158 1.20732
 C1355 C 0.37829 0.40146 1.22961
 H1356 H 0.35407 0.40766 1.23771
 O1357 O 0.53046 0.66339 1.12191
 O1358 O 0.53104 0.70194 1.15838
 C1359 C 0.54172 0.69021 1.13221
 C1360 C 0.56790 0.70711 1.11358
 C1361 C 0.58406 0.73499 1.12554
 H1362 H 0.57702 0.74493 1.14850
 O1363 O 0.47939 0.33478 1.11966
 O1364 O 0.48066 0.29631 1.15648
 C1365 C 0.46848 0.30818 1.13082
 C1366 C 0.44056 0.29185 1.11425
 C1367 C 0.42597 0.26358 1.12718
 H1368 H 0.43546 0.25289 1.14911
 O1369 O 0.65090 0.62140 1.02645
 O1370 O 0.68845 0.65974 1.02437
 C1371 C 0.67783 0.63331 1.03616
 C1372 C 0.69670 0.61684 1.06194
 C1373 C 0.72776 0.62841 1.07068
 H1374 H 0.73849 0.64873 1.05798
 O1375 O 0.34263 0.37968 1.03876
 O1376 O 0.30731 0.33927 1.03982
 C1377 C 0.31781 0.36599 1.05092
 C1378 C 0.30208 0.37977 1.07960
 C1379 C 0.28029 0.36037 1.09696
 H1380 H 0.27375 0.33640 1.08843
 O1381 O 0.46821 0.61777 1.16743
 O1382 O 0.46708 0.65655 1.20369
 C1383 C 0.45607 0.62981 1.19272
 C1384 C 0.42765 0.61341 1.20823
 C1385 C 0.40770 0.63055 1.22979
 H1386 H 0.41364 0.65532 1.23617
 O1387 O 0.54302 0.38020 1.16378
 O1388 O 0.54525 0.34185 1.20068
 C1389 C 0.55566 0.36855 1.18929
 C1390 C 0.58396 0.38556 1.20441
 C1391 C 0.60507 0.36922 1.22599
 H1392 H 0.59986 0.34450 1.23318
 O1393 O 0.66215 0.47376 1.11616
 O1394 O 0.70294 0.47657 1.15086
 C1395 C 0.68997 0.46404 1.12596
 C1396 C 0.70712 0.43706 1.10932
 C1397 C 0.73581 0.42424 1.12289
 H1398 H 0.74598 0.43463 1.14467
 O1399 O 0.33888 0.52605 1.12620
 O1400 O 0.30207 0.52457 1.16445
 C1401 C 0.31265 0.53674 1.13835
 C1402 C 0.29544 0.56444 1.12225
 C1403 C 0.26861 0.58039 1.13662
 H1404 H 0.25930 0.57206 1.15948
 O1405 O 0.37963 0.65571 1.03638
 O1406 O 0.33938 0.69094 1.03698
 C1407 C 0.36678 0.68112 1.04779
 C1408 C 0.38269 0.69864 1.07504
 C1409 C 0.36570 0.72365 1.09026
 H1410 H 0.34187 0.73089 1.08146
 O1411 O 0.62371 0.34096 1.03043
 O1412 O 0.66361 0.30539 1.02863
 C1413 C 0.63734 0.31541 1.04109
 C1414 C 0.62393 0.29827 1.06956
 C1415 C 0.64302 0.27499 1.08555
 H1416 H 0.66672 0.26854 1.07624
 O1417 O 0.38578 0.52754 1.16827
 O1418 O 0.34901 0.52547 1.20657
 C1419 C 0.37417 0.53853 1.19426
 C1420 C 0.38810 0.56844 1.20899
 C1421 C 0.36896 0.58613 1.23056
 H1422 H 0.34524 0.57705 1.23763
 O1423 O 0.61995 0.47213 1.16221
 O1424 O 0.66115 0.47395 1.19652
 C1425 C 0.63469 0.46097 1.18678
 C1426 C 0.62245 0.43118 1.20283
 C1427 C 0.64306 0.41429 1.22398
 H1428 H 0.66691 0.42401 1.22999
 O1429 O 0.54361 0.33640 1.11897
 O1430 O 0.54532 0.29812 1.15597
 C1431 C 0.55607 0.31042 1.13006
 C1432 C 0.58441 0.29555 1.11342
 C1433 C 0.60412 0.27208 1.12896
 H1434 H 0.59805 0.26367 1.15286
 O1435 O 0.46640 0.66164 1.12287
 O1436 O 0.46609 0.70057 1.15898
 C1437 C 0.45429 0.68779 1.13355
 C1438 C 0.42519 0.70230 1.11704
 C1439 C 0.40740 0.72751 1.13164
 H1440 H 0.41540 0.73740 1.15447
 O1441 O 0.33605 0.60985 1.03853
 O1442 O 0.29602 0.64534 1.03816
 C1443 C 0.30938 0.62022 1.04997
 C1444 C 0.29424 0.60438 1.07835
 C1445 C 0.26730 0.61906 1.09264
 H1446 H 0.25665 0.64060 1.08199
 O1447 O 0.66575 0.38830 1.02924
 O1448 O 0.70559 0.35269 1.02786
 C1449 C 0.69299 0.37806 1.03988
 C1450 C 0.70915 0.39511 1.06746
 C1451 C 0.73803 0.38284 1.08172
 H1452 H 0.74953 0.36153 1.07185
 O1453 O 0.47877 0.37984 1.16284
 O1454 O 0.48049 0.34148 1.19977
 C1455 C 0.46782 0.36733 1.18853
 C1456 C 0.43861 0.38126 1.20448
 C1457 C 0.42154 0.36190 1.22647
 H1458 H 0.43035 0.33790 1.23251
 O1459 O 0.53242 0.62055 1.16819
 O1460 O 0.53224 0.65850 1.20524
 C1461 C 0.54396 0.63231 1.19417
 C1462 C 0.57188 0.61537 1.21052
 C1463 C 0.58435 0.62499 1.24096
 H1464 H 0.57309 0.64482 1.25368
 O1465 O 0.34113 0.46206 1.12576
 O1466 O 0.30444 0.46004 1.16415
 C1467 C 0.31585 0.44916 1.13802
 C1468 C 0.30099 0.42001 1.12267
 C1469 C 0.27957 0.39960 1.13997
 H1470 H 0.27271 0.40570 1.16429
 O1471 O 0.65834 0.53744 1.11482
 O1472 O 0.69912 0.53974 1.14955
 C1473 C 0.68526 0.54977 1.12397
 C1474 C 0.70032 0.57637 1.10499
 C1475 C 0.73137 0.58851 1.11335
 H1476 H 0.74467 0.57799 1.13336
 O1477 O 0.38971 0.33731 1.03572
 O1478 O 0.35393 0.29732 1.03563
 C1479 C 0.38023 0.30989 1.04613
 C1480 C 0.39851 0.29280 1.07197
 C1481 C 0.38554 0.26405 1.08448
 H1482 H 0.36375 0.25344 1.07393
 O1483 O 0.60599 0.66527 1.02816
 O1484 O 0.64363 0.70346 1.02572
 C1485 C 0.61824 0.69162 1.03856
 C1486 C 0.60424 0.70795 1.06697
 C1487 C 0.61929 0.73605 1.07899
 H1488 H 0.63967 0.74691 1.06644
 Cu1489 Cu 0.63558 0.50490 1.13583
 Cu1490 Cu 0.68448 0.50744 1.17733
 Cu1491 Cu 0.36702 0.49494 1.14320
 Cu1492 Cu 0.32326 0.49259 1.18917
 Cu1493 Cu 0.49963 0.63711 1.14164
 Cu1494 Cu 0.49924 0.68317 1.18520
 Cu1495 Cu 0.51119 0.36151 1.13765
 Cu1496 Cu 0.51301 0.31574 1.18197
 C1497 C 0.58709 0.58948 1.19444
 H1498 H 0.57820 0.58213 1.17098
 C1499 C 0.61151 0.60881 1.25486
 C1500 C 0.42495 0.41122 1.19499
 H1501 H 0.43721 0.42574 1.17700
 C1502 C 0.39148 0.37140 1.23865
 C1503 C 0.57833 0.69394 1.08415
 H1504 H 0.56696 0.67205 1.07504
 C1505 C 0.61001 0.74939 1.10823
 C1506 C 0.42642 0.30629 1.08662
 H1507 H 0.43636 0.32871 1.07719
 C1508 C 0.39826 0.24986 1.11218
 C1509 C 0.68329 0.59057 1.07905
 H1510 H 0.65918 0.58174 1.07270
 C1511 C 0.74512 0.61451 1.09618
 C1512 C 0.31191 0.40981 1.09231
 H1513 H 0.32939 0.42447 1.07930
 C1514 C 0.26946 0.36967 1.12711
 C1515 C 0.41758 0.58221 1.19810
 H1516 H 0.43188 0.56926 1.18056
 C1517 C 0.37819 0.61712 1.24060
 C1518 C 0.59275 0.41678 1.19347
 H1519 H 0.57728 0.42918 1.17620
 C1520 C 0.63487 0.38348 1.23536
 C1521 C 0.69407 0.42239 1.08149
 H1522 H 0.67161 0.43170 1.07127
 C1523 C 0.75127 0.39730 1.10962
 C1524 C 0.30793 0.57687 1.09307
 H1525 H 0.32901 0.56573 1.08223
 C1526 C 0.25468 0.60796 1.12165
 C1527 C 0.41263 0.68829 1.08846
 H1528 H 0.42540 0.66831 1.07746
 C1529 C 0.37757 0.73796 1.11837
 C1530 C 0.59444 0.30806 1.08348
 H1531 H 0.58011 0.32672 1.07176
 C1532 C 0.63362 0.26201 1.11513
 O1533 O 0.60936 0.47063 0.83303
 O1534 O 0.64602 0.47302 0.79460
 C1535 C 0.62032 0.46067 0.80632
 C1536 C 0.60313 0.43382 0.78970
 C1537 C 0.61442 0.42080 0.76055
 H1538 H 0.63575 0.43103 0.74911
 O1539 O 0.37307 0.52365 0.84001
 O1540 O 0.33222 0.52265 0.80521
 C1541 C 0.35893 0.53480 0.81501
 C1542 C 0.37318 0.56282 0.79785
 C1543 C 0.35870 0.57463 0.76946
 H1544 H 0.33755 0.56259 0.75918
 O1545 O 0.45276 0.65860 0.88264
 O1546 O 0.45019 0.69638 0.84513
 C1547 C 0.44068 0.68475 0.87179
 C1548 C 0.41477 0.70114 0.89012
 C1549 C 0.40079 0.73017 0.87892
 H1550 H 0.40971 0.74140 0.85713
 O1551 O 0.53118 0.34249 0.88162
 O1552 O 0.53119 0.30352 0.84552
 C1553 C 0.54309 0.31634 0.87079
 C1554 C 0.57173 0.30094 0.88673
 C1555 C 0.58579 0.27363 0.87259
 H1556 H 0.57516 0.26325 0.85101
 O1557 O 0.66345 0.38781 0.96549
 O1558 O 0.70298 0.35179 0.96390
 C1559 C 0.68922 0.37693 0.95261
 C1560 C 0.70171 0.39189 0.92261
 C1561 C 0.72226 0.37387 0.90238
 H1562 H 0.73054 0.35001 0.90958
 O1563 O 0.33412 0.60853 0.97518
 O1564 O 0.29417 0.64410 0.97521
 C1565 C 0.30676 0.61826 0.96436
 C1566 C 0.29005 0.59970 0.93832
 C1567 C 0.25964 0.60977 0.92554
 H1568 H 0.24772 0.63106 0.93494
 O1569 O 0.51558 0.61547 0.83766
 O1570 O 0.51336 0.65303 0.79991
 C1571 C 0.52565 0.62713 0.81129
 C1572 C 0.55266 0.61106 0.79427
 C1573 C 0.56380 0.62353 0.76496
 H1574 H 0.55190 0.64422 0.75395
 O1575 O 0.46273 0.37989 0.83656
 O1576 O 0.46288 0.34059 0.80072
 C1577 C 0.45056 0.36646 0.81160
 C1578 C 0.42085 0.38049 0.79636
 C1579 C 0.40116 0.36238 0.77482
 H1580 H 0.40825 0.33811 0.76800
 O1581 O 0.65157 0.53433 0.87833
 O1582 O 0.68904 0.53669 0.84066
 C1583 C 0.67744 0.54673 0.86703
 C1584 C 0.69354 0.57365 0.88444
 C1585 C 0.72402 0.58563 0.87447
 H1586 H 0.73645 0.57463 0.85442
 O1587 O 0.33389 0.45802 0.88579
 O1588 O 0.29305 0.45736 0.85098
 C1589 C 0.30662 0.44654 0.87628
 C1590 C 0.29098 0.41990 0.89450
 C1591 C 0.26237 0.40484 0.88293
 H1592 H 0.25103 0.41341 0.86093
 O1593 O 0.60312 0.66511 0.96476
 O1594 O 0.64065 0.70344 0.96277
 C1595 C 0.61387 0.69143 0.95282
 C1596 C 0.59552 0.70754 0.92638
 C1597 C 0.60582 0.73763 0.91394
 H1598 H 0.62670 0.74985 0.92447
 O1599 O 0.38552 0.33925 0.97258
 O1600 O 0.34859 0.30014 0.97308
 C1601 C 0.37327 0.31366 0.96056
 C1602 C 0.38563 0.30105 0.93001
 C1603 C 0.36361 0.28576 0.90891
 H1604 H 0.33849 0.28173 0.91582
 O1605 O 0.37731 0.46029 0.84029
 O1606 O 0.33607 0.45965 0.80595
 C1607 C 0.36366 0.44916 0.81515
 C1608 C 0.37872 0.42206 0.79779
 C1609 C 0.35998 0.40422 0.77577
 H1610 H 0.33545 0.41187 0.76963
 O1611 O 0.60510 0.53331 0.83600
 O1612 O 0.64222 0.53588 0.79799
 C1613 C 0.61547 0.54538 0.80990
 C1614 C 0.59672 0.57130 0.79365
 C1615 C 0.60748 0.58423 0.76431
 H1616 H 0.62901 0.57455 0.75297
 O1617 O 0.46741 0.34059 0.88451
 O1618 O 0.46720 0.30167 0.84818
 C1619 C 0.45602 0.31421 0.87363
 C1620 C 0.42672 0.30017 0.88811
 C1621 C 0.40463 0.28409 0.86779
 H1622 H 0.41081 0.27911 0.84302
 O1623 O 0.51596 0.66063 0.88058
 O1624 O 0.51359 0.69840 0.84303
 C1625 C 0.52589 0.68737 0.86895
 C1626 C 0.55250 0.70539 0.88535
 C1627 C 0.56304 0.73549 0.87344
 H1628 H 0.55110 0.74628 0.85273
 O1629 O 0.33783 0.37935 0.97574
 O1630 O 0.30163 0.33971 0.97771
 C1631 C 0.31143 0.36630 0.96582
 C1632 C 0.29301 0.38105 0.93881
 C1633 C 0.26458 0.36610 0.92672
 H1634 H 0.25479 0.34467 0.93831
 O1635 O 0.64824 0.62080 0.96369
 O1636 O 0.68567 0.65926 0.96215
 C1637 C 0.67434 0.63248 0.95202
 C1638 C 0.69171 0.61530 0.92608
 C1639 C 0.72224 0.62658 0.91595
 H1640 H 0.73362 0.64719 0.92767
 O1641 O 0.52608 0.38582 0.83617
 O1642 O 0.52596 0.34692 0.79993
 C1643 C 0.53608 0.37426 0.80986
 C1644 C 0.56087 0.39206 0.79142
 C1645 C 0.57164 0.38007 0.76201
 H1646 H 0.56034 0.35873 0.75158
 O1647 O 0.45196 0.61462 0.83816
 O1648 O 0.44948 0.65216 0.80042
 C1649 C 0.43954 0.62551 0.81223
 C1650 C 0.41269 0.60727 0.79634
 C1651 C 0.39814 0.61853 0.76770
 H1652 H 0.40735 0.64032 0.75635
 O1653 O 0.33608 0.52075 0.88994
 O1654 O 0.29524 0.51974 0.85515
 C1655 C 0.30838 0.53071 0.88069
 C1656 C 0.29119 0.55612 0.89858
 C1657 C 0.26062 0.56578 0.88734
 H1658 H 0.24909 0.55348 0.86724
 O1659 O 0.65295 0.47104 0.87842
 O1660 O 0.68957 0.47309 0.83989
 C1661 C 0.67904 0.46078 0.86588
 C1662 C 0.69622 0.43275 0.88018
 C1663 C 0.71659 0.41425 0.86059
 H1664 H 0.72074 0.42135 0.83585
 O1665 O 0.62025 0.34227 0.96720
 O1666 O 0.65978 0.30630 0.96531
 C1667 C 0.63251 0.31693 0.95495
 C1668 C 0.61551 0.30074 0.92744
 C1669 C 0.62935 0.27350 0.91224
 H1670 H 0.65199 0.26336 0.92119
 O1671 O 0.37505 0.65691 0.97313
 O1672 O 0.33505 0.69242 0.97405
 C1673 C 0.36153 0.68244 0.96215
 C1674 C 0.37604 0.69996 0.93448
 C1675 C 0.36208 0.72878 0.92266
 H1676 H 0.34115 0.73921 0.93447
 Cu1677 Cu 0.62606 0.50208 0.86026
 Cu1678 Cu 0.67061 0.50507 0.81459
 Cu1679 Cu 0.35940 0.49053 0.86729
 Cu1680 Cu 0.31007 0.48991 0.82581
 Cu1681 Cu 0.62313 0.63942 0.99582
 Cu1682 Cu 0.66822 0.68539 0.99349
 Cu1683 Cu 0.63949 0.36844 0.99836
 Cu1684 Cu 0.68697 0.32559 0.99638
 Cu1685 Cu 0.36019 0.62922 1.00557
 Cu1686 Cu 0.31224 0.67169 1.00619
 Cu1687 Cu 0.36756 0.36297 1.00574
 Cu1688 Cu 0.32443 0.31499 1.00702
 Cu1689 Cu 0.48418 0.63352 0.86348
 Cu1690 Cu 0.48142 0.67872 0.81826
 Cu1691 Cu 0.49698 0.36615 0.86326
 Cu1692 Cu 0.49732 0.31898 0.82021
 C1693 C 0.57615 0.41936 0.80467
 H1694 H 0.56786 0.42849 0.82757
 C1695 C 0.59846 0.39385 0.74674
 C1696 C 0.40026 0.57913 0.81092
 H1697 H 0.41108 0.57044 0.83313
 C1698 C 0.37107 0.60222 0.75419
 C1699 C 0.40257 0.68659 0.91818
 H1700 H 0.41300 0.66405 0.92672
 C1701 C 0.37435 0.74403 0.89509
 C1702 C 0.58658 0.31421 0.91440
 H1703 H 0.57612 0.33560 0.92519
 C1704 C 0.61446 0.26010 0.88467
 C1705 C 0.68894 0.42151 0.91130
 H1706 H 0.67212 0.43498 0.92605
 C1707 C 0.72912 0.38478 0.87124
 C1708 C 0.30566 0.57273 0.92447
 H1709 H 0.32952 0.56536 0.93303
 C1710 C 0.24519 0.59260 0.89983
 C1711 C 0.56906 0.58465 0.80831
 H1712 H 0.56098 0.57521 0.83123
 C1713 C 0.59111 0.61041 0.75007
 C1714 C 0.40949 0.41058 0.80714
 H1715 H 0.42369 0.42416 0.82460
 C1716 C 0.37063 0.37433 0.76455
 C1717 C 0.67766 0.58852 0.91044
 H1718 H 0.65393 0.57985 0.91792
 C1719 C 0.73836 0.61206 0.89037
 C1720 C 0.30578 0.40811 0.92270
 H1721 H 0.32807 0.41929 0.93146
 C1722 C 0.24920 0.37776 0.89889
 C1723 C 0.56865 0.69181 0.91206
 H1724 H 0.56091 0.66839 0.92109
 C1725 C 0.58956 0.75165 0.88744
 C1726 C 0.41719 0.30858 0.91937
 H1727 H 0.43365 0.32226 0.93471
 C1728 C 0.37297 0.27802 0.87779
 N1729 N 1.15328 1.15908 1.27355
 N1730 N 1.14305 1.15594 1.24579
 N1731 N 1.13315 0.61634 0.79459
 N1732 N 1.11008 0.62694 0.77686
 N1733 N 0.65403 1.16609 0.77365
 N1734 N 0.64442 1.16542 0.74559
 N1735 N 0.61533 0.64045 1.30339
 N1736 N 0.62529 0.61722 1.28588
 N1737 N 0.85468 0.83974 1.26545
 N1738 N 0.86018 0.84590 1.23703
 N1739 N 0.85606 0.34545 0.77644
 N1740 N 0.86509 0.34511 0.74822
 N1741 N 0.35623 0.88137 0.78775
 N1742 N 0.38468 0.87723 0.77673
 N1743 N 0.36112 0.34762 1.28051
 N1744 N 0.37155 0.34680 1.25284
 N1745 N 0.84885 1.14329 0.73144
 N1746 N 0.84965 1.13450 0.75967
 N1747 N 0.88329 0.62950 0.20253
 N1748 N 0.87319 0.60565 0.21897
 N1749 N 0.34336 1.14808 0.23811
 N1750 N 0.34267 1.13999 0.26648
 N1751 N 0.36757 0.63619 0.70859
 N1752 N 0.35499 0.61393 0.72570
 N1753 N 1.12672 0.89215 0.70654
 N1754 N 1.10118 0.88328 0.72109
 N1755 N 1.15031 0.35357 0.22956
 N1756 N 1.14678 0.36259 0.25741
 N1757 N 0.65262 0.84297 0.24197
 N1758 N 0.64773 0.84610 0.27084
 N1759 N 0.63809 0.38339 0.70678
 N1760 N 0.61044 0.37754 0.71902
 N1761 N 1.28412 1.15588 1.14556
 N1762 N 1.25682 1.15542 1.13312
 N1763 N 1.27437 0.65265 0.64208
 N1764 N 1.24471 0.65222 0.63732
 N1765 N 0.78195 1.16036 0.64477
 N1766 N 0.75433 1.16240 0.63329
 N1767 N 0.79306 0.61785 1.12840
 N1768 N 0.77607 0.62830 1.10489
 N1769 N 1.26870 0.84396 0.84983
 N1770 N 1.23948 0.84439 0.85602
 N1771 N 1.27361 0.36002 0.34655
 N1772 N 1.24465 0.36765 0.34708
 N1773 N 0.79385 0.87005 0.35383
 N1774 N 0.77559 0.86227 0.37713
 N1775 N 0.77054 0.35631 0.84557
 N1776 N 0.74143 0.36293 0.84783
 N1777 N 0.71331 0.86789 1.15017
 N1778 N 0.72512 0.86109 1.12288
 N1779 N 0.72413 0.34588 0.64366
 N1780 N 0.75368 0.34439 0.63913
 N1781 N 0.21595 0.85721 0.64993
 N1782 N 0.24596 0.85846 0.65050
 N1783 N 0.22658 0.34211 1.15238
 N1784 N 0.25598 0.34507 1.14730
 N1785 N 0.73876 1.14861 0.84260
 N1786 N 0.76643 1.13753 0.84466
 N1787 N 0.69618 0.62199 0.38899
 N1788 N 0.71363 0.60148 0.37474
 N1789 N 0.24290 1.15611 0.33966
 N1790 N 0.27141 1.14872 0.34464
 N1791 N 0.20055 0.62804 0.89033
 N1792 N 0.21642 0.60284 0.88325
 N1793 N 1.12827 1.28113 1.14481
 N1794 N 1.13700 1.26640 1.11949
 N1795 N 1.11554 0.79960 0.63774
 N1796 N 1.12617 0.78040 0.61647
 N1797 N 0.62158 1.29487 0.63253
 N1798 N 0.63173 1.27729 0.60965
 N1799 N 0.62541 0.78593 1.14925
 N1800 N 0.62925 0.77581 1.12077
 N1801 N 0.85624 1.28699 0.87417
 N1802 N 0.88177 1.27173 0.86617
 N1803 N 0.81660 0.75916 0.33265
 N1804 N 0.82456 0.73530 0.35072
 N1805 N 0.35843 1.29008 0.37808
 N1806 N 0.38361 1.27437 0.36974
 N1807 N 0.36890 0.78962 0.86003
 N1808 N 0.35779 0.77203 0.88271
 N1809 N 1.11476 0.70348 0.86982
 N1810 N 1.12403 0.71836 0.89502
 N1811 N 1.15486 0.21981 0.37061
 N1812 N 1.12741 0.23269 0.36482
 N1813 N 0.62548 0.70971 0.39739
 N1814 N 0.60359 0.72861 0.38729
 N1815 N 0.65516 0.22015 0.87362
 N1816 N 0.62863 0.23438 0.86644
 N1817 N 0.87356 0.70230 1.11353
 N1818 N 0.89862 0.71728 1.12399
 N1819 N 0.88599 0.20733 0.64468
 N1820 N 0.87891 0.22016 0.61769
 N1821 N 0.36821 0.71243 0.62137
 N1822 N 0.39455 0.72528 0.63148
 N1823 N 0.38482 0.21110 1.15312
 N1824 N 0.37969 0.22378 1.12569
 N1825 N 1.11647 1.13750 0.70754
 N1826 N 1.12379 1.11087 0.72110
 N1827 N 1.14473 0.65929 0.24337
 N1828 N 1.13372 0.65947 0.27072
 N1829 N 0.64653 1.14617 0.22617
 N1830 N 0.64042 1.14284 0.25487
 N1831 N 0.62785 0.61628 0.70647
 N1832 N 0.60293 0.62588 0.72170
 N1833 N 0.86689 0.88083 0.70600
 N1834 N 0.88896 0.86883 0.72391
 N1835 N 0.85287 0.35021 0.21572
 N1836 N 0.85353 0.35303 0.24513
 N1837 N 0.39239 0.86864 0.21075
 N1838 N 0.38191 0.89346 0.22531
 N1839 N 0.34329 0.34760 0.72232
 N1840 N 0.34657 0.35300 0.75127
 N1841 N 1.14716 0.86233 1.28781
 N1842 N 1.14876 0.86521 1.25843
 N1843 N 1.11925 0.35896 0.78303
 N1844 N 1.12603 0.38639 0.77082
 N1845 N 0.61553 0.87660 0.79828
 N1846 N 0.62726 0.90091 0.78335
 N1847 N 0.65916 0.35134 1.27594
 N1848 N 0.66053 0.36469 1.24947
 N1849 N 0.85106 1.14731 1.27086
 N1850 N 0.85277 1.13816 1.24268
 N1851 N 0.87997 0.63574 0.78961
 N1852 N 0.87186 0.61206 0.77178
 N1853 N 0.35124 1.15797 0.77374
 N1854 N 0.35632 1.15287 0.74501
 N1855 N 0.35268 0.64451 1.28295
 N1856 N 0.35372 0.63742 1.25423
 N1857 N 1.14934 1.27115 0.84785
 N1858 N 1.14862 1.24156 0.85140
 N1859 N 1.12751 0.80109 0.38247
 N1860 N 1.10476 0.78381 0.37062
 N1861 N 0.65173 1.25770 0.33509
 N1862 N 0.64563 1.22860 0.33634
 N1863 N 0.62504 0.79709 0.88350
 N1864 N 0.60028 0.78150 0.87321
 N1865 N 0.88757 1.28758 1.12994
 N1866 N 0.88136 1.27421 1.10318
 N1867 N 0.88128 0.79425 0.62997
 N1868 N 0.87052 0.77830 0.60604
 N1869 N 0.34631 1.26618 0.64922
 N1870 N 0.35169 1.23740 0.64440
 N1871 N 0.35806 0.78617 1.14135
 N1872 N 0.35530 0.75677 1.13685
 N1873 N 0.86276 0.69925 0.88551
 N1874 N 0.88928 0.71410 0.88028
 N1875 N 0.85075 0.23613 0.33695
 N1876 N 0.85395 0.26528 0.34173
 N1877 N 0.38248 0.71735 0.36464
 N1878 N 0.37497 0.73083 0.39095
 N1879 N 0.34642 0.23949 0.84770
 N1880 N 0.34913 0.26817 0.85492
 N1881 N 1.16220 0.72414 1.15698
 N1882 N 1.16225 0.75242 1.14740
 N1883 N 1.15266 0.22061 0.63892
 N1884 N 1.15461 0.24964 0.63230
 N1885 N 0.61889 0.71118 0.64028
 N1886 N 0.62876 0.72878 0.61728
 N1887 N 0.65759 0.21771 1.14269
 N1888 N 0.65829 0.24635 1.13412
 N1889 N 1.29116 1.14429 0.87082
 N1890 N 1.27778 1.11763 0.86321
 N1891 N 1.29048 0.64663 0.37864
 N1892 N 1.27172 0.62414 0.36886
 N1893 N 0.79511 1.14469 0.37068
 N1894 N 0.78126 1.11783 0.36498
 N1895 N 0.78556 0.61642 0.85703
 N1896 N 0.76897 0.62561 0.88103
 N1897 N 1.30540 0.88812 1.13720
 N1898 N 1.28559 0.87872 1.11565
 N1899 N 1.28520 0.35799 0.62318
 N1900 N 1.27148 0.38447 0.63053
 N1901 N 0.79685 0.87312 0.61318
 N1902 N 0.78151 0.89786 0.62282
 N1903 N 0.79701 0.36163 1.11611
 N1904 N 0.77903 0.38430 1.12663
 N1905 N 0.71301 1.11748 1.13995
 N1906 N 0.72827 1.12554 1.11468
 N1907 N 0.70401 0.63286 0.61956
 N1908 N 0.71952 0.60730 0.62738
 N1909 N 0.20672 1.11993 0.63693
 N1910 N 0.22521 1.12961 0.61452
 N1911 N 0.21557 0.62223 1.16230
 N1912 N 0.22941 0.62741 1.13551
 N1913 N 0.70499 0.88232 0.87237
 N1914 N 0.72216 0.87039 0.89491
 N1915 N 0.70994 0.34545 0.37740
 N1916 N 0.72287 0.37292 0.37228
 N1917 N 0.20231 0.89039 0.38091
 N1918 N 0.21556 0.88068 0.40683
 N1919 N 0.20491 0.37067 0.86243
 N1920 N 0.22183 0.36015 0.88600
   
