data_POSCAR
  _audit_creation_date              2014-09-24
  _audit_creation_method            'ToBaCCo'
  _symmetry_space_group_name_H-M    'P1'
  _symmetry_Int_Tables_number       1
  _symmetry_cell_setting            triclinic
  loop_
  _symmetry_equiv_pos_as_xyz
 x,y,z
_cell_length_a 37.2582
_cell_length_b 37.4277
_cell_length_c 37.7631
_cell_angle_alpha 90.699600
_cell_angle_beta 90.369900
_cell_angle_gamma 90.343100
loop_
  _atom_site_label
  _atom_site_type_symbol
  _atom_site_fract_x
  _atom_site_fract_y
  _atom_site_fract_z
O1 O 0.88790 0.19263 0.79417
 O2 O 0.93760 0.15637 0.78515
 O3 O 0.80070 0.11570 0.80017
 O4 O 0.79018 0.06622 0.83041
 O5 O 0.80615 0.20013 0.87570
 O6 O 0.84081 0.21112 0.92749
 O7 O 0.89508 0.02488 0.89993
 O8 O 0.86841 0.01689 0.84262
 O9 O 0.97840 0.09742 0.88738
 O10 O 0.98317 0.15941 0.86539
 O11 O 0.90492 0.10599 0.96973
 O12 O 0.84370 0.13416 0.97444
 O13 O 0.87315 0.05384 0.94842
 O14 O 0.81717 0.08969 0.95533
 O15 O 0.95583 0.12402 0.94218
 O16 O 0.96351 0.18339 0.90979
 O17 O 0.95032 0.04640 0.86885
 O18 O 0.91626 0.03611 0.81397
 O19 O 0.87017 0.22297 0.84360
 O20 O 0.88699 0.22875 0.90437
 O21 O 0.77789 0.14908 0.85731
 O22 O 0.77505 0.08926 0.88227
 O23 O 0.85100 0.13467 0.77196
 O24 O 0.91122 0.10980 0.76853
 Zr25 Zr 0.89072 0.13971 0.81168
 O26 O 0.92500 0.10865 0.84317
 Zr27 Zr 0.81814 0.11053 0.85267
 O28 O 0.84889 0.07690 0.88516
 Zr29 Zr 0.86017 0.18374 0.88230
 O30 O 0.89223 0.15358 0.91726
 Zr31 Zr 0.89698 0.06301 0.85976
 O32 O 0.86369 0.09234 0.82506
 Zr33 Zr 0.93820 0.13616 0.89040
 O34 O 0.90799 0.16930 0.85663
 Zr35 Zr 0.86514 0.10617 0.93040
 O36 O 0.83126 0.13868 0.89949
 O37 O 0.84410 0.15696 0.83640
 O38 O 0.91220 0.08979 0.90592
 C39 C 0.88143 0.22157 0.81136
 C40 C 0.81778 0.12509 0.77242
 C41 C 0.77785 0.18212 0.86677
 C42 C 0.88549 0.02608 0.93256
 C43 C 0.97823 0.06395 0.87949
 C44 C 0.93887 0.11167 0.96895
 H45 H 0.94665 0.10259 0.82943
 H46 H 0.89855 0.16791 0.93855
 H47 H 0.82933 0.17239 0.82104
 H48 H 0.83484 0.05536 0.89124
 H49 H 0.85307 0.02418 0.82248
 H50 H 0.80004 0.04448 0.84135
 H51 H 0.95410 0.18868 0.93371
 H52 H 0.91221 0.22716 0.89648
 H53 H 0.93620 0.05034 0.80414
 H54 H 0.89756 0.08703 0.76752
 H55 H 0.86047 0.15380 0.98088
 H56 H 0.82622 0.19360 0.94064
 H57 H 0.95105 0.17189 0.80206
 H58 H 0.98828 0.14499 0.84390
 H59 H 0.77274 0.10427 0.90390
 H60 H 0.80872 0.06749 0.94340
 O61 O 0.80340 0.70649 0.37891
 O62 O 0.83641 0.71757 0.43239
 O63 O 0.88668 0.69448 0.30075
 O64 O 0.93675 0.66098 0.29602
 O65 O 0.79912 0.62339 0.30421
 O66 O 0.78862 0.56902 0.33869
 O67 O 0.97161 0.59944 0.40059
 O68 O 0.97879 0.65591 0.37289
 O69 O 0.89626 0.61591 0.47991
 O70 O 0.83445 0.64504 0.48013
 O71 O 0.87891 0.52888 0.41172
 O72 O 0.86137 0.52368 0.34649
 O73 O 0.94214 0.54865 0.38348
 O74 O 0.91177 0.53375 0.33126
 O75 O 0.85902 0.56119 0.45898
 O76 O 0.80884 0.59988 0.46505
 O77 O 0.94841 0.63136 0.45299
 O78 O 0.95831 0.68359 0.42472
 O79 O 0.77427 0.65603 0.36015
 O80 O 0.76639 0.59698 0.38213
 O81 O 0.85203 0.63891 0.27869
 O82 O 0.91049 0.60948 0.27954
 O83 O 0.86431 0.72600 0.34753
 O84 O 0.88323 0.73404 0.41014
 Zr85 Zr 0.85635 0.68884 0.38825
 O86 O 0.88637 0.65911 0.42485
 Zr87 Zr 0.88931 0.64227 0.32036
 O88 O 0.92012 0.61012 0.35412
 Zr89 Zr 0.81362 0.61630 0.35803
 O90 O 0.84111 0.58365 0.39409
 Zr91 Zr 0.93254 0.63902 0.40048
 O92 O 0.90523 0.67304 0.36509
 Zr93 Zr 0.85716 0.61346 0.43919
 O94 O 0.82526 0.64509 0.40516
 Zr95 Zr 0.88954 0.56635 0.37154
 O96 O 0.86006 0.59608 0.33361
 O97 O 0.84207 0.66108 0.34252
 O98 O 0.90456 0.59388 0.41752
 C99 C 0.77517 0.68941 0.36843
 C100 C 0.87618 0.72353 0.31565
 C101 C 0.81815 0.63256 0.27743
 C102 C 0.97046 0.56584 0.39380
 C103 C 0.93016 0.62278 0.48020
 C104 C 0.86668 0.53157 0.44349
 H105 H 0.89287 0.67438 0.44550
 H106 H 0.82498 0.56359 0.40009
 H107 H 0.82807 0.67644 0.32647
 H108 H 0.94204 0.60232 0.34169
 H109 H 0.97209 0.67758 0.35966
 H110 H 0.95726 0.64854 0.30701
 H111 H 0.79618 0.58200 0.44997
 H112 H 0.76455 0.60956 0.40526
 H113 H 0.94981 0.70491 0.41212
 H114 H 0.90445 0.73883 0.39527
 H115 H 0.83875 0.52010 0.35960
 H116 H 0.80450 0.55905 0.32016
 H117 H 0.81861 0.70178 0.44379
 H118 H 0.85189 0.66403 0.48674
 H119 H 0.89474 0.58814 0.27752
 H120 H 0.92585 0.54959 0.31577
 O121 O 0.38072 0.18688 0.29361
 O122 O 0.43293 0.15047 0.29041
 O123 O 0.29460 0.11420 0.29970
 O124 O 0.28701 0.06000 0.33560
 O125 O 0.29432 0.19844 0.37362
 O126 O 0.33088 0.21690 0.42279
 O127 O 0.37970 0.02834 0.41144
 O128 O 0.36622 0.01423 0.35334
 O129 O 0.46851 0.10253 0.39725
 O130 O 0.47038 0.16388 0.36753
 O131 O 0.39167 0.11887 0.47574
 O132 O 0.32860 0.14429 0.47439
 O133 O 0.35940 0.06150 0.45785
 O134 O 0.30530 0.09737 0.46053
 O135 O 0.44297 0.13637 0.44854
 O136 O 0.45357 0.18642 0.41561
 O137 O 0.44208 0.04974 0.38146
 O138 O 0.40675 0.03401 0.32550
 O139 O 0.34944 0.21889 0.33474
 O140 O 0.37581 0.23341 0.39373
 O141 O 0.26783 0.14624 0.35565
 O142 O 0.26400 0.08738 0.37921
 O143 O 0.34726 0.12997 0.27372
 O144 O 0.40670 0.10308 0.27533
 Zr145 Zr 0.38437 0.13602 0.31530
 O146 O 0.41710 0.10798 0.35056
 Zr147 Zr 0.30958 0.10887 0.35388
 O148 O 0.33900 0.07963 0.39124
 Zr149 Zr 0.34894 0.18528 0.37982
 O150 O 0.38000 0.15899 0.41843
 Zr151 Zr 0.38841 0.06389 0.36970
 O152 O 0.35695 0.08949 0.33058
 Zr153 Zr 0.42741 0.14019 0.39536
 O154 O 0.39854 0.17038 0.35783
 Zr155 Zr 0.35336 0.11239 0.43492
 O156 O 0.32017 0.14087 0.39931
 O157 O 0.33602 0.15376 0.33627
 O158 O 0.40193 0.09443 0.41432
 C159 C 0.36277 0.21417 0.30355
 C160 C 0.31337 0.12353 0.27270
 C161 C 0.26688 0.17954 0.36420
 C162 C 0.36799 0.03159 0.44333
 C163 C 0.46939 0.06884 0.39100
 C164 C 0.42508 0.12763 0.47596
 H165 H 0.43929 0.10101 0.33812
 H166 H 0.38534 0.17550 0.43844
 H167 H 0.32031 0.16714 0.32008
 H168 H 0.32416 0.05892 0.39820
 H169 H 0.33988 0.01647 0.35538
 H170 H 0.30325 0.05055 0.31711
 H171 H 0.43512 0.20516 0.41760
 H172 H 0.39718 0.23504 0.37835
 H173 H 0.42887 0.04566 0.31685
 H174 H 0.39234 0.08075 0.27457
 H175 H 0.34500 0.16435 0.48047
 H176 H 0.31521 0.20124 0.43698
 H177 H 0.44354 0.17027 0.30466
 H178 H 0.47983 0.14573 0.35081
 H179 H 0.26187 0.10034 0.40209
 H180 H 0.29551 0.07606 0.44799
 O181 O 0.13379 0.35100 0.27799
 O182 O 0.11412 0.41205 0.27686
 O183 O 0.22034 0.35989 0.35452
 O184 O 0.22769 0.37113 0.41176
 O185 O 0.14125 0.27234 0.35881
 O186 O 0.08073 0.26961 0.37955
 O187 O 0.12111 0.44692 0.45300
 O188 O 0.17977 0.45247 0.42682
 O189 O 0.04524 0.44721 0.37670
 O190 O 0.03515 0.41496 0.31994
 O191 O 0.04686 0.36779 0.45268
 O192 O 0.07983 0.31029 0.45858
 O193 O 0.09979 0.39582 0.47738
 O194 O 0.12535 0.33351 0.47952
 O195 O 0.02033 0.39221 0.40432
 O196 O 0.01491 0.36977 0.34118
 O197 O 0.09603 0.47261 0.39968
 O198 O 0.15824 0.47647 0.37708
 O199 O 0.11191 0.30011 0.30256
 O200 O 0.05682 0.29263 0.33450
 O201 O 0.19269 0.29774 0.38039
 O202 O 0.19883 0.32995 0.43843
 O203 O 0.19343 0.38138 0.30491
 O204 O 0.16047 0.43517 0.29850
 Zr205 Zr 0.13971 0.38768 0.32039
 O206 O 0.10771 0.42122 0.35205
 Zr207 Zr 0.17855 0.35149 0.39076
 O208 O 0.14855 0.38391 0.42577
 Zr209 Zr 0.10480 0.31461 0.35586
 O210 O 0.07135 0.34477 0.38930
 Zr211 Zr 0.13379 0.43139 0.40071
 O212 O 0.16792 0.40126 0.36737
 Zr213 Zr 0.06036 0.39407 0.36557
 O214 O 0.09040 0.36208 0.33016
 Zr215 Zr 0.09957 0.35800 0.43605
 O216 O 0.13138 0.32384 0.40438
 O217 O 0.15314 0.33924 0.34304
 O218 O 0.08578 0.40636 0.41327
 C219 C 0.12282 0.31836 0.27618
 C220 C 0.22106 0.37129 0.32251
 C221 C 0.17425 0.27091 0.36861
 C222 C 0.10727 0.42931 0.47859
 C223 C 0.06291 0.47366 0.39021
 C224 C 0.02016 0.38186 0.43661
 H225 H 0.10257 0.44341 0.33912
 H226 H 0.04920 0.33110 0.39418
 H227 H 0.16842 0.32458 0.32726
 H228 H 0.16233 0.38919 0.44770
 H229 H 0.20078 0.44438 0.41302
 H230 H 0.22185 0.39117 0.42798
 H231 H 0.00809 0.34875 0.35532
 H232 H 0.04698 0.31062 0.31814
 H233 H 0.14395 0.48290 0.35598
 H234 H 0.17741 0.44538 0.31627
 H235 H 0.05811 0.30286 0.44514
 H236 H 0.09190 0.26736 0.40326
 H237 H 0.08981 0.40133 0.27505
 H238 H 0.04991 0.43522 0.31167
 H239 H 0.18273 0.30995 0.44486
 H240 H 0.14560 0.34903 0.48718
 O241 O 0.64296 0.86135 0.26898
 O242 O 0.61865 0.92158 0.26702
 O243 O 0.72936 0.87750 0.34325
 O244 O 0.73738 0.88847 0.40053
 O245 O 0.65335 0.78559 0.35245
 O246 O 0.59296 0.78113 0.37257
 O247 O 0.62701 0.96072 0.44240
 O248 O 0.68584 0.96773 0.41574
 O249 O 0.55084 0.95629 0.36819
 O250 O 0.54168 0.92370 0.31109
 O251 O 0.55637 0.87842 0.44419
 O252 O 0.59287 0.82206 0.45013
 O253 O 0.60826 0.90911 0.46768
 O254 O 0.63638 0.84868 0.47141
 O255 O 0.52848 0.90065 0.39551
 O256 O 0.52353 0.87763 0.33270
 O257 O 0.60100 0.98430 0.38952
 O258 O 0.66260 0.99034 0.36555
 O259 O 0.62334 0.81049 0.29531
 O260 O 0.56866 0.80191 0.32698
 O261 O 0.70447 0.81297 0.37224
 O262 O 0.71105 0.84755 0.42845
 O263 O 0.70039 0.89603 0.29356
 O264 O 0.66494 0.94744 0.28678
 Zr265 Zr 0.64689 0.89969 0.31030
 O266 O 0.61419 0.93265 0.34202
 Zr267 Zr 0.68863 0.86676 0.38071
 O268 O 0.65752 0.89828 0.41578
 Zr269 Zr 0.61564 0.82632 0.34795
 O270 O 0.58129 0.85560 0.38108
 Zr271 Zr 0.64043 0.94470 0.39026
 O272 O 0.67521 0.91550 0.35666
 Zr273 Zr 0.56813 0.90395 0.35655
 O274 O 0.59885 0.87241 0.32133
 Zr275 Zr 0.60959 0.87068 0.42719
 O276 O 0.64269 0.83761 0.39574
 O277 O 0.66293 0.85237 0.33380
 O278 O 0.59365 0.91794 0.40370
 C279 C 0.63374 0.82812 0.26839
 C280 C 0.72894 0.88854 0.31096
 C281 C 0.68634 0.78517 0.36223
 C282 C 0.61375 0.94294 0.46822
 C283 C 0.56753 0.98356 0.38132
 C284 C 0.52884 0.89087 0.42798
 H285 H 0.60797 0.95446 0.32891
 H286 H 0.55979 0.84110 0.38643
 H287 H 0.67886 0.83798 0.31842
 H288 H 0.67133 0.90452 0.43745
 H289 H 0.70694 0.96102 0.40136
 H290 H 0.73109 0.90918 0.41570
 H291 H 0.51813 0.85614 0.34674
 H292 H 0.55802 0.81911 0.31027
 H293 H 0.64745 0.99613 0.34483
 H294 H 0.68088 0.95938 0.30441
 H295 H 0.57026 0.81444 0.43833
 H296 H 0.60438 0.77952 0.39623
 H297 H 0.59535 0.90879 0.26546
 H298 H 0.55541 0.94461 0.30270
 H299 H 0.69515 0.82805 0.43657
 H300 H 0.65669 0.86466 0.47783
 O301 O 0.64068 0.70234 0.19999
 O302 O 0.60991 0.65280 0.22929
 O303 O 0.72993 0.64595 0.15122
 O304 O 0.73530 0.60297 0.10374
 O305 O 0.66340 0.72388 0.09569
 O306 O 0.60624 0.71591 0.06378
 O307 O 0.63257 0.52802 0.10004
 O308 O 0.68729 0.53663 0.13751
 O309 O 0.54904 0.56579 0.14291
 O310 O 0.54170 0.62163 0.18753
 O311 O 0.56124 0.60663 0.04727
 O312 O 0.60942 0.64177 0.01792
 O313 O 0.61577 0.55593 0.04951
 O314 O 0.64527 0.59913 0.01794
 O315 O 0.52975 0.61139 0.09856
 O316 O 0.52279 0.65141 0.14601
 O317 O 0.59956 0.53468 0.15481
 O318 O 0.66011 0.54220 0.18288
 O319 O 0.62435 0.73048 0.14928
 O320 O 0.57498 0.72264 0.10984
 O321 O 0.71387 0.69065 0.10138
 O322 O 0.72153 0.63836 0.06270
 O323 O 0.69754 0.65191 0.20193
 O324 O 0.65392 0.62070 0.23252
 Zr325 Zr 0.64336 0.64731 0.18457
 O326 O 0.61114 0.60263 0.17048
 Zr327 Zr 0.69224 0.63889 0.11049
 O328 O 0.66137 0.59453 0.09301
 Zr329 Zr 0.62124 0.69017 0.11116
 O330 O 0.58715 0.64865 0.09474
 Zr331 Zr 0.64049 0.56850 0.13744
 O332 O 0.67404 0.61043 0.15493
 Zr333 Zr 0.56848 0.61914 0.13821
 O334 O 0.59852 0.66470 0.15527
 Zr335 Zr 0.61593 0.61115 0.06422
 O336 O 0.64984 0.65556 0.07761
 O337 O 0.66446 0.67467 0.14231
 O338 O 0.59607 0.58279 0.10686
 C339 C 0.63292 0.73054 0.18209
 C340 C 0.72736 0.64947 0.18494
 C341 C 0.69767 0.72062 0.09706
 C342 C 0.62294 0.52763 0.06748
 C343 C 0.56558 0.53658 0.15004
 C344 C 0.53161 0.60938 0.06468
 H345 H 0.60262 0.59038 0.19192
 H346 H 0.56786 0.66076 0.08152
 H347 H 0.68008 0.69385 0.15209
 H348 H 0.67622 0.57839 0.07835
 H349 H 0.69632 0.53494 0.11297
 H350 H 0.73397 0.58600 0.12359
 H351 H 0.52404 0.67059 0.12826
 H352 H 0.56190 0.71840 0.13215
 H353 H 0.64266 0.54593 0.20220
 H354 H 0.66652 0.59840 0.22597
 H355 H 0.59057 0.65960 0.02292
 H356 H 0.62381 0.70875 0.04550
 H357 H 0.58753 0.66418 0.22094
 H358 H 0.54225 0.59758 0.19811
 H359 H 0.70816 0.65334 0.04573
 H360 H 0.67036 0.60646 0.02297
 O361 O 0.40248 0.81975 0.70589
 O362 O 0.43674 0.87783 0.70617
 O363 O 0.29832 0.84630 0.68291
 O364 O 0.26811 0.87814 0.63723
 O365 O 0.35306 0.76533 0.61636
 O366 O 0.40027 0.76832 0.57345
 O367 O 0.35911 0.95459 0.56410
 O368 O 0.31297 0.95755 0.60943
 O369 O 0.45328 0.94045 0.60687
 O370 O 0.48278 0.88815 0.63851
 O371 O 0.40499 0.87984 0.51830
 O372 O 0.36807 0.82277 0.51666
 O373 O 0.34242 0.90812 0.52930
 O374 O 0.32331 0.84850 0.52041
 O375 O 0.45539 0.89172 0.55080
 O376 O 0.48754 0.86104 0.59133
 O377 O 0.40055 0.96914 0.61667
 O378 O 0.35136 0.96684 0.65524
 O379 O 0.40784 0.77831 0.66181
 O380 O 0.44113 0.77656 0.60936
 O381 O 0.30061 0.79455 0.62628
 O382 O 0.26928 0.84135 0.59823
 O383 O 0.34784 0.86268 0.71472
 O384 O 0.39015 0.90613 0.71857
 Zr385 Zr 0.38862 0.86686 0.67791
 O386 O 0.40506 0.90734 0.64323
 Zr387 Zr 0.31608 0.84923 0.62940
 O388 O 0.33041 0.88768 0.59146
 Zr389 Zr 0.39273 0.80508 0.61571
 O390 O 0.41086 0.84230 0.57865
 Zr391 Zr 0.36147 0.92887 0.61459
 O392 O 0.34397 0.89209 0.65388
 Zr393 Zr 0.43804 0.88530 0.60378
 O394 O 0.42419 0.84491 0.64067
 Zr395 Zr 0.36568 0.86491 0.55454
 O396 O 0.34756 0.82547 0.58930
 O397 O 0.35903 0.82538 0.65481
 O398 O 0.39524 0.90762 0.57639
 C399 C 0.40938 0.78794 0.69450
 C400 C 0.31473 0.85389 0.71226
 C401 C 0.31878 0.76619 0.61912
 C402 C 0.34957 0.94121 0.53374
 C403 C 0.43486 0.96880 0.61380
 C404 C 0.43823 0.88842 0.52118
 H405 H 0.41754 0.92514 0.65851
 H406 H 0.42652 0.83025 0.56124
 H407 H 0.34988 0.80717 0.67134
 H408 H 0.30834 0.89696 0.58023
 H409 H 0.29427 0.94342 0.62138
 H410 H 0.27391 0.89810 0.65379
 H411 H 0.48243 0.83534 0.58742
 H412 H 0.45993 0.79021 0.62243
 H413 H 0.33538 0.95515 0.67252
 H414 H 0.37761 0.92718 0.70905
 H415 H 0.39350 0.81594 0.51366
 H416 H 0.37931 0.77064 0.55744
 H417 H 0.45467 0.86008 0.69820
 H418 H 0.47723 0.90624 0.65697
 H419 H 0.27674 0.82822 0.57663
 H420 H 0.30076 0.85744 0.53088
 O421 O 0.89668 0.34736 0.72393
 O422 O 0.92666 0.40444 0.71855
 O423 O 0.79145 0.36411 0.69640
 O424 O 0.76336 0.39702 0.64700
 O425 O 0.84304 0.27806 0.63955
 O426 O 0.89497 0.27165 0.60523
 O427 O 0.85296 0.45822 0.56502
 O428 O 0.80995 0.46934 0.60978
 O429 O 0.94990 0.44575 0.61135
 O430 O 0.97766 0.39800 0.64816
 O431 O 0.90041 0.37300 0.52996
 O432 O 0.86114 0.31963 0.53576
 O433 O 0.84524 0.40717 0.53285
 O434 O 0.81527 0.34688 0.53903
 O435 O 0.94937 0.39269 0.56096
 O436 O 0.97972 0.36256 0.60468
 O437 O 0.89797 0.47741 0.61330
 O438 O 0.84515 0.48106 0.65377
 O439 O 0.89357 0.29617 0.69110
 O440 O 0.93358 0.28726 0.64090
 O441 O 0.79114 0.30984 0.64028
 O442 O 0.76065 0.35461 0.61419
 O443 O 0.84056 0.38432 0.72684
 O444 O 0.87931 0.43450 0.72135
 Zr445 Zr 0.88073 0.38769 0.68940
 O446 O 0.89970 0.42097 0.64960
 Zr447 Zr 0.80896 0.36391 0.64251
 O448 O 0.82528 0.39594 0.59955
 Zr449 Zr 0.88487 0.31593 0.63891
 O450 O 0.90426 0.34614 0.59606
 Zr451 Zr 0.85696 0.43906 0.61776
 O452 O 0.83698 0.40945 0.66134
 Zr453 Zr 0.93234 0.39170 0.61456
 O454 O 0.91673 0.35885 0.65757
 Zr455 Zr 0.86048 0.36668 0.56751
 O456 O 0.84146 0.33385 0.60778
 O457 O 0.85066 0.34340 0.67245
 O458 O 0.89053 0.41121 0.58382
 C459 C 0.89758 0.31323 0.72082
 C460 C 0.80816 0.37321 0.72530
 C461 C 0.80869 0.28040 0.63706
 C462 C 0.84773 0.44127 0.53546
 C463 C 0.93237 0.47529 0.61346
 C464 C 0.93277 0.38434 0.53191
 H465 H 0.91251 0.44020 0.66271
 H466 H 0.91982 0.33120 0.58087
 H467 H 0.84075 0.32727 0.69054
 H468 H 0.80419 0.40434 0.58603
 H469 H 0.78996 0.45545 0.61997
 H470 H 0.76983 0.41671 0.66366
 H471 H 0.97457 0.33763 0.61147
 H472 H 0.95029 0.30125 0.65622
 H473 H 0.86650 0.48444 0.66919
 H474 H 0.85640 0.44664 0.71600
 H475 H 0.88593 0.31031 0.53557
 H476 H 0.87855 0.27393 0.58470
 H477 H 0.94637 0.38803 0.71209
 H478 H 0.97234 0.41777 0.66491
 H479 H 0.76767 0.34654 0.59020
 H480 H 0.79649 0.36546 0.53952
 O481 O 0.80387 0.89574 0.18989
 O482 O 0.79455 0.93692 0.13924
 O483 O 0.81680 0.79435 0.13326
 O484 O 0.85917 0.76290 0.11148
 O485 O 0.89556 0.84149 0.22037
 O486 O 0.94413 0.88233 0.21415
 O487 O 0.90939 0.85059 0.02569
 O488 O 0.85499 0.81941 0.03262
 O489 O 0.89465 0.95431 0.05699
 O490 O 0.86055 0.98016 0.11378
 O491 O 0.98205 0.90326 0.10392
 O492 O 0.98841 0.85023 0.14327
 O493 O 0.96156 0.85941 0.05581
 O494 O 0.97544 0.81586 0.09873
 O495 O 0.94982 0.95471 0.10522
 O496 O 0.90952 0.98388 0.13813
 O497 O 0.87481 0.90577 0.02562
 O498 O 0.82068 0.86632 0.03443
 O499 O 0.85608 0.89671 0.22129
 O500 O 0.91254 0.92837 0.21424
 O501 O 0.87243 0.79380 0.18998
 O502 O 0.90715 0.76912 0.13695
 O503 O 0.78433 0.84558 0.13731
 O504 O 0.77478 0.89736 0.10731
 Zr505 Zr 0.82202 0.88765 0.13684
 O506 O 0.85015 0.90802 0.09283
 Zr507 Zr 0.87091 0.81247 0.13655
 O508 O 0.90098 0.83000 0.09251
 Zr509 Zr 0.89578 0.88294 0.18446
 O510 O 0.92697 0.90335 0.14349
 Zr511 Zr 0.87023 0.86527 0.06243
 O512 O 0.83940 0.84534 0.10379
 Zr513 Zr 0.89606 0.93626 0.11041
 O514 O 0.86562 0.91916 0.15480
 Zr515 Zr 0.94450 0.86182 0.10958
 O516 O 0.91704 0.84048 0.15406
 O517 O 0.85090 0.85305 0.16856
 O518 O 0.91494 0.89558 0.07766
 C519 C 0.82174 0.89858 0.21923
 C520 C 0.78697 0.81163 0.13220
 C521 C 0.88358 0.80948 0.21875
 C522 C 0.94365 0.85423 0.02679
 C523 C 0.88565 0.93818 0.02781
 C524 C 0.97967 0.93747 0.10480
 H525 H 0.83420 0.92342 0.07874
 H526 H 0.94672 0.91627 0.15577
 H527 H 0.83537 0.84272 0.18700
 H528 H 0.90907 0.80944 0.07795
 H529 H 0.83903 0.80518 0.04796
 H530 H 0.86333 0.76614 0.08587
 H531 H 0.91950 0.97650 0.16123
 H532 H 0.89537 0.94772 0.20899
 H533 H 0.81259 0.89139 0.03292
 H534 H 0.77763 0.88460 0.08442
 H535 H 0.99234 0.87142 0.15876
 H536 H 0.95693 0.86023 0.20729
 H537 H 0.80870 0.95302 0.15503
 H538 H 0.84685 0.98128 0.09129
 H539 H 0.92523 0.77428 0.15570
 H540 H 0.96270 0.79551 0.10950
 O541 O 0.38179 0.31656 0.21309
 O542 O 0.43388 0.35317 0.22002
 O543 O 0.29596 0.38710 0.20364
 O544 O 0.28582 0.43938 0.16814
 O545 O 0.30385 0.30380 0.12266
 O546 O 0.34573 0.28869 0.07913
 O547 O 0.38740 0.47981 0.10096
 O548 O 0.36448 0.49147 0.15686
 O549 O 0.47410 0.41159 0.12129
 O550 O 0.47768 0.34835 0.14481
 O551 O 0.40045 0.39219 0.03410
 O552 O 0.33921 0.36564 0.03066
 O553 O 0.36867 0.44769 0.05276
 O554 O 0.31373 0.41025 0.04591
 O555 O 0.45178 0.37711 0.06290
 O556 O 0.46464 0.32768 0.09562
 O557 O 0.44384 0.46147 0.13825
 O558 O 0.40201 0.47156 0.19019
 O559 O 0.35602 0.28492 0.16767
 O560 O 0.38859 0.27484 0.11159
 O561 O 0.27327 0.35349 0.13983
 O562 O 0.26753 0.41382 0.12375
 O563 O 0.34778 0.37343 0.23257
 O564 O 0.40705 0.39947 0.23571
 Zr565 Zr 0.38648 0.36820 0.19308
 O566 O 0.41983 0.39989 0.16160
 Zr567 Zr 0.31286 0.39312 0.15025
 O568 O 0.34310 0.42620 0.11673
 Zr569 Zr 0.35778 0.32044 0.12438
 O570 O 0.38946 0.35047 0.08930
 Zr571 Zr 0.39037 0.44334 0.14254
 O572 O 0.35790 0.41390 0.17774
 Zr573 Zr 0.43484 0.37110 0.11593
 O574 O 0.40523 0.33734 0.15009
 Zr575 Zr 0.36134 0.39611 0.07318
 O576 O 0.32805 0.36390 0.10473
 O577 O 0.33990 0.34885 0.16833
 O578 O 0.40801 0.41597 0.09753
 C579 C 0.36649 0.28862 0.20013
 C580 C 0.31406 0.38004 0.23194
 C581 C 0.27474 0.32108 0.12794
 C582 C 0.37849 0.47689 0.06813
 C583 C 0.47283 0.44457 0.13119
 C584 C 0.43397 0.38493 0.03476
 H585 H 0.44055 0.40734 0.17645
 H586 H 0.39644 0.33517 0.06900
 H587 H 0.32338 0.33460 0.18301
 H588 H 0.32831 0.44664 0.10925
 H589 H 0.33853 0.48777 0.15255
 H590 H 0.30161 0.45101 0.18611
 H591 H 0.44736 0.30790 0.09154
 H592 H 0.40886 0.27422 0.12867
 H593 H 0.42451 0.46174 0.20003
 H594 H 0.39251 0.42149 0.23689
 H595 H 0.35569 0.34564 0.02550
 H596 H 0.33122 0.30379 0.06325
 H597 H 0.44525 0.33426 0.20546
 H598 H 0.48315 0.36454 0.16507
 H599 H 0.26886 0.40497 0.09900
 H600 H 0.30489 0.43296 0.05619
 O601 O 0.40342 0.66295 0.78284
 O602 O 0.44351 0.61478 0.78662
 O603 O 0.30277 0.60538 0.80924
 O604 O 0.28944 0.56895 0.85475
 O605 O 0.31873 0.70806 0.85232
 O606 O 0.35835 0.73381 0.89685
 O607 O 0.38715 0.54796 0.94352
 O608 O 0.35587 0.52182 0.89142
 O609 O 0.47831 0.59739 0.90291
 O610 O 0.48937 0.64675 0.86106
 O611 O 0.40760 0.64445 0.97564
 O612 O 0.35202 0.68374 0.96621
 O613 O 0.36460 0.59624 0.97280
 O614 O 0.31809 0.64115 0.96471
 O615 O 0.46004 0.64013 0.94568
 O616 O 0.47367 0.68675 0.89656
 O617 O 0.44381 0.54695 0.90207
 O618 O 0.40688 0.51996 0.86061
 O619 O 0.38358 0.71159 0.81349
 O620 O 0.40397 0.73643 0.86609
 O621 O 0.28537 0.65691 0.84892
 O622 O 0.27472 0.61351 0.89404
 O623 O 0.35465 0.60739 0.77794
 O624 O 0.40931 0.57314 0.78532
 Zr625 Zr 0.39539 0.61875 0.81574
 O626 O 0.42498 0.59760 0.85810
 Zr627 Zr 0.32053 0.61613 0.86116
 O628 O 0.34642 0.59507 0.90595
 Zr629 Zr 0.37156 0.68996 0.86371
 O630 O 0.40047 0.67186 0.90844
 Zr631 Zr 0.39175 0.56580 0.89021
 O632 O 0.36306 0.58330 0.84467
 Zr633 Zr 0.44295 0.63904 0.89210
 O634 O 0.41688 0.66056 0.84731
 Zr635 Zr 0.36713 0.63762 0.93695
 O636 O 0.33717 0.65859 0.89466
 O637 O 0.35196 0.64986 0.83029
 O638 O 0.41088 0.60647 0.92287
 C639 C 0.39816 0.69674 0.78627
 C640 C 0.32036 0.60344 0.78024
 C641 C 0.28885 0.69086 0.84801
 C642 C 0.37575 0.56403 0.97176
 C643 C 0.47402 0.56351 0.90550
 C644 C 0.44193 0.64131 0.97451
 H645 H 0.44507 0.58392 0.84779
 H646 H 0.40910 0.69218 0.92317
 H647 H 0.33939 0.66069 0.80992
 H648 H 0.32948 0.57998 0.91930
 H649 H 0.34287 0.52141 0.86845
 H650 H 0.29314 0.55429 0.87607
 H651 H 0.46863 0.69809 0.91980
 H652 H 0.42904 0.72809 0.86415
 H653 H 0.41952 0.52855 0.83939
 H654 H 0.39151 0.55427 0.79081
 H655 H 0.37340 0.69928 0.96932
 H656 H 0.34019 0.72500 0.91369
 H657 H 0.46011 0.63306 0.79661
 H658 H 0.49302 0.62465 0.84693
 H659 H 0.27444 0.63568 0.90860
 H660 H 0.30454 0.61874 0.96006
 O661 O 0.15304 0.68391 0.70625
 O662 O 0.11482 0.64338 0.73549
 O663 O 0.22386 0.59651 0.65794
 O664 O 0.21723 0.55539 0.61392
 O665 O 0.19601 0.69424 0.60492
 O666 O 0.14461 0.70692 0.56716
 O667 O 0.09854 0.52026 0.60162
 O668 O 0.14188 0.51155 0.64780
 O669 O 0.02688 0.59530 0.65145
 O670 O 0.03932 0.65258 0.68598
 O671 O 0.05434 0.61048 0.55200
 O672 O 0.10185 0.63535 0.52106
 O673 O 0.09663 0.55274 0.55100
 O674 O 0.14100 0.59544 0.52279
 O675 O 0.02684 0.63345 0.60078
 O676 O 0.03991 0.68391 0.64248
 O677 O 0.05533 0.54244 0.64337
 O678 O 0.09876 0.52962 0.68852
 O679 O 0.15411 0.71535 0.65502
 O680 O 0.11139 0.72485 0.60874
 O681 O 0.22569 0.64139 0.60439
 O682 O 0.21175 0.58591 0.56963
 O683 O 0.19777 0.62131 0.70658
 O684 O 0.14492 0.59910 0.73576
 Zr685 Zr 0.14377 0.63007 0.68930
 O686 O 0.09674 0.60172 0.67372
 Zr687 Zr 0.18676 0.60272 0.61712
 O688 O 0.14237 0.57304 0.59880
 Zr689 Zr 0.14255 0.67829 0.61506
 O690 O 0.09564 0.65230 0.59653
 Zr691 Zr 0.11002 0.55770 0.64155
 O692 O 0.15743 0.58329 0.66067
 Zr693 Zr 0.06620 0.63395 0.64013
 O694 O 0.11080 0.66357 0.65868
 Zr695 Zr 0.10907 0.60576 0.56784
 O696 O 0.15641 0.63456 0.58272
 O697 O 0.17496 0.64763 0.64777
 O698 O 0.07786 0.58890 0.60955
 C699 C 0.15533 0.71329 0.68880
 C700 C 0.22443 0.60642 0.69049
 C701 C 0.22476 0.67562 0.60232
 C702 C 0.09452 0.52317 0.56804
 C703 C 0.02677 0.56123 0.64695
 C704 C 0.02649 0.62201 0.56874
 H705 H 0.08288 0.59415 0.69460
 H706 H 0.08150 0.66875 0.58172
 H707 H 0.19580 0.66081 0.65788
 H708 H 0.15226 0.55243 0.58554
 H709 H 0.16049 0.51740 0.66585
 H710 H 0.20223 0.53636 0.62423
 H711 H 0.04103 0.69459 0.61867
 H712 H 0.09471 0.72583 0.62901
 H713 H 0.11506 0.53947 0.70695
 H714 H 0.15713 0.57645 0.72963
 H715 H 0.10895 0.66022 0.52691
 H716 H 0.15849 0.69225 0.55015
 H717 H 0.09451 0.65833 0.72766
 H718 H 0.03884 0.63305 0.70339
 H719 H 0.20783 0.60490 0.55202
 H720 H 0.15499 0.57365 0.52770
 O721 O 0.13202 0.19798 0.19934
 O722 O 0.10329 0.14337 0.22402
 O723 O 0.22555 0.15073 0.14844
 O724 O 0.23937 0.12195 0.09956
 O725 O 0.15134 0.22937 0.09742
 O726 O 0.09641 0.21823 0.06414
 O727 O 0.14487 0.03067 0.08922
 O728 O 0.19269 0.04129 0.12797
 O729 O 0.05080 0.05910 0.13256
 O730 O 0.03841 0.11109 0.17892
 O731 O 0.06458 0.10126 0.03961
 O732 O 0.10223 0.13928 0.01069
 O733 O 0.12283 0.05899 0.04085
 O734 O 0.15247 0.11744 0.01428
 O735 O 0.03106 0.10100 0.08988
 O736 O 0.01956 0.14322 0.13744
 O737 O 0.10363 0.02948 0.13639
 O738 O 0.15935 0.04278 0.17634
 O739 O 0.11174 0.22764 0.15091
 O740 O 0.06299 0.21670 0.10947
 O741 O 0.20451 0.20011 0.10023
 O742 O 0.21426 0.14641 0.05695
 O743 O 0.19244 0.14969 0.19894
 O744 O 0.15094 0.11778 0.22783
 Zr745 Zr 0.13860 0.14453 0.18040
 O746 O 0.11027 0.09827 0.16311
 Zr747 Zr 0.18863 0.14583 0.10682
 O748 O 0.16317 0.09906 0.08713
 Zr749 Zr 0.11300 0.19025 0.10968
 O750 O 0.08402 0.14648 0.08916
 Zr751 Zr 0.14328 0.06877 0.12924
 O752 O 0.17255 0.11263 0.14885
 Zr753 Zr 0.06712 0.11341 0.13072
 O754 O 0.09262 0.15994 0.15164
 Zr755 Zr 0.11729 0.11348 0.05791
 O756 O 0.14516 0.16077 0.07464
 O757 O 0.15753 0.17686 0.14039
 O758 O 0.09896 0.08163 0.09841
 C759 C 0.12115 0.22640 0.18352
 C760 C 0.22256 0.15021 0.18227
 C761 C 0.18577 0.22885 0.09778
 C762 C 0.13403 0.03082 0.05703
 C763 C 0.06927 0.03021 0.13368
 C764 C 0.03465 0.09800 0.05625
 H765 H 0.10217 0.08399 0.18342
 H766 H 0.06374 0.15629 0.07542
 H767 H 0.17163 0.19653 0.15147
 H768 H 0.18024 0.08506 0.07270
 H769 H 0.21086 0.05749 0.13887
 H770 H 0.23544 0.09582 0.09993
 H771 H 0.01773 0.15958 0.11713
 H772 H 0.05085 0.21048 0.13183
 H773 H 0.13766 0.03649 0.18995
 H774 H 0.15959 0.09384 0.22065
 H775 H 0.08986 0.16147 0.01799
 H776 H 0.11386 0.21254 0.04526
 H777 H 0.08099 0.15540 0.21644
 H778 H 0.04217 0.08727 0.18936
 H779 H 0.20300 0.16561 0.04298
 H780 H 0.16943 0.09725 0.01538
 O781 O 0.72356 0.35806 0.85448
 O782 O 0.72937 0.37945 0.91518
 O783 O 0.64906 0.27185 0.86594
 O784 O 0.58551 0.26864 0.88663
 O785 O 0.63835 0.34700 0.78245
 O786 O 0.61300 0.40687 0.77986
 O787 O 0.55258 0.36865 0.95828
 O788 O 0.58125 0.31398 0.96396
 O789 O 0.63038 0.44846 0.95423
 O790 O 0.68617 0.45641 0.92010
 O791 O 0.54814 0.44467 0.88343
 O792 O 0.54011 0.41078 0.82324
 O793 O 0.52421 0.38797 0.90862
 O794 O 0.51707 0.36843 0.84893
 O795 O 0.59954 0.47152 0.90308
 O796 O 0.66128 0.47578 0.87583
 O797 O 0.60884 0.39879 0.98123
 O798 O 0.63408 0.34156 0.98605
 O799 O 0.69458 0.37948 0.80587
 O800 O 0.66040 0.43274 0.79906
 O801 O 0.61935 0.29594 0.80882
 O802 O 0.56355 0.28849 0.84062
 O803 O 0.70032 0.29941 0.88510
 O804 O 0.71072 0.33430 0.93949
 Zr805 Zr 0.68394 0.35268 0.89368
 O806 O 0.65389 0.38500 0.92831
 Zr807 Zr 0.61054 0.31261 0.86190
 O808 O 0.57734 0.34366 0.89502
 Zr809 Zr 0.64170 0.38551 0.82313
 O810 O 0.61038 0.41982 0.85459
 Zr811 Zr 0.60551 0.35935 0.94105
 O812 O 0.63776 0.32426 0.91004
 Zr813 Zr 0.63826 0.43145 0.90183
 O814 O 0.67163 0.40097 0.86836
 Zr815 Zr 0.56427 0.39200 0.87035
 O816 O 0.59363 0.35881 0.83522
 O817 O 0.65730 0.33850 0.84735
 O818 O 0.59073 0.40663 0.91696
 C819 C 0.72263 0.36844 0.82209
 C820 C 0.68249 0.27173 0.87466
 C821 C 0.63076 0.31345 0.78196
 C822 C 0.52470 0.37952 0.94144
 C823 C 0.61870 0.43181 0.98127
 C824 C 0.56578 0.47149 0.89641
 H825 H 0.66823 0.39029 0.94989
 H826 H 0.60436 0.44163 0.84139
 H827 H 0.67275 0.32345 0.83218
 H828 H 0.55573 0.32954 0.90102
 H829 H 0.59540 0.29308 0.95627
 H830 H 0.60123 0.26135 0.90645
 H831 H 0.64451 0.48325 0.85694
 H832 H 0.67778 0.44384 0.81586
 H833 H 0.64763 0.32019 0.97852
 H834 H 0.69766 0.31283 0.94753
 H835 H 0.54920 0.43523 0.81899
 H836 H 0.59001 0.39355 0.77820
 H837 H 0.73060 0.40301 0.90359
 H838 H 0.69534 0.44256 0.94034
 H839 H 0.55413 0.30498 0.82253
 H840 H 0.51689 0.34316 0.85627
 O841 O 0.14282 0.84561 0.77187
 O842 O 0.11645 0.90474 0.76753
 O843 O 0.22949 0.86114 0.84178
 O844 O 0.23929 0.88224 0.89725
 O845 O 0.15759 0.77421 0.85450
 O846 O 0.09836 0.76828 0.88041
 O847 O 0.13599 0.95281 0.94075
 O848 O 0.18907 0.95959 0.90839
 O849 O 0.05119 0.94333 0.87148
 O850 O 0.03657 0.91177 0.82152
 O851 O 0.06243 0.86533 0.95129
 O852 O 0.09849 0.81720 0.96160
 O853 O 0.11889 0.90288 0.97014
 O854 O 0.14695 0.83954 0.97238
 O855 O 0.03063 0.88248 0.90284
 O856 O 0.02648 0.86087 0.83784
 O857 O 0.10237 0.97279 0.88763
 O858 O 0.16132 0.97855 0.86028
 O859 O 0.12502 0.79528 0.80035
 O860 O 0.06963 0.78837 0.83534
 O861 O 0.20836 0.80358 0.87259
 O862 O 0.21542 0.83857 0.92899
 O863 O 0.19895 0.87855 0.79248
 O864 O 0.16267 0.93348 0.78701
 Zr865 Zr 0.14595 0.88565 0.81133
 O866 O 0.11336 0.91863 0.84305
 Zr867 Zr 0.19092 0.85642 0.88168
 O868 O 0.16137 0.88940 0.91617
 Zr869 Zr 0.11764 0.81338 0.85305
 O870 O 0.08514 0.84336 0.88750
 Zr871 Zr 0.14219 0.93387 0.88876
 O872 O 0.17631 0.90369 0.85544
 Zr873 Zr 0.06877 0.89029 0.86222
 O874 O 0.09858 0.85842 0.82582
 Zr875 Zr 0.11501 0.86168 0.93168
 O876 O 0.14634 0.82700 0.89967
 O877 O 0.16312 0.84023 0.83672
 O878 O 0.09636 0.90778 0.90741
 C879 C 0.13616 0.81186 0.77284
 C880 C 0.22761 0.86826 0.80857
 C881 C 0.19144 0.77570 0.86112
 C882 C 0.12741 0.93622 0.96893
 C883 C 0.06866 0.97176 0.88077
 C884 C 0.03288 0.87221 0.93527
 H885 H 0.10555 0.93938 0.82908
 H886 H 0.06476 0.82797 0.89437
 H887 H 0.17834 0.82541 0.82121
 H888 H 0.17651 0.89680 0.93659
 H889 H 0.20928 0.95084 0.89382
 H890 H 0.23327 0.90047 0.91539
 H891 H 0.02129 0.84012 0.85300
 H892 H 0.06051 0.80261 0.81531
 H893 H 0.14611 0.98139 0.83896
 H894 H 0.18304 0.94297 0.80130
 H895 H 0.08530 0.80096 0.94520
 H896 H 0.11305 0.76647 0.90226
 H897 H 0.09406 0.89039 0.76621
 H898 H 0.05312 0.91924 0.80261
 H899 H 0.20207 0.81702 0.93648
 H900 H 0.16499 0.85767 0.97984
 O901 O 0.72079 0.11518 0.65197
 O902 O 0.71213 0.06901 0.60829
 O903 O 0.68612 0.20910 0.60717
 O904 O 0.63408 0.22072 0.56855
 O905 O 0.64395 0.18978 0.70631
 O906 O 0.60704 0.14501 0.73248
 O907 O 0.54902 0.12025 0.54785
 O908 O 0.59471 0.15022 0.51883
 O909 O 0.59767 0.03042 0.59175
 O910 O 0.64501 0.02268 0.64025
 O911 O 0.52309 0.09617 0.64487
 O912 O 0.53211 0.15176 0.68436
 O913 O 0.52034 0.13866 0.59781
 O914 O 0.52961 0.18598 0.64298
 O915 O 0.55551 0.04549 0.63756
 O916 O 0.60161 0.03220 0.67839
 O917 O 0.59477 0.06549 0.54297
 O918 O 0.63612 0.11232 0.51770
 O919 O 0.69211 0.13206 0.70251
 O920 O 0.64167 0.10286 0.73023
 O921 O 0.64209 0.22436 0.65710
 O922 O 0.59917 0.23420 0.61071
 O923 O 0.71808 0.15790 0.60084
 O924 O 0.70933 0.10376 0.56508
 Zr925 Zr 0.68184 0.11649 0.61238
 O926 O 0.63942 0.08530 0.59205
 Zr927 Zr 0.63310 0.18933 0.61472
 O928 O 0.58775 0.16154 0.59486
 Zr929 Zr 0.63735 0.13676 0.68603
 O930 O 0.59233 0.10629 0.66871
 Zr931 Zr 0.60394 0.11785 0.56337
 O932 O 0.64953 0.14849 0.57988
 Zr933 Zr 0.60861 0.06536 0.63404
 O934 O 0.65422 0.09280 0.65486
 Zr935 Zr 0.55965 0.13846 0.63714
 O936 O 0.60231 0.16997 0.65731
 O937 O 0.66688 0.15856 0.64548
 O938 O 0.57409 0.09621 0.60402
 C939 C 0.72047 0.12317 0.68499
 C940 C 0.71583 0.19210 0.60313
 C941 C 0.64453 0.22025 0.69064
 C942 C 0.52063 0.12924 0.56516
 C943 C 0.59380 0.03499 0.55838
 C944 C 0.52561 0.06207 0.64108
 H945 H 0.65041 0.06628 0.57740
 H946 H 0.57912 0.09637 0.68901
 H947 H 0.68655 0.17282 0.65634
 H948 H 0.57253 0.17798 0.58111
 H949 H 0.60159 0.17481 0.52604
 H950 H 0.64983 0.20835 0.55136
 H951 H 0.61400 0.04425 0.69846
 H952 H 0.65569 0.08181 0.72248
 H953 H 0.65179 0.09142 0.52141
 H954 H 0.70239 0.12187 0.54744
 H955 H 0.53157 0.13042 0.69955
 H956 H 0.58654 0.16017 0.72559
 H957 H 0.70695 0.05493 0.62969
 H958 H 0.65667 0.01864 0.61708
 H959 H 0.58237 0.23298 0.63086
 H960 H 0.53105 0.19907 0.62043
 C961 C 0.41854 0.75936 0.71948
 C962 C 0.44276 0.73316 0.71050
 C963 C 0.43850 0.70721 0.73484
 C964 C 0.41178 0.71907 0.75711
 O965 O 0.39951 0.75102 0.74800
 H966 H 0.46016 0.73232 0.68766
 H967 H 0.45256 0.68200 0.73571
 C968 C 0.35140 0.23713 0.27482
 C969 C 0.31865 0.23170 0.25836
 C970 C 0.32128 0.24792 0.22646
 C971 C 0.35550 0.26200 0.22583
 O972 O 0.37402 0.25531 0.25502
 H973 H 0.29628 0.21588 0.26770
 H974 H 0.30041 0.25031 0.20657
 C975 C 0.63609 0.80840 0.23492
 C976 C 0.64151 0.82421 0.20267
 C977 C 0.64109 0.79678 0.17885
 C978 C 0.63581 0.76623 0.19841
 O979 O 0.63281 0.77315 0.23259
 H980 H 0.64489 0.85235 0.19721
 H981 H 0.64424 0.79874 0.15046
 C982 C 0.12311 0.30062 0.24148
 C983 C 0.12452 0.31883 0.21007
 C984 C 0.12329 0.29312 0.18448
 C985 C 0.12165 0.26106 0.20217
 O986 O 0.12155 0.26545 0.23694
 H987 H 0.12587 0.34743 0.20634
 H988 H 0.12395 0.29720 0.15617
 C989 C 0.15815 0.74798 0.70738
 C990 C 0.17067 0.77815 0.69067
 C991 C 0.16290 0.80586 0.71262
 C992 C 0.14596 0.79084 0.74123
 O993 O 0.14315 0.75551 0.73833
 H994 H 0.18305 0.77979 0.66487
 H995 H 0.16912 0.83377 0.70842
 C996 C 0.88901 0.25560 0.79360
 C997 C 0.89703 0.28664 0.81196
 C998 C 0.90406 0.31124 0.78681
 C999 C 0.89957 0.29371 0.75464
 O1000 O 0.89061 0.25961 0.75867
 H1001 H 0.89774 0.29076 0.84038
 H1002 H 0.91018 0.33924 0.79137
 C1003 C 0.79176 0.36817 0.76005
 C1004 C 0.81216 0.36119 0.78985
 C1005 C 0.78872 0.35994 0.81702
 C1006 C 0.75579 0.36663 0.80190
 O1007 O 0.75731 0.37145 0.76719
 H1008 H 0.84093 0.35770 0.79149
 H1009 H 0.79489 0.35524 0.84462
 C1010 C 0.29997 0.59828 0.74711
 C1011 C 0.31562 0.58716 0.71600
 C1012 C 0.28905 0.58828 0.69136
 C1013 C 0.25896 0.60035 0.70900
 O1014 O 0.26547 0.60644 0.74311
 H1015 H 0.34328 0.57964 0.71176
 H1016 H 0.29150 0.58170 0.66348
 C1017 C 0.29538 0.13185 0.23896
 C1018 C 0.31434 0.14303 0.20980
 C1019 C 0.28933 0.15311 0.18588
 C1020 C 0.25666 0.14758 0.20196
 O1021 O 0.26012 0.13469 0.23442
 H1022 H 0.34318 0.14440 0.20666
 H1023 H 0.29428 0.16273 0.15943
 C1024 C 0.79795 0.12544 0.73887
 C1025 C 0.81445 0.12773 0.70647
 C1026 C 0.78733 0.12672 0.68243
 C1027 C 0.75613 0.12422 0.70189
 O1028 O 0.76242 0.12348 0.73637
 H1029 H 0.84289 0.12963 0.70108
 H1030 H 0.78991 0.12803 0.65394
 C1031 C 0.76369 0.89372 0.29300
 C1032 C 0.79565 0.89811 0.31105
 C1033 C 0.82086 0.90280 0.28565
 C1034 C 0.80272 0.90069 0.25363
 O1035 O 0.76774 0.89530 0.25802
 H1036 H 0.80003 0.89788 0.33941
 H1037 H 0.84944 0.90610 0.28994
 C1038 C 0.74135 0.70897 0.36439
 C1039 C 0.70976 0.69254 0.35385
 C1040 C 0.68534 0.71909 0.35183
 C1041 C 0.70367 0.74995 0.36126
 O1042 O 0.73786 0.74399 0.36898
 H1043 H 0.70519 0.66448 0.34801
 H1044 H 0.65739 0.71631 0.34423
 C1045 C 0.78964 0.24728 0.62592
 C1046 C 0.80800 0.21715 0.61524
 C1047 C 0.78273 0.19411 0.60261
 C1048 C 0.75039 0.21147 0.60641
 O1049 O 0.75443 0.24404 0.62053
 H1050 H 0.83667 0.21267 0.61607
 H1051 H 0.78720 0.16711 0.59310
 C1052 C 0.71812 0.75447 0.09928
 C1053 C 0.70165 0.78695 0.09424
 C1054 C 0.72469 0.81185 0.10755
 C1055 C 0.75397 0.79315 0.11974
 O1056 O 0.75023 0.75809 0.11465
 H1057 H 0.67501 0.79177 0.08379
 H1058 H 0.72074 0.84048 0.10793
 C1059 C 0.24083 0.30321 0.11768
 C1060 C 0.20931 0.32125 0.11164
 C1061 C 0.18539 0.29587 0.10050
 C1062 C 0.20390 0.26399 0.10058
 O1063 O 0.23776 0.26840 0.11092
 H1064 H 0.20442 0.34958 0.11489
 H1065 H 0.15725 0.29988 0.09457
 C1066 C 0.25523 0.70995 0.84221
 C1067 C 0.22589 0.69371 0.82615
 C1068 C 0.19806 0.71603 0.83198
 C1069 C 0.21235 0.74422 0.85132
 O1070 O 0.24722 0.74086 0.85744
 H1071 H 0.22476 0.66793 0.81286
 H1072 H 0.17059 0.71228 0.82311
 C1073 C 0.23179 0.19710 0.36261
 C1074 C 0.20046 0.17986 0.35254
 C1075 C 0.17463 0.20530 0.35396
 C1076 C 0.19207 0.23618 0.36486
 O1077 O 0.22684 0.23135 0.37015
 H1078 H 0.19698 0.15211 0.34480
 H1079 H 0.14647 0.20186 0.34748
 C1080 C 0.49732 0.61563 1.04587
 C1081 C 0.46583 0.62143 1.06414
 C1082 C 0.44214 0.63397 1.04007
 C1083 C 0.46035 0.63467 1.00847
 O1084 O 0.49412 0.62367 1.01179
 H1085 H 0.46116 0.61841 1.09221
 H1086 H 0.41462 0.64151 1.04494
 C1087 C 0.44409 0.12738 0.51000
 C1088 C 0.42690 0.12598 0.54212
 C1089 C 0.45358 0.12668 0.56671
 C1090 C 0.48518 0.12803 0.54782
 O1091 O 0.47958 0.12846 0.51321
 H1092 H 0.39831 0.12496 0.54698
 H1093 H 0.45042 0.12620 0.59516
 C1094 C 0.49504 0.89457 0.44740
 C1095 C 0.46323 0.90331 0.43098
 C1096 C 0.43836 0.90303 0.45691
 C1097 C 0.45672 0.89474 0.48753
 O1098 O 0.49137 0.88943 0.48193
 H1099 H 0.45857 0.90835 0.40316
 H1100 H 0.40994 0.90727 0.45366
 C1101 C 0.98701 0.38695 0.45644
 C1102 C 0.95507 0.39648 0.44076
 C1103 C 0.93107 0.39747 0.46750
 C1104 C 0.95021 0.38905 0.49764
 O1105 O 0.98436 0.38256 0.49112
 H1106 H 0.94979 0.40130 0.41301
 H1107 H 0.90272 0.40293 0.46528
 C1108 C -0.03878 0.85468 0.99394
 C1109 C -0.05691 0.85044 0.96206
 C1110 C -0.03265 0.85775 0.93648
 C1111 C -0.00105 0.86536 0.95417
 O1112 O -0.00442 0.86324 0.98921
 H1113 H -0.08496 0.84381 0.95792
 H1114 H -0.03728 0.85705 0.90815
 C1115 C -0.04066 0.10108 0.00046
 C1116 C -0.05589 0.08252 0.02797
 C1117 C -0.02877 0.07700 0.05131
 C1118 C 0.00117 0.09231 0.03632
 O1119 O -0.00583 0.10691 0.00525
 H1120 H -0.08361 0.07426 0.03077
 H1121 H -0.03076 0.06440 0.07689
 C1122 C 0.13401 0.99736 1.04006
 C1123 C 0.14044 0.96604 1.05818
 C1124 C 0.13687 0.93930 1.03401
 C1125 C 0.12933 0.95597 1.00261
 O1126 O 0.12742 0.99134 1.00596
 H1127 H 0.14689 0.96298 1.08596
 H1128 H 0.14065 0.91104 1.03842
 C1129 C 0.09755 0.44863 0.51119
 C1130 C 0.08086 0.43254 0.53940
 C1131 C 0.07581 0.45907 0.56364
 C1132 C 0.08942 0.48952 0.54834
 O1133 O 0.10262 0.48337 0.51638
 H1134 H 0.07356 0.40467 0.54208
 H1135 H 0.06449 0.45644 0.58981
 C1136 C 0.37838 0.50997 1.04776
 C1137 C 0.37606 0.54289 1.06415
 C1138 C 0.37430 0.56655 1.03756
 C1139 C 0.37634 0.54664 1.00659
 O1140 O 0.37865 0.51189 1.01259
 H1141 H 0.37474 0.54881 1.09224
 H1142 H 0.37146 0.59516 1.04040
 C1143 C 0.85833 0.49810 0.46206
 C1144 C 0.84854 0.46730 0.44410
 C1145 C 0.84083 0.44322 0.46953
 C1146 C 0.84690 0.46067 0.50148
 O1147 O 0.85725 0.49439 0.49707
 H1148 H 0.84692 0.46306 0.41573
 H1149 H 0.83310 0.41557 0.46525
 C1150 C 0.88883 0.99293 -0.04743
 C1151 C 0.89489 0.96046 -0.06375
 C1152 C 0.89482 0.93645 -0.03733
 C1153 C 0.88932 0.95587 -0.00657
 O1154 O 0.88556 0.99047 -0.01249
 H1155 H 0.89804 0.95487 -0.09175
 H1156 H 0.89771 0.90789 -0.04019
 C1157 C 0.60164 -0.03797 0.50019
 C1158 C 0.58296 -0.05471 0.52680
 C1159 C 0.57560 -0.02870 0.55087
 C1160 C 0.58998 0.00216 0.53717
 O1161 O 0.60579 -0.00322 0.50622
 H1162 H 0.57582 -0.08271 0.52855
 H1163 H 0.56242 -0.03198 0.57611
 C1164 C 0.50471 1.05197 0.39426
 C1165 C 0.53455 1.06972 0.40753
 C1166 C 0.56205 1.04640 0.40400
 C1167 C 0.54706 1.01613 0.38869
 O1168 O 0.51213 1.01929 0.38280
 H1169 H 0.53610 1.09665 0.41823
 H1170 H 0.58975 1.05085 0.41176
 C1171 C 0.01389 -0.04310 0.11013
 C1172 C 0.04613 -0.06081 0.11327
 C1173 C 0.07019 -0.03590 0.12458
 C1174 C 0.05125 -0.00447 0.12743
 O1175 O 0.01684 -0.00866 0.11869
 H1176 H 0.05123 -0.08897 0.10901
 H1177 H 0.09846 -0.04003 0.12964
 C1178 C 0.54596 0.50221 0.14956
 C1179 C 0.56341 0.46993 0.15255
 C1180 C 0.53845 0.44452 0.14469
 C1181 C 0.50732 0.46290 0.13777
 O1182 O 0.51162 0.49808 0.14074
 H1183 H 0.59145 0.46549 0.15861
 H1184 H 0.54231 0.41587 0.14456
 C1185 C -0.04813 0.50880 0.62186
 C1186 C -0.06581 0.53996 0.63064
 C1187 C -0.04020 0.56258 0.64350
 C1188 C -0.00848 0.54394 0.64149
 O1189 O -0.01314 0.51106 0.62849
 H1190 H -0.09433 0.54514 0.62911
 H1191 H -0.04407 0.58977 0.65270
 C1192 C 0.50679 0.54299 0.91159
 C1193 C 0.53721 0.55798 0.92670
 C1194 C 0.56303 0.53289 0.92309
 C1195 C 0.54661 0.50444 0.90577
 O1196 O 0.51225 0.51032 0.89889
 H1197 H 0.54033 0.58449 0.93813
 H1198 H 0.59074 0.53521 0.93165
 C1199 C 0.62010 0.49367 1.05184
 C1200 C 0.62096 0.46251 1.07126
 C1201 C 0.61869 0.43538 1.04725
 C1202 C 0.61741 0.45172 1.01485
 O1203 O 0.61794 0.48717 1.01736
 H1204 H 0.62329 0.45985 1.09968
 H1205 H 0.61940 0.40704 1.05259
 C1206 C 0.36202 0.99978 0.46155
 C1207 C 0.35770 0.96783 0.44348
 C1208 C 0.34911 0.94373 0.46823
 C1209 C 0.35025 0.96179 0.50036
 O1210 O 0.35756 0.99644 0.49646
 H1211 H 0.35947 0.96283 0.41524
 H1212 H 0.34442 0.91549 0.46347
 C1213 C -0.05062 0.62116 0.51410
 C1214 C -0.06756 0.62224 0.54636
 C1215 C -0.04063 0.62287 0.57069
 C1216 C -0.00915 0.62145 0.55160
 O1217 O -0.01508 0.62055 0.51703
 H1218 H -0.09608 0.62358 0.55144
 H1219 H -0.04356 0.62468 0.59911
 C1220 C 0.45210 0.38588 1.00029
 C1221 C 0.43425 0.39452 0.96944
 C1222 C 0.45918 0.39278 0.94361
 C1223 C 0.49058 0.38313 0.96038
 O1224 O 0.48651 0.37888 0.99497
 H1225 H 0.40626 0.40146 0.96622
 H1226 H 0.45505 0.39817 0.91579
 C1227 C 0.45310 0.00324 0.62223
 C1228 C 0.43395 0.03350 0.63110
 C1229 C 0.45867 0.05839 0.64099
 C1230 C 0.49147 0.04195 0.63753
 O1231 O 0.48832 0.00822 0.62610
 H1232 H 0.40511 0.03687 0.63092
 H1233 H 0.45343 0.08569 0.64910
 C1234 C 0.00451 0.54669 0.39815
 C1235 C 0.03497 0.56272 0.41220
 C1236 C 0.06076 0.53736 0.41083
 C1237 C 0.04427 0.50766 0.39596
 O1238 O 0.00997 0.51309 0.38826
 H1239 H 0.03802 0.58981 0.42218
 H1240 H 0.08834 0.54015 0.41967
 C1241 C 0.01077 1.04605 0.88318
 C1242 C 0.04189 1.06282 0.89477
 C1243 C 0.06713 1.03699 0.89535
 C1244 C 0.04984 1.00613 0.88411
 O1245 O 0.01542 1.01142 0.87666
 H1246 H 0.04573 1.09066 0.90208
 H1247 H 0.09499 1.04026 0.90309
 C1248 C 0.80043 0.63907 0.24322
 C1249 C 0.81931 0.64798 0.21325
 C1250 C 0.79412 0.65441 0.18815
 C1251 C 0.76155 0.64927 0.20455
 O1252 O 0.76517 0.63994 0.23816
 H1253 H 0.84813 0.64972 0.21014
 H1254 H 0.79889 0.66144 0.16086
 C1255 C 0.29622 0.85199 0.74652
 C1256 C 0.31473 0.84376 0.77708
 C1257 C 0.29153 0.84960 0.80387
 C1258 C 0.26036 0.86126 0.78801
 O1259 O 0.26291 0.86264 0.75292
 H1260 H 0.34234 0.83523 0.77949
 H1261 H 0.29672 0.84572 0.83179
 C1262 C 0.25612 0.37264 0.30497
 C1263 C 0.28806 0.36666 0.32241
 C1264 C 0.31376 0.36976 0.29736
 C1265 C 0.29573 0.37736 0.26629
 O1266 O 0.26055 0.37920 0.27079
 H1267 H 0.29207 0.36051 0.35009
 H1268 H 0.34234 0.36618 0.30113
 C1269 C 0.87705 0.75650 0.29514
 C1270 C 0.87413 0.78969 0.31089
 C1271 C 0.87627 0.81309 0.28404
 C1272 C 0.88000 0.79263 0.25359
 O1273 O 0.88044 0.75794 0.26013
 H1274 H 0.87113 0.79604 0.33875
 H1275 H 0.87516 0.84192 0.28631
 C1276 C 0.63884 0.29417 0.74879
 C1277 C 0.65394 0.31103 0.72018
 C1278 C 0.65959 0.28493 0.69583
 C1279 C 0.64774 0.25378 0.71117
 O1280 O 0.63514 0.25915 0.74360
 H1281 H 0.66021 0.33914 0.71746
 H1282 H 0.67034 0.28828 0.66950
 C1283 C 0.74246 0.19963 0.86682
 C1284 C 0.71105 0.18150 0.85860
 C1285 C 0.68457 0.20609 0.86120
 C1286 C 0.70156 0.23756 0.87089
 O1287 O 0.73685 0.23384 0.87438
 H1288 H 0.70786 0.15359 0.85132
 H1289 H 0.65624 0.20172 0.85618
 C1290 C 0.29985 0.73218 0.61174
 C1291 C 0.31757 0.70121 0.60240
 C1292 C 0.29147 0.67660 0.59564
 C1293 C 0.25957 0.69424 0.60107
 O1294 O 0.26447 0.72812 0.61088
 H1295 H 0.34624 0.69707 0.60075
 H1296 H 0.29524 0.64874 0.58867
   
