data_POSCAR
  _audit_creation_date              2014-09-24
  _audit_creation_method            'ToBaCCo'
  _symmetry_space_group_name_H-M    'P1'
  _symmetry_Int_Tables_number       1
  _symmetry_cell_setting            triclinic
  loop_
  _symmetry_equiv_pos_as_xyz
 x,y,z
_cell_length_a 47.0067
_cell_length_b 47.2109
_cell_length_c 47.0734
_cell_angle_alpha 89.815900
_cell_angle_beta 89.898000
_cell_angle_gamma 90.140200
loop_
  _atom_site_label
  _atom_site_type_symbol
  _atom_site_fract_x
  _atom_site_fract_y
  _atom_site_fract_z
C1 C 0.24258 1.05264 -0.01181
 C2 C 0.24313 1.06660 0.01460
 C3 C 0.24147 1.05153 0.04039
 C4 C 0.23539 1.02202 0.03943
 C5 C 0.23755 1.00729 0.01342
 C6 C 0.24298 1.02245 -0.01196
 C7 C 0.25061 1.00700 -0.03636
 C8 C 0.25031 0.97755 -0.03642
 C9 C 0.24173 0.96211 -0.01226
 C10 C 0.23518 0.97723 0.01297
 C11 C 0.22659 1.00697 0.06376
 C12 C 0.22317 0.97777 0.06324
 C13 C 0.22768 0.96235 0.03816
 C14 C 0.22594 0.93242 0.03784
 C15 C 0.23397 0.91785 0.01333
 C16 C 0.24204 0.93204 -0.01165
 H17 H 0.25806 1.01756 -0.05540
 H18 H 0.25727 0.96717 -0.05561
 H19 H 0.22223 1.01768 0.08357
 H20 H 0.21791 0.96748 0.08310
 H21 H 0.24519 1.08942 0.01514
 H22 H 0.23354 0.89486 0.01355
 C23 C 0.74703 0.44621 0.46617
 C24 C 0.74978 0.43353 0.49298
 C25 C 0.74852 0.44957 0.51804
 C26 C 0.74391 0.47929 0.51607
 C27 C 0.74171 0.49239 0.48899
 C28 C 0.74188 0.47569 0.46414
 C29 C 0.73703 0.48896 0.43778
 C30 C 0.73552 0.51833 0.43557
 C31 C 0.73926 0.53558 0.45956
 C32 C 0.74057 0.52244 0.48667
 C33 C 0.74136 0.49639 0.54036
 C34 C 0.74091 0.52579 0.53810
 C35 C 0.74213 0.53922 0.51142
 C36 C 0.74509 0.56897 0.50893
 C37 C 0.74430 0.58170 0.48205
 C38 C 0.74174 0.56552 0.45724
 H39 H 0.73462 0.47674 0.41852
 H40 H 0.73180 0.52735 0.41476
 H41 H 0.74011 0.48728 0.56143
 H42 H 0.73981 0.53797 0.55752
 H43 H 0.75482 0.41116 0.49425
 H44 H 0.74788 0.60434 0.48032
 C45 C 0.72848 0.98747 1.04794
 C46 C 0.72849 1.01473 1.05963
 C47 C 0.73507 1.03891 1.04302
 C48 C 0.73804 1.03521 1.01301
 C49 C 0.74132 1.00767 1.00170
 C50 C 0.73775 0.98379 1.01958
 C51 C 0.74303 0.95670 1.00857
 C52 C 0.74988 0.95297 0.98018
 C53 C 0.75204 0.97620 0.96157
 C54 C 0.74717 1.00391 0.97223
 C55 C 0.73560 1.05799 0.99378
 C56 C 0.73927 1.05419 0.96464
 C57 C 0.74656 1.02759 0.95336
 C58 C 0.75054 1.02314 0.92364
 C59 C 0.75684 0.99563 0.91415
 C60 C 0.75782 0.97233 0.93239
 H61 H 0.74202 0.93798 1.02186
 H62 H 0.75253 0.93145 0.97293
 H63 H 0.72962 1.07887 1.00104
 H64 H 0.73577 1.07240 0.95120
 H65 H 0.72429 1.01659 1.08214
 H66 H 0.76131 0.99219 0.89179
 C67 C 0.24336 0.51658 0.45355
 C68 C 0.24341 0.49000 0.44041
 C69 C 0.24285 0.46488 0.45638
 C70 C 0.24158 0.46643 0.48647
 C71 C 0.24219 0.49320 0.49999
 C72 C 0.24162 0.51828 0.48353
 C73 C 0.23950 0.54446 0.49755
 C74 C 0.24167 0.54612 0.52696
 C75 C 0.24637 0.52169 0.54345
 C76 C 0.24473 0.49491 0.53003
 C77 C 0.23979 0.44197 0.50352
 C78 C 0.24259 0.44362 0.53289
 C79 C 0.24693 0.46983 0.54636
 C80 C 0.25352 0.47157 0.57566
 C81 C 0.25579 0.49817 0.58856
 C82 C 0.25261 0.52327 0.57289
 H83 H 0.23647 0.56398 0.48584
 H84 H 0.24005 0.56683 0.53658
 H85 H 0.23667 0.42125 0.49429
 H86 H 0.24163 0.42408 0.54494
 H87 H 0.24598 0.48885 0.41754
 H88 H 0.26201 0.49936 0.61070
 C89 C 1.06179 0.24537 0.03566
 C90 C 1.07952 0.25142 0.01239
 C91 C 1.06894 0.25571 -0.01523
 C92 C 1.03909 0.25337 -0.01982
 C93 C 1.02064 0.24837 0.00368
 C94 C 1.03190 0.24611 0.03151
 C95 C 1.01294 0.24711 0.05467
 C96 C 0.98377 0.24606 0.05068
 C97 C 0.97217 0.24429 0.02331
 C98 C 0.99064 0.24671 -0.00043
 C99 C 1.02674 0.25872 -0.04647
 C100 C 0.99752 0.25613 -0.05053
 C101 C 0.97919 0.24810 -0.02816
 C102 C 0.94946 0.24363 -0.03240
 C103 C 0.93159 0.24136 -0.00840
 C104 C 0.94249 0.24143 0.01920
 H105 H 1.02044 0.24940 0.07625
 H106 H 0.97041 0.24698 0.06939
 H107 H 1.03933 0.26557 -0.06445
 H108 H 0.98937 0.26134 -0.07136
 H109 H 1.10240 0.25075 0.01524
 H110 H 0.90905 0.23727 -0.01101
 C111 C 0.55432 0.75674 0.52542
 C112 C 0.56920 0.75390 0.49971
 C113 C 0.55503 0.75393 0.47354
 C114 C 0.52517 0.75771 0.47274
 C115 C 0.50969 0.75934 0.49840
 C116 C 0.52429 0.76027 0.52472
 C117 C 0.50833 0.76469 0.54958
 C118 C 0.47876 0.76358 0.54905
 C119 C 0.46403 0.75858 0.52354
 C120 C 0.47944 0.75872 0.49779
 C121 C 0.51031 0.75978 0.44689
 C122 C 0.48070 0.75973 0.44632
 C123 C 0.46481 0.75692 0.47153
 C124 C 0.43486 0.75244 0.47127
 C125 C 0.42014 0.75074 0.49725
 C126 C 0.43440 0.75319 0.52328
 H127 H 0.51851 0.76852 0.56979
 H128 H 0.46753 0.76630 0.56895
 H129 H 0.52148 0.76119 0.42681
 H130 H 0.47047 0.76142 0.42584
 H131 H 0.59187 0.74972 0.50013
 H132 H 0.39763 0.74565 0.49727
 C133 C 0.03273 0.74821 -0.05358
 C134 C 0.01068 0.74435 -0.07322
 C135 C -0.01805 0.74212 -0.06536
 C136 C -0.02511 0.74383 -0.03595
 C137 C -0.00304 0.74683 -0.01536
 C138 C 0.02588 0.74867 -0.02413
 C139 C 0.04717 0.74893 -0.00308
 C140 C 0.04048 0.75038 0.02559
 C141 C 0.01219 0.74900 0.03488
 C142 C -0.00981 0.74677 0.01425
 C143 C -0.05324 0.74069 -0.02622
 C144 C -0.05992 0.74253 0.00242
 C145 C -0.03859 0.74467 0.02315
 C146 C -0.04522 0.74485 0.05255
 C147 C -0.02329 0.74743 0.07240
 C148 C 0.00522 0.74975 0.06421
 H149 H 0.06948 0.74743 -0.00828
 H150 H 0.05798 0.75209 0.04030
 H151 H -0.07067 0.73627 -0.04037
 H152 H -0.08220 0.74180 0.00791
 H153 H 0.01578 0.74523 -0.09570
 H154 H -0.02853 0.74758 0.09486
 C155 C 0.53727 0.27360 0.55812
 C156 C 0.51294 0.27142 0.57528
 C157 C 0.48557 0.27323 0.56365
 C158 C 0.48249 0.27819 0.53406
 C159 C 0.50693 0.27972 0.51649
 C160 C 0.53433 0.27899 0.52869
 C161 C 0.55816 0.28294 0.51096
 C162 C 0.55531 0.28296 0.48157
 C163 C 0.52851 0.27929 0.46894
 C164 C 0.50401 0.27989 0.48647
 C165 C 0.45559 0.28114 0.52141
 C166 C 0.45274 0.28145 0.49198
 C167 C 0.47667 0.27854 0.47420
 C168 C 0.47395 0.27361 0.44465
 C169 C 0.49842 0.27214 0.42762
 C170 C 0.52566 0.27437 0.43940
 H171 H 0.57934 0.28521 0.51965
 H172 H 0.57439 0.28511 0.46883
 H173 H 0.43647 0.28254 0.53416
 H174 H 0.43152 0.28316 0.48329
 H175 H 0.51531 0.26588 0.59752
 H176 H 0.49631 0.26670 0.40535
 C177 C 0.92408 -0.01805 0.22376
 C178 C 0.91336 0.00941 0.22762
 C179 C 0.93043 0.03196 0.23640
 C180 C 0.95983 0.02755 0.24083
 C181 C 0.97134 0.00001 0.23751
 C182 C 0.95359 -0.02282 0.22863
 C183 C 0.96642 -0.04897 0.22262
 C184 C 0.99508 -0.05356 0.22824
 C185 C 1.01229 -0.03222 0.24010
 C186 C 1.00083 -0.00459 0.24270
 C187 C 0.97810 0.05005 0.24795
 C188 C 1.00679 0.04549 0.25322
 C189 C 1.01871 0.01840 0.25058
 C190 C 1.04795 0.01358 0.25581
 C191 C 1.05859 -0.01401 0.25412
 C192 C 1.04114 -0.03733 0.24765
 H193 H 0.95466 -0.06609 0.21293
 H194 H 1.00379 -0.07396 0.22256
 H195 H 0.97052 0.07160 0.24931
 H196 H 1.01946 0.06356 0.25945
 H197 H 0.89069 0.01309 0.22548
 H198 H 1.08062 -0.01738 0.25997
 C199 C 0.45834 0.47808 0.77440
 C200 C 0.44535 0.50471 0.77454
 C201 C 0.46046 0.52933 0.76735
 C202 C 0.48939 0.52710 0.75877
 C203 C 0.50283 0.50019 0.75844
 C204 C 0.48728 0.47563 0.76625
 C205 C 0.50101 0.44919 0.76543
 C206 C 0.52951 0.44698 0.75797
 C207 C 0.54525 0.47085 0.74938
 C208 C 0.53188 0.49780 0.75005
 C209 C 0.50514 0.55097 0.75007
 C210 C 0.53373 0.54877 0.74279
 C211 C 0.54751 0.52237 0.74246
 C212 C 0.57656 0.51992 0.73489
 C213 C 0.58937 0.49326 0.73403
 C214 C 0.57406 0.46857 0.74043
 H215 H 0.48997 0.42973 0.77052
 H216 H 0.53901 0.42620 0.75923
 H217 H 0.49559 0.57172 0.74863
 H218 H 0.54481 0.56811 0.73725
 H219 H 0.42334 0.50637 0.78129
 H220 H 0.61138 0.49168 0.72727
 C221 C 0.99892 1.06253 0.74224
 C222 C 1.02643 1.07351 0.74585
 C223 C 1.05011 1.05636 0.75127
 C224 C 1.04592 1.02666 0.75478
 C225 C 1.01816 1.01498 0.75230
 C226 C 0.99459 1.03287 0.74585
 C227 C 0.96798 1.02015 0.74091
 C228 C 0.96388 0.99130 0.74483
 C229 C 0.98641 0.97352 0.75274
 C230 C 1.01413 0.98510 0.75524
 C231 C 1.06851 1.00834 0.76162
 C232 C 1.06495 0.97913 0.76205
 C233 C 1.03792 0.96677 0.75922
 C234 C 1.03374 0.93679 0.75871
 C235 C 1.00570 0.92635 0.75873
 C236 C 0.98211 0.94415 0.75666
 H237 H 0.94996 1.03205 0.73330
 H238 H 0.94292 0.98291 0.74039
 H239 H 1.08953 1.01624 0.76643
 H240 H 1.08389 0.96673 0.76497
 H241 H 1.02966 1.09611 0.74296
 H242 H 1.00222 0.90367 0.76033
 C243 C 0.51036 0.43891 0.26288
 C244 C 0.48417 0.42463 0.26198
 C245 C 0.45847 0.43940 0.25887
 C246 C 0.45908 0.46948 0.25780
 C247 C 0.48548 0.48396 0.25614
 C248 C 0.51120 0.46868 0.25872
 C249 C 0.53712 0.48357 0.25672
 C250 C 0.53772 0.51271 0.25246
 C251 C 0.51251 0.52817 0.24856
 C252 C 0.48613 0.51377 0.25138
 C253 C 0.43397 0.48556 0.25874
 C254 C 0.43458 0.51471 0.25452
 C255 C 0.46033 0.52900 0.24911
 C256 C 0.46092 0.55817 0.24199
 C257 C 0.48711 0.57211 0.23906
 C258 C 0.51292 0.55760 0.24206
 H259 H 0.55739 0.47291 0.25795
 H260 H 0.55835 0.52286 0.25216
 H261 H 0.41354 0.47577 0.26284
 H262 H 0.41456 0.52589 0.25552
 H263 H 0.48389 0.40171 0.26340
 H264 H 0.48739 0.59431 0.23308
 O265 O 0.24949 0.16518 0.22832
 O266 O 0.28110 0.15978 0.26674
 O267 O 0.17156 0.19116 0.26895
 O268 O 0.16123 0.22491 0.30056
 O269 O 0.20171 0.23384 0.19381
 O270 O 0.23536 0.26939 0.18574
 O271 O 0.24393 0.27739 0.33996
 O272 O 0.21043 0.24058 0.34864
 O273 O 0.31480 0.24758 0.30519
 O274 O 0.32805 0.21763 0.26666
 O275 O 0.27291 0.31507 0.26423
 O276 O 0.22874 0.31799 0.23485
 O277 O 0.23827 0.31148 0.30620
 O278 O 0.20230 0.31652 0.27262
 O279 O 0.31056 0.28492 0.26612
 O280 O 0.32105 0.24325 0.23257
 O281 O 0.28156 0.24058 0.33974
 O282 O 0.24748 0.20694 0.34868
 O283 O 0.24462 0.19859 0.19376
 O284 O 0.27471 0.24095 0.18777
 O285 O 0.16815 0.22880 0.22848
 O286 O 0.15830 0.26255 0.26622
 O287 O 0.20956 0.16130 0.27050
 O288 O 0.25329 0.15683 0.29872
 Zr289 Zr 0.24583 0.18748 0.26669
 O290 O 0.27008 0.21463 0.29223
 Zr291 Zr 0.19078 0.23142 0.26707
 O292 O 0.21275 0.26066 0.29306
 Zr293 Zr 0.24000 0.23677 0.21641
 O294 O 0.26381 0.26621 0.24008
 Zr295 Zr 0.24303 0.23914 0.31761
 O296 O 0.21859 0.20941 0.29448
 Zr297 Zr 0.29194 0.24431 0.26693
 O298 O 0.27024 0.21481 0.24095
 Zr299 Zr 0.23696 0.28850 0.26783
 O300 O 0.21240 0.26133 0.24165
 O301 O 0.21690 0.20780 0.24062
 O302 O 0.26645 0.26823 0.29373
 C303 C 0.24883 0.17301 0.20216
 C304 C 0.18269 0.16642 0.27116
 C305 C 0.17592 0.23066 0.20232
 C306 C 0.24216 0.30335 0.33201
 C307 C 0.30721 0.24458 0.33127
 C308 C 0.29974 0.30980 0.26416
 H309 H 0.28304 0.20297 0.30392
 H310 H 0.27387 0.27892 0.22667
 H311 H 0.20605 0.19413 0.22895
 H312 H 0.19937 0.27139 0.30516
 H313 H 0.19666 0.22551 0.34371
 H314 H 0.16223 0.24153 0.31327
 H315 H 0.31742 0.26003 0.22048
 H316 H 0.26845 0.23501 0.16856
 H317 H 0.23267 0.19255 0.34485
 H318 H 0.23791 0.15867 0.31293
 H319 H 0.24430 0.31646 0.22077
 H320 H 0.22049 0.28239 0.19285
 H321 H 0.29575 0.16864 0.25443
 H322 H 0.32381 0.20128 0.27915
 H323 H 0.13982 0.25284 0.26319
 H324 H 0.18561 0.30692 0.26424
 O325 O 0.71620 0.83488 0.19881
 O326 O 0.69027 0.83896 0.24343
 O327 O 0.79833 0.80705 0.22681
 O328 O 0.81197 0.77459 0.25767
 O329 O 0.75835 0.76376 0.15698
 O330 O 0.72277 0.73249 0.15142
 O331 O 0.73812 0.71888 0.30660
 O332 O 0.76918 0.75872 0.31197
 O333 O 0.66024 0.74692 0.28096
 O334 O 0.64478 0.78161 0.25075
 O335 O 0.69750 0.68315 0.23581
 O336 O 0.73570 0.68044 0.20000
 O337 O 0.73971 0.68635 0.27108
 O338 O 0.76910 0.68301 0.23137
 O339 O 0.65989 0.71292 0.24103
 O340 O 0.64729 0.75304 0.20835
 O341 O 0.69708 0.75336 0.31168
 O342 O 0.73340 0.78869 0.31794
 O343 O 0.71542 0.80201 0.16359
 O344 O 0.68444 0.75884 0.16123
 O345 O 0.79617 0.76726 0.18709
 O346 O 0.81106 0.73590 0.22525
 O347 O 0.76077 0.83712 0.23136
 O348 O 0.72549 0.83998 0.26983
 Zr349 Zr 0.72447 0.81097 0.23571
 O350 O 0.70325 0.78286 0.26354
 Zr351 Zr 0.77866 0.76698 0.22836
 O352 O 0.76021 0.73726 0.25652
 Zr353 Zr 0.72302 0.76300 0.18430
 O354 O 0.70304 0.73268 0.21033
 Zr355 Zr 0.73305 0.75787 0.28527
 O356 O 0.75454 0.78816 0.25950
 Zr357 Zr 0.67848 0.75363 0.24088
 O358 O 0.69636 0.78443 0.21307
 Zr359 Zr 0.73331 0.70995 0.23378
 O360 O 0.75375 0.73796 0.20522
 O361 O 0.74953 0.79099 0.20555
 O362 O 0.70730 0.72913 0.26377
 C363 C 0.71313 0.82756 0.17273
 C364 C 0.78745 0.83197 0.22784
 C365 C 0.78515 0.76451 0.16224
 C366 C 0.74074 0.69341 0.29738
 C367 C 0.67085 0.74809 0.30606
 C368 C 0.67072 0.68812 0.23810
 H369 H 0.69110 0.79381 0.27666
 H370 H 0.69119 0.72031 0.19822
 H371 H 0.75890 0.80414 0.19202
 H372 H 0.77530 0.72659 0.26650
 H373 H 0.78129 0.77463 0.30535
 H374 H 0.81196 0.75875 0.27149
 H375 H 0.62928 0.74587 0.21672
 H376 H 0.68695 0.76721 0.14202
 H377 H 0.71885 0.80304 0.31334
 H378 H 0.74241 0.83521 0.28138
 H379 H 0.71824 0.68227 0.18845
 H380 H 0.73510 0.71676 0.15781
 H381 H 0.67493 0.83379 0.23004
 H382 H 0.64552 0.79700 0.23648
 H383 H 0.82892 0.74542 0.21920
 H384 H 0.78304 0.69253 0.21878
 O385 O 0.77081 0.17105 0.76222
 O386 O 0.75096 0.16247 0.72036
 O387 O 0.84779 0.21640 0.72751
 O388 O 0.85440 0.26076 0.70619
 O389 O 0.80884 0.24052 0.80805
 O390 O 0.77037 0.26886 0.81887
 O391 O 0.76703 0.29642 0.66530
 O392 O 0.80354 0.26148 0.65211
 O393 O 0.69830 0.24937 0.69362
 O394 O 0.69279 0.21153 0.72486
 O395 O 0.72669 0.31868 0.73943
 O396 O 0.76296 0.32775 0.77295
 O397 O 0.76784 0.32603 0.70330
 O398 O 0.79824 0.32963 0.74833
 O399 O 0.69556 0.28235 0.73320
 O400 O 0.69264 0.24095 0.76651
 O401 O 0.73312 0.25408 0.66016
 O402 O 0.77747 0.22801 0.64856
 O403 O 0.77035 0.19927 0.80130
 O404 O 0.73496 0.23678 0.81073
 O405 O 0.84360 0.24689 0.77477
 O406 O 0.84955 0.28653 0.74155
 O407 O 0.81721 0.17902 0.72660
 O408 O 0.77892 0.17483 0.68951
 Zr409 Zr 0.77669 0.19846 0.72758
 O410 O 0.74837 0.22388 0.70430
 Zr411 Zr 0.82198 0.25152 0.73599
 O412 O 0.79641 0.27917 0.71191
 Zr413 Zr 0.77117 0.24069 0.78394
 O414 O 0.74365 0.26869 0.76234
 Zr415 Zr 0.77143 0.25580 0.68324
 O416 O 0.80027 0.22863 0.70446
 Zr417 Zr 0.72096 0.24590 0.73167
 O418 O 0.74654 0.21728 0.75481
 Zr419 Zr 0.76688 0.29882 0.73894
 O420 O 0.79445 0.27317 0.76358
 O421 O 0.80015 0.21983 0.75789
 O422 O 0.74269 0.27719 0.70902
 C423 C 0.76853 0.17498 0.78913
 C424 C 0.84229 0.18988 0.72520
 C425 C 0.83505 0.24295 0.80044
 C426 C 0.76714 0.32120 0.67644
 C427 C 0.70696 0.25194 0.66787
 C428 C 0.70139 0.30876 0.73616
 H429 H 0.73755 0.21169 0.69110
 H430 H 0.73055 0.27782 0.77598
 H431 H 0.81236 0.20654 0.76866
 H432 H 0.80876 0.29309 0.70212
 H433 H 0.81577 0.27742 0.65816
 H434 H 0.84803 0.25261 0.68792
 H435 H 0.67307 0.24456 0.75956
 H436 H 0.74097 0.22868 0.82925
 H437 H 0.76344 0.21247 0.65042
 H438 H 0.79539 0.18222 0.67861
 H439 H 0.75250 0.31798 0.78838
 H440 H 0.78130 0.28590 0.81315
 H441 H 0.73116 0.16939 0.71929
 H442 H 0.69737 0.19704 0.73939
 H443 H 0.84261 0.29699 0.75838
 H444 H 0.81156 0.33046 0.73205
 O445 O 0.25893 0.82110 0.80374
 O446 O 0.28563 0.83271 0.76315
 O447 O 0.18541 0.78022 0.76176
 O448 O 0.17463 0.74002 0.74134
 O449 O 0.22711 0.74737 0.83960
 O450 O 0.26440 0.71437 0.84369
 O451 O 0.26356 0.71055 0.68898
 O452 O 0.22534 0.74390 0.68424
 O453 O 0.33258 0.74874 0.72015
 O454 O 0.34392 0.78217 0.75431
 O455 O 0.30650 0.67771 0.75985
 O456 O 0.26935 0.66416 0.79156
 O457 O 0.26618 0.67566 0.72232
 O458 O 0.23519 0.66491 0.76550
 O459 O 0.33756 0.71462 0.76218
 O460 O 0.34118 0.76060 0.79252
 O461 O 0.29694 0.75099 0.68761
 O462 O 0.25922 0.78084 0.68189
 O463 O 0.26649 0.78610 0.83617
 O464 O 0.29972 0.74757 0.84071
 O465 O 0.19113 0.74343 0.80748
 O466 O 0.18567 0.70737 0.76773
 O467 O 0.21551 0.81786 0.76536
 O468 O 0.25555 0.82984 0.73239
 Zr469 Zr 0.25633 0.79871 0.76486
 O470 O 0.28362 0.77675 0.73690
 Zr471 Zr 0.21111 0.74444 0.76712
 O472 O 0.23590 0.72073 0.73838
 Zr473 Zr 0.26346 0.74809 0.81384
 O474 O 0.29031 0.72382 0.78790
 Zr475 Zr 0.26003 0.74799 0.71256
 O476 O 0.23205 0.77197 0.73829
 Zr477 Zr 0.31196 0.75102 0.75977
 O478 O 0.28720 0.77578 0.78778
 Zr479 Zr 0.26616 0.69731 0.76141
 O480 O 0.23931 0.71896 0.79029
 O481 O 0.23367 0.77271 0.79229
 O482 O 0.28956 0.72305 0.73409
 C483 C 0.26452 0.81222 0.82900
 C484 C 0.19063 0.80693 0.76194
 C485 C 0.20068 0.74540 0.83305
 C486 C 0.26572 0.68448 0.69648
 C487 C 0.32327 0.74919 0.69449
 C488 C 0.33180 0.68800 0.76163
 H489 H 0.29381 0.79035 0.72448
 H490 H 0.30327 0.71304 0.80040
 H491 H 0.22150 0.78453 0.80466
 H492 H 0.22342 0.70851 0.72675
 H493 H 0.21093 0.75795 0.69018
 H494 H 0.18156 0.73695 0.72176
 H495 H 0.34214 0.74384 0.80515
 H496 H 0.29369 0.75186 0.86046
 H497 H 0.24426 0.79423 0.68785
 H498 H 0.23816 0.82669 0.72102
 H499 H 0.28010 0.67167 0.80793
 H500 H 0.25050 0.69993 0.83736
 H501 H 0.30268 0.82645 0.77376
 H502 H 0.33437 0.79966 0.74786
 H503 H 0.19150 0.69614 0.78454
 H504 H 0.22195 0.66655 0.74927
 O505 O 0.27198 0.32292 0.73086
 O506 O 0.23793 0.32796 0.77075
 O507 O 0.34579 0.28940 0.77381
 O508 O 0.35517 0.25369 0.80117
 O509 O 0.31181 0.24893 0.69611
 O510 O 0.27285 0.21717 0.68923
 O511 O 0.26809 0.20803 0.84260
 O512 O 0.30494 0.24185 0.85076
 O513 O 0.19905 0.24792 0.81041
 O514 O 0.19077 0.27973 0.76832
 O515 O 0.23526 0.17542 0.76649
 O516 O 0.27778 0.16919 0.73644
 O517 O 0.26846 0.17529 0.80730
 O518 O 0.30483 0.16774 0.77431
 O519 O 0.19976 0.20783 0.77022
 O520 O 0.18919 0.24485 0.74022
 O521 O 0.23412 0.24987 0.84365
 O522 O 0.27279 0.27892 0.85191
 O523 O 0.27455 0.28919 0.69663
 O524 O 0.23981 0.25174 0.68925
 O525 O 0.34650 0.25200 0.72973
 O526 O 0.35317 0.21673 0.76722
 O527 O 0.31079 0.32276 0.77309
 O528 O 0.27263 0.33253 0.79956
 Zr529 Zr 0.27270 0.29958 0.76924
 O530 O 0.24696 0.27435 0.79589
 Zr531 Zr 0.32393 0.25091 0.76884
 O532 O 0.29987 0.22338 0.79508
 Zr533 Zr 0.27365 0.25075 0.71905
 O534 O 0.24736 0.22386 0.74320
 Zr535 Zr 0.27202 0.24687 0.82057
 O536 O 0.29808 0.27470 0.79658
 Zr537 Zr 0.22157 0.24717 0.77118
 O538 O 0.24540 0.27469 0.74406
 Zr539 Zr 0.27280 0.19879 0.76983
 O540 O 0.29943 0.22360 0.74342
 O541 O 0.29981 0.27710 0.74291
 O542 O 0.24549 0.22062 0.79696
 C543 C 0.27349 0.31505 0.70479
 C544 C 0.33690 0.31507 0.77546
 C545 C 0.33798 0.24957 0.70384
 C546 C 0.26616 0.18244 0.83347
 C547 C 0.20787 0.25051 0.83619
 C548 C 0.20893 0.18233 0.76697
 H549 H 0.23551 0.28721 0.80782
 H550 H 0.23572 0.21257 0.72989
 H551 H 0.31224 0.28970 0.73149
 H552 H 0.31234 0.21112 0.80671
 H553 H 0.32014 0.25537 0.84536
 H554 H 0.35231 0.23750 0.81427
 H555 H 0.19803 0.25094 0.72213
 H556 H 0.24759 0.25650 0.67018
 H557 H 0.28763 0.29270 0.84613
 H558 H 0.26547 0.32433 0.81755
 H559 H 0.26209 0.17217 0.72278
 H560 H 0.28804 0.20369 0.69457
 H561 H 0.22515 0.32298 0.75482
 H562 H 0.19415 0.29303 0.78416
 H563 H 0.37242 0.22444 0.76322
 H564 H 0.32192 0.17527 0.76459
 O565 O 0.76629 0.68521 0.69142
 O566 O 0.79836 0.67394 0.72770
 O567 O 0.69070 0.70515 0.74057
 O568 O 0.68116 0.73515 0.77681
 O569 O 0.71259 0.75616 0.66989
 O570 O 0.74471 0.79288 0.66287
 O571 O 0.76873 0.78284 0.81616
 O572 O 0.73833 0.74258 0.82346
 O573 O 0.83752 0.75471 0.76900
 O574 O 0.84652 0.73468 0.72561
 O575 O 0.79095 0.82875 0.74759
 O576 O 0.74707 0.83699 0.71953
 O577 O 0.75687 0.81967 0.78735
 O578 O 0.71926 0.82846 0.75104
 O579 O 0.82826 0.79960 0.73853
 O580 O 0.83348 0.76321 0.69604
 O581 O 0.80842 0.74850 0.80724
 O582 O 0.77706 0.71221 0.81553
 O583 O 0.75642 0.72184 0.66144
 O584 O 0.78489 0.76603 0.65777
 O585 O 0.68313 0.74820 0.70761
 O586 O 0.67752 0.77530 0.75238
 O587 O 0.72780 0.67541 0.73206
 O588 O 0.77173 0.66869 0.76134
 Zr589 Zr 0.76385 0.70218 0.73241
 O590 O 0.79102 0.72635 0.75802
 Zr591 Zr 0.70974 0.74531 0.74354
 O592 O 0.73427 0.77099 0.77088
 Zr593 Zr 0.75325 0.75717 0.68879
 O594 O 0.77925 0.78398 0.71352
 Zr595 Zr 0.76731 0.74735 0.78932
 O596 O 0.73992 0.72040 0.76549
 Zr597 Zr 0.80990 0.75913 0.73423
 O598 O 0.78560 0.73253 0.70760
 Zr599 Zr 0.75524 0.80197 0.74650
 O600 O 0.72843 0.77807 0.71957
 O601 O 0.73282 0.72547 0.71170
 O602 O 0.78757 0.77937 0.76650
 C603 C 0.76292 0.69586 0.66654
 C604 C 0.70118 0.68063 0.73527
 C605 C 0.68780 0.75216 0.68091
 C606 C 0.76366 0.80920 0.81160
 C607 C 0.83314 0.75051 0.79563
 C608 C 0.81763 0.82396 0.74431
 H609 H 0.80522 0.71344 0.76652
 H610 H 0.78818 0.79858 0.70132
 H611 H 0.72114 0.71361 0.69892
 H612 H 0.72198 0.77942 0.78566
 H613 H 0.72544 0.72680 0.81835
 H614 H 0.68813 0.74478 0.79407
 H615 H 0.83253 0.78323 0.68985
 H616 H 0.77700 0.76184 0.63870
 H617 H 0.76408 0.69673 0.80993
 H618 H 0.75497 0.66712 0.77400
 H619 H 0.76140 0.83691 0.70413
 H620 H 0.73293 0.80591 0.67434
 H621 H 0.81254 0.68368 0.71553
 H622 H 0.84310 0.71567 0.73383
 H623 H 0.67934 0.79057 0.73802
 H624 H 0.70827 0.82163 0.76765
 O625 O 0.23787 0.66489 0.29735
 O626 O 0.20131 0.65503 0.26229
 O627 O 0.30366 0.70339 0.24719
 O628 O 0.30709 0.73901 0.21749
 O629 O 0.27751 0.74126 0.32721
 O630 O 0.24288 0.76872 0.34091
 O631 O 0.21647 0.77738 0.18630
 O632 O 0.24783 0.74108 0.17342
 O633 O 0.14992 0.74041 0.23193
 O634 O 0.14838 0.70398 0.26545
 O635 O 0.18717 0.81054 0.26290
 O636 O 0.22741 0.81926 0.29149
 O637 O 0.21681 0.81126 0.22065
 O638 O 0.25962 0.81849 0.25182
 O639 O 0.15495 0.77497 0.26914
 O640 O 0.15629 0.73573 0.30518
 O641 O 0.17839 0.74004 0.19267
 O642 O 0.21765 0.70620 0.17855
 O643 O 0.24228 0.69900 0.33118
 O644 O 0.20464 0.73583 0.34098
 O645 O 0.30678 0.74028 0.28857
 O646 O 0.30426 0.77751 0.24999
 O647 O 0.27070 0.66793 0.24977
 O648 O 0.22632 0.65725 0.22721
 Zr649 Zr 0.23179 0.68795 0.25935
 O650 O 0.20049 0.71119 0.23753
 Zr651 Zr 0.27928 0.74010 0.25295
 O652 O 0.25015 0.76498 0.22973
 Zr653 Zr 0.23680 0.73745 0.30931
 O654 O 0.20647 0.76321 0.28897
 Zr655 Zr 0.22030 0.73918 0.20893
 O656 O 0.25169 0.71411 0.22895
 Zr657 Zr 0.17853 0.73737 0.26596
 O658 O 0.20713 0.71102 0.28863
 Zr659 Zr 0.22602 0.78909 0.25836
 O660 O 0.25703 0.76612 0.28147
 O661 O 0.26056 0.71254 0.28179
 O662 O 0.19699 0.76445 0.23634
 C663 C 0.24188 0.67306 0.32308
 C664 C 0.29617 0.67723 0.24581
 C665 C 0.30228 0.74108 0.31559
 C666 C 0.21453 0.80314 0.19475
 C667 C 0.15393 0.74158 0.20493
 C668 C 0.16168 0.80126 0.26673
 H669 H 0.18714 0.69814 0.22794
 H670 H 0.19608 0.77457 0.30322
 H671 H 0.27502 0.70079 0.29147
 H672 H 0.26048 0.77732 0.21615
 H673 H 0.26484 0.72980 0.17845
 H674 H 0.29999 0.75291 0.20344
 H675 H 0.13594 0.73951 0.30123
 H676 H 0.21360 0.73019 0.35919
 H677 H 0.20096 0.69425 0.18321
 H678 H 0.23569 0.66492 0.20997
 H679 H 0.24477 0.81508 0.30261
 H680 H 0.22854 0.78366 0.33764
 H681 H 0.18988 0.65860 0.27957
 H682 H 0.15445 0.69020 0.28007
 H683 H 0.32446 0.77225 0.25290
 H684 H 0.25100 0.83739 0.24866
 O685 O 0.75085 0.32985 0.27942
 O686 O 0.77111 0.34440 0.23921
 O687 O 0.66944 0.29968 0.23912
 O688 O 0.65850 0.26488 0.20898
 O689 O 0.70362 0.25540 0.31172
 O690 O 0.74030 0.22484 0.31899
 O691 O 0.74477 0.22383 0.16257
 O692 O 0.71179 0.26144 0.15630
 O693 O 0.81640 0.25202 0.19991
 O694 O 0.82551 0.28788 0.23274
 O695 O 0.77958 0.18453 0.23518
 O696 O 0.73882 0.17545 0.26542
 O697 O 0.74377 0.18801 0.19499
 O698 O 0.70541 0.18168 0.23247
 O699 O 0.81447 0.21788 0.23981
 O700 O 0.82023 0.25734 0.27382
 O701 O 0.78343 0.25832 0.16505
 O702 O 0.74995 0.29459 0.15822
 O703 O 0.74341 0.29580 0.31291
 O704 O 0.77739 0.25523 0.31634
 O705 O 0.66919 0.25856 0.27782
 O706 O 0.66215 0.22747 0.23541
 O707 O 0.70433 0.33260 0.24501
 O708 O 0.74397 0.33956 0.20692
 Zr709 Zr 0.74265 0.30974 0.24058
 O710 O 0.76945 0.28592 0.21387
 Zr711 Zr 0.69176 0.26115 0.23891
 O712 O 0.71578 0.23565 0.21087
 Zr713 Zr 0.74177 0.25818 0.28880
 O714 O 0.76683 0.23171 0.26340
 Zr715 Zr 0.74438 0.26069 0.18725
 O716 O 0.71710 0.28684 0.21198
 Zr717 Zr 0.79327 0.25686 0.23771
 O718 O 0.76984 0.28374 0.26478
 Zr719 Zr 0.74169 0.20842 0.23483
 O720 O 0.71599 0.23232 0.26294
 O721 O 0.71593 0.28578 0.26638
 O722 O 0.76928 0.23235 0.21006
 C723 C 0.74905 0.32138 0.30532
 C724 C 0.67804 0.32513 0.24348
 C725 C 0.67751 0.25560 0.30372
 C726 C 0.74500 0.19749 0.16938
 C727 C 0.80887 0.25313 0.17369
 C728 C 0.80566 0.19217 0.23856
 H729 H 0.78197 0.29862 0.20265
 H730 H 0.77795 0.21943 0.27629
 H731 H 0.70450 0.29723 0.27975
 H732 H 0.70295 0.22482 0.19825
 H733 H 0.69861 0.27682 0.16173
 H734 H 0.66572 0.25704 0.19091
 H735 H 0.83974 0.25239 0.26752
 H736 H 0.77163 0.26132 0.33566
 H737 H 0.73572 0.30915 0.16315
 H738 H 0.72462 0.34044 0.19867
 H739 H 0.75324 0.17908 0.28024
 H740 H 0.72898 0.20940 0.31039
 H741 H 0.79043 0.33620 0.23879
 H742 H 0.82226 0.30216 0.24774
 H743 H 0.66623 0.21402 0.25106
 H744 H 0.71113 0.16329 0.22409
 C745 C 0.24419 0.10574 0.09800
 C746 C 0.26003 0.09133 0.11782
 C747 C 0.27113 0.06460 0.11302
 C748 C 0.26523 0.05188 0.08689
 C749 C 0.24782 0.06555 0.06622
 C750 C 0.23798 0.09346 0.07175
 O751 O 0.23526 0.13078 0.10719
 C752 C 0.24564 0.13205 0.13340
 C753 C 0.26088 0.10837 0.14089
 C754 C 0.27266 0.10458 0.16766
 C755 C 0.26853 0.12610 0.18764
 C756 C 0.25306 0.15090 0.18050
 C757 C 0.24162 0.15397 0.15284
 H758 H 0.28386 0.05388 0.12886
 H759 H 0.27451 0.03134 0.08268
 H760 H 0.22462 0.10474 0.05683
 H761 H 0.28433 0.08558 0.17308
 H762 H 0.27752 0.12348 0.20866
 H763 H 0.22941 0.17248 0.14688
 C764 C 0.74848 0.62587 0.56535
 C765 C 0.77311 0.61802 0.57899
 C766 C 0.78948 0.59505 0.57068
 C767 C 0.78003 0.57933 0.54738
 C768 C 0.75437 0.58648 0.53327
 C769 C 0.73859 0.61040 0.54208
 O770 O 0.73581 0.64798 0.57735
 C771 C 0.75279 0.65406 0.59908
 C772 C 0.77584 0.63623 0.60094
 C773 C 0.79557 0.63756 0.62279
 C774 C 0.79121 0.65788 0.64389
 C775 C 0.76764 0.67654 0.64262
 C776 C 0.74834 0.67495 0.61964
 H777 H 0.80876 0.58933 0.58183
 H778 H 0.79251 0.56139 0.54038
 H779 H 0.71903 0.61632 0.53151
 H780 H 0.81331 0.62303 0.62392
 H781 H 0.80604 0.65895 0.66145
 H782 H 0.72988 0.68859 0.61856
 C783 C 0.71967 0.93192 0.10580
 C784 C 0.70036 0.91414 0.09297
 C785 C 0.68784 0.92028 0.06698
 C786 C 0.69612 0.94539 0.05328
 C787 C 0.71744 0.96320 0.06506
 C788 C 0.72872 0.95678 0.09219
 O789 O 0.72940 0.92177 0.13026
 C790 C 0.71625 0.89692 0.13268
 C791 C 0.69853 0.89108 0.11024
 C792 C 0.68466 0.86518 0.10721
 C793 C 0.68949 0.84437 0.12804
 C794 C 0.70729 0.85005 0.15166
 C795 C 0.72030 0.87699 0.15424
 H796 H 0.67256 0.90606 0.05738
 H797 H 0.68684 0.95044 0.03284
 H798 H 0.74496 0.96995 0.10173
 H799 H 0.67131 0.86085 0.08902
 H800 H 0.67940 0.82385 0.12580
 H801 H 0.73393 0.88196 0.17196
 C802 C 0.25858 0.41500 0.63261
 C803 C 0.27973 0.39839 0.62129
 C804 C 0.29361 0.40487 0.59602
 C805 C 0.28509 0.42936 0.58157
 C806 C 0.26255 0.44633 0.59212
 C807 C 0.24949 0.43935 0.61834
 O808 O 0.24816 0.40479 0.65685
 C809 C 0.26297 0.38115 0.66074
 C810 C 0.28240 0.37626 0.63943
 C811 C 0.29929 0.35220 0.63838
 C812 C 0.29594 0.33221 0.66015
 C813 C 0.27629 0.33681 0.68257
 C814 C 0.25976 0.36179 0.68307
 H815 H 0.31035 0.39154 0.58772
 H816 H 0.29575 0.43499 0.56192
 H817 H 0.23248 0.45215 0.62698
 H818 H 0.31421 0.34874 0.62120
 H819 H 0.30880 0.31320 0.65969
 H820 H 0.24441 0.36559 0.69981
 C821 C 0.75841 0.08896 0.87944
 C822 C 0.74250 0.08095 0.85635
 C823 C 0.72791 0.05548 0.85493
 C824 C 0.73006 0.03711 0.87811
 C825 C 0.74669 0.04415 0.90239
 C826 C 0.76097 0.07080 0.90299
 O827 O 0.77118 0.11394 0.87569
 C828 C 0.76314 0.12163 0.84965
 C829 C 0.74573 0.10194 0.83701
 C830 C 0.73576 0.10458 0.80943
 C831 C 0.74393 0.12864 0.79408
 C832 C 0.76153 0.14972 0.80646
 C833 C 0.77116 0.14628 0.83484
 H834 H 0.71559 0.04974 0.83641
 H835 H 0.71871 0.01713 0.87710
 H836 H 0.77488 0.07653 0.92037
 H837 H 0.72232 0.08855 0.79995
 H838 H 0.73612 0.13104 0.77258
 H839 H 0.78477 0.16191 0.84474
 C840 C 0.23935 0.57313 0.39657
 C841 C 0.26183 0.59006 0.40448
 C842 C 0.27949 0.58372 0.42723
 C843 C 0.27350 0.55908 0.44276
 C844 C 0.24970 0.54186 0.43587
 C845 C 0.23273 0.54868 0.41202
 O846 O 0.22526 0.58318 0.37428
 C847 C 0.23905 0.60704 0.36819
 C848 C 0.26146 0.61226 0.38623
 C849 C 0.27799 0.63665 0.38471
 C850 C 0.27108 0.65659 0.36377
 C851 C 0.24836 0.65156 0.34465
 C852 C 0.23226 0.62630 0.34668
 H853 H 0.29720 0.59727 0.43285
 H854 H 0.28711 0.55356 0.46047
 H855 H 0.21468 0.53569 0.40613
 H856 H 0.29529 0.64038 0.39938
 H857 H 0.28357 0.67587 0.36223
 H858 H 0.21461 0.62222 0.33251
 C859 C 0.25073 0.89676 0.91822
 C860 C 0.27383 0.88001 0.92425
 C861 C 0.28710 0.87959 0.95056
 C862 C 0.27619 0.89727 0.97167
 C863 C 0.25288 0.91552 0.96602
 C864 C 0.23997 0.91527 0.93876
 O865 O 0.23964 0.89157 0.89274
 C866 C 0.25621 0.87115 0.88255
 C867 C 0.27757 0.86364 0.90105
 C868 C 0.29632 0.84163 0.89595
 C869 C 0.29252 0.82609 0.87106
 C870 C 0.27014 0.83257 0.85193
 C871 C 0.25211 0.85595 0.85731
 H872 H 0.30474 0.86556 0.95493
 H873 H 0.28606 0.89697 0.99245
 H874 H 0.22139 0.92803 0.93422
 H875 H 0.31270 0.83598 0.91105
 H876 H 0.30645 0.80828 0.86712
 H877 H 0.23445 0.86084 0.84342
 C878 C 0.74527 0.39045 0.40843
 C879 C 0.76670 0.40040 0.39110
 C880 C 0.78311 0.42398 0.39765
 C881 C 0.77688 0.43825 0.42292
 C882 C 0.75413 0.42923 0.44065
 C883 C 0.73849 0.40457 0.43364
 O884 O 0.73215 0.36782 0.39791
 C885 C 0.74550 0.36358 0.37337
 C886 C 0.76667 0.38311 0.36819
 C887 C 0.78247 0.38365 0.34324
 C888 C 0.77622 0.36320 0.32268
 C889 C 0.75482 0.34250 0.32755
 C890 C 0.73935 0.34255 0.35340
 H891 H 0.79996 0.43125 0.38371
 H892 H 0.78933 0.45676 0.42845
 H893 H 0.72116 0.39718 0.44694
 H894 H 0.79877 0.39948 0.33957
 H895 H 0.78824 0.36330 0.30303
 H896 H 0.72265 0.32722 0.35747
 C897 C 0.11094 0.24302 0.09770
 C898 C 0.09793 0.22259 0.11407
 C899 C 0.07384 0.20806 0.10528
 C900 C 0.06237 0.21528 0.07877
 C901 C 0.07435 0.23750 0.06193
 C902 C 0.09963 0.25092 0.07154
 O903 O 0.13394 0.25396 0.10973
 C904 C 0.13538 0.24021 0.13429
 C905 C 0.11370 0.22096 0.13813
 C906 C 0.11066 0.20491 0.16280
 C907 C 0.13097 0.20876 0.18428
 C908 C 0.15389 0.22798 0.18042
 C909 C 0.15609 0.24391 0.15505
 H910 H 0.06437 0.19155 0.11823
 H911 H 0.04424 0.20327 0.07128
 H912 H 0.10965 0.26795 0.05972
 H913 H 0.09328 0.19005 0.16543
 H914 H 0.12923 0.19636 0.20362
 H915 H 0.17327 0.25888 0.15169
 C916 C 0.61042 0.76057 0.58342
 C917 C 0.59899 0.74208 0.60299
 C918 C 0.57397 0.72713 0.59826
 C919 C 0.55988 0.73171 0.57245
 C920 C 0.57017 0.75192 0.55246
 C921 C 0.59623 0.76612 0.55788
 O922 O 0.63513 0.77156 0.59169
 C923 C 0.63919 0.75990 0.61713
 C924 C 0.61746 0.74200 0.62510
 C925 C 0.61683 0.72808 0.65113
 C926 C 0.63968 0.73257 0.66967
 C927 C 0.66301 0.75005 0.66167
 C928 C 0.66265 0.76402 0.63496
 H929 H 0.56582 0.71211 0.61370
 H930 H 0.54080 0.71961 0.56806
 H931 H 0.60506 0.78108 0.54276
 H932 H 0.59932 0.71432 0.65701
 H933 H 0.63946 0.72183 0.69002
 H934 H 0.68002 0.77763 0.62832
 C935 C 0.09717 0.73998 0.90118
 C936 C 0.11492 0.75982 0.91299
 C937 C 0.10668 0.77704 0.93541
 C938 C 0.07910 0.77337 0.94632
 C939 C 0.06069 0.75193 0.93556
 C940 C 0.07009 0.73540 0.91218
 O941 O 0.10837 0.72696 0.87890
 C942 C 0.13389 0.73876 0.87666
 C943 C 0.13910 0.75876 0.89724
 C944 C 0.16453 0.77372 0.89887
 C945 C 0.18527 0.76807 0.87821
 C946 C 0.17994 0.74826 0.85621
 C947 C 0.15392 0.73330 0.85554
 H948 H 0.12070 0.79324 0.94371
 H949 H 0.07191 0.78775 0.96269
 H950 H 0.05692 0.71896 0.90299
 H951 H 0.16817 0.78934 0.91525
 H952 H 0.20503 0.77991 0.87869
 H953 H 0.14930 0.71819 0.83889
 C954 C 0.58012 0.27014 0.37996
 C955 C 0.59668 0.24827 0.38990
 C956 C 0.59097 0.23392 0.41506
 C957 C 0.56730 0.24259 0.43084
 C958 C 0.55033 0.26572 0.42170
 C959 C 0.55653 0.27936 0.39556
 O960 O 0.58959 0.28094 0.35557
 C961 C 0.61269 0.26564 0.35017
 C962 C 0.61795 0.24549 0.37067
 C963 C 0.64163 0.22797 0.37017
 C964 C 0.66090 0.23147 0.34772
 C965 C 0.65597 0.25188 0.32613
 C966 C 0.63132 0.26904 0.32717
 H967 H 0.60425 0.21665 0.42228
 H968 H 0.56224 0.23145 0.45036
 H969 H 0.54369 0.29680 0.38793
 H970 H 0.64542 0.21252 0.38677
 H971 H 0.67972 0.21828 0.34710
 H972 H 0.62738 0.28512 0.31120
 C973 C 0.88795 0.76159 0.09357
 C974 C 0.87026 0.74012 0.08478
 C975 C 0.87908 0.71889 0.06636
 C976 C 0.90717 0.72016 0.05626
 C977 C 0.92524 0.74311 0.06364
 C978 C 0.91550 0.76386 0.08294
 O979 O 0.87636 0.77812 0.11314
 C980 C 0.85067 0.76699 0.11663
 C981 C 0.84568 0.74400 0.09940
 C982 C 0.82027 0.72888 0.09989
 C983 C 0.79945 0.73737 0.11944
 C984 C 0.80477 0.76003 0.13843
 C985 C 0.83058 0.77531 0.13673
 H986 H 0.86510 0.70160 0.06057
 H987 H 0.91483 0.70345 0.04253
 H988 H 0.92911 0.78111 0.08967
 H989 H 0.81686 0.71083 0.08618
 H990 H 0.77989 0.72528 0.12093
 H991 H 0.83525 0.79242 0.15127
 C992 C 0.43256 0.26772 0.62442
 C993 C 0.41612 0.24556 0.61496
 C994 C 0.42124 0.23161 0.58954
 C995 C 0.44423 0.24095 0.57302
 C996 C 0.46115 0.26430 0.58172
 C997 C 0.45548 0.27760 0.60809
 O998 O 0.42375 0.27799 0.64923
 C999 C 0.40121 0.26199 0.65540
 C1000 C 0.39568 0.24195 0.63497
 C1001 C 0.37255 0.22366 0.63629
 C1002 C 0.35408 0.22630 0.65947
 C1003 C 0.35919 0.24667 0.68096
 C1004 C 0.38334 0.26459 0.67913
 H1005 H 0.40807 0.21408 0.58271
 H1006 H 0.44891 0.23003 0.55337
 H1007 H 0.46833 0.29517 0.61543
 H1008 H 0.36855 0.20827 0.61977
 H1009 H 0.33565 0.21252 0.66066
 H1010 H 0.38741 0.28063 0.69501
 C1011 C 0.89922 0.24516 0.90645
 C1012 C 0.91470 0.23046 0.88662
 C1013 C 0.94108 0.21872 0.89241
 C1014 C 0.95223 0.22272 0.91967
 C1015 C 0.93750 0.23917 0.94035
 C1016 C 0.91008 0.24981 0.93356
 O1017 O 0.87441 0.25429 0.89665
 C1018 C 0.87435 0.24524 0.86999
 C1019 C 0.89865 0.23074 0.86276
 C1020 C 0.90357 0.22022 0.83567
 C1021 C 0.88251 0.22483 0.81516
 C1022 C 0.85705 0.23929 0.82222
 C1023 C 0.85285 0.24952 0.85009
 H1024 H 0.95255 0.20665 0.87661
 H1025 H 0.97222 0.21256 0.92473
 H1026 H 0.89793 0.26238 0.94845
 H1027 H 0.92297 0.20907 0.83047
 H1028 H 0.88581 0.21672 0.79391
 H1029 H 0.83368 0.26080 0.85592
 C1030 C 0.37920 0.75333 0.41275
 C1031 C 0.39052 0.73378 0.39435
 C1032 C 0.41525 0.71882 0.40026
 C1033 C 0.42916 0.72460 0.42595
 C1034 C 0.41897 0.74591 0.44462
 C1035 C 0.39317 0.76000 0.43811
 O1036 O 0.35482 0.76425 0.40357
 C1037 C 0.35085 0.75147 0.37874
 C1038 C 0.37230 0.73290 0.37198
 C1039 C 0.37279 0.71770 0.34672
 C1040 C 0.35009 0.72155 0.32776
 C1041 C 0.32720 0.73983 0.33461
 C1042 C 0.32764 0.75505 0.36051
 H1043 H 0.42336 0.70300 0.38578
 H1044 H 0.44811 0.71270 0.43119
 H1045 H 0.38444 0.77583 0.45224
 H1046 H 0.39000 0.70333 0.34180
 H1047 H 0.34986 0.70960 0.30818
 H1048 H 0.31044 0.76912 0.36628
 C1049 C 0.09519 0.07898 0.25768
 C1050 C 0.10935 0.07428 0.28280
 C1051 C 0.10358 0.05129 0.30041
 C1052 C 0.08251 0.03217 0.29168
 C1053 C 0.06795 0.03604 0.26557
 C1054 C 0.07443 0.05987 0.24831
 O1055 O 0.10422 0.10204 0.24406
 C1056 C 0.12462 0.11196 0.26088
 C1057 C 0.12874 0.09553 0.28472
 C1058 C 0.14999 0.10102 0.30447
 C1059 C 0.16774 0.12445 0.29951
 C1060 C 0.16358 0.14208 0.27548
 C1061 C 0.14159 0.13590 0.25594
 H1062 H 0.11505 0.04806 0.32007
 H1063 H 0.07784 0.01397 0.30498
 H1064 H 0.06406 0.06304 0.22803
 H1065 H 0.15307 0.08752 0.32283
 H1066 H 0.18460 0.12905 0.31447
 H1067 H 0.13834 0.14886 0.23720
 C1068 C 0.63112 0.57834 0.73879
 C1069 C 0.62481 0.59323 0.71444
 C1070 C 0.60387 0.58473 0.69541
 C1071 C 0.58852 0.56004 0.70195
 C1072 C 0.59412 0.54482 0.72732
 C1073 C 0.61604 0.55380 0.74574
 O1074 O 0.65144 0.59035 0.75423
 C1075 C 0.65801 0.61341 0.73938
 C1076 C 0.64220 0.61616 0.71491
 C1077 C 0.64480 0.63919 0.69664
 C1078 C 0.66446 0.66028 0.70391
 C1079 C 0.68098 0.65791 0.72893
 C1080 C 0.67801 0.63405 0.74683
 H1081 H 0.59931 0.59683 0.67640
 H1082 H 0.57186 0.55305 0.68772
 H1083 H 0.62061 0.54243 0.76522
 H1084 H 0.63204 0.64096 0.67760
 H1085 H 0.66712 0.67836 0.68994
 H1086 H 0.69042 0.63194 0.76608
 C1087 C 0.93135 0.10426 0.73747
 C1088 C 0.93839 0.12219 0.71548
 C1089 C 0.96430 0.12114 0.70144
 C1090 C 0.98391 0.10075 0.71035
 C1091 C 0.97756 0.08166 0.73302
 C1092 C 0.95069 0.08373 0.74685
 O1093 O 0.90591 0.10980 0.74859
 C1094 C 0.89684 0.13172 0.73325
 C1095 C 0.91607 0.14008 0.71280
 C1096 C 0.91194 0.16354 0.69541
 C1097 C 0.88707 0.17929 0.69943
 C1098 C 0.86678 0.17119 0.72024
 C1099 C 0.87150 0.14680 0.73719
 H1100 H 0.96936 0.13568 0.68433
 H1101 H 1.00409 0.09962 0.69926
 H1102 H 0.94546 0.07059 0.76503
 H1103 H 0.92765 0.16990 0.67979
 H1104 H 0.88369 0.19802 0.68653
 H1105 H 0.85662 0.14064 0.75369
 C1106 C 0.40146 0.61188 0.24427
 C1107 C 0.38314 0.60045 0.22460
 C1108 C 0.38967 0.57653 0.20878
 C1109 C 0.41593 0.56349 0.21388
 C1110 C 0.43457 0.57397 0.23512
 C1111 C 0.42753 0.59897 0.25000
 O1112 O 0.39098 0.63457 0.25714
 C1113 C 0.36542 0.63734 0.24551
 C1114 C 0.35949 0.61682 0.22568
 C1115 C 0.33332 0.61470 0.21210
 C1116 C 0.31242 0.63463 0.21921
 C1117 C 0.31826 0.65635 0.23910
 C1118 C 0.34520 0.65783 0.25231
 H1119 H 0.37499 0.56806 0.19328
 H1120 H 0.42147 0.54471 0.20195
 H1121 H 0.44147 0.60748 0.26617
 H1122 H 0.32903 0.59809 0.19690
 H1123 H 0.29181 0.63340 0.20901
 H1124 H 0.34998 0.67397 0.26787
 C1125 C 0.10009 0.89279 0.76529
 C1126 C 0.09591 0.87504 0.74260
 C1127 C 0.07239 0.87667 0.72498
 C1128 C 0.05226 0.89761 0.73075
 C1129 C 0.05571 0.91678 0.75382
 C1130 C 0.08002 0.91388 0.77166
 O1131 O 0.12377 0.88679 0.77967
 C1132 C 0.13460 0.86480 0.76564
 C1133 C 0.11812 0.85686 0.74289
 C1134 C 0.12438 0.83379 0.72581
 C1135 C 0.14859 0.81800 0.73249
 C1136 C 0.16624 0.82555 0.75566
 C1137 C 0.15938 0.84957 0.77239
 H1138 H 0.06956 0.86223 0.70739
 H1139 H 0.03399 0.89917 0.71683
 H1140 H 0.08267 0.92669 0.79050
 H1141 H 0.11085 0.82789 0.70821
 H1142 H 0.15363 0.79973 0.71956
 H1143 H 0.17229 0.85551 0.79044
 C1144 C 0.57167 0.38858 0.25165
 C1145 C 0.58938 0.39692 0.27332
 C1146 C 0.58148 0.41670 0.29365
 C1147 C 0.55455 0.42910 0.29099
 C1148 C 0.53665 0.42230 0.26773
 C1149 C 0.54498 0.40107 0.24828
 O1150 O 0.58326 0.36921 0.23482
 C1151 C 0.60894 0.36552 0.24595
 C1152 C 0.61384 0.38229 0.26929
 C1153 C 0.63971 0.38279 0.28354
 C1154 C 0.66126 0.36485 0.27366
 C1155 C 0.65640 0.34651 0.25034
 C1156 C 0.62986 0.34691 0.23622
 H1157 H 0.59567 0.42264 0.31071
 H1158 H 0.54808 0.44500 0.30621
 H1159 H 0.53161 0.39540 0.23046
 H1160 H 0.64313 0.39641 0.30167
 H1161 H 0.68135 0.36439 0.28489
 H1162 H 0.62561 0.33305 0.21843
 C1163 C 0.87974 0.91609 0.22570
 C1164 C 0.85962 0.92322 0.20580
 C1165 C 0.86076 0.94802 0.18999
 C1166 C 0.88325 0.96670 0.19527
 C1167 C 0.90429 0.96054 0.21615
 C1168 C 0.90254 0.93442 0.23129
 O1169 O 0.87368 0.89200 0.23925
 C1170 C 0.84915 0.88393 0.22767
 C1171 C 0.83969 0.90251 0.20720
 C1172 C 0.81384 0.89937 0.19337
 C1173 C 0.79698 0.87606 0.20086
 C1174 C 0.80609 0.85637 0.22166
 C1175 C 0.83279 0.86012 0.23510
 H1176 H 0.84451 0.95315 0.17456
 H1177 H 0.88412 0.98626 0.18321
 H1178 H 0.91722 0.92941 0.24827
 H1179 H 0.80677 0.91445 0.17753
 H1180 H 0.77697 0.87296 0.19012
 H1181 H 0.84017 0.84542 0.25116
 C1182 C 0.40372 0.41951 0.77337
 C1183 C 0.41311 0.40304 0.79561
 C1184 C 0.43553 0.41103 0.81310
 C1185 C 0.44935 0.43669 0.80691
 C1186 C 0.44115 0.45315 0.78304
 C1187 C 0.41747 0.44486 0.76656
 O1188 O 0.38224 0.40792 0.75924
 C1189 C 0.37818 0.38348 0.77268
 C1190 C 0.39673 0.37933 0.79488
 C1191 C 0.39738 0.35445 0.81075
 C1192 C 0.37793 0.33306 0.80358
 C1193 C 0.35807 0.33719 0.78133
 C1194 C 0.35812 0.36280 0.76571
 H1195 H 0.44240 0.39780 0.83060
 H1196 H 0.46722 0.44321 0.81986
 H1197 H 0.41078 0.45716 0.74831
 H1198 H 0.41249 0.35150 0.82782
 H1199 H 0.37790 0.31351 0.81569
 H1200 H 0.34334 0.36627 0.74842
 C1201 C 0.11360 0.25271 0.91878
 C1202 C 0.13325 0.27323 0.92538
 C1203 C 0.13211 0.28913 0.95006
 C1204 C 0.10994 0.28352 0.96909
 C1205 C 0.08905 0.26246 0.96328
 C1206 C 0.09091 0.24694 0.93740
 O1207 O 0.11998 0.23894 0.89488
 C1208 C 0.14419 0.25112 0.88639
 C1209 C 0.15302 0.27219 0.90450
 C1210 C 0.17841 0.28680 0.90109
 C1211 C 0.19569 0.27934 0.87817
 C1212 C 0.18748 0.25767 0.85900
 C1213 C 0.16104 0.24356 0.86286
 H1214 H 0.14814 0.30489 0.95484
 H1215 H 0.10907 0.29565 0.98858
 H1216 H 0.07628 0.22983 0.93277
 H1217 H 0.18496 0.30305 0.91589
 H1218 H 0.21569 0.29046 0.87537
 H1219 H 0.15444 0.22669 0.84878
 C1220 C 0.60799 0.75382 0.41300
 C1221 C 0.59822 0.73093 0.39780
 C1222 C 0.57568 0.71407 0.40682
 C1223 C 0.56230 0.72140 0.43234
 C1224 C 0.57113 0.74562 0.44781
 C1225 C 0.59476 0.76168 0.43837
 O1226 O 0.62936 0.76729 0.40027
 C1227 C 0.63295 0.75269 0.37646
 C1228 C 0.61427 0.73037 0.37389
 C1229 C 0.61306 0.71327 0.34994
 C1230 C 0.63187 0.71948 0.32765
 C1231 C 0.65158 0.74213 0.32991
 C1232 C 0.65236 0.75881 0.35480
 H1233 H 0.56847 0.69612 0.39451
 H1234 H 0.54457 0.70867 0.43978
 H1235 H 0.60195 0.78016 0.44991
 H1236 H 0.59788 0.69608 0.34829
 H1237 H 0.63127 0.70657 0.30869
 H1238 H 0.66696 0.77646 0.35680
 C1239 C 0.91889 0.74956 0.88625
 C1240 C 0.92663 0.73077 0.86542
 C1241 C 0.95126 0.71476 0.86666
 C1242 C 0.96884 0.71825 0.89032
 C1243 C 0.96198 0.73779 0.91234
 C1244 C 0.93650 0.75391 0.90985
 O1245 O 0.89440 0.76257 0.88069
 C1246 C 0.88670 0.75175 0.85576
 C1247 C 0.90598 0.73245 0.84547
 C1248 C 0.90305 0.71927 0.81931
 C1249 C 0.87913 0.72609 0.80305
 C1250 C 0.85843 0.74532 0.81332
 C1251 C 0.86216 0.75831 0.84017
 H1252 H 0.95675 0.70001 0.84998
 H1253 H 0.98789 0.70542 0.89157
 H1254 H 0.93110 0.77019 0.92507
 H1255 H 0.91873 0.70438 0.81161
 H1256 H 0.87639 0.71594 0.78262
 H1257 H 0.84675 0.77322 0.84836
 C1258 C 0.41047 0.26769 0.39587
 C1259 C 0.39544 0.24655 0.40942
 C1260 C 0.40508 0.23301 0.43374
 C1261 C 0.43121 0.24186 0.44481
 C1262 C 0.44655 0.26456 0.43208
 C1263 C 0.43626 0.27730 0.40691
 O1264 O 0.39784 0.27699 0.37244
 C1265 C 0.37427 0.26147 0.37135
 C1266 C 0.37172 0.24275 0.39366
 C1267 C 0.34851 0.22481 0.39714
 C1268 C 0.32703 0.22611 0.37663
 C1269 C 0.32947 0.24472 0.35304
 C1270 C 0.35345 0.26267 0.35034
 H1271 H 0.39311 0.21602 0.44364
 H1272 H 0.43948 0.23117 0.46342
 H1273 H 0.44789 0.29419 0.39642
 H1274 H 0.34697 0.21040 0.41500
 H1275 H 0.30879 0.21219 0.37877
 H1276 H 0.35567 0.27719 0.33261
 C1277 C 0.06738 0.74105 0.11526
 C1278 C 0.06223 0.76334 0.13327
 C1279 C 0.03991 0.78218 0.12936
 C1280 C 0.02203 0.77783 0.10597
 C1281 C 0.02638 0.75472 0.08724
 C1282 C 0.04933 0.73587 0.09220
 O1283 O 0.09008 0.72597 0.12269
 C1284 C 0.09929 0.73896 0.14599
 C1285 C 0.08272 0.76174 0.15349
 C1286 C 0.08775 0.77784 0.17765
 C1287 C 0.11094 0.77028 0.19473
 C1288 C 0.12886 0.74739 0.18713
 C1289 C 0.12305 0.73154 0.16231
 H1290 H 0.03639 0.79963 0.14379
 H1291 H 0.00447 0.79226 0.10257
 H1292 H 0.05279 0.71766 0.07871
 H1293 H 0.07426 0.79552 0.18321
 H1294 H 0.11538 0.78267 0.21356
 H1295 H 0.13640 0.71393 0.15615
 C1296 C 0.60226 0.27045 0.60497
 C1297 C 0.61773 0.24990 0.59121
 C1298 C 0.60766 0.23553 0.56759
 C1299 C 0.58075 0.24304 0.55743
 C1300 C 0.56500 0.26521 0.57035
 C1301 C 0.57567 0.27868 0.59486
 O1302 O 0.61533 0.28069 0.62768
 C1303 C 0.63959 0.26640 0.62810
 C1304 C 0.64225 0.24753 0.60607
 C1305 C 0.66619 0.23068 0.60224
 C1306 C 0.68812 0.23311 0.62226
 C1307 C 0.68529 0.25169 0.64565
 C1308 C 0.66084 0.26873 0.64846
 H1309 H 0.61997 0.21903 0.55750
 H1310 H 0.57227 0.23191 0.53921
 H1311 H 0.56381 0.29523 0.60543
 H1312 H 0.66783 0.21610 0.58462
 H1313 H 0.70683 0.21993 0.62013
 H1314 H 0.65846 0.28325 0.66599
 C1315 C 0.88359 0.24913 0.07378
 C1316 C 0.88944 0.22632 0.09105
 C1317 C 0.91085 0.20694 0.08516
 C1318 C 0.92738 0.21157 0.06076
 C1319 C 0.92275 0.23564 0.04326
 C1320 C 0.90004 0.25432 0.04948
 O1321 O 0.86250 0.26513 0.08358
 C1322 C 0.85507 0.25224 0.10766
 C1323 C 0.87113 0.22853 0.11324
 C1324 C 0.86817 0.21263 0.13795
 C1325 C 0.84782 0.22147 0.15778
 C1326 C 0.83060 0.24554 0.15244
 C1327 C 0.83406 0.26103 0.12685
 H1328 H 0.91492 0.18909 0.09904
 H1329 H 0.94440 0.19693 0.05589
 H1330 H 0.89604 0.27277 0.03639
 H1331 H 0.88131 0.19426 0.14199
 H1332 H 0.84514 0.20931 0.17717
 H1333 H 0.82130 0.27957 0.12239
 C1334 C 0.38372 0.75429 0.58587
 C1335 C 0.39571 0.73346 0.60246
 C1336 C 0.41852 0.71711 0.59357
 C1337 C 0.43001 0.72297 0.56675
 C1338 C 0.41918 0.74543 0.54983
 C1339 C 0.39514 0.76081 0.55916
 O1340 O 0.36210 0.76726 0.59853
 C1341 C 0.36068 0.75450 0.62372
 C1342 C 0.38102 0.73389 0.62723
 C1343 C 0.38437 0.71876 0.65237
 C1344 C 0.36576 0.72489 0.67479
 C1345 C 0.34405 0.74543 0.67147
 C1346 C 0.34142 0.76042 0.64553
 H1347 H 0.42738 0.70066 0.60693
 H1348 H 0.44806 0.71073 0.55948
 H1349 H 0.38641 0.77792 0.54656
 H1350 H 0.40078 0.70288 0.65468
 H1351 H 0.36770 0.71307 0.69445
 H1352 H 0.32504 0.77624 0.64254
 C1353 C 0.25370 0.10936 0.93361
 C1354 C 0.23748 0.09866 0.91191
 C1355 C 0.22164 0.07397 0.91439
 C1356 C 0.22299 0.05928 0.94019
 C1357 C 0.24073 0.06880 0.96278
 C1358 C 0.25562 0.09491 0.95948
 O1359 O 0.26719 0.13318 0.92659
 C1360 C 0.25936 0.13742 0.89979
 C1361 C 0.24133 0.11671 0.88986
 C1362 C 0.23131 0.11609 0.86218
 C1363 C 0.24019 0.13776 0.84388
 C1364 C 0.25848 0.15969 0.85354
 C1365 C 0.26805 0.15966 0.88203
 H1366 H 0.20862 0.06631 0.89708
 H1367 H 0.20996 0.04047 0.94258
 H1368 H 0.26951 0.10309 0.97584
 H1369 H 0.21732 0.09940 0.85487
 H1370 H 0.23240 0.13770 0.82223
 H1371 H 0.28209 0.17606 0.88989
 C1372 C 0.73609 0.61917 0.39729
 C1373 C 0.75594 0.60863 0.37864
 C1374 C 0.77187 0.58452 0.38434
 C1375 C 0.76706 0.57060 0.41027
 C1376 C 0.74589 0.58027 0.42948
 C1377 C 0.73046 0.60522 0.42295
 O1378 O 0.72399 0.64292 0.38813
 C1379 C 0.73637 0.64733 0.36308
 C1380 C 0.75590 0.62678 0.35622
 C1381 C 0.77086 0.62677 0.33073
 C1382 C 0.76544 0.64880 0.31144
 C1383 C 0.74582 0.67056 0.31817
 C1384 C 0.73116 0.66989 0.34447
 H1385 H 0.78779 0.57698 0.36957
 H1386 H 0.77994 0.55233 0.41549
 H1387 H 0.71467 0.61353 0.43746
 H1388 H 0.78598 0.61025 0.32575
 H1389 H 0.77678 0.64914 0.29139
 H1390 H 0.71584 0.68607 0.34998
 C1391 C 0.73328 0.09832 0.09581
 C1392 C 0.75318 0.11622 0.08411
 C1393 C 0.76780 0.10993 0.05932
 C1394 C 0.76162 0.08416 0.04593
 C1395 C 0.74029 0.06537 0.05670
 C1396 C 0.72624 0.07284 0.08248
 O1397 O 0.72247 0.10794 0.12003
 C1398 C 0.73582 0.13252 0.12359
 C1399 C 0.75467 0.13866 0.10204
 C1400 C 0.77055 0.16354 0.10114
 C1401 C 0.76681 0.18293 0.12335
 C1402 C 0.74787 0.17690 0.14610
 C1403 C 0.73228 0.15122 0.14630
 H1404 H 0.78396 0.12405 0.05093
 H1405 H 0.77438 0.07853 0.02766
 H1406 H 0.70970 0.05978 0.09174
 H1407 H 0.78518 0.16793 0.08389
 H1408 H 0.77901 0.20243 0.12311
 H1409 H 0.71759 0.14620 0.16334
 C1410 C 0.25404 0.58335 0.62604
 C1411 C 0.27343 0.60124 0.61333
 C1412 C 0.28721 0.59470 0.58806
 C1413 C 0.28050 0.56880 0.57519
 C1414 C 0.25959 0.55050 0.58713
 C1415 C 0.24657 0.55774 0.61326
 O1416 O 0.24389 0.59334 0.65037
 C1417 C 0.25702 0.61814 0.65295
 C1418 C 0.27513 0.62407 0.63070
 C1419 C 0.29034 0.64930 0.62859
 C1420 C 0.28673 0.66925 0.65032
 C1421 C 0.26861 0.66339 0.67375
 C1422 C 0.25368 0.63738 0.67516
 H1423 H 0.30276 0.60891 0.57873
 H1424 H 0.29143 0.56301 0.55579
 H1425 H 0.23099 0.54394 0.62315
 H1426 H 0.30429 0.65357 0.61076
 H1427 H 0.29835 0.68907 0.64917
 H1428 H 0.23954 0.63256 0.69272
 C1429 C 0.75371 0.90876 0.88407
 C1430 C 0.77521 0.89215 0.89476
 C1431 C 0.79214 0.90061 0.91745
 C1432 C 0.78651 0.92716 0.92968
 C1433 C 0.76376 0.94417 0.91962
 C1434 C 0.74735 0.93480 0.89630
 O1435 O 0.74098 0.89759 0.86162
 C1436 C 0.75460 0.87330 0.85810
 C1437 C 0.77556 0.86875 0.87795
 C1438 C 0.79236 0.84451 0.87809
 C1439 C 0.78753 0.82435 0.85671
 C1440 C 0.76660 0.82905 0.83553
 C1441 C 0.74983 0.85385 0.83642
 H1442 H 0.80933 0.88748 0.92517
 H1443 H 0.79974 0.93449 0.94698
 H1444 H 0.73019 0.94755 0.88784
 H1445 H 0.80873 0.84135 0.89392
 H1446 H 0.80069 0.80556 0.85610
 H1447 H 0.73372 0.85802 0.82054
 C1448 C 0.23717 0.40463 0.40355
 C1449 C 0.25872 0.38742 0.41308
 C1450 C 0.27605 0.39440 0.43588
 C1451 C 0.27079 0.42010 0.44968
 C1452 C 0.24790 0.43776 0.44120
 C1453 C 0.23116 0.43009 0.41740
 O1454 O 0.22376 0.39423 0.38100
 C1455 C 0.23704 0.36983 0.37639
 C1456 C 0.25842 0.36465 0.39563
 C1457 C 0.27463 0.34011 0.39540
 C1458 C 0.26857 0.31999 0.37447
 C1459 C 0.24697 0.32492 0.35402
 C1460 C 0.23108 0.35034 0.35484
 H1461 H 0.29320 0.38069 0.44262
 H1462 H 0.28448 0.42626 0.46709
 H1463 H 0.21398 0.44346 0.41006
 H1464 H 0.29123 0.33649 0.41089
 H1465 H 0.28104 0.30074 0.37387
 H1466 H 0.21443 0.35452 0.33954
 C1467 C 0.22560 0.87806 0.09684
 C1468 C 0.20025 0.88418 0.11012
 C1469 C 0.18190 0.90513 0.10038
 C1470 C 0.19019 0.92056 0.07616
 C1471 C 0.21684 0.91545 0.06290
 C1472 C 0.23452 0.89354 0.07322
 O1473 O 0.23976 0.85709 0.10912
 C1474 C 0.22312 0.84992 0.13077
 C1475 C 0.19880 0.86602 0.13255
 C1476 C 0.17901 0.86275 0.15437
 C1477 C 0.18456 0.84205 0.17513
 C1478 C 0.20918 0.82490 0.17323
 C1479 C 0.22864 0.82877 0.15070
 H1480 H 0.16188 0.90934 0.11093
 H1481 H 0.17613 0.93675 0.06793
 H1482 H 0.25480 0.88895 0.06332
 H1483 H 0.16018 0.87585 0.15553
 H1484 H 0.16962 0.83907 0.19243
 H1485 H 0.24773 0.81607 0.14910
 C1486 C 0.74968 0.39618 0.57864
 C1487 C 0.76950 0.40841 0.59625
 C1488 C 0.78375 0.43332 0.58932
 C1489 C 0.77705 0.44636 0.56336
 C1490 C 0.75552 0.43512 0.54543
 C1491 C 0.74205 0.40929 0.55308
 O1492 O 0.73974 0.37169 0.58855
 C1493 C 0.75343 0.36852 0.61304
 C1494 C 0.77162 0.39060 0.61890
 C1495 C 0.78776 0.39184 0.64362
 C1496 C 0.78528 0.36925 0.66296
 C1497 C 0.76743 0.34577 0.65698
 C1498 C 0.75120 0.34548 0.63165
 H1499 H 0.79985 0.44213 0.60315
 H1500 H 0.78857 0.46531 0.55723
 H1501 H 0.72613 0.39973 0.53953
 H1502 H 0.80182 0.40951 0.64782
 H1503 H 0.79792 0.36961 0.68218
 H1504 H 0.73735 0.32783 0.62660
 C1505 C 0.10807 0.10914 0.76245
 C1506 C 0.12967 0.09664 0.74743
 C1507 C 0.12647 0.07119 0.73309
 C1508 C 0.09985 0.05786 0.73445
 C1509 C 0.07724 0.06952 0.75079
 C1510 C 0.08155 0.09601 0.76452
 O1511 O 0.11541 0.13386 0.77379
 C1512 C 0.14235 0.13695 0.76577
 C1513 C 0.15202 0.11461 0.74975
 C1514 C 0.17952 0.11307 0.73926
 C1515 C 0.19791 0.13549 0.74551
 C1516 C 0.18857 0.15909 0.76173
 C1517 C 0.16024 0.15987 0.77192
 H1518 H 0.14367 0.06221 0.72077
 H1519 H 0.09667 0.03883 0.72205
 H1520 H 0.06490 0.10592 0.77691
 H1521 H 0.18659 0.09523 0.72672
 H1522 H 0.21941 0.13460 0.73725
 H1523 H 0.15252 0.17751 0.78436
 C1524 C 0.57169 0.61266 0.24531
 C1525 C 0.59070 0.60157 0.22611
 C1526 C 0.58511 0.57723 0.21054
 C1527 C 0.55908 0.56342 0.21534
 C1528 C 0.53977 0.57342 0.23624
 C1529 C 0.54595 0.59883 0.25095
 O1530 O 0.58076 0.63661 0.25705
 C1531 C 0.60614 0.64055 0.24516
 C1532 C 0.61333 0.61950 0.22635
 C1533 C 0.63917 0.61898 0.21199
 C1534 C 0.65831 0.64125 0.21697
 C1535 C 0.65111 0.66377 0.23554
 C1536 C 0.62459 0.66334 0.24988
 H1537 H 0.60014 0.56927 0.19508
 H1538 H 0.55411 0.54462 0.20317
 H1539 H 0.53134 0.60731 0.26655
 H1540 H 0.64440 0.60207 0.19743
 H1541 H 0.67839 0.64141 0.20564
 H1542 H 0.61850 0.68023 0.26413
 C1543 C 0.09223 0.90253 0.25075
 C1544 C 0.07572 0.88228 0.26381
 C1545 C 0.04759 0.88693 0.27143
 C1546 C 0.03603 0.91366 0.26549
 C1547 C 0.05241 0.93509 0.25159
 C1548 C 0.08113 0.92909 0.24431
 O1549 O 0.11867 0.89406 0.24584
 C1550 C 0.11885 0.86787 0.25610
 C1551 C 0.09307 0.85961 0.26727
 C1552 C 0.08848 0.83297 0.27906
 C1553 C 0.11138 0.81398 0.27914
 C1554 C 0.13827 0.82200 0.26779
 C1555 C 0.14198 0.84948 0.25623
 H1556 H 0.03517 0.87081 0.28220
 H1557 H 0.01466 0.91794 0.27291
 H1558 H 0.09450 0.94451 0.23363
 H1559 H 0.06798 0.82695 0.28770
 H1560 H 0.10812 0.79304 0.28803
 H1561 H 0.16207 0.85618 0.24710
 C1562 C 0.62850 0.40938 0.74295
 C1563 C 0.61465 0.38893 0.72748
 C1564 C 0.58829 0.39336 0.71491
 C1565 C 0.57547 0.41985 0.71877
 C1566 C 0.58845 0.44084 0.73601
 C1567 C 0.61569 0.43562 0.74780
 O1568 O 0.65393 0.40115 0.75210
 C1569 C 0.65602 0.37482 0.74238
 C1570 C 0.63235 0.36629 0.72751
 C1571 C 0.62945 0.33930 0.71628
 C1572 C 0.65199 0.32036 0.72026
 C1573 C 0.67726 0.32882 0.73446
 C1574 C 0.67918 0.35654 0.74583
 H1575 H 0.57815 0.37713 0.70226
 H1576 H 0.55524 0.42397 0.70861
 H1577 H 0.62644 0.45144 0.76049
 H1578 H 0.61042 0.33296 0.70504
 H1579 H 0.64987 0.29917 0.71186
 H1580 H 0.69798 0.36358 0.75705
 C1581 C 0.88182 0.09516 0.22966
 C1582 C 0.88564 0.10761 0.25574
 C1583 C 0.90390 0.09678 0.27625
 C1584 C 0.91881 0.07198 0.26961
 C1585 C 0.91598 0.05921 0.24250
 C1586 C 0.89708 0.07101 0.22231
 O1587 O 0.86234 0.10801 0.21384
 C1588 C 0.85377 0.12915 0.23026
 C1589 C 0.86762 0.12995 0.25601
 C1590 C 0.86229 0.15043 0.27642
 C1591 C 0.84187 0.17100 0.27000
 C1592 C 0.82692 0.17027 0.24390
 C1593 C 0.83281 0.14903 0.22371
 H1594 H 0.90602 0.10663 0.29687
 H1595 H 0.93228 0.06249 0.28565
 H1596 H 0.89394 0.06130 0.20174
 H1597 H 0.87354 0.15066 0.29646
 H1598 H 0.83736 0.18733 0.28548
 H1599 H 0.82173 0.14830 0.20357
 C1600 C 0.40599 0.58812 0.76041
 C1601 C 0.41866 0.60887 0.77649
 C1602 C 0.44423 0.60482 0.79072
 C1603 C 0.45752 0.57840 0.78797
 C1604 C 0.44567 0.55702 0.77043
 C1605 C 0.41920 0.56185 0.75688
 O1606 O 0.38117 0.59607 0.74948
 C1607 C 0.37823 0.62249 0.75873
 C1608 C 0.40076 0.63136 0.77510
 C1609 C 0.40243 0.65836 0.78660
 C1610 C 0.37987 0.67697 0.78122
 C1611 C 0.35595 0.66825 0.76502
 C1612 C 0.35518 0.64052 0.75358
 H1613 H 0.45347 0.62131 0.80371
 H1614 H 0.47721 0.57461 0.79926
 H1615 H 0.40936 0.54571 0.74386
 H1616 H 0.42045 0.66486 0.79931
 H1617 H 0.38073 0.69798 0.79035
 H1618 H 0.33727 0.63327 0.74110
 C1619 C 0.91926 0.89537 0.74505
 C1620 C 0.89965 0.90702 0.76329
 C1621 C 0.90566 0.93040 0.78015
 C1622 C 0.93295 0.94234 0.77797
 C1623 C 0.95327 0.93126 0.75863
 C1624 C 0.94627 0.90725 0.74210
 O1625 O 0.90974 0.87242 0.73190
 C1626 C 0.88350 0.86959 0.74197
 C1627 C 0.87618 0.89035 0.76105
 C1628 C 0.84972 0.89134 0.77426
 C1629 C 0.83013 0.86985 0.76775
 C1630 C 0.83747 0.84776 0.74871
 C1631 C 0.86454 0.84780 0.73553
 H1632 H 0.89007 0.93887 0.79476
 H1633 H 0.93833 0.96022 0.79130
 H1634 H 0.96143 0.89809 0.72745
 H1635 H 0.84446 0.90787 0.78924
 H1636 H 0.80961 0.86991 0.77826
 H1637 H 0.87078 0.83121 0.72098
 C1638 C 0.39869 0.38546 0.26713
 C1639 C 0.38081 0.39414 0.24572
 C1640 C 0.38754 0.41615 0.22724
 C1641 C 0.41351 0.43018 0.23130
 C1642 C 0.43167 0.42296 0.25432
 C1643 C 0.42433 0.39975 0.27212
 O1644 O 0.38874 0.36317 0.28140
 C1645 C 0.36397 0.35789 0.26886
 C1646 C 0.35798 0.37653 0.24717
 C1647 C 0.33292 0.37540 0.23155
 C1648 C 0.31334 0.35393 0.23831
 C1649 C 0.31942 0.33377 0.25983
 C1650 C 0.34510 0.33583 0.27540
 H1651 H 0.37344 0.42210 0.21008
 H1652 H 0.41936 0.44701 0.21672
 H1653 H 0.43796 0.39327 0.28946
 H1654 H 0.32864 0.39045 0.21471
 H1655 H 0.29387 0.35239 0.22612
 H1656 H 0.35022 0.32069 0.29194
   
