data_POSCAR
  _audit_creation_date              2014-09-24
  _audit_creation_method            'ToBaCCo'
  _symmetry_space_group_name_H-M    'P1'
  _symmetry_Int_Tables_number       1
  _symmetry_cell_setting            triclinic
  loop_
  _symmetry_equiv_pos_as_xyz
 x,y,z
_cell_length_a 68.3170
_cell_length_b 70.2752
_cell_length_c 68.6346
_cell_angle_alpha 90.001000
_cell_angle_beta 90.030200
_cell_angle_gamma 90.071800
loop_
  _atom_site_label
  _atom_site_type_symbol
  _atom_site_fract_x
  _atom_site_fract_y
  _atom_site_fract_z
N1 N 0.31083 0.43408 0.93506
 N2 N 0.43872 0.81664 0.43622
 N3 N 0.93765 0.93121 0.81654
 N4 N 0.43778 -0.06874 0.31584
 N5 N 0.81372 0.31804 0.31387
 N6 N -0.18605 0.81666 0.81271
 N7 N 0.93542 0.31919 0.43742
 N8 N 0.43564 0.43099 0.81345
 N9 N 0.81312 0.93368 0.93644
 N10 N 0.31427 0.81827 0.31508
 N11 N 0.81139 0.43399 0.43363
 N12 N 0.93707 0.81729 -0.06306
 N13 N 0.31387 0.31373 0.81314
 N14 N 0.18679 0.56540 0.56129
 N15 N 0.56028 0.68552 0.06092
 N16 N 0.68985 0.18406 0.68748
 N17 N 1.06445 0.06641 0.18873
 N18 N 0.06338 0.18263 1.06599
 N19 N 0.18657 0.67933 0.68523
 N20 N 1.18904 0.18521 0.18816
 N21 N 0.68895 1.06663 0.56284
 N22 N 0.56005 0.56522 0.18672
 N23 N 0.68678 0.68281 0.18441
 N24 N 0.18666 0.06798 1.06600
 N25 N 0.56167 0.18336 0.56293
 N26 N 0.06153 0.56624 0.68601
 N27 N 0.68698 0.56615 0.06062
 N28 N 0.06319 0.68487 0.56376
 N29 N 0.56335 1.06416 0.68939
 N30 N 0.43519 0.31806 0.93548
 N31 N 0.93449 0.43130 0.31450
 N32 N 0.31418 0.93300 0.43750
 O33 O 0.29965 0.49176 0.77250
 O34 O 0.29401 0.52528 0.76934
 O35 O 0.24788 0.46996 0.79823
 O36 O 0.21555 0.46991 0.79221
 O37 O 0.27248 0.44373 0.74700
 O38 O 0.26978 0.45039 0.71370
 O39 O 0.19728 0.52097 0.74549
 O40 O 0.20250 0.51652 0.77877
 O41 O 0.24810 0.54490 0.72224
 O42 O 0.28098 0.53916 0.72388
 O43 O 0.22302 0.49747 0.69553
 O44 O 0.22293 0.46328 0.70175
 O45 O 0.19707 0.49862 0.72152
 O46 O 0.20305 0.46292 0.72345
 O47 O 0.24687 0.52002 0.69606
 O48 O 0.28381 0.51516 0.70441
 O49 O 0.22366 0.54485 0.74470
 O50 O 0.22949 0.53851 0.78000
 O51 O 0.29931 0.46961 0.74829
 O52 O 0.29220 0.47480 0.71313
 O53 O 0.24836 0.44358 0.76989
 O54 O 0.21294 0.45201 0.76700
 O55 O 0.27218 0.49216 0.79875
 O56 O 0.26741 0.52647 0.79145
 Zr57 Zr 0.27163 0.50432 0.77077
 O58 O 0.25514 0.52301 0.75334
 Zr59 Zr 0.23657 0.47136 0.76967
 O60 O 0.21828 0.48913 0.75292
 Zr61 Zr 0.27126 0.47148 0.73570
 O62 O 0.25422 0.48862 0.71712
 Zr63 Zr 0.22522 0.51784 0.75786
 O64 O 0.24164 0.50012 0.77673
 Zr65 Zr 0.25974 0.51730 0.72375
 O66 O 0.27829 0.50015 0.74110
 Zr67 Zr 0.22437 0.48481 0.72326
 O68 O 0.24133 0.46562 0.74000
 O69 O 0.26614 0.47578 0.76518
 O70 O 0.22991 0.51345 0.72825
 C71 C 0.30771 0.47841 0.76246
 C72 C 0.26173 0.47914 0.80684
 C73 C 0.26229 0.43550 0.76032
 C74 C 0.18915 0.51236 0.73106
 C75 C 0.23380 0.55289 0.73123
 C76 C 0.23266 0.51121 0.68772
 H77 H 0.25869 0.53632 0.75652
 H78 H 0.25732 0.48561 0.70340
 H79 H 0.27413 0.46735 0.77354
 H80 H 0.20441 0.48657 0.75609
 H81 H 0.20860 0.51227 0.79112
 H82 H 0.20588 0.48003 0.78958
 H83 H 0.27987 0.50690 0.69341
 H84 H 0.30196 0.46440 0.71420
 H85 H 0.21844 0.54764 0.77934
 H86 H 0.27711 0.52511 0.80211
 H87 H 0.23530 0.46368 0.69429
 H88 H 0.25636 0.44507 0.71407
 H89 H 0.30243 0.52418 0.78107
 H90 H 0.28987 0.53630 0.73486
 H91 H 0.21517 0.44465 0.75491
 H92 H 0.19360 0.46572 0.73398
 O93 O 0.22795 0.00361 0.19910
 O94 O 0.23019 -0.02968 0.20581
 O95 O 0.20093 0.02634 0.25019
 O96 O 0.20673 0.02778 0.28228
 O97 O 0.25358 0.05253 0.22632
 O98 O 0.28669 0.04532 0.22868
 O99 O 0.25292 -0.02359 0.30209
 O100 O 0.21961 -0.01913 0.29628
 O101 O 0.27688 -0.04844 0.25220
 O102 O 0.27585 -0.04315 0.21938
 O103 O 0.30351 -0.00088 0.27701
 O104 O 0.29767 0.03342 0.27615
 O105 O 0.27677 -0.00097 0.30240
 O106 O 0.27553 0.03446 0.29541
 O107 O 0.30335 -0.02369 0.25355
 O108 O 0.29567 -0.01935 0.21657
 O109 O 0.25403 -0.04793 0.27626
 O110 O 0.21871 -0.04158 0.26982
 O111 O 0.25144 0.02668 0.19971
 O112 O 0.28684 0.02049 0.20692
 O113 O 0.22959 0.05308 0.24932
 O114 O 0.23200 0.04515 0.28488
 O115 O 0.20095 0.00461 0.22559
 O116 O 0.20757 -0.02977 0.23197
 Zr117 Zr 0.22877 -0.00807 0.22740
 O118 O 0.24593 -0.02655 0.24441
 Zr119 Zr 0.22955 0.02548 0.26165
 O120 O 0.24594 0.00793 0.28044
 Zr121 Zr 0.26419 0.02460 0.22763
 O122 O 0.28249 0.00771 0.24525
 Zr123 Zr 0.24097 -0.02089 0.27402
 O124 O 0.22235 -0.00335 0.25707
 Zr125 Zr 0.27576 -0.02101 0.24019
 O126 O 0.25870 -0.00416 0.22111
 Zr127 Zr 0.27585 0.01205 0.27479
 O128 O 0.25946 0.03100 0.25724
 O129 O 0.23447 0.02056 0.23239
 O130 O 0.27080 -0.01667 0.26975
 C131 C 0.23767 0.01729 0.19123
 C132 C 0.19262 0.01749 0.23598
 C133 C 0.23996 0.06100 0.23587
 C134 C 0.26707 -0.01461 0.31039
 C135 C 0.26763 -0.05617 0.26644
 C136 C 0.31148 -0.01476 0.26776
 H137 H 0.24271 -0.03989 0.24106
 H138 H 0.29635 0.01061 0.24234
 H139 H 0.22628 0.02897 0.22420
 H140 H 0.24252 0.01076 0.29414
 H141 H 0.20730 -0.01501 0.28992
 H142 H 0.20858 0.01726 0.29165
 H143 H 0.30671 -0.01110 0.22055
 H144 H 0.28590 0.03063 0.19692
 H145 H 0.21915 -0.05051 0.28100
 H146 H 0.19697 -0.02846 0.22220
 H147 H 0.30569 0.03244 0.26421
 H148 H 0.28674 0.05050 0.24209
 H149 H 0.21852 -0.02868 0.19726
 H150 H 0.26497 -0.04036 0.21032
 H151 H 0.24408 0.05261 0.28256
 H152 H 0.26460 0.03210 0.30453
 O153 O 0.49846 0.69759 0.22731
 O154 O 0.46467 0.70574 0.23036
 O155 O 0.52388 0.74491 0.19798
 O156 O 0.52677 0.77644 0.20227
 O157 O 0.55060 0.72193 0.25005
 O158 O 0.54471 0.72666 0.28324
 O159 O 0.47662 0.80014 0.24860
 O160 O 0.47984 0.79285 0.21563
 O161 O 0.44937 0.75445 0.27597
 O162 O 0.45239 0.72191 0.27530
 O163 O 0.49940 0.77700 0.29920
 O164 O 0.53477 0.77366 0.29298
 O165 O 0.50030 0.80032 0.27190
 O166 O 0.53639 0.79160 0.26997
 O167 O 0.47609 0.75396 0.30152
 O168 O 0.47722 0.71788 0.29436
 O169 O 0.45047 0.77652 0.25177
 O170 O 0.45535 0.76826 0.21671
 O171 O 0.52221 0.69754 0.25060
 O172 O 0.51820 0.70663 0.28549
 O173 O 0.55179 0.74389 0.22567
 O174 O 0.54569 0.77900 0.22687
 O175 O 0.49999 0.72235 0.19953
 O176 O 0.46513 0.73047 0.20690
 Zr177 Zr 0.48785 0.72571 0.22749
 O178 O 0.47025 0.74388 0.24439
 Zr179 Zr 0.52415 0.75734 0.22591
 O180 O 0.50759 0.77722 0.24188
 Zr181 Zr 0.52246 0.72554 0.26177
 O182 O 0.50656 0.74433 0.27969
 Zr183 Zr 0.47756 0.77218 0.23796
 O184 O 0.49413 0.75408 0.21968
 Zr185 Zr 0.47659 0.74060 0.27408
 O186 O 0.49241 0.72050 0.25741
 Zr187 Zr 0.51231 0.77268 0.27175
 O188 O 0.53041 0.75392 0.25568
 O189 O 0.51766 0.72927 0.23217
 O190 O 0.48246 0.76897 0.26769
 C191 C 0.51197 0.68932 0.23726
 C192 C 0.51373 0.73128 0.19053
 C193 C 0.55938 0.73042 0.23593
 C194 C 0.48644 0.80833 0.26221
 C195 C 0.44200 0.76836 0.26626
 C196 C 0.48558 0.76831 0.30827
 H197 H 0.45626 0.74125 0.24174
 H198 H 0.50981 0.74187 0.29350
 H199 H 0.52556 0.72046 0.22415
 H200 H 0.51110 0.79029 0.23783
 H201 H 0.48339 0.78592 0.20358
 H202 H 0.51671 0.78635 0.20420
 H203 H 0.48719 0.72092 0.30436
 H204 H 0.52816 0.69640 0.28470
 H205 H 0.44676 0.77962 0.21696
 H206 H 0.46575 0.72055 0.19665
 H207 H 0.53313 0.76250 0.30161
 H208 H 0.55062 0.73950 0.28243
 H209 H 0.46490 0.69698 0.21902
 H210 H 0.45441 0.71250 0.26479
 H211 H 0.55352 0.77684 0.23880
 H212 H 0.53409 0.80024 0.25883
 O213 O 0.05291 0.72256 0.75131
 O214 O 0.04645 0.72906 0.78559
 O215 O 0.00038 0.69755 0.73026
 O216 O -0.03190 0.70436 0.72984
 O217 O 0.02618 0.74518 0.70009
 O218 O 0.02393 0.77859 0.70558
 O219 O -0.04868 0.75337 0.77901
 O220 O -0.04486 0.72047 0.77600
 O221 O 0.00174 0.77612 0.80210
 O222 O 0.03849 0.76997 0.79413
 O223 O -0.02107 0.79985 0.75336
 O224 O -0.02067 0.79252 0.71829
 O225 O -0.04818 0.77503 0.75437
 O226 O -0.04157 0.77229 0.71850
 O227 O 0.00356 0.79979 0.77562
 O228 O 0.03646 0.79328 0.77313
 O229 O -0.02237 0.75381 0.80377
 O230 O -0.01786 0.71901 0.79852
 O231 O 0.05338 0.74459 0.72697
 O232 O 0.04773 0.77908 0.72837
 O233 O 0.00165 0.72328 0.70156
 O234 O -0.03342 0.72787 0.70962
 O235 O 0.02536 0.69771 0.75225
 O236 O 0.02064 0.70573 0.78660
 Zr237 Zr 0.02485 0.72554 0.76360
 O238 O 0.00867 0.74370 0.78193
 Zr239 Zr -0.01012 0.72576 0.72985
 O240 O -0.02779 0.74375 0.74694
 Zr241 Zr 0.02567 0.75781 0.72788
 O242 O 0.00961 0.77724 0.74484
 Zr243 Zr -0.02128 0.74004 0.77658
 O244 O -0.00531 0.72028 0.75961
 Zr245 Zr 0.01459 0.77205 0.77453
 O246 O 0.03251 0.75401 0.75752
 Zr247 Zr -0.02052 0.77229 0.74114
 O248 O -0.00440 0.75424 0.72233
 O249 O 0.01960 0.72954 0.73405
 O250 O -0.01538 0.76852 0.77069
 C251 C 0.06135 0.73127 0.73710
 C252 C 0.01451 0.68941 0.73948
 C253 C 0.01564 0.73188 0.69257
 C254 C -0.05650 0.76679 0.76892
 C255 C -0.01253 0.76778 0.81084
 C256 C -0.01068 0.80790 0.76667
 H257 H 0.01182 0.74095 0.79572
 H258 H 0.01345 0.79038 0.74135
 H259 H 0.02740 0.72077 0.72591
 H260 H -0.04174 0.74103 0.74431
 H261 H -0.03927 0.70802 0.77220
 H262 H -0.04206 0.70837 0.73922
 H263 H 0.04606 0.78888 0.76334
 H264 H 0.05688 0.77678 0.71739
 H265 H -0.02888 0.72033 0.80782
 H266 H 0.03127 0.69615 0.78618
 H267 H -0.00820 0.79967 0.71893
 H268 H 0.01076 0.77750 0.69967
 H269 H 0.05540 0.71797 0.78534
 H270 H 0.03432 0.76215 0.80538
 H271 H -0.03088 0.73933 0.70162
 H272 H -0.05071 0.76162 0.72092
 O273 O -0.02373 -0.05216 0.00365
 O274 O -0.02049 -0.04398 0.03749
 O275 O -0.05214 -0.00470 -0.02190
 O276 O -0.04760 0.02680 -0.02452
 O277 O -0.00028 -0.02865 -0.04742
 O278 O 0.03328 -0.02341 -0.04168
 O279 O -0.00060 0.05031 0.02597
 O280 O -0.03406 0.04367 0.02188
 O281 O 0.02514 0.00430 0.05351
 O282 O 0.02459 -0.02817 0.05028
 O283 O 0.04988 0.02618 0.00317
 O284 O 0.04350 0.02300 -0.03188
 O285 O 0.02287 0.04991 0.00249
 O286 O 0.02084 0.04142 -0.03345
 O287 O 0.05106 0.00434 0.02755
 O288 O 0.04404 -0.03210 0.02569
 O289 O 0.00123 0.02672 0.05197
 O290 O -0.03399 0.01905 0.04638
 O291 O 0.00078 -0.05244 -0.01880
 O292 O 0.03559 -0.04333 -0.01524
 O293 O -0.02382 -0.00574 -0.04934
 O294 O -0.02264 0.02925 -0.04315
 O295 O -0.05125 -0.02686 0.00227
 O296 O -0.04394 -0.01912 0.03692
 Zr297 Zr -0.02313 -0.02398 0.01445
 O298 O -0.00619 -0.00581 0.03212
 Zr299 Zr -0.02398 0.00760 -0.02175
 O300 O -0.00782 0.02739 -0.00517
 Zr301 Zr 0.01172 -0.02448 -0.01954
 O302 O 0.02977 -0.00590 -0.00349
 Zr303 Zr -0.01214 0.02258 0.02470
 O304 O -0.03054 0.00450 0.00808
 Zr305 Zr 0.02367 -0.00938 0.02628
 O306 O 0.00693 -0.02939 0.01033
 Zr307 Zr 0.02215 0.02241 -0.00955
 O308 O 0.00594 0.00384 -0.02768
 O309 O -0.01805 -0.02053 -0.01515
 O310 O 0.01771 0.01897 0.02015
 C311 C -0.01308 -0.06057 -0.00922
 C312 C -0.06001 -0.01800 -0.01162
 C313 C -0.01397 -0.01972 -0.05647
 C314 C 0.01343 0.05811 0.01634
 C315 C 0.01547 0.01833 0.06068
 C316 C 0.05845 0.01809 0.01764
 H317 H -0.00908 -0.00837 0.04602
 H318 H 0.04366 -0.00850 -0.00652
 H319 H -0.02614 -0.02932 -0.02302
 H320 H -0.01163 0.04051 -0.00873
 H321 H -0.04628 0.03694 0.01829
 H322 H -0.04541 0.03697 -0.01481
 H323 H 0.05470 -0.02860 0.01662
 H324 H 0.03490 -0.05353 -0.02521
 H325 H -0.03377 0.03049 0.05484
 H326 H -0.05420 -0.02909 0.03634
 H327 H 0.05163 0.01145 -0.03050
 H328 H 0.03192 -0.01092 -0.04821
 H329 H -0.03188 -0.05274 0.03710
 H330 H 0.01401 -0.03755 0.04809
 H331 H -0.01047 0.02715 -0.05067
 H332 H 0.00987 0.05031 -0.03116
 O333 O 0.04906 0.52921 0.49946
 O334 O 0.04378 0.52341 0.46532
 O335 O -0.00211 0.55505 0.52006
 O336 O -0.03463 0.54932 0.51973
 O337 O 0.02196 0.50694 0.55020
 O338 O 0.01980 0.47419 0.54553
 O339 O -0.05239 0.49985 0.47051
 O340 O -0.04791 0.53261 0.47328
 O341 O -0.00304 0.47502 0.44890
 O342 O 0.03040 0.47868 0.45358
 O343 O -0.02702 0.45308 0.49821
 O344 O -0.02734 0.46144 0.53279
 O345 O -0.05319 0.47838 0.49530
 O346 O -0.04717 0.48263 0.53167
 O347 O -0.00206 0.45179 0.47640
 O348 O 0.03415 0.46106 0.47935
 O349 O -0.02569 0.49862 0.44628
 O350 O -0.02055 0.53321 0.45117
 O351 O 0.04941 0.50663 0.52331
 O352 O 0.04213 0.47198 0.52084
 O353 O -0.00211 0.52927 0.54856
 O354 O -0.03741 0.52582 0.53993
 O355 O 0.02224 0.55404 0.49747
 O356 O 0.01706 0.54497 0.46270
 Zr357 Zr 0.02135 0.52614 0.48654
 O358 O 0.00509 0.50781 0.46852
 Zr359 Zr -0.01371 0.52719 0.52012
 O360 O -0.03188 0.50961 0.50297
 Zr361 Zr 0.02118 0.49419 0.52248
 O362 O 0.00414 0.47491 0.50617
 Zr363 Zr -0.02479 0.51258 0.47337
 O364 O -0.00860 0.53226 0.49030
 Zr365 Zr 0.00972 0.47939 0.47644
 O366 O 0.02820 0.49754 0.49283
 Zr367 Zr -0.02582 0.48099 0.50939
 O368 O -0.00886 0.49864 0.52793
 O369 O 0.01587 0.52253 0.51608
 O370 O -0.02013 0.48399 0.47985
 C371 C 0.05737 0.52024 0.51352
 C372 C 0.01209 0.56270 0.51050
 C373 C 0.01165 0.52042 0.55764
 C374 C -0.06080 0.48658 0.48032
 C375 C -0.01650 0.48406 0.43965
 C376 C -0.01657 0.44430 0.48549
 H377 H 0.00868 0.51000 0.45472
 H378 H 0.00729 0.46178 0.51026
 H379 H 0.02383 0.53115 0.52427
 H380 H -0.04578 0.51281 0.50526
 H381 H -0.04208 0.54499 0.47702
 H382 H -0.04464 0.54573 0.51000
 H383 H 0.03125 0.45191 0.48992
 H384 H 0.05196 0.47388 0.53131
 H385 H -0.03153 0.53209 0.44179
 H386 H 0.02674 0.55545 0.46349
 H387 H -0.01498 0.45412 0.53291
 H388 H 0.00622 0.47449 0.55055
 H389 H 0.05211 0.53497 0.46566
 H390 H 0.03971 0.48917 0.45618
 H391 H -0.03523 0.51448 0.54822
 H392 H -0.05662 0.49268 0.52806
 O393 O 0.55128 0.02607 0.50155
 O394 O 0.54502 0.02084 0.46767
 O395 O 0.49895 0.05035 0.52332
 O396 O 0.46693 0.04317 0.52449
 O397 O 0.52602 0.00318 0.55330
 O398 O 0.52524 -0.02954 0.54863
 O399 O 0.45051 -0.00716 0.47494
 O400 O 0.45344 0.02593 0.47773
 O401 O 0.50035 -0.02977 0.45254
 O402 O 0.53376 -0.02471 0.45673
 O403 O 0.47793 -0.05235 0.50219
 O404 O 0.47816 -0.04453 0.53663
 O405 O 0.45057 -0.02754 0.50076
 O406 O 0.45813 -0.02364 0.53680
 O407 O 0.50228 -0.05275 0.47966
 O408 O 0.53841 -0.04239 0.48250
 O409 O 0.47659 -0.00719 0.45032
 O410 O 0.48036 0.02759 0.45502
 O411 O 0.55277 0.00416 0.52595
 O412 O 0.54701 -0.03083 0.52331
 O413 O 0.50117 0.02472 0.55206
 O414 O 0.46564 0.01968 0.54419
 O415 O 0.52348 0.05034 0.50089
 O416 O 0.51734 0.04122 0.46609
 Zr417 Zr 0.52321 0.02243 0.48964
 O418 O 0.50740 0.00337 0.47196
 Zr419 Zr 0.48889 0.02202 0.52395
 O420 O 0.47111 0.00379 0.50715
 Zr421 Zr 0.52517 -0.00951 0.52558
 O422 O 0.50858 -0.02948 0.50968
 Zr423 Zr 0.47745 0.00691 0.47737
 O424 O 0.49310 0.02728 0.49401
 Zr425 Zr 0.51335 -0.02484 0.47984
 O426 O 0.53136 -0.00589 0.49579
 Zr427 Zr 0.47850 -0.02452 0.51358
 O428 O 0.49512 -0.00625 0.53175
 O429 O 0.51856 0.01861 0.51928
 O430 O 0.48342 -0.02141 0.48391
 C431 C 0.56019 0.01769 0.51564
 C432 C 0.51285 0.05859 0.51385
 C433 C 0.51542 0.01636 0.56089
 C434 C 0.44258 -0.02006 0.48561
 C435 C 0.48626 -0.02141 0.44358
 C436 C 0.48819 -0.06070 0.48902
 H437 H 0.51062 0.00566 0.45809
 H438 H 0.51232 -0.04250 0.51367
 H439 H 0.52637 0.02754 0.52727
 H440 H 0.45716 0.00652 0.50978
 H441 H 0.45880 0.03859 0.48118
 H442 H 0.45746 0.03982 0.51416
 H443 H 0.53572 -0.05200 0.49268
 H444 H 0.55703 -0.02855 0.53352
 H445 H 0.46921 0.02602 0.44589
 H446 H 0.52647 0.05217 0.46677
 H447 H 0.49097 -0.05106 0.53669
 H448 H 0.51173 -0.02997 0.55382
 H449 H 0.55282 0.03275 0.46783
 H450 H 0.54275 -0.01396 0.45934
 H451 H 0.46882 0.00889 0.55290
 H452 H 0.44830 -0.01377 0.53370
 O453 O 0.52179 0.50502 0.05039
 O454 O 0.51897 0.47154 0.04472
 O455 O 0.54962 0.52688 -0.00004
 O456 O 0.54512 0.52638 -0.03244
 O457 O 0.49709 0.55319 0.02169
 O458 O 0.46394 0.54627 0.01841
 O459 O 0.49882 0.47545 -0.05233
 O460 O 0.53195 0.47979 -0.04589
 O461 O 0.47296 0.45186 -0.00307
 O462 O 0.47376 0.45751 0.02985
 O463 O 0.44780 0.49901 -0.02906
 O464 O 0.45401 0.53326 -0.02891
 O465 O 0.47488 0.49789 -0.05372
 O466 O 0.47661 0.53354 -0.04776
 O467 O 0.44677 0.47709 -0.00476
 O468 O 0.45412 0.48148 0.03210
 O469 O 0.49719 0.45150 -0.02575
 O470 O 0.53223 0.45810 -0.01883
 O471 O 0.49774 0.52737 0.04902
 O472 O 0.46264 0.52201 0.04065
 O473 O 0.52137 0.55300 -0.00102
 O474 O 0.51986 0.54436 -0.03627
 O475 O 0.54927 0.50487 0.02431
 O476 O 0.54218 0.47038 0.01910
 Zr477 Zr 0.52122 0.49246 0.02250
 O478 O 0.50427 0.47369 0.00552
 Zr479 Zr 0.52154 0.52518 -0.01255
 O480 O 0.50549 0.50731 -0.03132
 Zr481 Zr 0.48606 0.52529 0.02063
 O482 O 0.46807 0.50810 0.00295
 Zr483 Zr 0.51010 0.47865 -0.02406
 O484 O 0.52844 0.49646 -0.00709
 Zr485 Zr 0.47435 0.47942 0.00880
 O486 O 0.49113 0.49663 0.02789
 Zr487 Zr 0.47550 0.51172 -0.02650
 O488 O 0.49159 0.53097 -0.00900
 O489 O 0.51583 0.52098 0.01672
 O490 O 0.48017 0.48308 -0.02070
 C491 C 0.51153 0.51846 0.05798
 C492 C 0.55770 0.51797 0.01423
 C493 C 0.51096 0.56130 0.01210
 C494 C 0.48479 0.48413 -0.06112
 C495 C 0.48296 0.44363 -0.01651
 C496 C 0.43922 0.48571 -0.01948
 H497 H 0.50728 0.46040 0.00924
 H498 H 0.45418 0.51118 0.00545
 H499 H 0.52383 0.52951 0.02497
 H500 H 0.50925 0.50980 -0.04499
 H501 H 0.54410 0.48419 -0.03941
 H502 H 0.54272 0.51639 -0.04229
 H503 H 0.44360 0.49032 0.02810
 H504 H 0.46342 0.53237 0.05045
 H505 H 0.53208 0.44890 -0.02979
 H506 H 0.55258 0.47188 0.02906
 H507 H 0.44575 0.53268 -0.01710
 H508 H 0.46442 0.55120 0.00491
 H509 H 0.53047 0.47264 0.05348
 H510 H 0.48446 0.46040 0.03911
 H511 H 0.50768 0.55179 -0.03456
 H512 H 0.48760 0.53072 -0.05668
 O513 O 0.80053 0.25487 0.47466
 O514 O 0.79510 0.22154 0.47658
 O515 O 0.74793 0.27595 0.44830
 O516 O 0.71558 0.27519 0.45422
 O517 O 0.77183 0.30301 0.49920
 O518 O 0.76940 0.29647 0.53252
 O519 O 0.69873 0.22377 0.50062
 O520 O 0.70410 0.22774 0.46756
 O521 O 0.75028 0.20144 0.52466
 O522 O 0.78305 0.20817 0.52276
 O523 O 0.72379 0.24817 0.55086
 O524 O 0.72231 0.28185 0.54476
 O525 O 0.69772 0.24612 0.52458
 O526 O 0.70309 0.28214 0.52242
 O527 O 0.74836 0.22642 0.55064
 O528 O 0.78507 0.23222 0.54224
 O529 O 0.72596 0.20038 0.50208
 O530 O 0.73165 0.20663 0.46675
 O531 O 0.79930 0.27806 0.49788
 O532 O 0.79241 0.27255 0.53319
 O533 O 0.74775 0.30238 0.47627
 O534 O 0.71240 0.29281 0.47936
 O535 O 0.77341 0.25511 0.44782
 O536 O 0.76837 0.22036 0.45474
 Zr537 Zr 0.77255 0.24230 0.47564
 O538 O 0.75674 0.22322 0.49328
 Zr539 Zr 0.73665 0.27426 0.47674
 O540 O 0.71891 0.25592 0.49341
 Zr541 Zr 0.77136 0.27531 0.51064
 O542 O 0.75472 0.25782 0.52927
 Zr543 Zr 0.72671 0.22739 0.48866
 O544 O 0.74247 0.24562 0.46968
 Zr545 Zr 0.76110 0.22930 0.52286
 O546 O 0.77911 0.24682 0.50533
 Zr547 Zr 0.72475 0.26062 0.52305
 O548 O 0.74125 0.28028 0.50637
 O549 O 0.76634 0.27070 0.48121
 O550 O 0.73115 0.23211 0.51827
 C551 C 0.80808 0.26876 0.48430
 C552 C 0.76248 0.26781 0.43980
 C553 C 0.76150 0.31087 0.48577
 C554 C 0.69016 0.23229 0.51481
 C555 C 0.73631 0.19285 0.51572
 C556 C 0.73390 0.23490 0.55888
 H557 H 0.76070 0.21001 0.49020
 H558 H 0.75770 0.26103 0.54298
 H559 H 0.77420 0.27932 0.47293
 H560 H 0.70499 0.25808 0.49014
 H561 H 0.71011 0.23218 0.45524
 H562 H 0.70661 0.26436 0.45644
 H563 H 0.78096 0.24057 0.55309
 H564 H 0.80193 0.28317 0.53206
 H565 H 0.72092 0.19714 0.46749
 H566 H 0.77772 0.22216 0.44386
 H567 H 0.73506 0.28262 0.55154
 H568 H 0.75585 0.30143 0.53214
 H569 H 0.80333 0.22282 0.46474
 H570 H 0.79177 0.21128 0.51171
 H571 H 0.71468 0.30066 0.49112
 H572 H 0.69351 0.27881 0.51216
 O573 O 0.79990 0.75510 -0.02716
 O574 O 0.79454 0.72141 -0.02465
 O575 O 0.74761 0.77644 -0.05237
 O576 O 0.71531 0.77623 -0.04617
 O577 O 0.77263 0.80223 -0.00135
 O578 O 0.76966 0.79544 0.03212
 O579 O 0.69786 0.72448 -0.00069
 O580 O 0.70328 0.72885 -0.03378
 O581 O 0.74935 0.70063 0.02244
 O582 O 0.78218 0.70704 0.02079
 O583 O 0.72373 0.74751 0.05007
 O584 O 0.72286 0.78125 0.04451
 O585 O 0.69747 0.74630 0.02381
 O586 O 0.70343 0.78224 0.02234
 O587 O 0.74724 0.72466 0.04865
 O588 O 0.78434 0.73082 0.04088
 O589 O 0.72455 0.70056 0.00034
 O590 O 0.73040 0.70722 -0.03494
 O591 O 0.79939 0.77684 -0.00257
 O592 O 0.79235 0.77120 0.03255
 O593 O 0.74791 0.80261 -0.02370
 O594 O 0.71256 0.79346 -0.02079
 O595 O 0.77257 0.75503 -0.05333
 O596 O 0.76781 0.72046 -0.04677
 Zr597 Zr 0.77201 0.74218 -0.02562
 O598 O 0.75589 0.72298 -0.00838
 Zr599 Zr 0.73651 0.77461 -0.02380
 O600 O 0.71859 0.75629 -0.00731
 Zr601 Zr 0.77139 0.77451 0.00998
 O602 O 0.75464 0.75689 0.02837
 Zr603 Zr 0.72589 0.72773 -0.01271
 O604 O 0.74193 0.74602 -0.03137
 Zr605 Zr 0.76049 0.72842 0.02127
 O606 O 0.77875 0.74603 0.00410
 Zr607 Zr 0.72471 0.76036 0.02240
 O608 O 0.74137 0.78005 0.00592
 O609 O 0.76615 0.77053 -0.01952
 O610 O 0.73058 0.73186 0.01694
 C611 C 0.80782 0.76841 -0.01692
 C612 C 0.76180 0.76796 -0.06114
 C613 C 0.76215 0.81052 -0.01441
 C614 C 0.68956 0.73288 0.01375
 C615 C 0.73494 0.69256 0.01366
 C616 C 0.73318 0.73337 0.05728
 H617 H 0.75961 0.70977 -0.01173
 H618 H 0.75774 0.75972 0.04214
 H619 H 0.77403 0.77914 -0.02778
 H620 H 0.70470 0.75874 -0.01046
 H621 H 0.70938 0.73332 -0.04604
 H622 H 0.70618 0.76550 -0.04407
 H623 H 0.77989 0.73816 0.05235
 H624 H 0.80198 0.78174 0.03162
 H625 H 0.71949 0.69791 -0.03432
 H626 H 0.77746 0.72214 -0.05741
 H627 H 0.73578 0.78189 0.05098
 H628 H 0.75636 0.80097 0.03142
 H629 H 0.80289 0.72282 -0.03638
 H630 H 0.79119 0.71045 0.01006
 H631 H 0.71489 0.80096 -0.00881
 H632 H 0.69375 0.77928 0.01205
 O633 O 1.00187 0.19771 0.23020
 O634 O 0.96766 0.20458 0.23348
 O635 O 1.02494 0.24617 0.20088
 O636 O 1.02746 0.27762 0.20537
 O637 O 1.05265 0.22384 0.25311
 O638 O 1.04672 0.22857 0.28624
 O639 O 0.97599 0.29954 0.25123
 O640 O 0.97920 0.29214 0.21833
 O641 O 0.95050 0.25291 0.27889
 O642 O 0.95479 0.22047 0.27836
 O643 O 0.99993 0.27714 0.30213
 O644 O 1.03491 0.27558 0.29585
 O645 O 0.99967 0.30060 0.27452
 O646 O 1.03613 0.29298 0.27242
 O647 O 0.97666 0.25411 0.30409
 O648 O 0.97987 0.21776 0.29762
 O649 O 0.95039 0.27489 0.25458
 O650 O 0.95573 0.26666 0.21956
 O651 O 1.02517 0.19867 0.25390
 O652 O 1.02081 0.20785 0.28873
 O653 O 1.05311 0.24562 0.22856
 O654 O 1.04570 0.28080 0.22993
 O655 O 1.00227 0.22244 0.20239
 O656 O 0.96711 0.22920 0.20980
 Zr657 Zr 0.98999 0.22540 0.23042
 O658 O 0.97166 0.24298 0.24729
 Zr659 Zr 1.02504 0.25835 0.22887
 O660 O 1.00763 0.27764 0.24466
 Zr661 Zr 1.02447 0.22668 0.26483
 O662 O 1.00792 0.24496 0.28266
 Zr663 Zr 0.97777 0.27154 0.24079
 O664 O 0.99515 0.25400 0.22260
 Zr665 Zr 0.97815 0.24013 0.27699
 O666 O 0.99468 0.22053 0.26039
 Zr667 Zr 1.01263 0.27342 0.27452
 O668 O 1.03145 0.25525 0.25863
 O669 O 1.01961 0.23009 0.23518
 O670 O 0.98291 0.26866 0.27051
 C671 C 1.01557 0.19003 0.24040
 C672 C 1.01546 0.23213 0.19338
 C673 C 1.06112 0.23242 0.23888
 C674 C 0.98562 0.30814 0.26472
 C675 C 0.94243 0.26646 0.26922
 C676 C 0.98599 0.26849 0.31104
 H677 H 0.95778 0.23980 0.24468
 H678 H 1.01123 0.24270 0.29648
 H679 H 1.02780 0.22156 0.22714
 H680 H 1.01066 0.29079 0.24051
 H681 H 0.98304 0.28528 0.20632
 H682 H 1.01631 0.28648 0.20653
 H683 H 0.98904 0.22172 0.30802
 H684 H 1.03107 0.19789 0.28801
 H685 H 0.94669 0.27769 0.21975
 H686 H 0.96807 0.21919 0.19967
 H687 H 1.03444 0.26389 0.30386
 H688 H 1.05241 0.24149 0.28519
 H689 H 0.96825 0.19575 0.22222
 H690 H 0.95734 0.21095 0.26806
 H691 H 1.05398 0.27858 0.24155
 H692 H 1.03333 0.30169 0.26145
 O693 O 0.70196 1.02568 0.74889
 O694 O 0.70974 1.02227 0.78269
 O695 O 0.75364 1.05077 0.72472
 O696 O 0.78562 1.04394 0.72232
 O697 O 0.72664 1.00154 0.69707
 O698 O 0.72801 0.96905 0.70329
 O699 O 0.80507 0.99661 0.77264
 O700 O 0.80058 1.02949 0.76900
 O701 O 0.75526 0.97443 0.79900
 O702 O 0.72194 0.97734 0.79472
 O703 O 0.77662 0.94897 0.74809
 O704 O 0.77548 0.95631 0.71353
 O705 O 0.80340 0.97365 0.74932
 O706 O 0.79584 0.97714 0.71294
 O707 O 0.75489 0.94987 0.77318
 O708 O 0.71777 0.95834 0.76993
 O709 O 0.78023 0.99582 0.79813
 O710 O 0.77492 1.03060 0.79305
 O711 O 0.70066 1.00315 0.72507
 O712 O 0.70714 0.96846 0.72937
 O713 O 0.75037 1.02439 0.69699
 O714 O 0.78628 1.01976 0.70332
 O715 O 0.72966 1.05101 0.74772
 O716 O 0.73687 1.04327 0.78254
 Zr717 Zr 0.73072 1.02351 0.75990
 O718 O 0.74774 1.00565 0.77776
 Zr719 Zr 0.76396 1.02255 0.72451
 O720 O 0.78274 1.00529 0.74125
 Zr721 Zr 0.72844 0.99012 0.72536
 O722 O 0.74587 0.97117 0.74161
 Zr723 Zr 0.77743 1.00954 0.77104
 O724 O 0.76059 1.02883 0.75430
 Zr725 Zr 0.74211 0.97702 0.77141
 O726 O 0.72314 0.99479 0.75519
 Zr727 Zr 0.77563 0.97660 0.73632
 O728 O 0.75812 0.99385 0.71803
 O729 O 0.73452 1.01866 0.73031
 O730 O 0.77175 0.98089 0.76599
 C731 C 0.69298 1.01658 0.73526
 C732 C 0.73995 1.05910 0.73438
 C733 C 0.73631 1.01507 0.68890
 C734 C 0.81224 0.98239 0.76327
 C735 C 0.77033 0.98259 0.80652
 C736 C 0.76799 0.94151 0.76286
 H737 H 0.74501 1.00847 0.79163
 H738 H 0.74228 0.95792 0.73834
 H739 H 0.72623 1.02716 0.72233
 H740 H 0.79654 1.00812 0.73804
 H741 H 0.79455 1.04181 0.76539
 H742 H 0.79567 1.04097 0.73222
 H743 H 0.72126 0.94763 0.76126
 H744 H 0.69675 0.97005 0.71941
 H745 H 0.78648 1.02946 0.80173
 H746 H 0.72746 1.05398 0.78177
 H747 H 0.76296 0.94926 0.71430
 H748 H 0.74119 0.96898 0.69731
 H749 H 0.70158 1.03393 0.78226
 H750 H 0.71266 0.98776 0.79186
 H751 H 0.78303 1.00840 0.69542
 H752 H 0.80597 0.98677 0.71597
 O753 O 0.75061 0.54985 0.22242
 O754 O 0.78435 0.54165 0.22500
 O755 O 0.72537 0.50113 0.19442
 O756 O 0.72224 0.46984 0.20010
 O757 O 0.69811 0.52553 0.24607
 O758 O 0.70434 0.52254 0.27916
 O759 O 0.77314 0.44836 0.24721
 O760 O 0.76951 0.45432 0.21392
 O761 O 0.79977 0.49489 0.27287
 O762 O 0.79667 0.52750 0.27047
 O763 O 0.74968 0.47350 0.29723
 O764 O 0.71460 0.47568 0.29049
 O765 O 0.74936 0.44867 0.27040
 O766 O 0.71320 0.45705 0.26824
 O767 O 0.77322 0.49636 0.29814
 O768 O 0.77199 0.53201 0.28977
 O769 O 0.79890 0.47213 0.24935
 O770 O 0.79392 0.47913 0.21403
 O771 O 0.72672 0.55063 0.24552
 O772 O 0.73063 0.54261 0.28068
 O773 O 0.69729 0.50312 0.22211
 O774 O 0.70368 0.46807 0.22476
 O775 O 0.74818 0.52481 0.19553
 O776 O 0.78323 0.51613 0.20238
 Zr777 Zr 0.76100 0.52176 0.22324
 O778 O 0.77886 0.50437 0.24073
 Zr779 Zr 0.72501 0.48986 0.22290
 O780 O 0.74178 0.47070 0.23961
 Zr781 Zr 0.72650 0.52293 0.25759
 O782 O 0.74264 0.50491 0.27611
 Zr783 Zr 0.77176 0.47581 0.23542
 O784 O 0.75497 0.49309 0.21647
 Zr785 Zr 0.77257 0.50864 0.27026
 O786 O 0.75650 0.52800 0.25294
 Zr787 Zr 0.73711 0.47622 0.26932
 O788 O 0.71883 0.49427 0.25257
 O789 O 0.73120 0.51822 0.22815
 O790 O 0.76691 0.48001 0.26504
 C791 C 0.73715 0.55846 0.23208
 C792 C 0.73480 0.51515 0.18681
 C793 C 0.68941 0.51653 0.23223
 C794 C 0.76335 0.44050 0.26102
 C795 C 0.80724 0.48070 0.26368
 C796 C 0.76351 0.48263 0.30587
 H797 H 0.79282 0.50700 0.23795
 H798 H 0.73938 0.50787 0.28981
 H799 H 0.72315 0.52676 0.21997
 H800 H 0.73838 0.45747 0.23603
 H801 H 0.76601 0.46080 0.20159
 H802 H 0.73270 0.46034 0.20208
 H803 H 0.76184 0.52943 0.29970
 H804 H 0.72071 0.55285 0.27947
 H805 H 0.80252 0.46779 0.21465
 H806 H 0.78241 0.52566 0.19177
 H807 H 0.71578 0.48740 0.29838
 H808 H 0.69856 0.50962 0.27897
 H809 H 0.78399 0.54998 0.21333
 H810 H 0.79422 0.53679 0.25993
 H811 H 0.69583 0.47065 0.23658
 H812 H 0.71556 0.44805 0.25741
 O813 O 0.50122 0.19732 0.72753
 O814 O 0.46735 0.20537 0.73038
 O815 O 0.52661 0.24572 0.69976
 O816 O 0.52968 0.27699 0.70501
 O817 O 0.55280 0.22085 0.75102
 O818 O 0.54698 0.22522 0.78447
 O819 O 0.47827 0.29906 0.75204
 O820 O 0.48230 0.29325 0.71880
 O821 O 0.45128 0.25239 0.77709
 O822 O 0.45488 0.21989 0.77584
 O823 O 0.50168 0.27444 0.80179
 O824 O 0.53663 0.27193 0.79556
 O825 O 0.50206 0.29864 0.77523
 O826 O 0.53839 0.29022 0.77284
 O827 O 0.47730 0.25245 0.80268
 O828 O 0.47963 0.21612 0.79530
 O829 O 0.45209 0.27476 0.75316
 O830 O 0.45820 0.26820 0.71809
 O831 O 0.52450 0.19675 0.75127
 O832 O 0.52038 0.20509 0.78624
 O833 O 0.55445 0.24405 0.72786
 O834 O 0.54788 0.27919 0.72991
 O835 O 0.50300 0.22284 0.70035
 O836 O 0.46805 0.23067 0.70757
 Zr837 Zr 0.49052 0.22544 0.72831
 O838 O 0.47267 0.24304 0.74559
 Zr839 Zr 0.52665 0.25729 0.72806
 O840 O 0.50977 0.27663 0.74441
 Zr841 Zr 0.52476 0.22448 0.76295
 O842 O 0.50862 0.24269 0.78127
 Zr843 Zr 0.47978 0.27158 0.74009
 O844 O 0.49669 0.25409 0.72145
 Zr845 Zr 0.47872 0.23904 0.77526
 O846 O 0.49479 0.21948 0.75813
 Zr847 Zr 0.51436 0.27121 0.77413
 O848 O 0.53271 0.25301 0.75774
 O849 O 0.52025 0.22900 0.73341
 O850 O 0.48452 0.26757 0.76974
 C851 C 0.51451 0.18883 0.73759
 C852 C 0.51668 0.23224 0.69176
 C853 C 0.56176 0.23001 0.73747
 C854 C 0.48803 0.30683 0.76597
 C855 C 0.44360 0.26611 0.76735
 C856 C 0.48717 0.26620 0.81020
 H857 H 0.45874 0.24034 0.74269
 H858 H 0.51173 0.23991 0.79504
 H859 H 0.52820 0.22042 0.72519
 H860 H 0.51323 0.28983 0.74080
 H861 H 0.48612 0.28689 0.70651
 H862 H 0.51928 0.28659 0.70680
 H863 H 0.48864 0.21965 0.80600
 H864 H 0.53043 0.19495 0.78536
 H865 H 0.44951 0.27949 0.71848
 H866 H 0.46878 0.22098 0.69710
 H867 H 0.53582 0.25994 0.80305
 H868 H 0.55339 0.23782 0.78347
 H869 H 0.46775 0.19688 0.71885
 H870 H 0.45729 0.21063 0.76526
 H871 H 0.55582 0.27661 0.74168
 H872 H 0.53576 0.29956 0.76238
 O873 O 0.27474 0.80063 0.50066
 O874 O 0.27240 0.79292 0.53458
 O875 O 0.30298 0.75297 0.47525
 O876 O 0.29847 0.72114 0.47408
 O877 O 0.25039 0.77543 0.44949
 O878 O 0.21707 0.77157 0.45647
 O879 O 0.25244 0.69854 0.52430
 O880 O 0.28557 0.70547 0.52037
 O881 O 0.22626 0.74498 0.55159
 O882 O 0.22783 0.77763 0.54804
 O883 O 0.20070 0.72324 0.50185
 O884 O 0.20727 0.72510 0.46678
 O885 O 0.22808 0.69864 0.50168
 O886 O 0.22940 0.70640 0.46571
 O887 O 0.20024 0.74543 0.52592
 O888 O 0.20750 0.78129 0.52391
 O889 O 0.25007 0.72247 0.55015
 O890 O 0.28527 0.73021 0.54456
 O891 O 0.25105 0.80052 0.47731
 O892 O 0.21600 0.79218 0.48240
 O893 O 0.27473 0.75335 0.44845
 O894 O 0.27334 0.71861 0.45499
 O895 O 0.30221 0.77565 0.49891
 O896 O 0.29564 0.76794 0.53388
 Zr897 Zr 0.27445 0.77265 0.51172
 O898 O 0.25769 0.75488 0.52992
 Zr899 Zr 0.27488 0.74046 0.47617
 O900 O 0.25869 0.72108 0.49319
 Zr901 Zr 0.23931 0.77274 0.47795
 O902 O 0.22138 0.75456 0.49460
 Zr903 Zr 0.26344 0.72639 0.52289
 O904 O 0.28178 0.74409 0.50583
 Zr905 Zr 0.22782 0.75853 0.52428
 O906 O 0.24440 0.77817 0.50771
 Zr907 Zr 0.22864 0.72602 0.48910
 O908 O 0.24486 0.74418 0.47047
 O909 O 0.26906 0.76870 0.48222
 O910 O 0.23350 0.72997 0.51867
 C911 C 0.26470 0.80875 0.48714
 C912 C 0.31079 0.76671 0.48498
 C913 C 0.26433 0.76662 0.44071
 C914 C 0.23825 0.69051 0.51510
 C915 C 0.23586 0.73091 0.55881
 C916 C 0.19234 0.73190 0.51610
 H917 H 0.26072 0.75763 0.54375
 H918 H 0.20751 0.75724 0.49161
 H919 H 0.27699 0.77729 0.47398
 H920 H 0.26243 0.70790 0.48980
 H921 H 0.29768 0.71224 0.51650
 H922 H 0.29573 0.71068 0.48332
 H923 H 0.19740 0.77835 0.51403
 H924 H 0.21670 0.80217 0.47221
 H925 H 0.28505 0.71890 0.55319
 H926 H 0.30603 0.77776 0.53289
 H927 H 0.19903 0.73659 0.46809
 H928 H 0.21793 0.75886 0.45032
 H929 H 0.28385 0.80159 0.53388
 H930 H 0.23779 0.78741 0.54500
 H931 H 0.26088 0.72041 0.44786
 H932 H 0.24073 0.69788 0.46774
 O933 O 0.30141 0.25376 0.97618
 O934 O 0.29525 0.22025 0.97844
 O935 O 0.24999 0.27631 0.95015
 O936 O 0.21757 0.27652 0.95575
 O937 O 0.27408 0.30174 1.00200
 O938 O 0.27140 0.29443 1.03525
 O939 O 0.19851 0.22491 1.00132
 O940 O 0.20413 0.22961 0.96827
 O941 O 0.24872 0.20043 1.02517
 O942 O 0.28177 0.20601 1.02364
 O943 O 0.22431 0.24826 1.05233
 O944 O 0.22369 0.28187 1.04622
 O945 O 0.19817 0.24675 1.02580
 O946 O 0.20446 0.28266 1.02400
 O947 O 0.24729 0.22487 1.05142
 O948 O 0.28439 0.22966 1.04381
 O949 O 0.22490 0.20069 1.00204
 O950 O 0.23097 0.20762 0.96699
 O951 O 0.30069 0.27628 1.00008
 O952 O 0.29365 0.26982 1.03524
 O953 O 0.25044 0.30231 0.97861
 O954 O 0.21480 0.29397 0.98123
 O955 O 0.27452 0.25441 0.94951
 O956 O 0.26884 0.21985 0.95600
 Zr957 Zr 0.27320 0.24149 0.97721
 O958 O 0.25643 0.22263 0.99424
 Zr959 Zr 0.23834 0.27460 0.97848
 O960 O 0.21979 0.25663 0.99471
 Zr961 Zr 0.27272 0.27383 1.01277
 O962 O 0.25533 0.25657 1.03089
 Zr963 Zr 0.22662 0.22797 0.98943
 O964 O 0.24330 0.24592 0.97098
 Zr965 Zr 0.26067 0.22794 1.02398
 O966 O 0.27957 0.24520 1.00704
 Zr967 Zr 0.22555 0.26060 1.02448
 O968 O 0.24288 0.27995 1.00828
 O969 O 0.26781 0.26995 0.98322
 O970 O 0.23091 0.23197 1.01917
 C971 C 0.30918 0.26741 0.98603
 C972 C 0.26419 0.26763 0.94160
 C973 C 0.26429 0.31017 0.98853
 C974 C 0.19022 0.23332 1.01576
 C975 C 0.23466 0.19252 1.01571
 C976 C 0.23354 0.23418 1.05990
 H977 H 0.25993 0.20935 0.99092
 H978 H 0.25833 0.25946 1.04467
 H979 H 0.27591 0.27849 0.97509
 H980 H 0.20597 0.25929 0.99139
 H981 H 0.21036 0.23410 0.95608
 H982 H 0.20787 0.26632 0.95801
 H983 H 0.28035 0.23783 1.05483
 H984 H 0.30350 0.28018 1.03441
 H985 H 0.21988 0.19851 0.96738
 H986 H 0.27859 0.22141 0.94543
 H987 H 0.23635 0.28207 1.05321
 H988 H 0.25818 0.30017 1.03466
 H989 H 0.30377 0.22148 0.96680
 H990 H 0.29101 0.20925 1.01306
 H991 H 0.21715 0.30138 0.99328
 H992 H 0.19479 0.27965 1.01372
 C993 C 0.28808 0.36207 0.78662
 C994 C 0.27604 0.34722 0.79333
 C995 C 0.28455 0.33110 0.80163
 C996 C 0.30496 0.32969 0.80326
 C997 C 0.31648 0.34456 0.79583
 N998 N 0.30788 0.36014 0.78786
 C999 C 0.28002 0.38002 0.77875
 N1000 N 0.29132 0.39065 0.76657
 C1001 C 0.28559 0.40796 0.75984
 C1002 C 0.26765 0.41580 0.76578
 C1003 C 0.25565 0.40499 0.77817
 C1004 C 0.26173 0.38712 0.78463
 H1005 H 0.27524 0.31977 0.80698
 H1006 H 0.33227 0.34402 0.79687
 H1007 H 0.29539 0.41582 0.75043
 H1008 H 0.24175 0.41050 0.78321
 H1009 H 0.26027 0.34796 0.79216
 H1010 H 0.25254 0.37940 0.79475
 C1011 C 0.29141 -0.13084 0.29119
 C1012 C 0.29763 -0.14545 0.27867
 C1013 C 0.30471 -0.16240 0.28654
 C1014 C 0.30553 -0.16487 0.30679
 C1015 C 0.29858 -0.15020 0.31878
 N1016 N 0.29183 -0.13378 0.31079
 C1017 C 0.28477 -0.11218 0.28378
 N1018 N 0.27259 -0.10148 0.29500
 C1019 C 0.26659 -0.08382 0.28960
 C1020 C 0.27321 -0.07576 0.27206
 C1021 C 0.28582 -0.08654 0.26030
 C1022 C 0.29161 -0.10470 0.26607
 H1023 H 0.30973 -0.17355 0.27687
 H1024 H 0.29905 -0.15158 0.33447
 H1025 H 0.25698 -0.07597 0.29922
 H1026 H 0.29141 -0.08087 0.24671
 H1027 H 0.29701 -0.14392 0.26300
 H1028 H 0.30180 -0.11246 0.25700
 C1029 C 0.79417 0.86820 0.78819
 C1030 C 0.78669 0.85093 0.78108
 C1031 C 0.79321 0.83383 0.78917
 C1032 C 0.80745 0.83405 0.80382
 C1033 C 0.81490 0.85154 0.81018
 N1034 N 0.80793 0.86802 0.80253
 C1035 C 0.78684 0.88660 0.78107
 N1036 N 0.78263 0.90050 0.79420
 C1037 C 0.77606 0.91790 0.78866
 C1038 C 0.77398 0.92227 0.76883
 C1039 C 0.77848 0.90826 0.75500
 C1040 C 0.78465 0.89026 0.76109
 H1041 H 0.78717 0.82046 0.78411
 H1042 H 0.82585 0.85203 0.82157
 H1043 H 0.77299 0.92849 0.79971
 H1044 H 0.77713 0.91122 0.73957
 H1045 H 0.77554 0.85073 0.76986
 H1046 H 0.78815 0.87950 0.75035
 C1047 C 0.46137 0.88211 0.28845
 C1048 C 0.45244 0.89623 0.27704
 C1049 C 0.44506 0.91257 0.28599
 C1050 C 0.44639 0.91488 0.30629
 C1051 C 0.45620 0.90074 0.31700
 N1052 N 0.46322 0.88498 0.30797
 C1053 C 0.46859 0.86400 0.28013
 N1054 N 0.48248 0.85410 0.29010
 C1055 C 0.48893 0.83674 0.28424
 C1056 C 0.48098 0.82806 0.26757
 C1057 C 0.46676 0.83809 0.25695
 C1058 C 0.46056 0.85603 0.26314
 H1059 H 0.43824 0.92338 0.27705
 H1060 H 0.45794 0.90189 0.33260
 H1061 H 0.49985 0.82954 0.29296
 H1062 H 0.46008 0.83192 0.24410
 H1063 H 0.45124 0.89483 0.26139
 H1064 H 0.44908 0.86313 0.25509
 C1065 C -0.03516 0.88130 0.79440
 C1066 C -0.03352 0.88570 0.81427
 C1067 C -0.04206 0.90224 0.82147
 C1068 C -0.05242 0.91452 0.80901
 C1069 C -0.05322 0.90984 0.78909
 N1070 N -0.04494 0.89347 0.78244
 C1071 C -0.02749 0.86321 0.78649
 N1072 N -0.03689 0.85473 0.77127
 C1073 C -0.03142 0.83744 0.76421
 C1074 C -0.01569 0.82756 0.77268
 C1075 C -0.00540 0.83642 0.78792
 C1076 C -0.01119 0.85418 0.79479
 H1077 H -0.04095 0.90506 0.83692
 H1078 H -0.06065 0.91905 0.77886
 H1079 H -0.03969 0.83125 0.75234
 H1080 H 0.00694 0.82950 0.79483
 H1081 H -0.02634 0.87617 0.82437
 H1082 H -0.00301 0.86069 0.80654
 C1083 C -0.03593 -0.13429 -0.03718
 C1084 C -0.03162 -0.13904 -0.05656
 C1085 C -0.04005 -0.15514 -0.06490
 C1086 C -0.05299 -0.16663 -0.05413
 C1087 C -0.05629 -0.16173 -0.03449
 N1088 N -0.04809 -0.14577 -0.02674
 C1089 C -0.02858 -0.11642 -0.02841
 N1090 N -0.03984 -0.10700 -0.01518
 C1091 C -0.03476 -0.08961 -0.00800
 C1092 C -0.01757 -0.08058 -0.01442
 C1093 C -0.00534 -0.09051 -0.02734
 C1094 C -0.01073 -0.10838 -0.03427
 H1095 H -0.03676 -0.15818 -0.07998
 H1096 H -0.06564 -0.17039 -0.02538
 H1097 H -0.04455 -0.08256 0.00207
 H1098 H 0.00821 -0.08431 -0.03250
 H1099 H -0.02242 -0.13005 -0.06551
 H1100 H -0.00111 -0.11566 -0.04432
 C1101 C -0.04027 0.36890 0.46279
 C1102 C -0.02779 0.35466 0.45559
 C1103 C -0.03580 0.33804 0.44779
 C1104 C -0.05616 0.33550 0.44716
 C1105 C -0.06805 0.34960 0.45554
 N1106 N -0.05993 0.36575 0.46286
 C1107 C -0.03287 0.38756 0.46961
 N1108 N -0.04431 0.39826 0.48159
 C1109 C -0.03917 0.41609 0.48736
 C1110 C -0.02171 0.42436 0.48065
 C1111 C -0.00963 0.41353 0.46838
 C1112 C -0.01512 0.39520 0.46284
 H1113 H -0.02613 0.32726 0.44195
 H1114 H -0.08380 0.34820 0.45563
 H1115 H -0.04900 0.42393 0.49676
 H1116 H 0.00392 0.41933 0.46273
 H1117 H -0.01205 0.35625 0.45585
 H1118 H -0.00586 0.38752 0.45279
 C1119 C 0.46444 -0.13515 0.46338
 C1120 C 0.45573 -0.14932 0.47492
 C1121 C 0.44795 -0.16552 0.46603
 C1122 C 0.44867 -0.16765 0.44568
 C1123 C 0.45857 -0.15365 0.43485
 N1124 N 0.46592 -0.13796 0.44382
 C1125 C 0.47147 -0.11690 0.47160
 N1126 N 0.48508 -0.10675 0.46150
 C1127 C 0.49117 -0.08921 0.46721
 C1128 C 0.48308 -0.08057 0.48381
 C1129 C 0.46916 -0.09084 0.49458
 C1130 C 0.46336 -0.10898 0.48858
 H1131 H 0.44101 -0.17625 0.47500
 H1132 H 0.45986 -0.15473 0.41920
 H1133 H 0.50189 -0.08182 0.45839
 H1134 H 0.46244 -0.08473 0.50742
 H1135 H 0.45483 -0.14796 0.49059
 H1136 H 0.45207 -0.11627 0.49672
 C1137 C 0.45915 0.36838 -0.03997
 C1138 C 0.47173 0.35417 -0.04706
 C1139 C 0.46385 0.33735 -0.05453
 C1140 C 0.44350 0.33459 -0.05502
 C1141 C 0.43152 0.34871 -0.04678
 N1142 N 0.43952 0.36503 -0.03973
 C1143 C 0.46644 0.38714 -0.03328
 N1144 N 0.45514 0.39765 -0.02099
 C1145 C 0.46029 0.41544 -0.01509
 C1146 C 0.47763 0.42387 -0.02194
 C1147 C 0.48950 0.41328 -0.03463
 C1148 C 0.48400 0.39498 -0.04031
 H1149 H 0.47360 0.32658 -0.06024
 H1150 H 0.41579 0.34717 -0.04658
 H1151 H 0.45061 0.42309 -0.00539
 H1152 H 0.50295 0.41921 -0.04039
 H1153 H 0.48745 0.35594 -0.04691
 H1154 H 0.49312 0.38743 -0.05059
 C1155 C 0.78640 0.38456 0.45902
 C1156 C 0.77413 0.39929 0.45258
 C1157 C 0.78237 0.41573 0.44461
 C1158 C 0.80277 0.41756 0.44300
 C1159 C 0.81451 0.40269 0.45007
 N1160 N 0.80616 0.38683 0.45777
 C1161 C 0.77859 0.36646 0.46683
 N1162 N 0.78991 0.35614 0.47926
 C1163 C 0.78435 0.33882 0.48612
 C1164 C 0.76658 0.33061 0.48008
 C1165 C 0.75459 0.34107 0.46739
 C1166 C 0.76049 0.35898 0.46079
 H1167 H 0.77283 0.42701 0.43960
 H1168 H 0.83029 0.40347 0.44902
 H1169 H 0.79416 0.33125 0.49576
 H1170 H 0.74084 0.33525 0.46223
 H1171 H 0.75837 0.39826 0.45377
 H1172 H 0.75130 0.36647 0.45050
 C1173 C 0.78719 0.88332 -0.04229
 C1174 C 0.77977 0.90095 -0.03619
 C1175 C 0.78821 0.91769 -0.04333
 C1176 C 0.80353 0.91671 -0.05681
 C1177 C 0.81006 0.89885 -0.06303
 N1178 N 0.80209 0.88278 -0.05544
 C1179 C 0.78000 0.86532 -0.03404
 N1180 N 0.79325 0.85193 -0.02856
 C1181 C 0.78775 0.83471 -0.02145
 C1182 C 0.76786 0.82993 -0.02016
 C1183 C 0.75390 0.84347 -0.02582
 C1184 C 0.75992 0.86135 -0.03249
 H1185 H 0.78299 0.93137 -0.03828
 H1186 H 0.82195 0.89777 -0.07339
 H1187 H 0.79894 0.82451 -0.01752
 H1188 H 0.73842 0.84018 -0.02515
 H1189 H 0.76809 0.90174 -0.02556
 H1190 H 0.74910 0.87170 -0.03700
 C1191 C 0.78764 0.29676 0.36557
 C1192 C 0.78759 0.31643 0.36192
 C1193 C 0.79600 0.32340 0.34486
 C1194 C 0.80436 0.31088 0.33130
 C1195 C 0.80402 0.29130 0.33544
 N1196 N 0.79594 0.28484 0.35230
 C1197 C 0.77983 0.28886 0.38396
 N1198 N 0.78814 0.27293 0.39164
 C1199 C 0.78244 0.26555 0.40907
 C1200 C 0.76754 0.27436 0.41990
 C1201 C 0.75832 0.29040 0.41186
 C1202 C 0.76439 0.29766 0.39396
 H1203 H 0.79635 0.33862 0.34241
 H1204 H 0.81033 0.28121 0.32534
 H1205 H 0.78985 0.25306 0.41460
 H1206 H 0.74670 0.29765 0.41959
 H1207 H 0.78173 0.32642 0.37239
 H1208 H 0.75708 0.31005 0.38809
 C1209 C 0.78628 0.79546 -0.13619
 C1210 C 0.78407 0.81467 -0.14129
 C1211 C 0.79288 0.82156 -0.15817
 C1212 C 0.80409 0.80948 -0.17008
 C1213 C 0.80552 0.79022 -0.16468
 N1214 N 0.79693 0.78387 -0.14802
 C1215 C 0.77848 0.78783 -0.11766
 N1216 N 0.78773 0.77284 -0.10913
 C1217 C 0.78226 0.76583 -0.09149
 C1218 C 0.76666 0.77414 -0.08122
 C1219 C 0.75646 0.78915 -0.09009
 C1220 C 0.76226 0.79598 -0.10828
 H1221 H 0.79122 0.83650 -0.16156
 H1222 H 0.81360 0.78026 -0.17358
 H1223 H 0.79043 0.75410 -0.08534
 H1224 H 0.74421 0.79589 -0.08285
 H1225 H 0.77623 0.82453 -0.13205
 H1226 H 0.75412 0.80753 -0.11480
 C1227 C 0.28455 0.45609 0.88395
 C1228 C 0.28998 0.46856 0.89901
 C1229 C 0.29804 0.46125 0.91611
 C1230 C 0.30058 0.44159 0.91833
 C1231 C 0.29415 0.42954 0.90332
 N1232 N 0.28649 0.43699 0.88670
 C1233 C 0.27763 0.46311 0.86483
 N1234 N 0.26610 0.45169 0.85362
 C1235 C 0.26027 0.45674 0.83538
 C1236 C 0.26653 0.47404 0.82722
 C1237 C 0.27835 0.48605 0.83858
 C1238 C 0.28388 0.48069 0.85733
 H1239 H 0.30262 0.47093 0.92752
 H1240 H 0.29591 0.41428 0.90450
 H1241 H 0.25126 0.44699 0.82709
 H1242 H 0.28359 0.49949 0.83288
 H1243 H 0.28818 0.48379 0.89762
 H1244 H 0.29356 0.48993 0.86548
 C1245 C 0.29385 -0.04174 0.38491
 C1246 C 0.31372 -0.04047 0.38990
 C1247 C 0.32035 -0.04866 0.40714
 C1248 C 0.30733 -0.05832 0.41957
 C1249 C 0.28749 -0.05914 0.41407
 N1250 N 0.28138 -0.05111 0.39707
 C1251 C 0.28642 -0.03369 0.36640
 N1252 N 0.27096 -0.04213 0.35730
 C1253 C 0.26414 -0.03602 0.33974
 C1254 C 0.27309 -0.02056 0.33025
 C1255 C 0.28863 -0.01131 0.33974
 C1256 C 0.29526 -0.01775 0.35775
 H1257 H 0.33577 -0.04761 0.41050
 H1258 H 0.27685 -0.06612 0.42330
 H1259 H 0.25203 -0.04352 0.33305
 H1260 H 0.29590 0.00079 0.33315
 H1261 H 0.32423 -0.03366 0.38038
 H1262 H 0.30719 -0.01028 0.36478
 C1263 C -0.04201 -0.04704 -0.12992
 C1264 C -0.05720 -0.06048 -0.13003
 C1265 C -0.06445 -0.06709 -0.14777
 C1266 C -0.05620 -0.06068 -0.16524
 C1267 C -0.04121 -0.04709 -0.16457
 N1268 N -0.03462 -0.04053 -0.14710
 C1269 C -0.03381 -0.04021 -0.11139
 N1270 N -0.03277 -0.02119 -0.10777
 C1271 C -0.02610 -0.01426 -0.09047
 C1272 C -0.01969 -0.02676 -0.07586
 C1273 C -0.02011 -0.04638 -0.07957
 C1274 C -0.02739 -0.05316 -0.09724
 H1275 H -0.07602 -0.07763 -0.14797
 H1276 H -0.03469 -0.04190 -0.17791
 H1277 H -0.02591 0.00097 -0.08810
 H1278 H -0.01547 -0.05646 -0.06856
 H1279 H -0.06337 -0.06576 -0.11653
 H1280 H -0.02802 -0.06835 -0.09986
 C1281 C -0.04257 0.45530 0.36601
 C1282 C -0.03635 0.46234 0.34790
 C1283 C -0.04377 0.45428 0.33082
 C1284 C -0.05761 0.43963 0.33191
 C1285 C -0.06362 0.43314 0.35024
 N1286 N -0.05586 0.44087 0.36667
 C1287 C -0.03493 0.46314 0.38439
 N1288 N -0.02996 0.45104 0.39906
 C1289 C -0.02338 0.45743 0.41658
 C1290 C -0.02216 0.47702 0.42025
 C1291 C -0.02737 0.48974 0.40539
 C1292 C -0.03351 0.48284 0.38732
 H1293 H -0.03890 0.45948 0.31678
 H1294 H -0.07426 0.42178 0.35140
 H1295 H -0.01972 0.44722 0.42783
 H1296 H -0.02669 0.50496 0.40777
 H1297 H -0.02565 0.47369 0.34699
 H1298 H -0.03767 0.49276 0.37598
 C1299 C 0.45944 -0.05021 0.37021
 C1300 C 0.44482 -0.06423 0.36961
 C1301 C 0.43748 -0.07016 0.35164
 C1302 C 0.44511 -0.06254 0.33441
 C1303 C 0.45981 -0.04868 0.33557
 N1304 N 0.46639 -0.04272 0.35326
 C1305 C 0.46702 -0.04318 0.38894
 N1306 N 0.46827 -0.02410 0.39210
 C1307 C 0.47453 -0.01681 0.40938
 C1308 C 0.48036 -0.02901 0.42447
 C1309 C 0.47962 -0.04871 0.42134
 C1310 C 0.47273 -0.05586 0.40365
 H1311 H 0.42603 -0.08082 0.35106
 H1312 H 0.46583 -0.04251 0.32243
 H1313 H 0.47500 -0.00152 0.41130
 H1314 H 0.48387 -0.05853 0.43274
 H1315 H 0.43889 -0.07021 0.38290
 H1316 H 0.47196 -0.07110 0.40143
 C1317 C 0.45980 0.45654 -0.13603
 C1318 C 0.47228 0.45061 -0.15110
 C1319 C 0.46429 0.44273 -0.16799
 C1320 C 0.44394 0.44072 -0.16992
 C1321 C 0.43197 0.44735 -0.15477
 N1322 N 0.44008 0.45497 -0.13845
 C1323 C 0.46738 0.46418 -0.11742
 N1324 N 0.45585 0.47612 -0.10687
 C1325 C 0.46134 0.48302 -0.08920
 C1326 C 0.47930 0.47761 -0.08090
 C1327 C 0.49142 0.46527 -0.09151
 C1328 C 0.48556 0.45858 -0.10976
 H1329 H 0.47396 0.43795 -0.17949
 H1330 H 0.41622 0.44596 -0.15566
 H1331 H 0.45142 0.49235 -0.08147
 H1332 H 0.50533 0.46063 -0.08562
 H1333 H 0.48800 0.45208 -0.14996
 H1334 H 0.49491 0.44867 -0.11742
 C1335 C 0.45910 0.79688 0.38186
 C1336 C 0.44534 0.81168 0.38247
 C1337 C 0.43833 0.81795 0.40043
 C1338 C 0.44543 0.80984 0.41765
 C1339 C 0.45911 0.79507 0.41649
 N1340 N 0.46542 0.78886 0.39880
 C1341 C 0.46661 0.78982 0.36311
 N1342 N 0.46726 0.77075 0.35969
 C1343 C 0.47345 0.76351 0.34237
 C1344 C 0.47980 0.77574 0.32749
 C1345 C 0.47969 0.79541 0.33093
 C1346 C 0.47290 0.80251 0.34864
 H1347 H 0.42764 0.82930 0.40101
 H1348 H 0.46465 0.78849 0.42963
 H1349 H 0.47343 0.74825 0.34023
 H1350 H 0.48436 0.80528 0.31973
 H1351 H 0.43990 0.81811 0.36919
 H1352 H 0.47265 0.81774 0.35108
 C1353 C -0.04123 0.79658 0.88347
 C1354 C -0.05460 0.81172 0.88350
 C1355 C -0.06221 0.81816 0.90115
 C1356 C -0.05612 0.80985 0.91865
 C1357 C -0.04285 0.79469 0.91806
 N1358 N -0.03592 0.78835 0.90064
 C1359 C -0.03297 0.78945 0.86506
 N1360 N -0.03266 0.77039 0.86154
 C1361 C -0.02589 0.76310 0.84447
 C1362 C -0.01859 0.77525 0.82995
 C1363 C -0.01827 0.79489 0.83354
 C1364 C -0.02565 0.80206 0.85099
 H1365 H -0.07248 0.82988 0.90129
 H1366 H -0.03799 0.78802 0.93141
 H1367 H -0.02627 0.74786 0.84220
 H1368 H -0.01289 0.80471 0.82260
 H1369 H -0.05923 0.81834 0.87002
 H1370 H -0.02561 0.81727 0.85352
 C1371 C 0.36838 0.79832 0.29282
 C1372 C 0.36513 0.81797 0.29455
 C1373 C 0.34737 0.82450 0.30191
 C1374 C 0.33277 0.81156 0.30752
 C1375 C 0.33666 0.79203 0.30575
 N1376 N 0.35415 0.78597 0.29864
 C1377 C 0.38709 0.79076 0.28530
 N1378 N 0.39368 0.77364 0.29186
 C1379 C 0.41098 0.76608 0.28586
 C1380 C 0.42272 0.77586 0.27235
 C1381 C 0.41594 0.79334 0.26510
 C1382 C 0.39820 0.80081 0.27151
 H1383 H 0.34509 0.83967 0.30343
 H1384 H 0.32575 0.78163 0.30995
 H1385 H 0.41556 0.75250 0.29172
 H1386 H 0.42445 0.80139 0.25464
 H1387 H 0.37630 0.82823 0.29069
 H1388 H 0.39321 0.81421 0.26556
 C1389 C -0.13258 0.79390 0.79189
 C1390 C -0.14743 0.79874 0.77861
 C1391 C -0.16510 0.80598 0.78550
 C1392 C -0.16816 0.80827 0.80556
 C1393 C -0.15308 0.80301 0.81837
 N1394 N -0.13594 0.79601 0.81132
 C1395 C -0.11334 0.78671 0.78529
 N1396 N -0.10275 0.77523 0.79731
 C1397 C -0.08479 0.76844 0.79233
 C1398 C -0.07633 0.77342 0.77438
 C1399 C -0.08694 0.78538 0.76187
 C1400 C -0.10538 0.79202 0.76723
 H1401 H -0.17643 0.80972 0.77517
 H1402 H -0.15481 0.80481 0.83393
 H1403 H -0.07705 0.75942 0.80252
 H1404 H -0.08098 0.78972 0.74794
 H1405 H -0.14556 0.79680 0.76309
 H1406 H -0.11303 0.80158 0.75751
 C1407 C 0.88299 0.29542 0.45885
 C1408 C 0.90096 0.28844 0.46569
 C1409 C 0.91835 0.29642 0.45875
 C1410 C 0.91769 0.31087 0.44476
 C1411 C 0.89949 0.31719 0.43802
 N1412 N 0.88275 0.30960 0.44535
 C1413 C 0.86430 0.28801 0.46627
 N1414 N 0.84994 0.30049 0.47123
 C1415 C 0.83214 0.29459 0.47766
 C1416 C 0.82782 0.27511 0.47874
 C1417 C 0.84233 0.26198 0.47351
 C1418 C 0.86073 0.26839 0.46754
 H1419 H 0.93229 0.29133 0.46414
 H1420 H 0.89866 0.32836 0.42720
 H1421 H 0.82117 0.30511 0.48133
 H1422 H 0.83942 0.24683 0.47409
 H1423 H 0.90150 0.27728 0.47655
 H1424 H 0.87185 0.25819 0.46342
 C1425 C 0.88223 0.79748 -0.04256
 C1426 C 0.88558 0.81713 -0.04424
 C1427 C 0.90357 0.82365 -0.05111
 C1428 C 0.91834 0.81069 -0.05606
 C1429 C 0.91423 0.79116 -0.05469
 N1430 N 0.89652 0.78511 -0.04807
 C1431 C 0.86341 0.78996 -0.03523
 N1432 N 0.85643 0.77313 -0.04223
 C1433 C 0.83898 0.76572 -0.03637
 C1434 C 0.82751 0.77536 -0.02255
 C1435 C 0.83476 0.79246 -0.01479
 C1436 C 0.85261 0.79980 -0.02109
 H1437 H 0.90597 0.83881 -0.05265
 H1438 H 0.92516 0.78074 -0.05865
 H1439 H 0.83402 0.75243 -0.04265
 H1440 H 0.82651 0.80041 -0.00406
 H1441 H 0.87433 0.82737 -0.04064
 H1442 H 0.85793 0.81296 -0.01481
 C1443 C -0.13590 -0.04498 -0.03545
 C1444 C -0.14145 -0.06402 -0.03262
 C1445 C -0.15844 -0.07092 -0.04137
 C1446 C -0.16999 -0.05900 -0.05315
 C1447 C -0.16426 -0.03986 -0.05502
 N1448 N -0.14750 -0.03351 -0.04650
 C1449 C -0.11710 -0.03747 -0.02793
 N1450 N -0.10824 -0.02286 -0.03755
 C1451 C -0.09038 -0.01602 -0.03229
 C1452 C -0.08021 -0.02409 -0.01654
 C1453 C -0.08939 -0.03873 -0.00601
 C1454 C -0.10779 -0.04538 -0.01158
 H1455 H -0.16210 -0.08575 -0.03935
 H1456 H -0.17291 -0.03003 -0.06356
 H1457 H -0.08398 -0.00458 -0.04073
 H1458 H -0.08226 -0.04527 0.00639
 H1459 H -0.13243 -0.07380 -0.02442
 H1460 H -0.11455 -0.05661 -0.00315
 C1461 C -0.13442 0.45716 0.45248
 C1462 C -0.13807 0.45486 0.43248
 C1463 C -0.15577 0.44705 0.42634
 C1464 C -0.16994 0.44148 0.44000
 C1465 C -0.16559 0.44364 0.45988
 N1466 N -0.14816 0.45127 0.46555
 C1467 C -0.11584 0.46551 0.45961
 N1468 N -0.10854 0.45994 0.47717
 C1469 C -0.09127 0.46669 0.48427
 C1470 C -0.08026 0.47995 0.47352
 C1471 C -0.08782 0.48623 0.45561
 C1472 C -0.10554 0.47909 0.44865
 H1473 H -0.15840 0.44526 0.41089
 H1474 H -0.17614 0.43949 0.47084
 H1475 H -0.08608 0.46154 0.49821
 H1476 H -0.07995 0.49648 0.44681
 H1477 H -0.12728 0.45875 0.42166
 H1478 H -0.11111 0.48430 0.43489
 C1479 C 0.36749 -0.04750 0.46131
 C1480 C 0.34988 -0.03919 0.46748
 C1481 C 0.33220 -0.04561 0.45964
 C1482 C 0.33215 -0.06056 0.44618
 C1483 C 0.34998 -0.06881 0.44076
 N1484 N 0.36706 -0.06195 0.44811
 C1485 C 0.38651 -0.04029 0.46813
 N1486 N 0.40096 -0.03710 0.45488
 C1487 C 0.41884 -0.03037 0.46017
 C1488 C 0.42310 -0.02696 0.47984
 C1489 C 0.40856 -0.03049 0.49380
 C1490 C 0.39011 -0.03690 0.48795
 H1491 H 0.31858 -0.03897 0.46394
 H1492 H 0.35028 -0.08032 0.43029
 H1493 H 0.42983 -0.02802 0.44905
 H1494 H 0.41142 -0.02804 0.50912
 H1495 H 0.34988 -0.02750 0.47777
 H1496 H 0.37889 -0.03952 0.49877
 C1497 C 0.36442 0.45896 -0.04680
 C1498 C 0.36024 0.45733 -0.06677
 C1499 C 0.34255 0.44932 -0.07272
 C1500 C 0.32896 0.44293 -0.05887
 C1501 C 0.33366 0.44483 -0.03905
 N1502 N 0.35108 0.45256 -0.03359
 C1503 C 0.38330 0.46672 -0.03982
 N1504 N 0.39075 0.46045 -0.02257
 C1505 C 0.40834 0.46650 -0.01561
 C1506 C 0.41954 0.47971 -0.02620
 C1507 C 0.41186 0.48669 -0.04378
 C1508 C 0.39381 0.48028 -0.05061
 H1509 H 0.33963 0.44775 -0.08814
 H1510 H 0.32352 0.44007 -0.02796
 H1511 H 0.41359 0.46083 -0.00191
 H1512 H 0.41989 0.49695 -0.05243
 H1513 H 0.37070 0.46166 -0.07775
 H1514 H 0.38815 0.48601 -0.06411
 C1515 C 0.38225 0.45056 0.78903
 C1516 C 0.38559 0.43093 0.79088
 C1517 C 0.40314 0.42451 0.79885
 C1518 C 0.41749 0.43753 0.80489
 C1519 C 0.41355 0.45706 0.80286
 N1520 N 0.39622 0.46300 0.79522
 C1521 C 0.36359 0.45794 0.78115
 N1522 N 0.35629 0.47466 0.78805
 C1523 C 0.33878 0.48177 0.78199
 C1524 C 0.32753 0.47188 0.76814
 C1525 C 0.33515 0.45492 0.76043
 C1526 C 0.35309 0.44793 0.76687
 H1527 H 0.40537 0.40936 0.80059
 H1528 H 0.42424 0.46754 0.80737
 H1529 H 0.33356 0.49497 0.78822
 H1530 H 0.32709 0.44679 0.74968
 H1531 H 0.37458 0.42062 0.78672
 H1532 H 0.35866 0.43485 0.76068
 C1533 C 0.38576 -0.04290 0.29492
 C1534 C 0.40105 -0.03144 0.30202
 C1535 C 0.41820 -0.03993 0.30878
 C1536 C 0.42028 -0.05979 0.30839
 C1537 C 0.40470 -0.07073 0.30110
 N1538 N 0.38813 -0.06213 0.29457
 C1539 C 0.36716 -0.03472 0.28771
 N1540 N 0.35641 -0.04478 0.27455
 C1541 C 0.33893 -0.03849 0.26764
 C1542 C 0.33108 -0.02119 0.27425
 C1543 C 0.34189 -0.01061 0.28788
 C1544 C 0.35990 -0.01729 0.29461
 H1545 H 0.42992 -0.03098 0.31413
 H1546 H 0.40563 -0.08609 0.30082
 H1547 H 0.33102 -0.04724 0.25730
 H1548 H 0.33635 0.00273 0.29352
 H1549 H 0.39998 -0.01608 0.30209
 H1550 H 0.36767 -0.00911 0.30550
 C1551 C 0.11529 0.54169 0.70409
 C1552 C 0.11163 0.54445 0.68416
 C1553 C 0.09401 0.55256 0.67823
 C1554 C 0.07990 0.55787 0.69205
 C1555 C 0.08422 0.55509 0.71186
 N1556 N 0.10159 0.54726 0.71732
 C1557 C 0.13391 0.53334 0.71101
 N1558 N 0.14138 0.53886 0.72852
 C1559 C 0.15874 0.53215 0.73541
 C1560 C 0.16963 0.51897 0.72449
 C1561 C 0.16189 0.51274 0.70664
 C1562 C 0.14411 0.51986 0.69987
 H1563 H 0.09146 0.55490 0.66285
 H1564 H 0.07374 0.55906 0.72295
 H1565 H 0.16407 0.53726 0.74932
 H1566 H 0.16970 0.50257 0.69770
 H1567 H 0.12241 0.54079 0.67324
 H1568 H 0.13841 0.51474 0.68612
 C1569 C 0.11592 0.04173 0.21207
 C1570 C 0.10057 0.04681 0.22465
 C1571 C 0.08336 0.05436 0.21691
 C1572 C 0.08139 0.05689 0.19672
 C1573 C 0.09680 0.05101 0.18463
 N1574 N 0.11343 0.04373 0.19249
 C1575 C 0.13494 0.03472 0.21941
 N1576 N 0.14608 0.02358 0.20761
 C1577 C 0.16420 0.01748 0.21283
 C1578 C 0.17236 0.02297 0.23077
 C1579 C 0.16111 0.03444 0.24320
 C1580 C 0.14241 0.04029 0.23762
 H1581 H 0.07166 0.05853 0.22665
 H1582 H 0.09586 0.05280 0.16900
 H1583 H 0.17239 0.00876 0.20271
 H1584 H 0.16683 0.03909 0.25713
 H1585 H 0.10177 0.04497 0.24025
 H1586 H 0.13427 0.04960 0.24719
 C1587 C 0.63350 0.70182 0.20929
 C1588 C 0.63705 0.68221 0.20754
 C1589 C 0.65457 0.67594 0.19936
 C1590 C 0.66868 0.68911 0.19311
 C1591 C 0.66444 0.70857 0.19481
 N1592 N 0.64719 0.71436 0.20269
 C1593 C 0.61490 0.70918 0.21728
 N1594 N 0.60801 0.72622 0.21082
 C1595 C 0.59066 0.73354 0.21694
 C1596 C 0.57910 0.72354 0.23043
 C1597 C 0.58625 0.70623 0.23774
 C1598 C 0.60409 0.69902 0.23122
 H1599 H 0.65701 0.66081 0.19766
 H1600 H 0.67487 0.71914 0.18995
 H1601 H 0.58581 0.74702 0.21104
 H1602 H 0.57788 0.69803 0.24819
 H1603 H 0.62624 0.67179 0.21192
 H1604 H 0.60932 0.68568 0.23711
 C1605 C 0.13599 0.70362 0.71088
 C1606 C 0.15126 0.69720 0.72289
 C1607 C 0.16806 0.68950 0.71444
 C1608 C 0.16969 0.68817 0.69410
 C1609 C 0.15425 0.69509 0.68264
 N1610 N 0.13806 0.70255 0.69118
 C1611 C 0.11757 0.71139 0.71887
 N1612 N 0.10694 0.72362 0.70773
 C1613 C 0.08936 0.73060 0.71353
 C1614 C 0.08121 0.72496 0.73142
 C1615 C 0.09195 0.71240 0.74319
 C1616 C 0.11012 0.70563 0.73702
 H1617 H 0.17980 0.68453 0.72374
 H1618 H 0.15488 0.69422 0.66691
 H1619 H 0.08156 0.74014 0.70390
 H1620 H 0.08619 0.70757 0.75704
 H1621 H 0.15040 0.69824 0.73859
 H1622 H 0.11784 0.69551 0.74607
 C1623 C 0.61460 0.20505 0.53940
 C1624 C 0.59955 0.19922 0.52677
 C1625 C 0.58204 0.19229 0.53450
 C1626 C 0.57948 0.19111 0.55474
 C1627 C 0.59476 0.19736 0.56685
 N1628 N 0.61165 0.20410 0.55899
 C1629 C 0.63359 0.21229 0.53214
 N1630 N 0.64415 0.22433 0.54360
 C1631 C 0.66198 0.23114 0.53824
 C1632 C 0.67040 0.22559 0.52046
 C1633 C 0.65981 0.21308 0.50846
 C1634 C 0.64144 0.20644 0.51420
 H1635 H 0.57046 0.18786 0.52472
 H1636 H 0.59338 0.19660 0.58253
 H1637 H 0.66967 0.24061 0.54805
 H1638 H 0.66577 0.20832 0.49468
 H1639 H 0.60110 0.20023 0.51112
 H1640 H 0.63379 0.19647 0.50491
 C1641 C 0.61322 0.70763 0.03800
 C1642 C 0.59785 0.70293 0.02527
 C1643 C 0.58026 0.69609 0.03285
 C1644 C 0.57791 0.69389 0.05304
 C1645 C 0.59346 0.69921 0.06527
 N1646 N 0.61046 0.70585 0.05756
 C1647 C 0.63242 0.71439 0.03084
 N1648 N 0.64353 0.72561 0.04264
 C1649 C 0.66158 0.73189 0.03738
 C1650 C 0.66965 0.72660 0.01935
 C1651 C 0.65851 0.71490 0.00701
 C1652 C 0.63991 0.70881 0.01266
 H1653 H 0.56849 0.69237 0.02299
 H1654 H 0.59229 0.69762 0.08090
 H1655 H 0.66971 0.74073 0.04745
 H1656 H 0.66419 0.71038 -0.00697
 H1657 H 0.59928 0.70464 0.00967
 H1658 H 0.63179 0.69945 0.00310
 C1659 C 0.13199 0.04829 0.04462
 C1660 C 0.13581 0.06792 0.04531
 C1661 C 0.15368 0.07438 0.05256
 C1662 C 0.16786 0.06139 0.05905
 C1663 C 0.16323 0.04192 0.05865
 N1664 N 0.14568 0.03595 0.05155
 C1665 C 0.11330 0.04070 0.03694
 N1666 N 0.10649 0.02375 0.04375
 C1667 C 0.08928 0.01607 0.03758
 C1668 C 0.07784 0.02556 0.02361
 C1669 C 0.08485 0.04284 0.01606
 C1670 C 0.10252 0.05043 0.02265
 H1671 H 0.15642 0.08954 0.05319
 H1672 H 0.17366 0.03144 0.06367
 H1673 H 0.08451 0.00267 0.04372
 H1674 H 0.07657 0.05067 0.00526
 H1675 H 0.12505 0.07823 0.04065
 H1676 H 0.10769 0.06366 0.01644
 C1677 C 0.13194 0.54663 0.54054
 C1678 C 0.13272 0.56060 0.55510
 C1679 C 0.15085 0.56662 0.56212
 C1680 C 0.16806 0.55913 0.55421
 C1681 C 0.16672 0.54525 0.53963
 N1682 N 0.14887 0.53922 0.53333
 C1683 C 0.11300 0.53999 0.53295
 N1684 N 0.10885 0.52104 0.53257
 C1685 C 0.09123 0.51431 0.52633
 C1686 C 0.07686 0.52696 0.51960
 C1687 C 0.08107 0.54649 0.51949
 C1688 C 0.09903 0.55308 0.52637
 H1689 H 0.15156 0.57726 0.57351
 H1690 H 0.17985 0.53914 0.53344
 H1691 H 0.08848 0.49913 0.52654
 H1692 H 0.07027 0.55670 0.51456
 H1693 H 0.11943 0.56657 0.56114
 H1694 H 0.10205 0.56821 0.52648
 C1695 C 0.63477 0.04711 0.54025
 C1696 C 0.63808 0.06674 0.54224
 C1697 C 0.65592 0.07318 0.54960
 C1698 C 0.67059 0.06017 0.55477
 C1699 C 0.66659 0.04065 0.55280
 N1700 N 0.64902 0.03470 0.54576
 C1701 C 0.61592 0.03959 0.53302
 N1702 N 0.60939 0.02247 0.53968
 C1703 C 0.59190 0.01498 0.53408
 C1704 C 0.57988 0.02485 0.52091
 C1705 C 0.58664 0.04228 0.51347
 C1706 C 0.60458 0.04968 0.51948
 H1707 H 0.65817 0.08831 0.55155
 H1708 H 0.67743 0.03016 0.55681
 H1709 H 0.58735 0.00143 0.54007
 H1710 H 0.57791 0.05041 0.50326
 H1711 H 0.62686 0.07703 0.53868
 H1712 H 0.60952 0.06309 0.51348
 C1713 C 0.63408 0.54310 0.03852
 C1714 C 0.64965 0.53090 0.04314
 C1715 C 0.66720 0.53853 0.05000
 C1716 C 0.66936 0.55828 0.05219
 C1717 C 0.65354 0.57000 0.04710
 N1718 N 0.63657 0.56224 0.04044
 C1719 C 0.61494 0.53572 0.03183
 N1720 N 0.60365 0.54677 0.02004
 C1721 C 0.58563 0.54119 0.01386
 C1722 C 0.57778 0.52367 0.01991
 C1723 C 0.58913 0.51210 0.03215
 C1724 C 0.60770 0.51803 0.03808
 H1725 H 0.67909 0.52901 0.05362
 H1726 H 0.65451 0.58527 0.04886
 H1727 H 0.57730 0.55066 0.00460
 H1728 H 0.58361 0.49854 0.03727
 H1729 H 0.64841 0.51564 0.04137
 H1730 H 0.61599 0.50908 0.04789
 C1731 C 0.04110 0.04749 0.13481
 C1732 C 0.04282 0.06709 0.13846
 C1733 C 0.05037 0.07331 0.15623
 C1734 C 0.05614 0.06012 0.17045
 C1735 C 0.05422 0.04065 0.16622
 N1736 N 0.04697 0.03491 0.14872
 C1737 C 0.03376 0.04018 0.11596
 N1738 N 0.04031 0.02308 0.10933
 C1739 C 0.03455 0.01570 0.09192
 C1740 C 0.02129 0.02567 0.08007
 C1741 C 0.01404 0.04315 0.08685
 C1742 C 0.02021 0.05043 0.10473
 H1743 H 0.05204 0.08844 0.15873
 H1744 H 0.05855 0.03006 0.17681
 H1745 H 0.04041 0.00212 0.08735
 H1746 H 0.00376 0.05135 0.07826
 H1747 H 0.03893 0.07754 0.12755
 H1748 H 0.01427 0.06384 0.10971
 C1749 C 0.03586 0.54756 0.63303
 C1750 C 0.03655 0.56710 0.63730
 C1751 C 0.04477 0.57322 0.65481
 C1752 C 0.05226 0.55998 0.66816
 C1753 C 0.05117 0.54057 0.66342
 N1754 N 0.04327 0.53494 0.64616
 C1755 C 0.02835 0.54043 0.61415
 N1756 N 0.03575 0.52397 0.60676
 C1757 C 0.03028 0.51703 0.58907
 C1758 C 0.01655 0.52686 0.57763
 C1759 C 0.00827 0.54355 0.58529
 C1760 C 0.01409 0.55035 0.60348
 H1761 H 0.04569 0.58833 0.65775
 H1762 H 0.05678 0.52994 0.67336
 H1763 H 0.03692 0.50401 0.58387
 H1764 H -0.00245 0.55158 0.57708
 H1765 H 0.03143 0.57764 0.62700
 H1766 H 0.00746 0.56321 0.60907
 C1767 C 0.54018 0.04450 0.63566
 C1768 C 0.54127 0.06413 0.63934
 C1769 C 0.54894 0.07056 0.65695
 C1770 C 0.55547 0.05755 0.67103
 C1771 C 0.55429 0.03805 0.66674
 N1772 N 0.54689 0.03209 0.64936
 C1773 C 0.53266 0.03709 0.61693
 N1774 N 0.54002 0.02054 0.60971
 C1775 C 0.53440 0.01338 0.59216
 C1776 C 0.52052 0.02305 0.58073
 C1777 C 0.51229 0.03982 0.58822
 C1778 C 0.51830 0.04686 0.60625
 H1779 H 0.55000 0.08573 0.65952
 H1780 H 0.55921 0.02759 0.67723
 H1781 H 0.54100 0.00031 0.58706
 H1782 H 0.50149 0.04773 0.58001
 H1783 H 0.53671 0.07446 0.62857
 H1784 H 0.51171 0.05979 0.61174
 C1785 C 0.53633 0.54592 0.13306
 C1786 C 0.53716 0.56551 0.13700
 C1787 C 0.54497 0.57183 0.15461
 C1788 C 0.55190 0.55874 0.16842
 C1789 C 0.55091 0.53927 0.16388
 N1790 N 0.54338 0.53343 0.14652
 C1791 C 0.52875 0.53862 0.11428
 N1792 N 0.53619 0.52219 0.10685
 C1793 C 0.53054 0.51517 0.08924
 C1794 C 0.51657 0.52488 0.07795
 C1795 C 0.50825 0.54151 0.08568
 C1796 C 0.51427 0.54839 0.10377
 H1797 H 0.54585 0.58697 0.15736
 H1798 H 0.55611 0.52875 0.17416
 H1799 H 0.53723 0.50221 0.08396
 H1800 H 0.49736 0.54944 0.07760
 H1801 H 0.53234 0.57592 0.12643
 H1802 H 0.50760 0.56121 0.10942
 C1803 C 0.20739 0.53940 0.61312
 C1804 C 0.20093 0.52796 0.59761
 C1805 C 0.19439 0.53652 0.58047
 C1806 C 0.19436 0.55640 0.57864
 C1807 C 0.20108 0.56731 0.59443
 N1808 N 0.20741 0.55866 0.61098
 C1809 C 0.21420 0.53117 0.63177
 N1810 N 0.22705 0.54128 0.64286
 C1811 C 0.23350 0.53497 0.66045
 C1812 C 0.22670 0.51762 0.66804
 C1813 C 0.21338 0.50699 0.65687
 C1814 C 0.20714 0.51367 0.63875
 H1815 H 0.18946 0.52760 0.56859
 H1816 H 0.20101 0.58269 0.59370
 H1817 H 0.24360 0.54376 0.66863
 H1818 H 0.20761 0.49361 0.66220
 H1819 H 0.20115 0.51260 0.59853
 H1820 H 0.19648 0.50546 0.63066
 C1821 C 0.21010 0.04395 0.11730
 C1822 C 0.21575 0.03659 0.09914
 C1823 C 0.20819 0.04467 0.08213
 C1824 C 0.19474 0.05963 0.08333
 C1825 C 0.18919 0.06633 0.10171
 N1826 N 0.19713 0.05862 0.11806
 C1827 C 0.21822 0.03645 0.13561
 N1828 N 0.22424 0.04890 0.14957
 C1829 C 0.23122 0.04298 0.16708
 C1830 C 0.23180 0.02351 0.17158
 C1831 C 0.22553 0.01041 0.15747
 C1832 C 0.21901 0.01683 0.13932
 H1833 H 0.21267 0.03926 0.06805
 H1834 H 0.17880 0.07787 0.10299
 H1835 H 0.23567 0.05351 0.17773
 H1836 H 0.22565 -0.00471 0.16052
 H1837 H 0.22618 0.02504 0.09816
 H1838 H 0.21404 0.00666 0.12854
 C1839 C 0.70982 0.20845 0.63457
 C1840 C 0.70350 0.22034 0.64976
 C1841 C 0.69713 0.21232 0.66724
 C1842 C 0.69716 0.19251 0.66973
 C1843 C 0.70377 0.18113 0.65426
 N1844 N 0.70991 0.18927 0.63736
 C1845 C 0.71632 0.21614 0.61556
 N1846 N 0.72907 0.20583 0.60457
 C1847 C 0.73523 0.21171 0.58672
 C1848 C 0.72822 0.22881 0.57875
 C1849 C 0.71499 0.23961 0.58980
 C1850 C 0.70904 0.23337 0.60816
 H1851 H 0.69229 0.22158 0.67886
 H1852 H 0.70376 0.16578 0.65550
 H1853 H 0.74528 0.20281 0.57863
 H1854 H 0.70907 0.25282 0.58420
 H1855 H 0.70367 0.23567 0.64834
 H1856 H 0.69844 0.24172 0.61614
 C1857 C 0.70535 0.70519 0.13051
 C1858 C 0.69075 0.69115 0.13088
 C1859 C 0.68411 0.68427 0.14874
 C1860 C 0.69238 0.69103 0.16607
 C1861 C 0.70675 0.70522 0.16515
 N1862 N 0.71276 0.71201 0.14757
 C1863 C 0.71306 0.71225 0.11185
 N1864 N 0.71398 0.73130 0.10842
 C1865 C 0.72051 0.73844 0.09116
 C1866 C 0.72698 0.72611 0.07643
 C1867 C 0.72657 0.70646 0.07991
 C1868 C 0.71940 0.69947 0.09751
 H1869 H 0.67298 0.67329 0.14913
 H1870 H 0.71326 0.71071 0.17838
 H1871 H 0.72070 0.75370 0.08897
 H1872 H 0.73129 0.69651 0.06880
 H1873 H 0.68458 0.68561 0.11749
 H1874 H 0.71891 0.68425 0.09999
 C1875 C 0.53776 0.70425 0.11518
 C1876 C 0.53862 0.68469 0.11110
 C1877 C 0.54606 0.67856 0.09329
 C1878 C 0.55259 0.69181 0.07945
 C1879 C 0.55166 0.71123 0.08414
 N1880 N 0.54447 0.71689 0.10169
 C1881 C 0.53046 0.71135 0.13410
 N1882 N 0.53792 0.72780 0.14149
 C1883 C 0.53248 0.73470 0.15919
 C1884 C 0.51872 0.72484 0.17059
 C1885 C 0.51041 0.70816 0.16293
 C1886 C 0.51621 0.70139 0.14475
 H1887 H 0.54694 0.66344 0.09041
 H1888 H 0.55661 0.72185 0.07384
 H1889 H 0.53914 0.74772 0.16442
 H1890 H 0.49966 0.70011 0.17110
 H1891 H 0.53408 0.67417 0.12169
 H1892 H 0.50953 0.68855 0.13912
 C1893 C 0.03964 0.70411 0.61745
 C1894 C 0.04061 0.68451 0.61360
 C1895 C 0.04830 0.67820 0.59595
 C1896 C 0.05493 0.69131 0.58201
 C1897 C 0.05377 0.71078 0.58644
 N1898 N 0.04638 0.71661 0.60385
 C1899 C 0.03229 0.71142 0.63628
 N1900 N 0.03978 0.72794 0.64353
 C1901 C 0.03434 0.73502 0.66116
 C1902 C 0.02054 0.72530 0.67265
 C1903 C 0.01220 0.70856 0.66513
 C1904 C 0.01801 0.70160 0.64702
 H1905 H 0.04938 0.66305 0.59332
 H1906 H 0.05877 0.72132 0.57607
 H1907 H 0.04103 0.74806 0.66627
 H1908 H 0.00145 0.70061 0.67339
 H1909 H 0.03604 0.67411 0.62429
 H1910 H 0.01134 0.68870 0.64152
 C1911 C 0.53573 0.61473 0.21238
 C1912 C 0.52325 0.60014 0.20586
 C1913 C 0.53126 0.58364 0.19784
 C1914 C 0.55163 0.58160 0.19631
 C1915 C 0.56358 0.59624 0.20355
 N1916 N 0.55545 0.61220 0.21124
 C1917 C 0.52819 0.63305 0.21991
 N1918 N 0.53974 0.64357 0.23198
 C1919 C 0.53447 0.66113 0.23840
 C1920 C 0.51680 0.66937 0.23222
 C1921 C 0.50456 0.65869 0.21993
 C1922 C 0.51015 0.64056 0.21380
 H1923 H 0.52161 0.57251 0.19264
 H1924 H 0.57935 0.59522 0.20258
 H1925 H 0.54446 0.66889 0.24774
 H1926 H 0.49086 0.66450 0.21470
 H1927 H 0.50751 0.60136 0.20696
 H1928 H 0.50078 0.63295 0.20375
 C1929 C 0.03792 0.61503 0.71364
 C1930 C 0.02533 0.60033 0.70762
 C1931 C 0.03316 0.58402 0.69906
 C1932 C 0.05345 0.58225 0.69651
 C1933 C 0.06556 0.59693 0.70338
 N1934 N 0.05761 0.61273 0.71160
 C1935 C 0.03050 0.63325 0.72152
 N1936 N 0.04240 0.64385 0.73317
 C1937 C 0.03723 0.66137 0.73978
 C1938 C 0.01928 0.66948 0.73425
 C1939 C 0.00668 0.65871 0.72241
 C1940 C 0.01218 0.64062 0.71608
 H1941 H 0.02339 0.57285 0.69416
 H1942 H 0.08128 0.59612 0.70163
 H1943 H 0.04749 0.66918 0.74877
 H1944 H -0.00725 0.66443 0.71768
 H1945 H 0.00965 0.60137 0.70945
 H1946 H 0.00252 0.63294 0.70637
 C1947 C 0.04229 0.13041 0.04313
 C1948 C 0.06254 0.13373 0.04416
 C1949 C 0.06944 0.15082 0.05179
 C1950 C 0.05629 0.16473 0.05833
 C1951 C 0.03615 0.16075 0.05734
 N1952 N 0.02973 0.14389 0.04994
 C1953 C 0.03445 0.11240 0.03517
 N1954 N 0.01765 0.10493 0.04265
 C1955 C 0.01025 0.08796 0.03650
 C1956 C 0.01992 0.07749 0.02195
 C1957 C 0.03690 0.08533 0.01365
 C1958 C 0.04417 0.10270 0.02018
 H1959 H 0.08508 0.15315 0.05273
 H1960 H 0.02556 0.17111 0.06230
 H1961 H -0.00293 0.08252 0.04325
 H1962 H 0.04487 0.07787 0.00235
 H1963 H 0.07298 0.12310 0.03948
 H1964 H 0.05726 0.10844 0.01352
 C1965 C 0.04084 0.63492 0.53712
 C1966 C 0.06116 0.63777 0.53820
 C1967 C 0.06847 0.65419 0.54690
 C1968 C 0.05565 0.66791 0.55446
 C1969 C 0.03542 0.66452 0.55314
 N1970 N 0.02861 0.64826 0.54476
 C1971 C 0.03263 0.61729 0.52870
 N1972 N 0.01600 0.60969 0.53640
 C1973 C 0.00858 0.59273 0.53025
 C1974 C 0.01817 0.58233 0.51559
 C1975 C 0.03485 0.59040 0.50692
 C1976 C 0.04208 0.60781 0.51340
 H1977 H 0.08416 0.65606 0.54803
 H1978 H 0.02510 0.67477 0.55884
 H1979 H -0.00441 0.58715 0.53724
 H1980 H 0.04269 0.58304 0.49548
 H1981 H 0.07135 0.62720 0.53289
 H1982 H 0.05504 0.61367 0.50659
 C1983 C 0.53684 0.13294 0.53945
 C1984 C 0.52447 0.14761 0.54590
 C1985 C 0.53263 0.16429 0.55347
 C1986 C 0.55302 0.16640 0.55462
 C1987 C 0.56484 0.15152 0.54774
 N1988 N 0.55658 0.13545 0.54043
 C1989 C 0.52921 0.11467 0.53182
 N1990 N 0.54077 0.10422 0.51974
 C1991 C 0.53544 0.08674 0.51312
 C1992 C 0.51767 0.07852 0.51905
 C1993 C 0.50540 0.08914 0.53134
 C1994 C 0.51107 0.10720 0.53771
 H1995 H 0.52306 0.17557 0.55838
 H1996 H 0.58063 0.15255 0.54847
 H1997 H 0.54546 0.07904 0.50380
 H1998 H 0.49163 0.08333 0.53641
 H1999 H 0.50872 0.14639 0.54494
 H2000 H 0.50168 0.11478 0.54772
 C2001 C 0.53523 0.63600 0.03604
 C2002 C 0.52294 0.65067 0.04260
 C2003 C 0.53119 0.66722 0.05031
 C2004 C 0.55159 0.66919 0.05146
 C2005 C 0.56333 0.65447 0.04416
 N2006 N 0.55498 0.63848 0.03678
 C2007 C 0.52751 0.61764 0.02885
 N2008 N 0.53887 0.60704 0.01673
 C2009 C 0.53352 0.58940 0.01061
 C2010 C 0.51595 0.58120 0.01713
 C2011 C 0.50390 0.59195 0.02950
 C2012 C 0.50959 0.61016 0.03535
 H2013 H 0.52170 0.67841 0.05560
 H2014 H 0.57912 0.65544 0.04487
 H2015 H 0.54335 0.58162 0.00117
 H2016 H 0.49027 0.58617 0.03497
 H2017 H 0.50717 0.64947 0.04181
 H2018 H 0.50039 0.61787 0.04544
 C2019 C 0.71440 0.11815 0.54243
 C2020 C 0.71691 0.11278 0.56197
 C2021 C 0.70903 0.09567 0.56857
 C2022 C 0.69842 0.08382 0.55587
 C2023 C 0.69680 0.08945 0.53627
 N2024 N 0.70447 0.10631 0.53020
 C2025 C 0.72124 0.13683 0.53512
 N2026 N 0.71156 0.14519 0.52004
 C2027 C 0.71634 0.16279 0.51328
 C2028 C 0.73168 0.17314 0.52191
 C2029 C 0.74220 0.16451 0.53711
 C2030 C 0.73710 0.14642 0.54368
 H2031 H 0.71080 0.09211 0.58379
 H2032 H 0.68916 0.08059 0.52585
 H2033 H 0.70792 0.16878 0.50141
 H2034 H 0.75427 0.17181 0.54412
 H2035 H 0.72423 0.12196 0.57232
 H2036 H 0.74557 0.14007 0.55531
 C2037 C 0.71100 0.61844 0.04042
 C2038 C 0.71344 0.61314 0.05997
 C2039 C 0.70577 0.59593 0.06654
 C2040 C 0.69544 0.58388 0.05380
 C2041 C 0.69356 0.58963 0.03424
 N2042 N 0.70110 0.60657 0.02819
 C2043 C 0.71824 0.63697 0.03306
 N2044 N 0.70871 0.64562 0.01806
 C2045 C 0.71402 0.66307 0.01126
 C2046 C 0.72978 0.67293 0.01976
 C2047 C 0.74014 0.66397 0.03486
 C2048 C 0.73449 0.64605 0.04147
 H2049 H 0.70768 0.59234 0.08173
 H2050 H 0.68608 0.58069 0.02379
 H2051 H 0.70569 0.66935 -0.00051
 H2052 H 0.75250 0.67089 0.04178
 H2053 H 0.72069 0.62237 0.07032
 H2054 H 0.74285 0.63944 0.05302
 C2055 C 0.20998 0.62782 0.70722
 C2056 C 0.22273 0.64228 0.70096
 C2057 C 0.21503 0.65941 0.69415
 C2058 C 0.19472 0.66221 0.69358
 C2059 C 0.18251 0.64763 0.70049
 N2060 N 0.19033 0.63105 0.70702
 C2061 C 0.21717 0.60904 0.71380
 N2062 N 0.20578 0.59853 0.72601
 C2063 C 0.21096 0.58083 0.73206
 C2064 C 0.22845 0.57252 0.72549
 C2065 C 0.24038 0.58308 0.71282
 C2066 C 0.23483 0.60131 0.70698
 H2067 H 0.22488 0.67047 0.68916
 H2068 H 0.16676 0.64924 0.70022
 H2069 H 0.20121 0.57316 0.74170
 H2070 H 0.25392 0.57721 0.70727
 H2071 H 0.23845 0.64051 0.70140
 H2072 H 0.24402 0.60892 0.69678
 C2073 C 0.21672 0.13528 0.20962
 C2074 C 0.21873 0.14020 0.18991
 C2075 C 0.21007 0.15679 0.18296
 C2076 C 0.19922 0.16858 0.19549
 C2077 C 0.19816 0.16344 0.21527
 N2078 N 0.20654 0.14704 0.22168
 C2079 C 0.22421 0.11698 0.21722
 N2080 N 0.21465 0.10834 0.23222
 C2081 C 0.21982 0.09084 0.23893
 C2082 C 0.23537 0.08087 0.23027
 C2083 C 0.24588 0.08988 0.21529
 C2084 C 0.24041 0.10789 0.20880
 H2085 H 0.21146 0.15999 0.16762
 H2086 H 0.19039 0.17229 0.22558
 H2087 H 0.21142 0.08455 0.25065
 H2088 H 0.25812 0.08290 0.20830
 H2089 H 0.22622 0.13102 0.17971
 H2090 H 0.24876 0.11450 0.19724
 C2091 C 0.71605 1.13406 0.71059
 C2092 C 0.72786 1.14787 0.70158
 C2093 C 0.71931 1.16450 0.69439
 C2094 C 0.69903 1.16743 0.69601
 C2095 C 0.68795 1.15362 0.70595
 N2096 N 0.69659 1.13755 0.71274
 C2097 C 0.72382 1.11559 0.71750
 N2098 N 0.71341 1.10572 0.73107
 C2099 C 0.71868 1.08807 0.73718
 C2100 C 0.73516 1.07904 0.72920
 C2101 C 0.74626 1.08904 0.71533
 C2102 C 0.74068 1.10727 0.70947
 H2103 H 0.72853 1.17504 0.68745
 H2104 H 0.67236 1.15525 0.70794
 H2105 H 0.70962 1.08093 0.74786
 H2106 H 0.75902 1.08262 0.70868
 H2107 H 0.74350 1.14599 0.70013
 H2108 H 0.74907 1.11433 0.69824
 C2109 C 0.71462 0.63298 0.20593
 C2110 C 0.71647 0.63779 0.18617
 C2111 C 0.70781 0.65437 0.17919
 C2112 C 0.69713 0.66627 0.19175
 C2113 C 0.69631 0.66129 0.21160
 N2114 N 0.70466 0.64488 0.21802
 C2115 C 0.72200 0.61464 0.21354
 N2116 N 0.71244 0.60612 0.22861
 C2117 C 0.71744 0.58857 0.23531
 C2118 C 0.73281 0.57841 0.22655
 C2119 C 0.74333 0.58731 0.21150
 C2120 C 0.73804 0.60537 0.20503
 H2121 H 0.70902 0.65745 0.16381
 H2122 H 0.68868 0.67024 0.22192
 H2123 H 0.70904 0.58238 0.24708
 H2124 H 0.75544 0.58018 0.20442
 H2125 H 0.72380 0.62849 0.17595
 H2126 H 0.74638 0.61188 0.19340
 C2127 C 0.53856 0.11410 0.71360
 C2128 C 0.52619 0.09943 0.70709
 C2129 C 0.53435 0.08275 0.69964
 C2130 C 0.55475 0.08065 0.69862
 C2131 C 0.56657 0.09540 0.70582
 N2132 N 0.55830 0.11151 0.71300
 C2133 C 0.53091 0.13251 0.72068
 N2134 N 0.54208 0.14293 0.73317
 C2135 C 0.53674 0.16055 0.73932
 C2136 C 0.51940 0.16894 0.73245
 C2137 C 0.50758 0.15839 0.71966
 C2138 C 0.51323 0.14018 0.71380
 H2139 H 0.52480 0.07155 0.69442
 H2140 H 0.58236 0.09436 0.70521
 H2141 H 0.54640 0.16817 0.74910
 H2142 H 0.49415 0.16433 0.71390
 H2143 H 0.51043 0.10075 0.70777
 H2144 H 0.50421 0.13259 0.70342
 C2145 C 1.04349 0.11711 0.21490
 C2146 C 1.06371 0.11362 0.21420
 C2147 C 1.07057 0.09693 0.20567
 C2148 C 1.05739 0.08361 0.19791
 C2149 C 1.03728 0.08763 0.19889
 N2150 N 1.03092 0.10412 0.20710
 C2151 C 1.03569 0.13507 0.22297
 N2152 N 1.01909 0.14266 0.21523
 C2153 C 1.01190 0.15977 0.22109
 C2154 C 1.02166 0.17037 0.23550
 C2155 C 1.03835 0.16239 0.24420
 C2156 C 1.04537 0.14480 0.23802
 H2157 H 1.08620 0.09457 0.20481
 H2158 H 1.02669 0.07769 0.19304
 H2159 H 0.99888 0.16528 0.21410
 H2160 H 1.04633 0.16993 0.25545
 H2161 H 1.07419 0.12389 0.21961
 H2162 H 1.05831 0.13898 0.24489
 C2163 C 0.21308 0.61587 0.53917
 C2164 C 0.22487 0.60188 0.54787
 C2165 C 0.21629 0.58511 0.55472
 C2166 C 0.19598 0.58222 0.55310
 C2167 C 0.18492 0.59625 0.54349
 N2168 N 0.19360 0.61245 0.53700
 C2169 C 0.22097 0.63439 0.53244
 N2170 N 0.21066 0.64440 0.51891
 C2171 C 0.21620 0.66198 0.51277
 C2172 C 0.23293 0.67076 0.52063
 C2173 C 0.24385 0.66067 0.53455
 C2174 C 0.23796 0.64252 0.54047
 H2175 H 0.22551 0.57443 0.56139
 H2176 H 0.16932 0.59467 0.54150
 H2177 H 0.20724 0.66922 0.50209
 H2178 H 0.25676 0.66690 0.54114
 H2179 H 0.24052 0.60370 0.54928
 H2180 H 0.24628 0.63535 0.55168
 C2181 C 0.21091 0.11771 1.04054
 C2182 C 0.20248 0.10372 1.02854
 C2183 C 0.19515 0.08707 1.03687
 C2184 C 0.19611 0.08425 1.05710
 C2185 C 0.20567 0.09810 1.06841
 N2186 N 0.21257 0.11427 1.05999
 C2187 C 0.21757 0.13632 1.03287
 N2188 N 0.23092 0.14649 1.04331
 C2189 C 0.23693 0.16416 1.03787
 C2190 C 0.22910 0.17283 1.02115
 C2191 C 0.21532 0.16259 1.01015
 C2192 C 0.20954 0.14439 1.01593
 H2193 H 0.18839 0.07649 1.02757
 H2194 H 0.20705 0.09650 1.08401
 H2195 H 0.24749 0.17153 1.04689
 H2196 H 0.20878 0.16872 0.99723
 H2197 H 0.20148 0.10555 1.01293
 H2198 H 0.19843 0.13710 1.00753
 C2199 C 0.20910 0.70032 0.63183
 C2200 C 0.20727 0.68061 0.63466
 C2201 C 0.19981 0.67374 0.65218
 C2202 C 0.19421 0.68639 0.66696
 C2203 C 0.19604 0.70600 0.66348
 N2204 N 0.20325 0.71240 0.64620
 C2205 C 0.21678 0.70819 0.61339
 N2206 N 0.21006 0.72528 0.60687
 C2207 C 0.21613 0.73301 0.58972
 C2208 C 0.22986 0.72342 0.57807
 C2209 C 0.23731 0.70601 0.58483
 C2210 C 0.23084 0.69838 0.60240
 H2211 H 0.19822 0.65853 0.65414
 H2212 H 0.19183 0.71619 0.67453
 H2213 H 0.21009 0.74652 0.58515
 H2214 H 0.24795 0.69810 0.57641
 H2215 H 0.21116 0.67058 0.62335
 H2216 H 0.23691 0.68501 0.60736
 C2217 C 0.20829 0.20898 1.13511
 C2218 C 0.21575 0.21615 1.15270
 C2219 C 0.20937 0.20836 1.17031
 C2220 C 0.19529 0.19389 1.17026
 C2221 C 0.18782 0.18746 1.15244
 N2222 N 0.19465 0.19484 1.13547
 C2223 C 0.21537 0.21597 1.11620
 N2224 N 0.21990 0.20319 1.10201
 C2225 C 0.22625 0.20872 1.08412
 C2226 C 0.22774 0.22812 1.07957
 C2227 C 0.22291 0.24154 1.09389
 C2228 C 0.21699 0.23551 1.11236
 H2229 H 0.21539 0.21347 1.18393
 H2230 H 0.17700 0.17621 1.15209
 H2231 H 0.22963 0.19799 1.07331
 H2232 H 0.22384 0.25663 1.09082
 H2233 H 0.22676 0.22725 1.15276
 H2234 H 0.21324 0.24594 1.12335
 C2235 C 0.70859 0.54153 0.11239
 C2236 C 0.71626 0.53559 0.09443
 C2237 C 0.70924 0.54381 0.07726
 C2238 C 0.69433 0.55742 0.07809
 C2239 C 0.68674 0.56262 0.09626
 N2240 N 0.69419 0.55489 0.11281
 C2241 C 0.71626 0.53415 0.13090
 N2242 N 0.72090 0.54667 0.14531
 C2243 C 0.72750 0.54082 0.16298
 C2244 C 0.72911 0.52135 0.16713
 C2245 C 0.72424 0.50817 0.15257
 C2246 C 0.71810 0.51455 0.13427
 H2247 H 0.71534 0.53961 0.06336
 H2248 H 0.67523 0.57315 0.09723
 H2249 H 0.73088 0.55138 0.17398
 H2250 H 0.72522 0.49303 0.15536
 H2251 H 0.72786 0.52512 0.09378
 H2252 H 0.71426 0.50433 0.12309
 C2253 C 0.70947 1.04127 0.61465
 C2254 C 0.71655 1.03468 0.59669
 C2255 C 0.70985 1.04310 0.57948
 C2256 C 0.69583 1.05757 0.58031
 C2257 C 0.68873 1.06337 0.59849
 N2258 N 0.69589 1.05542 0.61505
 C2259 C 0.71707 1.03387 0.63318
 N2260 N 0.72238 1.04642 0.64730
 C2261 C 0.72912 1.04062 0.66494
 C2262 C 0.73019 1.02117 0.66934
 C2263 C 0.72456 1.00795 0.65509
 C2264 C 0.71828 1.01426 0.63682
 H2265 H 0.71553 1.03841 0.56557
 H2266 H 0.67790 1.07455 0.59945
 H2267 H 0.73309 1.05121 0.67570
 H2268 H 0.72514 0.99282 0.65808
 H2269 H 0.72751 1.02359 0.59604
 H2270 H 0.71390 1.00402 0.62585
 C2271 C 0.53974 0.20741 0.61522
 C2272 C 0.54583 0.21943 0.60002
 C2273 C 0.55268 0.21152 0.58267
 C2274 C 0.55346 0.19170 0.58037
 C2275 C 0.54672 0.18020 0.59569
 N2276 N 0.54015 0.18822 0.61247
 C2277 C 0.53317 0.21490 0.63428
 N2278 N 0.52101 0.20408 0.64544
 C2279 C 0.51512 0.20956 0.66350
 C2280 C 0.52186 0.22674 0.67156
 C2281 C 0.53439 0.23813 0.66029
 C2282 C 0.54004 0.23231 0.64169
 H2283 H 0.55749 0.22083 0.57104
 H2284 H 0.54713 0.16486 0.59449
 H2285 H 0.50556 0.20024 0.67171
 H2286 H 0.54004 0.25144 0.66593
 H2287 H 0.54523 0.23475 0.60139
 H2288 H 0.55017 0.24108 0.63357
 C2289 C 1.03957 0.20661 0.11745
 C2290 C 1.04474 0.21856 0.10186
 C2291 C 1.05224 0.21064 0.08479
 C2292 C 1.05455 0.19088 0.08315
 C2293 C 1.04869 0.17940 0.09884
 N2294 N 1.04148 0.18744 0.11536
 C2295 C 1.03251 0.21422 0.13629
 N2296 N 1.02120 0.20297 0.14788
 C2297 C 1.01505 0.20859 0.16582
 C2298 C 1.02068 0.22639 0.17328
 C2299 C 1.03228 0.23824 0.16153
 C2300 C 1.03819 0.23225 0.14308
 H2301 H 1.05634 0.21991 0.07286
 H2302 H 1.05030 0.16410 0.09816
 H2303 H 1.00624 0.19892 0.17442
 H2304 H 1.03706 0.25205 0.16670
 H2305 H 1.04295 0.23383 0.10272
 H2306 H 1.04765 0.24142 0.13462
 C2307 C 0.63577 0.20319 0.70968
 C2308 C 0.63601 0.18934 0.69497
 C2309 C 0.65387 0.18331 0.68738
 C2310 C 0.67138 0.19067 0.69484
 C2311 C 0.67058 0.20448 0.70952
 N2312 N 0.65296 0.21051 0.71640
 C2313 C 0.61710 0.20988 0.71783
 N2314 N 0.61329 0.22888 0.71868
 C2315 C 0.59585 0.23571 0.72522
 C2316 C 0.58127 0.22312 0.73169
 C2317 C 0.58517 0.20353 0.73143
 C2318 C 0.60298 0.19686 0.72429
 H2319 H 0.65417 0.17270 0.67594
 H2320 H 0.68393 0.21047 0.71540
 H2321 H 0.59334 0.25092 0.72530
 H2322 H 0.57421 0.19338 0.73613
 H2323 H 0.62251 0.18346 0.68927
 H2324 H 0.60574 0.18169 0.72381
 C2325 C 1.13544 0.20428 0.21230
 C2326 C 1.13899 0.18467 0.21060
 C2327 C 1.15661 0.17838 0.20266
 C2328 C 1.17083 0.19154 0.19661
 C2329 C 1.16656 0.21101 0.19825
 N2330 N 1.14921 0.21682 0.20588
 C2331 C 1.11680 0.21162 0.22020
 N2332 N 1.10966 0.22848 0.21348
 C2333 C 1.09225 0.23570 0.21958
 C2334 C 1.08092 0.22579 0.23333
 C2335 C 1.08834 0.20868 0.24088
 C2336 C 1.10621 0.20157 0.23437
 H2337 H 1.15906 0.16325 0.20101
 H2338 H 1.17705 0.22160 0.19354
 H2339 H 1.08717 0.24900 0.21348
 H2340 H 1.08016 0.20053 0.25152
 H2341 H 1.12812 0.17427 0.21487
 H2342 H 1.11164 0.18838 0.24044
 C2343 C 0.11573 0.70771 0.54071
 C2344 C 0.10025 0.70315 0.52806
 C2345 C 0.08270 0.69628 0.53572
 C2346 C 0.08050 0.69389 0.55589
 C2347 C 0.09608 0.69923 0.56807
 N2348 N 0.11305 0.70589 0.56029
 C2349 C 0.13498 0.71421 0.53344
 N2350 N 0.14630 0.72531 0.54515
 C2351 C 0.16443 0.73131 0.53980
 C2352 C 0.17237 0.72584 0.52177
 C2353 C 0.16103 0.71424 0.50952
 C2354 C 0.14234 0.70845 0.51525
 H2355 H 0.07090 0.69250 0.52590
 H2356 H 0.09499 0.69752 0.58370
 H2357 H 0.17272 0.74008 0.54981
 H2358 H 0.16661 0.70960 0.49554
 H2359 H 0.10161 0.70490 0.51246
 H2360 H 0.13405 0.69916 0.50576
 C2361 C 0.11483 0.20634 1.04130
 C2362 C 0.09988 0.19965 1.02900
 C2363 C 0.08277 0.19223 1.03711
 C2364 C 0.08047 0.19145 1.05741
 C2365 C 0.09552 0.19876 1.06917
 N2366 N 0.11206 0.20590 1.06094
 C2367 C 0.13364 0.21370 1.03365
 N2368 N 0.14422 0.22601 1.04479
 C2369 C 0.16199 0.23277 1.03919
 C2370 C 0.17036 0.22689 1.02149
 C2371 C 0.15972 0.21416 1.00978
 C2372 C 0.14139 0.20758 1.01576
 H2373 H 0.07134 0.18696 1.02759
 H2374 H 0.09431 0.19837 1.08488
 H2375 H 0.16971 0.24244 1.04878
 H2376 H 0.16563 0.20912 0.99608
 H2377 H 0.10125 0.20024 1.01331
 H2378 H 0.13376 0.19738 1.00672
 C2379 C 0.61280 0.54209 0.20914
 C2380 C 0.59770 0.54716 0.22201
 C2381 C 0.58020 0.55441 0.21461
 C2382 C 0.57767 0.55665 0.19445
 C2383 C 0.59295 0.55101 0.18207
 N2384 N 0.60986 0.54397 0.18961
 C2385 C 0.63194 0.53497 0.21612
 N2386 N 0.64271 0.52355 0.20423
 C2387 C 0.66078 0.51711 0.20927
 C2388 C 0.66925 0.52247 0.22711
 C2389 C 0.65840 0.53426 0.23958
 C2390 C 0.63977 0.54048 0.23419
 H2391 H 0.56863 0.55836 0.22460
 H2392 H 0.59163 0.55260 0.16645
 H2393 H 0.66866 0.50817 0.19911
 H2394 H 0.66437 0.53884 0.25343
 H2395 H 0.59926 0.54541 0.23760
 H2396 H 0.63193 0.54998 0.24383
 C2397 C 0.61621 1.04176 0.71235
 C2398 C 0.60113 1.04712 0.72512
 C2399 C 0.58357 1.05410 0.71755
 C2400 C 0.58099 1.05581 0.69734
 C2401 C 0.59628 1.04991 0.68509
 N2402 N 0.61321 1.04312 0.69279
 C2403 C 0.63535 1.03475 0.71943
 N2404 N 0.64598 1.02303 0.70773
 C2405 C 0.66406 1.01668 0.71275
 C2406 C 0.67274 1.02245 0.73035
 C2407 C 0.66206 1.03456 0.74265
 C2408 C 0.64336 1.04068 0.73729
 H2409 H 0.57202 1.05827 0.72746
 H2410 H 0.59495 1.05111 0.66943
 H2411 H 0.67180 1.00749 0.70272
 H2412 H 0.66821 1.03946 0.75630
 H2413 H 0.60275 1.04580 0.74074
 H2414 H 0.63562 1.05040 0.74675
 C2415 C 0.88001 0.45073 0.29264
 C2416 C 0.88390 0.43112 0.29329
 C2417 C 0.90170 0.42474 0.30071
 C2418 C 0.91573 0.43778 0.30743
 C2419 C 0.91102 0.45722 0.30713
 N2420 N 0.89355 0.46313 0.29982
 C2421 C 0.86148 0.45823 0.28460
 N2422 N 0.85440 0.47509 0.29134
 C2423 C 0.83735 0.48271 0.28472
 C2424 C 0.82639 0.47326 0.27033
 C2425 C 0.83369 0.45607 0.26289
 C2426 C 0.85117 0.44854 0.26994
 H2427 H 0.90452 0.40959 0.30127
 H2428 H 0.92135 0.46773 0.31234
 H2429 H 0.83234 0.49604 0.29081
 H2430 H 0.82582 0.44829 0.25174
 H2431 H 0.87324 0.42076 0.28842
 H2432 H 0.85659 0.43540 0.26377
 C2433 C 0.88493 0.95180 0.79170
 C2434 C 0.88801 0.93209 0.79317
 C2435 C 0.90532 0.92530 0.80137
 C2436 C 0.91969 0.93805 0.80795
 C2437 C 0.91588 0.95763 0.80660
 N2438 N 0.89883 0.96393 0.79866
 C2439 C 0.86667 0.95967 0.78341
 N2440 N 0.85995 0.97674 0.78997
 C2441 C 0.84295 0.98453 0.78343
 C2442 C 0.83162 0.97502 0.76937
 C2443 C 0.83862 0.95766 0.76202
 C2444 C 0.85607 0.94997 0.76897
 H2445 H 0.90741 0.91010 0.80279
 H2446 H 0.92650 0.96790 0.81172
 H2447 H 0.83820 0.99799 0.78944
 H2448 H 0.83044 0.94981 0.75114
 H2449 H 0.87701 0.92198 0.78849
 H2450 H 0.86120 0.93663 0.76300
 C2451 C 0.36724 0.29171 0.79111
 C2452 C 0.35201 0.29624 0.77815
 C2453 C 0.33432 0.30310 0.78544
 C2454 C 0.33170 0.30549 0.80557
 C2455 C 0.34712 0.30037 0.81804
 N2456 N 0.36422 0.29369 0.81061
 C2457 C 0.38651 0.28492 0.78419
 N2458 N 0.39745 0.27364 0.79606
 C2459 C 0.41551 0.26726 0.79091
 C2460 C 0.42373 0.27250 0.77293
 C2461 C 0.41277 0.28429 0.76055
 C2462 C 0.39418 0.29048 0.76608
 H2463 H 0.32266 0.30664 0.77538
 H2464 H 0.34573 0.30208 0.83365
 H2465 H 0.42351 0.25836 0.80101
 H2466 H 0.41856 0.28879 0.74660
 H2467 H 0.35363 0.29437 0.76259
 H2468 H 0.38620 0.29989 0.75647
 C2469 C 0.86831 0.29520 0.29608
 C2470 C 0.86447 0.29783 0.31599
 C2471 C 0.84658 0.30544 0.32181
 C2472 C 0.83243 0.31040 0.30791
 C2473 C 0.83696 0.30788 0.28812
 N2474 N 0.85456 0.30049 0.28276
 C2475 C 0.88710 0.28714 0.28927
 N2476 N 0.89444 0.29258 0.27169
 C2477 C 0.91186 0.28601 0.26482
 C2478 C 0.92294 0.27306 0.27584
 C2479 C 0.91537 0.26695 0.29381
 C2480 C 0.89753 0.27392 0.30054
 H2481 H 0.84384 0.30760 0.33719
 H2482 H 0.82644 0.31162 0.27698
 H2483 H 0.91706 0.29102 0.25084
 H2484 H 0.92333 0.25696 0.30283
 H2485 H 0.87526 0.29441 0.32698
 H2486 H 0.89194 0.26884 0.31434
 C2487 C 0.38469 0.79603 0.45814
 C2488 C 0.38855 0.81566 0.45831
 C2489 C 0.40621 0.82244 0.45093
 C2490 C 0.42017 0.80975 0.44348
 C2491 C 0.41552 0.79028 0.44302
 N2492 N 0.39814 0.78399 0.45026
 C2493 C 0.36617 0.78824 0.46597
 N2494 N 0.35847 0.77210 0.45808
 C2495 C 0.34114 0.76462 0.46421
 C2496 C 0.33051 0.77350 0.47919
 C2497 C 0.33857 0.78981 0.48791
 C2498 C 0.35632 0.79717 0.48138
 H2499 H 0.40897 0.83761 0.45093
 H2500 H 0.42580 0.78007 0.43719
 H2501 H 0.33557 0.75195 0.45715
 H2502 H 0.33102 0.79712 0.49958
 H2503 H 0.37793 0.82575 0.46375
 H2504 H 0.36226 0.80969 0.48843
 C2505 C 0.38217 0.29566 0.95699
 C2506 C 0.38172 0.30943 0.94221
 C2507 C 0.39926 0.31647 0.93476
 C2508 C 0.41709 0.31019 0.94243
 C2509 C 0.41697 0.29633 0.95709
 N2510 N 0.39968 0.28934 0.96388
 C2511 C 0.36384 0.28842 0.96540
 N2512 N 0.35999 0.26941 0.96533
 C2513 C 0.34278 0.26223 0.97216
 C2514 C 0.32854 0.27446 0.97990
 C2515 C 0.33252 0.29404 0.98053
 C2516 C 0.35005 0.30108 0.97309
 H2517 H 0.39903 0.32711 0.92335
 H2518 H 0.43061 0.29115 0.96309
 H2519 H 0.34020 0.24704 0.97147
 H2520 H 0.32180 0.30395 0.98618
 H2521 H 0.36793 0.31459 0.93649
 H2522 H 0.35285 0.31626 0.97330
 C2523 C 0.78732 0.45757 0.38212
 C2524 C 0.79356 0.46970 0.39718
 C2525 C 0.80102 0.46192 0.41434
 C2526 C 0.80218 0.44213 0.41661
 C2527 C 0.79512 0.43050 0.40154
 N2528 N 0.78802 0.43839 0.38489
 C2529 C 0.78053 0.46500 0.36310
 N2530 N 0.76838 0.45412 0.35196
 C2531 C 0.76234 0.45963 0.33393
 C2532 C 0.76891 0.47690 0.32593
 C2533 C 0.78146 0.48830 0.33718
 C2534 C 0.78727 0.48244 0.35570
 H2535 H 0.80611 0.47130 0.42579
 H2536 H 0.79581 0.41516 0.40278
 H2537 H 0.75279 0.45030 0.32572
 H2538 H 0.78699 0.50168 0.33160
 H2539 H 0.79272 0.48501 0.39582
 H2540 H 0.79743 0.49125 0.36377
 C2541 C 0.79686 0.95506 0.88100
 C2542 C 0.81677 0.95260 0.88547
 C2543 C 0.82212 0.94551 0.90368
 C2544 C 0.80775 0.94098 0.91752
 C2545 C 0.78802 0.94318 0.91231
 N2546 N 0.78313 0.95006 0.89444
 C2547 C 0.79041 0.96258 0.86191
 N2548 N 0.77261 0.95733 0.85477
 C2549 C 0.76581 0.96360 0.83728
 C2550 C 0.77711 0.97610 0.82592
 C2551 C 0.79536 0.98194 0.83321
 C2552 C 0.80204 0.97525 0.85113
 H2553 H 0.83747 0.94339 0.90692
 H2554 H 0.77651 0.93963 0.92251
 H2555 H 0.75161 0.95879 0.83229
 H2556 H 0.80460 0.99158 0.82500
 H2557 H 0.82810 0.95573 0.87495
 H2558 H 0.81603 0.98019 0.85653
 C2559 C 0.28917 0.79400 0.36581
 C2560 C 0.27690 0.80029 0.35071
 C2561 C 0.28517 0.80797 0.33385
 C2562 C 0.30558 0.80943 0.33201
 C2563 C 0.31730 0.80265 0.34730
 N2564 N 0.30892 0.79520 0.36354
 C2565 C 0.28141 0.78621 0.38425
 N2566 N 0.29280 0.77403 0.39466
 C2567 C 0.28730 0.76709 0.41229
 C2568 C 0.26951 0.77275 0.42073
 C2569 C 0.25745 0.78524 0.41021
 C2570 C 0.26331 0.79195 0.39196
 H2571 H 0.27567 0.81282 0.32225
 H2572 H 0.33308 0.80364 0.34653
 H2573 H 0.29716 0.75761 0.41991
 H2574 H 0.24367 0.79008 0.41621
 H2575 H 0.26115 0.79915 0.35176
 H2576 H 0.25407 0.80202 0.38439
 C2577 C 0.29011 0.29474 0.86684
 C2578 C 0.29072 0.31430 0.86269
 C2579 C 0.29861 0.32051 0.84509
 C2580 C 0.30586 0.30736 0.83153
 C2581 C 0.30518 0.28794 0.83630
 N2582 N 0.29752 0.28220 0.85364
 C2583 C 0.28230 0.28756 0.88555
 N2584 N 0.28979 0.27127 0.89326
 C2585 C 0.28387 0.26434 0.91081
 C2586 C 0.26957 0.27397 0.92172
 C2587 C 0.26122 0.29045 0.91369
 C2588 C 0.26750 0.29726 0.89567
 H2589 H 0.29926 0.33564 0.84213
 H2590 H 0.31064 0.27737 0.82621
 H2591 H 0.29060 0.25148 0.91633
 H2592 H 0.25008 0.29833 0.92148
 H2593 H 0.28562 0.32476 0.87306
 H2594 H 0.26079 0.30995 0.88977
 C2595 C 0.45902 0.29705 0.88262
 C2596 C 0.45889 0.31673 0.88618
 C2597 C 0.45095 0.32363 0.90349
 C2598 C 0.44322 0.31104 0.91737
 C2599 C 0.44319 0.29151 0.91304
 N2600 N 0.45096 0.28510 0.89602
 C2601 C 0.46719 0.28906 0.86441
 N2602 N 0.45979 0.27246 0.85728
 C2603 C 0.46623 0.26462 0.84033
 C2604 C 0.48106 0.27358 0.82949
 C2605 C 0.48924 0.29044 0.83690
 C2606 C 0.48239 0.29818 0.85429
 H2607 H 0.45068 0.33885 0.90596
 H2608 H 0.43721 0.28134 0.92326
 H2609 H 0.45956 0.25156 0.83525
 H2610 H 0.50072 0.29786 0.82911
 H2611 H 0.46446 0.32677 0.87559
 H2612 H 0.48905 0.31110 0.85975
 C2613 C 0.95861 0.29906 0.38391
 C2614 C 0.95867 0.31867 0.38788
 C2615 C 0.95096 0.32528 0.40542
 C2616 C 0.94326 0.31247 0.41911
 C2617 C 0.94307 0.29302 0.41438
 N2618 N 0.95062 0.28690 0.39716
 C2619 C 0.96648 0.29131 0.36546
 N2620 N 0.95919 0.27462 0.35845
 C2621 C 0.96543 0.26685 0.34140
 C2622 C 0.97994 0.27598 0.33030
 C2623 C 0.98799 0.29298 0.33753
 C2624 C 0.98135 0.30064 0.35505
 H2625 H 0.95083 0.34044 0.40821
 H2626 H 0.93714 0.28267 0.42443
 H2627 H 0.95886 0.25369 0.33646
 H2628 H 0.99926 0.30052 0.32955
 H2629 H 0.96418 0.32889 0.37745
 H2630 H 0.98796 0.31363 0.36039
 C2631 C 0.46102 0.37940 0.79376
 C2632 C 0.45983 0.38312 0.81383
 C2633 C 0.45155 0.40009 0.82027
 C2634 C 0.44448 0.41345 0.80683
 C2635 C 0.44585 0.40918 0.78689
 N2636 N 0.45385 0.39244 0.78093
 C2637 C 0.46913 0.36130 0.78634
 N2638 N 0.46202 0.35384 0.76944
 C2639 C 0.46819 0.33680 0.76232
 C2640 C 0.48237 0.32619 0.77240
 C2641 C 0.49033 0.33396 0.78952
 C2642 C 0.48379 0.35144 0.79650
 H2643 H 0.45037 0.40267 0.83578
 H2644 H 0.44053 0.41914 0.77610
 H2645 H 0.46175 0.33144 0.74899
 H2646 H 0.50134 0.32637 0.79779
 H2647 H 0.46474 0.37284 0.82451
 H2648 H 0.49019 0.35713 0.80969
 C2649 C 0.96014 0.38245 0.28881
 C2650 C 0.95130 0.39620 0.27686
 C2651 C 0.94343 0.41257 0.28527
 C2652 C 0.94426 0.41530 0.30552
 C2653 C 0.95416 0.40168 0.31679
 N2654 N 0.96160 0.38580 0.30829
 C2655 C 0.96744 0.36412 0.28111
 N2656 N 0.98101 0.35437 0.29164
 C2657 C 0.98747 0.33685 0.28634
 C2658 C 0.97987 0.32787 0.26969
 C2659 C 0.96596 0.33770 0.25851
 C2660 C 0.95973 0.35580 0.26414
 H2661 H 0.93641 0.42301 0.27601
 H2662 H 0.95542 0.40323 0.33240
 H2663 H 0.99813 0.32979 0.29549
 H2664 H 0.95959 0.33130 0.24563
 H2665 H 0.95041 0.39443 0.26123
 H2666 H 0.94847 0.36275 0.25566
 C2667 C 0.28972 0.88287 0.46177
 C2668 C 0.29535 0.89786 0.47409
 C2669 C 0.30298 0.91451 0.46606
 C2670 C 0.30492 0.91639 0.44579
 C2671 C 0.29875 0.90123 0.43396
 N2672 N 0.29138 0.88511 0.44213
 C2673 C 0.28240 0.86455 0.46951
 N2674 N 0.27029 0.85377 0.45825
 C2675 C 0.26384 0.83633 0.46393
 C2676 C 0.26998 0.82851 0.48176
 C2677 C 0.28240 0.83942 0.49365
 C2678 C 0.28858 0.85742 0.48763
 H2679 H 0.30743 0.92593 0.47567
 H2680 H 0.30024 0.90202 0.41829
 H2681 H 0.25443 0.82836 0.45420
 H2682 H 0.28763 0.83392 0.50744
 H2683 H 0.29382 0.89683 0.48975
 H2684 H 0.29865 0.86528 0.49676
 C2685 C 0.29128 0.38294 0.96152
 C2686 C 0.31143 0.38627 0.95936
 C2687 C 0.31784 0.40306 0.95067
 C2688 C 0.30429 0.41667 0.94423
 C2689 C 0.28426 0.41276 0.94657
 N2690 N 0.27833 0.39617 0.95491
 C2691 C 0.28389 0.36497 0.96993
 N2692 N 0.26675 0.35752 0.96323
 C2693 C 0.25977 0.34045 0.96949
 C2694 C 0.27029 0.32977 0.98328
 C2695 C 0.28758 0.33760 0.99092
 C2696 C 0.29441 0.35513 0.98431
 H2697 H 0.33340 0.40529 0.94871
 H2698 H 0.27337 0.42289 0.94176
 H2699 H 0.24628 0.33505 0.96332
 H2700 H 0.29617 0.32998 1.00164
 H2701 H 0.32215 0.37581 0.96381
 H2702 H 0.30783 0.36084 0.99034
 C2703 C 0.78912 0.36700 0.28742
 C2704 C 0.77684 0.35192 0.29302
 C2705 C 0.78499 0.33555 0.30115
 C2706 C 0.80531 0.33413 0.30375
 C2707 C 0.81712 0.34923 0.29731
 N2708 N 0.80885 0.36506 0.28946
 C2709 C 0.78129 0.38516 0.27981
 N2710 N 0.79278 0.39596 0.26797
 C2711 C 0.78708 0.41330 0.26129
 C2712 C 0.76895 0.42098 0.26690
 C2713 C 0.75685 0.41007 0.27909
 C2714 C 0.76291 0.39217 0.28550
 H2715 H 0.77545 0.32406 0.30569
 H2716 H 0.83285 0.34871 0.29910
 H2717 H 0.79698 0.42127 0.25207
 H2718 H 0.74282 0.41547 0.28389
 H2719 H 0.76113 0.35270 0.29116
 H2720 H 0.75358 0.38429 0.29536
   
