data_POSCAR
  _audit_creation_date              2014-09-24
  _audit_creation_method            'ToBaCCo'
  _symmetry_space_group_name_H-M    'P1'
  _symmetry_Int_Tables_number       1
  _symmetry_cell_setting            triclinic
  loop_
  _symmetry_equiv_pos_as_xyz
 x,y,z
_cell_length_a 36.4203
_cell_length_b 36.4083
_cell_length_c 36.4022
_cell_angle_alpha 89.964100
_cell_angle_beta 90.186500
_cell_angle_gamma 89.899300
loop_
  _atom_site_label
  _atom_site_type_symbol
  _atom_site_fract_x
  _atom_site_fract_y
  _atom_site_fract_z
C1 C 0.25384 0.91586 -0.03374
 C2 C 0.25160 0.89863 0.00083
 C3 C 0.24726 0.91893 0.03320
 C4 C 0.24300 0.95738 0.03135
 C5 C 0.24667 0.97551 -0.00281
 C6 C 0.25245 0.95489 -0.03540
 C7 C 0.25937 0.97400 -0.06828
 C8 C 0.25791 1.01211 -0.06964
 C9 C 0.24940 1.03288 -0.03822
 C10 C 0.24577 1.01449 -0.00414
 C11 C 0.23569 0.97815 0.06305
 C12 C 0.23529 1.01623 0.06179
 C13 C 0.24235 1.03497 0.02882
 C14 C 0.24564 1.07372 0.02790
 C15 C 0.24544 1.09138 -0.00636
 C16 C 0.24623 1.07172 -0.03960
 H17 H 0.26681 0.95977 -0.09324
 H18 H 0.26397 1.02520 -0.09561
 H19 H 0.23079 0.96516 0.08933
 H20 H 0.22989 1.03095 0.08705
 H21 H 0.25311 0.86893 0.00266
 H22 H 0.24544 1.12117 -0.00718
 C23 C 0.74746 0.41836 0.45861
 C24 C 0.74941 0.39751 0.49095
 C25 C 0.75553 0.41422 0.52507
 C26 C 0.76049 0.45263 0.52685
 C27 C 0.75699 0.47416 0.49452
 C28 C 0.75044 0.45701 0.46026
 C29 C 0.74696 0.47894 0.42857
 C30 C 0.74891 0.51709 0.43071
 C31 C 0.75507 0.53470 0.46450
 C32 C 0.75965 0.51296 0.49658
 C33 C 0.76932 0.47001 0.56015
 C34 C 0.77235 0.50794 0.56209
 C35 C 0.76579 0.52995 0.53101
 C36 C 0.76413 0.56855 0.53379
 C37 C 0.76015 0.58977 0.50194
 C38 C 0.75588 0.57347 0.46735
 H39 H 0.74208 0.46681 0.40186
 H40 H 0.74513 0.53265 0.40563
 H41 H 0.77384 0.45449 0.58513
 H42 H 0.77903 0.51993 0.58846
 H43 H 0.74643 0.36791 0.48951
 H44 H 0.75912 0.61947 0.50422
 C45 C 0.75329 1.02694 0.91795
 C46 C 0.75426 0.99294 0.89999
 C47 C 0.75490 0.95987 0.91983
 C48 C 0.75497 0.96071 0.95874
 C49 C 0.75414 0.99496 0.97715
 C50 C 0.75392 1.02812 0.95670
 C51 C 0.75398 1.06182 0.97546
 C52 C 0.75252 1.06299 1.01347
 C53 C 0.75101 1.03049 1.03422
 C54 C 0.75263 0.99612 1.01610
 C55 C 0.75530 0.92822 0.97968
 C56 C 0.75322 0.92933 1.01789
 C57 C 0.75167 0.96303 1.03677
 C58 C 0.74731 0.96475 1.07553
 C59 C 0.74524 0.99913 1.09278
 C60 C 0.74744 1.03167 1.07268
 H61 H 0.75480 1.08775 0.96094
 H62 H 0.75208 1.08975 1.02639
 H63 H 0.75648 0.90152 0.96667
 H64 H 0.75225 0.90342 1.03241
 H65 H 0.75352 0.99218 0.87021
 H66 H 0.74209 1.00062 1.12238
 C67 C 0.24492 0.53513 0.42221
 C68 C 0.24801 0.50276 0.40146
 C69 C 0.24477 0.46786 0.41773
 C70 C 0.23742 0.46553 0.45599
 C71 C 0.23599 0.49806 0.47745
 C72 C 0.23883 0.53289 0.46042
 C73 C 0.23544 0.56473 0.48206
 C74 C 0.23243 0.56251 0.51993
 C75 C 0.23065 0.52832 0.53760
 C76 C 0.23166 0.49582 0.51613
 C77 C 0.23128 0.43160 0.47346
 C78 C 0.22780 0.42934 0.51147
 C79 C 0.22901 0.46108 0.53336
 C80 C 0.22721 0.45908 0.57205
 C81 C 0.22682 0.49131 0.59291
 C82 C 0.22801 0.52581 0.57623
 H83 H 0.23572 0.59192 0.47012
 H84 H 0.23155 0.58800 0.53514
 H85 H 0.22960 0.40631 0.45800
 H86 H 0.22410 0.40243 0.52357
 H87 H 0.25318 0.50481 0.37221
 H88 H 0.22576 0.48949 0.62264
 C89 C 1.07370 0.25564 0.02754
 C90 C 1.09171 0.25651 -0.00643
 C91 C 1.07239 0.25861 -0.03964
 C92 C 1.03367 0.26144 -0.03913
 C93 C 1.01474 0.26000 -0.00513
 C94 C 1.03472 0.25751 0.02837
 C95 C 1.01523 0.25821 0.06169
 C96 C 0.97705 0.25856 0.06212
 C97 C 0.95673 0.25961 0.02927
 C98 C 0.97567 0.26080 -0.00467
 C99 C 1.01332 0.26479 -0.07178
 C100 C 0.97536 0.26678 -0.07119
 C101 C 0.95571 0.26313 -0.03816
 C102 C 0.91669 0.26347 -0.03765
 C103 C 0.89853 0.26161 -0.00368
 C104 C 0.91791 0.25993 0.02955
 H105 H 1.02930 0.25829 0.08790
 H106 H 0.96361 0.25819 0.08859
 H107 H 1.02645 0.26624 -0.09833
 H108 H 0.96175 0.27136 -0.09721
 H109 H 1.12144 0.25417 -0.00716
 H110 H 0.86875 0.26113 -0.00303
 C111 C 0.57161 0.75342 0.53951
 C112 C 0.58891 0.75846 0.50559
 C113 C 0.56869 0.76405 0.47337
 C114 C 0.53015 0.76725 0.47536
 C115 C 0.51207 0.76032 0.50910
 C116 C 0.53281 0.75327 0.54135
 C117 C 0.51424 0.74517 0.57416
 C118 C 0.47599 0.74384 0.57518
 C119 C 0.45486 0.75087 0.54351
 C120 C 0.47315 0.75926 0.51020
 C121 C 0.50926 0.77627 0.44418
 C122 C 0.47124 0.77532 0.44525
 C123 C 0.45271 0.76558 0.47764
 C124 C 0.41420 0.76194 0.47809
 C125 C 0.39626 0.75421 0.51115
 C126 C 0.41599 0.74882 0.54392
 H127 H 0.52913 0.73900 0.59919
 H128 H 0.46321 0.73665 0.60098
 H129 H 0.52220 0.78346 0.41844
 H130 H 0.45654 0.78197 0.42023
 H131 H 0.61862 0.75686 0.50412
 H132 H 0.36658 0.75186 0.51127
 C133 C 0.02957 0.74981 0.08777
 C134 C -0.00358 0.74968 0.10712
 C135 C -0.03774 0.74865 0.08879
 C136 C -0.03793 0.74404 0.04992
 C137 C -0.00459 0.74649 0.03008
 C138 C 0.02913 0.75011 0.04908
 C139 C 0.06177 0.75390 0.02901
 C140 C 0.06145 0.75269 -0.00903
 C141 C 0.02859 0.74686 -0.02853
 C142 C -0.00490 0.74506 -0.00891
 C143 C -0.07030 0.73562 0.03044
 C144 C -0.07069 0.73460 -0.00776
 C145 C -0.03866 0.74164 -0.02807
 C146 C -0.03914 0.74386 -0.06705
 C147 C -0.00543 0.74408 -0.08587
 C148 C 0.02836 0.74371 -0.06728
 H149 H 0.08797 0.75798 0.04250
 H150 H 0.08736 0.75635 -0.02301
 H151 H -0.09577 0.73010 0.04461
 H152 H -0.09646 0.72849 -0.02129
 H153 H -0.00256 0.75174 0.13683
 H154 H -0.00543 0.74410 -0.11569
 C155 C 0.46448 0.25113 0.57570
 C156 C 0.49848 0.24824 0.59379
 C157 C 0.53155 0.24655 0.57407
 C158 C 0.53069 0.24779 0.53527
 C159 C 0.49666 0.25201 0.51672
 C160 C 0.46350 0.25402 0.53692
 C161 C 0.43014 0.25856 0.51782
 C162 C 0.42930 0.26034 0.47962
 C163 C 0.46178 0.25756 0.45909
 C164 C 0.49577 0.25356 0.47777
 C165 C 0.56301 0.24411 0.51452
 C166 C 0.56210 0.24551 0.47642
 C167 C 0.52883 0.25055 0.45751
 C168 C 0.52769 0.25189 0.41878
 C169 C 0.49407 0.25610 0.40072
 C170 C 0.46126 0.25866 0.42031
 H171 H 0.40431 0.26082 0.53226
 H172 H 0.40291 0.26381 0.46627
 H173 H 0.58944 0.23971 0.52744
 H174 H 0.58781 0.24235 0.46193
 H175 H 0.49918 0.24635 0.62351
 H176 H 0.49338 0.25684 0.37093
 C177 C 0.92375 -0.02503 0.25780
 C178 C 0.90463 0.00820 0.25590
 C179 C 0.92318 0.04164 0.25280
 C180 C 0.96196 0.04204 0.25103
 C181 C 0.98172 0.00863 0.25409
 C182 C 0.96251 -0.02500 0.25783
 C183 C 0.98244 -0.05789 0.26081
 C184 C 1.02044 -0.05796 0.25872
 C185 C 1.04008 -0.02504 0.25432
 C186 C 1.02068 0.00869 0.25247
 C187 C 0.98137 0.07484 0.24547
 C188 C 1.01949 0.07490 0.24334
 C189 C 1.03995 0.04225 0.24755
 C190 C 1.07889 0.04178 0.24443
 C191 C 1.09745 0.00784 0.24622
 C192 C 1.07858 -0.02529 0.25076
 H193 H 0.96882 -0.08404 0.26432
 H194 H 1.03418 -0.08428 0.26029
 H195 H 0.96718 0.10076 0.24202
 H196 H 1.03257 0.10087 0.23751
 H197 H 0.87485 0.00800 0.25634
 H198 H 1.12713 0.00711 0.24379
 C199 C 0.42456 0.46154 0.74946
 C200 C 0.40567 0.49489 0.75112
 C201 C 0.42438 0.52834 0.75086
 C202 C 0.46316 0.52866 0.74905
 C203 C 0.48256 0.49496 0.74639
 C204 C 0.46314 0.46128 0.74628
 C205 C 0.48271 0.42817 0.74300
 C206 C 0.52073 0.42809 0.74043
 C207 C 0.54064 0.46113 0.74094
 C208 C 0.52143 0.49489 0.74389
 C209 C 0.48301 0.56167 0.75007
 C210 C 0.52119 0.56157 0.74846
 C211 C 0.54096 0.52852 0.74458
 C212 C 0.57974 0.52821 0.74150
 C213 C 0.59838 0.49451 0.73892
 C214 C 0.57932 0.46111 0.73865
 H215 H 0.46879 0.40194 0.74234
 H216 H 0.53434 0.40175 0.73807
 H217 H 0.46917 0.58790 0.75244
 H218 H 0.53503 0.58778 0.75011
 H219 H 0.37596 0.49481 0.75317
 H220 H 0.62808 0.49427 0.73690
 C221 C 1.03437 0.91859 0.74303
 C222 C 1.00070 0.90037 0.73936
 C223 C 0.96748 0.91952 0.74014
 C224 C 0.96744 0.95818 0.74200
 C225 C 1.00121 0.97737 0.74374
 C226 C 1.03482 0.95757 0.74451
 C227 C 1.06793 0.97723 0.74649
 C228 C 1.06801 1.01533 0.74891
 C229 C 1.03504 1.03562 0.74794
 C230 C 1.00127 1.01636 0.74593
 C231 C 0.93438 0.97798 0.74322
 C232 C 0.93440 1.01598 0.74583
 C233 C 0.96751 1.03584 0.74697
 C234 C 0.96761 1.07449 0.75121
 C235 C 1.00122 1.09314 0.75383
 C236 C 1.03497 1.07459 0.75039
 H237 H 1.09419 0.96327 0.74654
 H238 H 1.09435 1.02869 0.75188
 H239 H 0.90805 0.96427 0.74252
 H240 H 0.90800 1.02953 0.74754
 H241 H 1.00010 0.87055 0.73900
 H242 H 1.00098 1.12284 0.75641
 C243 C 0.46708 0.58601 0.25501
 C244 C 0.50073 0.60421 0.25859
 C245 C 0.53415 0.58554 0.25444
 C246 C 0.53405 0.54760 0.24597
 C247 C 0.50017 0.52874 0.24280
 C248 C 0.46661 0.54802 0.24701
 C249 C 0.43336 0.52887 0.24297
 C250 C 0.43301 0.49130 0.23687
 C251 C 0.46587 0.47161 0.23242
 C252 C 0.49980 0.49051 0.23515
 C253 C 0.56691 0.52816 0.24008
 C254 C 0.56655 0.49065 0.23274
 C255 C 0.53333 0.47115 0.23093
 C256 C 0.53268 0.43279 0.22484
 C257 C 0.49899 0.41458 0.22232
 C258 C 0.46570 0.43340 0.22574
 H259 H 0.40708 0.54255 0.24489
 H260 H 0.40654 0.47797 0.23549
 H261 H 0.59328 0.54176 0.24116
 H262 H 0.59264 0.47709 0.22839
 H263 H 0.50092 0.63339 0.26461
 H264 H 0.49869 0.38503 0.21844
 O265 O 0.25831 0.15939 0.18553
 O266 O 0.29913 0.15095 0.23876
 O267 O 0.16109 0.20059 0.23716
 O268 O 0.14680 0.24833 0.27447
 O269 O 0.20450 0.25351 0.14100
 O270 O 0.25475 0.29483 0.13023
 O271 O 0.25280 0.30718 0.33126
 O272 O 0.21086 0.25598 0.33975
 O273 O 0.34856 0.26058 0.28823
 O274 O 0.36130 0.21610 0.23782
 O275 O 0.30420 0.35049 0.23376
 O276 O 0.25105 0.36251 0.19692
 O277 O 0.25455 0.35043 0.28635
 O278 O 0.21101 0.35924 0.23312
 O279 O 0.34850 0.30644 0.23582
 O280 O 0.36102 0.25359 0.19740
 O281 O 0.30446 0.25836 0.33230
 O282 O 0.25775 0.21780 0.34534
 O283 O 0.25627 0.20383 0.14158
 O284 O 0.29640 0.25522 0.13140
 O285 O 0.15976 0.25167 0.18450
 O286 O 0.14939 0.29438 0.23484
 O287 O 0.20691 0.15793 0.23573
 O288 O 0.25660 0.14863 0.27739
 Zr289 Zr 0.25532 0.18895 0.23557
 O290 O 0.28799 0.22163 0.27036
 Zr291 Zr 0.18893 0.25166 0.23471
 O292 O 0.21937 0.28752 0.26895
 Zr293 Zr 0.25392 0.25321 0.17081
 O294 O 0.28711 0.28829 0.20213
 Zr295 Zr 0.25513 0.25688 0.30226
 O296 O 0.22189 0.22046 0.27095
 Zr297 Zr 0.31984 0.25699 0.23816
 O298 O 0.29010 0.22149 0.20309
 Zr299 Zr 0.25434 0.32054 0.23687
 O300 O 0.22039 0.28804 0.20225
 O301 O 0.22064 0.21843 0.20111
 O302 O 0.28915 0.29166 0.27207
 C303 C 0.25782 0.17014 0.15178
 C304 C 0.17291 0.16718 0.23636
 C305 C 0.17075 0.25268 0.15097
 C306 C 0.25348 0.34079 0.32029
 C307 C 0.33798 0.26030 0.32181
 C308 C 0.33801 0.33992 0.23352
 H309 H 0.30345 0.20561 0.28596
 H310 H 0.30178 0.30339 0.18504
 H311 H 0.20547 0.20232 0.18536
 H312 H 0.20241 0.30238 0.28404
 H313 H 0.19477 0.23527 0.33253
 H314 H 0.15380 0.26447 0.29518
 H315 H 0.35462 0.27132 0.17779
 H316 H 0.31535 0.23737 0.13942
 H317 H 0.26853 0.19510 0.33514
 H318 H 0.23822 0.15614 0.29592
 H319 H 0.26205 0.35247 0.17430
 H320 H 0.23472 0.31225 0.13618
 H321 H 0.31865 0.16056 0.22258
 H322 H 0.35771 0.20003 0.25944
 H323 H 0.15735 0.31262 0.21634
 H324 H 0.19441 0.35520 0.25418
 O325 O 0.74554 0.85641 0.21070
 O326 O 0.70762 0.86875 0.26202
 O327 O 0.84284 0.81312 0.26414
 O328 O 0.85415 0.76688 0.30434
 O329 O 0.80071 0.75840 0.16880
 O330 O 0.74864 0.71990 0.15758
 O331 O 0.74405 0.71241 0.35849
 O332 O 0.78802 0.76086 0.36786
 O333 O 0.65181 0.76251 0.31189
 O334 O 0.64270 0.80458 0.25796
 O335 O 0.69549 0.66783 0.26476
 O336 O 0.74919 0.65601 0.22318
 O337 O 0.74604 0.66766 0.31496
 O338 O 0.78660 0.65497 0.26356
 O339 O 0.65219 0.71281 0.26157
 O340 O 0.64122 0.76386 0.22100
 O341 O 0.69543 0.76243 0.35672
 O342 O 0.74013 0.80273 0.36915
 O343 O 0.74948 0.81208 0.16674
 O344 O 0.70885 0.76130 0.15598
 O345 O 0.84355 0.76058 0.21428
 O346 O 0.85153 0.71965 0.26598
 O347 O 0.79834 0.85706 0.26145
 O348 O 0.74587 0.86868 0.30205
 Zr349 Zr 0.74882 0.82783 0.26079
 O350 O 0.71415 0.79701 0.29489
 Zr351 Zr 0.81320 0.76338 0.26312
 O352 O 0.78099 0.72929 0.29707
 Zr353 Zr 0.75013 0.76255 0.19693
 O354 O 0.71489 0.72904 0.22824
 Zr355 Zr 0.74527 0.76172 0.32836
 O356 O 0.78063 0.79642 0.29780
 Zr357 Zr 0.68200 0.76186 0.26252
 O358 O 0.71395 0.79562 0.22779
 Zr359 Zr 0.74594 0.69657 0.26473
 O360 O 0.78161 0.72738 0.23051
 O361 O 0.78352 0.79697 0.22765
 O362 O 0.71102 0.72727 0.29802
 C363 C 0.74643 0.84571 0.17711
 C364 C 0.83196 0.84673 0.26302
 C365 C 0.83417 0.75847 0.18030
 C366 C 0.74480 0.67858 0.34849
 C367 C 0.66194 0.76266 0.34574
 C368 C 0.66199 0.67902 0.26303
 H369 H 0.69917 0.81398 0.30988
 H370 H 0.69992 0.71388 0.21143
 H371 H 0.79930 0.81224 0.21172
 H372 H 0.79717 0.71434 0.31302
 H373 H 0.80473 0.78140 0.36180
 H374 H 0.84601 0.75169 0.32531
 H375 H 0.64858 0.74657 0.20141
 H376 H 0.68967 0.77895 0.16373
 H377 H 0.75478 0.82389 0.36074
 H378 H 0.76749 0.86553 0.31830
 H379 H 0.72845 0.65991 0.20600
 H380 H 0.76441 0.69995 0.16729
 H381 H 0.68690 0.85927 0.24720
 H382 H 0.64571 0.82100 0.27940
 H383 H 0.84373 0.70117 0.24762
 H384 H 0.80557 0.66143 0.28194
 O385 O 0.75081 0.14751 0.79506
 O386 O 0.71404 0.13420 0.74470
 O387 O 0.84637 0.19590 0.75228
 O388 O 0.85869 0.24338 0.71120
 O389 O 0.79362 0.25144 0.84171
 O390 O 0.74227 0.27831 0.85522
 O391 O 0.75262 0.28863 0.64645
 O392 O 0.78764 0.23927 0.63529
 O393 O 0.65447 0.24012 0.69270
 O394 O 0.63997 0.20604 0.74217
 O395 O 0.69949 0.33863 0.73726
 O396 O 0.74442 0.35199 0.77802
 O397 O 0.74927 0.33523 0.68791
 O398 O 0.79169 0.34684 0.74260
 O399 O 0.65491 0.29494 0.73815
 O400 O 0.64548 0.24137 0.78527
 O401 O 0.69865 0.24125 0.64870
 O402 O 0.75404 0.19494 0.64356
 O403 O 0.74623 0.19165 0.83909
 O404 O 0.69930 0.24543 0.84300
 O405 O 0.84067 0.25014 0.80075
 O406 O 0.85161 0.28846 0.74546
 O407 O 0.80437 0.14990 0.74756
 O408 O 0.75296 0.13905 0.70264
 Zr409 Zr 0.75278 0.17734 0.74634
 O410 O 0.71705 0.20730 0.71179
 Zr411 Zr 0.81468 0.24380 0.74892
 O412 O 0.78399 0.27454 0.71059
 Zr413 Zr 0.74680 0.24252 0.80980
 O414 O 0.71520 0.27759 0.77606
 Zr415 Zr 0.74913 0.24118 0.67848
 O416 O 0.78547 0.20974 0.71188
 Zr417 Zr 0.68370 0.24410 0.74165
 O418 O 0.71421 0.20861 0.77664
 Zr419 Zr 0.74802 0.30849 0.73979
 O420 O 0.77988 0.27891 0.77863
 O421 O 0.78381 0.20936 0.78209
 O422 O 0.71404 0.27704 0.70601
 C423 C 0.74795 0.15782 0.82847
 C424 C 0.83754 0.16191 0.75051
 C425 C 0.82766 0.25386 0.83342
 C426 C 0.75222 0.32275 0.65492
 C427 C 0.66489 0.23985 0.65924
 C428 C 0.66590 0.32857 0.73703
 H429 H 0.70210 0.18989 0.69729
 H430 H 0.69997 0.29383 0.79158
 H431 H 0.79939 0.19519 0.79932
 H432 H 0.80122 0.28850 0.69503
 H433 H 0.81189 0.24367 0.64672
 H434 H 0.85182 0.22598 0.69146
 H435 H 0.64444 0.26582 0.79710
 H436 H 0.68569 0.22223 0.83936
 H437 H 0.72992 0.18250 0.64254
 H438 H 0.77484 0.14438 0.68748
 H439 H 0.75619 0.34305 0.80088
 H440 H 0.73948 0.30331 0.84495
 H441 H 0.69277 0.14244 0.75942
 H442 H 0.65055 0.18205 0.73512
 H443 H 0.84433 0.30632 0.76460
 H444 H 0.80699 0.34399 0.72038
 O445 O 0.24388 0.83023 0.80932
 O446 O 0.28216 0.84032 0.75596
 O447 O 0.14567 0.78658 0.75374
 O448 O 0.13163 0.73825 0.71964
 O449 O 0.18933 0.73598 0.85250
 O450 O 0.24165 0.69218 0.86078
 O451 O 0.23639 0.68380 0.66271
 O452 O 0.19568 0.73698 0.65413
 O453 O 0.33412 0.73448 0.70421
 O454 O 0.34686 0.77560 0.75566
 O455 O 0.29099 0.64071 0.75473
 O456 O 0.24025 0.62959 0.79842
 O457 O 0.23990 0.64025 0.70745
 O458 O 0.19995 0.62941 0.76044
 O459 O 0.33531 0.68467 0.75510
 O460 O 0.34673 0.73934 0.79602
 O461 O 0.28888 0.73082 0.66117
 O462 O 0.24564 0.77260 0.64845
 O463 O 0.24638 0.78518 0.85260
 O464 O 0.27830 0.73319 0.86612
 O465 O 0.14553 0.73740 0.80783
 O466 O 0.13656 0.69345 0.75803
 O467 O 0.18930 0.83099 0.75891
 O468 O 0.23964 0.84300 0.71838
 Zr469 Zr 0.23926 0.80140 0.75897
 O470 O 0.27239 0.76968 0.72354
 Zr471 Zr 0.17484 0.73718 0.75862
 O472 O 0.20549 0.70229 0.72444
 Zr473 Zr 0.23952 0.73627 0.82303
 O474 O 0.27409 0.70258 0.79110
 Zr475 Zr 0.24022 0.73396 0.69149
 O476 O 0.20664 0.76963 0.72294
 Zr477 Zr 0.30582 0.73448 0.75488
 O478 O 0.27505 0.76858 0.79063
 Zr479 Zr 0.24126 0.67004 0.75658
 O480 O 0.20658 0.70129 0.79120
 O481 O 0.20538 0.77106 0.79320
 O482 O 0.27515 0.69961 0.72127
 C483 C 0.24774 0.81897 0.84266
 C484 C 0.15585 0.82024 0.75540
 C485 C 0.15562 0.73642 0.84155
 C486 C 0.23702 0.65026 0.67382
 C487 C 0.32274 0.73220 0.67079
 C488 C 0.32462 0.65110 0.75485
 H489 H 0.28698 0.78616 0.70769
 H490 H 0.28970 0.68762 0.80757
 H491 H 0.19041 0.78724 0.80909
 H492 H 0.18836 0.68733 0.70961
 H493 H 0.18095 0.75886 0.66086
 H494 H 0.14065 0.72599 0.69718
 H495 H 0.34469 0.71782 0.81245
 H496 H 0.30249 0.73720 0.85460
 H497 H 0.24379 0.79710 0.65987
 H498 H 0.22016 0.83682 0.70039
 H499 H 0.26144 0.63386 0.81493
 H500 H 0.22391 0.67366 0.85188
 H501 H 0.30160 0.83177 0.77303
 H502 H 0.34044 0.79410 0.73678
 H503 H 0.14390 0.67621 0.77779
 H504 H 0.18099 0.63509 0.74175
 O505 O 0.24212 0.34379 0.69937
 O506 O 0.20759 0.35614 0.75270
 O507 O 0.34218 0.30120 0.75380
 O508 O 0.35540 0.25291 0.79009
 O509 O 0.30106 0.24890 0.65574
 O510 O 0.24905 0.20906 0.64372
 O511 O 0.24616 0.19870 0.84450
 O512 O 0.28985 0.24758 0.85436
 O513 O 0.15295 0.24936 0.80081
 O514 O 0.14347 0.29174 0.74534
 O515 O 0.19626 0.15498 0.74956
 O516 O 0.24788 0.14137 0.71150
 O517 O 0.24683 0.15443 0.80056
 O518 O 0.28951 0.14482 0.74683
 O519 O 0.15262 0.19967 0.75183
 O520 O 0.14022 0.24917 0.71041
 O521 O 0.19726 0.24724 0.84497
 O522 O 0.24527 0.28863 0.85767
 O523 O 0.24681 0.30039 0.65459
 O524 O 0.20864 0.24874 0.64326
 O525 O 0.34408 0.25139 0.70117
 O526 O 0.35166 0.20716 0.75059
 O527 O 0.29752 0.34478 0.74857
 O528 O 0.24849 0.35485 0.79123
 Zr529 Zr 0.24844 0.31503 0.74895
 O530 O 0.21426 0.28378 0.78310
 Zr531 Zr 0.31347 0.25111 0.74972
 O532 O 0.28184 0.21639 0.78355
 Zr533 Zr 0.25004 0.25077 0.68404
 O534 O 0.21515 0.21675 0.71528
 Zr535 Zr 0.24645 0.24842 0.81559
 O536 O 0.28101 0.28342 0.78496
 Zr537 Zr 0.18228 0.24868 0.75068
 O538 O 0.21368 0.28286 0.71590
 Zr539 Zr 0.24669 0.18398 0.75089
 O540 O 0.28193 0.21530 0.71666
 O541 O 0.28325 0.28518 0.71498
 O542 O 0.21218 0.21398 0.78524
 C543 C 0.24208 0.33351 0.66566
 C544 C 0.33109 0.33471 0.75193
 C545 C 0.33460 0.24955 0.66732
 C546 C 0.24617 0.16501 0.83416
 C547 C 0.16368 0.24817 0.83450
 C548 C 0.16263 0.16598 0.75060
 H549 H 0.19890 0.30046 0.79799
 H550 H 0.20013 0.20157 0.69850
 H551 H 0.29848 0.30121 0.69921
 H552 H 0.29827 0.20128 0.79908
 H553 H 0.30723 0.26723 0.84722
 H554 H 0.34767 0.23720 0.81083
 H555 H 0.14756 0.23210 0.69062
 H556 H 0.18820 0.26424 0.65228
 H557 H 0.23109 0.30990 0.84847
 H558 H 0.26694 0.34681 0.80961
 H559 H 0.23534 0.15074 0.68929
 H560 H 0.26606 0.18969 0.65237
 H561 H 0.18614 0.34701 0.73876
 H562 H 0.14448 0.30673 0.76798
 H563 H 0.34446 0.18998 0.73078
 H564 H 0.30624 0.14853 0.76796
 O565 O 0.76004 0.64674 0.69828
 O566 O 0.79809 0.63782 0.75238
 O567 O 0.66128 0.69076 0.74453
 O568 O 0.64743 0.73840 0.78260
 O569 O 0.70883 0.74090 0.65037
 O570 O 0.75988 0.78220 0.64157
 O571 O 0.75346 0.79644 0.84099
 O572 O 0.70973 0.74708 0.84970
 O573 O 0.84855 0.74465 0.80214
 O574 O 0.86180 0.70156 0.75075
 O575 O 0.80732 0.83736 0.74675
 O576 O 0.75425 0.84662 0.70321
 O577 O 0.75747 0.83900 0.79538
 O578 O 0.71674 0.84990 0.74356
 O579 O 0.85089 0.79283 0.75240
 O580 O 0.86421 0.74050 0.71199
 O581 O 0.80327 0.74587 0.84491
 O582 O 0.75416 0.70651 0.85647
 O583 O 0.76135 0.69055 0.65364
 O584 O 0.80050 0.74133 0.64311
 O585 O 0.66299 0.74265 0.69276
 O586 O 0.65174 0.78446 0.74260
 O587 O 0.70617 0.64722 0.74738
 O588 O 0.75469 0.63725 0.78991
 Zr589 Zr 0.75541 0.67699 0.74753
 O590 O 0.78789 0.70923 0.78278
 Zr591 Zr 0.69046 0.74099 0.74374
 O592 O 0.72069 0.77648 0.77839
 Zr593 Zr 0.75740 0.74042 0.68186
 O594 O 0.79074 0.77507 0.71375
 Zr595 Zr 0.75481 0.74551 0.81322
 O596 O 0.72158 0.70960 0.78141
 Zr597 Zr 0.82148 0.74354 0.75118
 O598 O 0.79184 0.70843 0.71575
 Zr599 Zr 0.75725 0.80822 0.74681
 O600 O 0.72354 0.77615 0.71185
 O601 O 0.72244 0.70661 0.71145
 O602 O 0.79032 0.77904 0.78350
 C603 C 0.76189 0.65704 0.66452
 C604 C 0.67238 0.65715 0.74585
 C605 C 0.67480 0.74213 0.65953
 C606 C 0.75525 0.82973 0.82926
 C607 C 0.83721 0.74559 0.83549
 C608 C 0.84075 0.82643 0.74982
 H609 H 0.80249 0.69289 0.79887
 H610 H 0.80651 0.78973 0.69729
 H611 H 0.70760 0.69055 0.69531
 H612 H 0.70369 0.79196 0.79278
 H613 H 0.69276 0.72721 0.84217
 H614 H 0.65363 0.75540 0.80287
 H615 H 0.85971 0.75970 0.69327
 H616 H 0.82042 0.72587 0.65340
 H617 H 0.76756 0.68449 0.84799
 H618 H 0.73660 0.64587 0.80826
 H619 H 0.77557 0.84235 0.68698
 H620 H 0.74127 0.80082 0.64839
 H621 H 0.81764 0.64554 0.73521
 H622 H 0.85663 0.68468 0.77138
 H623 H 0.66128 0.80311 0.72529
 H624 H 0.69746 0.84416 0.76174
 O625 O 0.24770 0.66078 0.30707
 O626 O 0.21179 0.64762 0.25702
 O627 O 0.34451 0.70817 0.25992
 O628 O 0.35693 0.75751 0.22228
 O629 O 0.29435 0.76104 0.35407
 O630 O 0.24330 0.79329 0.36617
 O631 O 0.24611 0.80244 0.16000
 O632 O 0.28499 0.75528 0.14762
 O633 O 0.15274 0.75742 0.20682
 O634 O 0.13850 0.72032 0.25592
 O635 O 0.19933 0.85213 0.25061
 O636 O 0.24662 0.86696 0.28993
 O637 O 0.24978 0.84870 0.20176
 O638 O 0.29160 0.85908 0.25962
 O639 O 0.15423 0.80913 0.25369
 O640 O 0.14507 0.75463 0.29977
 O641 O 0.19636 0.75228 0.16252
 O642 O 0.25445 0.70987 0.15558
 O643 O 0.24636 0.70436 0.35185
 O644 O 0.20084 0.75709 0.35801
 O645 O 0.34074 0.75909 0.31233
 O646 O 0.35107 0.80065 0.25898
 O647 O 0.30193 0.66251 0.25867
 O648 O 0.24984 0.65230 0.21476
 Zr649 Zr 0.25073 0.69056 0.25848
 O650 O 0.21488 0.72108 0.22470
 Zr651 Zr 0.31357 0.75637 0.26070
 O652 O 0.28276 0.78800 0.22315
 Zr653 Zr 0.24683 0.75510 0.32270
 O654 O 0.21489 0.79077 0.28994
 Zr655 Zr 0.24713 0.75489 0.19152
 O656 O 0.28344 0.72284 0.22396
 Zr657 Zr 0.18256 0.75805 0.25558
 O658 O 0.21319 0.72203 0.28972
 Zr659 Zr 0.24764 0.82170 0.25355
 O660 O 0.27980 0.79141 0.29154
 O661 O 0.28292 0.72169 0.29389
 O662 O 0.21296 0.79087 0.21998
 C663 C 0.24629 0.67070 0.34070
 C664 C 0.33531 0.67428 0.25894
 C665 C 0.32831 0.76195 0.34532
 C666 C 0.24811 0.83638 0.16857
 C667 C 0.16272 0.75433 0.17338
 C668 C 0.16565 0.84253 0.25134
 H669 H 0.19963 0.70391 0.21019
 H670 H 0.19987 0.80676 0.30592
 H671 H 0.29860 0.70662 0.31030
 H672 H 0.29969 0.80227 0.20749
 H673 H 0.30833 0.76499 0.15753
 H674 H 0.34852 0.74303 0.20085
 H675 H 0.14484 0.77865 0.31247
 H676 H 0.18637 0.73453 0.35351
 H677 H 0.23227 0.69438 0.15724
 H678 H 0.27153 0.65741 0.19927
 H679 H 0.23366 0.85889 0.31233
 H680 H 0.25087 0.81717 0.35571
 H681 H 0.18969 0.65703 0.26970
 H682 H 0.14771 0.69730 0.24487
 H683 H 0.34502 0.81711 0.27975
 H684 H 0.30827 0.85540 0.23860
 O685 O 0.73757 0.34324 0.29353
 O686 O 0.77929 0.35437 0.24258
 O687 O 0.64430 0.29818 0.23470
 O688 O 0.63153 0.24956 0.20056
 O689 O 0.68632 0.24755 0.33518
 O690 O 0.73801 0.20581 0.34540
 O691 O 0.74226 0.19726 0.14651
 O692 O 0.69831 0.24676 0.13662
 O693 O 0.83485 0.25155 0.19106
 O694 O 0.84224 0.29291 0.24853
 O695 O 0.79174 0.15481 0.24189
 O696 O 0.73851 0.14356 0.28274
 O697 O 0.74422 0.15385 0.19150
 O698 O 0.70160 0.14144 0.24153
 O699 O 0.83543 0.19938 0.24273
 O700 O 0.84869 0.24827 0.27962
 O701 O 0.79110 0.24776 0.14648
 O702 O 0.74307 0.28735 0.13307
 O703 O 0.73751 0.29823 0.33698
 O704 O 0.77686 0.24790 0.34904
 O705 O 0.64347 0.24647 0.28947
 O706 O 0.63607 0.20479 0.23812
 O707 O 0.68734 0.34325 0.23959
 O708 O 0.73887 0.35533 0.20195
 Zr709 Zr 0.73729 0.31432 0.24307
 O710 O 0.77229 0.28348 0.20878
 Zr711 Zr 0.67382 0.24888 0.24058
 O712 O 0.70644 0.21493 0.20719
 Zr713 Zr 0.73671 0.24938 0.30694
 O714 O 0.77276 0.21648 0.27617
 Zr715 Zr 0.74163 0.24744 0.17549
 O716 O 0.70630 0.28199 0.20611
 Zr717 Zr 0.80523 0.24879 0.24109
 O718 O 0.77277 0.28237 0.27602
 Zr719 Zr 0.74176 0.18344 0.24051
 O720 O 0.70545 0.21377 0.27406
 O721 O 0.70264 0.28327 0.27587
 O722 O 0.77637 0.21364 0.20628
 C723 C 0.73818 0.33193 0.32704
 C724 C 0.65425 0.33201 0.23498
 C725 C 0.65307 0.24592 0.32342
 C726 C 0.74353 0.16382 0.15781
 C727 C 0.82450 0.25054 0.15721
 C728 C 0.82519 0.16563 0.24318
 H729 H 0.78726 0.30062 0.19407
 H730 H 0.78809 0.20189 0.29325
 H731 H 0.68621 0.29885 0.29088
 H732 H 0.69044 0.19953 0.19157
 H733 H 0.68115 0.26678 0.14337
 H734 H 0.64075 0.23639 0.17870
 H735 H 0.83762 0.24229 0.30362
 H736 H 0.79590 0.26606 0.34235
 H737 H 0.75579 0.30926 0.14276
 H738 H 0.72285 0.34668 0.18171
 H739 H 0.75839 0.14857 0.30061
 H740 H 0.71916 0.18788 0.33752
 H741 H 0.79709 0.34735 0.26197
 H742 H 0.83893 0.30989 0.22760
 H743 H 0.64530 0.18570 0.25515
 H744 H 0.68400 0.14614 0.22129
 C745 C 0.27780 0.08909 0.08691
 C746 C 0.24981 0.09548 0.05998
 C747 C 0.22656 0.12594 0.06426
 C748 C 0.22956 0.14890 0.09449
 C749 C 0.25589 0.14261 0.12192
 C750 C 0.28030 0.11243 0.11844
 C751 C 0.30508 0.06177 0.08202
 C752 C 0.33218 0.05584 0.10846
 C753 C 0.33372 0.07776 0.13965
 C754 C 0.30849 0.10614 0.14441
 H755 H 0.30630 0.04512 0.05752
 H756 H 0.35248 0.03447 0.10442
 H757 H 0.35513 0.07332 0.15987
 H758 H 0.31191 0.12340 0.16820
 H759 H 0.20513 0.13168 0.04432
 H760 H 0.21066 0.17184 0.09665
 C761 C 0.73569 0.58207 0.59624
 C762 C 0.76386 0.58763 0.56985
 C763 C 0.79177 0.61293 0.57702
 C764 C 0.79165 0.63357 0.60907
 C765 C 0.76400 0.62915 0.63533
 C766 C 0.73621 0.60247 0.62967
 C767 C 0.70597 0.55804 0.58936
 C768 C 0.67871 0.55265 0.61554
 C769 C 0.67982 0.57174 0.64854
 C770 C 0.70773 0.59698 0.65537
 H771 H 0.70312 0.54354 0.56364
 H772 H 0.65641 0.53378 0.61006
 H773 H 0.65866 0.56725 0.66875
 H774 H 0.70648 0.61201 0.68084
 H775 H 0.81335 0.61745 0.55711
 H776 H 0.81285 0.65409 0.61295
 C777 C 0.71190 0.92529 0.11796
 C778 C 0.74434 0.93321 0.09779
 C779 C 0.77554 0.91110 0.10287
 C780 C 0.77549 0.88254 0.12836
 C781 C 0.74404 0.87444 0.14869
 C782 C 0.71172 0.89544 0.14329
 C783 C 0.67919 0.94562 0.11257
 C784 C 0.64744 0.93712 0.13209
 C785 C 0.64738 0.90801 0.15687
 C786 C 0.67906 0.88716 0.16234
 H787 H 0.67769 0.96789 0.09291
 H788 H 0.62265 0.95298 0.12768
 H789 H 0.62254 0.90133 0.17168
 H790 H 0.67759 0.86425 0.18120
 H791 H 0.80075 0.91718 0.08836
 H792 H 0.80069 0.86762 0.13342
 C793 C 0.19717 0.41132 0.61238
 C794 C 0.22783 0.42379 0.59216
 C795 C 0.26099 0.40427 0.59366
 C796 C 0.26469 0.37366 0.61630
 C797 C 0.23538 0.36208 0.63808
 C798 C 0.20096 0.38010 0.63552
 C799 C 0.16286 0.42930 0.61015
 C800 C 0.13297 0.41672 0.63042
 C801 C 0.13661 0.38601 0.65296
 C802 C 0.17019 0.36769 0.65547
 H803 H 0.15879 0.45296 0.59257
 H804 H 0.10681 0.43075 0.62846
 H805 H 0.11325 0.37621 0.66842
 H806 H 0.17171 0.34354 0.67275
 H807 H 0.28458 0.41372 0.57828
 H808 H 0.29108 0.35996 0.61814
 C809 C 0.71698 0.08148 0.89331
 C810 C 0.75018 0.06111 0.89573
 C811 C 0.78168 0.07433 0.87839
 C812 C 0.78071 0.10702 0.85855
 C813 C 0.74837 0.12777 0.85570
 C814 C 0.71608 0.11508 0.87313
 C815 C 0.68445 0.06879 0.91000
 C816 C 0.65186 0.08875 0.90694
 C817 C 0.65095 0.12139 0.88700
 C818 C 0.68265 0.13443 0.87004
 H819 H 0.68385 0.04329 0.92528
 H820 H 0.62712 0.07871 0.91990
 H821 H 0.62550 0.13660 0.88451
 H822 H 0.68073 0.15964 0.85451
 H823 H 0.80722 0.05912 0.88015
 H824 H 0.80528 0.11574 0.84440
 C825 C 0.27539 0.59705 0.40945
 C826 C 0.24683 0.57122 0.40311
 C827 C 0.21783 0.58047 0.37964
 C828 C 0.21699 0.61425 0.36191
 C829 C 0.24495 0.64012 0.36720
 C830 C 0.27427 0.63196 0.39158
 C831 C 0.30539 0.58864 0.43267
 C832 C 0.33321 0.61420 0.43870
 C833 C 0.33211 0.64821 0.42126
 C834 C 0.30318 0.65703 0.39762
 H835 H 0.30773 0.56221 0.44608
 H836 H 0.35595 0.60745 0.45671
 H837 H 0.35395 0.66773 0.42590
 H838 H 0.30372 0.68356 0.38430
 H839 H 0.19569 0.56120 0.37483
 H840 H 0.19477 0.61984 0.34281
 C841 C 0.28374 0.86620 0.92968
 C842 C 0.25623 0.89367 0.93429
 C843 C 0.22962 0.89820 0.90649
 C844 C 0.22865 0.87518 0.87593
 C845 C 0.25375 0.84638 0.87219
 C846 C 0.28255 0.84268 0.89832
 C847 C 0.31372 0.86301 0.95431
 C848 C 0.34102 0.83671 0.94890
 C849 C 0.33973 0.81379 0.91840
 C850 C 0.31114 0.81699 0.89308
 H851 H 0.31696 0.88133 0.97745
 H852 H 0.36370 0.83462 0.96808
 H853 H 0.36142 0.79394 0.91392
 H854 H 0.31236 0.80005 0.86877
 H855 H 0.20837 0.91890 0.90915
 H856 H 0.20714 0.87897 0.85576
 C857 C 0.70896 0.39419 0.40564
 C858 C 0.74340 0.39877 0.42321
 C859 C 0.77510 0.38427 0.40714
 C860 C 0.77307 0.36450 0.37451
 C861 C 0.73931 0.35889 0.35699
 C862 C 0.70691 0.37395 0.37223
 C863 C 0.67645 0.40865 0.42090
 C864 C 0.64266 0.40321 0.40359
 C865 C 0.64062 0.38319 0.37106
 C866 C 0.67238 0.36853 0.35549
 H867 H 0.67690 0.42413 0.44628
 H868 H 0.61790 0.41444 0.41557
 H869 H 0.61429 0.37885 0.35789
 H870 H 0.66973 0.35290 0.33038
 H871 H 0.80155 0.38771 0.42040
 H872 H 0.79790 0.35238 0.36347
 C873 C 0.09427 0.22349 0.08466
 C874 C 0.09570 0.25347 0.05951
 C875 C 0.12175 0.28128 0.06514
 C876 C 0.14491 0.28081 0.09547
 C877 C 0.14315 0.25246 0.12129
 C878 C 0.11792 0.22326 0.11605
 C879 C 0.07161 0.19266 0.07816
 C880 C 0.07101 0.16325 0.10270
 C881 C 0.09343 0.16346 0.13369
 C882 C 0.11697 0.19291 0.14022
 H883 H 0.05453 0.19075 0.05389
 H884 H 0.05330 0.13998 0.09743
 H885 H 0.09296 0.14041 0.15248
 H886 H 0.13470 0.19129 0.16401
 H887 H 0.12389 0.30400 0.04600
 H888 H 0.16462 0.30284 0.09876
 C889 C 0.61846 0.71579 0.57475
 C890 C 0.59548 0.74709 0.57204
 C891 C 0.59756 0.77450 0.59891
 C892 C 0.62276 0.77185 0.62767
 C893 C 0.64727 0.74224 0.62976
 C894 C 0.64505 0.71363 0.60345
 C895 C 0.61514 0.68632 0.54976
 C896 C 0.63795 0.65574 0.55262
 C897 C 0.66445 0.65402 0.58006
 C898 C 0.66798 0.68238 0.60549
 H899 H 0.59457 0.68637 0.52824
 H900 H 0.63491 0.63305 0.53372
 H901 H 0.68198 0.63031 0.58183
 H902 H 0.68817 0.67912 0.62705
 H903 H 0.58010 0.79856 0.59708
 H904 H 0.62403 0.79376 0.64778
 C905 C 0.08733 0.71208 0.91776
 C906 C 0.06099 0.74060 0.91194
 C907 C 0.06716 0.76641 0.88405
 C908 C 0.09888 0.76530 0.86308
 C909 C 0.12557 0.73809 0.86868
 C910 C 0.12008 0.71118 0.89628
 C911 C 0.08081 0.68306 0.94280
 C912 C 0.10658 0.65519 0.94795
 C913 C 0.13883 0.65491 0.92765
 C914 C 0.14540 0.68229 0.90175
 H915 H 0.05558 0.68125 0.95824
 H916 H 0.10127 0.63342 0.96749
 H917 H 0.15858 0.63298 0.93151
 H918 H 0.17020 0.68022 0.88585
 H919 H 0.04751 0.78823 0.87887
 H920 H 0.10244 0.78579 0.84176
 C921 C 0.56921 0.21487 0.37721
 C922 C 0.56109 0.24790 0.39606
 C923 C 0.58469 0.27805 0.39292
 C924 C 0.61555 0.27626 0.37054
 C925 C 0.62336 0.24443 0.35053
 C926 C 0.60069 0.21312 0.35426
 C927 C 0.54680 0.18347 0.38081
 C928 C 0.55527 0.15114 0.36212
 C929 C 0.58622 0.14937 0.33983
 C930 C 0.60888 0.17996 0.33596
 H931 H 0.52276 0.18357 0.39820
 H932 H 0.53788 0.12726 0.36513
 H933 H 0.59283 0.12410 0.32564
 H934 H 0.63309 0.17726 0.31906
 H935 H 0.57875 0.30335 0.40741
 H936 H 0.63276 0.30030 0.36779
 C937 C 0.90084 0.77771 0.10052
 C938 C 0.92956 0.75249 0.10977
 C939 C 0.92561 0.73091 0.14148
 C940 C 0.89412 0.73276 0.16283
 C941 C 0.86475 0.75586 0.15341
 C942 C 0.86761 0.77817 0.12144
 C943 C 0.90529 0.80420 0.07239
 C944 C 0.87665 0.82751 0.06236
 C945 C 0.84346 0.82604 0.08090
 C946 C 0.83913 0.80233 0.11065
 H947 H 0.93099 0.80745 0.05802
 H948 H 0.88033 0.84704 0.04025
 H949 H 0.82126 0.84411 0.07275
 H950 H 0.81339 0.80366 0.12501
 H951 H 0.94685 0.71160 0.14954
 H952 H 0.89265 0.71568 0.18718
 C953 C 0.40742 0.21781 0.59841
 C954 C 0.43018 0.24943 0.59790
 C955 C 0.42014 0.28022 0.61858
 C956 C 0.38822 0.28011 0.63966
 C957 C 0.36511 0.24934 0.64053
 C958 C 0.37465 0.21778 0.61984
 C959 C 0.41703 0.18583 0.57871
 C960 C 0.39485 0.15468 0.57993
 C961 C 0.36303 0.15459 0.60101
 C962 C 0.35305 0.18569 0.62098
 H963 H 0.44183 0.18450 0.56248
 H964 H 0.40255 0.13036 0.56467
 H965 H 0.34612 0.13020 0.60208
 H966 H 0.32851 0.18425 0.63748
 H967 H 0.43730 0.30450 0.61852
 H968 H 0.38171 0.30416 0.65595
 C969 C 0.86862 0.29171 0.92244
 C970 C 0.89546 0.26412 0.92967
 C971 C 0.90121 0.23641 0.90335
 C972 C 0.88092 0.23532 0.87095
 C973 C 0.85306 0.26076 0.86431
 C974 C 0.84736 0.28994 0.88950
 C975 C 0.86376 0.32215 0.94610
 C976 C 0.83787 0.34928 0.93818
 C977 C 0.81696 0.34730 0.90623
 C978 C 0.82185 0.31822 0.88186
 H979 H 0.88034 0.32581 0.97050
 H980 H 0.83444 0.37231 0.95667
 H981 H 0.79733 0.36877 0.89993
 H982 H 0.80626 0.31870 0.85654
 H983 H 0.92131 0.21493 0.90821
 H984 H 0.88601 0.21356 0.85151
 C985 C 0.37102 0.79535 0.43459
 C986 C 0.39243 0.76418 0.44366
 C987 C 0.39539 0.73515 0.41852
 C988 C 0.37646 0.73599 0.38523
 C989 C 0.35405 0.76589 0.37624
 C990 C 0.35182 0.79629 0.40050
 C991 C 0.36853 0.82574 0.45851
 C992 C 0.34750 0.85637 0.44901
 C993 C 0.32892 0.85744 0.41554
 C994 C 0.33109 0.82782 0.39136
 H995 H 0.38285 0.82615 0.48460
 H996 H 0.34579 0.87950 0.46760
 H997 H 0.31292 0.88144 0.40816
 H998 H 0.31697 0.83008 0.36526
 H999 H 0.41222 0.71144 0.42502
 H1000 H 0.37796 0.71240 0.36714
 C1001 C 0.12397 0.07837 0.20869
 C1002 C 0.09985 0.07412 0.23909
 C1003 C 0.09817 0.10221 0.26558
 C1004 C 0.12067 0.13310 0.26328
 C1005 C 0.14605 0.13675 0.23478
 C1006 C 0.14732 0.10971 0.20668
 C1007 C 0.12405 0.05305 0.17921
 C1008 C 0.14776 0.05735 0.14961
 C1009 C 0.17108 0.08742 0.14808
 C1010 C 0.17059 0.11367 0.17593
 H1011 H 0.10531 0.03012 0.17831
 H1012 H 0.14767 0.03750 0.12747
 H1013 H 0.18914 0.09067 0.12483
 H1014 H 0.18788 0.13746 0.17259
 H1015 H 0.08021 0.09956 0.28911
 H1016 H 0.11946 0.15350 0.28490
 C1017 C 0.59982 0.58870 0.71235
 C1018 C 0.60174 0.56267 0.74137
 C1019 C 0.62522 0.56919 0.77113
 C1020 C 0.64674 0.60070 0.77258
 C1021 C 0.64512 0.62712 0.74461
 C1022 C 0.62128 0.62145 0.71420
 C1023 C 0.57788 0.58228 0.68096
 C1024 C 0.57618 0.60793 0.65259
 C1025 C 0.59661 0.64008 0.65462
 C1026 C 0.61937 0.64669 0.68478
 H1027 H 0.56205 0.55735 0.67793
 H1028 H 0.55902 0.60276 0.62882
 H1029 H 0.59497 0.65986 0.63251
 H1030 H 0.63543 0.67156 0.68460
 H1031 H 0.62713 0.54946 0.79336
 H1032 H 0.66527 0.60433 0.79565
 C1033 C 0.92179 0.11038 0.78623
 C1034 C 0.93469 0.09490 0.75290
 C1035 C 0.91334 0.09857 0.72088
 C1036 C 0.88075 0.11877 0.72099
 C1037 C 0.86823 0.13546 0.75320
 C1038 C 0.88820 0.13056 0.78637
 C1039 C 0.94083 0.10510 0.81974
 C1040 C 0.92698 0.11911 0.85253
 C1041 C 0.89411 0.13860 0.85264
 C1042 C 0.87504 0.14470 0.81990
 H1043 H 0.96617 0.08959 0.82103
 H1044 H 0.94170 0.11460 0.87802
 H1045 H 0.88334 0.14911 0.87826
 H1046 H 0.84964 0.16001 0.82122
 H1047 H 0.92250 0.08642 0.69532
 H1048 H 0.86583 0.12246 0.69545
 C1049 C 0.40691 0.60239 0.28678
 C1050 C 0.43267 0.60781 0.25813
 C1051 C 0.42500 0.63324 0.23037
 C1052 C 0.39249 0.65325 0.23054
 C1053 C 0.36617 0.64801 0.25804
 C1054 C 0.37297 0.62204 0.28630
 C1055 C 0.41424 0.57783 0.31592
 C1056 C 0.38809 0.57146 0.34300
 C1057 C 0.35465 0.58992 0.34199
 C1058 C 0.34729 0.61559 0.31450
 H1059 H 0.44004 0.56316 0.31781
 H1060 H 0.39374 0.55203 0.36482
 H1061 H 0.33433 0.58428 0.36268
 H1062 H 0.32129 0.62987 0.31544
 H1063 H 0.44442 0.63763 0.20831
 H1064 H 0.38792 0.67340 0.20906
 C1065 C 0.08702 0.89568 0.78032
 C1066 C 0.06618 0.89678 0.74711
 C1067 C 0.07527 0.87267 0.71849
 C1068 C 0.10510 0.84901 0.72144
 C1069 C 0.12660 0.84814 0.75330
 C1070 C 0.11751 0.87115 0.78330
 C1071 C 0.07677 0.91642 0.81151
 C1072 C 0.09658 0.91386 0.84424
 C1073 C 0.12643 0.89014 0.84695
 C1074 C 0.13676 0.86878 0.81693
 H1075 H 0.05302 0.93426 0.81124
 H1076 H 0.08838 0.92997 0.86782
 H1077 H 0.14126 0.88786 0.87267
 H1078 H 0.15941 0.84989 0.82055
 H1079 H 0.05919 0.87237 0.69337
 H1080 H 0.11127 0.83084 0.69869
 C1081 C 0.57638 0.38860 0.19318
 C1082 C 0.56647 0.40992 0.22419
 C1083 C 0.58697 0.40687 0.25669
 C1084 C 0.61631 0.38248 0.25920
 C1085 C 0.62541 0.35981 0.22961
 C1086 C 0.60596 0.36312 0.19601
 C1087 C 0.55763 0.39219 0.15936
 C1088 C 0.56753 0.37081 0.12918
 C1089 C 0.59633 0.34575 0.13201
 C1090 C 0.61553 0.34193 0.16500
 H1091 H 0.53550 0.41176 0.15584
 H1092 H 0.55291 0.37383 0.10342
 H1093 H 0.60399 0.32936 0.10843
 H1094 H 0.63811 0.32259 0.16584
 H1095 H 0.57953 0.42283 0.28067
 H1096 H 0.63114 0.38032 0.28488
 C1097 C 0.90058 0.91674 0.22734
 C1098 C 0.90228 0.94043 0.25823
 C1099 C 0.88287 0.93161 0.29012
 C1100 C 0.86153 0.90002 0.29174
 C1101 C 0.85946 0.87611 0.26172
 C1102 C 0.87927 0.88406 0.22925
 C1103 C 0.91893 0.92530 0.19431
 C1104 C 0.91684 0.90185 0.16412
 C1105 C 0.89627 0.86976 0.16609
 C1106 C 0.87742 0.86092 0.19817
 H1107 H 0.93485 0.95018 0.19143
 H1108 H 0.93115 0.90868 0.13902
 H1109 H 0.89481 0.85175 0.14255
 H1110 H 0.86151 0.83590 0.19834
 H1111 H 0.88387 0.94966 0.31376
 H1112 H 0.84585 0.89451 0.31638
 C1113 C 0.40186 0.40506 0.78323
 C1114 C 0.40289 0.42730 0.75126
 C1115 C 0.38219 0.41759 0.72038
 C1116 C 0.36014 0.38655 0.72085
 C1117 C 0.35839 0.36422 0.75210
 C1118 C 0.37948 0.37305 0.78360
 C1119 C 0.42188 0.41445 0.81513
 C1120 C 0.42008 0.39259 0.84654
 C1121 C 0.39815 0.36130 0.84691
 C1122 C 0.37783 0.35160 0.81586
 H1123 H 0.43888 0.43878 0.81614
 H1124 H 0.43561 0.40008 0.87080
 H1125 H 0.39669 0.34459 0.87146
 H1126 H 0.36077 0.32737 0.81747
 H1127 H 0.38277 0.43452 0.69590
 H1128 H 0.34373 0.38018 0.69679
 C1129 C 0.10887 0.21975 0.91868
 C1130 C 0.09220 0.25390 0.92752
 C1131 C 0.09637 0.28382 0.90357
 C1132 C 0.11794 0.28082 0.87214
 C1133 C 0.13601 0.24792 0.86385
 C1134 C 0.13096 0.21681 0.88662
 C1135 C 0.10316 0.18812 0.94051
 C1136 C 0.11923 0.15471 0.93124
 C1137 C 0.14096 0.15200 0.90008
 C1138 C 0.14700 0.18261 0.87789
 H1139 H 0.08577 0.18869 0.96454
 H1140 H 0.11452 0.13070 0.94811
 H1141 H 0.15269 0.12585 0.89297
 H1142 H 0.16363 0.17909 0.85354
 H1143 H 0.08375 0.31004 0.90989
 H1144 H 0.12191 0.30484 0.85502
 C1145 C 0.58349 0.73688 0.41047
 C1146 C 0.58885 0.76420 0.43789
 C1147 C 0.61570 0.79110 0.43281
 C1148 C 0.63794 0.79077 0.40192
 C1149 C 0.63373 0.76393 0.37469
 C1150 C 0.60567 0.73719 0.37821
 C1151 C 0.55785 0.70814 0.41519
 C1152 C 0.55292 0.68152 0.38815
 C1153 C 0.57396 0.68232 0.35639
 C1154 C 0.60050 0.70942 0.35159
 H1155 H 0.54171 0.70554 0.43989
 H1156 H 0.53294 0.65990 0.39205
 H1157 H 0.57005 0.66147 0.33562
 H1158 H 0.61701 0.70795 0.32711
 H1159 H 0.62015 0.81200 0.45352
 H1160 H 0.65929 0.81134 0.39959
 C1161 C 0.89921 0.77094 0.91737
 C1162 C 0.92802 0.74478 0.91183
 C1163 C 0.92483 0.71976 0.88267
 C1164 C 0.89462 0.72001 0.85948
 C1165 C 0.86592 0.74506 0.86434
 C1166 C 0.86750 0.77040 0.89398
 C1167 C 0.90229 0.79941 0.94367
 C1168 C 0.87397 0.82464 0.94886
 C1169 C 0.84257 0.82312 0.92713
 C1170 C 0.83952 0.79676 0.89956
 H1171 H 0.92677 0.80298 0.96009
 H1172 H 0.87670 0.84595 0.96939
 H1173 H 0.82092 0.84317 0.93091
 H1174 H 0.81544 0.79810 0.88234
 H1175 H 0.94602 0.69940 0.87779
 H1176 H 0.89382 0.70040 0.83709
 C1177 C 0.41496 0.29530 0.38358
 C1178 C 0.42687 0.26157 0.39883
 C1179 C 0.40773 0.22921 0.39094
 C1180 C 0.37786 0.22960 0.36699
 C1181 C 0.36665 0.26231 0.35017
 C1182 C 0.38461 0.29565 0.35890
 C1183 C 0.43270 0.32864 0.39219
 C1184 C 0.42058 0.36167 0.37692
 C1185 C 0.39082 0.36205 0.35283
 C1186 C 0.37302 0.32937 0.34372
 H1187 H 0.45579 0.32946 0.41098
 H1188 H 0.43429 0.38710 0.38387
 H1189 H 0.38145 0.38776 0.34114
 H1190 H 0.34986 0.33081 0.32504
 H1191 H 0.41678 0.20328 0.40250
 H1192 H 0.36423 0.20398 0.36047
 C1193 C 0.08756 0.71798 0.11012
 C1194 C 0.06470 0.74953 0.10855
 C1195 C 0.07608 0.78203 0.12543
 C1196 C 0.10931 0.78356 0.14429
 C1197 C 0.13240 0.75281 0.14655
 C1198 C 0.12169 0.71963 0.12933
 C1199 C 0.07678 0.68457 0.09369
 C1200 C 0.09917 0.65356 0.09606
 C1201 C 0.13232 0.65507 0.11515
 C1202 C 0.14347 0.68766 0.13187
 H1203 H 0.05091 0.68203 0.07919
 H1204 H 0.09059 0.62813 0.08328
 H1205 H 0.14942 0.63080 0.11717
 H1206 H 0.16913 0.68751 0.14681
 H1207 H 0.05892 0.80634 0.12418
 H1208 H 0.11656 0.80870 0.15829
 C1209 C 0.57680 0.20921 0.61222
 C1210 C 0.56684 0.24243 0.59450
 C1211 C 0.59166 0.27190 0.59445
 C1212 C 0.62538 0.26931 0.61257
 C1213 C 0.63489 0.23756 0.63202
 C1214 C 0.61095 0.20686 0.63130
 C1215 C 0.55361 0.17818 0.61132
 C1216 C 0.56359 0.14581 0.62930
 C1217 C 0.59681 0.14361 0.64820
 C1218 C 0.62039 0.17372 0.64917
 H1219 H 0.52773 0.17854 0.59667
 H1220 H 0.54551 0.12226 0.62845
 H1221 H 0.60447 0.11836 0.66195
 H1222 H 0.64628 0.17065 0.66349
 H1223 H 0.58465 0.29725 0.58045
 H1224 H 0.64342 0.29290 0.61294
 C1225 C 0.89145 0.28990 0.08675
 C1226 C 0.89648 0.25855 0.06425
 C1227 C 0.87978 0.22534 0.07402
 C1228 C 0.85791 0.22289 0.10528
 C1229 C 0.85230 0.25349 0.12790
 C1230 C 0.86919 0.28737 0.11882
 C1231 C 0.90733 0.32400 0.07748
 C1232 C 0.90153 0.35487 0.09936
 C1233 C 0.87961 0.35249 0.13052
 C1234 C 0.86339 0.31919 0.14014
 H1235 H 0.92416 0.32713 0.05324
 H1236 H 0.91389 0.38085 0.09195
 H1237 H 0.87495 0.37664 0.14721
 H1238 H 0.84616 0.31870 0.16419
 H1239 H 0.88323 0.20127 0.05688
 H1240 H 0.84452 0.19706 0.11147
 C1241 C 0.37376 0.70848 0.58219
 C1242 C 0.39489 0.74089 0.57802
 C1243 C 0.39450 0.76741 0.60592
 C1244 C 0.37268 0.76295 0.63700
 C1245 C 0.35004 0.73215 0.64082
 C1246 C 0.35104 0.70414 0.61374
 C1247 C 0.37484 0.68017 0.55571
 C1248 C 0.35371 0.64858 0.55994
 C1249 C 0.33154 0.64433 0.59070
 C1250 C 0.33025 0.67165 0.61753
 H1251 H 0.39221 0.68202 0.53173
 H1252 H 0.35474 0.62714 0.53936
 H1253 H 0.31551 0.61957 0.59385
 H1254 H 0.31333 0.66687 0.64142
 H1255 H 0.41052 0.79230 0.60309
 H1256 H 0.37206 0.78462 0.65738
 C1257 C 0.22068 0.08478 0.89760
 C1258 C 0.24572 0.09190 0.92708
 C1259 C 0.27030 0.12137 0.92380
 C1260 C 0.27051 0.14353 0.89294
 C1261 C 0.24651 0.13714 0.86362
 C1262 C 0.22186 0.10697 0.86518
 C1263 C 0.19272 0.05797 0.90057
 C1264 C 0.16879 0.05102 0.87145
 C1265 C 0.17102 0.07156 0.83935
 C1266 C 0.19674 0.09967 0.83638
 H1267 H 0.18859 0.04247 0.92552
 H1268 H 0.14794 0.03004 0.87407
 H1269 H 0.15196 0.06645 0.81704
 H1270 H 0.19585 0.11590 0.81167
 H1271 H 0.28997 0.12729 0.94540
 H1272 H 0.28963 0.16629 0.89208
 C1273 C 0.71788 0.61972 0.43145
 C1274 C 0.75011 0.59819 0.43525
 C1275 C 0.77838 0.60195 0.40953
 C1276 C 0.77556 0.62731 0.38089
 C1277 C 0.74484 0.65032 0.37770
 C1278 C 0.71546 0.64643 0.40286
 C1279 C 0.68773 0.61483 0.45523
 C1280 C 0.65614 0.63604 0.45120
 C1281 C 0.65412 0.66262 0.42390
 C1282 C 0.68329 0.66787 0.39979
 H1283 H 0.68804 0.59422 0.47667
 H1284 H 0.63292 0.63169 0.46910
 H1285 H 0.62954 0.67881 0.42123
 H1286 H 0.68003 0.68815 0.37831
 H1287 H 0.80311 0.58557 0.41208
 H1288 H 0.79814 0.62988 0.36176
 C1289 C 0.71156 0.08650 0.09579
 C1290 C 0.74502 0.06691 0.09262
 C1291 C 0.77729 0.08141 0.10755
 C1292 C 0.77666 0.11450 0.12654
 C1293 C 0.74383 0.13395 0.13091
 C1294 C 0.71098 0.12044 0.11511
 C1295 C 0.67859 0.07278 0.08068
 C1296 C 0.64579 0.09221 0.08452
 C1297 C 0.64519 0.12540 0.10353
 C1298 C 0.67739 0.13946 0.11882
 H1299 H 0.67789 0.04698 0.06594
 H1300 H 0.62069 0.08142 0.07279
 H1301 H 0.61963 0.14031 0.10647
 H1302 H 0.67580 0.16533 0.13332
 H1303 H 0.80303 0.06671 0.10486
 H1304 H 0.80181 0.12454 0.13887
 C1305 C 0.19872 0.58367 0.60232
 C1306 C 0.22856 0.55870 0.60028
 C1307 C 0.25990 0.56463 0.62177
 C1308 C 0.26227 0.59492 0.64486
 C1309 C 0.23374 0.62062 0.64658
 C1310 C 0.20147 0.61516 0.62539
 C1311 C 0.16596 0.57765 0.58241
 C1312 C 0.13675 0.60232 0.58482
 C1313 C 0.13944 0.63313 0.60730
 C1314 C 0.17133 0.63950 0.62760
 H1315 H 0.16257 0.55378 0.56504
 H1316 H 0.11181 0.59741 0.56934
 H1317 H 0.11656 0.65205 0.60924
 H1318 H 0.17193 0.66341 0.64515
 H1319 H 0.28273 0.54554 0.62069
 H1320 H 0.28670 0.59839 0.66154
 C1321 C 0.72190 0.90278 0.89669
 C1322 C 0.75393 0.92482 0.89889
 C1323 C 0.78560 0.91404 0.88004
 C1324 C 0.78587 0.88225 0.85878
 C1325 C 0.75462 0.86004 0.85607
 C1326 C 0.72235 0.86995 0.87534
 C1327 C 0.68912 0.91315 0.91452
 C1328 C 0.65771 0.89147 0.91180
 C1329 C 0.65820 0.85936 0.89106
 C1330 C 0.69008 0.84868 0.87280
 H1331 H 0.68738 0.93813 0.93051
 H1332 H 0.63279 0.89973 0.92568
 H1333 H 0.63366 0.84276 0.88890
 H1334 H 0.68910 0.82380 0.85663
 H1335 H 0.81017 0.93073 0.88138
 H1336 H 0.81052 0.87523 0.84375
 C1337 C 0.27537 0.40645 0.40080
 C1338 C 0.24900 0.43450 0.39382
 C1339 C 0.22550 0.43077 0.36353
 C1340 C 0.22740 0.40012 0.34066
 C1341 C 0.25184 0.37112 0.34786
 C1342 C 0.27545 0.37371 0.37901
 C1343 C 0.30195 0.41040 0.42885
 C1344 C 0.32593 0.38179 0.43744
 C1345 C 0.32436 0.34904 0.41794
 C1346 C 0.29986 0.34513 0.38869
 H1347 H 0.30434 0.43553 0.44449
 H1348 H 0.34575 0.38502 0.45942
 H1349 H 0.34291 0.32681 0.42493
 H1350 H 0.30068 0.31959 0.37383
 H1351 H 0.20540 0.45191 0.35743
 H1352 H 0.20914 0.39887 0.31713
 C1353 C 0.27811 0.90430 0.09430
 C1354 C 0.24872 0.89941 0.06902
 C1355 C 0.21974 0.87606 0.07800
 C1356 C 0.21951 0.85739 0.11130
 C1357 C 0.24784 0.86193 0.13707
 C1358 C 0.27754 0.88560 0.12875
 C1359 C 0.30853 0.92669 0.08566
 C1360 C 0.33737 0.93101 0.11053
 C1361 C 0.33686 0.91268 0.14407
 C1362 C 0.30746 0.88992 0.15304
 H1363 H 0.31050 0.94078 0.05958
 H1364 H 0.36042 0.94840 0.10359
 H1365 H 0.35953 0.91583 0.16310
 H1366 H 0.30862 0.87566 0.17895
 H1367 H 0.19721 0.87205 0.05891
 H1368 H 0.19722 0.83848 0.11678
 C1369 C 0.78725 0.36858 0.56738
 C1370 C 0.75662 0.39095 0.55868
 C1371 C 0.72699 0.39281 0.58316
 C1372 C 0.72685 0.37210 0.61542
 C1373 C 0.75619 0.34875 0.62399
 C1374 C 0.78712 0.34745 0.60035
 C1375 C 0.81826 0.36713 0.54425
 C1376 C 0.84845 0.34532 0.55335
 C1377 C 0.84851 0.32493 0.58570
 C1378 C 0.81832 0.32605 0.60912
 H1379 H 0.81957 0.38295 0.51911
 H1380 H 0.87204 0.34447 0.53536
 H1381 H 0.87220 0.30837 0.59282
 H1382 H 0.81996 0.31058 0.63440
 H1383 H 0.70365 0.41029 0.57703
 H1384 H 0.70316 0.37339 0.63324
 C1385 C 0.09248 0.09434 0.71892
 C1386 C 0.06766 0.09561 0.74917
 C1387 C 0.07537 0.11933 0.77857
 C1388 C 0.10727 0.14030 0.77922
 C1389 C 0.13258 0.13874 0.75038
 C1390 C 0.12534 0.11570 0.71984
 C1391 C 0.08422 0.07422 0.68669
 C1392 C 0.10839 0.07366 0.65710
 C1393 C 0.14075 0.09380 0.65845
 C1394 C 0.14903 0.11496 0.68924
 H1395 H 0.05880 0.05922 0.68372
 H1396 H 0.10173 0.05789 0.63279
 H1397 H 0.15923 0.09356 0.63522
 H1398 H 0.17379 0.13111 0.68849
 H1399 H 0.05675 0.12121 0.80168
 H1400 H 0.11200 0.15849 0.80231
 C1401 C 0.59339 0.60314 0.28770
 C1402 C 0.56864 0.60710 0.25774
 C1403 C 0.57599 0.63298 0.23037
 C1404 C 0.60701 0.65505 0.23228
 C1405 C 0.63202 0.65178 0.26142
 C1406 C 0.62556 0.62546 0.28942
 C1407 C 0.58626 0.57827 0.31655
 C1408 C 0.61050 0.57498 0.34609
 C1409 C 0.64197 0.59655 0.34768
 C1410 C 0.64939 0.62182 0.31987
 H1411 H 0.56187 0.56135 0.31663
 H1412 H 0.60477 0.55570 0.36797
 H1413 H 0.66059 0.59382 0.37074
 H1414 H 0.67370 0.63852 0.32265
 H1415 H 0.55722 0.63639 0.20745
 H1416 H 0.61138 0.67527 0.21088
 C1417 C 0.11150 0.92458 0.21546
 C1418 C 0.09958 0.93972 0.24922
 C1419 C 0.10657 0.92081 0.28205
 C1420 C 0.12580 0.88767 0.28192
 C1421 C 0.13902 0.87284 0.24905
 C1422 C 0.13206 0.89129 0.21545
 C1423 C 0.10347 0.94190 0.18167
 C1424 C 0.11633 0.92732 0.14873
 C1425 C 0.13724 0.89530 0.14879
 C1426 C 0.14528 0.87742 0.18178
 H1427 H 0.08700 0.96660 0.18038
 H1428 H 0.11003 0.94093 0.12302
 H1429 H 0.14694 0.88416 0.12307
 H1430 H 0.16152 0.85253 0.18068
 H1431 H 0.09723 0.93200 0.30796
 H1432 H 0.13174 0.87424 0.30785
 C1433 C 0.60722 0.40826 0.70261
 C1434 C 0.60042 0.42622 0.73643
 C1435 C 0.61208 0.40989 0.76928
 C1436 C 0.63117 0.37669 0.76902
 C1437 C 0.63887 0.35869 0.73594
 C1438 C 0.62667 0.37423 0.70238
 C1439 C 0.59550 0.42362 0.66896
 C1440 C 0.60294 0.40593 0.63582
 C1441 C 0.62211 0.37280 0.63559
 C1442 C 0.63398 0.35701 0.66850
 H1443 H 0.58071 0.44942 0.66800
 H1444 H 0.59390 0.41805 0.61018
 H1445 H 0.62795 0.35939 0.60973
 H1446 H 0.64888 0.33130 0.66731
 H1447 H 0.60666 0.42321 0.79532
 H1448 H 0.64114 0.36553 0.79480
 C1449 C 0.89830 0.10033 0.28094
 C1450 C 0.90082 0.07563 0.25098
 C1451 C 0.88006 0.08198 0.21919
 C1452 C 0.85661 0.11207 0.21680
 C1453 C 0.85342 0.13681 0.24600
 C1454 C 0.87437 0.13124 0.27843
 C1455 C 0.91820 0.09437 0.31377
 C1456 C 0.91481 0.11846 0.34332
 C1457 C 0.89127 0.14852 0.34097
 C1458 C 0.87101 0.15481 0.30901
 H1459 H 0.93634 0.07101 0.31698
 H1460 H 0.93029 0.11359 0.36830
 H1461 H 0.88847 0.16691 0.36415
 H1462 H 0.85251 0.17798 0.30868
 H1463 H 0.88158 0.06306 0.19628
 H1464 H 0.84032 0.11577 0.19215
 C1465 C 0.39656 0.58140 0.78630
 C1466 C 0.40203 0.56232 0.75287
 C1467 C 0.38344 0.57368 0.72110
 C1468 C 0.35915 0.60322 0.72210
 C1469 C 0.35281 0.62216 0.75489
 C1470 C 0.37171 0.61162 0.78733
 C1471 C 0.41461 0.57054 0.81892
 C1472 C 0.40847 0.58923 0.85176
 C1473 C 0.38409 0.61871 0.85281
 C1474 C 0.36569 0.62979 0.82101
 H1475 H 0.43351 0.54758 0.81934
 H1476 H 0.42256 0.58069 0.87657
 H1477 H 0.37928 0.63296 0.87844
 H1478 H 0.34663 0.65245 0.82311
 H1479 H 0.38722 0.55902 0.69549
 H1480 H 0.34473 0.61103 0.69721
 C1481 C 0.92396 0.88237 0.77887
 C1482 C 0.93342 0.89790 0.74453
 C1483 C 0.91062 0.89251 0.71400
 C1484 C 0.87921 0.87092 0.71680
 C1485 C 0.87017 0.85392 0.75005
 C1486 C 0.89217 0.85994 0.78161
 C1487 C 0.94557 0.88860 0.81055
 C1488 C 0.93611 0.87289 0.84408
 C1489 C 0.90509 0.85087 0.84672
 C1490 C 0.88321 0.84428 0.81591
 H1491 H 0.96977 0.90578 0.80980
 H1492 H 0.95286 0.87791 0.86818
 H1493 H 0.89797 0.83912 0.87289
 H1494 H 0.85909 0.82728 0.81926
 H1495 H 0.91761 0.90457 0.68773
 H1496 H 0.86268 0.86615 0.69246
 C1497 C 0.40394 0.41413 0.19841
 C1498 C 0.43144 0.41138 0.22598
 C1499 C 0.42725 0.38611 0.25450
 C1500 C 0.39651 0.36390 0.25627
 C1501 C 0.36787 0.36720 0.23077
 C1502 C 0.37158 0.39219 0.20107
 C1503 C 0.40839 0.43745 0.16777
 C1504 C 0.38138 0.43959 0.14064
 C1505 C 0.34984 0.41821 0.14318
 C1506 C 0.34504 0.39449 0.17288
 H1507 H 0.43283 0.45396 0.16443
 H1508 H 0.38509 0.45766 0.11732
 H1509 H 0.32917 0.41968 0.12179
 H1510 H 0.32075 0.37767 0.17313
 H1511 H 0.44844 0.38300 0.27527
 H1512 H 0.39557 0.34308 0.27729
   
