data_POSCAR
  _audit_creation_date              2014-09-24
  _audit_creation_method            'ToBaCCo'
  _symmetry_space_group_name_H-M    'P1'
  _symmetry_Int_Tables_number       1
  _symmetry_cell_setting            triclinic
  loop_
  _symmetry_equiv_pos_as_xyz
 x,y,z
_cell_length_a 44.1442
_cell_length_b 44.3788
_cell_length_c 44.0037
_cell_angle_alpha 90.318400
_cell_angle_beta 90.023500
_cell_angle_gamma 90.385900
loop_
  _atom_site_label
  _atom_site_type_symbol
  _atom_site_fract_x
  _atom_site_fract_y
  _atom_site_fract_z
C1 C 0.37555 1.37157 0.33664
 N2 N 0.34454 1.37220 0.33637
 C3 C 0.32869 1.35187 0.35363
 N4 N 0.34395 1.33063 0.36976
 C5 C 0.37458 1.33110 0.37096
 N6 N 0.38996 1.35179 0.35479
 C7 C 0.37452 0.86794 0.83670
 N8 N 0.38611 0.85117 0.85928
 C9 C 0.36805 0.83864 0.88061
 N10 N 0.33758 0.84376 0.88009
 C11 C 0.32565 0.86112 0.85751
 N12 N 0.34423 0.87251 0.83553
 C13 C 0.86959 1.37163 0.83141
 N14 N 0.84736 1.38604 0.84685
 C15 C 0.82542 1.37041 0.86174
 N16 N 0.82715 1.33981 0.86320
 C17 C 0.85020 1.32529 0.84872
 N18 N 0.87059 1.34114 0.83190
 C19 C 0.86614 0.87364 0.33242
 N20 N 0.87572 0.84483 0.33589
 C21 C 0.86505 0.82787 0.35940
 N22 N 0.84405 0.83948 0.37865
 C23 C 0.83349 0.86780 0.37428
 N24 N 0.84476 0.88476 0.35146
 C25 C 0.64698 0.62732 0.32457
 N26 N 0.62533 0.64832 0.32955
 C27 C 0.62556 0.66498 0.35548
 N28 N 0.64755 0.66059 0.37651
 C29 C 0.66915 0.63947 0.37179
 N30 N 0.66891 0.62294 0.34572
 C31 C 0.64927 0.13288 0.81913
 N32 N 0.67130 0.12940 0.84042
 C33 C 0.67160 0.14690 0.86588
 N34 N 0.64983 0.16795 0.86989
 C35 C 0.62777 0.17154 0.84881
 N36 N 0.62752 0.15400 0.82344
 C37 C 1.14823 0.63267 0.82622
 N38 N 1.12822 0.65553 0.82964
 C39 C 1.12900 0.67313 0.85501
 N40 N 1.14983 0.66773 0.87700
 C41 C 1.16981 0.64483 0.87369
 N42 N 1.16900 0.62745 0.84825
 C43 C 1.12622 0.11820 0.33640
 N44 N 1.15566 0.11906 0.34606
 C45 C 1.16431 0.14013 0.36727
 N46 N 1.14405 0.16116 0.37681
 C47 C 1.11496 0.16022 0.36714
 N48 N 1.10611 0.13828 0.34771
 C49 C 0.62954 1.35642 0.67175
 N50 N 0.65434 1.37464 0.66938
 C51 C 0.67734 1.36711 0.65024
 N52 N 0.67552 1.34111 0.63395
 C53 C 0.65092 1.32282 0.63645
 N54 N 0.62793 1.33061 0.65520
 C55 C 0.62507 0.86223 1.16849
 N56 N 0.62287 0.83764 1.15013
 C57 C 0.64323 0.83333 1.12750
 N58 N 0.66582 0.85376 1.12320
 C59 C 0.66796 0.87849 1.14136
 N60 N 0.64766 0.88260 1.16407
 C61 C 1.12395 1.36086 1.16534
 N62 N 1.12149 1.33641 1.14678
 C63 C 1.14299 1.33099 1.12545
 N64 N 1.16696 1.35009 1.12271
 C65 C 1.16948 1.37459 1.14116
 N66 N 1.14798 1.37982 1.16248
 C67 C 1.12412 0.85939 0.66577
 N68 N 1.12032 0.83558 0.64652
 C69 C 1.14100 0.83026 0.62431
 N70 N 1.16545 0.84859 0.62154
 C71 C 1.16954 0.87220 0.64074
 N72 N 1.14880 0.87761 0.66288
 C73 C 0.32801 0.66955 0.70280
 N74 N 0.30087 0.66310 0.69021
 C75 C 0.29605 0.66656 0.66007
 N76 N 0.31840 0.67840 0.64235
 C77 C 0.34547 0.68627 0.65524
 N78 N 0.35053 0.68083 0.68522
 C79 C 0.36443 0.13009 1.16811
 N80 N 0.33386 0.12899 1.16629
 C81 C 0.31913 0.14363 1.14363
 N82 N 0.33497 0.16175 1.12426
 C83 C 0.36557 0.16455 1.12750
 N84 N 0.38012 0.14774 1.14853
 C85 C 0.86696 0.62457 1.16872
 N86 N 0.85184 0.60979 1.14629
 C87 C 0.83799 0.62498 1.12371
 N88 N 0.83942 0.65548 1.12339
 C89 C 0.85565 0.67063 1.14496
 N90 N 0.86913 0.65522 1.16802
 C91 C 0.85647 0.12496 0.66896
 N92 N 0.83838 0.11474 0.64602
 C93 C 0.83397 0.13197 0.62097
 N94 N 0.84733 0.15955 0.61917
 C95 C 0.86431 0.17024 0.64251
 N96 N 0.86893 0.15288 0.66728
 C97 C 1.35046 0.36480 0.67350
 N98 N 1.36866 0.34022 0.67122
 C99 C 1.36732 0.32217 0.64604
 N100 N 1.34785 0.32892 0.62324
 C101 C 1.32973 0.35335 0.62546
 N102 N 1.33101 0.37109 0.65059
 C103 C 1.34797 0.85602 1.17901
 N104 N 1.36155 0.82868 1.17633
 C105 C 1.34539 0.80452 1.16619
 N106 N 1.31626 0.80818 1.15737
 C107 C 1.30332 0.83575 1.15777
 N108 N 1.31896 0.85968 1.16932
 C109 C 0.85315 0.37194 1.17037
 N110 N 0.83047 0.37566 1.14981
 C111 C 0.83016 0.35939 1.12356
 N112 N 0.85246 0.33926 1.11801
 C113 C 0.87523 0.33558 1.13831
 N114 N 0.87555 0.35192 1.16446
 C115 C 0.85029 0.86656 0.67474
 N116 N 0.87109 0.84442 0.67107
 C117 C 0.87064 0.82679 0.64574
 N118 N 0.84932 0.83138 0.62405
 C119 C 0.82854 0.85353 0.62754
 N120 N 0.82903 0.87102 0.65294
 C121 C 0.63233 0.63597 0.67203
 N122 N 0.62958 0.66419 0.66079
 C123 C 0.65206 0.67643 0.64386
 N124 N 0.67710 0.66010 0.63737
 C125 C 0.67974 0.63158 0.64781
 N126 N 0.65744 0.61957 0.66551
 C127 C 0.65639 1.15716 1.19236
 N128 N 0.68623 1.15969 1.18617
 C129 C 0.69617 1.17299 1.16052
 N130 N 0.67587 1.18537 1.14094
 C131 C 0.64558 1.18346 1.14723
 N132 N 0.63596 1.16860 1.17259
 C133 C 0.14350 0.65068 1.18295
 N134 N 0.13489 0.67615 1.16814
 C135 C 0.15608 0.69511 1.15648
 N136 N 0.18572 0.68812 1.15903
 C137 C 0.19458 0.66245 1.17269
 N138 N 0.17349 0.64365 1.18498
 C139 C 0.15804 1.16856 0.69876
 N140 N 0.18641 1.15870 0.69343
 C141 C 0.19906 1.16109 0.66571
 N142 N 0.18320 1.17381 0.64285
 C143 C 0.15511 1.18525 0.64813
 N144 N 0.14222 1.18233 0.67620
 C145 C 1.38617 0.62510 0.33797
 N146 N 1.38227 0.65539 0.34078
 C147 C 1.36027 0.66631 0.35957
 N148 N 1.34053 0.64696 0.37317
 C149 C 1.34366 0.61675 0.36923
 N150 N 1.36701 0.60611 0.35256
 C151 C 1.37731 1.13039 0.83406
 N152 N 1.34720 1.12411 0.83103
 C153 C 1.32669 1.13869 0.84894
 N154 N 1.33624 1.16050 0.86878
 C155 C 1.36635 1.16584 0.87265
 N156 N 1.38655 1.15027 0.85568
 C157 C 0.87261 0.64383 0.82715
 N158 N 0.84861 0.62471 0.82973
 C159 C 0.82635 0.63049 0.85016
 N160 N 0.82806 0.65556 0.86784
 C161 C 0.85189 0.67483 0.86532
 N162 N 0.87422 0.66891 0.84497
 C163 C 0.87795 1.13207 0.33641
 N164 N 0.86042 1.11376 0.35364
 C165 C 0.83895 1.12517 0.37232
 N166 N 0.83674 1.15559 0.37595
 C167 C 0.85457 1.17425 0.35903
 N168 N 0.87399 1.16235 0.33811
 C169 C 0.64098 0.37156 0.32199
 N170 N 0.62906 0.34343 0.32400
 C171 C 0.63457 0.32607 0.34867
 N172 N 0.65224 0.33700 0.37151
 C173 C 0.66493 0.36492 0.36933
 N174 N 0.65927 0.38214 0.34457
 C175 C 0.64186 0.87375 0.82386
 N176 N 0.63289 0.84451 0.82519
 C177 C 0.63898 0.82782 0.85020
 N178 N 0.65400 0.84051 0.87399
 C179 C 0.66357 0.86960 0.87248
 N180 N 0.65763 0.88611 0.84736
 C181 C 0.14630 0.35117 0.82398
 N182 N 0.13398 0.32684 0.83831
 C183 C 0.13535 0.32481 0.86910
 N184 N 0.15028 0.34637 0.88524
 C185 C 0.16295 0.37029 0.87113
 N186 N 0.16050 0.37304 0.84050
 C187 C 0.12608 0.87199 0.33437
 N188 N 0.12475 0.84129 0.33396
 C189 C 0.13971 0.82539 0.35570
 N190 N 0.15683 0.84014 0.37688
 C191 C 0.15739 0.87068 0.37773
 N192 N 0.14181 0.88630 0.35668
 O193 O 1.11881 1.02386 1.14471
 O194 O 1.15585 1.02140 1.17835
 C195 C 1.13140 1.03306 1.16913
 C196 C 1.11733 1.05766 1.18667
 C197 C 1.12252 1.06100 1.21811
 H198 H 1.13703 1.04538 1.22998
 O199 O 0.90056 0.98444 1.15262
 O200 O 0.86758 0.98673 1.19016
 C201 C 0.89047 0.97450 1.17768
 C202 C 0.90482 0.94837 1.19288
 C203 C 0.89612 0.94146 1.22251
 H204 H 0.87976 0.95570 1.23382
 O205 O 1.04764 1.14993 1.10625
 O206 O 1.05413 1.18582 1.14055
 C207 C 1.06079 1.17393 1.11507
 C208 C 1.08390 1.18789 1.09518
 C209 C 1.09526 1.21703 1.10121
 H210 H 1.08703 1.22929 1.12079
 O211 O 0.96613 0.84763 1.11484
 O212 O 0.96713 0.81374 1.15122
 C213 C 0.95543 0.82394 1.12711
 C214 C 0.92810 0.80960 1.11375
 C215 C 0.91426 0.78397 1.12679
 H216 H 0.92463 0.77291 1.14600
 O217 O 1.15732 1.09846 1.01672
 O218 O 1.19295 1.13345 1.01496
 C219 C 1.18181 1.10982 1.02693
 C220 C 1.19614 1.09631 1.05417
 C221 C 1.21814 1.11247 1.07119
 H222 H 1.22620 1.13423 1.06352
 O223 O 0.84719 0.90146 1.04527
 O224 O 0.80855 0.86981 1.04811
 C225 C 0.82196 0.89386 1.05674
 C226 C 0.80811 0.91353 1.08003
 C227 C 0.77862 0.90797 1.09059
 H228 H 0.76598 0.88913 1.08131
 O229 O 0.98906 1.11588 1.15381
 O230 O 0.99463 1.15130 1.18875
 C231 C 0.98152 1.12754 1.17913
 C232 C 0.95700 1.11294 1.19677
 C233 C 0.95160 1.11970 1.22771
 H234 H 0.96560 1.13605 1.23963
 O235 O 1.02892 0.88906 1.15034
 O236 O 1.02930 0.85608 1.18768
 C237 C 1.03990 0.87959 1.17522
 C238 C 1.06530 0.89612 1.18955
 C239 C 1.07288 0.89122 1.22017
 H240 H 1.05998 0.87534 1.23366
 O241 O 1.15245 0.96239 1.09996
 O242 O 1.18972 0.96043 1.13326
 C243 C 1.17664 0.95035 1.10956
 C244 C 1.18869 0.92324 1.09414
 C245 C 1.21075 0.90576 1.10867
 H246 H 1.22016 0.91311 1.13022
 O247 O 0.86083 1.04843 1.11696
 O248 O 0.82869 1.05086 1.15522
 C249 C 0.83861 1.06106 1.13019
 C250 C 0.82488 1.08844 1.11684
 C251 C 0.80235 1.10460 1.13253
 H252 H 0.79420 1.09680 1.15435
 O253 O 0.90679 1.16435 1.03174
 O254 O 0.87504 1.20237 1.03489
 C255 C 0.89949 1.18962 1.04304
 C256 C 0.91896 1.20342 1.06696
 C257 C 0.91271 1.23233 1.07849
 H258 H 0.89459 1.24521 1.06851
 O259 O 1.09933 0.84731 1.02034
 O260 O 1.13159 0.80968 1.01760
 C261 C 1.10901 0.82233 1.03025
 C262 C 1.09578 0.80866 1.05815
 C263 C 1.11188 0.78581 1.07262
 H264 H 1.13232 0.77705 1.06233
 O265 O 0.90456 1.04335 1.15590
 O266 O 0.87207 1.04491 1.19397
 C267 C 0.89665 1.05349 1.18176
 C268 C 0.91588 1.07589 1.19762
 C269 C 0.91098 1.08254 1.22827
 H270 H 0.89344 1.07067 1.24071
 O271 O 1.11256 0.96556 1.14316
 O272 O 1.14962 0.96385 1.17678
 C273 C 1.12355 0.95540 1.16771
 C274 C 1.10589 0.93353 1.18586
 C275 C 1.11265 0.92896 1.21663
 H276 H 1.13068 0.94185 1.22735
 O277 O 1.02482 0.84913 1.10743
 O278 O 1.02702 0.81586 1.14437
 C279 C 1.03605 0.82542 1.11854
 C280 C 1.06084 0.80994 1.10169
 C281 C 1.07780 0.78704 1.11573
 H282 H 1.07223 0.77972 1.13850
 O283 O 0.98938 1.15411 1.10962
 O284 O 0.99543 1.18992 1.14410
 C285 C 0.98254 1.17983 1.12020
 C286 C 0.95917 1.19817 1.10488
 C287 C 0.95264 1.22709 1.11585
 H288 H 0.96525 1.23605 1.13501
 O289 O 0.86109 1.12797 1.03767
 O290 O 0.82927 1.16596 1.04099
 C291 C 0.83882 1.14081 1.05048
 C292 C 0.82462 1.12697 1.07737
 C293 C 0.80130 1.14203 1.09272
 H294 H 0.79257 1.16310 1.08414
 O295 O 1.14401 0.88474 1.01819
 O296 O 1.17622 0.84701 1.01625
 C297 C 1.16761 0.87178 1.02797
 C298 C 1.18408 0.88465 1.05446
 C299 C 1.20571 0.86729 1.06976
 H300 H 1.21166 0.84521 1.06111
 O301 O 0.97016 0.89364 1.15102
 O302 O 0.97021 0.86058 1.18821
 C303 C 0.96064 0.88514 1.17680
 C304 C 0.93814 0.90428 1.19311
 C305 C 0.92849 0.89757 1.22303
 H306 H 0.93753 0.87824 1.23476
 O307 O 1.04728 1.10926 1.14841
 O308 O 1.05296 1.14459 1.18347
 C309 C 1.05982 1.11896 1.17255
 C310 C 1.08224 1.09986 1.18815
 C311 C 1.08734 1.10277 1.21947
 H312 H 1.07493 1.11941 1.23249
 O313 O 0.85509 0.98923 1.11594
 O314 O 0.82214 0.99212 1.15351
 C315 C 0.83042 0.98094 1.12829
 C316 C 0.81188 0.95699 1.11400
 C317 C 0.78241 0.95114 1.12433
 H318 H 0.77271 0.96540 1.14179
 O319 O 1.15474 1.02162 1.09828
 O320 O 1.19161 1.02011 1.13205
 C321 C 1.17994 1.03136 1.10824
 C322 C 1.19484 1.05754 1.09357
 C323 C 1.21668 1.07384 1.10986
 H324 H 1.22412 1.06563 1.13174
 O325 O 0.88220 0.85466 1.04336
 O326 O 0.84385 0.82269 1.04603
 C327 C 0.86993 0.83118 1.05460
 C328 C 0.88577 0.81402 1.07846
 C329 C 0.87197 0.78891 1.09198
 H330 H 0.85003 0.78118 1.08401
 O331 O 1.11843 1.14182 1.01724
 O332 O 1.15450 1.17628 1.01348
 C333 C 1.13037 1.16667 1.02578
 C334 C 1.11693 1.18437 1.05087
 C335 C 1.12778 1.21350 1.05707
 H336 H 1.14487 1.22332 1.04244
 Cu337 Cu 1.13100 0.99352 1.11811
 Cu338 Cu 1.17579 0.99100 1.15806
 Cu339 Cu 0.88341 1.01629 1.13139
 Cu340 Cu 0.84431 1.01876 1.17694
 Cu341 Cu 1.01780 1.12862 1.12621
 Cu342 Cu 1.02502 1.17158 1.16764
 Cu343 Cu 0.99736 0.87302 1.12727
 Cu344 Cu 0.99842 0.83312 1.17137
 C345 C 1.09722 1.07714 1.17199
 H346 H 1.09314 1.07458 1.14782
 C347 C 1.10701 1.08312 1.23466
 C348 C 0.92609 0.92986 1.17834
 H349 H 0.93287 0.93514 1.15532
 C350 C 0.90757 0.91646 1.23792
 C351 C 1.09475 1.17184 1.06980
 H352 H 1.08654 1.14921 1.06522
 C353 C 1.11724 1.23008 1.08209
 C354 C 0.91392 0.82389 1.08921
 H355 H 0.92423 0.84370 1.07920
 C356 C 0.88599 0.77368 1.11601
 C357 C 1.18476 1.06881 1.06562
 H358 H 1.16717 1.05672 1.05335
 C359 C 1.22789 1.10153 1.09946
 C360 C 0.82445 0.93826 1.09166
 H361 H 0.84739 0.94248 1.08395
 C362 C 0.76556 0.92669 1.11285
 C363 C 0.93896 1.09102 1.18211
 H364 H 0.94262 1.08591 1.15830
 C365 C 0.92875 1.10405 1.24354
 C366 C 1.08188 0.91731 1.17262
 H367 H 1.07639 0.92087 1.14891
 C368 C 1.09612 0.90806 1.23393
 C369 C 1.17573 0.91268 1.06684
 H370 H 1.15827 0.92576 1.05585
 C371 C 1.21888 0.87755 1.09697
 C372 C 0.83586 1.09990 1.08923
 H373 H 0.85389 1.08826 1.07743
 C374 C 0.79050 1.13128 1.12041
 C375 C 0.94246 1.18661 1.08019
 H376 H 0.94708 1.16407 1.07193
 C377 C 0.92936 1.24427 1.10314
 C378 C 1.07008 0.82058 1.07277
 H379 H 1.05804 0.83893 1.06218
 C380 C 1.10376 0.77557 1.10149
 O381 O 1.09515 0.96620 0.84027
 O382 O 1.12642 0.96333 0.80135
 C383 C 1.10220 0.95498 0.81463
 C384 C 1.08241 0.93140 0.80068
 C385 C 1.08939 0.91896 0.77201
 H386 H 1.10872 0.92752 0.75963
 O387 O 0.87586 1.03498 0.86293
 O388 O 0.83740 1.03600 0.83089
 C389 C 0.86390 1.04444 0.83859
 C390 C 0.88099 1.06513 0.81869
 C391 C 0.87166 1.06914 0.78870
 H392 H 0.85196 1.05698 0.78035
 O393 O 0.96536 1.15138 0.88561
 O394 O 0.96532 1.18457 0.84849
 C395 C 0.95557 1.17565 0.87396
 C396 C 0.93168 1.19308 0.88940
 C397 C 0.91572 1.21518 0.87346
 H398 H 0.92194 1.22037 0.85026
 O399 O 1.00907 0.85198 0.88951
 O400 O 1.00343 0.81703 0.85409
 C401 C 1.01689 0.82708 0.87762
 C402 C 1.04251 0.81007 0.89063
 C403 C 1.05098 0.78241 0.87782
 H404 H 1.03785 0.77305 0.85921
 O405 O 1.14224 0.88421 0.95844
 O406 O 1.17493 0.84697 0.95626
 C407 C 1.16555 0.87214 0.94657
 C408 C 1.18078 0.88734 0.92052
 C409 C 1.20824 0.87666 0.90774
 H410 H 1.21946 0.85738 0.91749
 O411 O 0.85529 1.12490 0.97943
 O412 O 0.82265 1.16221 0.98261
 C413 C 0.83020 1.13656 0.97206
 C414 C 0.81009 1.12027 0.95049
 C415 C 0.78180 1.13204 0.94239
 H416 H 0.77422 1.15293 0.95259
 O417 O 1.02033 1.10524 0.84300
 O418 O 1.02022 1.13956 0.80693
 C419 C 1.03047 1.11540 0.81800
 C420 C 1.05648 1.10098 0.80296
 C421 C 1.07346 1.11799 0.78216
 H422 H 1.06600 1.14016 0.77532
 O423 O 0.94827 0.89582 0.85406
 O424 O 0.94274 0.86103 0.81847
 C425 C 0.93488 0.88588 0.83044
 C426 C 0.90948 0.90312 0.81730
 C427 C 0.89749 0.89560 0.78860
 H428 H 0.90759 0.87745 0.77574
 O429 O 1.14630 1.02161 0.87635
 O430 O 1.17811 1.01890 0.83783
 C431 C 1.17057 1.03022 0.86327
 C432 C 1.18903 1.05463 0.87752
 C433 C 1.21375 1.06820 0.86227
 H434 H 1.22083 1.05990 0.84021
 O435 O 0.83361 0.98069 0.90939
 O436 O 0.79493 0.98187 0.87771
 C437 C 0.80750 0.97144 0.90133
 C438 C 0.79237 0.94755 0.91919
 C439 C 0.76243 0.93821 0.91275
 H440 H 0.74961 0.94930 0.89512
 O441 O 1.11269 1.13737 0.95820
 O442 O 1.14878 1.17184 0.95541
 C443 C 1.12301 1.16164 0.94705
 C444 C 1.10491 1.17881 0.92465
 C445 C 1.11235 1.20892 0.91924
 H446 H 1.13115 1.21931 0.93130
 O447 O 0.88051 0.85698 0.98389
 O448 O 0.84255 0.82454 0.98653
 C449 C 0.86711 0.83348 0.97425
 C450 C 0.87987 0.81690 0.94802
 C451 C 0.86773 0.78896 0.93928
 H452 H 0.84965 0.77906 0.95261
 O453 O 0.87118 0.97699 0.86433
 O454 O 0.83263 0.97822 0.83243
 C455 C 0.85774 0.96711 0.84072
 C456 C 0.87152 0.94253 0.82269
 C457 C 0.85985 0.93476 0.79402
 H458 H 0.84074 0.94704 0.78508
 O459 O 1.09970 1.02515 0.84097
 O460 O 1.13178 1.02282 0.80261
 C461 C 1.10951 1.03527 0.81587
 C462 C 1.09602 1.06276 0.80284
 C463 C 1.11330 1.08100 0.78326
 H464 H 1.13611 1.07455 0.77704
 O465 O 0.95033 0.85415 0.89521
 O466 O 0.94473 0.81918 0.85983
 C467 C 0.93772 0.83006 0.88562
 C468 C 0.91424 0.81509 0.90451
 C469 C 0.90172 0.78698 0.89604
 H470 H 0.90978 0.77583 0.87572
 O471 O 1.02433 1.14565 0.88496
 O472 O 1.02469 1.18031 0.84923
 C473 C 1.03579 1.16927 0.87352
 C474 C 1.06258 1.18326 0.88870
 C475 C 1.07092 1.21352 0.88336
 H476 H 1.05766 1.22731 0.86816
 O477 O 0.84041 0.89953 0.98717
 O478 O 0.80264 0.86686 0.99023
 C479 C 0.81398 0.89081 0.97943
 C480 C 0.79604 0.90833 0.95755
 C481 C 0.76603 0.89992 0.95150
 H482 H 0.75599 0.88115 0.96358
 O483 O 1.15584 1.09776 0.95660
 O484 O 1.19218 1.13199 0.95454
 C485 C 1.18012 1.10786 0.94469
 C486 C 1.19347 1.09251 0.91792
 C487 C 1.21791 1.10569 0.90241
 H488 H 1.22844 1.12611 0.91112
 O489 O 1.00744 0.89348 0.84854
 O490 O 1.00175 0.85859 0.81309
 C491 C 1.01481 0.88234 0.82295
 C492 C 1.03951 0.89633 0.80484
 C493 C 1.04682 0.88448 0.77617
 H494 H 1.03343 0.86606 0.76695
 O495 O 0.96111 1.10688 0.84747
 O496 O 0.96084 1.13990 0.81023
 C497 C 0.94976 1.11655 0.82294
 C498 C 0.92283 1.10054 0.81026
 C499 C 0.91275 1.10473 0.78012
 H500 H 0.92502 1.11976 0.76516
 O501 O 0.83825 1.03970 0.90776
 O502 O 0.79964 1.04097 0.87599
 C503 C 0.81367 1.05153 0.89894
 C504 C 0.80194 1.07849 0.91491
 C505 C 0.77374 1.09064 0.90705
 H506 H 0.75984 1.07916 0.89033
 O507 O 1.13956 0.96319 0.87897
 O508 O 1.17127 0.96047 0.84037
 C509 C 1.16230 0.95123 0.86620
 C510 C 1.17833 0.92606 0.88119
 C511 C 1.20529 0.91514 0.86886
 H512 H 1.21461 0.92598 0.84893
 O513 O 1.09651 0.84669 0.96076
 O514 O 1.12895 0.80926 0.95797
 C515 C 1.10454 0.82161 0.94939
 C516 C 1.08555 0.80726 0.92542
 C517 C 1.09380 0.77955 0.91214
 H518 H 1.11390 0.76827 0.92007
 O519 O 0.89726 1.16472 0.97258
 O520 O 0.86498 1.20233 0.97536
 C521 C 0.88660 1.18907 0.96202
 C522 C 0.89831 1.20065 0.93284
 C523 C 0.88280 1.22323 0.91672
 H524 H 0.86325 1.23409 0.92668
 Cu525 Cu 1.11703 0.99428 0.86293
 Cu526 Cu 1.15486 0.99078 0.81652
 Cu527 Cu 0.85839 1.00792 0.88958
 Cu528 Cu 0.81210 1.00948 0.85122
 Cu529 Cu 1.13269 1.11518 0.98745
 Cu530 Cu 1.17589 1.15653 0.98396
 Cu531 Cu 1.11739 0.86956 0.98929
 Cu532 Cu 1.15610 0.82447 0.98666
 Cu533 Cu 0.88358 1.14195 1.00505
 Cu534 Cu 0.84495 1.18720 1.00879
 Cu535 Cu 0.86657 0.88120 1.01467
 Cu536 Cu 0.82076 0.84256 1.01810
 Cu537 Cu 0.99260 1.12390 0.86882
 Cu538 Cu 0.99279 1.16440 0.82508
 Cu539 Cu 0.97919 0.87740 0.87535
 Cu540 Cu 0.97258 0.83552 0.83276
 C541 C 1.05726 0.92001 0.81680
 H542 H 1.05204 0.92895 0.83912
 C543 C 1.07176 0.89531 0.75961
 C544 C 0.90673 1.08056 0.82921
 H545 H 0.91389 1.07737 0.85252
 C546 C 0.88728 1.08854 0.76915
 C547 C 0.92298 1.18612 0.91909
 H548 H 0.93481 1.16851 0.93114
 C549 C 0.89121 1.23022 0.88676
 C550 C 1.05973 0.82218 0.91461
 H551 H 1.05347 0.84374 0.92432
 C552 C 1.07660 0.76696 0.88817
 C553 C 1.16641 0.91225 0.90714
 H554 H 1.14527 0.92044 0.91643
 C555 C 1.22060 0.89061 0.88168
 C556 C 0.81981 1.09333 0.93682
 H557 H 0.84179 1.08431 0.94261
 C558 C 0.76352 1.11750 0.92056
 C559 C 1.06765 1.07311 0.81289
 H560 H 1.05493 1.06019 0.82942
 C561 C 1.10219 1.10875 0.77333
 C562 C 0.89648 0.92676 0.83402
 H563 H 0.90544 0.93252 0.85625
 C564 C 0.87271 0.91148 0.77661
 C565 C 1.17959 1.06673 0.90558
 H566 H 1.16029 1.05694 0.91718
 C567 C 1.22810 1.09387 0.87470
 C568 C 0.80889 0.93249 0.94175
 H569 H 0.83218 0.93890 0.94633
 C570 C 0.74913 0.91435 0.92904
 C571 C 1.07974 1.16614 0.90954
 H572 H 1.07366 1.14287 0.91385
 C573 C 1.09541 1.22648 0.89927
 C574 C 0.90334 0.82963 0.93072
 H575 H 0.91252 0.85145 0.93717
 C576 C 0.87844 0.77370 0.91344
 O577 O 1.12524 0.51883 0.63931
 O578 O 1.16380 0.51736 0.67119
 C579 C 1.13864 0.52855 0.66293
 C580 C 1.12534 0.55388 0.68022
 C581 C 1.13678 0.56187 0.70886
 H582 H 1.15462 0.54850 0.71880
 O583 O 0.91091 0.47361 0.65767
 O584 O 0.87899 0.47640 0.69613
 C585 C 0.90205 0.46475 0.68360
 C586 C 0.91817 0.44029 0.69932
 C587 C 0.91162 0.43406 0.72968
 H588 H 0.89542 0.44790 0.74175
 O589 O 1.05119 0.64670 0.60241
 O590 O 1.05727 0.68202 0.63738
 C591 C 1.06357 0.67104 0.61144
 C592 C 1.08557 0.68640 0.59143
 C593 C 1.09517 0.71613 0.59736
 H594 H 1.08602 0.72800 0.61676
 O595 O 0.97688 0.35077 0.61075
 O596 O 0.97834 0.31558 0.64588
 C597 C 0.96641 0.32673 0.62222
 C598 C 0.93967 0.31157 0.60880
 C599 C 0.92879 0.28528 0.62227
 H600 H 0.94084 0.27567 0.64130
 O601 O 1.16020 0.59994 0.51452
 O602 O 1.19661 0.63423 0.51284
 C603 C 1.18491 0.61086 0.52467
 C604 C 1.19904 0.59765 0.55189
 C605 C 1.21784 0.61589 0.57029
 H606 H 1.22315 0.63882 0.56374
 O607 O 0.85062 0.39187 0.54272
 O608 O 0.81336 0.35889 0.54743
 C609 C 0.82674 0.38294 0.55614
 C610 C 0.81489 0.40075 0.58226
 C611 C 0.78638 0.39420 0.59515
 H612 H 0.77270 0.37624 0.58552
 O613 O 0.99517 0.60814 0.64988
 O614 O 1.00107 0.64314 0.68523
 C615 C 0.98811 0.61931 0.67550
 C616 C 0.96384 0.60502 0.69361
 C617 C 0.95544 0.61733 0.72172
 H618 H 0.96779 0.63657 0.73069
 O619 O 1.04218 0.38760 0.64759
 O620 O 1.04306 0.35215 0.68251
 C621 C 1.05411 0.37593 0.67094
 C622 C 1.08185 0.38924 0.68417
 C623 C 1.09557 0.37563 0.70915
 H624 H 1.08497 0.35628 0.71978
 O625 O 1.16056 0.46054 0.59234
 O626 O 1.20002 0.45943 0.62302
 C627 C 1.18611 0.44981 0.59952
 C628 C 1.19904 0.42522 0.58078
 C629 C 1.22808 0.41396 0.58677
 H630 H 1.24172 0.42440 0.60437
 O631 O 0.86900 0.53349 0.61828
 O632 O 0.83679 0.53493 0.65658
 C633 C 0.84563 0.54444 0.63087
 C634 C 0.82810 0.56836 0.61585
 C635 C 0.79829 0.57327 0.62494
 H636 H 0.78848 0.55915 0.64241
 O637 O 0.90515 0.65580 0.53798
 O638 O 0.87204 0.69252 0.54215
 C639 C 0.89696 0.68054 0.54989
 C640 C 0.91626 0.69481 0.57365
 C641 C 0.90798 0.72231 0.58724
 H642 H 0.88781 0.73356 0.57943
 O643 O 1.10474 0.34357 0.51655
 O644 O 1.13716 0.30613 0.51326
 C645 C 1.11465 0.31845 0.52607
 C646 C 1.10080 0.30343 0.55279
 C647 C 1.11163 0.27532 0.56190
 H648 H 1.12895 0.26445 0.54842
 O649 O 0.91241 0.53258 0.65814
 O650 O 0.88010 0.53491 0.69627
 C651 C 0.90421 0.54393 0.68344
 C652 C 0.92251 0.56844 0.69753
 C653 C 0.91423 0.58123 0.72568
 H654 H 0.89492 0.57218 0.73775
 O655 O 1.12646 0.46025 0.64070
 O656 O 1.16572 0.45840 0.67158
 C657 C 1.13959 0.44914 0.66383
 C658 C 1.12425 0.42471 0.68103
 C659 C 1.13774 0.41080 0.70653
 H660 H 1.15962 0.41837 0.71482
 O661 O 1.03551 0.34576 0.60713
 O662 O 1.03696 0.31017 0.64187
 C663 C 1.04550 0.32064 0.61641
 C664 C 1.06780 0.30417 0.59742
 C665 C 1.07967 0.27617 0.60661
 H666 H 1.07197 0.26596 0.62753
 O667 O 0.99279 0.64964 0.60924
 O668 O 0.99892 0.68469 0.64449
 C669 C 0.98512 0.67460 0.62117
 C670 C 0.95940 0.69171 0.60838
 C671 C 0.95081 0.71923 0.62152
 H672 H 0.96387 0.72843 0.64026
 O673 O 0.86144 0.61673 0.54181
 O674 O 0.82747 0.65267 0.54615
 C675 C 0.83804 0.62742 0.55463
 C676 C 0.82374 0.60972 0.57957
 C677 C 0.79359 0.61463 0.58946
 H678 H 0.78006 0.63202 0.57905
 O679 O 1.14797 0.38314 0.51102
 O680 O 1.18042 0.34564 0.50831
 C681 C 1.17270 0.37116 0.51898
 C682 C 1.19230 0.38675 0.54136
 C683 C 1.22133 0.37587 0.54760
 H684 H 1.22971 0.35648 0.53524
 O685 O 0.98362 0.38930 0.65486
 O686 O 0.98440 0.35437 0.69028
 C687 C 0.97489 0.37949 0.68053
 C688 C 0.95304 0.39776 0.69834
 C689 C 0.94551 0.39123 0.72889
 H690 H 0.95584 0.37239 0.74040
 O691 O 1.05370 0.60540 0.64438
 O692 O 1.05973 0.64037 0.67970
 C693 C 1.06692 0.61509 0.66821
 C694 C 1.09085 0.59667 0.68260
 C695 C 1.10263 0.60437 0.71137
 H696 H 1.09390 0.62391 0.72312
 O697 O 0.86512 0.47439 0.62049
 O698 O 0.83331 0.47657 0.65905
 C699 C 0.84109 0.46534 0.63364
 C700 C 0.82205 0.44128 0.61965
 C701 C 0.79354 0.43445 0.63198
 H702 H 0.78535 0.44734 0.65123
 O703 O 1.16272 0.51968 0.59487
 O704 O 1.20144 0.51872 0.62659
 C705 C 1.18791 0.53035 0.60406
 C706 C 1.20036 0.55822 0.59043
 C707 C 1.21882 0.57694 0.60841
 H708 H 1.22525 0.56993 0.63105
 O709 O 0.88975 0.34897 0.53741
 O710 O 0.85291 0.31553 0.54201
 C711 C 0.87908 0.32526 0.54947
 C712 C 0.89696 0.30998 0.57338
 C713 C 0.88636 0.28339 0.58746
 H714 H 0.86539 0.27288 0.58006
 O715 O 1.12097 0.64252 0.51388
 O716 O 1.15740 0.67666 0.51050
 C717 C 1.13294 0.66722 0.52245
 C718 C 1.11886 0.68459 0.54730
 C719 C 1.12815 0.71423 0.55338
 H720 H 1.14484 0.72475 0.53878
 Cu721 Cu 1.13993 0.48958 0.61363
 Cu722 Cu 1.18678 0.48825 0.65108
 Cu723 Cu 0.89264 0.50331 0.63481
 Cu724 Cu 0.85406 0.50589 0.68079
 Cu725 Cu 1.02286 0.62395 0.62291
 Cu726 Cu 1.03006 0.66606 0.66526
 Cu727 Cu 1.00939 0.37197 0.62666
 Cu728 Cu 1.01069 0.32947 0.66866
 C729 C 1.10218 0.57121 0.66740
 H730 H 1.09350 0.56534 0.64509
 C731 C 1.12553 0.58692 0.72480
 C732 C 0.93917 0.42238 0.68397
 H733 H 0.94416 0.42726 0.66039
 C734 C 0.92505 0.40985 0.74475
 C735 C 1.09731 0.67098 0.56618
 H736 H 1.09038 0.64790 0.56176
 C737 C 1.11646 0.73031 0.57827
 C738 C 0.92387 0.32371 0.58414
 H739 H 0.93201 0.34444 0.57405
 C740 C 0.90227 0.27123 0.61220
 C741 C 1.19034 0.56880 0.56213
 H742 H 1.17491 0.55512 0.54866
 C743 C 1.22675 0.60599 0.59897
 C744 C 0.83243 0.42448 0.59464
 H745 H 0.85452 0.42954 0.58516
 C746 C 0.77543 0.41110 0.62003
 C747 C 0.94749 0.58038 0.68186
 H748 H 0.95366 0.57107 0.65993
 C749 C 0.93054 0.60590 0.73789
 C750 C 1.09612 0.41390 0.67046
 H751 H 1.08570 0.42405 0.65075
 C752 C 1.12335 0.38600 0.72040
 C753 C 1.18147 0.41163 0.55779
 H754 H 1.15883 0.41979 0.55336
 C755 C 1.23932 0.38911 0.57036
 C756 C 0.84061 0.58637 0.59300
 H757 H 0.86378 0.58241 0.58599
 C758 C 0.78065 0.59584 0.61194
 C759 C 0.94217 0.67984 0.58425
 H760 H 0.94843 0.65838 0.57432
 C761 C 0.92511 0.73470 0.61134
 C762 C 1.07856 0.31753 0.57043
 H763 H 1.07029 0.33938 0.56355
 C764 C 1.10179 0.26161 0.58886
 O765 O 1.10039 0.46279 0.34031
 O766 O 1.13106 0.46099 0.30081
 C767 C 1.10693 0.45239 0.31428
 C768 C 1.08640 0.42970 0.30009
 C769 C 1.09230 0.41827 0.27082
 H770 H 1.11164 0.42674 0.25839
 O771 O 0.87949 0.53227 0.36368
 O772 O 0.84169 0.53424 0.33096
 C773 C 0.86802 0.54265 0.33947
 C774 C 0.88568 0.56440 0.32089
 C775 C 0.87802 0.56929 0.29036
 H776 H 0.85921 0.55705 0.28024
 O777 O 0.97324 0.64677 0.39461
 O778 O 0.97170 0.68006 0.35768
 C779 C 0.96301 0.67107 0.38367
 C780 C 0.93965 0.68870 0.40010
 C781 C 0.92777 0.71419 0.38623
 H782 H 0.93740 0.72185 0.36498
 O783 O 1.01028 0.34845 0.38691
 O784 O 1.00556 0.31396 0.35088
 C785 C 1.01801 0.32343 0.37519
 C786 C 1.04204 0.30556 0.38985
 C787 C 1.04646 0.27520 0.38208
 H788 H 1.03178 0.26448 0.36546
 O789 O 1.14412 0.38019 0.45195
 O790 O 1.17599 0.34220 0.44961
 C791 C 1.16686 0.36735 0.43979
 C792 C 1.18280 0.38142 0.41374
 C793 C 1.20893 0.36824 0.40175
 H794 H 1.21785 0.34819 0.41233
 O795 O 0.85548 0.61675 0.48348
 O796 O 0.82201 0.65325 0.48736
 C797 C 0.83025 0.62818 0.47612
 C798 C 0.81062 0.61231 0.45391
 C799 C 0.78178 0.62339 0.44689
 H800 H 0.77356 0.64339 0.45834
 O801 O 1.02633 0.60123 0.34846
 O802 O 1.02407 0.63507 0.31206
 C803 C 1.03467 0.61068 0.32255
 C804 C 1.05778 0.59424 0.30455
 C805 C 1.06530 0.60458 0.27550
 H806 H 1.05310 0.62338 0.26597
 O807 O 0.95113 0.39333 0.35039
 O808 O 0.94671 0.35955 0.31368
 C809 C 0.93848 0.38407 0.32607
 C810 C 0.91338 0.40176 0.31290
 C811 C 0.90124 0.39493 0.28401
 H812 H 0.91095 0.37682 0.27078
 O813 O 1.15094 0.51669 0.37785
 O814 O 1.18303 0.51527 0.33947
 C815 C 1.17544 0.52529 0.36554
 C816 C 1.19448 0.54763 0.38197
 C817 C 1.22544 0.55155 0.37556
 H818 H 1.23612 0.53785 0.35822
 O819 O 0.83746 0.47528 0.40754
 O820 O 0.79909 0.47717 0.37556
 C821 C 0.81156 0.46591 0.39894
 C822 C 0.79657 0.44107 0.41605
 C823 C 0.76703 0.43089 0.40881
 H824 H 0.75435 0.44179 0.39097
 O825 O 1.11917 0.64071 0.45487
 O826 O 1.15679 0.67349 0.45160
 C827 C 1.13095 0.66405 0.44299
 C828 C 1.11456 0.68019 0.41874
 C829 C 1.12746 0.70558 0.40495
 H830 H 1.14940 0.71379 0.41244
 O831 O 0.88061 0.34816 0.47847
 O832 O 0.84376 0.31468 0.48210
 C833 C 0.86720 0.32461 0.46856
 C834 C 0.87891 0.31007 0.44028
 C835 C 0.86425 0.28516 0.42592
 H836 H 0.84428 0.27504 0.43598
 O837 O 0.87490 0.47414 0.36216
 O838 O 0.83663 0.47629 0.33000
 C839 C 0.86173 0.46507 0.33808
 C840 C 0.87567 0.44123 0.31930
 C841 C 0.86391 0.43425 0.29054
 H842 H 0.84482 0.44686 0.28201
 O843 O 1.10670 0.52096 0.33948
 O844 O 1.13786 0.52011 0.30037
 C845 C 1.11514 0.53137 0.31398
 C846 C 1.09816 0.55681 0.30041
 C847 C 1.10601 0.56844 0.27163
 H848 H 1.12472 0.55895 0.25897
 O849 O 0.95166 0.35227 0.39219
 O850 O 0.94728 0.31855 0.35543
 C851 C 0.93929 0.32865 0.38125
 C852 C 0.91470 0.31298 0.39788
 C853 C 0.90024 0.28830 0.38436
 H854 H 0.90836 0.27998 0.36269
 O855 O 1.03212 0.64657 0.38556
 O856 O 1.03031 0.68027 0.34898
 C857 C 1.04280 0.66999 0.37269
 C858 C 1.07090 0.68411 0.38485
 C859 C 1.08392 0.71009 0.37162
 H860 H 1.07263 0.72133 0.35305
 O861 O 0.84460 0.39339 0.48410
 O862 O 0.80730 0.36038 0.48841
 C863 C 0.81817 0.38446 0.47701
 C864 C 0.80015 0.40168 0.45469
 C865 C 0.77061 0.39248 0.44767
 H866 H 0.76080 0.37344 0.45948
 O867 O 1.15813 0.59711 0.45525
 O868 O 1.19597 0.62979 0.45355
 C869 C 1.18340 0.60557 0.44441
 C870 C 1.19802 0.58710 0.42073
 C871 C 1.22871 0.59113 0.41382
 H872 H 1.24202 0.60760 0.42634
 O873 O 1.01049 0.39193 0.34758
 O874 O 1.00569 0.35750 0.31155
 C875 C 1.01834 0.38119 0.32198
 C876 C 1.04287 0.39554 0.30410
 C877 C 1.04900 0.38479 0.27479
 H878 H 1.03486 0.36717 0.26512
 O879 O 0.96690 0.60575 0.35272
 O880 O 0.96522 0.63915 0.31582
 C881 C 0.95470 0.61574 0.32863
 C882 C 0.92790 0.60010 0.31554
 C883 C 0.91926 0.60527 0.28524
 H884 H 0.93237 0.62046 0.27114
 O885 O 0.84059 0.53448 0.40777
 O886 O 0.80238 0.53666 0.37561
 C887 C 0.81591 0.54631 0.39921
 C888 C 0.80346 0.57216 0.41640
 C889 C 0.77469 0.58365 0.40951
 H890 H 0.76094 0.57254 0.39242
 O891 O 1.14845 0.45843 0.37348
 O892 O 1.17979 0.45640 0.33457
 C893 C 1.17091 0.44641 0.36006
 C894 C 1.18563 0.42004 0.37445
 C895 C 1.21222 0.40654 0.36266
 H896 H 1.22321 0.41577 0.34275
 O897 O 1.09802 0.34369 0.45744
 O898 O 1.12992 0.30573 0.45468
 C899 C 1.10528 0.31813 0.44680
 C900 C 1.08491 0.30302 0.42477
 C901 C 1.08921 0.27274 0.41660
 H902 H 1.10721 0.26006 0.42713
 O903 O 0.89836 0.65626 0.47879
 O904 O 0.86532 0.69313 0.48175
 C905 C 0.88795 0.68089 0.46873
 C906 C 0.90222 0.69416 0.44097
 C907 C 0.89019 0.71973 0.42604
 H908 H 0.87052 0.73104 0.43517
 Cu909 Cu 1.12369 0.48988 0.36164
 Cu910 Cu 1.16096 0.48819 0.31478
 Cu911 Cu 0.86171 0.50381 0.38873
 Cu912 Cu 0.81596 0.50645 0.34999
 Cu913 Cu 1.13592 0.61662 0.48468
 Cu914 Cu 1.18053 0.65683 0.48167
 Cu915 Cu 1.12044 0.36641 0.48441
 Cu916 Cu 1.15905 0.32115 0.48122
 Cu917 Cu 0.88352 0.63297 0.51018
 Cu918 Cu 0.84359 0.67684 0.51486
 Cu919 Cu 0.87023 0.37362 0.51027
 Cu920 Cu 0.82568 0.33394 0.51543
 Cu921 Cu 0.99989 0.62175 0.37402
 Cu922 Cu 0.99753 0.66196 0.33002
 Cu923 Cu 0.98135 0.37501 0.37286
 Cu924 Cu 0.97593 0.33401 0.32920
 C925 C 1.06145 0.41826 0.31651
 H926 H 1.05700 0.42636 0.33934
 C927 C 1.07374 0.39555 0.25807
 C928 C 0.91099 0.57961 0.33317
 H929 H 0.91736 0.57573 0.35660
 C930 C 0.89480 0.58943 0.27239
 C931 C 0.92707 0.67901 0.42764
 H932 H 0.93605 0.65894 0.43813
 C933 C 0.90287 0.72949 0.39822
 C934 C 1.06117 0.31915 0.41145
 H935 H 1.05800 0.34265 0.41737
 C936 C 1.06996 0.25860 0.39539
 C937 C 1.17152 0.40735 0.40013
 H938 H 1.15104 0.41725 0.40921
 C939 C 1.22391 0.38034 0.37632
 C940 C 0.82112 0.58651 0.43878
 H941 H 0.84351 0.57805 0.44384
 C942 C 0.76368 0.60934 0.42465
 C943 C 1.07402 0.57002 0.31670
 H944 H 1.06830 0.56194 0.33917
 C945 C 1.08943 0.59227 0.25904
 C946 C 0.90055 0.42513 0.33015
 H947 H 0.90947 0.43033 0.35253
 C948 C 0.87649 0.41132 0.27253
 C949 C 1.18115 0.56532 0.40483
 H950 H 1.15728 0.56254 0.40989
 C951 C 1.24268 0.57325 0.39159
 C952 C 0.81279 0.42626 0.43912
 H953 H 0.83574 0.43332 0.44440
 C954 C 0.75389 0.40658 0.42475
 C955 C 1.08626 0.66977 0.40867
 H956 H 1.07654 0.64978 0.41892
 C957 C 1.11240 0.72074 0.38155
 C958 C 0.90421 0.32347 0.42595
 H959 H 0.91534 0.34284 0.43617
 C960 C 0.87488 0.27448 0.39754
 O961 O 0.45095 0.89192 0.35070
 O962 O 0.44815 0.85863 0.31334
 C963 C 0.43973 0.88312 0.32553
 C964 C 0.41633 0.90118 0.31037
 C965 C 0.40987 0.89642 0.27958
 H966 H 0.42272 0.88006 0.26663
 O967 O 0.52305 1.10049 0.34464
 O968 O 0.52187 1.13480 0.30860
 C969 C 0.53308 1.11095 0.31974
 C970 C 0.55921 1.09616 0.30465
 C971 C 0.57580 1.11146 0.28196
 H972 H 0.56885 1.13356 0.27444
 O973 O 0.33667 0.97408 0.40113
 O974 O 0.29832 0.97452 0.36903
 C975 C 0.31087 0.96431 0.39296
 C976 C 0.29568 0.94051 0.41124
 C977 C 0.26486 0.93410 0.40699
 H978 H 0.25177 0.94706 0.39091
 O979 O 0.64872 1.02014 0.38096
 O980 O 0.68169 1.01760 0.34337
 C981 C 0.67307 1.02908 0.36840
 C982 C 0.69051 1.05378 0.38305
 C983 C 0.72173 1.05814 0.37801
 H984 H 0.73386 1.04297 0.36306
 O985 O 0.37839 0.84606 0.47568
 O986 O 0.34148 0.81262 0.47901
 C987 C 0.36529 0.82226 0.46599
 C988 C 0.37773 0.80714 0.43842
 C989 C 0.36436 0.78109 0.42519
 H990 H 0.34507 0.77028 0.43586
 O991 O 0.61047 1.14893 0.45474
 O992 O 0.64641 1.18347 0.45145
 C993 C 0.62081 1.17314 0.44328
 C994 C 0.60285 1.18827 0.41950
 C995 C 0.61262 1.21518 0.40536
 H996 H 0.63341 1.22613 0.41258
 O997 O 0.37587 1.02973 0.35388
 O998 O 0.33867 1.03022 0.32040
 C999 C 0.36474 1.03915 0.32908
 C1000 C 0.38301 1.06057 0.31077
 C1001 C 0.37718 1.06608 0.27963
 H1002 H 0.35843 1.05497 0.26820
 O1003 O 0.60048 0.96230 0.34557
 O1004 O 0.63249 0.95952 0.30723
 C1005 C 0.60809 0.95106 0.32016
 C1006 C 0.58826 0.92789 0.30575
 C1007 C 0.59499 0.91642 0.27663
 H1008 H 0.61481 0.92462 0.26477
 O1009 O 0.50857 0.84537 0.38788
 O1010 O 0.50450 0.81177 0.35092
 C1011 C 0.51652 0.82067 0.37558
 C1012 C 0.54073 0.80260 0.38945
 C1013 C 0.54774 0.77403 0.37781
 H1014 H 0.53422 0.76463 0.35950
 O1015 O 0.46687 1.14308 0.38890
 O1016 O 0.46463 1.17699 0.35249
 C1017 C 0.45657 1.16761 0.37855
 C1018 C 0.43527 1.18550 0.39720
 C1019 C 0.43033 1.21597 0.39082
 H1020 H 0.44219 1.22668 0.37218
 O1021 O 0.35034 1.11222 0.47821
 O1022 O 0.31752 1.14929 0.48158
 C1023 C 0.32581 1.12449 0.46970
 C1024 C 0.30732 1.11032 0.44501
 C1025 C 0.28068 1.12408 0.43472
 H1026 H 0.27306 1.14450 0.44581
 O1027 O 0.63883 0.87826 0.45495
 O1028 O 0.67217 0.84145 0.45190
 C1029 C 0.66268 0.86701 0.44366
 C1030 C 0.68076 0.88452 0.42216
 C1031 C 0.71192 0.88004 0.42082
 H1032 H 0.72206 0.86267 0.43464
 O1033 O 0.46333 1.10072 0.34801
 O1034 O 0.46222 1.13426 0.31121
 C1035 C 0.45210 1.11043 0.32340
 C1036 C 0.42683 1.09430 0.30859
 C1037 C 0.42115 1.09910 0.27789
 H1038 H 0.43589 1.11403 0.26517
 O1039 O 0.51027 0.89016 0.35038
 O1040 O 0.50667 0.85631 0.31365
 C1041 C 0.51905 0.87975 0.32498
 C1042 C 0.54433 0.89411 0.30826
 C1043 C 0.55118 0.88356 0.27910
 H1044 H 0.53701 0.86632 0.26879
 O1045 O 0.64667 0.96160 0.38212
 O1046 O 0.67946 0.95904 0.34437
 C1047 C 0.67018 0.95020 0.37011
 C1048 C 0.68557 0.92567 0.38634
 C1049 C 0.71719 0.92080 0.38470
 H1050 H 0.73132 0.93516 0.37073
 O1051 O 0.33784 1.03322 0.39839
 O1052 O 0.30005 1.03445 0.36570
 C1053 C 0.31336 1.04494 0.38916
 C1054 C 0.30101 1.07156 0.40555
 C1055 C 0.27432 1.08576 0.39562
 H1056 H 0.26208 1.07661 0.37635
 O1057 O 0.39501 1.14996 0.47583
 O1058 O 0.36253 1.18740 0.47897
 C1059 C 0.38527 1.17504 0.46641
 C1060 C 0.40037 1.18937 0.44019
 C1061 C 0.39501 1.21965 0.43290
 H1062 H 0.37990 1.23315 0.44668
 O1063 O 0.59514 0.83880 0.45869
 O1064 O 0.62816 0.80192 0.45464
 C1065 C 0.60320 0.81385 0.44715
 C1066 C 0.58349 0.79919 0.42422
 C1067 C 0.59036 0.77061 0.41228
 H1068 H 0.60982 0.75876 0.42091
 O1069 O 0.60287 1.02072 0.34458
 O1070 O 0.63546 1.01859 0.30666
 C1071 C 0.61225 1.03024 0.31913
 C1072 C 0.59748 1.05638 0.30466
 C1073 C 0.61310 1.07175 0.28188
 H1074 H 0.63459 1.06323 0.27377
 O1075 O 0.37268 0.97203 0.35470
 O1076 O 0.33496 0.97225 0.32179
 C1077 C 0.36029 0.96203 0.33056
 C1078 C 0.37618 0.93862 0.31275
 C1079 C 0.36926 0.93289 0.28194
 H1080 H 0.35129 0.94509 0.27075
 O1081 O 0.52526 1.14400 0.38386
 O1082 O 0.52232 1.17784 0.34741
 C1083 C 0.53436 1.16833 0.37163
 C1084 C 0.55996 1.18534 0.38478
 C1085 C 0.56965 1.21204 0.37117
 H1086 H 0.55694 1.22102 0.35226
 O1087 O 0.44983 0.84941 0.39122
 O1088 O 0.44627 0.81634 0.35377
 C1089 C 0.43774 0.82601 0.37956
 C1090 C 0.41318 0.81004 0.39580
 C1091 C 0.39952 0.78452 0.38287
 H1092 H 0.40748 0.77588 0.36125
 O1093 O 0.64985 1.10597 0.45123
 O1094 O 0.68628 1.14023 0.44911
 C1095 C 0.67462 1.11554 0.44011
 C1096 C 0.69052 1.09706 0.41738
 C1097 C 0.72145 1.10157 0.41183
 H1098 H 0.73355 1.11942 0.42364
 O1099 O 0.34204 0.89127 0.47904
 O1100 O 0.30455 0.85847 0.48318
 C1101 C 0.31571 0.88232 0.47151
 C1102 C 0.29809 0.89991 0.44894
 C1103 C 0.26730 0.89339 0.44354
 H1104 H 0.25601 0.87543 0.45578
 Cu1105 Cu 0.48014 0.87261 0.37387
 Cu1106 Cu 0.47601 0.83249 0.32914
 Cu1107 Cu 0.49473 1.11846 0.36988
 Cu1108 Cu 0.49215 1.15910 0.32600
 Cu1109 Cu 0.35935 1.00223 0.38036
 Cu1110 Cu 0.31379 1.00286 0.34131
 Cu1111 Cu 0.62164 0.99124 0.36725
 Cu1112 Cu 0.66033 0.98833 0.32136
 C1113 C 0.39974 0.92259 0.32666
 H1114 H 0.40487 0.92639 0.35047
 C1115 C 0.38661 0.91216 0.26520
 C1116 C 0.57032 1.06856 0.31586
 H1117 H 0.55853 1.05721 0.33414
 C1118 C 0.60320 1.09960 0.27125
 C1119 C 0.31204 0.92358 0.43265
 H1120 H 0.33586 0.92846 0.43622
 C1121 C 0.25061 0.91076 0.42303
 C1122 C 0.67528 1.07329 0.40289
 H1123 H 0.65129 1.07000 0.40706
 C1124 C 0.73737 1.08201 0.39259
 C1125 C 0.40241 0.82094 0.42361
 H1126 H 0.41280 0.84099 0.43327
 C1127 C 0.37532 0.76988 0.39721
 C1128 C 0.57628 1.17390 0.40918
 H1129 H 0.56885 1.15294 0.41935
 C1130 C 0.59593 1.22706 0.38090
 C1131 C 0.40796 1.07486 0.32485
 H1132 H 0.41253 1.07126 0.34875
 C1133 C 0.39684 1.08505 0.26304
 C1134 C 0.56275 0.91657 0.32142
 H1135 H 0.55764 0.92466 0.34411
 C1136 C 0.57650 0.89405 0.26324
 C1137 C 0.55841 0.81479 0.41292
 H1138 H 0.55332 0.83709 0.42158
 C1139 C 0.57257 0.75783 0.38889
 C1140 C 0.42049 1.17248 0.42216
 H1141 H 0.42442 1.14900 0.42738
 C1142 C 0.41044 1.23308 0.40863
 C1143 C 0.31712 1.08394 0.43037
 H1144 H 0.33787 1.07341 0.43786
 C1145 C 0.26393 1.11213 0.41008
 C1146 C 0.66773 0.90739 0.40519
 H1147 H 0.64350 0.91095 0.40669
 C1148 C 0.73049 0.89824 0.40280
 O1149 O 0.53865 0.88917 0.64242
 O1150 O 0.54067 0.85621 0.67967
 C1151 C 0.55081 0.87984 0.66672
 C1152 C 0.57720 0.89669 0.67945
 C1153 C 0.58699 0.89242 0.70965
 H1154 H 0.57504 0.87680 0.72426
 O1155 O 0.48978 1.10550 0.65125
 O1156 O 0.49457 1.13986 0.68734
 C1157 C 0.48243 1.11578 0.67725
 C1158 C 0.45883 1.09995 0.69527
 C1159 C 0.45214 1.10873 0.72528
 H1160 H 0.46514 1.12665 0.73597
 O1161 O 0.36315 1.03158 0.61755
 O1162 O 0.33098 1.03295 0.65587
 C1163 C 0.34023 1.04304 0.63053
 C1164 C 0.32471 1.06912 0.61690
 C1165 C 0.30220 1.08391 0.63349
 H1166 H 0.29531 1.07537 0.65546
 O1167 O 0.66116 0.96296 0.58545
 O1168 O 0.69980 0.96167 0.61717
 C1169 C 0.68589 0.95127 0.59410
 C1170 C 0.69779 0.92450 0.57790
 C1171 C 0.72611 0.91234 0.58556
 H1172 H 0.74010 0.92369 0.60231
 O1173 O 0.60129 0.83934 0.51773
 O1174 O 0.63441 0.80252 0.51364
 C1175 C 0.61223 0.81471 0.52708
 C1176 C 0.60073 0.80108 0.55514
 C1177 C 0.61749 0.77841 0.56898
 H1178 H 0.63720 0.76924 0.55766
 O1179 O 0.39870 1.15085 0.53540
 O1180 O 0.36589 1.18794 0.53876
 C1181 C 0.39036 1.17567 0.54735
 C1182 C 0.40881 1.18964 0.57223
 C1183 C 0.39961 1.21657 0.58679
 H1184 H 0.37929 1.22776 0.57923
 O1185 O 0.40357 0.97065 0.65631
 O1186 O 0.37101 0.97185 0.69432
 C1187 C 0.39426 0.96073 0.68173
 C1188 C 0.41064 0.93586 0.69646
 C1189 C 0.40396 0.92715 0.72647
 H1190 H 0.38674 0.93883 0.73940
 O1191 O 0.62693 1.02397 0.63051
 O1192 O 0.66562 1.02269 0.66221
 C1193 C 0.64030 1.03357 0.65430
 C1194 C 0.62631 1.05765 0.67290
 C1195 C 0.63849 1.06554 0.70135
 H1196 H 0.65804 1.05360 0.70980
 O1197 O 0.47467 0.84889 0.60711
 O1198 O 0.47671 0.81464 0.64315
 C1199 C 0.46455 0.82492 0.61902
 C1200 C 0.43808 0.80921 0.60496
 C1201 C 0.42924 0.78060 0.61506
 H1202 H 0.44226 0.76969 0.63266
 O1203 O 0.54487 1.14669 0.60412
 O1204 O 0.54985 1.18128 0.63997
 C1205 C 0.55703 1.17090 0.61402
 C1206 C 0.58033 1.18639 0.59530
 C1207 C 0.59469 1.21315 0.60545
 H1208 H 0.58821 1.22318 0.62693
 O1209 O 0.34644 0.89090 0.53795
 O1210 O 0.30929 0.85781 0.54259
 C1211 C 0.32230 0.88212 0.55100
 C1212 C 0.30982 0.90047 0.57637
 C1213 C 0.28053 0.89505 0.58803
 H1214 H 0.26671 0.87738 0.57807
 O1215 O 0.65425 1.10513 0.50933
 O1216 O 0.69019 1.13987 0.50707
 C1217 C 0.68011 1.11500 0.51731
 C1218 C 0.69874 1.09753 0.53875
 C1219 C 0.72848 1.10660 0.54482
 H1220 H 0.73768 1.12603 0.53318
 O1221 O 0.54844 1.10333 0.64317
 O1222 O 0.55329 1.13767 0.67929
 C1223 C 0.56178 1.11324 0.66679
 C1224 C 0.58780 1.09642 0.67930
 C1225 C 0.60032 1.10406 0.70774
 H1226 H 0.59026 1.12207 0.72082
 O1227 O 0.47995 0.88907 0.64983
 O1228 O 0.48175 0.85516 0.68623
 C1229 C 0.47151 0.87959 0.67571
 C1230 C 0.44911 0.89678 0.69351
 C1231 C 0.44284 0.88896 0.72366
 H1232 H 0.45517 0.87082 0.73430
 O1233 O 0.66376 1.02231 0.58450
 O1234 O 0.70248 1.02114 0.61611
 C1235 C 0.68963 1.03199 0.59279
 C1236 C 0.70402 1.05695 0.57562
 C1237 C 0.73383 1.06686 0.58197
 H1238 H 0.74715 1.05538 0.59894
 O1239 O 0.36040 0.97275 0.61649
 O1240 O 0.32781 0.97447 0.65444
 C1241 C 0.33599 0.96389 0.62885
 C1242 C 0.31684 0.94081 0.61381
 C1243 C 0.28767 0.93527 0.62484
 H1244 H 0.27923 0.94865 0.64361
 O1245 O 0.61355 1.14646 0.51401
 O1246 O 0.64932 1.18126 0.51103
 C1247 C 0.62574 1.17060 0.52371
 C1248 C 0.61335 1.18599 0.55075
 C1249 C 0.62709 1.21255 0.56107
 H1250 H 0.64537 1.22252 0.54807
 O1251 O 0.38683 0.84878 0.53459
 O1252 O 0.35024 0.81504 0.53878
 C1253 C 0.37633 0.82493 0.54652
 C1254 C 0.39465 0.80913 0.56996
 C1255 C 0.38590 0.78063 0.58102
 H1256 H 0.36584 0.76956 0.57206
 O1257 O 0.62233 0.96579 0.62917
 O1258 O 0.66068 0.96471 0.66133
 C1259 C 0.63439 0.95581 0.65322
 C1260 C 0.61773 0.93395 0.67232
 C1261 C 0.62669 0.92974 0.70242
 H1262 H 0.64565 0.94258 0.71144
 O1263 O 0.40720 1.02928 0.65643
 O1264 O 0.37487 1.03020 0.69464
 C1265 C 0.39907 1.03952 0.68217
 C1266 C 0.41768 1.06292 0.69744
 C1267 C 0.41097 1.07231 0.72723
 H1268 H 0.39259 1.06172 0.73957
 O1269 O 0.48594 1.14528 0.60853
 O1270 O 0.49067 1.17987 0.64442
 C1271 C 0.47739 1.16974 0.62073
 C1272 C 0.45130 1.18629 0.60790
 C1273 C 0.44181 1.21303 0.62181
 H1274 H 0.45437 1.22188 0.64105
 O1275 O 0.53356 0.84378 0.60560
 O1276 O 0.53605 0.81045 0.64248
 C1277 C 0.54444 0.81971 0.61664
 C1278 C 0.56803 0.80337 0.59958
 C1279 C 0.58515 0.78040 0.61328
 H1280 H 0.58012 0.77315 0.63620
 O1281 O 0.64445 0.87827 0.51293
 O1282 O 0.67760 0.84137 0.50958
 C1283 C 0.66958 0.86670 0.52047
 C1284 C 0.68948 0.88284 0.54227
 C1285 C 0.71788 0.87116 0.55003
 H1286 H 0.72548 0.85038 0.53961
 O1287 O 0.35632 1.11045 0.53740
 O1288 O 0.32338 1.14740 0.54124
 C1289 C 0.33373 1.12236 0.55043
 C1290 C 0.32076 1.10769 0.57763
 C1291 C 0.29790 1.12197 0.59458
 H1292 H 0.28828 1.14296 0.58685
 Cu1293 Cu 0.50657 0.87102 0.62262
 Cu1294 Cu 0.50887 0.83077 0.66649
 Cu1295 Cu 0.51687 1.12173 0.62327
 Cu1296 Cu 0.52252 1.16315 0.66632
 Cu1297 Cu 0.36715 0.87233 0.50645
 Cu1298 Cu 0.32276 0.83258 0.51139
 Cu1299 Cu 0.61625 0.86221 0.48622
 Cu1300 Cu 0.65618 0.81779 0.48185
 Cu1301 Cu 0.37835 1.12726 0.50637
 Cu1302 Cu 0.33898 1.17166 0.51040
 Cu1303 Cu 0.62812 1.12337 0.48236
 Cu1304 Cu 0.67150 1.16497 0.47946
 Cu1305 Cu 0.38694 1.00089 0.63290
 Cu1306 Cu 0.34776 1.00246 0.67854
 Cu1307 Cu 0.63993 0.99402 0.60393
 Cu1308 Cu 0.68616 0.99232 0.64222
 C1309 C 0.59273 0.91766 0.66105
 H1310 H 0.58565 0.92100 0.63774
 C1311 C 0.61147 0.90944 0.72133
 C1312 C 0.44169 1.07673 0.68178
 H1313 H 0.44650 1.06994 0.65860
 C1314 C 0.42819 1.09505 0.74140
 C1315 C 0.33377 1.08101 0.58882
 H1316 H 0.35181 1.07014 0.57629
 C1317 C 0.28901 1.11034 0.62276
 C1318 C 0.67978 0.90968 0.55608
 H1319 H 0.65773 0.91862 0.55044
 C1320 C 0.73630 0.88559 0.57176
 C1321 C 0.57580 0.81322 0.57031
 H1322 H 0.56328 0.83133 0.55984
 C1323 C 0.61030 0.76833 0.59805
 C1324 C 0.43485 1.17485 0.58296
 H1325 H 0.44188 1.15394 0.57240
 C1326 C 0.41604 1.22834 0.61179
 C1327 C 0.43322 0.92051 0.68022
 H1328 H 0.43805 0.92667 0.65692
 C1329 C 0.42037 0.90394 0.74024
 C1330 C 0.60084 1.07304 0.66221
 H1331 H 0.59150 1.06720 0.64016
 C1332 C 0.62565 1.08857 0.71911
 C1333 C 0.42087 0.82311 0.58207
 H1334 H 0.42751 0.84527 0.57420
 C1335 C 0.40328 0.76614 0.60337
 C1336 C 0.58974 1.17318 0.56774
 H1337 H 0.57942 1.15230 0.56000
 C1338 C 0.61831 1.22618 0.58834
 C1339 C 0.32768 0.92360 0.58936
 H1340 H 0.35039 0.92775 0.58096
 C1341 C 0.26924 0.91261 0.61232
 C1342 C 0.68681 1.07241 0.55383
 H1343 H 0.66367 1.06548 0.54926
 C1344 C 0.74621 1.09179 0.56647
 O1345 O 0.62380 0.52466 1.13132
 O1346 O 0.66209 0.52215 1.16343
 C1347 C 0.63728 0.53390 1.15519
 C1348 C 0.62421 0.55852 1.17370
 C1349 C 0.63613 0.56492 1.20258
 H1350 H 0.65450 0.55141 1.21128
 O1351 O 0.40149 0.47716 1.15855
 O1352 O 0.37008 0.47814 1.19753
 C1353 C 0.39264 0.46683 1.18398
 C1354 C 0.40849 0.44129 1.19789
 C1355 C 0.40195 0.43297 1.22793
 H1356 H 0.38563 0.44551 1.24124
 O1357 O 0.54636 0.65229 1.10470
 O1358 O 0.55292 0.68663 1.14053
 C1359 C 0.55940 0.67606 1.11437
 C1360 C 0.58287 0.69068 1.09503
 C1361 C 0.59462 0.71952 1.10199
 H1362 H 0.58593 0.73162 1.12147
 O1363 O 0.46961 0.35034 1.10873
 O1364 O 0.47166 0.31557 1.14426
 C1365 C 0.45963 0.32606 1.12026
 C1366 C 0.43368 0.31023 1.10546
 C1367 C 0.42825 0.27941 1.11025
 H1368 H 0.44323 0.26680 1.12488
 O1369 O 0.65929 0.60548 1.01237
 O1370 O 0.69682 0.63836 1.00925
 C1371 C 0.68562 0.61436 1.02021
 C1372 C 0.70288 0.59625 1.04234
 C1373 C 0.73334 0.60290 1.04948
 H1374 H 0.74489 0.62168 1.03884
 O1375 O 0.34519 0.39729 1.04122
 O1376 O 0.30714 0.36516 1.04557
 C1377 C 0.32085 0.38910 1.05412
 C1378 C 0.30860 0.40761 1.07938
 C1379 C 0.27943 0.40197 1.09076
 H1380 H 0.26582 0.38438 1.08043
 O1381 O 0.49104 0.61250 1.15241
 O1382 O 0.49795 0.64551 1.18946
 C1383 C 0.48469 0.62216 1.17887
 C1384 C 0.46119 0.60615 1.19689
 C1385 C 0.45664 0.61262 1.22798
 H1386 H 0.47071 0.62915 1.23956
 O1387 O 0.53405 0.39019 1.14401
 O1388 O 0.53603 0.35670 1.18077
 C1389 C 0.54623 0.38045 1.16819
 C1390 C 0.57274 0.39704 1.18105
 C1391 C 0.58307 0.39223 1.21107
 H1392 H 0.57143 0.37628 1.22555
 O1393 O 0.65751 0.46273 1.08690
 O1394 O 0.69557 0.46050 1.11927
 C1395 C 0.68204 0.45072 1.09574
 C1396 C 0.69448 0.42460 1.07900
 C1397 C 0.72319 0.41315 1.08623
 H1398 H 0.73686 0.42447 1.10326
 O1399 O 0.35910 0.53902 1.12391
 O1400 O 0.32834 0.53996 1.16339
 C1401 C 0.33669 0.55037 1.13800
 C1402 C 0.32132 0.57692 1.12547
 C1403 C 0.29884 0.59184 1.14233
 H1404 H 0.29108 0.58288 1.16383
 O1405 O 0.40144 0.65703 1.04341
 O1406 O 0.36760 0.69328 1.04653
 C1407 C 0.39246 0.68167 1.05495
 C1408 C 0.40957 0.69577 1.08025
 C1409 C 0.39484 0.71637 1.09917
 H1410 H 0.37221 0.72385 1.09354
 O1411 O 0.60071 0.34001 1.01670
 O1412 O 0.63331 0.30279 1.01296
 C1413 C 0.61094 0.31509 1.02624
 C1414 C 0.59680 0.30118 1.05351
 C1415 C 0.60602 0.27282 1.06458
 H1416 H 0.62339 0.26015 1.05287
 O1417 O 0.40737 0.53598 1.15746
 O1418 O 0.37659 0.53649 1.19693
 C1419 C 0.40047 0.54586 1.18366
 C1420 C 0.42020 0.56862 1.19881
 C1421 C 0.41640 0.57512 1.22972
 H1422 H 0.39941 0.56308 1.24273
 O1423 O 0.61826 0.46619 1.13063
 O1424 O 0.65639 0.46428 1.16299
 C1425 C 0.63003 0.45593 1.15474
 C1426 C 0.61317 0.43428 1.17383
 C1427 C 0.62266 0.42958 1.20367
 H1428 H 0.64193 0.44215 1.21242
 O1429 O 0.52853 0.34789 1.10339
 O1430 O 0.53064 0.31404 1.13980
 C1431 C 0.53888 0.32337 1.11381
 C1432 C 0.56108 0.30563 1.09591
 C1433 C 0.56992 0.27715 1.10594
 H1434 H 0.55982 0.26785 1.12630
 O1435 O 0.48780 0.65524 1.11340
 O1436 O 0.49355 0.68857 1.15034
 C1437 C 0.47933 0.67903 1.12704
 C1438 C 0.45160 0.69440 1.11644
 C1439 C 0.43586 0.71454 1.13566
 H1440 H 0.44470 0.72024 1.15794
 O1441 O 0.35672 0.61948 1.04813
 O1442 O 0.32311 0.65596 1.05101
 C1443 C 0.33385 0.63144 1.06085
 C1444 C 0.32048 0.61718 1.08802
 C1445 C 0.29876 0.63231 1.10562
 H1446 H 0.29066 0.65424 1.09878
 O1447 O 0.64309 0.37982 1.01186
 O1448 O 0.67629 0.34302 1.00842
 C1449 C 0.66813 0.36821 1.01951
 C1450 C 0.68759 0.38409 1.04186
 C1451 C 0.71636 0.37304 1.04922
 H1452 H 0.72467 0.35296 1.03798
 O1453 O 0.47525 0.39219 1.15002
 O1454 O 0.47697 0.35794 1.18607
 C1455 C 0.46694 0.38269 1.17594
 C1456 C 0.44512 0.40046 1.19423
 C1457 C 0.43897 0.39307 1.22466
 H1458 H 0.45082 0.37464 1.23534
 O1459 O 0.54931 0.60947 1.14435
 O1460 O 0.55647 0.64309 1.18078
 C1461 C 0.56346 0.61837 1.16790
 C1462 C 0.58839 0.59979 1.18013
 C1463 C 0.60074 0.60589 1.20902
 H1464 H 0.59169 0.62426 1.22236
 O1465 O 0.35824 0.48031 1.11912
 O1466 O 0.32675 0.48145 1.15802
 C1467 C 0.33425 0.47114 1.13204
 C1468 C 0.31512 0.44788 1.11707
 C1469 C 0.28594 0.44184 1.12809
 H1470 H 0.27727 0.45486 1.14702
 O1471 O 0.66137 0.52181 1.08599
 O1472 O 0.69955 0.51909 1.11820
 C1473 C 0.68756 0.53026 1.09463
 C1474 C 0.70385 0.55407 1.07775
 C1475 C 0.73438 0.56036 1.08387
 H1476 H 0.74664 0.54679 1.10010
 O1477 O 0.38207 0.35241 1.03771
 O1478 O 0.34475 0.31941 1.04196
 C1479 C 0.37117 0.32854 1.04928
 C1480 C 0.38985 0.31152 1.07126
 C1481 C 0.38428 0.28081 1.07699
 H1482 H 0.36576 0.26923 1.06563
 O1483 O 0.61794 0.64634 1.01692
 O1484 O 0.65499 0.67972 1.01332
 C1485 C 0.63078 0.67035 1.02602
 C1486 C 0.61763 0.68742 1.05178
 C1487 C 0.62883 0.71609 1.05897
 H1488 H 0.64657 0.72578 1.04505
 Cu1489 Cu 0.63652 0.49410 1.10525
 Cu1490 Cu 0.68226 0.49123 1.14415
 Cu1491 Cu 0.38466 0.50809 1.13584
 Cu1492 Cu 0.34735 0.50908 1.18283
 Cu1493 Cu 0.51805 0.62917 1.12503
 Cu1494 Cu 0.52614 0.66949 1.16881
 Cu1495 Cu 0.50163 0.37357 1.12302
 Cu1496 Cu 0.50395 0.33263 1.16631
 C1497 C 0.60014 0.57587 1.16274
 H1498 H 0.59095 0.57111 1.14038
 C1499 C 0.62453 0.58833 1.22057
 C1500 C 0.43000 0.42493 1.18119
 H1501 H 0.43464 0.43100 1.15783
 C1502 C 0.41742 0.40929 1.24154
 C1503 C 0.59443 0.67499 1.06969
 H1504 H 0.58592 0.65263 1.06432
 C1505 C 0.61758 0.73248 1.08381
 C1506 C 0.41456 0.32592 1.08562
 H1507 H 0.41880 0.34963 1.08150
 C1508 C 0.40382 0.26449 1.09590
 C1509 C 0.68845 0.57180 1.05663
 H1510 H 0.66483 0.56695 1.05187
 C1511 C 0.74922 0.58464 1.06994
 C1512 C 0.32621 0.43084 1.09251
 H1513 H 0.34887 0.43518 1.08410
 C1514 C 0.26787 0.41903 1.11513
 C1515 C 0.44286 0.58405 1.18262
 H1516 H 0.44590 0.57913 1.15868
 C1517 C 0.43455 0.59673 1.24447
 C1518 C 0.58798 0.41829 1.16275
 H1519 H 0.58062 0.42200 1.13959
 C1520 C 0.60790 0.40898 1.22259
 C1521 C 0.67698 0.41005 1.05666
 H1522 H 0.65466 0.41852 1.05134
 C1523 C 0.73432 0.38734 1.07144
 C1524 C 0.33145 0.58940 1.09806
 H1525 H 0.34888 0.57804 1.08511
 C1526 C 0.28791 0.61968 1.13269
 C1527 C 0.43823 0.68531 1.08873
 H1528 H 0.44940 0.66880 1.07446
 C1529 C 0.40717 0.72500 1.12718
 C1530 C 0.57429 0.31726 1.06945
 H1531 H 0.56748 0.33931 1.06164
 C1532 C 0.59222 0.26060 1.09064
 O1533 O 0.58858 0.46509 0.84048
 O1534 O 0.62007 0.46330 0.80165
 C1535 C 0.59611 0.45429 0.81480
 C1536 C 0.57734 0.43038 0.80048
 C1537 C 0.58530 0.41858 0.77191
 H1538 H 0.60436 0.42813 0.75984
 O1539 O 0.37691 0.53751 0.86272
 O1540 O 0.33772 0.53997 0.83173
 C1541 C 0.36352 0.54948 0.84032
 C1542 C 0.37716 0.57580 0.82508
 C1543 C 0.35997 0.59246 0.80438
 H1544 H 0.33729 0.58512 0.79834
 O1545 O 0.46665 0.65538 0.89822
 O1546 O 0.46524 0.69057 0.86306
 C1547 C 0.45703 0.68061 0.88885
 C1548 C 0.43531 0.69773 0.90793
 C1549 C 0.42846 0.72811 0.90210
 H1550 H 0.43997 0.74007 0.88404
 O1551 O 0.50512 0.34741 0.88753
 O1552 O 0.49968 0.31340 0.85116
 C1553 C 0.51294 0.32277 0.87507
 C1554 C 0.53837 0.30532 0.88783
 C1555 C 0.54660 0.27772 0.87467
 H1556 H 0.53334 0.26860 0.85603
 O1557 O 0.63753 0.37942 0.95350
 O1558 O 0.67146 0.34332 0.94971
 C1559 C 0.66109 0.36856 0.94112
 C1560 C 0.67636 0.38607 0.91684
 C1561 C 0.70722 0.38176 0.90981
 H1562 H 0.72020 0.36495 0.92180
 O1563 O 0.35244 0.61655 0.98899
 O1564 O 0.31887 0.65302 0.99206
 C1565 C 0.32735 0.62790 0.98110
 C1566 C 0.30812 0.61224 0.95838
 C1567 C 0.27932 0.62343 0.95147
 H1568 H 0.27087 0.64292 0.96363
 O1569 O 0.51709 0.60878 0.85120
 O1570 O 0.51516 0.64317 0.81527
 C1571 C 0.52500 0.61814 0.82517
 C1572 C 0.54653 0.60027 0.80656
 C1573 C 0.55369 0.60943 0.77700
 H1574 H 0.54259 0.62892 0.76750
 O1575 O 0.44565 0.39319 0.85243
 O1576 O 0.43993 0.35900 0.81628
 C1577 C 0.43263 0.38397 0.82835
 C1578 C 0.40853 0.40237 0.81449
 C1579 C 0.39676 0.39486 0.78578
 H1580 H 0.40608 0.37584 0.77364
 O1581 O 0.63791 0.52143 0.87758
 O1582 O 0.66896 0.51992 0.83834
 C1583 C 0.66176 0.53049 0.86417
 C1584 C 0.68105 0.55397 0.87841
 C1585 C 0.70978 0.56055 0.86651
 H1586 H 0.71812 0.54772 0.84729
 O1587 O 0.33812 0.47878 0.90708
 O1588 O 0.29940 0.48144 0.87552
 C1589 C 0.31186 0.47025 0.89886
 C1590 C 0.29543 0.44685 0.91604
 C1591 C 0.26494 0.44143 0.90960
 H1592 H 0.25357 0.45507 0.89282
 O1593 O 0.61509 0.64901 0.95791
 O1594 O 0.65237 0.68204 0.95378
 C1595 C 0.62618 0.67275 0.94613
 C1596 C 0.60847 0.68871 0.92264
 C1597 C 0.62008 0.71430 0.90753
 H1598 H 0.64197 0.72364 0.91374
 O1599 O 0.37567 0.35159 0.97899
 O1600 O 0.33833 0.31855 0.98282
 C1601 C 0.36256 0.32756 0.97006
 C1602 C 0.37603 0.31066 0.94434
 C1603 C 0.37051 0.27960 0.93963
 H1604 H 0.35590 0.26720 0.95494
 O1605 O 0.37360 0.47841 0.85998
 O1606 O 0.33501 0.48096 0.82829
 C1607 C 0.36000 0.46929 0.83613
 C1608 C 0.37312 0.44426 0.81805
 C1609 C 0.36150 0.43639 0.78928
 H1610 H 0.34321 0.44942 0.77971
 O1611 O 0.59171 0.52399 0.84140
 O1612 O 0.62261 0.52233 0.80208
 C1613 C 0.60005 0.53393 0.81567
 C1614 C 0.58364 0.55963 0.80187
 C1615 C 0.59092 0.56973 0.77244
 H1616 H 0.60810 0.55827 0.75927
 O1617 O 0.44626 0.35071 0.89276
 O1618 O 0.44111 0.31617 0.85682
 C1619 C 0.43388 0.32673 0.88268
 C1620 C 0.41120 0.31081 0.90147
 C1621 C 0.40553 0.28007 0.89704
 H1622 H 0.41761 0.26789 0.87946
 O1623 O 0.52530 0.65161 0.89058
 O1624 O 0.52345 0.68600 0.85465
 C1625 C 0.53607 0.67502 0.87794
 C1626 C 0.56414 0.68920 0.88946
 C1627 C 0.57613 0.71429 0.87456
 H1628 H 0.56400 0.72409 0.85567
 O1629 O 0.33768 0.39549 0.98281
 O1630 O 0.29961 0.36333 0.98636
 C1631 C 0.31124 0.38703 0.97499
 C1632 C 0.29456 0.40531 0.95230
 C1633 C 0.26395 0.39942 0.94458
 H1634 H 0.25177 0.38099 0.95513
 O1635 O 0.65115 0.60350 0.95409
 O1636 O 0.68897 0.63602 0.95045
 C1637 C 0.67551 0.61212 0.94148
 C1638 C 0.68785 0.59417 0.91592
 C1639 C 0.71659 0.60054 0.90368
 H1640 H 0.73014 0.61839 0.91366
 O1641 O 0.50425 0.38957 0.84723
 O1642 O 0.49850 0.35558 0.81089
 C1643 C 0.51153 0.37905 0.82135
 C1644 C 0.53601 0.39370 0.80366
 C1645 C 0.54432 0.38222 0.77508
 H1646 H 0.53202 0.36321 0.76556
 O1647 O 0.45851 0.61474 0.85647
 O1648 O 0.45678 0.64992 0.82131
 C1649 C 0.44594 0.62635 0.83336
 C1650 C 0.41759 0.61326 0.82132
 C1651 C 0.40035 0.62924 0.79998
 H1652 H 0.40859 0.65042 0.79094
 O1653 O 0.33979 0.53742 0.90800
 O1654 O 0.30073 0.53967 0.87681
 C1655 C 0.31457 0.54887 0.90047
 C1656 C 0.30175 0.57377 0.91891
 C1657 C 0.27298 0.58547 0.91221
 H1658 H 0.25957 0.57520 0.89433
 O1659 O 0.63390 0.46261 0.87799
 O1660 O 0.66576 0.46153 0.83938
 C1661 C 0.65713 0.45167 0.86508
 C1662 C 0.67429 0.42734 0.88023
 C1663 C 0.70506 0.42306 0.87388
 H1664 H 0.71631 0.43768 0.85773
 O1665 O 0.59325 0.34092 0.95768
 O1666 O 0.62638 0.30424 0.95307
 C1667 C 0.60136 0.31623 0.94564
 C1668 C 0.58177 0.30202 0.92214
 C1669 C 0.58971 0.27444 0.90857
 H1670 H 0.60983 0.26308 0.91630
 O1671 O 0.39429 0.65762 0.98455
 O1672 O 0.36086 0.69423 0.98768
 C1673 C 0.38391 0.68255 0.97524
 C1674 C 0.39883 0.69809 0.94972
 C1675 C 0.39163 0.72804 0.94302
 H1676 H 0.37517 0.74011 0.95661
 Cu1677 Cu 0.60987 0.49342 0.86324
 Cu1678 Cu 0.64738 0.49152 0.81638
 Cu1679 Cu 0.36115 0.50769 0.88745
 Cu1680 Cu 0.31438 0.51054 0.84981
 Cu1681 Cu 0.63218 0.62285 0.98567
 Cu1682 Cu 0.67699 0.66244 0.98141
 Cu1683 Cu 0.61521 0.36351 0.98524
 Cu1684 Cu 0.65501 0.31942 0.98051
 Cu1685 Cu 0.37957 0.63397 1.01587
 Cu1686 Cu 0.33927 0.67784 1.01940
 Cu1687 Cu 0.36389 0.37732 1.00969
 Cu1688 Cu 0.31860 0.33838 1.01472
 Cu1689 Cu 0.49196 0.62918 0.87774
 Cu1690 Cu 0.49008 0.67086 0.83498
 Cu1691 Cu 0.47576 0.37364 0.87366
 Cu1692 Cu 0.46911 0.33261 0.83014
 C1693 C 0.55251 0.41796 0.81608
 H1694 H 0.54659 0.42662 0.83835
 C1695 C 0.56913 0.39426 0.75916
 C1696 C 0.40602 0.58632 0.83341
 H1697 H 0.41903 0.57412 0.85015
 C1698 C 0.37133 0.61921 0.79197
 C1699 C 0.42061 0.68313 0.93210
 H1700 H 0.42573 0.65980 0.93692
 C1701 C 0.40664 0.74321 0.91971
 C1702 C 0.55587 0.31712 0.91178
 H1703 H 0.54988 0.33867 0.92168
 C1704 C 0.57228 0.26212 0.88465
 C1705 C 0.66023 0.40894 0.90193
 H1706 H 0.63652 0.41240 0.90718
 C1707 C 0.72187 0.40076 0.88884
 C1708 C 0.31903 0.58718 0.94224
 H1709 H 0.34146 0.57873 0.94717
 C1710 C 0.26165 0.61045 0.92832
 C1711 C 0.56133 0.57505 0.81868
 H1712 H 0.55606 0.56793 0.84160
 C1713 C 0.57590 0.59456 0.75985
 C1714 C 0.39680 0.42723 0.83027
 H1715 H 0.40563 0.43286 0.85258
 C1716 C 0.37330 0.41177 0.77280
 C1717 C 0.67039 0.57069 0.90325
 H1718 H 0.64806 0.56585 0.91228
 C1719 C 0.72780 0.58372 0.87891
 C1720 C 0.30998 0.42912 0.93774
 H1721 H 0.33364 0.43349 0.94272
 C1722 C 0.24903 0.41786 0.92332
 C1723 C 0.58025 0.67667 0.91362
 H1724 H 0.57123 0.65682 0.92472
 C1725 C 0.60393 0.72687 0.88317
 C1726 C 0.39638 0.32589 0.92510
 H1727 H 0.40085 0.34971 0.92860
 C1728 C 0.38578 0.26420 0.91622
 N1729 N 1.08155 1.08241 1.28285
 N1730 N 1.08608 1.09195 1.31095
 C1731 C 1.11576 1.09885 1.31363
 C1732 C 1.12950 1.09300 1.28585
 N1733 N 1.10711 1.08311 1.26723
 H1734 H 1.15188 1.10000 1.27858
 N1735 N 1.16065 0.57953 0.76688
 N1736 N 1.16735 0.59094 0.79392
 C1737 C 1.14807 0.61383 0.79876
 C1738 C 1.12930 0.61618 0.77382
 N1739 N 1.13789 0.59430 0.75430
 H1740 H 1.11129 0.63222 0.77050
 N1741 N 0.66319 1.08281 0.75950
 N1742 N 0.67025 1.09413 0.78653
 C1743 C 0.64944 1.11532 0.79282
 C1744 C 0.62937 1.11664 0.76879
 N1745 N 0.63874 1.09598 0.74832
 H1746 H 0.61006 1.13134 0.76664
 N1747 N 0.66127 0.57962 1.26107
 N1748 N 0.66797 0.58918 1.28885
 C1749 C 0.64735 0.61026 1.29599
 C1750 C 0.62783 0.61341 1.27177
 N1751 N 0.63729 0.59388 1.25028
 H1752 H 0.60878 0.62850 1.27020
 N1753 N 0.88357 0.93292 1.28441
 N1754 N 0.87141 0.92207 1.30945
 C1755 C 0.87749 0.89242 1.30985
 C1756 C 0.89433 0.88537 1.28410
 N1757 N 0.89720 0.91146 1.26858
 H1758 H 0.90156 0.86336 1.27639
 N1759 N 0.90969 0.42783 0.79416
 N1760 N 0.89327 0.41847 0.81740
 C1761 C 0.88989 0.38848 0.81410
 C1762 C 0.90536 0.37957 0.78812
 N1763 N 0.91698 0.40505 0.77604
 H1764 H 0.90444 0.35779 0.77694
 N1765 N 0.43700 0.88615 0.78943
 N1766 N 0.42554 0.87639 0.81533
 C1767 C 0.39527 0.87967 0.81351
 C1768 C 0.38843 0.89208 0.78560
 N1769 N 0.41520 0.89563 0.77126
 H1770 H 0.36629 0.89615 0.77593
 N1771 N 0.43514 0.39568 1.29154
 N1772 N 0.42430 0.38621 1.31778
 C1773 C 0.39377 0.38715 1.31604
 C1774 C 0.38613 0.39813 1.28765
 N1775 N 0.41273 0.40262 1.27302
 H1776 H 0.36386 0.39921 1.27741
 N1777 N 0.85997 1.06993 0.72474
 N1778 N 0.85074 1.07912 0.69774
 C1779 C 0.86199 1.10713 0.69415
 C1780 C 0.87875 1.11477 0.71969
 N1781 N 0.87678 1.09091 0.73831
 H1782 H 0.89001 1.13596 0.72475
 N1783 N 0.88087 0.56796 0.22355
 N1784 N 0.87413 0.57651 0.19565
 C1785 C 0.87745 0.60673 0.19473
 C1786 C 0.88665 0.61654 0.22323
 N1787 N 0.88834 0.59156 0.24051
 H1788 H 0.88983 0.63949 0.23112
 N1789 N 0.41775 1.09505 0.21354
 N1790 N 0.41013 1.10895 0.18824
 C1791 C 0.38005 1.11333 0.18956
 C1792 C 0.36923 1.10107 0.21644
 N1793 N 0.39374 1.09024 0.23098
 H1794 H 0.34674 1.10314 0.22601
 N1795 N 0.32259 0.63883 0.77643
 N1796 N 0.31032 0.65300 0.75318
 C1797 C 0.33314 0.66056 0.73429
 C1798 C 0.35996 0.65060 0.74672
 N1799 N 0.35229 0.63698 0.77289
 H1800 H 0.38219 0.65039 0.73633
 N1801 N 1.06252 0.85991 0.71788
 N1802 N 1.07569 0.84959 0.69292
 C1803 C 1.10193 0.86491 0.68998
 C1804 C 1.10444 0.88502 0.71392
 N1805 N 1.07933 0.88119 0.73097
 H1806 H 1.12321 0.90010 0.71874
 N1807 N 1.06514 0.35853 0.21773
 N1808 N 1.07816 0.34826 0.19268
 C1809 C 1.10282 0.36564 0.18812
 C1810 C 1.10446 0.38698 0.21095
 N1811 N 1.08058 0.38168 0.22921
 H1812 H 1.12213 0.40363 0.21448
 N1813 N 0.56942 0.85606 0.22373
 N1814 N 0.58197 0.84663 0.19815
 C1815 C 0.60510 0.86565 0.19246
 C1816 C 0.60634 0.88715 0.21521
 N1817 N 0.58371 0.88024 0.23449
 H1818 H 0.62270 0.90524 0.21780
 N1819 N 0.56249 0.35975 0.71626
 N1820 N 0.57790 0.34905 0.69281
 C1821 C 0.60472 0.36371 0.69257
 C1822 C 0.60531 0.38378 0.71655
 N1823 N 0.57850 0.38060 0.73093
 H1824 H 0.62416 0.39783 0.72367
 N1825 N 1.24644 1.11524 1.14927
 N1826 N 1.27120 1.12620 1.16212
 C1827 C 1.28844 1.13762 1.13970
 C1828 C 1.27317 1.13353 1.11236
 N1829 N 1.24726 1.11879 1.11942
 H1830 H 1.28206 1.13649 1.08964
 N1831 N 1.22882 0.62765 0.64923
 N1832 N 1.24701 0.64425 0.66633
 C1833 C 1.26948 0.65433 0.64821
 C1834 C 1.26422 0.64370 0.61900
 N1835 N 1.23884 0.62669 0.62094
 H1836 H 1.27908 0.64498 0.59948
 N1837 N 0.78863 1.12546 0.55698
 N1838 N 0.81215 1.13736 0.57131
 C1839 C 0.81451 1.12276 0.59791
 C1840 C 0.79182 1.10113 0.59933
 N1841 N 0.77578 1.10394 0.57341
 H1842 H 0.78574 1.08730 0.61859
 N1843 N 0.80047 0.56865 1.08042
 N1844 N 0.82473 0.57871 1.09502
 C1845 C 0.81985 0.60799 1.10147
 C1846 C 0.79171 0.61567 1.09018
 N1847 N 0.78036 0.59042 1.07726
 H1848 H 0.77927 0.63623 1.09435
 N1849 N 1.25444 0.88806 0.83853
 N1850 N 1.28258 0.88104 0.83149
 C1851 C 1.29485 0.86812 0.85614
 C1852 C 1.27280 0.86713 0.87882
 N1853 N 1.24794 0.88037 0.86685
 H1854 H 1.27547 0.86020 0.90221
 N1855 N 1.25353 0.33528 0.36980
 N1856 N 1.28170 0.32699 0.36462
 C1857 C 1.29704 0.35160 0.35541
 C1858 C 1.27685 0.37565 0.35483
 N1859 N 1.24994 0.36441 0.36464
 H1860 H 1.28214 0.39928 0.35171
 N1861 N 0.77597 0.88141 0.42834
 N1862 N 0.80365 0.87230 0.42163
 C1863 C 0.80811 0.87901 0.39223
 C1864 C 0.78233 0.89264 0.38103
 N1865 N 0.76265 0.89350 0.40433
 H1866 H 0.77723 0.89809 0.35764
 N1867 N 0.77045 0.42394 0.87777
 N1868 N 0.79850 0.41652 0.87064
 C1869 C 0.80033 0.38628 0.87248
 C1870 C 0.77219 0.37528 0.88149
 N1871 N 0.75413 0.39965 0.88414
 H1872 H 0.76493 0.35201 0.88326
 N1873 N 0.72181 0.93820 1.14472
 N1874 N 0.69558 0.92614 1.15298
 C1875 C 0.69282 0.90002 1.13748
 C1876 C 0.71801 0.89638 1.11951
 N1877 N 0.73572 0.92070 1.12468
 H1878 H 0.72318 0.87726 1.10515
 N1879 N 0.73305 0.42315 0.65364
 N1880 N 0.70655 0.41203 0.66242
 C1881 C 0.70260 0.38586 0.64726
 C1882 C 0.72755 0.38131 0.62881
 N1883 N 0.74611 0.40515 0.63343
 H1884 H 0.73175 0.36232 0.61390
 N1885 N 0.22834 0.92424 0.64769
 N1886 N 0.20142 0.91403 0.65614
 C1887 C 0.19530 0.89008 0.63825
 C1888 C 0.21925 0.88594 0.61848
 N1889 N 0.23957 0.90772 0.62518
 H1890 H 0.22179 0.86831 0.60161
 N1891 N 0.22540 0.42967 1.14898
 N1892 N 0.19870 0.41830 1.15666
 C1893 C 0.19439 0.39367 1.13913
 C1894 C 0.21913 0.39029 1.12042
 N1895 N 0.23813 0.41321 1.12730
 H1896 H 0.22307 0.37234 1.10421
 N1897 N 0.72125 1.15215 0.92731
 N1898 N 0.69630 1.16068 0.91311
 C1899 C 0.69431 1.14392 0.88754
 C1900 C 0.71873 1.12476 0.88652
 N1901 N 0.73509 1.13059 0.91179
 H1902 H 0.72440 1.10897 0.86862
 N1903 N 0.72026 0.64186 0.43428
 N1904 N 0.69488 0.65050 0.42094
 C1905 C 0.69312 0.63534 0.39439
 C1906 C 0.71812 0.61710 0.39183
 N1907 N 0.73459 0.62180 0.41722
 H1908 H 0.72414 0.60282 0.37280
 N1909 N 0.22827 1.15363 0.41177
 N1910 N 0.20180 1.16181 0.40064
 C1911 C 0.19297 1.14022 0.38083
 C1912 C 0.21528 1.11831 0.38010
 N1913 N 0.23689 1.12749 0.40009
 H1914 H 0.21482 1.09718 0.36773
 N1915 N 0.21911 0.64424 0.93760
 N1916 N 0.19450 0.65418 0.92376
 C1917 C 0.19275 0.63938 0.89703
 C1918 C 0.21692 0.62001 0.89489
 N1919 N 0.23295 0.62370 0.92069
 H1920 H 0.22282 0.60579 0.87577
 N1921 N 1.15323 1.27095 1.07289
 N1922 N 1.16078 1.29787 1.08362
 C1923 C 1.14135 1.30391 1.10637
 C1924 C 1.12165 1.27985 1.10934
 N1925 N 1.12986 1.25959 1.08801
 H1926 H 1.10359 1.27737 1.12577
 N1927 N 1.14819 0.77399 0.56735
 N1928 N 1.15529 0.80071 0.57880
 C1929 C 1.13804 0.80443 0.60373
 C1930 C 1.12012 0.77915 0.60731
 N1931 N 1.12723 0.76050 0.58411
 H1932 H 1.10447 0.77457 0.62564
 N1933 N 0.66218 1.25961 0.58832
 N1934 N 0.67167 1.28531 0.60042
 C1935 C 0.64951 1.29468 0.61911
 C1936 C 0.62611 1.27385 0.61830
 N1937 N 0.63492 1.25228 0.59868
 H1938 H 0.60463 1.27480 0.63011
 N1939 N 0.65309 0.77369 1.07451
 N1940 N 0.66059 0.80061 1.08526
 C1941 C 0.64172 0.80617 1.10858
 C1942 C 0.62240 0.78182 1.11190
 N1943 N 0.63027 0.76188 1.09014
 H1944 H 0.60475 0.77898 1.12869
 N1945 N 0.87263 1.24987 0.83883
 N1946 N 0.86085 1.27485 0.82777
 C1947 C 0.85437 1.29276 0.85166
 C1948 C 0.86296 1.27802 0.87790
 N1949 N 0.87434 1.25133 0.86886
 H1950 H 0.86429 1.28725 0.90069
 N1951 N 0.89391 0.75411 0.35011
 N1952 N 0.88496 0.78013 0.33896
 C1953 C 0.87499 0.79657 0.36259
 C1954 C 0.87784 0.77956 0.38888
 N1955 N 0.89009 0.75317 0.37999
 H1956 H 0.87353 0.78648 0.41209
 N1957 N 0.43129 1.28268 0.39921
 N1958 N 0.42238 1.30930 0.38945
 C1959 C 0.39196 1.30797 0.38682
 C1960 C 0.38235 1.27961 0.39549
 N1961 N 0.40768 1.26460 0.40295
 H1962 H 0.35980 1.26999 0.39385
 N1963 N 0.42202 0.79575 0.91962
 N1964 N 0.41138 0.82222 0.91121
 C1965 C 0.38254 0.81788 0.90182
 C1966 C 0.37594 0.78749 0.90441
 N1967 N 0.40120 0.77462 0.91543
 H1968 H 0.35623 0.77548 0.89593
 N1969 N 1.07217 0.72902 0.84802
 N1970 N 1.08543 0.70408 0.83837
 C1971 C 1.10791 0.69833 0.85812
 C1972 C 1.10807 0.72053 0.88022
 N1973 N 1.08538 0.73941 0.87308
 H1974 H 1.12350 0.72271 0.89921
 N1975 N 1.05302 0.21042 0.37427
 N1976 N 1.06413 0.18375 0.36682
 C1977 C 1.09348 0.18397 0.37529
 C1978 C 1.10008 0.21162 0.38814
 N1979 N 1.07422 0.22755 0.38702
 H1980 H 1.12197 0.21992 0.39562
 N1981 N 0.56538 0.71749 0.35158
 N1982 N 0.57880 0.69264 0.34187
 C1983 C 0.60303 0.68860 0.35992
 C1984 C 0.60412 0.71164 0.38098
 N1985 N 0.58023 0.72939 0.37499
 H1986 H 0.62138 0.71548 0.39802
 N1987 N 0.56724 0.22383 0.84476
 N1988 N 0.58134 0.19963 0.83433
 C1989 C 0.60503 0.19507 0.85296
 C1990 C 0.60506 0.21710 0.87512
 N1991 N 0.58111 0.23479 0.86922
 H1992 H 0.62146 0.22012 0.89314
 N1993 N 0.84030 0.74748 1.13192
 N1994 N 0.83135 0.72020 1.14008
 C1995 C 0.85651 0.70364 1.14382
 C1996 C 0.88139 0.72170 1.13738
 N1997 N 0.87022 0.74893 1.13002
 H1998 H 0.90476 0.71484 1.13493
 N1999 N 0.89830 0.24111 0.65776
 N2000 N 0.88924 0.21413 0.66654
 C2001 C 0.87638 0.20091 0.64213
 C2002 C 0.87742 0.22076 0.61804
 N2003 N 0.89150 0.24559 0.62880
 H2004 H 0.87017 0.21697 0.59482
 N2005 N 0.41378 0.71897 0.62908
 N2006 N 0.39906 0.69696 0.64300
 C2007 C 0.36936 0.70111 0.63759
 C2008 C 0.36628 0.72659 0.61994
 N2009 N 0.39460 0.73718 0.61525
 H2010 H 0.34552 0.73811 0.61423
 N2011 N 0.42334 0.21380 1.10188
 N2012 N 0.41374 0.18651 1.10926
 C2013 C 0.38329 0.18764 1.11134
 C2014 C 0.37448 0.21687 1.10500
 N2015 N 0.40023 0.23246 1.09941
 H2016 H 0.35216 0.22652 1.10756
 N2017 N 1.14768 1.13941 0.77181
 N2018 N 1.16215 1.15771 0.75311
 C2019 C 1.14476 1.16058 0.72804
 C2020 C 1.11910 1.14301 0.73191
 N2021 N 1.12208 1.13003 0.75930
 H2022 H 1.10183 1.13751 0.71526
 N2023 N 1.07757 0.62069 0.21375
 N2024 N 1.09156 0.63752 0.19335
 C2025 C 1.12146 0.63310 0.19709
 C2026 C 1.12541 0.61245 0.22027
 N2027 N 1.09734 0.60563 0.23037
 H2028 H 1.14643 0.60606 0.23107
 N2029 N 0.65364 1.11694 0.25958
 N2030 N 0.66863 1.13194 0.23858
 C2031 C 0.64796 1.14226 0.21874
 C2032 C 0.61939 1.13342 0.22853
 N2033 N 0.62419 1.11737 0.25402
 H2034 H 0.59778 1.13659 0.21740
 N2035 N 0.56514 0.62304 0.71412
 N2036 N 0.57947 0.63450 0.69042
 C2037 C 0.60802 0.62407 0.69133
 C2038 C 0.61080 0.60568 0.71642
 N2039 N 0.58348 0.60580 0.73017
 H2040 H 0.63129 0.59575 0.72531
 N2041 N 0.83707 0.91878 0.73485
 N2042 N 0.83042 0.90760 0.70768
 C2043 C 0.85022 0.88525 0.70235
 C2044 C 0.86923 0.88303 0.72710
 N2045 N 0.86030 0.90440 0.74704
 H2046 H 0.88753 0.86724 0.73009
 N2047 N 0.83834 0.41781 0.23298
 N2048 N 0.83135 0.40786 0.20543
 C2049 C 0.85287 0.38791 0.19764
 C2050 C 0.87333 0.38590 0.22134
 N2051 N 0.86341 0.40494 0.24309
 H2052 H 0.89327 0.37193 0.22246
 N2053 N 0.40287 0.90293 0.21353
 N2054 N 0.39329 0.88739 0.18958
 C2055 C 0.36398 0.88054 0.19466
 C2056 C 0.35593 0.89228 0.22264
 N2057 N 0.38083 0.90614 0.23369
 H2058 H 0.33567 0.88720 0.23555
 N2059 N 0.34005 0.41999 0.72926
 N2060 N 0.33341 0.40798 0.70245
 C2061 C 0.35110 0.38354 0.69905
 C2062 C 0.36884 0.38094 0.72473
 N2063 N 0.36128 0.40420 0.74315
 H2064 H 0.38539 0.36370 0.72929
 N2065 N 1.10990 0.92883 1.28306
 N2066 N 1.11771 0.91975 1.31048
 C2067 C 1.11490 0.88946 1.31073
 C2068 C 1.10458 0.88017 1.28244
 N2069 N 1.10213 0.90552 1.26583
 H2070 H 1.10175 0.85736 1.27400
 N2071 N 1.13766 0.33948 0.74455
 N2072 N 1.14247 0.32909 0.77225
 C2073 C 1.14476 0.35326 0.79071
 C2074 C 1.14152 0.37898 0.77333
 N2075 N 1.13712 0.36934 0.74456
 H2076 H 1.13931 0.40200 0.78127
 N2077 N 0.63447 0.92985 0.76725
 N2078 N 0.64318 0.92119 0.79457
 C2079 C 0.63492 0.89208 0.79721
 C2080 C 0.62055 0.88312 0.77069
 N2081 N 0.62085 0.90743 0.75252
 H2082 H 0.61199 0.86095 0.76476
 N2083 N 0.63491 0.42733 1.26722
 N2084 N 0.64476 0.41791 1.29389
 C2085 C 0.63447 0.38950 1.29708
 C2086 C 0.61760 0.38184 1.27154
 N2087 N 0.61861 0.40613 1.25336
 H2088 H 0.60696 0.36041 1.26617
 N2089 N 0.92237 1.08365 1.29349
 N2090 N 0.90699 1.08999 1.31843
 C2091 C 0.89858 1.11901 1.31642
 C2092 C 0.90986 1.13053 1.28944
 N2093 N 0.92435 1.10750 1.27563
 H2094 H 0.90433 1.15184 1.27901
 N2095 N 0.93711 0.64272 0.77884
 N2096 N 0.92240 0.65365 0.80264
 C2097 C 0.89639 0.63781 0.80474
 C2098 C 0.89560 0.61677 0.78156
 N2099 N 0.92148 0.62057 0.76575
 H2100 H 0.87736 0.60123 0.77621
 N2101 N 0.44162 1.11754 0.79019
 N2102 N 0.42857 1.12690 0.81556
 C2103 C 0.39889 1.11969 0.81353
 C2104 C 0.39419 1.10520 0.78596
 N2105 N 0.42146 1.10462 0.77198
 H2106 H 0.37281 1.09816 0.77607
 N2107 N 0.42997 0.57669 1.29479
 N2108 N 0.41575 0.58339 1.32031
 C2109 C 0.40759 0.61252 1.31854
 C2110 C 0.41775 0.62370 1.29097
 N2111 N 0.43129 0.60037 1.27668
 H2112 H 0.41156 0.64478 1.28044
 N2113 N 1.10922 1.27380 0.92270
 N2114 N 1.12112 1.30012 0.91535
 C2115 C 1.12196 1.30109 0.88478
 C2116 C 1.10959 1.27452 0.87344
 N2117 N 1.10212 1.25807 0.89803
 H2118 H 1.10854 1.26690 0.85004
 N2119 N 1.15691 0.74829 0.36469
 N2120 N 1.16508 0.77608 0.35753
 C2121 C 1.13952 0.79233 0.35559
 C2122 C 1.11521 0.77353 0.36206
 N2123 N 1.12711 0.74618 0.36763
 H2124 H 1.09185 0.77985 0.36578
 N2125 N 0.59588 1.25883 0.33631
 N2126 N 0.60545 1.28547 0.32705
 C2127 C 0.62191 1.29738 0.34993
 C2128 C 0.62243 1.27693 0.37366
 N2129 N 0.60561 1.25319 0.36419
 H2130 H 0.63265 1.27966 0.39587
 N2131 N 0.61039 0.75424 0.83612
 N2132 N 0.61883 0.78119 0.82654
 C2133 C 0.62969 0.79612 0.85095
 C2134 C 0.62805 0.77733 0.87589
 N2135 N 0.61571 0.75141 0.86559
 H2136 H 0.63317 0.78269 0.89938
 N2137 N 0.93766 1.28561 1.13910
 N2138 N 0.92391 1.31006 1.14936
 C2139 C 0.89852 1.31297 1.13273
 C2140 C 0.89709 1.28968 1.11197
 N2141 N 0.92194 1.27292 1.11670
 H2142 H 0.87882 1.28471 1.09631
 N2143 N 0.92931 0.77258 0.65167
 N2144 N 0.91548 0.79709 0.66168
 C2145 C 0.89256 0.80234 0.64227
 C2146 C 0.89275 0.78032 0.62003
 N2147 N 0.91605 0.76202 0.62670
 H2148 H 0.87706 0.77785 0.60130
 N2149 N 0.41776 1.26286 0.65515
 N2150 N 0.40527 1.28806 0.66518
 C2151 C 0.38532 1.29660 0.64382
 C2152 C 0.38592 1.27569 0.62030
 N2153 N 0.40653 1.25490 0.62828
 H2154 H 0.37281 1.27584 0.59952
 N2155 N 0.35973 0.72906 1.15306
 N2156 N 0.34146 0.75072 1.16217
 C2157 C 0.35820 0.77614 1.16351
 C2158 C 0.38764 0.76928 1.15522
 N2159 N 0.38748 0.73959 1.14842
 H2160 H 0.40572 0.78498 1.14983
 N2161 N 0.83953 0.73475 0.91758
 N2162 N 0.83175 0.70849 0.90547
 C2163 C 0.85277 0.70205 0.88431
 C2164 C 0.87376 0.72526 0.88373
 N2165 N 0.86464 0.74535 0.90491
 H2166 H 0.89356 0.72711 0.86939
 N2167 N 0.86093 0.25140 0.34992
 N2168 N 0.85707 0.22410 0.33844
 C2169 C 0.85277 0.20545 0.36201
 C2170 C 0.85414 0.22244 0.38869
 N2171 N 0.85989 0.25113 0.38004
 H2172 H 0.85586 0.21407 0.41169
 N2173 N 0.35463 0.74568 0.35235
 N2174 N 0.35152 0.71817 0.34093
 C2175 C 0.35682 0.69894 0.36381
 C2176 C 0.36324 0.71559 0.38977
 N2177 N 0.36146 0.74478 0.38167
 H2178 H 0.37159 0.70736 0.41130
 N2179 N 0.41078 0.21644 0.91357
 N2180 N 0.40664 0.18984 0.90057
 C2181 C 0.37734 0.18821 0.89218
 C2182 C 0.36339 0.21483 0.90091
 N2183 N 0.38528 0.23196 0.91396
 H2184 H 0.34111 0.22260 0.89443
 N2185 N 1.15466 0.76145 1.11512
 N2186 N 1.16942 0.74005 1.12950
 C2187 C 1.14839 0.72140 1.14136
 C2188 C 1.11992 0.73231 1.13412
 N2189 N 1.12504 0.75728 1.11751
 H2190 H 1.09799 0.72242 1.13900
 N2191 N 1.13534 0.21939 0.58036
 N2192 N 1.15058 0.19902 0.59572
 C2193 C 1.14079 0.20046 0.62463
 C2194 C 1.11859 0.22240 0.62649
 N2195 N 1.11628 0.23409 0.59825
 H2196 H 1.10791 0.23110 0.64683
 N2197 N 0.65969 0.74631 0.60634
 N2198 N 0.67175 0.72175 0.61795
 C2199 C 0.64901 0.70671 0.63160
 C2200 C 0.62261 0.72287 0.62833
 N2201 N 0.63029 0.74738 0.61224
 H2202 H 0.59983 0.71627 0.63470
 N2203 N 0.58030 0.21410 1.11648
 N2204 N 0.59406 0.19339 1.13282
 C2205 C 0.62406 0.19774 1.12921
 C2206 C 0.62829 0.22172 1.10948
 N2207 N 0.60026 0.23155 1.10244
 H2208 H 0.64932 0.23321 1.10412
 N2209 N 1.24637 1.13897 0.84991
 N2210 N 1.27255 1.15208 0.84318
 C2211 C 1.29423 1.13126 0.84712
 C2212 C 1.28041 1.10489 0.85684
 N2213 N 1.25046 1.11057 0.85797
 H2214 H 1.29129 1.08495 0.86560
 N2215 N 1.29249 0.55515 0.37626
 N2216 N 1.32009 0.56590 0.37125
 C2217 C 1.31951 0.59562 0.37792
 C2218 C 1.29060 0.60281 0.38705
 N2219 N 1.27443 0.57699 0.38560
 H2220 H 1.28170 0.62496 0.39204
 N2221 N 0.78849 1.06363 0.38283
 N2222 N 0.81626 1.07438 0.37887
 C2223 C 0.81502 1.10453 0.38290
 C2224 C 0.78537 1.11195 0.38925
 N2225 N 0.76952 1.08584 0.38883
 H2226 H 0.77584 1.13429 0.39119
 N2227 N 0.77035 0.57268 0.84519
 N2228 N 0.79673 0.58434 0.83682
 C2229 C 0.80035 0.61002 0.85288
 C2230 C 0.77546 0.61377 0.87136
 N2231 N 0.75714 0.58996 0.86594
 H2232 H 0.77108 0.63240 0.88665
 N2233 N 1.23713 0.82834 1.11256
 N2234 N 1.25873 0.81643 1.12944
 C2235 C 1.27425 0.83955 1.14214
 C2236 C 1.26154 0.86613 1.13241
 N2237 N 1.23852 0.85812 1.11385
 H2238 H 1.26948 0.88889 1.13673
 N2239 N 1.28180 0.35539 0.56072
 N2240 N 1.30614 0.34505 0.57474
 C2241 C 1.30783 0.35977 0.60152
 C2242 C 1.28399 0.37945 0.60353
 N2243 N 1.26813 0.37604 0.57763
 H2244 H 1.27791 0.39337 0.62282
 N2245 N 0.77859 0.85114 0.56408
 N2246 N 0.80331 0.84192 0.57823
 C2247 C 0.80522 0.85790 0.60428
 C2248 C 0.78098 0.87727 0.60567
 N2249 N 0.76480 0.87237 0.58013
 H2250 H 0.77517 0.89243 0.62408
 N2251 N 0.77809 0.35530 1.06193
 N2252 N 0.80378 0.34731 1.07505
 C2253 C 0.80555 0.36271 1.10147
 C2254 C 0.78019 0.38045 1.10416
 N2255 N 0.76353 0.37520 1.07898
 H2256 H 0.77417 0.39491 1.12306
 N2257 N 0.77371 1.15683 1.16621
 N2258 N 0.74919 1.17005 1.17702
 C2259 C 0.72869 1.17101 1.15426
 C2260 C 0.74152 1.15756 1.12898
 N2261 N 0.76945 1.14892 1.13754
 H2262 H 0.73047 1.15139 1.10784
 N2263 N 0.73465 0.57512 0.63398
 N2264 N 0.70803 0.58372 0.64455
 C2265 C 0.70593 0.61337 0.63896
 C2266 C 0.73211 0.62273 0.62419
 N2267 N 0.74956 0.59805 0.62168
 H2268 H 0.73833 0.64531 0.61730
 N2269 N 0.27013 1.12551 0.67211
 N2270 N 0.24651 1.13903 0.68434
 C2271 C 0.22924 1.14866 0.66114
 C2272 C 0.24306 1.14084 0.63413
 N2273 N 0.26846 1.12623 0.64209
 H2274 H 0.23451 1.14349 0.61125
 N2275 N 0.27312 0.66481 1.15991
 N2276 N 0.24849 0.67669 1.17200
 C2277 C 0.22681 0.65511 1.17162
 C2278 C 0.23899 0.62949 1.15863
 N2279 N 0.26784 0.63658 1.15164
 H2280 H 0.22707 0.60931 1.15131
 N2281 N 0.70366 0.88530 0.94046
 N2282 N 0.68062 0.87247 0.92603
 C2283 C 0.68173 0.88239 0.89722
 C2284 C 0.70610 0.90181 0.89437
 N2285 N 0.71940 0.90288 0.92190
 H2286 H 0.71505 0.91147 0.87367
 N2287 N 0.70882 0.37681 0.43587
 N2288 N 0.68505 0.36492 0.42185
 C2289 C 0.68527 0.37581 0.39338
 C2290 C 0.70995 0.39495 0.39036
 N2291 N 0.72424 0.39479 0.41745
 H2292 H 0.71806 0.40567 0.36985
 N2293 N 0.19871 0.92703 0.41711
 N2294 N 0.17306 0.91685 0.40523
 C2295 C 0.17719 0.88747 0.39864
 C2296 C 0.20633 0.87986 0.40698
 N2297 N 0.21896 0.90523 0.41835
 H2298 H 0.21830 0.85927 0.40170
 N2299 N 0.20117 0.43377 0.90180
 N2300 N 0.17813 0.42198 0.88650
 C2301 C 0.18081 0.39194 0.88876
 C2302 C 0.20610 0.38557 0.90602
 N2303 N 0.21837 0.41240 0.91361
 H2304 H 0.21641 0.36380 0.90955
   
