data_POSCAR
  _audit_creation_date              2014-09-24
  _audit_creation_method            'ToBaCCo'
  _symmetry_space_group_name_H-M    'P1'
  _symmetry_Int_Tables_number       1
  _symmetry_cell_setting            triclinic
  loop_
  _symmetry_equiv_pos_as_xyz
 x,y,z
_cell_length_a 56.2191
_cell_length_b 55.9763
_cell_length_c 53.2880
_cell_angle_alpha 89.765800
_cell_angle_beta 89.914600
_cell_angle_gamma 90.441700
loop_
  _atom_site_label
  _atom_site_type_symbol
  _atom_site_fract_x
  _atom_site_fract_y
  _atom_site_fract_z
C1 C 0.30846 0.45185 0.92478
 C2 C 0.29878 0.43046 0.93399
 C3 C 0.30700 0.42058 0.95643
 C4 C 0.32488 0.43221 0.97003
 C5 C 0.33475 0.45402 0.96148
 C6 C 0.32559 0.46414 0.93916
 H7 H 0.28606 0.42052 0.92279
 H8 H 0.33159 0.42375 0.98690
 H9 H 0.33353 0.48027 0.93143
 C10 C 0.43969 0.83528 0.45275
 C11 C 0.44858 0.82515 0.43040
 C12 C 0.43960 0.80328 0.42156
 C13 C 0.42125 0.79158 0.43457
 C14 C 0.41281 0.80075 0.45728
 C15 C 0.42308 0.82170 0.46685
 H16 H 0.46118 0.83485 0.41874
 H17 H 0.41289 0.77591 0.42645
 H18 H 0.41715 0.82788 0.48503
 C19 C 0.94694 0.91293 0.78990
 C20 C 0.92703 0.92398 0.77953
 C21 C 0.91711 0.94396 0.79119
 C22 C 0.92690 0.95241 0.81374
 C23 C 0.94665 0.94107 0.82476
 C24 C 0.95746 0.92232 0.81150
 H25 H 0.91837 0.91613 0.76334
 H26 H 0.91778 0.96657 0.82358
 H27 H 0.97318 0.91372 0.81891
 C28 C 0.44182 -0.08515 0.30047
 C29 C 0.42125 -0.07634 0.28882
 C30 C 0.41084 -0.05513 0.29730
 C31 C 0.42060 -0.04294 0.31776
 C32 C 0.44105 -0.05153 0.32945
 C33 C 0.45242 -0.07169 0.31979
 H34 H 0.41253 -0.08661 0.27426
 H35 H 0.41132 -0.02782 0.32569
 H36 H 0.46822 -0.07829 0.32909
 C37 C 0.80813 0.30144 0.32634
 C38 C 0.82419 0.28885 0.31133
 C39 C 0.83336 0.29921 0.28952
 C40 C 0.82340 0.32027 0.28020
 C41 C 0.80738 0.33344 0.29494
 C42 C 0.79974 0.32373 0.31805
 H43 H 0.83163 0.27221 0.31807
 H44 H 0.83008 0.32757 0.26268
 H45 H 0.78807 0.33392 0.33007
 C46 C -0.19715 0.83389 0.79668
 C47 C -0.17743 0.82262 0.78547
 C48 C -0.16601 0.80334 0.79721
 C49 C -0.17416 0.79542 0.82075
 C50 C -0.19405 0.80585 0.83200
 C51 C -0.20506 0.82535 0.82025
 H52 H -0.17121 0.82843 0.76716
 H53 H -0.16514 0.78094 0.83026
 H54 H -0.21937 0.83426 0.83002
 C55 C 0.94590 0.32875 0.45390
 C56 C 0.92535 0.31716 0.46333
 C57 C 0.91459 0.29812 0.45038
 C58 C 0.92429 0.29077 0.42741
 C59 C 0.94495 0.30170 0.41786
 C60 C 0.95527 0.32094 0.43078
 H61 H 0.91788 0.32253 0.48118
 H62 H 0.91576 0.27653 0.41694
 H63 H 0.97031 0.33017 0.42234
 C64 C 0.44836 0.44901 0.82718
 C65 C 0.42867 0.45793 0.81425
 C66 C 0.42046 0.44655 0.79256
 C67 C 0.43246 0.42657 0.78331
 C68 C 0.45216 0.41750 0.79618
 C69 C 0.46026 0.42890 0.81801
 H70 H 0.41862 0.47256 0.82216
 H71 H 0.42522 0.41688 0.76745
 H72 H 0.47467 0.42118 0.82874
 C73 C 0.80468 0.91960 0.95653
 C74 C 0.79515 0.92845 0.93386
 C75 C 0.80643 0.94711 0.92068
 C76 C 0.82794 0.95650 0.92959
 C77 C 0.83800 0.94756 0.95164
 C78 C 0.82628 0.92955 0.96520
 H79 H 0.77962 0.92007 0.92558
 H80 H 0.83734 0.97012 0.91887
 H81 H 0.83442 0.92307 0.98232
 C82 C 0.30428 0.83564 0.29753
 C83 C 0.32014 0.82198 0.28298
 C84 C 0.32981 0.80065 0.29218
 C85 C 0.32169 0.79159 0.31521
 C86 C 0.30500 0.80417 0.32947
 C87 C 0.29608 0.82592 0.32042
 H88 H 0.32594 0.82847 0.26477
 H89 H 0.32942 0.77545 0.32287
 H90 H 0.28419 0.83603 0.33229
 C91 C 0.80294 0.41095 0.45320
 C92 C 0.81991 0.42229 0.46822
 C93 C 0.82991 0.44446 0.46114
 C94 C 0.82153 0.45551 0.43902
 C95 C 0.80526 0.44374 0.42315
 C96 C 0.79568 0.42163 0.43071
 H97 H 0.82589 0.41330 0.48511
 H98 H 0.82936 0.47223 0.43270
 H99 H 0.78354 0.41208 0.41847
 C100 C 0.95039 0.83570 -0.04620
 C101 C 0.95792 0.82520 -0.06889
 C102 C 0.94634 0.80488 -0.07854
 C103 C 0.92639 0.79555 -0.06609
 C104 C 0.91828 0.80593 -0.04387
 C105 C 0.93019 0.82588 -0.03408
 H106 H 0.97236 0.83318 -0.07960
 H107 H 0.91699 0.78029 -0.07384
 H108 H 0.92383 0.83340 -0.01662
 C109 C 0.30306 0.33067 0.79325
 C110 C 0.29602 0.32180 0.81691
 C111 C 0.30812 0.30268 0.82824
 C112 C 0.32940 0.29468 0.81742
 C113 C 0.33760 0.30439 0.79464
 C114 C 0.32319 0.32069 0.78172
 H115 H 0.28124 0.32983 0.82675
 H116 H 0.33983 0.28127 0.82702
 H117 H 0.32882 0.32704 0.76341
 C118 C 0.16163 0.55316 0.54696
 C119 C 0.17059 0.54524 0.57023
 C120 C 0.19285 0.55338 0.57896
 C121 C 0.20610 0.56935 0.56391
 C122 C 0.19621 0.57913 0.54221
 C123 C 0.17525 0.56936 0.53256
 H124 H 0.15980 0.53359 0.58197
 H125 H 0.22294 0.57641 0.57054
 H126 H 0.16830 0.57640 0.51511
 C127 C 0.58314 0.70433 0.04571
 C128 C 0.57314 0.68398 0.03445
 C129 C 0.55181 0.67418 0.04362
 C130 C 0.54019 0.68504 0.06379
 C131 C 0.55028 0.70501 0.07570
 C132 C 0.57180 0.71452 0.06653
 H133 H 0.58276 0.67484 0.01972
 H134 H 0.52426 0.67677 0.07148
 H135 H 0.58027 0.72927 0.07626
 C136 C 0.69468 0.19637 0.67059
 C137 C 0.70621 0.17593 0.67992
 C138 C 0.69995 0.16603 0.70336
 C139 C 0.68205 0.17698 0.71757
 C140 C 0.66976 0.19674 0.70785
 C141 C 0.67667 0.20685 0.68481
 H142 H 0.71919 0.16695 0.66827
 H143 H 0.67571 0.16847 0.73467
 H144 H 0.66647 0.22137 0.67683
 C145 C 1.08167 0.05095 0.19993
 C146 C 1.07219 0.04323 0.17686
 C147 C 1.05446 0.05631 0.16436
 C148 C 1.04390 0.07556 0.17682
 C149 C 1.05254 0.08321 0.20015
 C150 C 1.07203 0.07151 0.21105
 H151 H 1.07936 0.02748 0.16793
 H152 H 1.03017 0.08585 0.16757
 H153 H 1.07989 0.07872 0.22798
 C154 C 0.05603 0.16915 1.03883
 C155 C 0.04510 0.17828 1.06038
 C156 C 0.05603 0.19633 1.07462
 C157 C 0.07686 0.20725 1.06522
 C158 C 0.08794 0.19860 1.04343
 C159 C 0.07771 0.17911 1.03068
 H160 H 0.02852 0.17034 1.06687
 H161 H 0.08552 0.22134 1.07581
 H162 H 0.08697 0.17128 1.01490
 C163 C 0.16282 0.69065 0.70523
 C164 C 0.17479 0.67018 0.71348
 C165 C 0.19517 0.66238 0.70083
 C166 C 0.20381 0.67533 0.68015
 C167 C 0.19219 0.69610 0.67205
 C168 C 0.17168 0.70366 0.68468
 H169 H 0.16746 0.65958 0.72875
 H170 H 0.21896 0.66871 0.66975
 H171 H 0.16203 0.71905 0.67784
 C172 C 1.20013 0.16998 0.20428
 C173 C 1.17890 0.17880 0.21444
 C174 C 1.17020 0.20104 0.20675
 C175 C 1.18308 0.21477 0.18923
 C176 C 1.20407 0.20600 0.17857
 C177 C 1.21319 0.18423 0.18726
 H178 H 1.16812 0.16751 0.22660
 H179 H 1.17541 0.23110 0.18196
 H180 H 1.22911 0.17710 0.17868
 C181 C 0.66796 1.04328 0.53945
 C182 C 0.67687 1.03748 0.56345
 C183 C 0.69806 1.04791 0.57245
 C184 C 0.71013 1.06458 0.55704
 C185 C 0.69919 1.07354 0.53532
 C186 C 0.67943 1.06134 0.52550
 H187 H 0.66713 1.02494 0.57523
 H188 H 0.72635 1.07294 0.56374
 H189 H 0.67115 1.06809 0.50853
 C190 C 0.56039 0.55525 0.16974
 C191 C 0.54953 0.57588 0.17895
 C192 C 0.55449 0.58419 0.20317
 C193 C 0.57135 0.57218 0.21794
 C194 C 0.58270 0.55159 0.20888
 C195 C 0.57661 0.54298 0.18498
 H196 H 0.53730 0.58570 0.16713
 H197 H 0.57586 0.57906 0.23632
 H198 H 0.58529 0.52724 0.17770
 C199 C 0.66330 0.69708 0.20748
 C200 C 0.67250 0.67579 0.21711
 C201 C 0.69327 0.66610 0.20693
 C202 C 0.70502 0.67798 0.18722
 C203 C 0.69625 0.69969 0.17779
 C204 C 0.67541 0.70921 0.18824
 H205 H 0.66260 0.66588 0.23125
 H206 H 0.72021 0.66967 0.17837
 H207 H 0.66778 0.72531 0.18036
 C208 C 0.16969 0.05593 1.03846
 C209 C 0.18323 0.07551 1.02967
 C210 C 0.20305 0.08378 1.04310
 C211 C 0.21038 0.07148 1.06459
 C212 C 0.19791 0.05116 1.07271
 C213 C 0.17796 0.04313 1.05945
 H214 H 0.17754 0.08530 1.01315
 H215 H 0.22478 0.07860 1.07590
 H216 H 0.16752 0.02847 1.06717
 C217 C 0.57901 0.20088 0.53734
 C218 C 0.57332 0.20872 0.56174
 C219 C 0.55620 0.19662 0.57643
 C220 C 0.54461 0.17655 0.56648
 C221 C 0.55003 0.16839 0.54233
 C222 C 0.56682 0.18085 0.52773
 H223 H 0.58298 0.22358 0.56989
 H224 H 0.53196 0.16666 0.57795
 H225 H 0.57119 0.17412 0.50928
 C226 C 0.08891 0.55251 0.70171
 C227 C 0.07998 0.54386 0.67898
 C228 C 0.05964 0.55408 0.66826
 C229 C 0.05002 0.57480 0.67911
 C230 C 0.05752 0.58282 0.70297
 C231 C 0.07583 0.56980 0.71482
 H232 H 0.08889 0.52929 0.66962
 H233 H 0.03618 0.58404 0.66899
 H234 H 0.08095 0.57363 0.73393
 C235 C 0.66753 0.55848 0.04527
 C236 C 0.67477 0.54667 0.06725
 C237 C 0.69541 0.55399 0.07994
 C238 C 0.70827 0.57391 0.07105
 C239 C 0.70097 0.58592 0.04935
 C240 C 0.68164 0.57718 0.03562
 H241 H 0.66385 0.53248 0.07513
 H242 H 0.72303 0.58098 0.08186
 H243 H 0.67608 0.58662 0.01885
 C244 C 0.05118 0.69240 0.57757
 C245 C 0.04125 0.67143 0.56772
 C246 C 0.04948 0.66216 0.54498
 C247 C 0.06765 0.67405 0.53177
 C248 C 0.07762 0.69533 0.54115
 C249 C 0.06869 0.70477 0.56367
 H250 H 0.02828 0.66135 0.57860
 H251 H 0.07496 0.66600 0.51500
 H252 H 0.07675 0.72075 0.57146
 C253 C 0.56073 1.05849 0.66755
 C254 C 0.57719 1.04491 0.68136
 C255 C 0.58428 1.05181 0.70521
 C256 C 0.57146 1.06962 0.71769
 C257 C 0.55608 1.08496 0.70434
 C258 C 0.55100 1.07901 0.67906
 H259 H 0.58514 1.02904 0.67356
 H260 H 0.57496 1.07223 0.73742
 H261 H 0.54017 1.09080 0.66784
 C262 C 0.45277 0.33802 0.95465
 C263 C 0.46276 0.32756 0.93312
 C264 C 0.45213 0.30752 0.92186
 C265 C 0.43109 0.29803 0.93208
 C266 C 0.42133 0.30760 0.95400
 C267 C 0.43193 0.32777 0.96489
 H268 H 0.47822 0.33567 0.92429
 H269 H 0.42216 0.28324 0.92288
 H270 H 0.42405 0.33525 0.98167
 C271 C 0.94230 0.44246 0.32845
 C272 C 0.92112 0.45132 0.31854
 C273 C 0.91187 0.44197 0.29625
 C274 C 0.92372 0.42339 0.28395
 C275 C 0.94558 0.41494 0.29315
 C276 C 0.95506 0.42523 0.31507
 H277 H 0.91109 0.46450 0.32891
 H278 H 0.91540 0.41492 0.26791
 H279 H 0.97153 0.41856 0.32286
 C280 C 0.30782 0.94355 0.41473
 C281 C 0.29713 0.92278 0.42501
 C282 C 0.30493 0.91318 0.44798
 C283 C 0.32388 0.92425 0.46065
 C284 C 0.33396 0.94552 0.45143
 C285 C 0.32539 0.95537 0.42904
 H286 H 0.28349 0.91324 0.41468
 H287 H 0.33093 0.91619 0.47758
 H288 H 0.33308 0.97206 0.42243
 O289 O 0.27941 0.43421 0.74483
 O290 O 0.27593 0.44538 0.70204
 O291 O 0.31961 0.49426 0.77424
 O292 O 0.31521 0.53437 0.77453
 O293 O 0.26085 0.46685 0.81484
 O294 O 0.21777 0.47136 0.81022
 O295 O 0.25002 0.56200 0.71780
 O296 O 0.29311 0.55475 0.72060
 O297 O 0.21825 0.50638 0.68688
 O298 O 0.21921 0.46138 0.69372
 O299 O 0.19248 0.53046 0.75614
 O300 O 0.20691 0.52808 0.79982
 O301 O 0.22440 0.56209 0.75086
 O302 O 0.23197 0.55365 0.79602
 O303 O 0.18920 0.50500 0.72337
 O304 O 0.19560 0.46139 0.72223
 O305 O 0.25061 0.53052 0.68363
 O306 O 0.28914 0.52851 0.68758
 O307 O 0.25430 0.43414 0.77832
 O308 O 0.21367 0.44538 0.78284
 O309 O 0.28935 0.49585 0.81280
 O310 O 0.28765 0.53773 0.80409
 O311 O 0.31478 0.46459 0.74550
 O312 O 0.30336 0.47044 0.70087
 Zr313 Zr 0.27994 0.46971 0.73200
 O314 O 0.25819 0.49242 0.71071
 Zr315 Zr 0.28595 0.51044 0.77673
 O316 O 0.26408 0.53488 0.75760
 Zr317 Zr 0.24235 0.46982 0.78020
 O318 O 0.21866 0.49225 0.76069
 Zr319 Zr 0.26617 0.52819 0.71904
 O320 O 0.29043 0.50557 0.73781
 Zr321 Zr 0.22251 0.48804 0.72159
 O322 O 0.24400 0.46316 0.74123
 Zr323 Zr 0.22829 0.52804 0.76711
 O324 O 0.25048 0.50562 0.78872
 O325 O 0.27764 0.47471 0.77047
 O326 O 0.23038 0.52371 0.72833
 C327 C 0.26858 0.42367 0.76306
 C328 C 0.32707 0.47612 0.76183
 C329 C 0.27864 0.47860 0.82410
 C330 C 0.23383 0.57168 0.73131
 C331 C 0.23102 0.52217 0.67519
 C332 C 0.18079 0.52109 0.73800
 H333 H 0.26075 0.48903 0.69271
 H334 H 0.20227 0.48865 0.76635
 H335 H 0.28770 0.46360 0.78001
 H336 H 0.26887 0.55152 0.76132
 H337 H 0.30817 0.54645 0.72447
 H338 H 0.30954 0.54929 0.76663
 H339 H 0.18653 0.46319 0.73802
 H340 H 0.21001 0.44062 0.76540
 H341 H 0.30240 0.51772 0.69170
 H342 H 0.31603 0.48229 0.70455
 H343 H 0.19638 0.51385 0.79911
 H344 H 0.22158 0.48603 0.81978
 H345 H 0.25936 0.43933 0.70294
 H346 H 0.23121 0.46477 0.68055
 H347 H 0.27247 0.53708 0.81353
 H348 H 0.24542 0.56438 0.79165
 O349 O 0.18458 0.02793 0.24964
 O350 O 0.19706 0.02752 0.29244
 O351 O 0.24630 0.06324 0.21511
 O352 O 0.28351 0.05637 0.20749
 O353 O 0.21238 0.00005 0.18218
 O354 O 0.21659 -0.04209 0.19113
 O355 O 0.31244 -0.00216 0.27426
 O356 O 0.30586 0.03995 0.26818
 O357 O 0.25778 -0.03143 0.31079
 O358 O 0.21359 -0.03122 0.30665
 O359 O 0.27876 -0.06312 0.24240
 O360 O 0.27658 -0.05342 0.19961
 O361 O 0.31042 -0.03116 0.24454
 O362 O 0.29938 -0.02521 0.19762
 O363 O 0.25627 -0.06286 0.27765
 O364 O 0.21143 -0.05604 0.27918
 O365 O 0.28326 0.00007 0.30951
 O366 O 0.28012 0.04185 0.29986
 O367 O 0.18289 -0.00104 0.21985
 O368 O 0.19267 -0.04283 0.22204
 O369 O 0.24104 0.02894 0.17939
 O370 O 0.28547 0.02484 0.18589
 O371 O 0.21728 0.06218 0.24482
 O372 O 0.22353 0.05411 0.28972
 Zr373 Zr 0.22051 0.02785 0.26146
 O374 O 0.24344 0.00709 0.28391
 Zr375 Zr 0.25901 0.02817 0.21400
 O376 O 0.28391 0.00829 0.23462
 Zr377 Zr 0.21761 -0.01459 0.21820
 O378 O 0.24091 -0.03686 0.23821
 Zr379 Zr 0.27881 0.01389 0.27315
 O380 O 0.25613 0.03655 0.25245
 Zr381 Zr 0.23846 -0.02958 0.27680
 O382 O 0.21300 -0.00890 0.25695
 Zr383 Zr 0.27626 -0.02809 0.22893
 O384 O 0.25280 -0.00815 0.20626
 O385 O 0.22365 0.02168 0.22334
 O386 O 0.27360 -0.02257 0.26747
 C387 C 0.17338 0.01553 0.23304
 C388 C 0.22900 0.07275 0.22707
 C389 C 0.22343 0.01695 0.17054
 C390 C 0.32102 -0.02000 0.26232
 C391 C 0.27463 -0.01858 0.32025
 C392 C 0.27135 -0.07278 0.26275
 H393 H 0.24068 0.01084 0.30177
 H394 H 0.23705 -0.05371 0.23433
 H395 H 0.21256 0.03173 0.21372
 H396 H 0.30034 0.01259 0.22959
 H397 H 0.29819 0.05419 0.26078
 H398 H 0.29698 0.05387 0.21909
 H399 H 0.21385 -0.06741 0.26527
 H400 H 0.18664 -0.04215 0.23948
 H401 H 0.26546 0.04093 0.31009
 H402 H 0.23810 0.06351 0.28591
 H403 H 0.26072 -0.06119 0.19945
 H404 H 0.23073 -0.03979 0.18027
 H405 H 0.19192 0.01069 0.29464
 H406 H 0.21626 -0.01708 0.31737
 H407 H 0.28071 0.01131 0.17504
 H408 H 0.31297 -0.01482 0.20230
 O409 O 0.49029 0.77723 0.31787
 O410 O 0.53370 0.77342 0.31195
 O411 O 0.46744 0.81244 0.25267
 O412 O 0.47394 0.80757 0.21034
 O413 O 0.43051 0.74940 0.27546
 O414 O 0.43994 0.70738 0.27642
 O415 O 0.53018 0.74893 0.18643
 O416 O 0.52884 0.79097 0.19805
 O417 O 0.55820 0.71653 0.25320
 O418 O 0.54550 0.71975 0.29901
 O419 O 0.50015 0.68617 0.21835
 O420 O 0.45712 0.69519 0.21599
 O421 O 0.50222 0.71942 0.18475
 O422 O 0.45850 0.72146 0.19132
 O423 O 0.52590 0.68541 0.25120
 O424 O 0.52150 0.69253 0.29502
 O425 O 0.56017 0.74385 0.22150
 O426 O 0.55811 0.78386 0.22649
 O427 O 0.45946 0.75086 0.31417
 O428 O 0.46379 0.70843 0.30649
 O429 O 0.43435 0.77940 0.24675
 O430 O 0.44747 0.77864 0.20384
 O431 O 0.49522 0.81145 0.28347
 O432 O 0.53626 0.80135 0.28754
 Zr433 Zr 0.50820 0.77635 0.28298
 O434 O 0.53208 0.75558 0.26198
 Zr435 Zr 0.47015 0.77847 0.23552
 O436 O 0.49197 0.75712 0.21271
 Zr437 Zr 0.46516 0.73544 0.27865
 O438 O 0.48734 0.71250 0.25807
 Zr439 Zr 0.52758 0.76178 0.22340
 O440 O 0.50610 0.78539 0.24457
 Zr441 Zr 0.52318 0.71941 0.26703
 O442 O 0.50075 0.74009 0.29021
 Zr443 Zr 0.48485 0.72066 0.21965
 O444 O 0.46066 0.74206 0.24005
 O445 O 0.47269 0.77143 0.27354
 O446 O 0.52056 0.72550 0.22845
 C447 C 0.47130 0.76689 0.32613
 C448 C 0.47851 0.82187 0.27143
 C449 C 0.42206 0.76659 0.26215
 C450 C 0.51888 0.73220 0.17494
 C451 C 0.56892 0.72693 0.23483
 C452 C 0.51584 0.67578 0.23215
 H453 H 0.54862 0.75920 0.26710
 H454 H 0.48283 0.69572 0.26159
 H455 H 0.46171 0.78162 0.28307
 H456 H 0.48937 0.76165 0.19498
 H457 H 0.52426 0.80540 0.20755
 H458 H 0.48433 0.80228 0.19647
 H459 H 0.50526 0.68566 0.29468
 H460 H 0.47824 0.71039 0.31690
 H461 H 0.55481 0.79520 0.24016
 H462 H 0.53651 0.81163 0.27239
 H463 H 0.45608 0.68632 0.23201
 H464 H 0.43409 0.70745 0.25894
 H465 H 0.53008 0.75842 0.32113
 H466 H 0.55786 0.73219 0.29640
 H467 H 0.43891 0.76312 0.20386
 H468 H 0.46173 0.73556 0.18056
 O469 O -0.00055 0.67859 0.72521
 O470 O -0.04162 0.68825 0.72094
 O471 O 0.03159 0.74066 0.68720
 O472 O 0.03555 0.77914 0.69287
 O473 O 0.05869 0.71088 0.75668
 O474 O 0.04867 0.71876 0.79975
 O475 O -0.03297 0.80729 0.74570
 O476 O -0.02509 0.79758 0.70320
 O477 O -0.06751 0.74944 0.77765
 O478 O -0.06115 0.70798 0.78179
 O479 O -0.00705 0.77883 0.81501
 O480 O 0.03352 0.77971 0.80923
 O481 O -0.00750 0.80897 0.77883
 O482 O 0.03783 0.79983 0.77752
 O483 O -0.03744 0.75177 0.81431
 O484 O -0.03509 0.70658 0.80752
 O485 O -0.06465 0.77593 0.74531
 O486 O -0.05289 0.76946 0.70131
 O487 O 0.02381 0.68099 0.75880
 O488 O 0.02017 0.69453 0.80207
 O489 O 0.06262 0.73882 0.72577
 O490 O 0.05401 0.78363 0.72733
 O491 O 0.00448 0.71025 0.68738
 O492 O -0.03881 0.71388 0.69243
 Zr493 Zr -0.01382 0.71387 0.72204
 O494 O -0.03792 0.73638 0.74074
 Zr495 Zr 0.02895 0.75548 0.72316
 O496 O 0.00619 0.78016 0.74067
 Zr497 Zr 0.02391 0.71662 0.76998
 O498 O 0.00200 0.73980 0.79023
 Zr499 Zr -0.02950 0.77221 0.73239
 O500 O -0.00662 0.74966 0.71173
 Zr501 Zr -0.03359 0.73378 0.77983
 O502 O -0.01182 0.70862 0.76127
 Zr503 Zr 0.00896 0.77536 0.77965
 O504 O 0.03358 0.75224 0.76216
 O505 O 0.02138 0.71998 0.73130
 O506 O -0.02683 0.76951 0.77134
 C507 C 0.01401 0.66923 0.74106
 C508 C 0.02155 0.72241 0.67712
 C509 C 0.07053 0.72140 0.73916
 C510 C -0.02333 0.81800 0.76439
 C511 C -0.07622 0.76557 0.76315
 C512 C -0.02501 0.76817 0.82502
 H513 H -0.05434 0.73209 0.73581
 H514 H 0.00484 0.73711 0.80832
 H515 H 0.03150 0.70880 0.72203
 H516 H 0.01033 0.79663 0.73542
 H517 H -0.01604 0.78958 0.68972
 H518 H 0.02349 0.79185 0.69390
 H519 H -0.02372 0.71088 0.82095
 H520 H 0.00506 0.68556 0.80008
 H521 H -0.06336 0.75540 0.70396
 H522 H -0.03577 0.72859 0.68252
 H523 H 0.03852 0.76346 0.81408
 H524 H 0.05903 0.73279 0.79631
 H525 H -0.04246 0.68091 0.73785
 H526 H -0.06470 0.70320 0.76436
 H527 H 0.06373 0.77989 0.74231
 H528 H 0.03378 0.81238 0.76515
 O529 O 0.00525 0.06827 0.01722
 O530 O -0.03617 0.05785 0.01818
 O531 O 0.03784 0.01088 0.05581
 O532 O 0.04116 -0.02855 0.05230
 O533 O 0.06655 0.03618 -0.01544
 O534 O 0.05527 0.03044 -0.05774
 O535 O -0.02298 -0.06142 -0.00129
 O536 O -0.01786 -0.05018 0.04049
 O537 O -0.05905 -0.00487 -0.03639
 O538 O -0.05260 0.03741 -0.04079
 O539 O 0.00168 -0.03445 -0.07062
 O540 O 0.04381 -0.03084 -0.06483
 O541 O 0.00411 -0.06316 -0.03286
 O542 O 0.04781 -0.05111 -0.03454
 O543 O -0.02929 -0.00873 -0.07105
 O544 O -0.02698 0.03696 -0.06757
 O545 O -0.05584 -0.03181 -0.00448
 O546 O -0.04605 -0.02305 0.04054
 O547 O 0.03154 0.06764 -0.01533
 O548 O 0.02663 0.05428 -0.05879
 O549 O 0.06943 0.01103 0.01800
 O550 O 0.06238 -0.03289 0.01913
 O551 O 0.00846 0.03862 0.05478
 O552 O -0.03404 0.03295 0.04818
 Zr553 Zr -0.00791 0.03318 0.01960
 O554 O -0.03086 0.00934 0.00092
 Zr555 Zr 0.03599 -0.00614 0.02076
 O556 O 0.01462 -0.03217 0.00315
 Zr557 Zr 0.03116 0.03167 -0.02731
 O558 O 0.01041 0.00691 -0.04758
 Zr559 Zr -0.02155 -0.02579 0.01036
 O560 O 0.00004 -0.00188 0.03116
 Zr561 Zr -0.02546 0.01156 -0.03805
 O562 O -0.00495 0.03803 -0.01955
 Zr563 Zr 0.01815 -0.02813 -0.03590
 O564 O 0.04141 -0.00349 -0.01823
 O565 O 0.02792 0.02883 0.01144
 O566 O -0.01791 -0.02370 -0.02850
 C567 C 0.02075 0.07823 0.00277
 C568 C 0.02621 0.02831 0.06540
 C569 C 0.07795 0.02708 0.00307
 C570 C -0.01189 -0.07267 -0.01861
 C571 C -0.06721 -0.02183 -0.02256
 C572 C -0.01721 -0.02591 -0.08054
 H573 H -0.04750 0.01295 0.00543
 H574 H 0.01322 0.00915 -0.06575
 H575 H 0.03814 0.04037 0.02051
 H576 H 0.01924 -0.04826 0.00901
 H577 H -0.00925 -0.04159 0.05396
 H578 H 0.03039 -0.04246 0.05033
 H579 H -0.01560 0.03212 -0.08074
 H580 H 0.01081 0.06169 -0.05695
 H581 H -0.05816 -0.01105 0.03609
 H582 H -0.03141 0.01832 0.05827
 H583 H 0.04259 -0.01633 -0.07537
 H584 H 0.06347 0.01490 -0.05647
 H585 H -0.03637 0.06439 0.00089
 H586 H -0.05992 0.03889 -0.02399
 H587 H 0.07139 -0.03032 0.00336
 H588 H 0.04744 -0.05936 -0.01812
 O589 O -0.03189 0.43029 0.50612
 O590 O -0.02643 0.44095 0.54919
 O591 O -0.06946 0.49196 0.47770
 O592 O -0.06278 0.53048 0.47073
 O593 O -0.00984 0.46062 0.43717
 O594 O 0.03240 0.46508 0.44153
 O595 O 0.00113 0.55801 0.53237
 O596 O -0.04125 0.55080 0.53027
 O597 O 0.03228 0.49990 0.56435
 O598 O 0.03221 0.45679 0.55660
 O599 O 0.05814 0.52690 0.49409
 O600 O 0.04574 0.52510 0.45192
 O601 O 0.02574 0.55814 0.49846
 O602 O 0.01743 0.54709 0.45237
 O603 O 0.06061 0.50285 0.52822
 O604 O 0.05501 0.45761 0.52712
 O605 O 0.00256 0.52716 0.56639
 O606 O -0.03980 0.52465 0.56143
 O607 O -0.00507 0.42939 0.47416
 O608 O 0.03643 0.44055 0.47071
 O609 O -0.03903 0.48857 0.43827
 O610 O -0.03409 0.53281 0.44557
 O611 O -0.06583 0.46313 0.50764
 O612 O -0.05314 0.46640 0.55078
 Zr613 Zr -0.03009 0.46567 0.51938
 O614 O -0.00756 0.48822 0.54029
 Zr615 Zr -0.03479 0.50562 0.47333
 O616 O -0.01307 0.53029 0.49273
 Zr617 Zr 0.00783 0.46478 0.47162
 O618 O 0.03181 0.48787 0.49004
 Zr619 Zr -0.01493 0.52402 0.53158
 O620 O -0.03938 0.50156 0.51254
 Zr621 Zr 0.02803 0.48375 0.52904
 O622 O 0.00576 0.45864 0.51055
 Zr623 Zr 0.02249 0.52360 0.48312
 O624 O 0.00057 0.50044 0.46178
 O625 O -0.02772 0.46988 0.48075
 O626 O 0.02062 0.51946 0.52196
 C627 C -0.02061 0.41939 0.48860
 C628 C -0.07804 0.47532 0.49179
 C629 C -0.02772 0.47148 0.42758
 C630 C 0.01670 0.56788 0.51800
 C631 C 0.02068 0.51637 0.57564
 C632 C 0.06919 0.51890 0.51329
 H633 H -0.00982 0.48469 0.55833
 H634 H 0.04820 0.48452 0.48439
 H635 H -0.03870 0.45889 0.47191
 H636 H -0.01777 0.54685 0.48869
 H637 H -0.05607 0.54300 0.52434
 H638 H -0.05920 0.54339 0.48278
 H639 H 0.06584 0.46191 0.51314
 H640 H 0.03918 0.43566 0.48831
 H641 H -0.04053 0.50838 0.56859
 H642 H -0.06319 0.48076 0.54891
 H643 H 0.05339 0.50930 0.45063
 H644 H 0.02972 0.48008 0.43206
 H645 H -0.01056 0.43363 0.54722
 H646 H 0.01821 0.45741 0.56783
 H647 H -0.02141 0.52871 0.43345
 H648 H 0.00603 0.55952 0.45755
 O649 O 0.56260 0.02777 0.49425
 O650 O 0.55016 0.02510 0.45179
 O651 O 0.50395 0.06427 0.52886
 O652 O 0.46519 0.05867 0.53437
 O653 O 0.53394 0.00175 0.56392
 O654 O 0.53047 -0.04001 0.55656
 O655 O 0.43325 -0.00062 0.47357
 O656 O 0.44216 0.04052 0.47560
 O657 O 0.48937 -0.03317 0.43664
 O658 O 0.53253 -0.03367 0.44141
 O659 O 0.46574 -0.06195 0.50589
 O660 O 0.46905 -0.05149 0.54878
 O661 O 0.43504 -0.02930 0.50389
 O662 O 0.44728 -0.02290 0.55027
 O663 O 0.48949 -0.06375 0.47171
 O664 O 0.53417 -0.05703 0.47019
 O665 O 0.46227 -0.00316 0.43769
 O666 O 0.46779 0.04023 0.44432
 O667 O 0.56385 0.00032 0.52591
 O668 O 0.55322 -0.04200 0.52543
 O669 O 0.50819 0.03256 0.56502
 O670 O 0.46381 0.02825 0.56040
 O671 O 0.52983 0.06258 0.49595
 O672 O 0.52459 0.05145 0.45236
 Zr673 Zr 0.52672 0.02716 0.48272
 O674 O 0.50307 0.00580 0.46178
 Zr675 Zr 0.48913 0.02989 0.53095
 O676 O 0.46341 0.00950 0.51151
 Zr677 Zr 0.52898 -0.01344 0.52831
 O678 O 0.50489 -0.03625 0.50980
 Zr679 Zr 0.46799 0.01342 0.47258
 O680 O 0.49154 0.03656 0.49194
 Zr681 Zr 0.50755 -0.03049 0.47094
 O682 O 0.53357 -0.00932 0.48934
 Zr683 Zr 0.46977 -0.02680 0.51865
 O684 O 0.49406 -0.00630 0.54018
 O685 O 0.52413 0.02270 0.52129
 O686 O 0.47236 -0.02290 0.47987
 C687 C 0.57353 0.01614 0.51154
 C688 C 0.51951 0.07358 0.51407
 C689 C 0.52513 0.02012 0.57461
 C690 C 0.42409 -0.01773 0.48656
 C691 C 0.47230 -0.02105 0.42715
 C692 C 0.47383 -0.07286 0.48669
 H693 H 0.50580 0.00880 0.44372
 H694 H 0.50828 -0.05297 0.51453
 H695 H 0.53559 0.03308 0.53027
 H696 H 0.44720 0.01423 0.51660
 H697 H 0.45025 0.05455 0.48311
 H698 H 0.45054 0.05421 0.52521
 H699 H 0.53165 -0.06772 0.48479
 H700 H 0.56004 -0.04119 0.50830
 H701 H 0.48022 0.03645 0.43183
 H702 H 0.50909 0.05954 0.45399
 H703 H 0.48446 -0.05990 0.54870
 H704 H 0.51559 -0.03869 0.56639
 H705 H 0.55574 0.00840 0.45127
 H706 H 0.53120 -0.01928 0.43068
 H707 H 0.46805 0.01447 0.57117
 H708 H 0.43458 -0.01150 0.54583
 O709 O 0.43557 0.50343 -0.02423
 O710 O 0.44400 0.54481 -0.02614
 O711 O 0.49397 0.47531 -0.06830
 O712 O 0.53330 0.47675 -0.06738
 O713 O 0.47396 0.44159 0.00070
 O714 O 0.48083 0.45022 0.04367
 O715 O 0.56347 0.53982 -0.01047
 O716 O 0.55116 0.53578 -0.05194
 O717 O 0.50821 0.56798 0.03053
 O718 O 0.46502 0.55903 0.03414
 O719 O 0.54072 0.50712 0.05877
 O720 O 0.54073 0.46510 0.04797
 O721 O 0.56781 0.51236 0.02055
 O722 O 0.56205 0.46771 0.01809
 O723 O 0.51265 0.53576 0.06267
 O724 O 0.46800 0.53234 0.05951
 O725 O 0.53066 0.57017 -0.00496
 O726 O 0.52189 0.56159 -0.04949
 O727 O 0.44014 0.47430 0.00522
 O728 O 0.45503 0.47671 0.04793
 O729 O 0.49946 0.44192 -0.03252
 O730 O 0.54165 0.45379 -0.03607
 O731 O 0.46390 0.50210 -0.06419
 O732 O 0.46762 0.54516 -0.05620
 Zr733 Zr 0.46995 0.51788 -0.02875
 O734 O 0.49255 0.54165 -0.00931
 Zr735 Zr 0.51247 0.47736 -0.03430
 O736 O 0.53728 0.49983 -0.01627
 Zr737 Zr 0.47645 0.47631 0.01529
 O738 O 0.50019 0.49772 0.03604
 Zr739 Zr 0.52772 0.53584 -0.02086
 O740 O 0.50489 0.51350 -0.04213
 Zr741 Zr 0.49252 0.53380 0.02933
 O742 O 0.46711 0.51233 0.01036
 Zr743 Zr 0.53513 0.49364 0.02256
 O744 O 0.51181 0.46947 0.00429
 O745 O 0.47736 0.48196 -0.02316
 O746 O 0.52762 0.52972 0.01780
 C747 C 0.42741 0.48655 -0.01017
 C748 C 0.47536 0.48600 -0.07632
 C749 C 0.48459 0.43142 -0.01768
 C750 C 0.57557 0.52981 0.00694
 C751 C 0.52251 0.57892 0.01554
 C752 C 0.53073 0.52409 0.07080
 H753 H 0.48751 0.55826 -0.01247
 H754 H 0.49877 0.49338 0.05398
 H755 H 0.46612 0.47128 -0.03203
 H756 H 0.55344 0.49702 -0.02292
 H757 H 0.54277 0.52748 -0.06575
 H758 H 0.54675 0.48798 -0.06489
 H759 H 0.47252 0.51886 0.07053
 H760 H 0.44622 0.49196 0.04762
 H761 H 0.50797 0.57130 -0.04480
 H762 H 0.48141 0.54323 -0.06757
 H763 H 0.52702 0.46468 0.05962
 H764 H 0.49656 0.44289 0.04077
 H765 H 0.44194 0.54783 -0.00800
 H766 H 0.46577 0.57047 0.01995
 H767 H 0.54347 0.44695 -0.01907
 H768 H 0.57177 0.47219 0.00329
 O769 O 0.68372 0.21752 0.48866
 O770 O 0.69758 0.21839 0.44620
 O771 O 0.74251 0.17820 0.52346
 O772 O 0.78145 0.18375 0.52841
 O773 O 0.71299 0.24084 0.55911
 O774 O 0.71830 0.28290 0.55182
 O775 O 0.81382 0.24356 0.46952
 O776 O 0.80350 0.20093 0.47227
 O777 O 0.75905 0.27568 0.43144
 O778 O 0.71430 0.27451 0.43566
 O779 O 0.78203 0.30468 0.49816
 O780 O 0.77540 0.29419 0.54342
 O781 O 0.81212 0.27205 0.49971
 O782 O 0.80023 0.26817 0.54426
 O783 O 0.75697 0.30618 0.46471
 O784 O 0.71330 0.29977 0.46265
 O785 O 0.78498 0.24485 0.43250
 O786 O 0.78129 0.20397 0.43841
 O787 O 0.68249 0.24516 0.51976
 O788 O 0.69486 0.28602 0.52262
 O789 O 0.73995 0.21073 0.56052
 O790 O 0.78285 0.21317 0.55521
 O791 O 0.71495 0.18118 0.49234
 O792 O 0.72138 0.19041 0.44908
 Zr793 Zr 0.71982 0.21605 0.47805
 O794 O 0.74403 0.23663 0.45673
 Zr795 Zr 0.75759 0.21270 0.52576
 O796 O 0.78342 0.23346 0.50664
 Zr797 Zr 0.71814 0.25663 0.52341
 O798 O 0.74198 0.27927 0.50385
 Zr799 Zr 0.77908 0.22919 0.46785
 O800 O 0.75497 0.20623 0.48692
 Zr801 Zr 0.73953 0.27291 0.46508
 O802 O 0.71342 0.25254 0.48442
 Zr803 Zr 0.77703 0.26999 0.51305
 O804 O 0.75307 0.24901 0.53474
 O805 O 0.72243 0.22038 0.51667
 O806 O 0.77467 0.26554 0.47437
 C807 C 0.67243 0.23010 0.50490
 C808 C 0.72576 0.16955 0.50972
 C809 C 0.72320 0.22319 0.57014
 C810 C 0.82315 0.26047 0.48259
 C811 C 0.77614 0.26345 0.42208
 C812 C 0.77295 0.31522 0.47900
 H813 H 0.74155 0.23342 0.43870
 H814 H 0.73854 0.29609 0.50796
 H815 H 0.71064 0.21044 0.52585
 H816 H 0.79956 0.22873 0.51192
 H817 H 0.79422 0.18668 0.47765
 H818 H 0.79639 0.18863 0.51994
 H819 H 0.71547 0.31069 0.47703
 H820 H 0.69136 0.28894 0.50470
 H821 H 0.76539 0.20273 0.43064
 H822 H 0.73624 0.18134 0.45165
 H823 H 0.76240 0.30554 0.53999
 H824 H 0.73316 0.28072 0.56147
 H825 H 0.69126 0.23484 0.44595
 H826 H 0.71811 0.26185 0.42343
 H827 H 0.78074 0.22839 0.56432
 H828 H 0.80994 0.25361 0.54250
 O829 O 0.81752 0.75670 -0.02124
 O830 O 0.80841 0.71502 -0.02235
 O831 O 0.75616 0.78536 -0.06011
 O832 O 0.71656 0.78524 -0.05460
 O833 O 0.78118 0.81849 0.00840
 O834 O 0.77815 0.80795 0.05186
 O835 O 0.68992 0.72324 0.00298
 O836 O 0.70150 0.72762 -0.04077
 O837 O 0.74856 0.69125 0.03791
 O838 O 0.79296 0.70032 0.03625
 O839 O 0.71937 0.75031 0.07063
 O840 O 0.72072 0.79394 0.06188
 O841 O 0.68876 0.74976 0.03516
 O842 O 0.69626 0.79322 0.03467
 O843 O 0.74917 0.72314 0.07219
 O844 O 0.79108 0.72359 0.06449
 O845 O 0.72194 0.69112 0.00578
 O846 O 0.72623 0.69752 -0.03673
 O847 O 0.81515 0.78630 0.00781
 O848 O 0.80512 0.78238 0.05179
 O849 O 0.75442 0.81876 -0.02357
 O850 O 0.71200 0.80791 -0.02304
 O851 O 0.78643 0.75859 -0.05849
 O852 O 0.78344 0.71600 -0.05108
 Zr853 Zr 0.78283 0.74246 -0.02287
 O854 O 0.76111 0.71856 -0.00230
 Zr855 Zr 0.74058 0.78360 -0.02415
 O856 O 0.71696 0.76143 -0.00374
 Zr857 Zr 0.78027 0.78326 0.02204
 O858 O 0.75844 0.76126 0.04458
 Zr859 Zr 0.72518 0.72543 -0.01001
 O860 O 0.74701 0.74748 -0.03301
 Zr861 Zr 0.76478 0.72523 0.03628
 O862 O 0.78886 0.74722 0.01584
 Zr863 Zr 0.72254 0.76632 0.03494
 O864 O 0.74431 0.79063 0.01446
 O865 O 0.77633 0.77841 -0.01633
 O866 O 0.72876 0.73022 0.02864
 C867 C 0.82652 0.77400 -0.00855
 C868 C 0.77397 0.77445 -0.06985
 C869 C 0.76992 0.82901 -0.00941
 C870 C 0.67916 0.73394 0.02092
 C871 C 0.73233 0.68131 0.02455
 C872 C 0.73151 0.73419 0.08198
 H873 H 0.76536 0.70193 -0.00642
 H874 H 0.76165 0.76492 0.06240
 H875 H 0.78677 0.78918 -0.02627
 H876 H 0.70045 0.76500 -0.00879
 H877 H 0.71073 0.73372 -0.05533
 H878 H 0.70380 0.77339 -0.05124
 H879 H 0.79315 0.74000 0.07091
 H880 H 0.81487 0.76790 0.04939
 H881 H 0.74310 0.69361 -0.03968
 H882 H 0.76898 0.71825 -0.06139
 H883 H 0.73424 0.79195 0.07355
 H884 H 0.76229 0.81544 0.05066
 H885 H 0.81368 0.71353 -0.00472
 H886 H 0.78964 0.68824 0.02318
 H887 H 0.71169 0.81443 -0.00583
 H888 H 0.68633 0.79094 0.01953
 O889 O 1.06344 0.21922 0.24803
 O890 O 1.05331 0.22475 0.29192
 O891 O 1.00114 0.18385 0.22000
 O892 O 0.96188 0.19106 0.21726
 O893 O 1.03202 0.24356 0.18006
 O894 O 1.03022 0.28644 0.18611
 O895 O 0.93720 0.25404 0.27614
 O896 O 0.94449 0.21091 0.27396
 O897 O 0.99665 0.28380 0.30953
 O898 O 1.04047 0.28120 0.30120
 O899 O 0.97065 0.31265 0.24179
 O900 O 0.97290 0.30109 0.19787
 O901 O 0.93833 0.28073 0.24381
 O902 O 0.94840 0.27487 0.19841
 O903 O 0.99796 0.31407 0.27316
 O904 O 1.04049 0.30593 0.27380
 O905 O 0.96858 0.25433 0.31110
 O906 O 0.96858 0.21410 0.30658
 O907 O 1.06431 0.24571 0.21550
 O908 O 1.05617 0.28796 0.21470
 O909 O 1.00287 0.21521 0.18147
 O910 O 0.96049 0.21959 0.18979
 O911 O 1.03058 0.18641 0.24919
 O912 O 1.02741 0.19742 0.29285
 Zr913 Zr 1.02852 0.22166 0.26229
 O914 O 1.00693 0.24398 0.28417
 Zr915 Zr 0.98760 0.21884 0.21734
 O916 O 0.96437 0.24132 0.23724
 Zr917 Zr 1.03000 0.26064 0.21522
 O918 O 1.00872 0.28493 0.23516
 Zr919 Zr 0.97088 0.23800 0.27581
 O920 O 0.99230 0.21326 0.25623
 Zr921 Zr 1.01307 0.27981 0.27403
 O922 O 1.03683 0.25757 0.25397
 Zr923 Zr 0.97263 0.27720 0.22871
 O924 O 0.99401 0.25457 0.20640
 O925 O 1.02351 0.22504 0.22387
 O926 O 0.97696 0.27398 0.26747
 C927 C 1.07387 0.22960 0.22942
 C928 C 1.01826 0.17487 0.23292
 C929 C 1.02034 0.22593 0.17053
 C930 C 0.92795 0.27036 0.26235
 C931 C 0.98005 0.27193 0.32077
 C932 C 0.98175 0.32359 0.25948
 H933 H 1.01030 0.24093 0.30210
 H934 H 1.01290 0.30140 0.22995
 H935 H 1.03372 0.21407 0.21421
 H936 H 0.94768 0.23719 0.23323
 H937 H 0.95262 0.19596 0.26915
 H938 H 0.94806 0.19660 0.22707
 H939 H 1.04043 0.31376 0.25713
 H940 H 1.06359 0.28798 0.23154
 H941 H 0.98491 0.20868 0.31003
 H942 H 1.01307 0.18727 0.29060
 H943 H 0.98890 0.30848 0.19712
 H944 H 1.01542 0.28395 0.17638
 H945 H 1.06182 0.24013 0.28939
 H946 H 1.03772 0.26798 0.31327
 H947 H 0.96320 0.23412 0.17949
 H948 H 0.93708 0.26169 0.20206
 O949 O 0.68941 1.02983 0.75454
 O950 O 0.70224 1.02888 0.79702
 O951 O 0.74972 1.06364 0.71795
 O952 O 0.78985 1.05717 0.72002
 O953 O 0.71845 1.00559 0.68361
 O954 O 0.71855 0.96275 0.69073
 O955 O 0.81583 0.99453 0.77626
 O956 O 0.80892 1.03685 0.77519
 O957 O 0.75498 0.96609 0.81313
 O958 O 0.71312 0.96718 0.80687
 O959 O 0.77917 0.93526 0.74515
 O960 O 0.77611 0.94640 0.70089
 O961 O 0.81252 0.96615 0.74601
 O962 O 0.80185 0.97141 0.70054
 O963 O 0.75268 0.93478 0.77733
 O964 O 0.70897 0.94612 0.77795
 O965 O 0.78582 0.99265 0.81203
 O966 O 0.78510 1.03402 0.80808
 O967 O 0.68669 1.00494 0.72111
 O968 O 0.69360 0.96222 0.72014
 O969 O 0.75000 1.03104 0.68274
 O970 O 0.79155 1.02801 0.69133
 O971 O 0.72334 1.06340 0.75043
 O972 O 0.72937 1.05369 0.79463
 Zr973 Zr 0.72517 1.02843 0.76553
 O974 O 0.74614 1.00530 0.78710
 Zr975 Zr 0.76446 1.02909 0.71895
 O976 O 0.78750 1.00622 0.73868
 Zr977 Zr 0.72061 0.98871 0.71935
 O978 O 0.74183 0.96389 0.73895
 Zr979 Zr 0.78210 1.01018 0.77742
 O980 O 0.76126 1.03550 0.75781
 Zr981 Zr 0.73862 0.96960 0.77777
 O982 O 0.71520 0.99270 0.75837
 Zr983 Zr 0.77801 0.97050 0.73134
 O984 O 0.75662 0.99343 0.70925
 O985 O 0.72871 1.02389 0.72714
 O986 O 0.77474 0.97425 0.77008
 C987 C 0.67794 1.02052 0.73624
 C988 C 0.73369 1.07352 0.73159
 C989 C 0.73161 1.02154 0.67263
 C990 C 0.82417 0.97744 0.76303
 C991 C 0.77324 0.97641 0.82287
 C992 C 0.76820 0.92467 0.76326
 H993 H 0.74317 1.00836 0.80508
 H994 H 0.73702 0.94751 0.73421
 H995 H 0.71811 1.03425 0.71750
 H996 H 0.80415 1.00988 0.73397
 H997 H 0.80107 1.05195 0.77028
 H998 H 0.80442 1.05076 0.72785
 H999 H 0.70846 0.93818 0.76144
 H1000 H 0.68562 0.96350 0.73666
 H1001 H 0.76891 1.03703 0.81446
 H1002 H 0.74440 1.06247 0.79123
 H1003 H 0.76076 0.93774 0.70215
 H1004 H 0.73380 0.96366 0.68144
 H1005 H 0.69294 1.01380 0.79665
 H1006 H 0.71208 0.98317 0.81451
 H1007 H 0.78967 1.01266 0.68238
 H1008 H 0.81398 0.98390 0.70383
 O1009 O 0.74059 0.56352 0.22237
 O1010 O 0.78280 0.55760 0.22055
 O1011 O 0.71214 0.50099 0.18888
 O1012 O 0.71148 0.46108 0.19599
 O1013 O 0.68429 0.52692 0.26033
 O1014 O 0.69830 0.52373 0.30253
 O1015 O 0.77919 0.43744 0.24393
 O1016 O 0.77384 0.44825 0.20302
 O1017 O 0.81302 0.49671 0.27837
 O1018 O 0.80361 0.54205 0.27491
 O1019 O 0.75937 0.46674 0.31574
 O1020 O 0.71574 0.46516 0.31234
 O1021 O 0.75831 0.43601 0.28032
 O1022 O 0.71361 0.44154 0.28415
 O1023 O 0.78464 0.49852 0.31482
 O1024 O 0.78280 0.54004 0.30635
 O1025 O 0.81043 0.46920 0.24722
 O1026 O 0.79887 0.47831 0.20152
 O1027 O 0.71509 0.56121 0.25562
 O1028 O 0.72421 0.55166 0.29971
 O1029 O 0.68168 0.49987 0.22870
 O1030 O 0.69286 0.45688 0.22993
 O1031 O 0.73936 0.53134 0.18717
 O1032 O 0.78202 0.53152 0.19204
 Zr1033 Zr 0.75705 0.52990 0.22171
 O1034 O 0.78304 0.50924 0.23988
 Zr1035 Zr 0.71651 0.48613 0.22510
 O1036 O 0.74100 0.46342 0.24292
 Zr1037 Zr 0.72035 0.52651 0.27047
 O1038 O 0.74451 0.50530 0.29075
 Zr1039 Zr 0.77589 0.47307 0.23276
 O1040 O 0.75134 0.49374 0.21232
 Zr1041 Zr 0.77938 0.51310 0.27886
 O1042 O 0.75533 0.53633 0.26058
 Zr1043 Zr 0.73977 0.46890 0.28195
 O1044 O 0.71320 0.48995 0.26426
 O1045 O 0.72218 0.52202 0.23193
 O1046 O 0.77448 0.47682 0.27166
 C1047 C 0.72446 0.57220 0.23671
 C1048 C 0.72269 0.51852 0.17761
 C1049 C 0.67258 0.51557 0.24342
 C1050 C 0.77269 0.42685 0.26414
 C1051 C 0.82140 0.47946 0.26533
 C1052 C 0.77596 0.47979 0.32541
 H1053 H 0.79911 0.51403 0.23417
 H1054 H 0.74232 0.50841 0.30885
 H1055 H 0.71060 0.53166 0.22256
 H1056 H 0.73736 0.44669 0.23834
 H1057 H 0.76362 0.45546 0.18994
 H1058 H 0.72477 0.44966 0.19703
 H1059 H 0.76782 0.54007 0.31610
 H1060 H 0.73807 0.56189 0.29531
 H1061 H 0.81272 0.48808 0.20679
 H1062 H 0.78081 0.51612 0.18305
 H1063 H 0.71705 0.47980 0.32260
 H1064 H 0.69145 0.50739 0.30237
 H1065 H 0.78353 0.56440 0.23764
 H1066 H 0.81601 0.53748 0.26267
 H1067 H 0.68707 0.45758 0.24744
 H1068 H 0.71565 0.43101 0.26946
 O1069 O 0.56491 0.21753 0.75644
 O1070 O 0.55350 0.22353 0.79916
 O1071 O 0.50279 0.18544 0.72442
 O1072 O 0.46520 0.19513 0.71740
 O1073 O 0.54000 0.24556 0.68672
 O1074 O 0.53987 0.28758 0.69331
 O1075 O 0.44005 0.26029 0.77661
 O1076 O 0.44408 0.21690 0.77444
 O1077 O 0.50020 0.28511 0.81427
 O1078 O 0.54275 0.28212 0.80795
 O1079 O 0.47647 0.31534 0.74612
 O1080 O 0.48363 0.30414 0.70051
 O1081 O 0.44323 0.28455 0.74258
 O1082 O 0.45638 0.28075 0.69952
 O1083 O 0.50148 0.31534 0.77965
 O1084 O 0.54549 0.30601 0.77925
 O1085 O 0.46993 0.25789 0.81372
 O1086 O 0.46656 0.21709 0.80766
 O1087 O 0.56981 0.24531 0.72546
 O1088 O 0.56332 0.28807 0.72392
 O1089 O 0.51092 0.21705 0.68622
 O1090 O 0.46744 0.22432 0.69068
 O1091 O 0.52988 0.18729 0.75565
 O1092 O 0.52539 0.19940 0.79972
 Zr1093 Zr 0.52969 0.22250 0.76849
 O1094 O 0.50816 0.24581 0.78889
 Zr1095 Zr 0.49218 0.22151 0.72046
 O1096 O 0.46872 0.24498 0.73900
 Zr1097 Zr 0.53628 0.26170 0.72208
 O1098 O 0.51473 0.28692 0.74036
 Zr1099 Zr 0.47245 0.24169 0.77807
 O1100 O 0.49370 0.21586 0.75973
 Zr1101 Zr 0.51677 0.28127 0.77928
 O1102 O 0.54051 0.25788 0.76110
 Zr1103 Zr 0.47888 0.28054 0.73131
 O1104 O 0.50073 0.25706 0.71051
 O1105 O 0.52762 0.22628 0.72983
 O1106 O 0.48086 0.27714 0.77024
 C1107 C 0.57725 0.22807 0.73935
 C1108 C 0.51812 0.17565 0.73911
 C1109 C 0.52890 0.22807 0.67633
 C1110 C 0.43170 0.27608 0.76145
 C1111 C 0.48249 0.27423 0.82448
 C1112 C 0.48592 0.32515 0.76549
 H1113 H 0.51051 0.24239 0.80694
 H1114 H 0.51977 0.30327 0.73565
 H1115 H 0.53780 0.21484 0.72089
 H1116 H 0.45215 0.24163 0.73379
 H1117 H 0.45111 0.20175 0.76855
 H1118 H 0.45110 0.20110 0.72648
 H1119 H 0.54314 0.31743 0.76528
 H1120 H 0.56930 0.28793 0.74138
 H1121 H 0.48231 0.21091 0.81239
 H1122 H 0.51140 0.18908 0.79625
 H1123 H 0.49636 0.31569 0.70485
 H1124 H 0.52449 0.28781 0.68429
 H1125 H 0.56295 0.23845 0.79737
 H1126 H 0.54057 0.26752 0.81825
 H1127 H 0.47267 0.23790 0.68000
 H1128 H 0.44666 0.26595 0.70011
 O1129 O 0.23933 0.68573 0.53168
 O1130 O 0.28191 0.69341 0.53255
 O1131 O 0.20958 0.74783 0.56320
 O1132 O 0.21019 0.78716 0.55605
 O1133 O 0.18242 0.71821 0.49449
 O1134 O 0.19514 0.72164 0.45141
 O1135 O 0.27734 0.81165 0.50122
 O1136 O 0.26888 0.80426 0.54437
 O1137 O 0.31142 0.74972 0.47576
 O1138 O 0.30232 0.70830 0.47371
 O1139 O 0.25425 0.78063 0.43476
 O1140 O 0.21025 0.77840 0.43941
 O1141 O 0.25243 0.81160 0.46761
 O1142 O 0.20861 0.80404 0.46613
 O1143 O 0.28281 0.75229 0.43779
 O1144 O 0.27801 0.70760 0.44637
 O1145 O 0.30818 0.77975 0.50414
 O1146 O 0.29599 0.77641 0.54846
 O1147 O 0.21530 0.68533 0.49729
 O1148 O 0.22152 0.69502 0.45359
 O1149 O 0.17936 0.74721 0.52414
 O1150 O 0.18943 0.79004 0.52163
 O1151 O 0.23894 0.72018 0.56651
 O1152 O 0.28048 0.71855 0.56039
 Zr1153 Zr 0.25531 0.71990 0.53106
 O1154 O 0.28040 0.74096 0.51164
 Zr1155 Zr 0.21402 0.76201 0.52681
 O1156 O 0.23758 0.78515 0.50741
 Zr1157 Zr 0.21814 0.72029 0.48272
 O1158 O 0.24155 0.74166 0.46111
 Zr1159 Zr 0.27291 0.77735 0.51699
 O1160 O 0.24931 0.75626 0.53892
 Zr1161 Zr 0.27667 0.73569 0.47283
 O1162 O 0.25348 0.71217 0.49249
 Zr1163 Zr 0.23555 0.77792 0.46879
 O1164 O 0.21000 0.75659 0.48797
 O1165 O 0.22019 0.72596 0.52118
 O1166 O 0.27093 0.77200 0.47838
 C1167 C 0.22458 0.67547 0.51673
 C1168 C 0.22147 0.73211 0.57546
 C1169 C 0.17056 0.73023 0.51070
 C1170 C 0.26812 0.82149 0.48173
 C1171 C 0.32007 0.76721 0.48847
 C1172 C 0.27257 0.76968 0.42640
 H1173 H 0.29650 0.73670 0.51749
 H1174 H 0.23938 0.73802 0.44312
 H1175 H 0.20902 0.71599 0.53102
 H1176 H 0.23384 0.80198 0.51121
 H1177 H 0.25960 0.79707 0.55834
 H1178 H 0.22052 0.80102 0.55195
 H1179 H 0.26687 0.71141 0.43260
 H1180 H 0.23699 0.68706 0.45613
 H1181 H 0.30732 0.76315 0.54623
 H1182 H 0.28257 0.73519 0.56617
 H1183 H 0.21318 0.76439 0.42863
 H1184 H 0.18728 0.73739 0.45192
 H1185 H 0.28069 0.68414 0.51681
 H1186 H 0.30648 0.70572 0.49151
 H1187 H 0.18377 0.78891 0.50412
 H1188 H 0.21039 0.81504 0.48051
 O1189 O 0.32115 0.25436 0.97495
 O1190 O 0.31254 0.21233 0.97561
 O1191 O 0.25924 0.28055 0.93533
 O1192 O 0.21985 0.28237 0.94159
 O1193 O 0.28618 0.31609 1.00202
 O1194 O 0.28114 0.30763 1.04630
 O1195 O 0.19386 0.22048 1.00068
 O1196 O 0.20401 0.22405 0.95769
 O1197 O 0.25372 0.18909 1.03472
 O1198 O 0.29766 0.20047 1.03561
 O1199 O 0.22306 0.25062 1.06747
 O1200 O 0.22353 0.29278 1.05766
 O1201 O 0.19239 0.24815 1.03179
 O1202 O 0.20046 0.29239 1.02888
 O1203 O 0.25232 0.22289 1.06964
 O1204 O 0.29337 0.22263 1.06336
 O1205 O 0.22588 0.18908 1.00376
 O1206 O 0.23110 0.19635 0.95920
 O1207 O 0.31891 0.28401 1.00398
 O1208 O 0.30824 0.28176 1.04811
 O1209 O 0.26003 0.31509 0.96941
 O1210 O 0.21668 0.30610 0.97341
 O1211 O 0.28960 0.25393 0.93786
 O1212 O 0.28711 0.21167 0.94747
 Zr1213 Zr 0.28660 0.23940 0.97428
 O1214 O 0.26486 0.21618 0.99551
 Zr1215 Zr 0.24440 0.28075 0.97160
 O1216 O 0.22070 0.25908 0.99249
 Zr1217 Zr 0.28396 0.28161 1.01781
 O1218 O 0.26205 0.26022 1.04086
 Zr1219 Zr 0.22896 0.22298 0.98734
 O1220 O 0.25080 0.24442 0.96387
 Zr1221 Zr 0.26839 0.22393 1.03385
 O1222 O 0.29259 0.24535 1.01286
 Zr1223 Zr 0.22614 0.26498 1.03103
 O1224 O 0.24805 0.28882 1.00998
 O1225 O 0.28000 0.27535 0.97971
 O1226 O 0.23237 0.22864 1.02593
 C1227 C 0.33017 0.27179 0.98751
 C1228 C 0.27697 0.26928 0.92591
 C1229 C 0.27589 0.32552 0.98294
 C1230 C 0.18302 0.23157 1.01830
 C1231 C 0.23729 0.17901 1.02165
 C1232 C 0.23510 0.23474 1.07927
 H1233 H 0.26933 0.19952 0.99187
 H1234 H 0.26526 0.26438 1.05856
 H1235 H 0.29064 0.28527 0.96920
 H1236 H 0.20417 0.26238 0.98735
 H1237 H 0.21200 0.23203 0.94331
 H1238 H 0.20637 0.27165 0.94585
 H1239 H 0.29759 0.23936 1.06726
 H1240 H 0.31848 0.26757 1.04609
 H1241 H 0.24578 0.18709 0.96192
 H1242 H 0.27198 0.21270 0.93805
 H1243 H 0.23844 0.29294 1.06747
 H1244 H 0.26582 0.31586 1.04360
 H1245 H 0.31889 0.21240 0.99290
 H1246 H 0.29687 0.19005 1.02073
 H1247 H 0.21933 0.31569 0.98874
 H1248 H 0.19050 0.28943 1.01392
 C1249 C 0.26706 0.35710 0.78239
 C1250 C 0.29195 0.35258 0.78225
 C1251 C 0.30725 0.37021 0.77243
 C1252 C 0.29878 0.39219 0.76463
 C1253 C 0.27487 0.39827 0.76771
 C1254 C 0.25851 0.38028 0.77561
 C1255 C 0.25039 0.33891 0.78816
 C1256 C 0.22608 0.34359 0.78852
 C1257 C 0.21783 0.36625 0.78245
 C1258 C 0.23379 0.38436 0.77573
 H1259 H 0.25589 0.32077 0.79169
 H1260 H 0.21356 0.32944 0.79309
 H1261 H 0.19890 0.36965 0.78235
 H1262 H 0.22648 0.40121 0.76980
 H1263 H 0.32626 0.36752 0.77163
 H1264 H 0.31149 0.40509 0.75735
 C1265 C 0.31364 -0.12494 0.27760
 C1266 C 0.29749 -0.14107 0.28968
 C1267 C 0.27387 -0.13373 0.29315
 C1268 C 0.26596 -0.11189 0.28391
 C1269 C 0.28089 -0.09675 0.26981
 C1270 C 0.30499 -0.10389 0.26555
 C1271 C 0.33855 -0.12825 0.27907
 C1272 C 0.35424 -0.11387 0.26551
 C1273 C 0.34556 -0.09547 0.25077
 C1274 C 0.32137 -0.09026 0.25097
 H1275 H 0.34617 -0.14157 0.29129
 H1276 H 0.37320 -0.11698 0.26653
 H1277 H 0.35777 -0.08447 0.23994
 H1278 H 0.31640 -0.07529 0.23967
 H1279 H 0.26101 -0.14526 0.30241
 H1280 H 0.24765 -0.10699 0.28743
 C1281 C 0.76745 0.85887 0.78541
 C1282 C 0.79244 0.85438 0.78538
 C1283 C 0.80759 0.87165 0.77446
 C1284 C 0.79903 0.89359 0.76638
 C1285 C 0.77502 0.89954 0.76898
 C1286 C 0.75876 0.88166 0.77744
 C1287 C 0.75074 0.84064 0.79119
 C1288 C 0.72640 0.84504 0.79092
 C1289 C 0.71804 0.86736 0.78388
 C1290 C 0.73395 0.88535 0.77676
 H1291 H 0.75619 0.82256 0.79501
 H1292 H 0.71393 0.83087 0.79558
 H1293 H 0.69908 0.87053 0.78314
 H1294 H 0.72648 0.90170 0.76974
 H1295 H 0.82664 0.86902 0.77366
 H1296 H 0.81164 0.90650 0.75897
 C1297 C 0.45643 0.87344 0.31300
 C1298 C 0.45090 0.89058 0.29419
 C1299 C 0.45446 0.88468 0.26895
 C1300 C 0.46356 0.86251 0.26217
 C1301 C 0.47067 0.84582 0.28035
 C1302 C 0.46799 0.85175 0.30632
 C1303 C 0.45007 0.87708 0.33838
 C1304 C 0.45787 0.86185 0.35723
 C1305 C 0.47140 0.84215 0.35112
 C1306 C 0.47576 0.83667 0.32606
 H1307 H 0.43880 0.89157 0.34394
 H1308 H 0.45334 0.86532 0.37663
 H1309 H 0.47777 0.83046 0.36584
 H1310 H 0.48535 0.82055 0.32305
 H1311 H 0.45012 0.89735 0.25427
 H1312 H 0.46541 0.85850 0.24239
 C1313 C -0.05825 0.86855 0.79403
 C1314 C -0.04696 0.88844 0.78240
 C1315 C -0.02875 0.88487 0.76493
 C1316 C -0.02147 0.86181 0.75896
 C1317 C -0.03197 0.84192 0.77066
 C1318 C -0.05042 0.84510 0.78844
 C1319 C -0.07714 0.87153 0.81127
 C1320 C -0.08795 0.85186 0.82273
 C1321 C -0.08009 0.82894 0.81749
 C1322 C -0.06131 0.82548 0.80076
 H1323 H -0.08386 0.88902 0.81594
 H1324 H -0.10254 0.85440 0.83569
 H1325 H -0.08892 0.81380 0.82617
 H1326 H -0.05580 0.80732 0.79717
 H1327 H -0.01998 0.90002 0.75611
 H1328 H -0.00729 0.85946 0.74542
 C1329 C -0.01331 -0.13936 -0.03691
 C1330 C -0.03846 -0.14330 -0.03675
 C1331 C -0.05304 -0.12508 -0.02737
 C1332 C -0.04371 -0.10304 -0.02058
 C1333 C -0.01944 -0.09781 -0.02321
 C1334 C -0.00381 -0.11636 -0.03051
 C1335 C 0.00277 -0.15817 -0.04139
 C1336 C 0.02724 -0.15420 -0.04159
 C1337 C 0.03637 -0.13166 -0.03626
 C1338 C 0.02111 -0.11304 -0.03031
 H1339 H -0.00330 -0.17632 -0.04381
 H1340 H 0.03921 -0.16883 -0.04529
 H1341 H 0.05543 -0.12879 -0.03593
 H1342 H 0.02918 -0.09644 -0.02462
 H1343 H -0.07221 -0.12712 -0.02678
 H1344 H -0.05597 -0.08947 -0.01431
 C1345 C -0.01925 0.35356 0.46799
 C1346 C -0.04423 0.34894 0.46637
 C1347 C -0.05985 0.36603 0.47634
 C1348 C -0.05159 0.38813 0.48456
 C1349 C -0.02740 0.39413 0.48351
 C1350 C -0.01086 0.37635 0.47642
 C1351 C -0.00239 0.33549 0.46323
 C1352 C 0.02193 0.34009 0.46515
 C1353 C 0.03003 0.36243 0.47273
 C1354 C 0.01388 0.38027 0.47870
 H1355 H -0.00776 0.31741 0.45882
 H1356 H 0.03455 0.32606 0.46129
 H1357 H 0.04893 0.36574 0.47469
 H1358 H 0.02099 0.39674 0.48609
 H1359 H -0.07894 0.36331 0.47577
 H1360 H -0.06452 0.40122 0.49039
 C1361 C 0.43139 -0.12577 0.47400
 C1362 C 0.44688 -0.14145 0.46074
 C1363 C 0.47043 -0.13376 0.45662
 C1364 C 0.47868 -0.11197 0.46578
 C1365 C 0.46439 -0.09732 0.48080
 C1366 C 0.44076 -0.10531 0.48662
 C1367 C 0.40639 -0.12892 0.47348
 C1368 C 0.39166 -0.11597 0.48927
 C1369 C 0.40142 -0.09906 0.50523
 C1370 C 0.42558 -0.09339 0.50370
 H1371 H 0.39804 -0.14120 0.46059
 H1372 H 0.37264 -0.11917 0.48921
 H1373 H 0.39004 -0.08942 0.51802
 H1374 H 0.43152 -0.07967 0.51626
 H1375 H 0.48304 -0.14485 0.44679
 H1376 H 0.49680 -0.10670 0.46132
 C1377 C 0.48686 0.36441 -0.03280
 C1378 C 0.46202 0.35972 -0.03573
 C1379 C 0.44587 0.37804 -0.03017
 C1380 C 0.45372 0.40083 -0.02404
 C1381 C 0.47797 0.40632 -0.02288
 C1382 C 0.49483 0.38795 -0.02655
 C1383 C 0.50385 0.34593 -0.03406
 C1384 C 0.52800 0.35072 -0.03080
 C1385 C 0.53574 0.37376 -0.02539
 C1386 C 0.51936 0.39215 -0.02292
 H1387 H 0.49865 0.32749 -0.03679
 H1388 H 0.54074 0.33636 -0.03198
 H1389 H 0.55449 0.37729 -0.02246
 H1390 H 0.52605 0.40942 -0.01736
 H1391 H 0.42687 0.37529 -0.03221
 H1392 H 0.44063 0.41461 -0.02108
 C1393 C 0.80596 0.36655 0.44653
 C1394 C 0.79574 0.38616 0.45917
 C1395 C 0.77928 0.38210 0.47849
 C1396 C 0.77239 0.35890 0.48502
 C1397 C 0.78178 0.33924 0.47238
 C1398 C 0.79873 0.34289 0.45299
 C1399 C 0.82359 0.36997 0.42791
 C1400 C 0.83379 0.35053 0.41591
 C1401 C 0.82659 0.32746 0.42209
 C1402 C 0.80904 0.32352 0.44020
 H1403 H 0.82992 0.38760 0.42268
 H1404 H 0.84747 0.35336 0.40186
 H1405 H 0.83497 0.31261 0.41301
 H1406 H 0.80410 0.30523 0.44453
 H1407 H 0.77166 0.39702 0.48850
 H1408 H 0.75941 0.35627 0.49985
 C1409 C 0.76942 0.89518 -0.02945
 C1410 C 0.79448 0.89926 -0.03147
 C1411 C 0.80985 0.88142 -0.02257
 C1412 C 0.80122 0.85947 -0.01444
 C1413 C 0.77693 0.85405 -0.01507
 C1414 C 0.76065 0.87229 -0.02159
 C1415 C 0.75291 0.91379 -0.03327
 C1416 C 0.72852 0.90962 -0.03118
 C1417 C 0.72003 0.88713 -0.02435
 C1418 C 0.73587 0.86874 -0.01919
 H1419 H 0.75865 0.93190 -0.03706
 H1420 H 0.71617 0.92405 -0.03437
 H1421 H 0.70108 0.88411 -0.02230
 H1422 H 0.72851 0.85211 -0.01243
 H1423 H 0.82899 0.88353 -0.02361
 H1424 H 0.81391 0.84609 -0.00875
 C1425 C 0.81851 0.28400 0.36926
 C1426 C 0.80141 0.29195 0.35148
 C1427 C 0.77722 0.29014 0.35729
 C1428 C 0.76967 0.28051 0.38003
 C1429 C 0.78595 0.27165 0.39760
 C1430 C 0.81077 0.27281 0.39202
 C1431 C 0.84317 0.28773 0.36537
 C1432 C 0.85989 0.27883 0.38212
 C1433 C 0.85247 0.26673 0.40353
 C1434 C 0.82829 0.26417 0.40876
 H1435 H 0.84987 0.29791 0.34965
 H1436 H 0.87870 0.28159 0.37862
 H1437 H 0.86553 0.25988 0.41652
 H1438 H 0.82394 0.25570 0.42622
 H1439 H 0.76396 0.29616 0.34400
 H1440 H 0.75074 0.27979 0.38385
 C1441 C 0.77368 0.78698 -0.14062
 C1442 C 0.79695 0.79666 -0.14354
 C1443 C 0.81213 0.79762 -0.12274
 C1444 C 0.80444 0.78995 -0.09916
 C1445 C 0.78124 0.78129 -0.09556
 C1446 C 0.76569 0.77946 -0.11639
 C1447 C 0.75842 0.78389 -0.16139
 C1448 C 0.73561 0.77437 -0.15829
 C1449 C 0.72773 0.76728 -0.13463
 C1450 C 0.74262 0.76955 -0.11387
 H1451 H 0.76410 0.78831 -0.18022
 H1452 H 0.72410 0.77219 -0.17441
 H1453 H 0.71009 0.75965 -0.13240
 H1454 H 0.73604 0.76309 -0.09600
 H1455 H 0.83003 0.80473 -0.12472
 H1456 H 0.81657 0.79127 -0.08343
 C1457 C 0.31964 0.46300 0.87976
 C1458 C 0.30224 0.45956 0.89883
 C1459 C 0.27810 0.46171 0.89269
 C1460 C 0.27094 0.46739 0.86838
 C1461 C 0.28765 0.47178 0.84937
 C1462 C 0.31238 0.46983 0.85508
 C1463 C 0.34411 0.45904 0.88436
 C1464 C 0.36113 0.46377 0.86600
 C1465 C 0.35421 0.47134 0.84236
 C1466 C 0.33018 0.47369 0.83669
 H1467 H 0.35051 0.45205 0.90197
 H1468 H 0.37978 0.46142 0.87005
 H1469 H 0.36754 0.47488 0.82812
 H1470 H 0.32602 0.47812 0.81763
 H1471 H 0.26457 0.45879 0.90690
 H1472 H 0.25209 0.46884 0.86450
 C1473 C 0.31764 -0.03717 0.37340
 C1474 C 0.30106 -0.04758 0.39070
 C1475 C 0.27692 -0.04822 0.38389
 C1476 C 0.26904 -0.03823 0.36149
 C1477 C 0.28462 -0.02627 0.34504
 C1478 C 0.30930 -0.02476 0.35160
 C1479 C 0.34248 -0.04048 0.37617
 C1480 C 0.35869 -0.02892 0.36050
 C1481 C 0.35062 -0.01431 0.34132
 C1482 C 0.32633 -0.01246 0.33663
 H1483 H 0.34969 -0.05251 0.39008
 H1484 H 0.37760 -0.03139 0.36319
 H1485 H 0.36329 -0.00514 0.32928
 H1486 H 0.32170 -0.00150 0.32090
 H1487 H 0.26363 -0.05584 0.39636
 H1488 H 0.25026 -0.03959 0.35715
 C1489 C -0.03754 -0.06918 -0.13259
 C1490 C -0.04523 -0.05226 -0.15101
 C1491 C -0.04434 -0.02786 -0.14494
 C1492 C -0.03511 -0.02006 -0.12223
 C1493 C -0.02578 -0.03611 -0.10465
 C1494 C -0.02657 -0.06106 -0.10994
 C1495 C -0.04220 -0.09399 -0.13513
 C1496 C -0.03317 -0.11051 -0.11815
 C1497 C -0.02042 -0.10272 -0.09748
 C1498 C -0.01784 -0.07836 -0.09289
 H1499 H -0.05334 -0.10096 -0.14989
 H1500 H -0.03643 -0.12942 -0.12083
 H1501 H -0.01348 -0.11562 -0.08429
 H1502 H -0.00937 -0.07370 -0.07560
 H1503 H -0.04999 -0.01440 -0.15827
 H1504 H -0.03476 -0.00102 -0.11859
 C1505 C -0.05040 0.43197 0.37408
 C1506 C -0.05051 0.44901 0.35426
 C1507 C -0.04455 0.47284 0.35928
 C1508 C -0.03763 0.47986 0.38326
 C1509 C -0.03628 0.46321 0.40288
 C1510 C -0.04301 0.43907 0.39853
 C1511 C -0.05816 0.40815 0.37031
 C1512 C -0.05785 0.39157 0.38987
 C1513 C -0.05040 0.39845 0.41362
 C1514 C -0.04336 0.42197 0.41811
 H1515 H -0.06487 0.40211 0.35242
 H1516 H -0.06368 0.37336 0.38664
 H1517 H -0.05039 0.38553 0.42871
 H1518 H -0.03863 0.42662 0.43710
 H1519 H -0.04503 0.48608 0.34440
 H1520 H -0.03279 0.49838 0.38643
 C1521 C 0.43840 -0.05482 0.37650
 C1522 C 0.44735 -0.04305 0.35479
 C1523 C 0.46334 -0.02395 0.35733
 C1524 C 0.47090 -0.01667 0.38105
 C1525 C 0.46314 -0.02875 0.40266
 C1526 C 0.44697 -0.04813 0.40057
 C1527 C 0.42113 -0.07321 0.37480
 C1528 C 0.41356 -0.08561 0.39613
 C1529 C 0.42278 -0.07976 0.41953
 C1530 C 0.43913 -0.06103 0.42189
 H1531 H 0.41331 -0.07812 0.35702
 H1532 H 0.40055 -0.09986 0.39447
 H1533 H 0.41702 -0.08964 0.43596
 H1534 H 0.44561 -0.05679 0.44046
 H1535 H 0.47017 -0.01480 0.34085
 H1536 H 0.48332 -0.00184 0.38254
 C1537 C 0.44089 0.45170 -0.12616
 C1538 C 0.45410 0.45853 -0.14776
 C1539 C 0.47295 0.47482 -0.14556
 C1540 C 0.47902 0.48431 -0.12229
 C1541 C 0.46614 0.47805 -0.10071
 C1542 C 0.44680 0.46174 -0.10246
 C1543 C 0.42227 0.43466 -0.12753
 C1544 C 0.40966 0.42786 -0.10607
 C1545 C 0.41524 0.43790 -0.08294
 C1546 C 0.43363 0.45466 -0.08105
 H1547 H 0.41733 0.42643 -0.14511
 H1548 H 0.39539 0.41483 -0.10742
 H1549 H 0.40532 0.43261 -0.06638
 H1550 H 0.43738 0.46195 -0.06273
 H1551 H 0.48319 0.48003 -0.16196
 H1552 H 0.49413 0.49637 -0.12101
 C1553 C 0.43480 0.80093 0.37464
 C1554 C 0.44694 0.79425 0.39677
 C1555 C 0.46614 0.77855 0.39539
 C1556 C 0.47357 0.76949 0.37235
 C1557 C 0.46159 0.77540 0.35020
 C1558 C 0.44185 0.79109 0.35119
 C1559 C 0.41627 0.81781 0.37526
 C1560 C 0.40485 0.82481 0.35329
 C1561 C 0.41147 0.81501 0.33044
 C1562 C 0.42958 0.79815 0.32931
 H1563 H 0.41062 0.82595 0.39264
 H1564 H 0.39080 0.83791 0.35401
 H1565 H 0.40266 0.82076 0.31350
 H1566 H 0.43404 0.79108 0.31116
 H1567 H 0.47559 0.77348 0.41228
 H1568 H 0.48884 0.75781 0.37177
 C1569 C -0.02225 0.78485 0.89454
 C1570 C -0.04559 0.79383 0.89770
 C1571 C -0.06191 0.79189 0.87793
 C1572 C -0.05516 0.78240 0.85492
 C1573 C -0.03172 0.77532 0.85067
 C1574 C -0.01518 0.77575 0.87075
 C1575 C -0.00606 0.78388 0.91473
 C1576 C 0.01680 0.77496 0.91141
 C1577 C 0.02377 0.76625 0.88814
 C1578 C 0.00791 0.76632 0.86807
 H1579 H -0.01109 0.78934 0.93339
 H1580 H 0.02902 0.77441 0.92708
 H1581 H 0.04140 0.75895 0.88577
 H1582 H 0.01369 0.75830 0.85074
 H1583 H -0.07999 0.79812 0.88021
 H1584 H -0.06814 0.78113 0.84002
 C1585 C 0.35483 0.76577 0.27613
 C1586 C 0.35150 0.79055 0.28028
 C1587 C 0.37036 0.80639 0.27521
 C1588 C 0.39255 0.79814 0.26814
 C1589 C 0.39698 0.77367 0.26613
 C1590 C 0.37777 0.75724 0.26904
 C1591 C 0.33575 0.74936 0.27823
 C1592 C 0.33919 0.72509 0.27389
 C1593 C 0.36151 0.71678 0.26692
 C1594 C 0.38058 0.73267 0.26427
 H1595 H 0.31794 0.75518 0.28269
 H1596 H 0.32439 0.71270 0.27555
 H1597 H 0.36396 0.69797 0.26314
 H1598 H 0.39725 0.72562 0.25772
 H1599 H 0.36841 0.82538 0.27813
 H1600 H 0.40683 0.81107 0.26566
 C1601 C -0.14209 0.76727 0.78246
 C1602 C -0.14468 0.79234 0.78542
 C1603 C -0.12618 0.80754 0.77751
 C1604 C -0.10485 0.79838 0.76860
 C1605 C -0.10083 0.77373 0.76819
 C1606 C -0.11993 0.75790 0.77398
 C1607 C -0.16123 0.75132 0.78694
 C1608 C -0.15848 0.72678 0.78384
 C1609 C -0.13687 0.71767 0.77568
 C1610 C -0.11784 0.73303 0.77051
 H1611 H -0.17864 0.75761 0.79227
 H1612 H -0.17333 0.71480 0.78738
 H1613 H -0.13499 0.69864 0.77287
 H1614 H -0.10185 0.72529 0.76297
 H1615 H -0.12788 0.82674 0.77907
 H1616 H -0.09088 0.81078 0.76316
 C1617 C 0.88940 0.26200 0.46415
 C1618 C 0.89230 0.28701 0.46028
 C1619 C 0.87334 0.30219 0.46586
 C1620 C 0.85165 0.29311 0.47417
 C1621 C 0.84771 0.26846 0.47648
 C1622 C 0.86684 0.25262 0.47202
 C1623 C 0.90856 0.24613 0.46107
 C1624 C 0.90549 0.22164 0.46480
 C1625 C 0.88350 0.21251 0.47223
 C1626 C 0.86439 0.22779 0.47611
 H1627 H 0.92617 0.25248 0.45629
 H1628 H 0.92037 0.20972 0.46227
 H1629 H 0.88134 0.19351 0.47546
 H1630 H 0.84798 0.21997 0.48292
 H1631 H 0.87520 0.32133 0.46331
 H1632 H 0.83748 0.30555 0.47810
 C1633 C 0.89315 0.77316 -0.02345
 C1634 C 0.89609 0.79705 -0.03197
 C1635 C 0.87697 0.81285 -0.03046
 C1636 C 0.85487 0.80511 -0.02190
 C1637 C 0.85113 0.78137 -0.01451
 C1638 C 0.87044 0.76525 -0.01466
 C1639 C 0.91237 0.75708 -0.02306
 C1640 C 0.90922 0.73369 -0.01448
 C1641 C 0.88705 0.72599 -0.00586
 C1642 C 0.86784 0.74159 -0.00576
 H1643 H 0.93002 0.76249 -0.02900
 H1644 H 0.92411 0.72155 -0.01427
 H1645 H 0.88480 0.70790 0.00104
 H1646 H 0.85113 0.73512 0.00177
 H1647 H 0.87893 0.83115 -0.03692
 H1648 H 0.84025 0.81753 -0.02213
 C1649 C -0.11778 -0.05833 -0.05102
 C1650 C -0.13750 -0.04559 -0.04157
 C1651 C -0.13383 -0.02598 -0.02581
 C1652 C -0.11085 -0.01875 -0.01941
 C1653 C -0.09106 -0.03094 -0.02866
 C1654 C -0.09433 -0.05079 -0.04471
 C1655 C -0.12090 -0.07834 -0.06679
 C1656 C -0.10134 -0.09063 -0.07606
 C1657 C -0.07843 -0.08309 -0.07010
 C1658 C -0.07481 -0.06321 -0.05484
 H1659 H -0.13842 -0.08473 -0.07201
 H1660 H -0.10395 -0.10606 -0.08794
 H1661 H -0.06344 -0.09289 -0.07715
 H1662 H -0.05667 -0.05789 -0.05080
 H1663 H -0.14886 -0.01616 -0.01856
 H1664 H -0.10845 -0.00338 -0.00736
 C1665 C -0.14490 0.47804 0.47760
 C1666 C -0.14946 0.45328 0.47343
 C1667 C -0.13154 0.43683 0.47969
 C1668 C -0.10901 0.44443 0.48686
 C1669 C -0.10339 0.46872 0.48838
 C1670 C -0.12169 0.48577 0.48509
 C1671 C -0.16324 0.49513 0.47610
 C1672 C -0.15864 0.51923 0.48064
 C1673 C -0.13595 0.52675 0.48752
 C1674 C -0.11770 0.51022 0.49007
 H1675 H -0.18142 0.48996 0.47215
 H1676 H -0.17289 0.53207 0.47931
 H1677 H -0.13261 0.54543 0.49148
 H1678 H -0.10075 0.51670 0.49686
 H1679 H -0.13407 0.41783 0.47686
 H1680 H -0.09540 0.43112 0.48973
 C1681 C 0.35725 -0.02044 0.47203
 C1682 C 0.35569 -0.04427 0.46309
 C1683 C 0.37602 -0.05849 0.46317
 C1684 C 0.39771 -0.04945 0.47137
 C1685 C 0.39994 -0.02599 0.47985
 C1686 C 0.37962 -0.01119 0.48039
 C1687 C 0.33704 -0.00571 0.47315
 C1688 C 0.33887 0.01766 0.48199
 C1689 C 0.36070 0.02669 0.49003
 C1690 C 0.38093 0.01243 0.48938
 H1691 H 0.31969 -0.01218 0.46750
 H1692 H 0.32322 0.02878 0.48274
 H1693 H 0.36194 0.04480 0.49699
 H1694 H 0.39748 0.01997 0.49619
 H1695 H 0.37529 -0.07655 0.45595
 H1696 H 0.41321 -0.06063 0.47026
 C1697 C 0.36024 0.48829 -0.02410
 C1698 C 0.35577 0.46338 -0.02733
 C1699 C 0.37392 0.44728 -0.02078
 C1700 C 0.39647 0.45526 -0.01400
 C1701 C 0.40197 0.47963 -0.01321
 C1702 C 0.38346 0.49640 -0.01695
 C1703 C 0.34178 0.50522 -0.02605
 C1704 C 0.34621 0.52946 -0.02226
 C1705 C 0.36884 0.53732 -0.01562
 C1706 C 0.38720 0.52100 -0.01260
 H1707 H 0.32360 0.49986 -0.02972
 H1708 H 0.33186 0.54215 -0.02393
 H1709 H 0.37203 0.55611 -0.01214
 H1710 H 0.40402 0.52776 -0.00586
 H1711 H 0.37145 0.42819 -0.02293
 H1712 H 0.41015 0.44212 -0.01075
 C1713 C 0.37642 0.43879 0.79102
 C1714 C 0.39653 0.45227 0.78317
 C1715 C 0.39354 0.47262 0.76820
 C1716 C 0.37088 0.47982 0.76090
 C1717 C 0.35071 0.46678 0.76832
 C1718 C 0.35333 0.44604 0.78348
 C1719 C 0.37871 0.41886 0.80721
 C1720 C 0.35877 0.40638 0.81579
 C1721 C 0.33620 0.41353 0.80857
 C1722 C 0.33345 0.43304 0.79251
 H1723 H 0.39584 0.41293 0.81369
 H1724 H 0.36085 0.39121 0.82824
 H1725 H 0.32070 0.40396 0.81547
 H1726 H 0.31562 0.43794 0.78762
 H1727 H 0.40884 0.48325 0.76256
 H1728 H 0.36903 0.49588 0.74968
 C1729 C 0.36617 -0.05727 0.29790
 C1730 C 0.38750 -0.04774 0.28773
 C1731 C 0.38665 -0.02967 0.26953
 C1732 C 0.36490 -0.02085 0.26126
 C1733 C 0.34360 -0.02982 0.27119
 C1734 C 0.34402 -0.04816 0.28961
 C1735 C 0.36640 -0.07541 0.31643
 C1736 C 0.34522 -0.08430 0.32656
 C1737 C 0.32351 -0.07534 0.31850
 C1738 C 0.32284 -0.05748 0.30022
 H1739 H 0.38287 -0.08288 0.32322
 H1740 H 0.34565 -0.09819 0.34074
 H1741 H 0.30710 -0.08226 0.32644
 H1742 H 0.30563 -0.05096 0.29456
 H1743 H 0.40296 -0.02218 0.26189
 H1744 H 0.36468 -0.00682 0.24721
 C1745 C 0.13013 0.56176 0.71852
 C1746 C 0.11263 0.54480 0.71124
 C1747 C 0.11763 0.52047 0.71403
 C1748 C 0.13951 0.51309 0.72362
 C1749 C 0.15628 0.52970 0.73276
 C1750 C 0.15044 0.55441 0.73229
 C1751 C 0.12834 0.58593 0.71152
 C1752 C 0.14275 0.60323 0.72263
 C1753 C 0.16000 0.59648 0.73979
 C1754 C 0.16444 0.57231 0.74401
 H1755 H 0.11576 0.59153 0.69736
 H1756 H 0.14048 0.62189 0.71795
 H1757 H 0.17090 0.60996 0.74880
 H1758 H 0.17864 0.56836 0.75676
 H1759 H 0.10475 0.50710 0.70825
 H1760 H 0.14340 0.49416 0.72394
 C1761 C 0.10761 0.03490 0.23624
 C1762 C 0.10362 0.03939 0.21023
 C1763 C 0.12157 0.03331 0.19311
 C1764 C 0.14309 0.02407 0.20112
 C1765 C 0.14851 0.02205 0.22663
 C1766 C 0.13046 0.02683 0.24453
 C1767 C 0.08926 0.03733 0.25414
 C1768 C 0.09352 0.03324 0.27956
 C1769 C 0.11589 0.02610 0.28763
 C1770 C 0.13415 0.02263 0.27033
 H1771 H 0.07132 0.04176 0.24869
 H1772 H 0.07926 0.03529 0.29304
 H1773 H 0.11897 0.02268 0.30737
 H1774 H 0.15086 0.01596 0.27731
 H1775 H 0.11932 0.03625 0.17317
 H1776 H 0.15607 0.01931 0.18704
 C1777 C 0.61911 0.69595 0.19991
 C1778 C 0.63885 0.70413 0.21407
 C1779 C 0.63522 0.71881 0.23490
 C1780 C 0.61233 0.72579 0.24165
 C1781 C 0.59258 0.71824 0.22772
 C1782 C 0.59576 0.70301 0.20683
 C1783 C 0.62209 0.68070 0.17909
 C1784 C 0.60249 0.67210 0.16587
 C1785 C 0.57964 0.67871 0.17287
 C1786 C 0.57620 0.69431 0.19288
 H1787 H 0.63953 0.67518 0.17294
 H1788 H 0.60503 0.66015 0.15019
 H1789 H 0.56456 0.67155 0.16276
 H1790 H 0.55812 0.69903 0.19767
 H1791 H 0.65023 0.72498 0.24589
 H1792 H 0.61001 0.73739 0.25768
 C1793 C 0.11866 0.68316 0.70882
 C1794 C 0.13916 0.69654 0.71551
 C1795 C 0.13681 0.71699 0.73035
 C1796 C 0.11448 0.72443 0.73853
 C1797 C 0.09394 0.71148 0.73234
 C1798 C 0.09592 0.69047 0.71758
 C1799 C 0.12014 0.66348 0.69235
 C1800 C 0.09973 0.65135 0.68460
 C1801 C 0.07756 0.65838 0.69327
 C1802 C 0.07566 0.67735 0.70999
 H1803 H 0.13694 0.65760 0.68480
 H1804 H 0.10113 0.63646 0.67181
 H1805 H 0.06172 0.64893 0.68719
 H1806 H 0.05818 0.68177 0.71649
 H1807 H 0.15236 0.72757 0.73512
 H1808 H 0.11316 0.74067 0.74943
 C1809 C 0.60644 0.23562 0.52369
 C1810 C 0.60018 0.21097 0.52367
 C1811 C 0.61573 0.19495 0.51199
 C1812 C 0.63814 0.20219 0.50382
 C1813 C 0.64637 0.22551 0.50782
 C1814 C 0.62978 0.24293 0.51595
 C1815 C 0.58980 0.25324 0.53039
 C1816 C 0.59610 0.27737 0.53030
 C1817 C 0.61882 0.28447 0.52288
 C1818 C 0.63541 0.26751 0.51545
 H1819 H 0.57160 0.24862 0.53504
 H1820 H 0.58314 0.29067 0.53551
 H1821 H 0.62343 0.30328 0.52228
 H1822 H 0.65219 0.27395 0.50826
 H1823 H 0.61143 0.17612 0.51075
 H1824 H 0.64977 0.18881 0.49602
 C1825 C 0.61242 0.72097 0.01334
 C1826 C 0.60710 0.71294 0.03803
 C1827 C 0.62512 0.71276 0.05615
 C1828 C 0.64814 0.71997 0.05017
 C1829 C 0.65409 0.72735 0.02587
 C1830 C 0.63614 0.72822 0.00720
 C1831 C 0.59458 0.72263 -0.00518
 C1832 C 0.59999 0.73091 -0.02925
 C1833 C 0.62308 0.73804 -0.03522
 C1834 C 0.64100 0.73692 -0.01720
 H1835 H 0.57627 0.71790 -0.00120
 H1836 H 0.58612 0.73207 -0.04326
 H1837 H 0.62709 0.74473 -0.05386
 H1838 H 0.65849 0.74332 -0.02248
 H1839 H 0.62141 0.70663 0.07508
 H1840 H 0.66160 0.71932 0.06456
 C1841 C 0.12961 0.06789 0.02294
 C1842 C 0.14724 0.05027 0.02802
 C1843 C 0.14160 0.02613 0.02378
 C1844 C 0.11950 0.01926 0.01457
 C1845 C 0.10218 0.03618 0.00869
 C1846 C 0.10739 0.06089 0.01212
 C1847 C 0.13240 0.09194 0.03074
 C1848 C 0.11555 0.10914 0.02489
 C1849 C 0.09501 0.10266 0.01225
 C1850 C 0.09055 0.07879 0.00664
 H1851 H 0.14710 0.09773 0.04219
 H1852 H 0.11832 0.12753 0.03047
 H1853 H 0.08214 0.11613 0.00743
 H1854 H 0.07372 0.07487 -0.00188
 H1855 H 0.15449 0.01228 0.02760
 H1856 H 0.11574 0.00037 0.01231
 C1857 C 0.12077 0.56219 0.52821
 C1858 C 0.13742 0.54576 0.53836
 C1859 C 0.13141 0.52146 0.53924
 C1860 C 0.10954 0.51329 0.53048
 C1861 C 0.09325 0.52882 0.51913
 C1862 C 0.09950 0.55355 0.51663
 C1863 C 0.12440 0.58716 0.53003
 C1864 C 0.10945 0.60314 0.51792
 C1865 C 0.09026 0.59468 0.50423
 C1866 C 0.08507 0.57030 0.50381
 H1867 H 0.13857 0.59466 0.54110
 H1868 H 0.11275 0.62218 0.51923
 H1869 H 0.07877 0.60714 0.49458
 H1870 H 0.06965 0.56538 0.49324
 H1871 H 0.14377 0.50860 0.54690
 H1872 H 0.10538 0.49444 0.53242
 C1873 C 0.64110 0.02573 0.50695
 C1874 C 0.64551 0.03474 0.53155
 C1875 C 0.62628 0.03730 0.54810
 C1876 C 0.60323 0.03187 0.54068
 C1877 C 0.59847 0.02263 0.51693
 C1878 C 0.61737 0.01954 0.49971
 C1879 C 0.65984 0.02133 0.48991
 C1880 C 0.65526 0.01198 0.46617
 C1881 C 0.63209 0.00633 0.45907
 C1882 C 0.61329 0.00986 0.47570
 H1883 H 0.67821 0.02458 0.49490
 H1884 H 0.66982 0.00880 0.45333
 H1885 H 0.62870 -0.00112 0.44070
 H1886 H 0.59564 0.00468 0.46969
 H1887 H 0.62886 0.04497 0.56655
 H1888 H 0.58874 0.03543 0.55346
 C1889 C 0.62695 0.57027 0.02805
 C1890 C 0.64420 0.55258 0.03366
 C1891 C 0.63917 0.52864 0.02820
 C1892 C 0.61719 0.52186 0.01853
 C1893 C 0.59992 0.53888 0.01245
 C1894 C 0.60549 0.56360 0.01554
 C1895 C 0.63016 0.59439 0.03526
 C1896 C 0.61457 0.61200 0.02722
 C1897 C 0.59518 0.60590 0.01246
 C1898 C 0.59024 0.58199 0.00726
 H1899 H 0.64456 0.59998 0.04728
 H1900 H 0.61761 0.63046 0.03236
 H1901 H 0.58339 0.61971 0.00573
 H1902 H 0.57461 0.57859 -0.00367
 H1903 H 0.65209 0.51491 0.03232
 H1904 H 0.61347 0.50299 0.01609
 C1905 C 0.06591 0.04857 0.12002
 C1906 C 0.04839 0.05114 0.13920
 C1907 C 0.02424 0.04901 0.13268
 C1908 C 0.01739 0.04206 0.10863
 C1909 C 0.03437 0.03748 0.09005
 C1910 C 0.05880 0.04178 0.09534
 C1911 C 0.09014 0.05449 0.12421
 C1912 C 0.10699 0.05223 0.10525
 C1913 C 0.10009 0.04526 0.08142
 C1914 C 0.07625 0.04068 0.07626
 H1915 H 0.09634 0.06167 0.14181
 H1916 H 0.12543 0.05646 0.10888
 H1917 H 0.11323 0.04397 0.06671
 H1918 H 0.07169 0.03711 0.05703
 H1919 H 0.01049 0.05147 0.14669
 H1920 H -0.00136 0.03949 0.10472
 C1921 C 0.02406 0.53697 0.64432
 C1922 C 0.04862 0.54325 0.64551
 C1923 C 0.06328 0.53821 0.62493
 C1924 C 0.05394 0.52835 0.60308
 C1925 C 0.02951 0.52402 0.60058
 C1926 C 0.01443 0.52751 0.62160
 C1927 C 0.00900 0.53892 0.66548
 C1928 C -0.01496 0.53249 0.66411
 C1929 C -0.02431 0.52340 0.64196
 C1930 C -0.00976 0.52062 0.62100
 H1931 H 0.01555 0.54481 0.68348
 H1932 H -0.02623 0.53415 0.68049
 H1933 H -0.04282 0.51799 0.64116
 H1934 H -0.01748 0.51227 0.60472
 H1935 H 0.08214 0.54228 0.62560
 H1936 H 0.06584 0.52481 0.58756
 C1937 C 0.56940 0.03890 0.62643
 C1938 C 0.55380 0.05119 0.64301
 C1939 C 0.52992 0.05364 0.63578
 C1940 C 0.52126 0.04302 0.61403
 C1941 C 0.53563 0.02851 0.59891
 C1942 C 0.56000 0.02535 0.60600
 C1943 C 0.59441 0.04080 0.62898
 C1944 C 0.60951 0.02613 0.61543
 C1945 C 0.60008 0.00987 0.59853
 C1946 C 0.57576 0.00974 0.59338
 H1947 H 0.60246 0.05352 0.64171
 H1948 H 0.62855 0.02718 0.61827
 H1949 H 0.61180 -0.00201 0.58847
 H1950 H 0.57022 -0.00291 0.57949
 H1951 H 0.51729 0.06286 0.64757
 H1952 H 0.50273 0.04574 0.60935
 C1953 C 0.57198 0.54136 0.12578
 C1954 C 0.55446 0.54655 0.14416
 C1955 C 0.53037 0.54372 0.13813
 C1956 C 0.52336 0.53620 0.11446
 C1957 C 0.54012 0.53051 0.09598
 C1958 C 0.56484 0.53243 0.10179
 C1959 C 0.59639 0.54599 0.13022
 C1960 C 0.61353 0.54037 0.11239
 C1961 C 0.60675 0.53071 0.08955
 C1962 C 0.58277 0.52723 0.08400
 H1963 H 0.60256 0.55446 0.14720
 H1964 H 0.63216 0.54378 0.11621
 H1965 H 0.62013 0.52640 0.07579
 H1966 H 0.57885 0.52102 0.06545
 H1967 H 0.51675 0.54755 0.15192
 H1968 H 0.50449 0.53470 0.11059
 C1969 C 0.21239 0.56368 0.62085
 C1970 C 0.20163 0.54673 0.60452
 C1971 C 0.20047 0.52275 0.61209
 C1972 C 0.21001 0.51539 0.63495
 C1973 C 0.22254 0.53134 0.65042
 C1974 C 0.22492 0.55577 0.64257
 C1975 C 0.21031 0.58851 0.61647
 C1976 C 0.22298 0.60503 0.63065
 C1977 C 0.23760 0.59722 0.64984
 C1978 C 0.23843 0.57302 0.65598
 H1979 H 0.19861 0.59546 0.60230
 H1980 H 0.22142 0.62394 0.62672
 H1981 H 0.24768 0.61008 0.66071
 H1982 H 0.24959 0.56877 0.67157
 H1983 H 0.19221 0.50948 0.60013
 H1984 H 0.20811 0.49678 0.64031
 C1985 C 0.19068 0.05061 0.11920
 C1986 C 0.20262 0.04154 0.09789
 C1987 C 0.21992 0.02393 0.10072
 C1988 C 0.22588 0.01545 0.12448
 C1989 C 0.21455 0.02432 0.14585
 C1990 C 0.19664 0.04185 0.14340
 C1991 C 0.17344 0.06877 0.11700
 C1992 C 0.16223 0.07789 0.13821
 C1993 C 0.16798 0.06924 0.16190
 C1994 C 0.18506 0.05149 0.16454
 H1995 H 0.16852 0.07612 0.09895
 H1996 H 0.14906 0.09178 0.13625
 H1997 H 0.15935 0.07647 0.17835
 H1998 H 0.18929 0.04566 0.18329
 H1999 H 0.22919 0.01708 0.08445
 H2000 H 0.23980 0.00228 0.12627
 C2001 C 0.69486 0.18819 0.62415
 C2002 C 0.69885 0.20411 0.64424
 C2003 C 0.70883 0.22663 0.63924
 C2004 C 0.71590 0.23284 0.61487
 C2005 C 0.71456 0.21615 0.59531
 C2006 C 0.70457 0.19324 0.60011
 C2007 C 0.68109 0.16735 0.62752
 C2008 C 0.68049 0.14973 0.60925
 C2009 C 0.69276 0.15322 0.58691
 C2010 C 0.70365 0.17519 0.58169
 H2011 H 0.67033 0.16506 0.64405
 H2012 H 0.67070 0.13328 0.61250
 H2013 H 0.69327 0.13899 0.57342
 H2014 H 0.71146 0.17765 0.56336
 H2015 H 0.71158 0.23926 0.65433
 H2016 H 0.72345 0.25043 0.61147
 C2017 C 0.73114 0.71603 0.15178
 C2018 C 0.70658 0.71051 0.15461
 C2019 C 0.69114 0.71478 0.13449
 C2020 C 0.69962 0.72337 0.11167
 C2021 C 0.72390 0.72740 0.10772
 C2022 C 0.73988 0.72450 0.12813
 C2023 C 0.74708 0.71411 0.17212
 C2024 C 0.77108 0.71995 0.16920
 C2025 C 0.77956 0.72828 0.14622
 C2026 C 0.76414 0.73080 0.12593
 H2027 H 0.74113 0.70856 0.19056
 H2028 H 0.78308 0.71837 0.18498
 H2029 H 0.79813 0.73320 0.14421
 H2030 H 0.77129 0.73837 0.10886
 H2031 H 0.67231 0.71083 0.13621
 H2032 H 0.68711 0.72617 0.09662
 C2033 C 0.53547 0.73769 0.10513
 C2034 C 0.54043 0.71335 0.10002
 C2035 C 0.53678 0.69622 0.11893
 C2036 C 0.52916 0.70278 0.14270
 C2037 C 0.52562 0.72676 0.14875
 C2038 C 0.52810 0.74448 0.12975
 C2039 C 0.53689 0.75531 0.08614
 C2040 C 0.53165 0.77908 0.09132
 C2041 C 0.52447 0.78571 0.11528
 C2042 C 0.52245 0.76862 0.13428
 H2043 H 0.54157 0.75086 0.06705
 H2044 H 0.53284 0.79239 0.07656
 H2045 H 0.52007 0.80414 0.11907
 H2046 H 0.51588 0.77448 0.15227
 H2047 H 0.54039 0.67753 0.11545
 H2048 H 0.52660 0.68898 0.15678
 C2049 C 0.06221 0.70385 0.62233
 C2050 C 0.04480 0.69988 0.60349
 C2051 C 0.02068 0.70248 0.60958
 C2052 C 0.01364 0.70936 0.63356
 C2053 C 0.03044 0.71477 0.65211
 C2054 C 0.05513 0.71236 0.64640
 C2055 C 0.08652 0.69877 0.61806
 C2056 C 0.10369 0.70429 0.63591
 C2057 C 0.09703 0.71420 0.65863
 C2058 C 0.07306 0.71749 0.66419
 H2059 H 0.09259 0.69025 0.60110
 H2060 H 0.12224 0.70074 0.63214
 H2061 H 0.11048 0.71873 0.67234
 H2062 H 0.06903 0.72373 0.68268
 H2063 H 0.00712 0.69916 0.59557
 H2064 H -0.00519 0.71104 0.63749
 C2065 C 0.51813 0.60947 0.21312
 C2066 C 0.54320 0.60651 0.21213
 C2067 C 0.55807 0.62561 0.21875
 C2068 C 0.54866 0.64757 0.22546
 C2069 C 0.52403 0.65147 0.22539
 C2070 C 0.50847 0.63213 0.21976
 C2071 C 0.50243 0.59017 0.20846
 C2072 C 0.47788 0.59315 0.20987
 C2073 C 0.46849 0.61517 0.21643
 C2074 C 0.48356 0.63442 0.22158
 H2075 H 0.50891 0.57251 0.20416
 H2076 H 0.46609 0.57819 0.20623
 H2077 H 0.44941 0.61727 0.21790
 H2078 H 0.47549 0.65080 0.22757
 H2079 H 0.57723 0.62366 0.21821
 H2080 H 0.56086 0.66188 0.23034
 C2081 C 0.05739 0.61889 0.73361
 C2082 C 0.04582 0.60411 0.71544
 C2083 C 0.02193 0.60949 0.70966
 C2084 C 0.01094 0.62987 0.71917
 C2085 C 0.02216 0.64406 0.73732
 C2086 C 0.04417 0.63600 0.74730
 C2087 C 0.08212 0.61868 0.73748
 C2088 C 0.09262 0.63025 0.75776
 C2089 C 0.07847 0.64259 0.77456
 C2090 C 0.05440 0.64553 0.76944
 H2091 H 0.09349 0.61071 0.72405
 H2092 H 0.11165 0.62938 0.76059
 H2093 H 0.08628 0.65061 0.79110
 H2094 H 0.04400 0.65486 0.78325
 H2095 H 0.01172 0.59854 0.69689
 H2096 H -0.00634 0.63479 0.71190
 C2097 C 0.04029 0.14435 0.00193
 C2098 C 0.04642 0.14680 0.02765
 C2099 C 0.04333 0.12726 0.04385
 C2100 C 0.03451 0.10566 0.03522
 C2101 C 0.02865 0.10250 0.00993
 C2102 C 0.03148 0.12191 -0.00706
 C2103 C 0.04221 0.16374 -0.01495
 C2104 C 0.03608 0.16104 -0.04013
 C2105 C 0.02761 0.13918 -0.04889
 C2106 C 0.02513 0.11979 -0.03254
 H2107 H 0.04817 0.18118 -0.00884
 H2108 H 0.03771 0.17607 -0.05288
 H2109 H 0.02268 0.13730 -0.06841
 H2110 H 0.01789 0.10335 -0.03997
 H2111 H 0.04814 0.12858 0.06346
 H2112 H 0.03285 0.09096 0.04844
 C2113 C 0.05248 0.61755 0.54949
 C2114 C 0.04224 0.63775 0.53780
 C2115 C 0.02440 0.63468 0.51979
 C2116 C 0.01632 0.61185 0.51350
 C2117 C 0.02576 0.59161 0.52522
 C2118 C 0.04406 0.59428 0.54331
 C2119 C 0.07132 0.62003 0.56684
 C2120 C 0.08193 0.60002 0.57745
 C2121 C 0.07386 0.57727 0.57126
 C2122 C 0.05480 0.57430 0.55478
 H2123 H 0.07843 0.63737 0.57189
 H2124 H 0.09673 0.60215 0.59024
 H2125 H 0.08286 0.56192 0.57892
 H2126 H 0.04918 0.55627 0.55038
 H2127 H 0.01654 0.65007 0.51074
 H2128 H 0.00246 0.60994 0.49953
 C2129 C 0.52853 0.14140 0.51097
 C2130 C 0.54087 0.14482 0.53393
 C2131 C 0.54562 0.12504 0.54929
 C2132 C 0.53862 0.10219 0.54229
 C2133 C 0.52691 0.09826 0.51955
 C2134 C 0.52164 0.11785 0.50366
 C2135 C 0.52226 0.16086 0.49549
 C2136 C 0.50998 0.15716 0.47309
 C2137 C 0.50345 0.13416 0.46588
 C2138 C 0.50905 0.11464 0.48104
 H2139 H 0.52645 0.17907 0.50067
 H2140 H 0.50532 0.17226 0.46137
 H2141 H 0.49377 0.13144 0.44856
 H2142 H 0.50322 0.09712 0.47506
 H2143 H 0.55515 0.12728 0.56680
 H2144 H 0.54257 0.08734 0.55470
 C2145 C 0.55296 0.62990 0.05085
 C2146 C 0.54492 0.64963 0.03660
 C2147 C 0.53047 0.64584 0.01561
 C2148 C 0.52354 0.62274 0.00885
 C2149 C 0.53077 0.60294 0.02300
 C2150 C 0.54589 0.60636 0.04400
 C2151 C 0.56855 0.63313 0.07138
 C2152 C 0.57746 0.61360 0.08440
 C2153 C 0.57101 0.59062 0.07736
 C2154 C 0.55518 0.58685 0.05760
 H2155 H 0.57442 0.65068 0.07727
 H2156 H 0.58973 0.61629 0.09979
 H2157 H 0.57870 0.57576 0.08714
 H2158 H 0.55104 0.56862 0.05251
 H2159 H 0.52445 0.66086 0.00450
 H2160 H 0.51219 0.62029 -0.00738
 C2161 C 0.68725 0.11567 0.52891
 C2162 C 0.70450 0.09707 0.52740
 C2163 C 0.72805 0.10308 0.52106
 C2164 C 0.73444 0.12648 0.51480
 C2165 C 0.71766 0.14482 0.51510
 C2166 C 0.69395 0.13962 0.52259
 C2167 C 0.66432 0.11164 0.53942
 C2168 C 0.64858 0.13031 0.54323
 C2169 C 0.65525 0.15348 0.53716
 C2170 C 0.67747 0.15817 0.52660
 H2171 H 0.65856 0.09445 0.54640
 H2172 H 0.63145 0.12689 0.55190
 H2173 H 0.64353 0.16800 0.54178
 H2174 H 0.68210 0.17666 0.52329
 H2175 H 0.74162 0.08943 0.52072
 H2176 H 0.75276 0.13036 0.50982
 C2177 C 0.69961 0.63017 0.05732
 C2178 C 0.70951 0.61047 0.04439
 C2179 C 0.72647 0.61441 0.02556
 C2180 C 0.73384 0.63756 0.01945
 C2181 C 0.72434 0.65726 0.03196
 C2182 C 0.70707 0.65377 0.05101
 C2183 C 0.68209 0.62690 0.07612
 C2184 C 0.67214 0.64643 0.08827
 C2185 C 0.67937 0.66950 0.08201
 C2186 C 0.69671 0.67328 0.06362
 H2187 H 0.67579 0.60931 0.08152
 H2188 H 0.65867 0.64364 0.10254
 H2189 H 0.67137 0.68450 0.09143
 H2190 H 0.70175 0.69153 0.05926
 H2191 H 0.73386 0.59947 0.01540
 H2192 H 0.74695 0.64016 0.00474
 C2193 C 0.19716 0.61770 0.69569
 C2194 C 0.20548 0.63895 0.70715
 C2195 C 0.22296 0.63777 0.72579
 C2196 C 0.23226 0.61583 0.73329
 C2197 C 0.22400 0.59455 0.72259
 C2198 C 0.20606 0.59528 0.70394
 C2199 C 0.17976 0.61821 0.67659
 C2200 C 0.17075 0.59706 0.66648
 C2201 C 0.17874 0.57511 0.67528
 C2202 C 0.19624 0.57414 0.69377
 H2203 H 0.17283 0.63489 0.66948
 H2204 H 0.15732 0.59771 0.65197
 H2205 H 0.17146 0.55873 0.66762
 H2206 H 0.20193 0.55672 0.70007
 H2207 H 0.22934 0.65396 0.73469
 H2208 H 0.24580 0.61541 0.74773
 C2209 C 0.21131 0.12855 0.18889
 C2210 C 0.20697 0.14470 0.20885
 C2211 C 0.20912 0.13666 0.23366
 C2212 C 0.21602 0.11333 0.23898
 C2213 C 0.22192 0.09740 0.21974
 C2214 C 0.22002 0.10520 0.19424
 C2215 C 0.20645 0.13488 0.16365
 C2216 C 0.21241 0.11978 0.14401
 C2217 C 0.22258 0.09780 0.14903
 C2218 C 0.22577 0.09029 0.17375
 H2219 H 0.19771 0.15135 0.15874
 H2220 H 0.20895 0.12507 0.12480
 H2221 H 0.22722 0.08610 0.13369
 H2222 H 0.23228 0.07249 0.17611
 H2223 H 0.20551 0.14863 0.24911
 H2224 H 0.21729 0.10781 0.25845
 C2225 C 0.69997 1.12241 0.69656
 C2226 C 0.70772 1.14297 0.70994
 C2227 C 0.72269 1.14004 0.73076
 C2228 C 0.73127 1.11748 0.73735
 C2229 C 0.72484 1.09717 0.72358
 C2230 C 0.70863 1.09947 0.70332
 C2231 C 0.68224 1.12392 0.67792
 C2232 C 0.67379 1.10375 0.66553
 C2233 C 0.68248 1.08143 0.67183
 C2234 C 0.69961 1.07928 0.69053
 H2235 H 0.67388 1.14052 0.67378
 H2236 H 0.66007 1.10541 0.65141
 H2237 H 0.67582 1.06568 0.66235
 H2238 H 0.70562 1.06165 0.69465
 H2239 H 0.72823 1.15540 0.74166
 H2240 H 0.74307 1.11584 0.75331
 C2241 C 0.68824 0.62133 0.20519
 C2242 C 0.70048 0.64174 0.21426
 C2243 C 0.71973 0.63897 0.23062
 C2244 C 0.72696 0.61627 0.23820
 C2245 C 0.71503 0.59581 0.22971
 C2246 C 0.69547 0.59819 0.21309
 C2247 C 0.66918 0.62342 0.18807
 C2248 C 0.65728 0.60322 0.17923
 C2249 C 0.66417 0.58061 0.18712
 C2250 C 0.68306 0.57807 0.20382
 H2251 H 0.66343 0.64062 0.18120
 H2252 H 0.64268 0.60511 0.16616
 H2253 H 0.65489 0.56495 0.18023
 H2254 H 0.68774 0.56023 0.20935
 H2255 H 0.72925 0.65451 0.23752
 H2256 H 0.74211 0.61463 0.25061
 C2257 C 0.55681 0.12059 0.73587
 C2258 C 0.54566 0.10728 0.71614
 C2259 C 0.52334 0.11542 0.70765
 C2260 C 0.51372 0.13691 0.71606
 C2261 C 0.52449 0.14986 0.73548
 C2262 C 0.54431 0.13942 0.74783
 C2263 C 0.58053 0.11697 0.74339
 C2264 C 0.58977 0.12736 0.76502
 C2265 C 0.57545 0.14178 0.77964
 C2266 C 0.55286 0.14778 0.77119
 H2267 H 0.59241 0.10685 0.73231
 H2268 H 0.60790 0.12380 0.77064
 H2269 H 0.58207 0.14889 0.79718
 H2270 H 0.54211 0.15857 0.78341
 H2271 H 0.51344 0.10569 0.69358
 H2272 H 0.49793 0.14363 0.70690
 C2273 C 1.01834 0.10803 0.21715
 C2274 C 1.04286 0.10527 0.21150
 C2275 C 1.05847 0.12456 0.21506
 C2276 C 1.05010 0.14662 0.22286
 C2277 C 1.02581 0.15022 0.22730
 C2278 C 1.00973 0.13070 0.22510
 C2279 C 1.00223 0.08862 0.21551
 C2280 C 0.97823 0.09152 0.22126
 C2281 C 0.96987 0.11360 0.22911
 C2282 C 0.98543 0.13301 0.23123
 H2283 H 1.00807 0.07099 0.21017
 H2284 H 0.96610 0.07647 0.21992
 H2285 H 0.95128 0.11564 0.23388
 H2286 H 0.97831 0.14958 0.23820
 H2287 H 1.07722 0.12281 0.21076
 H2288 H 1.06264 0.16134 0.22442
 C2289 C 0.19196 0.62345 0.54807
 C2290 C 0.20265 0.60396 0.53540
 C2291 C 0.21970 0.60834 0.51678
 C2292 C 0.22647 0.63172 0.51070
 C2293 C 0.21656 0.65117 0.52334
 C2294 C 0.19915 0.64720 0.54216
 C2295 C 0.17420 0.61982 0.56658
 C2296 C 0.16385 0.63904 0.57887
 C2297 C 0.17099 0.66224 0.57317
 C2298 C 0.18854 0.66636 0.55513
 H2299 H 0.16808 0.60215 0.57179
 H2300 H 0.15023 0.63590 0.59292
 H2301 H 0.16282 0.67710 0.58272
 H2302 H 0.19349 0.68466 0.55138
 H2303 H 0.22788 0.59358 0.50701
 H2304 H 0.23976 0.63467 0.49624
 C2305 C 0.23741 0.11105 1.03024
 C2306 C 0.21332 0.10755 1.03726
 C2307 C 0.19830 0.12728 1.03942
 C2308 C 0.20664 0.15024 1.03464
 C2309 C 0.23032 0.15427 1.02773
 C2310 C 0.24597 0.13465 1.02527
 C2311 C 0.25297 0.09160 1.02727
 C2312 C 0.27646 0.09532 1.01968
 C2313 C 0.28475 0.11832 1.01456
 C2314 C 0.26967 0.13783 1.01713
 H2315 H 0.24708 0.07340 1.03049
 H2316 H 0.28821 0.08024 1.01747
 H2317 H 0.30291 0.12106 1.00834
 H2318 H 0.27660 0.15527 1.01232
 H2319 H 0.17992 0.12493 1.04506
 H2320 H 0.19445 0.16507 1.03637
 C2321 C 0.22327 0.71779 0.64558
 C2322 C 0.19998 0.70833 0.64870
 C2323 C 0.18385 0.70950 0.62870
 C2324 C 0.19078 0.71858 0.60544
 C2325 C 0.21413 0.72652 0.60141
 C2326 C 0.23037 0.72700 0.62174
 C2327 C 0.23953 0.71868 0.66574
 C2328 C 0.26230 0.72824 0.66240
 C2329 C 0.26918 0.73737 0.63915
 C2330 C 0.25337 0.73695 0.61902
 H2331 H 0.23471 0.71238 0.68429
 H2332 H 0.27457 0.72883 0.67803
 H2333 H 0.28676 0.74508 0.63677
 H2334 H 0.25911 0.74500 0.60155
 H2335 H 0.16599 0.70241 0.63083
 H2336 H 0.17814 0.71836 0.59011
 C2337 C 0.23719 0.22260 1.15036
 C2338 C 0.21303 0.21628 1.15453
 C2339 C 0.19689 0.21786 1.13453
 C2340 C 0.20437 0.22448 1.11061
 C2341 C 0.22830 0.22958 1.10564
 C2342 C 0.24485 0.22948 1.12578
 C2343 C 0.25376 0.22282 1.17022
 C2344 C 0.27734 0.22961 1.16602
 C2345 C 0.28475 0.23666 1.14217
 C2346 C 0.26868 0.23682 1.12226
 H2347 H 0.24855 0.21819 1.18919
 H2348 H 0.28986 0.22975 1.18144
 H2349 H 0.30299 0.24233 1.13913
 H2350 H 0.27494 0.24333 1.10434
 H2351 H 0.17836 0.21306 1.13721
 H2352 H 0.19141 0.22490 1.09563
 C2353 C 0.70719 0.51858 0.10745
 C2354 C 0.70172 0.54315 0.10443
 C2355 C 0.70275 0.55830 0.12523
 C2356 C 0.70932 0.54972 0.14863
 C2357 C 0.71465 0.52558 0.15230
 C2358 C 0.71370 0.50970 0.13164
 C2359 C 0.70728 0.50282 0.08682
 C2360 C 0.71327 0.47888 0.08997
 C2361 C 0.71970 0.47026 0.11351
 C2362 C 0.72017 0.48549 0.13413
 H2363 H 0.70309 0.50885 0.06806
 H2364 H 0.71322 0.46701 0.07398
 H2365 H 0.72466 0.45172 0.11573
 H2366 H 0.72604 0.47818 0.15183
 H2367 H 0.69858 0.57710 0.12329
 H2368 H 0.71048 0.56218 0.16406
 C2369 C 0.71550 1.06051 0.61500
 C2370 C 0.70665 1.04255 0.59854
 C2371 C 0.70642 1.01875 0.60691
 C2372 C 0.71453 1.01260 0.63077
 C2373 C 0.72486 1.02962 0.64674
 C2374 C 0.72676 1.05384 0.63805
 C2375 C 0.71275 1.08510 0.60951
 C2376 C 0.72394 1.10250 0.62392
 C2377 C 0.73745 1.09592 0.64450
 C2378 C 0.73864 1.07202 0.65176
 H2379 H 0.70168 1.09123 0.59426
 H2380 H 0.72218 1.12119 0.61910
 H2381 H 0.74628 1.10952 0.65557
 H2382 H 0.74857 1.06871 0.66855
 H2383 H 0.69975 1.00466 0.59490
 H2384 H 0.71317 0.99407 0.63661
 C2385 C 0.56840 0.20739 0.62127
 C2386 C 0.55068 0.20433 0.60255
 C2387 C 0.52681 0.20833 0.60881
 C2388 C 0.52029 0.21564 0.63278
 C2389 C 0.53741 0.21989 0.65133
 C2390 C 0.56185 0.21587 0.64559
 C2391 C 0.59242 0.20147 0.61664
 C2392 C 0.60988 0.20552 0.63466
 C2393 C 0.60372 0.21483 0.65785
 C2394 C 0.57998 0.21932 0.66359
 H2395 H 0.59802 0.19342 0.59924
 H2396 H 0.62826 0.20128 0.63067
 H2397 H 0.61740 0.21819 0.67165
 H2398 H 0.57621 0.22521 0.68233
 H2399 H 0.51299 0.20588 0.59487
 H2400 H 0.50162 0.21853 0.63673
 C2401 C 1.04128 0.18480 0.11719
 C2402 C 1.04707 0.20238 0.09858
 C2403 C 1.04453 0.22662 0.10459
 C2404 C 1.03528 0.23365 0.12762
 C2405 C 1.02840 0.21682 0.14580
 C2406 C 1.03164 0.19204 0.14080
 C2407 C 1.04743 0.16045 0.11407
 C2408 C 1.04238 0.14347 0.13248
 C2409 C 1.03218 0.15038 0.15496
 C2410 C 1.02745 0.17436 0.15940
 H2411 H 1.05718 0.15430 0.09794
 H2412 H 1.04700 0.12495 0.12956
 H2413 H 1.02866 0.13717 0.16939
 H2414 H 1.02129 0.17862 0.17788
 H2415 H 1.04910 0.24039 0.09102
 H2416 H 1.03344 0.25258 0.13127
 C2417 C 0.62586 0.18874 0.71253
 C2418 C 0.64620 0.20292 0.71809
 C2419 C 0.64356 0.22438 0.73114
 C2420 C 0.62110 0.23205 0.73863
 C2421 C 0.60082 0.21822 0.73362
 C2422 C 0.60307 0.19618 0.72082
 C2423 C 0.62751 0.16808 0.69750
 C2424 C 0.60732 0.15493 0.69104
 C2425 C 0.58512 0.16190 0.69961
 C2426 C 0.58298 0.18209 0.71459
 H2427 H 0.64428 0.16222 0.69008
 H2428 H 0.60891 0.13929 0.67929
 H2429 H 0.56944 0.15174 0.69443
 H2430 H 0.56540 0.18673 0.72068
 H2431 H 0.65893 0.23559 0.73490
 H2432 H 0.61946 0.24908 0.74802
 C2433 C 1.12760 0.20574 0.19324
 C2434 C 1.14522 0.20733 0.21215
 C2435 C 1.13897 0.21500 0.23621
 C2436 C 1.11570 0.22192 0.24153
 C2437 C 1.09815 0.22164 0.22286
 C2438 C 1.10396 0.21314 0.19852
 C2439 C 1.13297 0.19645 0.16925
 C2440 C 1.11577 0.19548 0.15057
 C2441 C 1.09281 0.20297 0.15559
 C2442 C 1.08670 0.21116 0.17940
 H2443 H 1.15038 0.18964 0.16469
 H2444 H 1.12022 0.18868 0.13217
 H2445 H 1.07968 0.20222 0.14095
 H2446 H 1.06838 0.21561 0.18263
 H2447 H 1.15227 0.21591 0.25087
 H2448 H 1.11144 0.22800 0.26028
 C2449 C 0.10323 0.72985 0.52419
 C2450 C 0.10000 0.70527 0.53010
 C2451 C 0.11926 0.68972 0.52730
 C2452 C 0.14155 0.69816 0.51996
 C2453 C 0.14564 0.72254 0.51559
 C2454 C 0.12624 0.73857 0.51701
 C2455 C 0.08398 0.74588 0.52468
 C2456 C 0.08733 0.76995 0.51873
 C2457 C 0.10973 0.77844 0.51180
 C2458 C 0.12899 0.76293 0.51072
 H2459 H 0.06614 0.73991 0.52921
 H2460 H 0.07239 0.78203 0.51921
 H2461 H 0.11213 0.79708 0.50688
 H2462 H 0.14583 0.77009 0.50436
 H2463 H 0.11729 0.67090 0.53176
 H2464 H 0.15604 0.68557 0.51866
 C2465 C 0.11636 0.21774 1.01159
 C2466 C 0.11165 0.20818 1.03583
 C2467 C 0.13006 0.20745 1.05355
 C2468 C 0.15286 0.21551 1.04758
 C2469 C 0.15814 0.22445 1.02366
 C2470 C 0.13983 0.22582 1.00543
 C2471 C 0.09816 0.22009 0.99354
 C2472 C 0.10301 0.22963 0.96986
 C2473 C 0.12591 0.23737 0.96381
 C2474 C 0.14415 0.23569 0.98141
 H2475 H 0.07999 0.21493 0.99761
 H2476 H 0.08888 0.23126 0.95620
 H2477 H 0.12949 0.24497 0.94547
 H2478 H 0.16149 0.24251 0.97613
 H2479 H 0.12683 0.20017 1.07214
 H2480 H 0.16670 0.21419 1.06160
 C2481 C 0.60635 0.51584 0.22532
 C2482 C 0.60316 0.54089 0.22263
 C2483 C 0.62127 0.55633 0.23080
 C2484 C 0.64286 0.54750 0.23932
 C2485 C 0.64756 0.52294 0.23916
 C2486 C 0.62882 0.50678 0.23330
 C2487 C 0.58755 0.49959 0.22073
 C2488 C 0.59093 0.47504 0.22319
 C2489 C 0.61288 0.46623 0.23071
 C2490 C 0.63162 0.48188 0.23595
 H2491 H 0.56997 0.50571 0.21572
 H2492 H 0.57634 0.46281 0.21956
 H2493 H 0.61529 0.44717 0.23291
 H2494 H 0.64798 0.47432 0.24280
 H2495 H 0.61930 0.57552 0.22923
 H2496 H 0.65659 0.56019 0.24456
 C2497 C 0.62648 1.06110 0.71839
 C2498 C 0.60802 1.04414 0.71447
 C2499 C 0.61294 1.01984 0.71792
 C2500 C 0.63561 1.01246 0.72530
 C2501 C 0.65341 1.02919 0.73149
 C2502 C 0.64808 1.05399 0.72991
 C2503 C 0.62435 1.08499 0.71025
 C2504 C 0.64020 1.10245 0.71853
 C2505 C 0.65912 1.09616 0.73374
 C2506 C 0.66371 1.07215 0.73849
 H2507 H 0.61007 1.09050 0.69799
 H2508 H 0.63768 1.12093 0.71341
 H2509 H 0.67103 1.10984 0.74081
 H2510 H 0.67935 1.06858 0.74924
 H2511 H 0.59938 1.00650 0.71410
 H2512 H 0.63925 0.99351 0.72640
 C2513 C 0.86713 0.44089 0.29878
 C2514 C 0.88828 0.44989 0.28771
 C2515 C 0.88709 0.46789 0.26944
 C2516 C 0.86525 0.47739 0.26228
 C2517 C 0.84414 0.46908 0.27325
 C2518 C 0.84487 0.45051 0.29144
 C2519 C 0.86766 0.42246 0.31697
 C2520 C 0.84665 0.41370 0.32763
 C2521 C 0.82484 0.42304 0.32041
 C2522 C 0.82388 0.44124 0.30249
 H2523 H 0.88423 0.41457 0.32296
 H2524 H 0.84730 0.39954 0.34150
 H2525 H 0.80857 0.41618 0.32870
 H2526 H 0.80660 0.44802 0.29748
 H2527 H 0.90324 0.47492 0.26099
 H2528 H 0.86481 0.49142 0.24823
 C2529 C 0.89137 0.97758 0.77445
 C2530 C 0.89421 0.95350 0.78213
 C2531 C 0.87454 0.93800 0.78216
 C2532 C 0.85216 0.94608 0.77538
 C2533 C 0.84870 0.96985 0.76825
 C2534 C 0.86839 0.98582 0.76736
 C2535 C 0.91091 0.99352 0.77319
 C2536 C 0.90787 1.01708 0.76529
 C2537 C 0.88546 1.02510 0.75824
 C2538 C 0.86589 1.00966 0.75909
 H2539 H 0.92870 0.98788 0.77801
 H2540 H 0.92301 1.02911 0.76441
 H2541 H 0.88327 1.04334 0.75187
 H2542 H 0.84894 1.01649 0.75288
 H2543 H 0.87643 0.91959 0.78818
 H2544 H 0.83722 0.93385 0.77656
 C2545 C 0.37842 0.31617 0.77712
 C2546 C 0.36172 0.29838 0.78492
 C2547 C 0.36808 0.27430 0.78348
 C2548 C 0.39051 0.26766 0.77508
 C2549 C 0.40712 0.28468 0.76652
 C2550 C 0.40051 0.30925 0.76609
 C2551 C 0.37411 0.34077 0.78092
 C2552 C 0.38949 0.35813 0.77132
 C2553 C 0.40972 0.35144 0.75828
 C2554 C 0.41544 0.32736 0.75601
 H2555 H 0.35912 0.34690 0.79173
 H2556 H 0.38571 0.37688 0.77403
 H2557 H 0.42155 0.36501 0.75068
 H2558 H 0.43178 0.32356 0.74648
 H2559 H 0.35569 0.26045 0.78933
 H2560 H 0.39498 0.24886 0.77533
 C2561 C 0.87764 0.30444 0.29314
 C2562 C 0.85775 0.29284 0.28198
 C2563 C 0.86129 0.27446 0.26472
 C2564 C 0.88427 0.26741 0.25837
 C2565 C 0.90412 0.27866 0.26909
 C2566 C 0.90102 0.29750 0.28636
 C2567 C 0.87479 0.32268 0.31117
 C2568 C 0.89441 0.33428 0.32153
 C2569 C 0.91725 0.32783 0.31445
 C2570 C 0.92068 0.30950 0.29719
 H2571 H 0.85742 0.32818 0.31752
 H2572 H 0.89188 0.34835 0.33513
 H2573 H 0.93232 0.33706 0.32255
 H2574 H 0.93878 0.30486 0.29242
 H2575 H 0.84619 0.26538 0.25636
 H2576 H 0.88661 0.25298 0.24513
 C2577 C 0.38715 0.76645 0.47452
 C2578 C 0.39064 0.79100 0.46878
 C2579 C 0.37173 0.80687 0.47214
 C2580 C 0.34941 0.79879 0.47957
 C2581 C 0.34504 0.77447 0.48377
 C2582 C 0.36414 0.75810 0.48209
 C2583 C 0.40610 0.75011 0.47342
 C2584 C 0.40246 0.72606 0.47932
 C2585 C 0.38008 0.71794 0.48681
 C2586 C 0.36112 0.73377 0.48841
 H2587 H 0.42392 0.75580 0.46845
 H2588 H 0.41716 0.71372 0.47840
 H2589 H 0.37748 0.69932 0.49174
 H2590 H 0.34432 0.72688 0.49524
 H2591 H 0.37383 0.82564 0.46772
 H2592 H 0.33508 0.81159 0.48080
 C2593 C 0.39674 0.27312 0.97191
 C2594 C 0.39907 0.29747 0.96467
 C2595 C 0.37958 0.31269 0.96715
 C2596 C 0.35778 0.30403 0.97557
 C2597 C 0.35452 0.27978 0.98123
 C2598 C 0.37418 0.26414 0.98001
 C2599 C 0.41646 0.25767 0.97203
 C2600 C 0.41391 0.23380 0.97917
 C2601 C 0.39185 0.22499 0.98686
 C2602 C 0.37220 0.24002 0.98757
 H2603 H 0.43408 0.26398 0.96721
 H2604 H 0.42920 0.22216 0.97909
 H2605 H 0.39005 0.20653 0.99274
 H2606 H 0.35568 0.23272 0.99466
 H2607 H 0.38111 0.33138 0.96197
 H2608 H 0.34306 0.31631 0.97696
 C2609 C 0.81678 0.46156 0.38043
 C2610 C 0.79923 0.45371 0.39794
 C2611 C 0.77519 0.45515 0.39132
 C2612 C 0.76831 0.46390 0.36798
 C2613 C 0.78506 0.47270 0.35066
 C2614 C 0.80966 0.47261 0.35739
 C2615 C 0.84129 0.45782 0.38481
 C2616 C 0.85846 0.46691 0.36845
 C2617 C 0.85164 0.47958 0.34726
 C2618 C 0.82761 0.48222 0.34159
 H2619 H 0.84753 0.44748 0.40060
 H2620 H 0.87715 0.46405 0.37220
 H2621 H 0.86506 0.48672 0.33465
 H2622 H 0.82372 0.49140 0.32440
 H2623 H 0.76151 0.44917 0.40429
 H2624 H 0.74952 0.46397 0.36348
 C2625 C 0.77400 0.96558 0.89381
 C2626 C 0.79687 0.95530 0.89625
 C2627 C 0.81120 0.95261 0.87492
 C2628 C 0.80316 0.95954 0.85135
 C2629 C 0.78046 0.96918 0.84832
 C2630 C 0.76570 0.97252 0.86961
 C2631 C 0.75951 0.96986 0.91497
 C2632 C 0.73721 0.98026 0.91230
 C2633 C 0.72910 0.98702 0.88868
 C2634 C 0.74324 0.98342 0.86753
 H2635 H 0.76540 0.96563 0.93375
 H2636 H 0.72628 0.98338 0.92869
 H2637 H 0.71189 0.99537 0.88677
 H2638 H 0.73657 0.98963 0.84970
 H2639 H 0.82874 0.94485 0.87653
 H2640 H 0.81468 0.95714 0.83524
 C2641 C 0.31484 0.79156 0.37418
 C2642 C 0.29802 0.79543 0.35475
 C2643 C 0.27387 0.79107 0.35940
 C2644 C 0.26617 0.78258 0.38262
 C2645 C 0.28235 0.77795 0.40199
 C2646 C 0.30698 0.78259 0.39793
 C2647 C 0.33923 0.79710 0.37083
 C2648 C 0.35561 0.79266 0.38980
 C2649 C 0.34803 0.78375 0.41279
 C2650 C 0.32397 0.77937 0.41712
 H2651 H 0.34598 0.80506 0.35372
 H2652 H 0.37426 0.79633 0.38678
 H2653 H 0.36087 0.78047 0.42743
 H2654 H 0.31903 0.77372 0.43568
 H2655 H 0.26084 0.79412 0.34480
 H2656 H 0.24731 0.77939 0.38542
 C2657 C 0.27575 0.28339 0.85545
 C2658 C 0.29940 0.29212 0.85229
 C2659 C 0.31523 0.29081 0.87255
 C2660 C 0.30781 0.28222 0.89584
 C2661 C 0.28414 0.27536 0.89996
 C2662 C 0.26797 0.27533 0.87957
 C2663 C 0.25987 0.28172 0.83501
 C2664 C 0.23668 0.27333 0.83840
 C2665 C 0.22899 0.26587 0.86200
 C2666 C 0.24448 0.26657 0.88238
 H2667 H 0.26535 0.28627 0.81615
 H2668 H 0.22471 0.27227 0.82253
 H2669 H 0.21105 0.25908 0.86444
 H2670 H 0.23805 0.25965 0.90012
 H2671 H 0.33344 0.29702 0.87049
 H2672 H 0.32048 0.28177 0.91114
 C2673 C 0.46627 0.27307 0.89446
 C2674 C 0.46192 0.29779 0.89812
 C2675 C 0.46661 0.31384 0.87846
 C2676 C 0.47429 0.30580 0.85525
 C2677 C 0.47626 0.28137 0.85033
 C2678 C 0.47321 0.26476 0.87028
 C2679 C 0.46485 0.25656 0.91453
 C2680 C 0.46931 0.23238 0.91074
 C2681 C 0.47594 0.22427 0.88713
 C2682 C 0.47821 0.24029 0.86716
 H2683 H 0.46100 0.26221 0.93342
 H2684 H 0.46808 0.21996 0.92632
 H2685 H 0.47987 0.20556 0.88440
 H2686 H 0.48470 0.23343 0.84959
 H2687 H 0.46392 0.33284 0.88092
 H2688 H 0.47819 0.31884 0.84077
 C2689 C 0.96463 0.26999 0.39091
 C2690 C 0.95554 0.29340 0.39390
 C2691 C 0.95660 0.30942 0.37367
 C2692 C 0.96550 0.30232 0.35048
 C2693 C 0.97336 0.27901 0.34658
 C2694 C 0.97353 0.26272 0.36705
 C2695 C 0.96570 0.25384 0.41129
 C2696 C 0.97481 0.23095 0.40816
 C2697 C 0.98347 0.22386 0.38490
 C2698 C 0.98308 0.23961 0.36457
 H2699 H 0.95998 0.25887 0.42987
 H2700 H 0.97547 0.21877 0.42397
 H2701 H 0.99085 0.20619 0.38269
 H2702 H 0.99082 0.23370 0.34713
 H2703 H 0.95002 0.32745 0.37570
 H2704 H 0.96552 0.31492 0.33518
 C2705 C 0.45164 0.37270 0.80093
 C2706 C 0.46111 0.39363 0.78953
 C2707 C 0.47803 0.39168 0.77034
 C2708 C 0.48590 0.36932 0.76252
 C2709 C 0.47679 0.34843 0.77352
 C2710 C 0.45934 0.34993 0.79265
 C2711 C 0.43427 0.37391 0.82007
 C2712 C 0.42415 0.35318 0.83017
 C2713 C 0.43125 0.33091 0.82162
 C2714 C 0.44883 0.32920 0.80324
 H2715 H 0.42832 0.39082 0.82736
 H2716 H 0.41068 0.35442 0.84463
 H2717 H 0.42324 0.31485 0.82938
 H2718 H 0.45385 0.31153 0.79719
 H2719 H 0.48512 0.40759 0.76133
 H2720 H 0.49918 0.36828 0.74782
 C2721 C 0.96060 0.38910 0.25657
 C2722 C 0.95667 0.39296 0.28262
 C2723 C 0.96299 0.37495 0.29966
 C2724 C 0.97214 0.35341 0.29151
 C2725 C 0.97447 0.34830 0.26599
 C2726 C 0.96930 0.36649 0.24817
 C2727 C 0.95693 0.40742 0.23875
 C2728 C 0.96093 0.40346 0.21329
 C2729 C 0.96918 0.38145 0.20512
 C2730 C 0.97360 0.36321 0.22234
 H2731 H 0.95149 0.42511 0.24429
 H2732 H 0.95798 0.41769 0.19985
 H2733 H 0.97261 0.37865 0.18536
 H2734 H 0.98105 0.34688 0.21524
 H2735 H 0.96030 0.37726 0.31963
 H2736 H 0.97673 0.34018 0.30542
 C2737 C 0.28406 0.88831 0.48191
 C2738 C 0.29452 0.89041 0.45769
 C2739 C 0.29533 0.87027 0.44217
 C2740 C 0.28647 0.84827 0.45031
 C2741 C 0.27669 0.84555 0.47434
 C2742 C 0.27524 0.86566 0.49035
 C2743 C 0.28149 0.90836 0.49767
 C2744 C 0.27103 0.90608 0.52131
 C2745 C 0.26260 0.88397 0.52958
 C2746 C 0.26447 0.86395 0.51425
 H2747 H 0.28715 0.92602 0.49179
 H2748 H 0.26923 0.92161 0.53317
 H2749 H 0.25430 0.88239 0.54785
 H2750 H 0.25708 0.84730 0.52116
 H2751 H 0.30321 0.87152 0.42364
 H2752 H 0.28764 0.83306 0.43784
 C2753 C 0.30927 0.37623 0.94989
 C2754 C 0.29994 0.39596 0.96307
 C2755 C 0.28334 0.39226 0.98231
 C2756 C 0.27559 0.36925 0.98841
 C2757 C 0.28399 0.34948 0.97517
 C2758 C 0.30096 0.35280 0.95569
 C2759 C 0.32700 0.37932 0.93128
 C2760 C 0.33621 0.35976 0.91859
 C2761 C 0.32788 0.33689 0.92399
 C2762 C 0.31027 0.33335 0.94213
 H2763 H 0.33417 0.39678 0.92661
 H2764 H 0.34994 0.36237 0.90455
 H2765 H 0.33534 0.32183 0.91420
 H2766 H 0.30434 0.31529 0.94562
 H2767 H 0.27628 0.40731 0.99256
 H2768 H 0.26284 0.36682 1.00350
 C2769 C 0.81575 0.37494 0.27624
 C2770 C 0.79977 0.35788 0.28696
 C2771 C 0.77571 0.36390 0.28935
 C2772 C 0.76744 0.38611 0.28157
 C2773 C 0.78245 0.40262 0.26942
 C2774 C 0.80675 0.39632 0.26521
 C2775 C 0.84066 0.37167 0.27699
 C2776 C 0.85607 0.38692 0.26412
 C2777 C 0.84707 0.40599 0.25059
 C2778 C 0.82282 0.41088 0.25132
 H2779 H 0.84856 0.35757 0.28782
 H2780 H 0.87506 0.38387 0.26461
 H2781 H 0.85905 0.41763 0.24022
 H2782 H 0.81742 0.42617 0.24074
 H2783 H 0.76313 0.35133 0.29750
 H2784 H 0.74889 0.39030 0.28476
   
