data_POSCAR
  _audit_creation_date              2014-09-24
  _audit_creation_method            'ToBaCCo'
  _symmetry_space_group_name_H-M    'P1'
  _symmetry_Int_Tables_number       1
  _symmetry_cell_setting            triclinic
  loop_
  _symmetry_equiv_pos_as_xyz
 x,y,z
_cell_length_a 54.1110
_cell_length_b 53.9131
_cell_length_c 53.9651
_cell_angle_alpha 89.905300
_cell_angle_beta 89.994200
_cell_angle_gamma 89.987900
loop_
  _atom_site_label
  _atom_site_type_symbol
  _atom_site_fract_x
  _atom_site_fract_y
  _atom_site_fract_z
C1 C 0.24288 0.99653 -0.01582
 C2 C 0.24343 0.99513 0.00926
 C3 C 0.24361 1.01750 0.02526
 C4 C 0.24332 0.97105 0.02243
 C5 C 0.24191 0.97412 -0.03166
 C6 C 0.24270 1.02062 -0.02896
 C7 C 0.26233 1.03534 0.02346
 C8 C 0.26337 1.05510 0.04020
 C9 C 0.24608 1.05719 0.05988
 C10 C 0.22700 1.03921 0.06091
 C11 C 0.22584 1.01984 0.04392
 C12 C 0.26510 0.96260 0.03368
 C13 C 0.26463 0.94197 0.04934
 C14 C 0.24221 0.92996 0.05452
 C15 C 0.22047 0.93807 0.04282
 C16 C 0.22108 0.95834 0.02661
 C17 C 0.22243 0.97136 -0.04858
 C18 C 0.22219 0.95156 -0.06517
 C19 C 0.24149 0.93413 -0.06525
 C20 C 0.26075 0.93657 -0.04793
 C21 C 0.26103 0.95651 -0.03137
 C22 C 0.22092 1.03463 -0.03080
 C23 C 0.22035 1.05602 -0.04553
 C24 C 0.24170 1.06389 -0.05805
 C25 C 0.26365 1.05026 -0.05554
 C26 C 0.26403 1.02857 -0.04138
 H27 H 0.27675 1.03348 0.00968
 H28 H 0.27905 1.06742 0.03855
 H29 H 0.21209 1.04033 0.07419
 H30 H 0.21095 1.00651 0.04546
 H31 H 0.28233 0.97245 0.03087
 H32 H 0.28153 0.93609 0.05836
 H33 H 0.20407 0.96489 0.01828
 H34 H 0.20751 0.98474 -0.04912
 H35 H 0.20696 0.94995 -0.07809
 H36 H 0.27600 0.92357 -0.04781
 H37 H 0.27653 0.95863 -0.01886
 H38 H 0.20424 1.02853 -0.02151
 H39 H 0.20323 1.06627 -0.04740
 H40 H 0.28021 1.05595 -0.06529
 H41 H 0.28089 1.01779 -0.04029
 H42 H 0.20301 0.92903 0.04667
 C43 C 0.74262 0.49831 0.50883
 C44 C 0.74193 0.49927 0.48375
 C45 C 0.74134 0.47666 0.46810
 C46 C 0.74130 0.52324 0.47048
 C47 C 0.74302 0.52101 0.52431
 C48 C 0.74261 0.47456 0.52248
 C49 C 0.76057 0.45918 0.46887
 C50 C 0.76086 0.43924 0.45228
 C51 C 0.74213 0.43670 0.43440
 C52 C 0.72272 0.45400 0.43398
 C53 C 0.72236 0.47376 0.45063
 C54 C 0.76261 0.53178 0.45844
 C55 C 0.76182 0.55344 0.44426
 C56 C 0.73952 0.56641 0.44140
 C57 C 0.71821 0.55796 0.45361
 C58 C 0.71917 0.53661 0.46834
 C59 C 0.72428 0.52481 0.54185
 C60 C 0.72558 0.54468 0.55832
 C61 C 0.74569 0.56113 0.55762
 C62 C 0.76413 0.55774 0.53959
 C63 C 0.76289 0.53771 0.52317
 C64 C 0.72037 0.46209 0.52725
 C65 C 0.71994 0.44203 0.54372
 C66 C 0.74185 0.43394 0.55509
 C67 C 0.76424 0.44576 0.54939
 C68 C 0.76454 0.46618 0.53347
 H69 H 0.77577 0.46141 0.48171
 H70 H 0.77620 0.42634 0.45280
 H71 H 0.70789 0.45232 0.42061
 H72 H 0.70737 0.48704 0.44965
 H73 H 0.77975 0.52149 0.45983
 H74 H 0.77836 0.55959 0.43476
 H75 H 0.70254 0.53006 0.47741
 H76 H 0.70878 0.51217 0.54304
 H77 H 0.71094 0.54705 0.57180
 H78 H 0.77996 0.57000 0.53884
 H79 H 0.77782 0.53478 0.51013
 H80 H 0.70325 0.46861 0.51913
 H81 H 0.70251 0.43313 0.54800
 H82 H 0.78127 0.43990 0.55818
 H83 H 0.78177 0.47590 0.53021
 H84 H 0.70085 0.56773 0.45149
 C85 C 0.75808 0.98563 0.99627
 C86 C 0.75823 1.01072 0.99781
 C87 C 0.75807 1.02371 1.02192
 C88 C 0.75867 1.02690 0.97561
 C89 C 0.75866 0.97270 0.97212
 C90 C 0.75789 0.96955 1.01861
 C91 C 0.73646 1.03573 1.02974
 C92 C 0.73663 1.05035 1.05105
 C93 C 0.75861 1.05375 1.06438
 C94 C 0.78021 1.04153 1.05673
 C95 C 0.77987 1.02633 1.03574
 C96 C 0.73915 1.02672 0.95848
 C97 C 0.73836 1.04424 0.93935
 C98 C 0.75690 1.06240 0.93730
 C99 C 0.77670 1.06211 0.95411
 C100 C 0.77755 1.04455 0.97309
 C101 C 0.78107 0.96925 0.95951
 C102 C 0.78209 0.95374 0.93876
 C103 C 0.76059 0.94202 0.93009
 C104 C 0.73802 0.94638 0.94212
 C105 C 0.73714 0.96133 0.96321
 C106 C 0.77614 0.95135 1.02143
 C107 C 0.77543 0.93490 1.04136
 C108 C 0.75640 0.93616 1.05924
 C109 C 0.73838 0.95496 1.05651
 C110 C 0.73896 0.97118 1.03627
 H111 H 0.71960 1.03409 1.01905
 H112 H 0.71988 1.05986 1.05656
 H113 H 0.79734 1.04410 1.06677
 H114 H 0.79675 1.01740 1.02969
 H115 H 0.72408 1.01367 0.96049
 H116 H 0.72276 1.04424 0.92678
 H117 H 0.79273 1.04504 0.98615
 H118 H 0.79788 0.97769 0.96638
 H119 H 0.79967 0.95051 0.92973
 H120 H 0.72131 0.93731 0.93581
 H121 H 0.71979 0.96360 0.97296
 H122 H 0.79105 0.94985 1.00814
 H123 H 0.79041 0.92170 1.04298
 H124 H 0.72288 0.95638 1.06908
 H125 H 0.72420 0.98455 1.03404
 H126 H 0.79140 1.07567 0.95274
 C127 C 0.25978 0.48242 0.49719
 C128 C 0.25883 0.50749 0.49651
 C129 C 0.25851 0.52264 0.51935
 C130 C 0.25843 0.52145 0.47295
 C131 C 0.26135 0.46724 0.47439
 C132 C 0.25965 0.46874 0.52094
 C133 C 0.23790 0.52260 0.53513
 C134 C 0.23681 0.53894 0.55522
 C135 C 0.25616 0.55577 0.55954
 C136 C 0.27701 0.55529 0.54405
 C137 C 0.27816 0.53887 0.52415
 C138 C 0.23590 0.53061 0.46396
 C139 C 0.23549 0.54686 0.44379
 C140 C 0.25766 0.55470 0.43281
 C141 C 0.28020 0.54509 0.44148
 C142 C 0.28055 0.52833 0.46129
 C143 C 0.28193 0.45190 0.47065
 C144 C 0.28275 0.43572 0.45052
 C145 C 0.26292 0.43449 0.43376
 C146 C 0.24257 0.45035 0.43715
 C147 C 0.24173 0.46650 0.45741
 C148 C 0.28174 0.46425 0.53376
 C149 C 0.28174 0.44915 0.55486
 C150 C 0.25955 0.43889 0.56367
 C151 C 0.23736 0.44416 0.55129
 C152 C 0.23746 0.45872 0.52986
 H153 H 0.22234 0.51054 0.53141
 H154 H 0.22043 0.53914 0.56675
 H155 H 0.29230 0.56786 0.54717
 H156 H 0.29424 0.53915 0.51221
 H157 H 0.21872 0.52572 0.47304
 H158 H 0.21795 0.55424 0.43751
 H159 H 0.29809 0.52156 0.46822
 H160 H 0.29728 0.45221 0.48351
 H161 H 0.29880 0.42395 0.44818
 H162 H 0.22691 0.44957 0.42468
 H163 H 0.22545 0.47782 0.46027
 H164 H 0.29901 0.47183 0.52700
 H165 H 0.29904 0.44524 0.56418
 H166 H 0.22011 0.43621 0.55769
 H167 H 0.22032 0.46192 0.52000
 H168 H 0.29748 0.55092 0.43320
 C169 C 0.99818 0.24325 -0.00902
 C170 C 0.99842 0.24270 0.01613
 C171 C 1.02175 0.24211 0.03067
 C172 C 0.97538 0.24256 0.03101
 C173 C 0.97501 0.24208 -0.02374
 C174 C 1.02113 0.24559 -0.02388
 C175 C 1.02515 0.22308 0.04800
 C176 C 1.04560 0.22303 0.06366
 C177 C 1.06342 0.24215 0.06259
 C178 C 1.06032 0.26080 0.04437
 C179 C 1.03955 0.26094 0.02885
 C180 C 0.95824 0.22306 0.02950
 C181 C 0.93826 0.22201 0.04600
 C182 C 0.93539 0.24029 0.06435
 C183 C 0.95215 0.26016 0.06517
 C184 C 0.97195 0.26122 0.04873
 C185 C 0.95663 0.26031 -0.02178
 C186 C 0.93700 0.26095 -0.03872
 C187 C 0.93568 0.24370 -0.05844
 C188 C 0.95373 0.22480 -0.05932
 C189 C 0.97303 0.22407 -0.04228
 C190 C 1.02296 0.26512 -0.04088
 C191 C 1.04278 0.26649 -0.05723
 C192 C 1.06152 0.24826 -0.05716
 C193 C 1.06010 0.22920 -0.03915
 C194 C 1.03994 0.22773 -0.02293
 H195 H 1.01173 0.20825 0.04955
 H196 H 1.04753 0.20750 0.07623
 H197 H 1.07298 0.27627 0.04299
 H198 H 1.03701 0.27613 0.01595
 H199 H 0.96082 0.20827 0.01620
 H200 H 0.92567 0.20644 0.04509
 H201 H 0.98500 0.27639 0.05017
 H202 H 0.95809 0.27473 -0.00791
 H203 H 0.92405 0.27616 -0.03728
 H204 H 0.95300 0.21022 -0.07304
 H205 H 0.98695 0.20972 -0.04398
 H206 H 1.00872 0.27923 -0.04173
 H207 H 1.04348 0.28229 -0.06959
 H208 H 1.07358 0.21440 -0.03850
 H209 H 1.03861 0.21222 -0.01022
 H210 H 0.95013 0.27471 0.07883
 C211 C 0.49604 0.74624 0.51469
 C212 C 0.49639 0.74791 0.48963
 C213 C 0.51993 0.74956 0.47580
 C214 C 0.47371 0.74817 0.47426
 C215 C 0.47288 0.74362 0.52922
 C216 C 0.51912 0.74820 0.52938
 C217 C 0.53161 0.77250 0.47216
 C218 C 0.55199 0.77427 0.45630
 C219 C 0.56120 0.75303 0.44444
 C220 C 0.55008 0.72996 0.44895
 C221 C 0.52936 0.72830 0.46427
 C222 C 0.46980 0.76810 0.45798
 C223 C 0.45047 0.76753 0.44097
 C224 C 0.43461 0.74697 0.43980
 C225 C 0.43783 0.72741 0.45678
 C226 C 0.45737 0.72794 0.47383
 C227 C 0.47113 0.72444 0.54672
 C228 C 0.45109 0.72321 0.56292
 C229 C 0.43236 0.74123 0.56206
 C230 C 0.43364 0.76000 0.54397
 C231 C 0.45384 0.76129 0.52776
 C232 C 0.53745 0.72980 0.52833
 C233 C 0.55820 0.73122 0.54375
 C234 C 0.56074 0.75091 0.56063
 C235 C 0.54255 0.76951 0.56120
 C236 C 0.52192 0.76811 0.54579
 H237 H 0.52438 0.78907 0.48085
 H238 H 0.56036 0.79222 0.45299
 H239 H 0.55682 0.71342 0.43979
 H240 H 0.52035 0.71053 0.46678
 H241 H 0.48206 0.78396 0.45809
 H242 H 0.44812 0.78305 0.42842
 H243 H 0.46028 0.71225 0.48604
 H244 H 0.48565 0.71067 0.54820
 H245 H 0.45042 0.70834 0.57642
 H246 H 0.41958 0.77427 0.54307
 H247 H 0.45508 0.77657 0.51478
 H248 H 0.53534 0.71404 0.51611
 H249 H 0.57179 0.71648 0.54315
 H250 H 0.54417 0.78506 0.57378
 H251 H 0.50792 0.78244 0.54685
 H252 H 0.42588 0.71131 0.45618
 C253 C 0.00776 0.75415 0.00197
 C254 C -0.01733 0.75513 0.00209
 C255 C -0.03202 0.75673 0.02535
 C256 C -0.03204 0.75419 -0.02113
 C257 C 0.02247 0.75445 -0.02129
 C258 C 0.02259 0.75288 0.02505
 C259 C -0.03040 0.73867 0.04403
 C260 C -0.04671 0.73910 0.06422
 C261 C -0.06553 0.75727 0.06587
 C262 C -0.06628 0.77577 0.04732
 C263 C -0.04982 0.77545 0.02747
 C264 C -0.05004 0.73576 -0.02355
 C265 C -0.06581 0.73547 -0.04392
 C266 C -0.06417 0.75376 -0.06262
 C267 C -0.04526 0.77176 -0.06051
 C268 C -0.02960 0.77213 -0.03982
 C269 C 0.04081 0.77254 -0.02407
 C270 C 0.05717 0.77173 -0.04396
 C271 C 0.05576 0.75270 -0.06185
 C272 C 0.03638 0.73521 -0.05959
 C273 C 0.02016 0.73590 -0.03933
 C274 C 0.02254 0.77225 0.04242
 C275 C 0.03958 0.77223 0.06197
 C276 C 0.05704 0.75301 0.06416
 C277 C 0.05631 0.73324 0.04729
 C278 C 0.03930 0.73321 0.02794
 H279 H -0.01719 0.72366 0.04250
 H280 H -0.04548 0.72410 0.07750
 H281 H -0.07931 0.79097 0.04816
 H282 H -0.05129 0.78970 0.01336
 H283 H -0.05204 0.72158 -0.00944
 H284 H -0.07892 0.72037 -0.04508
 H285 H -0.01608 0.78683 -0.03806
 H286 H 0.04276 0.78716 -0.01046
 H287 H 0.07066 0.78647 -0.04536
 H288 H 0.03462 0.71991 -0.07240
 H289 H 0.00642 0.72144 -0.03728
 H290 H 0.01006 0.78781 0.04023
 H291 H 0.03987 0.78774 0.07469
 H292 H 0.06929 0.71802 0.04879
 H293 H 0.03965 0.71815 0.01468
 H294 H -0.04338 0.78657 -0.07392
 C295 C 0.51040 0.25693 0.50350
 C296 C 0.48533 0.25690 0.50335
 C297 C 0.47096 0.25729 0.47993
 C298 C 0.47044 0.25619 0.52644
 C299 C 0.52510 0.25850 0.52663
 C300 C 0.52510 0.25475 0.48043
 C301 C 0.45428 0.27675 0.47583
 C302 C 0.43879 0.27657 0.45520
 C303 C 0.43952 0.25678 0.43830
 C304 C 0.45674 0.23758 0.44203
 C305 C 0.47227 0.23776 0.46279
 C306 C 0.47194 0.27496 0.54440
 C307 C 0.45578 0.27491 0.56471
 C308 C 0.43772 0.25628 0.56708
 C309 C 0.43681 0.23722 0.54941
 C310 C 0.45295 0.23721 0.52932
 C311 C 0.52420 0.23980 0.54474
 C312 C 0.54103 0.23993 0.56448
 C313 C 0.55913 0.25859 0.56613
 C314 C 0.55927 0.27774 0.54847
 C315 C 0.54248 0.27765 0.52892
 C316 C 0.54150 0.23477 0.47809
 C317 C 0.55761 0.23344 0.45802
 C318 C 0.55778 0.25218 0.43992
 C319 C 0.54074 0.27180 0.44177
 C320 C 0.52457 0.27316 0.46200
 H321 H 0.45300 0.29194 0.48888
 H322 H 0.42597 0.29178 0.45261
 H323 H 0.45751 0.22199 0.42943
 H324 H 0.48474 0.22235 0.46589
 H325 H 0.48503 0.29000 0.54229
 H326 H 0.45673 0.28990 0.57801
 H327 H 0.45151 0.22256 0.51567
 H328 H 0.51121 0.22462 0.54303
 H329 H 0.54065 0.22487 0.57777
 H330 H 0.57276 0.29254 0.54952
 H331 H 0.54349 0.29218 0.51506
 H332 H 0.54214 0.22040 0.49213
 H333 H 0.57026 0.21792 0.45684
 H334 H 0.54064 0.28656 0.42813
 H335 H 0.51227 0.28890 0.46372
 H336 H 0.42333 0.22245 0.55099
 C337 C 1.00219 -0.01159 0.24876
 C338 C 1.00277 0.01353 0.24737
 C339 C 0.97972 0.02834 0.24886
 C340 C 1.02602 0.02808 0.24527
 C341 C 1.02471 -0.02729 0.24921
 C342 C 0.97846 -0.02520 0.25007
 C343 C 0.96165 0.02713 0.23023
 C344 C 0.94104 0.04280 0.23106
 C345 C 0.93845 0.06010 0.25035
 C346 C 0.95634 0.06084 0.26919
 C347 C 0.97680 0.04516 0.26841
 C348 C 1.02778 0.04619 0.22673
 C349 C 1.04764 0.06262 0.22612
 C350 C 1.06652 0.06159 0.24418
 C351 C 1.06519 0.04246 0.26214
 C352 C 1.04503 0.02613 0.26283
 C353 C 1.02722 -0.04497 0.26806
 C354 C 1.04625 -0.06229 0.26746
 C355 C 1.06359 -0.06249 0.24793
 C356 C 1.06176 -0.04371 0.22967
 C357 C 1.04232 -0.02653 0.23015
 C358 C 0.96598 -0.02802 0.27269
 C359 C 0.94544 -0.04370 0.27431
 C360 C 0.93685 -0.05621 0.25320
 C361 C 0.94877 -0.05255 0.23040
 C362 C 0.96965 -0.03742 0.22893
 H363 H 0.96387 0.01461 0.21472
 H364 H 0.92766 0.04207 0.21617
 H365 H 0.95464 0.07379 0.28442
 H366 H 0.99061 0.04636 0.28289
 H367 H 1.01341 0.04791 0.21286
 H368 H 1.04820 0.07588 0.21107
 H369 H 1.04378 0.01267 0.27769
 H370 H 1.01413 -0.04565 0.28323
 H371 H 1.04748 -0.07523 0.28276
 H372 H 1.07425 -0.04317 0.21403
 H373 H 1.04050 -0.01328 0.21516
 H374 H 0.97274 -0.01885 0.28919
 H375 H 0.93645 -0.04637 0.29205
 H376 H 0.94250 -0.06221 0.21398
 H377 H 0.97927 -0.03556 0.21142
 H378 H 1.07871 0.04097 0.27682
 C379 C 0.50158 0.51790 0.74361
 C380 C 0.50286 0.49279 0.74308
 C381 C 0.52645 0.47893 0.74093
 C382 C 0.48049 0.47724 0.74596
 C383 C 0.47749 0.53085 0.74504
 C384 C 0.52382 0.53394 0.74342
 C385 C 0.52883 0.46128 0.72202
 C386 C 0.54867 0.44479 0.72187
 C387 C 0.56652 0.44550 0.74073
 C388 C 0.56483 0.46398 0.75905
 C389 C 0.54483 0.48051 0.75923
 C390 C 0.46184 0.47699 0.72790
 C391 C 0.44208 0.46039 0.72995
 C392 C 0.44093 0.44363 0.74992
 C393 C 0.45938 0.44435 0.76818
 C394 C 0.47899 0.46097 0.76618
 C395 C 0.46525 0.53365 0.76778
 C396 C 0.44381 0.54808 0.76925
 C397 C 0.43406 0.55936 0.74789
 C398 C 0.44585 0.55575 0.72502
 C399 C 0.46761 0.54186 0.72367
 C400 C 0.52690 0.55135 0.76245
 C401 C 0.54656 0.56799 0.76193
 C402 C 0.56359 0.56766 0.74231
 C403 C 0.56094 0.54980 0.72352
 C404 C 0.54108 0.53313 0.72399
 H405 H 0.51478 0.45970 0.70781
 H406 H 0.54972 0.43101 0.70733
 H407 H 0.57826 0.46481 0.77390
 H408 H 0.54306 0.49367 0.77426
 H409 H 0.46299 0.48906 0.71188
 H410 H 0.42820 0.46000 0.71550
 H411 H 0.49329 0.46089 0.78024
 H412 H 0.47276 0.52533 0.78443
 H413 H 0.43497 0.55073 0.78706
 H414 H 0.43875 0.56450 0.70840
 H415 H 0.47696 0.53993 0.70603
 H416 H 0.51393 0.55221 0.77770
 H417 H 0.54841 0.58126 0.77686
 H418 H 0.57374 0.54928 0.70811
 H419 H 0.53883 0.52006 0.70895
 H420 H 0.45876 0.43186 0.78391
 C421 C 1.01587 1.00440 0.75542
 C422 C 0.99078 1.00459 0.75526
 C423 C 0.97613 0.98147 0.75333
 C424 C 0.97593 1.02773 0.75680
 C425 C 1.03072 1.02753 0.75560
 C426 C 1.03035 0.98093 0.75565
 C427 C 0.95979 0.97883 0.73338
 C428 C 0.94352 0.95887 0.73245
 C429 C 0.94312 0.94121 0.75160
 C430 C 0.96015 0.94330 0.77118
 C431 C 0.97649 0.96342 0.77211
 C432 C 0.97761 1.04645 0.73882
 C433 C 0.96076 1.06622 0.73880
 C434 C 0.94143 1.06738 0.75646
 C435 C 0.94079 1.04892 0.77504
 C436 C 0.95773 1.02947 0.77515
 C437 C 1.02874 1.04500 0.77480
 C438 C 1.04516 1.06506 0.77594
 C439 C 1.06399 1.06760 0.75816
 C440 C 1.06539 1.05050 0.73864
 C441 C 1.04894 1.03069 0.73739
 C442 C 1.04802 0.97739 0.77427
 C443 C 1.06368 0.95689 0.77385
 C444 C 1.06225 0.93912 0.75468
 C445 C 1.04371 0.94236 0.73647
 C446 C 1.02820 0.96318 0.73680
 H447 H 0.95927 0.99262 0.71875
 H448 H 0.93088 0.95747 0.71695
 H449 H 0.96008 0.93000 0.78623
 H450 H 0.98876 0.96539 0.78784
 H451 H 0.99123 1.04520 0.72418
 H452 H 0.96200 1.07949 0.72380
 H453 H 0.95626 1.01531 0.78935
 H454 H 1.01511 1.04263 0.78930
 H455 H 1.04384 1.07796 0.79125
 H456 H 1.07952 1.05225 0.72453
 H457 H 1.05079 1.01739 0.72247
 H458 H 1.04986 0.99077 0.78912
 H459 H 1.07653 0.95486 0.78908
 H460 H 1.04204 0.92978 0.72098
 H461 H 1.01506 0.96583 0.72189
 H462 H 0.92741 1.04947 0.78992
 C463 C 0.51510 0.50106 0.25400
 C464 C 0.49013 0.50006 0.25219
 C465 C 0.47691 0.47608 0.25065
 C466 C 0.47432 0.52249 0.25167
 C467 C 0.52897 0.52467 0.25661
 C468 C 0.53036 0.47832 0.25220
 C469 C 0.47367 0.46414 0.22780
 C470 C 0.45822 0.44340 0.22607
 C471 C 0.44636 0.43405 0.24728
 C472 C 0.45053 0.44539 0.27028
 C473 C 0.46544 0.46647 0.27188
 C474 C 0.45777 0.52570 0.23192
 C475 C 0.44063 0.54495 0.23219
 C476 C 0.43965 0.56145 0.25224
 C477 C 0.45682 0.55888 0.27164
 C478 C 0.47395 0.53940 0.27144
 C479 C 0.54543 0.52730 0.27650
 C480 C 0.56119 0.54772 0.27783
 C481 C 0.56104 0.56590 0.25914
 C482 C 0.54389 0.56374 0.23964
 C483 C 0.52804 0.54322 0.23833
 C484 C 0.52961 0.45993 0.27062
 C485 C 0.54544 0.43945 0.26929
 C486 C 0.56242 0.43726 0.24968
 C487 C 0.56275 0.45554 0.23109
 C488 C 0.54693 0.47590 0.23241
 H489 H 0.48230 0.47148 0.21124
 H490 H 0.45516 0.43489 0.20817
 H491 H 0.44137 0.43858 0.28679
 H492 H 0.46762 0.47565 0.28959
 H493 H 0.45782 0.51301 0.21640
 H494 H 0.42788 0.54679 0.21682
 H495 H 0.48634 0.53703 0.28703
 H496 H 0.54647 0.51316 0.29075
 H497 H 0.57386 0.54906 0.29330
 H498 H 0.54351 0.57733 0.22485
 H499 H 0.51579 0.54131 0.22258
 H500 H 0.51726 0.46177 0.28630
 H501 H 0.54502 0.42578 0.28402
 H502 H 0.57540 0.45417 0.21561
 H503 H 0.54776 0.48997 0.21807
 H504 H 0.45632 0.57134 0.28735
 O505 O 0.25609 0.18228 0.21125
 O506 O 0.28358 0.17538 0.24558
 O507 O 0.19264 0.21376 0.24537
 O508 O 0.18420 0.24637 0.26984
 O509 O 0.22308 0.24680 0.17969
 O510 O 0.25794 0.27347 0.17240
 O511 O 0.25889 0.28234 0.30757
 O512 O 0.22906 0.25087 0.31491
 O513 O 0.32100 0.24747 0.27883
 O514 O 0.32831 0.21868 0.24392
 O515 O 0.29234 0.31063 0.24315
 O516 O 0.25682 0.31831 0.21551
 O517 O 0.25926 0.31172 0.27733
 O518 O 0.23100 0.31924 0.24205
 O519 O 0.32152 0.28038 0.24560
 O520 O 0.32855 0.24461 0.21704
 O521 O 0.29107 0.24944 0.30825
 O522 O 0.25673 0.22087 0.31639
 O523 O 0.25776 0.21148 0.18078
 O524 O 0.28502 0.24564 0.17307
 O525 O 0.19348 0.24707 0.20962
 O526 O 0.18797 0.27721 0.24304
 O527 O 0.22187 0.18343 0.24642
 O528 O 0.25636 0.17631 0.27334
 Zr529 Zr 0.25563 0.20276 0.24439
 O530 O 0.27907 0.22400 0.26711
 Zr531 Zr 0.21296 0.24697 0.24327
 O532 O 0.23439 0.27018 0.26616
 Zr533 Zr 0.25652 0.24549 0.19986
 O534 O 0.27989 0.26869 0.22074
 Zr535 Zr 0.25777 0.24856 0.28841
 O536 O 0.23402 0.22516 0.26789
 Zr537 Zr 0.30132 0.24709 0.24511
 O538 O 0.27998 0.22358 0.22210
 Zr539 Zr 0.25849 0.29136 0.24404
 O540 O 0.23495 0.27018 0.22089
 O541 O 0.23316 0.22322 0.22082
 O542 O 0.28128 0.27109 0.26769
 C543 C 0.25718 0.18887 0.18836
 C544 C 0.19928 0.19086 0.24646
 C545 C 0.20039 0.24710 0.18685
 C546 C 0.25951 0.30500 0.30020
 C547 C 0.31381 0.24889 0.30149
 C548 C 0.31488 0.30321 0.24437
 H549 H 0.28914 0.21281 0.27752
 H550 H 0.29027 0.27857 0.20934
 H551 H 0.22249 0.21249 0.21051
 H552 H 0.22349 0.28069 0.27642
 H553 H 0.21624 0.23880 0.30984
 H554 H 0.18935 0.25703 0.28382
 H555 H 0.32595 0.25852 0.20535
 H556 H 0.29814 0.23453 0.17945
 H557 H 0.27006 0.20877 0.31313
 H558 H 0.24538 0.18274 0.28652
 H559 H 0.26971 0.31420 0.20319
 H560 H 0.24645 0.28670 0.17779
 H561 H 0.29664 0.18084 0.23395
 H562 H 0.32444 0.20663 0.25720
 H563 H 0.19343 0.28867 0.22977
 H564 H 0.21885 0.31602 0.25537
 O565 O 0.74770 0.81950 0.21882
 O566 O 0.72084 0.82784 0.25326
 O567 O 0.81209 0.79035 0.25670
 O568 O 0.82114 0.75806 0.28096
 O569 O 0.78231 0.75417 0.19127
 O570 O 0.74775 0.72645 0.18521
 O571 O 0.74768 0.72382 0.32043
 O572 O 0.77631 0.75761 0.32564
 O573 O 0.68410 0.75751 0.28969
 O574 O 0.67689 0.78466 0.25335
 O575 O 0.71308 0.69281 0.25768
 O576 O 0.74885 0.68421 0.22989
 O577 O 0.74469 0.69350 0.29136
 O578 O 0.77427 0.68425 0.25726
 O579 O 0.68359 0.72278 0.25708
 O580 O 0.67628 0.75736 0.22806
 O581 O 0.71384 0.75546 0.31939
 O582 O 0.74314 0.78488 0.32654
 O583 O 0.74844 0.78871 0.19008
 O584 O 0.72063 0.75464 0.18395
 O585 O 0.81203 0.75478 0.22107
 O586 O 0.81735 0.72680 0.25671
 O587 O 0.78268 0.82027 0.25271
 O588 O 0.74759 0.82897 0.28023
 Zr589 Zr 0.74906 0.80071 0.25309
 O590 O 0.72593 0.78028 0.27695
 Zr591 Zr 0.79218 0.75681 0.25468
 O592 O 0.77075 0.73439 0.27846
 Zr593 Zr 0.74884 0.75589 0.21102
 O594 O 0.72538 0.73363 0.23280
 Zr595 Zr 0.74712 0.75676 0.29955
 O596 O 0.77069 0.77968 0.27804
 Zr597 Zr 0.70373 0.75620 0.25598
 O598 O 0.72499 0.77868 0.23180
 Zr599 Zr 0.74679 0.71222 0.25725
 O600 O 0.77048 0.73241 0.23335
 O601 O 0.77196 0.77928 0.23089
 O602 O 0.72378 0.73333 0.27977
 C603 C 0.74791 0.81169 0.19631
 C604 C 0.80522 0.81315 0.25506
 C605 C 0.80501 0.75392 0.19830
 C606 C 0.74557 0.70103 0.31390
 C607 C 0.69119 0.75642 0.31240
 C608 C 0.69042 0.69995 0.25772
 H609 H 0.71604 0.79184 0.28715
 H610 H 0.71513 0.72320 0.22183
 H611 H 0.78269 0.78952 0.22010
 H612 H 0.78170 0.72442 0.28924
 H613 H 0.78708 0.77174 0.32106
 H614 H 0.81460 0.75094 0.29654
 H615 H 0.67998 0.74407 0.21600
 H616 H 0.70766 0.76635 0.18945
 H617 H 0.75231 0.79941 0.32028
 H618 H 0.76208 0.82678 0.29121
 H619 H 0.73545 0.68723 0.21779
 H620 H 0.75959 0.71378 0.19119
 H621 H 0.70782 0.82188 0.24184
 H622 H 0.68053 0.79704 0.26635
 H623 H 0.81195 0.71445 0.24429
 H624 H 0.78589 0.68781 0.27094
 O625 O 0.75047 0.18973 0.78598
 O626 O 0.72416 0.18158 0.75205
 O627 O 0.81532 0.21902 0.74886
 O628 O 0.82471 0.25141 0.72523
 O629 O 0.78570 0.25493 0.81479
 O630 O 0.75167 0.28174 0.82181
 O631 O 0.75084 0.28601 0.68571
 O632 O 0.77863 0.25251 0.67970
 O633 O 0.68705 0.25379 0.71728
 O634 O 0.67912 0.22718 0.75262
 O635 O 0.71787 0.31781 0.74922
 O636 O 0.75322 0.32613 0.77572
 O637 O 0.74921 0.31648 0.71475
 O638 O 0.77983 0.32410 0.74956
 O639 O 0.68790 0.28836 0.74927
 O640 O 0.68081 0.25310 0.77941
 O641 O 0.71625 0.25441 0.68706
 O642 O 0.74562 0.22491 0.67960
 O643 O 0.75129 0.21979 0.81545
 O644 O 0.72371 0.25471 0.82169
 O645 O 0.81528 0.25329 0.78490
 O646 O 0.82054 0.28251 0.74928
 O647 O 0.78580 0.18922 0.75213
 O648 O 0.74988 0.18150 0.72430
 Zr649 Zr 0.75211 0.20897 0.75220
 O650 O 0.72873 0.22995 0.72913
 Zr651 Zr 0.79548 0.25241 0.75119
 O652 O 0.77423 0.27501 0.72744
 Zr653 Zr 0.75231 0.25317 0.79504
 O654 O 0.72943 0.27638 0.77357
 Zr655 Zr 0.75000 0.25315 0.70641
 O656 O 0.77380 0.23003 0.72748
 Zr657 Zr 0.70723 0.25439 0.75048
 O658 O 0.72829 0.23097 0.77390
 Zr659 Zr 0.75099 0.29757 0.74896
 O660 O 0.77415 0.27675 0.77290
 O661 O 0.77516 0.22981 0.77478
 O662 O 0.72736 0.27700 0.72654
 C663 C 0.75037 0.19693 0.80865
 C664 C 0.80844 0.19625 0.75013
 C665 C 0.80836 0.25455 0.80769
 C666 C 0.74971 0.30887 0.69218
 C667 C 0.69364 0.25423 0.69443
 C668 C 0.69512 0.31109 0.74896
 H669 H 0.71849 0.21862 0.71903
 H670 H 0.71948 0.28696 0.78468
 H671 H 0.78574 0.21930 0.78545
 H672 H 0.78530 0.28479 0.71661
 H673 H 0.78979 0.23869 0.68425
 H674 H 0.81792 0.25745 0.70932
 H675 H 0.68342 0.26775 0.79011
 H676 H 0.71101 0.24261 0.81642
 H677 H 0.75594 0.21084 0.68507
 H678 H 0.76491 0.18291 0.71395
 H679 H 0.74121 0.32224 0.78898
 H680 H 0.76258 0.29505 0.81549
 H681 H 0.71061 0.18799 0.76258
 H682 H 0.68333 0.21388 0.74074
 H683 H 0.81621 0.29398 0.76291
 H684 H 0.79014 0.32159 0.73464
 O685 O 0.24283 0.80714 0.78274
 O686 O 0.27004 0.81400 0.74845
 O687 O 0.17804 0.77837 0.74723
 O688 O 0.16876 0.74641 0.72255
 O689 O 0.20726 0.74346 0.81265
 O690 O 0.24086 0.71535 0.81989
 O691 O 0.24367 0.70893 0.68456
 O692 O 0.21443 0.74109 0.67746
 O693 O 0.30571 0.74063 0.71471
 O694 O 0.31387 0.76902 0.74975
 O695 O 0.27496 0.67833 0.74753
 O696 O 0.23935 0.67131 0.77581
 O697 O 0.24213 0.67905 0.71423
 O698 O 0.21333 0.67180 0.74916
 O699 O 0.30500 0.70774 0.74937
 O700 O 0.31294 0.74354 0.77653
 O701 O 0.27634 0.74202 0.68468
 O702 O 0.24253 0.77072 0.67701
 O703 O 0.24251 0.77746 0.81272
 O704 O 0.26895 0.74227 0.81999
 O705 O 0.17754 0.74352 0.78284
 O706 O 0.17172 0.71477 0.74821
 O707 O 0.20840 0.80754 0.74850
 O708 O 0.24273 0.81405 0.72069
 Zr709 Zr 0.24150 0.78725 0.74931
 O710 O 0.26457 0.76580 0.72648
 Zr711 Zr 0.19739 0.74442 0.74919
 O712 O 0.21848 0.72111 0.72594
 Zr713 Zr 0.24074 0.74384 0.79293
 O714 O 0.26352 0.72025 0.77189
 Zr715 Zr 0.24283 0.74240 0.70435
 O716 O 0.21945 0.76600 0.72517
 Zr717 Zr 0.28586 0.74164 0.74828
 O718 O 0.26507 0.76544 0.77145
 Zr719 Zr 0.24175 0.69876 0.74782
 O720 O 0.21865 0.72019 0.77123
 O721 O 0.21815 0.76708 0.77225
 O722 O 0.26548 0.71876 0.72487
 C723 C 0.24313 0.80022 0.80555
 C724 C 0.18557 0.80102 0.74761
 C725 C 0.18456 0.74327 0.80562
 C726 C 0.24332 0.68614 0.69152
 C727 C 0.29896 0.74112 0.69186
 C728 C 0.29770 0.68510 0.74866
 H729 H 0.27507 0.77693 0.71643
 H730 H 0.27342 0.70986 0.78326
 H731 H 0.20773 0.77787 0.78277
 H732 H 0.20743 0.71114 0.71531
 H733 H 0.20175 0.75330 0.68261
 H734 H 0.17391 0.73630 0.70817
 H735 H 0.30902 0.73062 0.78896
 H736 H 0.28200 0.75394 0.81455
 H737 H 0.25528 0.78309 0.68137
 H738 H 0.23072 0.80867 0.70795
 H739 H 0.25271 0.67444 0.78792
 H740 H 0.22942 0.70238 0.81384
 H741 H 0.28326 0.80774 0.75949
 H742 H 0.31060 0.78124 0.73646
 H743 H 0.17665 0.70289 0.76132
 H744 H 0.20158 0.67543 0.73558
 O745 O 0.25115 0.32015 0.72263
 O746 O 0.22407 0.32766 0.75723
 O747 O 0.31563 0.29065 0.75929
 O748 O 0.32444 0.25858 0.78426
 O749 O 0.28626 0.25476 0.69420
 O750 O 0.25149 0.22788 0.68722
 O751 O 0.25136 0.22266 0.82266
 O752 O 0.27989 0.25653 0.82851
 O753 O 0.18790 0.25623 0.79211
 O754 O 0.18065 0.28432 0.75630
 O755 O 0.21726 0.19264 0.75926
 O756 O 0.25315 0.18458 0.73148
 O757 O 0.24878 0.19283 0.79304
 O758 O 0.27860 0.18448 0.75880
 O759 O 0.18767 0.22250 0.75957
 O760 O 0.18018 0.25719 0.73062
 O761 O 0.21735 0.25423 0.82206
 O762 O 0.24657 0.28361 0.82984
 O763 O 0.25279 0.28989 0.69331
 O764 O 0.22442 0.25606 0.68673
 O765 O 0.31587 0.25604 0.72404
 O766 O 0.32132 0.22732 0.75902
 O767 O 0.28606 0.32050 0.75685
 O768 O 0.25077 0.32867 0.78414
 Zr769 Zr 0.25252 0.30079 0.75662
 O770 O 0.22950 0.27979 0.78009
 Zr771 Zr 0.29587 0.25712 0.75756
 O772 O 0.27458 0.23414 0.78093
 Zr773 Zr 0.25270 0.25667 0.71374
 O774 O 0.22940 0.23385 0.73508
 Zr775 Zr 0.25075 0.25600 0.80236
 O776 O 0.27421 0.27946 0.78127
 Zr777 Zr 0.20761 0.25595 0.75855
 O778 O 0.22871 0.27900 0.73483
 Zr779 Zr 0.25087 0.21218 0.75925
 O780 O 0.27443 0.23295 0.73573
 O781 O 0.27556 0.27984 0.73411
 O782 O 0.22769 0.23280 0.78203
 C783 C 0.25191 0.31274 0.69999
 C784 C 0.30870 0.31345 0.75835
 C785 C 0.30896 0.25496 0.70125
 C786 C 0.24946 0.19995 0.81573
 C787 C 0.19474 0.25489 0.81487
 C788 C 0.19458 0.19970 0.75976
 H789 H 0.21947 0.29109 0.79044
 H790 H 0.21922 0.22352 0.72393
 H791 H 0.28628 0.29025 0.72349
 H792 H 0.28556 0.22405 0.79156
 H793 H 0.29063 0.27075 0.82416
 H794 H 0.31824 0.25019 0.79933
 H795 H 0.18401 0.24409 0.71840
 H796 H 0.21160 0.26787 0.69237
 H797 H 0.25568 0.29830 0.82386
 H798 H 0.26510 0.32627 0.79528
 H799 H 0.23965 0.18760 0.71949
 H800 H 0.26291 0.21481 0.69316
 H801 H 0.21118 0.32185 0.74558
 H802 H 0.18392 0.29628 0.76979
 H803 H 0.31599 0.21512 0.74641
 H804 H 0.29007 0.18779 0.77267
 O805 O 0.75510 0.68843 0.70924
 O806 O 0.78206 0.68141 0.74394
 O807 O 0.69101 0.71918 0.74393
 O808 O 0.68194 0.75148 0.76805
 O809 O 0.72123 0.75285 0.67821
 O810 O 0.75588 0.77993 0.67125
 O811 O 0.75765 0.78784 0.80646
 O812 O 0.72700 0.75641 0.81349
 O813 O 0.81902 0.75386 0.77743
 O814 O 0.82636 0.72487 0.74229
 O815 O 0.78977 0.81658 0.74365
 O816 O 0.75505 0.82448 0.71484
 O817 O 0.75591 0.81731 0.77632
 O818 O 0.72828 0.82458 0.74049
 O819 O 0.81929 0.78664 0.74434
 O820 O 0.82673 0.75129 0.71576
 O821 O 0.78907 0.75364 0.80694
 O822 O 0.75471 0.72635 0.81503
 O823 O 0.75575 0.71780 0.67896
 O824 O 0.78319 0.75205 0.67167
 O825 O 0.69167 0.75350 0.70814
 O826 O 0.68586 0.78265 0.74232
 O827 O 0.72037 0.68901 0.74336
 O828 O 0.75432 0.68194 0.77128
 Zr829 Zr 0.75396 0.70863 0.74253
 O830 O 0.77721 0.72981 0.76548
 Zr831 Zr 0.71103 0.75254 0.74186
 O832 O 0.73222 0.77566 0.76503
 Zr833 Zr 0.75462 0.75164 0.69838
 O834 O 0.77776 0.77487 0.71952
 Zr835 Zr 0.75580 0.75405 0.78709
 O836 O 0.73223 0.73065 0.76630
 Zr837 Zr 0.79933 0.75324 0.74371
 O838 O 0.77823 0.72975 0.72045
 Zr839 Zr 0.75613 0.79711 0.74301
 O840 O 0.73284 0.77600 0.71962
 O841 O 0.73134 0.72914 0.71915
 O842 O 0.77910 0.77687 0.76651
 C843 C 0.75573 0.69510 0.68636
 C844 C 0.69775 0.69629 0.74403
 C845 C 0.69855 0.75370 0.68534
 C846 C 0.75716 0.81053 0.79911
 C847 C 0.81179 0.75380 0.80012
 C848 C 0.81241 0.80943 0.74440
 H849 H 0.78732 0.71854 0.77576
 H850 H 0.78811 0.78498 0.70830
 H851 H 0.72073 0.71852 0.70866
 H852 H 0.72122 0.78601 0.77537
 H853 H 0.71432 0.74414 0.80855
 H854 H 0.68718 0.76143 0.78251
 H855 H 0.82368 0.76491 0.70385
 H856 H 0.79622 0.74077 0.67790
 H857 H 0.76656 0.71315 0.81050
 H858 H 0.74248 0.68780 0.78398
 H859 H 0.76835 0.82074 0.70284
 H860 H 0.74460 0.79319 0.67700
 H861 H 0.79529 0.68709 0.73259
 H862 H 0.82301 0.71315 0.75600
 H863 H 0.69098 0.79422 0.72901
 H864 H 0.71622 0.82149 0.75391
 O865 O 0.24791 0.68359 0.28373
 O866 O 0.22200 0.67558 0.24939
 O867 O 0.31311 0.71369 0.24871
 O868 O 0.32204 0.74547 0.22364
 O869 O 0.28256 0.74818 0.31331
 O870 O 0.24857 0.77550 0.32002
 O871 O 0.24895 0.78060 0.18397
 O872 O 0.27686 0.74711 0.17809
 O873 O 0.18492 0.74896 0.21490
 O874 O 0.17691 0.72070 0.24944
 O875 O 0.21490 0.81167 0.24650
 O876 O 0.24951 0.82022 0.27428
 O877 O 0.24697 0.81087 0.21319
 O878 O 0.27686 0.81847 0.24866
 O879 O 0.18518 0.78194 0.24808
 O880 O 0.17809 0.74604 0.27687
 O881 O 0.21436 0.74901 0.18488
 O882 O 0.24385 0.71954 0.17747
 O883 O 0.24901 0.71352 0.31341
 O884 O 0.22047 0.74804 0.31948
 O885 O 0.31241 0.74826 0.28366
 O886 O 0.31807 0.77697 0.24810
 O887 O 0.28369 0.68361 0.24988
 O888 O 0.24793 0.67575 0.22196
 Zr889 Zr 0.24982 0.70308 0.25002
 O890 O 0.22658 0.72411 0.22684
 Zr891 Zr 0.29296 0.74690 0.24976
 O892 O 0.27183 0.76951 0.22592
 Zr893 Zr 0.24941 0.74701 0.29317
 O894 O 0.22661 0.77024 0.27165
 Zr895 Zr 0.24795 0.74760 0.20451
 O896 O 0.27166 0.72448 0.22571
 Zr897 Zr 0.20479 0.74822 0.24827
 O898 O 0.22573 0.72477 0.27172
 Zr899 Zr 0.24822 0.79176 0.24733
 O900 O 0.27127 0.77095 0.27141
 O901 O 0.27250 0.72398 0.27289
 O902 O 0.22499 0.77111 0.22463
 C903 C 0.24814 0.69073 0.30643
 C904 C 0.30634 0.69086 0.24913
 C905 C 0.30528 0.74849 0.30642
 C906 C 0.24774 0.80342 0.19057
 C907 C 0.19170 0.74947 0.19211
 C908 C 0.19223 0.80468 0.24696
 H909 H 0.21646 0.71287 0.21651
 H910 H 0.21646 0.78065 0.28275
 H911 H 0.28307 0.71350 0.28360
 H912 H 0.28295 0.77945 0.21530
 H913 H 0.28802 0.73330 0.18273
 H914 H 0.31565 0.75271 0.20807
 H915 H 0.18092 0.76010 0.28828
 H916 H 0.20831 0.73532 0.31437
 H917 H 0.25412 0.70543 0.18295
 H918 H 0.26299 0.67734 0.21166
 H919 H 0.23725 0.81613 0.28725
 H920 H 0.25950 0.78884 0.31378
 H921 H 0.20816 0.68206 0.25950
 H922 H 0.18089 0.70811 0.23675
 H923 H 0.31335 0.78864 0.26143
 H924 H 0.28742 0.81614 0.23388
 O925 O 0.74503 0.30823 0.28306
 O926 O 0.77248 0.31448 0.24866
 O927 O 0.68091 0.27748 0.24813
 O928 O 0.67241 0.24490 0.22384
 O929 O 0.71017 0.24450 0.31430
 O930 O 0.74430 0.21742 0.32255
 O931 O 0.74832 0.20729 0.18747
 O932 O 0.71798 0.23861 0.17943
 O933 O 0.80912 0.24122 0.21698
 O934 O 0.81659 0.27042 0.25155
 O935 O 0.77918 0.17900 0.25126
 O936 O 0.74355 0.17228 0.27982
 O937 O 0.74615 0.17821 0.21796
 O938 O 0.71766 0.17151 0.25305
 O939 O 0.80865 0.20898 0.25128
 O940 O 0.81605 0.24509 0.27869
 O941 O 0.77991 0.24027 0.18680
 O942 O 0.74572 0.26891 0.17822
 O943 O 0.74519 0.27922 0.31370
 O944 O 0.77189 0.24462 0.32201
 O945 O 0.68068 0.24435 0.28430
 O946 O 0.67540 0.21404 0.25091
 O947 O 0.71078 0.30714 0.24773
 O948 O 0.74545 0.31374 0.22094
 Zr949 Zr 0.74420 0.28746 0.25003
 O950 O 0.76760 0.26572 0.22778
 Zr951 Zr 0.70074 0.24398 0.25086
 O952 O 0.72219 0.22028 0.22836
 Zr953 Zr 0.74381 0.24512 0.29479
 O954 O 0.76704 0.22135 0.27447
 Zr955 Zr 0.74632 0.24130 0.20628
 O956 O 0.72260 0.26520 0.22637
 Zr957 Zr 0.78908 0.24252 0.25038
 O958 O 0.76790 0.26655 0.27287
 Zr959 Zr 0.74563 0.19888 0.25099
 O960 O 0.72213 0.22061 0.27366
 O961 O 0.72105 0.26758 0.27341
 O962 O 0.76912 0.21866 0.22764
 C963 C 0.74556 0.30182 0.30604
 C964 C 0.68806 0.30022 0.24718
 C965 C 0.68751 0.24433 0.30712
 C966 C 0.74794 0.18472 0.19512
 C967 C 0.80248 0.24025 0.19414
 C968 C 0.80184 0.18617 0.25137
 H969 H 0.77800 0.27669 0.21746
 H970 H 0.77712 0.21139 0.28608
 H971 H 0.71046 0.27857 0.28355
 H972 H 0.71133 0.20983 0.21798
 H973 H 0.70518 0.25089 0.18407
 H974 H 0.67752 0.23396 0.21008
 H975 H 0.81269 0.23184 0.29093
 H976 H 0.78507 0.25587 0.31603
 H977 H 0.75898 0.28102 0.18172
 H978 H 0.73439 0.30745 0.20776
 H979 H 0.75708 0.17572 0.29164
 H980 H 0.73319 0.20403 0.31678
 H981 H 0.78553 0.30884 0.26022
 H982 H 0.81329 0.28223 0.23791
 H983 H 0.68037 0.20274 0.26450
 H984 H 0.70563 0.17487 0.23966
 C985 C 0.25180 0.11262 0.11416
 C986 C 0.23962 0.09040 0.11972
 C987 C 0.23757 0.07211 0.10146
 C988 C 0.24792 0.07542 0.07746
 C989 C 0.26044 0.09810 0.07261
 C990 C 0.26215 0.11671 0.09070
 C991 C 0.25369 0.13203 0.13329
 C992 C 0.26527 0.15462 0.12753
 C993 C 0.26653 0.17321 0.14566
 C994 C 0.25668 0.16909 0.16948
 C995 C 0.24549 0.14616 0.17502
 C996 C 0.24372 0.12768 0.15692
 C997 C 0.27381 0.13948 0.08569
 C998 C 0.27524 0.15816 0.10375
 C999 C 0.22985 0.08672 0.14358
 C1000 C 0.23194 0.10502 0.16190
 H1001 H 0.28181 0.14296 0.06761
 H1002 H 0.28426 0.17548 0.09907
 H1003 H 0.22049 0.06955 0.14815
 H1004 H 0.22412 0.10145 0.18005
 H1005 H 0.22912 0.05474 0.10686
 H1006 H 0.26774 0.10222 0.05440
 H1007 H 0.27524 0.19079 0.14130
 H1008 H 0.23760 0.14294 0.19321
 C1009 C 0.75142 0.61826 0.61243
 C1010 C 0.74482 0.59411 0.61960
 C1011 C 0.74304 0.57558 0.60154
 C1012 C 0.74785 0.58100 0.57645
 C1013 C 0.75468 0.60527 0.56958
 C1014 C 0.75635 0.62404 0.58753
 C1015 C 0.75304 0.63788 0.63137
 C1016 C 0.75925 0.66214 0.62421
 C1017 C 0.76038 0.68082 0.64227
 C1018 C 0.75548 0.67529 0.66736
 C1019 C 0.74951 0.65075 0.67416
 C1020 C 0.74814 0.63203 0.65625
 C1021 C 0.76270 0.64849 0.58109
 C1022 C 0.76407 0.66723 0.59911
 C1023 C 0.74009 0.58897 0.64468
 C1024 C 0.74174 0.60761 0.66271
 H1025 H 0.76653 0.65322 0.56195
 H1026 H 0.76890 0.68586 0.59333
 H1027 H 0.73501 0.57039 0.65043
 H1028 H 0.73788 0.60289 0.68185
 H1029 H 0.73815 0.55686 0.60702
 H1030 H 0.75825 0.60959 0.55029
 H1031 H 0.76501 0.69960 0.63679
 H1032 H 0.74547 0.64625 0.69332
 C1033 C 0.75259 0.88365 0.11764
 C1034 C 0.76331 0.87690 0.09498
 C1035 C 0.76470 0.89441 0.07586
 C1036 C 0.75519 0.91870 0.07893
 C1037 C 0.74427 0.92492 0.10196
 C1038 C 0.74315 0.90757 0.12136
 C1039 C 0.75120 0.86525 0.13784
 C1040 C 0.74091 0.87209 0.16072
 C1041 C 0.73986 0.85455 0.17995
 C1042 C 0.74861 0.83023 0.17615
 C1043 C 0.75869 0.82370 0.15299
 C1044 C 0.76021 0.84117 0.13386
 C1045 C 0.73289 0.91373 0.14449
 C1046 C 0.73188 0.89633 0.16387
 C1047 C 0.77226 0.85265 0.09176
 C1048 C 0.77068 0.83506 0.11086
 H1049 H 0.72562 0.93218 0.14767
 H1050 H 0.72389 0.90186 0.18142
 H1051 H 0.78053 0.84720 0.07431
 H1052 H 0.77777 0.81654 0.10761
 H1053 H 0.77222 0.88853 0.05823
 H1054 H 0.73752 0.94351 0.10535
 H1055 H 0.73204 0.85970 0.19770
 H1056 H 0.76576 0.80513 0.14999
 C1057 C 0.25769 0.38630 0.62292
 C1058 C 0.27239 0.38159 0.60199
 C1059 C 0.27356 0.39937 0.58304
 C1060 C 0.25967 0.42134 0.58468
 C1061 C 0.24498 0.42582 0.60572
 C1062 C 0.24415 0.40843 0.62509
 C1063 C 0.25620 0.36754 0.64279
 C1064 C 0.24186 0.37238 0.66395
 C1065 C 0.24062 0.35448 0.68285
 C1066 C 0.25304 0.33168 0.68027
 C1067 C 0.26714 0.32707 0.65883
 C1068 C 0.26902 0.34505 0.64016
 C1069 C 0.22992 0.41257 0.64648
 C1070 C 0.22893 0.39493 0.66565
 C1071 C 0.28527 0.35904 0.60023
 C1072 C 0.28351 0.34101 0.61894
 H1073 H 0.21946 0.42959 0.64842
 H1074 H 0.21777 0.39888 0.68185
 H1075 H 0.29662 0.35518 0.58415
 H1076 H 0.29357 0.32377 0.61678
 H1077 H 0.28463 0.39583 0.56667
 H1078 H 0.23429 0.44278 0.60692
 H1079 H 0.22972 0.35806 0.69932
 H1080 H 0.27702 0.30967 0.65692
 C1081 C 0.75241 0.12002 0.88278
 C1082 C 0.74749 0.09540 0.87583
 C1083 C 0.74879 0.07658 0.89376
 C1084 C 0.75519 0.08226 0.91838
 C1085 C 0.75998 0.10707 0.92502
 C1086 C 0.75858 0.12603 0.90730
 C1087 C 0.75124 0.13986 0.86398
 C1088 C 0.75617 0.16447 0.87092
 C1089 C 0.75536 0.18323 0.85288
 C1090 C 0.74992 0.17743 0.82802
 C1091 C 0.74485 0.15262 0.82149
 C1092 C 0.74546 0.13379 0.83939
 C1093 C 0.76330 0.15087 0.91358
 C1094 C 0.76209 0.16977 0.89570
 C1095 C 0.74157 0.09010 0.85106
 C1096 C 0.74061 0.10897 0.83313
 H1097 H 0.76805 0.15573 0.93246
 H1098 H 0.76596 0.18867 0.90129
 H1099 H 0.73776 0.07119 0.84545
 H1100 H 0.73611 0.10407 0.81420
 H1101 H 0.74526 0.05750 0.88851
 H1102 H 0.76456 0.11161 0.94403
 H1103 H 0.75944 0.20219 0.85812
 H1104 H 0.74054 0.14788 0.80246
 C1105 C 0.25389 0.61253 0.37869
 C1106 C 0.24108 0.59025 0.37454
 C1107 C 0.24261 0.57118 0.39219
 C1108 C 0.25722 0.57416 0.41353
 C1109 C 0.27035 0.59639 0.41719
 C1110 C 0.26851 0.61579 0.39994
 C1111 C 0.25184 0.63287 0.36051
 C1112 C 0.26414 0.65538 0.36496
 C1113 C 0.26212 0.67467 0.34758
 C1114 C 0.24847 0.67125 0.32564
 C1115 C 0.23631 0.64855 0.32146
 C1116 C 0.23771 0.62938 0.33898
 C1117 C 0.28071 0.63850 0.40365
 C1118 C 0.27848 0.65800 0.38651
 C1119 C 0.22692 0.58755 0.35290
 C1120 C 0.22539 0.60673 0.33533
 H1121 H 0.29199 0.64127 0.42000
 H1122 H 0.28814 0.67523 0.39009
 H1123 H 0.21700 0.57044 0.34946
 H1124 H 0.21440 0.60384 0.31881
 H1125 H 0.23251 0.55404 0.38941
 H1126 H 0.28134 0.59879 0.43381
 H1127 H 0.27180 0.69199 0.35070
 H1128 H 0.22574 0.64588 0.30460
 C1129 C 0.24263 0.87680 0.87985
 C1130 C 0.24839 0.87084 0.90454
 C1131 C 0.24813 0.88965 0.92250
 C1132 C 0.24195 0.91417 0.91588
 C1133 C 0.23624 0.91975 0.89102
 C1134 C 0.23658 0.90117 0.87293
 C1135 C 0.24293 0.85716 0.86087
 C1136 C 0.23734 0.86321 0.83618
 C1137 C 0.23770 0.84453 0.81819
 C1138 C 0.24341 0.81985 0.82471
 C1139 C 0.24885 0.81409 0.84963
 C1140 C 0.24874 0.83272 0.86777
 C1141 C 0.23101 0.90648 0.84806
 C1142 C 0.23139 0.88782 0.82998
 C1143 C 0.25419 0.84619 0.91073
 C1144 C 0.25431 0.82744 0.89266
 H1145 H 0.22631 0.92522 0.84252
 H1146 H 0.22697 0.89268 0.81101
 H1147 H 0.25862 0.84132 0.92970
 H1148 H 0.25884 0.80867 0.89824
 H1149 H 0.25237 0.88520 0.94163
 H1150 H 0.23183 0.93865 0.88572
 H1151 H 0.23323 0.84920 0.79916
 H1152 H 0.25328 0.79519 0.85488
 C1153 C 0.74475 0.37920 0.37967
 C1154 C 0.74973 0.37331 0.40454
 C1155 C 0.74908 0.39219 0.42242
 C1156 C 0.74322 0.41672 0.41556
 C1157 C 0.73832 0.42225 0.39050
 C1158 C 0.73911 0.40358 0.37248
 C1159 C 0.74532 0.35944 0.36079
 C1160 C 0.74043 0.36538 0.33592
 C1161 C 0.74087 0.34652 0.31806
 C1162 C 0.74592 0.32179 0.32492
 C1163 C 0.75081 0.31620 0.35001
 C1164 C 0.75061 0.33498 0.36799
 C1165 C 0.73434 0.40881 0.34742
 C1166 C 0.73502 0.39004 0.32944
 C1167 C 0.75511 0.34863 0.41100
 C1168 C 0.75549 0.32978 0.39305
 H1169 H 0.73001 0.42757 0.34165
 H1170 H 0.73119 0.39486 0.31032
 H1171 H 0.75896 0.34381 0.43012
 H1172 H 0.75962 0.31099 0.39886
 H1173 H 0.75269 0.38778 0.44169
 H1174 H 0.73416 0.44115 0.38502
 H1175 H 0.73691 0.35109 0.29890
 H1176 H 0.75479 0.29729 0.35555
 C1177 C 0.12218 0.24405 0.11461
 C1178 C 0.12571 0.25450 0.09106
 C1179 C 0.10621 0.25407 0.07384
 C1180 C 0.08328 0.24282 0.07983
 C1181 C 0.08043 0.23240 0.10378
 C1182 C 0.09962 0.23308 0.12113
 C1183 C 0.14244 0.24473 0.13290
 C1184 C 0.13857 0.23478 0.15663
 C1185 C 0.15765 0.23579 0.17408
 C1186 C 0.18067 0.24634 0.16792
 C1187 C 0.18445 0.25589 0.14389
 C1188 C 0.16523 0.25537 0.12635
 C1189 C 0.09654 0.22314 0.14502
 C1190 C 0.11567 0.22403 0.16250
 C1191 C 0.14876 0.26504 0.08517
 C1192 C 0.16820 0.26538 0.10246
 H1193 H 0.07916 0.21466 0.15029
 H1194 H 0.11252 0.21623 0.18075
 H1195 H 0.15182 0.27309 0.06701
 H1196 H 0.18565 0.27368 0.09714
 H1197 H 0.10941 0.26163 0.05552
 H1198 H 0.06288 0.22470 0.10961
 H1199 H 0.15466 0.22809 0.19241
 H1200 H 0.20210 0.26409 0.13904
 C1201 C 0.62015 0.75287 0.61312
 C1202 C 0.62530 0.74675 0.58837
 C1203 C 0.60583 0.74600 0.57114
 C1204 C 0.58147 0.75150 0.57859
 C1205 C 0.57673 0.75752 0.60353
 C1206 C 0.59595 0.75823 0.62085
 C1207 C 0.64043 0.75357 0.63136
 C1208 C 0.63512 0.75942 0.65613
 C1209 C 0.65431 0.75973 0.67348
 C1210 C 0.67878 0.75428 0.66634
 C1211 C 0.68385 0.74872 0.64131
 C1212 C 0.66467 0.74823 0.62375
 C1213 C 0.59142 0.76410 0.64578
 C1214 C 0.61068 0.76467 0.66313
 C1215 C 0.64979 0.74155 0.58141
 C1216 C 0.66914 0.74230 0.59879
 H1217 H 0.57281 0.76824 0.65194
 H1218 H 0.60639 0.76920 0.68221
 H1219 H 0.65405 0.73683 0.56237
 H1220 H 0.68774 0.73810 0.59264
 H1221 H 0.60963 0.74149 0.55195
 H1222 H 0.55799 0.76133 0.60952
 H1223 H 0.65011 0.76416 0.69262
 H1224 H 0.70256 0.74436 0.63560
 C1225 C 0.11017 0.74771 0.88180
 C1226 C 0.08626 0.73887 0.87705
 C1227 C 0.06825 0.74023 0.89579
 C1228 C 0.07382 0.75091 0.91911
 C1229 C 0.09818 0.75964 0.92324
 C1230 C 0.11630 0.75796 0.90483
 C1231 C 0.12921 0.74623 0.86227
 C1232 C 0.15322 0.75470 0.86728
 C1233 C 0.17126 0.75326 0.84875
 C1234 C 0.16539 0.74382 0.82515
 C1235 C 0.14114 0.73553 0.82035
 C1236 C 0.12301 0.73651 0.83897
 C1237 C 0.14054 0.76627 0.90913
 C1238 C 0.15871 0.76460 0.89069
 C1239 C 0.08078 0.72906 0.85355
 C1240 C 0.09881 0.72800 0.83481
 H1241 H 0.14551 0.77415 0.92690
 H1242 H 0.17717 0.77123 0.89475
 H1243 H 0.06238 0.72224 0.84956
 H1244 H 0.09376 0.72041 0.81694
 H1245 H 0.04971 0.73393 0.89167
 H1246 H 0.10360 0.76679 0.94116
 H1247 H 0.18977 0.75995 0.85257
 H1248 H 0.13648 0.72817 0.80226
 C1249 C 0.61282 0.24933 0.38297
 C1250 C 0.61949 0.24479 0.40770
 C1251 C 0.60138 0.24601 0.42614
 C1252 C 0.57669 0.25169 0.42008
 C1253 C 0.57032 0.25656 0.39524
 C1254 C 0.58835 0.25527 0.37654
 C1255 C 0.63183 0.24778 0.36346
 C1256 C 0.62520 0.25214 0.33869
 C1257 C 0.64339 0.25063 0.32021
 C1258 C 0.66809 0.24499 0.32645
 C1259 C 0.67432 0.24067 0.35144
 C1260 C 0.65628 0.24199 0.36999
 C1261 C 0.58244 0.25961 0.35155
 C1262 C 0.60055 0.25806 0.33294
 C1263 C 0.64414 0.23906 0.41350
 C1264 C 0.66224 0.23771 0.39496
 H1265 H 0.56366 0.26420 0.34632
 H1266 H 0.59520 0.26153 0.31390
 H1267 H 0.64949 0.23556 0.43254
 H1268 H 0.68105 0.23324 0.40021
 H1269 H 0.60649 0.24267 0.44528
 H1270 H 0.55134 0.26083 0.39046
 H1271 H 0.63838 0.25419 0.30109
 H1272 H 0.69321 0.23628 0.35650
 C1273 C 0.87978 0.75527 0.12227
 C1274 C 0.90339 0.74574 0.12724
 C1275 C 0.92147 0.74620 0.10853
 C1276 C 0.91632 0.75662 0.08495
 C1277 C 0.89228 0.76617 0.08063
 C1278 C 0.87405 0.76540 0.09905
 C1279 C 0.86063 0.75463 0.14176
 C1280 C 0.83689 0.76375 0.13653
 C1281 C 0.81872 0.76302 0.15502
 C1282 C 0.82424 0.75367 0.17878
 C1283 C 0.84823 0.74476 0.18379
 C1284 C 0.86645 0.74500 0.16523
 C1285 C 0.85010 0.77445 0.09456
 C1286 C 0.83181 0.77357 0.11296
 C1287 C 0.90848 0.73608 0.15092
 C1288 C 0.89038 0.73581 0.16961
 H1289 H 0.84542 0.78225 0.07664
 H1290 H 0.81357 0.78073 0.10872
 H1291 H 0.92665 0.72873 0.15509
 H1292 H 0.89513 0.72828 0.18762
 H1293 H 0.93978 0.73935 0.11285
 H1294 H 0.88712 0.77322 0.06257
 H1295 H 0.80042 0.77019 0.15104
 H1296 H 0.85261 0.73747 0.20200
 C1297 C 0.38311 0.25672 0.62456
 C1298 C 0.37595 0.25265 0.59991
 C1299 C 0.39394 0.25287 0.58128
 C1300 C 0.41896 0.25712 0.58708
 C1301 C 0.42582 0.26161 0.61186
 C1302 C 0.40792 0.26127 0.63074
 C1303 C 0.36424 0.25605 0.64429
 C1304 C 0.37134 0.25986 0.66901
 C1305 C 0.35329 0.25914 0.68770
 C1306 C 0.32826 0.25479 0.68173
 C1307 C 0.32158 0.25103 0.65676
 C1308 C 0.33946 0.25160 0.63802
 C1309 C 0.41431 0.26514 0.65568
 C1310 C 0.39634 0.26442 0.67449
 C1311 C 0.35097 0.24831 0.59436
 C1312 C 0.33302 0.24783 0.61310
 H1313 H 0.43336 0.26866 0.66073
 H1314 H 0.40207 0.26745 0.69348
 H1315 H 0.34525 0.24520 0.57537
 H1316 H 0.31395 0.24441 0.60804
 H1317 H 0.38849 0.24980 0.56219
 H1318 H 0.44506 0.26477 0.61644
 H1319 H 0.35869 0.26225 0.70678
 H1320 H 0.30245 0.24768 0.65185
 C1321 C 0.88196 0.24982 0.88461
 C1322 C 0.87625 0.25833 0.90849
 C1323 C 0.89408 0.25649 0.92733
 C1324 C 0.91749 0.24571 0.92265
 C1325 C 0.92262 0.23728 0.89830
 C1326 C 0.90508 0.23940 0.87934
 C1327 C 0.86334 0.25176 0.86473
 C1328 C 0.86922 0.24349 0.84077
 C1329 C 0.85138 0.24511 0.82199
 C1330 C 0.82764 0.25452 0.82714
 C1331 C 0.82210 0.26282 0.85129
 C1332 C 0.83994 0.26160 0.87012
 C1333 C 0.91032 0.23138 0.85513
 C1334 C 0.89271 0.23344 0.83616
 C1335 C 0.85269 0.26832 0.91311
 C1336 C 0.83482 0.26984 0.89428
 H1337 H 0.92818 0.22339 0.85081
 H1338 H 0.89748 0.22696 0.81777
 H1339 H 0.84797 0.27490 0.93147
 H1340 H 0.81684 0.27750 0.89868
 H1341 H 0.88915 0.26252 0.94581
 H1342 H 0.94066 0.23003 0.89356
 H1343 H 0.85577 0.23844 0.80357
 H1344 H 0.80392 0.27017 0.85544
 C1345 C 0.37964 0.74582 0.38274
 C1346 C 0.37301 0.73887 0.40696
 C1347 C 0.39114 0.73872 0.42559
 C1348 C 0.41559 0.74577 0.42009
 C1349 C 0.42192 0.75233 0.39561
 C1350 C 0.40404 0.75239 0.37687
 C1351 C 0.36062 0.74646 0.36317
 C1352 C 0.36729 0.75336 0.33896
 C1353 C 0.34913 0.75404 0.32043
 C1354 C 0.32440 0.74814 0.32605
 C1355 C 0.31807 0.74126 0.35049
 C1356 C 0.33613 0.74029 0.36908
 C1357 C 0.41004 0.75909 0.35243
 C1358 C 0.39198 0.75952 0.33378
 C1359 C 0.34835 0.73255 0.41208
 C1360 C 0.33021 0.73326 0.39347
 H1361 H 0.42884 0.76414 0.34770
 H1362 H 0.39736 0.76484 0.31517
 H1363 H 0.34298 0.72714 0.43066
 H1364 H 0.31138 0.72834 0.39823
 H1365 H 0.38616 0.73377 0.44442
 H1366 H 0.44080 0.75739 0.39119
 H1367 H 0.35422 0.75934 0.30173
 H1368 H 0.29916 0.73637 0.35500
 C1369 C 0.12298 0.11628 0.24566
 C1370 C 0.09972 0.12219 0.23589
 C1371 C 0.08128 0.10397 0.23529
 C1372 C 0.08562 0.07974 0.24461
 C1373 C 0.10925 0.07440 0.25461
 C1374 C 0.12797 0.09248 0.25495
 C1375 C 0.14248 0.13542 0.24618
 C1376 C 0.16595 0.12941 0.25551
 C1377 C 0.18452 0.14762 0.25565
 C1378 C 0.17958 0.17178 0.24690
 C1379 C 0.15582 0.17750 0.23785
 C1380 C 0.13728 0.15934 0.23726
 C1381 C 0.15167 0.08720 0.26427
 C1382 C 0.17035 0.10531 0.26445
 C1383 C 0.09524 0.14632 0.22705
 C1384 C 0.11369 0.16459 0.22777
 H1385 H 0.15584 0.06889 0.27142
 H1386 H 0.18837 0.10041 0.27172
 H1387 H 0.07731 0.15114 0.21951
 H1388 H 0.10946 0.18296 0.22076
 H1389 H 0.06319 0.10929 0.22856
 H1390 H 0.11362 0.05595 0.26124
 H1391 H 0.20272 0.14304 0.26270
 H1392 H 0.15187 0.19592 0.23081
 C1393 C 0.62091 0.62241 0.74182
 C1394 C 0.62686 0.59768 0.73618
 C1395 C 0.60799 0.57979 0.73582
 C1396 C 0.58345 0.58655 0.74132
 C1397 C 0.57784 0.61150 0.74660
 C1398 C 0.59647 0.62949 0.74690
 C1399 C 0.64065 0.64124 0.74259
 C1400 C 0.63462 0.66594 0.74817
 C1401 C 0.65341 0.68380 0.74882
 C1402 C 0.67814 0.67712 0.74408
 C1403 C 0.68385 0.65217 0.73862
 C1404 C 0.66515 0.63418 0.73777
 C1405 C 0.59115 0.65439 0.75235
 C1406 C 0.60991 0.67233 0.75294
 C1407 C 0.65158 0.59135 0.73132
 C1408 C 0.67040 0.60928 0.73211
 H1409 H 0.57234 0.66006 0.75626
 H1410 H 0.60504 0.69133 0.75724
 H1411 H 0.65644 0.57236 0.72695
 H1412 H 0.68923 0.60361 0.72828
 H1413 H 0.61244 0.56059 0.73189
 H1414 H 0.55892 0.61689 0.75046
 H1415 H 0.64874 0.70288 0.75305
 H1416 H 0.70276 0.64681 0.73471
 C1417 C 0.88500 0.12197 0.75276
 C1418 C 0.90864 0.12762 0.74369
 C1419 C 0.92731 0.10950 0.74472
 C1420 C 0.92268 0.08584 0.75522
 C1421 C 0.89857 0.08080 0.76421
 C1422 C 0.87979 0.09863 0.76293
 C1423 C 0.86529 0.14087 0.75163
 C1424 C 0.84155 0.13503 0.76040
 C1425 C 0.82290 0.15306 0.75938
 C1426 C 0.82793 0.17695 0.75003
 C1427 C 0.85190 0.18248 0.74132
 C1428 C 0.87060 0.16444 0.74195
 C1429 C 0.85580 0.09346 0.77152
 C1430 C 0.83700 0.11133 0.77023
 C1431 C 0.91320 0.15139 0.73396
 C1432 C 0.89454 0.16951 0.73318
 H1433 H 0.85153 0.07544 0.77933
 H1434 H 0.81878 0.10660 0.77709
 H1435 H 0.93138 0.15607 0.72696
 H1436 H 0.89889 0.18762 0.72563
 H1437 H 0.94562 0.11438 0.73827
 H1438 H 0.89383 0.06260 0.77127
 H1439 H 0.80462 0.14865 0.76635
 H1440 H 0.85598 0.20076 0.73401
 C1441 C 0.38272 0.61655 0.25243
 C1442 C 0.37675 0.59179 0.24713
 C1443 C 0.39546 0.57388 0.24746
 C1444 C 0.42000 0.58053 0.25310
 C1445 C 0.42564 0.60534 0.25885
 C1446 C 0.40704 0.62351 0.25836
 C1447 C 0.36316 0.63556 0.25155
 C1448 C 0.36917 0.66039 0.25646
 C1449 C 0.35055 0.67843 0.25537
 C1450 C 0.32599 0.67176 0.24962
 C1451 C 0.32031 0.64671 0.24489
 C1452 C 0.33885 0.62856 0.24572
 C1453 C 0.41229 0.64852 0.26338
 C1454 C 0.39368 0.66666 0.26240
 C1455 C 0.35222 0.58547 0.24142
 C1456 C 0.33357 0.60354 0.24077
 H1457 H 0.43095 0.65415 0.26796
 H1458 H 0.39852 0.68576 0.26630
 H1459 H 0.34740 0.56640 0.23734
 H1460 H 0.31489 0.59790 0.23626
 H1461 H 0.39098 0.55472 0.24336
 H1462 H 0.44452 0.61055 0.26306
 H1463 H 0.35514 0.69760 0.25929
 H1464 H 0.30152 0.64135 0.24042
 C1465 C 0.11409 0.88013 0.75133
 C1466 C 0.09042 0.87669 0.74134
 C1467 C 0.07327 0.89628 0.74223
 C1468 C 0.07945 0.91919 0.75352
 C1469 C 0.10353 0.92196 0.76346
 C1470 C 0.12080 0.90267 0.76232
 C1471 C 0.13227 0.85974 0.75024
 C1472 C 0.15609 0.86348 0.75983
 C1473 C 0.17337 0.84422 0.75860
 C1474 C 0.16697 0.82114 0.74818
 C1475 C 0.14288 0.81755 0.73888
 C1476 C 0.12550 0.83694 0.73966
 C1477 C 0.14480 0.90564 0.77182
 C1478 C 0.16216 0.88639 0.77056
 C1479 C 0.08433 0.85365 0.73079
 C1480 C 0.10153 0.83409 0.73005
 H1481 H 0.15022 0.92302 0.78030
 H1482 H 0.18048 0.88945 0.77808
 H1483 H 0.06609 0.85066 0.72307
 H1484 H 0.09603 0.81664 0.72181
 H1485 H 0.05487 0.89313 0.73503
 H1486 H 0.10948 0.93949 0.77117
 H1487 H 0.19172 0.84709 0.76613
 H1488 H 0.13781 0.79987 0.73081
 C1489 C 0.61540 0.37825 0.24759
 C1490 C 0.62289 0.40262 0.24230
 C1491 C 0.60541 0.42173 0.24305
 C1492 C 0.58059 0.41669 0.24906
 C1493 C 0.57339 0.39216 0.25449
 C1494 C 0.59076 0.37281 0.25370
 C1495 C 0.63379 0.35808 0.24685
 C1496 C 0.62640 0.33368 0.25218
 C1497 C 0.64408 0.31461 0.25173
 C1498 C 0.66901 0.31993 0.24622
 C1499 C 0.67596 0.34454 0.24077
 C1500 C 0.65846 0.36365 0.24105
 C1501 C 0.58404 0.34816 0.25888
 C1502 C 0.60155 0.32892 0.25812
 C1503 C 0.64772 0.40743 0.23644
 C1504 C 0.66522 0.38826 0.23585
 H1505 H 0.56509 0.34370 0.26360
 H1506 H 0.59561 0.31019 0.26232
 H1507 H 0.65369 0.42617 0.23235
 H1508 H 0.68421 0.39276 0.23135
 H1509 H 0.61119 0.44062 0.23928
 H1510 H 0.55428 0.38813 0.25898
 H1511 H 0.63853 0.29580 0.25615
 H1512 H 0.69504 0.34890 0.23644
 C1513 C 0.87971 0.88924 0.25583
 C1514 C 0.87655 0.91042 0.24095
 C1515 C 0.89519 0.92850 0.24043
 C1516 C 0.91651 0.92567 0.25506
 C1517 C 0.91915 0.90466 0.27031
 C1518 C 0.90092 0.88617 0.27052
 C1519 C 0.86060 0.86973 0.25575
 C1520 C 0.86416 0.84813 0.26991
 C1521 C 0.84613 0.82942 0.26938
 C1522 C 0.82444 0.83255 0.25531
 C1523 C 0.82106 0.85445 0.24145
 C1524 C 0.83923 0.87298 0.24135
 C1525 C 0.90366 0.86447 0.28472
 C1526 C 0.88566 0.84571 0.28432
 C1527 C 0.85497 0.91293 0.22670
 C1528 C 0.83654 0.89460 0.22702
 H1529 H 0.91998 0.86186 0.29607
 H1530 H 0.88859 0.82919 0.29539
 H1531 H 0.85229 0.92920 0.21520
 H1532 H 0.82015 0.89728 0.21579
 H1533 H 0.89324 0.94469 0.22865
 H1534 H 0.93577 0.90238 0.28132
 H1535 H 0.84873 0.81266 0.28020
 H1536 H 0.80448 0.85685 0.23040
 C1537 C 0.38431 0.38840 0.75413
 C1538 C 0.37784 0.41294 0.74820
 C1539 C 0.39642 0.43102 0.74668
 C1540 C 0.42124 0.42464 0.75125
 C1541 C 0.42737 0.39993 0.75712
 C1542 C 0.40900 0.38172 0.75854
 C1543 C 0.36490 0.36930 0.75566
 C1544 C 0.37144 0.34472 0.76131
 C1545 C 0.35296 0.32657 0.76246
 C1546 C 0.32805 0.33285 0.75809
 C1547 C 0.32184 0.35769 0.75266
 C1548 C 0.34021 0.37596 0.75132
 C1549 C 0.41482 0.35697 0.76423
 C1550 C 0.39635 0.33876 0.76555
 C1551 C 0.35291 0.41889 0.74397
 C1552 C 0.33440 0.40071 0.74553
 H1553 H 0.43382 0.35161 0.76764
 H1554 H 0.40162 0.31986 0.76992
 H1555 H 0.34767 0.43775 0.73940
 H1556 H 0.31541 0.40606 0.74210
 H1557 H 0.39160 0.45004 0.74231
 H1558 H 0.44650 0.39484 0.76028
 H1559 H 0.35800 0.30756 0.76667
 H1560 H 0.30278 0.36278 0.74909
 C1561 C 0.11822 0.25053 0.88874
 C1562 C 0.12321 0.23995 0.91198
 C1563 C 0.10436 0.23891 0.92985
 C1564 C 0.08064 0.24885 0.92484
 C1565 C 0.07623 0.25931 0.90115
 C1566 C 0.09480 0.26008 0.88314
 C1567 C 0.13789 0.25163 0.86987
 C1568 C 0.13268 0.26182 0.84648
 C1569 C 0.15135 0.26274 0.82856
 C1570 C 0.17523 0.25388 0.83399
 C1571 C 0.18021 0.24383 0.85760
 C1572 C 0.16151 0.24249 0.87557
 C1573 C 0.09028 0.27015 0.85954
 C1574 C 0.10889 0.27094 0.84148
 C1575 C 0.14705 0.23083 0.91696
 C1576 C 0.16589 0.23215 0.89909
 H1577 H 0.07220 0.27749 0.85497
 H1578 H 0.10465 0.27885 0.82351
 H1579 H 0.15120 0.22267 0.93484
 H1580 H 0.18402 0.22496 0.90371
 H1581 H 0.10867 0.23135 0.94794
 H1582 H 0.05804 0.26597 0.89609
 H1583 H 0.14737 0.27060 0.81049
 H1584 H 0.19847 0.23673 0.86185
 C1585 C 0.61752 0.75601 0.38912
 C1586 C 0.62126 0.74144 0.41042
 C1587 C 0.60289 0.74080 0.42874
 C1588 C 0.58125 0.75500 0.42604
 C1589 C 0.57802 0.76993 0.40489
 C1590 C 0.59598 0.77026 0.38618
 C1591 C 0.63637 0.75610 0.36940
 C1592 C 0.63225 0.76997 0.34772
 C1593 C 0.65007 0.76967 0.32885
 C1594 C 0.67212 0.75615 0.33189
 C1595 C 0.67606 0.74252 0.35382
 C1596 C 0.65810 0.74219 0.37253
 C1597 C 0.59266 0.78417 0.36439
 C1598 C 0.61043 0.78392 0.34542
 C1599 C 0.64316 0.72765 0.41280
 C1600 C 0.66135 0.72814 0.39424
 H1601 H 0.57609 0.79517 0.36187
 H1602 H 0.60707 0.79476 0.32884
 H1603 H 0.64629 0.71639 0.42915
 H1604 H 0.67801 0.71728 0.39683
 H1605 H 0.60530 0.72927 0.44505
 H1606 H 0.56116 0.78060 0.40271
 H1607 H 0.64707 0.78031 0.31205
 H1608 H 0.69294 0.73190 0.35612
 C1609 C 0.88366 0.75441 0.87875
 C1610 C 0.87693 0.74502 0.90201
 C1611 C 0.89429 0.74490 0.92120
 C1612 C 0.91849 0.75424 0.91761
 C1613 C 0.92465 0.76410 0.89403
 C1614 C 0.90740 0.76398 0.87454
 C1615 C 0.86543 0.75423 0.85843
 C1616 C 0.87217 0.76325 0.83495
 C1617 C 0.85472 0.76281 0.81564
 C1618 C 0.83064 0.75379 0.81996
 C1619 C 0.82427 0.74499 0.84370
 C1620 C 0.84158 0.74503 0.86292
 C1621 C 0.91344 0.77302 0.85082
 C1622 C 0.89616 0.77259 0.83136
 C1623 C 0.85288 0.73596 0.90577
 C1624 C 0.83547 0.73602 0.88655
 H1625 H 0.93172 0.78041 0.84725
 H1626 H 0.90161 0.77970 0.81338
 H1627 H 0.84746 0.72875 0.92371
 H1628 H 0.81711 0.72889 0.89021
 H1629 H 0.88834 0.73842 0.93923
 H1630 H 0.94312 0.77088 0.89033
 H1631 H 0.85972 0.76983 0.79748
 H1632 H 0.80585 0.73787 0.84719
 C1633 C 0.38645 0.25382 0.37939
 C1634 C 0.37892 0.26075 0.40329
 C1635 C 0.39642 0.26165 0.42235
 C1636 C 0.42135 0.25569 0.41774
 C1637 C 0.42862 0.24866 0.39367
 C1638 C 0.41121 0.24780 0.37436
 C1639 C 0.36802 0.25277 0.35929
 C1640 C 0.37547 0.24592 0.33533
 C1641 C 0.35777 0.24482 0.31631
 C1642 C 0.33275 0.25027 0.32127
 C1643 C 0.32574 0.25721 0.34546
 C1644 C 0.34326 0.25854 0.36447
 C1645 C 0.41799 0.24108 0.35014
 C1646 C 0.40044 0.24020 0.33095
 C1647 C 0.35400 0.26656 0.40770
 C1648 C 0.33646 0.26547 0.38861
 H1649 H 0.43702 0.23644 0.34597
 H1650 H 0.40646 0.23490 0.31256
 H1651 H 0.34799 0.27195 0.42607
 H1652 H 0.31741 0.27005 0.39279
 H1653 H 0.39058 0.26667 0.44090
 H1654 H 0.44779 0.24422 0.38994
 H1655 H 0.36340 0.23948 0.29780
 H1656 H 0.30664 0.26170 0.34952
 C1657 C 0.11469 0.75380 0.11851
 C1658 C 0.12040 0.74854 0.09371
 C1659 C 0.10144 0.74864 0.07606
 C1660 C 0.07691 0.75397 0.08302
 C1661 C 0.07154 0.75969 0.10789
 C1662 C 0.09039 0.75946 0.12578
 C1663 C 0.13450 0.75309 0.13727
 C1664 C 0.12873 0.75788 0.16215
 C1665 C 0.14754 0.75670 0.17998
 C1666 C 0.17202 0.75088 0.17306
 C1667 C 0.17749 0.74644 0.14793
 C1668 C 0.15877 0.74739 0.12998
 C1669 C 0.08541 0.76444 0.15084
 C1670 C 0.10426 0.76363 0.16872
 C1671 C 0.14491 0.74307 0.08709
 C1672 C 0.16378 0.74255 0.10491
 H1673 H 0.06677 0.76884 0.15671
 H1674 H 0.09960 0.76744 0.18787
 H1675 H 0.14953 0.73904 0.06797
 H1676 H 0.18242 0.73815 0.09904
 H1677 H 0.10575 0.74462 0.05686
 H1678 H 0.05268 0.76369 0.11334
 H1679 H 0.14310 0.76040 0.19921
 H1680 H 0.19621 0.74193 0.14236
 C1681 C 0.61638 0.25614 0.62094
 C1682 C 0.62242 0.26116 0.59615
 C1683 C 0.60356 0.26185 0.57839
 C1684 C 0.57879 0.25751 0.58523
 C1685 C 0.57306 0.25224 0.61014
 C1686 C 0.59181 0.25167 0.62813
 C1687 C 0.63617 0.25558 0.63972
 C1688 C 0.63014 0.25080 0.66456
 C1689 C 0.64901 0.25042 0.68236
 C1690 C 0.67382 0.25461 0.67546
 C1691 C 0.67950 0.25931 0.65040
 C1692 C 0.66074 0.25989 0.63248
 C1693 C 0.58653 0.24687 0.65317
 C1694 C 0.60535 0.24649 0.67108
 C1695 C 0.64720 0.26541 0.58960
 C1696 C 0.66604 0.26476 0.60746
 H1697 H 0.56767 0.24343 0.65899
 H1698 H 0.60047 0.24276 0.69020
 H1699 H 0.65207 0.26928 0.57050
 H1700 H 0.68490 0.26814 0.60163
 H1701 H 0.60816 0.26553 0.55918
 H1702 H 0.55403 0.24902 0.61553
 H1703 H 0.64435 0.24672 0.70155
 H1704 H 0.69845 0.26271 0.64484
 C1705 C 0.87888 0.23715 0.11986
 C1706 C 0.87269 0.23196 0.09511
 C1707 C 0.89129 0.23243 0.07695
 C1708 C 0.91580 0.23833 0.08346
 C1709 C 0.92168 0.24301 0.10845
 C1710 C 0.90332 0.24250 0.12670
 C1711 C 0.85936 0.23737 0.13892
 C1712 C 0.86560 0.24276 0.16359
 C1713 C 0.84695 0.24342 0.18158
 C1714 C 0.82213 0.23898 0.17505
 C1715 C 0.81625 0.23338 0.15020
 C1716 C 0.83482 0.23251 0.13207
 C1717 C 0.90888 0.24754 0.15161
 C1718 C 0.89033 0.24764 0.16976
 C1719 C 0.84796 0.22681 0.08903
 C1720 C 0.82935 0.22708 0.10719
 H1721 H 0.92771 0.25162 0.15709
 H1722 H 0.89537 0.25178 0.18874
 H1723 H 0.84291 0.22272 0.07004
 H1724 H 0.81049 0.22318 0.10169
 H1725 H 0.88664 0.22890 0.05774
 H1726 H 0.94059 0.24711 0.11367
 H1727 H 0.85175 0.24775 0.20059
 H1728 H 0.79726 0.22973 0.14494
 C1729 C 0.37517 0.74067 0.61711
 C1730 C 0.39980 0.73667 0.62419
 C1731 C 0.41832 0.73684 0.60604
 C1732 C 0.41241 0.74107 0.58095
 C1733 C 0.38760 0.74521 0.57417
 C1734 C 0.36887 0.74491 0.59220
 C1735 C 0.35561 0.74052 0.63618
 C1736 C 0.33095 0.74443 0.62913
 C1737 C 0.31245 0.74440 0.64737
 C1738 C 0.31850 0.74068 0.67255
 C1739 C 0.34340 0.73671 0.67920
 C1740 C 0.36199 0.73657 0.66109
 C1741 C 0.34396 0.74872 0.58587
 C1742 C 0.32532 0.74844 0.60401
 C1743 C 0.40545 0.73265 0.64929
 C1744 C 0.38687 0.73263 0.66743
 H1745 H 0.33881 0.75196 0.56673
 H1746 H 0.30636 0.75147 0.59832
 H1747 H 0.42441 0.72955 0.65497
 H1748 H 0.39203 0.72952 0.68659
 H1749 H 0.43740 0.73404 0.61148
 H1750 H 0.38290 0.74832 0.55488
 H1751 H 0.29341 0.74750 0.64195
 H1752 H 0.34835 0.73370 0.69843
 C1753 C 0.24236 0.12372 0.89004
 C1754 C 0.22713 0.10307 0.88572
 C1755 C 0.22619 0.08401 0.90341
 C1756 C 0.24088 0.08524 0.92486
 C1757 C 0.25599 0.10604 0.92901
 C1758 C 0.25660 0.12553 0.91174
 C1759 C 0.24384 0.14356 0.87125
 C1760 C 0.25888 0.16433 0.87564
 C1761 C 0.26035 0.18306 0.85760
 C1762 C 0.24751 0.18066 0.83504
 C1763 C 0.23259 0.15967 0.83091
 C1764 C 0.23047 0.14118 0.84908
 C1765 C 0.27142 0.14660 0.91549
 C1766 C 0.27240 0.16575 0.89783
 C1767 C 0.21361 0.10163 0.86354
 C1768 C 0.21536 0.12031 0.84546
 H1769 H 0.28241 0.14826 0.93219
 H1770 H 0.28409 0.18165 0.90144
 H1771 H 0.20183 0.08579 0.85998
 H1772 H 0.20485 0.11835 0.82848
 H1773 H 0.21480 0.06779 0.90013
 H1774 H 0.26733 0.10688 0.94555
 H1775 H 0.27191 0.19917 0.86079
 H1776 H 0.22241 0.15791 0.81369
 C1777 C 0.73911 0.62589 0.38920
 C1778 C 0.72374 0.60525 0.38533
 C1779 C 0.72315 0.58632 0.40315
 C1780 C 0.73830 0.58767 0.42426
 C1781 C 0.75351 0.60848 0.42799
 C1782 C 0.75380 0.62783 0.41058
 C1783 C 0.74031 0.64553 0.37021
 C1784 C 0.75556 0.66625 0.37411
 C1785 C 0.75686 0.68474 0.35582
 C1786 C 0.74365 0.68212 0.33353
 C1787 C 0.72847 0.66123 0.32991
 C1788 C 0.72653 0.64298 0.34831
 C1789 C 0.76876 0.64887 0.41387
 C1790 C 0.76949 0.66784 0.39602
 C1791 C 0.70978 0.60367 0.36344
 C1792 C 0.71125 0.62216 0.34517
 H1793 H 0.78008 0.65063 0.43033
 H1794 H 0.78134 0.68371 0.39924
 H1795 H 0.69789 0.58783 0.36025
 H1796 H 0.70043 0.62008 0.32840
 H1797 H 0.71168 0.57010 0.40021
 H1798 H 0.76519 0.60942 0.44428
 H1799 H 0.76862 0.70078 0.35860
 H1800 H 0.71802 0.65934 0.31287
 C1801 C 0.75671 0.10790 0.12190
 C1802 C 0.74302 0.08592 0.12464
 C1803 C 0.74412 0.06788 0.10597
 C1804 C 0.75918 0.07157 0.08505
 C1805 C 0.77334 0.09333 0.08290
 C1806 C 0.77191 0.11177 0.10114
 C1807 C 0.75468 0.12746 0.14086
 C1808 C 0.76752 0.14987 0.13757
 C1809 C 0.76495 0.16868 0.15528
 C1810 C 0.75012 0.16496 0.17640
 C1811 C 0.73775 0.14222 0.17968
 C1812 C 0.73968 0.12351 0.16174
 C1813 C 0.78488 0.13423 0.09877
 C1814 C 0.78262 0.15302 0.11661
 C1815 C 0.72821 0.08265 0.14578
 C1816 C 0.72671 0.10105 0.16411
 H1817 H 0.79662 0.13744 0.08282
 H1818 H 0.79272 0.17017 0.11395
 H1819 H 0.71763 0.06575 0.14815
 H1820 H 0.71505 0.09779 0.18011
 H1821 H 0.73316 0.05111 0.10749
 H1822 H 0.78466 0.09625 0.06657
 H1823 H 0.77476 0.18605 0.15287
 H1824 H 0.72626 0.13934 0.19590
 C1825 C 0.25035 0.61114 0.61602
 C1826 C 0.24430 0.58644 0.62174
 C1827 C 0.24609 0.56830 0.60320
 C1828 C 0.25416 0.57476 0.57923
 C1829 C 0.26019 0.59960 0.57387
 C1830 C 0.25825 0.61788 0.59216
 C1831 C 0.24838 0.63032 0.63535
 C1832 C 0.25420 0.65503 0.62951
 C1833 C 0.25224 0.67321 0.64790
 C1834 C 0.24473 0.66683 0.67210
 C1835 C 0.23907 0.64190 0.67766
 C1836 C 0.24075 0.62359 0.65930
 C1837 C 0.26400 0.64277 0.58705
 C1838 C 0.26197 0.66105 0.60540
 C1839 C 0.23665 0.58043 0.64590
 C1840 C 0.23497 0.59867 0.66438
 H1841 H 0.27009 0.64818 0.56869
 H1842 H 0.26657 0.68004 0.60070
 H1843 H 0.23197 0.56145 0.65058
 H1844 H 0.22905 0.59324 0.68278
 H1845 H 0.24157 0.54917 0.60744
 H1846 H 0.26606 0.60474 0.55535
 H1847 H 0.25688 0.69226 0.64344
 H1848 H 0.23324 0.63677 0.69619
 C1849 C 0.76126 0.88725 0.87298
 C1850 C 0.77561 0.88364 0.89437
 C1851 C 0.77609 0.90219 0.91257
 C1852 C 0.76183 0.92383 0.90972
 C1853 C 0.74755 0.92720 0.88821
 C1854 C 0.74742 0.90905 0.86959
 C1855 C 0.76039 0.86765 0.85395
 C1856 C 0.74632 0.87140 0.83240
 C1857 C 0.74557 0.85272 0.81435
 C1858 C 0.75821 0.83018 0.81809
 C1859 C 0.77204 0.82662 0.83991
 C1860 C 0.77344 0.84544 0.85779
 C1861 C 0.73351 0.91209 0.84782
 C1862 C 0.73310 0.89366 0.82946
 C1863 C 0.78877 0.86135 0.89735
 C1864 C 0.78759 0.84252 0.87943
 H1865 H 0.72282 0.92884 0.84495
 H1866 H 0.72215 0.89675 0.81293
 H1867 H 0.79986 0.85832 0.91379
 H1868 H 0.79783 0.82553 0.88255
 H1869 H 0.78683 0.89949 0.92932
 H1870 H 0.73654 0.94388 0.88609
 H1871 H 0.73480 0.85549 0.79763
 H1872 H 0.78202 0.80940 0.84273
 C1873 C 0.26269 0.37985 0.37614
 C1874 C 0.27039 0.37325 0.40010
 C1875 C 0.27059 0.39129 0.41873
 C1876 C 0.26303 0.41579 0.41363
 C1877 C 0.25533 0.42211 0.38949
 C1878 C 0.25521 0.40420 0.37062
 C1879 C 0.26225 0.36085 0.35652
 C1880 C 0.25460 0.36740 0.33252
 C1881 C 0.25403 0.34916 0.31398
 C1882 C 0.26071 0.32448 0.31946
 C1883 C 0.26843 0.31833 0.34365
 C1884 C 0.26932 0.33644 0.36220
 C1885 C 0.24774 0.41008 0.34637
 C1886 C 0.24749 0.39201 0.32763
 C1887 C 0.27758 0.34868 0.40500
 C1888 C 0.27703 0.33057 0.38637
 H1889 H 0.24198 0.42879 0.34184
 H1890 H 0.24154 0.39732 0.30920
 H1891 H 0.28357 0.34339 0.42342
 H1892 H 0.28262 0.31181 0.39094
 H1893 H 0.27618 0.38618 0.43734
 H1894 H 0.24966 0.44096 0.38539
 H1895 H 0.24800 0.35408 0.29545
 H1896 H 0.27386 0.29947 0.34804
 C1897 C 0.24301 0.87509 0.11167
 C1898 C 0.25683 0.87113 0.08998
 C1899 C 0.25617 0.88898 0.07105
 C1900 C 0.24142 0.91030 0.07355
 C1901 C 0.22719 0.91371 0.09511
 C1902 C 0.22817 0.89629 0.11442
 C1903 C 0.24436 0.85684 0.13202
 C1904 C 0.23123 0.86120 0.15406
 C1905 C 0.23289 0.84395 0.17349
 C1906 C 0.24702 0.82220 0.17068
 C1907 C 0.25986 0.81802 0.14837
 C1908 C 0.25885 0.83544 0.12909
 C1909 C 0.21502 0.89983 0.13660
 C1910 C 0.21662 0.88265 0.15613
 C1911 C 0.27122 0.84956 0.08781
 C1912 C 0.27208 0.83193 0.10696
 H1913 H 0.20356 0.91614 0.13896
 H1914 H 0.20630 0.88617 0.17297
 H1915 H 0.28191 0.84626 0.07115
 H1916 H 0.28335 0.81550 0.10451
 H1917 H 0.26716 0.88643 0.05444
 H1918 H 0.21610 0.93034 0.09713
 H1919 H 0.22276 0.84709 0.19052
 H1920 H 0.27085 0.80135 0.14617
 C1921 C 0.74358 0.37970 0.61272
 C1922 C 0.75686 0.37541 0.59076
 C1923 C 0.75587 0.39305 0.57166
 C1924 C 0.74132 0.41448 0.57430
 C1925 C 0.72762 0.41823 0.59612
 C1926 C 0.72894 0.40102 0.61559
 C1927 C 0.74532 0.36170 0.63324
 C1928 C 0.73273 0.36638 0.65553
 C1929 C 0.73474 0.34933 0.67510
 C1930 C 0.74869 0.32749 0.67218
 C1931 C 0.76101 0.32299 0.64964
 C1932 C 0.75963 0.34019 0.63020
 C1933 C 0.71633 0.40490 0.63802
 C1934 C 0.71829 0.38793 0.65770
 C1935 C 0.77108 0.35374 0.58848
 C1936 C 0.77231 0.33633 0.60781
 H1937 H 0.70503 0.42131 0.64047
 H1938 H 0.70840 0.39170 0.67474
 H1939 H 0.78135 0.35019 0.57161
 H1940 H 0.78343 0.31982 0.60528
 H1941 H 0.76645 0.39026 0.55483
 H1942 H 0.71669 0.43496 0.59822
 H1943 H 0.72498 0.35269 0.69233
 H1944 H 0.77185 0.30624 0.64736
 C1945 C 0.11956 0.12391 0.76190
 C1946 C 0.12647 0.09907 0.75843
 C1947 C 0.10815 0.08079 0.75768
 C1948 C 0.08305 0.08715 0.76038
 C1949 C 0.07641 0.11206 0.76445
 C1950 C 0.09464 0.13060 0.76501
 C1951 C 0.13876 0.14332 0.76185
 C1952 C 0.13186 0.16824 0.76475
 C1953 C 0.15017 0.18667 0.76411
 C1954 C 0.17523 0.18027 0.76067
 C1955 C 0.18175 0.15508 0.75814
 C1956 C 0.16361 0.13657 0.75860
 C1957 C 0.08850 0.15572 0.76822
 C1958 C 0.10679 0.17423 0.76805
 C1959 C 0.15155 0.09302 0.75549
 C1960 C 0.16982 0.11146 0.75562
 H1961 H 0.06938 0.16115 0.77065
 H1962 H 0.10123 0.19339 0.77039
 H1963 H 0.15708 0.07388 0.75289
 H1964 H 0.18894 0.10603 0.75315
 H1965 H 0.11336 0.06157 0.75491
 H1966 H 0.05710 0.11702 0.76644
 H1967 H 0.14489 0.20594 0.76628
 H1968 H 0.20092 0.14984 0.75553
 C1969 C 0.61571 0.62365 0.25955
 C1970 C 0.59121 0.62953 0.25322
 C1971 C 0.57329 0.61066 0.25309
 C1972 C 0.57976 0.58610 0.25938
 C1973 C 0.60446 0.58065 0.26570
 C1974 C 0.62248 0.59931 0.26582
 C1975 C 0.63470 0.64331 0.25945
 C1976 C 0.65923 0.63730 0.26546
 C1977 C 0.67729 0.65592 0.26492
 C1978 C 0.67101 0.68051 0.25857
 C1979 C 0.64620 0.68627 0.25290
 C1980 C 0.62800 0.66769 0.25318
 C1981 C 0.64717 0.59407 0.27194
 C1982 C 0.66524 0.61274 0.27177
 C1983 C 0.58520 0.65417 0.24713
 C1984 C 0.60326 0.67291 0.24714
 H1985 H 0.65261 0.57535 0.27684
 H1986 H 0.68408 0.60789 0.27654
 H1987 H 0.56638 0.65900 0.24226
 H1988 H 0.59782 0.69164 0.24228
 H1989 H 0.55432 0.61507 0.24837
 H1990 H 0.60976 0.56177 0.27013
 H1991 H 0.69623 0.65124 0.26951
 H1992 H 0.64112 0.70508 0.24793
 C1993 C 0.11772 0.88079 0.24539
 C1994 C 0.12320 0.90413 0.23523
 C1995 C 0.10510 0.92282 0.23556
 C1996 C 0.08174 0.91856 0.24661
 C1997 C 0.07676 0.89469 0.25646
 C1998 C 0.09452 0.87586 0.25580
 C1999 C 0.13670 0.86117 0.24534
 C2000 C 0.13102 0.83773 0.25524
 C2001 C 0.14916 0.81920 0.25537
 C2002 C 0.17300 0.82412 0.24615
 C2003 C 0.17839 0.84774 0.23627
 C2004 C 0.16021 0.86628 0.23563
 C2005 C 0.08947 0.85216 0.26542
 C2006 C 0.10739 0.83338 0.26506
 C2007 C 0.14685 0.90842 0.22529
 C2008 C 0.16507 0.88985 0.22559
 H2009 H 0.07153 0.84811 0.27338
 H2010 H 0.10278 0.81539 0.27274
 H2011 H 0.15138 0.92635 0.21742
 H2012 H 0.18311 0.89400 0.21793
 H2013 H 0.10981 0.94096 0.22832
 H2014 H 0.05870 0.89026 0.26390
 H2015 H 0.14488 0.80113 0.26310
 H2016 H 0.19664 0.85164 0.22897
 C2017 C 0.62152 0.38834 0.74455
 C2018 C 0.59684 0.38206 0.73964
 C2019 C 0.57906 0.40090 0.73838
 C2020 C 0.58574 0.42590 0.74207
 C2021 C 0.61056 0.43188 0.74718
 C2022 C 0.62858 0.41314 0.74830
 C2023 C 0.64032 0.36855 0.74579
 C2024 C 0.66505 0.37482 0.75048
 C2025 C 0.68287 0.35595 0.75154
 C2026 C 0.67610 0.33090 0.74810
 C2027 C 0.65114 0.32499 0.74350
 C2028 C 0.63321 0.34375 0.74224
 C2029 C 0.65351 0.41866 0.75301
 C2030 C 0.67144 0.39984 0.75403
 C2031 C 0.59043 0.35706 0.73612
 C2032 C 0.60830 0.33822 0.73743
 H2033 H 0.65923 0.43770 0.75589
 H2034 H 0.69047 0.40491 0.75766
 H2035 H 0.57142 0.35200 0.73234
 H2036 H 0.60257 0.31918 0.73461
 H2037 H 0.55993 0.39610 0.73486
 H2038 H 0.61584 0.45108 0.74991
 H2039 H 0.70197 0.36080 0.75513
 H2040 H 0.64568 0.30587 0.74065
 C2041 C 0.87974 0.11338 0.25063
 C2042 C 0.87428 0.08847 0.24534
 C2043 C 0.89354 0.07099 0.24506
 C2044 C 0.91798 0.07835 0.25026
 C2045 C 0.92305 0.10343 0.25539
 C2046 C 0.90405 0.12101 0.25558
 C2047 C 0.85966 0.13185 0.25097
 C2048 C 0.86526 0.15674 0.25607
 C2049 C 0.84621 0.17427 0.25627
 C2050 C 0.82159 0.16715 0.25152
 C2051 C 0.81626 0.14203 0.24657
 C2052 C 0.83529 0.12430 0.24618
 C2053 C 0.90889 0.14608 0.26062
 C2054 C 0.88982 0.16367 0.26083
 C2055 C 0.84968 0.08160 0.24056
 C2056 C 0.83051 0.09921 0.24101
 H2057 H 0.92759 0.15217 0.26443
 H2058 H 0.89433 0.18284 0.26478
 H2059 H 0.84520 0.06246 0.23648
 H2060 H 0.81181 0.09312 0.23723
 H2061 H 0.88952 0.05168 0.24121
 H2062 H 0.94188 0.10930 0.25897
 H2063 H 0.85060 0.19348 0.26020
 H2064 H 0.79743 0.13633 0.24275
 C2065 C 0.37422 0.61106 0.75049
 C2066 C 0.37211 0.58990 0.73548
 C2067 C 0.39162 0.57273 0.73491
 C2068 C 0.41278 0.57643 0.74963
 C2069 C 0.41432 0.59740 0.76502
 C2070 C 0.39523 0.61498 0.76527
 C2071 C 0.35426 0.62972 0.75039
 C2072 C 0.35692 0.65137 0.76458
 C2073 C 0.33830 0.66941 0.76382
 C2074 C 0.31690 0.66568 0.74947
 C2075 C 0.31423 0.64364 0.73575
 C2076 C 0.33310 0.62572 0.73585
 C2077 C 0.39697 0.63665 0.77958
 C2078 C 0.37820 0.65461 0.77912
 C2079 C 0.35067 0.58656 0.72115
 C2080 C 0.33143 0.60408 0.72146
 H2081 H 0.41311 0.63990 0.79099
 H2082 H 0.38039 0.67119 0.79022
 H2083 H 0.34877 0.57028 0.70956
 H2084 H 0.31525 0.60079 0.71012
 H2085 H 0.39048 0.55656 0.72304
 H2086 H 0.43077 0.60041 0.77609
 H2087 H 0.34031 0.68627 0.77456
 H2088 H 0.29785 0.64081 0.72453
 C2089 C 0.88744 0.88487 0.74999
 C2090 C 0.88107 0.90958 0.74483
 C2091 C 0.89939 0.92784 0.74569
 C2092 C 0.92397 0.92160 0.75159
 C2093 C 0.93003 0.89680 0.75714
 C2094 C 0.91179 0.87829 0.75624
 C2095 C 0.86826 0.86552 0.74865
 C2096 C 0.87461 0.84075 0.75353
 C2097 C 0.85632 0.82239 0.75196
 C2098 C 0.83180 0.82874 0.74570
 C2099 C 0.82579 0.85374 0.74104
 C2100 C 0.84395 0.87218 0.74241
 C2101 C 0.91740 0.85332 0.76121
 C2102 C 0.89912 0.83486 0.75987
 C2103 C 0.85654 0.91554 0.73876
 C2104 C 0.83827 0.89714 0.73760
 H2105 H 0.93608 0.84798 0.76608
 H2106 H 0.90424 0.81582 0.76378
 H2107 H 0.85143 0.93457 0.73480
 H2108 H 0.81957 0.90249 0.73279
 H2109 H 0.89452 0.94697 0.74185
 H2110 H 0.94894 0.89189 0.76160
 H2111 H 0.86114 0.80325 0.75582
 H2112 H 0.80703 0.85887 0.73619
 C2113 C 0.39157 0.37709 0.24423
 C2114 C 0.38860 0.39866 0.22990
 C2115 C 0.40717 0.41681 0.23024
 C2116 C 0.42818 0.41374 0.24529
 C2117 C 0.43090 0.39205 0.25957
 C2118 C 0.41273 0.37349 0.25889
 C2119 C 0.37196 0.35808 0.24416
 C2120 C 0.37508 0.33633 0.25818
 C2121 C 0.35642 0.31826 0.25794
 C2122 C 0.33454 0.32218 0.24434
 C2123 C 0.33157 0.34423 0.23065
 C2124 C 0.35039 0.36212 0.23024
 C2125 C 0.41512 0.35154 0.27276
 C2126 C 0.39669 0.33320 0.27228
 C2127 C 0.36694 0.40186 0.21591
 C2128 C 0.34809 0.38396 0.21619
 H2129 H 0.43138 0.34850 0.28409
 H2130 H 0.39928 0.31653 0.28322
 H2131 H 0.36441 0.41845 0.20484
 H2132 H 0.33158 0.38725 0.20530
 H2133 H 0.40494 0.43369 0.21952
 H2134 H 0.44709 0.38976 0.27119
 H2135 H 0.35868 0.30139 0.26868
 H2136 H 0.31484 0.34722 0.22001
   
