data_POSCAR
  _audit_creation_date              2014-09-24
  _audit_creation_method            'ToBaCCo'
  _symmetry_space_group_name_H-M    'P1'
  _symmetry_Int_Tables_number       1
  _symmetry_cell_setting            triclinic
  loop_
  _symmetry_equiv_pos_as_xyz
 x,y,z
_cell_length_a 63.3656
_cell_length_b 63.2180
_cell_length_c 63.2375
_cell_angle_alpha 90.111400
_cell_angle_beta 90.068300
_cell_angle_gamma 90.016300
loop_
  _atom_site_label
  _atom_site_type_symbol
  _atom_site_fract_x
  _atom_site_fract_y
  _atom_site_fract_z
N1 N 0.29175 0.44467 0.90053
 N2 N 0.30822 0.45725 0.89901
 C3 C 0.30604 0.46950 0.88174
 C4 C 0.28724 0.46427 0.87208
 C5 C 0.27855 0.44845 0.88426
 H6 H 0.31756 0.48083 0.87621
 H7 H 0.26414 0.43984 0.88108
 Cu8 Cu 0.33174 0.45554 0.91871
 Cu9 Cu 0.28953 0.42324 0.92245
 Cu10 Cu 0.32808 0.42364 0.96122
 N11 N 0.35146 0.45752 0.94221
 N12 N 0.34991 0.44516 0.95885
 C13 C 0.36620 0.44906 0.97201
 C14 C 0.37840 0.46474 0.96309
 C15 C 0.36877 0.46975 0.94420
 H16 H 0.36938 0.44057 0.98650
 H17 H 0.37434 0.48088 0.93249
 N18 N 0.30476 0.40303 0.96078
 N19 N 0.29009 0.40283 0.94593
 C20 C 0.27748 0.38593 0.94888
 C21 C 0.28454 0.37516 0.96643
 C22 C 0.30185 0.38626 0.97358
 H23 H 0.26478 0.38117 0.93846
 H24 H 0.31217 0.38181 0.98646
 H25 H 0.30660 0.44116 0.94385
 H26 H 0.32130 0.41992 0.92938
 N27 N 0.44433 0.85081 0.45894
 N28 N 0.45692 0.85239 0.44249
 C29 C 0.46910 0.86973 0.44473
 C30 C 0.46381 0.87933 0.46358
 C31 C 0.44802 0.86709 0.47222
 H32 H 0.48042 0.87532 0.43324
 H33 H 0.43937 0.87021 0.48663
 Cu34 Cu 0.45538 0.83263 0.41893
 Cu35 Cu 0.42298 0.82877 0.46101
 Cu36 Cu 0.42330 0.79018 0.42212
 N37 N 0.45738 0.80919 0.39906
 N38 N 0.44489 0.79261 0.40037
 C39 C 0.44891 0.77948 0.38407
 C40 C 0.46478 0.78831 0.37208
 C41 C 0.46979 0.80715 0.38189
 H42 H 0.44044 0.76499 0.38075
 H43 H 0.48111 0.81876 0.37654
 N44 N 0.40268 0.79053 0.44544
 N45 N 0.40261 0.80523 0.46031
 C46 C 0.38581 0.80215 0.47299
 C47 C 0.37496 0.78469 0.46574
 C48 C 0.38593 0.77771 0.44827
 H49 H 0.38117 0.81242 0.48586
 H50 H 0.38142 0.76491 0.43783
 H51 H 0.44077 0.80732 0.44383
 H52 H 0.41974 0.82197 0.42911
 N53 N 0.94333 0.89968 0.79285
 N54 N 0.95665 0.89874 0.80880
 C55 C 0.96945 0.88194 0.80611
 C56 C 0.96381 0.87202 0.78752
 C57 C 0.94718 0.88352 0.77950
 H58 H 0.98144 0.87686 0.81718
 H59 H 0.93806 0.87990 0.76549
 Cu60 Cu 0.95521 0.91850 0.83235
 Cu61 Cu 0.92095 0.92061 0.79151
 Cu62 Cu 0.92061 0.95908 0.83044
 N63 N 0.95627 0.94181 0.85243
 N64 N 0.94284 0.95766 0.85160
 C65 C 0.94653 0.97087 0.86792
 C66 C 0.96320 0.96285 0.87938
 C67 C 0.96901 0.94441 0.86931
 H68 H 0.93732 0.98480 0.87160
 H69 H 0.98111 0.93341 0.87428
 N70 N 0.89940 0.95780 0.80768
 N71 N 0.89952 0.94309 0.79284
 C72 C 0.88248 0.94567 0.78034
 C73 C 0.87128 0.96283 0.78770
 C74 C 0.88228 0.97016 0.80503
 H75 H 0.87812 0.93545 0.76732
 H76 H 0.87773 0.98306 0.81531
 H77 H 0.93824 0.94301 0.80808
 H78 H 0.91866 0.92715 0.82355
 N79 N 0.44470 -0.09860 0.29040
 N80 N 0.45706 -0.10015 0.30705
 C81 C 0.46946 -0.11731 0.30492
 C82 C 0.46457 -0.12687 0.28596
 C83 C 0.44878 -0.11477 0.27712
 H84 H 0.48063 -0.12286 0.31661
 H85 H 0.44036 -0.11795 0.26257
 Cu86 Cu 0.45480 -0.08077 0.33075
 Cu87 Cu 0.42315 -0.07679 0.28810
 Cu88 Cu 0.42304 -0.03824 0.32706
 N89 N 0.45689 -0.05729 0.35042
 N90 N 0.44450 -0.04067 0.34896
 C91 C 0.44846 -0.02754 0.36529
 C92 C 0.46421 -0.03645 0.37741
 C93 C 0.46920 -0.05530 0.36768
 H94 H 0.43999 -0.01305 0.36856
 H95 H 0.48039 -0.06699 0.37316
 N96 N 0.40260 -0.03867 0.30356
 N97 N 0.40264 -0.05339 0.28870
 C98 C 0.38582 -0.05045 0.27599
 C99 C 0.37487 -0.03306 0.28319
 C100 C 0.38577 -0.02598 0.30068
 H101 H 0.38123 -0.06080 0.26315
 H102 H 0.38112 -0.01326 0.31114
 H103 H 0.44072 -0.05545 0.30561
 H104 H 0.41938 -0.07003 0.31993
 N105 N 0.79091 0.30606 0.34873
 N106 N 0.80676 0.29267 0.34975
 C107 C 0.80410 0.27997 0.36660
 C108 C 0.78564 0.28573 0.37650
 C109 C 0.77765 0.30236 0.36493
 H110 H 0.81514 0.26800 0.37178
 H111 H 0.76377 0.31163 0.36857
 Cu112 Cu 0.83025 0.29382 0.33010
 Cu113 Cu 0.78977 0.32842 0.32769
 Cu114 Cu 0.82929 0.32900 0.29000
 N115 N 0.85076 0.29306 0.30733
 N116 N 0.85037 0.30678 0.29172
 C117 C 0.86690 0.30317 0.27886
 C118 C 0.87804 0.28626 0.28685
 C119 C 0.86754 0.28021 0.30490
 H120 H 0.87092 0.31254 0.26516
 H121 H 0.87215 0.26783 0.31574
 N122 N 0.80652 0.35013 0.29089
 N123 N 0.79134 0.34982 0.30518
 C124 C 0.77882 0.36681 0.30231
 C125 C 0.78654 0.37816 0.28544
 C126 C 0.80408 0.36732 0.27856
 H127 H 0.76558 0.37107 0.31220
 H128 H 0.81466 0.37203 0.26602
 H129 H 0.80654 0.31123 0.30527
 H130 H 0.82180 0.33055 0.32173
 N131 N -0.19361 0.85088 0.79148
 N132 N -0.20754 0.85113 0.80688
 C133 C -0.22057 0.86775 0.80424
 C134 C -0.21442 0.87828 0.78623
 C135 C -0.19726 0.86735 0.77851
 H136 H -0.23307 0.87226 0.81498
 H137 H -0.18770 0.87151 0.76498
 Cu138 Cu -0.20655 0.83085 0.82987
 Cu139 Cu -0.17105 0.83008 0.79019
 Cu140 Cu -0.17189 0.79045 0.82787
 N141 N -0.20835 0.80700 0.84907
 N142 N -0.19480 0.79126 0.84831
 C143 C -0.19883 0.77781 0.86430
 C144 C -0.21583 0.78556 0.87547
 C145 C -0.22148 0.80408 0.86554
 H146 H -0.18949 0.76402 0.86813
 H147 H -0.23359 0.81506 0.87053
 N148 N -0.15000 0.79238 0.80587
 N149 N -0.14964 0.80756 0.79155
 C150 C -0.13239 0.80512 0.77934
 C151 C -0.12156 0.78760 0.78634
 C152 C -0.13298 0.77989 0.80316
 H153 H -0.12772 0.81559 0.76668
 H154 H -0.12887 0.76653 0.81300
 H155 H -0.18872 0.80718 0.80534
 H156 H -0.16970 0.82257 0.82199
 N157 N 0.96008 0.34820 0.44517
 N158 N 0.94465 0.34869 0.45906
 C159 C 0.94723 0.36562 0.47179
 C160 C 0.96522 0.37610 0.46549
 C161 C 0.97299 0.36481 0.44853
 H162 H 0.93646 0.37041 0.48416
 H163 H 0.98646 0.36886 0.43886
 Cu164 Cu 0.92179 0.32815 0.45857
 Cu165 Cu 0.96126 0.32715 0.42274
 Cu166 Cu 0.92283 0.28828 0.42297
 N167 N 0.90152 0.30504 0.45931
 N168 N 0.90204 0.28946 0.44551
 C169 C 0.88559 0.27644 0.44901
 C170 C 0.87434 0.28428 0.46593
 C171 C 0.88472 0.30243 0.47209
 H172 H 0.88157 0.26284 0.43940
 H173 H 0.87989 0.31331 0.48438
 N174 N 0.94516 0.28972 0.40140
 N175 N 0.95984 0.30455 0.40132
 C176 C 0.97200 0.30205 0.38402
 C177 C 0.96460 0.28485 0.37287
 C178 C 0.94759 0.27739 0.38417
 H179 H 0.98479 0.31240 0.37943
 H180 H 0.93734 0.26445 0.37971
 H181 H 0.92937 0.32032 0.42148
 H182 H 0.94571 0.30425 0.44016
 N183 N 0.45745 0.44251 0.85022
 N184 N 0.44261 0.45706 0.85021
 C185 C 0.44531 0.46979 0.86712
 C186 C 0.46276 0.46281 0.87809
 C187 C 0.47009 0.44547 0.86711
 H188 H 0.43508 0.48277 0.87148
 H189 H 0.48322 0.43544 0.87141
 Cu190 Cu 0.42072 0.45725 0.82862
 Cu191 Cu 0.45861 0.42011 0.82909
 Cu192 Cu 0.42002 0.42052 0.79012
 N193 N 0.39929 0.45752 0.80658
 N194 N 0.39920 0.44316 0.79148
 C195 C 0.38240 0.44639 0.77884
 C196 C 0.37154 0.46368 0.78643
 C197 C 0.38251 0.47037 0.80404
 H198 H 0.37802 0.43651 0.76556
 H199 H 0.37821 0.48319 0.81452
 N200 N 0.44248 0.39896 0.79148
 N201 N 0.45716 0.39882 0.80634
 C202 C 0.46965 0.38181 0.80349
 C203 C 0.46248 0.37089 0.78605
 C204 C 0.44525 0.38202 0.77880
 H205 H 0.48263 0.37732 0.81365
 H206 H 0.43519 0.37775 0.76565
 H207 H 0.44384 0.43704 0.80528
 H208 H 0.42678 0.41977 0.82200
 N209 N 0.78945 0.90291 0.94638
 N210 N 0.80628 0.90071 0.95838
 C211 C 0.80427 0.88299 0.96999
 C212 C 0.78517 0.87382 0.96502
 C213 C 0.77614 0.88672 0.94998
 H214 H 0.81600 0.87689 0.98081
 H215 H 0.76134 0.88418 0.94181
 Cu216 Cu 0.82941 0.92086 0.95731
 Cu217 Cu 0.78646 0.92607 0.92637
 Cu218 Cu 0.82972 0.95907 0.92032
 N219 N 0.85125 0.94241 0.95667
 N220 N 0.85140 0.95719 0.94205
 C221 C 0.86843 0.96963 0.94489
 C222 C 0.87935 0.96222 0.96220
 C223 C 0.86820 0.94494 0.96931
 H224 H 0.87270 0.98286 0.93495
 H225 H 0.87234 0.93481 0.98244
 N226 N 0.80587 0.95860 0.90038
 N227 N 0.78917 0.94637 0.90292
 C228 C 0.77598 0.94915 0.88642
 C229 C 0.78484 0.96390 0.87308
 C230 C 0.80372 0.96956 0.88227
 H231 H 0.76143 0.94054 0.88390
 H232 H 0.81528 0.98040 0.87590
 H233 H 0.81858 0.92807 0.92125
 H234 H 0.80742 0.94766 0.94050
 N235 N 0.28989 0.84726 0.30389
 N236 N 0.30519 0.84762 0.28985
 C237 C 0.30292 0.86488 0.27757
 C238 C 0.28524 0.87567 0.28429
 C239 C 0.27736 0.86420 0.30101
 H240 H 0.31370 0.86970 0.26525
 H241 H 0.26404 0.86835 0.31086
 Cu242 Cu 0.32743 0.82638 0.28988
 Cu243 Cu 0.28837 0.82592 0.32594
 Cu244 Cu 0.32831 0.78853 0.32729
 N245 N 0.35003 0.80557 0.29128
 N246 N 0.35022 0.79075 0.30586
 C247 C 0.36778 0.77895 0.30362
 C248 C 0.37905 0.78682 0.28677
 C249 C 0.36751 0.80371 0.27929
 H250 H 0.37225 0.76594 0.31377
 H251 H 0.37178 0.81409 0.26641
 N252 N 0.30476 0.78888 0.34761
 N253 N 0.28952 0.80312 0.34707
 C254 C 0.27669 0.80013 0.36377
 C255 C 0.28421 0.78321 0.37518
 C256 C 0.30201 0.77646 0.36468
 H257 H 0.26346 0.81010 0.36793
 H258 H 0.31267 0.76408 0.36969
 H259 H 0.32056 0.82033 0.32735
 H260 H 0.30463 0.80260 0.30987
 N261 N 0.78969 0.40154 0.44496
 N262 N 0.80513 0.40105 0.45887
 C263 C 0.80258 0.38411 0.47150
 C264 C 0.78462 0.37360 0.46515
 C265 C 0.77682 0.38491 0.44825
 H266 H 0.81335 0.37932 0.48388
 H267 H 0.76332 0.38086 0.43857
 Cu268 Cu 0.82785 0.42169 0.45862
 Cu269 Cu 0.78847 0.42265 0.42265
 Cu270 Cu 0.82719 0.46126 0.42288
 N271 N 0.84849 0.44441 0.45919
 N272 N 0.84813 0.45990 0.44534
 C273 C 0.86475 0.47273 0.44881
 C274 C 0.87592 0.46485 0.46576
 C275 C 0.86534 0.44689 0.47197
 H276 H 0.86891 0.48624 0.43921
 H277 H 0.87004 0.43606 0.48432
 N278 N 0.80469 0.46001 0.40141
 N279 N 0.78988 0.44530 0.40134
 C280 C 0.77765 0.44787 0.38408
 C281 C 0.78515 0.46498 0.37292
 C282 C 0.80227 0.47232 0.38420
 H283 H 0.76477 0.43761 0.37950
 H284 H 0.81264 0.48514 0.37973
 H285 H 0.82034 0.42934 0.42155
 H286 H 0.80408 0.44568 0.44008
 N287 N 0.94303 0.84940 -0.04117
 N288 N 0.95697 0.84986 -0.05657
 C289 C 0.96927 0.86711 -0.05425
 C290 C 0.96266 0.87784 -0.03648
 C291 C 0.94598 0.86634 -0.02854
 H292 H 0.98176 0.87180 -0.06489
 H293 H 0.93640 0.87027 -0.01495
 Cu294 Cu 0.95715 0.82814 -0.07837
 Cu295 Cu 0.92140 0.82747 -0.03929
 Cu296 Cu 0.92193 0.78858 -0.07820
 N297 N 0.95743 0.80640 -0.10016
 N298 N 0.94371 0.79078 -0.09983
 C299 C 0.94686 0.77827 -0.11679
 C300 C 0.96343 0.78651 -0.12821
 C301 C 0.96979 0.80435 -0.11738
 H302 H 0.93742 0.76460 -0.12086
 H303 H 0.98210 0.81523 -0.12202
 N304 N 0.90113 0.78915 -0.05503
 N305 N 0.90088 0.80396 -0.04025
 C306 C 0.88392 0.80094 -0.02777
 C307 C 0.87317 0.78342 -0.03504
 C308 C 0.88434 0.77635 -0.05232
 H309 H 0.87914 0.81126 -0.01499
 H310 H 0.87995 0.76347 -0.06272
 H311 H 0.93838 0.80432 -0.05470
 H312 H 0.92012 0.82052 -0.07118
 N313 N 0.29200 0.35001 0.80591
 N314 N 0.30720 0.35021 0.79174
 C315 C 0.30496 0.36747 0.77945
 C316 C 0.28745 0.37844 0.78633
 C317 C 0.27960 0.36707 0.80312
 H318 H 0.31552 0.37204 0.76683
 H319 H 0.26625 0.37121 0.81292
 Cu320 Cu 0.32887 0.32837 0.79148
 Cu321 Cu 0.29006 0.32838 0.82767
 Cu322 Cu 0.32849 0.28934 0.82751
 N323 N 0.35037 0.30634 0.79153
 N324 N 0.35004 0.29106 0.80563
 C325 C 0.36689 0.27843 0.80268
 C326 C 0.37826 0.28621 0.78585
 C327 C 0.36750 0.30393 0.77912
 H328 H 0.37091 0.26496 0.81241
 H329 H 0.37214 0.31452 0.76655
 N330 N 0.30541 0.29031 0.84837
 N331 N 0.29076 0.30518 0.84840
 C332 C 0.27808 0.30234 0.86524
 C333 C 0.28507 0.28488 0.87616
 C334 C 0.30241 0.27763 0.86521
 H335 H 0.26529 0.31271 0.86981
 H336 H 0.31257 0.26466 0.86973
 H337 H 0.32192 0.32138 0.82876
 H338 H 0.30522 0.30493 0.81079
 N339 N 0.14969 0.55665 0.54103
 N340 N 0.15027 0.54151 0.55527
 C341 C 0.13342 0.52877 0.55257
 C342 C 0.12188 0.53636 0.53575
 C343 C 0.13248 0.55405 0.52878
 H344 H 0.12947 0.51538 0.56243
 H345 H 0.12772 0.56455 0.51616
 Cu346 Cu 0.17234 0.54084 0.57662
 Cu347 Cu 0.17070 0.57917 0.54002
 Cu348 Cu 0.21040 0.57765 0.57789
 N349 N 0.19438 0.54017 0.59802
 N350 N 0.20936 0.55460 0.59828
 C351 C 0.22183 0.55141 0.61522
 C352 C 0.21425 0.53409 0.62601
 C353 C 0.19681 0.52734 0.61484
 H354 H 0.23484 0.56148 0.61988
 H355 H 0.18623 0.51465 0.61918
 N356 N 0.20871 0.59971 0.55595
 N357 N 0.19349 0.60040 0.54165
 C358 C 0.19612 0.61776 0.52960
 C359 C 0.21380 0.62832 0.53666
 C360 C 0.22141 0.61662 0.55335
 H361 H 0.18570 0.62269 0.51699
 H362 H 0.23484 0.62048 0.56319
 H363 H 0.19479 0.56207 0.55364
 H364 H 0.17836 0.57858 0.57171
 N365 N 0.59804 0.69495 0.04003
 N366 N 0.59907 0.70822 0.05604
 C367 C 0.61630 0.72051 0.05383
 C368 C 0.62645 0.71457 0.03549
 C369 C 0.61459 0.69830 0.02711
 H370 H 0.62145 0.73241 0.06502
 H371 H 0.61814 0.68914 0.01310
 Cu372 Cu 0.57876 0.70742 0.07906
 Cu373 Cu 0.57624 0.67337 0.03802
 Cu374 Cu 0.53675 0.67476 0.07574
 N375 N 0.55505 0.70959 0.09844
 N376 N 0.53861 0.69694 0.09704
 C377 C 0.52548 0.70087 0.11331
 C378 C 0.53416 0.71685 0.12536
 C379 C 0.55291 0.72201 0.11563
 H380 H 0.51127 0.69204 0.11675
 H381 H 0.56454 0.73323 0.12122
 N382 N 0.53770 0.65346 0.05298
 N383 N 0.55284 0.65288 0.03865
 C384 C 0.55019 0.63558 0.02645
 C385 C 0.53257 0.62495 0.03343
 C386 C 0.52502 0.63655 0.05026
 H387 H 0.56085 0.63050 0.01410
 H388 H 0.51195 0.63236 0.06040
 H389 H 0.55426 0.69164 0.05396
 H390 H 0.56864 0.67124 0.06983
 N391 N 0.69395 0.20827 0.65029
 N392 N 0.70847 0.19337 0.65029
 C393 C 0.72059 0.19551 0.63294
 C394 C 0.71327 0.21263 0.62164
 C395 C 0.69636 0.22037 0.63294
 H396 H 0.73353 0.18523 0.62861
 H397 H 0.68631 0.23351 0.62864
 Cu398 Cu 0.70955 0.17240 0.67276
 Cu399 Cu 0.67253 0.21036 0.67225
 Cu400 Cu 0.67433 0.17302 0.71240
 N401 N 0.71034 0.15134 0.69516
 N402 N 0.69662 0.15186 0.71076
 C403 C 0.69993 0.13514 0.72352
 C404 C 0.71660 0.12370 0.71547
 C405 C 0.72283 0.13426 0.69747
 H406 H 0.69036 0.13110 0.73707
 H407 H 0.73499 0.12937 0.68651
 N408 N 0.65295 0.19566 0.71119
 N409 N 0.65225 0.20983 0.69587
 C410 C 0.63508 0.22211 0.69858
 C411 C 0.62465 0.21535 0.71642
 C412 C 0.63622 0.19856 0.72403
 H413 H 0.62996 0.23441 0.68788
 H414 H 0.63219 0.18863 0.73733
 H415 H 0.69005 0.19630 0.69588
 H416 H 0.67229 0.17865 0.68028
 N417 N 1.09925 0.05544 0.20970
 N418 N 1.10030 0.04219 0.19367
 C419 C 1.11763 0.03004 0.19581
 C420 C 1.12784 0.03604 0.21412
 C421 C 1.11590 0.05221 0.22255
 H422 H 1.12278 0.01815 0.18464
 H423 H 1.11944 0.06134 0.23660
 Cu424 Cu 1.07973 0.04262 0.17080
 Cu425 Cu 1.07726 0.07680 0.21183
 Cu426 Cu 1.03781 0.07540 0.17400
 N427 N 1.05616 0.04079 0.15115
 N428 N 1.03975 0.05345 0.15255
 C429 C 1.02660 0.04960 0.13625
 C430 C 1.03523 0.03364 0.12418
 C431 C 1.05398 0.02843 0.13392
 H432 H 1.01236 0.05841 0.13285
 H433 H 1.06553 0.01713 0.12835
 N434 N 1.03858 0.09650 0.19690
 N435 N 1.05368 0.09711 0.21130
 C436 C 1.05087 0.11431 0.22360
 C437 C 1.03318 0.12486 0.21658
 C438 C 1.02577 0.11330 0.19965
 H439 H 1.06148 0.11942 0.23600
 H440 H 1.01271 0.11746 0.18946
 H441 H 1.05531 0.05850 0.19590
 H442 H 1.06976 0.07883 0.18004
 N443 N 0.05641 0.15142 1.04009
 N444 N 0.04248 0.15101 1.05548
 C445 C 0.02978 0.13412 1.05284
 C446 C 0.03611 0.12357 1.03486
 C447 C 0.05307 0.13480 1.02715
 H448 H 0.01733 0.12941 1.06353
 H449 H 0.06272 0.13073 1.01365
 Cu450 Cu 0.04273 0.17175 1.07823
 Cu451 Cu 0.07875 0.17247 1.03891
 Cu452 Cu 0.07841 0.21140 1.07743
 N453 N 0.04200 0.19482 1.09860
 N454 N 0.05585 0.21031 1.09820
 C455 C 0.05227 0.22337 1.11466
 C456 C 0.03525 0.21565 1.12577
 C457 C 0.02911 0.19753 1.11531
 H458 H 0.06185 0.23694 1.11876
 H459 H 0.01672 0.18676 1.12001
 N460 N 0.09998 0.20990 1.05511
 N461 N 0.10007 0.19507 1.04037
 C462 C 0.11729 0.19759 1.02815
 C463 C 0.12840 0.21479 1.03559
 C464 C 0.11715 0.22224 1.05267
 H465 H 0.12186 0.18727 1.01529
 H466 H 0.12157 0.23519 1.06295
 H467 H 0.07982 0.17932 1.07086
 H468 H 0.06137 0.19547 1.05436
 N469 N 0.15166 0.71043 0.69469
 N470 N 0.15166 0.69542 0.70908
 C471 C 0.13474 0.69791 0.72171
 C472 C 0.12376 0.71540 0.71487
 C473 C 0.13475 0.72297 0.69769
 H474 H 0.13027 0.68740 0.73442
 H475 H 0.13033 0.73609 0.68766
 Cu476 Cu 0.17297 0.67334 0.70909
 Cu477 Cu 0.17259 0.71161 0.67220
 Cu478 Cu 0.21133 0.67289 0.67243
 N479 N 0.19504 0.65201 0.70927
 N480 N 0.21012 0.65202 0.69499
 C481 C 0.22269 0.63515 0.69812
 C482 C 0.21508 0.62415 0.71528
 C483 C 0.19751 0.63510 0.72198
 H484 H 0.23587 0.63074 0.68818
 H485 H 0.18696 0.63061 0.73462
 N486 N 0.20991 0.69533 0.65092
 N487 N 0.19514 0.71008 0.65082
 C488 C 0.19772 0.72235 0.63361
 C489 C 0.21491 0.71495 0.62254
 C490 C 0.22227 0.69784 0.63378
 H491 H 0.18748 0.73524 0.62906
 H492 H 0.23521 0.68759 0.62937
 H493 H 0.17935 0.67966 0.67160
 H494 H 0.19611 0.69663 0.68905
 N495 N 1.19318 0.15002 0.20829
 N496 N 1.20755 0.14994 0.19329
 C497 C 1.21976 0.13262 0.19548
 C498 C 1.21263 0.12148 0.21277
 C499 C 1.19576 0.13281 0.22053
 H500 H 1.23255 0.12817 0.18507
 H501 H 1.18582 0.12858 0.23376
 Cu502 Cu 1.20840 0.17206 0.17195
 Cu503 Cu 1.17156 0.17182 0.21019
 Cu504 Cu 1.17219 0.21095 0.17185
 N505 N 1.20833 0.19394 0.15033
 N506 N 1.19417 0.20915 0.15047
 C507 C 1.19715 0.22166 0.13352
 C508 C 1.21407 0.21385 0.12231
 C509 C 1.22081 0.19625 0.13324
 H510 H 1.18739 0.23505 0.12933
 H511 H 1.23343 0.18566 0.12874
 N512 N 1.15123 0.21007 0.19479
 N513 N 1.15101 0.19519 0.20943
 C514 C 1.13416 0.19821 0.22206
 C515 C 1.12346 0.21579 0.21502
 C516 C 1.13452 0.22292 0.19771
 H517 H 1.12948 0.18790 0.23484
 H518 H 1.13017 0.23593 0.18753
 H519 H 1.17105 0.17887 0.17827
 H520 H 1.18856 0.19538 0.19540
 N521 N 0.65260 1.03945 0.55428
 N522 N 0.65118 1.05587 0.54162
 C523 C 0.63391 1.05372 0.52936
 C524 C 0.62415 1.03498 0.53464
 C525 C 0.63626 1.02632 0.55054
 H526 H 0.62837 1.06527 0.51805
 H527 H 0.63291 1.01206 0.55934
 Cu528 Cu 0.67092 1.07939 0.54322
 Cu529 Cu 0.67421 1.03749 0.57605
 Cu530 Cu 0.71211 1.07686 0.57705
 N531 N 0.69388 1.09978 0.54246
 N532 N 0.70995 1.09874 0.55561
 C533 C 0.72286 1.11531 0.55219
 C534 C 0.71442 1.12718 0.53601
 C535 C 0.69606 1.11704 0.53019
 H536 H 0.73693 1.11884 0.56122
 H537 H 0.68485 1.12221 0.51836
 N538 N 0.71162 1.05338 0.59744
 N539 N 0.69724 1.03826 0.59697
 C540 C 0.70013 1.02547 0.61374
 C541 C 0.71713 1.03290 0.62513
 C542 C 0.72403 1.05061 0.61453
 H543 H 0.68999 1.01239 0.61800
 H544 H 0.73647 1.06123 0.61951
 H545 H 0.68040 1.06951 0.57936
 H546 H 0.69603 1.05489 0.55893
 N547 N 0.55368 0.53866 0.15291
 N548 N 0.53993 0.55425 0.15237
 C549 C 0.52752 0.55190 0.13520
 C550 C 0.53384 0.53390 0.12463
 C551 C 0.55048 0.52589 0.13614
 H552 H 0.51534 0.56282 0.13028
 H553 H 0.56008 0.51232 0.13213
 Cu554 Cu 0.54041 0.57679 0.17340
 Cu555 Cu 0.57587 0.53714 0.17416
 Cu556 Cu 0.57648 0.57634 0.21252
 N557 N 0.54059 0.59828 0.19551
 N558 N 0.55459 0.59786 0.21089
 C559 C 0.55175 0.61483 0.22347
 C560 C 0.53508 0.62636 0.21556
 C561 C 0.52837 0.61559 0.19781
 H562 H 0.56154 0.61891 0.23689
 H563 H 0.51599 0.62039 0.18705
 N564 N 0.59734 0.55327 0.21152
 N565 N 0.59710 0.53831 0.19691
 C566 C 0.61419 0.52588 0.19946
 C567 C 0.62555 0.53339 0.21647
 C568 C 0.61459 0.55074 0.22374
 H569 H 0.61862 0.51297 0.18914
 H570 H 0.61941 0.56129 0.23633
 H571 H 0.55922 0.55315 0.19724
 H572 H 0.57751 0.56921 0.18056
 N573 N 0.65333 0.69651 0.21035
 N574 N 0.65155 0.70898 0.19382
 C575 C 0.63434 0.72126 0.19619
 C576 C 0.62501 0.71619 0.21518
 C577 C 0.63730 0.70041 0.22377
 H578 H 0.62850 0.73237 0.18459
 H579 H 0.63422 0.69172 0.23816
 Cu580 Cu 0.67057 0.70689 0.16981
 Cu581 Cu 0.67484 0.67467 0.21204
 Cu582 Cu 0.71187 0.67319 0.17192
 N583 N 0.69312 0.70754 0.14903
 N584 N 0.70923 0.69444 0.14989
 C585 C 0.72179 0.69776 0.13305
 C586 C 0.71307 0.71380 0.12120
 C587 C 0.69491 0.71966 0.13163
 H588 H 0.73582 0.68875 0.12935
 H589 H 0.68360 0.73143 0.12660
 N590 N 0.71181 0.65304 0.19563
 N591 N 0.69772 0.65367 0.21099
 C592 C 0.70075 0.63697 0.22385
 C593 C 0.71754 0.62546 0.21620
 C594 C 0.72418 0.63592 0.19831
 H595 H 0.69082 0.63282 0.23710
 H596 H 0.73637 0.63080 0.18750
 H597 H 0.69630 0.69160 0.19390
 H598 H 0.68037 0.67092 0.17990
 N599 N 0.15214 0.05564 1.03969
 N600 N 0.15137 0.04174 1.05513
 C601 C 0.13441 0.02919 1.05233
 C602 C 0.12420 0.03556 1.03419
 C603 C 0.13570 0.05240 1.02655
 H604 H 0.12936 0.01689 1.06305
 H605 H 0.13189 0.06209 1.01300
 Cu606 Cu 0.17182 0.04213 1.07807
 Cu607 Cu 0.17322 0.07805 1.03887
 Cu608 Cu 0.21026 0.07883 1.07926
 N609 N 0.19323 0.04229 1.10012
 N610 N 0.20828 0.05664 1.10044
 C611 C 0.22056 0.05351 1.11753
 C612 C 0.21278 0.03629 1.12833
 C613 C 0.19544 0.02954 1.11702
 H614 H 0.23381 0.06331 1.12207
 H615 H 0.18501 0.01664 1.12110
 N616 N 0.20971 0.09991 1.05638
 N617 N 0.19572 0.09949 1.04087
 C618 C 0.19877 0.11646 1.02837
 C619 C 0.21543 0.12792 1.03643
 C620 C 0.22200 0.11716 1.05416
 H621 H 0.18913 0.12064 1.01489
 H622 H 0.23431 0.12198 1.06501
 H623 H 0.19605 0.06158 1.05541
 H624 H 0.17860 0.07949 1.07111
 N625 N 0.59980 0.20906 0.55460
 N626 N 0.60045 0.19308 0.54126
 C627 C 0.61765 0.19501 0.52892
 C628 C 0.62817 0.21314 0.53490
 C629 C 0.61657 0.22169 0.55123
 H630 H 0.62252 0.18378 0.51696
 H631 H 0.62043 0.23561 0.56041
 Cu632 Cu 0.57974 0.17044 0.54203
 Cu633 Cu 0.57812 0.21147 0.57621
 Cu634 Cu 0.53770 0.17473 0.57439
 N635 N 0.55553 0.15173 0.53962
 N636 N 0.53906 0.15355 0.55212
 C637 C 0.52554 0.13759 0.54813
 C638 C 0.53401 0.12531 0.53225
 C639 C 0.55303 0.13457 0.52722
 H640 H 0.51126 0.13443 0.55693
 H641 H 0.56463 0.12861 0.51618
 N642 N 0.53916 0.19729 0.59582
 N643 N 0.55470 0.21120 0.59665
 C644 C 0.55234 0.22326 0.61407
 C645 C 0.53447 0.21662 0.62452
 C646 C 0.52650 0.20015 0.61268
 H647 H 0.56332 0.23526 0.61936
 H648 H 0.51313 0.19031 0.61668
 H649 H 0.56979 0.17989 0.57815
 H650 H 0.55596 0.19620 0.55771
 N651 N 0.09715 0.55410 0.71116
 N652 N 0.09873 0.54126 0.69484
 C653 C 0.11582 0.52886 0.69737
 C654 C 0.12532 0.53423 0.71623
 C655 C 0.11323 0.55033 0.72459
 H656 H 0.12148 0.51746 0.68593
 H657 H 0.11648 0.55929 0.73882
 Cu658 Cu 0.07966 0.54308 0.67083
 Cu659 Cu 0.07568 0.57609 0.71258
 Cu660 Cu 0.03839 0.57668 0.67255
 N661 N 0.05691 0.54180 0.65023
 N662 N 0.04083 0.55494 0.65094
 C663 C 0.02814 0.55130 0.63424
 C664 C 0.03673 0.53499 0.62262
 C665 C 0.05497 0.52931 0.63305
 H666 H 0.01414 0.56030 0.63042
 H667 H 0.06626 0.51746 0.62814
 N668 N 0.03859 0.59737 0.69583
 N669 N 0.05276 0.59711 0.71117
 C670 C 0.04966 0.61405 0.72376
 C671 C 0.03276 0.62530 0.71594
 C672 C 0.02613 0.61446 0.69825
 H673 H 0.05957 0.61848 0.73698
 H674 H 0.01383 0.61926 0.68740
 H675 H 0.05418 0.55884 0.69488
 H676 H 0.06999 0.57925 0.68050
 N677 N 0.65187 0.53928 0.05435
 N678 N 0.65011 0.55560 0.04159
 C679 C 0.63283 0.55309 0.02943
 C680 C 0.62340 0.53424 0.03488
 C681 C 0.63572 0.52586 0.05077
 H682 H 0.62702 0.56449 0.01811
 H683 H 0.63262 0.51162 0.05969
 Cu684 Cu 0.66937 0.57950 0.04301
 Cu685 Cu 0.67362 0.53784 0.07602
 Cu686 Cu 0.71071 0.57801 0.07675
 N687 N 0.69179 0.60049 0.04220
 N688 N 0.70793 0.59983 0.05528
 C689 C 0.72046 0.61666 0.05174
 C690 C 0.71169 0.62831 0.03556
 C691 C 0.69353 0.61775 0.02986
 H692 H 0.73454 0.62049 0.06065
 H693 H 0.68220 0.62259 0.01801
 N694 N 0.71083 0.55452 0.09718
 N695 N 0.69674 0.53912 0.09682
 C696 C 0.69994 0.52644 0.11363
 C697 C 0.71683 0.53423 0.12494
 C698 C 0.72337 0.55202 0.11424
 H699 H 0.69007 0.51319 0.11797
 H700 H 0.73563 0.56289 0.11912
 H701 H 0.67920 0.57001 0.07916
 H702 H 0.69508 0.55562 0.05876
 N703 N 0.05526 0.71041 0.59769
 N704 N 0.04055 0.69572 0.59746
 C705 C 0.02774 0.69856 0.61423
 C706 C 0.03479 0.71598 0.62533
 C707 C 0.05229 0.72310 0.61456
 H708 H 0.01484 0.68826 0.61857
 H709 H 0.06260 0.73594 0.61918
 Cu710 Cu 0.04040 0.67328 0.57633
 Cu711 Cu 0.07822 0.71082 0.57729
 Cu712 Cu 0.07980 0.67011 0.54063
 N713 N 0.04202 0.65023 0.55592
 N714 N 0.05746 0.64904 0.54208
 C715 C 0.05511 0.63132 0.53045
 C716 C 0.03727 0.62100 0.53739
 C717 C 0.02933 0.63326 0.55358
 H718 H 0.06579 0.62611 0.51817
 H719 H 0.01564 0.62982 0.56317
 N720 N 0.10097 0.69295 0.54158
 N721 N 0.10025 0.70858 0.55545
 C722 C 0.11714 0.72121 0.55256
 C723 C 0.12888 0.71312 0.53611
 C724 C 0.11834 0.69523 0.52951
 H725 H 0.12099 0.73492 0.56207
 H726 H 0.12329 0.68442 0.51720
 H727 H 0.06269 0.69478 0.55332
 H728 H 0.07835 0.67841 0.57225
 N729 N 0.55377 1.03925 0.65155
 N730 N 0.53892 1.05378 0.65208
 C731 C 0.52653 1.05162 0.63485
 C732 C 0.53404 1.03480 0.62315
 C733 C 0.55134 1.02733 0.63403
 H734 H 0.51349 1.06187 0.63076
 H735 H 0.56178 1.01469 0.62919
 Cu736 Cu 0.53791 1.07499 0.67448
 Cu737 Cu 0.57601 1.03775 0.67274
 Cu738 Cu 0.57575 1.07595 0.71204
 N739 N 0.53865 1.09680 0.69631
 N740 N 0.55339 1.09703 0.71098
 C741 C 0.55088 1.11430 0.72324
 C742 C 0.53362 1.12532 0.71587
 C743 C 0.52624 1.11397 0.69874
 H744 H 0.56130 1.11894 0.73600
 H745 H 0.51334 1.11831 0.68841
 N746 N 0.59711 1.05335 0.71053
 N747 N 0.59722 1.03879 0.69553
 C748 C 0.61442 1.02648 0.69797
 C749 C 0.62548 1.03365 0.71533
 C750 C 0.61423 1.05068 0.72292
 H751 H 0.61904 1.01379 0.68746
 H752 H 0.61868 1.06085 0.73595
 H753 H 0.55940 1.05206 0.69684
 H754 H 0.57573 1.06976 0.67979
 N755 N 0.45804 0.35118 0.94240
 N756 N 0.44266 0.35155 0.95634
 C757 C 0.44505 0.36857 0.96898
 C758 C 0.46286 0.37926 0.96255
 C759 C 0.47074 0.36799 0.94563
 H760 H 0.43438 0.37314 0.98152
 H761 H 0.48428 0.37202 0.93605
 Cu762 Cu 0.42020 0.33057 0.95620
 Cu763 Cu 0.45972 0.32967 0.92042
 Cu764 Cu 0.42279 0.28939 0.92225
 N765 N 0.40103 0.30662 0.95809
 N766 N 0.40216 0.29050 0.94496
 C767 C 0.38618 0.27705 0.94897
 C768 C 0.37460 0.28519 0.96553
 C769 C 0.38430 0.30394 0.97093
 H770 H 0.38260 0.26301 0.93986
 H771 H 0.37897 0.31522 0.98265
 N772 N 0.44482 0.29100 0.90039
 N773 N 0.45883 0.30645 0.89960
 C774 C 0.47085 0.30390 0.88221
 C775 C 0.46406 0.28601 0.87175
 C776 C 0.44756 0.27821 0.88354
 H777 H 0.48314 0.31461 0.87711
 H778 H 0.43783 0.26468 0.87969
 H779 H 0.42811 0.32159 0.91942
 H780 H 0.44505 0.30696 0.93873
 N781 N 0.95974 0.44508 0.34936
 N782 N 0.94427 0.45895 0.35004
 C783 C 0.94699 0.47162 0.36700
 C784 C 0.96512 0.46533 0.37726
 C785 C 0.97282 0.44843 0.36584
 H786 H 0.93619 0.48388 0.37201
 H787 H 0.98632 0.43872 0.36976
 Cu788 Cu 0.92134 0.45844 0.32955
 Cu789 Cu 0.96056 0.42237 0.32853
 Cu790 Cu 0.92071 0.42154 0.29105
 N791 N 0.89987 0.45835 0.30750
 N792 N 0.89979 0.44396 0.29245
 C793 C 0.88296 0.44710 0.27982
 C794 C 0.87207 0.46438 0.28736
 C795 C 0.88306 0.47117 0.30493
 H796 H 0.87861 0.43720 0.26655
 H797 H 0.87879 0.48407 0.31533
 N798 N 0.94326 0.40018 0.29210
 N799 N 0.95861 0.40060 0.30625
 C800 C 0.97101 0.38350 0.30342
 C801 C 0.96304 0.37196 0.28672
 C802 C 0.94548 0.38281 0.27992
 H803 H 0.98441 0.37936 0.31317
 H804 H 0.93478 0.37803 0.26746
 H805 H 0.94433 0.43897 0.30559
 H806 H 0.92849 0.42107 0.32292
 N807 N 0.29051 0.94666 0.40254
 N808 N 0.30685 0.95939 0.40100
 C809 C 0.30439 0.97180 0.38387
 C810 C 0.28552 0.96655 0.37434
 C811 C 0.27711 0.95052 0.38644
 H812 H 0.31584 0.98313 0.37821
 H813 H 0.26288 0.94165 0.38317
 Cu814 Cu 0.33075 0.95754 0.42027
 Cu815 Cu 0.28900 0.92453 0.42382
 Cu816 Cu 0.32897 0.92320 0.46107
 N817 N 0.35160 0.95804 0.44291
 N818 N 0.35081 0.94472 0.45885
 C819 C 0.36757 0.94802 0.47156
 C820 C 0.37930 0.96430 0.46311
 C821 C 0.36888 0.97031 0.44494
 H822 H 0.37130 0.93885 0.48550
 H823 H 0.37383 0.98228 0.43379
 N824 N 0.30553 0.90272 0.46070
 N825 N 0.29023 0.90327 0.44651
 C826 C 0.27750 0.88644 0.44942
 C827 C 0.28516 0.87493 0.46623
 C828 C 0.30293 0.88554 0.47301
 H829 H 0.26424 0.88228 0.43946
 H830 H 0.31366 0.88054 0.48533
 H831 H 0.30671 0.94147 0.44556
 H832 H 0.32101 0.92126 0.42935
 O833 O 0.19321 0.52682 0.74926
 O834 O 0.20135 0.52529 0.78623
 O835 O 0.24807 0.55655 0.72333
 O836 O 0.28279 0.55081 0.72266
 O837 O 0.22203 0.50088 0.69397
 O838 O 0.22407 0.46392 0.70194
 O839 O 0.30505 0.49906 0.77717
 O840 O 0.29879 0.53587 0.77331
 O841 O 0.25204 0.47336 0.80551
 O842 O 0.21376 0.47455 0.79829
 O843 O 0.27735 0.44520 0.75154
 O844 O 0.27539 0.45240 0.71349
 O845 O 0.30503 0.47359 0.75167
 O846 O 0.29685 0.47602 0.71272
 O847 O 0.25233 0.44505 0.77732
 O848 O 0.21351 0.45234 0.77542
 O849 O 0.27743 0.49885 0.80525
 O850 O 0.27429 0.53706 0.79815
 O851 O 0.19296 0.50111 0.72395
 O852 O 0.20113 0.46378 0.72605
 O853 O 0.24717 0.52666 0.69368
 O854 O 0.28519 0.52334 0.70154
 O855 O 0.22264 0.55648 0.74880
 O856 O 0.22491 0.54875 0.78612
 Zr857 Zr 0.22402 0.52584 0.76174
 O858 O 0.24285 0.50730 0.78193
 Zr859 Zr 0.26065 0.52580 0.72414
 O860 O 0.28131 0.50763 0.74292
 Zr861 Zr 0.22369 0.48839 0.72477
 O862 O 0.24284 0.46833 0.74317
 Zr863 Zr 0.27486 0.51262 0.77511
 O864 O 0.25607 0.53303 0.75641
 Zr865 Zr 0.23807 0.47506 0.77536
 O866 O 0.21711 0.49357 0.75699
 Zr867 Zr 0.27484 0.47538 0.73787
 O868 O 0.25566 0.49357 0.71734
 O869 O 0.22881 0.52046 0.72970
 O870 O 0.27005 0.48041 0.77006
 C871 C 0.18416 0.51597 0.73465
 C872 C 0.23329 0.56540 0.73403
 C873 C 0.23246 0.51573 0.68493
 C874 C 0.31372 0.48388 0.76687
 C875 C 0.26725 0.48370 0.81406
 C876 C 0.26742 0.43647 0.76687
 H877 H 0.23941 0.51070 0.79678
 H878 H 0.23955 0.45344 0.73975
 H879 H 0.21965 0.52944 0.72077
 H880 H 0.29612 0.51126 0.73961
 H881 H 0.29240 0.54845 0.76653
 H882 H 0.29513 0.54662 0.73127
 H883 H 0.21571 0.44278 0.76322
 H884 H 0.19426 0.46483 0.74007
 H885 H 0.26196 0.53482 0.80744
 H886 H 0.23882 0.55581 0.78511
 H887 H 0.26245 0.44375 0.71476
 H888 H 0.23809 0.46451 0.69506
 H889 H 0.19468 0.51113 0.78574
 H890 H 0.21509 0.48750 0.80699
 H891 H 0.28267 0.51018 0.69341
 H892 H 0.30667 0.48793 0.71526
 O893 O 0.30661 -0.00086 0.27642
 O894 O 0.29852 0.03615 0.27467
 O895 O 0.25176 -0.02635 0.30673
 O896 O 0.21688 -0.02661 0.30101
 O897 O 0.27736 -0.05642 0.25135
 O898 O 0.27513 -0.04892 0.21432
 O899 O 0.19474 0.02695 0.24867
 O900 O 0.20113 0.02362 0.28544
 O901 O 0.24784 0.05489 0.22246
 O902 O 0.28622 0.04759 0.22399
 O903 O 0.22235 0.00091 0.19502
 O904 O 0.22457 -0.03767 0.20309
 O905 O 0.19460 0.00124 0.22340
 O906 O 0.20214 -0.03723 0.22569
 O907 O 0.24766 0.02645 0.19461
 O908 O 0.28635 0.02452 0.20198
 O909 O 0.22243 0.05495 0.24788
 O910 O 0.22576 0.04837 0.28631
 O911 O 0.30660 -0.02650 0.25103
 O912 O 0.29828 -0.02506 0.21381
 O913 O 0.25233 -0.05636 0.27719
 O914 O 0.21452 -0.04855 0.27392
 O915 O 0.27727 -0.00093 0.30630
 O916 O 0.27513 0.03624 0.29820
 Zr917 Zr 0.27582 0.01165 0.27551
 O918 O 0.25704 0.03172 0.25678
 Zr919 Zr 0.23902 -0.02583 0.27599
 O920 O 0.21843 -0.00722 0.25754
 Zr921 Zr 0.27581 -0.02578 0.23849
 O922 O 0.25678 -0.00748 0.21822
 Zr923 Zr 0.22500 0.02503 0.26215
 O924 O 0.24377 0.00652 0.28278
 Zr925 Zr 0.26178 0.02476 0.22465
 O926 O 0.28264 0.00647 0.24331
 Zr927 Zr 0.22477 -0.01259 0.22533
 O928 O 0.24381 -0.03298 0.24382
 O929 O 0.27087 -0.02044 0.27051
 O930 O 0.22976 0.01963 0.23001
 C931 C 0.31554 -0.01559 0.26567
 C932 C 0.26662 -0.01557 0.31543
 C933 C 0.26695 -0.06528 0.26632
 C934 C 0.18598 0.01653 0.23360
 C935 C 0.23260 0.06355 0.23262
 C936 C 0.23244 0.01607 0.18615
 H937 H 0.26053 0.04660 0.26000
 H938 H 0.26006 -0.01108 0.20337
 H939 H 0.28004 -0.02930 0.27956
 H940 H 0.20361 -0.01044 0.26119
 H941 H 0.20749 0.01684 0.29804
 H942 H 0.20436 -0.01849 0.29642
 H943 H 0.28421 0.01212 0.19266
 H944 H 0.30525 -0.01106 0.21459
 H945 H 0.23790 0.05784 0.28370
 H946 H 0.26110 0.03556 0.30503
 H947 H 0.23678 -0.03571 0.19356
 H948 H 0.26108 -0.05572 0.21505
 H949 H 0.30508 0.03557 0.26048
 H950 H 0.28464 0.05674 0.23658
 H951 H 0.21667 -0.05645 0.26056
 H952 H 0.19317 -0.03525 0.23833
 O953 O 0.50234 0.69439 0.22332
 O954 O 0.46536 0.70217 0.22529
 O955 O 0.52735 0.74969 0.19347
 O956 O 0.52779 0.78455 0.19947
 O957 O 0.55749 0.72383 0.24883
 O958 O 0.54984 0.72576 0.28586
 O959 O 0.47398 0.80622 0.25156
 O960 O 0.47731 0.79993 0.21487
 O961 O 0.44617 0.75277 0.27757
 O962 O 0.45371 0.71434 0.27597
 O963 O 0.49988 0.77853 0.30530
 O964 O 0.53816 0.77667 0.29754
 O965 O 0.49957 0.80641 0.27687
 O966 O 0.53816 0.79874 0.27460
 O967 O 0.47448 0.75309 0.30558
 O968 O 0.47659 0.71434 0.29811
 O969 O 0.44606 0.77830 0.25223
 O970 O 0.45283 0.77513 0.21384
 O971 O 0.52784 0.69436 0.24877
 O972 O 0.52608 0.70244 0.28611
 O973 O 0.55733 0.74897 0.22305
 O974 O 0.54938 0.78685 0.22665
 O975 O 0.50213 0.72397 0.19375
 O976 O 0.46504 0.72581 0.20192
 Zr977 Zr 0.48960 0.72513 0.22455
 O978 O 0.46946 0.74378 0.24334
 Zr979 Zr 0.52684 0.76220 0.22433
 O980 O 0.50812 0.78267 0.24281
 Zr981 Zr 0.52686 0.72513 0.26161
 O982 O 0.50847 0.74407 0.28194
 Zr983 Zr 0.47600 0.77593 0.23808
 O984 O 0.49461 0.75730 0.21743
 Zr985 Zr 0.47633 0.73898 0.27548
 O986 O 0.49471 0.71820 0.25673
 Zr987 Zr 0.51343 0.77621 0.27500
 O988 O 0.53391 0.75726 0.25648
 O989 O 0.52159 0.73023 0.22960
 O990 O 0.48131 0.77112 0.27024
 C991 C 0.51710 0.68545 0.23398
 C992 C 0.51665 0.73483 0.18466
 C993 C 0.56629 0.73434 0.23389
 C994 C 0.48435 0.81502 0.26662
 C995 C 0.43745 0.76799 0.26740
 C996 C 0.48477 0.76835 0.31413
 H997 H 0.45463 0.74022 0.24006
 H998 H 0.51203 0.74076 0.29678
 H999 H 0.53049 0.72116 0.22048
 H1000 H 0.51130 0.79754 0.23921
 H1001 H 0.48427 0.79367 0.20232
 H1002 H 0.51949 0.79699 0.20402
 H1003 H 0.48893 0.71652 0.30745
 H1004 H 0.51210 0.69549 0.28527
 H1005 H 0.44346 0.76288 0.21632
 H1006 H 0.46577 0.73982 0.19499
 H1007 H 0.53660 0.76405 0.30661
 H1008 H 0.55655 0.73989 0.28526
 H1009 H 0.46602 0.69552 0.23943
 H1010 H 0.44465 0.71587 0.26332
 H1011 H 0.55742 0.78450 0.23988
 H1012 H 0.53597 0.80803 0.26223
 O1013 O 0.00073 0.69394 0.72255
 O1014 O -0.03618 0.70226 0.72389
 O1015 O 0.02674 0.74922 0.69316
 O1016 O 0.02672 0.78419 0.69933
 O1017 O 0.05609 0.72288 0.74829
 O1018 O 0.04827 0.72454 0.78539
 O1019 O -0.02675 0.80579 0.75174
 O1020 O -0.02309 0.79995 0.71480
 O1021 O -0.05514 0.75234 0.77674
 O1022 O -0.04791 0.71382 0.77468
 O1023 O -0.00141 0.77728 0.80506
 O1024 O 0.03715 0.77490 0.79729
 O1025 O -0.00125 0.80548 0.77713
 O1026 O 0.03705 0.79775 0.77508
 O1027 O -0.02705 0.75208 0.80489
 O1028 O -0.02523 0.71340 0.79700
 O1029 O -0.05490 0.77811 0.75164
 O1030 O -0.04803 0.77556 0.71344
 O1031 O 0.02615 0.69359 0.74809
 O1032 O 0.02444 0.70136 0.78529
 O1033 O 0.05627 0.74834 0.72283
 O1034 O 0.04861 0.78611 0.72660
 O1035 O 0.00136 0.72367 0.69304
 O1036 O -0.03586 0.72604 0.70074
 Zr1037 Zr -0.01160 0.72487 0.72369
 O1038 O -0.03171 0.74353 0.74253
 Zr1039 Zr 0.02586 0.76168 0.72404
 O1040 O 0.00726 0.78210 0.74270
 Zr1041 Zr 0.02542 0.72428 0.76101
 O1042 O 0.00702 0.74306 0.78142
 Zr1043 Zr -0.02488 0.77569 0.73771
 O1044 O -0.00635 0.75709 0.71692
 Zr1045 Zr -0.02510 0.73830 0.77465
 O1046 O -0.00674 0.71760 0.75583
 Zr1047 Zr 0.01233 0.77521 0.77485
 O1048 O 0.03276 0.75638 0.75618
 O1049 O 0.02037 0.72968 0.72902
 O1050 O -0.01980 0.77044 0.76982
 C1051 C 0.01532 0.68481 0.73331
 C1052 C 0.01610 0.73441 0.68418
 C1053 C 0.06505 0.73352 0.73352
 C1054 C -0.01640 0.81431 0.76699
 C1055 C -0.06366 0.76774 0.76667
 C1056 C -0.01668 0.76715 0.81366
 H1057 H -0.04655 0.74013 0.73912
 H1058 H 0.01046 0.73953 0.79625
 H1059 H 0.02926 0.72056 0.71994
 H1060 H 0.01058 0.79699 0.73932
 H1061 H -0.01635 0.79369 0.70213
 H1062 H 0.01889 0.79682 0.70418
 H1063 H -0.01298 0.71540 0.80650
 H1064 H 0.01036 0.69463 0.78447
 H1065 H -0.05712 0.76300 0.71534
 H1066 H -0.03488 0.74012 0.69397
 H1067 H 0.03498 0.76260 0.80668
 H1068 H 0.05514 0.73859 0.78489
 H1069 H -0.03587 0.69554 0.73801
 H1070 H -0.05703 0.71572 0.76212
 H1071 H 0.05634 0.78379 0.74001
 H1072 H 0.03530 0.80689 0.76252
 O1073 O 0.00213 0.05619 0.02680
 O1074 O -0.03490 0.04849 0.02530
 O1075 O 0.02744 0.00075 0.05616
 O1076 O 0.02796 -0.03406 0.05000
 O1077 O 0.05676 0.02696 0.00054
 O1078 O 0.04863 0.02504 -0.03641
 O1079 O -0.02696 -0.05551 -0.00146
 O1080 O -0.02305 -0.04939 0.03519
 O1081 O -0.05480 -0.00207 -0.02712
 O1082 O -0.04739 0.03642 -0.02525
 O1083 O -0.00163 -0.02765 -0.05536
 O1084 O 0.03665 -0.02601 -0.04812
 O1085 O -0.00181 -0.05561 -0.02715
 O1086 O 0.03700 -0.04805 -0.02508
 O1087 O -0.02696 -0.00212 -0.05530
 O1088 O -0.02473 0.03660 -0.04763
 O1089 O -0.05462 -0.02768 -0.00186
 O1090 O -0.04735 -0.02435 0.03670
 O1091 O 0.02725 0.05625 0.00102
 O1092 O 0.02473 0.04827 -0.03637
 O1093 O 0.05697 0.00176 0.02625
 O1094 O 0.04895 -0.03629 0.02251
 O1095 O 0.00226 0.02649 0.05627
 O1096 O -0.03498 0.02477 0.04854
 Zr1097 Zr -0.01072 0.02547 0.02563
 O1098 O -0.03117 0.00690 0.00703
 Zr1099 Zr 0.02650 -0.01162 0.02526
 O1100 O 0.00745 -0.03204 0.00700
 Zr1101 Zr 0.02598 0.02555 -0.01191
 O1102 O 0.00731 0.00668 -0.03204
 Zr1103 Zr -0.02459 -0.02526 0.01212
 O1104 O -0.00562 -0.00673 0.03259
 Zr1105 Zr -0.02471 0.01182 -0.02515
 O1106 O -0.00606 0.03253 -0.00658
 Zr1107 Zr 0.01231 -0.02549 -0.02523
 O1108 O 0.03311 -0.00659 -0.00696
 O1109 O 0.02117 0.02036 0.02015
 O1110 O -0.01970 -0.02032 -0.02005
 C1111 C 0.01679 0.06510 0.01599
 C1112 C 0.01690 0.01560 0.06513
 C1113 C 0.06574 0.01649 0.01540
 C1114 C -0.01694 -0.06423 -0.01677
 C1115 C -0.06333 -0.01741 -0.01701
 C1116 C -0.01683 -0.01739 -0.06398
 H1117 H -0.04595 0.01045 0.01048
 H1118 H 0.01066 0.01004 -0.04691
 H1119 H 0.03019 0.02939 0.02921
 H1120 H 0.01063 -0.04693 0.01051
 H1121 H -0.01591 -0.04322 0.04770
 H1122 H 0.01928 -0.04633 0.04568
 H1123 H -0.01252 0.03447 -0.05713
 H1124 H 0.01091 0.05546 -0.03509
 H1125 H -0.05709 -0.01244 0.03400
 H1126 H -0.03422 0.01072 0.05538
 H1127 H 0.03515 -0.01321 -0.05696
 H1128 H 0.05535 0.01091 -0.03594
 H1129 H -0.03456 0.05507 0.01111
 H1130 H -0.05639 0.03469 -0.01261
 H1131 H 0.05688 -0.03379 0.00927
 H1132 H 0.03476 -0.05756 -0.01288
 O1133 O -0.05660 0.49782 0.47402
 O1134 O -0.04891 0.53481 0.47585
 O1135 O -0.00163 0.47263 0.44376
 O1136 O 0.03320 0.47242 0.44945
 O1137 O -0.02708 0.44257 0.49906
 O1138 O -0.02484 0.45017 0.53613
 O1139 O 0.05499 0.52661 0.50157
 O1140 O 0.04852 0.52323 0.46489
 O1141 O 0.00185 0.55418 0.52812
 O1142 O -0.03651 0.54663 0.52666
 O1143 O 0.02767 0.50037 0.55541
 O1144 O 0.02623 0.46229 0.54770
 O1145 O 0.05536 0.50104 0.52687
 O1146 O 0.04775 0.46209 0.52421
 O1147 O 0.00219 0.52573 0.55593
 O1148 O -0.03650 0.52357 0.54856
 O1149 O 0.02713 0.55437 0.50257
 O1150 O 0.02356 0.54762 0.46407
 O1151 O -0.05646 0.47224 0.49938
 O1152 O -0.04812 0.47396 0.53671
 O1153 O -0.00204 0.44275 0.47323
 O1154 O 0.03586 0.45095 0.47666
 O1155 O -0.02734 0.49784 0.44422
 O1156 O -0.02542 0.53515 0.45239
 Zr1157 Zr -0.02595 0.51058 0.47501
 O1158 O -0.00735 0.53086 0.49375
 Zr1159 Zr 0.01110 0.47336 0.47449
 O1160 O 0.03157 0.49225 0.49285
 Zr1161 Zr -0.02569 0.47325 0.51200
 O1162 O -0.00673 0.49175 0.53222
 Zr1163 Zr 0.02471 0.52441 0.48826
 O1164 O 0.00611 0.50563 0.46767
 Zr1165 Zr -0.01194 0.52395 0.52588
 O1166 O -0.03271 0.50545 0.50721
 Zr1167 Zr 0.02531 0.48690 0.52506
 O1168 O 0.00635 0.46626 0.50666
 O1169 O -0.02078 0.47853 0.47998
 O1170 O 0.02009 0.51906 0.52042
 C1171 C -0.06543 0.48301 0.48470
 C1172 C -0.01658 0.48324 0.43508
 C1173 C -0.01664 0.43376 0.48404
 C1174 C 0.06385 0.51632 0.51661
 C1175 C 0.01699 0.56294 0.51791
 C1176 C 0.01745 0.51542 0.56437
 H1177 H -0.01098 0.54570 0.49055
 H1178 H -0.00995 0.48816 0.54707
 H1179 H -0.02988 0.46959 0.47092
 H1180 H 0.04640 0.48913 0.48915
 H1181 H 0.04221 0.51632 0.45232
 H1182 H 0.04549 0.48103 0.45381
 H1183 H -0.03423 0.51124 0.55790
 H1184 H -0.05522 0.48788 0.53588
 H1185 H 0.01147 0.55711 0.46685
 H1186 H -0.01151 0.53436 0.44533
 H1187 H 0.01335 0.46340 0.55645
 H1188 H -0.01075 0.44347 0.53537
 H1189 H -0.05530 0.53436 0.49012
 H1190 H -0.03502 0.55576 0.51407
 H1191 H 0.03352 0.44278 0.48979
 H1192 H 0.05731 0.46469 0.51214
 O1193 O 0.55651 0.02723 0.50125
 O1194 O 0.54899 0.02514 0.46408
 O1195 O 0.50099 0.05726 0.52566
 O1196 O 0.46627 0.05119 0.52594
 O1197 O 0.52686 0.00217 0.55626
 O1198 O 0.52486 -0.03502 0.54868
 O1199 O 0.44515 -0.00132 0.47184
 O1200 O 0.45128 0.03553 0.47530
 O1201 O 0.49885 -0.02711 0.44446
 O1202 O 0.53721 -0.02542 0.45251
 O1203 O 0.47283 -0.05476 0.49812
 O1204 O 0.47443 -0.04682 0.53652
 O1205 O 0.44490 -0.02648 0.49755
 O1206 O 0.45222 -0.02397 0.53622
 O1207 O 0.49836 -0.05510 0.47284
 O1208 O 0.53686 -0.04770 0.47519
 O1209 O 0.47327 -0.00183 0.44417
 O1210 O 0.47617 0.03650 0.45090
 O1211 O 0.55639 0.00188 0.52683
 O1212 O 0.54840 -0.03540 0.52510
 O1213 O 0.50172 0.02793 0.55585
 O1214 O 0.46391 0.02414 0.54756
 O1215 O 0.52686 0.05685 0.50065
 O1216 O 0.52548 0.04852 0.46356
 Zr1217 Zr 0.52592 0.02597 0.48820
 O1218 O 0.50746 0.00713 0.46788
 Zr1219 Zr 0.48866 0.02637 0.52519
 O1220 O 0.46841 0.00776 0.50629
 Zr1221 Zr 0.52571 -0.01089 0.52561
 O1222 O 0.50704 -0.03131 0.50700
 Zr1223 Zr 0.47532 0.01236 0.47417
 O1224 O 0.49376 0.03311 0.49293
 Zr1225 Zr 0.51233 -0.02497 0.47483
 O1226 O 0.53287 -0.00617 0.49345
 Zr1227 Zr 0.47493 -0.02441 0.51169
 O1228 O 0.49360 -0.00575 0.53238
 O1229 O 0.52061 0.02110 0.52021
 O1230 O 0.48021 -0.01977 0.47954
 C1231 C 0.56534 0.01659 0.51612
 C1232 C 0.51588 0.06601 0.51504
 C1233 C 0.51631 0.01718 0.56497
 C1234 C 0.43636 -0.01637 0.48218
 C1235 C 0.48369 -0.01697 0.43562
 C1236 C 0.48310 -0.06363 0.48305
 H1237 H 0.51113 0.01037 0.45306
 H1238 H 0.51037 -0.04614 0.51060
 H1239 H 0.52958 0.03029 0.52916
 H1240 H 0.45353 0.01134 0.50933
 H1241 H 0.45749 0.04821 0.48212
 H1242 H 0.45403 0.04666 0.51735
 H1243 H 0.53483 -0.05679 0.48773
 H1244 H 0.55545 -0.03464 0.51116
 H1245 H 0.48852 0.03406 0.44168
 H1246 H 0.51142 0.05531 0.46399
 H1247 H 0.48702 -0.05593 0.53499
 H1248 H 0.51075 -0.03426 0.55535
 H1249 H 0.55578 0.01107 0.46490
 H1250 H 0.53560 -0.01290 0.44329
 H1251 H 0.46622 0.01093 0.55563
 H1252 H 0.44301 -0.01154 0.53399
 O1253 O 0.55576 0.52652 0.00194
 O1254 O 0.54825 0.52507 -0.03517
 O1255 O 0.50027 0.55640 0.02682
 O1256 O 0.46559 0.55035 0.02721
 O1257 O 0.52608 0.50076 0.05667
 O1258 O 0.52406 0.46373 0.04860
 O1259 O 0.44433 0.49877 -0.02775
 O1260 O 0.45065 0.53550 -0.02398
 O1261 O 0.49786 0.47286 -0.05538
 O1262 O 0.53637 0.47463 -0.04739
 O1263 O 0.47185 0.44481 -0.00224
 O1264 O 0.47326 0.45200 0.03606
 O1265 O 0.44402 0.47324 -0.00241
 O1266 O 0.45157 0.47536 0.03649
 O1267 O 0.49748 0.44469 -0.02743
 O1268 O 0.53598 0.45200 -0.02499
 O1269 O 0.47235 0.49820 -0.05541
 O1270 O 0.47559 0.53660 -0.04830
 O1271 O 0.55562 0.50084 0.02720
 O1272 O 0.54752 0.46360 0.02495
 O1273 O 0.50100 0.52658 0.05658
 O1274 O 0.46310 0.52295 0.04819
 O1275 O 0.52616 0.55627 0.00183
 O1276 O 0.52474 0.54839 -0.03544
 Zr1277 Zr 0.52516 0.52555 -0.01107
 O1278 O 0.50670 0.50697 -0.03165
 Zr1279 Zr 0.48792 0.52551 0.02593
 O1280 O 0.46763 0.50723 0.00676
 Zr1281 Zr 0.52491 0.48816 0.02584
 O1282 O 0.50616 0.46804 0.00700
 Zr1283 Zr 0.47457 0.51221 -0.02531
 O1284 O 0.49302 0.53268 -0.00624
 Zr1285 Zr 0.51148 0.47478 -0.02507
 O1286 O 0.53206 0.49332 -0.00624
 Zr1287 Zr 0.47406 0.47497 0.01176
 O1288 O 0.49281 0.49327 0.03270
 O1289 O 0.51986 0.52024 0.02088
 O1290 O 0.47938 0.48002 -0.02031
 C1291 C 0.56459 0.51567 0.01665
 C1292 C 0.51516 0.56528 0.01631
 C1293 C 0.51558 0.51568 0.06555
 C1294 C 0.43549 0.48362 -0.01760
 C1295 C 0.48266 0.48304 -0.06407
 C1296 C 0.48216 0.43609 -0.01738
 H1297 H 0.51037 0.51036 -0.04643
 H1298 H 0.50945 0.45315 0.01041
 H1299 H 0.52886 0.52930 0.02995
 H1300 H 0.45277 0.51083 0.00985
 H1301 H 0.45689 0.54803 -0.01693
 H1302 H 0.45347 0.54613 0.01828
 H1303 H 0.53387 0.44270 -0.01262
 H1304 H 0.55453 0.46452 0.01101
 H1305 H 0.48784 0.53410 -0.05764
 H1306 H 0.51073 0.55530 -0.03482
 H1307 H 0.48608 0.44318 0.03473
 H1308 H 0.50990 0.46431 0.05517
 H1309 H 0.55477 0.51085 -0.03478
 H1310 H 0.53452 0.48703 -0.05673
 H1311 H 0.46556 0.50979 0.05629
 H1312 H 0.44205 0.48753 0.03413
 O1313 O 0.77691 0.30604 0.49889
 O1314 O 0.77503 0.29815 0.53597
 O1315 O 0.80694 0.25086 0.47364
 O1316 O 0.80113 0.21598 0.47317
 O1317 O 0.75175 0.27677 0.44360
 O1318 O 0.71475 0.27460 0.45111
 O1319 O 0.74894 0.19408 0.52688
 O1320 O 0.78573 0.20049 0.52354
 O1321 O 0.72282 0.24737 0.55484
 O1322 O 0.72434 0.28576 0.54765
 O1323 O 0.69536 0.22194 0.50071
 O1324 O 0.70331 0.22371 0.46249
 O1325 O 0.72371 0.19397 0.50121
 O1326 O 0.72626 0.20166 0.46255
 O1327 O 0.69498 0.24731 0.52629
 O1328 O 0.70257 0.28610 0.52446
 O1329 O 0.74822 0.22191 0.55493
 O1330 O 0.78641 0.22503 0.54843
 O1331 O 0.75155 0.30601 0.47330
 O1332 O 0.71435 0.29789 0.47503
 O1333 O 0.77751 0.25163 0.44365
 O1334 O 0.77409 0.21361 0.45149
 O1335 O 0.80657 0.27655 0.49899
 O1336 O 0.79844 0.27451 0.53618
 Zr1337 Zr 0.77584 0.27526 0.51158
 O1338 O 0.75710 0.25652 0.53165
 Zr1339 Zr 0.77622 0.23825 0.47414
 O1340 O 0.75780 0.21771 0.49277
 Zr1341 Zr 0.73889 0.27525 0.47421
 O1342 O 0.71865 0.25627 0.49250
 Zr1343 Zr 0.76242 0.22439 0.52499
 O1344 O 0.78303 0.24309 0.50646
 Zr1345 Zr 0.72504 0.26131 0.52472
 O1346 O 0.74371 0.28216 0.50644
 Zr1347 Zr 0.72568 0.22416 0.48738
 O1348 O 0.74414 0.24317 0.46697
 O1349 O 0.77084 0.27019 0.47952
 O1350 O 0.73033 0.22919 0.51960
 C1351 C 0.76626 0.31493 0.48407
 C1352 C 0.81566 0.26577 0.48436
 C1353 C 0.76671 0.26634 0.43477
 C1354 C 0.73390 0.18533 0.51646
 C1355 C 0.73299 0.23214 0.56354
 C1356 C 0.68648 0.23215 0.51582
 H1357 H 0.76032 0.26006 0.54653
 H1358 H 0.70384 0.25961 0.48889
 H1359 H 0.77992 0.27931 0.47066
 H1360 H 0.76144 0.20285 0.48955
 H1361 H 0.79833 0.20692 0.51688
 H1362 H 0.79669 0.20359 0.48159
 H1363 H 0.69320 0.28392 0.51213
 H1364 H 0.71525 0.30496 0.48897
 H1365 H 0.78406 0.23746 0.55764
 H1366 H 0.80532 0.26048 0.53542
 H1367 H 0.69440 0.23648 0.46391
 H1368 H 0.71561 0.26060 0.44413
 H1369 H 0.76085 0.30468 0.53543
 H1370 H 0.73698 0.28424 0.55670
 H1371 H 0.76093 0.21596 0.44338
 H1372 H 0.73859 0.19233 0.46481
 O1373 O 0.75016 0.77734 -0.05729
 O1374 O 0.71312 0.77619 -0.04939
 O1375 O 0.77607 0.80628 -0.00184
 O1376 O 0.77607 0.80015 0.03305
 O1377 O 0.80491 0.75070 -0.02818
 O1378 O 0.79641 0.71367 -0.02671
 O1379 O 0.72156 0.74865 0.05427
 O1380 O 0.72558 0.78546 0.04841
 O1381 O 0.69303 0.72377 0.00052
 O1382 O 0.70061 0.72578 -0.03803
 O1383 O 0.74627 0.69486 0.02575
 O1384 O 0.78464 0.70182 0.02386
 O1385 O 0.74671 0.72293 0.05401
 O1386 O 0.78523 0.72455 0.04624
 O1387 O 0.72079 0.69519 0.00036
 O1388 O 0.72271 0.70293 -0.03816
 O1389 O 0.69349 0.74886 0.02638
 O1390 O 0.70095 0.78708 0.02378
 O1391 O 0.77523 0.75149 -0.05759
 O1392 O 0.77268 0.71422 -0.05010
 O1393 O 0.80528 0.77622 -0.00268
 O1394 O 0.79727 0.77255 0.03512
 O1395 O 0.75078 0.80669 -0.02750
 O1396 O 0.71349 0.79940 -0.02548
 Zr1397 Zr 0.73748 0.77619 -0.02653
 O1398 O 0.71699 0.75764 -0.00806
 Zr1399 Zr 0.77477 0.77542 0.01049
 O1400 O 0.75575 0.75709 0.03073
 Zr1401 Zr 0.77400 0.73843 -0.02703
 O1402 O 0.75520 0.71831 -0.00839
 Zr1403 Zr 0.72371 0.76246 0.02414
 O1404 O 0.74268 0.78295 0.00572
 Zr1405 Zr 0.72318 0.72543 -0.01331
 O1406 O 0.74194 0.74397 -0.03386
 Zr1407 Zr 0.76042 0.72488 0.02380
 O1408 O 0.78124 0.74319 0.00512
 O1409 O 0.76937 0.77048 -0.02152
 O1410 O 0.72837 0.73027 0.01887
 C1411 C 0.76476 0.76650 -0.06632
 C1412 C 0.76560 0.81536 -0.01666
 C1413 C 0.81402 0.76538 -0.01746
 C1414 C 0.73172 0.73334 0.06283
 C1415 C 0.68457 0.73394 0.01591
 C1416 C 0.73099 0.68635 0.01549
 H1417 H 0.70223 0.76125 -0.01156
 H1418 H 0.75843 0.70343 -0.01192
 H1419 H 0.77846 0.77946 -0.03051
 H1420 H 0.75905 0.76048 0.04564
 H1421 H 0.73261 0.79800 0.04224
 H1422 H 0.76778 0.79560 0.04548
 H1423 H 0.73513 0.69363 -0.03643
 H1424 H 0.75870 0.71539 -0.05701
 H1425 H 0.69172 0.78508 0.01132
 H1426 H 0.71448 0.80622 -0.01141
 H1427 H 0.78285 0.69292 0.01110
 H1428 H 0.80329 0.71413 -0.01265
 H1429 H 0.71347 0.76212 -0.05628
 H1430 H 0.69161 0.73841 -0.03610
 H1431 H 0.80502 0.75918 0.03266
 H1432 H 0.78336 0.73690 0.05568
 O1433 O 1.05589 0.22326 0.24796
 O1434 O 1.04837 0.22477 0.28506
 O1435 O 1.00057 0.19332 0.22289
 O1436 O 0.96584 0.19931 0.22233
 O1437 O 1.02636 0.24911 0.19325
 O1438 O 1.02411 0.28611 0.20132
 O1439 O 0.94451 0.25095 0.27735
 O1440 O 0.95065 0.21425 0.27343
 O1441 O 0.99806 0.27657 0.30530
 O1442 O 1.03631 0.27528 0.29741
 O1443 O 0.97199 0.30489 0.25187
 O1444 O 0.97364 0.29739 0.21333
 O1445 O 0.94419 0.27641 0.25194
 O1446 O 0.95146 0.27456 0.21336
 O1447 O 0.99744 0.30497 0.27729
 O1448 O 1.03604 0.29770 0.27487
 O1449 O 0.97262 0.25114 0.30520
 O1450 O 0.97561 0.21285 0.29773
 O1451 O 1.05579 0.24907 0.22284
 O1452 O 1.04759 0.28630 0.22496
 O1453 O 1.00134 0.22321 0.19314
 O1454 O 0.96343 0.22674 0.20129
 O1455 O 1.02641 0.19351 0.24799
 O1456 O 1.02485 0.20132 0.28521
 Zr1457 Zr 1.02530 0.22421 0.26089
 O1458 O 1.00679 0.24271 0.28141
 Zr1459 Zr 0.98815 0.22419 0.22372
 O1460 O 0.96781 0.24243 0.24284
 Zr1461 Zr 1.02505 0.26166 0.22406
 O1462 O 1.00627 0.28172 0.24285
 Zr1463 Zr 0.97469 0.23742 0.27493
 O1464 O 0.99318 0.21701 0.25592
 Zr1465 Zr 1.01153 0.27494 0.27494
 O1466 O 1.03216 0.25647 0.25616
 Zr1467 Zr 0.97421 0.27470 0.23791
 O1468 O 0.99298 0.25645 0.21703
 O1469 O 1.02005 0.22955 0.22893
 O1470 O 0.97945 0.26965 0.27002
 C1471 C 1.06473 0.23418 0.23334
 C1472 C 1.01546 0.18447 0.23347
 C1473 C 1.01594 0.23416 0.18429
 C1474 C 0.93570 0.26609 0.26715
 C1475 C 0.98299 0.26621 0.31400
 C1476 C 0.98222 0.31360 0.26709
 H1477 H 1.01045 0.23927 0.29619
 H1478 H 1.00953 0.29662 0.23946
 H1479 H 1.02909 0.22052 0.21990
 H1480 H 0.95296 0.23881 0.23968
 H1481 H 0.95680 0.20178 0.26622
 H1482 H 0.95358 0.20359 0.23099
 H1483 H 1.03376 0.30719 0.26266
 H1484 H 1.05454 0.28547 0.23895
 H1485 H 0.98798 0.21516 0.30699
 H1486 H 1.01091 0.19428 0.28442
 H1487 H 0.98608 0.30668 0.21512
 H1488 H 1.00999 0.28542 0.19464
 H1489 H 1.05509 0.23890 0.28448
 H1490 H 1.03496 0.26244 0.30622
 H1491 H 0.96582 0.23998 0.19331
 H1492 H 0.94243 0.26195 0.21525
 O1493 O 0.69349 1.02640 0.74817
 O1494 O 0.70090 1.02503 0.78525
 O1495 O 0.74935 1.05559 0.72337
 O1496 O 0.78409 1.04933 0.72386
 O1497 O 0.72332 1.00035 0.69337
 O1498 O 0.72466 0.96332 0.70130
 O1499 O 0.80439 0.99723 0.77827
 O1500 O 0.79876 1.03390 0.77478
 O1501 O 0.75028 0.97204 0.80553
 O1502 O 0.71203 0.97412 0.79728
 O1503 O 0.77633 0.94375 0.75211
 O1504 O 0.77510 0.95125 0.71376
 O1505 O 0.80455 0.97178 0.75275
 O1506 O 0.79746 0.97392 0.71400
 O1507 O 0.75067 0.94384 0.77726
 O1508 O 0.71219 0.95166 0.77465
 O1509 O 0.77608 0.99710 0.80582
 O1510 O 0.77348 1.03559 0.79868
 O1511 O 0.69348 1.00082 0.72272
 O1512 O 0.70109 0.96350 0.72471
 O1513 O 0.74884 1.02576 0.69367
 O1514 O 0.78645 1.02195 0.70234
 O1515 O 0.72339 1.05579 0.74829
 O1516 O 0.72484 1.04800 0.78563
 Zr1517 Zr 0.72406 1.02511 0.76123
 O1518 O 0.74214 1.00624 0.78182
 Zr1519 Zr 0.76152 1.02466 0.72447
 O1520 O 0.78144 1.00610 0.74365
 Zr1521 Zr 0.72404 0.98776 0.72415
 O1522 O 0.74242 0.96737 0.74298
 Zr1523 Zr 0.77437 1.01108 0.77571
 O1524 O 0.75633 1.03183 0.75664
 Zr1525 Zr 0.73700 0.97410 0.77507
 O1526 O 0.71679 0.99296 0.75623
 Zr1527 Zr 0.77463 0.97395 0.73841
 O1528 O 0.75625 0.99251 0.71750
 O1529 O 0.72948 1.01975 0.72928
 O1530 O 0.76920 0.97895 0.77051
 C1531 C 0.68460 1.01568 0.73336
 C1532 C 0.73445 1.06462 0.73376
 C1533 C 0.73419 1.01504 0.68457
 C1534 C 0.81312 0.98202 0.76806
 C1535 C 0.76548 0.98212 0.81441
 C1536 C 0.76589 0.93510 0.76714
 H1537 H 0.73842 1.00967 0.79659
 H1538 H 0.73896 0.95254 0.73944
 H1539 H 0.72062 1.02886 0.72017
 H1540 H 0.79637 1.00950 0.74068
 H1541 H 0.79290 1.04648 0.76756
 H1542 H 0.79635 1.04466 0.73234
 H1543 H 0.71429 0.94232 0.76227
 H1544 H 0.69402 0.96444 0.73863
 H1545 H 0.76128 1.03312 0.80810
 H1546 H 0.73890 1.05478 0.78496
 H1547 H 0.76232 0.94238 0.71515
 H1548 H 0.73882 0.96378 0.69472
 H1549 H 0.69426 1.01086 0.78489
 H1550 H 0.71379 0.98663 0.80652
 H1551 H 0.78416 1.00861 0.69444
 H1552 H 0.80694 0.98614 0.71632
 O1553 O 0.69401 0.52715 0.24825
 O1554 O 0.70160 0.52569 0.28525
 O1555 O 0.74955 0.55717 0.22342
 O1556 O 0.78422 0.55122 0.22320
 O1557 O 0.72382 0.50169 0.19318
 O1558 O 0.72572 0.46465 0.20097
 O1559 O 0.80538 0.49929 0.27777
 O1560 O 0.79926 0.53599 0.27421
 O1561 O 0.75177 0.47347 0.30516
 O1562 O 0.71341 0.47502 0.29705
 O1563 O 0.77780 0.44547 0.25146
 O1564 O 0.77643 0.45319 0.21317
 O1565 O 0.80574 0.47391 0.25218
 O1566 O 0.79852 0.47610 0.21346
 O1567 O 0.75230 0.44527 0.27678
 O1568 O 0.71383 0.45258 0.27446
 O1569 O 0.77720 0.49891 0.30547
 O1570 O 0.77421 0.53724 0.29837
 O1571 O 0.69416 0.50158 0.22279
 O1572 O 0.70233 0.46438 0.22451
 O1573 O 0.74896 0.52745 0.19345
 O1574 O 0.78675 0.52384 0.20189
 O1575 O 0.72362 0.55697 0.24837
 O1576 O 0.72513 0.54903 0.28562
 Zr1577 Zr 0.72466 0.52623 0.26112
 O1578 O 0.74307 0.50755 0.28157
 Zr1579 Zr 0.76192 0.52632 0.22415
 O1580 O 0.78218 0.50799 0.24322
 Zr1581 Zr 0.72492 0.48899 0.22392
 O1582 O 0.74364 0.46880 0.24262
 Zr1583 Zr 0.77521 0.51281 0.27533
 O1584 O 0.75681 0.53336 0.25638
 Zr1585 Zr 0.73832 0.47537 0.27476
 O1586 O 0.71777 0.49400 0.25606
 Zr1587 Zr 0.77575 0.47577 0.23794
 O1588 O 0.75702 0.49413 0.21713
 O1589 O 0.72995 0.52104 0.22912
 O1590 O 0.77043 0.48062 0.27008
 C1591 C 0.68515 0.51629 0.23353
 C1592 C 0.73463 0.56601 0.23393
 C1593 C 0.73442 0.51657 0.18437
 C1594 C 0.81422 0.48418 0.26751
 C1595 C 0.76682 0.48377 0.31405
 C1596 C 0.76749 0.43666 0.26651
 H1597 H 0.73937 0.51090 0.29637
 H1598 H 0.74035 0.45394 0.23906
 H1599 H 0.72094 0.53009 0.22011
 H1600 H 0.79704 0.51160 0.24019
 H1601 H 0.79314 0.54850 0.26708
 H1602 H 0.79647 0.54685 0.23185
 H1603 H 0.71594 0.44334 0.26201
 H1604 H 0.69536 0.46514 0.23850
 H1605 H 0.76186 0.53484 0.30759
 H1606 H 0.73910 0.55601 0.28495
 H1607 H 0.76373 0.44419 0.21454
 H1608 H 0.73983 0.46531 0.19431
 H1609 H 0.69508 0.51147 0.28479
 H1610 H 0.71507 0.48751 0.30634
 H1611 H 0.78438 0.51064 0.19378
 H1612 H 0.80773 0.48854 0.21569
 O1613 O 0.55635 0.22222 0.74871
 O1614 O 0.54816 0.22378 0.78564
 O1615 O 0.50136 0.19251 0.72260
 O1616 O 0.46659 0.19839 0.72233
 O1617 O 0.52738 0.24802 0.69325
 O1618 O 0.52574 0.28492 0.70117
 O1619 O 0.44472 0.25091 0.77649
 O1620 O 0.45060 0.21408 0.77286
 O1621 O 0.49811 0.27635 0.80475
 O1622 O 0.53635 0.27480 0.79741
 O1623 O 0.47271 0.30429 0.75077
 O1624 O 0.47493 0.29642 0.71229
 O1625 O 0.44481 0.27615 0.75086
 O1626 O 0.45250 0.27375 0.71232
 O1627 O 0.49782 0.30443 0.77653
 O1628 O 0.53658 0.29691 0.77452
 O1629 O 0.47250 0.25108 0.80459
 O1630 O 0.47533 0.21268 0.79747
 O1631 O 0.55663 0.24772 0.72328
 O1632 O 0.54869 0.28505 0.72522
 O1633 O 0.50210 0.22237 0.69294
 O1634 O 0.46428 0.22570 0.70085
 O1635 O 0.52678 0.19259 0.74812
 O1636 O 0.52445 0.20051 0.78544
 Zr1637 Zr 0.52552 0.22333 0.76107
 O1638 O 0.50689 0.24217 0.78123
 Zr1639 Zr 0.48883 0.22334 0.72349
 O1640 O 0.46834 0.24182 0.74223
 Zr1641 Zr 0.52597 0.26058 0.72404
 O1642 O 0.50703 0.28090 0.74239
 Zr1643 Zr 0.47481 0.23706 0.77446
 O1644 O 0.49340 0.21635 0.75579
 Zr1645 Zr 0.51189 0.27433 0.77457
 O1646 O 0.53264 0.25553 0.75625
 Zr1647 Zr 0.47498 0.27401 0.73712
 O1648 O 0.49395 0.25551 0.71665
 O1649 O 0.52071 0.22855 0.72901
 O1650 O 0.47984 0.26919 0.76932
 C1651 C 0.56541 0.23296 0.73409
 C1652 C 0.51610 0.18362 0.73333
 C1653 C 0.51678 0.23327 0.68416
 C1654 C 0.43610 0.26606 0.76612
 C1655 C 0.48286 0.26619 0.81336
 C1656 C 0.48272 0.31303 0.76611
 H1657 H 0.51035 0.23884 0.79609
 H1658 H 0.51042 0.29575 0.73892
 H1659 H 0.52981 0.21950 0.72007
 H1660 H 0.45350 0.23828 0.73895
 H1661 H 0.45675 0.20148 0.76588
 H1662 H 0.45414 0.20290 0.73061
 H1663 H 0.53439 0.30640 0.76229
 H1664 H 0.55563 0.28405 0.73922
 H1665 H 0.48757 0.21503 0.80690
 H1666 H 0.51047 0.19359 0.78442
 H1667 H 0.48736 0.30570 0.71420
 H1668 H 0.51167 0.28449 0.69436
 H1669 H 0.55484 0.23793 0.78527
 H1670 H 0.53483 0.26204 0.80630
 H1671 H 0.46658 0.23903 0.69299
 H1672 H 0.44322 0.26134 0.71436
 O1673 O 0.30705 0.75164 0.47309
 O1674 O 0.29938 0.71459 0.47482
 O1675 O 0.25159 0.77663 0.44339
 O1676 O 0.21686 0.77699 0.44950
 O1677 O 0.27766 0.80679 0.49877
 O1678 O 0.27590 0.79902 0.53580
 O1679 O 0.19566 0.72269 0.50153
 O1680 O 0.20166 0.72622 0.46483
 O1681 O 0.24916 0.69505 0.52731
 O1682 O 0.28753 0.70267 0.52548
 O1683 O 0.22367 0.74881 0.55523
 O1684 O 0.22517 0.78710 0.54753
 O1685 O 0.19559 0.74821 0.52698
 O1686 O 0.20301 0.78700 0.52461
 O1687 O 0.24914 0.72344 0.55539
 O1688 O 0.28766 0.72555 0.54770
 O1689 O 0.22359 0.69493 0.50200
 O1690 O 0.22660 0.70183 0.46355
 O1691 O 0.30713 0.77714 0.49862
 O1692 O 0.29924 0.77532 0.53593
 O1693 O 0.25242 0.80666 0.47308
 O1694 O 0.21462 0.79848 0.47677
 O1695 O 0.27733 0.75144 0.44355
 O1696 O 0.27564 0.71423 0.45159
 Zr1697 Zr 0.27638 0.73880 0.47430
 O1698 O 0.25793 0.71848 0.49305
 Zr1699 Zr 0.23930 0.77602 0.47429
 O1700 O 0.21902 0.75710 0.49275
 Zr1701 Zr 0.27648 0.77605 0.51147
 O1702 O 0.25776 0.75749 0.53176
 Zr1703 Zr 0.22580 0.72495 0.48791
 O1704 O 0.24422 0.74374 0.46728
 Zr1705 Zr 0.26290 0.72530 0.52519
 O1706 O 0.28347 0.74386 0.50648
 Zr1707 Zr 0.22563 0.76235 0.52493
 O1708 O 0.24438 0.78302 0.50645
 O1709 O 0.27124 0.77084 0.47946
 O1710 O 0.23079 0.73019 0.52007
 C1711 C 0.31599 0.76642 0.48381
 C1712 C 0.26641 0.76596 0.43453
 C1713 C 0.26707 0.81565 0.48391
 C1714 C 0.18696 0.73295 0.51672
 C1715 C 0.23391 0.68632 0.51716
 C1716 C 0.23398 0.73374 0.56402
 H1717 H 0.26150 0.70365 0.48971
 H1718 H 0.26116 0.76104 0.54660
 H1719 H 0.28023 0.77981 0.47035
 H1720 H 0.20415 0.76022 0.48921
 H1721 H 0.20780 0.73320 0.45224
 H1722 H 0.20457 0.76847 0.45398
 H1723 H 0.28563 0.73799 0.55699
 H1724 H 0.30628 0.76138 0.53500
 H1725 H 0.23873 0.69234 0.46610
 H1726 H 0.26162 0.71495 0.44470
 H1727 H 0.23791 0.78566 0.55647
 H1728 H 0.26179 0.80572 0.53522
 H1729 H 0.30606 0.71515 0.48897
 H1730 H 0.28588 0.69359 0.51284
 H1731 H 0.21697 0.80645 0.49006
 H1732 H 0.19354 0.78463 0.51240
 O1733 O 0.27756 0.30703 0.99916
 O1734 O 0.27605 0.29923 1.03621
 O1735 O 0.30723 0.25158 0.97375
 O1736 O 0.30130 0.21672 0.97362
 O1737 O 0.25194 0.27743 0.94401
 O1738 O 0.21498 0.27561 0.95188
 O1739 O 0.24961 0.19523 1.02780
 O1740 O 0.28625 0.20150 1.02422
 O1741 O 0.22380 0.24877 1.05571
 O1742 O 0.22562 0.28732 1.04816
 O1743 O 0.19579 0.22324 1.00201
 O1744 O 0.20330 0.22464 0.96382
 O1745 O 0.22409 0.19514 1.00242
 O1746 O 0.22631 0.20268 0.96363
 O1747 O 0.19566 0.24880 1.02741
 O1748 O 0.20327 0.28731 1.02555
 O1749 O 0.24912 0.22323 1.05572
 O1750 O 0.28736 0.22635 1.04880
 O1751 O 0.25205 0.30700 0.97372
 O1752 O 0.21485 0.29896 0.97564
 O1753 O 0.27755 0.25214 0.94403
 O1754 O 0.27401 0.21429 0.95217
 O1755 O 0.30715 0.27741 0.99896
 O1756 O 0.29939 0.27559 1.03624
 Zr1757 Zr 0.27654 0.27627 1.01187
 O1758 O 0.25791 0.25771 1.03221
 Zr1759 Zr 0.27648 0.23907 0.97463
 O1760 O 0.25814 0.21871 0.99353
 Zr1761 Zr 0.23931 0.27624 0.97477
 O1762 O 0.21916 0.25744 0.99336
 Zr1763 Zr 0.26307 0.22552 1.02567
 O1764 O 0.28358 0.24405 1.00686
 Zr1765 Zr 0.22581 0.26260 1.02552
 O1766 O 0.24440 0.28326 1.00694
 Zr1767 Zr 0.22600 0.22526 0.98840
 O1768 O 0.24435 0.24408 0.96772
 O1769 O 0.27127 0.27109 0.97986
 O1770 O 0.23095 0.23042 1.02055
 C1771 C 0.26680 0.31595 0.98445
 C1772 C 0.31607 0.26652 0.98431
 C1773 C 0.26675 0.26681 0.93511
 C1774 C 0.23445 0.18647 1.01755
 C1775 C 0.23398 0.23353 1.06438
 C1776 C 0.18702 0.23360 1.01708
 H1777 H 0.26127 0.26131 1.04704
 H1778 H 0.20433 0.26081 0.98987
 H1779 H 0.28028 0.28014 0.97087
 H1780 H 0.26169 0.20381 0.99034
 H1781 H 0.29880 0.20779 1.01734
 H1782 H 0.29685 0.20436 0.98208
 H1783 H 0.19416 0.28546 1.01297
 H1784 H 0.21583 0.30606 0.98957
 H1785 H 0.28497 0.23867 1.05814
 H1786 H 0.30627 0.26156 1.03544
 H1787 H 0.19454 0.23752 0.96514
 H1788 H 0.21557 0.26149 0.94513
 H1789 H 0.26190 0.30585 1.03576
 H1790 H 0.23811 0.28554 1.05737
 H1791 H 0.26072 0.21657 0.94425
 H1792 H 0.23842 0.19309 0.96601
 C1793 C 0.28008 0.39860 0.77895
 C1794 C 0.27409 0.41575 0.77320
 C1795 C 0.27829 -0.10386 0.27737
 C1796 C 0.27284 -0.08640 0.27204
 C1797 C 0.77825 0.89723 0.77933
 C1798 C 0.77224 0.91435 0.77356
 C1799 C 0.47211 0.85304 0.27859
 C1800 C 0.47799 0.83585 0.27288
 C1801 C -0.02856 0.85208 0.77980
 C1802 C -0.02271 0.83502 0.77369
 C1803 C -0.02971 -0.10207 -0.02905
 C1804 C -0.02362 -0.08495 -0.02321
 C1805 C -0.02805 0.39533 0.47239
 C1806 C -0.02254 0.41269 0.47806
 C1807 C 0.47076 -0.10160 0.47074
 C1808 C 0.47661 -0.08443 0.47666
 C1809 C 0.46981 0.39828 -0.03016
 C1810 C 0.47565 0.41539 -0.02405
 C1811 C 0.77749 0.35337 0.47252
 C1812 C 0.77206 0.33602 0.47820
 C1813 C 0.77759 0.85365 -0.02790
 C1814 C 0.77177 0.83638 -0.02242
 C1815 C 0.77825 0.27827 0.39658
 C1816 C 0.77265 0.27247 0.41381
 C1817 C 0.77654 0.77812 -0.10453
 C1818 C 0.77074 0.77248 -0.08731
 C1819 C 0.27973 0.47165 0.85198
 C1820 C 0.27380 0.47742 0.83482
 C1821 C 0.27818 -0.02645 0.35402
 C1822 C 0.27256 -0.02113 0.33660
 C1823 C -0.02952 -0.02995 -0.10171
 C1824 C -0.02345 -0.02395 -0.08466
 C1825 C -0.02807 0.47204 0.39653
 C1826 C -0.02250 0.47751 0.41394
 C1827 C 0.47167 -0.02917 0.39758
 C1828 C 0.47747 -0.02342 0.41480
 C1829 C 0.47027 0.47046 -0.10189
 C1830 C 0.47620 0.47647 -0.08479
 C1831 C 0.47245 0.78087 0.35202
 C1832 C 0.47840 0.77496 0.33489
 C1833 C -0.02901 0.77931 0.85162
 C1834 C -0.02310 0.77356 0.83445
 C1835 C 0.39941 0.77990 0.27957
 C1836 C 0.41667 0.77430 0.27382
 C1837 C -0.10145 0.78017 0.77899
 C1838 C -0.08434 0.77427 0.77315
 C1839 C 0.85411 0.27712 0.47321
 C1840 C 0.83676 0.27163 0.47870
 C1841 C 0.85271 0.77632 -0.02835
 C1842 C 0.83521 0.77093 -0.02316
 C1843 C -0.10081 -0.03017 -0.02992
 C1844 C -0.08388 -0.02411 -0.02371
 C1845 C -0.10385 0.47187 0.47319
 C1846 C -0.08651 0.47725 0.47886
 C1847 C 0.39842 -0.02867 0.46994
 C1848 C 0.41560 -0.02280 0.47572
 C1849 C 0.39751 0.47166 -0.02997
 C1850 C 0.41470 0.47739 -0.02412
 C1851 C 0.35153 0.47142 0.77909
 C1852 C 0.33444 0.47742 0.77328
 C1853 C 0.35435 -0.02624 0.27638
 C1854 C 0.33680 -0.02105 0.27118
 C1855 C 0.14561 0.52719 0.72354
 C1856 C 0.16301 0.52174 0.72899
 C1857 C 0.14800 0.02869 0.22147
 C1858 C 0.16518 0.02288 0.22725
 C1859 C 0.60473 0.72316 0.22251
 C1860 C 0.58736 0.72854 0.22807
 C1861 C 0.10345 0.72231 0.72212
 C1862 C 0.08609 0.72766 0.72770
 C1863 C 0.64840 0.22016 0.52754
 C1864 C 0.66565 0.22579 0.52187
 C1865 C 0.64660 0.72192 0.02813
 C1866 C 0.66378 0.72768 0.02232
 C1867 C 0.10404 0.02829 0.02678
 C1868 C 0.08675 0.02259 0.02121
 C1869 C 0.10176 0.52881 0.52854
 C1870 C 0.08460 0.52284 0.52286
 C1871 C 0.60383 0.02783 0.52751
 C1872 C 0.58644 0.02238 0.52199
 C1873 C 0.60310 0.52686 0.02796
 C1874 C 0.58570 0.52135 0.02253
 C1875 C 0.02813 0.02659 0.10379
 C1876 C 0.02268 0.02123 0.08632
 C1877 C 0.02964 0.52744 0.60242
 C1878 C 0.02392 0.52163 0.58519
 C1879 C 0.52741 0.02849 0.60366
 C1880 C 0.52202 0.02311 0.58615
 C1881 C 0.52678 0.52686 0.10420
 C1882 C 0.52136 0.52143 0.08673
 C1883 C 0.22108 0.52682 0.64639
 C1884 C 0.22649 0.52136 0.66381
 C1885 C 0.21997 0.02845 0.14836
 C1886 C 0.22581 0.02242 0.16545
 C1887 C 0.72061 0.21987 0.60142
 C1888 C 0.72646 0.22567 0.58426
 C1889 C 0.72004 0.72117 0.10092
 C1890 C 0.72555 0.72699 0.08366
 C1891 C 0.52726 0.72383 0.14584
 C1892 C 0.52208 0.72917 0.16339
 C1893 C 0.02753 0.72310 0.64566
 C1894 C 0.02197 0.72859 0.66305
 C1895 C 0.52813 0.64682 0.22262
 C1896 C 0.52280 0.66428 0.22813
 C1897 C 0.02591 0.64591 0.72259
 C1898 C 0.02071 0.66351 0.72772
 C1899 C 0.02862 0.10341 0.02755
 C1900 C 0.02285 0.08613 0.02195
 C1901 C 0.02956 0.60081 0.53030
 C1902 C 0.02353 0.58366 0.52450
 C1903 C 0.52681 0.10486 0.52552
 C1904 C 0.52143 0.08731 0.52042
 C1905 C 0.52575 0.60427 0.02691
 C1906 C 0.52059 0.58662 0.02183
 C1907 C 0.72178 0.14733 0.52860
 C1908 C 0.72756 0.16452 0.52279
 C1909 C 0.71876 0.64846 0.02787
 C1910 C 0.72447 0.66562 0.02189
 C1911 C 0.22205 0.60386 0.72260
 C1912 C 0.22746 0.58649 0.72820
 C1913 C 0.22009 0.10133 0.22011
 C1914 C 0.22603 0.08422 0.22602
 C1915 C 0.72366 1.10329 0.72246
 C1916 C 0.72896 1.08582 0.72791
 C1917 C 0.72414 0.60488 0.22311
 C1918 C 0.72919 0.58729 0.22839
 C1919 C 0.52712 0.14482 0.72229
 C1920 C 0.52180 0.16237 0.72762
 C1921 C 1.02625 0.14551 0.22303
 C1922 C 1.02097 0.16315 0.22801
 C1923 C 0.22145 0.64845 0.52946
 C1924 C 0.22744 0.66559 0.52368
 C1925 C 0.22262 0.14827 1.02940
 C1926 C 0.22826 0.16559 1.02380
 C1927 C 0.22207 0.72201 0.60221
 C1928 C 0.22773 0.72759 0.58490
 C1929 C 0.22160 0.22119 1.10222
 C1930 C 0.22750 0.22706 1.08510
 C1931 C 0.72367 0.52745 0.14553
 C1932 C 0.72887 0.52221 0.16310
 C1933 C 0.72376 1.02598 0.64570
 C1934 C 0.72882 1.02067 0.66328
 C1935 C 0.52769 0.22301 0.64523
 C1936 C 0.52244 0.22792 0.66287
 C1937 C 1.02774 0.22289 0.14593
 C1938 C 1.02198 0.22838 0.16323
 C1939 C 0.60416 0.22207 0.72341
 C1940 C 0.58664 0.22731 0.72865
 C1941 C 1.10318 0.22301 0.22205
 C1942 C 1.08581 0.22849 0.22750
 C1943 C 0.14905 0.72055 0.52885
 C1944 C 0.16621 0.72645 0.52310
 C1945 C 0.14879 0.22184 1.02865
 C1946 C 0.16612 0.22742 1.02317
 C1947 C 0.64623 0.52675 0.22297
 C1948 C 0.66387 0.52167 0.22802
 C1949 C 0.64599 1.02677 0.72220
 C1950 C 0.66347 1.02143 0.72755
 C1951 C 0.85203 0.47199 0.27999
 C1952 C 0.83493 0.47786 0.27408
 C1953 C 0.85105 0.96999 0.78039
 C1954 C 0.83385 0.97568 0.77456
 C1955 C 0.39832 0.27870 0.77837
 C1956 C 0.41541 0.27268 0.77252
 C1957 C 0.89798 0.27847 0.27951
 C1958 C 0.91503 0.27246 0.27367
 C1959 C 0.35457 0.77758 0.47268
 C1960 C 0.33713 0.77216 0.47805
 C1961 C 0.35445 0.27786 0.97287
 C1962 C 0.33714 0.27232 0.97846
 C1963 C 0.77826 0.47199 0.35244
 C1964 C 0.77283 0.47756 0.33503
 C1965 C 0.77724 0.97043 0.85270
 C1966 C 0.77151 0.97584 0.83535
 C1967 C 0.27723 0.77653 0.39570
 C1968 C 0.27193 0.77142 0.41326
 C1969 C 0.27796 0.27790 0.89653
 C1970 C 0.27250 0.27255 0.91397
 C1971 C 0.47103 0.27853 0.85145
 C1972 C 0.47658 0.27263 0.83419
 C1973 C 0.97148 0.27783 0.35239
 C1974 C 0.97693 0.27230 0.33498
 C1975 C 0.47002 0.35084 0.77846
 C1976 C 0.47605 0.33374 0.77255
 C1977 C 0.97017 0.35165 0.27940
 C1978 C 0.97584 0.33440 0.27355
 C1979 C 0.27817 0.85439 0.47299
 C1980 C 0.27279 0.83687 0.47823
 C1981 C 0.27769 0.35468 0.97344
 C1982 C 0.27242 0.33717 0.97879
 C1983 C 0.77941 0.39849 0.27830
 C1984 C 0.77377 0.41579 0.27268
   
