data_POSCAR
  _audit_creation_date              2014-09-24
  _audit_creation_method            'ToBaCCo'
  _symmetry_space_group_name_H-M    'P1'
  _symmetry_Int_Tables_number       1
  _symmetry_cell_setting            triclinic
  loop_
  _symmetry_equiv_pos_as_xyz
 x,y,z
_cell_length_a 41.1142
_cell_length_b 42.8812
_cell_length_c 49.4060
_cell_angle_alpha 90.002700
_cell_angle_beta 89.986200
_cell_angle_gamma 90.129800
loop_
  _atom_site_label
  _atom_site_type_symbol
  _atom_site_fract_x
  _atom_site_fract_y
  _atom_site_fract_z
Zr1 Zr 0.24817 0.24847 0.29865
 O2 O 0.27444 0.27110 0.32988
 O3 O 0.21530 0.22113 0.32102
 O4 O 0.21853 0.27966 0.32085
 O5 O 0.30589 0.19153 0.28767
 O6 O 0.19565 0.31017 0.28818
 O7 O 0.27803 0.21733 0.32072
 O8 O 0.18289 0.20006 0.28831
 O9 O 0.20577 0.25310 0.27549
 O10 O 0.24492 0.20815 0.27497
 O11 O 0.25441 0.28964 0.27594
 O12 O 0.29172 0.24682 0.27596
 Zr13 Zr 0.25115 0.25166 0.20378
 Zr14 Zr 0.21310 0.29268 0.25133
 Zr15 Zr 0.28655 0.20763 0.25092
 Zr16 Zr 0.20374 0.21352 0.25103
 O17 O 0.33802 0.20637 0.24970
 O18 O 0.15380 0.22570 0.24988
 O19 O 0.24517 0.21001 0.22616
 O20 O 0.20803 0.25331 0.22669
 O21 O 0.25479 0.29230 0.22710
 O22 O 0.29325 0.24726 0.22724
 C23 C 0.19094 0.20453 0.31322
 C24 C 0.29977 0.19779 0.31263
 C25 C 0.20053 0.30255 0.31302
 O26 O 0.16173 0.29330 0.24908
 O27 O 0.19954 0.31379 0.21458
 O28 O 0.22398 0.28481 0.18168
 C29 C 0.20572 0.30743 0.18963
 O30 O 0.31863 0.30218 0.28764
 Zr31 Zr 0.29576 0.28669 0.25146
 O32 O 0.28398 0.27913 0.18146
 O33 O 0.22185 0.34125 0.25389
 O34 O 0.29231 0.33602 0.25215
 O35 O 0.34607 0.27588 0.25066
 O36 O 0.31418 0.30303 0.21423
 C37 C 0.30681 0.29760 0.18932
 O38 O 0.22325 0.23040 0.17280
 O39 O 0.27753 0.15905 0.25177
 O40 O 0.27860 0.21907 0.18135
 O41 O 0.30140 0.18828 0.21386
 O42 O 0.20499 0.16410 0.25247
 O43 O 0.18414 0.19468 0.21471
 C44 C 0.29666 0.19617 0.18903
 H45 H 0.24360 0.18886 0.28593
 H46 H 0.18870 0.25493 0.21483
 H47 H 0.31332 0.24532 0.21630
 H48 H 0.25656 0.30805 0.28791
 H49 H 0.14108 0.20677 0.25450
 H50 H 0.15508 0.31547 0.25002
 H51 H 0.20040 0.35171 0.25284
 H52 H 0.31397 0.34451 0.24730
 H53 H 0.18274 0.15677 0.25693
 H54 H 0.29904 0.14874 0.25261
 H55 H 0.34446 0.18412 0.24912
 H56 H 0.35799 0.29530 0.24610
 H57 H 0.16455 0.18214 0.21898
 H58 H 0.23225 0.23758 0.15523
 H59 H 0.26549 0.26357 0.34737
 H60 H 0.33491 0.31846 0.28323
 Zr61 Zr 0.75186 0.75111 0.29715
 O62 O 0.72679 0.72770 0.32865
 O63 O 0.78434 0.77923 0.31909
 O64 O 0.78297 0.72108 0.31893
 O65 O 0.69223 0.80634 0.28719
 O66 O 0.80667 0.69129 0.28618
 O67 O 0.72184 0.78154 0.31974
 O68 O 0.81549 0.80123 0.28598
 O69 O 0.79397 0.74776 0.27346
 O70 O 0.75335 0.79148 0.27349
 O71 O 0.74668 0.70967 0.27464
 O72 O 0.70781 0.75137 0.27517
 Zr73 Zr 0.74720 0.74767 0.20250
 Zr74 Zr 0.78763 0.70788 0.24949
 Zr75 Zr 0.71121 0.79070 0.25009
 Zr76 Zr 0.79422 0.78735 0.24899
 O77 O 0.65971 0.79030 0.24959
 O78 O 0.84453 0.77680 0.24696
 O79 O 0.75219 0.78952 0.22476
 O80 O 0.79081 0.74740 0.22477
 O81 O 0.74544 0.70693 0.22584
 O82 O 0.70543 0.75084 0.22652
 C83 C 0.80810 0.79642 0.31099
 C84 C 0.69933 0.80046 0.31205
 C85 C 0.80199 0.69900 0.31106
 O86 O 0.83896 0.70884 0.24654
 O87 O 0.80155 0.68735 0.21254
 O88 O 0.77504 0.71529 0.18010
 C89 C 0.79460 0.69350 0.18768
 O90 O 0.68328 0.69511 0.28730
 Zr91 Zr 0.70475 0.71134 0.25076
 O92 O 0.71468 0.71940 0.18063
 O93 O 0.78051 0.65909 0.25222
 O94 O 0.70989 0.66215 0.25127
 O95 O 0.65407 0.72048 0.25077
 O96 O 0.68598 0.69458 0.21382
 C97 C 0.69254 0.70034 0.18882
 O98 O 0.77378 0.76954 0.17102
 O99 O 0.71856 0.83954 0.25080
 O100 O 0.71851 0.77964 0.18045
 O101 O 0.69510 0.80963 0.21325
 O102 O 0.79145 0.83670 0.25061
 O103 O 0.81220 0.80682 0.21234
 C104 C 0.69990 0.80203 0.18835
 H105 H 0.75431 0.81081 0.28443
 H106 H 0.80994 0.74640 0.21263
 H107 H 0.68511 0.75221 0.21586
 H108 H 0.74544 0.69125 0.28667
 H109 H 0.85667 0.79613 0.25138
 H110 H 0.84639 0.68690 0.24748
 H111 H 0.80228 0.64931 0.25097
 H112 H 0.68841 0.65300 0.24674
 H113 H 0.81357 0.84463 0.25470
 H114 H 0.69672 0.84916 0.25196
 H115 H 0.65251 0.81234 0.24914
 H116 H 0.64274 0.70066 0.24650
 H117 H 0.83147 0.81996 0.21626
 H118 H 0.76461 0.76204 0.15361
 H119 H 0.73585 0.73539 0.34604
 H120 H 0.66755 0.67825 0.28316
 Zr121 Zr 0.75091 0.25038 -0.29782
 O122 O 0.72524 0.27482 -0.32830
 O123 O 0.78241 0.22269 -0.32099
 O124 O 0.78162 0.28109 -0.31953
 O125 O 0.69108 0.19503 -0.28792
 O126 O 0.80629 0.30964 -0.28637
 O127 O 0.71994 0.22079 -0.32046
 O128 O 0.81390 0.19905 -0.28907
 O129 O 0.79369 0.25274 -0.27488
 O130 O 0.75261 0.20928 -0.27510
 O131 O 0.74663 0.29104 -0.27420
 O132 O 0.70745 0.24961 -0.27498
 Zr133 Zr 0.74881 0.25069 -0.20293
 Zr134 Zr 0.78824 0.29180 -0.24982
 Zr135 Zr 0.71115 0.20952 -0.25089
 Zr136 Zr 0.79418 0.21241 -0.25132
 O137 O 0.65967 0.21017 -0.24965
 O138 O 0.84461 0.22288 -0.25042
 O139 O 0.75278 0.20958 -0.22631
 O140 O 0.79181 0.25158 -0.22604
 O141 O 0.74677 0.29210 -0.22536
 O142 O 0.70637 0.24861 -0.22625
 C143 C 0.80586 0.20470 -0.31380
 C144 C 0.69753 0.20167 -0.31275
 C145 C 0.80077 0.30300 -0.31134
 O146 O 0.83959 0.29050 -0.24754
 O147 O 0.80235 0.31171 -0.21276
 O148 O 0.77718 0.28259 -0.18025
 C149 C 0.79589 0.30510 -0.18791
 O150 O 0.68279 0.30610 -0.28518
 Zr151 Zr 0.70538 0.28882 -0.24952
 O152 O 0.71749 0.27862 -0.17979
 O153 O 0.78176 0.34072 -0.25153
 O154 O 0.71105 0.33799 -0.24925
 O155 O 0.65462 0.27991 -0.24843
 O156 O 0.68830 0.30487 -0.21175
 C157 C 0.69566 0.29837 -0.18704
 O158 O 0.77611 0.22746 -0.17274
 O159 O 0.71799 0.16068 -0.25269
 O160 O 0.71978 0.21861 -0.18103
 O161 O 0.69544 0.18985 -0.21426
 O162 O 0.79080 0.16312 -0.25366
 O163 O 0.81341 0.19194 -0.21557
 C164 C 0.70042 0.19687 -0.18927
 H165 H 0.75302 0.19027 -0.28645
 H166 H 0.81126 0.25226 -0.21423
 H167 H 0.68629 0.24715 -0.21527
 H168 H 0.74520 0.30986 -0.28574
 H169 H 0.85646 0.20369 -0.25561
 H170 H 0.84720 0.31243 -0.24808
 H171 H 0.80366 0.35034 -0.25032
 H172 H 0.68983 0.34714 -0.24405
 H173 H 0.81267 0.15513 -0.25841
 H174 H 0.69603 0.15119 -0.25368
 H175 H 0.65222 0.18816 -0.24960
 H176 H 0.64369 0.29963 -0.24331
 H177 H 0.83251 0.17898 -0.22025
 H178 H 0.76762 0.23444 -0.15494
 H179 H 0.73371 0.26757 -0.34603
 H180 H 0.66730 0.32283 -0.28029
 Zr181 Zr 0.24733 0.75548 -0.29648
 O182 O 0.27322 0.73483 -0.32890
 O183 O 0.21447 0.78433 -0.31736
 O184 O 0.21757 0.72505 -0.31967
 O185 O 0.30515 0.81166 -0.28353
 O186 O 0.19474 0.69319 -0.28786
 O187 O 0.27697 0.78808 -0.31744
 O188 O 0.18240 0.80295 -0.28358
 O189 O 0.20513 0.74973 -0.27317
 O190 O 0.24469 0.79438 -0.27107
 O191 O 0.25350 0.71314 -0.27538
 O192 O 0.29112 0.75555 -0.27402
 Zr193 Zr 0.25115 0.74725 -0.20158
 Zr194 Zr 0.21247 0.70898 -0.25059
 Zr195 Zr 0.28654 0.79331 -0.24737
 Zr196 Zr 0.20375 0.78791 -0.24706
 O197 O 0.33804 0.79415 -0.24713
 O198 O 0.15370 0.77590 -0.24573
 O199 O 0.24543 0.79000 -0.22235
 O200 O 0.20787 0.74696 -0.22434
 O201 O 0.25423 0.70784 -0.22655
 O202 O 0.29305 0.75250 -0.22525
 C203 C 0.19013 0.80047 -0.30880
 C204 C 0.29875 0.80746 -0.30880
 C205 C 0.19969 0.70167 -0.31248
 O206 O 0.16111 0.70839 -0.24805
 O207 O 0.19935 0.68596 -0.21467
 O208 O 0.22267 0.71379 -0.18063
 C209 C 0.20445 0.69133 -0.18935
 O210 O 0.31767 0.70070 -0.28780
 Zr211 Zr 0.29500 0.71445 -0.25102
 O212 O 0.28340 0.71793 -0.18069
 O213 O 0.22066 0.66053 -0.25508
 O214 O 0.29088 0.66525 -0.25386
 O215 O 0.34541 0.72502 -0.24995
 O216 O 0.31326 0.69580 -0.21454
 C217 C 0.30593 0.69974 -0.18941
 O218 O 0.22441 0.76754 -0.16949
 O219 O 0.27801 0.84190 -0.24565
 O220 O 0.27996 0.77818 -0.17816
 O221 O 0.30284 0.81016 -0.20989
 O222 O 0.20526 0.83736 -0.24686
 O223 O 0.18489 0.80512 -0.20989
 C224 C 0.29871 0.80089 -0.18536
 H225 H 0.24339 0.81430 -0.28114
 H226 H 0.18856 0.74483 -0.21251
 H227 H 0.31331 0.75359 -0.21447
 H228 H 0.25544 0.69535 -0.28804
 H229 H 0.14110 0.79508 -0.24952
 H230 H 0.15429 0.68628 -0.24961
 H231 H 0.19914 0.65010 -0.25417
 H232 H 0.31240 0.65630 -0.24934
 H233 H 0.18301 0.84489 -0.25087
 H234 H 0.29960 0.85217 -0.24655
 H235 H 0.34481 0.81629 -0.24566
 H236 H 0.35715 0.70538 -0.24600
 H237 H 0.16538 0.81797 -0.21349
 H238 H 0.23342 0.75919 -0.15233
 H239 H 0.26404 0.74334 -0.34594
 H240 H 0.33389 0.68423 -0.28402
 Zr241 Zr 1.25183 1.25178 0.79751
 O242 O 1.22530 1.22930 0.82868
 O243 O 1.28529 1.27853 0.81960
 O244 O 1.28170 1.22095 0.81978
 O245 O 1.19716 1.31158 0.78692
 O246 O 1.30617 1.19181 0.78697
 O247 O 1.22307 1.28355 0.81972
 O248 O 1.31790 1.29911 0.78674
 O249 O 1.29397 1.24687 0.77408
 O250 O 1.25570 1.29201 0.77373
 O251 O 1.24512 1.21056 0.77509
 O252 O 1.20809 1.25423 0.77521
 Zr253 Zr 1.24785 1.24840 0.70277
 Zr254 Zr 1.28619 1.20730 0.75023
 Zr255 Zr 1.21388 1.29329 0.75002
 Zr256 Zr 1.29648 1.28622 0.74952
 O257 O 1.16244 1.29474 0.74951
 O258 O 1.34618 1.27323 0.74792
 O259 O 1.25489 1.29005 0.72495
 O260 O 1.29125 1.24649 0.72535
 O261 O 1.24417 1.20790 0.72630
 O262 O 1.20613 1.25361 0.72654
 C263 C 1.30994 1.29464 0.81168
 C264 C 1.20353 1.30519 0.81182
 C265 C 1.30173 1.19974 0.81182
 O266 O 1.33751 1.20561 0.74698
 O267 O 1.30024 1.18675 0.71351
 O268 O 1.27447 1.21477 0.68070
 C269 C 1.29396 1.19308 0.68860
 O270 O 1.18097 1.19955 0.78753
 Zr271 Zr 1.20346 1.21420 0.75091
 O272 O 1.21447 1.22117 0.68085
 O273 O 1.27664 1.15896 0.75355
 O274 O 1.20608 1.16483 0.75180
 O275 O 1.15320 1.22524 0.75029
 O276 O 1.18437 1.19779 0.71394
 C277 C 1.19157 1.20294 0.68896
 O278 O 1.27555 1.26899 0.67133
 O279 O 1.22326 1.34185 0.75038
 O280 O 1.22071 1.28141 0.68041
 O281 O 1.20040 1.31365 0.71301
 O282 O 1.29585 1.33565 0.75099
 O283 O 1.31610 1.30492 0.71315
 C284 C 1.20473 1.30570 0.68814
 H285 H 1.25769 1.31134 0.78457
 H286 H 1.31043 1.24478 0.71334
 H287 H 1.18604 1.25591 0.71568
 H288 H 1.24321 1.19224 0.78720
 H289 H 1.35927 1.29190 0.75260
 H290 H 1.34392 1.18340 0.74839
 H291 H 1.29796 1.14831 0.75259
 H292 H 1.18415 1.15665 0.74737
 H293 H 1.31816 1.34269 0.75558
 H294 H 1.20188 1.35246 0.75106
 H295 H 1.15628 1.31703 0.74853
 H296 H 1.14112 1.20574 0.74631
 H297 H 1.33586 1.31724 0.71737
 H298 H 1.26621 1.26171 0.65391
 H299 H 1.23432 1.23671 0.84617
 H300 H 1.16458 1.18323 0.78353
 Zr301 Zr 0.74754 0.74648 0.79804
 O302 O 0.77386 0.76882 0.82941
 O303 O 0.71483 0.71873 0.82007
 O304 O 0.71758 0.77649 0.82099
 O305 O 0.80425 0.68859 0.78639
 O306 O 0.69209 0.80590 0.78897
 O307 O 0.77738 0.71516 0.81953
 O308 O 0.68254 0.69790 0.78714
 O309 O 0.70499 0.75071 0.77510
 O310 O 0.74462 0.70654 0.77385
 O311 O 0.75290 0.78825 0.77617
 O312 O 0.79110 0.74561 0.77541
 Zr313 Zr 0.75034 0.75168 0.70341
 Zr314 Zr 0.71142 0.79090 0.75179
 Zr315 Zr 0.78623 0.70681 0.74981
 Zr316 Zr 0.70344 0.71171 0.74999
 O317 O 0.83768 0.70667 0.74881
 O318 O 0.65330 0.72315 0.74866
 O319 O 0.74485 0.70944 0.72507
 O320 O 0.70720 0.75203 0.72640
 O321 O 0.75314 0.79184 0.72745
 O322 O 0.79248 0.74711 0.72677
 C323 C 0.69046 0.70227 0.81208
 C324 C 0.79790 0.69452 0.81139
 C325 C 0.69734 0.79779 0.81367
 O326 O 0.66000 0.79107 0.74951
 O327 O 0.69604 0.81139 0.71548
 O328 O 0.72240 0.78493 0.68198
 C329 C 0.70215 0.80570 0.69042
 O330 O 0.81682 0.80079 0.78821
 Zr331 Zr 0.79433 0.78615 0.75160
 O332 O 0.78275 0.78007 0.68153
 O333 O 0.71960 0.83946 0.75520
 O334 O 0.79031 0.83541 0.75311
 O335 O 0.84487 0.77643 0.75049
 O336 O 0.81257 0.80360 0.71470
 C337 C 0.80531 0.79865 0.68970
 O338 O 0.72288 0.73093 0.67191
 O339 O 0.77811 0.65804 0.74964
 O340 O 0.77813 0.71971 0.68048
 O341 O 0.80013 0.68761 0.71241
 O342 O 0.70549 0.66231 0.75104
 O343 O 0.68429 0.69306 0.71344
 C344 C 0.79522 0.69591 0.68769
 H345 H 0.74329 0.68703 0.78451
 H346 H 0.68781 0.75339 0.71460
 H347 H 0.81251 0.74554 0.71573
 H348 H 0.75454 0.80640 0.78849
 H349 H 0.64087 0.70399 0.75310
 H350 H 0.65294 0.81308 0.75111
 H351 H 0.69795 0.84954 0.75461
 H352 H 0.81194 0.84423 0.74859
 H353 H 0.68340 0.65464 0.75561
 H354 H 0.79978 0.64797 0.75008
 H355 H 0.84446 0.68455 0.74756
 H356 H 0.85636 0.79629 0.74667
 H357 H 0.66506 0.67995 0.71756
 H358 H 0.73189 0.73869 0.65452
 H359 H 0.76519 0.76090 0.84686
 H360 H 0.83265 0.81764 0.78429
 Zr361 Zr 1.25130 0.74826 0.20230
 O362 O 1.22488 0.77210 0.17192
 O363 O 1.28233 0.72004 0.17932
 O364 O 1.28221 0.77761 0.17933
 O365 O 1.19364 0.69123 0.21412
 O366 O 1.30965 0.80517 0.21160
 O367 O 1.22037 0.71771 0.18074
 O368 O 1.31447 0.69724 0.21129
 O369 O 1.29449 0.75081 0.22465
 O370 O 1.25347 0.70783 0.22594
 O371 O 1.24797 0.78969 0.22493
 O372 O 1.20824 0.74808 0.22564
 Zr373 Zr 1.25086 0.75147 0.29701
 Zr374 Zr 1.29004 0.79062 0.24875
 Zr375 Zr 1.21244 0.70868 0.25063
 Zr376 Zr 1.29539 0.71129 0.24908
 O377 O 1.16104 0.71008 0.25217
 O378 O 1.34585 0.72168 0.24932
 O379 O 1.25448 0.70959 0.27465
 O380 O 1.29351 0.75114 0.27342
 O381 O 1.24891 0.79219 0.27369
 O382 O 1.20804 0.74862 0.27434
 C383 C 1.30602 0.70238 0.18656
 C384 C 1.19993 0.69699 0.18908
 C385 C 1.30382 0.79766 0.18686
 O386 O 1.34148 0.78959 0.25068
 O387 O 1.30669 0.81011 0.28515
 O388 O 1.28002 0.78363 0.31852
 C389 C 1.30068 0.80412 0.31017
 O390 O 1.18416 0.80415 0.21411
 Zr391 Zr 1.20701 0.78821 0.25012
 O392 O 1.21991 0.78015 0.31986
 O393 O 1.28344 0.83941 0.24580
 O394 O 1.21269 0.83736 0.24916
 O395 O 1.15618 0.77991 0.25207
 O396 O 1.19044 0.80557 0.28762
 C397 C 1.19804 0.79978 0.31241
 O398 O 1.27844 0.72939 0.32770
 O399 O 1.21870 0.65969 0.25020
 O400 O 1.22268 0.71979 0.31994
 O401 O 1.19872 0.68908 0.28793
 O402 O 1.29167 0.66197 0.24769
 O403 O 1.31514 0.69150 0.28492
 C404 C 1.20465 0.69662 0.31266
 H405 H 1.25395 0.68843 0.21510
 H406 H 1.31318 0.75178 0.28497
 H407 H 1.18823 0.74736 0.28570
 H408 H 1.24680 0.80812 0.21290
 H409 H 1.35757 0.70237 0.24425
 H410 H 1.34920 0.81144 0.24920
 H411 H 1.30542 0.84890 0.24627
 H412 H 1.19150 0.84668 0.25417
 H413 H 1.31333 0.65378 0.24256
 H414 H 1.19667 0.65026 0.25001
 H415 H 1.15347 0.68816 0.25329
 H416 H 1.14553 0.80001 0.25642
 H417 H 1.33406 0.67832 0.28020
 H418 H 1.27014 0.73701 0.34537
 H419 H 1.23284 0.76439 0.15419
 H420 H 1.16892 0.82126 0.21855
 Zr421 Zr 0.74928 1.25286 0.20297
 O422 O 0.77530 1.23014 0.17170
 O423 O 0.71701 1.28086 0.18100
 O424 O 0.71853 1.22315 0.18016
 O425 O 0.80612 1.31076 0.21460
 O426 O 0.69269 1.19438 0.21255
 O427 O 0.77926 1.28424 0.18132
 O428 O 0.68532 1.30267 0.21380
 O429 O 0.70674 1.24898 0.22605
 O430 O 0.74676 1.29284 0.22718
 O431 O 0.75421 1.21117 0.22499
 O432 O 0.79287 1.25364 0.22557
 Zr433 Zr 0.75228 1.24800 0.29781
 Zr434 Zr 0.71282 1.20890 0.24955
 Zr435 Zr 0.78834 1.29247 0.25117
 Zr436 Zr 0.70554 1.28805 0.25104
 O437 O 0.83979 1.29225 0.25211
 O438 O 0.65537 1.27647 0.25182
 O439 O 0.74700 1.29013 0.27595
 O440 O 0.70908 1.24786 0.27484
 O441 O 0.75459 1.20778 0.27379
 O442 O 0.79437 1.25229 0.27431
 C443 C 0.69326 1.29811 0.18886
 C444 C 0.79957 1.30512 0.18959
 C445 C 0.69767 1.20242 0.18779
 O446 O 0.66143 1.20879 0.25230
 O447 O 0.69740 1.18848 0.28590
 O448 O 0.72394 1.21497 0.31932
 C449 C 0.70350 1.19426 0.31093
 O450 O 0.81792 1.19822 0.21286
 Zr451 Zr 0.79574 1.21318 0.24948
 O452 O 0.78461 1.21949 0.31958
 O453 O 0.72056 1.16033 0.24593
 O454 O 0.79120 1.16393 0.24816
 O455 O 0.84637 1.22274 0.25037
 O456 O 0.81403 1.19578 0.28631
 C457 C 0.80698 1.20082 0.31132
 O458 O 0.72514 1.26887 0.32940
 O459 O 0.78093 1.34131 0.25120
 O460 O 0.78029 1.28013 0.32066
 O461 O 0.80202 1.31209 0.28842
 O462 O 0.70833 1.33744 0.25053
 O463 O 0.68590 1.30665 0.28741
 C464 C 0.79706 1.30412 0.31320
 H465 H 0.74564 1.31240 0.21658
 H466 H 0.68969 1.24661 0.28667
 H467 H 0.81443 1.25388 0.28531
 H468 H 0.75553 1.19296 0.21272
 H469 H 0.64305 1.29558 0.24720
 H470 H 0.65416 1.18681 0.25060
 H471 H 0.69883 1.15033 0.24661
 H472 H 0.81277 1.15502 0.25260
 H473 H 0.68645 1.34539 0.24576
 H474 H 0.80272 1.35124 0.25078
 H475 H 0.84682 1.31431 0.25337
 H476 H 0.85772 1.20285 0.25418
 H477 H 0.66667 1.31959 0.28310
 H478 H 0.73414 1.26106 0.34676
 H479 H 0.76671 1.23807 0.15425
 H480 H 0.83363 1.18135 0.21680
 N481 N 0.55722 1.03497 0.02945
 N482 N 0.57938 1.05630 0.03558
 N483 N 0.53523 0.96929 0.04834
 N484 N 0.54190 0.94900 0.06758
 N485 N 0.55824 0.96937 0.02991
 N486 N 0.58115 0.94903 0.03613
 N487 N 0.53394 1.03475 0.04766
 N488 N 0.53949 1.05589 0.06644
 C489 C 0.56769 1.06946 0.05860
 C490 C 0.57040 0.93623 0.05958
 N491 N 0.44206 0.96740 0.02972
 N492 N 0.42032 0.94562 0.03561
 N493 N 0.46397 1.03339 0.04748
 N494 N 0.45682 1.05357 0.06667
 N495 N 0.44111 1.03296 0.02892
 N496 N 0.41778 1.05292 0.03509
 N497 N 0.46521 0.96795 0.04802
 N498 N 0.45998 0.94660 0.06669
 Mn499 Mn 0.49958 1.00134 0.04805
 C500 C 0.43209 0.93260 0.05864
 C501 C 0.42819 1.06592 0.05856
 N502 N 0.55851 0.96842 -0.02855
 N503 N 0.58135 0.94776 -0.03435
 N504 N 0.53441 1.03318 -0.04767
 N505 N 0.54021 1.05373 -0.06687
 N506 N 0.55742 1.03402 -0.02925
 N507 N 0.57964 1.05515 -0.03562
 N508 N 0.53545 0.96774 -0.04693
 N509 N 0.54194 0.94675 -0.06561
 Mn510 Mn 0.55823 1.00173 0.00039
 C511 C 0.57042 0.93416 -0.05744
 C512 C 0.56826 1.06755 -0.05903
 N513 N 0.44134 1.03219 -0.02970
 N514 N 0.41901 1.05320 -0.03598
 N515 N 0.46547 0.96655 -0.04703
 N516 N 0.45985 0.94511 -0.06556
 N517 N 0.44224 0.96658 -0.02880
 N518 N 0.42009 0.94517 -0.03456
 N519 N 0.46462 1.03206 -0.04789
 N520 N 0.45893 1.05293 -0.06682
 Mn521 Mn 0.44129 0.99980 0.00004
 Mn522 Mn 0.49998 0.99986 -0.04755
 Cl523 Cl 0.49978 1.00070 0.00024
 C524 C 0.43061 1.06621 -0.05912
 C525 C 0.43168 0.93168 -0.05742
 N526 N 1.03506 0.53472 0.54823
 N527 N 1.05664 0.54118 0.56717
 N528 N 0.96657 0.55632 0.52964
 N529 N 0.94503 0.57813 0.53551
 N530 N 0.96665 0.53456 0.54833
 N531 N 0.94517 0.54098 0.56736
 N532 N 1.03488 0.55664 0.52969
 N533 N 1.05621 0.57870 0.53563
 C534 C 1.06995 0.56849 0.55891
 C535 C 0.93154 0.56803 0.55897
 N536 N 0.96684 0.53410 0.45269
 N537 N 0.94600 0.54081 0.43328
 N538 N 1.03506 0.55619 0.47134
 N539 N 1.05663 0.57802 0.46540
 N540 N 1.03513 0.53422 0.45282
 N541 N 1.05670 0.54054 0.43383
 N542 N 0.96674 0.55598 0.47129
 N543 N 0.94579 0.57811 0.46499
 Mn544 Mn 1.00080 0.55656 0.50048
 C545 C 0.93268 0.56811 0.44138
 C546 C 1.07025 0.56774 0.44207
 N547 N 0.96673 0.46739 0.54839
 N548 N 0.94495 0.46153 0.56727
 N549 N 1.03501 0.44526 0.53018
 N550 N 1.05675 0.42369 0.53634
 N551 N 1.03507 0.46752 0.54844
 N552 N 1.05688 0.46180 0.56733
 N553 N 0.96670 0.44522 0.53004
 N554 N 0.94496 0.42357 0.53612
 Mn555 Mn 1.00089 0.50103 0.54856
 C556 C 0.93127 0.43434 0.55926
 C557 C 1.07052 0.43459 0.55945
 N558 N 1.03512 0.46701 0.45313
 N559 N 1.05686 0.46098 0.43427
 N560 N 0.96670 0.44481 0.47140
 N561 N 0.94508 0.42301 0.46528
 N562 N 0.96673 0.46687 0.45297
 N563 N 0.94508 0.46081 0.43401
 N564 N 1.03502 0.44498 0.47159
 N565 N 1.05661 0.42324 0.46561
 Mn566 Mn 1.00096 0.50053 0.45270
 Mn567 Mn 1.00085 0.44472 0.50081
 Cl568 Cl 1.00087 0.50070 0.50064
 C569 C 1.07038 0.43381 0.44241
 C570 C 0.93145 0.43357 0.44201
 N571 N 0.96741 0.53299 -0.04795
 N572 N 0.94606 0.53932 -0.06706
 N573 N 1.03642 0.55448 -0.03019
 N574 N 1.05817 0.57594 -0.03708
 N575 N 1.03565 0.53210 -0.04832
 N576 N 1.05670 0.53762 -0.06781
 N577 N 0.96792 0.55525 -0.02971
 N578 N 0.94679 0.57729 -0.03593
 C579 C 0.93304 0.56681 -0.05916
 C580 C 1.07095 0.56479 -0.06052
 N581 N 1.03607 0.53311 0.04706
 N582 N 1.05769 0.53895 0.06604
 N583 N 0.96807 0.55598 0.02880
 N584 N 0.94685 0.57806 0.03490
 N585 N 0.96777 0.53403 0.04733
 N586 N 0.94649 0.54060 0.06646
 N587 N 1.03650 0.55507 0.02855
 N588 N 1.05838 0.57662 0.03465
 Mn589 Mn 1.00227 0.55556 -0.00064
 C590 C 1.07174 0.56592 0.05796
 C591 C 0.93326 0.56792 0.05836
 N592 N 1.03471 0.46520 -0.04760
 N593 N 1.05674 0.45954 -0.06627
 N594 N 0.96632 0.44365 -0.02899
 N595 N 0.94440 0.42209 -0.03508
 N596 N 0.96636 0.46583 -0.04733
 N597 N 0.94451 0.46007 -0.06617
 N598 N 1.03474 0.44318 -0.02913
 N599 N 1.05676 0.42175 -0.03496
 Mn600 Mn 1.00099 0.49900 -0.04795
 C601 C 1.07058 0.43257 -0.05809
 C602 C 0.93066 0.43293 -0.05822
 N603 N 0.96687 0.46686 0.04772
 N604 N 0.94514 0.46145 0.06674
 N605 N 1.03505 0.44375 0.02964
 N606 N 1.05672 0.42217 0.03607
 N607 N 1.03518 0.46622 0.04769
 N608 N 1.05692 0.46070 0.06665
 N609 N 0.96662 0.44440 0.02965
 N610 N 0.94470 0.42301 0.03605
 Mn611 Mn 1.00144 0.50005 0.04761
 Mn612 Mn 1.00070 0.44335 0.00029
 Cl613 Cl 1.00134 0.49950 -0.00017
 C614 C 0.93119 0.43425 0.05911
 C615 C 1.07049 0.43335 0.05912
 N616 N 0.55793 1.03350 0.52953
 N617 N 0.58003 1.05491 0.53553
 N618 N 0.53553 0.96807 0.54838
 N619 N 0.54173 0.94774 0.56764
 N620 N 0.55879 0.96799 0.53016
 N621 N 0.58160 0.94763 0.53675
 N622 N 0.53446 1.03357 0.54757
 N623 N 0.53984 1.05500 0.56614
 C624 C 0.56813 1.06841 0.55831
 C625 C 0.57033 0.93487 0.56006
 N626 N 0.44255 0.96595 0.52979
 N627 N 0.41951 0.94593 0.53700
 N628 N 0.46432 1.03229 0.54738
 N629 N 0.45672 1.05221 0.56668
 N630 N 0.44144 1.03153 0.52885
 N631 N 0.41772 1.05101 0.53508
 N632 N 0.46559 0.96688 0.54819
 N633 N 0.45892 0.94763 0.56819
 Mn634 Mn 0.50001 1.00024 0.54803
 C635 C 0.43040 0.93432 0.56090
 C636 C 0.42784 1.06409 0.55860
 N637 N 0.55934 0.96713 0.47143
 N638 N 0.58205 0.94637 0.46540
 N639 N 0.53538 1.03224 0.45265
 N640 N 0.54158 1.05261 0.43338
 N641 N 0.55848 1.03267 0.47099
 N642 N 0.58112 1.05335 0.46454
 N643 N 0.53618 0.96673 0.45314
 N644 N 0.54227 0.94567 0.43445
 Mn645 Mn 0.55903 1.00030 0.50055
 C646 C 0.57073 0.93286 0.44237
 C647 C 0.56994 1.06592 0.44114
 N648 N 0.44193 1.03083 0.47036
 N649 N 0.41922 1.05141 0.46399
 N650 N 0.46644 0.96567 0.45287
 N651 N 0.46081 0.94476 0.43394
 N652 N 0.44317 0.96531 0.47108
 N653 N 0.42091 0.94419 0.46481
 N654 N 0.46535 1.03116 0.45229
 N655 N 0.45932 1.05191 0.43331
 Mn656 Mn 0.44192 0.99836 0.50000
 Mn657 Mn 0.50083 0.99898 0.45258
 Cl658 Cl 0.50044 0.99946 0.50030
 C659 C 0.43067 1.06466 0.44092
 C660 C 0.43258 0.93124 0.44173
 N661 N 1.05688 1.03344 0.53020
 N662 N 1.07858 1.05524 0.53610
 N663 N 1.03373 0.96828 0.54921
 N664 N 1.03878 0.94775 0.56849
 N665 N 1.05746 0.96776 0.53144
 N666 N 1.07949 0.94670 0.53838
 N667 N 1.03310 1.03365 0.54792
 N668 N 1.03778 1.05554 0.56617
 C669 C 1.06602 1.06908 0.55849
 C670 C 1.06717 0.93417 0.56150
 N671 N 0.94127 0.96652 0.52955
 N672 N 0.91950 0.94478 0.53548
 N673 N 0.96343 1.03279 0.54689
 N674 N 0.95737 1.05442 0.56508
 N675 N 0.94054 1.03213 0.52839
 N676 N 0.91813 1.05340 0.53365
 N677 N 0.96416 0.96738 0.54805
 N678 N 0.95882 0.94626 0.56685
 Mn679 Mn 0.99860 1.00055 0.54817
 C680 C 0.93110 0.93210 0.55873
 C681 C 0.92925 1.06736 0.55654
 N682 N 1.05888 0.96658 0.47271
 N683 N 1.08182 0.94602 0.46699
 N684 N 1.03524 1.03148 0.45312
 N685 N 1.04018 1.05307 0.43467
 N686 N 1.05821 1.03219 0.47157
 N687 N 1.07964 1.05437 0.46593
 N688 N 1.03609 0.96607 0.45410
 N689 N 1.04278 0.94519 0.43540
 Mn690 Mn 1.05834 0.99998 0.50149
 C691 C 1.07114 0.93256 0.44376
 C692 C 1.06777 1.06739 0.44290
 N693 N 0.94188 1.03073 0.46985
 N694 N 0.91998 1.05209 0.46354
 N695 N 0.96638 0.96514 0.45309
 N696 N 0.96165 0.94345 0.43467
 N697 N 0.94263 0.96515 0.47086
 N698 N 0.92089 0.94344 0.46476
 N699 N 0.96554 1.03058 0.45202
 N700 N 0.96055 1.05180 0.43324
 Mn701 Mn 0.94111 0.99861 0.49965
 Mn702 Mn 1.00081 0.99831 0.45292
 Cl703 Cl 0.99973 0.99934 0.50055
 C704 C 0.93223 1.06527 0.44072
 C705 C 0.93341 0.92984 0.44224
 N706 N 0.55598 0.53363 0.02935
 N707 N 0.57749 0.55559 0.03525
 N708 N 0.53424 0.46786 0.04811
 N709 N 0.53999 0.44683 0.06690
 N710 N 0.55757 0.46810 0.02998
 N711 N 0.57993 0.44711 0.03602
 N712 N 0.53253 0.53323 0.04737
 N713 N 0.53723 0.55489 0.06582
 C714 C 0.56514 0.56890 0.05794
 C715 C 0.56838 0.43382 0.05903
 N716 N 0.44149 0.46523 0.02905
 N717 N 0.42008 0.44313 0.03486
 N718 N 0.46295 0.53141 0.04674
 N719 N 0.45709 0.55313 0.06487
 N720 N 0.43999 0.53079 0.02829
 N721 N 0.41771 0.55216 0.03353
 N722 N 0.46457 0.46606 0.04739
 N723 N 0.45972 0.44458 0.06596
 Mn724 Mn 0.49855 0.49963 0.04759
 C725 C 0.43210 0.43022 0.05786
 C726 C 0.42899 0.56612 0.05635
 N727 N 0.55841 0.46732 -0.02843
 N728 N 0.58104 0.44634 -0.03380
 N729 N 0.53372 0.53190 -0.04757
 N730 N 0.53821 0.55372 -0.06590
 N731 N 0.55671 0.53287 -0.02917
 N732 N 0.57772 0.55541 -0.03469
 N733 N 0.53548 0.46655 -0.04688
 N734 N 0.54172 0.44510 -0.06518
 Mn735 Mn 0.55763 0.50050 0.00044
 C736 C 0.57001 0.43242 -0.05671
 C737 C 0.56554 0.56840 -0.05759
 N738 N 0.44070 0.52994 -0.03032
 N739 N 0.41856 0.55114 -0.03653
 N740 N 0.46592 0.46472 -0.04745
 N741 N 0.46182 0.44250 -0.06548
 N742 N 0.44235 0.46436 -0.02953
 N743 N 0.42135 0.44183 -0.03509
 N744 N 0.46424 0.53007 -0.04826
 N745 N 0.45900 0.55131 -0.06693
 Mn746 Mn 0.44063 0.49758 -0.00063
 Mn747 Mn 0.49983 0.49829 -0.04772
 Cl748 Cl 0.49916 0.49900 -0.00007
 C749 C 0.43062 0.56450 -0.05935
 C750 C 0.43413 0.42820 -0.05748
 C751 C 0.35073 1.14425 0.12941
 C752 C 0.36172 1.14662 0.15648
 C753 C 0.34355 1.16317 0.17560
 C754 C 0.31468 1.17832 0.16829
 C755 C 0.30418 1.17688 0.14131
 C756 C 0.32184 1.15986 0.12209
 C757 C 0.37054 1.12526 0.10991
 C758 C 0.36090 1.11941 0.08296
 C759 C 0.37983 1.10057 0.06601
 C760 C 0.40892 1.08748 0.07544
 C761 C 0.41898 1.09370 0.10199
 C762 C 0.39993 1.11193 0.11930
 C763 C 0.39096 1.13272 0.16442
 C764 C 0.40984 1.11605 0.14615
 H765 H 0.39946 1.13484 0.18511
 H766 H 0.43230 1.10575 0.15330
 H767 H 0.35234 1.16473 0.19625
 H768 H 0.28211 1.18866 0.13513
 H769 H 0.37154 1.09599 0.04558
 H770 H 0.44130 1.08349 0.10957
 H771 H 0.31262 1.15937 0.10165
 H772 H 0.33858 1.12863 0.07478
 C773 C 0.84613 0.64145 0.62764
 C774 C 0.83974 0.62917 0.65370
 C775 C 0.82246 0.64682 0.67275
 C776 C 0.81111 0.67681 0.66644
 C777 C 0.81635 0.68856 0.64029
 C778 C 0.83368 0.67118 0.62112
 C779 C 0.86648 0.62242 0.60851
 C780 C 0.87580 0.63296 0.58258
 C781 C 0.89627 0.61498 0.56621
 C782 C 0.90781 0.58602 0.57519
 C783 C 0.89788 0.57491 0.60057
 C784 C 0.87769 0.59289 0.61730
 C785 C 0.85105 0.59954 0.66088
 C786 C 0.86946 0.58173 0.64303
 H787 H 0.84589 0.59007 0.68077
 H788 H 0.87795 0.55908 0.64970
 H789 H 0.81818 0.63722 0.69274
 H790 H 0.80778 0.71158 0.63484
 H791 H 0.90355 0.62404 0.54666
 H792 H 0.90663 0.55255 0.60772
 H793 H 0.83739 0.68157 0.60148
 H794 H 0.86807 0.65523 0.57478
 C795 C 0.64593 0.85494 0.12932
 C796 C 0.63476 0.85203 0.15631
 C797 C 0.65271 0.83492 0.17521
 C798 C 0.68160 0.81986 0.16776
 C799 C 0.69220 0.82177 0.14083
 C800 C 0.67472 0.83925 0.12183
 C801 C 0.62652 0.87467 0.11012
 C802 C 0.63641 0.88101 0.08332
 C803 C 0.61795 0.90058 0.06668
 C804 C 0.58909 0.91398 0.07625
 C805 C 0.57872 0.90729 0.10264
 C806 C 0.59731 0.88826 0.11966
 C807 C 0.60565 0.86610 0.16439
 C808 C 0.58716 0.88354 0.14638
 H809 H 0.59700 0.86358 0.18500
 H810 H 0.56483 0.89400 0.15366
 H811 H 0.64387 0.83304 0.19584
 H812 H 0.71429 0.81012 0.13454
 H813 H 0.62645 0.90547 0.04636
 H814 H 0.55656 0.91772 0.11031
 H815 H 0.68407 0.84013 0.10144
 H816 H 0.65858 0.87159 0.07503
 C817 C 1.15591 0.36502 0.63068
 C818 C 1.16271 0.33361 0.62388
 C819 C 1.17997 0.31450 0.64210
 C820 C 1.18969 0.32608 0.66745
 C821 C 1.18328 0.35733 0.67384
 C822 C 1.16686 0.37658 0.65576
 C823 C 1.13611 0.38425 0.61143
 C824 C 1.12812 0.41564 0.61652
 C825 C 1.10765 0.43193 0.59910
 C826 C 1.09471 0.41760 0.57599
 C827 C 1.10371 0.38680 0.56993
 C828 C 1.12422 0.37002 0.58752
 C829 C 1.15131 0.32127 0.59936
 C830 C 1.13234 0.33900 0.58167
 H831 H 1.15652 0.29727 0.59404
 H832 H 1.12353 0.32811 0.56328
 H833 H 1.18459 0.29030 0.63704
 H834 H 1.19075 0.36697 0.69314
 H835 H 1.10147 0.45580 0.60408
 H836 H 1.09400 0.37557 0.55200
 H837 H 1.16243 0.40020 0.66218
 H838 H 1.13694 0.42802 0.63403
 C839 C 0.64075 1.14652 -0.13247
 C840 C 0.67173 1.15752 -0.12428
 C841 C 0.69121 1.17465 -0.14252
 C842 C 0.68066 1.17963 -0.16922
 C843 C 0.65028 1.16797 -0.17726
 C844 C 0.63057 1.15180 -0.15924
 C845 C 0.62060 1.12846 -0.11271
 C846 C 0.58863 1.11876 -0.11852
 C847 C 0.57161 1.09994 -0.10049
 C848 C 0.58578 1.09036 -0.07609
 C849 C 0.61690 1.10145 -0.06924
 C850 C 0.63430 1.12066 -0.08734
 C851 C 0.68330 1.15046 -0.09829
 C852 C 0.66526 1.13194 -0.08041
 H853 H 0.70705 1.15867 -0.09194
 H854 H 0.67568 1.12640 -0.06086
 H855 H 0.71484 1.18326 -0.13624
 H856 H 0.64143 1.17158 -0.19767
 H857 H 0.54737 1.09232 -0.10604
 H858 H 0.62782 1.09463 -0.05017
 H859 H 0.60774 1.14317 -0.16694
 H860 H 0.57629 1.12522 -0.13692
 C861 C 1.15475 0.64159 0.37291
 C862 C 1.16043 0.62961 0.34663
 C863 C 1.17730 0.64750 0.32747
 C864 C 1.18899 0.67737 0.33390
 C865 C 1.18450 0.68879 0.36024
 C866 C 1.16754 0.67120 0.37952
 C867 C 1.13476 0.62237 0.39219
 C868 C 1.12597 0.63272 0.41828
 C869 C 1.10570 0.61463 0.43478
 C870 C 1.09390 0.58574 0.42577
 C871 C 1.10336 0.57479 0.40023
 C872 C 1.12327 0.59291 0.38335
 C873 C 1.14887 0.60004 0.33940
 C874 C 1.13087 0.58201 0.35742
 H875 H 1.15352 0.59080 0.31935
 H876 H 1.12215 0.55941 0.35071
 H877 H 1.18106 0.63816 0.30731
 H878 H 1.19339 0.71172 0.36577
 H879 H 1.09878 0.62355 0.45446
 H880 H 1.09435 0.55249 0.39305
 H881 H 1.16441 0.68134 0.39932
 H882 H 1.13390 0.65495 0.42611
 C883 C 0.35956 0.84920 -0.12824
 C884 C 0.32757 0.84049 -0.12060
 C885 C 0.30777 0.82351 -0.13874
 C886 C 0.31911 0.81651 -0.16484
 C887 C 0.35072 0.82535 -0.17221
 C888 C 0.37073 0.84126 -0.15424
 C889 C 0.37967 0.86798 -0.10891
 C890 C 0.41211 0.87646 -0.11441
 C891 C 0.42902 0.89624 -0.09707
 C892 C 0.41427 0.90796 -0.07364
 C893 C 0.38262 0.89814 -0.06698
 C894 C 0.36527 0.87813 -0.08445
 C895 C 0.31531 0.84982 -0.09539
 C896 C 0.33356 0.86862 -0.07789
 H897 H 0.29086 0.84328 -0.08943
 H898 H 0.32259 0.87598 -0.05900
 H899 H 0.28322 0.81696 -0.13304
 H900 H 0.36011 0.81995 -0.19215
 H901 H 0.45363 0.90290 -0.10241
 H902 H 0.37119 0.90670 -0.04867
 H903 H 0.39452 0.84772 -0.16148
 H904 H 0.42489 0.86844 -0.13213
 C905 C 0.84604 0.36337 0.37085
 C906 C 0.83949 0.33183 0.37751
 C907 C 0.82216 0.31266 0.35927
 C908 C 0.81214 0.32436 0.33406
 C909 C 0.81828 0.35574 0.32785
 C910 C 0.83475 0.37500 0.34593
 C911 C 0.86591 0.38268 0.39007
 C912 C 0.87372 0.41416 0.38505
 C913 C 0.89419 0.43058 0.40245
 C914 C 0.90733 0.41631 0.42548
 C915 C 0.89857 0.38536 0.43145
 C916 C 0.87805 0.36845 0.41387
 C917 C 0.85119 0.31946 0.40190
 C918 C 0.87018 0.33730 0.41959
 H919 H 0.84618 0.29538 0.40714
 H920 H 0.87919 0.32639 0.43789
 H921 H 0.81772 0.28838 0.36419
 H922 H 0.81054 0.36548 0.30867
 H923 H 0.90019 0.45453 0.39752
 H924 H 0.90845 0.37416 0.44931
 H925 H 0.83893 0.39873 0.33963
 H926 H 0.86474 0.42653 0.36762
 C927 C 1.15593 0.36574 0.13187
 C928 C 1.16490 0.33496 0.12469
 C929 C 1.18252 0.31635 0.14306
 C930 C 1.19028 0.32764 0.16899
 C931 C 1.18147 0.35819 0.17588
 C932 C 1.16477 0.37704 0.15762
 C933 C 1.13609 0.38446 0.11226
 C934 C 1.12675 0.41547 0.11740
 C935 C 1.10634 0.43125 0.09959
 C936 C 1.09468 0.41677 0.07605
 C937 C 1.10509 0.38639 0.06995
 C938 C 1.12576 0.37019 0.08787
 C939 C 1.15517 0.32265 0.09966
 C940 C 1.13576 0.33974 0.08180
 H941 H 1.16198 0.29911 0.09407
 H942 H 1.12823 0.32882 0.06303
 H943 H 1.18892 0.29264 0.13763
 H944 H 1.18728 0.36755 0.19567
 H945 H 1.09917 0.45483 0.10463
 H946 H 1.09652 0.37509 0.05165
 H947 H 1.15837 0.40010 0.16443
 H948 H 1.13459 0.42795 0.13517
 C949 C 0.64341 0.85697 0.63377
 C950 C 0.67486 0.84699 0.62595
 C951 C 0.69415 0.82969 0.64416
 C952 C 0.68285 0.82347 0.67047
 C953 C 0.65206 0.83429 0.67819
 C954 C 0.63260 0.85066 0.66020
 C955 C 0.62333 0.87497 0.61398
 C956 C 0.59097 0.88360 0.61937
 C957 C 0.57383 0.90216 0.60130
 C958 C 0.58827 0.91255 0.57724
 C959 C 0.61992 0.90265 0.57081
 C960 C 0.63745 0.88369 0.58898
 C961 C 0.68698 0.85510 0.60035
 C962 C 0.66892 0.87353 0.58247
 H963 H 0.71111 0.84773 0.59431
 H964 H 0.67971 0.87983 0.56321
 H965 H 0.71812 0.82181 0.63815
 H966 H 0.64265 0.82978 0.69830
 H967 H 0.54923 0.90888 0.60651
 H968 H 0.63108 0.91012 0.55202
 H969 H 0.60940 0.85854 0.66767
 H970 H 0.57835 0.87643 0.63746
 C971 C 1.15369 0.63362 -0.13484
 C972 C 1.17074 0.66000 -0.12512
 C973 C 1.18918 0.67858 -0.14312
 C974 C 1.18915 0.67241 -0.17126
 C975 C 1.17135 0.64629 -0.18051
 C976 C 1.15426 0.62722 -0.16272
 C977 C 1.13422 0.61444 -0.11530
 C978 C 1.11908 0.58628 -0.12279
 C979 C 1.09946 0.57018 -0.10457
 C980 C 1.09419 0.58155 -0.07832
 C981 C 1.11046 0.60885 -0.07009
 C982 C 1.13087 0.62507 -0.08832
 C983 C 1.16808 0.66833 -0.09772
 C984 C 1.14801 0.65169 -0.07990
 H985 H 1.18089 0.68864 -0.09013
 H986 H 1.14602 0.65970 -0.05916
 H987 H 1.20215 0.69868 -0.13526
 H988 H 1.17037 0.64025 -0.20179
 H989 H 1.08779 0.54892 -0.11139
 H990 H 1.10717 0.61747 -0.04965
 H991 H 1.14085 0.60807 -0.17145
 H992 H 1.12202 0.57620 -0.14262
 C993 C 0.64387 1.14361 0.36759
 C994 C 0.67534 1.15353 0.37551
 C995 C 0.69494 1.17063 0.35730
 C996 C 0.68391 1.17671 0.33090
 C997 C 0.65305 1.16598 0.32311
 C998 C 0.63330 1.14981 0.34108
 C999 C 0.62351 1.12575 0.38735
 C1000 C 0.59114 1.11708 0.38181
 C1001 C 0.57378 1.09857 0.39986
 C1002 C 0.58798 1.08830 0.42402
 C1003 C 0.61960 1.09829 0.43059
 C1004 C 0.63738 1.11716 0.41245
 C1005 C 0.68720 1.14557 0.40121
 C1006 C 0.66885 1.12731 0.41908
 H1007 H 0.71134 1.15291 0.40734
 H1008 H 0.67945 1.12110 0.43843
 H1009 H 0.71894 1.17846 0.36339
 H1010 H 0.64381 1.17041 0.30294
 H1011 H 0.54920 1.09178 0.39453
 H1012 H 0.63060 1.09090 0.44946
 H1013 H 0.61008 1.14200 0.33355
 H1014 H 0.57872 1.12414 0.36362
 C1015 C 0.84690 0.63981 0.12779
 C1016 C 0.84245 0.62827 0.15440
 C1017 C 0.82481 0.64561 0.17348
 C1018 C 0.81092 0.67442 0.16660
 C1019 C 0.81407 0.68522 0.13990
 C1020 C 0.83190 0.66825 0.12074
 C1021 C 0.86777 0.62134 0.10858
 C1022 C 0.87579 0.63159 0.08225
 C1023 C 0.89659 0.61407 0.06571
 C1024 C 0.90968 0.58581 0.07491
 C1025 C 0.90125 0.57512 0.10082
 C1026 C 0.88091 0.59271 0.11774
 C1027 C 0.85592 0.59963 0.16200
 C1028 C 0.87446 0.58211 0.14400
 H1029 H 0.85224 0.59066 0.18228
 H1030 H 0.88450 0.56019 0.15098
 H1031 H 0.82212 0.63669 0.19390
 H1032 H 0.80348 0.70729 0.13396
 H1033 H 0.90274 0.62284 0.04580
 H1034 H 0.91131 0.55338 0.10823
 H1035 H 0.83389 0.67790 0.10065
 H1036 H 0.86676 0.65331 0.07425
 C1037 C 0.34825 1.14068 0.62934
 C1038 C 0.35955 1.14397 0.65625
 C1039 C 0.34123 1.16054 0.67524
 C1040 C 0.31181 1.17479 0.66801
 C1041 C 0.30080 1.17220 0.64124
 C1042 C 0.31866 1.15517 0.62212
 C1043 C 0.36852 1.12203 0.60990
 C1044 C 0.35895 1.11568 0.58302
 C1045 C 0.37844 1.09733 0.56611
 C1046 C 0.40800 1.08518 0.57550
 C1047 C 0.41797 1.09188 0.60197
 C1048 C 0.39843 1.10970 0.61924
 C1049 C 0.38928 1.13103 0.66413
 C1050 C 0.40844 1.11452 0.64596
 H1051 H 0.39797 1.13380 0.68471
 H1052 H 0.43129 1.10498 0.65308
 H1053 H 0.35039 1.16288 0.69573
 H1054 H 0.27826 1.18316 0.63511
 H1055 H 0.37019 1.09237 0.54573
 H1056 H 0.44067 1.08242 0.60951
 H1057 H 0.30907 1.15382 0.60184
 H1058 H 0.33632 1.12421 0.57487
 C1059 C 0.84518 0.36396 -0.13016
 C1060 C 0.83702 0.33290 -0.12307
 C1061 C 0.81957 0.31396 -0.14141
 C1062 C 0.81124 0.32529 -0.16717
 C1063 C 0.81920 0.35613 -0.17391
 C1064 C 0.83570 0.37525 -0.15572
 C1065 C 0.86492 0.38304 -0.11068
 C1066 C 0.87363 0.41426 -0.11582
 C1067 C 0.89408 0.43038 -0.09821
 C1068 C 0.90634 0.41605 -0.07485
 C1069 C 0.89650 0.38545 -0.06870
 C1070 C 0.87587 0.36888 -0.08645
 C1071 C 0.84734 0.32069 -0.09819
 C1072 C 0.86660 0.33816 -0.08042
 H1073 H 0.84115 0.29695 -0.09266
 H1074 H 0.87462 0.32733 -0.06177
 H1075 H 0.81376 0.29005 -0.13610
 H1076 H 0.81285 0.36555 -0.19355
 H1077 H 0.90081 0.45411 -0.10326
 H1078 H 0.90557 0.37426 -0.05054
 H1079 H 0.84141 0.39854 -0.16244
 H1080 H 0.86533 0.42666 -0.13347
 C1081 C 0.36006 0.85349 0.36764
 C1082 C 0.32833 0.84388 0.37512
 C1083 C 0.30891 0.82718 0.35660
 C1084 C 0.32031 0.82124 0.33030
 C1085 C 0.35138 0.83170 0.32287
 C1086 C 0.37102 0.84745 0.34120
 C1087 C 0.38018 0.87101 0.38775
 C1088 C 0.41279 0.87922 0.38275
 C1089 C 0.42985 0.89774 0.40096
 C1090 C 0.41505 0.90844 0.42474
 C1091 C 0.38326 0.89869 0.43090
 C1092 C 0.36580 0.87982 0.41261
 C1093 C 0.31602 0.85185 0.40067
 C1094 C 0.33411 0.86996 0.41880
 H1095 H 0.29168 0.84472 0.40644
 H1096 H 0.32315 0.87629 0.43797
 H1097 H 0.28471 0.81958 0.36236
 H1098 H 0.36081 0.82738 0.30274
 H1099 H 0.45460 0.90430 0.39601
 H1100 H 0.37185 0.90639 0.44951
 H1101 H 0.39445 0.85514 0.33400
 H1102 H 0.42559 0.87184 0.36482
 C1103 C 1.13343 1.15430 0.37162
 C1104 C 1.16611 1.16218 0.37757
 C1105 C 1.18445 1.17986 0.35901
 C1106 C 1.17099 1.18881 0.33405
 C1107 C 1.13860 1.18106 0.32835
 C1108 C 1.11998 1.16426 0.34686
 C1109 C 1.11507 1.13429 0.39128
 C1110 C 1.08235 1.12578 0.38728
 C1111 C 1.06706 1.10495 0.40474
 C1112 C 1.08374 1.09216 0.42684
 C1113 C 1.11576 1.10186 0.43206
 C1114 C 1.13154 1.12282 0.41440
 C1115 C 1.18057 1.15136 0.40148
 C1116 C 1.16378 1.13186 0.41935
 H1117 H 1.20559 1.15737 0.40610
 H1118 H 1.17637 1.12343 0.43717
 H1119 H 1.20964 1.18542 0.36345
 H1120 H 1.12762 1.18780 0.30930
 H1121 H 1.04212 1.09835 0.40053
 H1122 H 1.12872 1.09234 0.44928
 H1123 H 1.09540 1.15871 0.34099
 H1124 H 1.06816 1.13451 0.37060
 C1125 C 0.63187 0.65377 -0.12932
 C1126 C 0.66443 0.66183 -0.12311
 C1127 C 0.68314 0.67881 -0.14184
 C1128 C 0.67021 0.68684 -0.16720
 C1129 C 0.63797 0.67884 -0.17322
 C1130 C 0.61896 0.66273 -0.15456
 C1131 C 0.61312 0.63452 -0.10943
 C1132 C 0.58042 0.62605 -0.11359
 C1133 C 0.56489 0.60558 -0.09598
 C1134 C 0.58135 0.59319 -0.07361
 C1135 C 0.61321 0.60309 -0.06812
 C1136 C 0.62922 0.62367 -0.08591
 C1137 C 0.67844 0.65184 -0.09874
 C1138 C 0.66134 0.63285 -0.08070
 H1139 H 0.70335 0.65802 -0.09394
 H1140 H 0.67359 0.62493 -0.06254
 H1141 H 0.70821 0.68460 -0.13715
 H1142 H 0.62738 0.68492 -0.19259
 H1143 H 0.54003 0.59883 -0.10033
 H1144 H 0.62594 0.59391 -0.05065
 H1145 H 0.59454 0.65688 -0.16066
 H1146 H 0.56647 0.63449 -0.13052
 C1147 C 0.85839 1.15344 0.62529
 C1148 C 0.87283 1.16015 0.65068
 C1149 C 0.85579 1.17743 0.67012
 C1150 C 0.82447 1.18864 0.66472
 C1151 C 0.81069 1.18324 0.63916
 C1152 C 0.82735 1.16578 0.61968
 C1153 C 0.87662 1.13293 0.60588
 C1154 C 0.86369 1.12286 0.58087
 C1155 C 0.88103 1.10217 0.56437
 C1156 C 0.91167 1.09127 0.57233
 C1157 C 0.92514 1.10200 0.59669
 C1158 C 0.90783 1.12225 0.61358
 C1159 C 0.90403 1.14924 0.65675
 C1160 C 0.92126 1.13093 0.63850
 H1161 H 0.91520 1.15469 0.67606
 H1162 H 0.94521 1.12278 0.64430
 H1163 H 0.86689 1.18192 0.68965
 H1164 H 0.78656 1.19175 0.63445
 H1165 H 0.87016 1.09422 0.54562
 H1166 H 0.94885 1.09376 0.60306
 H1167 H 0.81538 1.16193 0.60054
 H1168 H 0.83999 1.13009 0.57400
 C1169 C 0.35841 0.65165 0.12542
 C1170 C 0.37305 0.65847 0.15070
 C1171 C 0.35599 0.67546 0.17028
 C1172 C 0.32447 0.68626 0.16511
 C1173 C 0.31047 0.68073 0.13966
 C1174 C 0.32714 0.66356 0.12005
 C1175 C 0.37666 0.63146 0.10584
 C1176 C 0.36351 0.62130 0.08094
 C1177 C 0.38081 0.60074 0.06433
 C1178 C 0.41160 0.59009 0.07209
 C1179 C 0.42534 0.60101 0.09628
 C1180 C 0.40807 0.62111 0.11329
 C1181 C 0.40447 0.64797 0.15650
 C1182 C 0.42172 0.62990 0.13809
 H1183 H 0.41578 0.65352 0.17573
 H1184 H 0.44583 0.62202 0.14368
 H1185 H 0.36725 0.68011 0.18973
 H1186 H 0.28619 0.68898 0.13513
 H1187 H 0.36976 0.59264 0.04571
 H1188 H 0.44920 0.59297 0.10245
 H1189 H 0.31500 0.65964 0.10100
 H1190 H 0.33966 0.62830 0.07424
 C1191 C 1.13414 0.85205 0.63604
 C1192 C 1.16268 0.83686 0.62717
 C1193 C 1.18073 0.81839 0.64536
 C1194 C 1.17184 0.81633 0.67297
 C1195 C 1.14371 0.83236 0.68149
 C1196 C 1.12515 0.84964 0.66341
 C1197 C 1.11548 0.87145 0.61625
 C1198 C 1.08529 0.88487 0.62268
 C1199 C 1.06969 0.90439 0.60441
 C1200 C 1.08359 0.91120 0.57916
 C1201 C 1.11291 0.89668 0.57186
 C1202 C 1.12870 0.87646 0.59015
 C1203 C 1.17363 0.84124 0.60053
 C1204 C 1.15743 0.86116 0.58262
 H1205 H 1.19565 0.82986 0.59366
 H1206 H 1.16744 0.86449 0.56253
 H1207 H 1.20250 0.80684 0.63811
 H1208 H 1.13568 0.83174 0.70238
 H1209 H 1.04677 0.91469 0.61044
 H1210 H 1.12348 0.90123 0.55214
 H1211 H 1.10431 0.86162 0.67156
 H1212 H 1.07321 0.88064 0.64170
 C1213 C 0.63967 0.34939 0.12870
 C1214 C 0.62623 0.34404 0.15470
 C1215 C 0.64359 0.32688 0.17401
 C1216 C 0.67425 0.31452 0.16786
 C1217 C 0.68701 0.31876 0.14177
 C1218 C 0.67003 0.33600 0.12243
 C1219 C 0.62120 0.36956 0.10928
 C1220 C 0.63332 0.37814 0.08359
 C1221 C 0.61586 0.39846 0.06693
 C1222 C 0.58589 0.41047 0.07538
 C1223 C 0.57319 0.40134 0.10051
 C1224 C 0.59069 0.38143 0.11757
 C1225 C 0.59569 0.35612 0.16143
 C1226 C 0.57818 0.37421 0.14318
 H1227 H 0.58526 0.35175 0.18122
 H1228 H 0.55477 0.38327 0.14945
 H1229 H 0.63326 0.32334 0.19398
 H1230 H 0.71058 0.30935 0.13643
 H1231 H 0.62611 0.40518 0.04758
 H1232 H 0.55002 0.41054 0.10726
 H1233 H 0.68123 0.33878 0.10284
 H1234 H 0.65647 0.36999 0.07622
 C1235 C 0.86628 0.84587 0.36939
 C1236 C 0.83374 0.83771 0.37559
 C1237 C 0.81516 0.82045 0.35693
 C1238 C 0.82819 0.81226 0.33163
 C1239 C 0.86035 0.82053 0.32555
 C1240 C 0.87923 0.83690 0.34416
 C1241 C 0.88501 0.86509 0.38936
 C1242 C 0.91780 0.87336 0.38534
 C1243 C 0.93349 0.89344 0.40322
 C1244 C 0.91712 0.90572 0.42570
 C1245 C 0.88504 0.89618 0.43090
 C1246 C 0.86891 0.87590 0.41289
 C1247 C 0.81965 0.84780 0.39990
 C1248 C 0.83671 0.86681 0.41798
 H1249 H 0.79472 0.84163 0.40468
 H1250 H 0.82442 0.87472 0.43612
 H1251 H 0.79013 0.81453 0.36163
 H1252 H 0.87098 0.81441 0.30620
 H1253 H 0.95846 0.89992 0.39900
 H1254 H 0.87234 0.90524 0.44844
 H1255 H 0.90362 0.84290 0.33804
 H1256 H 0.93175 0.86496 0.36838
 C1257 C 0.36843 0.34260 -0.12936
 C1258 C 0.33578 0.33470 -0.12334
 C1259 C 0.31716 0.31781 -0.14218
 C1260 C 0.33027 0.30974 -0.16747
 C1261 C 0.36260 0.31755 -0.17332
 C1262 C 0.38154 0.33356 -0.15451
 C1263 C 0.38704 0.36184 -0.10936
 C1264 C 0.41982 0.37016 -0.11329
 C1265 C 0.43521 0.39068 -0.09564
 C1266 C 0.41851 0.40329 -0.07347
 C1267 C 0.38656 0.39351 -0.06820
 C1268 C 0.37071 0.37286 -0.08601
 C1269 C 0.32155 0.34479 -0.09910
 C1270 C 0.33851 0.36380 -0.08099
 H1271 H 0.29656 0.33873 -0.09446
 H1272 H 0.32609 0.37184 -0.06296
 H1273 H 0.29201 0.31220 -0.13764
 H1274 H 0.37329 0.31146 -0.19265
 H1275 H 0.46014 0.39734 -0.09983
 H1276 H 0.37364 0.40283 -0.05087
 H1277 H 0.40605 0.33929 -0.16046
 H1278 H 0.43394 0.36157 -0.13008
 C1279 C 1.15477 0.36367 -0.13025
 C1280 C 1.16295 0.33264 -0.12321
 C1281 C 1.18002 0.31375 -0.14171
 C1282 C 1.18777 0.32506 -0.16760
 C1283 C 1.17945 0.35574 -0.17443
 C1284 C 1.16339 0.37484 -0.15607
 C1285 C 1.13576 0.38282 -0.11049
 C1286 C 1.12774 0.41421 -0.11537
 C1287 C 1.10757 0.43034 -0.09768
 C1288 C 1.09500 0.41584 -0.07450
 C1289 C 1.10448 0.38519 -0.06842
 C1290 C 1.12486 0.36861 -0.08626
 C1291 C 1.15296 0.32043 -0.09821
 C1292 C 1.13394 0.33786 -0.08032
 H1293 H 1.15914 0.29669 -0.09274
 H1294 H 1.12602 0.32702 -0.06162
 H1295 H 1.18608 0.28993 -0.13639
 H1296 H 1.18535 0.36509 -0.19421
 H1297 H 1.10122 0.45419 -0.10256
 H1298 H 1.09526 0.37394 -0.05033
 H1299 H 1.15732 0.39799 -0.16284
 H1300 H 1.13638 0.42672 -0.13288
 C1301 C 0.64090 0.85036 0.37004
 C1302 C 0.67356 0.84287 0.37639
 C1303 C 0.69249 0.82549 0.35796
 C1304 C 0.67955 0.81659 0.33277
 C1305 C 0.64729 0.82431 0.32662
 C1306 C 0.62817 0.84073 0.34493
 C1307 C 0.62165 0.86945 0.38975
 C1308 C 0.58872 0.87688 0.38555
 C1309 C 0.57238 0.89661 0.40326
 C1310 C 0.58816 0.90941 0.42583
 C1311 C 0.62052 0.90085 0.43116
 C1312 C 0.63733 0.88088 0.41327
 C1313 C 0.68729 0.85369 0.40064
 C1314 C 0.66972 0.87260 0.41849
 H1315 H 0.71230 0.84811 0.40557
 H1316 H 0.68175 0.88099 0.43660
 H1317 H 0.71757 0.81997 0.36272
 H1318 H 0.63669 0.81763 0.30739
 H1319 H 0.54726 0.90229 0.39890
 H1320 H 0.63284 0.91032 0.44874
 H1321 H 0.60374 0.84618 0.33866
 H1322 H 0.57507 0.86801 0.36858
 C1323 C 0.84995 0.64042 -0.12922
 C1324 C 0.84625 0.62944 -0.15608
 C1325 C 0.82922 0.64722 -0.17516
 C1326 C 0.81515 0.67582 -0.16796
 C1327 C 0.81780 0.68621 -0.14113
 C1328 C 0.83508 0.66884 -0.12199
 C1329 C 0.86983 0.62134 -0.10988
 C1330 C 0.87697 0.63104 -0.08324
 C1331 C 0.89693 0.61302 -0.06651
 C1332 C 0.90996 0.58483 -0.07584
 C1333 C 0.90231 0.57460 -0.10202
 C1334 C 0.88285 0.59272 -0.11915
 C1335 C 0.85961 0.60082 -0.16385
 C1336 C 0.87726 0.58272 -0.14571
 H1337 H 0.85648 0.59230 -0.18434
 H1338 H 0.88725 0.56080 -0.15277
 H1339 H 0.82681 0.63863 -0.19571
 H1340 H 0.80696 0.70810 -0.13500
 H1341 H 0.90254 0.62140 -0.04636
 H1342 H 0.91241 0.55290 -0.10948
 H1343 H 0.83654 0.67810 -0.10173
 H1344 H 0.86797 0.65272 -0.07512
 C1345 C 0.35933 1.14708 0.36925
 C1346 C 0.32722 1.15553 0.37657
 C1347 C 0.30793 1.17315 0.35857
 C1348 C 0.31995 1.18139 0.33292
 C1349 C 0.35172 1.17281 0.32586
 C1350 C 0.37119 1.15611 0.34369
 C1351 C 0.37895 1.12774 0.38852
 C1352 C 0.41139 1.11919 0.38328
 C1353 C 0.42805 1.09948 0.40081
 C1354 C 0.41307 1.08779 0.42419
 C1355 C 0.38122 1.09730 0.43040
 C1356 C 0.36411 1.11726 0.41274
 C1357 C 0.31435 1.14549 0.40139
 C1358 C 0.33225 1.12649 0.41892
 H1359 H 0.28978 1.15181 0.40708
 H1360 H 0.32089 1.11879 0.43756
 H1361 H 0.28325 1.17938 0.36408
 H1362 H 0.36166 1.17903 0.30627
 H1363 H 0.45275 1.09297 0.39572
 H1364 H 0.36953 1.08867 0.44859
 H1365 H 0.39518 1.15002 0.33673
 H1366 H 0.42440 1.12719 0.36566
 C1367 C 1.15140 0.63753 0.13166
 C1368 C 1.16098 0.66797 0.12386
 C1369 C 1.17756 0.68732 0.14235
 C1370 C 1.18337 0.67711 0.16892
 C1371 C 1.17316 0.64718 0.17661
 C1372 C 1.15756 0.62762 0.15831
 C1373 C 1.13365 0.61762 0.11167
 C1374 C 1.12520 0.58642 0.11710
 C1375 C 1.10622 0.56956 0.09897
 C1376 C 1.09528 0.58316 0.07487
 C1377 C 1.10536 0.61355 0.06830
 C1378 C 1.12466 0.63080 0.08651
 C1379 C 1.15298 0.67912 0.09803
 C1380 C 1.13470 0.66115 0.07994
 H1381 H 1.16015 0.70245 0.09200
 H1382 H 1.12828 0.67119 0.06054
 H1383 H 1.18503 0.71058 0.13635
 H1384 H 1.17745 0.63864 0.19693
 H1385 H 1.09943 0.54590 0.10425
 H1386 H 1.09749 0.62405 0.04946
 H1387 H 1.14999 0.60510 0.16571
 H1388 H 1.13268 0.57461 0.13531
 C1389 C 0.63797 1.15235 0.62968
 C1390 C 0.67040 1.16037 0.62285
 C1391 C 0.68961 1.17771 0.64112
 C1392 C 0.67720 1.18608 0.66659
 C1393 C 0.64508 1.17809 0.67315
 C1394 C 0.62567 1.16169 0.65500
 C1395 C 0.61858 1.13295 0.61025
 C1396 C 0.58595 1.12459 0.61507
 C1397 C 0.56963 1.10449 0.59760
 C1398 C 0.58515 1.09226 0.57470
 C1399 C 0.61711 1.10175 0.56879
 C1400 C 0.63390 1.12203 0.58641
 C1401 C 0.68370 1.15005 0.59830
 C1402 C 0.66598 1.13102 0.58063
 H1403 H 0.70850 1.15610 0.59298
 H1404 H 0.67769 1.12300 0.56225
 H1405 H 0.71456 1.18350 0.63604
 H1406 H 0.63489 1.18444 0.69261
 H1407 H 0.54481 1.09801 0.60241
 H1408 H 0.62920 1.09270 0.55095
 H1409 H 0.60138 1.15598 0.66157
 H1410 H 0.57259 1.13295 0.63236
 C1411 C 0.84903 0.36424 0.13237
 C1412 C 0.83927 0.33385 0.12457
 C1413 C 0.82218 0.31473 0.14293
 C1414 C 0.81594 0.32512 0.16938
 C1415 C 0.82601 0.35512 0.17700
 C1416 C 0.84215 0.37446 0.15882
 C1417 C 0.86769 0.38376 0.11260
 C1418 C 0.87693 0.41474 0.11814
 C1419 C 0.89654 0.43120 0.10016
 C1420 C 0.90737 0.41740 0.07609
 C1421 C 0.89672 0.38720 0.06950
 C1422 C 0.87682 0.37035 0.08755
 C1423 C 0.84759 0.32247 0.09889
 C1424 C 0.86639 0.34014 0.08095
 H1425 H 0.84024 0.29920 0.09285
 H1426 H 0.87297 0.32993 0.06165
 H1427 H 0.81478 0.29143 0.13698
 H1428 H 0.82134 0.36380 0.19722
 H1429 H 0.90386 0.45469 0.10550
 H1430 H 0.90456 0.37653 0.05072
 H1431 H 0.84956 0.39704 0.16618
 H1432 H 0.86961 0.42668 0.13633
 C1433 C 0.35534 0.85988 0.63668
 C1434 C 0.32895 0.84197 0.62688
 C1435 C 0.31011 0.82385 0.64497
 C1436 C 0.31627 0.82459 0.67315
 C1437 C 0.34164 0.84410 0.68248
 C1438 C 0.36081 0.86118 0.66469
 C1439 C 0.37577 0.87779 0.61698
 C1440 C 0.40476 0.89285 0.62466
 C1441 C 0.42242 0.91035 0.60608
 C1442 C 0.41181 0.91355 0.57926
 C1443 C 0.38361 0.89755 0.57095
 C1444 C 0.36589 0.87915 0.58958
 C1445 C 0.32119 0.84301 0.59921
 C1446 C 0.33874 0.86180 0.58111
 H1447 H 0.30076 0.82968 0.59153
 H1448 H 0.33125 0.86235 0.56009
 H1449 H 0.29031 0.80981 0.63706
 H1450 H 0.34735 0.84615 0.70383
 H1451 H 0.44432 0.92193 0.61301
 H1452 H 0.37561 0.89927 0.55010
 H1453 H 0.37948 0.87570 0.67344
 H1454 H 0.41443 0.89125 0.64490
 C1455 C 0.36094 1.14921 -0.13127
 C1456 C 0.32947 1.15925 -0.12356
 C1457 C 0.31044 1.17691 -0.14169
 C1458 C 0.32192 1.18347 -0.16786
 C1459 C 0.35299 1.17325 -0.17536
 C1460 C 0.37231 1.15657 -0.15738
 C1461 C 0.38026 1.12988 -0.11181
 C1462 C 0.41227 1.12019 -0.11730
 C1463 C 0.42852 1.10036 -0.09963
 C1464 C 0.41354 1.08965 -0.07588
 C1465 C 0.38225 1.10045 -0.06938
 C1466 C 0.36559 1.12063 -0.08715
 C1467 C 0.31689 1.15061 -0.09825
 C1468 C 0.33435 1.13136 -0.08062
 H1469 H 0.29280 1.15815 -0.09226
 H1470 H 0.32316 1.12468 -0.06162
 H1471 H 0.28626 1.18441 -0.13586
 H1472 H 0.36247 1.17814 -0.19539
 H1473 H 0.45286 1.09293 -0.10494
 H1474 H 0.37063 1.09268 -0.05087
 H1475 H 0.39573 1.14909 -0.16468
 H1476 H 0.42523 1.12741 -0.13521
 C1477 C 0.85308 0.64439 0.37071
 C1478 C 0.84857 0.63311 0.34405
 C1479 C 0.83204 0.65119 0.32492
 C1480 C 0.81935 0.68050 0.33178
 C1481 C 0.82314 0.69144 0.35835
 C1482 C 0.83989 0.67371 0.37759
 C1483 C 0.87198 0.62463 0.39022
 C1484 C 0.87925 0.63412 0.41688
 C1485 C 0.89827 0.61539 0.43376
 C1486 C 0.91027 0.58671 0.42456
 C1487 C 0.90238 0.57664 0.39840
 C1488 C 0.88375 0.59541 0.38115
 C1489 C 0.86058 0.60387 0.33650
 C1490 C 0.87763 0.58534 0.35470
 H1491 H 0.85688 0.59519 0.31612
 H1492 H 0.88663 0.56296 0.34780
 H1493 H 0.82884 0.64219 0.30457
 H1494 H 0.81345 0.71393 0.36421
 H1495 H 0.90404 0.62364 0.45392
 H1496 H 0.91161 0.55453 0.39108
 H1497 H 0.84224 0.68337 0.39764
 H1498 H 0.87103 0.65612 0.42491
 C1499 C 0.63775 1.15293 0.13047
 C1500 C 0.66959 1.16227 0.12301
 C1501 C 0.68885 1.17972 0.14121
 C1502 C 0.67718 1.18680 0.16722
 C1503 C 0.64564 1.17745 0.17440
 C1504 C 0.62613 1.16099 0.15634
 C1505 C 0.61830 1.13355 0.11104
 C1506 C 0.58610 1.12416 0.11639
 C1507 C 0.56974 1.10422 0.09880
 C1508 C 0.58479 1.09311 0.07524
 C1509 C 0.61629 1.10359 0.06887
 C1510 C 0.63309 1.12382 0.08658
 C1511 C 0.68230 1.15313 0.09789
 C1512 C 0.66462 1.13402 0.08024
 H1513 H 0.70665 1.16017 0.09209
 H1514 H 0.67592 1.12694 0.06141
 H1515 H 0.71335 1.18656 0.13562
 H1516 H 0.63599 1.18279 0.19427
 H1517 H 0.54527 1.09699 0.10401
 H1518 H 0.62801 1.09547 0.05053
 H1519 H 0.60235 1.15420 0.16340
 H1520 H 0.57309 1.13164 0.13418
 C1521 C 1.15251 0.64161 0.62971
 C1522 C 1.15748 0.67348 0.62325
 C1523 C 1.17398 0.69323 0.64158
 C1524 C 1.18461 0.68164 0.66663
 C1525 C 1.17999 0.64996 0.67259
 C1526 C 1.16439 0.63022 0.65448
 C1527 C 1.13361 0.62156 0.61047
 C1528 C 1.12740 0.58972 0.61538
 C1529 C 1.10756 0.57255 0.59807
 C1530 C 1.09358 0.58643 0.57525
 C1531 C 1.10088 0.61772 0.56930
 C1532 C 1.12067 0.63541 0.58683
 C1533 C 1.14511 0.68550 0.59897
 C1534 C 1.12696 0.66693 0.58123
 H1535 H 1.14891 0.70982 0.59386
 H1536 H 1.11732 0.67754 0.56303
 H1537 H 1.17741 0.71771 0.63684
 H1538 H 1.18843 0.64026 0.69158
 H1539 H 1.10267 0.54835 0.60291
 H1540 H 1.09031 0.62860 0.55157
 H1541 H 1.16144 0.60629 0.66064
 H1542 H 1.13712 0.57760 0.63266
 C1543 C 0.64360 0.84974 -0.12643
 C1544 C 0.63102 0.84518 -0.15282
 C1545 C 0.64858 0.82789 -0.17191
 C1546 C 0.67853 0.81436 -0.16522
 C1547 C 0.69039 0.81760 -0.13874
 C1548 C 0.67326 0.83520 -0.11958
 C1549 C 0.62484 0.87015 -0.10724
 C1550 C 0.63613 0.87831 -0.08119
 C1551 C 0.61828 0.89865 -0.06471
 C1552 C 0.58867 0.91107 -0.07370
 C1553 C 0.57692 0.90247 -0.09928
 C1554 C 0.59483 0.88264 -0.11615
 C1555 C 0.60106 0.85807 -0.16019
 C1556 C 0.58321 0.87611 -0.14216
 H1557 H 0.59131 0.85426 -0.18031
 H1558 H 0.56023 0.88569 -0.14893
 H1559 H 0.63884 0.82499 -0.19216
 H1560 H 0.71337 0.80719 -0.13304
 H1561 H 0.62787 0.90498 -0.04504
 H1562 H 0.55413 0.91202 -0.10652
 H1563 H 0.68369 0.83731 -0.09963
 H1564 H 0.65895 0.86976 -0.07343
 C1565 C 1.15253 0.36217 0.37057
 C1566 C 1.15917 0.33076 0.37751
 C1567 C 1.17582 0.31132 0.35915
 C1568 C 1.18487 0.32260 0.33354
 C1569 C 1.17819 0.35373 0.32690
 C1570 C 1.16245 0.37326 0.34507
 C1571 C 1.13389 0.38194 0.39012
 C1572 C 1.12689 0.41356 0.38513
 C1573 C 1.10720 0.43039 0.40273
 C1574 C 1.09415 0.41637 0.42592
 C1575 C 1.10246 0.38540 0.43202
 C1576 C 1.12223 0.36809 0.41425
 C1577 C 1.14823 0.31881 0.40232
 C1578 C 1.12987 0.33697 0.42016
 H1579 H 1.15324 0.29481 0.40774
 H1580 H 1.12128 0.32638 0.43876
 H1581 H 1.18068 0.28721 0.36437
 H1582 H 1.18519 0.36315 0.30739
 H1583 H 1.10163 0.45441 0.39781
 H1584 H 1.09275 0.37447 0.45009
 H1585 H 1.15778 0.39675 0.33841
 H1586 H 1.13593 0.42576 0.36760
 C1587 C 0.36334 0.84713 0.12938
 C1588 C 0.33120 0.83843 0.12227
 C1589 C 0.31205 0.82091 0.14048
 C1590 C 0.32420 0.81310 0.16616
 C1591 C 0.35611 0.82160 0.17293
 C1592 C 0.37549 0.83814 0.15484
 C1593 C 0.38255 0.86690 0.11011
 C1594 C 0.41485 0.87611 0.11530
 C1595 C 0.43090 0.89661 0.09799
 C1596 C 0.41544 0.90839 0.07490
 C1597 C 0.38387 0.89806 0.06862
 C1598 C 0.36734 0.87739 0.08608
 C1599 C 0.31807 0.84829 0.09752
 C1600 C 0.33561 0.86761 0.07997
 H1601 H 0.29350 0.84168 0.09197
 H1602 H 0.32401 0.87527 0.06144
 H1603 H 0.28728 0.81465 0.13521
 H1604 H 0.36613 0.81561 0.19253
 H1605 H 0.45544 0.90373 0.10308
 H1606 H 0.37184 0.90676 0.05063
 H1607 H 0.39958 0.84428 0.16160
 H1608 H 0.42814 0.86815 0.13276
 C1609 C 0.84957 0.36268 0.63155
 C1610 C 0.84158 0.33169 0.62410
 C1611 C 0.82477 0.31226 0.64239
 C1612 C 0.81699 0.32305 0.66843
 C1613 C 0.82527 0.35366 0.67568
 C1614 C 0.84115 0.37324 0.65757
 C1615 C 0.86803 0.38254 0.61192
 C1616 C 0.87579 0.41395 0.61722
 C1617 C 0.89534 0.43081 0.59949
 C1618 C 0.90750 0.41701 0.57589
 C1619 C 0.89832 0.38631 0.56948
 C1620 C 0.87860 0.36901 0.58733
 C1621 C 0.85135 0.32012 0.59884
 C1622 C 0.86984 0.33824 0.58101
 H1623 H 0.84535 0.29642 0.59306
 H1624 H 0.87755 0.32792 0.56205
 H1625 H 0.81874 0.28850 0.63674
 H1626 H 0.81934 0.36268 0.69556
 H1627 H 0.90154 0.45465 0.60464
 H1628 H 0.90726 0.37560 0.55106
 H1629 H 0.84711 0.39631 0.66467
 H1630 H 0.86739 0.42595 0.63506
 C1631 C 1.13343 1.15331 0.63075
 C1632 C 1.16596 1.16144 0.62446
 C1633 C 1.18462 1.17872 0.64307
 C1634 C 1.17164 1.18687 0.66839
 C1635 C 1.13952 1.17856 0.67456
 C1636 C 1.12058 1.16221 0.65602
 C1637 C 1.11458 1.13414 0.61085
 C1638 C 1.08175 1.12607 0.61491
 C1639 C 1.06598 1.10590 0.59718
 C1640 C 1.08232 1.09337 0.57480
 C1641 C 1.11441 1.10280 0.56948
 C1642 C 1.13062 1.12317 0.58735
 C1643 C 1.17995 1.15128 0.60013
 C1644 C 1.16282 1.13219 0.58216
 H1645 H 1.20487 1.15741 0.59528
 H1646 H 1.17505 1.12418 0.56402
 H1647 H 1.20962 1.18470 0.63832
 H1648 H 1.12894 1.18468 0.69393
 H1649 H 1.04099 1.09953 0.60144
 H1650 H 1.12706 1.09357 0.55199
 H1651 H 1.09624 1.15617 0.66223
 H1652 H 1.06783 1.13468 0.63180
 C1653 C 0.63366 0.65149 0.13070
 C1654 C 0.66593 0.66014 0.12399
 C1655 C 0.68489 0.67705 0.14264
 C1656 C 0.67250 0.68426 0.16837
 C1657 C 0.64070 0.67531 0.17498
 C1658 C 0.62145 0.65933 0.15644
 C1659 C 0.61442 0.63288 0.11070
 C1660 C 0.58172 0.62456 0.11512
 C1661 C 0.56565 0.60480 0.09725
 C1662 C 0.58155 0.59296 0.07438
 C1663 C 0.61342 0.60276 0.06869
 C1664 C 0.62993 0.62273 0.08669
 C1665 C 0.67934 0.65087 0.09918
 C1666 C 0.66191 0.63216 0.08111
 H1667 H 0.70406 0.65740 0.09400
 H1668 H 0.67372 0.62479 0.06258
 H1669 H 0.70965 0.68354 0.13754
 H1670 H 0.63056 0.68072 0.19467
 H1671 H 0.54080 0.59816 0.10178
 H1672 H 0.62571 0.59410 0.05080
 H1673 H 0.59739 0.65276 0.16299
 H1674 H 0.56815 0.63266 0.13240
 C1675 C 1.14522 0.85105 0.37317
 C1676 C 1.13146 0.84529 0.34736
 C1677 C 1.14888 0.82850 0.32787
 C1678 C 1.17987 0.81670 0.33362
 C1679 C 1.19314 0.82142 0.35946
 C1680 C 1.17614 0.83851 0.37900
 C1681 C 1.12628 0.87055 0.39289
 C1682 C 1.13835 0.87947 0.41851
 C1683 C 1.12021 0.89901 0.43547
 C1684 C 1.08960 0.90987 0.42734
 C1685 C 1.07705 0.90036 0.40229
 C1686 C 1.09516 0.88128 0.38497
 C1687 C 1.10042 0.85638 0.34100
 C1688 C 1.08255 0.87376 0.35948
 H1689 H 1.08981 0.85168 0.32133
 H1690 H 1.05870 0.88199 0.35350
 H1691 H 1.13813 0.82450 0.30813
 H1692 H 1.21700 0.81240 0.36441
 H1693 H 1.13039 0.90607 0.45474
 H1694 H 1.05341 0.90862 0.39577
 H1695 H 1.18763 0.84172 0.39842
 H1696 H 1.16195 0.87216 0.42557
 C1697 C 0.64270 0.34883 -0.12610
 C1698 C 0.62853 0.34240 -0.15164
 C1699 C 0.64594 0.32569 -0.17116
 C1700 C 0.67729 0.31468 -0.16568
 C1701 C 0.69089 0.31985 -0.14004
 C1702 C 0.67390 0.33684 -0.12047
 C1703 C 0.62395 0.36860 -0.10652
 C1704 C 0.63654 0.37839 -0.08131
 C1705 C 0.61873 0.39846 -0.06463
 C1706 C 0.58795 0.40898 -0.07262
 C1707 C 0.57480 0.39846 -0.09714
 C1708 C 0.59259 0.37887 -0.11422
 C1709 C 0.59719 0.35288 -0.15774
 C1710 C 0.57948 0.37049 -0.13932
 H1711 H 0.58627 0.34761 -0.17718
 H1712 H 0.55542 0.37833 -0.14512
 H1713 H 0.63498 0.32124 -0.19076
 H1714 H 0.71505 0.31139 -0.13533
 H1715 H 0.62934 0.40628 -0.04575
 H1716 H 0.55098 0.40643 -0.10350
 H1717 H 0.68567 0.34050 -0.10122
 H1718 H 0.66034 0.37145 -0.07443
 C1719 C 0.86470 1.14962 0.36869
 C1720 C 0.83242 1.15817 0.37535
 C1721 C 0.81385 1.17590 0.35703
 C1722 C 0.82668 1.18417 0.33167
 C1723 C 0.85857 1.17548 0.32518
 C1724 C 0.87740 1.15864 0.34340
 C1725 C 0.88349 1.13006 0.38829
 C1726 C 0.91605 1.12142 0.38376
 C1727 C 0.93182 1.10121 0.40140
 C1728 C 0.91579 1.08918 0.42415
 C1729 C 0.88393 1.09896 0.42979
 C1730 C 0.86770 1.11938 0.41202
 C1731 C 0.81863 1.14807 0.39979
 C1732 C 0.83574 1.12878 0.41757
 H1733 H 0.79391 1.15451 0.40494
 H1734 H 0.82369 1.12094 0.43586
 H1735 H 0.78904 1.18221 0.36205
 H1736 H 0.86909 1.18171 0.30581
 H1737 H 0.95662 1.09453 0.39684
 H1738 H 0.87148 1.09008 0.44754
 H1739 H 0.90155 1.15240 0.33692
 H1740 H 0.92978 1.12967 0.36661
 C1741 C 0.36301 0.64773 -0.13216
 C1742 C 0.33078 0.65645 -0.12559
 C1743 C 0.31239 0.67422 -0.14398
 C1744 C 0.32534 0.68236 -0.16934
 C1745 C 0.35706 0.67320 -0.17588
 C1746 C 0.37572 0.65629 -0.15758
 C1747 C 0.38175 0.62853 -0.11230
 C1748 C 0.41446 0.62028 -0.11650
 C1749 C 0.43025 0.60039 -0.09863
 C1750 C 0.41406 0.58827 -0.07597
 C1751 C 0.38206 0.59778 -0.07059
 C1752 C 0.36584 0.61795 -0.08857
 C1753 C 0.31686 0.64654 -0.10113
 C1754 C 0.33384 0.62731 -0.08322
 H1755 H 0.29214 0.65309 -0.09608
 H1756 H 0.32169 0.61959 -0.06493
 H1757 H 0.28767 0.68081 -0.13894
 H1758 H 0.36762 0.67922 -0.19528
 H1759 H 0.45519 0.59399 -0.10296
 H1760 H 0.36954 0.58888 -0.05288
 H1761 H 0.39977 0.64968 -0.16405
 H1762 H 0.42831 0.62865 -0.13355
 C1763 C 0.86307 0.84895 0.63160
 C1764 C 0.83064 0.84056 0.62522
 C1765 C 0.81202 0.82320 0.64384
 C1766 C 0.82496 0.81522 0.66922
 C1767 C 0.85693 0.82392 0.67549
 C1768 C 0.87581 0.84037 0.65698
 C1769 C 0.88199 0.86795 0.61162
 C1770 C 0.91476 0.87614 0.61576
 C1771 C 0.93066 0.89602 0.59788
 C1772 C 0.91453 0.90815 0.57524
 C1773 C 0.88248 0.89863 0.56987
 C1774 C 0.86612 0.87854 0.58792
 C1775 C 0.81677 0.85044 0.60076
 C1776 C 0.83397 0.86939 0.58269
 H1777 H 0.79191 0.84413 0.59585
 H1778 H 0.82184 0.87712 0.56442
 H1779 H 0.78713 0.81692 0.63900
 H1780 H 0.86750 0.81796 0.69489
 H1781 H 0.95562 0.90244 0.60220
 H1782 H 0.86997 0.90757 0.55219
 H1783 H 0.90004 0.84666 0.66328
 H1784 H 0.92858 0.86779 0.63281
 C1785 C 0.36482 0.34656 0.13059
 C1786 C 0.33228 0.33835 0.12439
 C1787 C 0.31362 0.32132 0.14319
 C1788 C 0.32662 0.31350 0.16858
 C1789 C 0.35875 0.32189 0.17463
 C1790 C 0.37767 0.33799 0.15593
 C1791 C 0.38367 0.36547 0.11052
 C1792 C 0.41648 0.37364 0.11454
 C1793 C 0.43221 0.39368 0.09669
 C1794 C 0.41588 0.40594 0.07421
 C1795 C 0.38385 0.39634 0.06889
 C1796 C 0.36765 0.37614 0.08691
 C1797 C 0.31831 0.34818 0.09996
 C1798 C 0.33546 0.36703 0.08180
 H1799 H 0.29340 0.34197 0.09517
 H1800 H 0.32324 0.37480 0.06359
 H1801 H 0.28862 0.31526 0.13852
 H1802 H 0.36936 0.31599 0.19404
 H1803 H 0.45718 0.40016 0.10093
 H1804 H 0.37121 0.40538 0.05133
 H1805 H 0.40201 0.34409 0.16208
 H1806 H 0.43040 0.36523 0.13150
   
