data_POSCAR
  _audit_creation_date              2014-09-24
  _audit_creation_method            'ToBaCCo'
  _symmetry_space_group_name_H-M    'P1'
  _symmetry_Int_Tables_number       1
  _symmetry_cell_setting            triclinic
  loop_
  _symmetry_equiv_pos_as_xyz
 x,y,z
_cell_length_a 55.1695
_cell_length_b 54.6294
_cell_length_c 55.0310
_cell_angle_alpha 90.307000
_cell_angle_beta 90.282600
_cell_angle_gamma 89.759400
loop_
  _atom_site_label
  _atom_site_type_symbol
  _atom_site_fract_x
  _atom_site_fract_y
  _atom_site_fract_z
N1 N 0.34281 1.35033 0.34317
 N2 N 0.34361 0.84433 0.84238
 N3 N 0.84085 1.33326 0.83233
 N4 N 0.84939 0.85823 0.35261
 N5 N 0.65622 0.65321 0.34054
 N6 N 0.65257 0.15078 0.84566
 N7 N 1.15024 0.64574 0.85473
 N8 N 1.14969 0.15100 0.34880
 N9 N 0.66426 1.33754 0.65586
 N10 N 0.66130 0.83927 1.15678
 N11 N 1.15715 1.34447 1.15949
 N12 N 1.16057 0.85464 0.65099
 N13 N 0.34803 0.65073 0.65070
 N14 N 0.34796 0.15323 1.15282
 N15 N 0.84757 0.65223 1.15060
 N16 N 0.83701 0.16401 0.66797
 N17 N 1.33354 0.33515 0.66532
 N18 N 1.34704 0.84474 1.15430
 N19 N 0.84803 0.34696 1.15474
 N20 N 0.85583 0.86062 0.64510
 N21 N 0.64928 0.64888 0.65254
 N22 N 0.65246 1.14898 1.15393
 N23 N 0.15867 0.65049 1.15699
 N24 N 0.15428 1.15753 0.65686
 N25 N 1.34680 0.64804 0.34665
 N26 N 1.33931 1.15410 0.84316
 N27 N 0.85166 0.64343 0.85311
 N28 N 0.83957 1.16102 0.33942
 N29 N 0.64628 0.35145 0.35294
 N30 N 0.65708 0.84087 0.84079
 N31 N 0.15493 0.34455 0.84402
 N32 N 0.15143 0.85132 0.34899
 O33 O 0.97246 0.90932 0.88052
 O34 O 0.97101 0.88036 0.85249
 C35 C 0.96371 0.90082 0.86085
 C36 C 0.94462 0.91479 0.84787
 C37 C 0.93669 0.90754 0.82462
 H38 H 0.94538 0.89213 0.81576
 O39 O 1.02875 1.08421 0.87844
 O40 O 1.02993 1.11186 0.84943
 C41 C 1.03749 1.09190 0.85856
 C42 C 1.05688 1.07756 0.84629
 C43 C 1.06604 1.08470 0.82356
 H44 H 1.05819 1.10040 0.81455
 O45 O 0.87845 0.97847 0.91290
 O46 O 0.85057 0.97914 0.88406
 C47 C 0.85880 0.97045 0.90386
 C48 C 0.84594 0.95009 0.91589
 C49 C 0.82492 0.94027 0.90535
 H50 H 0.81744 0.94850 0.88906
 O51 O 1.12074 1.01399 0.91343
 O52 O 1.14945 1.01206 0.88574
 C53 C 1.14090 1.02128 0.90516
 C54 C 1.15420 1.04117 0.91781
 C55 C 1.17739 1.04794 0.91002
 H56 H 1.18594 1.03799 0.89525
 O57 O 0.90916 0.87959 0.97794
 O58 O 0.88039 0.85169 0.97869
 C59 C 0.90034 0.85950 0.97039
 C60 C 0.91303 0.84540 0.95129
 C61 C 0.90531 0.82182 0.94495
 H62 H 0.89049 0.81354 0.95479
 O63 O 1.09300 1.11797 0.97549
 O64 O 1.12221 1.14538 0.97510
 C65 C 1.10214 1.13747 0.96699
 C66 C 1.08929 1.15047 0.94712
 C67 C 1.09680 1.17368 0.93897
 H68 H 1.11194 1.18270 0.94776
 O69 O 0.91340 1.02439 0.87953
 O70 O 0.88546 1.02549 0.85075
 C71 C 0.90557 1.03276 0.85946
 C72 C 0.91998 1.05131 0.84643
 C73 C 0.91335 1.05905 0.82294
 H74 H 0.89786 1.05087 0.81399
 O75 O 1.08635 0.96728 0.87957
 O76 O 1.11492 0.96534 0.85173
 C77 C 1.09470 0.95820 0.85998
 C78 C 1.08085 0.93883 0.84711
 C79 C 1.08798 0.93020 0.82406
 H80 H 1.10329 0.93852 0.81515
 O81 O 1.01884 0.87492 0.91433
 O82 O 1.01781 0.84601 0.88621
 C83 C 1.02653 0.85469 0.90588
 C84 C 1.04627 0.84143 0.91861
 C85 C 1.05610 0.82011 0.90829
 H86 H 1.04878 0.81298 0.89137
 O87 O 0.98189 1.12019 0.91004
 O88 O 0.98266 1.14792 0.88108
 C89 C 0.97405 1.14008 0.90093
 C90 C 0.95453 1.15383 0.91358
 C91 C 0.94687 1.17712 0.90560
 H92 H 0.95535 1.18551 0.89002
 O93 O 0.88307 1.09237 0.97432
 O94 O 0.85594 1.12216 0.97375
 C95 C 0.86360 1.10163 0.96594
 C96 C 0.84996 1.08843 0.94677
 C97 C 0.82655 1.09597 0.94001
 H98 H 0.81818 1.11139 0.94922
 O99 O 1.11605 0.90306 0.97973
 O100 O 1.14341 0.87350 0.98025
 C101 C 1.13550 0.89357 0.97164
 C102 C 1.14875 0.90581 0.95176
 C103 C 1.17183 0.89752 0.94471
 H104 H 1.18025 0.88237 0.95424
 O105 O 0.98152 1.08447 0.87904
 O106 O 0.98262 1.11201 0.84990
 C107 C 0.97377 1.09265 0.85892
 C108 C 0.95380 1.08002 0.84615
 C109 C 0.94721 1.08716 0.82264
 H110 H 0.95750 1.10124 0.81353
 O111 O 1.01968 0.90669 0.87973
 O112 O 1.01822 0.87791 0.85150
 C113 C 1.02738 0.89749 0.85994
 C114 C 1.04764 0.90937 0.84707
 C115 C 1.05485 0.90113 0.82400
 H116 H 1.04493 0.88649 0.81512
 O117 O 1.11861 0.96619 0.91411
 O118 O 1.14733 0.96432 0.88643
 C119 C 1.13814 0.95680 0.90616
 C120 C 1.15004 0.93667 0.91977
 C121 C 1.17314 0.92814 0.91303
 H122 H 1.18261 0.93720 0.89849
 O123 O 0.87957 1.02636 0.91211
 O124 O 0.85137 1.02716 0.88358
 C125 C 0.86017 1.03537 0.90335
 C126 C 0.84816 1.05598 0.91614
 C127 C 0.82474 1.06381 0.90949
 H128 H 0.81500 1.05394 0.89546
 O129 O 0.91840 1.12346 0.97419
 O130 O 0.89145 1.15340 0.97364
 C131 C 0.91083 1.14364 0.96567
 C132 C 0.92427 1.15564 0.94589
 C133 C 0.91760 1.17914 0.93830
 H134 H 0.90328 1.18898 0.94767
 O135 O 1.08137 0.87134 0.98026
 O136 O 1.10857 0.84166 0.98054
 C137 C 1.08928 0.85113 0.97193
 C138 C 1.07657 0.83922 0.95120
 C139 C 1.08581 0.81756 0.94076
 H140 H 1.10164 0.80882 0.94862
 O141 O 1.08801 1.01508 0.87971
 O142 O 1.11660 1.01314 0.85188
 C143 C 1.09724 1.02273 0.86007
 C144 C 1.08575 1.04345 0.84702
 C145 C 1.09450 1.05075 0.82430
 H146 H 1.10917 1.04058 0.81591
 O147 O 0.91142 0.97690 0.87987
 O148 O 0.88364 0.97797 0.85092
 C149 C 0.90287 0.96883 0.85993
 C150 C 0.91510 0.94824 0.84740
 C151 C 0.90748 0.94081 0.82417
 H152 H 0.89303 0.95070 0.81504
 O153 O 1.02909 1.11778 0.91199
 O154 O 1.02986 1.14563 0.88313
 C155 C 1.03768 1.13733 0.90324
 C156 C 1.05731 1.15027 0.91628
 C157 C 1.06461 1.17350 0.90877
 H158 H 1.05517 1.18234 0.89385
 O159 O 0.97170 0.87545 0.91344
 O160 O 0.97048 0.84625 0.88564
 C161 C 0.96286 0.85553 0.90539
 C162 C 0.94326 0.84344 0.91910
 C163 C 0.93511 0.81986 0.91275
 H164 H 0.94385 0.81005 0.89807
 O165 O 1.12304 1.08131 0.97569
 O166 O 1.15255 1.10841 0.97520
 C167 C 1.14308 1.08869 0.96728
 C168 C 1.15521 1.07435 0.94785
 C169 C 1.17838 1.08090 0.93967
 H170 H 1.18776 1.09596 0.94835
 O171 O 0.87663 0.91380 0.97605
 O172 O 0.84777 0.88600 0.97618
 C173 C 0.85693 0.90536 0.96745
 C174 C 0.84503 0.91796 0.94670
 C175 C 0.82399 0.90830 0.93573
 H176 H 0.81620 0.89171 0.94285
 Cu177 Cu 0.99569 0.89452 0.89978
 Cu178 Cu 0.99421 0.85970 0.86616
 Cu179 Cu 1.00526 1.09892 0.89779
 Cu180 Cu 1.00640 1.13211 0.86295
 Cu181 Cu 0.89846 1.00157 0.89904
 Cu182 Cu 0.86486 1.00260 0.86451
 Cu183 Cu 1.10055 0.99073 0.89946
 Cu184 Cu 1.13496 0.98849 0.86618
 C185 C 0.93379 0.93524 0.85904
 H186 H 0.93955 0.94074 0.87710
 C187 C 0.91797 0.92041 0.81273
 C188 C 1.06682 1.05684 0.85776
 H189 H 1.06017 1.05143 0.87542
 C190 C 1.08499 1.07139 0.81249
 C191 C 0.85570 0.93899 0.93674
 H192 H 0.87214 0.94627 0.94475
 C193 C 0.81384 0.91942 0.91498
 C194 C 1.14332 1.05437 0.93687
 H195 H 1.12531 1.04943 0.94279
 C196 C 1.18949 1.06787 0.92060
 C197 C 0.93218 0.85596 0.93846
 H198 H 0.93804 0.87429 0.94317
 C199 C 0.91604 0.80894 0.92568
 C200 C 1.06949 1.13905 0.93565
 H201 H 1.06391 1.12100 0.94139
 C202 C 1.08432 1.18530 0.91979
 C203 C 0.94030 1.06187 0.85782
 H204 H 0.94525 1.05645 0.87609
 C205 C 0.92696 1.07708 0.81102
 C206 C 1.06061 0.92835 0.85834
 H207 H 1.05527 0.93460 0.87625
 C208 C 1.07503 0.91126 0.81241
 C209 C 1.05652 0.85080 0.94017
 H210 H 1.04944 0.86765 0.94787
 C211 C 1.07570 0.80810 0.91922
 C212 C 0.94302 1.14328 0.93372
 H213 H 0.94826 1.12512 0.93962
 C214 C 0.92853 1.18985 0.91814
 C215 C 0.86052 1.06833 0.93485
 H216 H 0.87868 1.06257 0.93985
 C217 C 0.81381 1.08386 0.92139
 C218 C 1.13807 0.92548 0.93924
 H219 H 1.12017 0.93180 0.94437
 C220 C 1.18411 0.90843 0.92532
 O221 O 1.02058 0.91383 1.12418
 O222 O 1.01918 0.88647 1.15345
 C223 C 1.02828 0.90568 1.14436
 C224 C 1.04838 0.91854 1.15690
 C225 C 1.05507 0.91278 1.18092
 H226 H 1.04491 0.89919 1.19081
 O227 O 0.97838 1.09042 1.12022
 O228 O 0.97927 1.11918 1.14846
 C229 C 0.97017 1.09964 1.13982
 C230 C 0.94963 1.08750 1.15227
 C231 C 0.94200 1.09494 1.17564
 H232 H 0.95148 1.10950 1.18507
 O233 O 0.87898 1.02893 1.08552
 O234 O 0.85036 1.03091 1.11332
 C235 C 0.85952 1.03837 1.09358
 C236 C 0.84788 1.05864 1.08009
 C237 C 0.82484 1.06745 1.08668
 H238 H 0.81509 1.05846 1.10108
 O239 O 1.12067 0.97174 1.08871
 O240 O 1.14909 0.97115 1.11702
 C241 C 1.14003 0.96263 1.09746
 C242 C 1.15170 0.94165 1.08483
 C243 C 1.17506 0.93358 1.09146
 H244 H 1.18497 0.94340 1.10541
 O245 O 1.08231 0.87190 1.02795
 O246 O 1.10933 0.84207 1.02849
 C247 C 1.09018 0.85193 1.03681
 C248 C 1.07719 0.84070 1.05750
 C249 C 1.08423 0.81779 1.06689
 H250 H 1.09862 0.80763 1.05811
 O251 O 0.91739 1.12521 1.02151
 O252 O 0.89051 1.15521 1.02096
 C253 C 0.90979 1.14572 1.02946
 C254 C 0.92338 1.15827 1.04912
 C255 C 0.91719 1.18215 1.05656
 H256 H 0.90287 1.19189 1.04716
 O257 O 0.91021 0.98068 1.11992
 O258 O 0.88157 0.98243 1.14771
 C259 C 0.90113 0.97315 1.13966
 C260 C 0.91307 0.95298 1.15307
 C261 C 0.90310 0.94441 1.17479
 H262 H 0.88709 0.95322 1.18219
 O263 O 1.08965 1.02184 1.12081
 O264 O 1.11770 1.02148 1.14950
 C265 C 1.09817 1.03018 1.14067
 C266 C 1.08508 1.05024 1.15334
 C267 C 1.09170 1.05775 1.17699
 H268 H 1.10643 1.04857 1.18633
 O269 O 0.97276 0.88194 1.09016
 O270 O 0.97144 0.85407 1.11898
 C271 C 0.96380 0.86254 1.09883
 C272 C 0.94401 0.84987 1.08565
 C273 C 0.93651 0.82671 1.09320
 H274 H 0.94577 0.81788 1.10822
 O275 O 1.02792 1.12063 1.08737
 O276 O 1.02922 1.14943 1.11557
 C277 C 1.03727 1.14009 1.09598
 C278 C 1.05810 1.15149 1.08331
 C279 C 1.06887 1.17304 1.09241
 H280 H 1.06163 1.18158 1.10861
 O281 O 0.87627 0.91614 1.02331
 O282 O 0.84714 0.88861 1.02354
 C283 C 0.85608 0.90861 1.03123
 C284 C 0.84315 0.92288 1.05005
 C285 C 0.81949 0.91665 1.05658
 H286 H 0.81022 0.90197 1.04705
 O287 O 1.12493 1.08340 1.02301
 O288 O 1.15448 1.11046 1.02263
 C289 C 1.14511 1.09115 1.03117
 C290 C 1.15733 1.07784 1.05121
 C291 C 1.18029 1.08512 1.05983
 H292 H 1.18959 1.09995 1.05094
 O293 O 1.02566 1.08670 1.11989
 O294 O 1.02654 1.11537 1.14826
 C295 C 1.03400 1.09501 1.13979
 C296 C 1.05305 1.08128 1.15294
 C297 C 1.05951 1.08812 1.17662
 H298 H 1.04978 1.10287 1.18559
 O299 O 0.97313 0.91505 1.12385
 O300 O 0.97169 0.88737 1.15282
 C301 C 0.96407 0.90719 1.14352
 C302 C 0.94388 0.92079 1.15515
 C303 C 0.93355 0.91241 1.17690
 H304 H 0.94091 0.89620 1.18545
 O305 O 1.12242 1.01955 1.08722
 O306 O 1.15066 1.01907 1.11570
 C307 C 1.14243 1.02725 1.09571
 C308 C 1.15596 1.04637 1.08257
 C309 C 1.17894 1.05369 1.09072
 H310 H 1.18718 1.04461 1.10618
 O311 O 0.87688 0.98126 1.08661
 O312 O 0.84813 0.98317 1.11426
 C313 C 0.85668 0.97398 1.09484
 C314 C 0.84344 0.95436 1.08175
 C315 C 0.81993 0.94729 1.08866
 H316 H 0.81093 0.95653 1.10357
 O317 O 1.09146 1.11670 1.02291
 O318 O 1.12086 1.14392 1.02277
 C319 C 1.10090 1.13615 1.03125
 C320 C 1.08901 1.14945 1.05155
 C321 C 1.09937 1.17092 1.06088
 H322 H 1.11554 1.17823 1.05254
 O323 O 0.90841 0.88143 1.02531
 O324 O 0.87951 0.85368 1.02604
 C325 C 0.89941 0.86210 1.03423
 C326 C 0.91221 0.84959 1.05448
 C327 C 0.90471 0.82642 1.06264
 H328 H 0.88974 0.81734 1.05364
 O329 O 1.08725 0.97450 1.12147
 O330 O 1.11541 0.97408 1.15008
 C331 C 1.09524 0.96666 1.14167
 C332 C 1.08102 0.94856 1.15540
 C333 C 1.08720 0.94292 1.17945
 H334 H 1.10219 0.95229 1.18821
 O335 O 0.91214 1.02828 1.11891
 O336 O 0.88372 1.03004 1.14693
 C337 C 0.90387 1.03729 1.13851
 C338 C 0.91759 1.05663 1.15149
 C339 C 0.91066 1.06391 1.17488
 H340 H 0.89565 1.05482 1.18365
 O341 O 0.98071 1.12257 1.08584
 O342 O 0.98191 1.15156 1.11386
 C343 C 0.97352 1.14310 1.09398
 C344 C 0.95481 1.15696 1.08049
 C345 C 0.94859 1.18086 1.08753
 H346 H 0.95814 1.18954 1.10251
 O347 O 1.01983 0.87870 1.09225
 O348 O 1.01850 0.85119 1.12138
 C349 C 1.02720 0.85869 1.10146
 C350 C 1.04636 0.84423 1.08911
 C351 C 1.05349 0.82131 1.09811
 H352 H 1.04446 0.81387 1.11387
 O353 O 1.11612 0.90464 1.02703
 O354 O 1.14342 0.87503 1.02752
 C355 C 1.13571 0.89558 1.03530
 C356 C 1.14948 0.90896 1.05435
 C357 C 1.17284 0.90128 1.06110
 H358 H 1.18105 0.88572 1.05196
 O359 O 0.88337 1.09267 1.02152
 O360 O 0.85630 1.12251 1.02091
 C361 C 0.86389 1.10225 1.02934
 C362 C 0.85012 1.08987 1.04864
 C363 C 0.82708 1.09837 1.05535
 H364 H 0.81908 1.11382 1.04593
 Cu365 Cu 0.99681 0.90023 1.10480
 Cu366 Cu 0.99506 0.86702 1.13958
 Cu367 Cu 1.00301 1.10220 1.10054
 Cu368 Cu 1.00433 1.13677 1.13437
 Cu369 Cu 0.89552 0.90050 1.00063
 Cu370 Cu 0.86078 0.86721 1.00122
 Cu371 Cu 1.09617 0.89060 1.00374
 Cu372 Cu 1.12882 0.85500 1.00429
 Cu373 Cu 0.90329 1.10545 0.99797
 Cu374 Cu 0.87087 1.14137 0.99723
 Cu375 Cu 1.10519 1.09718 0.99924
 Cu376 Cu 1.14043 1.12980 0.99885
 Cu377 Cu 0.89735 1.00457 1.09989
 Cu378 Cu 0.86309 1.00686 1.13339
 Cu379 Cu 1.10224 0.99698 1.10164
 Cu380 Cu 1.13615 0.99638 1.13586
 C381 C 1.06144 0.93650 1.14437
 H382 H 1.05670 0.94075 1.12573
 C383 C 1.07448 0.92505 1.19229
 C384 C 0.93725 1.06831 1.14044
 H385 H 0.94265 1.06272 1.12233
 C386 C 0.92256 1.08300 1.18706
 C387 C 0.86029 1.06988 1.06097
 H388 H 0.87820 1.06342 1.05603
 C389 C 0.81437 1.08745 1.07441
 C390 C 1.13915 0.92927 1.06619
 H391 H 1.12104 0.93518 1.06118
 C392 C 1.18576 0.91336 1.07961
 C393 C 1.05817 0.85365 1.06870
 H394 H 1.05288 0.87145 1.06184
 C395 C 1.07246 0.80800 1.08734
 C396 C 0.94229 1.14592 1.06112
 H397 H 0.94688 1.12736 1.05578
 C398 C 0.92973 1.19350 1.07587
 C399 C 0.93365 0.94126 1.14354
 H400 H 0.94122 0.94756 1.12657
 C401 C 0.91315 0.92423 1.18688
 C402 C 1.06570 1.06213 1.14153
 H403 H 1.06077 1.05686 1.12316
 C404 C 1.07881 1.07669 1.18870
 C405 C 0.93195 0.86110 1.06610
 H406 H 0.93761 0.87909 1.06026
 C407 C 0.91691 0.81490 1.08201
 C408 C 1.06821 1.14000 1.06272
 H409 H 1.06031 1.12321 1.05582
 C410 C 1.08954 1.18287 1.08119
 C411 C 0.85483 0.94201 1.06242
 H412 H 0.87315 0.94684 1.05739
 C413 C 0.80788 0.92851 1.07592
 C414 C 1.14542 1.05837 1.06264
 H415 H 1.12754 1.05297 1.05645
 C416 C 1.19114 1.07314 1.07971
 O417 O 1.08312 0.53075 0.62348
 O418 O 1.11082 0.53155 0.65250
 C419 C 1.09108 0.53941 0.64346
 C420 C 1.07752 0.55931 0.65583
 C421 C 1.08346 0.56667 0.67967
 H422 H 1.09741 0.55679 0.68945
 O423 O 0.91269 0.48046 0.61831
 O424 O 0.88430 0.48039 0.64639
 C425 C 0.90415 0.47219 0.63802
 C426 C 0.91699 0.45248 0.65123
 C427 C 0.90882 0.44522 0.67413
 H428 H 0.89363 0.45470 0.68241
 O429 O 1.02040 0.62946 0.58704
 O430 O 1.01894 0.65797 0.61554
 C431 C 1.02795 0.64949 0.59605
 C432 C 1.04797 0.66260 0.58416
 C433 C 1.05729 0.68411 0.59445
 H434 H 1.04896 0.69176 0.61061
 O435 O 0.97557 0.37973 0.58821
 O436 O 0.97543 0.35175 0.61691
 C437 C 0.96702 0.36012 0.59704
 C438 C 0.94661 0.34758 0.58429
 C439 C 0.93624 0.32596 0.59359
 H440 H 0.94376 0.31796 0.60990
 O441 O 1.11522 0.59551 0.52578
 O442 O 1.14355 0.62389 0.52570
 C443 C 1.13491 0.60410 0.53410
 C444 C 1.14770 0.59120 0.55402
 C445 C 1.17083 0.59876 0.56135
 H446 H 1.17953 0.61369 0.55192
 O447 O 0.87925 0.41388 0.52171
 O448 O 0.85107 0.38537 0.52184
 C449 C 0.85952 0.40549 0.52995
 C450 C 0.84681 0.41925 0.54946
 C451 C 0.82377 0.41207 0.55770
 H452 H 0.81485 0.39667 0.54914
 O453 O 0.97346 0.59464 0.61847
 O454 O 0.97183 0.62329 0.64684
 C455 C 0.96475 0.60294 0.63817
 C456 C 0.94617 0.58886 0.65115
 C457 C 0.93992 0.59520 0.67499
 H458 H 0.94911 0.61026 0.68399
 O459 O 1.02278 0.41433 0.62114
 O460 O 1.02316 0.38642 0.64993
 C461 C 1.03118 0.40628 0.64113
 C462 C 1.05075 0.42003 0.65390
 C463 C 1.05991 0.41204 0.67649
 H464 H 1.05208 0.39612 0.68495
 O465 O 1.11786 0.48353 0.59057
 O466 O 1.14567 0.48452 0.61947
 C467 C 1.13763 0.47569 0.59963
 C468 C 1.15101 0.45553 0.58747
 C469 C 1.17317 0.44728 0.59703
 H470 H 1.18094 0.45645 0.61273
 O471 O 0.87890 0.52830 0.58524
 O472 O 0.85086 0.52805 0.61367
 C473 C 0.85925 0.53663 0.59406
 C474 C 0.84637 0.55706 0.58199
 C475 C 0.82547 0.56708 0.59252
 H476 H 0.81825 0.55913 0.60897
 O477 O 0.90987 0.62504 0.52068
 O478 O 0.88149 0.65362 0.51994
 C479 C 0.90142 0.64530 0.52823
 C480 C 0.91470 0.65916 0.54707
 C481 C 0.90840 0.68347 0.55221
 H482 H 0.89409 0.69230 0.54185
 O483 O 1.08869 0.38323 0.52650
 O484 O 1.11747 0.35510 0.52704
 C485 C 1.09728 0.36325 0.53466
 C486 C 1.08388 0.34962 0.55350
 C487 C 1.09120 0.32596 0.56030
 H488 H 1.10629 0.31717 0.55116
 O489 O 0.91182 0.52822 0.61891
 O490 O 0.88374 0.52785 0.64732
 C491 C 0.90329 0.53636 0.63880
 C492 C 0.91605 0.55633 0.65172
 C493 C 0.90970 0.56315 0.67558
 H494 H 0.89581 0.55305 0.68499
 O495 O 1.08351 0.48275 0.62236
 O496 O 1.11126 0.48361 0.65132
 C497 C 1.09203 0.47453 0.64220
 C498 C 1.07999 0.45371 0.65444
 C499 C 1.08856 0.44558 0.67703
 H500 H 1.10334 0.45522 0.68588
 O501 O 1.02310 0.38046 0.58814
 O502 O 1.02336 0.35220 0.61660
 C503 C 1.03171 0.36081 0.59692
 C504 C 1.05203 0.34843 0.58426
 C505 C 1.06006 0.32505 0.59129
 H506 H 1.05089 0.31550 0.60577
 O507 O 0.97330 0.62826 0.58543
 O508 O 0.97174 0.65719 0.61351
 C509 C 0.96442 0.64818 0.59346
 C510 C 0.94521 0.66065 0.57930
 C511 C 0.93844 0.68496 0.58449
 H512 H 0.94786 0.69494 0.59868
 O513 O 0.87617 0.59240 0.52168
 O514 O 0.84755 0.62069 0.52147
 C515 C 0.85655 0.60113 0.53013
 C516 C 0.84474 0.58868 0.55077
 C517 C 0.82366 0.59841 0.56155
 H518 H 0.81547 0.61485 0.55425
 O519 O 1.12113 0.41766 0.52763
 O520 O 1.15000 0.38967 0.52853
 C521 C 1.14079 0.40945 0.53660
 C522 C 1.15258 0.42285 0.55699
 C523 C 1.17472 0.41468 0.56701
 H524 H 1.18370 0.39901 0.55900
 O525 O 0.97567 0.41438 0.62041
 O526 O 0.97568 0.38670 0.64943
 C527 C 0.96741 0.40642 0.64033
 C528 C 0.94761 0.42008 0.65252
 C529 C 0.93897 0.41287 0.67541
 H530 H 0.94757 0.39769 0.68460
 O531 O 1.02032 0.59597 0.62008
 O532 O 1.01866 0.62436 0.64869
 C533 C 1.02753 0.60454 0.64034
 C534 C 1.04655 0.59133 0.65413
 C535 C 1.05267 0.59844 0.67790
 H536 H 1.04312 0.61358 0.68639
 O537 O 0.87974 0.48041 0.58446
 O538 O 0.85137 0.48040 0.61255
 C539 C 0.86002 0.47210 0.59278
 C540 C 0.84721 0.45218 0.57977
 C541 C 0.82419 0.44501 0.58742
 H542 H 0.81553 0.45475 0.60225
 O543 O 1.11634 0.53136 0.59025
 O544 O 1.14423 0.53229 0.61907
 C545 C 1.13575 0.54024 0.59907
 C546 C 1.14823 0.56026 0.58601
 C547 C 1.17138 0.56837 0.59332
 H548 H 1.18051 0.55939 0.60827
 O549 O 0.91228 0.38011 0.52276
 O550 O 0.88437 0.35135 0.52242
 C551 C 0.90381 0.36029 0.53114
 C552 C 0.91608 0.34785 0.55179
 C553 C 0.90637 0.32622 0.56111
 H554 H 0.89061 0.31820 0.55240
 O555 O 1.08386 0.63078 0.52502
 O556 O 1.11199 0.65933 0.52503
 C557 C 1.09239 0.65077 0.53333
 C558 C 1.07968 0.66347 0.55346
 C559 C 1.08896 0.68506 0.56407
 H560 H 1.10533 0.69300 0.55688
 Cu561 Cu 1.09742 0.50712 0.60379
 Cu562 Cu 1.13074 0.50809 0.63851
 Cu563 Cu 0.89865 0.50438 0.59889
 Cu564 Cu 0.86467 0.50406 0.63275
 Cu565 Cu 0.99700 0.60926 0.59983
 Cu566 Cu 0.99505 0.64365 0.63398
 Cu567 Cu 0.99926 0.39990 0.60157
 Cu568 Cu 0.99944 0.36641 0.63605
 C569 C 1.05895 0.57166 0.64334
 H570 H 1.05449 0.56626 0.62488
 C571 C 1.07112 0.58634 0.69082
 C572 C 0.93656 0.44000 0.64066
 H573 H 0.94275 0.44542 0.62283
 C574 C 0.91941 0.42538 0.68626
 C575 C 1.05900 0.65267 0.56347
 H576 H 1.05199 0.63586 0.55570
 C577 C 1.07772 0.69551 0.58464
 C578 C 0.93637 0.35824 0.56331
 H579 H 0.94377 0.37511 0.55631
 C580 C 0.91599 0.31518 0.58202
 C581 C 1.13662 0.57178 0.56628
 H582 H 1.11867 0.56595 0.56077
 C583 C 1.18278 0.58765 0.58095
 C584 C 0.85829 0.43942 0.56060
 H585 H 0.87621 0.44481 0.55478
 C586 C 0.81240 0.42497 0.57678
 C587 C 0.93438 0.56925 0.63974
 H588 H 0.93910 0.56439 0.62124
 C589 C 0.92172 0.58260 0.68731
 C590 C 1.06091 0.44094 0.64310
 H591 H 1.05434 0.44699 0.62554
 C592 C 1.07893 0.42473 0.68811
 C593 C 1.14098 0.44336 0.56731
 H594 H 1.12372 0.44949 0.56005
 C595 C 1.18506 0.42679 0.58722
 C596 C 0.85574 0.56782 0.56098
 H597 H 0.87215 0.56040 0.55304
 C598 C 0.81400 0.58763 0.58253
 C599 C 0.93330 0.64797 0.56049
 H600 H 0.93813 0.62910 0.55665
 C601 C 0.92000 0.69645 0.57089
 C602 C 1.06407 0.36051 0.56534
 H603 H 1.05838 0.37877 0.56019
 C604 C 1.07955 0.31369 0.57924
 O605 O 1.08918 0.48045 0.38170
 O606 O 1.11760 0.48092 0.35367
 C607 C 1.09792 0.47231 0.36195
 C608 C 1.08533 0.45227 0.34882
 C609 C 1.09266 0.44520 0.32542
 H610 H 1.10710 0.45501 0.31645
 O611 O 0.91161 0.52458 0.37934
 O612 O 0.88397 0.52366 0.35025
 C613 C 0.90341 0.53232 0.35916
 C614 C 0.91629 0.55185 0.34606
 C615 C 0.90884 0.55858 0.32266
 H616 H 0.89407 0.54887 0.31389
 O617 O 0.97329 0.62325 0.41154
 O618 O 0.97324 0.65130 0.38283
 C619 C 0.96495 0.64297 0.40261
 C620 C 0.94521 0.65622 0.41512
 C621 C 0.93869 0.67988 0.40788
 H622 H 0.94862 0.68863 0.39338
 O623 O 1.02663 0.38131 0.41364
 O624 O 1.02767 0.35250 0.38545
 C625 C 1.03549 0.36147 0.40535
 C626 C 1.05547 0.34923 0.41883
 C627 C 1.06431 0.32613 0.41153
 H628 H 1.05572 0.31677 0.39645
 O629 O 1.12212 0.41753 0.48000
 O630 O 1.15103 0.38956 0.48084
 C631 C 1.14214 0.40915 0.47213
 C632 C 1.15482 0.42181 0.45210
 C633 C 1.17700 0.41272 0.44341
 H634 H 1.18534 0.39699 0.45206
 O635 O 0.87676 0.59006 0.47440
 O636 O 0.84801 0.61823 0.47386
 C637 C 0.85689 0.59821 0.46598
 C638 C 0.84438 0.58462 0.44636
 C639 C 0.82188 0.59270 0.43757
 H640 H 0.81317 0.60845 0.44589
 O641 O 1.02181 0.58978 0.37988
 O642 O 1.02138 0.61770 0.35107
 C643 C 1.03005 0.59817 0.36012
 C644 C 1.05031 0.58555 0.34773
 C645 C 1.05757 0.59324 0.32469
 H646 H 1.04766 0.60782 0.31570
 O647 O 0.97928 0.41395 0.37946
 O648 O 0.98004 0.38549 0.35090
 C649 C 0.97132 0.40528 0.35951
 C650 C 0.95145 0.41830 0.34662
 C651 C 0.94480 0.41197 0.32265
 H652 H 0.95457 0.39765 0.31311
 O653 O 1.12087 0.52898 0.41544
 O654 O 1.14979 0.52935 0.38793
 C655 C 1.14057 0.53768 0.40745
 C656 C 1.15243 0.55805 0.42080
 C657 C 1.17590 0.56581 0.41464
 H658 H 1.18576 0.55609 0.40063
 O659 O 0.87850 0.47668 0.41193
 O660 O 0.85078 0.47614 0.38291
 C661 C 0.85902 0.46814 0.40293
 C662 C 0.84603 0.44844 0.41566
 C663 C 0.82254 0.44185 0.40850
 H664 H 0.81362 0.45177 0.39396
 O665 O 1.08271 0.62832 0.47761
 O666 O 1.11056 0.65716 0.47747
 C667 C 1.09099 0.64812 0.46911
 C668 C 1.07785 0.66027 0.44895
 C669 C 1.08409 0.68396 0.44141
 H670 H 1.09807 0.69382 0.45117
 O671 O 0.91334 0.38021 0.47521
 O672 O 0.88555 0.35133 0.47466
 C673 C 0.90528 0.36019 0.46670
 C674 C 0.91889 0.34756 0.44702
 C675 C 0.91175 0.32435 0.43848
 H676 H 0.89670 0.31519 0.44702
 O677 O 0.91315 0.47703 0.38021
 O678 O 0.88557 0.47630 0.35104
 C679 C 0.90543 0.46860 0.36009
 C680 C 0.91955 0.44956 0.34709
 C681 C 0.91368 0.44347 0.32304
 H682 H 0.89914 0.45315 0.31382
 O683 O 1.08881 0.52806 0.38091
 O684 O 1.11742 0.52871 0.35309
 C685 C 1.09729 0.53653 0.36125
 C686 C 1.08360 0.55590 0.34817
 C687 C 1.09091 0.56419 0.32510
 H688 H 1.10646 0.55584 0.31645
 O689 O 0.97925 0.38106 0.41310
 O690 O 0.98012 0.35232 0.38483
 C691 C 0.97136 0.36102 0.40442
 C692 C 0.95140 0.34801 0.41685
 C693 C 0.94410 0.32478 0.40877
 H694 H 0.95364 0.31599 0.39390
 O695 O 1.02043 0.62451 0.41210
 O696 O 1.02022 0.65253 0.38338
 C697 C 1.02825 0.64451 0.40351
 C698 C 1.04708 0.65836 0.41692
 C699 C 1.05345 0.68203 0.40969
 H700 H 1.04412 0.69044 0.39447
 O701 O 0.87821 0.41190 0.47445
 O702 O 0.85013 0.38330 0.47434
 C703 C 0.85849 0.40316 0.46607
 C704 C 0.84562 0.41626 0.44626
 C705 C 0.82210 0.40954 0.43858
 H706 H 0.81280 0.39478 0.44763
 O707 O 1.11688 0.59556 0.47852
 O708 O 1.14493 0.62421 0.47843
 C709 C 1.13672 0.60398 0.47052
 C710 C 1.15034 0.59033 0.45167
 C711 C 1.17379 0.59768 0.44537
 H712 H 1.18206 0.61304 0.45476
 O713 O 1.02667 0.41466 0.38040
 O714 O 1.02756 0.38610 0.35195
 C715 C 1.03542 0.40613 0.36077
 C716 C 1.05514 0.41953 0.34838
 C717 C 1.06328 0.41226 0.32523
 H718 H 1.05481 0.39694 0.31599
 O719 O 0.97447 0.58974 0.37814
 O720 O 0.97412 0.61763 0.34932
 C721 C 0.96619 0.59780 0.35811
 C722 C 0.94675 0.58411 0.34540
 C723 C 0.93875 0.59094 0.32203
 H724 H 0.94750 0.60591 0.31279
 O725 O 0.87773 0.52447 0.41184
 O726 O 0.85005 0.52384 0.38280
 C727 C 0.85806 0.53249 0.40275
 C728 C 0.84483 0.55252 0.41529
 C729 C 0.82223 0.56090 0.40666
 H730 H 0.81421 0.55229 0.39083
 O731 O 1.12238 0.48113 0.41513
 O732 O 1.15106 0.48125 0.38739
 C733 C 1.14232 0.47285 0.40698
 C734 C 1.15501 0.45283 0.42016
 C735 C 1.17725 0.44340 0.41174
 H736 H 1.18532 0.45117 0.39568
 O737 O 1.08938 0.38375 0.47921
 O738 O 1.11820 0.35566 0.47986
 C739 C 1.09843 0.36392 0.47114
 C740 C 1.08609 0.35058 0.45112
 C741 C 1.09449 0.32748 0.44371
 H742 H 1.10967 0.31913 0.45317
 O743 O 0.90832 0.62492 0.47359
 O744 O 0.87979 0.65333 0.47279
 C745 C 0.89966 0.64464 0.46490
 C746 C 0.91292 0.65719 0.44527
 C747 C 0.90638 0.68089 0.43759
 H748 H 0.89162 0.69037 0.44651
 Cu749 Cu 1.10250 0.50465 0.40108
 Cu750 Cu 1.13689 0.50508 0.36778
 Cu751 Cu 0.89796 0.50078 0.39883
 Cu752 Cu 0.86479 0.49984 0.36385
 Cu753 Cu 1.09677 0.60980 0.50170
 Cu754 Cu 1.13058 0.64400 0.50158
 Cu755 Cu 1.10251 0.40341 0.50336
 Cu756 Cu 1.13713 0.36976 0.50416
 Cu757 Cu 0.89559 0.60523 0.49761
 Cu758 Cu 0.86123 0.63926 0.49698
 Cu759 Cu 0.89851 0.39937 0.49847
 Cu760 Cu 0.86508 0.36487 0.49833
 Cu761 Cu 0.99750 0.60396 0.39827
 Cu762 Cu 0.99725 0.63757 0.36371
 Cu763 Cu 1.00290 0.40060 0.39944
 Cu764 Cu 1.00392 0.36620 0.36547
 C765 C 1.06633 0.43955 0.35999
 H766 H 1.06056 0.44493 0.37804
 C767 C 1.08192 0.42517 0.31364
 C768 C 0.93544 0.56450 0.35718
 H769 H 0.94113 0.55943 0.37534
 C770 C 0.91972 0.57815 0.31058
 C771 C 0.93240 0.64511 0.43395
 H772 H 0.93735 0.62675 0.43949
 C773 C 0.91935 0.69237 0.41886
 C774 C 1.06644 0.36121 0.43871
 H775 H 1.06003 0.37916 0.44421
 C776 C 1.08392 0.31516 0.42393
 C777 C 1.14411 0.44204 0.44053
 H778 H 1.12682 0.44890 0.44691
 C779 C 1.18845 0.42339 0.42341
 C780 C 0.85555 0.56433 0.43534
 H781 H 0.87312 0.55824 0.44186
 C782 C 0.81058 0.58093 0.41791
 C783 C 1.06322 0.56670 0.35923
 H784 H 1.05771 0.56084 0.37714
 C785 C 1.07784 0.58295 0.31327
 C786 C 0.93868 0.43714 0.35864
 H787 H 0.94331 0.44184 0.37724
 C788 C 0.92602 0.42473 0.31077
 C789 C 1.13987 0.57037 0.43944
 H790 H 1.12167 0.56476 0.44409
 C791 C 1.18666 0.58572 0.42688
 C792 C 0.85730 0.43575 0.43467
 H793 H 0.87550 0.44080 0.44014
 C794 C 0.81041 0.42247 0.41971
 C795 C 1.05924 0.64771 0.43667
 H796 H 1.05455 0.62933 0.44217
 C797 C 1.07195 0.69494 0.42168
 C798 C 0.93881 0.35916 0.43612
 H799 H 0.94421 0.37721 0.44229
 C800 C 0.92426 0.31291 0.41925
 O801 O 0.48348 0.91000 0.37631
 O802 O 0.48551 0.88175 0.34763
 C803 C 0.47620 0.90132 0.35611
 C804 C 0.45647 0.91417 0.34282
 C805 C 0.44994 0.90750 0.31889
 H806 H 0.45973 0.89301 0.30965
 O807 O 0.52129 1.09172 0.38067
 O808 O 0.52085 1.12025 0.35247
 C809 C 0.52972 1.10064 0.36119
 C810 C 0.55029 1.08828 0.34882
 C811 C 0.55876 1.09687 0.32640
 H812 H 0.54988 1.11230 0.31777
 O813 O 0.38323 0.97042 0.40761
 O814 O 0.35584 0.96891 0.37834
 C815 C 0.36437 0.96089 0.39828
 C816 C 0.35271 0.93989 0.41052
 C817 C 0.33132 0.92948 0.40109
 H818 H 0.32310 0.93715 0.38493
 O819 O 0.62059 1.03012 0.41383
 O820 O 0.64955 1.03120 0.38638
 C821 C 0.64013 1.03931 0.40583
 C822 C 0.65159 1.06003 0.41900
 C823 C 0.67419 1.06928 0.41173
 H824 H 0.68377 1.06037 0.39702
 O825 O 0.41966 0.87295 0.47253
 O826 O 0.39265 0.84332 0.47199
 C827 C 0.41207 0.85271 0.46399
 C828 C 0.42569 0.84054 0.44404
 C829 C 0.41898 0.81726 0.43524
 H830 H 0.40432 0.80755 0.44385
 O831 O 0.58119 1.12512 0.47952
 O832 O 0.60766 1.15527 0.48076
 C833 C 0.58837 1.14586 0.47225
 C834 C 0.57446 1.15899 0.45337
 C835 C 0.57977 1.18341 0.44807
 H836 H 0.59353 1.19301 0.45850
 O837 O 0.41417 1.02050 0.37611
 O838 O 0.38684 1.01938 0.34675
 C839 C 0.40578 1.02868 0.35618
 C840 C 0.41806 1.04948 0.34423
 C841 C 0.41111 1.05727 0.32083
 H842 H 0.39701 1.04757 0.31107
 O843 O 0.59031 0.98045 0.37989
 O844 O 0.61930 0.98162 0.35251
 C845 C 0.59992 0.97223 0.36052
 C846 C 0.58900 0.95098 0.34767
 C847 C 0.59971 0.94160 0.32647
 H848 H 0.61540 0.95062 0.31890
 O849 O 0.53103 0.87874 0.41134
 O850 O 0.53322 0.84990 0.38323
 C851 C 0.54041 0.85905 0.40331
 C852 C 0.56013 0.84709 0.41738
 C853 C 0.56894 0.82380 0.41076
 H854 H 0.56055 0.81413 0.39575
 O855 O 0.47112 1.12330 0.41181
 O856 O 0.47055 1.15198 0.38377
 C857 C 0.46203 1.14283 0.40308
 C858 C 0.44106 1.15449 0.41543
 C859 C 0.43241 1.17781 0.40857
 H860 H 0.44168 1.18782 0.39450
 O861 O 0.37462 1.08218 0.47244
 O862 O 0.34515 1.10956 0.47157
 C863 C 0.35476 1.08990 0.46361
 C864 C 0.34324 1.07614 0.44343
 C865 C 0.32027 1.08285 0.43452
 H866 H 0.31043 1.09747 0.44345
 O867 O 0.62259 0.91806 0.47944
 O868 O 0.65238 0.89102 0.48000
 C869 C 0.64295 0.91056 0.47169
 C870 C 0.65567 0.92448 0.45263
 C871 C 0.67970 0.91870 0.44672
 H872 H 0.68911 0.90434 0.45656
 O873 O 0.47427 1.08857 0.37986
 O874 O 0.47370 1.11696 0.35151
 C875 C 0.46633 1.09660 0.35976
 C876 C 0.44801 1.08235 0.34605
 C877 C 0.44120 1.08948 0.32261
 H878 H 0.44996 1.10503 0.31427
 O879 O 0.53069 0.91194 0.37795
 O880 O 0.53298 0.88335 0.34962
 C881 C 0.54009 0.90360 0.35855
 C882 C 0.55991 0.91732 0.34669
 C883 C 0.57097 0.90818 0.32548
 H884 H 0.56456 0.89121 0.31762
 O885 O 0.62179 0.98238 0.41491
 O886 O 0.65099 0.98346 0.38772
 C887 C 0.64219 0.97491 0.40723
 C888 C 0.65545 0.95577 0.42100
 C889 C 0.67951 0.94953 0.41518
 H890 H 0.68874 0.95940 0.40099
 O891 O 0.38031 1.01811 0.40846
 O892 O 0.35282 1.01668 0.37926
 C893 C 0.36031 1.02531 0.39941
 C894 C 0.34599 1.04440 0.41212
 C895 C 0.32300 1.05128 0.40349
 H896 H 0.31527 1.04194 0.38786
 O897 O 0.40519 1.11825 0.47297
 O898 O 0.37579 1.14573 0.47243
 C899 C 0.39607 1.13798 0.46470
 C900 C 0.40896 1.15192 0.44575
 C901 C 0.40078 1.17525 0.43891
 H902 H 0.38525 1.18329 0.44798
 O903 O 0.59211 0.88204 0.47864
 O904 O 0.62170 0.85479 0.47933
 C905 C 0.60174 0.86246 0.47058
 C906 C 0.58989 0.84877 0.45047
 C907 C 0.59833 0.82546 0.44366
 H908 H 0.61314 0.81710 0.45368
 O909 O 0.58710 1.02837 0.38078
 O910 O 0.61592 1.02964 0.35321
 C911 C 0.59570 1.03725 0.36141
 C912 C 0.58239 1.05720 0.34881
 C913 C 0.59057 1.06610 0.32642
 H914 H 0.60584 1.05727 0.31771
 O915 O 0.41760 0.97281 0.37583
 O916 O 0.39034 0.97174 0.34639
 C917 C 0.41026 0.96441 0.35555
 C918 C 0.42469 0.94554 0.34267
 C919 C 0.41884 0.93904 0.31872
 H920 H 0.40426 0.94855 0.30938
 O921 O 0.51835 1.12484 0.41443
 O922 O 0.51793 1.15363 0.38649
 C923 C 0.52588 1.14520 0.40649
 C924 C 0.54437 1.15874 0.42067
 C925 C 0.55051 1.18303 0.41503
 H926 H 0.54138 1.19237 0.40025
 O927 O 0.48390 0.87658 0.40959
 O928 O 0.48591 0.84802 0.38121
 C929 C 0.47680 0.85628 0.40079
 C930 C 0.45745 0.84242 0.41321
 C931 C 0.45072 0.81907 0.40492
 H932 H 0.46023 0.81078 0.38975
 O933 O 0.61665 1.09379 0.47859
 O934 O 0.64327 1.12379 0.47937
 C935 C 0.63586 1.10359 0.47060
 C936 C 0.64943 1.09149 0.45066
 C937 C 0.67201 1.10046 0.44319
 H938 H 0.67987 1.11611 0.45245
 O939 O 0.38566 0.90561 0.47134
 O940 O 0.35849 0.87612 0.47067
 C941 C 0.36656 0.89619 0.46243
 C942 C 0.35394 0.90831 0.44189
 C943 C 0.33267 0.89819 0.43214
 H944 H 0.32505 0.88189 0.44020
 Cu945 Cu 0.50703 0.89717 0.39658
 Cu946 Cu 0.50959 0.86289 0.36256
 Cu947 Cu 0.49634 1.10436 0.39958
 Cu948 Cu 0.49571 1.13856 0.36570
 Cu949 Cu 0.40155 0.99562 0.39494
 Cu950 Cu 0.36870 0.99402 0.35975
 Cu951 Cu 0.60205 1.00522 0.40005
 Cu952 Cu 0.63676 1.00655 0.36713
 C953 C 0.44372 0.93324 0.35447
 H954 H 0.44823 0.93819 0.37304
 C955 C 0.43115 0.92006 0.30675
 C956 C 0.56215 1.06833 0.35979
 H957 H 0.55594 1.06181 0.37724
 C958 C 0.57902 1.08613 0.31523
 C959 C 0.36371 0.92930 0.43109
 H960 H 0.38033 0.93700 0.43830
 C961 C 0.32116 0.90866 0.41193
 C962 C 0.63947 1.07120 0.43854
 H963 H 0.62195 1.06435 0.44404
 C964 C 0.68449 1.08962 0.42368
 C965 C 0.44499 0.85287 0.43292
 H966 H 0.44999 0.87097 0.43926
 C967 C 0.43144 0.80644 0.41561
 C968 C 0.55647 1.14692 0.43989
 H969 H 0.55234 1.12802 0.44396
 C970 C 0.56811 1.19543 0.42889
 C971 C 0.43657 1.06215 0.35663
 H972 H 0.44171 1.05662 0.37482
 C973 C 0.42273 1.07729 0.30996
 C974 C 0.56891 0.93887 0.35747
 H975 H 0.56079 0.94578 0.37404
 C976 C 0.59089 0.92029 0.31520
 C977 C 0.57066 0.85933 0.43734
 H978 H 0.56423 0.87742 0.44235
 C979 C 0.58814 0.81289 0.42381
 C980 C 0.42921 1.14181 0.43407
 H981 H 0.43549 1.12375 0.43923
 C982 C 0.41223 1.18834 0.42036
 C983 C 0.35585 1.05679 0.43222
 H984 H 0.37375 1.05179 0.43874
 C985 C 0.31009 1.07060 0.41437
 C986 C 0.64375 0.94320 0.43983
 H987 H 0.62511 0.94763 0.44422
 C988 C 0.69171 0.93094 0.42802
 O989 O 0.52363 0.91540 0.62114
 O990 O 0.52409 0.88749 0.64996
 C991 C 0.53161 0.90762 0.64136
 C992 C 0.55028 0.92170 0.65476
 C993 C 0.55663 0.91517 0.67853
 H994 H 0.54708 0.90046 0.68747
 O995 O 0.46896 1.08669 0.62047
 O996 O 0.46704 1.11546 0.64869
 C997 C 0.45996 1.09511 0.64000
 C998 C 0.44076 1.08132 0.65248
 C999 C 0.43385 1.08764 0.67613
 H1000 H 0.44318 1.10232 0.68558
 O1001 O 0.37441 1.02118 0.58409
 O1002 O 0.34547 1.01933 0.61150
 C1003 C 0.35411 1.02850 0.59227
 C1004 C 0.34084 1.04838 0.57965
 C1005 C 0.31870 1.05735 0.58868
 H1006 H 0.31074 1.04905 0.60459
 O1007 O 0.61949 0.98251 0.58975
 O1008 O 0.64717 0.98367 0.61878
 C1009 C 0.63938 0.97505 0.59873
 C1010 C 0.65333 0.95579 0.58597
 C1011 C 0.67675 0.94962 0.59378
 H1012 H 0.68489 0.95958 0.60881
 O1013 O 0.59066 0.88304 0.52623
 O1014 O 0.62037 0.85593 0.52688
 C1015 C 0.60014 0.86371 0.53484
 C1016 C 0.58787 0.85055 0.55477
 C1017 C 0.59758 0.82863 0.56379
 H1018 H 0.61364 0.82085 0.55545
 O1019 O 0.40609 1.11661 0.52024
 O1020 O 0.37686 1.14430 0.51965
 C1021 C 0.39681 1.13629 0.52829
 C1022 C 0.40903 1.14976 0.54821
 C1023 C 0.40048 1.17286 0.55526
 H1024 H 0.38537 1.18106 0.54556
 O1025 O 0.40979 0.97462 0.61708
 O1026 O 0.38068 0.97269 0.64434
 C1027 C 0.40121 0.96572 0.63648
 C1028 C 0.41500 0.94689 0.65000
 C1029 C 0.40794 0.94048 0.67351
 H1030 H 0.39281 0.94987 0.68200
 O1031 O 0.58339 1.02858 0.62218
 O1032 O 0.61077 1.02962 0.65152
 C1033 C 0.59081 1.03695 0.64241
 C1034 C 0.57619 1.05552 0.65540
 C1035 C 0.58160 1.06157 0.67954
 H1036 H 0.59625 1.05217 0.68886
 O1037 O 0.47937 0.87879 0.58669
 O1038 O 0.48008 0.85067 0.61529
 C1039 C 0.47205 0.85855 0.59509
 C1040 C 0.45359 0.84432 0.58154
 C1041 C 0.44668 0.82109 0.58958
 H1042 H 0.45555 0.81317 0.60533
 O1043 O 0.51544 1.12157 0.58824
 O1044 O 0.51335 1.15046 0.61632
 C1045 C 0.52252 1.14191 0.59690
 C1046 C 0.54212 1.15543 0.58475
 C1047 C 0.54889 1.17866 0.59325
 H1048 H 0.53904 1.18718 0.60806
 O1049 O 0.38445 0.90643 0.51872
 O1050 O 0.35702 0.87718 0.51809
 C1051 C 0.36466 0.89756 0.52632
 C1052 C 0.35049 0.91105 0.54498
 C1053 C 0.32678 0.90379 0.55068
 H1054 H 0.31862 0.88842 0.54125
 O1055 O 0.61626 1.09229 0.52600
 O1056 O 0.64310 1.12212 0.52667
 C1057 C 0.63556 1.10169 0.53446
 C1058 C 0.64901 1.08917 0.55406
 C1059 C 0.67220 1.09708 0.56074
 H1060 H 0.68081 1.11165 0.55069
 O1061 O 0.51611 1.08924 0.62234
 O1062 O 0.51419 1.11791 0.65065
 C1063 C 0.52354 1.09831 0.64234
 C1064 C 0.54354 1.08590 0.65557
 C1065 C 0.54962 1.09222 0.67971
 H1066 H 0.53931 1.10619 0.68918
 O1067 O 0.47640 0.91201 0.62034
 O1068 O 0.47687 0.88409 0.64914
 C1069 C 0.46789 0.90341 0.63995
 C1070 C 0.44717 0.91601 0.65180
 C1071 C 0.43934 0.90933 0.67519
 H1072 H 0.44873 0.89499 0.68502
 O1073 O 0.61865 1.03014 0.59129
 O1074 O 0.64633 1.03152 0.62029
 C1075 C 0.63786 1.03934 0.60027
 C1076 C 0.65004 1.05943 0.58707
 C1077 C 0.67303 1.06826 0.59417
 H1078 H 0.68240 1.06031 0.60958
 O1079 O 0.37826 0.97353 0.58202
 O1080 O 0.34890 0.97159 0.60899
 C1081 C 0.35867 0.96411 0.58938
 C1082 C 0.34740 0.94396 0.57525
 C1083 C 0.32353 0.93686 0.58008
 H1084 H 0.31299 0.94668 0.59358
 O1085 O 0.58169 1.12444 0.52672
 O1086 O 0.60841 1.15436 0.52788
 C1087 C 0.58909 1.14459 0.53563
 C1088 C 0.57514 1.15657 0.55535
 C1089 C 0.58204 1.17959 0.56455
 H1090 H 0.59742 1.18899 0.55684
 O1091 O 0.41841 0.87350 0.52011
 O1092 O 0.39125 0.84402 0.51974
 C1093 C 0.41038 0.85352 0.52853
 C1094 C 0.42317 0.84176 0.54919
 C1095 C 0.41619 0.81860 0.55777
 H1096 H 0.40188 0.80872 0.54852
 O1097 O 0.58658 0.98112 0.62302
 O1098 O 0.61400 0.98207 0.65231
 C1099 C 0.59480 0.97310 0.64309
 C1100 C 0.58182 0.95305 0.65553
 C1101 C 0.58844 0.94568 0.67916
 H1102 H 0.60307 0.95486 0.68867
 O1103 O 0.40679 1.02210 0.61828
 O1104 O 0.37802 1.02021 0.64587
 C1105 C 0.39753 1.02958 0.63808
 C1106 C 0.40970 1.04959 0.65167
 C1107 C 0.40262 1.05645 0.67535
 H1108 H 0.38814 1.04669 0.68424
 O1109 O 0.46831 1.11980 0.58698
 O1110 O 0.46612 1.14879 0.61494
 C1111 C 0.45891 1.13951 0.59494
 C1112 C 0.43913 1.15142 0.58093
 C1113 C 0.43017 1.17456 0.58781
 H1114 H 0.43852 1.18401 0.60295
 O1115 O 0.52649 0.88049 0.58923
 O1116 O 0.52732 0.85243 0.61787
 C1117 C 0.53565 0.86117 0.59827
 C1118 C 0.55650 0.84922 0.58599
 C1119 C 0.56660 0.82727 0.59487
 H1120 H 0.55878 0.81887 0.61073
 O1121 O 0.62336 0.91703 0.52677
 O1122 O 0.65315 0.88999 0.52725
 C1123 C 0.64351 0.90952 0.53533
 C1124 C 0.65546 0.92350 0.55518
 C1125 C 0.67893 0.91735 0.56343
 H1126 H 0.68874 0.90269 0.55454
 O1127 O 0.37222 1.08409 0.51989
 O1128 O 0.34287 1.11160 0.51904
 C1129 C 0.35209 1.09225 0.52782
 C1130 C 0.33983 1.07958 0.54807
 C1131 C 0.31768 1.08835 0.55733
 H1132 H 0.30881 1.10356 0.54843
 Cu1133 Cu 0.50139 0.89948 0.60151
 Cu1134 Cu 0.50215 0.86587 0.63596
 Cu1135 Cu 0.49240 1.10140 0.60173
 Cu1136 Cu 0.48992 1.13610 0.63545
 Cu1137 Cu 0.40483 0.89247 0.49579
 Cu1138 Cu 0.37214 0.85719 0.49513
 Cu1139 Cu 0.60419 0.90272 0.50274
 Cu1140 Cu 0.63981 0.87015 0.50334
 Cu1141 Cu 0.39236 1.09745 0.49637
 Cu1142 Cu 0.35723 1.13053 0.49558
 Cu1143 Cu 0.59631 1.10586 0.50258
 Cu1144 Cu 0.62833 1.14188 0.50373
 Cu1145 Cu 0.39518 0.99812 0.59762
 Cu1146 Cu 0.36029 0.99562 0.63036
 Cu1147 Cu 0.59932 1.00551 0.60363
 Cu1148 Cu 0.63236 1.00686 0.63866
 C1149 C 0.56271 0.94091 0.64352
 H1150 H 0.55787 0.94602 0.62513
 C1151 C 0.57573 0.92681 0.69072
 C1152 C 0.42880 1.06216 0.64051
 H1153 H 0.43411 1.05735 0.62217
 C1154 C 0.41485 1.07546 0.68770
 C1155 C 0.35111 1.05952 0.55926
 H1156 H 0.36835 1.05294 0.55244
 C1157 C 0.30712 1.07754 0.57790
 C1158 C 0.64293 0.94282 0.56652
 H1159 H 0.62473 0.94741 0.56059
 C1160 C 0.68967 0.93042 0.58281
 C1161 C 0.56716 0.86053 0.56580
 H1162 H 0.55975 0.87761 0.55909
 C1163 C 0.58713 0.81677 0.58371
 C1164 C 0.42852 1.13923 0.56098
 H1165 H 0.43502 1.12122 0.55578
 C1166 C 0.41071 1.18533 0.57506
 C1167 C 0.43483 0.93483 0.63939
 H1168 H 0.44036 0.93979 0.62121
 C1169 C 0.41979 0.92173 0.68615
 C1170 C 0.55697 1.06753 0.64365
 H1171 H 0.55275 1.06285 0.62495
 C1172 C 0.56858 1.07985 0.69179
 C1173 C 0.44195 0.85437 0.56117
 H1174 H 0.44710 0.87241 0.55502
 C1175 C 0.42792 0.80819 0.57805
 C1176 C 0.55513 1.14465 0.56558
 H1177 H 0.55002 1.12666 0.55902
 C1178 C 0.56896 1.19063 0.58355
 C1179 C 0.36065 0.93120 0.55738
 H1180 H 0.37909 0.93662 0.55350
 C1181 C 0.31323 0.91679 0.56804
 C1182 C 0.63825 1.07010 0.56701
 H1183 H 0.62031 1.06397 0.56179
 C1184 C 0.68420 1.08696 0.58077
 O1185 O 0.59293 0.52364 1.11515
 O1186 O 0.62170 0.52451 1.14312
 C1187 C 0.60182 0.53266 1.13452
 C1188 C 0.58885 0.55301 1.14681
 C1189 C 0.59489 0.56017 1.17068
 H1190 H 0.60894 0.55039 1.18047
 O1191 O 0.41651 0.48329 1.12456
 O1192 O 0.38930 0.48597 1.15366
 C1193 C 0.40845 0.47637 1.14497
 C1194 C 0.42140 0.45661 1.15821
 C1195 C 0.41442 0.44951 1.18173
 H1196 H 0.39976 0.45908 1.19077
 O1197 O 0.53036 0.62290 1.07914
 O1198 O 0.53243 0.65259 1.10640
 C1199 C 0.53960 0.64283 1.08671
 C1200 C 0.55916 0.65461 1.07279
 C1201 C 0.56664 0.67838 1.07874
 H1202 H 0.55742 0.68845 1.09302
 O1203 O 0.47678 0.38215 1.09394
 O1204 O 0.47656 0.35463 1.12310
 C1205 C 0.46808 0.36284 1.10322
 C1206 C 0.44780 0.35017 1.09067
 C1207 C 0.44002 0.32676 1.09794
 H1208 H 0.44916 0.31756 1.11278
 O1209 O 0.62454 0.58289 1.01518
 O1210 O 0.65380 0.61018 1.01297
 C1211 C 0.64488 0.59105 1.02237
 C1212 C 0.65798 0.57857 1.04229
 C1213 C 0.68107 0.58651 1.04945
 H1214 H 0.68970 0.60128 1.03971
 O1215 O 0.37776 0.41585 1.03068
 O1216 O 0.34899 0.38805 1.03268
 C1217 C 0.35826 0.40800 1.04006
 C1218 C 0.34674 0.42203 1.06015
 C1219 C 0.32435 0.41482 1.06999
 H1220 H 0.31487 0.39938 1.06213
 O1221 O 0.48279 0.59341 1.11529
 O1222 O 0.48509 0.62318 1.14243
 C1223 C 0.47572 0.60332 1.13500
 C1224 C 0.45612 0.59188 1.14922
 C1225 C 0.44917 0.60174 1.17176
 H1226 H 0.45867 0.61749 1.17908
 O1227 O 0.52663 0.41470 1.12441
 O1228 O 0.52690 0.38737 1.15374
 C1229 C 0.53565 0.40644 1.14404
 C1230 C 0.55700 0.41884 1.15503
 C1231 C 0.56769 0.41036 1.17677
 H1232 H 0.55987 0.39487 1.18600
 O1233 O 0.62437 0.47379 1.08331
 O1234 O 0.65377 0.47459 1.11060
 C1235 C 0.64426 0.46543 1.09152
 C1236 C 0.65598 0.44448 1.07892
 C1237 C 0.67933 0.43647 1.08553
 H1238 H 0.68930 0.44643 1.09935
 O1239 O 0.38443 0.53021 1.08924
 O1240 O 0.35677 0.53321 1.11791
 C1241 C 0.36523 0.53995 1.09755
 C1242 C 0.35297 0.55952 1.08345
 C1243 C 0.32997 0.56832 1.09026
 H1244 H 0.32077 0.56033 1.10562
 O1245 O 0.41785 0.62505 1.01825
 O1246 O 0.39036 0.65446 1.01769
 C1247 C 0.41011 0.64565 1.02581
 C1248 C 0.42407 0.65892 1.04473
 C1249 C 0.41734 0.68260 1.05233
 H1250 H 0.40235 0.69179 1.04343
 O1251 O 0.58565 0.37417 1.02534
 O1252 O 0.61254 0.34420 1.02608
 C1253 C 0.59353 0.35429 1.03443
 C1254 C 0.58061 0.34317 1.05519
 C1255 C 0.58718 0.31986 1.06397
 H1256 H 0.60134 0.30959 1.05493
 O1257 O 0.41799 0.53090 1.12210
 O1258 O 0.39066 0.53386 1.15107
 C1259 C 0.41034 0.54088 1.14152
 C1260 C 0.42418 0.56132 1.15255
 C1261 C 0.41746 0.57141 1.17512
 H1262 H 0.40277 0.56310 1.18495
 O1263 O 0.59251 0.47604 1.11756
 O1264 O 0.62176 0.47681 1.14501
 C1265 C 0.60166 0.46844 1.13738
 C1266 C 0.58922 0.44921 1.15143
 C1267 C 0.59955 0.44054 1.17305
 H1268 H 0.61619 0.44861 1.17984
 O1269 O 0.52385 0.38101 1.09134
 O1270 O 0.52370 0.35348 1.12051
 C1271 C 0.53149 0.36099 1.10018
 C1272 C 0.55000 0.34650 1.08701
 C1273 C 0.55654 0.32317 1.09525
 H1274 H 0.54741 0.31548 1.11084
 O1275 O 0.48313 0.62473 1.08002
 O1276 O 0.48536 0.65450 1.10716
 C1277 C 0.47611 0.64542 1.08796
 C1278 C 0.45657 0.65872 1.07504
 C1279 C 0.44980 0.68243 1.08224
 H1280 H 0.45954 0.69144 1.09689
 O1281 O 0.38539 0.59125 1.02118
 O1282 O 0.35757 0.62037 1.02058
 C1283 C 0.36606 0.60065 1.02950
 C1284 C 0.35342 0.58881 1.04994
 C1285 C 0.33028 0.59688 1.05669
 H1286 H 0.32141 0.61131 1.04649
 O1287 O 0.61974 0.40656 1.02235
 O1288 O 0.64684 0.37678 1.02305
 C1289 C 0.63944 0.39759 1.03043
 C1290 C 0.65355 0.41136 1.04892
 C1291 C 0.67692 0.40370 1.05566
 H1292 H 0.68502 0.38792 1.04680
 O1293 O 0.47931 0.41786 1.12509
 O1294 O 0.47942 0.39057 1.15447
 C1295 C 0.47155 0.41046 1.14543
 C1296 C 0.45270 0.42474 1.15837
 C1297 C 0.44581 0.41826 1.18192
 H1298 H 0.45505 0.40333 1.19105
 O1299 O 0.52986 0.58995 1.11288
 O1300 O 0.53192 0.61952 1.14027
 C1301 C 0.53888 0.59879 1.13225
 C1302 C 0.55777 0.58500 1.14556
 C1303 C 0.56374 0.59160 1.16944
 H1304 H 0.55407 0.60648 1.17826
 O1305 O 0.38241 0.48263 1.09209
 O1306 O 0.35493 0.48544 1.12094
 C1307 C 0.36265 0.47559 1.10147
 C1308 C 0.34892 0.45533 1.08996
 C1309 C 0.32645 0.44810 1.09929
 H1310 H 0.31869 0.45800 1.11452
 O1311 O 0.62573 0.52145 1.08168
 O1312 O 0.65477 0.52243 1.10934
 C1313 C 0.64579 0.52987 1.08941
 C1314 C 0.65845 0.54891 1.07530
 C1315 C 0.68152 0.55728 1.08241
 H1316 H 0.69053 0.54891 1.09777
 O1317 O 0.41152 0.38267 1.03044
 O1318 O 0.38286 0.35471 1.03221
 C1319 C 0.40308 0.36319 1.03949
 C1320 C 0.41655 0.35041 1.05899
 C1321 C 0.40948 0.32698 1.06610
 H1322 H 0.39464 0.31800 1.05668
 O1323 O 0.59326 0.61831 1.01487
 O1324 O 0.62235 0.64578 1.01288
 C1325 C 0.60268 0.63827 1.02211
 C1326 C 0.59057 0.65248 1.04168
 C1327 C 0.59836 0.67616 1.04841
 H1328 H 0.61335 0.68457 1.03902
 Cu1329 Cu 0.60601 0.49869 1.09664
 Cu1330 Cu 0.64093 0.49970 1.12979
 Cu1331 Cu 0.40308 0.50645 1.10416
 Cu1332 Cu 0.37014 0.50990 1.13880
 Cu1333 Cu 0.50628 0.60478 1.09407
 Cu1334 Cu 0.50900 0.64044 1.12678
 Cu1335 Cu 0.50160 0.40171 1.10584
 Cu1336 Cu 0.50162 0.36881 1.14095
 C1337 C 0.57018 0.56551 1.13445
 H1338 H 0.56563 0.56039 1.11594
 C1339 C 0.58222 0.57942 1.18209
 C1340 C 0.44061 0.44411 1.14678
 H1341 H 0.44579 0.44905 1.12850
 C1342 C 0.42665 0.43029 1.19365
 C1343 C 0.57098 0.64195 1.05405
 H1344 H 0.56518 0.62358 1.04943
 C1345 C 0.58620 0.68923 1.06686
 C1346 C 0.43591 0.36177 1.07114
 H1347 H 0.44140 0.37994 1.06569
 C1348 C 0.42090 0.31506 1.08551
 C1349 C 0.64691 0.55959 1.05515
 H1350 H 0.62895 0.55358 1.04986
 C1351 C 0.69287 0.57624 1.06959
 C1352 C 0.35877 0.44233 1.07025
 H1353 H 0.37620 0.44772 1.06310
 C1354 C 0.31412 0.42781 1.08967
 C1355 C 0.44363 0.57160 1.13986
 H1356 H 0.44870 0.56414 1.12232
 C1357 C 0.42980 0.59182 1.18482
 C1358 C 0.56782 0.43846 1.14270
 H1359 H 0.55999 0.44489 1.12580
 C1360 C 0.58902 0.42126 1.18588
 C1361 C 0.64333 0.43186 1.06051
 H1362 H 0.62519 0.43770 1.05556
 C1363 C 0.68989 0.41601 1.07399
 C1364 C 0.36454 0.56990 1.06322
 H1365 H 0.38245 0.56361 1.05809
 C1366 C 0.31857 0.58696 1.07683
 C1367 C 0.44377 0.64725 1.05612
 H1368 H 0.44878 0.62883 1.05068
 C1369 C 0.43013 0.69441 1.07120
 C1370 C 0.56193 0.35626 1.06681
 H1371 H 0.55704 0.37438 1.06048
 C1372 C 0.57516 0.30979 1.08408
 O1373 O 0.58491 0.46358 0.87565
 O1374 O 0.61239 0.46140 0.84676
 C1375 C 0.59271 0.45400 0.85611
 C1376 C 0.57908 0.43355 0.84470
 C1377 C 0.58745 0.42221 0.82330
 H1378 H 0.60379 0.42891 0.81490
 O1379 O 0.41103 0.51952 0.87973
 O1380 O 0.38174 0.51954 0.85230
 C1381 C 0.40205 0.52741 0.85996
 C1382 C 0.41515 0.54612 0.84585
 C1383 C 0.40655 0.55327 0.82293
 H1384 H 0.39056 0.54461 0.81534
 O1385 O 0.47919 0.61550 0.90620
 O1386 O 0.47917 0.64238 0.87644
 C1387 C 0.47112 0.63507 0.89674
 C1388 C 0.45158 0.64903 0.90900
 C1389 C 0.44244 0.67057 0.89861
 H1390 H 0.45048 0.67756 0.88212
 O1391 O 0.51743 0.37194 0.91531
 O1392 O 0.51526 0.34156 0.88884
 C1393 C 0.52439 0.35103 0.90794
 C1394 C 0.54371 0.33789 0.92142
 C1395 C 0.55004 0.31385 0.91496
 H1396 H 0.54022 0.30458 0.90052
 O1397 O 0.61828 0.40338 0.97498
 O1398 O 0.64517 0.37341 0.97569
 C1399 C 0.63724 0.39321 0.96653
 C1400 C 0.64984 0.40412 0.94544
 C1401 C 0.67106 0.39330 0.93634
 H1402 H 0.67867 0.37743 0.94540
 O1403 O 0.38221 0.58978 0.97412
 O1404 O 0.35424 0.61876 0.97349
 C1405 C 0.36214 0.59813 0.96624
 C1406 C 0.34822 0.58361 0.94827
 C1407 C 0.32398 0.58940 0.94250
 H1408 H 0.31507 0.60448 0.95172
 O1409 O 0.52459 0.57836 0.87376
 O1410 O 0.52457 0.60527 0.84404
 C1411 C 0.53239 0.58547 0.85334
 C1412 C 0.55099 0.57087 0.84036
 C1413 C 0.55706 0.57668 0.81641
 H1414 H 0.54756 0.59141 0.80723
 O1415 O 0.47128 0.40536 0.88052
 O1416 O 0.46908 0.37545 0.85354
 C1417 C 0.46210 0.39623 0.86131
 C1418 C 0.44282 0.41000 0.84844
 C1419 C 0.43463 0.40304 0.82514
 H1420 H 0.44267 0.38742 0.81598
 O1421 O 0.61974 0.51162 0.90695
 O1422 O 0.64743 0.50968 0.87824
 C1423 C 0.63942 0.51911 0.89784
 C1424 C 0.65281 0.53938 0.90981
 C1425 C 0.67587 0.54604 0.90157
 H1426 H 0.68418 0.53584 0.88684
 O1427 O 0.37749 0.47383 0.91492
 O1428 O 0.34844 0.47342 0.88725
 C1429 C 0.35733 0.46568 0.90712
 C1430 C 0.34442 0.44675 0.92117
 C1431 C 0.32178 0.43776 0.91338
 H1432 H 0.31334 0.44554 0.89742
 O1433 O 0.59074 0.61548 0.96761
 O1434 O 0.61979 0.64302 0.96562
 C1435 C 0.59948 0.63477 0.95842
 C1436 C 0.58606 0.64752 0.93891
 C1437 C 0.59250 0.67127 0.93209
 H1438 H 0.60702 0.68060 0.94167
 O1439 O 0.40878 0.37999 0.98305
 O1440 O 0.38002 0.35216 0.98503
 C1441 C 0.39951 0.35998 0.97569
 C1442 C 0.41115 0.34597 0.95568
 C1443 C 0.40218 0.32292 0.94873
 H1444 H 0.38713 0.31502 0.95851
 O1445 O 0.41024 0.47201 0.88127
 O1446 O 0.38127 0.47214 0.85348
 C1447 C 0.40112 0.46365 0.86172
 C1448 C 0.41345 0.44356 0.84868
 C1449 C 0.40611 0.43698 0.82518
 H1450 H 0.39189 0.44729 0.81613
 O1451 O 0.58677 0.51128 0.87334
 O1452 O 0.61413 0.50936 0.84431
 C1453 C 0.59488 0.51865 0.85308
 C1454 C 0.58187 0.53856 0.84005
 C1455 C 0.58810 0.54509 0.81612
 H1456 H 0.60225 0.53513 0.80669
 O1457 O 0.47028 0.37444 0.91599
 O1458 O 0.46803 0.34429 0.88928
 C1459 C 0.46079 0.35453 0.90876
 C1460 C 0.44089 0.34338 0.92290
 C1461 C 0.43160 0.32035 0.91626
 H1462 H 0.43985 0.31038 0.90139
 O1463 O 0.52636 0.61482 0.90424
 O1464 O 0.52646 0.64198 0.87474
 C1465 C 0.53484 0.63415 0.89479
 C1466 C 0.55478 0.64725 0.90735
 C1467 C 0.56176 0.67097 0.90040
 H1468 H 0.55217 0.68014 0.88582
 O1469 O 0.37683 0.41477 0.98307
 O1470 O 0.34802 0.38700 0.98505
 C1471 C 0.35677 0.40619 0.97560
 C1472 C 0.34402 0.41806 0.95505
 C1473 C 0.32140 0.40943 0.94713
 H1474 H 0.31271 0.39472 0.95690
 O1475 O 0.62273 0.58059 0.96794
 O1476 O 0.65197 0.60786 0.96566
 C1477 C 0.64245 0.58784 0.95867
 C1478 C 0.65423 0.57301 0.93934
 C1479 C 0.67734 0.57931 0.93084
 H1480 H 0.68678 0.59438 0.93936
 O1481 O 0.51852 0.40290 0.87990
 O1482 O 0.51650 0.37270 0.85324
 C1483 C 0.52602 0.39257 0.86059
 C1484 C 0.54648 0.40344 0.84700
 C1485 C 0.55511 0.39237 0.82560
 H1486 H 0.54620 0.37620 0.81844
 O1487 O 0.47728 0.58112 0.87391
 O1488 O 0.47731 0.60789 0.84405
 C1489 C 0.46858 0.58893 0.85396
 C1490 C 0.44765 0.57618 0.84271
 C1491 C 0.43863 0.58326 0.81982
 H1492 H 0.44785 0.59742 0.80985
 O1493 O 0.37926 0.52141 0.91420
 O1494 O 0.34982 0.52095 0.88691
 C1495 C 0.35924 0.52965 0.90619
 C1496 C 0.34693 0.54975 0.91923
 C1497 C 0.32274 0.55547 0.91394
 H1498 H 0.31288 0.54463 0.90065
 O1499 O 0.61953 0.46372 0.90756
 O1500 O 0.64720 0.46156 0.87886
 C1501 C 0.63877 0.45419 0.89898
 C1502 C 0.65081 0.43384 0.91232
 C1503 C 0.67208 0.42260 0.90340
 H1504 H 0.68001 0.42929 0.88681
 O1505 O 0.58331 0.37203 0.97799
 O1506 O 0.61007 0.34193 0.97870
 C1507 C 0.59048 0.35119 0.97057
 C1508 C 0.57613 0.33794 0.95189
 C1509 C 0.58231 0.31390 0.94504
 H1510 H 0.59701 0.30462 0.95432
 O1511 O 0.41686 0.62143 0.97099
 O1512 O 0.38914 0.65061 0.97014
 C1513 C 0.40837 0.64092 0.96174
 C1514 C 0.42073 0.65194 0.94062
 C1515 C 0.41173 0.67347 0.92985
 H1516 H 0.39584 0.68222 0.93741
 Cu1517 Cu 0.60002 0.48774 0.89372
 Cu1518 Cu 0.63307 0.48536 0.85918
 Cu1519 Cu 0.39742 0.49667 0.90034
 Cu1520 Cu 0.36237 0.49653 0.86721
 Cu1521 Cu 0.60486 0.59663 0.99163
 Cu1522 Cu 0.63995 0.62942 0.98898
 Cu1523 Cu 0.59906 0.39201 1.00013
 Cu1524 Cu 0.63137 0.35610 1.00096
 Cu1525 Cu 0.40340 0.60403 0.99613
 Cu1526 Cu 0.37008 0.63905 0.99545
 Cu1527 Cu 0.39654 0.40116 1.00666
 Cu1528 Cu 0.36208 0.36772 1.00899
 Cu1529 Cu 0.50194 0.59476 0.89249
 Cu1530 Cu 0.50199 0.62707 0.85682
 Cu1531 Cu 0.49455 0.39173 0.90053
 Cu1532 Cu 0.49200 0.35545 0.86855
 C1533 C 0.55842 0.42419 0.85620
 H1534 H 0.55208 0.43260 0.87287
 C1535 C 0.57545 0.40166 0.81352
 C1536 C 0.43584 0.55752 0.85549
 H1537 H 0.44241 0.55223 0.87330
 C1538 C 0.41796 0.57190 0.80987
 C1539 C 0.44081 0.64003 0.93019
 H1540 H 0.44758 0.62321 0.93810
 C1541 C 0.42261 0.68294 0.90884
 C1542 C 0.55671 0.34972 0.94006
 H1543 H 0.55210 0.36840 0.94494
 C1544 C 0.56942 0.30183 0.92643
 C1545 C 0.64004 0.42454 0.93348
 H1546 H 0.62349 0.43277 0.94026
 C1547 C 0.68239 0.40229 0.91544
 C1548 C 0.35945 0.56370 0.93658
 H1549 H 0.37822 0.55935 0.94060
 C1550 C 0.31115 0.57523 0.92535
 C1551 C 0.56326 0.55159 0.85194
 H1552 H 0.55864 0.54707 0.87049
 C1553 C 0.57557 0.56412 0.80420
 C1554 C 0.43206 0.43028 0.86000
 H1555 H 0.43776 0.43540 0.87819
 C1556 C 0.41641 0.41674 0.81341
 C1557 C 0.64217 0.55290 0.92883
 H1558 H 0.62423 0.54811 0.93508
 C1559 C 0.68821 0.56603 0.91178
 C1560 C 0.35526 0.43687 0.94210
 H1561 H 0.37288 0.44338 0.94795
 C1562 C 0.31022 0.41891 0.92623
 C1563 C 0.56704 0.63577 0.92664
 H1564 H 0.56207 0.61737 0.93185
 C1565 C 0.58057 0.68312 0.91291
 C1566 C 0.43061 0.35599 0.94272
 H1567 H 0.43746 0.37387 0.94776
 C1568 C 0.41208 0.31007 0.92895
 C1569 C 1.14237 1.13497 1.32928
 C1570 C 1.13114 1.14386 1.30835
 C1571 C 1.12534 1.12832 1.28702
 C1572 C 1.10713 1.13617 1.27101
 C1573 C 1.10131 1.12237 1.25042
 C1574 C 1.11368 1.10035 1.24534
 C1575 C 1.13240 1.09283 1.26093
 C1576 C 1.13815 1.10660 1.28168
 C1577 C 1.10800 1.08578 1.22331
 C1578 C 1.08470 1.08558 1.21340
 H1579 H 1.12621 1.16305 1.30756
 H1580 H 1.09736 1.15308 1.27444
 H1581 H 1.08749 1.12933 1.23824
 H1582 H 1.14254 1.07624 1.25709
 H1583 H 1.15296 1.10044 1.29308
 H1584 H 1.12253 1.07580 1.21452
 H1585 H 1.14692 1.11573 1.33049
 H1586 H 1.07032 1.09479 1.22322
 C1587 C 1.14394 0.63125 0.83364
 C1588 C 1.12170 0.63354 0.82156
 C1589 C 1.11609 0.62109 0.79820
 C1590 C 1.09175 0.61799 0.79140
 C1591 C 1.08567 0.60749 0.76897
 C1592 C 1.10391 0.60023 0.75261
 C1593 C 1.12825 0.60292 0.75959
 C1594 C 1.13433 0.61338 0.78205
 C1595 C 1.09830 0.58998 0.72821
 C1596 C 1.07655 0.59476 0.71594
 H1597 H 1.10761 0.64482 0.82951
 H1598 H 1.07735 0.62372 0.80351
 H1599 H 1.06670 0.60501 0.76467
 H1600 H 1.14265 0.59746 0.74737
 H1601 H 1.15331 0.61602 0.78624
 H1602 H 1.11263 0.58020 0.71892
 H1603 H 1.15735 0.61871 0.82645
 H1604 H 1.06342 0.60682 0.72436
 C1605 C 0.63799 1.14824 0.82405
 C1606 C 0.63276 1.12538 0.81403
 C1607 C 0.61669 1.12206 0.79264
 C1608 C 0.60495 1.09957 0.78941
 C1609 C 0.59054 1.09528 0.76891
 C1610 C 0.58799 1.11330 0.75088
 C1611 C 0.59907 1.13610 0.75447
 C1612 C 0.61342 1.14044 0.77507
 C1613 C 0.57524 1.10828 0.72763
 C1614 C 0.57537 1.08493 0.71728
 H1615 H 0.63952 1.10919 0.82316
 H1616 H 0.60701 1.08521 0.80278
 H1617 H 0.58162 1.07776 0.76716
 H1618 H 0.59739 1.15026 0.74086
 H1619 H 0.62254 1.15786 0.77668
 H1620 H 0.56892 1.12362 0.71690
 H1621 H 0.62912 1.16436 0.81682
 H1622 H 0.58431 1.07023 0.72697
 C1623 C 0.65255 0.64142 1.31741
 C1624 C 0.62959 0.63908 1.30708
 C1625 C 0.62521 0.62497 1.28449
 C1626 C 0.60225 0.61478 1.28050
 C1627 C 0.59738 0.60152 1.25929
 C1628 C 0.61532 0.59858 1.24140
 C1629 C 0.63840 0.60840 1.24556
 C1630 C 0.64329 0.62166 1.26680
 C1631 C 0.61020 0.58628 1.21795
 C1632 C 0.58728 0.58734 1.20726
 H1633 H 0.61411 0.64616 1.31695
 H1634 H 0.58809 0.61694 1.29392
 H1635 H 0.57958 0.59357 1.25700
 H1636 H 0.65247 0.60644 1.23202
 H1637 H 0.66104 0.62975 1.26893
 H1638 H 0.62531 0.57913 1.20758
 H1639 H 0.66775 0.63202 1.30914
 H1640 H 0.57298 0.59719 1.21658
 C1641 C 0.86529 0.86449 1.33300
 C1642 C 0.85631 0.86749 1.30945
 C1643 C 0.87101 0.87479 1.28821
 C1644 C 0.85879 0.88044 1.26652
 C1645 C 0.87153 0.88809 1.24610
 C1646 C 0.89689 0.89038 1.24692
 C1647 C 0.90926 0.88392 1.26828
 C1648 C 0.89650 0.87628 1.28879
 C1649 C 0.91075 0.89915 1.22572
 C1650 C 0.90061 0.91522 1.20880
 H1651 H 0.83709 0.86467 1.30651
 H1652 H 0.83923 0.87910 1.26539
 H1653 H 0.86142 0.89195 1.22965
 H1654 H 0.92884 0.88515 1.26922
 H1655 H 0.90681 0.87159 1.30485
 H1656 H 0.92968 0.89409 1.22444
 H1657 H 0.88440 0.86624 1.33687
 H1658 H 0.88262 0.92243 1.21220
 C1659 C 0.85643 0.34195 0.81337
 C1660 C 0.85243 0.36380 0.80093
 C1661 C 0.86814 0.37205 0.78083
 C1662 C 0.85879 0.38902 0.76419
 C1663 C 0.87272 0.39681 0.74461
 C1664 C 0.89649 0.38795 0.74142
 C1665 C 0.90595 0.37112 0.75810
 C1666 C 0.89207 0.36346 0.77781
 C1667 C 0.91126 0.39526 0.72036
 C1668 C 0.90872 0.41827 0.70978
 H1669 H 0.83634 0.37449 0.80483
 H1670 H 0.84045 0.39593 0.76607
 H1671 H 0.86456 0.40926 0.73168
 H1672 H 0.92421 0.36409 0.75601
 H1673 H 0.90035 0.35103 0.79065
 H1674 H 0.92401 0.38207 0.71312
 H1675 H 0.87120 0.33017 0.80771
 H1676 H 0.89672 0.43141 0.71839
 C1677 C 0.35888 0.85074 0.82211
 C1678 C 0.35225 0.86789 0.80450
 C1679 C 0.36759 0.87396 0.78330
 C1680 C 0.36286 0.89575 0.77078
 C1681 C 0.37636 0.90203 0.75037
 C1682 C 0.39512 0.88663 0.74197
 C1683 C 0.39957 0.86458 0.75419
 C1684 C 0.38600 0.85826 0.77464
 C1685 C 0.40919 0.89237 0.71980
 C1686 C 0.41111 0.91610 0.71081
 H1687 H 0.33545 0.87795 0.80649
 H1688 H 0.34850 0.90794 0.77673
 H1689 H 0.37148 0.91864 0.74094
 H1690 H 0.41351 0.85213 0.74780
 H1691 H 0.38968 0.84084 0.78314
 H1692 H 0.41745 0.87737 0.70985
 H1693 H 0.37672 0.84257 0.82109
 H1694 H 0.40348 0.93119 0.72108
 C1695 C 0.34762 0.36370 1.32124
 C1696 C 0.37112 0.36672 1.31256
 C1697 C 0.37689 0.38183 1.29109
 C1698 C 0.40032 0.39143 1.28894
 C1699 C 0.40670 0.40526 1.26869
 C1700 C 0.38984 0.40941 1.24986
 C1701 C 0.36626 0.40026 1.25223
 C1702 C 0.35985 0.38646 1.27254
 C1703 C 0.39651 0.42238 1.22727
 C1704 C 0.42012 0.42194 1.21827
 H1705 H 0.38603 0.35903 1.32293
 H1706 H 0.41372 0.38828 1.30305
 H1707 H 0.42482 0.41267 1.26792
 H1708 H 0.35295 0.40317 1.23799
 H1709 H 0.34176 0.37895 1.27325
 H1710 H 0.38207 0.42971 1.21603
 H1711 H 0.33282 0.37350 1.31267
 H1712 H 0.43395 0.41210 1.22829
 C1713 C 0.84490 1.14903 0.68792
 C1714 C 0.86837 1.14923 0.69748
 C1715 C 0.87590 1.13278 0.71747
 C1716 C 0.89556 1.13956 0.73221
 C1717 C 0.90272 1.12488 0.75167
 C1718 C 0.89048 1.10292 0.75660
 C1719 C 0.87102 1.09596 0.74173
 C1720 C 0.86398 1.11054 0.72213
 C1721 C 0.89690 1.08774 0.77782
 C1722 C 0.92051 1.08676 0.78684
 H1723 H 0.88131 1.16256 0.69119
 H1724 H 0.90507 1.15654 0.72898
 H1725 H 0.91737 1.13119 0.76322
 H1726 H 0.86137 1.07911 0.74518
 H1727 H 0.84934 1.10411 0.71066
 H1728 H 0.88253 1.07794 0.78681
 H1729 H 0.83163 1.13715 0.69616
 H1730 H 0.93467 1.09589 0.77684
 C1731 C 0.86311 0.64640 0.17090
 C1732 C 0.85461 0.63356 0.19098
 C1733 C 0.86964 0.62732 0.21246
 C1734 C 0.86159 0.60866 0.22779
 C1735 C 0.87487 0.60217 0.24842
 C1736 C 0.89664 0.61424 0.25424
 C1737 C 0.90442 0.63336 0.23931
 C1738 C 0.89113 0.63983 0.21854
 C1739 C 0.91074 0.60793 0.27633
 C1740 C 0.91021 0.58448 0.28624
 H1741 H 0.83601 0.62731 0.19081
 H1742 H 0.84488 0.59905 0.22380
 H1743 H 0.86766 0.58807 0.26003
 H1744 H 0.92084 0.64328 0.24370
 H1745 H 0.89756 0.65489 0.20771
 H1746 H 0.92118 0.62222 0.28509
 H1747 H 0.88163 0.65279 0.17065
 H1748 H 0.90049 0.57025 0.27655
 C1749 C 0.35437 1.13675 0.17218
 C1750 C 0.36571 1.14510 0.19335
 C1751 C 0.37238 1.12918 0.21401
 C1752 C 0.39011 1.13752 0.23033
 C1753 C 0.39694 1.12340 0.25026
 C1754 C 0.38614 1.10051 0.25435
 C1755 C 0.36789 1.09242 0.23846
 C1756 C 0.36110 1.10654 0.21836
 C1757 C 0.39294 1.08557 0.27570
 C1758 C 0.41620 1.08659 0.28565
 H1759 H 0.37045 1.16429 0.19468
 H1760 H 0.39874 1.15508 0.22767
 H1761 H 0.41032 1.13078 0.26272
 H1762 H 0.35894 1.07511 0.24155
 H1763 H 0.34675 1.09986 0.20668
 H1764 H 0.37917 1.07438 0.28402
 H1765 H 0.34962 1.11764 0.17037
 H1766 H 0.42989 1.09704 0.27627
 C1767 C 0.36372 0.64355 0.67045
 C1768 C 0.35465 0.63206 0.69110
 C1769 C 0.36966 0.62436 0.71212
 C1770 C 0.35991 0.60730 0.72828
 C1771 C 0.37305 0.59966 0.74861
 C1772 C 0.39638 0.60893 0.75327
 C1773 C 0.40596 0.62643 0.73745
 C1774 C 0.39281 0.63404 0.71700
 C1775 C 0.41044 0.60156 0.77505
 C1776 C 0.40727 0.57886 0.78614
 H1777 H 0.33545 0.62808 0.69178
 H1778 H 0.34196 0.59988 0.72520
 H1779 H 0.36456 0.58695 0.76090
 H1780 H 0.42368 0.63420 0.74092
 H1781 H 0.40069 0.64781 0.70548
 H1782 H 0.42326 0.61454 0.78249
 H1783 H 0.38282 0.64768 0.66927
 H1784 H 0.39506 0.56583 0.77774
 C1785 C 1.15529 0.86203 0.67558
 C1786 C 1.13180 0.86165 0.68497
 C1787 C 1.12534 0.87185 0.70916
 C1788 C 1.10118 0.87863 0.71352
 C1789 C 1.09435 0.88873 0.73587
 C1790 C 1.11155 0.89198 0.75457
 C1791 C 1.13570 0.88515 0.75025
 C1792 C 1.14254 0.87501 0.72789
 C1793 C 1.10506 0.90270 0.77852
 C1794 C 1.08164 0.90176 0.78802
 H1795 H 1.11718 0.85532 0.67336
 H1796 H 1.08758 0.87646 0.69941
 H1797 H 1.07569 0.89437 0.73819
 H1798 H 1.14931 0.88740 0.76434
 H1799 H 1.16121 0.86944 0.72559
 H1800 H 1.11959 0.90991 0.78969
 H1801 H 1.16966 0.87034 0.68617
 H1802 H 1.06780 0.89190 0.77804
 C1803 C 1.15183 0.35542 0.18268
 C1804 C 1.12920 0.36587 0.18726
 C1805 C 1.12144 0.37383 0.21172
 C1806 C 1.10510 0.39344 0.21400
 C1807 C 1.09644 0.40049 0.23685
 C1808 C 1.10356 0.38763 0.25777
 C1809 C 1.11955 0.36773 0.25545
 C1810 C 1.12866 0.36105 0.23267
 C1811 C 1.09395 0.39417 0.28198
 C1812 C 1.09016 0.41843 0.28902
 H1813 H 1.11677 0.36848 0.17218
 H1814 H 1.09900 0.40329 0.19805
 H1815 H 1.08371 0.41558 0.23806
 H1816 H 1.12507 0.35742 0.27131
 H1817 H 1.14074 0.34542 0.23138
 H1818 H 1.09172 0.37978 0.29524
 H1819 H 1.16557 0.35522 0.19679
 H1820 H 1.09565 0.43298 0.27696
 C1821 C 0.64511 0.84465 0.17664
 C1822 C 0.65321 0.85693 0.19752
 C1823 C 0.63766 0.86459 0.21814
 C1824 C 0.64905 0.87267 0.23957
 C1825 C 0.63546 0.88152 0.25909
 C1826 C 0.61004 0.88277 0.25754
 C1827 C 0.59853 0.87408 0.23639
 C1828 C 0.61217 0.86524 0.21677
 C1829 C 0.59526 0.89275 0.27778
 C1830 C 0.60425 0.91043 0.29392
 H1831 H 0.67238 0.86080 0.19913
 H1832 H 0.66862 0.87226 0.24121
 H1833 H 0.64496 0.88719 0.27540
 H1834 H 0.57896 0.87467 0.23483
 H1835 H 0.60267 0.85955 0.20049
 H1836 H 0.57656 0.88703 0.27901
 H1837 H 0.62685 0.83758 0.17602
 H1838 H 0.62194 0.91811 0.29043
 C1839 C 0.65310 0.35324 0.67383
 C1840 C 0.64296 0.34364 0.69499
 C1841 C 0.63178 0.35830 0.71486
 C1842 C 0.62364 0.34591 0.73555
 C1843 C 0.61322 0.35866 0.75497
 C1844 C 0.61051 0.38425 0.75411
 C1845 C 0.61874 0.39672 0.73352
 C1846 C 0.62913 0.38395 0.71403
 C1847 C 0.60019 0.39847 0.77468
 C1848 C 0.58462 0.38830 0.79185
 H1849 H 0.64383 0.32399 0.69745
 H1850 H 0.62556 0.32621 0.73683
 H1851 H 0.60785 0.34840 0.77080
 H1852 H 0.61704 0.41645 0.73247
 H1853 H 0.63498 0.39441 0.69855
 H1854 H 0.60429 0.41780 0.77565
 H1855 H 0.65351 0.37277 0.67110
 H1856 H 0.57813 0.36983 0.78900
 C1857 C 1.32791 1.14744 1.13692
 C1858 C 1.30790 1.13435 1.14521
 C1859 C 1.28702 1.12689 1.12988
 C1860 C 1.27158 1.10872 1.13877
 C1861 C 1.25153 1.10100 1.12529
 C1862 C 1.24643 1.11128 1.10244
 C1863 C 1.26149 1.12988 1.09373
 C1864 C 1.28169 1.13758 1.10723
 C1865 C 1.22490 1.10374 1.08809
 C1866 C 1.21487 1.08040 1.09009
 H1867 H 1.30777 1.12862 1.16402
 H1868 H 1.27502 1.10045 1.15632
 H1869 H 1.23980 1.08738 1.13315
 H1870 H 1.25765 1.13842 1.07641
 H1871 H 1.29267 1.15214 1.10000
 H1872 H 1.21671 1.11712 1.07615
 H1873 H 1.32849 1.15367 1.11833
 H1874 H 1.22405 1.06705 1.10136
 C1875 C 1.32703 0.63619 0.64493
 C1876 C 1.30639 0.64649 0.63428
 C1877 C 1.28401 0.63266 0.62857
 C1878 C 1.26750 0.64285 0.61199
 C1879 C 1.24609 0.63068 0.60600
 C1880 C 1.24068 0.60792 0.61647
 C1881 C 1.25677 0.59805 0.63365
 C1882 C 1.27830 0.61021 0.63962
 C1883 C 1.21804 0.59473 0.61029
 C1884 C 1.20707 0.59709 0.58751
 H1885 H 1.30676 0.66569 0.62950
 H1886 H 1.27119 0.66032 0.60358
 H1887 H 1.23364 0.63944 0.59349
 H1888 H 1.25274 0.58080 0.64234
 H1889 H 1.29008 0.60213 0.65315
 H1890 H 1.21006 0.58319 0.62398
 H1891 H 1.32718 0.61704 0.64980
 H1892 H 1.21622 0.60779 0.57386
 C1893 C 0.81235 1.16000 0.66074
 C1894 C 0.80234 1.16066 0.63420
 C1895 C 0.77812 1.14692 0.62765
 C1896 C 0.76951 1.14609 0.60365
 C1897 C 0.74893 1.13237 0.59769
 C1898 C 0.73664 1.11896 0.61565
 C1899 C 0.74493 1.12040 0.63973
 C1900 C 0.76545 1.13415 0.64567
 C1901 C 0.71472 1.10416 0.61020
 C1902 C 0.70843 1.09653 0.58682
 H1903 H 0.81044 1.16864 0.61478
 H1904 H 0.77880 1.15589 0.58944
 H1905 H 0.74269 1.13268 0.57906
 H1906 H 0.73566 1.11060 0.65399
 H1907 H 0.77158 1.13446 0.66437
 H1908 H 0.70274 1.09969 0.62506
 H1909 H 0.80897 1.16190 0.64566
 H1910 H 0.72019 1.10060 0.57173
 C1911 C 0.82828 0.63588 1.14363
 C1912 C 0.80803 0.64419 1.13073
 C1913 C 0.78764 0.62842 1.12303
 C1914 C 0.77258 0.63660 1.10415
 C1915 C 0.75280 0.62271 1.09646
 C1916 C 0.74760 0.60022 1.10756
 C1917 C 0.76232 0.59223 1.12684
 C1918 C 0.78224 0.60611 1.13448
 C1919 C 0.72623 0.58560 1.10025
 C1920 C 0.71665 0.58650 1.07674
 H1921 H 0.80726 0.66326 1.12547
 H1922 H 0.77608 0.65391 1.09532
 H1923 H 0.74130 0.63002 1.08225
 H1924 H 0.75837 0.57521 1.13600
 H1925 H 0.79292 0.59955 1.14964
 H1926 H 0.71772 0.57448 1.11395
 H1927 H 0.82951 0.61689 1.14893
 H1928 H 0.72616 0.59694 1.06313
 C1929 C 1.32061 0.85621 0.84637
 C1930 C 1.31355 0.86393 0.86955
 C1931 C 1.28937 0.87429 0.87565
 C1932 C 1.28378 0.87814 0.90025
 C1933 C 1.26112 0.88729 0.90715
 C1934 C 1.24341 0.89274 0.88951
 C1935 C 1.24916 0.88949 0.86489
 C1936 C 1.27183 0.88033 0.85797
 C1937 C 1.21909 0.90236 0.89600
 C1938 C 1.20854 0.89909 0.91881
 H1939 H 1.32645 0.86180 0.88429
 H1940 H 1.29699 0.87395 0.91427
 H1941 H 1.25778 0.89034 0.92627
 H1942 H 1.23597 0.89389 0.85091
 H1943 H 1.27531 0.87819 0.83879
 H1944 H 1.20861 0.91094 0.88170
 H1945 H 1.30866 0.85865 0.83099
 H1946 H 1.21783 0.88793 0.93213
 C1947 C 1.32264 0.35789 0.35807
 C1948 C 1.31601 0.38261 0.35988
 C1949 C 1.29377 0.39212 0.37177
 C1950 C 1.27444 0.37696 0.37863
 C1951 C 1.25315 0.38713 0.38820
 C1952 C 1.25075 0.41265 0.39114
 C1953 C 1.27004 0.42769 0.38427
 C1954 C 1.29129 0.41755 0.37476
 C1955 C 1.22817 0.42431 0.40023
 C1956 C 1.21125 0.41208 0.41447
 H1957 H 1.32783 0.39597 0.35163
 H1958 H 1.27527 0.35736 0.37602
 H1959 H 1.23840 0.37494 0.39250
 H1960 H 1.26863 0.44739 0.38614
 H1961 H 1.30576 0.42971 0.36942
 H1962 H 1.22552 0.44358 0.39658
 H1963 H 1.31274 0.34419 0.36802
 H1964 H 1.21537 0.39370 0.42052
 C1965 C 0.82811 0.87311 0.35650
 C1966 C 0.81794 0.87626 0.37948
 C1967 C 0.79559 0.89064 0.38388
 C1968 C 0.79104 0.89937 0.40743
 C1969 C 0.76945 0.91167 0.41272
 C1970 C 0.75173 0.91512 0.39457
 C1971 C 0.75658 0.90709 0.37084
 C1972 C 0.77821 0.89479 0.36553
 C1973 C 0.72780 0.92614 0.40002
 C1974 C 0.71701 0.92373 0.42276
 H1975 H 0.82722 0.86863 0.39510
 H1976 H 0.80418 0.89653 0.42184
 H1977 H 0.76670 0.91834 0.43105
 H1978 H 0.74323 0.90955 0.35655
 H1979 H 0.78079 0.88789 0.34727
 H1980 H 0.71735 0.93360 0.38507
 H1981 H 0.82097 0.88373 0.34154
 H1982 H 0.72656 0.91364 0.43675
 C1983 C 0.82340 0.34896 0.84418
 C1984 C 0.80162 0.33978 0.85317
 C1985 C 0.78132 0.35510 0.86263
 C1986 C 0.76144 0.34326 0.87313
 C1987 C 0.74146 0.35661 0.88156
 C1988 C 0.74091 0.38231 0.87986
 C1989 C 0.76059 0.39418 0.86906
 C1990 C 0.78060 0.38082 0.86057
 C1991 C 0.71987 0.39708 0.88847
 C1992 C 0.70405 0.38879 0.90639
 H1993 H 0.79894 0.32016 0.85249
 H1994 H 0.76123 0.32350 0.87462
 H1995 H 0.72633 0.34658 0.88888
 H1996 H 0.76051 0.41391 0.86719
 H1997 H 0.79510 0.39083 0.85214
 H1998 H 0.71771 0.41536 0.88132
 H1999 H 0.82688 0.36838 0.84483
 H2000 H 0.70816 0.37156 0.91513
 C2001 C 0.68051 0.85619 1.15095
 C2002 C 0.69650 0.85246 1.13163
 C2003 C 0.71625 0.86962 1.12539
 C2004 C 0.72646 0.86799 1.10217
 C2005 C 0.74563 0.88312 1.09559
 C2006 C 0.75505 0.90044 1.11213
 C2007 C 0.74506 0.90188 1.13550
 C2008 C 0.72584 0.88668 1.14211
 C2009 C 0.77634 0.91575 1.10613
 C2010 C 0.78333 0.92029 1.08227
 H2011 H 0.69405 0.83677 1.11982
 H2012 H 0.71975 0.85473 1.08908
 H2013 H 0.75340 0.88052 1.07777
 H2014 H 0.75231 0.91465 1.14876
 H2015 H 0.71909 0.88797 1.16048
 H2016 H 0.78761 0.92235 1.12093
 H2017 H 0.68162 0.87321 1.16096
 H2018 H 0.77185 0.91435 1.06740
 C2019 C 0.68305 0.34594 0.63993
 C2020 C 0.69641 0.36720 0.64404
 C2021 C 0.71672 0.37462 0.62817
 C2022 C 0.73421 0.39067 0.63756
 C2023 C 0.75404 0.39754 0.62353
 C2024 C 0.75668 0.38866 0.59963
 C2025 C 0.73919 0.37272 0.59013
 C2026 C 0.71921 0.36602 0.60409
 C2027 C 0.77788 0.39527 0.58475
 C2028 C 0.78862 0.41821 0.58700
 H2029 H 0.69322 0.37782 0.66037
 H2030 H 0.73279 0.39756 0.65600
 H2031 H 0.76758 0.40934 0.63167
 H2032 H 0.74085 0.36572 0.57176
 H2033 H 0.70576 0.35431 0.59575
 H2034 H 0.78503 0.38175 0.57225
 H2035 H 0.68799 0.33422 0.62483
 H2036 H 0.77988 0.43162 0.59864
 C2037 C 0.18385 0.86071 0.64120
 C2038 C 0.18736 0.86402 0.61635
 C2039 C 0.21146 0.86910 0.60622
 C2040 C 0.21362 0.88578 0.58709
 C2041 C 0.23639 0.89123 0.57758
 C2042 C 0.25725 0.87953 0.58666
 C2043 C 0.25497 0.86206 0.60505
 C2044 C 0.23228 0.85709 0.61500
 C2045 C 0.28149 0.88569 0.57751
 C2046 C 0.28815 0.90992 0.57379
 H2047 H 0.17188 0.86449 0.60421
 H2048 H 0.19772 0.89496 0.57987
 H2049 H 0.23770 0.90447 0.56307
 H2050 H 0.27085 0.85273 0.61213
 H2051 H 0.23096 0.84369 0.62936
 H2052 H 0.29517 0.87142 0.57665
 H2053 H 0.19892 0.86366 0.65356
 H2054 H 0.27539 0.92440 0.57814
 C2055 C 0.17843 0.35105 1.14579
 C2056 C 0.19553 0.36806 1.15409
 C2057 C 0.21726 0.37529 1.13999
 C2058 C 0.22922 0.39704 1.14633
 C2059 C 0.24988 0.40451 1.13379
 C2060 C 0.25912 0.39034 1.11445
 C2061 C 0.24746 0.36831 1.10844
 C2062 C 0.22679 0.36082 1.12101
 C2063 C 0.28134 0.39729 1.10096
 C2064 C 0.29065 0.42106 1.10079
 H2065 H 0.19254 0.37725 1.17128
 H2066 H 0.22258 0.40833 1.16114
 H2067 H 0.25873 0.42109 1.13978
 H2068 H 0.25442 0.35678 1.09397
 H2069 H 0.21875 0.34349 1.11604
 H2070 H 0.29074 0.38298 1.09107
 H2071 H 0.18050 0.34344 1.12776
 H2072 H 0.28109 0.43543 1.11039
 C2073 C 0.67390 1.13580 0.84891
 C2074 C 0.68434 1.13246 0.87185
 C2075 C 0.70752 1.11942 0.87642
 C2076 C 0.71351 1.11335 0.90046
 C2077 C 0.73589 1.10271 0.90606
 C2078 C 0.75297 1.09814 0.88769
 C2079 C 0.74673 1.10346 0.86353
 C2080 C 0.72431 1.11417 0.85791
 C2081 C 0.77736 1.08814 0.89323
 C2082 C 0.78896 1.09238 0.91548
 H2083 H 0.67491 1.13984 0.88749
 H2084 H 0.70089 1.11707 0.91506
 H2085 H 0.73969 1.09807 0.92478
 H2086 H 0.75954 1.09998 0.84903
 H2087 H 0.72066 1.11890 0.83920
 H2088 H 0.78714 1.07915 0.87868
 H2089 H 0.68142 1.12649 0.83326
 H2090 H 0.78010 1.10401 0.92876
 C2091 C 0.67586 0.64473 0.35568
 C2092 C 0.68225 0.61995 0.35616
 C2093 C 0.70468 0.61023 0.36740
 C2094 C 0.72463 0.62526 0.37280
 C2095 C 0.74614 0.61511 0.38175
 C2096 C 0.74813 0.58972 0.38558
 C2097 C 0.72832 0.57473 0.37994
 C2098 C 0.70680 0.58488 0.37097
 C2099 C 0.77083 0.57838 0.39461
 C2100 C 0.78745 0.59127 0.40887
 H2101 H 0.67035 0.60696 0.34721
 H2102 H 0.72411 0.64473 0.36941
 H2103 H 0.76134 0.62716 0.38491
 H2104 H 0.72949 0.55510 0.38247
 H2105 H 0.69182 0.57286 0.36658
 H2106 H 0.77374 0.55909 0.39106
 H2107 H 0.68574 0.65784 0.36664
 H2108 H 0.78280 0.60961 0.41484
 C2109 C 0.17020 1.14434 0.36370
 C2110 C 0.18981 1.13132 0.35407
 C2111 C 0.21133 1.12355 0.36825
 C2112 C 0.22620 1.10512 0.35849
 C2113 C 0.24695 1.09733 0.37086
 C2114 C 0.25330 1.10785 0.39337
 C2115 C 0.23872 1.12663 0.40293
 C2116 C 0.21787 1.13440 0.39058
 C2117 C 0.27559 1.10054 0.40657
 C2118 C 0.28632 1.07748 0.40378
 H2119 H 0.18918 1.12603 0.33509
 H2120 H 0.22180 1.09674 0.34114
 H2121 H 0.25822 1.08352 0.36236
 H2122 H 0.24350 1.13534 0.42002
 H2123 H 0.20736 1.14918 0.39838
 H2124 H 0.28370 1.11397 0.41856
 H2125 H 0.17035 1.14992 0.38257
 H2126 H 0.27756 1.06406 0.39223
 C2127 C 0.17339 0.64272 0.86647
 C2128 C 0.18418 0.61981 0.86928
 C2129 C 0.20706 0.61630 0.88292
 C2130 C 0.21154 0.59369 0.89401
 C2131 C 0.23320 0.58954 0.90658
 C2132 C 0.25107 0.60782 0.90784
 C2133 C 0.24637 0.63062 0.89722
 C2134 C 0.22465 0.63482 0.88472
 C2135 C 0.27507 0.60326 0.91908
 C2136 C 0.28561 0.58003 0.91881
 H2137 H 0.17460 0.60371 0.86293
 H2138 H 0.19819 0.57923 0.89303
 H2139 H 0.23585 0.57199 0.91523
 H2140 H 0.25986 0.64497 0.89792
 H2141 H 0.22204 0.65231 0.87594
 H2142 H 0.28581 0.61886 0.92467
 H2143 H 0.18128 0.65825 0.87584
 H2144 H 0.27572 0.56506 0.91053
 C2145 C 1.14111 1.32559 1.15071
 C2146 C 1.14981 1.30511 1.13814
 C2147 C 1.13458 1.28401 1.13085
 C2148 C 1.14608 1.26167 1.12564
 C2149 C 1.13266 1.24133 1.11825
 C2150 C 1.10735 1.24298 1.11549
 C2151 C 1.09572 1.26517 1.12110
 C2152 C 1.10918 1.28559 1.12853
 C2153 C 1.09288 1.22188 1.10672
 C2154 C 1.10263 1.20449 1.09082
 H2155 H 1.16913 1.30355 1.13510
 H2156 H 1.16558 1.25988 1.12744
 H2157 H 1.14220 1.22431 1.11491
 H2158 H 1.07623 1.26687 1.11918
 H2159 H 1.09965 1.30259 1.13190
 H2160 H 1.07388 1.22113 1.11146
 H2161 H 1.12243 1.32585 1.15658
 H2162 H 1.12076 1.20743 1.08401
 C2163 C 1.14521 0.83816 0.63760
 C2164 C 1.14187 0.81432 0.64572
 C2165 C 1.13147 0.79434 0.63065
 C2166 C 1.12436 0.77273 0.64219
 C2167 C 1.11554 0.75293 0.62870
 C2168 C 1.11357 0.75431 0.60323
 C2169 C 1.12116 0.77570 0.59159
 C2170 C 1.12996 0.79557 0.60511
 C2171 C 1.10423 0.73356 0.58850
 C2172 C 1.08749 0.71706 0.59784
 H2173 H 1.14814 0.80989 0.66387
 H2174 H 1.12581 0.77107 0.66176
 H2175 H 1.11077 0.73641 0.63828
 H2176 H 1.12021 0.77707 0.57198
 H2177 H 1.13605 0.81150 0.59535
 H2178 H 1.10954 0.73226 0.56964
 H2179 H 1.13886 0.84355 0.61981
 H2180 H 1.08028 0.72060 0.61579
 C2181 C 0.65607 1.31299 0.65150
 C2182 C 0.63153 1.30771 0.64868
 C2183 C 0.62304 1.28475 0.63715
 C2184 C 0.60078 1.28480 0.62473
 C2185 C 0.59309 1.26407 0.61191
 C2186 C 0.60750 1.24277 0.61152
 C2187 C 0.62951 1.24254 0.62433
 C2188 C 0.63711 1.26320 0.63727
 C2189 C 0.60024 1.22067 0.59780
 C2190 C 0.57605 1.21441 0.59409
 H2191 H 0.61845 1.32221 0.65183
 H2192 H 0.58963 1.30117 0.62433
 H2193 H 0.57622 1.26502 0.60185
 H2194 H 0.64078 1.22625 0.62447
 H2195 H 0.65398 1.26213 0.64729
 H2196 H 0.61426 1.20773 0.59263
 H2197 H 0.66941 1.29960 0.64578
 H2198 H 0.56195 1.22568 0.60203
 C2199 C 0.65845 0.81675 1.14338
 C2200 C 0.63622 0.81018 1.13308
 C2201 C 0.63245 0.78799 1.11779
 C2202 C 0.61147 0.78662 1.10333
 C2203 C 0.60658 0.76575 1.08935
 C2204 C 0.62248 0.74556 1.08974
 C2205 C 0.64383 0.74715 1.10361
 C2206 C 0.64872 0.76803 1.11765
 C2207 C 0.61667 0.72234 1.07687
 C2208 C 0.59280 0.71441 1.07414
 H2209 H 0.62110 0.82270 1.13526
 H2210 H 0.59871 0.80174 1.10290
 H2211 H 0.59029 0.76549 1.07832
 H2212 H 0.65637 0.73184 1.10424
 H2213 H 0.66489 0.76805 1.12881
 H2214 H 0.63132 0.70980 1.07257
 H2215 H 0.67442 0.80586 1.13970
 H2216 H 0.57835 0.72580 1.08126
 C2217 C 0.84528 1.30864 0.84018
 C2218 C 0.85389 1.30414 0.86358
 C2219 C 0.86804 1.28187 0.86983
 C2220 C 0.88495 1.28318 0.88892
 C2221 C 0.89977 1.26314 0.89446
 C2222 C 0.89778 1.24117 0.88115
 C2223 C 0.88082 1.23979 0.86213
 C2224 C 0.86592 1.25982 0.85663
 C2225 C 0.91258 1.21929 0.88710
 C2226 C 0.92004 1.21431 0.91079
 H2227 H 0.85366 1.31915 0.87652
 H2228 H 0.88708 1.29997 0.89926
 H2229 H 0.91301 1.26506 0.90891
 H2230 H 0.87879 1.22301 0.85175
 H2231 H 0.85271 1.25781 0.84219
 H2232 H 0.91477 1.20519 0.87334
 H2233 H 0.84766 1.29483 0.82624
 H2234 H 0.91512 1.22692 0.92521
 C2235 C 0.85381 0.83675 0.36723
 C2236 C 0.87354 0.82110 0.36331
 C2237 C 0.87742 0.79777 0.37640
 C2238 C 0.89283 0.78025 0.36590
 C2239 C 0.89735 0.75804 0.37746
 C2240 C 0.88685 0.75293 0.40011
 C2241 C 0.87114 0.77025 0.41054
 C2242 C 0.86659 0.79258 0.39893
 C2243 C 0.89178 0.72955 0.41275
 C2244 C 0.91387 0.71731 0.40996
 H2245 H 0.88614 0.82524 0.34892
 H2246 H 0.90126 0.78366 0.34851
 H2247 H 0.90881 0.74478 0.36836
 H2248 H 0.86274 0.76667 0.42790
 H2249 H 0.85500 0.80577 0.40792
 H2250 H 0.87784 0.72211 0.42428
 H2251 H 0.84035 0.83155 0.38041
 H2252 H 0.92786 0.72607 0.39941
 C2253 C 0.35528 1.32742 0.34729
 C2254 C 0.35683 1.31662 0.37024
 C2255 C 0.36998 1.29333 0.37522
 C2256 C 0.37621 1.28775 0.39933
 C2257 C 0.38807 1.26581 0.40503
 C2258 C 0.39371 1.24867 0.38670
 C2259 C 0.38785 1.25438 0.36253
 C2260 C 0.37596 1.27634 0.35682
 C2261 C 0.40548 1.22477 0.39222
 C2262 C 0.40271 1.21311 0.41458
 H2263 H 0.34900 1.32628 0.38556
 H2264 H 0.37197 1.30049 0.41387
 H2265 H 0.39294 1.26250 0.42379
 H2266 H 0.39200 1.24154 0.34805
 H2267 H 0.37106 1.27954 0.33806
 H2268 H 0.41463 1.21522 0.37760
 H2269 H 0.36496 1.31919 0.33226
 H2270 H 0.39115 1.22163 0.42805
 C2271 C 0.35073 0.82455 0.85817
 C2272 C 0.36320 0.80409 0.84933
 C2273 C 0.37067 0.78304 0.86447
 C2274 C 0.37639 0.76091 0.85279
 C2275 C 0.38451 0.74080 0.86610
 C2276 C 0.38747 0.74252 0.89145
 C2277 C 0.38126 0.76447 0.90325
 C2278 C 0.37310 0.78465 0.88991
 C2279 C 0.39695 0.72172 0.90582
 C2280 C 0.41295 0.70458 0.89586
 H2281 H 0.36661 0.80279 0.83000
 H2282 H 0.37455 0.75914 0.83325
 H2283 H 0.38828 0.72391 0.85645
 H2284 H 0.38329 0.76618 0.92278
 H2285 H 0.36935 0.80153 0.89954
 H2286 H 0.39246 0.72097 0.92491
 H2287 H 0.34427 0.82440 0.87667
 H2288 H 0.41954 0.70756 0.87761
 C2289 C 1.13472 0.66491 0.86358
 C2290 C 1.14311 0.68887 0.86506
 C2291 C 1.13014 0.70852 0.87811
 C2292 C 1.13317 0.73277 0.87060
 C2293 C 1.12226 0.75194 0.88341
 C2294 C 1.10852 0.74717 0.90428
 C2295 C 1.10591 0.72297 0.91214
 C2296 C 1.11642 0.70371 0.89901
 C2297 C 1.09723 0.76732 0.91816
 C2298 C 1.08669 0.78716 0.90632
 H2299 H 1.16008 0.69332 0.85632
 H2300 H 1.14404 0.73688 0.85481
 H2301 H 1.12501 0.77052 0.87730
 H2302 H 1.09560 0.71898 0.92834
 H2303 H 1.11440 0.68521 0.90562
 H2304 H 1.09577 0.76578 0.93771
 H2305 H 1.11664 0.66045 0.86962
 H2306 H 1.08528 0.78675 0.88667
 C2307 C 1.13487 0.17185 0.35511
 C2308 C 1.14453 0.19230 0.36699
 C2309 C 1.13034 0.21439 0.37371
 C2310 C 1.14015 0.23045 0.39107
 C2311 C 1.12772 0.25167 0.39793
 C2312 C 1.10504 0.25734 0.38754
 C2313 C 1.09546 0.24165 0.36970
 C2314 C 1.10790 0.22032 0.36287
 C2315 C 1.09163 0.27994 0.39427
 C2316 C 1.09426 0.29103 0.41706
 H2317 H 1.16353 0.19200 0.37202
 H2318 H 1.15759 0.22659 0.39938
 H2319 H 1.13625 0.26380 0.41097
 H2320 H 1.07826 0.24587 0.36109
 H2321 H 1.10003 0.20892 0.34883
 H2322 H 1.07959 0.28782 0.38084
 H2323 H 1.11596 0.17169 0.34991
 H2324 H 1.10561 0.28211 0.43048
 C2325 C 0.64378 0.67589 0.34571
 C2326 C 0.64218 0.68557 0.36922
 C2327 C 0.62987 0.70905 0.37510
 C2328 C 0.62311 0.71370 0.39925
 C2329 C 0.61200 0.73582 0.40575
 C2330 C 0.60767 0.75398 0.38820
 C2331 C 0.61417 0.74925 0.36400
 C2332 C 0.62532 0.72714 0.35751
 C2333 C 0.59640 0.77788 0.39441
 C2334 C 0.59787 0.78832 0.41761
 H2335 H 0.64946 0.67499 0.38417
 H2336 H 0.62634 0.70009 0.41316
 H2337 H 0.60661 0.73845 0.42445
 H2338 H 0.61104 0.76292 0.35014
 H2339 H 0.63077 0.72466 0.33882
 H2340 H 0.58851 0.78840 0.37974
 H2341 H 0.63448 0.68502 0.33095
 H2342 H 0.60833 0.77902 0.43149
 C2343 C 0.64827 0.17133 0.86154
 C2344 C 0.62482 0.17980 0.86604
 C2345 C 0.61923 0.20144 0.88129
 C2346 C 0.59560 0.20428 0.89017
 C2347 C 0.58905 0.22520 0.90328
 C2348 C 0.60599 0.24394 0.90745
 C2349 C 0.62983 0.24078 0.89925
 C2350 C 0.63640 0.21983 0.88613
 C2351 C 0.59921 0.26723 0.91949
 C2352 C 0.57577 0.27685 0.91815
 H2353 H 0.60974 0.16965 0.85839
 H2354 H 0.58209 0.19031 0.88680
 H2355 H 0.57071 0.22663 0.91003
 H2356 H 0.64321 0.25495 0.90228
 H2357 H 0.65466 0.21860 0.87919
 H2358 H 0.61366 0.27835 0.92697
 H2359 H 0.66349 0.17947 0.87101
 H2360 H 0.56204 0.26689 0.90810
 C2361 C 0.85327 0.67275 1.13540
 C2362 C 0.86296 0.69426 1.14507
 C2363 C 0.86857 0.71614 1.13044
 C2364 C 0.88502 0.73317 1.13998
 C2365 C 0.89101 0.75408 1.12694
 C2366 C 0.88063 0.75845 1.10396
 C2367 C 0.86349 0.74192 1.09473
 C2368 C 0.85755 0.72086 1.10777
 C2369 C 0.88702 0.78048 1.08987
 C2370 C 0.91010 0.79067 1.09157
 H2371 H 0.86716 0.69493 1.16431
 H2372 H 0.89337 0.73024 1.15760
 H2373 H 0.90350 0.76697 1.13512
 H2374 H 0.85488 0.74520 1.07731
 H2375 H 0.84409 0.70865 1.10019
 H2376 H 0.87330 0.78870 1.07838
 H2377 H 0.84911 0.67157 1.11620
 H2378 H 0.92370 0.78114 1.10223
 C2379 C 0.85316 0.18015 0.65526
 C2380 C 0.84558 0.20326 0.64753
 C2381 C 0.86223 0.22229 0.63814
 C2382 C 0.85238 0.24181 0.62484
 C2383 C 0.86715 0.26067 0.61645
 C2384 C 0.89226 0.26052 0.62120
 C2385 C 0.90208 0.24133 0.63500
 C2386 C 0.88729 0.22233 0.64331
 C2387 C 0.90822 0.28054 0.61260
 C2388 C 0.90308 0.29323 0.59118
 H2389 H 0.82652 0.20784 0.64893
 H2390 H 0.83311 0.24254 0.62103
 H2391 H 0.85870 0.27562 0.60671
 H2392 H 0.92126 0.24099 0.63930
 H2393 H 0.89551 0.20814 0.65425
 H2394 H 0.92438 0.28469 0.62300
 H2395 H 0.87194 0.17488 0.65326
 H2396 H 0.88795 0.28682 0.58030
 C2397 C 0.35497 0.67037 0.63480
 C2398 C 0.36872 0.69015 0.64313
 C2399 C 0.37607 0.71110 0.62786
 C2400 C 0.39474 0.72626 0.63640
 C2401 C 0.40215 0.74651 0.62303
 C2402 C 0.39104 0.75210 0.60066
 C2403 C 0.37200 0.73727 0.59230
 C2404 C 0.36460 0.71691 0.60569
 C2405 C 0.39811 0.77391 0.58646
 C2406 C 0.42122 0.78413 0.58820
 H2407 H 0.37472 0.69021 0.66190
 H2408 H 0.40360 0.72249 0.65360
 H2409 H 0.41616 0.75804 0.63068
 H2410 H 0.36282 0.74147 0.57537
 H2411 H 0.34962 0.70622 0.59877
 H2412 H 0.38455 0.78226 0.57487
 H2413 H 0.34873 0.66987 0.61616
 H2414 H 0.43479 0.77498 0.59917
 C2415 C 0.36360 0.17354 1.14751
 C2416 C 0.35484 0.19489 1.13671
 C2417 C 0.37003 0.21656 1.13165
 C2418 C 0.36187 0.23326 1.11416
 C2419 C 0.37542 0.25399 1.10872
 C2420 C 0.39756 0.25856 1.12070
 C2421 C 0.40538 0.24236 1.13881
 C2422 C 0.39184 0.22145 1.14420
 C2423 C 0.41206 0.28056 1.11502
 C2424 C 0.41192 0.29044 1.09171
 H2425 H 0.33597 0.19563 1.13122
 H2426 H 0.34493 0.23022 1.10459
 H2427 H 0.36825 0.26664 1.09540
 H2428 H 0.42209 0.24578 1.14865
 H2429 H 0.39832 0.20951 1.15845
 H2430 H 0.42234 0.28924 1.12945
 H2431 H 0.38245 0.17236 1.15289
 H2432 H 0.40247 0.28055 1.07744
 C2433 C 1.13893 1.14692 0.67510
 C2434 C 1.14799 1.13196 0.69360
 C2435 C 1.13335 1.12384 0.71464
 C2436 C 1.14147 1.10370 0.72819
 C2437 C 1.12888 1.09606 0.74878
 C2438 C 1.10779 1.10848 0.75635
 C2439 C 1.09985 1.12883 0.74301
 C2440 C 1.11241 1.13644 0.72237
 C2441 C 1.09451 1.10161 0.77870
 C2442 C 1.09566 1.07819 0.78876
 H2443 H 1.16680 1.12631 0.69309
 H2444 H 1.15778 1.09395 0.72294
 H2445 H 1.13622 1.08089 0.75903
 H2446 H 1.08394 1.13901 0.74869
 H2447 H 1.10598 1.15260 0.71307
 H2448 H 1.08373 1.11566 0.78744
 H2449 H 1.12014 1.15260 0.67563
 H2450 H 1.10595 1.06415 0.77940
 C2451 C 1.14335 0.63686 0.17295
 C2452 C 1.13410 0.64725 0.19414
 C2453 C 1.12649 0.63222 0.21505
 C2454 C 1.10975 0.64189 0.23162
 C2455 C 1.10320 0.62862 0.25221
 C2456 C 1.11348 0.60542 0.25674
 C2457 C 1.13066 0.59602 0.24050
 C2458 C 1.13705 0.60919 0.21979
 C2459 C 1.10733 0.59133 0.27877
 C2460 C 1.08444 0.59299 0.28926
 H2461 H 1.13388 0.66700 0.19609
 H2462 H 1.10183 0.65982 0.22870
 H2463 H 1.09059 0.63688 0.26485
 H2464 H 1.13918 0.57844 0.24385
 H2465 H 1.15081 0.60158 0.20799
 H2466 H 1.12114 0.57968 0.28667
 H2467 H 1.14283 0.61716 0.17074
 H2468 H 1.07075 0.60379 0.28002
 C2469 C 0.64005 1.14230 0.17590
 C2470 C 0.65242 1.13123 0.19519
 C2471 C 0.64094 1.12293 0.21796
 C2472 C 0.61581 1.11919 0.22003
 C2473 C 0.60601 1.11026 0.24165
 C2474 C 0.62115 1.10492 0.26162
 C2475 C 0.64619 1.10852 0.25940
 C2476 C 0.65596 1.11742 0.23785
 C2477 C 0.61183 1.09468 0.28462
 C2478 C 0.58764 1.09622 0.29189
 H2479 H 0.67190 1.12907 0.19378
 H2480 H 0.60369 1.12244 0.20489
 H2481 H 0.58672 1.10697 0.24232
 H2482 H 0.65830 1.10437 0.27440
 H2483 H 0.67539 1.11989 0.23669
 H2484 H 0.62500 1.08676 0.29696
 H2485 H 0.62108 1.14698 0.17773
 H2486 H 0.57488 1.10670 0.28114
 C2487 C 0.64554 0.63281 0.67291
 C2488 C 0.62269 0.62832 0.68270
 C2489 C 0.61886 0.61217 0.70390
 C2490 C 0.59603 0.60149 0.70712
 C2491 C 0.59126 0.58730 0.72760
 C2492 C 0.60914 0.58388 0.74562
 C2493 C 0.63221 0.59391 0.74204
 C2494 C 0.63703 0.60804 0.72149
 C2495 C 0.60390 0.57111 0.76874
 C2496 C 0.58081 0.57157 0.77898
 H2497 H 0.60680 0.63577 0.67379
 H2498 H 0.58178 0.60423 0.69379
 H2499 H 0.57350 0.57919 0.72928
 H2500 H 0.64630 0.59155 0.75563
 H2501 H 0.65470 0.61637 0.71994
 H2502 H 0.61899 0.56424 0.77939
 H2503 H 0.66071 0.62222 0.67967
 H2504 H 0.56640 0.58099 0.76938
 C2505 C 0.86175 0.87103 0.66846
 C2506 C 0.87281 0.85678 0.68643
 C2507 C 0.88138 0.86621 0.71016
 C2508 C 0.88643 0.84937 0.72868
 C2509 C 0.89575 0.85724 0.75100
 C2510 C 0.90027 0.88212 0.75530
 C2511 C 0.89553 0.89903 0.73662
 C2512 C 0.88611 0.89116 0.71429
 C2513 C 0.91050 0.88952 0.77914
 C2514 C 0.90893 0.91333 0.78834
 H2515 H 0.87504 0.83735 0.68299
 H2516 H 0.88324 0.83001 0.72584
 H2517 H 0.89944 0.84380 0.76496
 H2518 H 0.89961 0.91825 0.73884
 H2519 H 0.88328 0.90457 0.70016
 H2520 H 0.91800 0.87524 0.79051
 H2521 H 0.85674 0.88983 0.67227
 H2522 H 0.89892 0.92700 0.77824
 C2523 C 0.86258 0.35104 0.17620
 C2524 C 0.86491 0.37424 0.18669
 C2525 C 0.87886 0.37929 0.20922
 C2526 C 0.87351 0.40072 0.22225
 C2527 C 0.88586 0.40633 0.24373
 C2528 C 0.90432 0.39079 0.25251
 C2529 C 0.90973 0.36931 0.23949
 C2530 C 0.89726 0.36364 0.21796
 C2531 C 0.91725 0.39598 0.27567
 C2532 C 0.91869 0.41954 0.28546
 H2533 H 0.85526 0.38941 0.17847
 H2534 H 0.85935 0.41302 0.21602
 H2535 H 0.88035 0.42255 0.25361
 H2536 H 0.92375 0.35697 0.24592
 H2537 H 0.90236 0.34721 0.20819
 H2538 H 0.92496 0.38075 0.28563
 H2539 H 0.87206 0.33562 0.18408
 H2540 H 0.91170 0.43483 0.27512
 C2541 C 0.36202 0.84786 0.17559
 C2542 C 0.36683 0.87097 0.18531
 C2543 C 0.38283 0.87501 0.20664
 C2544 C 0.39373 0.89796 0.20971
 C2545 C 0.40795 0.90297 0.23020
 C2546 C 0.41117 0.88522 0.24839
 C2547 C 0.40093 0.86199 0.24497
 C2548 C 0.38677 0.85692 0.22438
 C2549 C 0.42393 0.89083 0.27153
 C2550 C 0.42369 0.91436 0.28153
 H2551 H 0.35961 0.88688 0.17605
 H2552 H 0.39116 0.91213 0.19622
 H2553 H 0.41624 0.92083 0.23175
 H2554 H 0.40314 0.84800 0.25869
 H2555 H 0.37832 0.83915 0.22290
 H2556 H 0.43062 0.87574 0.28238
 H2557 H 0.37129 0.83202 0.18291
 H2558 H 0.41444 0.92880 0.27173
 C2559 C 0.33718 0.34236 0.69014
 C2560 C 0.34474 0.36598 0.69589
 C2561 C 0.35804 0.37174 0.71865
 C2562 C 0.37455 0.39119 0.71868
 C2563 C 0.38883 0.39609 0.73916
 C2564 C 0.38665 0.38173 0.76017
 C2565 C 0.37000 0.36243 0.76025
 C2566 C 0.35562 0.35761 0.73982
 C2567 C 0.40103 0.38683 0.78236
 C2568 C 0.40748 0.41058 0.78891
 H2569 H 0.34447 0.37955 0.68160
 H2570 H 0.37687 0.40226 0.70259
 H2571 H 0.40183 0.41083 0.73832
 H2572 H 0.36784 0.35128 0.77632
 H2573 H 0.34262 0.34290 0.74079
 H2574 H 0.40377 0.37222 0.79534
 H2575 H 0.33970 0.32793 0.70331
 H2576 H 0.40190 0.42564 0.77742
 C2577 C 1.13690 0.85477 1.32745
 C2578 C 1.13160 0.87791 1.31816
 C2579 C 1.11717 0.88191 1.29572
 C2580 C 1.10721 0.90520 1.29158
 C2581 C 1.09452 0.91017 1.27013
 C2582 C 1.09175 0.89194 1.25219
 C2583 C 1.10107 0.86846 1.25658
 C2584 C 1.11386 0.86350 1.27800
 C2585 C 1.08014 0.89717 1.22847
 C2586 C 1.08201 0.92008 1.21759
 H2587 H 1.13735 0.89390 1.32830
 H2588 H 1.10938 0.91967 1.30494
 H2589 H 1.08695 0.92830 1.26764
 H2590 H 1.09919 0.85415 1.24301
 H2591 H 1.12168 0.84547 1.28013
 H2592 H 1.07279 0.88199 1.21810
 H2593 H 1.12888 0.83879 1.31904
 H2594 H 1.09207 0.93431 1.22693
 C2595 C 1.13901 0.35059 0.82402
 C2596 C 1.14708 0.36375 0.80392
 C2597 C 1.13153 0.37096 0.78305
 C2598 C 1.13971 0.38964 0.76779
 C2599 C 1.12595 0.39710 0.74777
 C2600 C 1.10355 0.38601 0.74249
 C2601 C 1.09560 0.36687 0.75734
 C2602 C 1.10936 0.35945 0.77750
 C2603 C 1.08886 0.39337 0.72104
 C2604 C 1.08981 0.41704 0.71158
 H2605 H 1.16579 0.36967 0.80366
 H2606 H 1.15689 0.39854 0.77135
 H2607 H 1.13325 0.41119 0.73621
 H2608 H 1.07865 0.35770 0.75337
 H2609 H 1.10272 0.34445 0.78830
 H2610 H 1.07741 0.37971 0.71259
 H2611 H 1.12042 0.34446 0.82467
 H2612 H 1.10051 0.43058 0.72119
 C2613 C 0.65124 0.85760 0.82130
 C2614 C 0.63164 0.85398 0.80549
 C2615 C 0.62522 0.87064 0.78524
 C2616 C 0.60223 0.86834 0.77454
 C2617 C 0.59550 0.88283 0.75482
 C2618 C 0.61163 0.90021 0.74532
 C2619 C 0.63474 0.90239 0.75586
 C2620 C 0.64153 0.88779 0.77562
 C2621 C 0.60553 0.91489 0.72349
 C2622 C 0.58175 0.91841 0.71545
 H2623 H 0.61975 0.83860 0.80841
 H2624 H 0.58946 0.85501 0.78128
 H2625 H 0.57791 0.87966 0.74672
 H2626 H 0.64770 0.91525 0.74860
 H2627 H 0.65971 0.88965 0.78276
 H2628 H 0.62030 0.92196 0.71273
 H2629 H 0.66143 0.87436 0.81987
 H2630 H 0.56685 0.91198 0.72635
 C2631 C 0.63645 0.36816 1.33546
 C2632 C 0.64524 0.36815 1.31178
 C2633 C 0.63125 0.37724 1.29052
 C2634 C 0.64336 0.38040 1.26842
 C2635 C 0.63068 0.38738 1.24751
 C2636 C 0.60547 0.39143 1.24824
 C2637 C 0.59325 0.38785 1.27020
 C2638 C 0.60594 0.38088 1.29115
 C2639 C 0.59150 0.39894 1.22639
 C2640 C 0.60204 0.41236 1.20775
 H2641 H 0.66257 0.35937 1.30846
 H2642 H 0.66271 0.37717 1.26725
 H2643 H 0.64065 0.38904 1.23073
 H2644 H 0.57381 0.39048 1.27117
 H2645 H 0.59564 0.37777 1.30747
 H2646 H 0.57221 0.39543 1.22594
 H2647 H 0.61932 0.37685 1.33961
 H2648 H 0.62066 0.41818 1.20997
 C2649 C 0.85354 1.15739 1.31761
 C2650 C 0.85810 1.13411 1.30808
 C2651 C 0.87357 1.12956 1.28651
 C2652 C 0.88404 1.10632 1.28343
 C2653 C 0.89802 1.10093 1.26295
 C2654 C 0.90147 1.11858 1.24476
 C2655 C 0.89154 1.14205 1.24812
 C2656 C 0.87760 1.14749 1.26869
 C2657 C 0.91440 1.11273 1.22182
 C2658 C 0.91419 1.08917 1.21186
 H2659 H 0.85122 1.11839 1.31776
 H2660 H 0.88141 1.09225 1.29695
 H2661 H 0.90604 1.08288 1.26146
 H2662 H 0.89392 1.15598 1.23442
 H2663 H 0.86948 1.16548 1.27011
 H2664 H 0.92150 1.12766 1.21116
 H2665 H 0.86241 1.17306 1.30970
 H2666 H 0.90453 1.07498 1.22140
 C2667 C 0.85906 0.62865 0.83272
 C2668 C 0.86961 0.63909 0.81230
 C2669 C 0.87570 0.62525 0.78997
 C2670 C 0.89231 0.63553 0.77384
 C2671 C 0.89828 0.62354 0.75225
 C2672 C 0.88773 0.60086 0.74631
 C2673 C 0.87060 0.59083 0.76209
 C2674 C 0.86467 0.60283 0.78380
 C2675 C 0.89357 0.58808 0.72330
 C2676 C 0.91611 0.59070 0.71229
 H2677 H 0.87366 0.65848 0.81266
 H2678 H 0.90067 0.65300 0.77791
 H2679 H 0.91074 0.63241 0.74004
 H2680 H 0.86186 0.57365 0.75764
 H2681 H 0.85109 0.59473 0.79530
 H2682 H 0.87970 0.57692 0.71485
 H2683 H 0.85509 0.60928 0.83291
 H2684 H 0.92999 0.60104 0.72174
 C2685 C 0.34268 1.14044 0.82096
 C2686 C 0.36563 1.13617 0.81128
 C2687 C 0.36987 1.12119 0.78914
 C2688 C 0.39280 1.11063 0.78567
 C2689 C 0.39790 1.09720 0.76462
 C2690 C 0.38023 1.09443 0.74628
 C2691 C 0.35707 1.10441 0.75001
 C2692 C 0.35193 1.11780 0.77114
 C2693 C 0.38580 1.08226 0.72278
 C2694 C 0.40899 1.08307 0.71282
 H2695 H 0.38129 1.14289 0.82118
 H2696 H 0.40687 1.11279 0.79932
 H2697 H 0.41572 1.08908 0.76279
 H2698 H 0.34315 1.10254 0.73618
 H2699 H 0.33417 1.12606 0.77288
 H2700 H 0.37092 1.07538 0.71185
 H2701 H 0.32710 1.13161 0.81278
 H2702 H 0.42309 1.09260 0.72277
 C2703 C 0.36175 0.63616 1.32879
 C2704 C 0.37091 0.64858 1.30877
 C2705 C 0.37962 0.63552 1.28679
 C2706 C 0.39648 0.64680 1.27153
 C2707 C 0.40408 0.63524 1.25008
 C2708 C 0.39470 0.61222 1.24338
 C2709 C 0.37752 0.60120 1.25844
 C2710 C 0.37008 0.61264 1.27990
 C2711 C 0.40130 0.59970 1.22038
 C2712 C 0.42319 0.60353 1.20834
 H2713 H 0.37063 0.66840 1.30869
 H2714 H 0.40368 0.66465 1.27616
 H2715 H 0.41671 0.64474 1.23853
 H2716 H 0.36969 0.58370 1.25350
 H2717 H 0.35628 0.60380 1.29060
 H2718 H 0.38835 0.58678 1.21312
 H2719 H 0.36269 0.61636 1.32904
 H2720 H 0.43611 0.61617 1.21620
 C2721 C 1.14891 1.32466 0.85998
 C2722 C 1.13781 1.30336 0.85143
 C2723 C 1.13219 1.28211 0.86702
 C2724 C 1.11429 1.26571 0.85917
 C2725 C 1.10839 1.24535 0.87311
 C2726 C 1.12033 1.24084 0.89531
 C2727 C 1.13882 1.25675 0.90283
 C2728 C 1.14466 1.27728 0.88891
 C2729 C 1.11430 1.21918 0.91019
 C2730 C 1.09089 1.20962 0.91025
 H2731 H 1.13255 1.30234 0.83247
 H2732 H 1.10476 1.26870 0.84217
 H2733 H 1.09477 1.23292 0.86616
 H2734 H 1.14864 1.25336 0.91959
 H2735 H 1.15921 1.28897 0.89516
 H2736 H 1.12856 1.21048 0.92064
 H2737 H 1.15393 1.32610 0.87895
 H2738 H 1.07681 1.21951 0.90060
 C2739 C 1.14641 0.83113 0.36500
 C2740 C 1.12359 0.82019 0.36593
 C2741 C 1.11821 0.79840 0.38077
 C2742 C 1.09401 0.79344 0.38657
 C2743 C 1.08792 0.77213 0.39898
 C2744 C 1.10595 0.75505 0.40547
 C2745 C 1.13025 0.76036 0.40036
 C2746 C 1.13636 0.78174 0.38799
 C2747 C 1.09996 0.73138 0.41690
 C2748 C 1.07773 0.71983 0.41302
 H2749 H 1.10877 0.82822 0.35571
 H2750 H 1.07972 0.80605 0.38132
 H2751 H 1.06908 0.76913 0.40337
 H2752 H 1.14447 0.74754 0.40524
 H2753 H 1.15516 0.78464 0.38340
 H2754 H 1.11432 0.72175 0.42635
 H2755 H 1.16011 0.82527 0.37783
 H2756 H 1.06455 0.72845 0.40117
 C2757 C 0.63160 1.33046 0.35820
 C2758 C 0.63574 1.31544 0.37822
 C2759 C 0.62079 1.29369 0.38361
 C2760 C 0.62139 1.28416 0.40719
 C2761 C 0.60800 1.26340 0.41301
 C2762 C 0.59354 1.25169 0.39529
 C2763 C 0.59322 1.26102 0.37160
 C2764 C 0.60671 1.28176 0.36575
 C2765 C 0.58006 1.22887 0.40038
 C2766 C 0.57523 1.22081 0.42383
 H2767 H 0.64973 1.32040 0.39118
 H2768 H 0.63241 1.29272 0.42116
 H2769 H 0.60971 1.25638 0.43124
 H2770 H 0.58269 1.25207 0.35749
 H2771 H 0.60642 1.28790 0.34712
 H2772 H 0.57497 1.21735 0.38512
 H2773 H 0.61591 1.32712 0.34679
 H2774 H 0.57982 1.23214 0.43932
 C2775 C 0.64452 0.81796 0.84305
 C2776 C 0.63547 0.81013 0.86532
 C2777 C 0.62210 0.78690 0.86891
 C2778 C 0.61044 0.78324 0.89120
 C2779 C 0.59849 0.76131 0.89598
 C2780 C 0.59809 0.74238 0.87857
 C2781 C 0.60904 0.74624 0.85599
 C2782 C 0.62113 0.76816 0.85123
 C2783 C 0.58714 0.71830 0.88386
 C2784 C 0.58798 0.70839 0.90716
 H2785 H 0.63758 0.82216 0.88089
 H2786 H 0.61070 0.79737 0.90509
 H2787 H 0.58962 0.75922 0.91334
 H2788 H 0.60893 0.73193 0.84228
 H2789 H 0.63009 0.76989 0.83392
 H2790 H 0.58103 0.70706 0.86878
 H2791 H 0.64095 0.80750 0.82672
 H2792 H 0.59697 0.71864 0.92146
 C2793 C 0.85253 1.32566 1.13990
 C2794 C 0.87593 1.31661 1.13628
 C2795 C 0.88142 1.29462 1.12143
 C2796 C 0.90511 1.29127 1.11289
 C2797 C 0.91140 1.27023 1.09980
 C2798 C 0.89411 1.25188 1.09530
 C2799 C 0.87026 1.25549 1.10329
 C2800 C 0.86396 1.27654 1.11640
 C2801 C 0.90051 1.22860 1.08302
 C2802 C 0.92370 1.21842 1.08458
 H2803 H 0.89103 1.32667 1.14398
 H2804 H 0.91885 1.30496 1.11641
 H2805 H 0.92978 1.26845 1.09326
 H2806 H 0.85662 1.24162 1.10003
 H2807 H 0.84564 1.27812 1.12311
 H2808 H 0.88596 1.21794 1.07508
 H2809 H 0.83745 1.31743 1.13028
 H2810 H 0.93744 1.22789 1.09509
 C2811 C 0.87131 0.84186 0.63523
 C2812 C 0.86193 0.82253 0.62157
 C2813 C 0.87612 0.80047 0.61510
 C2814 C 0.86783 0.78565 0.59598
 C2815 C 0.87986 0.76393 0.59010
 C2816 C 0.90055 0.75658 0.60329
 C2817 C 0.90867 0.77122 0.62263
 C2818 C 0.89664 0.79300 0.62850
 C2819 C 0.91297 0.73309 0.59825
 C2820 C 0.91204 0.72185 0.57547
 H2821 H 0.84308 0.82317 0.61599
 H2822 H 0.85177 0.79074 0.58574
 H2823 H 0.87237 0.75265 0.57574
 H2824 H 0.92425 0.76567 0.63336
 H2825 H 0.90307 0.80339 0.64400
 H2826 H 0.92241 0.72425 0.61310
 H2827 H 0.89022 0.84173 0.64052
 H2828 H 0.90322 0.73129 0.56059
 C2829 C 0.34895 1.31572 0.65669
 C2830 C 0.34460 1.30295 0.63511
 C2831 C 0.36014 1.28242 0.62692
 C2832 C 0.35035 1.26504 0.61088
 C2833 C 0.36417 1.24500 0.60330
 C2834 C 0.38822 1.24212 0.61142
 C2835 C 0.39812 1.25956 0.62728
 C2836 C 0.38436 1.27973 0.63475
 C2837 C 0.40290 1.22062 0.60436
 C2838 C 0.39977 1.20912 0.58191
 H2839 H 0.32833 1.30680 0.62473
 H2840 H 0.33178 1.26670 0.60460
 H2841 H 0.35572 1.23148 0.59161
 H2842 H 0.41663 1.25770 0.63372
 H2843 H 0.39289 1.29316 0.64643
 H2844 H 0.41614 1.21394 0.61727
 H2845 H 0.36374 1.30989 0.66832
 H2846 H 0.38732 1.21731 0.56899
 C2847 C 0.35122 0.82396 1.13864
 C2848 C 0.37464 0.81551 1.13389
 C2849 C 0.38016 0.79393 1.11848
 C2850 C 0.40370 0.79124 1.10932
 C2851 C 0.41018 0.77048 1.09591
 C2852 C 0.39327 0.75171 1.09170
 C2853 C 0.36951 0.75471 1.10021
 C2854 C 0.36301 0.77552 1.11362
 C2855 C 0.40002 0.72862 1.07921
 C2856 C 0.42354 0.71912 1.08014
 H2857 H 0.38978 0.82573 1.14132
 H2858 H 0.41721 0.80522 1.11267
 H2859 H 0.42845 0.76921 1.08894
 H2860 H 0.35615 0.74054 1.09715
 H2861 H 0.34481 0.77663 1.12074
 H2862 H 0.38559 0.71755 1.07162
 H2863 H 0.33592 0.81570 1.12942
 H2864 H 0.43726 0.72898 1.09030
 C2865 C 0.86637 0.66389 0.86053
 C2866 C 0.85651 0.68423 0.87242
 C2867 C 0.87052 0.70646 0.87878
 C2868 C 0.86122 0.72233 0.89656
 C2869 C 0.87341 0.74382 0.90280
 C2870 C 0.89529 0.74994 0.89133
 C2871 C 0.90434 0.73438 0.87313
 C2872 C 0.89216 0.71280 0.86693
 C2873 C 0.90830 0.77292 0.89718
 C2874 C 0.90645 0.78432 0.91987
 H2875 H 0.83755 0.68392 0.87740
 H2876 H 0.84436 0.71813 0.90563
 H2877 H 0.86525 0.75582 0.91617
 H2878 H 0.92089 0.73895 0.86369
 H2879 H 0.89951 0.70157 0.85249
 H2880 H 0.91929 0.78097 0.88313
 H2881 H 0.88534 0.66379 0.85566
 H2882 H 0.89613 0.77539 0.93393
 C2883 C 0.84415 0.18237 0.35422
 C2884 C 0.86762 0.19120 0.35778
 C2885 C 0.87353 0.21317 0.37252
 C2886 C 0.89747 0.21626 0.38064
 C2887 C 0.90421 0.23724 0.39358
 C2888 C 0.88716 0.25584 0.39836
 C2889 C 0.86307 0.25251 0.39077
 C2890 C 0.85630 0.23148 0.37784
 C2891 C 0.89399 0.27899 0.41074
 C2892 C 0.91740 0.28856 0.40955
 H2893 H 0.88256 0.18093 0.35001
 H2894 H 0.91106 0.20238 0.37691
 H2895 H 0.92277 0.23871 0.39983
 H2896 H 0.84958 0.26654 0.39428
 H2897 H 0.83778 0.23008 0.37150
 H2898 H 0.87967 0.28986 0.41881
 H2899 H 0.82918 0.19078 0.36381
 H2900 H 0.93090 0.27890 0.39895
 C2901 C 0.35197 0.67199 0.35652
 C2902 C 0.37566 0.68045 0.35968
 C2903 C 0.38185 0.70412 0.37161
 C2904 C 0.40577 0.70786 0.37961
 C2905 C 0.41245 0.72978 0.39105
 C2906 C 0.39534 0.74862 0.39455
 C2907 C 0.37141 0.74488 0.38667
 C2908 C 0.36474 0.72301 0.37513
 C2909 C 0.40176 0.77221 0.40640
 C2910 C 0.42513 0.78193 0.40581
 H2911 H 0.39045 0.66846 0.35443
 H2912 H 0.41932 0.69366 0.37722
 H2913 H 0.43093 0.73168 0.39742
 H2914 H 0.35789 0.75911 0.38910
 H2915 H 0.34627 0.72131 0.36876
 H2916 H 0.38719 0.78318 0.41391
 H2917 H 0.33700 0.68271 0.36345
 H2918 H 0.43901 0.77227 0.39569
 C2919 C 0.35395 0.17536 0.84821
 C2920 C 0.35640 0.18479 0.87178
 C2921 C 0.36957 0.20760 0.87806
 C2922 C 0.37534 0.21215 0.90254
 C2923 C 0.38660 0.23395 0.90960
 C2924 C 0.39208 0.25190 0.89227
 C2925 C 0.38674 0.24718 0.86772
 C2926 C 0.37546 0.22536 0.86066
 C2927 C 0.40345 0.27555 0.89906
 C2928 C 0.40173 0.28591 0.92230
 H2929 H 0.34846 0.17467 0.88660
 H2930 H 0.37107 0.19877 0.91632
 H2931 H 0.39111 0.23649 0.92858
 H2932 H 0.39086 0.26067 0.85400
 H2933 H 0.37092 0.22288 0.84168
 H2934 H 0.41185 0.28591 0.88469
 H2935 H 0.36381 0.18360 0.83344
 H2936 H 0.39080 0.27690 0.93582
 C2937 C 1.15289 0.67504 1.14937
 C2938 C 1.12938 0.68164 1.14237
 C2939 C 1.12281 0.70534 1.13079
 C2940 C 1.09817 0.71098 1.12742
 C2941 C 1.09101 0.73265 1.11593
 C2942 C 1.10841 0.74936 1.10758
 C2943 C 1.13304 0.74356 1.11059
 C2944 C 1.14022 0.72187 1.12203
 C2945 C 1.10168 0.77264 1.09533
 C2946 C 1.07905 0.78394 1.09802
 H2947 H 1.11512 0.66832 1.14482
 H2948 H 1.08434 0.69846 1.13356
 H2949 H 1.07184 0.73588 1.11327
 H2950 H 1.14685 0.75591 1.10406
 H2951 H 1.15940 0.71817 1.12348
 H2952 H 1.11569 0.78199 1.08534
 H2953 H 1.16756 0.68790 1.14753
 H2954 H 1.06601 0.77585 1.11015
 C2955 C 1.14777 0.18147 0.64829
 C2956 C 1.12554 0.18562 0.63688
 C2957 C 1.11719 0.21027 0.62966
 C2958 C 1.10247 0.21285 0.60897
 C2959 C 1.09376 0.23591 0.60216
 C2960 C 1.09915 0.25669 0.61630
 C2961 C 1.11338 0.25402 0.63732
 C2962 C 1.12258 0.23106 0.64382
 C2963 C 1.08962 0.28113 0.60983
 C2964 C 1.08782 0.28884 0.58578
 H2965 H 1.11422 0.17005 0.63245
 H2966 H 1.09781 0.19701 0.59801
 H2967 H 1.08236 0.23737 0.58615
 H2968 H 1.11753 0.26977 0.64861
 H2969 H 1.13336 0.22950 0.66023
 H2970 H 1.08587 0.29407 0.62434
 H2971 H 1.16060 0.19629 0.65041
 H2972 H 1.09481 0.27713 0.57146
 C2973 C 0.63408 0.67010 0.64848
 C2974 C 0.64254 0.69025 0.63547
 C2975 C 0.62832 0.71278 0.63067
 C2976 C 0.64092 0.73406 0.62445
 C2977 C 0.62846 0.75540 0.61819
 C2978 C 0.60297 0.75583 0.61751
 C2979 C 0.59029 0.73479 0.62448
 C2980 C 0.60281 0.71337 0.63089
 C2981 C 0.58940 0.77786 0.60940
 C2982 C 0.59927 0.79431 0.59280
 H2983 H 0.66113 0.69002 0.62924
 H2984 H 0.66056 0.73417 0.62434
 H2985 H 0.63892 0.77151 0.61393
 H2986 H 0.57066 0.73470 0.62429
 H2987 H 0.59246 0.69721 0.63523
 H2988 H 0.57085 0.78003 0.61530
 H2989 H 0.61665 0.67146 0.65723
 H2990 H 0.61679 0.79001 0.58507
 C2991 C 0.64313 0.16811 1.13856
 C2992 C 0.63152 0.18878 1.14802
 C2993 C 0.62425 0.21008 1.13306
 C2994 C 0.60642 0.22605 1.14202
 C2995 C 0.59952 0.24678 1.12890
 C2996 C 0.61039 0.25204 1.10644
 C2997 C 0.62861 0.23638 1.09771
 C2998 C 0.63546 0.21556 1.11081
 C2999 C 0.60398 0.27431 1.09250
 C3000 C 0.58129 0.28555 1.09438
 H3001 H 0.62770 0.18952 1.16729
 H3002 H 0.59786 0.22254 1.15933
 H3003 H 0.58615 0.25893 1.13680
 H3004 H 0.63761 0.24030 1.08073
 H3005 H 0.64994 0.20427 1.10369
 H3006 H 0.61765 0.28205 1.08083
 H3007 H 0.64653 0.16691 1.11925
 H3008 H 0.56759 0.27696 1.10542
 C3009 C 1.31841 1.14911 0.85786
 C3010 C 1.30973 1.12533 0.86063
 C3011 C 1.28803 1.11913 0.87500
 C3012 C 1.28503 1.09487 0.88260
 C3013 C 1.26429 1.08791 0.89521
 C3014 C 1.24587 1.10508 0.90016
 C3015 C 1.24909 1.12947 0.89304
 C3016 C 1.26986 1.13644 0.88044
 C3017 C 1.22304 1.09816 0.91231
 C3018 C 1.21361 1.07449 0.91108
 H3019 H 1.31986 1.11040 0.85247
 H3020 H 1.29880 1.08121 0.87874
 H3021 H 1.26285 1.06912 0.90110
 H3022 H 1.23519 1.14304 0.89668
 H3023 H 1.27120 1.15520 0.87445
 H3024 H 1.21225 1.11269 0.92027
 H3025 H 1.31015 1.16401 0.86791
 H3026 H 1.22312 1.06070 0.90059
 C3027 C 1.32455 0.63579 0.35241
 C3028 C 1.31260 0.63922 0.37446
 C3029 C 1.28988 0.62631 0.38043
 C3030 C 1.28432 0.62201 0.40486
 C3031 C 1.26287 0.61013 0.41115
 C3032 C 1.24625 0.60277 0.39306
 C3033 C 1.25195 0.60687 0.36861
 C3034 C 1.27345 0.61864 0.36232
 C3035 C 1.22280 0.59112 0.39898
 C3036 C 1.21129 0.59469 0.42126
 H3037 H 1.32093 0.65052 0.38838
 H3038 H 1.29673 0.62765 0.41912
 H3039 H 1.25959 0.60662 0.43016
 H3040 H 1.23947 0.60141 0.35433
 H3041 H 1.27682 0.62219 0.34332
 H3042 H 1.21338 0.58150 0.38456
 H3043 H 1.31779 0.62213 0.33978
 H3044 H 1.21967 0.60660 0.43461
 C3045 C 0.81856 1.14611 0.34404
 C3046 C 0.80901 1.14384 0.36744
 C3047 C 0.78644 1.13048 0.37345
 C3048 C 0.78164 1.12551 0.39796
 C3049 C 0.76003 1.11425 0.40481
 C3050 C 0.74250 1.10793 0.38725
 C3051 C 0.74751 1.11236 0.36267
 C3052 C 0.76916 1.12366 0.35580
 C3053 C 0.71901 1.09667 0.39393
 C3054 C 0.70838 1.09983 0.41679
 H3055 H 0.81883 1.15218 0.38240
 H3056 H 0.79465 1.13045 0.41194
 H3057 H 0.75729 1.11041 0.42386
 H3058 H 0.73438 1.10757 0.34876
 H3059 H 0.77187 1.12750 0.33676
 H3060 H 0.70905 1.08721 0.37977
 H3061 H 0.81061 1.13594 0.32911
 H3062 H 0.71713 1.11176 0.42987
 C3063 C 0.83087 0.63640 0.86715
 C3064 C 0.81159 0.62360 0.85660
 C3065 C 0.78950 0.61624 0.86976
 C3066 C 0.77496 0.59783 0.85953
 C3067 C 0.75357 0.59065 0.87082
 C3068 C 0.74622 0.60179 0.89268
 C3069 C 0.76052 0.62050 0.90272
 C3070 C 0.78201 0.62764 0.89146
 C3071 C 0.72322 0.59526 0.90469
 C3072 C 0.71227 0.57239 0.90182
 H3073 H 0.81278 0.61840 0.83763
 H3074 H 0.78012 0.58905 0.84261
 H3075 H 0.74260 0.57685 0.86196
 H3076 H 0.75501 0.62966 0.91932
 H3077 H 0.79225 0.64245 0.89953
 H3078 H 0.71488 0.60912 0.91599
 H3079 H 0.83015 0.64167 0.88609
 H3080 H 0.72127 0.55856 0.89094
 C3081 C 1.32555 0.85953 1.15117
 C3082 C 1.31483 0.86267 1.12832
 C3083 C 1.29178 0.87603 1.12389
 C3084 C 1.28572 0.88220 1.09989
 C3085 C 1.26351 0.89329 1.09446
 C3086 C 1.24665 0.89821 1.11295
 C3087 C 1.25296 0.89277 1.13706
 C3088 C 1.27522 0.88162 1.14252
 C3089 C 1.22239 0.90869 1.10756
 C3090 C 1.21057 0.90459 1.08540
 H3091 H 1.32403 0.85508 1.11263
 H3092 H 1.29817 0.87824 1.08520
 H3093 H 1.25967 0.89800 1.07576
 H3094 H 1.24033 0.89650 1.15165
 H3095 H 1.27893 0.87683 1.16120
 H3096 H 1.21285 0.91789 1.12215
 H3097 H 1.31821 0.86902 1.16680
 H3098 H 1.21918 0.89279 1.07210
 C3099 C 1.31702 0.34783 0.64934
 C3100 C 1.29606 0.35929 0.65790
 C3101 C 1.27692 0.36910 0.64161
 C3102 C 1.26113 0.38718 0.65051
 C3103 C 1.24219 0.39610 0.63605
 C3104 C 1.23855 0.38698 0.61233
 C3105 C 1.25406 0.36858 0.60359
 C3106 C 1.27312 0.35977 0.61800
 C3107 C 1.21798 0.39529 0.59697
 C3108 C 1.20776 0.41861 0.59933
 H3109 H 1.29336 0.36085 0.67733
 H3110 H 1.26336 0.39430 0.66879
 H3111 H 1.23005 0.40960 0.64382
 H3112 H 1.25136 0.36092 0.58559
 H3113 H 1.28432 0.34517 0.61080
 H3114 H 1.21083 0.38250 0.58374
 H3115 H 1.32042 0.34745 0.63001
 H3116 H 1.21612 0.43136 0.61192
 C3117 C 0.83578 0.86964 0.63085
 C3118 C 0.81491 0.87927 0.64154
 C3119 C 0.79272 0.88549 0.62758
 C3120 C 0.77605 0.90196 0.63780
 C3121 C 0.75454 0.90778 0.62561
 C3122 C 0.74918 0.89715 0.60286
 C3123 C 0.76555 0.88020 0.59289
 C3124 C 0.78715 0.87445 0.60505
 C3125 C 0.72625 0.90258 0.58979
 C3126 C 0.71416 0.92491 0.59257
 H3127 H 0.81466 0.88218 0.66102
 H3128 H 0.77964 0.91031 0.65535
 H3129 H 0.74192 0.92014 0.63440
 H3130 H 0.76161 0.87139 0.57565
 H3131 H 0.79905 0.86092 0.59700
 H3132 H 0.71893 0.88860 0.57790
 H3133 H 0.83643 0.86730 0.61134
 H3134 H 0.72253 0.93894 0.60371
 C3135 C 0.82639 0.36126 1.15065
 C3136 C 0.81676 0.36432 1.12733
 C3137 C 0.79387 0.37753 1.12188
 C3138 C 0.78885 0.38373 1.09766
 C3139 C 0.76694 0.39495 1.09132
 C3140 C 0.74939 0.39997 1.10912
 C3141 C 0.75461 0.39438 1.13344
 C3142 C 0.77653 0.38309 1.13979
 C3143 C 0.72551 0.41076 1.10285
 C3144 C 0.71451 0.40709 1.08021
 H3145 H 0.82683 0.35692 1.11210
 H3146 H 0.80191 0.37977 1.08351
 H3147 H 0.76390 0.39973 1.07249
 H3148 H 0.74140 0.39815 1.14749
 H3149 H 0.77938 0.37824 1.15860
 H3150 H 0.71546 0.41980 1.11719
 H3151 H 0.81808 0.37044 1.16596
 H3152 H 0.72343 0.39541 1.06703
 C3153 C 0.67282 1.13457 1.14584
 C3154 C 0.69148 1.14483 1.13226
 C3155 C 0.71360 1.13138 1.12487
 C3156 C 0.72761 1.14095 1.10601
 C3157 C 0.74899 1.12933 1.09879
 C3158 C 0.75684 1.10776 1.11034
 C3159 C 0.74308 1.09843 1.12952
 C3160 C 0.72165 1.11005 1.13673
 C3161 C 0.77976 1.09533 1.10366
 C3162 C 0.79032 1.09761 1.08078
 H3163 H 0.68983 1.16376 1.12672
 H3164 H 0.72206 1.15760 1.09689
 H3165 H 0.75955 1.13772 1.08461
 H3166 H 0.74898 1.08211 1.13901
 H3167 H 0.71189 1.10252 1.15192
 H3168 H 0.78848 1.08422 1.11740
 H3169 H 0.67397 1.11564 1.15139
 H3170 H 0.78115 1.10834 1.06704
 C3171 C 0.66873 0.64360 0.63593
 C3172 C 0.69202 0.63797 0.64422
 C3173 C 0.71298 0.63296 0.62816
 C3174 C 0.73624 0.63270 0.63857
 C3175 C 0.75649 0.62676 0.62462
 C3176 C 0.75391 0.62068 0.59989
 C3177 C 0.73083 0.62177 0.58917
 C3178 C 0.71047 0.62763 0.60318
 C3179 C 0.77491 0.61233 0.58535
 C3180 C 0.79319 0.59815 0.59586
 H3181 H 0.69534 0.63825 0.66363
 H3182 H 0.73875 0.63691 0.65768
 H3183 H 0.77415 0.62681 0.63327
 H3184 H 0.72843 0.61721 0.57013
 H3185 H 0.69290 0.62724 0.59445
 H3186 H 0.77467 0.61519 0.56590
 H3187 H 0.66549 0.64642 0.61675
 H3188 H 0.79130 0.59291 0.61472
 C3189 C 0.17548 1.14483 0.64778
 C3190 C 0.19097 1.15517 0.63055
 C3191 C 0.21236 1.14264 0.61968
 C3192 C 0.22236 1.12082 0.62898
 C3193 C 0.24281 1.11011 0.61816
 C3194 C 0.25374 1.12098 0.59784
 C3195 C 0.24387 1.14285 0.58881
 C3196 C 0.22346 1.15349 0.59954
 C3197 C 0.27593 1.11095 0.58615
 C3198 C 0.28425 1.08686 0.58885
 H3199 H 0.18691 1.17336 0.62396
 H3200 H 0.21492 1.11213 0.64485
 H3201 H 0.25025 1.09371 0.62624
 H3202 H 0.25199 1.15178 0.57334
 H3203 H 0.21634 1.17037 0.59205
 H3204 H 0.28612 1.12340 0.57495
 H3205 H 0.17860 1.12619 0.65344
 H3206 H 0.27427 1.07440 0.60021
 C3207 C 0.18149 0.63918 1.15108
 C3208 C 0.19686 0.64797 1.13308
 C3209 C 0.22007 0.63584 1.12688
 C3210 C 0.23006 0.63983 1.10389
 C3211 C 0.25167 0.62832 1.09713
 C3212 C 0.26373 0.61244 1.11331
 C3213 C 0.25418 0.60915 1.13661
 C3214 C 0.23262 0.62075 1.14340
 C3215 C 0.28666 0.59981 1.10691
 C3216 C 0.29438 0.59657 1.08303
 H3217 H 0.19105 0.66328 1.12205
 H3218 H 0.22104 0.65178 1.09103
 H3219 H 0.25888 0.63235 1.07939
 H3220 H 0.26340 0.59751 1.14961
 H3221 H 0.22613 0.61803 1.16169
 H3222 H 0.29796 0.59309 1.12160
 H3223 H 0.18629 0.62237 1.16029
 H3224 H 0.28325 0.60300 1.06814
 C3225 C 0.67652 0.84643 0.85752
 C3226 C 0.69746 0.85842 0.84993
 C3227 C 0.71791 0.86518 0.86615
 C3228 C 0.74002 0.87153 0.85548
 C3229 C 0.75944 0.87950 0.86974
 C3230 C 0.75709 0.88164 0.89510
 C3231 C 0.73527 0.87456 0.90594
 C3232 C 0.71574 0.86658 0.89162
 C3233 C 0.77706 0.89142 0.91036
 C3234 C 0.79296 0.90903 0.90145
 H3235 H 0.69944 0.86232 0.83078
 H3236 H 0.74226 0.87047 0.83595
 H3237 H 0.77629 0.88395 0.86083
 H3238 H 0.73308 0.87592 0.92545
 H3239 H 0.69890 0.86226 0.90055
 H3240 H 0.77806 0.88595 0.92920
 H3241 H 0.67578 0.83933 0.87579
 H3242 H 0.78951 0.91631 0.88350
 C3243 C 0.67066 0.35383 0.36223
 C3244 C 0.68133 0.37672 0.36584
 C3245 C 0.70514 0.38044 0.37807
 C3246 C 0.71050 0.40370 0.38755
 C3247 C 0.73266 0.40823 0.39913
 C3248 C 0.75024 0.38961 0.40120
 C3249 C 0.74480 0.36623 0.39207
 C3250 C 0.72259 0.36167 0.38046
 C3251 C 0.77440 0.39422 0.41238
 C3252 C 0.78534 0.41721 0.41147
 H3253 H 0.67086 0.39284 0.36111
 H3254 H 0.69738 0.41845 0.38616
 H3255 H 0.73581 0.42630 0.40660
 H3256 H 0.75801 0.35156 0.39342
 H3257 H 0.71948 0.34360 0.37303
 H3258 H 0.78468 0.37878 0.41921
 H3259 H 0.68003 0.33757 0.36833
 H3260 H 0.77598 0.43177 0.40196
 C3261 C 0.17262 0.86620 0.35301
 C3262 C 0.19468 0.85589 0.36028
 C3263 C 0.21690 0.87010 0.36577
 C3264 C 0.23895 0.85738 0.36784
 C3265 C 0.26017 0.86959 0.37446
 C3266 C 0.25975 0.89486 0.37943
 C3267 C 0.23790 0.90778 0.37665
 C3268 C 0.21659 0.89554 0.37009
 C3269 C 0.28170 0.90794 0.38787
 C3270 C 0.29940 0.89635 0.40199
 H3271 H 0.19601 0.83614 0.36137
 H3272 H 0.23975 0.83783 0.36450
 H3273 H 0.27686 0.85918 0.37564
 H3274 H 0.23717 0.92728 0.38029
 H3275 H 0.19996 0.90601 0.36914
 H3276 H 0.28279 0.92745 0.38478
 H3277 H 0.17183 0.88543 0.34869
 H3278 H 0.29639 0.87760 0.40749
 C3279 C 0.17473 0.36053 0.85043
 C3280 C 0.19506 0.35189 0.86305
 C3281 C 0.21565 0.36737 0.87098
 C3282 C 0.23094 0.35850 0.88939
 C3283 C 0.25076 0.37216 0.89744
 C3284 C 0.25579 0.39510 0.88719
 C3285 C 0.24087 0.40376 0.86835
 C3286 C 0.22089 0.39012 0.86036
 C3287 C 0.27712 0.40962 0.89497
 C3288 C 0.28690 0.40792 0.91839
 H3289 H 0.19564 0.33275 0.86808
 H3290 H 0.22756 0.34087 0.89760
 H3291 H 0.26240 0.36435 0.91127
 H3292 H 0.24466 0.42116 0.85984
 H3293 H 0.21003 0.39727 0.84560
 H3294 H 0.28520 0.42159 0.88173
 H3295 H 0.17369 0.37955 0.84520
 H3296 H 0.27764 0.39670 0.93154
   
