data_POSCAR
  _audit_creation_date              2014-09-24
  _audit_creation_method            'ToBaCCo'
  _symmetry_space_group_name_H-M    'P1'
  _symmetry_Int_Tables_number       1
  _symmetry_cell_setting            triclinic
  loop_
  _symmetry_equiv_pos_as_xyz
 x,y,z
_cell_length_a 67.5556
_cell_length_b 67.5269
_cell_length_c 67.6240
_cell_angle_alpha 89.996400
_cell_angle_beta 89.990600
_cell_angle_gamma 90.046000
loop_
  _atom_site_label
  _atom_site_type_symbol
  _atom_site_fract_x
  _atom_site_fract_y
  _atom_site_fract_z
N1 N 0.16636 0.21498 0.21657
 N2 N 0.17073 0.19937 0.22736
 C3 C 0.15747 0.19780 0.24217
 C4 C 0.14423 0.21322 0.24045
 C5 C 0.15020 0.22387 0.22413
 H6 H 0.15737 0.18634 0.25335
 H7 H 0.14332 0.23706 0.21823
 Cu8 Cu 0.19329 0.18265 0.22091
 Cu9 Cu 0.18187 0.22263 0.19355
 Cu10 Cu 0.22252 0.19350 0.18213
 N11 N 0.21640 0.16665 0.21456
 N12 N 0.22775 0.17100 0.19935
 C13 C 0.24257 0.15773 0.19821
 C14 C 0.24031 0.14444 0.21350
 C15 C 0.22364 0.15041 0.22362
 H16 H 0.25410 0.15773 0.18713
 H17 H 0.21732 0.14343 0.23656
 N18 N 0.21484 0.21687 0.16649
 N19 N 0.19934 0.22797 0.17086
 C20 C 0.19796 0.24272 0.15751
 C21 C 0.21327 0.24072 0.14424
 C22 C 0.22372 0.22428 0.15024
 H23 H 0.18669 0.25408 0.15741
 H24 H 0.23679 0.21823 0.14328
 H25 H 0.19234 0.19465 0.18691
 H26 H 0.20818 0.21036 0.20324
 N27 N 0.66669 0.71526 0.71678
 N28 N 0.67139 0.69993 0.72785
 C29 C 0.65815 0.69833 0.74268
 C30 C 0.64459 0.71344 0.74068
 C31 C 0.65035 0.72393 0.72419
 H32 H 0.65826 0.68703 0.75401
 H33 H 0.64322 0.73690 0.71808
 Cu34 Cu 0.69418 0.68357 0.72141
 Cu35 Cu 0.68208 0.72287 0.69362
 Cu36 Cu 0.72278 0.69369 0.68213
 N37 N 0.71699 0.66722 0.71498
 N38 N 0.72804 0.67126 0.69946
 C39 C 0.74263 0.65777 0.69812
 C40 C 0.74053 0.64466 0.71357
 C41 C 0.72419 0.65096 0.72403
 H42 H 0.75394 0.65752 0.68680
 H43 H 0.71803 0.64415 0.73713
 N44 N 0.71498 0.71700 0.66643
 N45 N 0.69949 0.72811 0.67081
 C46 C 0.69812 0.74287 0.65748
 C47 C 0.71344 0.74087 0.64422
 C48 C 0.72388 0.72442 0.65020
 H49 H 0.68690 0.75428 0.65742
 H50 H 0.73698 0.71841 0.64326
 H51 H 0.69271 0.69491 0.68724
 H52 H 0.70869 0.71101 0.70296
 N53 N 0.33299 0.78518 0.71670
 N54 N 0.32862 0.80080 0.72748
 C55 C 0.34190 0.80237 0.74227
 C56 C 0.35514 0.78694 0.74055
 C57 C 0.34915 0.77629 0.72424
 H58 H 0.34200 0.81384 0.75343
 H59 H 0.35601 0.76308 0.71835
 Cu60 Cu 0.30607 0.81755 0.72100
 Cu61 Cu 0.31745 0.77753 0.69369
 Cu62 Cu 0.27682 0.80668 0.68223
 N63 N 0.28296 0.83358 0.71462
 N64 N 0.27162 0.82923 0.69940
 C65 C 0.25682 0.84252 0.69821
 C66 C 0.25910 0.85582 0.71349
 C67 C 0.27575 0.84985 0.72366
 H68 H 0.24528 0.84251 0.68712
 H69 H 0.28209 0.85683 0.73658
 N70 N 0.28449 0.78326 0.66662
 N71 N 0.29997 0.77216 0.67100
 C72 C 0.30133 0.75738 0.65768
 C73 C 0.28601 0.75936 0.64442
 C74 C 0.27559 0.77582 0.65039
 H75 H 0.31259 0.74600 0.65759
 H76 H 0.26253 0.78187 0.64341
 H77 H 0.30699 0.80550 0.68700
 H78 H 0.29113 0.78983 0.70335
 N79 N 0.83389 0.28469 0.21710
 N80 N 0.82918 0.30001 0.22818
 C81 C 0.84239 0.30162 0.24302
 C82 C 0.85594 0.28651 0.24100
 C83 C 0.85023 0.27601 0.22450
 H84 H 0.84226 0.31292 0.25436
 H85 H 0.85736 0.26304 0.21839
 Cu86 Cu 0.80640 0.31638 0.22175
 Cu87 Cu 0.81853 0.27711 0.19391
 Cu88 Cu 0.77786 0.30632 0.18241
 N89 N 0.78361 0.33275 0.21531
 N90 N 0.77258 0.32873 0.19977
 C91 C 0.75800 0.34225 0.19843
 C92 C 0.76010 0.35533 0.21390
 C93 C 0.77641 0.34900 0.22437
 H94 H 0.74670 0.34252 0.18711
 H95 H 0.78256 0.35578 0.23749
 N96 N 0.78567 0.28301 0.16669
 N97 N 0.80115 0.27190 0.17108
 C98 C 0.80254 0.25715 0.15773
 C99 C 0.78724 0.25918 0.14444
 C100 C 0.77680 0.27562 0.15043
 H101 H 0.81376 0.24574 0.15766
 H102 H 0.76372 0.28165 0.14348
 H103 H 0.80794 0.30507 0.18756
 H104 H 0.79192 0.28895 0.20324
 N105 N 0.83373 0.71510 0.28362
 N106 N 0.82925 0.69955 0.27277
 C107 C 0.84244 0.69803 0.25790
 C108 C 0.85574 0.71341 0.25964
 C109 C 0.84988 0.72399 0.27604
 H110 H 0.84242 0.68664 0.24666
 H111 H 0.85681 0.73717 0.28195
 Cu112 Cu 0.80665 0.68285 0.27918
 Cu113 Cu 0.81822 0.72273 0.30663
 Cu114 Cu 0.77737 0.69376 0.31788
 N115 N 0.78348 0.66691 0.28549
 N116 N 0.77211 0.67128 0.30067
 C117 C 0.75731 0.65797 0.30184
 C118 C 0.75963 0.64463 0.28662
 C119 C 0.77629 0.65062 0.27648
 H120 H 0.74576 0.65796 0.31292
 H121 H 0.78269 0.64357 0.26363
 N122 N 0.78512 0.71708 0.33355
 N123 N 0.80072 0.72809 0.32929
 C124 C 0.80212 0.74283 0.34264
 C125 C 0.78670 0.74090 0.35580
 C126 C 0.77618 0.72453 0.34974
 H127 H 0.81344 0.75414 0.34282
 H128 H 0.76302 0.71855 0.35662
 H129 H 0.80754 0.69479 0.31319
 H130 H 0.79187 0.71061 0.29684
 N131 N 0.33382 0.21516 -0.21695
 N132 N 0.32957 0.19941 -0.22762
 C133 C 0.34318 0.19748 -0.24207
 C134 C 0.35652 0.21285 -0.24025
 C135 C 0.35025 0.22383 -0.22425
 H136 H 0.34332 0.18593 -0.25315
 H137 H 0.35692 0.23723 -0.21854
 Cu138 Cu 0.30654 0.18316 -0.22138
 Cu139 Cu 0.31705 0.22377 -0.19511
 Cu140 Cu 0.27804 0.19306 -0.18190
 N141 N 0.28353 0.16692 -0.21514
 N142 N 0.27263 0.17080 -0.19948
 C143 C 0.25796 0.15735 -0.19821
 C144 C 0.25985 0.14444 -0.21386
 C145 C 0.27615 0.15082 -0.22435
 H146 H 0.24674 0.15700 -0.18680
 H147 H 0.28218 0.14416 -0.23759
 N148 N 0.28594 0.21645 -0.16626
 N149 N 0.30081 0.22816 -0.17127
 C150 C 0.30220 0.24294 -0.15794
 C151 C 0.28749 0.24036 -0.14407
 C152 C 0.27744 0.22353 -0.14967
 H153 H 0.31294 0.25481 -0.15837
 H154 H 0.26474 0.21710 -0.14233
 H155 H 0.30807 0.19556 -0.18762
 H156 H 0.29070 0.21015 -0.20329
 N157 N 0.66642 0.28453 -0.21699
 N158 N 0.67110 0.29987 -0.22806
 C159 C 0.65788 0.30144 -0.24291
 C160 C 0.64435 0.28628 -0.24092
 C161 C 0.65009 0.27580 -0.22440
 H162 H 0.65802 0.31272 -0.25427
 H163 H 0.64295 0.26284 -0.21826
 Cu164 Cu 0.69394 0.31626 -0.22165
 Cu165 Cu 0.68186 0.27697 -0.19381
 Cu166 Cu 0.72257 0.30624 -0.18239
 N167 N 0.71673 0.33270 -0.21523
 N168 N 0.72781 0.32866 -0.19974
 C169 C 0.74241 0.34218 -0.19842
 C170 C 0.74030 0.35529 -0.21386
 C171 C 0.72393 0.34898 -0.22429
 H172 H 0.75371 0.34245 -0.18709
 H173 H 0.71778 0.35577 -0.23741
 N174 N 0.71481 0.28291 -0.16666
 N175 N 0.69931 0.27177 -0.17099
 C176 C 0.69798 0.25703 -0.15762
 C177 C 0.71332 0.25910 -0.14438
 C178 C 0.72373 0.27555 -0.15043
 H179 H 0.68675 0.24560 -0.15749
 H180 H 0.73684 0.28161 -0.14354
 H181 H 0.69247 0.30495 -0.18747
 H182 H 0.70844 0.28884 -0.20321
 N183 N 0.16679 0.78509 0.28318
 N184 N 0.17153 0.80039 0.27207
 C185 C 0.15830 0.80199 0.25726
 C186 C 0.14471 0.78688 0.25926
 C187 C 0.15045 0.77640 0.27576
 H188 H 0.15844 0.81329 0.24592
 H189 H 0.14330 0.76343 0.28186
 Cu190 Cu 0.19435 0.81678 0.27852
 Cu191 Cu 0.18216 0.77749 0.30634
 Cu192 Cu 0.22288 0.80671 0.31786
 N193 N 0.21718 0.83316 0.28497
 N194 N 0.22819 0.82916 0.30053
 C195 C 0.24279 0.84267 0.30188
 C196 C 0.24068 0.85577 0.28641
 C197 C 0.22436 0.84944 0.27592
 H198 H 0.25409 0.84292 0.31321
 H199 H 0.21819 0.85622 0.26281
 N200 N 0.21504 0.78336 0.33357
 N201 N 0.19953 0.77225 0.32917
 C202 C 0.19813 0.75748 0.34249
 C203 C 0.21344 0.75946 0.35577
 C204 C 0.22390 0.77593 0.34981
 H205 H 0.18689 0.74607 0.34254
 H206 H 0.23700 0.78194 0.35676
 H207 H 0.19281 0.80545 0.31273
 H208 H 0.20878 0.78937 0.29703
 N209 N 0.46521 0.41618 0.46685
 N210 N 0.44988 0.42084 0.47792
 C211 C 0.44831 0.40759 0.49275
 C212 C 0.46342 0.39404 0.49074
 C213 C 0.47391 0.39984 0.47425
 H214 H 0.43701 0.40768 0.50408
 H215 H 0.48689 0.39274 0.46815
 Cu216 Cu 0.43347 0.44362 0.47150
 Cu217 Cu 0.47276 0.43162 0.44367
 Cu218 Cu 0.44346 0.47226 0.43219
 N219 N 0.41702 0.46637 0.46507
 N220 N 0.42102 0.47744 0.44956
 C221 C 0.40746 0.49197 0.44820
 C222 C 0.39436 0.48981 0.46365
 C223 C 0.40074 0.47351 0.47412
 H224 H 0.40717 0.50329 0.43689
 H225 H 0.39397 0.46731 0.48722
 N226 N 0.46679 0.46452 0.41647
 N227 N 0.47794 0.44905 0.42084
 C228 C 0.49269 0.44773 0.40748
 C229 C 0.49063 0.46305 0.39421
 C230 C 0.47416 0.47343 0.40022
 H231 H 0.50412 0.43653 0.40740
 H232 H 0.46809 0.48652 0.39329
 H233 H 0.46083 0.45823 0.45301
 H234 H 0.44477 0.44219 0.43731
 N235 N -0.03484 -0.08359 0.96649
 N236 N -0.05039 -0.07915 0.97735
 C237 C -0.05199 -0.09243 0.99212
 C238 C -0.03666 -0.10576 0.99033
 C239 C -0.02602 -0.09982 0.97399
 H240 H -0.06340 -0.09245 1.00334
 H241 H -0.01289 -0.10678 0.96803
 Cu242 Cu -0.06699 -0.05648 0.97106
 Cu243 Cu -0.02726 -0.06808 0.94343
 Cu244 Cu -0.05671 -0.02767 0.93182
 N245 N -0.08333 -0.03371 0.96441
 N246 N -0.07921 -0.02253 0.94900
 C247 C -0.09261 -0.00784 0.94778
 C248 C -0.10572 -0.01000 0.96321
 C249 C -0.09952 -0.02648 0.97352
 H250 H -0.09278 0.00361 0.93658
 H251 H -0.10626 -0.03264 0.98665
 N252 N -0.03329 -0.03525 0.91621
 N253 N -0.02205 -0.05061 0.92066
 C254 C -0.00729 -0.05191 0.90732
 C255 C -0.00946 -0.03668 0.89396
 C256 C -0.02599 -0.02638 0.89991
 H257 H 0.00418 -0.06307 0.90726
 H258 H -0.03217 -0.01340 0.89288
 H259 H -0.03951 -0.04164 0.95289
 H260 H -0.05530 -0.05780 0.93698
 N261 N 1.03494 0.58354 0.96658
 N262 N 1.05060 0.57923 0.97729
 C263 C 1.05214 0.59242 0.99217
 C264 C 1.03664 0.60556 0.99056
 C265 C 1.02601 0.59964 0.97422
 H266 H 1.06355 0.59246 1.00337
 H267 H 1.01286 0.60658 0.96829
 Cu268 Cu 1.06721 0.55666 0.97079
 Cu269 Cu 1.02732 0.56808 0.94347
 Cu270 Cu 1.05678 0.52768 0.93182
 N271 N 1.08351 0.53385 0.96433
 N272 N 1.07927 0.52255 0.94906
 C273 C 1.09256 0.50775 0.94796
 C274 C 1.10567 0.50992 0.96339
 C275 C 1.09965 0.52655 0.97352
 H276 H 1.09272 0.49630 0.93678
 H277 H 1.10641 0.53270 0.98665
 N278 N 1.03338 0.53529 0.91622
 N279 N 1.02212 0.55065 0.92069
 C280 C 1.00740 0.55199 0.90732
 C281 C 1.00959 0.53679 0.89395
 C282 C 1.02609 0.52645 0.89989
 H283 H 0.99592 0.56314 0.90727
 H284 H 1.03227 0.51349 0.89283
 H285 H 1.03971 0.54170 0.95296
 H286 H 1.05536 0.55783 0.93681
 N287 N 0.53526 0.08395 0.46632
 N288 N 0.55064 0.07934 0.47732
 C289 C 0.55225 0.09260 0.49214
 C290 C 0.53710 0.10610 0.49021
 C291 C 0.52656 0.10028 0.47375
 H292 H 0.56350 0.09246 0.50352
 H293 H 0.51350 0.10730 0.46775
 Cu294 Cu 0.56688 0.05634 0.47133
 Cu295 Cu 0.52756 0.06834 0.44335
 Cu296 Cu 0.55658 0.02751 0.43211
 N297 N 0.58329 0.03367 0.46462
 N298 N 0.57911 0.02242 0.44929
 C299 C 0.59261 0.00784 0.44797
 C300 C 0.60586 0.01015 0.46327
 C301 C 0.59964 0.02659 0.47360
 H302 H 0.59277 -0.00361 0.43680
 H303 H 0.60653 0.03286 0.48661
 N304 N 0.53319 0.03513 0.41649
 N305 N 0.52216 0.05071 0.42073
 C306 C 0.50742 0.05203 0.40737
 C307 C 0.50938 0.03659 0.39422
 C308 C 0.52576 0.02614 0.40032
 H309 H 0.49611 0.06334 0.40717
 H310 H 0.53178 0.01300 0.39345
 H311 H 0.53941 0.04179 0.45296
 H312 H 0.55560 0.05764 0.43711
 N313 N -0.03527 0.08394 0.53364
 N314 N -0.05097 0.07967 0.52294
 C315 C -0.05294 0.09336 0.50859
 C316 C -0.03767 0.10675 0.51047
 C317 C -0.02667 0.10043 0.52642
 H318 H -0.06442 0.09349 0.49747
 H319 H -0.01324 0.10706 0.53207
 Cu320 Cu -0.06706 0.05644 0.52852
 Cu321 Cu -0.02657 0.06706 0.55526
 Cu322 Cu -0.05737 0.02824 0.56847
 N323 N -0.08343 0.03377 0.53533
 N324 N -0.07966 0.02293 0.55105
 C325 C -0.09325 0.00840 0.55243
 C326 C -0.10615 0.01037 0.53681
 C327 C -0.09963 0.02652 0.52621
 H328 H -0.09365 -0.00283 0.56383
 H329 H -0.10623 0.03252 0.51295
 N330 N -0.03397 0.03597 0.58406
 N331 N -0.02222 0.05079 0.57903
 C332 C -0.00745 0.05217 0.59236
 C333 C -0.01009 0.03750 0.60625
 C334 C -0.02694 0.02747 0.60066
 H335 H 0.00443 0.06289 0.59194
 H336 H -0.03339 0.01481 0.60804
 H337 H -0.04019 0.04063 0.54692
 H338 H -0.05498 0.05821 0.56232
 N339 N 0.46502 0.58380 0.03375
 N340 N 0.44934 0.57950 0.02303
 C341 C 0.44746 0.59307 0.00854
 C342 C 0.46279 0.60644 0.01038
 C343 C 0.47368 0.60021 0.02645
 H344 H 0.43601 0.59315 -0.00262
 H345 H 0.48707 0.60689 0.03216
 Cu346 Cu 0.43315 0.55643 0.02915
 Cu347 Cu 0.47360 0.56698 0.05555
 Cu348 Cu 0.44317 0.52765 0.06841
 N349 N 0.41696 0.53340 0.03531
 N350 N 0.42090 0.52234 0.05084
 C351 C 0.40739 0.50773 0.05209
 C352 C 0.39438 0.50984 0.03657
 C353 C 0.40075 0.52620 0.02616
 H354 H 0.40704 0.49643 0.06342
 H355 H 0.39399 0.53240 0.01306
 N356 N 0.46654 0.53553 0.08408
 N357 N 0.47809 0.55058 0.07924
 C358 C 0.49277 0.55206 0.09264
 C359 C 0.49030 0.53722 0.10638
 C360 C 0.47363 0.52699 0.10063
 H361 H 0.50449 0.56297 0.09237
 H362 H 0.46731 0.51419 0.10788
 H363 H 0.46016 0.54057 0.04712
 H364 H 0.44541 0.55768 0.06294
 N365 N 0.53529 -0.08393 0.03396
 N366 N 0.55093 -0.07961 0.02319
 C367 C 0.55281 -0.09324 0.00875
 C368 C 0.53753 -0.10664 0.01066
 C369 C 0.52665 -0.10038 0.02673
 H370 H 0.56417 -0.09327 -0.00252
 H371 H 0.51325 -0.10702 0.03244
 Cu372 Cu 0.56695 -0.05625 0.02868
 Cu373 Cu 0.52664 -0.06702 0.05559
 Cu374 Cu 0.55704 -0.02779 0.06844
 N375 N 0.58331 -0.03350 0.03547
 N376 N 0.57938 -0.02251 0.05105
 C377 C 0.59292 -0.00794 0.05239
 C378 C 0.60596 -0.01001 0.03688
 C379 C 0.59956 -0.02630 0.02639
 H380 H 0.59325 0.00334 0.06374
 H381 H 0.60628 -0.03238 0.01320
 N382 N 0.53365 -0.03556 0.08406
 N383 N 0.52210 -0.05060 0.07922
 C384 C 0.50739 -0.05205 0.09261
 C385 C 0.50985 -0.03721 0.10635
 C386 C 0.52655 -0.02701 0.10061
 H387 H 0.49566 -0.06296 0.09232
 H388 H 0.53290 -0.01422 0.10786
 H389 H 0.54004 -0.04055 0.04697
 H390 H 0.55502 -0.05780 0.06255
 N391 N 1.03466 0.41644 0.53303
 N392 N 1.04999 0.42112 0.52197
 C393 C 1.05156 0.40790 0.50713
 C394 C 1.03644 0.39435 0.50913
 C395 C 1.02596 0.40009 0.52563
 H396 H 1.06283 0.40803 0.49578
 H397 H 1.01301 0.39294 0.53175
 Cu398 Cu 1.06641 0.44389 0.52838
 Cu399 Cu 1.02713 0.43182 0.55624
 Cu400 Cu 1.05647 0.47248 0.56769
 N401 N 1.08283 0.46666 0.53479
 N402 N 1.07885 0.47772 0.55030
 C403 C 1.09240 0.49229 0.55163
 C404 C 1.10546 0.49015 0.53615
 C405 C 1.09908 0.47384 0.52569
 H406 H 1.09273 0.50358 0.56296
 H407 H 1.10583 0.46768 0.51256
 N408 N 1.03318 0.46471 0.58343
 N409 N 1.02201 0.44923 0.57907
 C410 C 1.00728 0.44789 0.59245
 C411 C 1.00938 0.46321 0.60571
 C412 C 1.02584 0.47361 0.59968
 H413 H 0.99584 0.43669 0.59254
 H414 H 1.03193 0.48670 0.60661
 H415 H 1.03906 0.45838 0.54690
 H416 H 1.05514 0.44234 0.56258
 C417 C 0.35319 -0.01773 0.25466
 C418 C 0.36363 -0.00031 0.25017
 C419 C 0.35322 0.01712 0.24571
 C420 C 0.33247 0.01711 0.24575
 C421 C 0.32215 -0.00029 0.25023
 C422 C 0.33244 -0.01770 0.25468
 C423 C 0.38543 -0.00030 0.25013
 C424 C 0.39583 -0.00464 0.23267
 C425 C 0.41658 -0.00456 0.23265
 C426 C 0.42690 -0.00015 0.25002
 C427 C 0.41663 0.00420 0.26745
 C428 C 0.39588 0.00413 0.26753
 H429 H 0.36119 -0.03121 0.25810
 H430 H 0.36124 0.03059 0.24225
 H431 H 0.38779 -0.00805 0.21921
 H432 H 0.38789 0.00751 0.28101
 H433 H 0.30609 -0.00028 0.25024
 H434 H 0.44297 -0.00010 0.24998
 C435 C 0.14663 -0.01778 0.74521
 C436 C 0.13619 -0.00036 0.74965
 C437 C 0.14660 0.01708 0.75412
 C438 C 0.16735 0.01709 0.75414
 C439 C 0.17767 -0.00031 0.74972
 C440 C 0.16739 -0.01773 0.74526
 C441 C 0.11440 -0.00037 0.74963
 C442 C 0.10396 -0.00468 0.76708
 C443 C 0.08321 -0.00459 0.76706
 C444 C 0.07292 -0.00019 0.74966
 C445 C 0.08324 0.00411 0.73225
 C446 C 0.10399 0.00402 0.73220
 H447 H 0.13863 -0.03127 0.74176
 H448 H 0.13858 0.03055 0.75756
 H449 H 0.11195 -0.00807 0.78055
 H450 H 0.11201 0.00739 0.71873
 H451 H 0.19373 -0.00029 0.74973
 H452 H 0.05686 -0.00010 0.74968
 C453 C 0.64677 0.48235 0.24563
 C454 C 0.63634 0.49977 0.25006
 C455 C 0.64675 0.51722 0.25451
 C456 C 0.66749 0.51722 0.25452
 C457 C 0.67781 0.49983 0.25009
 C458 C 0.66752 0.48241 0.24566
 C459 C 0.61456 0.49976 0.25004
 C460 C 0.60412 0.49533 0.26745
 C461 C 0.58337 0.49534 0.26740
 C462 C 0.57310 0.49977 0.25001
 C463 C 0.58342 0.50419 0.23263
 C464 C 0.60416 0.50420 0.23262
 H465 H 0.63877 0.46886 0.24219
 H466 H 0.63873 0.53069 0.25794
 H467 H 0.61212 0.49190 0.28091
 H468 H 0.61220 0.50766 0.21917
 H469 H 0.69387 0.49985 0.25011
 H470 H 0.55704 0.49978 0.25000
 C471 C 0.85352 0.48260 0.75440
 C472 C 0.86394 0.50003 0.74990
 C473 C 0.85353 0.51744 0.74542
 C474 C 0.83278 0.51740 0.74544
 C475 C 0.82247 0.50000 0.74993
 C476 C 0.83278 0.48262 0.75441
 C477 C 0.88572 0.50005 0.74990
 C478 C 0.89613 0.49566 0.73247
 C479 C 0.91688 0.49568 0.73249
 C480 C 0.92719 0.50008 0.74988
 C481 C 0.91689 0.50446 0.76727
 C482 C 0.89614 0.50445 0.76731
 H483 H 0.86153 0.46913 0.75785
 H484 H 0.86154 0.53091 0.74194
 H485 H 0.88812 0.49224 0.71901
 H486 H 0.88813 0.50786 0.78078
 H487 H 0.80641 0.50000 0.74994
 H488 H 0.94325 0.50008 0.74987
 C489 C 0.25417 0.35397 -0.01763
 C490 C 0.24985 0.36437 -0.00018
 C491 C 0.24538 0.35394 0.01722
 C492 C 0.24526 0.33319 0.01715
 C493 C 0.24959 0.32289 -0.00027
 C494 C 0.25404 0.33321 -0.01765
 C495 C 0.24989 0.38615 -0.00014
 C496 C 0.23246 0.39658 -0.00453
 C497 C 0.23250 0.41733 -0.00448
 C498 C 0.24989 0.42764 -0.00004
 C499 C 0.26729 0.41733 0.00436
 C500 C 0.26733 0.39658 0.00431
 H501 H 0.25762 0.36200 -0.03108
 H502 H 0.24202 0.36195 0.03070
 H503 H 0.21899 0.38856 -0.00798
 H504 H 0.28080 0.38856 0.00773
 H505 H 0.24950 0.30682 -0.00030
 H506 H 0.24990 0.44371 -0.00002
 C507 C 0.74591 0.14612 -0.01735
 C508 C 0.75029 0.13568 0.00006
 C509 C 0.75480 0.14608 0.01746
 C510 C 0.75492 0.16683 0.01743
 C511 C 0.75055 0.17716 0.00005
 C512 C 0.74605 0.16688 -0.01733
 C513 C 0.75025 0.11390 0.00006
 C514 C 0.76769 0.10349 -0.00432
 C515 C 0.76765 0.08275 -0.00428
 C516 C 0.75025 0.07242 0.00013
 C517 C 0.73285 0.08272 0.00451
 C518 C 0.73281 0.10348 0.00448
 H519 H 0.74241 0.13812 -0.03081
 H520 H 0.75823 0.13805 0.03091
 H521 H 0.78117 0.11151 -0.00773
 H522 H 0.71933 0.11149 0.00786
 H523 H 0.75065 0.19323 0.00004
 H524 H 0.75026 0.05636 0.00016
 C525 C 0.24552 0.64596 0.48256
 C526 C 0.25006 0.63553 0.49994
 C527 C 0.25446 0.64596 0.51736
 C528 C 0.25430 0.66671 0.51738
 C529 C 0.24977 0.67702 0.50002
 C530 C 0.24539 0.66671 0.48262
 C531 C 0.25008 0.61375 0.49993
 C532 C 0.26750 0.60332 0.49546
 C533 C 0.26744 0.58256 0.49545
 C534 C 0.25003 0.57226 0.49989
 C535 C 0.23265 0.58258 0.50434
 C536 C 0.23264 0.60333 0.50436
 H537 H 0.24208 0.63793 0.46910
 H538 H 0.25796 0.63794 0.53080
 H539 H 0.28098 0.61133 0.49204
 H540 H 0.21918 0.61134 0.50780
 H541 H 0.24966 0.69308 0.50004
 H542 H 0.25000 0.55619 0.49988
 C543 C 0.75435 0.85415 0.48255
 C544 C 0.74991 0.86456 0.49995
 C545 C 0.74549 0.85414 0.51737
 C546 C 0.74553 0.83340 0.51735
 C547 C 0.74996 0.82309 0.49998
 C548 C 0.75437 0.83340 0.48259
 C549 C 0.74990 0.88632 0.49995
 C550 C 0.73246 0.89671 0.49555
 C551 C 0.73251 0.91746 0.49556
 C552 C 0.74990 0.92779 0.49996
 C553 C 0.76729 0.91749 0.50435
 C554 C 0.76733 0.89675 0.50435
 H555 H 0.75779 0.86217 0.46909
 H556 H 0.74205 0.86217 0.53083
 H557 H 0.71899 0.88868 0.49214
 H558 H 0.78081 0.88874 0.50775
 H559 H 0.74998 0.80702 0.49999
 H560 H 0.74989 0.94386 0.49995
 C561 C -0.01784 0.25449 0.35327
 C562 C -0.00042 0.25003 0.36369
 C563 C 0.01700 0.24558 0.35328
 C564 C 0.01698 0.24557 0.33256
 C565 C -0.00041 0.25002 0.32226
 C566 C -0.01780 0.25449 0.33255
 C567 C -0.00043 0.25001 0.38544
 C568 C -0.00497 0.23258 0.39583
 C569 C -0.00497 0.23258 0.41655
 C570 C -0.00044 0.24996 0.42687
 C571 C 0.00410 0.26735 0.41659
 C572 C 0.00410 0.26741 0.39587
 H573 H -0.03131 0.25794 0.36128
 H574 H 0.03046 0.24212 0.36129
 H575 H -0.00847 0.21912 0.38781
 H576 H 0.00760 0.28089 0.38788
 H577 H -0.00040 0.25000 0.30622
 H578 H -0.00043 0.24994 0.44291
 C579 C -0.01732 0.74554 0.14630
 C580 C 0.00012 0.74999 0.13590
 C581 C 0.01755 0.75441 0.14633
 C582 C 0.01750 0.75439 0.16705
 C583 C 0.00009 0.74994 0.17733
 C584 C -0.01731 0.74552 0.16702
 C585 C 0.00012 0.75000 0.11415
 C586 C -0.00447 0.76740 0.10375
 C587 C -0.00450 0.76737 0.08302
 C588 C 0.00003 0.74999 0.07272
 C589 C 0.00462 0.73263 0.08301
 C590 C 0.00466 0.73259 0.10373
 H591 H -0.03079 0.74211 0.13828
 H592 H 0.03103 0.75785 0.13834
 H593 H -0.00797 0.78086 0.11175
 H594 H 0.00820 0.71914 0.11174
 H595 H 0.00007 0.74993 0.19338
 H596 H 0.00001 0.74998 0.05668
 C597 C 0.48270 0.24548 0.64703
 C598 C 0.50017 0.24989 0.63664
 C599 C 0.51759 0.25430 0.64710
 C600 C 0.51753 0.25430 0.66784
 C601 C 0.50008 0.24987 0.67809
 C602 C 0.48267 0.24547 0.66777
 C603 C 0.50023 0.24986 0.61486
 C604 C 0.49573 0.26726 0.60438
 C605 C 0.49577 0.26719 0.58365
 C606 C 0.50031 0.24978 0.57341
 C607 C 0.50480 0.23241 0.58374
 C608 C 0.50477 0.23243 0.60447
 H609 H 0.46924 0.24207 0.63899
 H610 H 0.53109 0.25771 0.63912
 H611 H 0.49222 0.28074 0.61235
 H612 H 0.50825 0.21898 0.61251
 H613 H 0.50005 0.24985 0.69414
 H614 H 0.50033 0.24974 0.55736
 C615 C 0.48239 0.75452 0.85345
 C616 C 0.49982 0.75010 0.86386
 C617 C 0.51725 0.74566 0.85344
 C618 C 0.51722 0.74566 0.83272
 C619 C 0.49981 0.75008 0.82242
 C620 C 0.48241 0.75451 0.83272
 C621 C 0.49984 0.75009 0.88562
 C622 C 0.49545 0.73264 0.89604
 C623 C 0.49554 0.73264 0.91677
 C624 C 0.50000 0.75006 0.92706
 C625 C 0.50438 0.76749 0.91676
 C626 C 0.50431 0.76753 0.89604
 H627 H 0.46892 0.75796 0.86146
 H628 H 0.53072 0.74223 0.86144
 H629 H 0.49199 0.71916 0.88804
 H630 H 0.50772 0.78102 0.88803
 H631 H 0.49982 0.75009 0.80638
 H632 H 0.50007 0.75004 0.94310
 C633 C 0.06763 0.23857 0.27736
 C634 C 0.08901 0.24608 0.28086
 C635 C 0.09676 0.22516 0.27643
 C636 C 0.07563 0.21760 0.27274
 C637 C 0.06628 0.23293 0.29934
 C638 C 0.07402 0.21201 0.29491
 C639 C 0.08740 0.24051 0.30303
 C640 C 0.09542 0.21951 0.29840
 C641 C 0.11372 0.22087 0.26363
 C642 C 0.12765 0.21737 0.25306
 C643 C 0.04910 0.23732 0.31182
 C644 C 0.03467 0.24102 0.32161
 H645 H 0.05601 0.24647 0.26885
 H646 H 0.09534 0.26004 0.27492
 H647 H 0.07095 0.20814 0.26015
 H648 H 0.06765 0.19806 0.30083
 H649 H 0.09205 0.24998 0.31562
 H650 H 0.10703 0.21161 0.30691
 C651 C 0.58531 0.72219 0.80631
 C652 C 0.58460 0.70943 0.78728
 C653 C 0.59701 0.72521 0.77657
 C654 C 0.59798 0.73791 0.79539
 C655 C 0.56651 0.73299 0.79948
 C656 C 0.57891 0.74876 0.78875
 C657 C 0.56554 0.72029 0.78064
 C658 C 0.57820 0.73600 0.76973
 C659 C 0.61398 0.72094 0.76378
 C660 C 0.62795 0.71749 0.75325
 C661 C 0.54934 0.73739 0.81197
 C662 C 0.53491 0.74111 0.82176
 H663 H 0.58804 0.71657 0.82149
 H664 H 0.58709 0.69320 0.78652
 H665 H 0.61151 0.74512 0.80130
 H666 H 0.57639 0.76499 0.78948
 H667 H 0.55200 0.71310 0.77471
 H668 H 0.57543 0.74162 0.75455
 C669 C 0.41665 0.78191 0.80456
 C670 C 0.41794 0.79035 0.78328
 C671 C 0.40263 0.77493 0.77653
 C672 C 0.40107 0.76655 0.79760
 C673 C 0.43312 0.76711 0.79943
 C674 C 0.41782 0.75169 0.79266
 C675 C 0.43468 0.77548 0.77835
 C676 C 0.41912 0.76013 0.77140
 C677 C 0.38566 0.77925 0.76373
 C678 C 0.37173 0.78277 0.75317
 C679 C 0.45029 0.76272 0.81192
 C680 C 0.46472 0.75903 0.82175
 H681 H 0.41582 0.79081 0.81833
 H682 H 0.41785 0.80629 0.77929
 H683 H 0.38705 0.76293 0.80536
 H684 H 0.41794 0.73574 0.79664
 H685 H 0.44870 0.77910 0.77058
 H686 H 0.41998 0.75124 0.75762
 C687 C -0.08351 0.28198 0.30436
 C688 C -0.08218 0.29040 0.28308
 C689 C -0.09746 0.27496 0.27631
 C690 C -0.09907 0.26661 0.29738
 C691 C -0.06703 0.26718 0.29928
 C692 C -0.08230 0.25175 0.29249
 C693 C -0.06542 0.27553 0.27820
 C694 C -0.08096 0.26017 0.27123
 C695 C -0.11440 0.27921 0.26349
 C696 C -0.12834 0.28267 0.25292
 C697 C -0.04989 0.26277 0.31179
 C698 C -0.03548 0.25904 0.32160
 H699 H -0.08437 0.29089 0.31812
 H700 H -0.08227 0.30633 0.27905
 H701 H -0.11310 0.26298 0.30512
 H702 H -0.08217 0.23581 0.29650
 H703 H -0.05139 0.27915 0.27045
 H704 H -0.08007 0.25126 0.25746
 C705 C -0.08835 0.73443 0.19382
 C706 C -0.09245 0.71429 0.20404
 C707 C -0.09701 0.72533 0.22337
 C708 C -0.09319 0.74540 0.21336
 C709 C -0.06661 0.73301 0.20030
 C710 C -0.07118 0.74404 0.21964
 C711 C -0.07043 0.71294 0.21032
 C712 C -0.07527 0.72392 0.22984
 C713 C -0.11389 0.72108 0.23628
 C714 C -0.12775 0.71759 0.24694
 C715 C -0.04946 0.73734 0.18776
 C716 C -0.03503 0.74101 0.17795
 H717 H -0.09356 0.73879 0.17888
 H718 H -0.10136 0.70198 0.19778
 H719 H -0.10273 0.75870 0.21478
 H720 H -0.06226 0.75634 0.22592
 H721 H -0.06087 0.69965 0.20891
 H722 H -0.07003 0.71956 0.24478
 C723 C 0.43419 0.23204 0.72372
 C724 C 0.41480 0.24423 0.72463
 C725 C 0.40289 0.22484 0.72409
 C726 C 0.42204 0.21258 0.72336
 C727 C 0.43328 0.23275 0.70101
 C728 C 0.42139 0.21335 0.70047
 C729 C 0.41415 0.24501 0.70174
 C730 C 0.40197 0.22554 0.70139
 C731 C 0.38602 0.22043 0.73704
 C732 C 0.37218 0.21684 0.74772
 C733 C 0.45046 0.23720 0.68849
 C734 C 0.46492 0.24092 0.67869
 H735 H 0.44762 0.23477 0.73278
 H736 H 0.41193 0.25688 0.73471
 H737 H 0.42514 0.19922 0.73240
 H738 H 0.42426 0.20070 0.69040
 H739 H 0.41106 0.25838 0.69272
 H740 H 0.38854 0.22282 0.69234
 C741 C 0.57697 0.25178 0.71475
 C742 C 0.59744 0.25904 0.70738
 C743 C 0.59756 0.27471 0.72387
 C744 C 0.57734 0.26751 0.73142
 C745 C 0.56696 0.26692 0.70104
 C746 C 0.56708 0.28258 0.71754
 C747 C 0.58717 0.27412 0.69348
 C748 C 0.58755 0.28985 0.71017
 C749 C 0.61458 0.27897 0.73664
 C750 C 0.62857 0.28243 0.74718
 C751 C 0.54971 0.26252 0.68860
 C752 C 0.53524 0.25882 0.67882
 H753 H 0.57245 0.23607 0.71651
 H754 H 0.61011 0.24939 0.70336
 H755 H 0.57346 0.26483 0.74715
 H756 H 0.55441 0.29223 0.72159
 H757 H 0.59104 0.27680 0.67776
 H758 H 0.59206 0.30557 0.70844
 C759 C 0.06538 0.77049 0.22282
 C760 C 0.08359 0.75687 0.22568
 C761 C 0.09717 0.77498 0.22333
 C762 C 0.07921 0.78867 0.22067
 C763 C 0.06672 0.76712 0.20038
 C764 C 0.08028 0.78524 0.19803
 C765 C 0.08467 0.75343 0.20306
 C766 C 0.09850 0.77162 0.20090
 C767 C 0.11413 0.77930 0.23612
 C768 C 0.12808 0.78280 0.24667
 C769 C 0.04959 0.76267 0.18785
 C770 C 0.03518 0.75894 0.17802
 H771 H 0.05155 0.76996 0.23168
 H772 H 0.08511 0.74527 0.23721
 H773 H 0.07709 0.80320 0.22805
 H774 H 0.07873 0.79685 0.18652
 H775 H 0.08675 0.73889 0.19570
 H776 H 0.11233 0.77214 0.19205
 C777 C 0.28106 0.07230 0.24571
 C778 C 0.28795 0.09417 0.24494
 C779 C 0.27616 0.09691 0.22571
 C780 C 0.26908 0.07530 0.22641
 C781 C 0.29918 0.06644 0.23328
 C782 C 0.28738 0.06918 0.21405
 C783 C 0.30626 0.08805 0.23258
 C784 C 0.29427 0.09106 0.21327
 C785 C 0.26332 0.11387 0.22146
 C786 C 0.25279 0.12781 0.21789
 C787 C 0.31171 0.04927 0.23758
 C788 C 0.32152 0.03482 0.24124
 H789 H 0.27577 0.06439 0.25910
 H790 H 0.28800 0.10462 0.25762
 H791 H 0.25366 0.07022 0.22385
 H792 H 0.28730 0.05872 0.20138
 H793 H 0.32169 0.09311 0.23515
 H794 H 0.29954 0.09896 0.19987
 C795 C 0.80223 0.58093 0.71557
 C796 C 0.77974 0.57968 0.71126
 C797 C 0.77630 0.59705 0.72552
 C798 C 0.79859 0.59857 0.72976
 C799 C 0.79941 0.56664 0.73301
 C800 C 0.79596 0.58400 0.74727
 C801 C 0.77711 0.56512 0.72876
 C802 C 0.77347 0.58274 0.74296
 C803 C 0.76344 0.61399 0.72136
 C804 C 0.75292 0.62795 0.71787
 C805 C 0.81198 0.54951 0.73729
 C806 C 0.82182 0.53509 0.74093
 H807 H 0.81421 0.58000 0.70436
 H808 H 0.77291 0.57805 0.69642
 H809 H 0.80726 0.61253 0.73013
 H810 H 0.80278 0.58560 0.76212
 H811 H 0.76842 0.55116 0.72839
 H812 H 0.76149 0.58364 0.75416
 C813 C 0.80255 0.41860 0.78382
 C814 C 0.78021 0.41992 0.78885
 C815 C 0.77614 0.40295 0.77427
 C816 C 0.79828 0.40135 0.76930
 C817 C 0.79934 0.43335 0.76683
 C818 C 0.79527 0.41639 0.75226
 C819 C 0.77720 0.43495 0.77180
 C820 C 0.77294 0.41772 0.75729
 C821 C 0.76324 0.38601 0.77839
 C822 C 0.75270 0.37203 0.78185
 C823 C 0.81195 0.45049 0.76258
 C824 C 0.82180 0.46492 0.75893
 H825 H 0.81486 0.41916 0.79467
 H826 H 0.77384 0.42121 0.80393
 H827 H 0.80682 0.38735 0.76831
 H828 H 0.80163 0.41513 0.73717
 H829 H 0.76866 0.44895 0.77280
 H830 H 0.76063 0.41721 0.74644
 C831 C 0.27619 -0.06621 0.26705
 C832 C 0.27581 -0.08577 0.25509
 C833 C 0.27579 -0.09742 0.27460
 C834 C 0.27598 -0.07812 0.28663
 C835 C 0.29893 -0.06697 0.26711
 C836 C 0.29891 -0.07861 0.28663
 C837 C 0.29873 -0.08627 0.25508
 C838 C 0.29852 -0.09818 0.27467
 C839 C 0.26293 -0.11440 0.27879
 C840 C 0.25242 -0.12839 0.28232
 C841 C 0.31155 -0.04983 0.26282
 C842 C 0.32143 -0.03540 0.25918
 H843 H 0.26715 -0.05286 0.26387
 H844 H 0.26614 -0.08886 0.24218
 H845 H 0.26647 -0.07490 0.29963
 H846 H 0.30856 -0.07549 0.29955
 H847 H 0.30823 -0.08947 0.24208
 H848 H 0.30754 -0.11154 0.27786
 C849 C 0.20030 -0.07914 0.71365
 C850 C 0.22322 -0.07849 0.71296
 C851 C 0.22387 -0.09752 0.72541
 C852 C 0.20115 -0.09843 0.72603
 C853 C 0.20079 -0.06705 0.73289
 C854 C 0.20145 -0.08607 0.74534
 C855 C 0.22352 -0.06615 0.73226
 C856 C 0.22437 -0.08542 0.74465
 C857 C 0.23674 -0.11447 0.72120
 C858 C 0.24729 -0.12842 0.71763
 C859 C 0.18823 -0.04987 0.73716
 C860 C 0.17839 -0.03544 0.74078
 H861 H 0.19027 -0.07639 0.70095
 H862 H 0.23233 -0.07551 0.69963
 H863 H 0.19212 -0.11192 0.72343
 H864 H 0.19236 -0.08903 0.75870
 H865 H 0.23257 -0.05267 0.73487
 H866 H 0.23442 -0.08815 0.75734
 C867 C 0.72277 0.43498 0.22671
 C868 C 0.72840 0.41865 0.24178
 C869 C 0.72430 0.40292 0.22590
 C870 C 0.71887 0.41899 0.21076
 C871 C 0.70107 0.43326 0.23334
 C872 C 0.69697 0.41753 0.21745
 C873 C 0.70651 0.41719 0.24848
 C874 C 0.70261 0.40119 0.23252
 C875 C 0.73718 0.38599 0.22174
 C876 C 0.74770 0.37203 0.21823
 C877 C 0.68842 0.45034 0.23758
 C878 C 0.67852 0.46473 0.24119
 H879 H 0.73091 0.44907 0.22437
 H880 H 0.74147 0.41897 0.25173
 H881 H 0.72411 0.41957 0.19521
 H882 H 0.68391 0.41726 0.20750
 H883 H 0.70129 0.41663 0.26403
 H884 H 0.69448 0.38710 0.23487
 C885 C 0.70031 0.58617 0.25558
 C886 C 0.70116 0.59746 0.27552
 C887 C 0.72388 0.59700 0.27451
 C888 C 0.72323 0.58598 0.25466
 C889 C 0.70084 0.56651 0.26699
 C890 C 0.72357 0.56605 0.26599
 C891 C 0.70150 0.57751 0.28686
 C892 C 0.72442 0.57733 0.28592
 C893 C 0.73669 0.61397 0.27873
 C894 C 0.74720 0.62795 0.28228
 C895 C 0.68830 0.54934 0.26269
 C896 C 0.67846 0.53492 0.25903
 H897 H 0.69025 0.58962 0.24307
 H898 H 0.69210 0.61058 0.27948
 H899 H 0.73232 0.58962 0.24147
 H900 H 0.73264 0.55294 0.26203
 H901 H 0.69242 0.57385 0.30004
 H902 H 0.73449 0.57385 0.29841
 C903 C 0.20018 0.08614 0.75518
 C904 C 0.20108 0.09744 0.77511
 C905 C 0.22380 0.09693 0.77408
 C906 C 0.22310 0.08589 0.75424
 C907 C 0.20067 0.06648 0.76660
 C908 C 0.22340 0.06597 0.76559
 C909 C 0.20138 0.07750 0.78646
 C910 C 0.22429 0.07726 0.78550
 C911 C 0.23673 0.11387 0.77825
 C912 C 0.24733 0.12780 0.78177
 C913 C 0.18811 0.04929 0.76231
 C914 C 0.17830 0.03483 0.75865
 H915 H 0.19013 0.08963 0.74268
 H916 H 0.19206 0.11059 0.77908
 H917 H 0.23219 0.08949 0.74104
 H918 H 0.23243 0.05283 0.76163
 H919 H 0.19229 0.07387 0.79965
 H920 H 0.23435 0.07375 0.79800
 C921 C 0.23929 0.27815 0.06806
 C922 C 0.24604 0.28210 0.08959
 C923 C 0.22514 0.27677 0.09680
 C924 C 0.21833 0.27262 0.07552
 C925 C 0.23273 0.29987 0.06641
 C926 C 0.21183 0.29453 0.07361
 C927 C 0.23954 0.30402 0.08768
 C928 C 0.21856 0.29848 0.09516
 C929 C 0.22095 0.26386 0.11371
 C930 C 0.21748 0.25327 0.12762
 C931 C 0.23706 0.31240 0.04926
 C932 C 0.24074 0.32222 0.03483
 H933 H 0.24787 0.26994 0.05671
 H934 H 0.26007 0.27683 0.09630
 H935 H 0.20959 0.25957 0.07067
 H936 H 0.19781 0.29980 0.06686
 H937 H 0.24829 0.31708 0.09249
 H938 H 0.20997 0.30669 0.10650
 C939 C 0.73875 0.80488 0.58804
 C940 C 0.71781 0.79828 0.59471
 C941 C 0.72549 0.77698 0.59693
 C942 C 0.74636 0.78337 0.59053
 C943 C 0.73309 0.80009 0.56657
 C944 C 0.74076 0.77879 0.56880
 C945 C 0.71223 0.79369 0.57296
 C946 C 0.71984 0.77221 0.57545
 C947 C 0.72124 0.76407 0.61379
 C948 C 0.71772 0.75345 0.62767
 C949 C 0.73739 0.81262 0.54944
 C950 C 0.74104 0.82244 0.53502
 H951 H 0.74657 0.81846 0.59301
 H952 H 0.70830 0.80613 0.60556
 H953 H 0.76035 0.77896 0.59792
 H954 H 0.75025 0.77093 0.55794
 H955 H 0.69824 0.79809 0.56555
 H956 H 0.71203 0.75863 0.57044
 C957 C 0.75109 0.78978 0.42077
 C958 C 0.76246 0.79615 0.40191
 C959 C 0.77461 0.77697 0.40310
 C960 C 0.76331 0.77040 0.42169
 C961 C 0.76692 0.80009 0.43342
 C962 C 0.77907 0.78090 0.43460
 C963 C 0.77823 0.80666 0.41484
 C964 C 0.79045 0.78727 0.41576
 C965 C 0.77889 0.76406 0.38625
 C966 C 0.78243 0.75346 0.37237
 C967 C 0.76257 0.81263 0.45053
 C968 C 0.75889 0.82245 0.46493
 H969 H 0.73485 0.79096 0.42302
 H970 H 0.75565 0.80227 0.38828
 H971 H 0.75723 0.75535 0.42433
 H972 H 0.78586 0.77477 0.44824
 H973 H 0.78430 0.82172 0.41224
 H974 H 0.80668 0.78608 0.41354
 C975 C 0.28083 0.28210 -0.06603
 C976 C 0.26546 0.26959 -0.07755
 C977 C 0.27476 0.27667 -0.09704
 C978 C 0.29020 0.28900 -0.08577
 C979 C 0.26666 0.29987 -0.06685
 C980 C 0.27595 0.30696 -0.08634
 C981 C 0.25121 0.28754 -0.07812
 C982 C 0.26057 0.29443 -0.09788
 C983 C 0.27932 0.26369 -0.11380
 C984 C 0.28307 0.25303 -0.12759
 C985 C 0.26219 0.31244 -0.04977
 C986 C 0.25850 0.32226 -0.03536
 H987 H 0.28911 0.27718 -0.05273
 H988 H 0.26119 0.25409 -0.07407
 H989 H 0.30629 0.28944 -0.08906
 H990 H 0.28019 0.32247 -0.08977
 H991 H 0.23512 0.28710 -0.07480
 H992 H 0.25226 0.29935 -0.11116
 C993 C 0.71456 0.21254 -0.06883
 C994 C 0.72728 0.23043 -0.07548
 C995 C 0.72572 0.22321 -0.09696
 C996 C 0.71293 0.20550 -0.09057
 C997 C 0.73353 0.20021 -0.06656
 C998 C 0.73198 0.19297 -0.08803
 C999 C 0.74632 0.21792 -0.07294
 C1000 C 0.74470 0.21089 -0.09469
 C1001 C 0.72133 0.23603 -0.11387
 C1002 C 0.71768 0.24657 -0.12778
 C1003 C 0.73790 0.18770 -0.04941
 C1004 C 0.74156 0.17787 -0.03500
 H1005 H 0.70222 0.21307 -0.05800
 H1006 H 0.72532 0.24597 -0.07047
 H1007 H 0.69913 0.20054 -0.09799
 H1008 H 0.73396 0.17743 -0.09299
 H1009 H 0.76010 0.22289 -0.06550
 H1010 H 0.75706 0.21038 -0.10549
 C1011 C 0.24204 0.69765 0.41283
 C1012 C 0.22134 0.70083 0.40347
 C1013 C 0.22525 0.72325 0.40309
 C1014 C 0.24588 0.72027 0.41218
 C1015 C 0.23277 0.70007 0.43343
 C1016 C 0.23667 0.72249 0.43303
 C1017 C 0.21214 0.70304 0.42435
 C1018 C 0.21599 0.72566 0.42369
 C1019 C 0.22109 0.73621 0.38623
 C1020 C 0.21764 0.74686 0.37235
 C1021 C 0.23709 0.68752 0.45056
 C1022 C 0.24079 0.67769 0.46497
 H1023 H 0.25279 0.68599 0.40856
 H1024 H 0.21498 0.69207 0.39111
 H1025 H 0.25970 0.72751 0.40703
 H1026 H 0.24302 0.73126 0.44539
 H1027 H 0.19832 0.69581 0.42953
 H1028 H 0.20525 0.73732 0.42800
 C1029 C 0.28632 0.71097 0.56999
 C1030 C 0.27465 0.72996 0.57533
 C1031 C 0.27413 0.72323 0.59702
 C1032 C 0.28587 0.70442 0.59195
 C1033 C 0.26662 0.70008 0.56665
 C1034 C 0.26610 0.69334 0.58834
 C1035 C 0.25489 0.71890 0.57173
 C1036 C 0.25443 0.71236 0.59368
 C1037 C 0.27832 0.73617 0.61391
 C1038 C 0.28179 0.74678 0.62782
 C1039 C 0.26236 0.68752 0.54950
 C1040 C 0.25875 0.67768 0.53507
 H1041 H 0.29938 0.71024 0.56006
 H1042 H 0.27820 0.74515 0.57013
 H1043 H 0.29868 0.69862 0.60043
 H1044 H 0.26254 0.67814 0.59349
 H1045 H 0.24209 0.72470 0.56323
 H1046 H 0.24135 0.71310 0.60359
 C1047 C 0.76583 0.19365 0.08838
 C1048 C 0.78606 0.20363 0.09265
 C1049 C 0.77523 0.22314 0.09706
 C1050 C 0.75508 0.21336 0.09307
 C1051 C 0.76758 0.20008 0.06667
 C1052 C 0.75676 0.21959 0.07109
 C1053 C 0.78772 0.20986 0.07066
 C1054 C 0.77697 0.22956 0.07534
 C1055 C 0.77948 0.23603 0.11395
 C1056 C 0.78300 0.24662 0.12785
 C1057 C 0.76322 0.18758 0.04952
 C1058 C 0.75951 0.17778 0.03509
 H1059 H 0.76122 0.17874 0.09354
 H1060 H 0.79817 0.19722 0.10170
 H1061 H 0.74169 0.21497 0.10244
 H1062 H 0.74466 0.22602 0.06202
 H1063 H 0.80110 0.20827 0.06126
 H1064 H 0.78157 0.24446 0.07014
 C1065 C 0.46344 0.31916 0.53880
 C1066 C 0.46323 0.34114 0.54540
 C1067 C 0.47522 0.34657 0.52686
 C1068 C 0.47535 0.32486 0.52006
 C1069 C 0.48300 0.31626 0.55004
 C1070 C 0.49497 0.32169 0.53148
 C1071 C 0.48286 0.33796 0.55683
 C1072 C 0.49477 0.34366 0.53808
 C1073 C 0.47096 0.36349 0.51395
 C1074 C 0.46751 0.37741 0.50335
 C1075 C 0.48743 0.29920 0.56270
 C1076 C 0.49117 0.28484 0.57261
 H1077 H 0.45060 0.30890 0.53924
 H1078 H 0.45011 0.34929 0.55097
 H1079 H 0.47222 0.31962 0.50482
 H1080 H 0.50808 0.31352 0.52589
 H1081 H 0.48600 0.34318 0.57207
 H1082 H 0.50762 0.35391 0.53761
 C1083 C -0.00445 0.83529 0.04834
 C1084 C -0.00595 0.83442 0.02549
 C1085 C -0.02494 0.84687 0.02651
 C1086 C -0.02352 0.84801 0.04916
 C1087 C -0.01725 0.81652 0.04963
 C1088 C -0.03625 0.82895 0.05065
 C1089 C -0.01867 0.81539 0.02698
 C1090 C -0.03773 0.82810 0.02780
 C1091 C -0.02915 0.86375 0.01359
 C1092 C -0.03258 0.87765 0.00296
 C1093 C -0.01285 0.79942 0.06222
 C1094 C -0.00912 0.78503 0.07207
 H1095 H 0.00928 0.83803 0.05692
 H1096 H 0.00646 0.83685 0.01499
 H1097 H -0.02556 0.86160 0.05817
 H1098 H -0.04865 0.82650 0.06113
 H1099 H -0.01664 0.80180 0.01797
 H1100 H -0.05146 0.82532 0.01921
 C1101 C 0.00168 0.67241 0.03731
 C1102 C 0.01600 0.67272 0.01942
 C1103 C 0.02493 0.65306 0.02656
 C1104 C 0.01067 0.65249 0.04426
 C1105 C 0.01728 0.68347 0.04963
 C1106 C 0.02621 0.66382 0.05678
 C1107 C 0.03153 0.68403 0.03192
 C1108 C 0.04053 0.66412 0.03887
 C1109 C 0.02917 0.63615 0.01369
 C1110 C 0.03259 0.62220 0.00314
 C1111 C 0.01294 0.70060 0.06216
 C1112 C 0.00923 0.71498 0.07202
 H1113 H -0.01433 0.67604 0.03680
 H1114 H 0.01184 0.67619 0.00392
 H1115 H 0.00209 0.63936 0.04919
 H1116 H 0.03037 0.66037 0.07229
 H1117 H 0.04006 0.69718 0.02696
 H1118 H 0.05656 0.66054 0.03933
 C1119 C 0.53016 0.16537 0.55607
 C1120 C 0.51442 0.15150 0.54675
 C1121 C 0.52518 0.15315 0.52679
 C1122 C 0.54098 0.16675 0.53590
 C1123 C 0.51746 0.18329 0.55020
 C1124 C 0.52822 0.18493 0.53023
 C1125 C 0.50167 0.16969 0.54107
 C1126 C 0.51249 0.17108 0.52093
 C1127 C 0.52943 0.13638 0.51371
 C1128 C 0.53293 0.12258 0.50297
 C1129 C 0.51309 0.20033 0.56289
 C1130 C 0.50938 0.21471 0.57278
 H1131 H 0.53737 0.16320 0.57065
 H1132 H 0.50878 0.13756 0.55338
 H1133 H 0.55719 0.16539 0.53361
 H1134 H 0.53385 0.19887 0.52357
 H1135 H 0.48545 0.17107 0.54333
 H1136 H 0.50529 0.17327 0.50634
 C1137 C -0.02251 0.16245 0.44289
 C1138 C -0.00822 0.15405 0.45874
 C1139 C -0.02544 0.15345 0.47357
 C1140 C -0.03980 0.16159 0.45794
 C1141 C -0.01766 0.18349 0.45005
 C1142 C -0.03487 0.18289 0.46490
 C1143 C -0.00331 0.17535 0.46569
 C1144 C -0.02059 0.17450 0.48072
 C1145 C -0.02980 0.13680 0.48676
 C1146 C -0.03339 0.12312 0.49763
 C1147 C -0.01326 0.20050 0.43735
 C1148 C -0.00954 0.21488 0.42748
 H1149 H -0.02324 0.15771 0.42719
 H1150 H 0.00271 0.14202 0.45636
 H1151 H -0.05486 0.15574 0.45491
 H1152 H -0.04580 0.19492 0.46730
 H1153 H 0.01175 0.18119 0.46873
 H1154 H -0.01982 0.17926 0.49641
 C1155 C 0.48257 0.68454 0.97298
 C1156 C 0.46299 0.67260 0.97300
 C1157 C 0.47504 0.65333 0.97366
 C1158 C 0.49456 0.66502 0.97384
 C1159 C 0.48292 0.68346 0.95028
 C1160 C 0.49498 0.66420 0.95094
 C1161 C 0.46340 0.67178 0.95010
 C1162 C 0.47539 0.65224 0.95096
 C1163 C 0.47066 0.63661 0.98678
 C1164 C 0.46706 0.62287 0.99758
 C1165 C 0.48734 0.70053 0.93762
 C1166 C 0.49104 0.71493 0.92775
 H1167 H 0.48558 0.69801 0.98190
 H1168 H 0.44979 0.67592 0.98220
 H1169 H 0.50731 0.66207 0.98375
 H1170 H 0.50818 0.66090 0.94174
 H1171 H 0.45065 0.67474 0.94019
 H1172 H 0.47237 0.63876 0.94206
 C1173 C 0.52430 0.81462 0.97178
 C1174 C 0.54015 0.83070 0.96774
 C1175 C 0.52511 0.84666 0.97375
 C1176 C 0.50933 0.83082 0.97799
 C1177 C 0.51716 0.81660 0.95030
 C1178 C 0.50211 0.83255 0.95631
 C1179 C 0.53294 0.83243 0.94605
 C1180 C 0.51797 0.84866 0.95227
 C1181 C 0.52952 0.86331 0.98694
 C1182 C 0.53319 0.87698 0.99781
 C1183 C 0.51269 0.79957 0.93761
 C1184 C 0.50894 0.78519 0.92773
 H1185 H 0.52685 0.80043 0.97966
 H1186 H 0.55584 0.83007 0.97258
 H1187 H 0.49967 0.83032 0.99126
 H1188 H 0.48642 0.83317 0.95147
 H1189 H 0.54259 0.83292 0.93277
 H1190 H 0.51542 0.86286 0.94441
 C1191 C 0.01493 0.33828 0.44371
 C1192 C 0.00444 0.34277 0.46359
 C1193 C 0.02470 0.34689 0.47305
 C1194 C 0.03527 0.34267 0.45338
 C1195 C 0.01693 0.31651 0.44997
 C1196 C 0.03719 0.32063 0.45945
 C1197 C 0.00637 0.32074 0.46966
 C1198 C 0.02670 0.32512 0.47932
 C1199 C 0.02893 0.36381 0.48592
 C1200 C 0.03237 0.37774 0.49652
 C1201 C 0.01248 0.29941 0.43741
 C1202 C 0.00872 0.28501 0.42757
 H1203 H 0.01004 0.34352 0.42894
 H1204 H -0.00898 0.35205 0.46547
 H1205 H 0.04722 0.35187 0.44684
 H1206 H 0.05061 0.31133 0.45759
 H1207 H -0.00557 0.31154 0.47622
 H1208 H 0.03157 0.31986 0.49409
 C1209 C 0.33041 0.54043 0.49891
 C1210 C 0.32909 0.51988 0.48881
 C1211 C 0.34673 0.52556 0.47563
 C1212 C 0.34831 0.54591 0.48567
 C1213 C 0.31646 0.54887 0.48309
 C1214 C 0.33408 0.55454 0.46989
 C1215 C 0.31487 0.52851 0.47305
 C1216 C 0.33276 0.53398 0.45979
 C1217 C 0.36364 0.51266 0.47147
 C1218 C 0.37762 0.50215 0.46797
 C1219 C 0.29944 0.56159 0.48734
 C1220 C 0.28509 0.57154 0.49097
 H1221 H 0.32927 0.54323 0.51505
 H1222 H 0.32718 0.50550 0.49653
 H1223 H 0.36226 0.55290 0.49082
 H1224 H 0.33594 0.56892 0.46217
 H1225 H 0.30092 0.52150 0.46790
 H1226 H 0.33388 0.53115 0.44366
 C1227 C 0.82907 0.03852 -0.00087
 C1228 C 0.82815 0.01941 -0.01351
 C1229 C 0.84702 0.02602 -0.02433
 C1230 C 0.84821 0.04493 -0.01176
 C1231 C 0.81680 0.04930 -0.01668
 C1232 C 0.83566 0.05590 -0.02751
 C1233 C 0.81562 0.03037 -0.02925
 C1234 C 0.83475 0.03678 -0.04014
 C1235 C 0.86384 0.01307 -0.02866
 C1236 C 0.87771 0.00249 -0.03231
 C1237 C 0.79974 0.06193 -0.01237
 C1238 C 0.78534 0.07179 -0.00874
 H1239 H 0.82653 0.03940 0.01532
 H1240 H 0.82522 0.00428 -0.00780
 H1241 H 0.86180 0.05076 -0.00459
 H1242 H 0.83855 0.07104 -0.03322
 H1243 H 0.80202 0.02453 -0.03640
 H1244 H 0.83725 0.03588 -0.05634
 C1245 C 0.68414 0.03194 0.03187
 C1246 C 0.66388 0.03892 0.04002
 C1247 C 0.65347 0.02585 0.02460
 C1248 C 0.67347 0.01867 0.01652
 C1249 C 0.68375 0.04912 0.01697
 C1250 C 0.67335 0.03603 0.00156
 C1251 C 0.66376 0.05630 0.02505
 C1252 C 0.65309 0.04301 0.00970
 C1253 C 0.63658 0.01295 0.02889
 C1254 C 0.62264 0.00241 0.03249
 C1255 C 0.70080 0.06180 0.01265
 C1256 C 0.71517 0.07172 0.00899
 H1257 H 0.69711 0.02754 0.04094
 H1258 H 0.65982 0.03992 0.05589
 H1259 H 0.67731 0.00306 0.01306
 H1260 H 0.67742 0.03499 -0.01431
 H1261 H 0.65994 0.07190 0.02851
 H1262 H 0.64012 0.04738 0.00061
 C1263 C 0.18376 0.53187 0.53153
 C1264 C 0.16350 0.53889 0.53963
 C1265 C 0.15310 0.52588 0.52414
 C1266 C 0.17310 0.51866 0.51612
 C1267 C 0.18347 0.54909 0.51667
 C1268 C 0.17308 0.53607 0.50119
 C1269 C 0.16347 0.55630 0.52471
 C1270 C 0.15281 0.54309 0.50928
 C1271 C 0.13616 0.51302 0.52830
 C1272 C 0.12218 0.50252 0.53182
 C1273 C 0.20056 0.56173 0.51242
 C1274 C 0.21496 0.57161 0.50881
 H1275 H 0.19669 0.52741 0.54063
 H1276 H 0.15939 0.53987 0.55550
 H1277 H 0.17690 0.50306 0.51263
 H1278 H 0.17721 0.53505 0.48534
 H1279 H 0.15971 0.57191 0.52819
 H1280 H 0.13989 0.54753 0.50017
 C1281 C 0.17828 0.45897 -0.03739
 C1282 C 0.15629 0.45353 -0.03383
 C1283 C 0.15306 0.47399 -0.02442
 C1284 C 0.17479 0.47961 -0.02806
 C1285 C 0.18335 0.45078 -0.01682
 C1286 C 0.18012 0.47124 -0.00742
 C1287 C 0.16163 0.44513 -0.01317
 C1288 C 0.15813 0.46580 -0.00384
 C1289 C 0.13622 0.48693 -0.02867
 C1290 C 0.12230 0.49748 -0.03222
 C1291 C 0.20044 0.43817 -0.01256
 C1292 C 0.21483 0.42830 -0.00894
 H1293 H 0.18676 0.45601 -0.05113
 H1294 H 0.14631 0.44640 -0.04476
 H1295 H 0.18001 0.49393 -0.03423
 H1296 H 0.19012 0.47840 0.00348
 H1297 H 0.15643 0.43080 -0.00702
 H1298 H 0.14967 0.46877 0.00992
 C1299 C 0.67844 0.95916 0.46254
 C1300 C 0.65643 0.95377 0.46609
 C1301 C 0.65324 0.97423 0.47549
 C1302 C 0.67498 0.97982 0.47188
 C1303 C 0.68345 0.95096 0.48313
 C1304 C 0.68026 0.97143 0.49252
 C1305 C 0.66172 0.94537 0.48675
 C1306 C 0.65826 0.96604 0.49608
 C1307 C 0.63640 0.98716 0.47123
 C1308 C 0.62250 0.99773 0.46766
 C1309 C 0.70048 0.93831 0.48744
 C1310 C 0.71485 0.92843 0.49108
 H1311 H 0.68693 0.95617 0.44881
 H1312 H 0.64643 0.94667 0.45515
 H1313 H 0.68027 0.99412 0.46573
 H1314 H 0.69027 0.97853 0.50344
 H1315 H 0.65647 0.93105 0.49289
 H1316 H 0.64980 0.96904 0.50982
 C1317 C 0.82831 0.95060 0.53606
 C1318 C 0.84767 0.95160 0.52380
 C1319 C 0.84659 0.97432 0.52442
 C1320 C 0.82750 0.97352 0.53675
 C1321 C 0.81638 0.95101 0.51674
 C1322 C 0.81530 0.97374 0.51736
 C1323 C 0.83545 0.95182 0.50441
 C1324 C 0.83464 0.97474 0.50510
 C1325 C 0.86342 0.98728 0.52870
 C1326 C 0.87728 0.99788 0.53235
 C1327 C 0.79935 0.93834 0.51243
 C1328 C 0.78497 0.92846 0.50880
 H1329 H 0.82550 0.94052 0.54872
 H1330 H 0.86117 0.94265 0.52650
 H1331 H 0.82441 0.98260 0.55008
 H1332 H 0.80179 0.98270 0.51467
 H1333 H 0.83851 0.94273 0.49108
 H1334 H 0.83741 0.98482 0.49243
 C1335 C 0.32232 0.46892 0.00424
 C1336 C 0.32511 0.48117 0.02340
 C1337 C 0.34671 0.47416 0.02441
 C1338 C 0.34418 0.46211 0.00531
 C1339 C 0.31638 0.45094 0.01685
 C1340 C 0.33797 0.44393 0.01786
 C1341 C 0.31889 0.46300 0.03595
 C1342 C 0.34076 0.45619 0.03703
 C1343 C 0.36365 0.48702 0.02864
 C1344 C 0.37764 0.49749 0.03220
 C1345 C 0.29932 0.43826 0.01253
 C1346 C 0.28496 0.42834 0.00887
 H1347 H 0.31454 0.47401 -0.00930
 H1348 H 0.31997 0.49661 0.02571
 H1349 H 0.35476 0.46193 -0.00725
 H1350 H 0.34309 0.42849 0.01554
 H1351 H 0.30829 0.46321 0.04849
 H1352 H 0.34852 0.45113 0.05059
 C1353 C 0.55300 0.49113 0.33749
 C1354 C 0.53063 0.49604 0.33859
 C1355 C 0.52670 0.47521 0.34686
 C1356 C 0.54888 0.47023 0.34602
 C1357 C 0.54989 0.48286 0.31655
 C1358 C 0.54596 0.46204 0.32481
 C1359 C 0.52771 0.48784 0.31740
 C1360 C 0.52359 0.46695 0.32592
 C1361 C 0.51377 0.47092 0.36373
 C1362 C 0.50318 0.46736 0.37762
 C1363 C 0.56249 0.48719 0.29945
 C1364 C 0.57237 0.49084 0.28506
 H1365 H 0.56524 0.50111 0.34205
 H1366 H 0.52416 0.50998 0.34440
 H1367 H 0.55743 0.46292 0.35799
 H1368 H 0.55241 0.44810 0.31897
 H1369 H 0.51915 0.49513 0.30544
 H1370 H 0.51136 0.45699 0.32132
 C1371 C 0.05278 -0.00857 0.83715
 C1372 C 0.03040 -0.00368 0.83826
 C1373 C 0.02650 -0.02450 0.84653
 C1374 C 0.04867 -0.02947 0.84570
 C1375 C 0.04968 -0.01685 0.81623
 C1376 C 0.04576 -0.03768 0.82450
 C1377 C 0.02750 -0.01189 0.81707
 C1378 C 0.02339 -0.03278 0.82560
 C1379 C 0.01361 -0.02880 0.86342
 C1380 C 0.00305 -0.03238 0.87733
 C1381 C 0.06231 -0.01257 0.79914
 C1382 C 0.07221 -0.00898 0.78474
 H1383 H 0.06501 0.00142 0.84172
 H1384 H 0.02392 0.01025 0.84408
 H1385 H 0.05722 -0.03676 0.85767
 H1386 H 0.05222 -0.05162 0.81867
 H1387 H 0.01892 -0.00460 0.80511
 H1388 H 0.01115 -0.04275 0.82103
 C1389 C 0.02688 0.01756 0.68449
 C1390 C 0.02709 0.03709 0.67249
 C1391 C 0.02617 0.02494 0.65330
 C1392 C 0.02575 0.00548 0.66506
 C1393 C 0.04959 0.01689 0.68331
 C1394 C 0.04866 0.00473 0.66413
 C1395 C 0.05000 0.03636 0.67156
 C1396 C 0.04887 0.02427 0.65211
 C1397 C 0.01315 0.02944 0.63658
 C1398 C 0.00251 0.03314 0.62278
 C1399 C 0.06232 0.01241 0.70027
 C1400 C 0.07224 0.00867 0.71460
 H1401 H 0.01798 0.01474 0.69801
 H1402 H 0.01806 0.05041 0.67578
 H1403 H 0.01562 -0.00716 0.66225
 H1404 H 0.05766 -0.00862 0.66087
 H1405 H 0.06011 0.04900 0.67441
 H1406 H 0.05776 0.02709 0.63859
 C1407 C 0.53047 0.52850 0.18504
 C1408 C 0.53655 0.54053 0.16651
 C1409 C 0.52664 0.52478 0.15342
 C1410 C 0.52037 0.51282 0.17171
 C1411 C 0.54996 0.51687 0.18355
 C1412 C 0.54005 0.50111 0.17047
 C1413 C 0.55623 0.52883 0.16528
 C1414 C 0.54612 0.51314 0.15192
 C1415 C 0.51362 0.52922 0.13668
 C1416 C 0.50294 0.53288 0.12290
 C1417 C 0.56260 0.51244 0.20058
 C1418 C 0.57246 0.50873 0.21496
 H1419 H 0.52418 0.53476 0.19885
 H1420 H 0.53495 0.55679 0.16472
 H1421 H 0.50550 0.50628 0.17419
 H1422 H 0.54164 0.48485 0.17229
 H1423 H 0.57112 0.53535 0.16283
 H1424 H 0.55241 0.50685 0.13812
 C1425 C 0.44625 -0.01039 0.16221
 C1426 C 0.46820 -0.00392 0.16048
 C1427 C 0.47357 -0.02488 0.15349
 C1428 C 0.45183 -0.03144 0.15496
 C1429 C 0.45017 -0.01704 0.18358
 C1430 C 0.45555 -0.03801 0.17660
 C1431 C 0.47191 -0.01049 0.18210
 C1432 C 0.47748 -0.03152 0.17486
 C1433 C 0.48659 -0.02928 0.13673
 C1434 C 0.49725 -0.03290 0.12290
 C1435 C 0.43747 -0.01267 0.20059
 C1436 C 0.42756 -0.00902 0.21496
 H1437 H 0.43328 -0.00166 0.15719
 H1438 H 0.47358 0.01006 0.15369
 H1439 H 0.44372 -0.04012 0.14361
 H1440 H 0.45020 -0.05198 0.18340
 H1441 H 0.48004 -0.00182 0.19345
 H1442 H 0.49046 -0.04023 0.17990
 C1443 C 0.94623 0.48990 0.66207
 C1444 C 0.96815 0.49639 0.66018
 C1445 C 0.97346 0.47545 0.65308
 C1446 C 0.95174 0.46888 0.65471
 C1447 C 0.95032 0.48318 0.68338
 C1448 C 0.95564 0.46224 0.67630
 C1449 C 0.97205 0.48975 0.68175
 C1450 C 0.97756 0.46874 0.67440
 C1451 C 0.98633 0.47112 0.63621
 C1452 C 0.99687 0.46753 0.62231
 C1453 C 0.93772 0.48753 0.70045
 C1454 C 0.92785 0.49119 0.71483
 H1455 H 0.93321 0.49864 0.65719
 H1456 H 0.97348 0.51039 0.65339
 H1457 H 0.94355 0.46022 0.64340
 H1458 H 0.95035 0.44826 0.68312
 H1459 H 0.98025 0.49839 0.69306
 H1460 H 0.99058 0.46002 0.67932
 C1461 C 0.95101 0.53679 0.82737
 C1462 C 0.95088 0.52542 0.84727
 C1463 C 0.97359 0.52458 0.84663
 C1464 C 0.97392 0.53602 0.82700
 C1465 C 0.95040 0.51691 0.81636
 C1466 C 0.97312 0.51608 0.81573
 C1467 C 0.95008 0.50546 0.83599
 C1468 C 0.97300 0.50470 0.83561
 C1469 C 0.98649 0.52889 0.86348
 C1470 C 0.99706 0.53247 0.87736
 C1471 C 0.93777 0.51258 0.79930
 C1472 C 0.92788 0.50894 0.78493
 H1473 H 0.94182 0.54994 0.82381
 H1474 H 0.94188 0.52930 0.86045
 H1475 H 0.98389 0.54862 0.82347
 H1476 H 0.98213 0.51219 0.80256
 H1477 H 0.94013 0.49285 0.83949
 H1478 H 0.98220 0.49156 0.83915
 C1479 C 0.47166 0.02413 0.31479
 C1480 C 0.46735 0.03965 0.33109
 C1481 C 0.47343 0.02439 0.34681
 C1482 C 0.47794 0.00894 0.33076
 C1483 C 0.45022 0.01670 0.31653
 C1484 C 0.45631 0.00144 0.33223
 C1485 C 0.44571 0.03216 0.33256
 C1486 C 0.45199 0.01696 0.34855
 C1487 C 0.48632 0.02870 0.36369
 C1488 C 0.49687 0.03228 0.37761
 C1489 C 0.43757 0.01236 0.29946
 C1490 C 0.42766 0.00870 0.28510
 H1491 H 0.47961 0.02703 0.30071
 H1492 H 0.47206 0.05540 0.33077
 H1493 H 0.49134 -0.00056 0.33016
 H1494 H 0.45163 -0.01432 0.33253
 H1495 H 0.43232 0.04166 0.33314
 H1496 H 0.44407 0.01405 0.36263
   
