data_POSCAR
  _audit_creation_date              2014-09-24
  _audit_creation_method            'ToBaCCo'
  _symmetry_space_group_name_H-M    'P1'
  _symmetry_Int_Tables_number       1
  _symmetry_cell_setting            triclinic
  loop_
  _symmetry_equiv_pos_as_xyz
 x,y,z
_cell_length_a 63.2704
_cell_length_b 62.8617
_cell_length_c 63.3947
_cell_angle_alpha 89.957100
_cell_angle_beta 90.087600
_cell_angle_gamma 89.838200
loop_
  _atom_site_label
  _atom_site_type_symbol
  _atom_site_fract_x
  _atom_site_fract_y
  _atom_site_fract_z
C1 C 0.19104 0.21206 0.22127
 C2 C 0.20479 0.19489 0.22467
 C3 C 0.22185 0.19145 0.21101
 C4 C 0.22515 0.20520 0.19394
 C5 C 0.21140 0.22238 0.19051
 C6 C 0.19435 0.22580 0.20418
 H7 H 0.20224 0.18424 0.23789
 H8 H 0.23835 0.20255 0.18336
 H9 H 0.18371 0.23910 0.20154
 C10 C 0.69121 0.71184 0.72148
 C11 C 0.70488 0.69458 0.72481
 C12 C 0.72192 0.69111 0.71113
 C13 C 0.72529 0.70492 0.69412
 C14 C 0.71163 0.72218 0.69076
 C15 C 0.69459 0.72563 0.70445
 H16 H 0.70227 0.68390 0.73799
 H17 H 0.73848 0.70225 0.68353
 H18 H 0.68402 0.73899 0.70186
 C19 C 0.30775 0.78839 0.72284
 C20 C 0.30431 0.77468 0.70576
 C21 C 0.28715 0.77811 0.69218
 C22 C 0.27341 0.79527 0.69568
 C23 C 0.27683 0.80901 0.71276
 C24 C 0.29402 0.80554 0.72633
 H25 H 0.31495 0.76141 0.70305
 H26 H 0.26014 0.79789 0.68513
 H27 H 0.29673 0.81614 0.73956
 C28 C 0.80724 0.28574 0.22562
 C29 C 0.79356 0.30302 0.22880
 C30 C 0.77626 0.30616 0.21532
 C31 C 0.77262 0.29201 0.19865
 C32 C 0.78627 0.27473 0.19545
 C33 C 0.80357 0.27159 0.20893
 H34 H 0.79634 0.31403 0.24169
 H35 H 0.75925 0.29446 0.18819
 H36 H 0.81414 0.25821 0.20638
 C37 C 0.80923 0.71272 0.27730
 C38 C 0.79548 0.69560 0.27403
 C39 C 0.77857 0.69218 0.28787
 C40 C 0.77543 0.70591 0.30499
 C41 C 0.78916 0.72304 0.30828
 C42 C 0.80606 0.72643 0.29443
 H43 H 0.79792 0.68497 0.26077
 H44 H 0.76234 0.70327 0.31570
 H45 H 0.81669 0.73969 0.29697
 C46 C 0.31045 0.21276 -0.22288
 C47 C 0.29664 0.19570 -0.22630
 C48 C 0.27952 0.19241 -0.21270
 C49 C 0.27621 0.20618 -0.19565
 C50 C 0.28999 0.22324 -0.19219
 C51 C 0.30710 0.22653 -0.20580
 H52 H 0.29917 0.18500 -0.23949
 H53 H 0.26296 0.20364 -0.18512
 H54 H 0.31775 0.23975 -0.20308
 C55 C 0.69439 0.28310 -0.22613
 C56 C 0.70809 0.30030 -0.22935
 C57 C 0.72526 0.30347 -0.21574
 C58 C 0.72875 0.28944 -0.19891
 C59 C 0.71510 0.27225 -0.19566
 C60 C 0.69793 0.26908 -0.20927
 H61 H 0.70538 0.31123 -0.24234
 H62 H 0.74200 0.29194 -0.18832
 H63 H 0.68733 0.25579 -0.20667
 C64 C 0.19037 0.78812 0.27772
 C65 C 0.19356 0.77442 0.29488
 C66 C 0.21057 0.77772 0.30866
 C67 C 0.22441 0.79474 0.30527
 C68 C 0.22125 0.80848 0.28810
 C69 C 0.20421 0.80515 0.27434
 H70 H 0.18285 0.76125 0.29750
 H71 H 0.23757 0.79726 0.31596
 H72 H 0.20170 0.81573 0.26103
 C73 C 0.46246 0.44209 0.47305
 C74 C 0.44529 0.45580 0.47635
 C75 C 0.44178 0.47296 0.46266
 C76 C 0.45547 0.47642 0.44566
 C77 C 0.47265 0.46272 0.44233
 C78 C 0.47614 0.44556 0.45603
 H79 H 0.43469 0.45311 0.48951
 H80 H 0.45275 0.48970 0.43505
 H81 H 0.48943 0.43495 0.45346
 C82 C -0.03715 -0.05409 0.97319
 C83 C -0.02346 -0.05084 0.95615
 C84 C -0.02669 -0.03363 0.94245
 C85 C -0.04364 -0.01965 0.94580
 C86 C -0.05737 -0.02286 0.96285
 C87 C -0.05410 -0.04010 0.97654
 H88 H -0.01036 -0.06168 0.95354
 H89 H -0.04613 -0.00635 0.93515
 H90 H -0.06469 -0.04267 0.98973
 C91 C 1.03752 0.55956 0.97114
 C92 C 1.05473 0.54589 0.97446
 C93 C 1.05820 0.52869 0.96084
 C94 C 1.04442 0.52516 0.94389
 C95 C 1.02720 0.53882 0.94054
 C96 C 1.02375 0.55601 0.95417
 H97 H 1.06539 0.54862 0.98760
 H98 H 1.04710 0.51185 0.93334
 H99 H 1.01042 0.56659 0.95159
 C100 C 0.53784 0.05752 0.47152
 C101 C 0.55511 0.04390 0.47477
 C102 C 0.55867 0.02680 0.46103
 C103 C 0.54492 0.02336 0.44401
 C104 C 0.52765 0.03697 0.44075
 C105 C 0.52412 0.05405 0.45451
 H106 H 0.56571 0.04663 0.48796
 H107 H 0.54761 0.01014 0.43334
 H108 H 0.51075 0.06459 0.45199
 C109 C -0.03790 0.05827 0.52817
 C110 C -0.02429 0.05497 0.54532
 C111 C -0.02777 0.03798 0.55919
 C112 C -0.04488 0.02427 0.55590
 C113 C -0.05853 0.02754 0.53874
 C114 C -0.05501 0.04456 0.52488
 H115 H -0.01104 0.06558 0.54787
 H116 H -0.04754 0.01112 0.56666
 H117 H -0.06553 0.04716 0.51158
 C118 C 0.46269 0.55875 0.02826
 C119 C 0.44558 0.54503 0.02498
 C120 C 0.44209 0.52802 0.03883
 C121 C 0.45573 0.52474 0.05596
 C122 C 0.47284 0.53844 0.05926
 C123 C 0.47631 0.55545 0.04540
 H124 H 0.43503 0.54759 0.01172
 H125 H 0.45303 0.51157 0.06669
 H126 H 0.48956 0.56607 0.04795
 C127 C 0.53603 -0.05893 0.02688
 C128 C 0.55285 -0.04485 0.02357
 C129 C 0.55604 -0.02777 0.03739
 C130 C 0.54240 -0.02476 0.05453
 C131 C 0.52558 -0.03881 0.05786
 C132 C 0.52240 -0.05589 0.04404
 H133 H 0.56345 -0.04714 0.01032
 H134 H 0.54488 -0.01155 0.06524
 H135 H 0.50936 -0.06675 0.04667
 C136 C 1.03870 0.44135 0.52792
 C137 C 1.02503 0.44463 0.54498
 C138 C 1.02840 0.46168 0.55879
 C139 C 1.04545 0.47547 0.55554
 C140 C 1.05915 0.47221 0.53847
 C141 C 1.05576 0.45513 0.52467
 H142 H 1.01183 0.43397 0.54750
 H143 H 1.04802 0.48866 0.56626
 H144 H 1.06632 0.45255 0.51144
 C145 C 0.40679 0.00823 0.22164
 H146 H 0.40767 0.02269 0.23085
 C147 C 0.42050 0.00517 0.20467
 H148 H 0.43173 0.01751 0.20073
 C149 C 0.39090 -0.02530 0.21559
 H150 H 0.37962 -0.03732 0.22011
 C151 C 0.40430 -0.02902 0.19849
 H152 H 0.40314 -0.04393 0.19002
 N153 N 0.39220 -0.00679 0.22660
 C154 C 0.34229 0.02746 0.25978
 H155 H 0.34141 0.01817 0.27413
 C156 C 0.32852 0.04458 0.25671
 H157 H 0.31697 0.04829 0.26875
 C158 C 0.35799 0.03334 0.22638
 H159 H 0.36929 0.02875 0.21447
 C160 C 0.34451 0.05056 0.22264
 H161 H 0.34591 0.05932 0.20801
 Zn162 Zn 0.37449 -0.00145 0.25006
 N163 N 0.35681 0.02233 0.24482
 C164 C 0.39119 0.02228 0.28445
 N165 N 0.39227 0.00368 0.27355
 C166 C 0.40675 -0.01153 0.27859
 C167 C 0.42059 -0.00854 0.29550
 C168 C 0.40474 0.02594 0.30147
 C169 C 0.34205 -0.02986 0.24024
 C170 C 0.32814 -0.04679 0.24323
 C171 C 0.34417 -0.05317 0.27728
 C172 C 0.35778 -0.03610 0.27363
 N173 N 0.35664 -0.02500 0.25524
 H174 H 0.37991 0.03438 0.27994
 H175 H 0.40755 -0.02600 0.26939
 H176 H 0.43211 -0.02078 0.29915
 H177 H 0.40342 0.04071 0.31015
 H178 H 0.34130 -0.02058 0.22588
 H179 H 0.31689 -0.05063 0.23093
 H180 H 0.34517 -0.06168 0.29210
 H181 H 0.36906 -0.03165 0.28562
 C182 C 0.32955 0.05641 0.23794
 C183 C 0.41931 -0.01364 0.19279
 C184 C 0.32912 -0.05873 0.26195
 C185 C 0.41967 0.01039 0.30722
 C186 C 0.09271 -0.00871 0.72242
 H187 H 0.09182 -0.02299 0.73191
 C188 C 0.07884 -0.00584 0.70550
 H189 H 0.06720 -0.01796 0.70215
 C190 C 0.10858 0.02473 0.71581
 H191 H 0.12001 0.03673 0.72002
 C192 C 0.09500 0.02827 0.69877
 H193 H 0.09644 0.04284 0.68978
 N194 N 0.10737 0.00636 0.72708
 C195 C 0.15744 -0.02759 0.76054
 H196 H 0.15842 -0.01815 0.77477
 C197 C 0.17117 -0.04476 0.75762
 H198 H 0.18280 -0.04836 0.76966
 C199 C 0.14152 -0.03379 0.72726
 H200 H 0.13016 -0.02931 0.71533
 C201 C 0.15497 -0.05106 0.72367
 H202 H 0.15346 -0.05997 0.70914
 Zn203 Zn 0.12524 0.00129 0.75054
 N204 N 0.14284 -0.02259 0.74557
 C205 C 0.10875 -0.02189 0.78542
 N206 N 0.10759 -0.00350 0.77416
 C207 C 0.09313 0.01179 0.77894
 C208 C 0.07940 0.00911 0.79594
 C209 C 0.09532 -0.02523 0.80256
 C210 C 0.15764 0.02962 0.74027
 C211 C 0.17158 0.04657 0.74307
 C212 C 0.15583 0.05316 0.77714
 C213 C 0.14216 0.03610 0.77367
 N214 N 0.14315 0.02487 0.75537
 H215 H 0.11993 -0.03412 0.78104
 H216 H 0.09236 0.02615 0.76954
 H217 H 0.06827 0.02165 0.79971
 H218 H 0.09634 -0.04006 0.81120
 H219 H 0.15835 0.02016 0.72604
 H220 H 0.18311 0.04998 0.73093
 H221 H 0.15458 0.06210 0.79167
 H222 H 0.13088 0.03182 0.78570
 C223 C 0.17002 -0.05677 0.73898
 C224 C 0.07991 0.01284 0.69338
 C225 C 0.17077 0.05861 0.76170
 C226 C 0.08042 -0.00958 0.80805
 C227 C 0.59251 0.49068 0.22279
 H228 H 0.59159 0.47632 0.23216
 C229 C 0.57874 0.49366 0.20581
 H230 H 0.56713 0.48154 0.20229
 C231 C 0.60835 0.52420 0.21654
 H232 H 0.61972 0.53619 0.22092
 C233 C 0.59487 0.52785 0.19945
 H234 H 0.59634 0.54250 0.19059
 N235 N 0.60711 0.50573 0.22767
 C236 C 0.65713 0.47179 0.26120
 H237 H 0.65801 0.48120 0.27546
 C238 C 0.67085 0.45460 0.25837
 H239 H 0.68207 0.45069 0.27069
 C240 C 0.64126 0.46548 0.22792
 H241 H 0.62999 0.46999 0.21591
 C242 C 0.65466 0.44814 0.22444
 H243 H 0.65352 0.43949 0.20973
 Zn244 Zn 0.62488 0.50056 0.25118
 N245 N 0.64255 0.47674 0.24619
 C246 C 0.60829 0.47704 0.28573
 N247 N 0.60716 0.49558 0.27471
 C248 C 0.59269 0.51081 0.27966
 C249 C 0.57892 0.50790 0.29660
 C250 C 0.59481 0.47346 0.30278
 C251 C 0.65731 0.52890 0.24115
 C252 C 0.67122 0.54586 0.24401
 C253 C 0.65523 0.55251 0.27796
 C254 C 0.64163 0.53540 0.27446
 N255 N 0.64274 0.52415 0.25617
 H256 H 0.61956 0.46492 0.28130
 H257 H 0.59186 0.52523 0.27037
 H258 H 0.56741 0.52015 0.30018
 H259 H 0.59618 0.45874 0.31156
 H260 H 0.65804 0.51950 0.22688
 H261 H 0.68244 0.54960 0.23169
 H262 H 0.65424 0.56114 0.29270
 H263 H 0.63036 0.53105 0.28647
 C264 C 0.66967 0.44247 0.23981
 C265 C 0.57984 0.51244 0.19385
 C266 C 0.67026 0.55796 0.26260
 C267 C 0.57990 0.48903 0.30845
 C268 C 0.90746 0.50874 0.72120
 H269 H 0.90806 0.52320 0.73043
 C270 C 0.92137 0.50590 0.70435
 H271 H 0.93245 0.51840 0.70052
 C272 C 0.89214 0.47497 0.71500
 H273 H 0.88101 0.46277 0.71942
 C274 C 0.90574 0.47146 0.69801
 H275 H 0.90489 0.45654 0.68954
 N276 N 0.89306 0.49349 0.72604
 C277 C 0.84245 0.52687 0.75905
 H278 H 0.84165 0.51754 0.77337
 C279 C 0.82853 0.54388 0.75602
 H280 H 0.81723 0.54773 0.76825
 C281 C 0.85833 0.53318 0.72581
 H282 H 0.86968 0.52874 0.71390
 C283 C 0.84473 0.55033 0.72213
 H284 H 0.84580 0.55891 0.70736
 Zn285 Zn 0.87510 0.49846 0.74939
 N286 N 0.85713 0.52202 0.74416
 C287 C 0.89123 0.52227 0.78400
 N288 N 0.89265 0.50374 0.77303
 C289 C 0.90734 0.48873 0.77808
 C290 C 0.92105 0.49187 0.79506
 C291 C 0.90462 0.52605 0.80112
 C292 C 0.84320 0.46958 0.73918
 C293 C 0.82964 0.45232 0.74191
 C294 C 0.84556 0.44597 0.77601
 C295 C 0.85881 0.46336 0.77262
 N296 N 0.85759 0.47460 0.75431
 H297 H 0.87988 0.53427 0.77941
 H298 H 0.90833 0.47427 0.76889
 H299 H 0.93238 0.47956 0.79904
 H300 H 0.90339 0.54099 0.80952
 H301 H 0.84237 0.47897 0.72489
 H302 H 0.81858 0.44834 0.72949
 H303 H 0.84665 0.43732 0.79075
 H304 H 0.86993 0.46793 0.78472
 C305 C 0.82961 0.55592 0.73738
 C306 C 0.92057 0.48707 0.69246
 C307 C 0.83076 0.44020 0.76051
 C308 C 0.91976 0.51072 0.80687
 C309 C 0.22183 0.40814 0.00910
 H310 H 0.23102 0.40895 0.02348
 C311 C 0.20484 0.42203 0.00604
 H312 H 0.20113 0.43361 0.01813
 C313 C 0.21602 0.39246 -0.02438
 H314 H 0.22058 0.38111 -0.03632
 C315 C 0.19893 0.40606 -0.02811
 H316 H 0.19024 0.40470 -0.04276
 N317 N 0.22692 0.39356 -0.00590
 C318 C 0.26007 0.34299 0.02787
 H319 H 0.27448 0.34211 0.01875
 C320 C 0.25696 0.32909 0.04477
 H321 H 0.26904 0.31744 0.04848
 C322 C 0.22655 0.35886 0.03360
 H323 H 0.21462 0.37028 0.02905
 C324 C 0.22278 0.34525 0.05059
 H325 H 0.20809 0.34669 0.05922
 Zn326 Zn 0.25043 0.37562 -0.00058
 N327 N 0.24507 0.35766 0.02279
 C328 C 0.28479 0.39210 0.02335
 N329 N 0.27389 0.39343 0.00488
 C330 C 0.27896 0.40815 -0.00999
 C331 C 0.29590 0.42196 -0.00680
 C332 C 0.30186 0.40559 0.02719
 C333 C 0.24087 0.34328 -0.02929
 C334 C 0.24403 0.32951 -0.04628
 C335 C 0.27818 0.34561 -0.05196
 C336 C 0.27435 0.35909 -0.03488
 N337 N 0.25583 0.35786 -0.02409
 H338 H 0.28019 0.38072 0.03524
 H339 H 0.26983 0.40906 -0.02441
 H340 H 0.29991 0.43329 -0.01901
 H341 H 0.31023 0.40441 0.04206
 H342 H 0.22646 0.34237 -0.02018
 H343 H 0.23199 0.31792 -0.05007
 H344 H 0.29288 0.34707 -0.06056
 H345 H 0.28626 0.37044 -0.03024
 C346 C 0.23813 0.33016 0.05643
 C347 C 0.19309 0.42106 -0.01275
 C348 C 0.26288 0.33061 -0.05790
 C349 C 0.30765 0.42074 0.01198
 C350 C 0.71564 0.09694 -0.01114
 H351 H 0.72237 0.09877 -0.02665
 C352 C 0.69830 0.08355 -0.00840
 H353 H 0.69168 0.07550 -0.02198
 C354 C 0.71605 0.10505 0.02533
 H355 H 0.72333 0.11300 0.03856
 C356 C 0.69870 0.09182 0.02878
 H357 H 0.69277 0.08984 0.04467
 N358 N 0.72410 0.10749 0.00558
 C359 C 0.74137 0.16405 -0.02029
 H360 H 0.74117 0.17118 -0.00484
 C361 C 0.73853 0.17699 -0.03796
 H362 H 0.73617 0.19391 -0.03580
 C363 C 0.74566 0.13372 -0.04200
 H364 H 0.74897 0.11692 -0.04351
 C365 C 0.74293 0.14609 -0.06013
 H366 H 0.74356 0.13852 -0.07545
 Zn367 Zn 0.74826 0.12497 0.00151
 N368 N 0.74447 0.14273 -0.02253
 C369 C 0.79023 0.11640 -0.01043
 N370 N 0.77209 0.10743 -0.00325
 C371 C 0.77076 0.08616 0.00042
 C372 C 0.78824 0.07302 -0.00299
 C373 C 0.80810 0.10384 -0.01409
 C374 C 0.73658 0.15435 0.03301
 C375 C 0.73932 0.16733 0.05065
 C376 C 0.77501 0.15400 0.05396
 C377 C 0.77159 0.14128 0.03623
 N378 N 0.75269 0.14186 0.02599
 H379 H 0.79082 0.13337 -0.01323
 H380 H 0.75617 0.07936 0.00611
 H381 H 0.78681 0.05610 -0.00017
 H382 H 0.82250 0.11130 -0.01951
 H383 H 0.72157 0.15427 0.02481
 H384 H 0.72627 0.17711 0.05599
 H385 H 0.79033 0.15367 0.06160
 H386 H 0.78413 0.13108 0.03061
 C387 C 0.73913 0.16802 -0.05823
 C388 C 0.68961 0.08082 0.01178
 C389 C 0.75880 0.16739 0.06129
 C390 C 0.80725 0.08183 -0.01030
 C391 C 0.22070 0.59262 0.49096
 H392 H 0.22988 0.59186 0.47660
 C393 C 0.20383 0.57868 0.49397
 H394 H 0.19994 0.56740 0.48168
 C395 C 0.21465 0.60842 0.52434
 H396 H 0.21914 0.61975 0.53632
 C397 C 0.19765 0.59480 0.52800
 H398 H 0.18923 0.59582 0.54282
 N399 N 0.22562 0.60728 0.50594
 C400 C 0.25855 0.65779 0.47225
 H401 H 0.27295 0.65866 0.48144
 C402 C 0.25544 0.67162 0.45528
 H403 H 0.26768 0.68292 0.45132
 C404 C 0.22521 0.64180 0.46627
 H405 H 0.21329 0.63045 0.47083
 C406 C 0.22144 0.65532 0.44917
 H407 H 0.20660 0.65417 0.44074
 Zn408 Zn 0.24901 0.62524 0.50074
 N409 N 0.24365 0.64309 0.47725
 C410 C 0.28359 0.60872 0.47714
 N411 N 0.27264 0.60746 0.49554
 C412 C 0.27776 0.59284 0.51052
 C413 C 0.29482 0.57904 0.50752
 C414 C 0.30078 0.59524 0.47348
 C415 C 0.23905 0.65768 0.52922
 C416 C 0.24201 0.67153 0.54617
 C417 C 0.27623 0.65550 0.55224
 C418 C 0.27262 0.64196 0.53516
 N419 N 0.25414 0.64311 0.52421
 H420 H 0.27894 0.62002 0.46516
 H421 H 0.26859 0.59198 0.52489
 H422 H 0.29887 0.56778 0.51981
 H423 H 0.30918 0.59635 0.45866
 H424 H 0.22463 0.65845 0.52005
 H425 H 0.22962 0.68275 0.55014
 H426 H 0.29111 0.65448 0.56064
 H427 H 0.28468 0.63070 0.53060
 C428 C 0.23670 0.67044 0.44344
 C429 C 0.19201 0.57970 0.51268
 C430 C 0.26079 0.67051 0.55798
 C431 C 0.30663 0.58018 0.48881
 C432 C 0.72207 0.90818 0.50942
 H433 H 0.73117 0.90902 0.52385
 C434 C 0.70502 0.92197 0.50627
 H435 H 0.70091 0.93323 0.51852
 C436 C 0.71639 0.89230 0.47600
 H437 H 0.72109 0.88100 0.46407
 C438 C 0.69922 0.90578 0.47220
 H439 H 0.69088 0.90467 0.45732
 N440 N 0.72725 0.89355 0.49449
 C441 C 0.76050 0.84317 0.52847
 H442 H 0.77492 0.84230 0.51936
 C443 C 0.75740 0.82930 0.54539
 H444 H 0.76949 0.81766 0.54912
 C445 C 0.72695 0.85899 0.53413
 H446 H 0.71500 0.87038 0.52955
 C447 C 0.72318 0.84540 0.55114
 H448 H 0.70847 0.84682 0.55975
 Zn449 Zn 0.75080 0.87569 0.49990
 N450 N 0.74548 0.85781 0.52334
 C451 C 0.78514 0.89231 0.52376
 N452 N 0.77425 0.89355 0.50528
 C453 C 0.77931 0.90820 0.49034
 C454 C 0.79625 0.92203 0.49347
 C455 C 0.80220 0.90583 0.52755
 C456 C 0.74124 0.84319 0.47140
 C457 C 0.74434 0.82938 0.45444
 C458 C 0.77843 0.84551 0.44854
 C459 C 0.77467 0.85904 0.46560
 N460 N 0.75620 0.85782 0.47647
 H461 H 0.78053 0.88099 0.53570
 H462 H 0.77020 0.90903 0.47591
 H463 H 0.80026 0.93331 0.48121
 H464 H 0.81055 0.90473 0.54243
 H465 H 0.72687 0.84230 0.48058
 H466 H 0.73229 0.81776 0.45075
 H467 H 0.79308 0.84697 0.43985
 H468 H 0.78658 0.87043 0.47013
 C469 C 0.73854 0.83033 0.55701
 C470 C 0.69329 0.92083 0.48748
 C471 C 0.76312 0.83048 0.44271
 C472 C 0.80800 0.92091 0.51226
 C473 C 0.01062 0.22099 0.40676
 H474 H 0.02497 0.23028 0.40754
 C475 C 0.00767 0.20397 0.42059
 H476 H 0.01982 0.20032 0.43210
 C477 C -0.02294 0.21504 0.39124
 H478 H -0.03497 0.21957 0.38000
 C479 C -0.02655 0.19792 0.40479
 H480 H -0.04121 0.18916 0.40349
 N481 N -0.00449 0.22605 0.39231
 C482 C 0.02868 0.25981 0.34221
 H483 H 0.01930 0.27421 0.34141
 C484 C 0.04555 0.25688 0.32833
 H485 H 0.04898 0.26908 0.31678
 C486 C 0.03506 0.22615 0.35784
 H487 H 0.03077 0.21408 0.36916
 C488 C 0.05204 0.22254 0.34425
 H489 H 0.06092 0.20786 0.34559
 Zn490 Zn 0.00048 0.24976 0.37458
 N491 N 0.02392 0.24466 0.35674
 C492 C 0.02399 0.28456 0.39106
 N493 N 0.00563 0.27342 0.39231
 C494 C -0.00932 0.27832 0.40692
 C495 C -0.00632 0.29534 0.42073
 C496 C 0.02765 0.30168 0.40459
 C497 C -0.02814 0.23979 0.34249
 C498 C -0.04530 0.24266 0.32891
 C499 C -0.05168 0.27691 0.34500
 C500 C -0.03440 0.27336 0.35830
 N501 N -0.02320 0.25491 0.35699
 H502 H 0.03589 0.28015 0.37968
 H503 H -0.02359 0.26893 0.40783
 H504 H -0.01834 0.29887 0.43235
 H505 H 0.04222 0.31056 0.40314
 H506 H -0.01870 0.22544 0.34152
 H507 H -0.04889 0.23048 0.31740
 H508 H -0.06063 0.29152 0.34653
 H509 H -0.02998 0.28540 0.36959
 C510 C 0.05752 0.23806 0.32927
 C511 C -0.01112 0.19216 0.41970
 C512 C -0.05738 0.26140 0.33011
 C513 C 0.01236 0.30731 0.41965
 C514 C -0.01040 0.72328 0.09165
 H515 H -0.02475 0.73266 0.09088
 C516 C -0.00746 0.70630 0.07777
 H517 H -0.01978 0.70252 0.06653
 C518 C 0.02299 0.71684 0.10741
 H519 H 0.03500 0.72122 0.11870
 C520 C 0.02658 0.69972 0.09384
 H521 H 0.04139 0.69110 0.09488
 N522 N 0.00461 0.72806 0.10625
 C523 C -0.02898 0.76146 0.15638
 H524 H -0.01967 0.77583 0.15735
 C525 C -0.04591 0.75840 0.17014
 H526 H -0.04946 0.77048 0.18178
 C527 C -0.03510 0.72794 0.14046
 H528 H -0.03067 0.71597 0.12907
 C529 C -0.05213 0.72421 0.15393
 H530 H -0.06092 0.70953 0.15244
 Zn531 Zn -0.00049 0.75163 0.12414
 N532 N -0.02406 0.74643 0.14176
 C533 C -0.02388 0.78674 0.10782
 N534 N -0.00551 0.77551 0.10660
 C535 C 0.00956 0.78051 0.09217
 C536 C 0.00669 0.79773 0.07854
 C537 C -0.02740 0.80410 0.09449
 C538 C 0.02790 0.74122 0.15640
 C539 C 0.04482 0.74401 0.17028
 C540 C 0.05117 0.77842 0.15458
 C541 C 0.03412 0.77498 0.14101
 N542 N 0.02303 0.75650 0.14198
 H543 H -0.03593 0.78219 0.11897
 H544 H 0.02389 0.77112 0.09135
 H545 H 0.01905 0.80168 0.06743
 H546 H -0.04220 0.81272 0.09556
 H547 H 0.01863 0.72680 0.15703
 H548 H 0.04866 0.73148 0.18139
 H549 H 0.05967 0.79332 0.15370
 H550 H 0.02967 0.78720 0.12986
 C551 C -0.05777 0.73958 0.16900
 C552 C 0.01122 0.69422 0.07880
 C553 C 0.05674 0.76280 0.16945
 C554 C -0.01198 0.80982 0.07962
 C555 C 0.49029 0.22072 0.59298
 H556 H 0.47598 0.23016 0.59234
 C557 C 0.49304 0.20372 0.57908
 H558 H 0.48059 0.19998 0.56796
 C559 C 0.52383 0.21417 0.60840
 H560 H 0.53598 0.21853 0.61954
 C561 C 0.52722 0.19703 0.59481
 H562 H 0.54201 0.18837 0.59569
 N563 N 0.50548 0.22546 0.60741
 C564 C 0.47259 0.25931 0.65773
 H565 H 0.48203 0.27361 0.65857
 C566 C 0.45570 0.25648 0.67158
 H567 H 0.45230 0.26866 0.68316
 C568 C 0.46610 0.22578 0.64199
 H569 H 0.47034 0.21372 0.63063
 C570 C 0.44909 0.22228 0.65556
 H571 H 0.44015 0.20768 0.65416
 Zn572 Zn 0.50072 0.24913 0.62526
 N573 N 0.47730 0.24418 0.64314
 C574 C 0.47737 0.28430 0.60899
 N575 N 0.49565 0.27295 0.60764
 C576 C 0.51057 0.27774 0.59299
 C577 C 0.50762 0.29486 0.57924
 C578 C 0.47377 0.30156 0.59556
 C579 C 0.52946 0.23866 0.65719
 C580 C 0.54669 0.24130 0.67071
 C581 C 0.55309 0.27560 0.65476
 C582 C 0.53575 0.27229 0.64152
 N583 N 0.52449 0.25393 0.64278
 H584 H 0.46543 0.27991 0.62033
 H585 H 0.52483 0.26826 0.59206
 H586 H 0.51986 0.29863 0.56793
 H587 H 0.45903 0.31027 0.59674
 H588 H 0.51999 0.22439 0.65812
 H589 H 0.55030 0.22901 0.68214
 H590 H 0.56208 0.29015 0.65326
 H591 H 0.53131 0.28444 0.63031
 C592 C 0.44365 0.23777 0.67057
 C593 C 0.51169 0.19158 0.57992
 C594 C 0.55881 0.25995 0.66955
 C595 C 0.48903 0.30706 0.58045
 C596 C 0.51035 0.72140 0.90646
 H597 H 0.52463 0.73079 0.90730
 C598 C 0.50746 0.70439 0.92031
 H599 H 0.51958 0.70085 0.93189
 C600 C 0.47692 0.71518 0.89079
 H601 H 0.46492 0.71959 0.87947
 C602 C 0.47336 0.69805 0.90436
 H603 H 0.45878 0.68919 0.90300
 N604 N 0.49529 0.72632 0.89193
 C605 C 0.52867 0.76011 0.84199
 H606 H 0.51931 0.77452 0.84114
 C607 C 0.54560 0.75715 0.82819
 H608 H 0.54910 0.76934 0.81665
 C609 C 0.53491 0.72643 0.85764
 H610 H 0.53054 0.71437 0.86893
 C611 C 0.55195 0.72280 0.84412
 H612 H 0.56080 0.70809 0.84550
 Zn613 Zn 0.50026 0.75004 0.87421
 N614 N 0.52380 0.74496 0.85649
 C615 C 0.52356 0.78495 0.89081
 N616 N 0.50526 0.77370 0.89196
 C617 C 0.49022 0.77851 0.90650
 C618 C 0.49304 0.79556 0.92032
 C619 C 0.52704 0.80211 0.90434
 C620 C 0.47172 0.74007 0.84199
 C621 C 0.45469 0.74305 0.82826
 C622 C 0.44842 0.77735 0.84427
 C623 C 0.46556 0.77369 0.85771
 N624 N 0.47666 0.75518 0.85650
 H625 H 0.53554 0.78062 0.87948
 H626 H 0.47599 0.76904 0.90735
 H627 H 0.48093 0.79902 0.93188
 H628 H 0.54156 0.81108 0.90295
 H629 H 0.48108 0.72566 0.84109
 H630 H 0.45111 0.73089 0.81672
 H631 H 0.43957 0.79204 0.84571
 H632 H 0.46999 0.78573 0.86901
 C633 C 0.55752 0.73830 0.82917
 C634 C 0.48877 0.69243 0.91935
 C635 C 0.44275 0.76189 0.82933
 C636 C 0.51164 0.80765 0.91931
 C637 C 0.10626 0.24808 0.29588
 C638 C 0.10965 0.22802 0.28694
 C639 C 0.09603 0.21122 0.29181
 C640 C 0.07908 0.21446 0.30558
 C641 C 0.17352 0.21556 0.23532
 C642 C 0.08932 0.25136 0.30964
 C643 C 0.12711 0.22465 0.27279
 C644 C 0.14174 0.22181 0.26095
 C645 C 0.15887 0.21846 0.24711
 C646 C 0.07553 0.23458 0.31466
 H647 H 0.11675 0.26118 0.29226
 H648 H 0.09847 0.19564 0.28494
 H649 H 0.06859 0.20130 0.30890
 H650 H 0.08717 0.26696 0.31657
 C651 C 0.59608 0.71133 0.79186
 C652 C 0.60977 0.72808 0.78702
 C653 C 0.60641 0.74817 0.79593
 C654 C 0.58942 0.75151 0.80963
 C655 C 0.67371 0.71538 0.73554
 C656 C 0.57909 0.71463 0.80557
 C657 C 0.62726 0.72465 0.77293
 C658 C 0.64191 0.72175 0.76113
 C659 C 0.65906 0.71833 0.74732
 C660 C 0.57557 0.73477 0.81462
 H661 H 0.59850 0.69574 0.78500
 H662 H 0.61694 0.76123 0.79234
 H663 H 0.58729 0.76711 0.81655
 H664 H 0.56856 0.70151 0.80886
 C665 C 0.40375 0.78889 0.79235
 C666 C 0.39002 0.77214 0.78761
 C667 C 0.39353 0.75203 0.79646
 C668 C 0.41068 0.74867 0.81000
 C669 C 0.32542 0.78486 0.73676
 C670 C 0.42090 0.78558 0.80590
 C671 C 0.37235 0.77559 0.77370
 C672 C 0.35754 0.77850 0.76205
 C673 C 0.34021 0.78192 0.74841
 C674 C 0.42456 0.76542 0.81489
 H675 H 0.40122 0.80451 0.78554
 H676 H 0.38296 0.73896 0.79294
 H677 H 0.41291 0.73305 0.81688
 H678 H 0.43145 0.79871 0.80912
 C679 C -0.10688 0.25101 0.29784
 C680 C -0.11068 0.27107 0.28900
 C681 C -0.09708 0.28797 0.29356
 C682 C -0.07974 0.28486 0.30693
 C683 C -0.17590 0.28273 0.23868
 C684 C -0.08955 0.24785 0.31120
 C685 C -0.12852 0.27429 0.27524
 C686 C -0.14347 0.27696 0.26372
 C687 C -0.16096 0.28007 0.25023
 C688 C -0.07578 0.26475 0.31590
 H689 H -0.11734 0.23783 0.29446
 H690 H -0.09984 0.30355 0.28675
 H691 H -0.06928 0.29810 0.31002
 H692 H -0.08708 0.23227 0.31807
 C693 C -0.09614 0.71233 0.20619
 C694 C -0.10987 0.72906 0.21120
 C695 C -0.10662 0.74921 0.20242
 C696 C -0.08969 0.75265 0.18869
 C697 C -0.17341 0.71622 0.26308
 C698 C -0.07921 0.71572 0.19245
 C699 C -0.12727 0.72555 0.22537
 C700 C -0.14183 0.72261 0.23725
 C701 C -0.15887 0.71916 0.25118
 C702 C -0.07578 0.73593 0.18355
 H703 H -0.09847 0.69668 0.21295
 H704 H -0.11719 0.76226 0.20614
 H705 H -0.08764 0.76831 0.18189
 H706 H -0.06863 0.70261 0.18904
 C707 C 0.39483 0.24812 0.70382
 C708 C 0.39131 0.22804 0.71266
 C709 C 0.40489 0.21114 0.70779
 C710 C 0.42192 0.21428 0.69412
 C711 C 0.32710 0.21595 0.76389
 C712 C 0.41186 0.25131 0.69015
 C713 C 0.37376 0.22476 0.72670
 C714 C 0.35905 0.22200 0.73844
 C715 C 0.34182 0.21875 0.75217
 C716 C 0.42559 0.23441 0.68513
 H717 H 0.38438 0.26130 0.70743
 H718 H 0.40235 0.19554 0.71460
 H719 H 0.43236 0.20104 0.69079
 H720 H 0.41410 0.26691 0.68328
 C721 C 0.60841 0.24900 0.70160
 C722 C 0.61229 0.26898 0.71051
 C723 C 0.59870 0.28601 0.70606
 C724 C 0.58131 0.28310 0.69275
 C725 C 0.67758 0.28014 0.76076
 C726 C 0.59102 0.24605 0.68830
 C727 C 0.63018 0.27200 0.72421
 C728 C 0.64515 0.27455 0.73571
 C729 C 0.66266 0.27755 0.74920
 C730 C 0.57727 0.26307 0.68371
 H731 H 0.61886 0.23572 0.70490
 H732 H 0.60151 0.30153 0.71292
 H733 H 0.57086 0.29644 0.68975
 H734 H 0.58850 0.23052 0.68138
 C735 C 0.09045 0.76296 0.21907
 C736 C 0.10900 0.77254 0.21179
 C737 C 0.11050 0.77893 0.19070
 C738 C 0.09352 0.77577 0.17692
 C739 C 0.17288 0.78473 0.26358
 C740 C 0.07346 0.75976 0.20532
 C741 C 0.12647 0.77584 0.22597
 C742 C 0.14111 0.77863 0.23784
 C743 C 0.15824 0.78191 0.25173
 C744 C 0.07479 0.76614 0.18408
 H745 H 0.08910 0.75801 0.23538
 H746 H 0.12481 0.78632 0.18489
 H747 H 0.09514 0.78061 0.16061
 H748 H 0.05917 0.75258 0.21137
 C749 C 0.29229 0.09528 0.21089
 C750 C 0.28750 0.10924 0.22740
 C751 C 0.29643 0.10596 0.24735
 C752 C 0.31010 0.08879 0.25080
 C753 C 0.23597 0.17380 0.21452
 C754 C 0.30596 0.07811 0.21429
 C755 C 0.27342 0.12691 0.22388
 C756 C 0.26162 0.14171 0.22092
 C757 C 0.24779 0.15902 0.21747
 C758 C 0.31503 0.07466 0.23430
 H759 H 0.28541 0.09764 0.19540
 H760 H 0.29287 0.11670 0.26023
 H761 H 0.31703 0.08672 0.26629
 H762 H 0.30921 0.06736 0.20135
 C763 C 0.77997 0.59001 0.73647
 C764 C 0.78743 0.60870 0.72710
 C765 C 0.80864 0.61015 0.72107
 C766 C 0.82236 0.59300 0.72439
 C767 C 0.73597 0.67339 0.71457
 C768 C 0.79367 0.57284 0.73983
 C769 C 0.77333 0.62638 0.72368
 C770 C 0.76153 0.64119 0.72081
 C771 C 0.74774 0.65855 0.71745
 C772 C 0.81503 0.57414 0.73382
 H773 H 0.76356 0.58870 0.74115
 H774 H 0.81459 0.62456 0.71385
 H775 H 0.83877 0.59459 0.71984
 H776 H 0.78748 0.55845 0.74686
 C777 C 0.78190 0.40527 0.76040
 C778 C 0.78965 0.38665 0.76977
 C779 C 0.81080 0.38551 0.77615
 C780 C 0.82418 0.40293 0.77317
 C781 C 0.73918 0.32126 0.78108
 C782 C 0.79524 0.42269 0.75739
 C783 C 0.77589 0.36872 0.77284
 C784 C 0.76434 0.35372 0.77542
 C785 C 0.75079 0.33619 0.77846
 C786 C 0.81655 0.42172 0.76374
 H787 H 0.76552 0.40634 0.75547
 H788 H 0.81698 0.37116 0.78337
 H789 H 0.84056 0.40158 0.77797
 H790 H 0.78882 0.43702 0.75036
 C791 C 0.27934 -0.09232 0.26270
 C792 C 0.28667 -0.11102 0.27224
 C793 C 0.30786 -0.11266 0.27843
 C794 C 0.32167 -0.09566 0.27510
 C795 C 0.23470 -0.17497 0.28482
 C796 C 0.29312 -0.07531 0.25934
 C797 C 0.27247 -0.12853 0.27567
 C798 C 0.26056 -0.14318 0.27855
 C799 C 0.24662 -0.16032 0.28192
 C800 C 0.31446 -0.07679 0.26550
 H801 H 0.26296 -0.09087 0.25790
 H802 H 0.31371 -0.12709 0.28578
 H803 H 0.33805 -0.09739 0.27978
 H804 H 0.28702 -0.06091 0.25218
 C805 C 0.20712 -0.09587 0.71219
 C806 C 0.21203 -0.10967 0.72883
 C807 C 0.20324 -0.10622 0.74878
 C808 C 0.18959 -0.08902 0.75210
 C809 C 0.26349 -0.17429 0.71613
 C810 C 0.19345 -0.07867 0.71547
 C811 C 0.22610 -0.12737 0.72541
 C812 C 0.23789 -0.14218 0.72252
 C813 C 0.25169 -0.15950 0.71909
 C814 C 0.18453 -0.07505 0.73548
 H815 H 0.21389 -0.09836 0.69670
 H816 H 0.20690 -0.11684 0.76175
 H817 H 0.18277 -0.08682 0.76761
 H818 H 0.19011 -0.06805 0.70243
 C819 C 0.71894 0.40783 0.23946
 C820 C 0.71130 0.38916 0.23019
 C821 C 0.69009 0.38790 0.22404
 C822 C 0.67655 0.40523 0.22714
 C823 C 0.76227 0.32396 0.21854
 C824 C 0.70542 0.42517 0.24258
 C825 C 0.72523 0.37131 0.22701
 C826 C 0.73690 0.35637 0.22434
 C827 C 0.75057 0.33888 0.22122
 C828 C 0.68406 0.42407 0.23646
 H829 H 0.73535 0.40899 0.24422
 H830 H 0.68400 0.37351 0.21691
 H831 H 0.66014 0.40379 0.22251
 H832 H 0.71175 0.43954 0.24954
 C833 C 0.69147 0.61206 0.27858
 C834 C 0.71264 0.61040 0.27243
 C835 C 0.71999 0.59163 0.26309
 C836 C 0.70622 0.57457 0.25988
 C837 C 0.76444 0.67460 0.28451
 C838 C 0.67768 0.59501 0.27540
 C839 C 0.72682 0.62796 0.27571
 C840 C 0.73870 0.64266 0.27847
 C841 C 0.75259 0.65988 0.28172
 C842 C 0.68490 0.57607 0.26600
 H843 H 0.68560 0.62654 0.28578
 H844 H 0.73637 0.59016 0.25833
 H845 H 0.71234 0.56011 0.25287
 H846 H 0.66130 0.59676 0.28004
 C847 C 0.20854 0.09715 0.78814
 C848 C 0.21339 0.11087 0.77146
 C849 C 0.20435 0.10753 0.75158
 C850 C 0.19050 0.09054 0.74838
 C851 C 0.26535 0.17488 0.78379
 C852 C 0.19468 0.08016 0.78499
 C853 C 0.22763 0.12838 0.77475
 C854 C 0.23954 0.14305 0.77756
 C855 C 0.25347 0.16022 0.78090
 C856 C 0.18550 0.07666 0.76507
 H857 H 0.21550 0.09956 0.80358
 H858 H 0.20795 0.11810 0.73857
 H859 H 0.18348 0.08843 0.73294
 H860 H 0.19138 0.06960 0.79807
 C861 C 0.21105 0.29281 0.09490
 C862 C 0.22759 0.28800 0.10881
 C863 C 0.24757 0.29692 0.10560
 C864 C 0.25101 0.31061 0.08856
 C865 C 0.21482 0.23650 0.17297
 C866 C 0.21446 0.30651 0.07786
 C867 C 0.22406 0.27392 0.12636
 C868 C 0.22112 0.26212 0.14106
 C869 C 0.21771 0.24831 0.15827
 C870 C 0.23449 0.31557 0.07450
 H871 H 0.19554 0.28594 0.09720
 H872 H 0.26046 0.29335 0.11630
 H873 H 0.26653 0.31754 0.08657
 H874 H 0.20149 0.30978 0.06716
 C875 C 0.71145 0.79289 0.59537
 C876 C 0.72797 0.78808 0.60930
 C877 C 0.74793 0.79705 0.60616
 C878 C 0.75139 0.81078 0.58916
 C879 C 0.71510 0.73636 0.67327
 C880 C 0.71486 0.80663 0.57837
 C881 C 0.72443 0.77394 0.62681
 C882 C 0.72148 0.76209 0.64146
 C883 C 0.71803 0.74822 0.65862
 C884 C 0.73489 0.81573 0.57506
 H885 H 0.69595 0.78598 0.59762
 H886 H 0.76082 0.79347 0.61688
 H887 H 0.76690 0.81774 0.58720
 H888 H 0.70192 0.80989 0.56765
 C889 C 0.79011 0.79325 0.40398
 C890 C 0.77351 0.78854 0.39015
 C891 C 0.75353 0.79751 0.39348
 C892 C 0.75014 0.81114 0.41056
 C893 C 0.78589 0.73713 0.32586
 C894 C 0.78676 0.80689 0.42107
 C895 C 0.77697 0.77449 0.37257
 C896 C 0.77982 0.76272 0.35784
 C897 C 0.78312 0.74892 0.34059
 C898 C 0.76672 0.81599 0.42456
 H899 H 0.80563 0.78634 0.40159
 H900 H 0.74059 0.79401 0.38284
 H901 H 0.73461 0.81810 0.41266
 H902 H 0.79977 0.81008 0.43171
 C903 C 0.29011 0.29342 -0.09650
 C904 C 0.27361 0.28873 -0.11045
 C905 C 0.25361 0.29770 -0.10724
 C906 C 0.25010 0.31131 -0.09016
 C907 C 0.28655 0.23736 -0.17466
 C908 C 0.28665 0.30703 -0.07941
 C909 C 0.27719 0.27471 -0.12803
 C910 C 0.28017 0.26295 -0.14274
 C911 C 0.28363 0.24916 -0.15996
 C912 C 0.26659 0.31614 -0.07604
 H913 H 0.30565 0.28650 -0.09880
 H914 H 0.24073 0.29423 -0.11797
 H915 H 0.23456 0.31828 -0.08815
 H916 H 0.29959 0.31020 -0.06868
 C917 C 0.74521 0.19139 -0.11316
 C918 C 0.72995 0.20755 -0.11289
 C919 C 0.71759 0.21067 -0.09487
 C920 C 0.72052 0.19777 -0.07714
 C921 C 0.71852 0.25803 -0.17817
 C922 C 0.74816 0.17844 -0.09544
 C923 C 0.72702 0.22107 -0.13100
 C924 C 0.72444 0.23258 -0.14600
 C925 C 0.72130 0.24624 -0.16342
 C926 C 0.73589 0.18153 -0.07719
 H927 H 0.75490 0.18888 -0.12701
 H928 H 0.70569 0.22309 -0.09451
 H929 H 0.71062 0.20035 -0.06346
 H930 H 0.76028 0.16626 -0.09588
 C931 C 0.22014 0.69102 0.38955
 C932 C 0.22622 0.71237 0.39079
 C933 C 0.23569 0.72004 0.40922
 C934 C 0.23909 0.70644 0.42635
 C935 C 0.21385 0.76364 0.32628
 C936 C 0.22351 0.67738 0.40666
 C937 C 0.22278 0.72638 0.37314
 C938 C 0.21993 0.73812 0.35836
 C939 C 0.21663 0.75188 0.34106
 C940 C 0.23305 0.68493 0.42527
 H941 H 0.21285 0.68489 0.37533
 H942 H 0.24040 0.73656 0.41037
 H943 H 0.24621 0.71280 0.44055
 H944 H 0.21893 0.66086 0.40524
 C945 C 0.27730 0.69128 0.61174
 C946 C 0.27098 0.71259 0.61045
 C947 C 0.26132 0.72017 0.59204
 C948 C 0.25799 0.70651 0.57497
 C949 C 0.28365 0.76404 0.67463
 C950 C 0.27399 0.67758 0.59469
 C951 C 0.27442 0.72667 0.62801
 C952 C 0.27732 0.73846 0.64271
 C953 C 0.28073 0.75225 0.65993
 C954 C 0.26429 0.68504 0.57610
 H955 H 0.28474 0.68523 0.62594
 H956 H 0.25643 0.73666 0.59085
 H957 H 0.25074 0.71280 0.56079
 H958 H 0.27877 0.66110 0.59615
 C959 C 0.75767 0.21583 0.09698
 C960 C 0.76917 0.20856 0.11443
 C961 C 0.77718 0.18778 0.11462
 C962 C 0.77376 0.17434 0.09739
 C963 C 0.78260 0.26029 0.17822
 C964 C 0.75423 0.20242 0.07974
 C965 C 0.77285 0.22250 0.13205
 C966 C 0.77593 0.23431 0.14670
 C967 C 0.77952 0.24827 0.16374
 C968 C 0.76226 0.18152 0.07973
 H969 H 0.75147 0.23191 0.09663
 H970 H 0.78606 0.18198 0.12808
 H971 H 0.77993 0.15826 0.09797
 H972 H 0.74558 0.20852 0.06628
 C973 C 0.47286 0.36141 0.55970
 C974 C 0.47879 0.35990 0.53849
 C975 C 0.48807 0.34115 0.53098
 C976 C 0.49142 0.32397 0.54461
 C977 C 0.46603 0.42445 0.48710
 C978 C 0.47618 0.34424 0.57335
 C979 C 0.47533 0.37757 0.52444
 C980 C 0.47242 0.39236 0.51266
 C981 C 0.46898 0.40967 0.49888
 C982 C 0.48551 0.32531 0.56596
 H983 H 0.46572 0.37587 0.56569
 H984 H 0.49266 0.33979 0.51458
 H985 H 0.49837 0.30953 0.53837
 H986 H 0.47171 0.34587 0.58975
 C987 C -0.01240 0.84447 0.03053
 C988 C -0.02185 0.86310 0.03812
 C989 C -0.02808 0.86434 0.05925
 C990 C -0.02490 0.84703 0.07275
 C991 C -0.03386 0.92817 -0.01281
 C992 C -0.00918 0.82714 0.04400
 C993 C -0.02514 0.88093 0.02422
 C994 C -0.02789 0.89585 0.01257
 C995 C -0.03111 0.91329 -0.00111
 C996 C -0.01540 0.82822 0.06528
 H997 H -0.00757 0.84332 0.01418
 H998 H -0.03536 0.87871 0.06531
 H999 H -0.02961 0.84845 0.08911
 H1000 H -0.00210 0.81280 0.03770
 C1001 C 0.02750 0.64006 0.05777
 C1002 C 0.02135 0.64163 0.03661
 C1003 C 0.01188 0.66036 0.02922
 C1004 C 0.00857 0.67746 0.04291
 C1005 C 0.03398 0.57722 -0.01485
 C1006 C 0.02422 0.65715 0.07149
 C1007 C 0.02476 0.62403 0.02249
 C1008 C 0.02764 0.60928 0.01070
 C1009 C 0.03104 0.59199 -0.00309
 C1010 C 0.01471 0.67606 0.06422
 H1011 H 0.03479 0.62562 0.06367
 H1012 H 0.00712 0.66176 0.01285
 H1013 H 0.00148 0.69189 0.03677
 H1014 H 0.02886 0.65547 0.08785
 C1015 C 0.51194 0.15787 0.53024
 C1016 C 0.52148 0.13912 0.53750
 C1017 C 0.52776 0.13748 0.55861
 C1018 C 0.52457 0.15451 0.57242
 C1019 C 0.53422 0.07507 0.48564
 C1020 C 0.50871 0.17492 0.54402
 C1021 C 0.52488 0.12161 0.52328
 C1022 C 0.52778 0.10694 0.51139
 C1023 C 0.53123 0.08975 0.49749
 C1024 C 0.51501 0.17344 0.56528
 H1025 H 0.50707 0.15933 0.51391
 H1026 H 0.53511 0.12302 0.56441
 H1027 H 0.52934 0.15278 0.58874
 H1028 H 0.50157 0.18936 0.53798
 C1029 C -0.00147 0.14289 0.45309
 C1030 C -0.02141 0.13976 0.46207
 C1031 C -0.03799 0.15373 0.45724
 C1032 C -0.03466 0.17076 0.44346
 C1033 C -0.03431 0.07575 0.51395
 C1034 C 0.00190 0.15993 0.43932
 C1035 C -0.02488 0.12222 0.47625
 C1036 C -0.02783 0.10755 0.48814
 C1037 C -0.03132 0.09039 0.50205
 C1038 C -0.01467 0.17406 0.43434
 H1039 H 0.01145 0.13214 0.45668
 H1040 H -0.05347 0.15149 0.46416
 H1041 H -0.04765 0.18152 0.44018
 H1042 H 0.01739 0.16188 0.43235
 C1043 C 0.46206 0.65390 0.95691
 C1044 C 0.47874 0.64010 0.96188
 C1045 C 0.49868 0.64336 0.95295
 C1046 C 0.50196 0.66036 0.93911
 C1047 C 0.46624 0.57623 1.01403
 C1048 C 0.46530 0.67090 0.94307
 C1049 C 0.47538 0.62262 0.97615
 C1050 C 0.47254 0.60799 0.98810
 C1051 C 0.46916 0.59086 1.00209
 C1052 C 0.48529 0.67433 0.93401
 H1053 H 0.44658 0.65156 0.96379
 H1054 H 0.51169 0.63274 0.95664
 H1055 H 0.51746 0.66242 0.93219
 H1056 H 0.45223 0.68153 0.93969
 C1057 C 0.50134 0.85677 0.95261
 C1058 C 0.52126 0.86025 0.96155
 C1059 C 0.53806 0.84660 0.95668
 C1060 C 0.53496 0.82951 0.94293
 C1061 C 0.53295 0.92445 1.01344
 C1062 C 0.49820 0.83968 0.93886
 C1063 C 0.52445 0.87782 0.97574
 C1064 C 0.52712 0.89253 0.98763
 C1065 C 0.53026 0.90974 1.00155
 C1066 C 0.51498 0.82584 0.93387
 H1067 H 0.48824 0.86728 0.95623
 H1068 H 0.55353 0.84912 0.96357
 H1069 H 0.54812 0.81899 0.93962
 H1070 H 0.48271 0.83745 0.93194
 C1071 C 0.03930 0.34598 0.45692
 C1072 C 0.02264 0.35977 0.46190
 C1073 C 0.00263 0.35645 0.45308
 C1074 C -0.00072 0.33940 0.43934
 C1075 C 0.03523 0.42383 0.51374
 C1076 C 0.03598 0.32893 0.44317
 C1077 C 0.02607 0.37730 0.47608
 C1078 C 0.02895 0.39198 0.48795
 C1079 C 0.03233 0.40916 0.50186
 C1080 C 0.01592 0.32544 0.43422
 H1081 H 0.05484 0.34837 0.46371
 H1082 H -0.01036 0.36706 0.45678
 H1083 H -0.01627 0.33730 0.43250
 H1084 H 0.04904 0.31831 0.43977
 C1085 C 0.34107 0.53061 0.48807
 C1086 C 0.35947 0.53829 0.47854
 C1087 C 0.36063 0.55962 0.47236
 C1088 C 0.34345 0.57325 0.47568
 C1089 C 0.42411 0.48702 0.46606
 C1090 C 0.32388 0.54422 0.49143
 C1091 C 0.37716 0.52427 0.47511
 C1092 C 0.39197 0.51253 0.47225
 C1093 C 0.40931 0.49877 0.46891
 C1094 C 0.32487 0.56571 0.48526
 H1095 H 0.33998 0.51411 0.49287
 H1096 H 0.37482 0.56574 0.46502
 H1097 H 0.34481 0.58976 0.47101
 H1098 H 0.30971 0.53786 0.49858
 C1099 C 0.85664 0.05818 -0.03505
 C1100 C 0.86135 0.04169 -0.02094
 C1101 C 0.84852 0.03844 -0.00328
 C1102 C 0.83100 0.05154 0.00023
 C1103 C 0.92608 -0.00934 -0.03394
 C1104 C 0.83912 0.07132 -0.03156
 C1105 C 0.87921 0.02797 -0.02463
 C1106 C 0.89407 0.01632 -0.02763
 C1107 C 0.91137 0.00254 -0.03107
 C1108 C 0.82605 0.06810 -0.01391
 H1109 H 0.86644 0.06080 -0.04881
 H1110 H 0.85205 0.02577 0.00778
 H1111 H 0.82143 0.04885 0.01412
 H1112 H 0.83559 0.08377 -0.04286
 C1113 C 0.65319 0.03310 0.00774
 C1114 C 0.63701 0.03882 0.02166
 C1115 C 0.63795 0.05828 0.03231
 C1116 C 0.65502 0.07198 0.02909
 C1117 C 0.57335 -0.01336 0.03402
 C1118 C 0.67027 0.04677 0.00447
 C1119 C 0.61951 0.02465 0.02507
 C1120 C 0.60491 0.01272 0.02790
 C1121 C 0.58787 -0.00132 0.03121
 C1122 C 0.67139 0.06637 0.01513
 H1123 H 0.65266 0.01803 -0.00054
 H1124 H 0.62548 0.06289 0.04309
 H1125 H 0.65530 0.08706 0.03732
 H1126 H 0.68275 0.04186 -0.00613
 C1127 C 0.13829 0.55868 0.52911
 C1128 C 0.13975 0.53736 0.52293
 C1129 C 0.15826 0.52985 0.51342
 C1130 C 0.17527 0.54360 0.51008
 C1131 C 0.07573 0.48561 0.53530
 C1132 C 0.15528 0.57245 0.52580
 C1133 C 0.12224 0.52320 0.52633
 C1134 C 0.10758 0.51134 0.52917
 C1135 C 0.09040 0.49747 0.53248
 C1136 C 0.17397 0.56507 0.51623
 H1137 H 0.12401 0.56467 0.53644
 H1138 H 0.15958 0.51336 0.50863
 H1139 H 0.18953 0.53736 0.50294
 H1140 H 0.15369 0.58894 0.53047
 C1141 C 0.14376 0.45418 -0.00320
 C1142 C 0.14044 0.46323 -0.02311
 C1143 C 0.15432 0.45853 -0.03964
 C1144 C 0.17144 0.44482 -0.03629
 C1145 C 0.07588 0.51465 -0.03572
 C1146 C 0.16088 0.44049 0.00019
 C1147 C 0.12279 0.47731 -0.02657
 C1148 C 0.10801 0.48909 -0.02947
 C1149 C 0.09068 0.50288 -0.03284
 C1150 C 0.17492 0.43564 -0.01633
 H1151 H 0.13307 0.45766 0.00970
 H1152 H 0.15193 0.46549 -0.05510
 H1153 H 0.18212 0.44164 -0.04925
 H1154 H 0.16297 0.43346 0.01566
 C1155 C 0.65871 0.97030 0.48650
 C1156 C 0.64036 0.96258 0.47687
 C1157 C 0.63929 0.94124 0.47068
 C1158 C 0.65650 0.92767 0.47410
 C1159 C 0.57547 1.01357 0.46422
 C1160 C 0.67593 0.95675 0.48996
 C1161 C 0.62261 0.97652 0.47337
 C1162 C 0.60775 0.98820 0.47045
 C1163 C 0.59034 1.00188 0.46707
 C1164 C 0.67502 0.93526 0.48380
 H1165 H 0.65972 0.98680 0.49130
 H1166 H 0.62513 0.93508 0.46326
 H1167 H 0.65520 0.91116 0.46943
 H1168 H 0.69006 0.96314 0.49720
 C1169 C 0.86179 0.94155 0.52907
 C1170 C 0.86051 0.96289 0.52286
 C1171 C 0.84208 0.97053 0.51321
 C1172 C 0.82500 0.95690 0.50976
 C1173 C 0.92483 1.01422 0.53553
 C1174 C 0.84472 0.92790 0.52565
 C1175 C 0.87810 0.97692 0.52636
 C1176 C 0.89284 0.98867 0.52928
 C1177 C 0.91009 1.00244 0.53266
 C1178 C 0.82612 0.93542 0.51594
 H1179 H 0.87600 0.93545 0.53650
 H1180 H 0.84090 0.98703 0.50840
 H1181 H 0.81081 0.96324 0.50251
 H1182 H 0.84618 0.91139 0.53033
 C1183 C 0.34174 0.47035 0.01313
 C1184 C 0.36018 0.46266 0.02271
 C1185 C 0.36146 0.44130 0.02882
 C1186 C 0.34439 0.42767 0.02536
 C1187 C 0.42451 0.51395 0.03544
 C1188 C 0.32465 0.45675 0.00964
 C1189 C 0.37778 0.47667 0.02624
 C1190 C 0.39252 0.48842 0.02917
 C1191 C 0.40978 0.50218 0.03257
 C1192 C 0.32578 0.43523 0.01571
 H1193 H 0.34056 0.48688 0.00839
 H1194 H 0.37569 0.43516 0.03620
 H1195 H 0.34585 0.41114 0.02997
 H1196 H 0.31045 0.46312 0.00243
 C1197 C 0.54264 0.46218 0.34702
 C1198 C 0.53792 0.47893 0.36078
 C1199 C 0.54687 0.49898 0.35744
 C1200 C 0.56050 0.50229 0.34042
 C1201 C 0.48669 0.46626 0.42483
 C1202 C 0.55628 0.46545 0.33000
 C1203 C 0.52390 0.47552 0.37831
 C1204 C 0.51217 0.47262 0.39299
 C1205 C 0.49843 0.46920 0.41017
 C1206 C 0.56538 0.48555 0.32650
 H1207 H 0.53575 0.44661 0.34942
 H1208 H 0.54336 0.51204 0.36803
 H1209 H 0.56745 0.51787 0.33831
 H1210 H 0.55948 0.45233 0.31942
 C1211 C 0.05975 -0.02524 0.86206
 C1212 C 0.03858 -0.01887 0.86064
 C1213 C 0.03107 -0.00947 0.84206
 C1214 C 0.04465 -0.00644 0.82495
 C1215 C -0.01266 -0.03038 0.92490
 C1216 C 0.07336 -0.02225 0.84496
 C1217 C 0.02458 -0.02198 0.87824
 C1218 C 0.01284 -0.02461 0.89296
 C1219 C -0.00091 -0.02771 0.91019
 C1220 C 0.06597 -0.01280 0.82621
 H1221 H 0.06575 -0.03248 0.87639
 H1222 H 0.01469 -0.00454 0.84077
 H1223 H 0.03841 0.00060 0.81064
 H1224 H 0.08973 -0.02706 0.84652
 C1225 C 0.04264 0.03953 0.65446
 C1226 C 0.03770 0.02261 0.64101
 C1227 C 0.04654 0.00251 0.64465
 C1228 C 0.06026 -0.00069 0.66168
 C1229 C -0.01376 0.03462 0.57680
 C1230 C 0.05636 0.03638 0.67149
 C1231 C 0.02359 0.02588 0.62346
 C1232 C 0.01179 0.02862 0.60876
 C1233 C -0.00200 0.03184 0.59153
 C1234 C 0.06533 0.01622 0.67529
 H1235 H 0.03584 0.05515 0.65181
 H1236 H 0.04287 -0.01069 0.63430
 H1237 H 0.06711 -0.01631 0.66402
 H1238 H 0.05973 0.04964 0.68184
 C1239 C 0.54279 0.53942 0.15490
 C1240 C 0.53797 0.52261 0.14127
 C1241 C 0.54680 0.50248 0.14481
 C1242 C 0.56040 0.49916 0.16191
 C1243 C 0.48684 0.53506 0.07688
 C1244 C 0.55640 0.53613 0.17200
 C1245 C 0.52398 0.52601 0.12366
 C1246 C 0.51226 0.52887 0.10891
 C1247 C 0.49856 0.53221 0.09163
 C1248 C 0.56537 0.51595 0.17570
 H1249 H 0.53600 0.55505 0.15234
 H1250 H 0.54322 0.48937 0.13432
 H1251 H 0.56726 0.48352 0.16417
 H1252 H 0.55969 0.54931 0.18249
 C1253 C 0.43961 -0.03000 0.13884
 C1254 C 0.46082 -0.02386 0.14008
 C1255 C 0.46850 -0.01443 0.15855
 C1256 C 0.45503 -0.01112 0.17571
 C1257 C 0.51161 -0.03569 0.07550
 C1258 C 0.42612 -0.02672 0.15598
 C1259 C 0.47469 -0.02717 0.12241
 C1260 C 0.48631 -0.02990 0.10760
 C1261 C 0.49995 -0.03305 0.09028
 C1262 C 0.43367 -0.01722 0.17461
 H1263 H 0.43349 -0.03725 0.12459
 H1264 H 0.48490 -0.00967 0.15970
 H1265 H 0.46139 -0.00404 0.18992
 H1266 H 0.40970 -0.03134 0.15455
 C1267 C 0.97014 0.48685 0.65876
 C1268 C 0.96280 0.47723 0.64025
 C1269 C 0.94168 0.47084 0.63878
 C1270 C 0.92794 0.47403 0.65574
 C1271 C 1.01433 0.46504 0.57631
 C1272 C 0.95643 0.49007 0.67574
 C1273 C 0.97692 0.47392 0.62278
 C1274 C 0.98873 0.47113 0.60813
 C1275 C 1.00255 0.46785 0.59097
 C1276 C 0.93516 0.48369 0.67443
 H1277 H 0.98648 0.49180 0.66008
 H1278 H 0.93582 0.46344 0.62450
 H1279 H 0.91161 0.46920 0.65414
 H1280 H 0.96253 0.49728 0.69000
 C1281 C 0.94038 0.52767 0.86056
 C1282 C 0.96164 0.52166 0.85923
 C1283 C 0.96924 0.51204 0.84083
 C1284 C 0.95563 0.50845 0.82381
 C1285 C 1.01306 0.53517 0.92310
 C1286 C 0.92675 0.52411 0.84355
 C1287 C 0.97568 0.52537 0.87673
 C1288 C 0.98745 0.52847 0.89137
 C1289 C 1.00125 0.53210 0.90849
 C1290 C 0.93422 0.51446 0.82497
 H1291 H 0.93432 0.53507 0.87475
 H1292 H 0.98569 0.50738 0.83961
 H1293 H 0.96194 0.50126 0.80963
 H1294 H 0.91030 0.52867 0.84504
 C1295 C 0.45291 0.00063 0.35622
 C1296 C 0.46191 0.02068 0.35941
 C1297 C 0.45713 0.03737 0.34558
 C1298 C 0.44340 0.03405 0.32861
 C1299 C 0.51354 0.03343 0.42328
 C1300 C 0.43918 -0.00274 0.33925
 C1301 C 0.47604 0.02413 0.37689
 C1302 C 0.48787 0.02705 0.39152
 C1303 C 0.50172 0.03048 0.40865
 C1304 C 0.43426 0.01394 0.32525
 H1305 H 0.45646 -0.01239 0.36687
 H1306 H 0.46406 0.05294 0.34787
 H1307 H 0.44016 0.04713 0.31795
 H1308 H 0.43220 -0.01831 0.33725
   
