data_POSCAR
  _audit_creation_date              2014-09-24
  _audit_creation_method            'ToBaCCo'
  _symmetry_space_group_name_H-M    'P1'
  _symmetry_Int_Tables_number       1
  _symmetry_cell_setting            triclinic
  loop_
  _symmetry_equiv_pos_as_xyz
 x,y,z
_cell_length_a 65.3435
_cell_length_b 65.2796
_cell_length_c 65.1353
_cell_angle_alpha 89.954600
_cell_angle_beta 89.986900
_cell_angle_gamma 89.961100
loop_
  _atom_site_label
  _atom_site_type_symbol
  _atom_site_fract_x
  _atom_site_fract_y
  _atom_site_fract_z
N1 N 0.36224 1.34905 0.30626
 N2 N 0.34774 1.36303 0.30618
 C3 C 0.35106 1.37607 0.29047
 C4 C 0.36855 1.36986 0.28023
 C5 C 0.37524 1.35266 0.29065
 H6 H 0.34154 1.38913 0.28677
 H7 H 0.38861 1.34353 0.28717
 Cu8 Cu 0.32604 1.36287 0.32670
 Cu9 Cu 0.36347 1.32739 0.32673
 Cu10 Cu 0.32592 1.32731 0.36423
 N11 N 0.30541 1.36290 0.34832
 N12 N 0.30545 1.34893 0.36288
 C13 C 0.28978 1.35250 0.37581
 C14 C 0.27937 1.36965 0.36901
 C15 C 0.28968 1.37589 0.35152
 H16 H 0.28626 1.34336 0.38921
 H17 H 0.28601 1.38892 0.34194
 N18 N 0.34792 1.30668 0.36304
 N19 N 0.36221 1.30671 0.34871
 C20 C 0.37509 1.29095 0.35210
 C21 C 0.36859 1.28056 0.36937
 C22 C 0.35135 1.29089 0.37593
 H23 H 0.38831 1.28730 0.34280
 H24 H 0.34208 1.28718 0.38917
 H25 H 0.33251 1.32662 0.33324
 H26 H 0.34865 1.34375 0.34952
 N27 N 0.36260 0.84847 0.80644
 N28 N 0.34803 0.86238 0.80635
 C29 C 0.35122 0.87537 0.79056
 C30 C 0.36869 0.86920 0.78031
 C31 C 0.37551 0.85210 0.79076
 H32 H 0.34169 0.88841 0.78684
 H33 H 0.38895 0.84307 0.78728
 Cu34 Cu 0.32658 0.86228 0.82710
 Cu35 Cu 0.36406 0.82696 0.82707
 Cu36 Cu 0.32652 0.82690 0.86468
 N37 N 0.30582 0.86229 0.84855
 N38 N 0.30591 0.84838 0.86318
 C39 C 0.29021 0.85196 0.87607
 C40 C 0.27976 0.86902 0.86918
 C41 C 0.29003 0.87521 0.85169
 H42 H 0.28672 0.84292 0.88955
 H43 H 0.28631 0.88823 0.84210
 N44 N 0.34868 0.80645 0.86358
 N45 N 0.36296 0.80647 0.84924
 C46 C 0.37590 0.79077 0.85269
 C47 C 0.36943 0.78044 0.87000
 C48 C 0.35217 0.79074 0.87654
 H49 H 0.38909 0.78709 0.84337
 H50 H 0.34290 0.78702 0.88978
 H51 H 0.33310 0.82604 0.83365
 H52 H 0.34923 0.84319 0.84988
 N53 N 0.86308 1.34902 0.80609
 N54 N 0.84894 1.36337 0.80641
 C55 C 0.85218 1.37636 0.79064
 C56 C 0.86926 1.36975 0.77996
 C57 C 0.87577 1.35236 0.79017
 H58 H 0.84292 1.38967 0.78721
 H59 H 0.88884 1.34291 0.78635
 Cu60 Cu 0.82794 1.36371 0.82765
 Cu61 Cu 0.86429 1.32725 0.82650
 Cu62 Cu 0.82670 1.32715 0.86404
 N63 N 0.80666 1.36324 0.84860
 N64 N 0.80631 1.34886 0.86276
 C65 C 0.79036 1.35213 0.87541
 C66 C 0.78018 1.36948 0.86885
 C67 C 0.79088 1.37616 0.85180
 H68 H 0.78650 1.34268 0.88849
 H69 H 0.78745 1.38950 0.84256
 N70 N 0.84865 1.30648 0.86277
 N71 N 0.86296 1.30651 0.84845
 C72 C 0.87580 1.29070 0.85184
 C73 C 0.86925 1.28030 0.86909
 C74 C 0.85202 1.29066 0.87563
 H75 H 0.88903 1.28704 0.84256
 H76 H 0.84273 1.28695 0.88886
 H77 H 0.83332 1.32714 0.83303
 H78 H 0.84997 1.34320 0.84985
 N79 N 0.86318 0.84904 0.30625
 N80 N 0.84903 0.86337 0.30654
 C81 C 0.85224 0.87634 0.29075
 C82 C 0.86933 0.86974 0.28008
 C83 C 0.87588 0.85237 0.29032
 H84 H 0.84296 0.88963 0.28729
 H85 H 0.88895 0.84293 0.28652
 Cu86 Cu 0.82803 0.86375 0.32776
 Cu87 Cu 0.86437 0.82727 0.32664
 Cu88 Cu 0.82674 0.82719 0.36416
 N89 N 0.80674 0.86328 0.34869
 N90 N 0.80637 0.84892 0.36286
 C91 C 0.79039 0.85222 0.37547
 C92 C 0.78022 0.86956 0.36887
 C93 C 0.79096 0.87622 0.35184
 H94 H 0.78649 0.84278 0.38856
 H95 H 0.78755 0.88953 0.34256
 N96 N 0.84868 0.80650 0.36288
 N97 N 0.86300 0.80654 0.34858
 C98 C 0.87582 0.79071 0.35193
 C99 C 0.86924 0.78028 0.36915
 C100 C 0.85202 0.79065 0.37571
 H101 H 0.88903 0.78704 0.34264
 H102 H 0.84272 0.78692 0.38893
 H103 H 0.83339 0.82717 0.33313
 H104 H 0.85003 0.84322 0.34997
 N105 N 0.63722 0.65150 0.30668
 N106 N 0.65153 0.63733 0.30685
 C107 C 0.64828 0.62432 0.29113
 C108 C 0.63104 0.63072 0.28065
 C109 C 0.62441 0.64801 0.29089
 H110 H 0.65763 0.61110 0.28760
 H111 H 0.61117 0.65725 0.28719
 Cu112 Cu 0.67274 0.63719 0.32783
 Cu113 Cu 0.63595 0.67321 0.32709
 Cu114 Cu 0.67351 0.67326 0.36466
 N115 N 0.69377 0.63743 0.34900
 N116 N 0.69395 0.65159 0.36334
 C117 C 0.70977 0.64814 0.37611
 C118 C 0.72003 0.63090 0.36940
 C119 C 0.70952 0.62448 0.35217
 H120 H 0.71349 0.65740 0.38935
 H121 H 0.71306 0.61129 0.34278
 N122 N 0.65153 0.69390 0.36339
 N123 N 0.63724 0.69388 0.34906
 C124 C 0.62440 0.70968 0.35241
 C125 C 0.63094 0.72007 0.36965
 C126 C 0.64815 0.70971 0.37623
 H127 H 0.61120 0.71336 0.34311
 H128 H 0.65742 0.71342 0.38946
 H129 H 0.66689 0.67361 0.33365
 H130 H 0.65043 0.65710 0.35025
 N131 N 0.63681 0.15115 0.80602
 N132 N 0.65099 0.13684 0.80630
 C133 C 0.64773 0.12382 0.79057
 C134 C 0.63060 0.13039 0.77994
 C135 C 0.62407 0.14777 0.79015
 H136 H 0.65703 0.11055 0.78711
 H137 H 0.61098 0.15719 0.78635
 Cu138 Cu 0.67209 0.13666 0.82741
 Cu139 Cu 0.63567 0.17298 0.82636
 Cu140 Cu 0.67337 0.17302 0.86385
 N141 N 0.69333 0.13690 0.84839
 N142 N 0.69368 0.15121 0.86258
 C143 C 0.70960 0.14784 0.87525
 C144 C 0.71975 0.13049 0.86866
 C145 C 0.70906 0.12390 0.85158
 H146 H 0.71347 0.15724 0.88835
 H147 H 0.71249 0.11061 0.84230
 N148 N 0.65148 0.19378 0.86254
 N149 N 0.63712 0.19376 0.84827
 C150 C 0.62433 0.20960 0.85166
 C151 C 0.63095 0.22000 0.86886
 C152 C 0.64818 0.20962 0.87537
 H153 H 0.61106 0.21326 0.84243
 H154 H 0.65750 0.21330 0.88858
 H155 H 0.66659 0.17318 0.83289
 H156 H 0.65003 0.15701 0.84970
 N157 N 1.13752 0.65156 0.80636
 N158 N 1.15211 0.63769 0.80624
 C159 C 1.14885 0.62464 0.79055
 C160 C 1.13132 0.63075 0.78037
 C161 C 1.12452 0.64786 0.79078
 H162 H 1.15842 0.61165 0.78681
 H163 H 1.11107 0.65687 0.78731
 Cu164 Cu 1.17383 0.63785 0.82671
 Cu165 Cu 1.13622 0.67320 0.82679
 Cu166 Cu 1.17372 0.67328 0.86432
 N167 N 1.19430 0.63779 0.84843
 N168 N 1.19417 0.65168 0.86303
 C169 C 1.20976 0.64803 0.87603
 C170 C 1.22018 0.63093 0.86923
 C171 C 1.21000 0.62478 0.85169
 H172 H 1.21324 0.65707 0.88949
 H173 H 1.21374 0.61178 0.84212
 N174 N 1.15174 0.69389 0.86307
 N175 N 1.13745 0.69385 0.84874
 C176 C 1.12456 0.70960 0.85213
 C177 C 1.13106 0.71998 0.86938
 C178 C 1.14831 0.70966 0.87594
 H179 H 1.11133 0.71324 0.84284
 H180 H 1.15757 0.71336 0.88918
 H181 H 1.16717 0.67406 0.83330
 H182 H 1.15109 0.65677 0.84953
 N183 N 1.13726 0.15146 0.30633
 N184 N 1.15186 0.13759 0.30619
 C185 C 1.14858 0.12455 0.29050
 C186 C 1.13105 0.13065 0.28033
 C187 C 1.12426 0.14777 0.29075
 H188 H 1.15814 0.11155 0.28676
 H189 H 1.11080 0.15679 0.28729
 Cu190 Cu 1.17359 0.13773 0.32664
 Cu191 Cu 1.13598 0.17307 0.32680
 Cu192 Cu 1.17349 0.17310 0.36432
 N193 N 1.19408 0.13764 0.34833
 N194 N 1.19397 0.15151 0.36296
 C195 C 1.20958 0.14784 0.37594
 C196 C 1.21999 0.13076 0.36908
 C197 C 1.20979 0.12464 0.35155
 H198 H 1.21306 0.15686 0.38941
 H199 H 1.21353 0.11166 0.34195
 N200 N 1.15150 0.19370 0.36312
 N201 N 1.13721 0.19369 0.34879
 C202 C 1.12433 0.20945 0.35220
 C203 C 1.13083 0.21979 0.36947
 C204 C 1.14807 0.20946 0.37602
 H205 H 1.11111 0.21311 0.34290
 H206 H 1.15734 0.21314 0.38926
 H207 H 1.16692 0.17392 0.33330
 H208 H 1.15085 0.15661 0.34951
 N209 N 0.63742 1.34849 0.69356
 N210 N 0.65200 1.36237 0.69369
 C211 C 0.64874 1.37537 0.70942
 C212 C 0.63122 1.36924 0.71961
 C213 C 0.62444 1.35215 0.70917
 H214 H 0.65828 1.38836 0.71318
 H215 H 0.61101 1.34312 0.71265
 Cu216 Cu 0.67368 1.36224 0.67318
 Cu217 Cu 0.63613 1.32692 0.67305
 Cu218 Cu 0.67366 1.32686 0.63552
 N219 N 0.69423 1.36230 0.65153
 N220 N 0.69414 1.34842 0.63691
 C221 C 0.70978 1.35205 0.62397
 C222 C 0.72019 1.36912 0.63082
 C223 C 0.70996 1.37527 0.64834
 H224 H 0.71329 1.34302 0.61050
 H225 H 0.71367 1.38826 0.65793
 N226 N 0.65164 1.30631 0.63669
 N227 N 0.63735 1.30633 0.65102
 C228 C 0.62445 1.29062 0.64761
 C229 C 0.63093 1.28027 0.63032
 C230 C 0.64819 1.29057 0.62378
 H231 H 0.61123 1.28697 0.65690
 H232 H 0.65746 1.28688 0.61053
 H233 H 0.66709 1.32604 0.66652
 H234 H 0.65101 1.34334 0.65030
 N235 N 0.63710 0.84865 1.19325
 N236 N 0.65124 0.86297 1.19290
 C237 C 0.64799 0.87599 1.20862
 C238 C 0.63092 0.86943 1.21928
 C239 C 0.62440 0.85206 1.20915
 H240 H 0.65722 0.88931 1.21202
 H241 H 0.61130 0.84269 1.21300
 Cu242 Cu 0.67223 0.86326 1.17169
 Cu243 Cu 0.63588 0.82689 1.17289
 Cu244 Cu 0.67344 0.82678 1.13530
 N245 N 0.69348 0.86280 1.15075
 N246 N 0.69383 0.84847 1.13657
 C247 C 0.70977 0.85179 1.12392
 C248 C 0.71993 0.86912 1.13052
 C249 C 0.70924 0.87573 1.14758
 H250 H 0.71364 0.84240 1.11081
 H251 H 0.71265 0.88903 1.15685
 N252 N 0.65149 0.80614 1.13663
 N253 N 0.63720 0.80617 1.15097
 C254 C 0.62435 0.79040 1.14763
 C255 C 0.63087 0.78000 1.13039
 C256 C 0.64809 0.79033 1.12379
 H257 H 0.61115 0.78675 1.15694
 H258 H 0.65735 0.78661 1.11054
 H259 H 0.66685 0.82672 1.16631
 H260 H 0.65018 0.84284 1.14951
 N261 N 1.13717 1.34842 1.19334
 N262 N 1.15144 1.36260 1.19313
 C263 C 1.14817 1.37563 1.20883
 C264 C 1.13100 1.36918 1.21937
 C265 C 1.12437 1.35188 1.20916
 H266 H 1.15750 1.38886 1.21234
 H267 H 1.11117 1.34261 1.21290
 Cu268 Cu 1.17268 1.36279 1.17215
 Cu269 Cu 1.13599 1.32668 1.17299
 Cu270 Cu 1.17354 1.32661 1.13538
 N271 N 1.19367 1.36249 1.15094
 N272 N 1.19388 1.34832 1.13661
 C273 C 1.20973 1.35173 1.12384
 C274 C 1.21996 1.36899 1.13057
 C275 C 1.20939 1.37545 1.14775
 H276 H 1.21349 1.34245 1.11062
 H277 H 1.21290 1.38865 1.15713
 N278 N 1.15162 1.30592 1.13674
 N279 N 1.13734 1.30594 1.15109
 C280 C 1.12444 1.29022 1.14767
 C281 C 1.13090 1.27987 1.13037
 C282 C 1.14816 1.29017 1.12382
 H283 H 1.11118 1.28662 1.15692
 H284 H 1.15735 1.28653 1.11052
 H285 H 1.16688 1.32635 1.16633
 H286 H 1.15038 1.34283 1.14973
 N287 N 1.13719 0.84850 0.69318
 N288 N 1.15147 0.86268 0.69300
 C289 C 1.14823 0.87567 0.70875
 C290 C 1.13103 0.86923 0.71926
 C291 C 1.12441 0.85196 0.70901
 H292 H 1.15756 0.88887 0.71229
 H293 H 1.11121 0.84268 0.71274
 Cu294 Cu 1.17267 0.86284 0.67201
 Cu295 Cu 1.13595 0.82681 0.67277
 Cu296 Cu 1.17352 0.82677 0.63518
 N297 N 1.19369 0.86262 0.65083
 N298 N 1.19391 0.84845 0.63649
 C299 C 1.20976 0.85190 0.62374
 C300 C 1.21998 0.86914 0.63045
 C301 C 1.20943 0.87558 0.64767
 H302 H 1.21352 0.84263 0.61051
 H303 H 1.21294 0.88877 0.65706
 N304 N 1.15156 0.80613 0.63647
 N305 N 1.13728 0.80615 0.65081
 C306 C 1.12445 0.79036 0.64747
 C307 C 1.13099 0.77997 0.63024
 C308 C 1.14819 0.79031 0.62363
 H309 H 1.11125 0.78669 0.65679
 H310 H 1.15746 0.78660 0.61040
 H311 H 1.16690 0.82641 0.66620
 H312 H 1.15041 0.84291 0.64960
 N313 N 0.36282 0.65132 0.69334
 N314 N 0.34867 0.63701 0.69302
 C315 C 0.35191 0.62399 0.70876
 C316 C 0.36898 0.63055 0.71941
 C317 C 0.37551 0.64792 0.70925
 H318 H 0.34266 0.61070 0.71222
 H319 H 0.38859 0.65730 0.71309
 Cu320 Cu 0.32770 0.63678 0.67181
 Cu321 Cu 0.36400 0.67315 0.67300
 Cu322 Cu 0.32649 0.67321 0.63535
 N323 N 0.30654 0.63708 0.65079
 N324 N 0.30620 0.65139 0.63657
 C325 C 0.29032 0.64800 0.62387
 C326 C 0.28019 0.63065 0.63048
 C327 C 0.29085 0.62409 0.64760
 H328 H 0.28646 0.65739 0.61074
 H329 H 0.28742 0.61080 0.65691
 N330 N 0.34835 0.69396 0.63675
 N331 N 0.36262 0.69392 0.65111
 C332 C 0.37543 0.70974 0.64779
 C333 C 0.36891 0.72016 0.63055
 C334 C 0.35172 0.70981 0.62393
 H335 H 0.38864 0.71337 0.65709
 H336 H 0.34249 0.71351 0.61066
 H337 H 0.33308 0.67332 0.66634
 H338 H 0.34977 0.65720 0.64961
 N339 N 0.36247 0.15124 1.19325
 N340 N 0.34833 0.13692 1.19292
 C341 C 0.35161 0.12385 1.20861
 C342 C 0.36869 0.13040 1.21925
 C343 C 0.37519 0.14780 1.20912
 H344 H 0.34239 0.11053 1.21204
 H345 H 0.38828 0.15717 1.21296
 Cu346 Cu 0.32732 0.13678 1.17175
 Cu347 Cu 0.36367 0.17307 1.17292
 Cu348 Cu 0.32619 0.17311 1.13521
 N349 N 0.30619 0.13703 1.15072
 N350 N 0.30588 0.15131 1.13646
 C351 C 0.29000 0.14791 1.12377
 C352 C 0.27984 0.13058 1.13043
 C353 C 0.29048 0.12405 1.14756
 H354 H 0.28615 0.15726 1.11061
 H355 H 0.28703 0.11080 1.15690
 N356 N 0.34808 0.19384 1.13662
 N357 N 0.36231 0.19383 1.15102
 C358 C 0.37512 0.20965 1.14773
 C359 C 0.36866 0.22005 1.13046
 C360 C 0.35150 0.20968 1.12379
 H361 H 0.38830 0.21330 1.15708
 H362 H 0.34230 0.21337 1.11049
 H363 H 0.33277 0.17328 1.16619
 H364 H 0.34946 0.15709 1.14952
 N365 N 0.86250 0.65142 1.19345
 N366 N 0.84795 0.63752 1.19359
 C367 C 0.85127 0.62446 1.20929
 C368 C 0.86880 0.63059 1.21944
 C369 C 0.87553 0.64773 1.20902
 H370 H 0.84177 0.61143 1.21303
 H371 H 0.88896 0.65675 1.21247
 Cu372 Cu 0.82625 0.63767 1.17312
 Cu373 Cu 0.86377 0.67302 1.17295
 Cu374 Cu 0.82624 0.67309 1.13543
 N375 N 0.80569 0.63763 1.15149
 N376 N 0.80577 0.65151 1.13685
 C377 C 0.79013 0.64787 1.12392
 C378 C 0.77974 0.63078 1.13081
 C379 C 0.78998 0.62465 1.14833
 H380 H 0.78660 0.65689 1.11044
 H381 H 0.78628 0.61165 1.15794
 N382 N 0.84825 0.69366 1.13660
 N383 N 0.86252 0.69364 1.15094
 C384 C 0.87540 0.70938 1.14754
 C385 C 0.86892 0.71974 1.13025
 C386 C 0.85168 0.70943 1.12369
 H387 H 0.88860 0.71303 1.15685
 H388 H 0.84243 0.71314 1.11044
 H389 H 0.83279 0.67389 1.16642
 H390 H 0.84890 0.65662 1.15022
 N391 N 0.86269 0.15132 0.69308
 N392 N 0.84855 0.13699 0.69276
 C393 C 0.85180 0.12399 0.70851
 C394 C 0.86886 0.13058 0.71917
 C395 C 0.87538 0.14794 0.70899
 H396 H 0.84257 0.11068 0.71195
 H397 H 0.88846 0.15733 0.71283
 Cu398 Cu 0.82758 0.13671 0.67152
 Cu399 Cu 0.86390 0.17310 0.67270
 Cu400 Cu 0.82639 0.17320 0.63508
 N401 N 0.80637 0.13713 0.65054
 N402 N 0.80604 0.15147 0.63635
 C403 C 0.79011 0.14815 0.62368
 C404 C 0.77995 0.13082 0.63029
 C405 C 0.79062 0.12420 0.64737
 H406 H 0.78625 0.15756 0.61057
 H407 H 0.78719 0.11090 0.65666
 N408 N 0.84831 0.19388 0.63643
 N409 N 0.86257 0.19384 0.65078
 C410 C 0.87542 0.20962 0.64745
 C411 C 0.86892 0.22003 0.63019
 C412 C 0.85171 0.20971 0.62358
 H413 H 0.88862 0.21325 0.65676
 H414 H 0.84248 0.21342 0.61031
 H415 H 0.83293 0.17325 0.66608
 H416 H 0.84963 0.15715 0.64931
 N417 N 1.34892 0.36238 0.69340
 N418 N 1.36313 0.34809 0.69322
 C419 C 1.37610 0.35135 0.70897
 C420 C 1.36964 0.36858 0.71948
 C421 C 1.35237 0.37518 0.70921
 H422 H 1.38932 0.34202 0.71252
 H423 H 1.34308 0.38838 0.71293
 Cu424 Cu 1.36328 0.32688 0.67220
 Cu425 Cu 1.32722 0.36363 0.67298
 Cu426 Cu 1.32720 0.32609 0.63539
 N427 N 1.36309 0.30584 0.65101
 N428 N 1.34890 0.30566 0.63667
 C429 C 1.35234 0.28984 0.62389
 C430 C 1.36961 0.27956 0.63055
 C431 C 1.37605 0.29008 0.64781
 H432 H 1.34304 0.28614 0.61066
 H433 H 1.38924 0.28657 0.65721
 N434 N 1.30654 0.34806 0.63668
 N435 N 1.30654 0.36234 0.65103
 C436 C 1.29074 0.37518 0.64769
 C437 C 1.28036 0.36867 0.63044
 C438 C 1.29073 0.35146 0.62383
 H439 H 1.28707 0.38838 0.65700
 H440 H 1.28704 0.34220 0.61058
 H441 H 1.32686 0.33268 0.66639
 H442 H 1.34330 0.34920 0.64980
 N443 N 1.34892 0.86257 1.19380
 N444 N 1.36290 0.84806 1.19387
 C445 C 1.37591 0.85135 1.20959
 C446 C 1.36967 0.86883 1.21987
 C447 C 1.35250 0.87554 1.20945
 H448 H 1.38895 0.84183 1.21328
 H449 H 1.34335 0.88890 1.21295
 Cu450 Cu 1.36280 0.82639 1.17329
 Cu451 Cu 1.32729 0.86382 1.17332
 Cu452 Cu 1.32728 0.82625 1.13581
 N453 N 1.36287 0.80576 1.15166
 N454 N 1.34890 0.80578 1.13713
 C455 C 1.35246 0.79009 1.12421
 C456 C 1.36961 0.77968 1.13099
 C457 C 1.37585 0.79002 1.14845
 H458 H 1.34330 0.78654 1.11085
 H459 H 1.38888 0.78635 1.15801
 N460 N 1.30666 0.84824 1.13700
 N461 N 1.30666 0.86256 1.15131
 C462 C 1.29089 0.87542 1.14790
 C463 C 1.28053 0.86888 1.13065
 C464 C 1.29088 0.85163 1.12412
 H465 H 1.28721 0.88865 1.15719
 H466 H 1.28719 0.84234 1.11090
 H467 H 1.32657 0.83285 1.16681
 H468 H 1.34366 0.84904 1.15051
 N469 N 0.84896 0.36299 1.19392
 N470 N 0.86310 0.34865 1.19375
 C471 C 0.87614 0.35189 1.20947
 C472 C 0.86976 0.36918 1.21996
 C473 C 0.85247 0.37583 1.20969
 H474 H 0.88932 0.34250 1.21299
 H475 H 0.84321 0.38907 1.21336
 Cu476 Cu 0.86321 0.32744 1.17273
 Cu477 Cu 0.82720 0.36424 1.17354
 Cu478 Cu 0.82709 0.32667 1.13596
 N479 N 0.86297 0.30641 1.15153
 N480 N 0.84879 0.30626 1.13720
 C481 C 0.85222 0.29044 1.12440
 C482 C 0.86946 0.28016 1.13105
 C483 C 0.87593 0.29065 1.14830
 H484 H 0.84294 0.28673 1.11117
 H485 H 0.88912 0.28708 1.15766
 N486 N 0.80643 0.34862 1.13730
 N487 N 0.80646 0.36293 1.15162
 C488 C 0.79064 0.37576 1.14829
 C489 C 0.78022 0.36919 1.13107
 C490 C 0.79059 0.35197 1.12449
 H491 H 0.78697 0.38897 1.15759
 H492 H 0.78686 0.34268 1.11127
 H493 H 0.82679 0.33325 1.16695
 H494 H 0.84324 0.34975 1.15033
 N495 N 0.84857 0.86288 0.69333
 N496 N 0.86284 0.84867 0.69302
 C497 C 0.87588 0.85190 0.70872
 C498 C 0.86937 0.86904 0.71933
 C499 C 0.85202 0.87561 0.70919
 H500 H 0.88915 0.84261 0.71217
 H501 H 0.84268 0.88875 0.71302
 Cu502 Cu 0.86298 0.82762 0.67188
 Cu503 Cu 0.82674 0.86408 0.67303
 Cu504 Cu 0.82671 0.82651 0.63538
 N505 N 0.86276 0.80646 0.65087
 N506 N 0.84852 0.80618 0.63661
 C507 C 0.85193 0.79028 0.62391
 C508 C 0.86923 0.78009 0.63057
 C509 C 0.87574 0.79072 0.64771
 H510 H 0.84260 0.78645 0.61076
 H511 H 0.88897 0.78725 0.65706
 N512 N 0.80597 0.84841 0.63679
 N513 N 0.80597 0.86269 0.65115
 C514 C 0.79013 0.87549 0.64786
 C515 C 0.77973 0.86896 0.63063
 C516 C 0.79012 0.85178 0.62399
 H517 H 0.78646 0.88869 0.65718
 H518 H 0.78644 0.84254 0.61073
 H519 H 0.82651 0.83315 0.66636
 H520 H 0.84269 0.84981 0.64965
 N521 N 0.65149 0.63702 0.69340
 N522 N 0.63719 0.65119 0.69305
 C523 C 0.62419 0.64798 0.70879
 C524 C 0.63075 0.63089 0.71947
 C525 C 0.64810 0.62433 0.70933
 H526 H 0.61089 0.65723 0.71221
 H527 H 0.65748 0.61122 0.71319
 Cu528 Cu 0.63689 0.67220 0.67182
 Cu529 Cu 0.67325 0.63578 0.67302
 Cu530 Cu 0.67329 0.67337 0.63537
 N531 N 0.63725 0.69343 0.65082
 N532 N 0.65155 0.69376 0.63661
 C533 C 0.64820 0.70970 0.62393
 C534 C 0.63087 0.71987 0.63054
 C535 C 0.62429 0.70918 0.64763
 H536 H 0.65758 0.71357 0.61081
 H537 H 0.61102 0.71262 0.65693
 N538 N 0.69397 0.65142 0.63673
 N539 N 0.69396 0.63712 0.65108
 C540 C 0.70975 0.62428 0.64774
 C541 C 0.72014 0.63082 0.63048
 C542 C 0.70978 0.64804 0.62388
 H543 H 0.71342 0.61106 0.65705
 H544 H 0.71347 0.65731 0.61063
 H545 H 0.67340 0.66675 0.66640
 H546 H 0.65730 0.65007 0.64966
 N547 N 0.65128 1.13676 1.19382
 N548 N 0.63700 1.15097 1.19351
 C549 C 0.62398 1.14775 1.20924
 C550 C 0.63049 1.13060 1.21989
 C551 C 0.64786 1.12403 1.20972
 H552 H 0.61072 1.15707 1.21265
 H553 H 0.65724 1.11090 1.21353
 Cu554 Cu 0.63674 1.17202 1.17232
 Cu555 Cu 0.67307 1.13558 1.17346
 Cu556 Cu 0.67316 1.17326 1.13589
 N557 N 0.63711 1.19328 1.15135
 N558 N 0.65142 1.19364 1.13715
 C559 C 0.64807 1.20960 1.12450
 C560 C 0.63074 1.21976 1.13111
 C561 C 0.62416 1.20905 1.14818
 H562 H 0.65746 1.21349 1.11138
 H563 H 0.61087 1.21246 1.15747
 N564 N 0.69384 1.15131 1.13722
 N565 N 0.69382 1.13697 1.15153
 C566 C 0.70963 1.12415 1.14818
 C567 C 0.72005 1.13075 1.13097
 C568 C 0.70968 1.14798 1.12440
 H569 H 0.71330 1.11091 1.15747
 H570 H 0.71339 1.15729 1.11118
 H571 H 0.67325 1.16657 1.16690
 H572 H 0.65715 1.14994 1.15011
 N573 N 0.15089 0.63733 1.19370
 N574 N 0.13654 0.65147 1.19336
 C575 C 0.12351 0.64818 1.20908
 C576 C 0.13011 0.63107 1.21976
 C577 C 0.14752 0.62459 1.20960
 H578 H 0.11021 0.65744 1.21249
 H579 H 0.15697 0.61153 1.21344
 Cu580 Cu 0.13636 0.67256 1.17217
 Cu581 Cu 0.17271 0.63618 1.17338
 Cu582 Cu 0.17277 0.67382 1.13577
 N583 N 0.13662 0.69379 1.15114
 N584 N 0.15097 0.69416 1.13697
 C585 C 0.14763 0.71009 1.12428
 C586 C 0.13023 0.72024 1.13082
 C587 C 0.12362 0.70951 1.14791
 H588 H 0.15708 0.71396 1.11120
 H589 H 0.11032 0.71290 1.15720
 N590 N 0.19351 0.65191 1.13716
 N591 N 0.19349 0.63760 1.15149
 C592 C 0.20931 0.62478 1.14817
 C593 C 0.21973 0.63135 1.13095
 C594 C 0.20936 0.64857 1.12434
 H595 H 0.21296 0.61154 1.15747
 H596 H 0.21306 0.65784 1.11110
 H597 H 0.17287 0.66713 1.16674
 H598 H 0.15678 0.65048 1.14997
 N599 N 0.15089 1.13729 0.69355
 N600 N 0.13653 1.15141 0.69320
 C601 C 0.12355 1.14816 0.70897
 C602 C 0.13018 1.13108 0.71969
 C603 C 0.14757 1.12459 0.70950
 H604 H 0.11024 1.15741 0.71238
 H605 H 0.15703 1.11153 0.71334
 Cu606 Cu 0.13617 1.17245 0.67194
 Cu607 Cu 0.17265 1.13612 0.67316
 Cu608 Cu 0.17267 1.17372 0.63555
 N609 N 0.13659 1.19375 0.65095
 N610 N 0.15093 1.19410 0.63678
 C611 C 0.14764 1.21006 0.62411
 C612 C 0.13028 1.22027 0.63067
 C613 C 0.12365 1.20954 0.64777
 H614 H 0.15709 1.21391 0.61103
 H615 H 0.11037 1.21295 0.65707
 N616 N 0.19338 1.15178 0.63688
 N617 N 0.19338 1.13748 0.65123
 C618 C 0.20920 1.12465 0.64788
 C619 C 0.21958 1.13120 0.63062
 C620 C 0.20920 1.14842 0.62403
 H621 H 0.21288 1.11144 0.65719
 H622 H 0.21287 1.15769 0.61077
 H623 H 0.17272 1.16710 0.66659
 H624 H 0.15669 1.15039 0.64980
 N625 N 1.34854 0.63810 0.30692
 N626 N 1.36246 0.65264 0.30682
 C627 C 1.37543 0.64940 0.29106
 C628 C 1.36924 0.63192 0.28082
 C629 C 1.35215 0.62515 0.29126
 H630 H 1.38846 0.65891 0.28733
 H631 H 1.34310 0.61173 0.28778
 Cu632 Cu 1.36235 0.67418 0.32750
 Cu633 Cu 1.32701 0.63674 0.32747
 Cu634 Cu 1.32694 0.67427 0.36506
 N635 N 1.36238 0.69488 0.34903
 N636 N 1.34848 0.69481 0.36364
 C637 C 1.35208 0.71050 0.37655
 C638 C 1.36917 0.72093 0.36967
 C639 C 1.37533 0.71063 0.35216
 H640 H 1.34301 0.71400 0.38999
 H641 H 1.38831 0.71431 0.34254
 N642 N 1.30643 0.65218 0.36388
 N643 N 1.30647 0.63790 0.34954
 C644 C 1.29077 0.62498 0.35292
 C645 C 1.28039 0.63144 0.37019
 C646 C 1.29067 0.64870 0.37678
 H647 H 1.28713 0.61178 0.34359
 H648 H 1.28694 0.65795 0.39002
 H649 H 1.32615 0.66772 0.33406
 H650 H 1.34329 0.65153 0.35031
 N651 N 1.34843 1.13756 0.80653
 N652 N 1.36231 1.15213 0.80644
 C653 C 1.37535 1.14887 0.79074
 C654 C 1.36923 1.13136 0.78053
 C655 C 1.35212 1.12458 0.79092
 H656 H 1.38835 1.15842 0.78702
 H657 H 1.34309 1.11115 0.78742
 Cu658 Cu 1.36212 1.17382 0.82696
 Cu659 Cu 1.32680 1.13626 0.82698
 Cu660 Cu 1.32668 1.17372 0.86457
 N661 N 1.36214 1.19432 0.84866
 N662 N 1.34825 1.19420 0.86327
 C663 C 1.35188 1.20981 0.87626
 C664 C 1.36896 1.22023 0.86943
 C665 C 1.37511 1.21003 0.85189
 H666 H 1.34284 1.21329 0.88972
 H667 H 1.38811 1.21377 0.84232
 N668 N 1.30612 1.15172 0.86330
 N669 N 1.30616 1.13745 0.84894
 C670 C 1.29043 1.12456 0.85230
 C671 C 1.28006 1.13102 0.86958
 C672 C 1.29036 1.14826 0.87618
 H673 H 1.28680 1.11136 0.84298
 H674 H 1.28665 1.15749 0.88945
 H675 H 1.32594 1.16724 0.83356
 H676 H 1.34317 1.15107 0.84977
 N677 N 0.84861 0.63701 0.80668
 N678 N 0.86288 0.65120 0.80697
 C679 C 0.87591 0.64794 0.79127
 C680 C 0.86941 0.63081 0.78067
 C681 C 0.85205 0.62426 0.79083
 H682 H 0.88918 0.65721 0.78781
 H683 H 0.84272 0.61113 0.78702
 Cu684 Cu 0.86302 0.67226 0.82810
 Cu685 Cu 0.82677 0.63586 0.82700
 Cu686 Cu 0.82674 0.67347 0.86461
 N687 N 0.86282 0.69343 0.84912
 N688 N 0.84856 0.69376 0.86337
 C689 C 0.85199 0.70964 0.87607
 C690 C 0.86932 0.71978 0.86942
 C691 C 0.87582 0.70913 0.85229
 H692 H 0.84265 0.71351 0.88922
 H693 H 0.88907 0.71255 0.84295
 N694 N 0.80599 0.65159 0.86322
 N695 N 0.80600 0.63729 0.84889
 C696 C 0.79018 0.62450 0.85221
 C697 C 0.77978 0.63106 0.86944
 C698 C 0.79015 0.64825 0.87604
 H699 H 0.78653 0.61128 0.84293
 H700 H 0.78646 0.65751 0.88929
 H701 H 0.82655 0.66678 0.83365
 H702 H 0.84272 0.65013 0.85037
 N703 N 0.84846 1.13725 0.30655
 N704 N 0.86234 1.15182 0.30640
 C705 C 0.87537 1.14851 0.29071
 C706 C 0.86926 1.13098 0.28055
 C707 C 0.85214 1.12422 0.29097
 H708 H 0.88837 1.15805 0.28695
 H709 H 0.84312 1.11078 0.28751
 Cu710 Cu 0.86221 1.17356 0.32685
 Cu711 Cu 0.82684 1.13603 0.32700
 Cu712 Cu 0.82683 1.17357 0.36451
 N713 N 0.86230 1.19408 0.34852
 N714 N 0.84844 1.19400 0.36316
 C715 C 0.85211 1.20963 0.37610
 C716 C 0.86919 1.22002 0.36922
 C717 C 0.87530 1.20978 0.35170
 H718 H 0.84309 1.21316 0.38957
 H719 H 0.88827 1.21349 0.34208
 N720 N 0.80620 1.15162 0.36330
 N721 N 0.80621 1.13732 0.34897
 C722 C 0.79043 1.12449 0.35235
 C723 C 0.78006 1.13102 0.36960
 C724 C 0.79041 1.14824 0.37617
 H725 H 0.78676 1.11128 0.34304
 H726 H 0.78671 1.15753 0.38940
 H727 H 0.82603 1.16703 0.33350
 H728 H 0.84327 1.15088 0.34972
 N729 N 0.65137 0.36256 0.30635
 N730 N 0.63742 0.34805 0.30630
 C731 C 0.62442 0.35131 0.29056
 C732 C 0.63061 0.36879 0.28026
 C733 C 0.64776 0.37553 0.29068
 H734 H 0.61139 0.34178 0.28689
 H735 H 0.65687 0.38891 0.28718
 Cu736 Cu 0.63750 0.32648 0.32700
 Cu737 Cu 0.67298 0.36381 0.32686
 Cu738 Cu 0.67300 0.32620 0.36445
 N739 N 0.63745 0.30573 0.34852
 N740 N 0.65138 0.30572 0.36309
 C741 C 0.64779 0.29001 0.37599
 C742 C 0.63066 0.27962 0.36915
 C743 C 0.62448 0.28999 0.35167
 H744 H 0.65688 0.28645 0.38940
 H745 H 0.61147 0.28636 0.34208
 N746 N 0.69360 0.34822 0.36324
 N747 N 0.69359 0.36253 0.34890
 C748 C 0.70935 0.37539 0.35227
 C749 C 0.71973 0.36885 0.36953
 C750 C 0.70939 0.35161 0.37611
 H751 H 0.71303 0.38859 0.34295
 H752 H 0.71310 0.34231 0.38934
 H753 H 0.67374 0.33282 0.33345
 H754 H 0.65671 0.34905 0.34975
 N755 N 0.65136 0.86303 0.80674
 N756 N 0.63703 0.84889 0.80710
 C757 C 0.62405 0.85213 0.79135
 C758 C 0.63063 0.86919 0.78066
 C759 C 0.64799 0.87572 0.79080
 H760 H 0.61074 0.84290 0.78794
 H761 H 0.65737 0.88881 0.78693
 Cu762 Cu 0.63670 0.82788 0.82831
 Cu763 Cu 0.67309 0.86423 0.82713
 Cu764 Cu 0.67314 0.82664 0.86475
 N765 N 0.63713 0.80660 0.84927
 N766 N 0.65144 0.80624 0.86346
 C767 C 0.64812 0.79026 0.87610
 C768 C 0.63081 0.78009 0.86947
 C769 C 0.62421 0.79082 0.85241
 H770 H 0.65750 0.78637 0.88921
 H771 H 0.61094 0.78741 0.84311
 N772 N 0.69378 0.84859 0.86344
 N773 N 0.69377 0.86289 0.84908
 C774 C 0.70956 0.87571 0.85241
 C775 C 0.71994 0.86918 0.86967
 C776 C 0.70959 0.85197 0.87628
 H777 H 0.71324 0.88892 0.84308
 H778 H 0.71328 0.84269 0.88953
 H779 H 0.67321 0.83324 0.83372
 H780 H 0.65713 0.84994 0.85049
 N781 N 0.15151 0.36215 0.80683
 N782 N 0.13761 0.34760 0.80676
 C783 C 0.12460 0.35087 0.79103
 C784 C 0.13077 0.36837 0.78078
 C785 C 0.14788 0.37512 0.79119
 H786 H 0.11160 0.34134 0.78730
 H787 H 0.15693 0.38853 0.78767
 Cu788 Cu 0.13775 0.32591 0.82732
 Cu789 Cu 0.17312 0.36341 0.82730
 Cu790 Cu 0.17318 0.32589 0.86491
 N791 N 0.13770 0.30533 0.84899
 N792 N 0.15159 0.30540 0.86360
 C793 C 0.14798 0.28973 0.87655
 C794 C 0.13087 0.27932 0.86971
 C795 C 0.12472 0.28961 0.85218
 H796 H 0.15705 0.28622 0.88999
 H797 H 0.11174 0.28593 0.84257
 N798 N 0.19377 0.34791 0.86366
 N799 N 0.19375 0.36218 0.84929
 C800 C 0.20948 0.37508 0.85264
 C801 C 0.21985 0.36861 0.86993
 C802 C 0.20953 0.35136 0.87654
 H803 H 0.21312 0.38828 0.84330
 H804 H 0.21323 0.34212 0.88981
 H805 H 0.17394 0.33244 0.83389
 H806 H 0.15674 0.34861 0.85010
 N807 N 0.15145 0.86215 0.30690
 N808 N 0.13758 0.84757 0.30679
 C809 C 0.12460 0.85082 0.29104
 C810 C 0.13074 0.86834 0.28082
 C811 C 0.14782 0.87513 0.29126
 H812 H 0.11162 0.84127 0.28728
 H813 H 0.15685 0.88856 0.28776
 Cu814 Cu 0.13771 0.82589 0.32734
 Cu815 Cu 0.17305 0.86342 0.32736
 Cu816 Cu 0.17315 0.82585 0.36492
 N817 N 0.13763 0.80535 0.34904
 N818 N 0.15154 0.80539 0.36362
 C819 C 0.14792 0.78973 0.37658
 C820 C 0.13079 0.77935 0.36976
 C821 C 0.12463 0.78966 0.35225
 H822 H 0.15701 0.78620 0.39000
 H823 H 0.11163 0.78600 0.34265
 N824 N 0.19375 0.84785 0.36366
 N825 N 0.19367 0.86217 0.34933
 C826 C 0.20941 0.87505 0.35267
 C827 C 0.21983 0.86853 0.36990
 C828 C 0.20955 0.85126 0.37650
 H829 H 0.21302 0.88828 0.34336
 H830 H 0.21330 0.84197 0.38973
 H831 H 0.17389 0.83243 0.33392
 H832 H 0.15669 0.84855 0.35017
 O833 O 0.98015 0.92610 0.89768
 O834 O 0.98018 0.90223 0.87375
 C835 C 0.97311 0.91884 0.88104
 C836 C 0.95607 0.92946 0.87044
 C837 C 0.94817 0.92174 0.85195
 H838 H 0.95518 0.90838 0.84503
 O839 O 1.02014 1.07415 0.89747
 O840 O 1.02007 1.09806 0.87354
 C841 C 1.02717 1.08144 0.88081
 C842 C 1.04419 1.07082 0.87017
 C843 C 1.05208 1.07855 0.85164
 H844 H 1.04508 1.09193 0.84475
 O845 O 0.89809 0.98008 0.92581
 O846 O 0.87420 0.98008 0.90190
 C847 C 0.88146 0.97306 0.91858
 C848 C 0.87084 0.95612 0.92936
 C849 C 0.85229 0.94830 0.92179
 H850 H 0.84534 0.95529 0.90842
 O851 O 1.10193 1.02007 0.92562
 O852 O 1.12590 1.02003 0.90179
 C853 C 1.11860 1.02706 0.91844
 C854 C 1.12922 1.04395 0.92925
 C855 C 1.14780 1.05175 0.92171
 H856 H 1.15475 1.04478 0.90834
 O857 O 0.92621 0.89810 0.97985
 O858 O 0.90239 0.87419 0.97984
 C859 C 0.91899 0.88148 0.97277
 C860 C 0.92966 0.87090 0.95573
 C861 C 0.92198 0.85242 0.94782
 H862 H 0.90862 0.84553 0.95481
 O863 O 1.07389 1.10190 0.97980
 O864 O 1.09776 1.12576 0.97985
 C865 C 1.08115 1.11853 0.97276
 C866 C 1.07051 1.12921 0.95573
 C867 C 1.07815 1.14776 0.94791
 H868 H 1.09149 1.15464 0.95494
 O869 O 0.92624 1.01999 0.89766
 O870 O 0.90243 1.02000 0.87367
 C871 C 0.91904 1.02703 0.88097
 C872 C 0.92972 1.04401 0.87032
 C873 C 0.92208 1.05183 0.85175
 H874 H 0.90876 1.04480 0.84483
 O875 O 1.07387 0.98019 0.89748
 O876 O 1.09777 0.98011 0.87357
 C877 C 1.08112 0.97312 0.88084
 C878 C 1.07045 0.95615 0.87021
 C879 C 1.07806 0.94835 0.85162
 H880 H 1.09136 0.95538 0.84466
 O881 O 1.02013 0.89810 0.92584
 O882 O 1.02018 0.87416 0.90197
 C883 C 1.02717 0.88144 0.91864
 C884 C 1.04406 0.87079 0.92945
 C885 C 1.05182 0.85218 0.92191
 H886 H 1.04484 0.84525 0.90853
 O887 O 0.98010 1.10204 0.92571
 O888 O 0.98003 1.12602 0.90185
 C889 C 0.97303 1.11869 0.91851
 C890 C 0.95607 1.12928 0.92929
 C891 C 0.94824 1.14785 0.92170
 H892 H 0.95521 1.15480 0.90833
 O893 O 0.89803 1.07401 0.97978
 O894 O 0.87415 1.09790 0.97978
 C895 C 0.88143 1.08130 0.97268
 C896 C 0.87089 1.07067 0.95559
 C897 C 0.85243 1.07836 0.94762
 H898 H 0.84550 1.09173 0.95459
 O899 O 1.10186 0.92604 0.98012
 O900 O 1.12577 0.90219 0.98000
 C901 C 1.11848 0.91885 0.97300
 C902 C 1.12908 0.92963 0.95601
 C903 C 1.14777 0.92221 0.94834
 H904 H 1.15478 0.90895 0.95546
 O905 O 0.98014 1.07404 0.89755
 O906 O 0.98004 1.09794 0.87361
 C907 C 0.97306 1.08129 0.88090
 C908 C 0.95609 1.07056 0.87028
 C909 C 0.94820 1.07817 0.85171
 H910 H 0.95514 1.09155 0.84475
 O911 O 1.02012 0.92610 0.89761
 O912 O 1.02017 0.90223 0.87368
 C913 C 1.02716 0.91888 0.88094
 C914 C 1.04408 0.92962 0.87026
 C915 C 1.05191 0.92203 0.85167
 H916 H 1.04494 0.90867 0.84474
 O917 O 1.10177 0.98008 0.92571
 O918 O 1.12575 0.98001 0.90189
 C919 C 1.11842 0.97301 0.91855
 C920 C 1.12903 0.95608 0.92940
 C921 C 1.14771 0.94841 0.92196
 H922 H 1.15470 0.95548 0.90865
 O923 O 0.89814 1.02009 0.92569
 O924 O 0.87427 1.02011 0.90177
 C925 C 0.88153 1.02716 0.91841
 C926 C 0.87094 1.04419 0.92908
 C927 C 0.85248 1.05208 0.92135
 H928 H 0.84560 1.04509 0.90796
 O929 O 0.92615 1.10194 0.97990
 O930 O 0.90234 1.12589 0.97992
 C931 C 0.91895 1.11861 0.97287
 C932 C 0.92966 1.12924 0.95587
 C933 C 0.92205 1.14782 0.94806
 H934 H 0.90873 1.15475 0.95511
 O935 O 1.07390 0.89792 0.98018
 O936 O 1.09774 0.87398 0.98007
 C937 C 1.08111 0.88129 0.97308
 C938 C 1.07039 0.87071 0.95608
 C939 C 1.07792 0.85209 0.94833
 H940 H 1.09118 0.84509 0.95544
 O941 O 1.07402 1.02023 0.89741
 O942 O 1.09792 1.02019 0.87350
 C943 C 1.08131 1.02729 0.88076
 C944 C 1.07069 1.04436 0.87014
 C945 C 1.07837 1.05232 0.85161
 H946 H 1.09173 1.04536 0.84468
 O947 O 0.92610 0.97996 0.89768
 O948 O 0.90228 0.97995 0.87371
 C949 C 0.91887 0.97289 0.88103
 C950 C 0.92953 0.95586 0.87045
 C951 C 0.92184 0.94790 0.85197
 H952 H 0.90844 0.95483 0.84506
 O953 O 1.02008 1.10210 0.92565
 O954 O 1.02004 1.12608 0.90180
 C955 C 1.02710 1.11876 0.91844
 C956 C 1.04407 1.12934 0.92918
 C957 C 1.05193 1.14789 0.92159
 H958 H 1.04494 1.15488 0.90823
 O959 O 0.98017 0.89806 0.92577
 O960 O 0.98020 0.87412 0.90190
 C961 C 0.97314 0.88142 0.91854
 C962 C 0.95614 0.87084 0.92923
 C963 C 0.94826 0.85235 0.92155
 H964 H 0.95524 0.84543 0.90817
 O965 O 1.10189 1.07379 0.97986
 O966 O 1.12582 1.09759 0.97994
 C967 C 1.11854 1.08099 0.97286
 C968 C 1.12919 1.07031 0.95587
 C969 C 1.14777 1.07787 0.94813
 H970 H 1.15471 1.09116 0.95523
 O971 O 0.89817 0.92616 0.97994
 O972 O 0.87429 0.90230 0.97995
 C973 C 0.88154 0.91894 0.97291
 C974 C 0.87089 0.92967 0.95593
 C975 C 0.85235 0.92207 0.94815
 H976 H 0.84544 0.90873 0.95521
 Cu977 Cu 1.00016 0.91449 0.91412
 Cu978 Cu 1.00020 0.88579 0.88542
 Cu979 Cu 1.00012 1.08568 0.91398
 Cu980 Cu 1.00003 1.11443 0.88530
 Cu981 Cu 0.91453 1.00002 0.91411
 Cu982 Cu 0.88591 1.00004 0.88536
 Cu983 Cu 1.08549 1.00016 0.91393
 Cu984 Cu 1.11423 1.00007 0.88529
 C985 C 0.94677 0.94665 0.87946
 H986 H 0.95258 0.95249 0.89388
 C987 C 0.93101 0.93079 0.84260
 C988 C 1.05349 1.05361 0.87917
 H989 H 1.04769 1.04778 0.89361
 C990 C 1.06921 1.06947 0.84225
 C991 C 0.87990 0.94682 0.94656
 H992 H 0.89437 0.95255 0.95228
 C993 C 0.84294 0.93121 0.93102
 C994 C 1.12015 1.05322 0.94645
 H995 H 1.10566 1.04750 0.95214
 C996 C 1.15719 1.06876 0.93100
 C997 C 0.94686 0.87988 0.94645
 H998 H 0.95266 0.89429 0.95226
 C999 C 0.93112 0.84303 0.93068
 C1000 C 1.05335 1.12024 0.94638
 H1001 H 1.04758 1.10578 0.95212
 C1002 C 1.06903 1.15721 0.93078
 C1003 C 0.94686 1.05335 0.87935
 H1004 H 0.95263 1.04760 0.89384
 C1005 C 0.93114 1.06897 0.84234
 C1006 C 1.05333 0.94681 0.87929
 H1007 H 1.04759 0.95254 0.89380
 C1008 C 1.06896 0.93123 0.84225
 C1009 C 1.05333 0.87982 0.94666
 H1010 H 1.04765 0.89434 0.95235
 C1011 C 1.06881 0.84273 0.93119
 C1012 C 0.94680 1.12021 0.94650
 H1013 H 0.95254 1.10572 0.95223
 C1014 C 0.93117 1.15722 0.93092
 C1015 C 0.87991 1.05347 0.94632
 H1016 H 0.89431 1.04765 0.95216
 C1017 C 0.84310 1.06921 0.93046
 C1018 C 1.11994 0.94670 0.94655
 H1019 H 1.10537 0.95230 0.95216
 C1020 C 1.15718 0.93142 0.93125
 O1021 O 1.01993 0.92582 1.10254
 O1022 O 1.01988 0.90192 1.12648
 C1023 C 1.02693 0.91855 1.11921
 C1024 C 1.04390 0.92920 1.12985
 C1025 C 1.05172 0.92154 1.14842
 H1026 H 1.04468 0.90822 1.15538
 O1027 O 0.98008 1.07373 1.10227
 O1028 O 0.98010 1.09757 1.12624
 C1029 C 0.97306 1.08095 1.11895
 C1030 C 0.95609 1.07028 1.12960
 C1031 C 0.94829 1.07790 1.14818
 H1032 H 0.95532 1.09122 1.15512
 O1033 O 0.89810 1.01990 1.07416
 O1034 O 0.87417 1.01993 1.09804
 C1035 C 0.88145 1.02695 1.08137
 C1036 C 0.87083 1.04390 1.07059
 C1037 C 0.85229 1.05173 1.07820
 H1038 H 0.84537 1.04475 1.09159
 O1039 O 1.10205 0.97947 1.07435
 O1040 O 1.12595 0.97952 1.09824
 C1041 C 1.11869 0.97247 1.08159
 C1042 C 1.12934 0.95553 1.07085
 C1043 C 1.14790 0.94770 1.07843
 H1044 H 1.15481 0.95467 1.09182
 O1045 O 1.07400 0.89786 1.02031
 O1046 O 1.09784 0.87394 1.02023
 C1047 C 1.08126 0.88122 1.02736
 C1048 C 1.07064 0.87063 1.04447
 C1049 C 1.07836 0.85216 1.05243
 H1050 H 1.09173 0.84526 1.04545
 O1051 O 0.92602 1.10188 1.02002
 O1052 O 0.90221 1.12582 1.02006
 C1053 C 0.91880 1.11850 1.02712
 C1054 C 0.92949 1.12906 1.04417
 C1055 C 0.92191 1.14762 1.05203
 H1056 H 0.90859 1.15458 1.04501
 O1057 O 0.92608 0.97986 1.10235
 O1058 O 0.90222 0.97988 1.12629
 C1059 C 0.91883 0.97281 1.11901
 C1060 C 0.92947 0.95580 1.12967
 C1061 C 0.92181 0.94797 1.14823
 H1062 H 0.90848 0.95501 1.15515
 O1063 O 1.07391 1.01952 1.10229
 O1064 O 1.09774 1.01957 1.12626
 C1065 C 1.08114 1.02660 1.11894
 C1066 C 1.07046 1.04361 1.12952
 C1067 C 1.07808 1.05144 1.14809
 H1068 H 1.09138 1.04439 1.15506
 O1069 O 0.98009 0.89785 1.07424
 O1070 O 0.98001 0.87387 1.09810
 C1071 C 0.97304 0.88119 1.08142
 C1072 C 0.95615 0.87061 1.07059
 C1073 C 0.94833 0.85201 1.07811
 H1074 H 0.95530 0.84501 1.09147
 O1075 O 1.01996 1.10183 1.07410
 O1076 O 1.01999 1.12575 1.09798
 C1077 C 1.02697 1.11849 1.08129
 C1078 C 1.04382 1.12916 1.07045
 C1079 C 1.05146 1.14786 1.07785
 H1080 H 1.04440 1.15487 1.09115
 O1081 O 0.89819 0.92605 1.02004
 O1082 O 0.87432 0.90218 1.02005
 C1083 C 0.88158 0.91880 1.02711
 C1084 C 0.87095 0.92948 1.04412
 C1085 C 0.85239 0.92190 1.05190
 H1086 H 0.84546 0.90859 1.04484
 O1087 O 1.10173 1.07366 1.01997
 O1088 O 1.12564 1.09749 1.02006
 C1089 C 1.11834 1.08085 1.02708
 C1090 C 1.12893 1.07011 1.04410
 C1091 C 1.14742 1.07775 1.05198
 H1092 H 1.15431 1.09113 1.04497
 O1093 O 1.02006 1.07370 1.10217
 O1094 O 1.02010 1.09754 1.12613
 C1095 C 1.02712 1.08091 1.11884
 C1096 C 1.04408 1.07017 1.12947
 C1097 C 1.05192 1.07778 1.14805
 H1098 H 1.04495 1.09115 1.15497
 O1099 O 0.97995 0.92579 1.10246
 O1100 O 0.97986 0.90188 1.12640
 C1101 C 0.97286 0.91853 1.11911
 C1102 C 0.95586 0.92924 1.12971
 C1103 C 0.94796 0.92162 1.14828
 H1104 H 0.95491 0.90824 1.15523
 O1105 O 1.10187 1.01948 1.07414
 O1106 O 1.12577 1.01956 1.09803
 C1107 C 1.11847 1.02657 1.08136
 C1108 C 1.12901 1.04358 1.07061
 C1109 C 1.14751 1.05145 1.07825
 H1110 H 1.15446 1.04444 1.09161
 O1111 O 0.89812 0.97990 1.07420
 O1112 O 0.87418 0.97990 1.09807
 C1113 C 0.88148 0.97287 1.08142
 C1114 C 0.87090 0.95592 1.07066
 C1115 C 0.85233 0.94812 1.07823
 H1116 H 0.84537 0.95512 1.09158
 O1117 O 1.07379 1.10184 1.01989
 O1118 O 1.09764 1.12573 1.01995
 C1119 C 1.08099 1.11848 1.02695
 C1120 C 1.07022 1.12914 1.04387
 C1121 C 1.07764 1.14784 1.05148
 H1122 H 1.09088 1.15482 1.04435
 O1123 O 0.92629 0.89805 1.01996
 O1124 O 0.90248 0.87412 1.01995
 C1125 C 0.91909 0.88138 1.02699
 C1126 C 0.92979 0.87071 1.04397
 C1127 C 0.92221 0.85211 1.05170
 H1128 H 0.90892 0.84520 1.04461
 O1129 O 1.07396 0.97951 1.10242
 O1130 O 1.09779 0.97953 1.12639
 C1131 C 1.08117 0.97250 1.11912
 C1132 C 1.07045 0.95556 1.12980
 C1133 C 1.07806 0.94767 1.14838
 H1134 H 1.09143 0.95461 1.15529
 O1135 O 0.92609 1.01988 1.10232
 O1136 O 0.90223 1.01992 1.12626
 C1137 C 0.91886 1.02693 1.11898
 C1138 C 0.92957 1.04389 1.12961
 C1139 C 0.92198 1.05174 1.14819
 H1140 H 0.90862 1.04479 1.15514
 O1141 O 0.98000 1.10175 1.07413
 O1142 O 0.98001 1.12566 1.09803
 C1143 C 0.97295 1.11838 1.08138
 C1144 C 0.95596 1.12900 1.07069
 C1145 C 0.94815 1.14755 1.07832
 H1146 H 0.95517 1.15446 1.09168
 O1147 O 1.02007 0.89783 1.07442
 O1148 O 1.02002 0.87386 1.09828
 C1149 C 1.02712 0.88118 1.08166
 C1150 C 1.04417 0.87062 1.07100
 C1151 C 1.05209 0.85214 1.07872
 H1152 H 1.04511 0.84523 1.09212
 O1153 O 1.10211 0.92580 1.02022
 O1154 O 1.12601 0.90193 1.02011
 C1155 C 1.11875 0.91854 1.02722
 C1156 C 1.12938 0.92917 1.04423
 C1157 C 1.14794 0.92156 1.05202
 H1158 H 1.15489 0.90827 1.04493
 O1159 O 0.89803 1.07381 1.01991
 O1160 O 0.87414 1.09769 1.01993
 C1161 C 0.88140 1.08104 1.02697
 C1162 C 0.87080 1.07033 1.04399
 C1163 C 0.85226 1.07794 1.05182
 H1164 H 0.84532 1.09127 1.04477
 Cu1165 Cu 1.00001 0.91422 1.08602
 Cu1166 Cu 0.99993 0.88548 1.11471
 Cu1167 Cu 1.00004 1.08536 1.08577
 Cu1168 Cu 1.00006 1.11402 1.11450
 Cu1169 Cu 0.91460 0.91448 0.99995
 Cu1170 Cu 0.88598 0.88580 0.99995
 Cu1171 Cu 1.08558 0.91429 1.00022
 Cu1172 Cu 1.11422 0.88561 1.00007
 Cu1173 Cu 0.91444 1.08551 0.99990
 Cu1174 Cu 0.88582 1.11422 0.99993
 Cu1175 Cu 1.08543 1.08541 0.99987
 Cu1176 Cu 1.11412 1.11403 0.99997
 Cu1177 Cu 0.91449 0.99989 1.08587
 Cu1178 Cu 0.88580 0.99991 1.11457
 Cu1179 Cu 1.08556 0.99947 1.08590
 Cu1180 Cu 1.11421 0.99955 1.11463
 C1181 C 1.05324 0.94634 1.12079
 H1182 H 1.04749 0.95213 1.10630
 C1183 C 1.06885 0.93060 1.15779
 C1184 C 0.94676 1.05314 1.12055
 H1185 H 0.95249 1.04738 1.10606
 C1186 C 0.93118 1.06881 1.15759
 C1187 C 0.87985 1.05318 1.05336
 H1188 H 0.89431 1.04743 1.04761
 C1189 C 0.84291 1.06882 1.06899
 C1190 C 1.12032 0.94628 1.05363
 H1191 H 1.10585 0.95202 1.04790
 C1192 C 1.15731 0.93066 1.06917
 C1193 C 1.05343 0.87963 1.05375
 H1194 H 1.04760 0.89403 1.04791
 C1195 C 1.06923 0.84280 1.06961
 C1196 C 0.94663 1.11999 1.05349
 H1197 H 0.95237 1.10552 1.04772
 C1198 C 0.93108 1.15698 1.06916
 C1199 C 0.94663 0.94645 1.12065
 H1200 H 0.95242 0.95221 1.10617
 C1201 C 0.93088 0.93083 1.15765
 C1202 C 1.05333 1.05297 1.12044
 H1203 H 1.04758 1.04722 1.10595
 C1204 C 1.06898 1.06857 1.15746
 C1205 C 0.94689 0.87973 1.05339
 H1206 H 0.95261 0.89424 1.04772
 C1207 C 0.93130 0.84266 1.06883
 C1208 C 1.05318 1.12003 1.05332
 H1209 H 1.04759 1.10545 1.04774
 C1210 C 1.06843 1.15730 1.06853
 C1211 C 0.87997 0.94661 1.05348
 H1212 H 0.89445 0.95234 1.04777
 C1213 C 0.84297 0.93105 1.06901
 C1214 C 1.11995 1.05289 1.05340
 H1215 H 1.10553 1.04712 1.04763
 C1216 C 1.15682 1.06859 1.06910
 O1217 O 1.07407 0.51968 0.60233
 O1218 O 1.09791 0.51969 0.62628
 C1219 C 1.08130 0.52673 0.61899
 C1220 C 1.07061 0.54372 0.62961
 C1221 C 1.07826 0.55156 0.64816
 H1222 H 1.09160 0.54454 0.65509
 O1223 O 0.92624 0.47982 0.60226
 O1224 O 0.90237 0.47983 0.62619
 C1225 C 0.91898 0.47276 0.61892
 C1226 C 0.92962 0.45573 0.62956
 C1227 C 0.92193 0.44788 0.64810
 H1228 H 0.90858 0.45491 0.65501
 O1229 O 1.02012 0.60178 0.57415
 O1230 O 1.02013 0.62570 0.59803
 C1231 C 1.02713 0.61843 0.58135
 C1232 C 1.04402 0.62907 0.57056
 C1233 C 1.05184 0.64763 0.57815
 H1234 H 1.04490 0.65454 0.59156
 O1235 O 0.98029 0.39797 0.57404
 O1236 O 0.98023 0.37396 0.59787
 C1237 C 0.97325 0.38131 0.58121
 C1238 C 0.95634 0.37073 0.57040
 C1239 C 0.94855 0.35212 0.57791
 H1240 H 0.95554 0.34511 0.59126
 O1241 O 1.10194 0.57385 0.52005
 O1242 O 1.12581 0.59772 0.52010
 C1243 C 1.11853 0.58110 0.52716
 C1244 C 1.12911 0.57041 0.54422
 C1245 C 1.14762 0.57805 0.55207
 H1246 H 1.15452 0.59141 0.54505
 O1247 O 0.89814 0.42611 0.51987
 O1248 O 0.87432 0.40220 0.51995
 C1249 C 0.88155 0.41884 0.52697
 C1250 C 0.87095 0.42953 0.54400
 C1251 C 0.85240 0.42196 0.55182
 H1252 H 0.84545 0.40865 0.54478
 O1253 O 0.98020 0.57371 0.60228
 O1254 O 0.98019 0.59757 0.62624
 C1255 C 0.97315 0.58096 0.61894
 C1256 C 0.95615 0.57031 0.62955
 C1257 C 0.94826 0.57800 0.64807
 H1258 H 0.95525 0.59136 0.65499
 O1259 O 1.02014 0.42592 0.60234
 O1260 O 1.02011 0.40199 0.62625
 C1261 C 1.02716 0.41863 0.61900
 C1262 C 1.04415 0.42925 0.62964
 C1263 C 1.05198 0.42155 0.64819
 H1264 H 1.04495 0.40821 0.65512
 O1265 O 1.10218 0.47976 0.57419
 O1266 O 1.12609 0.47973 0.59807
 C1267 C 1.11882 0.47272 0.58141
 C1268 C 1.12945 0.45579 0.57063
 C1269 C 1.14799 0.44793 0.57823
 H1270 H 1.15490 0.45486 0.59163
 O1271 O 0.89827 0.51989 0.57411
 O1272 O 0.87433 0.51991 0.59798
 C1273 C 0.88163 0.52694 0.58132
 C1274 C 0.87103 0.54390 0.57055
 C1275 C 0.85247 0.55172 0.57811
 H1276 H 0.84551 0.54472 0.59148
 O1277 O 0.92634 0.60185 0.51997
 O1278 O 0.90249 0.62577 0.52000
 C1279 C 0.91909 0.61847 0.52706
 C1280 C 0.92973 0.62903 0.54413
 C1281 C 0.92205 0.64752 0.55204
 H1282 H 0.90871 0.65444 0.54502
 O1283 O 1.07427 0.39795 0.52007
 O1284 O 1.09808 0.37400 0.52003
 C1285 C 1.08150 0.38130 0.52713
 C1286 C 1.07083 0.37069 0.54421
 C1287 C 1.07846 0.35215 0.55210
 H1288 H 1.09181 0.34522 0.54510
 O1289 O 0.92623 0.51986 0.60227
 O1290 O 0.90236 0.51989 0.62620
 C1291 C 0.91898 0.52692 0.61892
 C1292 C 0.92964 0.54392 0.62954
 C1293 C 0.92195 0.55185 0.64804
 H1294 H 0.90856 0.54493 0.65495
 O1295 O 1.07416 0.47967 0.60234
 O1296 O 1.09800 0.47964 0.62630
 C1297 C 1.08139 0.47261 0.61901
 C1298 C 1.07069 0.45562 0.62964
 C1299 C 1.07830 0.44770 0.64820
 H1300 H 1.09167 0.45463 0.65514
 O1301 O 1.02027 0.39792 0.57422
 O1302 O 1.02023 0.37392 0.59805
 C1303 C 1.02732 0.38126 0.58143
 C1304 C 1.04434 0.37068 0.57073
 C1305 C 1.05219 0.35214 0.57838
 H1306 H 1.04517 0.34520 0.59175
 O1307 O 0.98017 0.60176 0.57418
 O1308 O 0.98016 0.62569 0.59806
 C1309 C 0.97312 0.61840 0.58141
 C1310 C 0.95614 0.62900 0.57069
 C1311 C 0.94824 0.64750 0.57837
 H1312 H 0.95520 0.65440 0.59178
 O1313 O 0.89831 0.57384 0.51992
 O1314 O 0.87440 0.59770 0.51993
 C1315 C 0.88167 0.58106 0.52697
 C1316 C 0.87106 0.57035 0.54397
 C1317 C 0.85249 0.57795 0.55176
 H1318 H 0.84557 0.59128 0.54469
 O1319 O 1.10223 0.42606 0.51994
 O1320 O 1.12611 0.40217 0.51990
 C1321 C 1.11886 0.41880 0.52697
 C1322 C 1.12948 0.42945 0.54399
 C1323 C 1.14801 0.42180 0.55180
 H1324 H 1.15494 0.40849 0.54472
 O1325 O 0.98014 0.42581 0.60236
 O1326 O 0.98008 0.40187 0.62626
 C1327 C 0.97305 0.41852 0.61900
 C1328 C 0.95602 0.42919 0.62960
 C1329 C 0.94809 0.42153 0.64815
 H1330 H 0.95503 0.40815 0.65510
 O1331 O 1.02018 0.57373 0.60230
 O1332 O 1.02019 0.59759 0.62625
 C1333 C 1.02723 0.58096 0.61896
 C1334 C 1.04420 0.57024 0.62959
 C1335 C 1.05207 0.57787 0.64815
 H1336 H 1.04511 0.59125 0.65508
 O1337 O 0.89825 0.47989 0.57411
 O1338 O 0.87432 0.47990 0.59798
 C1339 C 0.88161 0.47288 0.58132
 C1340 C 0.87099 0.45595 0.57057
 C1341 C 0.85243 0.44816 0.57816
 H1342 H 0.84551 0.45517 0.59154
 O1343 O 1.10205 0.51977 0.57420
 O1344 O 1.12597 0.51978 0.59808
 C1345 C 1.11866 0.52685 0.58144
 C1346 C 1.12919 0.54389 0.57073
 C1347 C 1.14770 0.55175 0.57836
 H1348 H 1.15466 0.54473 0.59171
 O1349 O 0.92630 0.39818 0.51984
 O1350 O 0.90255 0.37420 0.51990
 C1351 C 0.91915 0.38151 0.52690
 C1352 C 0.92991 0.37085 0.54385
 C1353 C 0.92237 0.35224 0.55157
 H1354 H 0.90907 0.34532 0.54450
 O1355 O 1.07387 0.60186 0.51988
 O1356 O 1.09768 0.62579 0.51991
 C1357 C 1.08106 0.61851 0.52693
 C1358 C 1.07035 0.62911 0.54392
 C1359 C 1.07794 0.64767 0.55171
 H1360 H 1.09123 0.65462 0.54462
 Cu1361 Cu 1.08573 0.49971 0.58587
 Cu1362 Cu 1.11439 0.49970 0.61458
 Cu1363 Cu 0.91465 0.49986 0.58580
 Cu1364 Cu 0.88595 0.49988 0.61449
 Cu1365 Cu 1.00018 0.58535 0.58584
 Cu1366 Cu 1.00017 0.61403 0.61455
 Cu1367 Cu 1.00021 0.41431 0.58586
 Cu1368 Cu 1.00016 0.38553 0.61450
 C1369 C 1.05346 0.55304 0.62056
 H1370 H 1.04768 0.54727 0.60609
 C1371 C 1.06916 0.56869 0.65753
 C1372 C 0.94679 0.44641 0.62055
 H1373 H 0.95260 0.45219 0.60609
 C1374 C 0.93099 0.43073 0.65751
 C1375 C 1.05326 0.62005 0.55331
 H1376 H 1.04754 0.60558 0.54759
 C1377 C 1.06886 0.65702 0.56888
 C1378 C 0.94703 0.37987 0.55324
 H1379 H 0.95272 0.39440 0.54757
 C1380 C 0.93150 0.34278 0.56867
 C1381 C 1.12013 0.55322 0.55354
 H1382 H 1.10569 0.54745 0.54778
 C1383 C 1.15702 0.56888 0.56919
 C1384 C 0.88001 0.44665 0.55335
 H1385 H 0.89448 0.45237 0.54761
 C1386 C 0.84303 0.43111 0.56896
 C1387 C 0.94687 0.55313 0.62053
 H1388 H 0.95268 0.54731 0.60609
 C1389 C 0.93111 0.56895 0.65742
 C1390 C 1.05348 0.44641 0.62061
 H1391 H 1.04773 0.45223 0.60614
 C1392 C 1.06910 0.43061 0.65759
 C1393 C 1.12044 0.44657 0.55338
 H1394 H 1.10598 0.45235 0.54764
 C1395 C 1.15738 0.43088 0.56897
 C1396 C 0.88009 0.55320 0.55335
 H1397 H 0.89457 0.54747 0.54763
 C1398 C 0.84310 0.56880 0.56888
 C1399 C 0.94690 0.62001 0.55344
 H1400 H 0.95271 0.60559 0.54764
 C1401 C 0.93114 0.65686 0.56921
 C1402 C 1.05365 0.37972 0.55352
 H1403 H 1.04788 0.39417 0.54773
 C1404 C 1.06930 0.34276 0.56925
 O1405 O 1.07411 0.48023 0.39768
 O1406 O 1.09795 0.48021 0.37371
 C1407 C 1.08134 0.47318 0.38102
 C1408 C 1.07068 0.45618 0.37042
 C1409 C 1.07841 0.44828 0.35193
 H1410 H 1.09180 0.45523 0.34504
 O1411 O 0.92622 0.51978 0.39767
 O1412 O 0.90240 0.51991 0.37370
 C1413 C 0.91903 0.52689 0.38101
 C1414 C 0.92975 0.54386 0.37039
 C1415 C 0.92218 0.55164 0.35177
 H1416 H 0.90888 0.54459 0.34481
 O1417 O 0.98019 0.60201 0.42568
 O1418 O 0.98011 0.62595 0.40177
 C1419 C 0.97312 0.61866 0.41845
 C1420 C 0.95618 0.62927 0.42922
 C1421 C 0.94832 0.64782 0.42160
 H1422 H 0.95528 0.65476 0.40821
 O1423 O 1.02010 0.39816 0.42573
 O1424 O 1.02019 0.37420 0.40187
 C1425 C 1.02717 0.38150 0.41854
 C1426 C 1.04409 0.37088 0.42934
 C1427 C 1.05185 0.35226 0.42181
 H1428 H 1.04484 0.34531 0.40846
 O1429 O 1.10224 0.42599 0.47982
 O1430 O 1.12611 0.40209 0.47975
 C1431 C 1.11884 0.41873 0.47270
 C1432 C 1.12942 0.42942 0.45563
 C1433 C 1.14792 0.42178 0.44770
 H1434 H 1.15484 0.40840 0.45468
 O1435 O 0.89835 0.57387 0.47982
 O1436 O 0.87445 0.59773 0.47982
 C1437 C 0.88172 0.58110 0.47277
 C1438 C 0.87108 0.57041 0.45578
 C1439 C 0.85251 0.57801 0.44801
 H1440 H 0.84559 0.59134 0.45506
 O1441 O 1.02020 0.57403 0.39752
 O1442 O 1.02013 0.59791 0.37355
 C1443 C 1.02723 0.58131 0.38085
 C1444 C 1.04430 0.57073 0.37025
 C1445 C 1.05218 0.57848 0.35174
 H1446 H 1.04513 0.59182 0.34482
 O1447 O 0.98009 0.42607 0.39745
 O1448 O 0.98020 0.40220 0.37352
 C1449 C 0.97309 0.41879 0.38078
 C1450 C 0.95605 0.42940 0.37014
 C1451 C 0.94821 0.42172 0.35159
 H1452 H 0.95527 0.40840 0.34466
 O1453 O 1.10227 0.52008 0.42576
 O1454 O 1.12618 0.52011 0.40186
 C1455 C 1.11891 0.52711 0.41854
 C1456 C 1.12950 0.54402 0.42934
 C1457 C 1.14805 0.55189 0.42178
 H1458 H 1.15501 0.54497 0.40839
 O1459 O 0.89799 0.47980 0.42562
 O1460 O 0.87409 0.47991 0.40172
 C1461 C 0.88134 0.47282 0.41838
 C1462 C 0.87073 0.45585 0.42911
 C1463 C 0.85222 0.44796 0.42149
 H1464 H 0.84529 0.45492 0.40809
 O1465 O 1.07405 0.60187 0.47976
 O1466 O 1.09786 0.62579 0.47980
 C1467 C 1.08129 0.61851 0.47270
 C1468 C 1.07064 0.62913 0.45564
 C1469 C 1.07828 0.64765 0.44777
 H1470 H 1.09162 0.65455 0.45479
 O1471 O 0.92620 0.39813 0.47976
 O1472 O 0.90245 0.37415 0.47981
 C1473 C 0.91903 0.38147 0.47273
 C1474 C 0.92975 0.37086 0.45573
 C1475 C 0.92218 0.35230 0.44792
 H1476 H 0.90887 0.34536 0.45495
 O1477 O 0.92600 0.47976 0.39748
 O1478 O 0.90218 0.47986 0.37352
 C1479 C 0.91877 0.47275 0.38080
 C1480 C 0.92946 0.45576 0.37015
 C1481 C 0.92184 0.44786 0.35160
 H1482 H 0.90844 0.45479 0.34469
 O1483 O 1.07433 0.52027 0.39756
 O1484 O 1.09817 0.52028 0.37359
 C1485 C 1.08158 0.52735 0.38090
 C1486 C 1.07091 0.54440 0.37029
 C1487 C 1.07860 0.55240 0.35179
 H1488 H 1.09203 0.54552 0.34490
 O1489 O 0.98014 0.39815 0.42569
 O1490 O 0.98022 0.37420 0.40183
 C1491 C 0.97315 0.38149 0.41847
 C1492 C 0.95620 0.37087 0.42920
 C1493 C 0.94841 0.35230 0.42160
 H1494 H 0.95544 0.34536 0.40825
 O1495 O 1.02016 0.60199 0.42567
 O1496 O 1.02011 0.62593 0.40177
 C1497 C 1.02719 0.61863 0.41841
 C1498 C 1.04419 0.62920 0.42910
 C1499 C 1.05206 0.64773 0.42145
 H1500 H 1.04507 0.65469 0.40808
 O1501 O 0.89805 0.42607 0.47976
 O1502 O 0.87423 0.40215 0.47983
 C1503 C 0.88144 0.41878 0.47274
 C1504 C 0.87079 0.42943 0.45571
 C1505 C 0.85229 0.42175 0.44788
 H1506 H 0.84541 0.40840 0.45494
 O1507 O 1.10208 0.57379 0.47994
 O1508 O 1.12594 0.59766 0.47999
 C1509 C 1.11872 0.58103 0.47294
 C1510 C 1.12940 0.57035 0.45597
 C1511 C 1.14794 0.57800 0.44822
 H1512 H 1.15483 0.59131 0.45532
 O1513 O 1.02012 0.42625 0.39763
 O1514 O 1.02025 0.40237 0.37371
 C1515 C 1.02724 0.41900 0.38100
 C1516 C 1.04426 0.42968 0.37042
 C1517 C 1.05224 0.42199 0.35194
 H1518 H 1.04533 0.40859 0.34503
 O1519 O 0.98019 0.57389 0.39763
 O1520 O 0.98010 0.59776 0.37366
 C1521 C 0.97311 0.58112 0.38097
 C1522 C 0.95615 0.57038 0.37036
 C1523 C 0.94834 0.57794 0.35173
 H1524 H 0.95531 0.59128 0.34475
 O1525 O 0.89815 0.51981 0.42572
 O1526 O 0.87424 0.51995 0.40183
 C1527 C 0.88154 0.52693 0.41850
 C1528 C 0.87099 0.54393 0.42926
 C1529 C 0.85242 0.55175 0.42171
 H1530 H 0.84544 0.54474 0.40839
 O1531 O 1.10222 0.48008 0.42567
 O1532 O 1.12613 0.48008 0.40178
 C1533 C 1.11883 0.47301 0.41842
 C1534 C 1.12941 0.45596 0.42911
 C1535 C 1.14790 0.44809 0.42143
 H1536 H 1.15482 0.45512 0.40805
 O1537 O 1.07406 0.39810 0.47994
 O1538 O 1.09786 0.37414 0.47989
 C1539 C 1.08124 0.38145 0.47288
 C1540 C 1.07050 0.37085 0.45590
 C1541 C 1.07803 0.35224 0.44815
 H1542 H 1.09132 0.34527 0.45522
 O1543 O 0.92634 0.60195 0.47986
 O1544 O 0.90250 0.62587 0.47987
 C1545 C 0.91911 0.61860 0.47281
 C1546 C 0.92979 0.62924 0.45580
 C1547 C 0.92215 0.64779 0.44797
 H1548 H 0.90882 0.65470 0.45502
 Cu1549 Cu 1.08584 0.50018 0.41406
 Cu1550 Cu 1.11450 0.50016 0.38533
 Cu1551 Cu 0.91448 0.49976 0.41402
 Cu1552 Cu 0.88584 0.49993 0.38529
 Cu1553 Cu 1.08560 0.58545 0.49990
 Cu1554 Cu 1.11422 0.61414 0.49995
 Cu1555 Cu 1.08582 0.41442 0.49995
 Cu1556 Cu 1.11443 0.38570 0.49988
 Cu1557 Cu 0.91473 0.58549 0.49989
 Cu1558 Cu 0.88607 0.61417 0.49990
 Cu1559 Cu 0.91455 0.41453 0.49980
 Cu1560 Cu 0.88600 0.38577 0.49989
 Cu1561 Cu 1.00018 0.58559 0.41401
 Cu1562 Cu 1.00009 0.61428 0.38528
 Cu1563 Cu 1.00010 0.41456 0.41400
 Cu1564 Cu 1.00023 0.38585 0.38533
 C1565 C 1.05348 0.44692 0.37943
 H1566 H 1.04762 0.45275 0.39385
 C1567 C 1.06935 0.43113 0.34258
 C1568 C 0.94686 0.55322 0.37946
 H1569 H 0.95258 0.54751 0.39399
 C1570 C 0.93129 0.56873 0.34233
 C1571 C 0.94693 0.62022 0.44645
 H1572 H 0.95270 0.60575 0.45220
 C1573 C 0.93124 0.65718 0.43082
 C1574 C 1.05340 0.37995 0.44651
 H1575 H 1.04772 0.39447 0.45219
 C1576 C 1.06887 0.34284 0.43105
 C1577 C 1.12040 0.44664 0.44633
 H1578 H 1.10598 0.45242 0.45215
 C1579 C 1.15727 0.43095 0.43055
 C1580 C 0.88009 0.55324 0.44642
 H1581 H 0.89458 0.54750 0.45212
 C1582 C 0.84308 0.56885 0.43092
 C1583 C 1.05365 0.55357 0.37929
 H1584 H 1.04784 0.54771 0.39372
 C1585 C 1.06938 0.56949 0.34240
 C1586 C 0.94668 0.44654 0.37917
 H1587 H 0.95245 0.45235 0.39363
 C1588 C 0.93106 0.43078 0.34220
 C1589 C 1.12043 0.55323 0.44657
 H1590 H 1.10597 0.54745 0.45228
 C1591 C 1.15737 0.56894 0.43107
 C1592 C 0.87976 0.44660 0.44635
 H1593 H 0.89418 0.45239 0.45211
 C1594 C 0.84289 0.43086 0.43072
 C1595 C 1.05347 0.62014 0.44631
 H1596 H 1.04770 0.60569 0.45210
 C1597 C 1.06915 0.65707 0.43063
 C1598 C 0.94688 0.37991 0.44639
 H1599 H 0.95259 0.39439 0.45213
 C1600 C 0.93135 0.34291 0.43079
 O1601 O 0.57388 1.02027 0.60229
 O1602 O 0.59777 1.02025 0.62620
 C1603 C 0.58115 1.02732 0.61894
 C1604 C 0.57054 1.04437 0.62955
 C1605 C 0.57829 1.05230 0.64802
 H1606 H 0.59166 1.04530 0.65492
 O1607 O 0.42599 0.98032 0.60217
 O1608 O 0.40218 0.98028 0.62616
 C1609 C 0.41880 0.97327 0.61886
 C1610 C 0.42955 0.95633 0.62953
 C1611 C 0.42207 0.94864 0.64823
 H1612 H 0.40879 0.95572 0.65521
 O1613 O 0.51989 1.10226 0.57404
 O1614 O 0.51987 1.12621 0.59789
 C1615 C 0.52688 1.11893 0.58123
 C1616 C 0.54377 1.12957 0.57041
 C1617 C 0.55157 1.14815 0.57796
 H1618 H 0.54461 1.15508 0.59135
 O1619 O 0.47999 0.89823 0.57409
 O1620 O 0.47999 0.87429 0.59799
 C1621 C 0.47298 0.88157 0.58131
 C1622 C 0.45608 0.87093 0.57054
 C1623 C 0.44832 0.85232 0.57810
 H1624 H 0.45532 0.84536 0.59147
 O1625 O 0.60162 1.07431 0.51978
 O1626 O 0.62553 1.09814 0.51979
 C1627 C 0.61824 1.08152 0.52685
 C1628 C 0.62884 1.07081 0.54388
 C1629 C 0.64738 1.07840 0.55170
 H1630 H 0.65430 1.09174 0.54466
 O1631 O 0.39809 0.92624 0.51992
 O1632 O 0.37422 0.90237 0.52004
 C1633 C 0.38148 0.91902 0.52703
 C1634 C 0.37087 0.92975 0.54403
 C1635 C 0.35231 0.92218 0.55184
 H1636 H 0.34539 0.90885 0.54480
 O1637 O 0.48004 1.07412 0.60223
 O1638 O 0.48000 1.09799 0.62616
 C1639 C 0.47298 1.08135 0.61888
 C1640 C 0.45600 1.07067 0.62951
 C1641 C 0.44819 1.07830 0.64809
 H1642 H 0.45524 1.09161 0.65504
 O1643 O 0.51990 0.92630 0.60219
 O1644 O 0.51993 0.90242 0.62616
 C1645 C 0.52694 0.91905 0.61886
 C1646 C 0.54391 0.92973 0.62949
 C1647 C 0.55172 0.92210 0.64807
 H1648 H 0.54470 0.90877 0.65502
 O1649 O 0.60189 0.98030 0.57408
 O1650 O 0.62584 0.98027 0.59793
 C1651 C 0.61855 0.97327 0.58126
 C1652 C 0.62920 0.95638 0.57045
 C1653 C 0.64779 0.94858 0.57799
 H1654 H 0.65473 0.95555 0.59137
 O1655 O 0.39784 1.02032 0.57411
 O1656 O 0.37395 1.02030 0.59803
 C1657 C 0.38120 1.02735 0.58136
 C1658 C 0.37058 1.04432 0.57062
 C1659 C 0.35204 1.05217 0.57822
 H1660 H 0.34511 1.04518 0.59161
 O1661 O 0.42598 1.10217 0.52002
 O1662 O 0.40211 1.12607 0.51996
 C1663 C 0.41872 1.11880 0.52706
 C1664 C 0.42937 1.12942 0.54411
 C1665 C 0.42175 1.14797 0.55195
 H1666 H 0.40842 1.15491 0.54492
 O1667 O 0.57400 0.89843 0.52000
 O1668 O 0.59783 0.87450 0.52002
 C1669 C 0.58123 0.88179 0.52709
 C1670 C 0.57056 0.87119 0.54413
 C1671 C 0.57818 0.85263 0.55199
 H1672 H 0.59153 0.84573 0.54498
 O1673 O 0.42594 1.02033 0.60216
 O1674 O 0.40212 1.02032 0.62614
 C1675 C 0.41873 1.02736 0.61884
 C1676 C 0.42945 1.04431 0.62948
 C1677 C 0.42185 1.05217 0.64807
 H1678 H 0.40849 1.04522 0.65501
 O1679 O 0.57381 0.98023 0.60218
 O1680 O 0.59769 0.98018 0.62610
 C1681 C 0.58107 0.97315 0.61883
 C1682 C 0.57039 0.95615 0.62946
 C1683 C 0.57800 0.94828 0.64805
 H1684 H 0.59134 0.95526 0.65498
 O1685 O 0.51996 0.89830 0.57408
 O1686 O 0.51999 0.87435 0.59798
 C1687 C 0.52703 0.88166 0.58133
 C1688 C 0.54405 0.87110 0.57062
 C1689 C 0.55189 0.85254 0.57824
 H1690 H 0.54487 0.84557 0.59159
 O1691 O 0.47992 1.10221 0.57415
 O1692 O 0.47988 1.12616 0.59801
 C1693 C 0.47284 1.11885 0.58137
 C1694 C 0.45583 1.12943 0.57064
 C1695 C 0.44799 1.14798 0.57825
 H1696 H 0.45501 1.15492 0.59160
 O1697 O 0.39787 1.07420 0.51999
 O1698 O 0.37395 1.09804 0.51990
 C1699 C 0.38122 1.08143 0.52700
 C1700 C 0.37059 1.07075 0.54402
 C1701 C 0.35204 1.07838 0.55184
 H1702 H 0.34512 1.09171 0.54478
 O1703 O 0.60197 0.92653 0.51983
 O1704 O 0.62586 0.90266 0.51984
 C1705 C 0.61860 0.91931 0.52686
 C1706 C 0.62924 0.93002 0.54383
 C1707 C 0.64782 0.92245 0.55158
 H1708 H 0.65478 0.90916 0.54449
 O1709 O 0.47994 0.92628 0.60221
 O1710 O 0.47994 0.90242 0.62619
 C1711 C 0.47291 0.91907 0.61890
 C1712 C 0.45600 0.92983 0.62957
 C1713 C 0.44829 0.92236 0.64828
 H1714 H 0.45533 0.90906 0.65529
 O1715 O 0.52005 1.07431 0.60229
 O1716 O 0.52003 1.09819 0.62621
 C1717 C 0.52711 1.08158 0.61893
 C1718 C 0.54415 1.07093 0.62953
 C1719 C 0.55215 1.07865 0.64801
 H1720 H 0.54523 1.09207 0.65490
 O1721 O 0.39799 0.98030 0.57404
 O1722 O 0.37410 0.98024 0.59795
 C1723 C 0.38139 0.97322 0.58128
 C1724 C 0.37081 0.95624 0.57055
 C1725 C 0.35226 0.94843 0.57814
 H1726 H 0.34530 0.95544 0.59148
 O1727 O 0.60169 1.02029 0.57399
 O1728 O 0.62565 1.02028 0.59783
 C1729 C 0.61832 1.02733 0.58118
 C1730 C 0.62888 1.04432 0.57042
 C1731 C 0.64743 1.05212 0.57801
 H1732 H 0.65438 1.04510 0.59136
 O1733 O 0.42614 0.89819 0.51989
 O1734 O 0.40234 0.87425 0.51999
 C1735 C 0.41895 0.88155 0.52698
 C1736 C 0.42969 0.87093 0.54396
 C1737 C 0.42216 0.85233 0.55173
 H1738 H 0.40888 0.84538 0.54466
 O1739 O 0.57356 1.10233 0.51971
 O1740 O 0.59740 1.12623 0.51971
 C1741 C 0.58079 1.11896 0.52676
 C1742 C 0.57010 1.12958 0.54376
 C1743 C 0.57767 1.14816 0.55152
 H1744 H 0.59095 1.15511 0.54442
 Cu1745 Cu 0.58541 1.00026 0.58576
 Cu1746 Cu 0.61413 1.00023 0.61442
 Cu1747 Cu 0.41432 1.00033 0.58572
 Cu1748 Cu 0.38569 1.00027 0.61447
 Cu1749 Cu 0.49998 1.08583 0.58579
 Cu1750 Cu 0.49994 1.11453 0.61447
 Cu1751 Cu 0.49993 0.91467 0.58574
 Cu1752 Cu 0.49995 0.88597 0.61448
 C1753 C 0.55335 1.05366 0.62055
 H1754 H 0.54748 1.04782 0.60615
 C1755 C 0.56926 1.06949 0.65737
 C1756 C 0.44664 0.94694 0.62043
 H1757 H 0.45228 0.95258 0.60585
 C1758 C 0.43126 0.93160 0.65770
 C1759 C 0.55302 1.12052 0.55319
 H1760 H 0.54731 1.10602 0.54750
 C1761 C 0.56858 1.15755 0.56867
 C1762 C 0.44678 0.88000 0.55334
 H1763 H 0.45246 0.89451 0.54764
 C1764 C 0.43130 0.84292 0.56885
 C1765 C 0.61982 1.05364 0.55323
 H1766 H 0.60536 1.04791 0.54749
 C1767 C 0.65678 1.06922 0.56881
 C1768 C 0.37989 0.94691 0.55337
 H1769 H 0.39436 0.95263 0.54764
 C1770 C 0.34290 0.93134 0.56895
 C1771 C 0.44665 1.05355 0.62045
 H1772 H 0.45240 1.04779 0.60596
 C1773 C 0.43107 1.06922 0.65748
 C1774 C 0.55322 0.94689 0.62042
 H1775 H 0.54748 0.95265 0.60592
 C1776 C 0.56882 0.93120 0.65746
 C1777 C 0.62017 0.94712 0.55324
 H1778 H 0.60567 0.95283 0.54755
 C1779 C 0.65720 0.93155 0.56872
 C1780 C 0.37961 1.05360 0.55339
 H1781 H 0.39407 1.04784 0.54765
 C1782 C 0.34266 1.06925 0.56899
 C1783 C 0.44653 1.12039 0.55345
 H1784 H 0.45230 1.10593 0.54770
 C1785 C 0.43090 1.15736 0.56908
 C1786 C 0.55337 0.88019 0.55345
 H1787 H 0.54761 0.89466 0.54769
 C1788 C 0.56901 0.84320 0.56909
 O1789 O 0.57372 0.98028 0.39757
 O1790 O 0.59753 0.98029 0.37358
 C1791 C 0.58093 0.97323 0.38090
 C1792 C 0.57026 0.95624 0.37028
 C1793 C 0.57788 0.94844 0.35170
 H1794 H 0.59119 0.95548 0.34475
 O1795 O 0.42614 1.01976 0.39764
 O1796 O 0.40227 1.01990 0.37371
 C1797 C 0.41889 1.02689 0.38101
 C1798 C 0.42953 1.04394 0.37043
 C1799 C 0.42185 1.05177 0.35188
 H1800 H 0.40855 1.04471 0.34494
 O1801 O 0.47988 1.10233 0.42566
 O1802 O 0.47974 1.12622 0.40171
 C1803 C 0.47278 1.11895 0.41841
 C1804 C 0.45582 1.12954 0.42918
 C1805 C 0.44796 1.14811 0.42159
 H1806 H 0.45492 1.15507 0.40821
 O1807 O 0.51982 0.89821 0.42572
 O1808 O 0.51997 0.87422 0.40190
 C1809 C 0.52693 0.88157 0.41856
 C1810 C 0.54389 0.87102 0.42937
 C1811 C 0.55173 0.85244 0.42184
 H1812 H 0.54475 0.84545 0.40850
 O1813 O 0.60198 0.92634 0.47972
 O1814 O 0.62587 0.90247 0.47973
 C1815 C 0.61859 0.91908 0.47264
 C1816 C 0.62917 0.92975 0.45557
 C1817 C 0.64769 0.92212 0.44769
 H1818 H 0.65463 0.90878 0.45472
 O1819 O 0.39813 1.07401 0.47987
 O1820 O 0.37419 1.09784 0.47977
 C1821 C 0.38151 1.08121 0.47276
 C1822 C 0.37093 1.07045 0.45575
 C1823 C 0.35236 1.07802 0.44793
 H1824 H 0.34541 1.09135 0.45494
 O1825 O 0.51987 1.07432 0.39750
 O1826 O 0.51975 1.09813 0.37347
 C1827 C 0.52685 1.08153 0.38079
 C1828 C 0.54384 1.07085 0.37015
 C1829 C 0.55168 1.07849 0.35157
 H1830 H 0.54467 1.09185 0.34462
 O1831 O 0.47979 0.92600 0.39736
 O1832 O 0.47993 0.90209 0.37347
 C1833 C 0.47281 0.91870 0.38071
 C1834 C 0.45578 0.92930 0.37004
 C1835 C 0.44794 0.92161 0.35151
 H1836 H 0.45498 0.90827 0.34460
 O1837 O 0.60178 1.02025 0.42563
 O1838 O 0.62568 1.02029 0.40172
 C1839 C 0.61841 1.02730 0.41839
 C1840 C 0.62900 1.04424 0.42917
 C1841 C 0.64761 1.05200 0.42166
 H1842 H 0.65461 1.04497 0.40833
 O1843 O 0.39792 0.97980 0.42561
 O1844 O 0.37399 0.97991 0.40175
 C1845 C 0.38126 0.97284 0.41841
 C1846 C 0.37063 0.95592 0.42919
 C1847 C 0.35206 0.94809 0.42165
 H1848 H 0.34512 0.95505 0.40826
 O1849 O 0.57370 1.10243 0.47959
 O1850 O 0.59754 1.12632 0.47958
 C1851 C 0.58094 1.11907 0.47252
 C1852 C 0.57026 1.12970 0.45548
 C1853 C 0.57785 1.14825 0.44762
 H1854 H 0.59117 1.15518 0.45465
 O1855 O 0.42603 0.89810 0.47979
 O1856 O 0.40223 0.87418 0.47988
 C1857 C 0.41882 0.88145 0.47278
 C1858 C 0.42951 0.87080 0.45577
 C1859 C 0.42194 0.85221 0.44800
 H1860 H 0.40864 0.84528 0.45506
 O1861 O 0.42584 0.97972 0.39736
 O1862 O 0.40198 0.97983 0.37344
 C1863 C 0.41858 0.97272 0.38069
 C1864 C 0.42923 0.95570 0.37003
 C1865 C 0.42159 0.94778 0.35149
 H1866 H 0.40821 0.95472 0.34457
 O1867 O 0.57380 1.02031 0.39746
 O1868 O 0.59762 1.02034 0.37348
 C1869 C 0.58102 1.02738 0.38079
 C1870 C 0.57032 1.04438 0.37016
 C1871 C 0.57793 1.05225 0.35158
 H1872 H 0.59128 1.04525 0.34464
 O1873 O 0.47984 0.89809 0.42563
 O1874 O 0.47996 0.87410 0.40181
 C1875 C 0.47287 0.88141 0.41844
 C1876 C 0.45593 0.87078 0.42919
 C1877 C 0.44813 0.85220 0.42163
 H1878 H 0.45514 0.84525 0.40828
 O1879 O 0.51986 1.10242 0.42555
 O1880 O 0.51976 1.12630 0.40159
 C1881 C 0.52685 1.11906 0.41825
 C1882 C 0.54383 1.12970 0.42893
 C1883 C 0.55166 1.14824 0.42127
 H1884 H 0.54466 1.15517 0.40789
 O1885 O 0.39796 0.92614 0.47983
 O1886 O 0.37409 0.90227 0.47993
 C1887 C 0.38133 0.91889 0.47284
 C1888 C 0.37067 0.92956 0.45585
 C1889 C 0.35211 0.92196 0.44811
 H1890 H 0.34519 0.90867 0.45523
 O1891 O 0.60162 1.07424 0.47967
 O1892 O 0.62553 1.09806 0.47968
 C1893 C 0.61826 1.08143 0.47265
 C1894 C 0.62892 1.07069 0.45570
 C1895 C 0.64753 1.07822 0.44798
 H1896 H 0.65446 1.09152 0.45506
 O1897 O 0.51979 0.92621 0.39753
 O1898 O 0.51996 0.90230 0.37364
 C1899 C 0.52691 0.91897 0.38090
 C1900 C 0.54387 0.92971 0.37028
 C1901 C 0.55173 0.92213 0.35170
 H1902 H 0.54477 0.90878 0.34474
 O1903 O 0.47988 1.07417 0.39768
 O1904 O 0.47973 1.09798 0.37365
 C1905 C 0.47276 1.08135 0.38101
 C1906 C 0.45580 1.07058 0.37044
 C1907 C 0.44786 1.07821 0.35190
 H1908 H 0.45474 1.09162 0.34496
 O1909 O 0.39810 1.01981 0.42571
 O1910 O 0.37416 1.01994 0.40185
 C1911 C 0.38148 1.02693 0.41851
 C1912 C 0.37092 1.04393 0.42926
 C1913 C 0.35236 1.05173 0.42168
 H1914 H 0.34540 1.04469 0.40835
 O1915 O 0.60188 0.98025 0.42554
 O1916 O 0.62576 0.98026 0.40162
 C1917 C 0.61850 0.97321 0.41828
 C1918 C 0.62913 0.95622 0.42900
 C1919 C 0.64765 0.94837 0.42135
 H1920 H 0.65455 0.95538 0.40796
 O1921 O 0.57383 0.89844 0.47989
 O1922 O 0.59765 0.87450 0.47991
 C1923 C 0.58103 0.88178 0.47287
 C1924 C 0.57032 0.87113 0.45591
 C1925 C 0.57793 0.85254 0.44817
 H1926 H 0.59125 0.84564 0.45523
 O1927 O 0.42599 1.10221 0.47988
 O1928 O 0.40212 1.12611 0.47982
 C1929 C 0.41875 1.11885 0.47279
 C1930 C 0.42943 1.12948 0.45577
 C1931 C 0.42180 1.14805 0.44798
 H1932 H 0.40849 1.15497 0.45504
 Cu1933 Cu 0.58541 1.00027 0.41395
 Cu1934 Cu 0.61403 1.00030 0.38519
 Cu1935 Cu 0.41440 0.99973 0.41396
 Cu1936 Cu 0.38571 0.99992 0.38528
 Cu1937 Cu 0.58523 1.08595 0.49968
 Cu1938 Cu 0.61389 1.11458 0.49969
 Cu1939 Cu 0.58556 0.91483 0.49986
 Cu1940 Cu 0.61420 0.88613 0.49988
 Cu1941 Cu 0.41439 1.08576 0.49995
 Cu1942 Cu 0.38570 1.11441 0.49984
 Cu1943 Cu 0.41444 0.91456 0.49984
 Cu1944 Cu 0.38583 0.88587 0.49998
 Cu1945 Cu 0.49989 1.08592 0.41400
 Cu1946 Cu 0.49973 1.11455 0.38520
 Cu1947 Cu 0.49979 0.91453 0.41394
 Cu1948 Cu 0.49998 0.88578 0.38531
 C1949 C 0.55313 0.94689 0.37935
 H1950 H 0.54738 0.95261 0.39385
 C1951 C 0.56879 0.93133 0.34230
 C1952 C 0.44664 1.05332 0.37948
 H1953 H 0.45245 1.04755 0.39395
 C1954 C 0.43084 1.06896 0.34251
 C1955 C 0.44656 1.12046 0.44639
 H1956 H 0.45231 1.10598 0.45212
 C1957 C 0.43090 1.15747 0.43084
 C1958 C 0.55317 0.88013 0.44653
 H1959 H 0.54742 0.89463 0.45221
 C1960 C 0.56881 0.84310 0.43108
 C1961 C 0.62013 0.94692 0.44624
 H1962 H 0.60569 0.95268 0.45202
 C1963 C 0.65704 0.93127 0.43053
 C1964 C 0.37999 1.05328 0.44642
 H1965 H 0.39447 1.04757 0.45215
 C1966 C 0.34297 1.06882 0.43084
 C1967 C 0.55315 1.05367 0.37920
 H1968 H 0.54740 1.04790 0.39369
 C1969 C 0.56878 1.06936 0.34218
 C1970 C 0.44645 0.94647 0.37905
 H1971 H 0.45222 0.95228 0.39350
 C1972 C 0.43079 0.93068 0.34211
 C1973 C 0.61990 1.05357 0.44632
 H1974 H 0.60538 1.04788 0.45198
 C1975 C 0.65698 1.06904 0.43091
 C1976 C 0.37968 0.94667 0.44642
 H1977 H 0.39416 0.95241 0.45212
 C1978 C 0.34270 0.93106 0.43096
 C1979 C 0.55312 1.12067 0.44615
 H1980 H 0.54738 1.10621 0.45193
 C1981 C 0.56872 1.15764 0.43046
 C1982 C 0.44662 0.87984 0.44638
 H1983 H 0.45233 0.89434 0.45209
 C1984 C 0.43109 0.84281 0.43087
 O1985 O 0.48006 0.42602 0.89792
 O1986 O 0.48006 0.40213 0.87400
 C1987 C 0.47300 0.41875 0.88128
 C1988 C 0.45598 0.42940 0.87066
 C1989 C 0.44814 0.42173 0.85212
 H1990 H 0.45518 0.40840 0.84519
 O1991 O 0.51991 0.57384 0.89796
 O1992 O 0.51989 0.59774 0.87401
 C1993 C 0.52695 0.58111 0.88130
 C1994 C 0.54395 0.57046 0.87067
 C1995 C 0.55177 0.57812 0.85210
 H1996 H 0.54473 0.59146 0.84515
 O1997 O 0.39786 0.47991 0.92600
 O1998 O 0.37395 0.47997 0.90211
 C1999 C 0.38122 0.47291 0.91877
 C2000 C 0.37060 0.45597 0.92954
 C2001 C 0.35206 0.44811 0.92197
 H2002 H 0.34512 0.45507 0.90857
 O2003 O 0.60201 0.51985 0.92607
 O2004 O 0.62592 0.51989 0.90217
 C2005 C 0.61865 0.52688 0.91885
 C2006 C 0.62927 0.54378 0.92965
 C2007 C 0.64787 0.55156 0.92212
 H2008 H 0.65484 0.54457 0.90877
 O2009 O 0.42614 0.39826 0.98017
 O2010 O 0.40234 0.37433 0.98025
 C2011 C 0.41894 0.38160 0.97316
 C2012 C 0.42965 0.37094 0.95618
 C2013 C 0.42206 0.35236 0.94841
 H2014 H 0.40873 0.34546 0.95544
 O2015 O 0.57383 0.60172 0.98011
 O2016 O 0.59767 0.62562 0.98012
 C2017 C 0.58106 0.61836 0.97305
 C2018 C 0.57037 0.62901 0.95605
 C2019 C 0.57797 0.64757 0.94821
 H2020 H 0.59131 0.65447 0.95523
 O2021 O 0.42603 0.51985 0.89795
 O2022 O 0.40219 0.51994 0.87399
 C2023 C 0.41881 0.52694 0.88128
 C2024 C 0.42949 0.54393 0.87066
 C2025 C 0.42185 0.55179 0.85210
 H2026 H 0.40852 0.54479 0.84517
 O2027 O 0.57392 0.47997 0.89791
 O2028 O 0.59775 0.47999 0.87394
 C2029 C 0.58114 0.47296 0.88123
 C2030 C 0.57045 0.45601 0.87058
 C2031 C 0.57807 0.44820 0.85200
 H2032 H 0.59140 0.45523 0.84506
 O2033 O 0.52009 0.39799 0.92605
 O2034 O 0.52009 0.37404 0.90219
 C2035 C 0.52712 0.38132 0.91884
 C2036 C 0.54404 0.37067 0.92962
 C2037 C 0.55183 0.35209 0.92204
 H2038 H 0.54485 0.34518 0.90866
 O2039 O 0.47993 0.60181 0.92614
 O2040 O 0.47989 0.62577 0.90226
 C2041 C 0.47288 0.61847 0.91892
 C2042 C 0.45595 0.62907 0.92969
 C2043 C 0.44810 0.64762 0.92205
 H2044 H 0.45505 0.65453 0.90864
 O2045 O 0.39806 0.57396 0.98041
 O2046 O 0.37416 0.59782 0.98028
 C2047 C 0.38146 0.58119 0.97327
 C2048 C 0.37092 0.57049 0.95621
 C2049 C 0.35238 0.57810 0.94835
 H2050 H 0.34543 0.59143 0.95537
 O2051 O 0.60197 0.42589 0.98014
 O2052 O 0.62582 0.40198 0.98017
 C2053 C 0.61857 0.41861 0.97307
 C2054 C 0.62916 0.42927 0.95600
 C2055 C 0.64768 0.42163 0.94810
 H2056 H 0.65461 0.40827 0.95510
 O2057 O 0.47993 0.57386 0.89795
 O2058 O 0.47988 0.59776 0.87400
 C2059 C 0.47286 0.58112 0.88129
 C2060 C 0.45589 0.57044 0.87066
 C2061 C 0.44801 0.57810 0.85211
 H2062 H 0.45496 0.59147 0.84517
 O2063 O 0.52005 0.42604 0.89788
 O2064 O 0.52008 0.40216 0.87396
 C2065 C 0.52709 0.41880 0.88122
 C2066 C 0.54404 0.42951 0.87056
 C2067 C 0.55189 0.42192 0.85197
 H2068 H 0.54492 0.40858 0.84502
 O2069 O 0.60193 0.47985 0.92603
 O2070 O 0.62583 0.47986 0.90212
 C2071 C 0.61855 0.47280 0.91877
 C2072 C 0.62914 0.45578 0.92948
 C2073 C 0.64766 0.44795 0.92183
 H2074 H 0.65457 0.45499 0.90846
 O2075 O 0.39812 0.51992 0.92615
 O2076 O 0.37421 0.52001 0.90227
 C2077 C 0.38151 0.52702 0.91892
 C2078 C 0.37095 0.54403 0.92966
 C2079 C 0.35242 0.55187 0.92203
 H2080 H 0.34549 0.54487 0.90867
 O2081 O 0.42611 0.60195 0.98048
 O2082 O 0.40228 0.62588 0.98036
 C2083 C 0.41890 0.61857 0.97336
 C2084 C 0.42959 0.62913 0.95631
 C2085 C 0.42197 0.64767 0.94845
 H2086 H 0.40867 0.65463 0.95551
 O2087 O 0.57392 0.39788 0.98024
 O2088 O 0.59770 0.37390 0.98031
 C2089 C 0.58111 0.38121 0.97323
 C2090 C 0.57041 0.37060 0.95622
 C2091 C 0.57799 0.35202 0.94841
 H2092 H 0.59129 0.34505 0.95548
 O2093 O 0.57397 0.51999 0.89797
 O2094 O 0.59781 0.52003 0.87400
 C2095 C 0.58120 0.52706 0.88130
 C2096 C 0.57049 0.54406 0.87069
 C2097 C 0.57810 0.55195 0.85212
 H2098 H 0.59146 0.54499 0.84518
 O2099 O 0.42598 0.47983 0.89796
 O2100 O 0.40214 0.47988 0.87400
 C2101 C 0.41874 0.47280 0.88129
 C2102 C 0.42943 0.45580 0.87066
 C2103 C 0.42180 0.44790 0.85211
 H2104 H 0.40843 0.45485 0.84518
 O2105 O 0.51990 0.60186 0.92606
 O2106 O 0.51988 0.62583 0.90218
 C2107 C 0.52692 0.61852 0.91883
 C2108 C 0.54389 0.62910 0.92955
 C2109 C 0.55171 0.64767 0.92194
 H2110 H 0.54469 0.65464 0.90859
 O2111 O 0.48013 0.39805 0.92611
 O2112 O 0.48011 0.37409 0.90226
 C2113 C 0.47309 0.38140 0.91891
 C2114 C 0.45613 0.37083 0.92968
 C2115 C 0.44833 0.35226 0.92212
 H2116 H 0.45535 0.34528 0.90879
 O2117 O 0.60190 0.57368 0.98020
 O2118 O 0.62579 0.59752 0.98023
 C2119 C 0.61855 0.58090 0.97318
 C2120 C 0.62921 0.57018 0.95622
 C2121 C 0.64781 0.57775 0.94848
 H2122 H 0.65473 0.59105 0.95556
 O2123 O 0.39795 0.42620 0.98019
 O2124 O 0.37411 0.40232 0.98029
 C2125 C 0.38133 0.41894 0.97319
 C2126 C 0.37066 0.42959 0.95617
 C2127 C 0.35212 0.42195 0.94840
 H2128 H 0.34522 0.40863 0.95549
 Cu2129 Cu 0.50010 0.41442 0.91438
 Cu2130 Cu 0.50009 0.38571 0.88570
 Cu2131 Cu 0.49992 0.58544 0.91442
 Cu2132 Cu 0.49988 0.61418 0.88571
 Cu2133 Cu 0.41439 0.49985 0.91441
 Cu2134 Cu 0.38573 0.49996 0.88569
 Cu2135 Cu 0.58557 0.49992 0.91439
 Cu2136 Cu 0.61422 0.49995 0.88565
 C2137 C 0.44664 0.44655 0.87970
 H2138 H 0.45240 0.45235 0.89416
 C2139 C 0.43100 0.43081 0.84273
 C2140 C 0.55330 0.55331 0.87973
 H2141 H 0.54755 0.54753 0.89422
 C2142 C 0.56890 0.56903 0.84271
 C2143 C 0.37965 0.44672 0.94677
 H2144 H 0.39410 0.45249 0.95249
 C2145 C 0.34270 0.43105 0.93124
 C2146 C 0.62019 0.55307 0.94682
 H2147 H 0.60569 0.54737 0.95250
 C2148 C 0.65723 0.56861 0.93137
 C2149 C 0.44681 0.37993 0.94684
 H2150 H 0.45254 0.39442 0.95254
 C2151 C 0.43123 0.34292 0.93132
 C2152 C 0.55321 0.62002 0.94673
 H2153 H 0.54747 0.60555 0.95248
 C2154 C 0.56881 0.65700 0.93110
 C2155 C 0.44664 0.55323 0.87970
 H2156 H 0.45241 0.54745 0.89418
 C2157 C 0.43093 0.56893 0.84272
 C2158 C 0.55331 0.44668 0.87962
 H2159 H 0.54756 0.45241 0.89412
 C2160 C 0.56897 0.43111 0.84259
 C2161 C 0.55331 0.37969 0.94683
 H2162 H 0.54760 0.39418 0.95255
 C2163 C 0.56887 0.34266 0.93126
 C2164 C 0.44671 0.62006 0.94695
 H2165 H 0.45247 0.60560 0.95272
 C2166 C 0.43106 0.65702 0.93128
 C2167 C 0.37997 0.55333 0.94687
 H2168 H 0.39443 0.54758 0.95263
 C2169 C 0.34303 0.56896 0.93121
 C2170 C 0.62013 0.44646 0.94669
 H2171 H 0.60569 0.45223 0.95248
 C2172 C 0.65704 0.43083 0.93096
 O2173 O 0.51981 0.42606 1.10309
 O2174 O 0.51976 0.40210 1.12697
 C2175 C 0.52683 0.41874 1.11974
 C2176 C 0.54383 0.42935 1.13038
 C2177 C 0.55167 0.42168 1.14895
 H2178 H 0.54461 0.40837 1.15591
 O2179 O 0.47987 0.57399 1.10268
 O2180 O 0.47998 0.59784 1.12663
 C2181 C 0.47291 0.58122 1.11938
 C2182 C 0.45599 0.57055 1.13009
 C2183 C 0.44826 0.57816 1.14871
 H2184 H 0.45533 0.59147 1.15563
 O2185 O 0.39790 0.52024 1.07478
 O2186 O 0.37395 0.52022 1.09864
 C2187 C 0.38124 0.52726 1.08198
 C2188 C 0.37062 0.54421 1.07120
 C2189 C 0.35206 0.55205 1.07875
 H2190 H 0.34512 0.54509 1.09215
 O2191 O 0.60175 0.47964 1.07459
 O2192 O 0.62569 0.47967 1.09845
 C2193 C 0.61842 0.47264 1.08179
 C2194 C 0.62908 0.45574 1.07101
 C2195 C 0.64765 0.44794 1.07859
 H2196 H 0.65455 0.45491 1.09198
 O2197 O 0.57382 0.39809 1.02037
 O2198 O 0.59760 0.37412 1.02046
 C2199 C 0.58101 0.38147 1.02750
 C2200 C 0.57032 0.37093 1.04459
 C2201 C 0.57791 0.35237 1.05245
 H2202 H 0.59121 0.34541 1.04540
 O2203 O 0.42587 0.60211 1.02060
 O2204 O 0.40203 0.62603 1.02050
 C2205 C 0.41862 0.61876 1.02763
 C2206 C 0.42926 0.62938 1.04468
 C2207 C 0.42162 0.64790 1.05257
 H2208 H 0.40827 0.65483 1.04557
 O2209 O 0.42593 0.48017 1.10287
 O2210 O 0.40206 0.48016 1.12681
 C2211 C 0.41866 0.47310 1.11952
 C2212 C 0.42928 0.45605 1.13014
 C2213 C 0.42156 0.44817 1.14866
 H2214 H 0.40822 0.45520 1.15556
 O2215 O 0.57368 0.51967 1.10262
 O2216 O 0.59753 0.51973 1.12656
 C2217 C 0.58092 0.52676 1.11926
 C2218 C 0.57025 0.54379 1.12985
 C2219 C 0.57787 0.55159 1.14843
 H2220 H 0.59116 0.54451 1.15539
 O2221 O 0.47993 0.39820 1.07472
 O2222 O 0.47986 0.37415 1.09852
 C2223 C 0.47290 0.38151 1.08186
 C2224 C 0.45602 0.37092 1.07099
 C2225 C 0.44824 0.35229 1.07848
 H2226 H 0.45518 0.34530 1.09186
 O2227 O 0.51975 0.60196 1.07437
 O2228 O 0.51988 0.62590 1.09824
 C2229 C 0.52684 0.61859 1.08156
 C2230 C 0.54378 0.62916 1.07075
 C2231 C 0.55159 0.64775 1.07827
 H2232 H 0.54460 0.65474 1.09161
 O2233 O 0.39816 0.42634 1.02033
 O2234 O 0.37433 0.40245 1.02043
 C2235 C 0.38159 0.41908 1.02746
 C2236 C 0.37101 0.42973 1.04454
 C2237 C 0.35255 0.42203 1.05245
 H2238 H 0.34567 0.40867 1.04544
 O2239 O 0.60174 0.57363 1.02030
 O2240 O 0.62563 0.59747 1.02034
 C2241 C 0.61835 0.58084 1.02739
 C2242 C 0.62895 0.57012 1.04441
 C2243 C 0.64752 0.57769 1.05219
 H2244 H 0.65445 0.59100 1.04512
 O2245 O 0.51984 0.57394 1.10254
 O2246 O 0.51998 0.59781 1.12649
 C2247 C 0.52695 0.58116 1.11919
 C2248 C 0.54391 0.57039 1.12981
 C2249 C 0.55177 0.57797 1.14839
 H2250 H 0.54482 0.59135 1.15533
 O2251 O 0.47980 0.42612 1.10296
 O2252 O 0.47972 0.40215 1.12683
 C2253 C 0.47269 0.41881 1.11958
 C2254 C 0.45566 0.42948 1.13018
 C2255 C 0.44769 0.42179 1.14869
 H2256 H 0.45460 0.40838 1.15562
 O2257 O 0.60176 0.51965 1.07459
 O2258 O 0.62569 0.51970 1.09846
 C2259 C 0.61839 0.52671 1.08179
 C2260 C 0.62897 0.54367 1.07100
 C2261 C 0.64753 0.55148 1.07856
 H2262 H 0.65449 0.54447 1.09193
 O2263 O 0.39808 0.48023 1.07463
 O2264 O 0.37414 0.48018 1.09850
 C2265 C 0.38147 0.47316 1.08184
 C2266 C 0.37094 0.45616 1.07111
 C2267 C 0.35246 0.44824 1.07878
 H2268 H 0.34554 0.45518 1.09219
 O2269 O 0.57374 0.60173 1.02021
 O2270 O 0.59757 0.62563 1.02023
 C2271 C 0.58094 0.61837 1.02725
 C2272 C 0.57022 0.62903 1.04420
 C2273 C 0.57780 0.64762 1.05194
 H2274 H 0.59112 0.65452 1.04487
 O2275 O 0.42620 0.39828 1.02027
 O2276 O 0.40241 0.37433 1.02033
 C2277 C 0.41901 0.38162 1.02734
 C2278 C 0.42972 0.37098 1.04433
 C2279 C 0.42217 0.35236 1.05203
 H2280 H 0.40890 0.34543 1.04490
 O2281 O 0.57387 0.47965 1.10290
 O2282 O 0.59774 0.47967 1.12684
 C2283 C 0.58112 0.47263 1.11960
 C2284 C 0.57041 0.45569 1.13030
 C2285 C 0.57802 0.44780 1.14888
 H2286 H 0.59141 0.45473 1.15578
 O2287 O 0.42596 0.52019 1.10288
 O2288 O 0.40209 0.52021 1.12682
 C2289 C 0.41872 0.52722 1.11955
 C2290 C 0.42946 0.54416 1.13019
 C2291 C 0.42195 0.55200 1.14882
 H2292 H 0.40861 0.54504 1.15581
 O2293 O 0.47976 0.60210 1.07460
 O2294 O 0.47986 0.62602 1.09849
 C2295 C 0.47275 0.61874 1.08187
 C2296 C 0.45574 0.62937 1.07120
 C2297 C 0.44788 0.64789 1.07886
 H2298 H 0.45489 0.65481 1.09223
 O2299 O 0.51989 0.39825 1.07476
 O2300 O 0.51986 0.37422 1.09857
 C2301 C 0.52692 0.38157 1.08194
 C2302 C 0.54390 0.37098 1.07119
 C2303 C 0.55173 0.35241 1.07881
 H2304 H 0.54475 0.34549 1.09220
 O2305 O 0.60199 0.42596 1.02026
 O2306 O 0.62585 0.40206 1.02032
 C2307 C 0.61860 0.41871 1.02734
 C2308 C 0.62919 0.42939 1.04437
 C2309 C 0.64775 0.42180 1.05218
 H2310 H 0.65473 0.40852 1.04510
 O2311 O 0.39792 0.57400 1.02053
 O2312 O 0.37401 0.59786 1.02042
 C2313 C 0.38127 0.58124 1.02752
 C2314 C 0.37063 0.57058 1.04454
 C2315 C 0.35206 0.57818 1.05229
 H2316 H 0.34512 0.59148 1.04518
 Cu2317 Cu 0.49986 0.41457 1.08651
 Cu2318 Cu 0.49979 0.38575 1.11511
 Cu2319 Cu 0.49980 0.58561 1.08615
 Cu2320 Cu 0.49994 0.61429 1.11486
 Cu2321 Cu 0.41449 0.41468 1.00022
 Cu2322 Cu 0.38590 0.38596 1.00033
 Cu2323 Cu 0.58555 0.41436 1.00023
 Cu2324 Cu 0.61413 0.38561 1.00033
 Cu2325 Cu 0.41438 0.58562 1.00053
 Cu2326 Cu 0.38573 0.61429 1.00037
 Cu2327 Cu 0.58542 0.58530 1.00020
 Cu2328 Cu 0.61406 0.61396 1.00024
 Cu2329 Cu 0.41436 0.50023 1.08640
 Cu2330 Cu 0.38566 0.50020 1.11509
 Cu2331 Cu 0.58537 0.49963 1.08629
 Cu2332 Cu 0.61406 0.49969 1.11498
 C2333 C 0.55319 0.44648 1.12131
 H2334 H 0.54744 0.45226 1.10682
 C2335 C 0.56882 0.43074 1.15832
 C2336 C 0.44661 0.55342 1.12108
 H2337 H 0.45229 0.54768 1.10655
 C2338 C 0.43119 0.56906 1.15818
 C2339 C 0.37967 0.55347 1.05397
 H2340 H 0.39416 0.54773 1.04827
 C2341 C 0.34267 0.56909 1.06946
 C2342 C 0.62009 0.44648 1.05377
 H2343 H 0.60561 0.45220 1.04804
 C2344 C 0.65709 0.43091 1.06935
 C2345 C 0.55319 0.38001 1.05395
 H2346 H 0.54745 0.39449 1.04819
 C2347 C 0.56878 0.34301 1.06961
 C2348 C 0.44644 0.62035 1.05399
 H2349 H 0.45221 0.60591 1.04820
 C2350 C 0.43077 0.65728 1.06971
 C2351 C 0.44646 0.44673 1.12114
 H2352 H 0.45230 0.45254 1.10670
 C2353 C 0.43059 0.43099 1.15804
 C2354 C 0.55315 0.55318 1.12077
 H2355 H 0.54739 0.54745 1.10627
 C2356 C 0.56881 0.56873 1.15780
 C2357 C 0.44678 0.38003 1.05379
 H2358 H 0.45247 0.39456 1.04813
 C2359 C 0.43124 0.34292 1.06917
 C2360 C 0.55308 0.62004 1.05359
 H2361 H 0.54736 0.60554 1.04791
 C2362 C 0.56867 0.65707 1.06903
 C2363 C 0.37997 0.44693 1.05386
 H2364 H 0.39436 0.45276 1.04804
 C2365 C 0.34316 0.43113 1.06960
 C2366 C 0.61991 0.55299 1.05380
 H2367 H 0.60543 0.54727 1.04809
 C2368 C 0.65691 0.56854 1.06932
 C2369 C 1.10397 1.10340 1.22901
 N2370 N 1.12122 1.09535 1.23738
 N2371 N 1.12985 1.10400 1.25376
 C2372 C 1.12153 1.12102 1.26235
 N2373 N 1.10426 1.12905 1.25400
 N2374 N 1.09564 1.12041 1.23762
 C2375 C 1.09463 1.09408 1.21077
 N2376 N 1.07763 1.10241 1.20218
 N2377 N 1.06938 1.09420 1.18540
 C2378 C 1.07779 1.07733 1.17653
 N2379 N 1.09476 1.06899 1.18525
 N2380 N 1.10302 1.07719 1.20203
 C2381 C 1.10425 0.60355 0.72902
 N2382 N 1.12152 0.59550 0.73737
 N2383 N 1.13014 0.60413 0.75375
 C2384 C 1.12181 0.62113 0.76237
 N2385 N 1.10453 0.62916 0.75404
 N2386 N 1.09591 0.62053 0.73766
 C2387 C 1.09490 0.59424 0.71079
 N2388 N 1.07787 0.60255 0.70223
 N2389 N 1.06960 0.59433 0.68546
 C2390 C 1.07800 0.57747 0.67658
 N2391 N 1.09500 0.56915 0.68526
 N2392 N 1.10329 0.57736 0.70202
 C2393 C 0.60436 1.10416 0.72901
 N2394 N 0.62126 1.09572 0.73773
 N2395 N 0.62977 1.10420 0.75426
 C2396 C 0.62171 1.12145 0.76268
 N2397 N 0.60480 1.12986 0.75394
 N2398 N 0.59630 1.12139 0.73742
 C2399 C 0.59507 1.09496 0.71066
 N2400 N 0.57839 1.10364 0.70179
 N2401 N 0.57011 1.09547 0.68499
 C2402 C 0.57817 1.07830 0.67639
 N2403 N 0.59484 1.06962 0.68537
 N2404 N 0.60312 1.07778 0.70217
 C2405 C 0.60397 0.60356 1.22928
 N2406 N 0.62108 0.59534 1.23779
 N2407 N 0.62971 0.60398 1.25417
 C2408 C 0.62156 0.62115 1.26261
 N2409 N 0.60444 0.62934 1.25411
 N2410 N 0.59581 0.62071 1.23774
 C2411 C 0.59459 0.59423 1.21106
 N2412 N 0.57767 0.60266 1.20241
 N2413 N 0.56937 0.59445 1.18565
 C2414 C 0.57765 0.57748 1.17687
 N2415 N 0.59455 0.56904 1.18563
 N2416 N 0.60285 0.57724 1.20239
 C2417 C 0.89570 0.89608 1.22925
 N2418 N 0.90379 0.87889 1.23771
 N2419 N 0.89523 0.87036 1.25419
 C2420 C 0.87823 0.87869 1.26283
 N2421 N 0.87014 0.89591 1.25436
 N2422 N 0.87871 0.90443 1.23787
 C2423 C 0.90505 0.90535 1.21096
 N2424 N 0.89681 0.92234 1.20226
 N2425 N 0.90511 0.93052 1.18548
 C2426 C 0.92201 0.92207 1.17672
 N2427 N 0.93027 0.90510 1.18554
 N2428 N 0.92197 0.89690 1.20232
 C2429 C 0.89571 0.39607 0.72913
 N2430 N 0.90374 0.37883 0.73757
 N2431 N 0.89515 0.37032 0.75405
 C2432 C 0.87819 0.37871 0.76271
 N2433 N 0.87017 0.39597 0.75426
 N2434 N 0.87876 0.40448 0.73778
 C2435 C 0.90509 0.40530 0.71084
 N2436 N 0.89694 0.42237 0.70218
 N2437 N 0.90527 0.43052 0.68539
 C2438 C 0.92209 0.42197 0.67658
 N2439 N 0.93026 0.40493 0.68535
 N2440 N 0.92193 0.39676 0.70214
 C2441 C 0.39608 0.89671 0.72922
 N2442 N 0.37854 0.90448 0.73727
 N2443 N 0.36981 0.89574 0.75355
 C2444 C 0.37828 0.87889 0.76236
 N2445 N 0.39581 0.87113 0.75432
 N2446 N 0.40455 0.87987 0.73804
 C2447 C 0.40554 0.90613 0.71107
 N2448 N 0.42289 0.89814 0.70284
 N2449 N 0.43118 0.90637 0.68607
 C2450 C 0.42249 0.92291 0.67686
 N2451 N 0.40520 0.93094 0.68523
 N2452 N 0.39689 0.92272 0.70200
 C2453 C 0.39525 0.39636 1.22964
 N2454 N 0.40351 0.37936 1.23834
 N2455 N 0.39486 0.37081 1.25476
 C2456 C 0.37760 0.37892 1.26310
 N2457 N 0.36936 0.39595 1.25441
 N2458 N 0.37802 0.40451 1.23798
 C2459 C 0.40465 0.40559 1.21135
 N2460 N 0.39639 0.42254 1.20257
 N2461 N 0.40473 0.43068 1.18578
 C2462 C 0.42166 0.42223 1.17709
 N2463 N 0.42993 0.40530 1.18598
 N2464 N 0.42160 0.39714 1.20278
 C2465 C 0.89588 1.10368 0.77077
 N2466 N 0.90389 1.12093 0.76235
 N2467 N 0.89527 1.12947 0.74590
 C2468 C 0.87831 1.12109 0.73730
 N2469 N 0.87029 1.10384 0.74571
 N2470 N 0.87892 1.09530 0.76216
 C2471 C 0.90527 1.09442 0.78904
 N2472 N 0.89714 1.07734 0.79766
 N2473 N 0.90547 1.06917 0.81444
 C2474 C 0.92227 1.07772 0.82327
 N2475 N 0.93042 1.09477 0.81452
 N2476 N 0.92210 1.10296 0.79774
 C2477 C 0.89612 0.60338 0.27071
 N2478 N 0.90436 0.62039 0.26205
 N2479 N 0.89566 0.62902 0.24569
 C2480 C 0.87839 0.62096 0.23741
 N2481 N 0.87015 0.60393 0.24605
 N2482 N 0.87886 0.59529 0.26241
 C2483 C 0.90554 0.59408 0.28894
 N2484 N 0.89721 0.57719 0.29775
 N2485 N 0.90552 0.56904 0.31455
 C2486 C 0.92248 0.57742 0.32321
 N2487 N 0.93083 0.59428 0.31428
 N2488 N 0.92253 0.60245 0.29748
 C2489 C 0.39564 1.10353 0.27088
 N2490 N 0.40356 1.12087 0.26256
 N2491 N 0.39496 1.12939 0.24610
 C2492 C 0.37813 1.12090 0.23736
 N2493 N 0.37022 1.10355 0.24566
 N2494 N 0.37881 1.09502 0.26213
 C2495 C 0.40499 1.09432 0.28918
 N2496 N 0.39701 1.07711 0.29767
 N2497 N 0.40533 1.06897 0.31448
 C2498 C 0.42195 1.07770 0.32345
 N2499 N 0.42994 1.09490 0.31485
 N2500 N 0.42163 1.10304 0.29804
 C2501 C 0.39586 0.60367 0.77109
 N2502 N 0.40387 0.62093 0.76270
 N2503 N 0.39530 0.62947 0.74623
 C2504 C 0.37839 0.62107 0.73756
 N2505 N 0.37037 0.60380 0.74593
 N2506 N 0.37895 0.59526 0.76241
 C2507 C 0.40520 0.59442 0.78939
 N2508 N 0.39707 0.57731 0.79795
 N2509 N 0.40535 0.56913 0.81476
 C2510 C 0.42209 0.57772 0.82366
 N2511 N 0.43022 0.59481 0.81498
 N2512 N 0.42195 0.60300 0.79818
 C2513 C 1.10407 0.89632 0.77076
 N2514 N 1.09591 0.87917 0.76231
 N2515 N 1.10451 0.87055 0.74590
 C2516 C 1.12159 0.87876 0.73735
 N2517 N 1.12975 0.89592 0.74579
 N2518 N 1.12115 0.90454 0.76221
 C2519 C 1.09471 0.90565 0.78899
 N2520 N 1.10297 0.92264 0.79763
 N2521 N 1.09468 0.93087 0.81439
 C2522 C 1.07778 0.92245 0.82318
 N2523 N 1.06950 0.90549 0.81441
 N2524 N 1.07779 0.89726 0.79765
 C2525 C 1.10438 0.39615 0.27110
 N2526 N 1.09639 0.37878 0.26291
 N2527 N 1.10487 0.37021 0.24642
 C2528 C 1.12166 0.37868 0.23753
 N2529 N 1.12964 0.39604 0.24572
 N2530 N 1.12116 0.40462 0.26220
 C2531 C 1.09509 0.40547 0.28937
 N2532 N 1.10307 0.42277 0.29768
 N2533 N 1.09479 0.43101 0.31445
 C2534 C 1.07821 0.42230 0.32356
 N2535 N 1.07024 0.40503 0.31512
 N2536 N 1.07850 0.39679 0.29837
 C2537 C 0.60392 0.89651 0.27077
 N2538 N 0.59588 0.87927 0.26241
 N2539 N 0.60449 0.87066 0.24600
 C2540 C 0.62147 0.87898 0.23737
 N2541 N 0.62952 0.89623 0.24571
 N2542 N 0.62091 0.90484 0.26212
 C2543 C 0.59455 0.90583 0.28900
 N2544 N 0.60273 0.92289 0.29759
 N2545 N 0.59444 0.93109 0.31436
 C2546 C 0.57762 0.92259 0.32322
 N2547 N 0.56942 0.90556 0.31450
 N2548 N 0.57771 0.89735 0.29773
 C2549 C 0.60411 0.39637 0.77102
 N2550 N 0.59580 0.37940 0.76236
 N2551 N 0.60443 0.37079 0.74597
 C2552 C 0.62170 0.37883 0.73764
 N2553 N 0.63001 0.39582 0.74628
 N2554 N 0.62137 0.40443 0.76268
 C2555 C 0.59473 0.40566 0.78926
 N2556 N 0.60310 0.42253 0.79805
 N2557 N 0.59480 0.43071 0.81484
 C2558 C 0.57781 0.42237 0.82351
 N2559 N 0.56943 0.40553 0.81460
 N2560 N 0.57771 0.39734 0.79781
 C2561 C 1.22821 1.10359 1.10390
 N2562 N 1.23701 1.09522 1.12083
 N2563 N 1.25347 1.10381 1.12929
 C2564 C 1.26171 1.12108 1.12113
 N2565 N 1.25292 1.12943 1.10420
 N2566 N 1.23647 1.12085 1.09574
 C2567 C 1.20996 1.09427 1.09467
 N2568 N 1.20108 1.10280 1.07789
 N2569 N 1.18434 1.09455 1.06968
 C2570 C 1.17582 1.07742 1.07790
 N2571 N 1.18480 1.06887 1.09467
 N2572 N 1.20155 1.07712 1.10289
 C2573 C 1.22859 0.60368 0.60387
 N2574 N 1.23691 0.62089 0.59569
 N2575 N 1.25336 0.62946 0.60416
 C2576 C 1.26208 0.62114 0.62115
 N2577 N 1.25378 0.60391 0.62933
 N2578 N 1.23732 0.59534 0.62085
 C2579 C 1.21031 0.59440 0.59465
 N2580 N 1.20178 0.57735 0.60296
 N2581 N 1.18500 0.56916 0.59478
 C2582 C 1.17607 0.57766 0.57796
 N2583 N 1.18471 0.59468 0.56964
 N2584 N 1.20149 0.60289 0.57781
 C2585 C 0.72830 1.10398 0.60363
 N2586 N 0.73701 1.09561 0.62060
 N2587 N 0.75347 1.10415 0.62911
 C2588 C 0.76180 1.12138 0.62095
 N2589 N 0.75310 1.12974 0.60398
 N2590 N 0.73664 1.12120 0.59548
 C2591 C 0.71004 1.09471 0.59436
 N2592 N 0.70125 1.10321 0.57750
 N2593 N 0.68449 1.09501 0.56929
 C2594 C 0.67584 1.07797 0.57758
 N2595 N 0.68474 1.06945 0.59441
 N2596 N 0.70151 1.07764 0.60263
 C2597 C 0.72838 0.60351 1.10404
 N2598 N 0.73680 0.59551 1.12133
 N2599 N 0.75318 0.60418 1.12986
 C2600 C 0.76172 0.62116 1.12141
 N2601 N 0.75331 0.62914 1.10410
 N2602 N 0.73693 0.62048 1.09558
 C2603 C 0.71016 0.59414 1.09477
 N2604 N 0.70155 0.60238 1.07770
 N2605 N 0.68479 0.59413 1.06952
 C2606 C 0.67597 0.57731 1.07805
 N2607 N 0.68471 0.56904 1.09510
 N2608 N 0.70147 0.57728 1.10329
 C2609 C 1.22864 0.89649 0.89634
 N2610 N 1.23742 0.87969 0.90492
 N2611 N 1.25371 0.87095 0.89626
 C2612 C 1.26179 0.87868 0.87869
 N2613 N 1.25302 0.89549 0.87010
 N2614 N 1.23673 0.90422 0.87876
 C2615 C 1.21050 0.90593 0.90573
 N2616 N 1.20147 0.92249 0.89696
 N2617 N 1.18472 0.93072 0.90520
 C2618 C 1.17632 0.92274 0.92255
 N2619 N 1.18549 0.90624 0.93135
 N2620 N 1.20225 0.89800 0.92312
 C2621 C 1.22876 0.39618 0.39543
 N2622 N 1.23741 0.37922 0.40382
 N2623 N 1.25383 0.37065 0.39525
 C2624 C 1.26222 0.37870 0.37796
 N2625 N 1.25358 0.39569 0.36958
 N2626 N 1.23715 0.40427 0.37815
 C2627 C 1.21050 0.40546 0.40476
 N2628 N 1.20174 0.42236 0.39636
 N2629 N 1.18499 0.43054 0.40465
 C2630 C 1.17630 0.42218 0.42167
 N2631 N 1.18517 0.40530 0.43008
 N2632 N 1.20192 0.39711 0.42180
 C2633 C 0.72852 0.89641 0.39554
 N2634 N 0.73721 0.90477 0.37854
 N2635 N 0.75368 0.89622 0.37003
 C2636 C 0.76204 0.87900 0.37819
 N2637 N 0.75335 0.87066 0.39518
 N2638 N 0.73689 0.87920 0.40369
 C2639 C 0.71026 0.90571 0.40484
 N2640 N 0.70153 0.89724 0.42174
 N2641 N 0.68477 0.90547 0.42999
 C2642 C 0.67607 0.92248 0.42170
 N2643 N 0.68492 0.93096 0.40482
 N2644 N 0.70168 0.92275 0.39656
 C2645 C 0.72852 0.39619 0.89576
 N2646 N 0.73691 0.37893 0.90381
 N2647 N 0.75336 0.37044 0.89522
 C2648 C 0.76201 0.37888 0.87826
 N2649 N 0.75364 0.39615 0.87020
 N2650 N 0.73718 0.40464 0.87880
 C2651 C 0.71026 0.40542 0.90514
 N2652 N 0.70169 0.42252 0.89697
 N2653 N 0.68493 0.43067 0.90528
 C2654 C 0.67608 0.42209 0.92210
 N2655 N 0.68477 0.40502 0.93029
 N2656 N 0.70153 0.39685 0.92198
 C2657 C 0.77149 0.89614 1.10382
 N2658 N 0.76279 0.90443 1.12083
 N2659 N 0.74636 0.89583 1.12935
 C2660 C 0.73806 0.87861 1.12118
 N2661 N 0.74675 0.87033 1.10417
 N2662 N 0.76317 0.87892 1.09565
 C2663 C 0.78972 0.90547 1.09454
 N2664 N 0.79850 0.89705 1.07765
 N2665 N 0.81525 0.90529 1.06944
 C2666 C 0.82391 0.92228 1.07776
 N2667 N 0.81501 0.93073 1.09462
 N2668 N 0.79825 0.92250 1.10284
 C2669 C 0.77156 0.39629 0.60390
 N2670 N 0.76297 0.37933 0.59549
 N2671 N 0.74658 0.37071 0.60407
 C2672 C 0.73821 0.37871 0.62137
 N2673 N 0.74679 0.39569 0.62977
 N2674 N 0.76317 0.40432 0.62119
 C2675 C 0.78979 0.40561 0.59458
 N2676 N 0.79852 0.42246 0.60304
 N2677 N 0.81529 0.43066 0.59479
 C2678 C 0.82398 0.42236 0.57776
 N2679 N 0.81512 0.40554 0.56928
 N2680 N 0.79836 0.39733 0.57752
 C2681 C 0.27148 0.89631 0.60377
 N2682 N 0.26307 0.87921 0.59547
 N2683 N 0.24667 0.87056 0.60398
 C2684 C 0.23808 0.87870 0.62111
 N2685 N 0.24647 0.89581 0.62941
 N2686 N 0.26288 0.90446 0.62091
 C2687 C 0.28969 0.90569 0.59450
 N2688 N 0.29831 0.92263 0.60292
 N2689 N 0.31505 0.93088 0.59469
 C2690 C 0.32385 0.92255 0.57772
 N2691 N 0.31511 0.90565 0.56929
 N2692 N 0.29837 0.89739 0.57751
 C2693 C 0.27173 0.39597 1.10425
 N2694 N 0.26358 0.37866 1.09612
 N2695 N 0.24708 0.37007 1.10449
 C2696 C 0.23814 0.37847 1.12133
 N2697 N 0.24629 0.39578 1.12946
 N2698 N 0.26279 0.40438 1.12108
 C2699 C 0.28999 0.40534 1.09507
 N2700 N 0.29826 0.42260 1.10320
 N2701 N 0.31501 0.43089 1.09502
 C2702 C 0.32416 0.42227 1.07838
 N2703 N 0.31577 0.40505 1.07025
 N2704 N 0.29903 0.39675 1.07842
 C2705 C 0.77152 1.10381 0.89538
 N2706 N 0.76274 1.09529 0.87853
 N2707 N 0.74624 1.10376 0.87001
 C2708 C 0.73793 1.12107 0.87802
 N2709 N 0.74670 1.12957 0.89487
 N2710 N 0.76320 1.12110 0.90339
 C2711 C 0.78984 1.09461 0.90469
 N2712 N 0.79871 1.10329 0.92139
 N2713 N 0.81549 1.09515 0.92966
 C2714 C 0.82408 1.07798 0.92158
 N2715 N 0.81511 1.06930 0.90489
 N2716 N 0.79832 1.07744 0.89661
 C2717 C 0.77155 0.60379 0.39616
 N2718 N 0.76299 0.59562 0.37903
 N2719 N 0.74657 0.60425 0.37050
 C2720 C 0.73813 0.62136 0.37878
 N2721 N 0.74668 0.62952 0.39592
 N2722 N 0.76310 0.62089 0.40444
 C2723 C 0.78979 0.59445 0.40543
 N2724 N 0.79849 0.60280 0.42239
 N2725 N 0.81526 0.59456 0.43059
 C2726 C 0.82401 0.57764 0.42217
 N2727 N 0.81520 0.56927 0.40524
 N2728 N 0.79842 0.57751 0.39703
 C2729 C 0.27139 1.10357 0.39598
 N2730 N 0.26302 1.09555 0.37869
 N2731 N 0.24662 1.10418 0.37012
 C2732 C 0.23801 1.12115 0.37854
 N2733 N 0.24637 1.12915 0.39584
 N2734 N 0.26277 1.12052 0.40440
 C2735 C 0.28965 1.09427 0.40528
 N2736 N 0.29822 1.10256 0.42233
 N2737 N 0.31501 1.09437 0.43054
 C2738 C 0.32389 1.07755 0.42206
 N2739 N 0.31520 1.06924 0.40504
 N2740 N 0.29841 1.07743 0.39681
 C2741 C 0.27154 0.60378 0.89623
 N2742 N 0.26291 0.62075 0.90461
 N2743 N 0.24653 0.62936 0.89601
 C2744 C 0.23819 0.62133 0.87872
 N2745 N 0.24679 0.60435 0.87034
 N2746 N 0.26318 0.59573 0.87894
 C2747 C 0.28977 0.59447 0.90556
 N2748 N 0.29853 0.57761 0.89711
 N2749 N 0.31530 0.56941 0.90537
 C2750 C 0.32398 0.57772 0.92239
 N2751 N 0.31510 0.59455 0.93085
 N2752 N 0.29834 0.60276 0.92261
 C2753 C 1.10343 1.22880 1.10317
 N2754 N 1.09533 1.23731 1.12037
 N2755 N 1.10407 1.25359 1.12901
 C2756 C 1.12125 1.26194 1.12080
 N2757 N 1.12934 1.25345 1.10359
 N2758 N 1.12059 1.23717 1.09495
 C2759 C 1.09398 1.21066 1.09384
 N2760 N 1.10228 1.20194 1.07686
 N2761 N 1.09402 1.18518 1.06869
 C2762 C 1.07712 1.17646 1.07715
 N2763 N 1.06877 1.18531 1.09408
 N2764 N 1.07703 1.20208 1.10226
 C2765 C 1.10396 0.72843 0.60355
 N2766 N 1.09583 0.73699 0.62070
 N2767 N 1.10444 0.75342 0.62919
 C2768 C 1.12151 0.76187 0.62085
 N2769 N 1.12964 0.75332 0.60370
 N2770 N 1.12103 0.73689 0.59521
 C2771 C 1.09460 0.71020 0.59432
 N2772 N 1.10285 0.70153 0.57730
 N2773 N 1.09456 0.68479 0.56913
 C2774 C 1.07769 0.67605 0.57762
 N2775 N 1.06942 0.68484 0.59463
 N2776 N 1.07771 0.70158 0.60281
 C2777 C 0.60369 1.22897 0.60336
 N2778 N 0.59560 1.23748 0.62056
 N2779 N 0.60428 1.25383 0.62913
 C2780 C 0.62137 1.26226 0.62083
 N2781 N 0.62946 1.25377 0.60363
 N2782 N 0.62078 1.23741 0.59505
 C2783 C 0.59429 1.21078 0.59408
 N2784 N 0.60252 1.20212 0.57704
 N2785 N 0.59423 1.18537 0.56887
 C2786 C 0.57738 1.17661 0.57739
 N2787 N 0.56912 1.18540 0.59439
 N2788 N 0.57740 1.20215 0.60257
 C2789 C 0.60375 0.72857 1.10359
 N2790 N 0.59559 0.73715 1.12072
 N2791 N 0.60423 0.75355 1.12924
 C2792 C 0.62135 0.76194 1.12096
 N2793 N 0.62950 0.75338 1.10382
 N2794 N 0.62086 0.73698 1.09529
 C2795 C 0.59438 0.71034 1.09435
 N2796 N 0.60268 0.70159 1.07740
 N2797 N 0.59440 0.68482 1.06925
 C2798 C 0.57748 0.67614 1.07772
 N2799 N 0.56916 0.68501 1.09465
 N2800 N 0.57743 0.70177 1.10280
 C2801 C 0.89621 1.22877 0.89607
 N2802 N 0.90444 1.23733 0.87895
 N2803 N 0.89586 1.25376 0.87037
 C2804 C 0.87872 1.26221 0.87858
 N2805 N 0.87050 1.25366 0.89570
 N2806 N 0.87908 1.23724 0.90428
 C2807 C 0.90553 1.21051 0.90537
 N2808 N 0.89717 1.20178 0.92232
 N2809 N 0.90542 1.18501 0.93053
 C2810 C 0.92236 1.17629 0.92215
 N2811 N 0.93074 1.18513 0.90522
 N2812 N 0.92250 1.20191 0.89700
 C2813 C 0.89617 0.72867 0.39597
 N2814 N 0.87907 0.73713 0.40423
 N2815 N 0.87049 0.75358 0.39569
 C2816 C 0.87869 0.76215 0.37857
 N2817 N 0.89579 0.75369 0.37031
 N2818 N 0.90438 0.73724 0.37885
 C2819 C 0.90551 0.71041 0.40525
 N2820 N 0.92246 0.70180 0.39684
 N2821 N 0.93073 0.68504 0.40507
 C2822 C 0.92240 0.67622 0.42203
 N2823 N 0.90548 0.68495 0.43045
 N2824 N 0.89720 0.70171 0.42223
 C2825 C 0.39577 1.22906 0.39621
 N2826 N 0.37868 1.23751 0.40453
 N2827 N 0.37002 1.25392 0.39599
 C2828 C 0.37814 1.26248 0.37882
 N2829 N 0.39523 1.25404 0.37052
 N2830 N 0.40389 1.23763 0.37905
 C2831 C 0.40516 1.21080 0.40546
 N2832 N 0.42207 1.20219 0.39697
 N2833 N 0.43035 1.18540 0.40514
 C2834 C 0.42207 1.17655 0.42211
 N2835 N 0.40519 1.18529 0.43061
 N2836 N 0.39690 1.20208 0.42246
 C2837 C 0.39629 0.72873 0.89668
 N2838 N 0.40448 0.73731 0.87956
 N2839 N 0.39595 0.75382 0.87109
 C2840 C 0.37891 0.76233 0.87942
 N2841 N 0.37073 0.75377 0.89656
 N2842 N 0.37926 0.73727 0.90503
 C2843 C 0.40554 0.71040 0.90587
 N2844 N 0.39722 0.70170 0.92285
 N2845 N 0.40543 0.68488 0.93100
 C2846 C 0.42228 0.67609 0.92252
 N2847 N 0.43060 0.68489 0.90555
 N2848 N 0.42241 0.70171 0.89738
 C2849 C 1.10383 0.77128 0.89639
 N2850 N 1.12095 0.76284 0.90465
 N2851 N 1.12962 0.74648 0.89605
 C2852 C 1.12150 0.73799 0.87888
 N2853 N 1.10438 0.74642 0.87062
 N2854 N 1.09570 0.76278 0.87922
 C2855 C 1.09444 0.78947 0.90571
 N2856 N 1.07752 0.79812 0.89727
 N2857 N 1.06926 0.81487 0.90549
 C2858 C 1.07757 0.82365 0.92247
 N2859 N 1.09445 0.81487 0.93093
 N2860 N 1.10272 0.79812 0.92272
 C2861 C 1.10373 0.27121 0.39641
 N2862 N 1.12080 0.26271 0.40471
 N2863 N 1.12943 0.24631 0.39614
 C2864 C 1.12130 0.23784 0.37896
 N2865 N 1.10422 0.24632 0.37067
 N2866 N 1.09560 0.26272 0.37924
 C2867 C 1.09439 0.28946 0.40568
 N2868 N 1.07752 0.29815 0.39721
 N2869 N 1.06930 0.31495 0.40538
 C2870 C 1.07761 0.32373 0.42236
 N2871 N 1.09445 0.31491 0.43085
 N2872 N 1.10268 0.29811 0.42269
 C2873 C 0.60390 0.77160 0.39644
 N2874 N 0.59574 0.76304 0.37932
 N2875 N 0.60435 0.74662 0.37079
 C2876 C 0.62145 0.73817 0.37906
 N2877 N 0.62962 0.74672 0.39619
 N2878 N 0.62101 0.76314 0.40472
 C2879 C 0.59454 0.78983 0.40570
 N2880 N 0.60284 0.79855 0.42266
 N2881 N 0.59455 0.81532 0.43082
 C2882 C 0.57763 0.82403 0.42237
 N2883 N 0.56932 0.81519 0.40544
 N2884 N 0.57759 0.79842 0.39726
 C2885 C 0.60393 0.27135 0.89608
 N2886 N 0.59569 0.26286 0.87895
 N2887 N 0.60431 0.24651 0.87028
 C2888 C 0.62148 0.23806 0.87841
 N2889 N 0.62972 0.24655 0.89554
 N2890 N 0.62110 0.26290 0.90421
 C2891 C 0.59456 0.28952 0.90550
 N2892 N 0.60292 0.29817 0.92247
 N2893 N 0.59464 0.31489 0.93077
 C2894 C 0.57767 0.32362 0.92244
 N2895 N 0.56929 0.31485 0.90550
 N2896 N 0.57756 0.29813 0.89720
 C2897 C 0.89615 0.77114 1.10340
 N2898 N 0.87906 0.76273 1.09508
 N2899 N 0.87039 0.74634 1.10362
 C2900 C 0.87848 0.73779 1.12080
 N2901 N 0.89557 0.74618 1.12911
 N2902 N 0.90425 0.76257 1.12057
 C2903 C 0.90555 0.78937 1.09416
 N2904 N 0.92246 0.79795 1.10265
 N2905 N 0.93075 0.81472 1.09449
 C2906 C 0.92248 0.82358 1.07752
 N2907 N 0.90561 0.81488 1.06901
 N2908 N 0.89731 0.79811 1.07716
 C2909 C 0.89622 0.27138 0.60333
 N2910 N 0.90431 0.26280 0.62050
 N2911 N 0.89561 0.24644 0.62905
 C2912 C 0.87849 0.23808 0.62075
 N2913 N 0.87040 0.24665 0.60358
 N2914 N 0.87911 0.26301 0.59503
 C2915 C 0.90567 0.28957 0.59406
 N2916 N 0.89743 0.29831 0.57706
 N2917 N 0.90577 0.31505 0.56889
 C2918 C 0.92268 0.32371 0.57737
 N2919 N 0.93094 0.31485 0.59434
 N2920 N 0.92261 0.29811 0.60252
 C2921 C 0.39613 0.77153 0.60365
 N2922 N 0.37903 0.76312 0.59536
 N2923 N 0.37035 0.74676 0.60392
 C2924 C 0.37844 0.73822 0.62111
 N2925 N 0.39554 0.74662 0.62941
 N2926 N 0.40422 0.76299 0.62084
 C2927 C 0.40556 0.78971 0.59435
 N2928 N 0.42248 0.79830 0.60280
 N2929 N 0.43078 0.81504 0.59459
 C2930 C 0.42251 0.82385 0.57759
 N2931 N 0.40564 0.81512 0.56911
 N2932 N 0.39733 0.79839 0.57731
 C2933 C 0.39598 0.27144 1.10370
 N2934 N 0.40403 0.26286 1.12089
 N2935 N 0.39532 0.24648 1.12940
 C2936 C 0.37823 0.23811 1.12106
 N2937 N 0.37019 0.24667 1.10386
 N2938 N 0.37890 0.26305 1.09534
 C2939 C 0.40543 0.28964 1.09446
 N2940 N 0.39722 0.29838 1.07745
 N2941 N 0.40555 0.31514 1.06931
 C2942 C 0.42242 0.32383 1.07783
 N2943 N 0.43066 0.31496 1.09481
 N2944 N 0.42235 0.29820 1.10296
 C2945 C 1.10391 1.10469 0.77058
 N2946 N 1.12114 1.09665 0.76218
 N2947 N 1.12964 1.10522 0.74568
 C2948 C 1.12124 1.12216 0.73695
 N2949 N 1.10398 1.13019 0.74536
 N2950 N 1.09548 1.12161 0.76187
 C2951 C 1.09467 1.09533 0.78890
 N2952 N 1.07760 1.10348 0.79751
 N2953 N 1.06944 1.09517 0.81430
 C2954 C 1.07799 1.07837 0.82318
 N2955 N 1.09504 1.07020 0.81446
 N2956 N 1.10321 1.07850 0.79767
 C2957 C 1.10390 0.60469 0.27066
 N2958 N 1.12117 0.59670 0.26229
 N2959 N 1.12963 0.60526 0.24578
 C2960 C 1.12117 0.62214 0.23701
 N2961 N 1.10387 0.63012 0.24539
 N2962 N 1.09540 0.62155 0.26191
 C2963 C 1.09472 0.59535 0.28902
 N2964 N 1.07750 0.60333 0.29749
 N2965 N 1.06939 0.59503 0.31431
 C2966 C 1.07814 0.57841 0.32334
 N2967 N 1.09534 0.57042 0.31476
 N2968 N 1.10347 0.57871 0.29794
 C2969 C 0.60382 1.10431 0.27060
 N2970 N 0.62101 1.09614 0.26224
 N2971 N 0.62965 1.10467 0.24580
 C2972 C 0.62143 1.12171 0.23710
 N2973 N 0.60422 1.12988 0.24547
 N2974 N 0.59558 1.12134 0.26192
 C2975 C 0.59445 1.09501 0.28887
 N2976 N 0.57746 1.10333 0.29747
 N2977 N 0.56920 1.09508 0.31425
 C2978 C 0.57759 1.07818 0.32310
 N2979 N 0.59456 1.06984 0.31437
 N2980 N 0.60282 1.07808 0.29759
 C2981 C 0.60372 0.60407 0.77110
 N2982 N 0.62096 0.59598 0.76276
 N2983 N 0.62955 0.60453 0.74631
 C2984 C 0.62123 0.62150 0.73761
 N2985 N 0.60398 0.62959 0.74593
 N2986 N 0.59538 0.62103 0.76239
 C2987 C 0.59442 0.59474 0.78938
 N2988 N 0.57735 0.60295 0.79794
 N2989 N 0.56915 0.59468 0.81473
 C2990 C 0.57766 0.57787 0.82364
 N2991 N 0.59471 0.56965 0.81496
 N2992 N 0.60292 0.57791 0.79817
 C2993 C 0.89627 0.89578 0.77101
 N2994 N 0.90468 0.87888 0.76227
 N2995 N 0.89614 0.87035 0.74578
 C2996 C 0.87888 0.87842 0.73746
 N2997 N 0.87049 0.89533 0.74618
 N2998 N 0.87902 0.90385 0.76266
 C2999 C 0.90551 0.90507 0.78931
 N3000 N 0.89692 0.92181 0.79815
 N3001 N 0.90511 0.93006 0.81494
 C3002 C 0.92221 0.92192 0.82357
 N3003 N 0.93081 0.90519 0.81463
 N3004 N 0.92264 0.89693 0.79783
 C3005 C 0.89636 0.39569 0.27056
 N3006 N 0.90454 0.37855 0.26207
 N3007 N 0.89594 0.36995 0.24565
 C3008 C 0.87883 0.37816 0.23711
 N3009 N 0.87068 0.39532 0.24562
 N3010 N 0.87927 0.40392 0.26203
 C3011 C 0.90564 0.40504 0.28884
 N3012 N 0.89726 0.42201 0.29745
 N3013 N 0.90544 0.43028 0.31425
 C3014 C 0.92232 0.42193 0.32312
 N3015 N 0.93072 0.40499 0.31439
 N3016 N 0.92256 0.39671 0.29759
 C3017 C 0.39616 0.89546 0.27047
 N3018 N 0.37916 0.90372 0.26182
 N3019 N 0.37061 0.89510 0.24540
 C3020 C 0.37871 0.87786 0.23701
 N3021 N 0.39574 0.86960 0.24567
 N3022 N 0.40431 0.87824 0.26209
 C3023 C 0.40541 0.90484 0.28876
 N3024 N 0.42237 0.89659 0.29748
 N3025 N 0.43052 0.90489 0.31428
 C3026 C 0.42205 0.92179 0.32303
 N3027 N 0.40510 0.93006 0.31420
 N3028 N 0.39695 0.92177 0.29740
 C3029 C 0.39645 0.39562 0.77108
 N3030 N 0.37931 0.40375 0.76255
 N3031 N 0.37081 0.39512 0.74610
 C3032 C 0.37911 0.37805 0.73759
 N3033 N 0.39626 0.36994 0.74611
 N3034 N 0.40477 0.37856 0.76256
 C3035 C 0.40566 0.40500 0.78938
 N3036 N 0.42264 0.39677 0.79808
 N3037 N 0.43077 0.40507 0.81488
 C3038 C 0.42227 0.42194 0.82365
 N3039 N 0.40531 0.43019 0.81483
 N3040 N 0.39716 0.42189 0.79803
 C3041 C 1.10367 0.89541 1.22934
 N3042 N 1.12064 0.90372 1.23798
 N3043 N 1.12923 0.89509 1.25439
 C3044 C 1.12118 0.87784 1.26276
 N3045 N 1.10419 0.86953 1.25414
 N3046 N 1.09559 0.87816 1.23772
 C3047 C 1.09437 0.90479 1.21108
 N3048 N 1.07748 0.89644 1.20234
 N3049 N 1.06928 0.90475 1.18556
 C3050 C 1.07762 0.92174 1.17686
 N3051 N 1.09449 0.93009 1.18572
 N3052 N 1.10270 0.92179 1.20250
 C3053 C 1.10376 0.39543 0.72924
 N3054 N 1.12076 0.40371 0.73787
 N3055 N 1.12932 0.39509 0.75431
 C3056 C 1.12121 0.37788 0.76271
 N3057 N 1.10420 0.36961 0.75411
 N3058 N 1.09563 0.37823 0.73766
 C3059 C 1.09451 0.40479 0.71095
 N3060 N 1.07761 0.39648 0.70220
 N3061 N 1.06945 0.40478 0.68539
 C3062 C 1.07785 0.42173 0.67666
 N3063 N 1.09473 0.43005 0.68553
 N3064 N 1.10289 0.42176 0.70233
 C3065 C 0.60362 0.89610 0.72905
 N3066 N 0.62088 0.90414 0.73738
 N3067 N 0.62946 0.89556 0.75382
 C3068 C 0.62112 0.87861 0.76252
 N3069 N 0.60386 0.87057 0.75421
 N3070 N 0.59527 0.87915 0.73776
 C3071 C 0.59432 0.90545 0.71078
 N3072 N 0.57724 0.89729 0.70224
 N3073 N 0.56905 0.90558 0.68545
 C3074 C 0.57757 0.92237 0.67654
 N3075 N 0.59462 0.93055 0.68521
 N3076 N 0.60283 0.92227 0.70200
 C3077 C 0.60382 0.39547 1.22980
 N3078 N 0.59586 0.37813 1.23811
 N3079 N 0.60453 0.36948 1.25449
 C3080 C 0.62149 0.37783 1.26315
 N3081 N 0.62942 0.39518 1.25483
 N3082 N 0.62075 0.40383 1.23846
 C3083 C 0.59444 0.40489 1.21158
 N3084 N 0.60259 0.42205 1.20313
 N3085 N 0.59434 0.43036 1.18637
 C3086 C 0.57760 0.42187 1.17739
 N3087 N 0.56942 0.40473 1.18597
 N3088 N 0.57767 0.39641 1.20273
 C3089 C 0.89645 1.10385 1.22920
 N3090 N 0.87947 1.09553 1.23784
 N3091 N 0.87085 1.10416 1.25423
 C3092 C 0.87887 1.12144 1.26255
 N3093 N 0.89586 1.12975 1.25393
 N3094 N 0.90449 1.12112 1.23754
 C3095 C 0.90574 1.09450 1.21094
 N3096 N 0.92261 1.10288 1.20216
 N3097 N 0.93078 1.09461 1.18536
 C3098 C 0.92244 1.07763 1.17667
 N3099 N 0.90561 1.06923 1.18558
 N3100 N 0.89742 1.07749 1.20238
 C3101 C 0.89633 0.60400 0.72901
 N3102 N 0.87906 0.59596 0.73734
 N3103 N 0.87052 0.60451 0.75382
 C3104 C 0.87892 0.62140 0.76255
 N3105 N 0.89619 0.62943 0.75423
 N3106 N 0.90474 0.62088 0.73775
 C3107 C 0.90558 0.59469 0.71071
 N3108 N 0.92273 0.60279 0.70221
 N3109 N 0.93091 0.59452 0.68542
 C3110 C 0.92231 0.57781 0.67646
 N3111 N 0.90518 0.56971 0.68507
 N3112 N 0.89698 0.57797 0.70186
 C3113 C 0.39638 1.10429 0.72911
 N3114 N 0.40447 1.12151 0.73750
 N3115 N 0.39586 1.13014 0.75391
 C3116 C 0.37884 1.12185 0.76250
 N3117 N 0.37077 1.10462 0.75413
 N3118 N 0.37937 1.09601 0.73773
 C3119 C 0.40565 1.09494 0.71084
 N3120 N 0.39728 1.07798 0.70223
 N3121 N 0.40545 1.06971 0.68543
 C3122 C 0.42233 1.07805 0.67657
 N3123 N 0.43073 1.09499 0.68529
 N3124 N 0.42256 1.10327 0.70209
 C3125 C 0.39645 0.60452 1.22961
 N3126 N 0.40447 0.62187 1.23782
 N3127 N 0.39582 0.63061 1.25415
 C3128 C 0.37884 0.62234 1.26283
 N3129 N 0.37084 0.60499 1.25462
 N3130 N 0.37948 0.59625 1.23830
 C3131 C 0.40578 0.59503 1.21143
 N3132 N 0.39753 0.57790 1.20303
 N3133 N 0.40572 0.56954 1.18628
 C3134 C 0.42249 0.57794 1.17727
 N3135 N 0.43078 0.59503 1.18581
 N3136 N 0.42260 0.60340 1.20255
 C3137 C 1.10412 1.22873 0.89599
 N3138 N 1.09617 1.23716 0.87868
 N3139 N 1.10483 1.25358 0.87016
 C3140 C 1.12176 1.26218 0.87863
 N3141 N 1.12968 1.25374 0.89597
 N3142 N 1.12103 1.23732 0.90448
 C3143 C 1.09474 1.21047 0.90526
 N3144 N 1.10294 1.20184 0.92234
 N3145 N 1.09467 1.18507 0.93054
 C3146 C 1.07786 1.17627 0.92201
 N3147 N 1.06964 1.18502 0.90495
 N3148 N 1.07790 1.20178 0.89674
 C3149 C 1.10409 0.72871 0.39596
 N3150 N 1.09610 0.73719 0.37869
 N3151 N 1.10473 0.75363 0.37021
 C3152 C 1.12169 0.76221 0.37867
 N3153 N 1.12964 0.75372 0.39596
 N3154 N 1.12101 0.73728 0.40444
 C3155 C 1.09476 0.71041 0.40518
 N3156 N 1.10302 0.70172 0.42220
 N3157 N 1.09479 0.68492 0.43036
 C3158 C 1.07796 0.67613 0.42185
 N3159 N 1.06968 0.68493 0.40485
 N3160 N 1.07791 0.70173 0.39668
 C3161 C 0.60383 1.22909 0.39550
 N3162 N 0.59592 1.23749 0.37815
 N3163 N 0.60461 1.25388 0.36960
 C3164 C 0.62154 1.26248 0.37807
 N3165 N 0.62943 1.25407 0.39544
 N3166 N 0.62074 1.23769 0.40398
 C3167 C 0.59443 1.21087 0.40481
 N3168 N 0.60252 1.20236 0.42201
 N3169 N 0.59424 1.18562 0.43025
 C3170 C 0.57752 1.17670 0.42165
 N3171 N 0.56940 1.18533 0.40448
 N3172 N 0.57767 1.20207 0.39623
 C3173 C 0.60380 0.72846 0.89615
 N3174 N 0.59553 0.73717 0.87913
 N3175 N 0.60413 0.75362 0.87061
 C3176 C 0.62133 0.76193 0.87880
 N3177 N 0.62960 0.75322 0.89581
 N3178 N 0.62100 0.73678 0.90433
 C3179 C 0.59446 0.71022 0.90546
 N3180 N 0.60286 0.70145 0.92237
 N3181 N 0.59460 0.68470 0.93061
 C3182 C 0.57760 0.67605 0.92230
 N3183 N 0.56918 0.68494 0.90542
 N3184 N 0.57743 0.70169 0.89716
 C3185 C 0.89640 1.22858 1.10413
 N3186 N 0.90466 1.23714 1.12122
 N3187 N 0.89610 1.25358 1.12980
 C3188 C 0.87896 1.26204 1.12161
 N3189 N 0.87071 1.25349 1.10452
 N3190 N 0.87927 1.23706 1.09594
 C3191 C 0.90566 1.21031 1.09481
 N3192 N 0.89721 1.20161 1.07791
 N3193 N 0.90539 1.18482 1.06966
 C3194 C 0.92235 1.17606 1.07797
 N3195 N 0.93082 1.18488 1.09485
 N3196 N 0.92266 1.20167 1.10310
 C3197 C 0.89618 0.72836 0.60405
 N3198 N 0.90450 0.73711 0.62101
 N3199 N 0.89593 0.75360 0.62947
 C3200 C 0.87873 0.76193 0.62127
 N3201 N 0.87042 0.75319 0.60431
 N3202 N 0.87898 0.73670 0.59586
 C3203 C 0.90548 0.71007 0.59482
 N3204 N 0.89700 0.70125 0.57799
 N3205 N 0.90525 0.68449 0.56978
 C3206 C 0.92230 0.67587 0.57804
 N3207 N 0.93079 0.68479 0.59485
 N3208 N 0.92255 0.70156 0.60308
 C3209 C 0.39611 1.22891 0.60412
 N3210 N 0.40433 1.23744 0.62124
 N3211 N 0.39576 1.25387 0.62982
 C3212 C 0.37863 1.26237 0.62161
 N3213 N 0.37044 1.25383 0.60447
 N3214 N 0.37901 1.23741 0.59589
 C3215 C 0.40540 1.21064 0.59478
 N3216 N 0.39702 1.20201 0.57780
 N3217 N 0.40522 1.18524 0.56954
 C3218 C 0.42213 1.17643 0.57790
 N3219 N 0.43052 1.18518 0.59486
 N3220 N 0.42233 1.20195 0.60313
 C3221 C 0.39608 0.72896 1.10463
 N3222 N 0.37910 0.73758 1.09629
 N3223 N 0.37055 0.75404 1.10482
 C3224 C 0.37864 0.76250 1.12205
 N3225 N 0.39565 0.75388 1.13039
 N3226 N 0.40420 0.73742 1.12184
 C3227 C 0.40533 0.71065 1.09534
 N3228 N 0.42228 0.70197 1.10368
 N3229 N 0.43044 0.68516 1.09544
 C3230 C 0.42201 0.67635 1.07854
 N3231 N 0.40508 0.68515 1.07019
 N3232 N 0.39691 0.70196 1.07841
 C3233 C 0.89626 0.77149 0.89591
 N3234 N 0.90462 0.76269 0.87899
 N3235 N 0.89606 0.74620 0.87055
 C3236 C 0.87882 0.73793 0.87872
 N3237 N 0.87048 0.74672 0.89564
 N3238 N 0.87903 0.76320 0.90408
 C3239 C 0.90554 0.78979 0.90513
 N3240 N 0.89701 0.79867 0.92191
 N3241 N 0.90523 0.81544 0.93010
 C3242 C 0.92231 0.82402 0.92187
 N3243 N 0.93085 0.81504 0.90510
 N3244 N 0.92264 0.79826 0.89689
 C3245 C 0.89644 0.27142 0.39599
 N3246 N 0.90445 0.26298 0.37872
 N3247 N 0.89579 0.24658 0.37019
 C3248 C 0.87881 0.23805 0.37863
 N3249 N 0.87082 0.24648 0.39590
 N3250 N 0.87947 0.26288 0.40442
 C3251 C 0.90578 0.28966 0.40526
 N3252 N 0.89751 0.29829 0.42230
 N3253 N 0.90574 0.31505 0.43050
 C3254 C 0.92259 0.32386 0.42202
 N3255 N 0.93088 0.31512 0.40501
 N3256 N 0.92265 0.29835 0.39679
 C3257 C 0.39601 0.77137 0.39603
 N3258 N 0.40387 0.76306 0.37863
 N3259 N 0.39518 0.74670 0.37008
 C3260 C 0.37829 0.73804 0.37859
 N3261 N 0.37045 0.74637 0.39601
 N3262 N 0.37914 0.76273 0.40456
 C3263 C 0.40542 0.78957 0.40534
 N3264 N 0.39741 0.79799 0.42260
 N3265 N 0.40568 0.81473 0.43081
 C3266 C 0.42231 0.82374 0.42211
 N3267 N 0.43036 0.81519 0.40488
 N3268 N 0.42209 0.79845 0.39666
 C3269 C 0.39623 0.27152 0.89641
 N3270 N 0.37925 0.26295 0.90481
 N3271 N 0.37059 0.24660 0.89622
 C3272 C 0.37858 0.23823 0.87891
 N3273 N 0.39557 0.24678 0.87052
 N3274 N 0.40423 0.26313 0.87911
 C3275 C 0.40559 0.28972 0.90574
 N3276 N 0.42247 0.29841 0.89727
 N3277 N 0.43072 0.31515 0.90551
 C3278 C 0.42244 0.32387 0.92255
 N3279 N 0.40560 0.31506 0.93103
 N3280 N 0.39734 0.29832 0.92280
 C3281 C 1.10396 0.77115 1.10461
 N3282 N 1.12122 0.76283 1.09655
 N3283 N 1.12972 0.74632 1.10505
 C3284 C 1.12128 0.73750 1.12195
 N3285 N 1.10400 0.74583 1.13000
 N3286 N 1.09550 0.76235 1.12149
 C3287 C 1.09473 0.78949 1.09533
 N3288 N 1.07753 0.79791 1.10341
 N3289 N 1.06936 0.81471 1.09515
 C3290 C 1.07804 0.82376 1.07848
 N3291 N 1.09522 0.81523 1.07040
 N3292 N 1.10340 0.79844 1.07865
 C3293 C 1.10402 0.27115 0.60437
 N3294 N 1.12122 0.26274 0.59626
 N3295 N 1.12972 0.24626 0.60481
 C3296 C 1.12136 0.23754 0.62179
 N3297 N 1.10414 0.24596 0.62990
 N3298 N 1.09564 0.26246 0.62135
 C3299 C 1.09477 0.28945 0.59503
 N3300 N 1.07775 0.29807 0.60328
 N3301 N 1.06958 0.31486 0.59499
 C3302 C 1.07807 0.32369 0.57811
 N3303 N 1.09506 0.31496 0.56984
 N3304 N 1.10324 0.29818 0.57812
 C3305 C 0.60389 0.77157 0.60388
 N3306 N 0.62107 0.76321 0.59569
 N3307 N 0.62965 0.74674 0.60418
 C3308 C 0.62137 0.73803 0.62120
 N3309 N 0.60418 0.74638 0.62939
 N3310 N 0.59560 0.76286 0.62090
 C3311 C 0.59457 0.78986 0.59462
 N3312 N 0.57756 0.79842 0.60295
 N3313 N 0.56935 0.81522 0.59474
 C3314 C 0.57779 0.82413 0.57787
 N3315 N 0.59478 0.81544 0.56954
 N3316 N 0.60300 0.79865 0.57774
 C3317 C 0.60373 0.27145 1.10447
 N3318 N 0.62095 0.26313 1.09630
 N3319 N 0.62954 0.24667 1.10480
 C3320 C 0.62124 0.23793 1.12178
 N3321 N 0.60402 0.24623 1.12996
 N3322 N 0.59542 0.26270 1.12146
 C3323 C 0.59440 0.28972 1.09520
 N3324 N 0.57736 0.29826 1.10349
 N3325 N 0.56912 0.31504 1.09526
 C3326 C 0.57758 0.32395 1.07840
 N3327 N 0.59459 0.31529 1.07010
 N3328 N 0.60284 0.29852 1.07832
 C3329 C 1.22869 1.10380 0.89642
 N3330 N 1.23712 1.12088 0.90475
 N3331 N 1.25350 1.12955 0.89621
 C3332 C 1.26203 1.12146 0.87903
 N3333 N 1.25361 1.10436 0.87071
 N3334 N 1.23723 1.09570 0.87925
 C3335 C 1.21047 1.09441 0.90567
 N3336 N 1.20186 1.07752 0.89718
 N3337 N 1.18508 1.06925 0.90534
 C3338 C 1.17627 1.07754 0.92232
 N3339 N 1.18501 1.09440 0.93083
 N3340 N 1.20178 1.10267 0.92268
 C3341 C 1.22886 0.60424 0.39672
 N3342 N 1.23749 0.59615 0.37959
 N3343 N 1.25393 0.60481 0.37117
 C3344 C 1.26232 0.62188 0.37955
 N3345 N 1.25370 0.62997 0.39669
 N3346 N 1.23726 0.62131 0.40512
 C3347 C 1.21060 0.59483 0.40586
 N3348 N 1.20185 0.60303 0.42287
 N3349 N 1.18509 0.59469 0.43096
 C3350 C 1.17641 0.57782 0.42240
 N3351 N 1.18527 0.56961 0.40541
 N3352 N 1.20204 0.57794 0.39731
 C3353 C 0.72857 1.10398 0.39639
 N3354 N 0.73715 1.09581 0.37927
 N3355 N 0.75356 1.10442 0.37075
 C3356 C 0.76198 1.12153 0.37903
 N3357 N 0.75342 1.12970 0.39616
 N3358 N 0.73700 1.12108 0.40468
 C3359 C 0.71033 1.09463 0.40563
 N3360 N 0.70159 1.10295 0.42258
 N3361 N 0.68480 1.09470 0.43071
 C3362 C 0.67608 1.07780 0.42224
 N3363 N 0.68495 1.06946 0.40532
 N3364 N 0.70174 1.07770 0.39718
 C3365 C 0.72850 0.60384 0.89647
 N3366 N 0.73691 0.62097 0.90472
 N3367 N 0.75325 0.62965 0.89610
 C3368 C 0.76174 0.62153 0.87892
 N3369 N 0.75333 0.60440 0.87067
 N3370 N 0.73700 0.59572 0.87928
 C3371 C 0.71036 0.59440 0.90582
 N3372 N 0.70178 0.57745 0.89740
 N3373 N 0.68507 0.56914 0.90564
 C3374 C 0.67627 0.57743 0.92263
 N3375 N 0.68498 0.59434 0.93107
 N3376 N 0.70169 0.60266 0.92284
 C3377 C 1.22896 0.89581 1.10379
 N3378 N 1.23752 0.90404 1.12089
 N3379 N 1.25396 0.89547 1.12943
 C3380 C 1.26243 0.87835 1.12119
 N3381 N 1.25389 0.87013 1.10408
 N3382 N 1.23744 0.87870 1.09554
 C3383 C 1.21068 0.90511 1.09454
 N3384 N 1.20195 0.89675 1.07760
 N3385 N 1.18515 0.90498 1.06945
 C3386 C 1.17640 0.92189 1.07788
 N3387 N 1.18524 0.93026 1.09479
 N3388 N 1.20204 0.92205 1.10296
 C3389 C 1.22884 0.39575 0.60367
 N3390 N 1.23736 0.37871 0.59531
 N3391 N 1.25378 0.37008 0.60383
 C3392 C 1.26227 0.37817 0.62102
 N3393 N 1.25376 0.39522 0.62937
 N3394 N 1.23734 0.40385 0.62085
 C3395 C 1.21061 0.40513 0.59441
 N3396 N 1.20192 0.42199 0.60293
 N3397 N 1.18516 0.43027 0.59474
 C3398 C 1.17642 0.42204 0.57771
 N3399 N 1.18522 0.40520 0.56919
 N3400 N 1.20198 0.39691 0.57736
 C3401 C 0.72841 0.89622 0.60368
 N3402 N 0.73689 0.90431 0.62088
 N3403 N 0.75324 0.89561 0.62947
 C3404 C 0.76168 0.87850 0.62119
 N3405 N 0.75320 0.87041 0.60399
 N3406 N 0.73685 0.87911 0.59540
 C3407 C 0.71027 0.90568 0.59433
 N3408 N 0.70165 0.89745 0.57728
 N3409 N 0.68496 0.90580 0.56903
 C3410 C 0.67622 0.92271 0.57749
 N3411 N 0.68497 0.93096 0.59450
 N3412 N 0.70167 0.92262 0.60276
 C3413 C 0.72862 0.39605 1.10422
 N3414 N 0.73708 0.37891 1.09602
 N3415 N 0.75353 0.37036 1.10457
 C3416 C 0.76209 0.37863 1.12164
 N3417 N 0.75364 0.39578 1.12984
 N3418 N 0.73719 0.40433 1.12129
 C3419 C 0.71035 0.40535 1.09492
 N3420 N 0.70174 0.42234 1.10325
 N3421 N 0.68498 0.43056 1.09502
 C3422 C 0.67615 0.42213 1.07813
 N3423 N 0.68487 0.40516 1.06978
 N3424 N 0.70164 0.39693 1.07801
 C3425 C 0.77154 1.10382 1.10400
 N3426 N 0.76308 1.12097 1.09580
 N3427 N 0.74667 1.12955 1.10439
 C3428 C 0.73814 1.12130 1.12150
 N3429 N 0.74659 1.10414 1.12970
 N3430 N 0.76300 1.09556 1.12111
 C3431 C 0.78976 1.09449 1.09467
 N3432 N 0.79836 1.07748 1.10301
 N3433 N 0.81509 1.06923 1.09474
 C3434 C 0.82388 1.07763 1.07780
 N3435 N 0.81517 1.09461 1.06945
 N3436 N 0.79844 1.10287 1.07771
 C3437 C 0.77160 0.60377 0.60361
 N3438 N 0.76308 0.59560 0.62078
 N3439 N 0.74667 0.60421 0.62933
 C3440 C 0.73821 0.62132 0.62104
 N3441 N 0.74671 0.62948 0.60386
 N3442 N 0.76311 0.62086 0.59531
 C3443 C 0.78984 0.59443 0.59434
 N3444 N 0.79851 0.60275 0.57734
 N3445 N 0.81527 0.59449 0.56916
 C3446 C 0.82404 0.57760 0.57763
 N3447 N 0.81525 0.56927 0.59460
 N3448 N 0.79848 0.57751 0.60280
 C3449 C 0.27112 1.10422 0.60376
 N3450 N 0.26262 1.09606 0.62093
 N3451 N 0.24620 1.10465 0.62948
 C3452 C 0.23768 1.12172 0.62117
 N3453 N 0.24617 1.12988 0.60399
 N3454 N 0.26259 1.12129 0.59544
 C3455 C 0.28938 1.09489 0.59448
 N3456 N 0.29803 1.10318 0.57745
 N3457 N 0.31480 1.09493 0.56926
 C3458 C 0.32360 1.07806 0.57775
 N3459 N 0.31484 1.06975 0.59476
 N3460 N 0.29806 1.07799 0.60295
 C3461 C 0.27119 0.60423 1.10411
 N3462 N 0.26264 0.59607 1.12126
 N3463 N 0.24624 0.60471 1.12980
 C3464 C 0.23781 0.62183 1.12151
 N3465 N 0.24634 0.62999 1.10435
 N3466 N 0.26274 0.62135 1.09581
 C3467 C 0.28942 0.59484 1.09485
 N3468 N 0.29812 0.60312 1.07785
 N3469 N 0.31487 0.59483 1.06968
 C3470 C 0.32360 0.57792 1.07817
 N3471 N 0.31478 0.56962 1.09514
 N3472 N 0.29802 0.57790 1.10332
 C3473 C 0.77145 0.89620 0.89641
 N3474 N 0.76292 0.90434 0.87924
 N3475 N 0.74650 0.89573 0.87074
 C3476 C 0.73803 0.87866 0.87908
 N3477 N 0.74655 0.87053 0.89625
 N3478 N 0.76297 0.87913 0.90476
 C3479 C 0.78970 0.90554 0.90564
 N3480 N 0.79837 0.89727 0.92266
 N3481 N 0.81513 0.90553 0.93081
 C3482 C 0.82389 0.92240 0.92230
 N3483 N 0.81510 0.93069 0.90530
 N3484 N 0.79833 0.92244 0.89714
 C3485 C 0.77138 0.39577 0.39615
 N3486 N 0.76294 0.37867 0.40447
 N3487 N 0.74647 0.37010 0.39601
 C3488 C 0.73786 0.37831 0.37891
 N3489 N 0.74630 0.39541 0.37059
 N3490 N 0.76276 0.40398 0.37905
 C3491 C 0.78966 0.40510 0.40534
 N3492 N 0.79823 0.42206 0.39689
 N3493 N 0.81500 0.43033 0.40504
 C3494 C 0.82386 0.42200 0.42198
 N3495 N 0.81518 0.40506 0.43044
 N3496 N 0.79842 0.39678 0.42230
 C3497 C 0.27126 0.89579 0.39654
 N3498 N 0.26289 0.87867 0.40490
 N3499 N 0.24650 0.86998 0.39643
 C3500 C 0.23789 0.87808 0.37928
 N3501 N 0.24625 0.89520 0.37093
 N3502 N 0.26264 0.90389 0.37939
 C3503 C 0.28947 0.90522 0.40573
 N3504 N 0.29803 0.92215 0.39719
 N3505 N 0.31478 0.93047 0.40532
 C3506 C 0.32364 0.92222 0.42230
 N3507 N 0.31495 0.90533 0.43085
 N3508 N 0.29821 0.89700 0.42274
 C3509 C 0.27125 0.39587 0.89668
 N3510 N 0.26280 0.37880 0.90506
 N3511 N 0.24642 0.37012 0.89655
 C3512 C 0.23790 0.37818 0.87934
 N3513 N 0.24633 0.39525 0.87097
 N3514 N 0.26271 0.40394 0.87947
 C3515 C 0.28947 0.40528 0.90590
 N3516 N 0.29810 0.42216 0.89736
 N3517 N 0.31486 0.43045 0.90552
 C3518 C 0.32365 0.42221 0.92254
 N3519 N 0.31490 0.40536 0.93110
 N3520 N 0.29814 0.39706 0.92295
   
