data_POSCAR
  _audit_creation_date              2014-09-24
  _audit_creation_method            'ToBaCCo'
  _symmetry_space_group_name_H-M    'P1'
  _symmetry_Int_Tables_number       1
  _symmetry_cell_setting            triclinic
  loop_
  _symmetry_equiv_pos_as_xyz
 x,y,z
_cell_length_a 64.8559
_cell_length_b 64.1288
_cell_length_c 65.5694
_cell_angle_alpha 89.780900
_cell_angle_beta 88.890800
_cell_angle_gamma 90.150200
loop_
  _atom_site_label
  _atom_site_type_symbol
  _atom_site_fract_x
  _atom_site_fract_y
  _atom_site_fract_z
C1 C 0.20009 0.19832 0.22464
 C2 C 0.18281 0.20272 0.23704
 C3 C 0.16992 0.21966 0.23258
 C4 C 0.17453 0.23228 0.21549
 C5 C 0.19182 0.22811 0.20297
 C6 C 0.20465 0.21106 0.20755
 C7 C 0.21288 0.18136 0.22906
 C8 C 0.23024 0.17694 0.21665
 C9 C 0.23472 0.18975 0.19967
 C10 C 0.22205 0.20676 0.19505
 C11 C 0.22650 0.21950 0.17810
 C12 C 0.21389 0.23664 0.17349
 C13 C 0.19653 0.24079 0.18602
 H14 H 0.17920 0.19276 0.25003
 H15 H 0.16480 0.24551 0.21208
 H16 H 0.20946 0.17173 0.24233
 H17 H 0.24794 0.18630 0.18990
 H18 H 0.23971 0.21594 0.16836
 H19 H 0.18686 0.25411 0.18277
 C20 C 0.70524 0.70032 0.72329
 C21 C 0.68893 0.70424 0.73711
 C22 C 0.67484 0.72041 0.73349
 C23 C 0.67720 0.73265 0.71573
 C24 C 0.69345 0.72896 0.70180
 C25 C 0.70756 0.71277 0.70560
 C26 C 0.71937 0.68427 0.72696
 C27 C 0.73585 0.68052 0.71321
 C28 C 0.73802 0.69298 0.69561
 C29 C 0.72401 0.70905 0.69171
 C30 C 0.72620 0.72146 0.67414
 C31 C 0.71221 0.73766 0.67024
 C32 C 0.69586 0.74127 0.68418
 H33 H 0.68741 0.69489 0.75087
 H34 H 0.66624 0.74493 0.71262
 H35 H 0.71773 0.67488 0.74068
 H36 H 0.75054 0.69001 0.68482
 H37 H 0.73869 0.71836 0.66336
 H38 H 0.68518 0.75392 0.68150
 C39 C 0.29352 0.80267 0.72783
 C40 C 0.30957 0.79741 0.74093
 C41 C 0.32331 0.78111 0.73609
 C42 C 0.32037 0.76972 0.71806
 C43 C 0.30403 0.77442 0.70512
 C44 C 0.29067 0.79109 0.70992
 C45 C 0.28035 0.81937 0.73243
 C46 C 0.26430 0.82516 0.71923
 C47 C 0.26153 0.81308 0.70144
 C48 C 0.27449 0.79619 0.69679
 C49 C 0.27156 0.78437 0.67910
 C50 C 0.28458 0.76747 0.67439
 C51 C 0.30090 0.76274 0.68741
 H52 H 0.31127 0.80605 0.75497
 H53 H 0.33095 0.75736 0.71385
 H54 H 0.28245 0.82738 0.74673
 H55 H 0.24993 0.81720 0.69051
 H56 H 0.25888 0.78804 0.66919
 H57 H 0.31124 0.74999 0.68369
 C58 C 0.79029 0.29926 0.22785
 C59 C 0.80652 0.29589 0.24133
 C60 C 0.81999 0.27866 0.23902
 C61 C 0.81639 0.26478 0.22270
 C62 C 0.80000 0.26777 0.20938
 C63 C 0.78697 0.28512 0.21187
 C64 C 0.77734 0.31666 0.23011
 C65 C 0.76117 0.32015 0.21652
 C66 C 0.75785 0.30579 0.20075
 C67 C 0.77064 0.28836 0.19830
 C68 C 0.76738 0.27414 0.18247
 C69 C 0.78026 0.25670 0.17997
 C70 C 0.79659 0.25370 0.19346
 H71 H 0.80798 0.30653 0.25397
 H72 H 0.82671 0.25193 0.21957
 H73 H 0.78017 0.32776 0.24217
 H74 H 0.74521 0.30811 0.19042
 H75 H 0.75466 0.27649 0.17224
 H76 H 0.80678 0.24047 0.19142
 C77 C 0.79841 0.69479 0.26857
 C78 C 0.81527 0.69676 0.25496
 C79 C 0.83005 0.71283 0.25714
 C80 C 0.82736 0.72690 0.27355
 C81 C 0.81059 0.72506 0.28727
 C82 C 0.79605 0.70897 0.28479
 C83 C 0.78373 0.67892 0.26606
 C84 C 0.76673 0.67704 0.27958
 C85 C 0.76457 0.69118 0.29581
 C86 C 0.77913 0.70708 0.29853
 C87 C 0.77699 0.72116 0.31475
 C88 C 0.79149 0.73721 0.31738
 C89 C 0.80824 0.73905 0.30355
 H90 H 0.81619 0.68614 0.24219
 H91 H 0.83870 0.73891 0.27635
 H92 H 0.78537 0.66821 0.25338
 H93 H 0.75167 0.68965 0.30647
 H94 H 0.76386 0.71981 0.32516
 H95 H 0.81959 0.75126 0.30561
 C96 C 0.29975 0.19472 -0.22977
 C97 C 0.31670 0.19673 -0.24324
 C98 C 0.33176 0.21245 -0.24060
 C99 C 0.32924 0.22614 -0.22386
 C100 C 0.31241 0.22422 -0.21022
 C101 C 0.29758 0.20851 -0.21320
 C102 C 0.28481 0.17920 -0.23273
 C103 C 0.26772 0.17728 -0.21932
 C104 C 0.26575 0.19101 -0.20275
 C105 C 0.28056 0.20657 -0.19958
 C106 C 0.27866 0.22015 -0.18295
 C107 C 0.29347 0.23580 -0.17975
 C108 C 0.31027 0.23775 -0.19353
 H109 H 0.31751 0.18643 -0.25627
 H110 H 0.34079 0.23785 -0.22072
 H111 H 0.28631 0.16877 -0.24564
 H112 H 0.25278 0.18942 -0.19217
 H113 H 0.26579 0.21831 -0.17230
 H114 H 0.32159 0.24998 -0.19141
 C115 C 0.70246 0.30475 -0.21717
 C116 C 0.68744 0.30042 -0.23171
 C117 C 0.67474 0.28248 -0.23004
 C118 C 0.67754 0.26906 -0.21314
 C119 C 0.69241 0.27329 -0.19846
 C120 C 0.70496 0.29115 -0.20050
 C121 C 0.71509 0.32250 -0.21913
 C122 C 0.73018 0.32684 -0.20460
 C123 C 0.73252 0.31317 -0.18799
 C124 C 0.72000 0.29542 -0.18581
 C125 C 0.72227 0.28190 -0.16914
 C126 C 0.70966 0.26415 -0.16688
 C127 C 0.69481 0.25994 -0.18168
 H128 H 0.68641 0.31073 -0.24475
 H129 H 0.66760 0.25567 -0.21069
 H130 H 0.71297 0.33309 -0.23183
 H131 H 0.74430 0.31618 -0.17686
 H132 H 0.73361 0.28541 -0.15771
 H133 H 0.68524 0.24610 -0.18024
 C134 C 0.20230 0.80470 0.28028
 C135 C 0.18730 0.79992 0.26587
 C136 C 0.17458 0.78227 0.26833
 C137 C 0.17716 0.76926 0.28540
 C138 C 0.19219 0.77377 0.29985
 C139 C 0.20481 0.79158 0.29730
 C140 C 0.21483 0.82241 0.27783
 C141 C 0.22995 0.82759 0.29225
 C142 C 0.23229 0.81410 0.30920
 C143 C 0.21991 0.79624 0.31176
 C144 C 0.22225 0.78309 0.32874
 C145 C 0.20971 0.76531 0.33141
 C146 C 0.19473 0.76078 0.31684
 H147 H 0.18563 0.80989 0.25262
 H148 H 0.16725 0.75577 0.28763
 H149 H 0.21311 0.83161 0.26411
 H150 H 0.24312 0.81774 0.32102
 H151 H 0.23366 0.78684 0.34003
 H152 H 0.18520 0.74696 0.31859
 C153 C 0.44594 0.45435 0.47629
 C154 C 0.45047 0.43733 0.48895
 C155 C 0.46780 0.42478 0.48486
 C156 C 0.48072 0.42953 0.46801
 C157 C 0.47644 0.44651 0.45527
 C158 C 0.45898 0.45898 0.45939
 C159 C 0.42854 0.46676 0.48020
 C160 C 0.42400 0.48380 0.46749
 C161 C 0.43712 0.48833 0.45071
 C162 C 0.45455 0.47605 0.44658
 C163 C 0.46757 0.48050 0.42977
 C164 C 0.48506 0.46818 0.42561
 C165 C 0.48937 0.45122 0.43849
 H166 H 0.44031 0.43363 0.50179
 H167 H 0.49426 0.42009 0.46492
 H168 H 0.41864 0.46331 0.49330
 H169 H 0.43358 0.50126 0.44069
 H170 H 0.46392 0.49342 0.41978
 H171 H 0.50297 0.44181 0.43561
 C172 C -0.05592 -0.04564 0.97439
 C173 C -0.05068 -0.06229 0.98725
 C174 C -0.03300 -0.07434 0.98314
 C175 C -0.02039 -0.06937 0.96613
 C176 C -0.02537 -0.05274 0.95323
 C177 C -0.04324 -0.04085 0.95733
 C178 C -0.07367 -0.03376 0.97838
 C179 C -0.07927 -0.01701 0.96549
 C180 C -0.06627 -0.01252 0.94843
 C181 C -0.04841 -0.02420 0.94435
 C182 C -0.03571 -0.01955 0.92734
 C183 C -0.01778 -0.03123 0.92321
 C184 C -0.01275 -0.04781 0.93628
 H185 H -0.06059 -0.06617 1.00022
 H186 H -0.00657 -0.07839 0.96302
 H187 H -0.08257 -0.03729 0.99209
 H188 H -0.07029 -0.00046 0.93764
 H189 H -0.03990 -0.00695 0.91719
 H190 H 0.00117 -0.05674 0.93343
 C191 C 1.06094 0.54508 0.96834
 C192 C 1.05926 0.56197 0.98182
 C193 C 1.04339 0.57691 0.97998
 C194 C 1.02918 0.57433 0.96409
 C195 C 1.03073 0.55753 0.95052
 C196 C 1.04661 0.54280 0.95269
 C197 C 1.07669 0.53032 0.97052
 C198 C 1.07851 0.51307 0.95723
 C199 C 1.06395 0.51111 0.94156
 C200 C 1.04816 0.52580 0.93920
 C201 C 1.03400 0.52385 0.92339
 C202 C 1.01821 0.53860 0.92096
 C203 C 1.01665 0.55533 0.93470
 H204 H 1.06999 0.56281 0.99422
 H205 H 1.01730 0.58581 0.96152
 H206 H 1.08695 0.53201 0.98323
 H207 H 1.06521 0.49865 0.93053
 H208 H 1.03547 0.51101 0.91276
 H209 H 1.00431 0.56657 0.93320
 C210 C 0.56371 0.04717 0.46665
 C211 C 0.56155 0.06420 0.47986
 C212 C 0.54577 0.07891 0.47718
 C213 C 0.53194 0.07629 0.46110
 C214 C 0.53384 0.05926 0.44782
 C215 C 0.54980 0.04464 0.45062
 C216 C 0.57953 0.03258 0.46936
 C217 C 0.58175 0.01518 0.45631
 C218 C 0.56762 0.01297 0.44031
 C219 C 0.55185 0.02752 0.43738
 C220 C 0.53815 0.02523 0.42126
 C221 C 0.52228 0.03973 0.41826
 C222 C 0.52013 0.05666 0.43170
 H223 H 0.57206 0.06588 0.49240
 H224 H 0.51989 0.08767 0.45874
 H225 H 0.58951 0.03451 0.48226
 H226 H 0.56925 0.00041 0.42942
 H227 H 0.53968 0.01196 0.41115
 H228 H 0.50801 0.06798 0.42938
 C229 C -0.05053 0.04540 0.52467
 C230 C -0.04771 0.06328 0.51253
 C231 C -0.03145 0.07726 0.51623
 C232 C -0.01795 0.07314 0.53227
 C233 C -0.02054 0.05532 0.54452
 C234 C -0.03689 0.04139 0.54072
 C235 C -0.06673 0.03142 0.52099
 C236 C -0.06940 0.01341 0.53309
 C237 C -0.05578 0.00961 0.54909
 C238 C -0.03956 0.02343 0.55296
 C239 C -0.02597 0.01952 0.56888
 C240 C -0.00953 0.03322 0.57269
 C241 C -0.00696 0.05113 0.56043
 H242 H -0.05832 0.06647 0.50034
 H243 H -0.00522 0.08367 0.53504
 H244 H -0.07704 0.03436 0.50849
 H245 H -0.05792 -0.00406 0.55868
 H246 H -0.02833 0.00587 0.57844
 H247 H 0.00580 0.06166 0.56307
 C248 C 0.44723 0.54329 0.02700
 C249 C 0.45051 0.56083 0.01448
 C250 C 0.46724 0.57461 0.01765
 C251 C 0.48060 0.57015 0.03391
 C252 C 0.47741 0.55275 0.04659
 C253 C 0.46071 0.53925 0.04313
 C254 C 0.43067 0.52967 0.02358
 C255 C 0.42753 0.51196 0.03597
 C256 C 0.44098 0.50815 0.05212
 C257 C 0.45753 0.52163 0.05576
 C258 C 0.47098 0.51772 0.07180
 C259 C 0.48778 0.53105 0.07532
 C260 C 0.49088 0.54853 0.06260
 H261 H 0.43940 0.56398 0.00278
 H262 H 0.49413 0.57963 0.03641
 H263 H 0.42047 0.53260 0.01098
 H264 H 0.43849 0.49470 0.06194
 H265 H 0.46824 0.50436 0.08167
 H266 H 0.50395 0.55874 0.06499
 C267 C 0.54238 -0.04663 0.02528
 C268 C 0.53834 -0.06289 0.01168
 C269 C 0.52174 -0.07665 0.01529
 C270 C 0.50914 -0.07395 0.03278
 C271 C 0.51300 -0.05774 0.04652
 C272 C 0.52968 -0.04401 0.04277
 C273 C 0.55891 -0.03292 0.02161
 C274 C 0.56295 -0.01649 0.03513
 C275 C 0.55024 -0.01402 0.05259
 C276 C 0.53366 -0.02767 0.05650
 C277 C 0.52098 -0.02522 0.07391
 C278 C 0.50433 -0.03887 0.07780
 C279 C 0.50045 -0.05507 0.06396
 H280 H 0.54796 -0.06464 -0.00191
 H281 H 0.49648 -0.08464 0.03586
 H282 H 0.56882 -0.03521 0.00831
 H283 H 0.55306 -0.00127 0.06299
 H284 H 0.52427 -0.01285 0.08459
 H285 H 0.48746 -0.06547 0.06662
 C286 C 1.05042 0.45520 0.52982
 C287 C 1.04611 0.44013 0.51501
 C288 C 1.02835 0.42731 0.51668
 C289 C 1.01511 0.43001 0.53387
 C290 C 1.01932 0.44492 0.54881
 C291 C 1.03699 0.45761 0.54678
 C292 C 1.06798 0.46798 0.52788
 C293 C 1.07229 0.48313 0.54269
 C294 C 1.05878 0.48536 0.55957
 C295 C 1.04122 0.47269 0.56174
 C296 C 1.02785 0.47487 0.57867
 C297 C 1.01027 0.46212 0.58091
 C298 C 1.00611 0.44722 0.56585
 H299 H 1.05629 0.43916 0.50178
 H300 H 1.00187 0.41995 0.53632
 H301 H 1.07844 0.46594 0.51496
 H302 H 1.06175 0.49719 0.57091
 H303 H 1.03132 0.48625 0.59030
 H304 H 0.99241 0.43756 0.56727
 C305 C 0.40168 0.01109 0.22713
 H306 H 0.40311 0.02578 0.23504
 C307 C 0.41445 0.00680 0.21027
 H308 H 0.42577 0.01828 0.20532
 C309 C 0.38565 -0.02202 0.22452
 H310 H 0.37462 -0.03335 0.23028
 C311 C 0.39818 -0.02700 0.20769
 H312 H 0.39637 -0.04200 0.20042
 N313 N 0.38752 -0.00319 0.23379
 C314 C 0.34173 0.03271 0.26817
 H315 H 0.34191 0.02443 0.28258
 C316 C 0.32797 0.04912 0.26541
 H317 H 0.31784 0.05363 0.27794
 C318 C 0.35468 0.03664 0.23433
 H319 H 0.36473 0.03139 0.22209
 C320 C 0.34113 0.05313 0.23090
 H321 H 0.34096 0.06040 0.21597
 Zn322 Zn 0.37148 0.00321 0.25735
 N323 N 0.35477 0.02685 0.25277
 C324 C 0.39071 0.02689 0.28835
 N325 N 0.39002 0.00815 0.27874
 C326 C 0.40352 -0.00729 0.28325
 C327 C 0.41829 -0.00432 0.29817
 C328 C 0.40529 0.03057 0.30333
 C329 C 0.33814 -0.02279 0.25030
 C330 C 0.32374 -0.03861 0.25394
 C331 C 0.34084 -0.04673 0.28540
 C332 C 0.35486 -0.03059 0.28123
 N333 N 0.35338 -0.01915 0.26380
 H334 H 0.38025 0.03919 0.28415
 H335 H 0.40285 -0.02193 0.27514
 H336 H 0.42869 -0.01695 0.30169
 H337 H 0.40586 0.04573 0.31051
 H338 H 0.33722 -0.01332 0.23666
 H339 H 0.31187 -0.04141 0.24288
 H340 H 0.34213 -0.05564 0.29937
 H341 H 0.36677 -0.02716 0.29201
 C342 C 0.32743 0.05948 0.24652
 C343 C 0.41284 -0.01249 0.20037
 C344 C 0.32499 -0.05084 0.27166
 C345 C 0.41940 0.01487 0.30837
 C346 C 0.09509 -0.00919 0.72042
 H347 H 0.09432 -0.02312 0.72976
 C348 C 0.08264 -0.00739 0.70339
 H349 H 0.07222 -0.02000 0.69973
 C350 C 0.10923 0.02440 0.71423
 H351 H 0.11941 0.03687 0.71865
 C352 C 0.09692 0.02693 0.69716
 H353 H 0.09806 0.04122 0.68835
 N354 N 0.10831 0.00642 0.72530
 C355 C 0.15579 -0.02451 0.76057
 H356 H 0.15571 -0.01473 0.77398
 C357 C 0.16971 -0.04101 0.75891
 H358 H 0.18018 -0.04400 0.77124
 C359 C 0.14224 -0.03237 0.72818
 H360 H 0.13187 -0.02869 0.71601
 C361 C 0.15582 -0.04911 0.72594
 H362 H 0.15569 -0.05817 0.71205
 Zn363 Zn 0.12456 0.00260 0.74869
 N364 N 0.14231 -0.02060 0.74540
 C365 C 0.10663 -0.01925 0.78258
 N366 N 0.10617 -0.00155 0.77111
 C367 C 0.09206 0.01366 0.77495
 C368 C 0.07807 0.01170 0.79128
 C369 C 0.09283 -0.02191 0.79902
 C370 C 0.15574 0.03135 0.73850
 C371 C 0.16882 0.04843 0.74113
 C372 C 0.15268 0.05430 0.77412
 C373 C 0.13988 0.03716 0.77082
 N374 N 0.14144 0.02624 0.75312
 H375 H 0.11766 -0.03135 0.77903
 H376 H 0.09181 0.02740 0.76534
 H377 H 0.06696 0.02398 0.79410
 H378 H 0.09365 -0.03593 0.80821
 H379 H 0.15689 0.02219 0.72471
 H380 H 0.17979 0.05249 0.72911
 H381 H 0.15135 0.06259 0.78843
 H382 H 0.12890 0.03248 0.78256
 C383 C 0.16981 -0.05358 0.74142
 C384 C 0.08352 0.01083 0.69147
 C385 C 0.16735 0.06021 0.75912
 C386 C 0.07840 -0.00623 0.80363
 C387 C 0.59472 0.48952 0.22166
 H388 H 0.59440 0.47545 0.23083
 C389 C 0.58178 0.49136 0.20500
 H390 H 0.57141 0.47867 0.20150
 C391 C 0.60841 0.52330 0.21542
 H392 H 0.61866 0.53578 0.21965
 C393 C 0.59560 0.52586 0.19870
 H394 H 0.59640 0.54022 0.18997
 N395 N 0.60796 0.50519 0.22630
 C396 C 0.65564 0.47171 0.25914
 H397 H 0.65560 0.48003 0.27346
 C398 C 0.66913 0.45502 0.25602
 H399 H 0.67951 0.45058 0.26802
 C400 C 0.64263 0.46787 0.22584
 H401 H 0.63258 0.47312 0.21394
 C402 C 0.65595 0.45122 0.22203
 H403 H 0.65561 0.44354 0.20736
 Zn404 Zn 0.62505 0.50079 0.24899
 N405 N 0.64254 0.47761 0.24423
 C406 C 0.60766 0.47821 0.28289
 N407 N 0.60732 0.49620 0.27184
 C408 C 0.59369 0.51164 0.27641
 C409 C 0.58018 0.50968 0.29312
 C410 C 0.59431 0.47554 0.29970
 C411 C 0.65574 0.53001 0.23841
 C412 C 0.66876 0.54714 0.24101
 C413 C 0.65407 0.55172 0.27482
 C414 C 0.64131 0.53455 0.27156
 N415 N 0.64214 0.52426 0.25346
 H416 H 0.61823 0.46589 0.27873
 H417 H 0.59347 0.52560 0.26710
 H418 H 0.56948 0.52218 0.29652
 H419 H 0.59504 0.46129 0.30856
 H420 H 0.65633 0.52133 0.22429
 H421 H 0.67914 0.55174 0.22866
 H422 H 0.65330 0.55955 0.28942
 H423 H 0.63094 0.52935 0.28362
 C424 C 0.66941 0.44457 0.23723
 C425 C 0.58222 0.50966 0.19320
 C426 C 0.66795 0.55832 0.25939
 C427 C 0.58047 0.49150 0.30510
 C428 C 0.90314 0.50978 0.72754
 H429 H 0.90413 0.52458 0.73532
 C430 C 0.91654 0.50545 0.71120
 H431 H 0.92793 0.51698 0.70656
 C432 C 0.88746 0.47653 0.72466
 H433 H 0.87631 0.46518 0.73012
 C434 C 0.90060 0.47152 0.70828
 H435 H 0.89911 0.45647 0.70103
 N436 N 0.88878 0.49551 0.73375
 C437 C 0.84193 0.53350 0.76433
 H438 H 0.84114 0.52594 0.77911
 C439 C 0.82946 0.55071 0.76040
 H440 H 0.81931 0.55651 0.77239
 C441 C 0.85636 0.53515 0.73089
 H442 H 0.86655 0.52881 0.71929
 C443 C 0.84413 0.55236 0.72629
 H444 H 0.84510 0.55905 0.71112
 Zn445 Zn 0.87155 0.50279 0.75622
 N446 N 0.85526 0.52628 0.74976
 C447 C 0.88962 0.52812 0.78667
 N448 N 0.88913 0.50881 0.77818
 C449 C 0.90212 0.49351 0.78430
 C450 C 0.91607 0.49721 0.79984
 C451 C 0.90341 0.53253 0.80219
 C452 C 0.83956 0.47473 0.74876
 C453 C 0.82557 0.45860 0.75287
 C454 C 0.83943 0.45557 0.78669
 C455 C 0.85325 0.47167 0.78188
 N456 N 0.85325 0.48070 0.76307
 H457 H 0.87957 0.54025 0.78126
 H458 H 0.90171 0.47843 0.77697
 H459 H 0.92644 0.48489 0.80435
 H460 H 0.90348 0.54794 0.80887
 H461 H 0.83961 0.48248 0.73407
 H462 H 0.81479 0.45407 0.74128
 H463 H 0.83985 0.44836 0.80163
 H464 H 0.86388 0.47698 0.79324
 C465 C 0.83053 0.56046 0.74118
 C466 C 0.91533 0.48612 0.70129
 C467 C 0.82543 0.44877 0.77203
 C468 C 0.91688 0.51696 0.80895
 C469 C 0.22164 0.40272 0.00405
 H470 H 0.22887 0.40311 0.01877
 C471 C 0.20472 0.41549 0.00026
 H472 H 0.19883 0.42544 0.01232
 C473 C 0.22054 0.38906 -0.02943
 H474 H 0.22700 0.37909 -0.04113
 C475 C 0.20366 0.40163 -0.03390
 H476 H 0.19735 0.40113 -0.04906
 N477 N 0.22899 0.38961 -0.01062
 C478 C 0.26168 0.34180 0.02344
 H479 H 0.27618 0.34192 0.01499
 C480 C 0.25900 0.32854 0.04020
 H481 H 0.27149 0.31835 0.04449
 C482 C 0.22773 0.35481 0.02784
 H483 H 0.21553 0.36496 0.02289
 C484 C 0.22434 0.34169 0.04465
 H485 H 0.20963 0.34217 0.05273
 Zn486 Zn 0.25215 0.37296 -0.00446
 N487 N 0.24633 0.35493 0.01788
 C488 C 0.28280 0.39057 0.02063
 N489 N 0.27412 0.39121 0.00192
 C490 C 0.28071 0.40511 -0.01253
 C491 C 0.29731 0.41839 -0.00875
 C492 C 0.29938 0.40357 0.02506
 C493 C 0.24530 0.34179 -0.03327
 C494 C 0.24978 0.32865 -0.04968
 C495 C 0.28371 0.34416 -0.05235
 C496 C 0.27855 0.35709 -0.03596
 N497 N 0.25950 0.35588 -0.02695
 H498 H 0.27691 0.37999 0.03220
 H499 H 0.27330 0.40555 -0.02717
 H500 H 0.30275 0.42885 -0.02070
 H501 H 0.30606 0.40278 0.04005
 H502 H 0.23043 0.34085 -0.02555
 H503 H 0.23828 0.31751 -0.05446
 H504 H 0.29884 0.34555 -0.05952
 H505 H 0.28984 0.36797 -0.03039
 C506 C 0.24021 0.32855 0.05119
 C507 C 0.19544 0.41502 -0.01893
 C508 C 0.26919 0.32979 -0.05949
 C509 C 0.30705 0.41752 0.01018
 C510 C 0.71502 0.08983 -0.00636
 H511 H 0.72414 0.08973 -0.02035
 C512 C 0.69772 0.07697 -0.00436
 H513 H 0.69365 0.06686 -0.01686
 C514 C 0.70950 0.10296 0.02703
 H515 H 0.71424 0.11299 0.03928
 C516 C 0.69215 0.09021 0.02975
 H517 H 0.68346 0.09082 0.04400
 N518 N 0.72031 0.10281 0.00904
 C519 C 0.75373 0.15273 -0.02292
 H520 H 0.76823 0.15271 -0.01503
 C521 C 0.75046 0.16705 -0.03865
 H522 H 0.76253 0.17807 -0.04276
 C523 C 0.72011 0.13888 -0.02660
 H524 H 0.70814 0.12818 -0.02167
 C525 C 0.71617 0.15295 -0.04230
 H526 H 0.70134 0.15252 -0.04960
 Zn527 Zn 0.74364 0.12014 0.00445
 N528 N 0.73874 0.13882 -0.01740
 C529 C 0.77769 0.10419 -0.01903
 N530 N 0.76621 0.10235 -0.00153
 C531 C 0.77000 0.08703 0.01228
 C532 C 0.78609 0.07298 0.00894
 C533 C 0.79405 0.09053 -0.02293
 C534 C 0.73450 0.15037 0.03395
 C535 C 0.73774 0.16289 0.05097
 C536 C 0.77108 0.14676 0.05476
 C537 C 0.76718 0.13452 0.03769
 N538 N 0.74902 0.13635 0.02782
 H539 H 0.77414 0.11611 -0.03008
 H540 H 0.76048 0.08579 0.02597
 H541 H 0.78902 0.06108 0.02026
 H542 H 0.80297 0.09212 -0.03698
 H543 H 0.72031 0.15170 0.02563
 H544 H 0.72579 0.17363 0.05585
 H545 H 0.78572 0.14522 0.06227
 H546 H 0.77877 0.12372 0.03228
 C547 C 0.73145 0.16728 -0.04855
 C548 C 0.68593 0.07719 0.01382
 C549 C 0.75621 0.16113 0.06168
 C550 C 0.79840 0.07467 -0.00884
 C551 C 0.21993 0.59229 0.49645
 H552 H 0.22823 0.59157 0.48200
 C553 C 0.20365 0.57851 0.50051
 H554 H 0.19954 0.56713 0.48912
 C555 C 0.21570 0.60762 0.52909
 H556 H 0.22063 0.61877 0.54030
 C557 C 0.19943 0.59403 0.53385
 H558 H 0.19170 0.59517 0.54859
 N559 N 0.22545 0.60665 0.51056
 C560 C 0.25711 0.65475 0.47445
 H561 H 0.27170 0.65543 0.48215
 C562 C 0.25333 0.66831 0.45823
 H563 H 0.26510 0.67945 0.45357
 C564 C 0.22372 0.64004 0.47188
 H565 H 0.21204 0.62933 0.47749
 C566 C 0.21926 0.65335 0.45566
 H567 H 0.20431 0.65235 0.44865
 Zn568 Zn 0.24812 0.62427 0.50399
 N569 N 0.24243 0.64090 0.48085
 C570 C 0.28127 0.60653 0.48071
 N571 N 0.27108 0.60675 0.49904
 C572 C 0.27630 0.59350 0.51432
 C573 C 0.29255 0.57951 0.51161
 C574 C 0.29764 0.59275 0.47734
 C575 C 0.23825 0.65672 0.53063
 C576 C 0.24120 0.67124 0.54611
 C577 C 0.27532 0.65723 0.55089
 C578 C 0.27170 0.64295 0.53532
 N579 N 0.25331 0.64282 0.52569
 H580 H 0.27655 0.61678 0.46857
 H581 H 0.26774 0.59381 0.52864
 H582 H 0.29662 0.56934 0.52411
 H583 H 0.30535 0.59257 0.46255
 H584 H 0.22389 0.65646 0.52252
 H585 H 0.22885 0.68190 0.55004
 H586 H 0.29014 0.65726 0.55820
 H587 H 0.28371 0.63218 0.53079
 C588 C 0.23414 0.66780 0.44869
 C589 C 0.19317 0.57928 0.51943
 C590 C 0.25994 0.67163 0.55649
 C591 C 0.30344 0.57895 0.49290
 C592 C 0.72576 0.90531 0.50205
 H593 H 0.73298 0.90543 0.51678
 C594 C 0.70910 0.91844 0.49835
 H595 H 0.70339 0.92840 0.51049
 C596 C 0.72431 0.89180 0.46853
 H597 H 0.73050 0.88168 0.45681
 C598 C 0.70770 0.90475 0.46413
 H599 H 0.70133 0.90441 0.44900
 N600 N 0.73273 0.89202 0.48736
 C601 C 0.76237 0.84274 0.52226
 H602 H 0.77739 0.84239 0.51479
 C603 C 0.75795 0.82916 0.53848
 H604 H 0.76964 0.81830 0.54336
 C605 C 0.72873 0.85695 0.52454
 H606 H 0.71725 0.86754 0.51889
 C607 C 0.72361 0.84357 0.54072
 H608 H 0.70835 0.84440 0.54764
 Zn609 Zn 0.75508 0.87435 0.49369
 N610 N 0.74794 0.85652 0.51586
 C611 C 0.78669 0.89065 0.51872
 N612 N 0.77767 0.89171 0.50019
 C613 C 0.78420 0.90568 0.48579
 C614 C 0.80093 0.91879 0.48948
 C615 C 0.80345 0.90349 0.52306
 C616 C 0.74716 0.84362 0.46475
 C617 C 0.75100 0.83076 0.44798
 C618 C 0.78534 0.84530 0.44516
 C619 C 0.78082 0.85793 0.46195
 N620 N 0.76185 0.85714 0.47115
 H621 H 0.78088 0.87994 0.53021
 H622 H 0.77654 0.90641 0.47130
 H623 H 0.80623 0.92940 0.47760
 H624 H 0.81038 0.90246 0.53792
 H625 H 0.73230 0.84311 0.47253
 H626 H 0.73886 0.82058 0.44278
 H627 H 0.80056 0.84611 0.43811
 H628 H 0.79252 0.86829 0.46763
 C629 C 0.73836 0.82953 0.54797
 C630 C 0.69971 0.91816 0.47922
 C631 C 0.77026 0.83161 0.43783
 C632 C 0.81091 0.91768 0.50827
 C633 C 0.00779 0.22767 0.40613
 H634 H 0.02186 0.23673 0.40510
 C635 C 0.00600 0.21139 0.42028
 H636 H 0.01894 0.20783 0.42985
 C637 C -0.02610 0.22136 0.39476
 H638 H -0.03879 0.22561 0.38519
 C639 C -0.02857 0.20498 0.40871
 H640 H -0.04316 0.19677 0.40960
 N641 N -0.00802 0.23214 0.39353
 C642 C 0.02249 0.26554 0.34322
 H643 H 0.01325 0.27956 0.34310
 C644 C 0.03857 0.26311 0.32898
 H645 H 0.04182 0.27556 0.31818
 C646 C 0.02937 0.23239 0.35759
 H647 H 0.02544 0.22024 0.36845
 C648 C 0.04557 0.22928 0.34358
 H649 H 0.05395 0.21471 0.34387
 Zn650 Zn -0.00446 0.25483 0.37517
 N651 N 0.01833 0.25038 0.35726
 C652 C 0.01743 0.29014 0.38992
 N653 N -0.00041 0.27897 0.39110
 C654 C -0.01575 0.28412 0.40456
 C655 C -0.01364 0.30133 0.41731
 C656 C 0.02022 0.30748 0.40243
 C657 C -0.03336 0.24137 0.34707
 C658 C -0.05007 0.24277 0.33407
 C659 C -0.05454 0.27867 0.34423
 C660 C -0.03794 0.27644 0.35734
 N661 N -0.02783 0.25795 0.35861
 H662 H 0.02965 0.28553 0.37947
 H663 H -0.02962 0.27472 0.40544
 H664 H -0.02594 0.30499 0.42809
 H665 H 0.03444 0.31631 0.40113
 H666 H -0.02480 0.22696 0.34810
 H667 H -0.05450 0.22911 0.32556
 H668 H -0.06198 0.29370 0.34311
 H669 H -0.03288 0.28966 0.36613
 C670 C 0.05035 0.24476 0.32899
 C671 C -0.01236 0.19975 0.42167
 C672 C -0.06089 0.26166 0.33238
 C673 C 0.00454 0.31328 0.41635
 C674 C 0.00110 0.72368 0.08888
 H675 H -0.01294 0.73268 0.08802
 C676 C 0.00484 0.70759 0.07503
 H677 H -0.00637 0.70439 0.06342
 C678 C 0.03305 0.71745 0.10471
 H679 H 0.04416 0.72151 0.11610
 C680 C 0.03742 0.70125 0.09116
 H681 H 0.05170 0.69271 0.09261
 N682 N 0.01500 0.72810 0.10353
 C683 C -0.02089 0.75814 0.15198
 H684 H -0.01216 0.77242 0.15364
 C685 C -0.03793 0.75418 0.16476
 H686 H -0.04213 0.76546 0.17634
 C687 C -0.02538 0.72576 0.13535
 H688 H -0.02027 0.71456 0.12410
 C689 C -0.04253 0.72117 0.14778
 H690 H -0.05069 0.70663 0.14561
 Zn691 Zn 0.00877 0.75032 0.12154
 N692 N -0.01506 0.74408 0.13754
 C693 C -0.01406 0.78419 0.10541
 N694 N 0.00446 0.77428 0.10525
 C695 C 0.02002 0.78031 0.09233
 C696 C 0.01734 0.79703 0.07896
 C697 C -0.01744 0.80095 0.09223
 C698 C 0.03486 0.73870 0.15285
 C699 C 0.05081 0.74059 0.16670
 C700 C 0.05733 0.77545 0.15398
 C701 C 0.04131 0.77284 0.14027
 N702 N 0.03065 0.75456 0.13977
 H703 H -0.02643 0.77882 0.11538
 H704 H 0.03448 0.77194 0.09231
 H705 H 0.03001 0.80167 0.06894
 H706 H -0.03245 0.80829 0.09225
 H707 H 0.02585 0.72450 0.15240
 H708 H 0.05392 0.72778 0.17699
 H709 H 0.06589 0.78997 0.15396
 H710 H 0.03743 0.78544 0.13008
 C711 C -0.04901 0.73547 0.16276
 C712 C 0.02318 0.69606 0.07611
 C713 C 0.06235 0.75912 0.16732
 C714 C -0.00166 0.80750 0.07866
 C715 C 0.50174 0.22260 0.59074
 H716 H 0.48744 0.23122 0.59049
 C717 C 0.50543 0.20683 0.57651
 H718 H 0.49389 0.20344 0.56527
 C719 C 0.53446 0.21712 0.60529
 H720 H 0.54587 0.22137 0.61632
 C721 C 0.53884 0.20134 0.59125
 H722 H 0.55348 0.19330 0.59191
 N723 N 0.51607 0.22726 0.60490
 C724 C 0.48107 0.25725 0.65408
 H725 H 0.48983 0.27153 0.65555
 C726 C 0.46420 0.25335 0.66710
 H727 H 0.46018 0.26469 0.67869
 C728 C 0.47631 0.22481 0.63763
 H729 H 0.48124 0.21356 0.62636
 C730 C 0.45932 0.22029 0.65031
 H731 H 0.45109 0.20576 0.64828
 Zn732 Zn 0.51015 0.24942 0.62307
 N733 N 0.48667 0.24314 0.63959
 C734 C 0.48688 0.28323 0.60736
 N735 N 0.50539 0.27331 0.60683
 C736 C 0.52065 0.27923 0.59352
 C737 C 0.51766 0.29584 0.58010
 C738 C 0.48320 0.29989 0.59414
 C739 C 0.53688 0.23813 0.65399
 C740 C 0.55292 0.24028 0.66771
 C741 C 0.55933 0.27492 0.65440
 C742 C 0.54314 0.27210 0.64090
 N743 N 0.53245 0.25382 0.64079
 H744 H 0.47474 0.27793 0.61764
 H745 H 0.53511 0.27085 0.59320
 H746 H 0.53010 0.30039 0.56976
 H747 H 0.46819 0.30723 0.59445
 H748 H 0.52787 0.22391 0.65383
 H749 H 0.55605 0.22765 0.67820
 H750 H 0.56787 0.28945 0.65403
 H751 H 0.53912 0.28456 0.63061
 C752 C 0.45304 0.23466 0.66530
 C753 C 0.52420 0.19600 0.57664
 C754 C 0.56445 0.25885 0.66800
 C755 C 0.49866 0.30631 0.58016
 C756 C 0.50835 0.72184 0.90525
 H757 H 0.52195 0.73165 0.90506
 C758 C 0.50627 0.70590 0.91969
 H759 H 0.51850 0.70332 0.93041
 C760 C 0.47580 0.71352 0.89159
 H761 H 0.46366 0.71692 0.88107
 C762 C 0.47314 0.69731 0.90570
 H763 H 0.45901 0.68829 0.90574
 N764 N 0.49331 0.72526 0.89148
 C765 C 0.52567 0.76018 0.84337
 H766 H 0.51597 0.77386 0.84278
 C767 C 0.54288 0.75861 0.83039
 H768 H 0.54629 0.77113 0.81971
 C769 C 0.53257 0.72699 0.85768
 H770 H 0.52835 0.71460 0.86817
 C771 C 0.54988 0.72471 0.84486
 H772 H 0.55907 0.71069 0.84589
 Zn773 Zn 0.49720 0.74824 0.87357
 N774 N 0.52101 0.74463 0.85685
 C775 C 0.51765 0.78350 0.89035
 N776 N 0.49995 0.77207 0.89024
 C777 C 0.48378 0.77668 0.90291
 C778 C 0.48485 0.79363 0.91613
 C779 C 0.51942 0.80054 0.90341
 C780 C 0.46896 0.73512 0.84423
 C781 C 0.45244 0.73695 0.83100
 C782 C 0.44866 0.77289 0.84123
 C783 C 0.46494 0.77022 0.85460
 N784 N 0.47457 0.75148 0.85604
 H785 H 0.53052 0.77929 0.88052
 H786 H 0.47005 0.76708 0.90277
 H787 H 0.47187 0.79692 0.92624
 H788 H 0.53354 0.80959 0.90318
 H789 H 0.47721 0.72053 0.84529
 H790 H 0.44784 0.72342 0.82238
 H791 H 0.44166 0.78813 0.84005
 H792 H 0.47014 0.78329 0.86350
 C793 C 0.55528 0.74071 0.83106
 C794 C 0.48847 0.69339 0.92004
 C795 C 0.44198 0.75606 0.82932
 C796 C 0.50286 0.80581 0.91651
 C797 C 0.11716 0.23193 0.27099
 C798 C 0.11542 0.23323 0.24966
 C799 C 0.13265 0.22941 0.23716
 C800 C 0.15158 0.22409 0.24573
 C801 C 0.15265 0.22278 0.26705
 N802 N 0.13570 0.22666 0.27892
 C803 C 0.09949 0.23558 0.28524
 N804 N 0.10104 0.22900 0.30493
 C805 C 0.08568 0.23171 0.31906
 C806 C 0.06730 0.24169 0.31372
 C807 C 0.06541 0.24877 0.29356
 C808 C 0.08142 0.24585 0.27934
 H809 H 0.13106 0.23018 0.22076
 H810 H 0.16700 0.21888 0.27430
 H811 H 0.08799 0.22632 0.33450
 H812 H 0.05146 0.25640 0.28869
 H813 H 0.10095 0.23669 0.24252
 H814 H 0.07957 0.25187 0.26408
 C815 C 0.62520 0.73213 0.77606
 C816 C 0.63562 0.74898 0.76666
 C817 C 0.65185 0.74515 0.75291
 C818 C 0.65770 0.72463 0.74827
 C819 C 0.64682 0.70824 0.75786
 N820 N 0.63108 0.71235 0.77122
 C821 C 0.60761 0.73506 0.79058
 N822 N 0.59487 0.71857 0.79461
 C823 C 0.57830 0.71990 0.80756
 C824 C 0.57364 0.73879 0.81733
 C825 C 0.58670 0.75592 0.81367
 C826 C 0.60372 0.75412 0.80045
 H827 H 0.65989 0.75828 0.74601
 H828 H 0.65057 0.69217 0.75450
 H829 H 0.56858 0.70633 0.80987
 H830 H 0.58392 0.77065 0.82125
 H831 H 0.63124 0.76496 0.76948
 H832 H 0.61372 0.76748 0.79837
 C833 C 0.37397 0.76759 0.77511
 C834 C 0.36464 0.75132 0.76443
 C835 C 0.34800 0.75563 0.75191
 C836 C 0.34082 0.77618 0.74971
 C837 C 0.35072 0.79198 0.76071
 N838 N 0.36667 0.78733 0.77305
 C839 C 0.39133 0.76381 0.78882
 N840 N 0.39249 0.77488 0.80640
 C841 C 0.40823 0.77248 0.81957
 C842 C 0.42439 0.75850 0.81517
 C843 C 0.42351 0.74707 0.79693
 C844 C 0.40696 0.74955 0.78385
 H845 H 0.34062 0.74280 0.74423
 H846 H 0.34608 0.80810 0.75931
 H847 H 0.40790 0.78138 0.83355
 H848 H 0.43576 0.73652 0.79249
 H849 H 0.36983 0.73538 0.76610
 H850 H 0.40671 0.74086 0.76973
 C851 C -0.12957 0.26956 0.27836
 C852 C -0.13735 0.25267 0.26747
 C853 C -0.15412 0.25556 0.25479
 C854 C -0.16328 0.27541 0.25251
 C855 C -0.15494 0.29184 0.26416
 N856 N -0.13869 0.28850 0.27654
 C857 C -0.11180 0.26718 0.29189
 N858 N -0.11120 0.27831 0.30949
 C859 C -0.09526 0.27679 0.32259
 C860 C -0.07846 0.26362 0.31816
 C861 C -0.07870 0.25233 0.29982
 C862 C -0.09533 0.25396 0.28677
 H863 H -0.16016 0.24183 0.24750
 H864 H -0.16052 0.30763 0.26296
 H865 H -0.09597 0.28564 0.33659
 H866 H -0.06590 0.24246 0.29533
 H867 H -0.13086 0.23723 0.26908
 H868 H -0.09508 0.24532 0.27261
 C869 C -0.11882 0.71916 0.21628
 C870 C -0.12814 0.69957 0.21907
 C871 C -0.14501 0.69746 0.23246
 C872 C -0.15288 0.71479 0.24328
 C873 C -0.14307 0.73420 0.23970
 N874 N -0.12674 0.73581 0.22650
 C875 C -0.10090 0.72248 0.20229
 N876 N -0.09716 0.74203 0.19494
 C877 C -0.08088 0.74650 0.18230
 C878 C -0.06701 0.73077 0.17638
 C879 C -0.07048 0.71050 0.18390
 C880 C -0.08732 0.70630 0.19685
 H881 H -0.15121 0.68195 0.23476
 H882 H -0.14872 0.74837 0.24665
 H883 H -0.07893 0.76231 0.17674
 H884 H -0.05993 0.69798 0.18013
 H885 H -0.12270 0.68597 0.21092
 H886 H -0.08925 0.69068 0.20285
 C887 C 0.38322 0.21873 0.71895
 C888 C 0.37356 0.19926 0.72130
 C889 C 0.35658 0.19717 0.73455
 C890 C 0.34895 0.21440 0.74569
 C891 C 0.35914 0.23369 0.74258
 N892 N 0.37555 0.23530 0.72947
 C893 C 0.40121 0.22200 0.70504
 N894 N 0.40511 0.24156 0.69776
 C895 C 0.42141 0.24594 0.68511
 C896 C 0.43511 0.23009 0.67908
 C897 C 0.43150 0.20984 0.68655
 C898 C 0.41465 0.20573 0.69952
 H899 H 0.35010 0.18173 0.73650
 H900 H 0.35370 0.24781 0.74982
 H901 H 0.42347 0.26174 0.67960
 H902 H 0.44193 0.19723 0.68271
 H903 H 0.37881 0.18575 0.71289
 H904 H 0.41257 0.19010 0.70546
 C905 C 0.62942 0.26972 0.72589
 C906 C 0.63784 0.25329 0.73714
 C907 C 0.65279 0.25746 0.75158
 C908 C 0.65960 0.27804 0.75513
 C909 C 0.65057 0.29402 0.74340
 N910 N 0.63592 0.28951 0.72952
 C911 C 0.61315 0.26631 0.71067
 N912 N 0.60045 0.28242 0.70594
 C913 C 0.58501 0.28049 0.69233
 C914 C 0.58159 0.26140 0.68251
 C915 C 0.59474 0.24469 0.68689
 C916 C 0.61052 0.24707 0.70085
 H917 H 0.65940 0.24425 0.75937
 H918 H 0.65432 0.31024 0.74575
 H919 H 0.57519 0.29377 0.68952
 H920 H 0.59300 0.22983 0.67931
 H921 H 0.63282 0.23735 0.73514
 H922 H 0.62067 0.23404 0.70358
 C923 C 0.12800 0.76906 0.22461
 C924 C 0.13928 0.75259 0.23312
 C925 C 0.15452 0.75689 0.24726
 C926 C 0.15851 0.77750 0.25315
 C927 C 0.14679 0.79348 0.24445
 N928 N 0.13206 0.78892 0.23068
 C929 C 0.11144 0.76570 0.20964
 N930 N 0.09813 0.78161 0.20595
 C931 C 0.08252 0.77995 0.19251
 C932 C 0.07950 0.76132 0.18182
 C933 C 0.09313 0.74477 0.18518
 C934 C 0.10914 0.74690 0.19894
 H935 H 0.16327 0.74407 0.25348
 H936 H 0.14906 0.80957 0.24880
 H937 H 0.07230 0.79307 0.19047
 H938 H 0.09161 0.73027 0.17692
 H939 H 0.13635 0.73650 0.22930
 H940 H 0.11963 0.73400 0.20075
 C941 C 0.26933 0.12530 0.23072
 C942 C 0.24779 0.12293 0.23220
 C943 C 0.23508 0.13977 0.22765
 C944 C 0.24365 0.15892 0.22145
 C945 C 0.26521 0.16057 0.21987
 N946 N 0.27730 0.14398 0.22447
 C947 C 0.28372 0.10804 0.23528
 N948 N 0.30343 0.10916 0.22779
 C949 C 0.31759 0.09402 0.23121
 C950 C 0.31226 0.07637 0.24293
 C951 C 0.29211 0.07501 0.25104
 C952 C 0.27787 0.09077 0.24736
 H953 H 0.21851 0.13769 0.22863
 H954 H 0.27248 0.17509 0.21526
 H955 H 0.33304 0.09590 0.22493
 H956 H 0.28726 0.06162 0.26005
 H957 H 0.24068 0.10824 0.23640
 H958 H 0.26261 0.08942 0.25416
 C959 C 0.77881 0.63134 0.72438
 C960 C 0.78607 0.65089 0.71755
 C961 C 0.77206 0.66689 0.71391
 C962 C 0.75086 0.66364 0.71723
 C963 C 0.74426 0.64405 0.72441
 N964 N 0.75818 0.62865 0.72772
 C965 C 0.79280 0.61358 0.72841
 N966 N 0.78553 0.59731 0.73988
 C967 C 0.79720 0.58033 0.74418
 C968 C 0.81757 0.57893 0.73667
 C969 C 0.82535 0.59544 0.72466
 C970 C 0.81306 0.61269 0.72044
 H971 H 0.77783 0.68193 0.70880
 H972 H 0.72804 0.64085 0.72708
 H973 H 0.79042 0.56783 0.75320
 H974 H 0.84101 0.59512 0.71866
 H975 H 0.80231 0.65411 0.71533
 H976 H 0.81942 0.62488 0.71077
 C977 C 0.76942 0.38049 0.78868
 C978 C 0.76197 0.37466 0.80817
 C979 C 0.74905 0.35733 0.81032
 C980 C 0.74358 0.34560 0.79321
 C981 C 0.75140 0.35188 0.77404
 N982 N 0.76394 0.36883 0.77232
 C983 C 0.78354 0.39849 0.78520
 N984 N 0.79352 0.40019 0.76680
 C985 C 0.80677 0.41606 0.76224
 C986 C 0.81077 0.43152 0.77672
 C987 C 0.80057 0.43025 0.79574
 C988 C 0.78688 0.41390 0.80001
 H989 H 0.74325 0.35316 0.82539
 H990 H 0.74788 0.34313 0.76046
 H991 H 0.81441 0.41636 0.74742
 H992 H 0.80291 0.44209 0.80719
 H993 H 0.76619 0.38298 0.82175
 H994 H 0.77895 0.41372 0.81464
 C995 C 0.26736 -0.11843 0.28450
 C996 C 0.24794 -0.11930 0.27551
 C997 C 0.23558 -0.13695 0.27821
 C998 C 0.24237 -0.15418 0.28974
 C999 C 0.26205 -0.15250 0.29848
 N1000 N 0.27379 -0.13511 0.29554
 C1001 C 0.28149 -0.10034 0.28171
 N1002 N 0.30188 -0.10289 0.28565
 C1003 C 0.31594 -0.08729 0.28297
 C1004 C 0.30976 -0.06772 0.27571
 C1005 C 0.28878 -0.06458 0.27198
 C1006 C 0.27461 -0.08072 0.27508
 H1007 H 0.22042 -0.13653 0.27168
 H1008 H 0.26872 -0.16525 0.30688
 H1009 H 0.33199 -0.09037 0.28602
 H1010 H 0.28330 -0.04955 0.26682
 H1011 H 0.24222 -0.10674 0.26619
 H1012 H 0.25852 -0.07759 0.27245
 C1013 C 0.22642 -0.12220 0.73124
 C1014 C 0.24599 -0.12347 0.73990
 C1015 C 0.25841 -0.14078 0.73600
 C1016 C 0.25155 -0.15726 0.72358
 C1017 C 0.23157 -0.15537 0.71556
 N1018 N 0.21984 -0.13829 0.71956
 C1019 C 0.21245 -0.10413 0.73447
 N1020 N 0.19240 -0.10600 0.72889
 C1021 C 0.17859 -0.09021 0.73099
 C1022 C 0.18466 -0.07103 0.73919
 C1023 C 0.20523 -0.06866 0.74499
 C1024 C 0.21917 -0.08504 0.74257
 H1025 H 0.27373 -0.14055 0.74219
 H1026 H 0.22476 -0.16766 0.70668
 H1027 H 0.16283 -0.09275 0.72644
 H1028 H 0.21065 -0.05397 0.75099
 H1029 H 0.25189 -0.11141 0.74964
 H1030 H 0.23500 -0.08240 0.74668
 C1031 C 0.72319 0.37450 0.22272
 C1032 C 0.72920 0.36755 0.20318
 C1033 C 0.74161 0.34992 0.20120
 C1034 C 0.74796 0.33897 0.21855
 C1035 C 0.74146 0.34628 0.23778
 N1036 N 0.72940 0.36354 0.23933
 C1037 C 0.70983 0.39300 0.22587
 N1038 N 0.69983 0.39532 0.24419
 C1039 C 0.68713 0.41169 0.24826
 C1040 C 0.68375 0.42698 0.23333
 C1041 C 0.69416 0.42512 0.21448
 C1042 C 0.70725 0.40830 0.21072
 H1043 H 0.74637 0.34496 0.18607
 H1044 H 0.74571 0.33815 0.25155
 H1045 H 0.67937 0.41250 0.26299
 H1046 H 0.69237 0.43684 0.20271
 H1047 H 0.72422 0.37527 0.18947
 H1048 H 0.71539 0.40764 0.19620
 C1049 C 0.72208 0.62857 0.27146
 C1050 C 0.71546 0.64884 0.27637
 C1051 C 0.73002 0.66460 0.27906
 C1052 C 0.75114 0.66038 0.27670
 C1053 C 0.75710 0.64003 0.27147
 N1054 N 0.74265 0.62490 0.26905
 C1055 C 0.70747 0.61105 0.26850
 N1056 N 0.71426 0.59378 0.25840
 C1057 C 0.70200 0.57693 0.25522
 C1058 C 0.68151 0.57671 0.26253
 C1059 C 0.67420 0.59428 0.27310
 C1060 C 0.68709 0.61138 0.27618
 H1061 H 0.72474 0.68019 0.28264
 H1062 H 0.77324 0.63607 0.26962
 H1063 H 0.70840 0.56360 0.24728
 H1064 H 0.65847 0.59487 0.27889
 H1065 H 0.69931 0.65275 0.27777
 H1066 H 0.68109 0.62443 0.28480
 C1067 C 0.22230 0.12975 0.77165
 C1068 C 0.21601 0.15011 0.77666
 C1069 C 0.23082 0.16557 0.77962
 C1070 C 0.25187 0.16097 0.77739
 C1071 C 0.25752 0.14059 0.77200
 N1072 N 0.24283 0.12574 0.76936
 C1073 C 0.20744 0.11246 0.76852
 N1074 N 0.21426 0.09484 0.75905
 C1075 C 0.20182 0.07814 0.75579
 C1076 C 0.18109 0.07845 0.76234
 C1077 C 0.17373 0.09640 0.77223
 C1078 C 0.18680 0.11334 0.77543
 H1079 H 0.22580 0.18121 0.78334
 H1080 H 0.27360 0.13636 0.77023
 H1081 H 0.20829 0.06451 0.74840
 H1082 H 0.15781 0.09742 0.77742
 H1083 H 0.19993 0.15434 0.77801
 H1084 H 0.18070 0.12667 0.78352
 C1085 C 0.22811 0.27612 0.12213
 C1086 C 0.24414 0.26829 0.13407
 C1087 C 0.23950 0.25552 0.15081
 C1088 C 0.21896 0.25027 0.15569
 C1089 C 0.20341 0.25820 0.14325
 N1090 N 0.20831 0.27068 0.12705
 C1091 C 0.23195 0.28977 0.10411
 N1092 N 0.21666 0.29219 0.09034
 C1093 C 0.21886 0.30444 0.07346
 C1094 C 0.23742 0.31518 0.06957
 C1095 C 0.25331 0.31312 0.08364
 C1096 C 0.25064 0.30058 0.10092
 H1097 H 0.25199 0.24990 0.16004
 H1098 H 0.18739 0.25429 0.14622
 H1099 H 0.20623 0.30553 0.06297
 H1100 H 0.26769 0.32152 0.08147
 H1101 H 0.26016 0.27160 0.13053
 H1102 H 0.26301 0.29983 0.11169
 C1103 C 0.72012 0.77587 0.61683
 C1104 C 0.70017 0.76982 0.62326
 C1105 C 0.69759 0.75730 0.64059
 C1106 C 0.71476 0.75086 0.65168
 C1107 C 0.73439 0.75738 0.64485
 N1108 N 0.73652 0.76955 0.62792
 C1109 C 0.72404 0.78939 0.59873
 N1110 N 0.74275 0.79894 0.59668
 C1111 C 0.74770 0.81160 0.58064
 C1112 C 0.73332 0.81539 0.56535
 C1113 C 0.71401 0.80554 0.56698
 C1114 C 0.70934 0.79249 0.58352
 H1115 H 0.68217 0.75255 0.64523
 H1116 H 0.74804 0.75310 0.65311
 H1117 H 0.76272 0.81898 0.58006
 H1118 H 0.70263 0.80769 0.55530
 H1119 H 0.68658 0.77486 0.61537
 H1120 H 0.69451 0.78476 0.58403
 C1121 C 0.78449 0.77984 0.36718
 C1122 C 0.79032 0.78740 0.34774
 C1123 C 0.79269 0.77350 0.33155
 C1124 C 0.78911 0.75211 0.33452
 C1125 C 0.78309 0.74521 0.35409
 N1126 N 0.78096 0.75903 0.36965
 C1127 C 0.78146 0.79372 0.38503
 N1128 N 0.77050 0.78638 0.40148
 C1129 C 0.76687 0.79803 0.41843
 C1130 C 0.77450 0.81849 0.41959
 C1131 C 0.78610 0.82631 0.40294
 C1132 C 0.78968 0.81401 0.38573
 H1133 H 0.79694 0.77953 0.31660
 H1134 H 0.78030 0.72883 0.35709
 H1135 H 0.75818 0.79120 0.43104
 H1136 H 0.79219 0.84204 0.40309
 H1137 H 0.79264 0.80383 0.34478
 H1138 H 0.79898 0.82040 0.37336
 C1139 C 0.28691 0.27619 -0.12804
 C1140 C 0.30663 0.26918 -0.13409
 C1141 C 0.30877 0.25607 -0.15094
 C1142 C 0.29143 0.24999 -0.16196
 C1143 C 0.27207 0.25759 -0.15562
 N1144 N 0.27036 0.27027 -0.13913
 C1145 C 0.28333 0.29001 -0.11021
 N1146 N 0.26457 0.29933 -0.10800
 C1147 C 0.25974 0.31199 -0.09206
 C1148 C 0.27428 0.31600 -0.07698
 C1149 C 0.29369 0.30654 -0.07884
 C1150 C 0.29826 0.29349 -0.09530
 H1151 H 0.32399 0.25048 -0.15518
 H1152 H 0.25831 0.25365 -0.16387
 H1153 H 0.24463 0.31910 -0.09132
 H1154 H 0.30522 0.30890 -0.06734
 H1155 H 0.32037 0.27378 -0.12621
 H1156 H 0.31317 0.28604 -0.09591
 C1157 C 0.71633 0.22384 -0.11514
 C1158 C 0.69652 0.22855 -0.12216
 C1159 C 0.69437 0.24170 -0.13897
 C1160 C 0.71182 0.25012 -0.14897
 C1161 C 0.73134 0.24488 -0.14161
 N1162 N 0.73306 0.23202 -0.12520
 C1163 C 0.71966 0.20975 -0.09752
 N1164 N 0.73837 0.20042 -0.09563
 C1165 C 0.74259 0.18711 -0.08007
 C1166 C 0.72741 0.18239 -0.06520
 C1167 C 0.70815 0.19215 -0.06662
 C1168 C 0.70424 0.20586 -0.08263
 H1169 H 0.67901 0.24541 -0.14404
 H1170 H 0.74523 0.25075 -0.14906
 H1171 H 0.75764 0.17989 -0.07961
 H1172 H 0.69617 0.18936 -0.05519
 H1173 H 0.68278 0.22195 -0.11510
 H1174 H 0.68939 0.21346 -0.08303
 C1175 C 0.21725 0.72467 0.38277
 C1176 C 0.19732 0.72950 0.37617
 C1177 C 0.19488 0.74289 0.35959
 C1178 C 0.21217 0.75144 0.34939
 C1179 C 0.23181 0.74618 0.35641
 N1180 N 0.23381 0.73307 0.37259
 C1181 C 0.22090 0.71023 0.40004
 N1182 N 0.23973 0.70106 0.40153
 C1183 C 0.24432 0.68758 0.41684
 C1184 C 0.22944 0.68255 0.43191
 C1185 C 0.21001 0.69201 0.43083
 C1186 C 0.20570 0.70588 0.41505
 H1187 H 0.17944 0.74662 0.35478
 H1188 H 0.24558 0.75215 0.34881
 H1189 H 0.25948 0.68059 0.41703
 H1190 H 0.19825 0.68899 0.44242
 H1191 H 0.18370 0.72279 0.38334
 H1192 H 0.19076 0.71331 0.41497
 C1193 C 0.27371 0.72963 0.62193
 C1194 C 0.27220 0.75146 0.62033
 C1195 C 0.27574 0.76381 0.63741
 C1196 C 0.28096 0.75458 0.65604
 C1197 C 0.28260 0.73278 0.65692
 N1198 N 0.27898 0.72107 0.64013
 C1199 C 0.27006 0.71549 0.60450
 N1200 N 0.27699 0.69550 0.60568
 C1201 C 0.27408 0.68137 0.59060
 C1202 C 0.26345 0.68700 0.57298
 C1203 C 0.25604 0.70749 0.57146
 C1204 C 0.25923 0.72172 0.58715
 H1205 H 0.27471 0.78060 0.63597
 H1206 H 0.28642 0.72499 0.67102
 H1207 H 0.27977 0.66566 0.59260
 H1208 H 0.24788 0.71257 0.55809
 H1209 H 0.26872 0.75909 0.60610
 H1210 H 0.25292 0.73722 0.58567
 C1211 C 0.77041 0.21334 0.13155
 C1212 C 0.77495 0.20590 0.15116
 C1213 C 0.77817 0.22004 0.16691
 C1214 C 0.77669 0.24156 0.16334
 C1215 C 0.77176 0.24835 0.14366
 N1216 N 0.76882 0.23429 0.12852
 C1217 C 0.76695 0.19921 0.11407
 N1218 N 0.75725 0.20687 0.09741
 C1219 C 0.75361 0.19509 0.08066
 C1220 C 0.76000 0.17419 0.07992
 C1221 C 0.77019 0.16601 0.09684
 C1222 C 0.77377 0.17841 0.11385
 H1223 H 0.78149 0.21412 0.18198
 H1224 H 0.77057 0.26482 0.14021
 H1225 H 0.74602 0.20218 0.06783
 H1226 H 0.77528 0.14994 0.09702
 H1227 H 0.77570 0.18943 0.15457
 H1228 H 0.78206 0.17172 0.12641
 C1229 C 0.48175 0.37265 0.52319
 C1230 C 0.48324 0.37060 0.50187
 C1231 C 0.47867 0.38758 0.48942
 C1232 C 0.47239 0.40657 0.49803
 C1233 C 0.47065 0.40788 0.51936
 N1234 N 0.47534 0.39116 0.53120
 C1235 C 0.48656 0.35526 0.53730
 N1236 N 0.47937 0.35617 0.55693
 C1237 C 0.48307 0.34091 0.57083
 C1238 C 0.49476 0.32335 0.56529
 C1239 C 0.50255 0.32220 0.54520
 C1240 C 0.49861 0.33809 0.53124
 H1241 H 0.47974 0.38577 0.47302
 H1242 H 0.46593 0.42226 0.52662
 H1243 H 0.47704 0.34264 0.58623
 H1244 H 0.51150 0.30889 0.54017
 H1245 H 0.48752 0.35606 0.49470
 H1246 H 0.50521 0.33687 0.51604
 C1247 C -0.01792 0.87401 0.02169
 C1248 C -0.01618 0.87198 0.00038
 C1249 C -0.02104 0.88883 -0.01213
 C1250 C -0.02783 0.90768 -0.00360
 C1251 C -0.02968 0.90900 0.01772
 N1252 N -0.02475 0.89241 0.02962
 C1253 C -0.01310 0.85667 0.03585
 N1254 N -0.02067 0.85744 0.05536
 C1255 C -0.01712 0.84213 0.06925
 C1256 C -0.00523 0.82467 0.06385
 C1257 C 0.00300 0.82370 0.04391
 C1258 C -0.00078 0.83964 0.02995
 H1259 H -0.01984 0.88699 -0.02852
 H1260 H -0.03478 0.92329 0.02494
 H1261 H -0.02348 0.84373 0.08454
 H1262 H 0.01213 0.81048 0.03898
 H1263 H -0.01156 0.85751 -0.00673
 H1264 H 0.00612 0.83856 0.01487
 C1265 C 0.03806 0.62798 0.02062
 C1266 C 0.05734 0.61864 0.01725
 C1267 C 0.05913 0.60184 0.00389
 C1268 C 0.04177 0.59403 -0.00631
 C1269 C 0.02269 0.60391 -0.00222
 N1270 N 0.02139 0.62017 0.01094
 C1271 C 0.03504 0.64569 0.03481
 N1272 N 0.01579 0.64929 0.04264
 C1273 C 0.01165 0.66520 0.05570
 C1274 C 0.02744 0.67876 0.06166
 C1275 C 0.04737 0.67551 0.05359
 C1276 C 0.05123 0.65909 0.04015
 H1277 H 0.07440 0.59563 0.00114
 H1278 H 0.00853 0.59832 -0.00870
 H1279 H -0.00392 0.66701 0.06166
 H1280 H 0.05992 0.68587 0.05739
 H1281 H 0.07095 0.62397 0.02495
 H1282 H 0.06663 0.65730 0.03380
 C1283 C 0.53975 0.13045 0.51837
 C1284 C 0.55947 0.12391 0.51184
 C1285 C 0.56139 0.10731 0.49825
 C1286 C 0.54382 0.09698 0.49122
 C1287 C 0.52441 0.10394 0.49812
 N1288 N 0.52292 0.12017 0.51135
 C1289 C 0.53654 0.14770 0.53313
 N1290 N 0.51768 0.14967 0.54242
 C1291 C 0.51337 0.16491 0.55620
 C1292 C 0.52860 0.17939 0.56149
 C1293 C 0.54810 0.17783 0.55198
 C1294 C 0.55210 0.16216 0.53775
 H1295 H 0.57667 0.10261 0.49320
 H1296 H 0.51044 0.09626 0.49336
 H1297 H 0.49815 0.16549 0.56323
 H1298 H 0.56015 0.18897 0.55530
 H1299 H 0.57338 0.13111 0.51729
 H1300 H 0.56713 0.16178 0.53038
 C1301 C -0.02248 0.13139 0.47852
 C1302 C -0.02047 0.13301 0.49977
 C1303 C -0.02339 0.11538 0.51204
 C1304 C -0.02850 0.09615 0.50332
 C1305 C -0.03070 0.09525 0.48209
 N1306 N -0.02767 0.11261 0.47044
 C1307 C -0.01955 0.14946 0.46455
 N1308 N -0.02725 0.14827 0.44542
 C1309 C -0.02518 0.16401 0.43158
 C1310 C -0.01469 0.18240 0.43664
 C1311 C -0.00642 0.18391 0.45621
 C1312 C -0.00873 0.16752 0.47014
 H1313 H -0.02199 0.11686 0.52841
 H1314 H -0.03449 0.08071 0.47471
 H1315 H -0.03150 0.16199 0.41656
 H1316 H 0.00169 0.19784 0.46083
 H1317 H -0.01706 0.14769 0.50704
 H1318 H -0.00181 0.16904 0.48492
 C1319 C 0.47732 0.62717 0.97909
 C1320 C 0.48500 0.62718 0.99895
 C1321 C 0.48157 0.60998 1.01166
 C1322 C 0.47060 0.59236 1.00485
 C1323 C 0.46325 0.59313 0.98471
 N1324 N 0.46683 0.61010 0.97267
 C1325 C 0.48048 0.64481 0.96456
 N1326 N 0.47519 0.64201 0.94475
 C1327 C 0.47751 0.65720 0.93036
 C1328 C 0.48574 0.67667 0.93555
 C1329 C 0.49120 0.68001 0.95587
 C1330 C 0.48852 0.66425 0.97041
 H1331 H 0.48703 0.61108 1.02709
 H1332 H 0.45544 0.58002 0.97800
 H1333 H 0.47320 0.65393 0.91483
 H1334 H 0.49721 0.69497 0.96060
 H1335 H 0.49367 0.64011 1.00488
 H1336 H 0.49252 0.66763 0.98595
 C1337 C 0.51031 0.87408 0.97291
 C1338 C 0.49360 0.88487 0.98182
 C1339 C 0.49731 0.90091 0.99562
 C1340 C 0.51757 0.90620 1.00074
 C1341 C 0.53380 0.89486 0.99171
 N1342 N 0.52982 0.87934 0.97830
 C1343 C 0.50758 0.85682 0.95820
 N1344 N 0.52372 0.84373 0.95453
 C1345 C 0.52264 0.82754 0.94127
 C1346 C 0.50441 0.82368 0.93071
 C1347 C 0.48763 0.83708 0.93406
 C1348 C 0.48915 0.85368 0.94766
 H1349 H 0.48431 0.90931 1.00213
 H1350 H 0.54965 0.89814 0.99549
 H1351 H 0.53591 0.81752 0.93927
 H1352 H 0.47342 0.83491 0.92592
 H1353 H 0.47780 0.88095 0.97854
 H1354 H 0.47611 0.86399 0.94948
 C1355 C 0.01562 0.38130 0.47235
 C1356 C -0.00061 0.38997 0.48388
 C1357 C 0.00355 0.40523 0.49834
 C1358 C 0.02392 0.41207 0.50164
 C1359 C 0.03969 0.40290 0.48953
 N1360 N 0.03520 0.38793 0.47566
 C1361 C 0.01224 0.36445 0.45736
 N1362 N 0.02819 0.35152 0.45247
 C1363 C 0.02622 0.33539 0.43926
 C1364 C 0.00722 0.33140 0.43011
 C1365 C -0.00932 0.34480 0.43458
 C1366 C -0.00688 0.36134 0.44808
 H1367 H -0.00950 0.41199 0.50638
 H1368 H 0.05574 0.40673 0.49162
 H1369 H 0.03936 0.32540 0.43634
 H1370 H -0.02410 0.34261 0.42748
 H1371 H -0.01638 0.38488 0.48215
 H1372 H -0.01979 0.37163 0.45093
 C1373 C 0.37082 0.52171 0.47938
 C1374 C 0.36926 0.49990 0.48121
 C1375 C 0.38661 0.48757 0.47744
 C1376 C 0.40548 0.49679 0.47166
 C1377 C 0.40634 0.51858 0.46975
 N1378 N 0.38927 0.53028 0.47359
 C1379 C 0.35301 0.53576 0.48312
 N1380 N 0.35394 0.55558 0.47560
 C1381 C 0.33841 0.56953 0.47844
 C1382 C 0.32053 0.56387 0.48957
 C1383 C 0.31930 0.54357 0.49761
 C1384 C 0.33545 0.52954 0.49451
 H1385 H 0.38517 0.47078 0.47866
 H1386 H 0.42061 0.52635 0.46546
 H1387 H 0.34019 0.58510 0.47224
 H1388 H 0.30575 0.53845 0.50616
 H1389 H 0.35484 0.49226 0.48508
 H1390 H 0.33416 0.51420 0.50129
 C1391 C 0.86687 0.01888 -0.02275
 C1392 C 0.86815 -0.00153 -0.01509
 C1393 C 0.88580 -0.01335 -0.01899
 C1394 C 0.90260 -0.00508 -0.03045
 C1395 C 0.90059 0.01560 -0.03764
 N1396 N 0.88320 0.02675 -0.03361
 C1397 C 0.84866 0.03248 -0.01910
 N1398 N 0.85048 0.05322 -0.02340
 C1399 C 0.83470 0.06686 -0.02047
 C1400 C 0.81562 0.05989 -0.01262
 C1401 C 0.81326 0.03858 -0.00828
 C1402 C 0.82962 0.02483 -0.01158
 H1403 H 0.88570 -0.02927 -0.01351
 H1404 H 0.91302 0.02345 -0.04576
 H1405 H 0.83722 0.08320 -0.02393
 H1406 H 0.79865 0.03248 -0.00259
 H1407 H 0.85586 -0.00850 -0.00603
 H1408 H 0.82704 0.00847 -0.00849
 C1409 C 0.61383 0.02495 0.02323
 C1410 C 0.60176 0.01798 0.00700
 C1411 C 0.58509 0.00469 0.01093
 C1412 C 0.58040 -0.00194 0.03091
 C1413 C 0.59285 0.00531 0.04669
 N1414 N 0.60900 0.01829 0.04249
 C1415 C 0.63201 0.03881 0.02013
 N1416 N 0.64556 0.04087 0.03563
 C1417 C 0.66270 0.05308 0.03407
 C1418 C 0.66715 0.06408 0.01598
 C1419 C 0.65331 0.06242 -0.00011
 C1420 C 0.63572 0.04998 0.00191
 H1421 H 0.57581 -0.00033 -0.00170
 H1422 H 0.59002 0.00036 0.06229
 H1423 H 0.67300 0.05387 0.04684
 H1424 H 0.65594 0.07103 -0.01417
 H1425 H 0.60516 0.02228 -0.00864
 H1426 H 0.62519 0.04952 -0.01063
 C1427 C 0.12533 0.52293 0.53613
 C1428 C 0.11951 0.51526 0.55553
 C1429 C 0.10239 0.50214 0.55761
 C1430 C 0.09085 0.49670 0.54054
 C1431 C 0.09713 0.50471 0.52145
 N1432 N 0.11388 0.51743 0.51979
 C1433 C 0.14316 0.53722 0.53269
 N1434 N 0.14542 0.54662 0.51410
 C1435 C 0.16118 0.55995 0.50952
 C1436 C 0.17595 0.56466 0.52417
 C1437 C 0.17408 0.55510 0.54339
 C1438 C 0.15785 0.54133 0.54769
 H1439 H 0.09825 0.49617 0.57261
 H1440 H 0.08853 0.50121 0.50790
 H1441 H 0.16196 0.56708 0.49454
 H1442 H 0.18538 0.55800 0.55500
 H1443 H 0.12769 0.51937 0.56912
 H1444 H 0.15723 0.53395 0.56251
 C1445 C 0.12628 0.46881 -0.03504
 C1446 C 0.10781 0.46272 -0.04417
 C1447 C 0.09216 0.47732 -0.04690
 C1448 C 0.09448 0.49813 -0.04038
 C1449 C 0.11330 0.50341 -0.03121
 N1450 N 0.12833 0.48893 -0.02891
 C1451 C 0.14362 0.45423 -0.03141
 N1452 N 0.15946 0.46090 -0.01974
 C1453 C 0.17602 0.44878 -0.01556
 C1454 C 0.17741 0.42846 -0.02335
 C1455 C 0.16134 0.42124 -0.03552
 C1456 C 0.14452 0.43402 -0.03966
 H1457 H 0.07790 0.47180 -0.05327
 H1458 H 0.11662 0.51918 -0.02652
 H1459 H 0.18818 0.45518 -0.00640
 H1460 H 0.16164 0.40562 -0.04171
 H1461 H 0.10502 0.44686 -0.04884
 H1462 H 0.13265 0.42796 -0.04933
 C1463 C 0.62982 0.97140 0.46446
 C1464 C 0.61137 0.96509 0.45546
 C1465 C 0.59559 0.97950 0.45273
 C1466 C 0.59774 1.00036 0.45913
 C1467 C 0.61644 1.00583 0.46843
 N1468 N 0.63165 0.99152 0.47068
 C1469 C 0.64740 0.95702 0.46775
 N1470 N 0.66332 0.96376 0.47930
 C1471 C 0.68007 0.95177 0.48311
 C1472 C 0.68159 0.93157 0.47506
 C1473 C 0.66545 0.92432 0.46299
 C1474 C 0.64846 0.93695 0.45922
 H1475 H 0.58138 0.97382 0.44638
 H1476 H 0.61954 1.02163 0.47317
 H1477 H 0.69228 0.95819 0.49221
 H1478 H 0.66582 0.90877 0.45663
 H1479 H 0.60870 0.94919 0.45082
 H1480 H 0.63657 0.93086 0.44959
 C1481 C 0.88132 0.97040 0.52260
 C1482 C 0.90114 0.96284 0.52668
 C1483 C 0.91719 0.97687 0.52997
 C1484 C 0.91369 0.99843 0.52904
 C1485 C 0.89380 1.00536 0.52442
 N1486 N 0.87836 0.99139 0.52140
 C1487 C 0.86357 0.95628 0.51925
 N1488 N 0.84697 0.96371 0.50913
 C1489 C 0.83007 0.95179 0.50550
 C1490 C 0.82913 0.93102 0.51233
 C1491 C 0.84595 0.92312 0.52304
 C1492 C 0.86311 0.93566 0.52659
 H1493 H 0.93242 0.97084 0.53299
 H1494 H 0.89042 1.02186 0.52362
 H1495 H 0.81731 0.95865 0.49750
 H1496 H 0.84596 0.90716 0.52849
 H1497 H 0.90446 0.94633 0.52705
 H1498 H 0.87561 0.92922 0.53524
 C1499 C 0.37780 0.46957 0.02513
 C1500 C 0.39744 0.46177 0.02962
 C1501 C 0.41361 0.47560 0.03310
 C1502 C 0.41042 0.49720 0.03196
 C1503 C 0.39072 0.50438 0.02697
 N1504 N 0.37515 0.49060 0.02376
 C1505 C 0.35995 0.45566 0.02156
 N1506 N 0.34364 0.46317 0.01105
 C1507 C 0.32668 0.45140 0.00723
 C1508 C 0.32536 0.43072 0.01429
 C1509 C 0.34191 0.42275 0.02536
 C1510 C 0.35912 0.43512 0.02910
 H1511 H 0.42870 0.46939 0.03640
 H1512 H 0.38758 0.52091 0.02598
 H1513 H 0.31415 0.45830 -0.00109
 H1514 H 0.34165 0.40685 0.03098
 H1515 H 0.40054 0.44523 0.03013
 H1516 H 0.37137 0.42863 0.03806
 C1517 C 0.52552 0.48158 0.37469
 C1518 C 0.51686 0.49808 0.38601
 C1519 C 0.50368 0.49373 0.40257
 C1520 C 0.49889 0.47303 0.40786
 C1521 C 0.50758 0.45702 0.39597
 N1522 N 0.52043 0.46164 0.37997
 C1523 C 0.53974 0.48499 0.35697
 N1524 N 0.54347 0.46878 0.34405
 C1525 C 0.55639 0.47042 0.32755
 C1526 C 0.56648 0.48934 0.32315
 C1527 C 0.56304 0.50621 0.33632
 C1528 C 0.54982 0.50411 0.35325
 H1529 H 0.49744 0.50658 0.41137
 H1530 H 0.50401 0.44084 0.39923
 H1531 H 0.55851 0.45705 0.31772
 H1532 H 0.57087 0.52095 0.33373
 H1533 H 0.51989 0.51421 0.38217
 H1534 H 0.54798 0.51727 0.36334
 C1535 C 0.02222 -0.01691 0.87218
 C1536 C 0.01288 -0.00061 0.88326
 C1537 C -0.00019 -0.00527 0.89983
 C1538 C -0.00422 -0.02607 0.90536
 C1539 C 0.00508 -0.04188 0.89365
 N1540 N 0.01783 -0.03696 0.87765
 C1541 C 0.03652 -0.01320 0.85457
 N1542 N 0.04112 -0.02948 0.84201
 C1543 C 0.05432 -0.02766 0.82575
 C1544 C 0.06387 -0.00848 0.82126
 C1545 C 0.05947 0.00852 0.83402
 C1546 C 0.04594 0.00623 0.85069
 H1547 H -0.00693 0.00744 0.90848
 H1548 H 0.00212 -0.05814 0.89708
 H1549 H 0.05715 -0.04113 0.81623
 H1550 H 0.06683 0.02348 0.83135
 H1551 H 0.01535 0.01557 0.87927
 H1552 H 0.04339 0.01950 0.86050
 C1553 C 0.03162 0.02053 0.62163
 C1554 C 0.02447 0.00405 0.60954
 C1555 C 0.01127 0.00824 0.59350
 C1556 C 0.00493 0.02872 0.58946
 C1557 C 0.01237 0.04473 0.60188
 N1558 N 0.02525 0.04029 0.61741
 C1559 C 0.04538 0.01726 0.63921
 N1560 N 0.04815 0.03332 0.65243
 C1561 C 0.06030 0.03173 0.66902
 C1562 C 0.07051 0.01299 0.67324
 C1563 C 0.06809 -0.00373 0.65976
 C1564 C 0.05571 -0.00166 0.64272
 H1565 H 0.00609 -0.00460 0.58419
 H1566 H 0.00766 0.06073 0.59954
 H1567 H 0.06166 0.04498 0.67908
 H1568 H 0.07604 -0.01832 0.66225
 H1569 H 0.02858 -0.01198 0.61241
 H1570 H 0.05462 -0.01473 0.63247
 C1571 C 0.52898 0.51879 0.12431
 C1572 C 0.52125 0.50212 0.11283
 C1573 C 0.50796 0.50614 0.09682
 C1574 C 0.50210 0.52665 0.09223
 C1575 C 0.51002 0.54284 0.10414
 N1576 N 0.52299 0.53856 0.11964
 C1577 C 0.54301 0.51569 0.14169
 N1578 N 0.54590 0.53182 0.15482
 C1579 C 0.55839 0.53036 0.17118
 C1580 C 0.56884 0.51171 0.17522
 C1581 C 0.56633 0.49496 0.16180
 C1582 C 0.55358 0.49689 0.14500
 H1583 H 0.50238 0.49317 0.08794
 H1584 H 0.50566 0.55887 0.10139
 H1585 H 0.55983 0.54363 0.18119
 H1586 H 0.57448 0.48046 0.16412
 H1587 H 0.52501 0.48609 0.11617
 H1588 H 0.55244 0.48383 0.13474
 C1589 C 0.46577 -0.03090 0.13108
 C1590 C 0.47107 -0.05110 0.12460
 C1591 C 0.48371 -0.05368 0.10734
 C1592 C 0.49101 -0.03627 0.09631
 C1593 C 0.48522 -0.01638 0.10318
 N1594 N 0.47292 -0.01425 0.12006
 C1595 C 0.45227 -0.02698 0.14920
 N1596 N 0.44371 -0.00772 0.15147
 C1597 C 0.43121 -0.00274 0.16759
 C1598 C 0.42655 -0.01763 0.18273
 C1599 C 0.43533 -0.03752 0.18085
 C1600 C 0.44823 -0.04223 0.16424
 H1601 H 0.48790 -0.06932 0.10271
 H1602 H 0.49018 -0.00252 0.09497
 H1603 H 0.42469 0.01276 0.16839
 H1604 H 0.43251 -0.04933 0.19243
 H1605 H 0.46539 -0.06488 0.13241
 H1606 H 0.45514 -0.05752 0.16358
 C1607 C 0.96992 0.46896 0.63298
 C1608 C 0.97455 0.44891 0.62563
 C1609 C 0.98774 0.44669 0.60872
 C1610 C 0.99628 0.46431 0.59897
 C1611 C 0.99113 0.48405 0.60667
 N1612 N 0.97824 0.48583 0.62316
 C1613 C 0.95588 0.47249 0.65074
 N1614 N 0.94736 0.49172 0.65320
 C1615 C 0.93445 0.49640 0.66910
 C1616 C 0.92940 0.48121 0.68385
 C1617 C 0.93812 0.46131 0.68174
 C1618 C 0.95139 0.45691 0.66532
 H1619 H 0.99139 0.43115 0.60336
 H1620 H 0.99707 0.49808 0.59944
 H1621 H 0.92796 0.51190 0.67003
 H1622 H 0.93499 0.44926 0.69300
 H1623 H 0.96790 0.43505 0.63251
 H1624 H 0.95829 0.44161 0.66444
 C1625 C 0.97544 0.53258 0.87224
 C1626 C 0.98281 0.55242 0.87757
 C1627 C 0.99681 0.55435 0.89335
 C1628 C 1.00342 0.53666 0.90403
 C1629 C 0.99555 0.51714 0.89838
 N1630 N 0.98195 0.51565 0.88292
 C1631 C 0.96046 0.52939 0.85571
 N1632 N 0.94993 0.51100 0.85506
 C1633 C 0.93603 0.50670 0.84040
 C1634 C 0.93196 0.52143 0.82512
 C1635 C 0.94272 0.54043 0.82536
 C1636 C 0.95701 0.54444 0.84050
 H1637 H 1.00258 0.56970 0.89708
 H1638 H 0.99994 0.50312 0.90641
 H1639 H 0.92799 0.49189 0.84085
 H1640 H 0.94039 0.55203 0.81359
 H1641 H 0.97773 0.56643 0.87000
 H1642 H 0.96543 0.55899 0.83988
 C1643 C 0.48084 0.03007 0.36913
 C1644 C 0.50220 0.02803 0.36569
 C1645 C 0.51567 0.03139 0.38167
 C1646 C 0.50806 0.03704 0.40102
 C1647 C 0.48670 0.03961 0.40369
 N1648 N 0.47383 0.03603 0.38794
 C1649 C 0.46564 0.02602 0.35297
 N1650 N 0.44612 0.03353 0.35541
 C1651 C 0.43120 0.03025 0.34147
 C1652 C 0.43549 0.01862 0.32379
 C1653 C 0.45546 0.01060 0.32104
 C1654 C 0.47049 0.01414 0.33555
 H1655 H 0.53210 0.02972 0.37886
 H1656 H 0.48020 0.04394 0.41840
 H1657 H 0.41594 0.03646 0.34440
 H1658 H 0.45955 0.00170 0.30756
 H1659 H 0.50864 0.02412 0.35088
 H1660 H 0.48553 0.00728 0.33315
   
