data_POSCAR
  _audit_creation_date              2014-09-24
  _audit_creation_method            'ToBaCCo'
  _symmetry_space_group_name_H-M    'P1'
  _symmetry_Int_Tables_number       1
  _symmetry_cell_setting            triclinic
  loop_
  _symmetry_equiv_pos_as_xyz
 x,y,z
_cell_length_a 62.8475
_cell_length_b 63.0368
_cell_length_c 63.2010
_cell_angle_alpha 90.049600
_cell_angle_beta 89.987500
_cell_angle_gamma 89.993800
loop_
  _atom_site_label
  _atom_site_type_symbol
  _atom_site_fract_x
  _atom_site_fract_y
  _atom_site_fract_z
C1 C 0.19265 0.21179 0.22178
 N2 N 0.20594 0.19516 0.22504
 C3 C 0.22247 0.19171 0.21165
 N4 N 0.22569 0.20490 0.19500
 C5 C 0.21239 0.22154 0.19174
 N6 N 0.19587 0.22498 0.20513
 C7 C 0.69162 0.71225 0.72146
 N8 N 0.70485 0.69554 0.72460
 C9 C 0.72137 0.69213 0.71120
 N10 N 0.72466 0.70544 0.69466
 C11 C 0.71143 0.72215 0.69152
 N12 N 0.69491 0.72556 0.70492
 C13 C 0.30756 0.78851 0.72211
 N14 N 0.30430 0.77517 0.70556
 C15 C 0.28779 0.77854 0.69215
 N16 N 0.27454 0.79525 0.69528
 C17 C 0.27780 0.80859 0.71182
 N18 N 0.29431 0.80522 0.72524
 C19 C 0.80855 0.28770 0.22199
 N20 N 0.79517 0.30429 0.22523
 C21 C 0.77855 0.30754 0.21191
 N22 N 0.77531 0.29420 0.19536
 C23 C 0.78869 0.27761 0.19212
 N24 N 0.80531 0.27436 0.20544
 C25 C 0.80836 0.71219 0.27827
 N26 N 0.79505 0.69553 0.27513
 C27 C 0.77857 0.69218 0.28859
 N28 N 0.77539 0.70548 0.30519
 C29 C 0.78870 0.72213 0.30832
 N30 N 0.80518 0.72549 0.29487
 C31 C 0.30830 0.21152 -0.22216
 N32 N 0.29500 0.19488 -0.22540
 C33 C 0.27838 0.19156 -0.21210
 N34 N 0.27506 0.20489 -0.19555
 C35 C 0.28836 0.22153 -0.19231
 N36 N 0.30498 0.22485 -0.20561
 C37 C 0.69244 0.28820 -0.22145
 N38 N 0.70570 0.30488 -0.22464
 C39 C 0.72229 0.30823 -0.21133
 N40 N 0.72564 0.29490 -0.19482
 C41 C 0.71239 0.27821 -0.19163
 N42 N 0.69579 0.27486 -0.20494
 C43 C 0.19250 0.78796 0.27760
 N44 N 0.19564 0.77471 0.29422
 C45 C 0.21212 0.77809 0.30767
 N46 N 0.22546 0.79472 0.30451
 C47 C 0.22231 0.80797 0.28789
 N48 N 0.20583 0.80459 0.27443
 C49 C 0.46161 0.44179 0.47229
 N50 N 0.47490 0.44490 0.45565
 C51 C 0.47158 0.46140 0.44227
 N52 N 0.45499 0.47478 0.44553
 C53 C 0.44171 0.47167 0.46216
 N54 N 0.44502 0.45517 0.47555
 C55 C -0.03740 -0.05747 0.97174
 N56 N -0.02415 -0.05430 0.95508
 C57 C -0.02750 -0.03776 0.94176
 N58 N -0.04410 -0.02439 0.94510
 C59 C -0.05734 -0.02757 0.96176
 N60 N -0.05399 -0.04411 0.97508
 C61 C 1.03704 0.55783 0.97250
 N62 N 1.02380 0.55466 0.95584
 C63 C 1.02710 0.53808 0.94253
 N64 N 1.04364 0.52466 0.94589
 C65 C 1.05688 0.52783 0.96255
 N66 N 1.05359 0.54441 0.97585
 C67 C 0.53822 0.05737 0.47294
 N68 N 0.55486 0.04405 0.47620
 C69 C 0.55817 0.02747 0.46289
 N70 N 0.54485 0.02423 0.44631
 C71 C 0.52822 0.03755 0.44304
 N72 N 0.52490 0.05412 0.45636
 C73 C -0.03857 0.05878 0.52807
 N74 N -0.02525 0.05562 0.54466
 C75 C -0.02854 0.03910 0.55802
 N76 N -0.04515 0.02574 0.55478
 C77 C -0.05846 0.02889 0.53818
 N78 N -0.05517 0.04541 0.52482
 C79 C 0.46224 0.55784 0.02810
 N80 N 0.44569 0.54444 0.02475
 C81 C 0.44237 0.52789 0.03806
 N82 N 0.45559 0.52475 0.05474
 C83 C 0.47215 0.53816 0.05809
 N84 N 0.47547 0.55470 0.04477
 C85 C 0.53717 -0.05760 0.02707
 N86 N 0.55371 -0.04418 0.02368
 C87 C 0.55707 -0.02763 0.03701
 N88 N 0.54391 -0.02452 0.05376
 C89 C 0.52739 -0.03794 0.05716
 N90 N 0.52402 -0.05448 0.04382
 C91 C 1.03742 0.44151 0.52739
 N92 N 1.02413 0.44460 0.54404
 C93 C 1.02737 0.46115 0.55740
 N94 N 1.04389 0.47460 0.55412
 C95 C 1.05718 0.47151 0.53748
 N96 N 1.05395 0.45496 0.52411
 C97 C 0.40812 0.00899 0.22215
 H98 H 0.40903 0.02335 0.23149
 C99 C 0.42194 0.00602 0.20509
 H100 H 0.43352 0.01814 0.20120
 C101 C 0.39211 -0.02452 0.21591
 H102 H 0.38070 -0.03651 0.22034
 C103 C 0.40564 -0.02812 0.19873
 H104 H 0.40446 -0.04279 0.18986
 N105 N 0.39341 -0.00607 0.22705
 C106 C 0.34294 0.02780 0.26034
 H107 H 0.34201 0.01853 0.27471
 C108 C 0.32908 0.04484 0.25726
 H109 H 0.31747 0.04880 0.26931
 C110 C 0.35897 0.03383 0.22689
 H111 H 0.37038 0.02930 0.21494
 C112 C 0.34541 0.05099 0.22318
 H113 H 0.34657 0.05975 0.20849
 Zn114 Zn 0.37550 -0.00085 0.25058
 N115 N 0.35766 0.02278 0.24535
 C116 C 0.39206 0.02285 0.28523
 N117 N 0.39331 0.00434 0.27418
 C118 C 0.40796 -0.01075 0.27919
 C119 C 0.42177 -0.00773 0.29624
 C120 C 0.40558 0.02651 0.30239
 C121 C 0.34291 -0.02937 0.24065
 C122 C 0.32898 -0.04637 0.24364
 C123 C 0.34511 -0.05264 0.27778
 C124 C 0.35875 -0.03553 0.27416
 N125 N 0.35757 -0.02444 0.25572
 H126 H 0.38071 0.03488 0.28071
 H127 H 0.40884 -0.02516 0.26992
 H128 H 0.43331 -0.01986 0.30019
 H129 H 0.40446 0.04124 0.31116
 H130 H 0.34208 -0.02007 0.22630
 H131 H 0.31741 -0.05026 0.23153
 H132 H 0.34617 -0.06144 0.29246
 H133 H 0.37012 -0.03106 0.28616
 C134 C 0.33039 0.05656 0.23853
 C135 C 0.42062 -0.01268 0.19325
 C136 C 0.33014 -0.05812 0.26235
 C137 C 0.42052 0.01105 0.30796
 C138 C 0.09280 -0.00937 0.72089
 H139 H 0.09193 -0.02379 0.73011
 C140 C 0.07887 -0.00626 0.70396
 H141 H 0.06727 -0.01835 0.70003
 C142 C 0.10874 0.02421 0.71488
 H143 H 0.12015 0.03619 0.71938
 C144 C 0.09511 0.02794 0.69783
 H145 H 0.09621 0.04269 0.68911
 N146 N 0.10751 0.00567 0.72587
 C147 C 0.15793 -0.02818 0.75917
 H148 H 0.15882 -0.01888 0.77354
 C149 C 0.17179 -0.04523 0.75614
 H150 H 0.18337 -0.04916 0.76822
 C151 C 0.14199 -0.03430 0.72569
 H152 H 0.13060 -0.02980 0.71373
 C153 C 0.15556 -0.05147 0.72203
 H154 H 0.15443 -0.06027 0.70734
 Zn155 Zn 0.12539 0.00041 0.74939
 N156 N 0.14324 -0.02321 0.74415
 C157 C 0.10875 -0.02335 0.78394
 N158 N 0.10752 -0.00482 0.77295
 C159 C 0.09284 0.01025 0.77796
 C160 C 0.07897 0.00719 0.79494
 C161 C 0.09517 -0.02704 0.80104
 C162 C 0.15799 0.02897 0.73961
 C163 C 0.17191 0.04596 0.74267
 C164 C 0.15570 0.05217 0.77681
 C165 C 0.14207 0.03506 0.77311
 N166 N 0.14329 0.02400 0.75463
 H167 H 0.12013 -0.03535 0.77942
 H168 H 0.09198 0.02467 0.76873
 H169 H 0.06740 0.01931 0.79890
 H170 H 0.09628 -0.04178 0.80977
 H171 H 0.15884 0.01969 0.72522
 H172 H 0.18349 0.04988 0.73060
 H173 H 0.15461 0.06094 0.79152
 H174 H 0.13068 0.03057 0.78508
 C175 C 0.17054 -0.05700 0.73742
 C176 C 0.08009 0.01254 0.69231
 C177 C 0.17070 0.05768 0.76142
 C178 C 0.08020 -0.01160 0.80661
 C179 C 0.59246 0.49011 0.22183
 H180 H 0.59156 0.47569 0.23105
 C181 C 0.57859 0.49319 0.20484
 H182 H 0.56701 0.48110 0.20088
 C183 C 0.60842 0.52368 0.21585
 H184 H 0.61981 0.53567 0.22037
 C185 C 0.59485 0.52740 0.19874
 H186 H 0.59598 0.54214 0.19002
 N187 N 0.60715 0.50515 0.22684
 C188 C 0.65750 0.47120 0.26016
 H189 H 0.65835 0.48045 0.27456
 C190 C 0.67136 0.45415 0.25709
 H191 H 0.68290 0.45017 0.26919
 C192 C 0.64163 0.46522 0.22662
 H193 H 0.63027 0.46977 0.21464
 C194 C 0.65520 0.44805 0.22292
 H195 H 0.65411 0.43931 0.20820
 Zn196 Zn 0.62500 0.49986 0.25038
 N197 N 0.64285 0.47624 0.24512
 C198 C 0.60828 0.47606 0.28485
 N199 N 0.60710 0.49462 0.27391
 C200 C 0.59245 0.50970 0.27893
 C201 C 0.57854 0.50663 0.29589
 C202 C 0.59466 0.47235 0.30193
 C203 C 0.65759 0.52843 0.24064
 C204 C 0.67148 0.54544 0.24371
 C205 C 0.65530 0.55159 0.27787
 C206 C 0.64169 0.53447 0.27416
 N207 N 0.64290 0.52344 0.25566
 H208 H 0.61963 0.46404 0.28031
 H209 H 0.59162 0.52415 0.26974
 H210 H 0.56699 0.51876 0.29986
 H211 H 0.59572 0.45758 0.31062
 H212 H 0.65844 0.51918 0.22624
 H213 H 0.68305 0.54939 0.23163
 H214 H 0.65420 0.56035 0.29259
 H215 H 0.63030 0.52996 0.28613
 C216 C 0.67014 0.44246 0.23833
 C217 C 0.57985 0.51199 0.19318
 C218 C 0.67027 0.55715 0.26248
 C219 C 0.57971 0.48780 0.30751
 C220 C 0.90719 0.50939 0.72127
 H221 H 0.90810 0.52384 0.73048
 C222 C 0.92102 0.50627 0.70425
 H223 H 0.93259 0.51835 0.70025
 C224 C 0.89121 0.47581 0.71535
 H225 H 0.87982 0.46384 0.71991
 C226 C 0.90474 0.47205 0.69822
 H227 H 0.90359 0.45729 0.68950
 N228 N 0.89250 0.49437 0.72632
 C229 C 0.84207 0.52836 0.75956
 H230 H 0.84120 0.51913 0.77397
 C231 C 0.82817 0.54535 0.75645
 H232 H 0.81658 0.54933 0.76851
 C233 C 0.85802 0.53430 0.72606
 H234 H 0.86943 0.52975 0.71411
 C235 C 0.84442 0.55141 0.72232
 H236 H 0.84554 0.56013 0.70759
 Zn237 Zn 0.87465 0.49973 0.74987
 N238 N 0.85678 0.52332 0.74457
 C239 C 0.89128 0.52362 0.78437
 N240 N 0.89253 0.50507 0.77338
 C241 C 0.90721 0.49003 0.77841
 C242 C 0.92106 0.49312 0.79542
 C243 C 0.90482 0.52736 0.80149
 C244 C 0.84206 0.47111 0.74023
 C245 C 0.82818 0.45411 0.74337
 C246 C 0.84445 0.44807 0.77748
 C247 C 0.85804 0.46519 0.77372
 N248 N 0.85677 0.47616 0.75521
 H249 H 0.87989 0.53561 0.77983
 H250 H 0.90810 0.47558 0.76920
 H251 H 0.93261 0.48102 0.79940
 H252 H 0.90369 0.54211 0.81022
 H253 H 0.84117 0.48032 0.72582
 H254 H 0.81658 0.45011 0.73132
 H255 H 0.84558 0.43936 0.79221
 H256 H 0.86944 0.46975 0.78565
 C257 C 0.82941 0.55700 0.73768
 C258 C 0.91972 0.48745 0.69260
 C259 C 0.82944 0.44246 0.76214
 C260 C 0.91979 0.51194 0.80709
 C261 C 0.22110 0.40686 0.00990
 H262 H 0.23053 0.40770 0.02420
 C263 C 0.20397 0.42068 0.00705
 H264 H 0.20010 0.43217 0.01922
 C265 C 0.21478 0.39109 -0.02361
 H266 H 0.21922 0.37978 -0.03567
 C267 C 0.19752 0.40461 -0.02709
 H268 H 0.18860 0.40354 -0.04172
 N269 N 0.22601 0.39228 -0.00523
 C270 C 0.25985 0.34190 0.02802
 H271 H 0.27424 0.34108 0.01865
 C272 C 0.25693 0.32800 0.04497
 H273 H 0.26912 0.31646 0.04876
 C274 C 0.22621 0.35773 0.03439
 H275 H 0.21412 0.36909 0.03004
 C276 C 0.22265 0.34413 0.05147
 H277 H 0.20793 0.34519 0.06034
 Zn278 Zn 0.24976 0.37447 -0.00027
 N279 N 0.24470 0.35655 0.02322
 C280 C 0.28467 0.39099 0.02325
 N281 N 0.27346 0.39229 0.00487
 C282 C 0.27835 0.40700 -0.01012
 C283 C 0.29545 0.42082 -0.00713
 C284 C 0.30190 0.40452 0.02687
 C285 C 0.23976 0.34209 -0.02887
 C286 C 0.24275 0.32829 -0.04591
 C287 C 0.27700 0.34454 -0.05224
 C288 C 0.27337 0.35805 -0.03507
 N289 N 0.25487 0.35675 -0.02394
 H290 H 0.28024 0.37959 0.03520
 H291 H 0.26894 0.40792 -0.02443
 H292 H 0.29932 0.43241 -0.01918
 H293 H 0.31080 0.40335 0.04150
 H294 H 0.22536 0.34117 -0.01952
 H295 H 0.23061 0.31673 -0.04979
 H296 H 0.29173 0.34569 -0.06107
 H297 H 0.28542 0.36941 -0.03062
 C298 C 0.23818 0.32918 0.05682
 C299 C 0.19206 0.41949 -0.01158
 C300 C 0.26152 0.32958 -0.05771
 C301 C 0.30735 0.41952 0.01151
 C302 C 0.72196 0.09247 -0.01030
 H303 H 0.73140 0.09158 -0.02458
 C304 C 0.70475 0.07874 -0.00747
 H305 H 0.70085 0.06726 -0.01963
 C306 C 0.71562 0.10831 0.02318
 H307 H 0.72008 0.11962 0.03523
 C308 C 0.69830 0.09487 0.02664
 H309 H 0.68934 0.09601 0.04125
 N310 N 0.72689 0.10705 0.00482
 C311 C 0.76078 0.15737 -0.02849
 H312 H 0.77517 0.15821 -0.01913
 C313 C 0.75785 0.17126 -0.04545
 H314 H 0.77003 0.18280 -0.04926
 C315 C 0.72713 0.14154 -0.03482
 H316 H 0.71505 0.13018 -0.03045
 C317 C 0.72357 0.15512 -0.05191
 H318 H 0.70885 0.15404 -0.06077
 Zn319 Zn 0.75067 0.12482 -0.00015
 N320 N 0.74563 0.14273 -0.02366
 C321 C 0.78562 0.10829 -0.02364
 N322 N 0.77436 0.10697 -0.00527
 C323 C 0.77923 0.09225 0.00971
 C324 C 0.79634 0.07842 0.00673
 C325 C 0.80285 0.09476 -0.02724
 C326 C 0.74069 0.15724 0.02843
 C327 C 0.74366 0.17102 0.04548
 C328 C 0.77787 0.15472 0.05185
 C329 C 0.77426 0.14123 0.03467
 N330 N 0.75578 0.14256 0.02351
 H331 H 0.78121 0.11970 -0.03558
 H332 H 0.76980 0.09132 0.02400
 H333 H 0.80018 0.06682 0.01878
 H334 H 0.81178 0.09593 -0.04185
 H335 H 0.72631 0.15818 0.01907
 H336 H 0.73152 0.18259 0.04936
 H337 H 0.79258 0.15354 0.06071
 H338 H 0.78630 0.12985 0.03023
 C339 C 0.73909 0.17006 -0.05728
 C340 C 0.69279 0.08001 0.01114
 C341 C 0.76241 0.16969 0.05732
 C342 C 0.80827 0.07974 -0.01189
 C343 C 0.22078 0.59316 0.49002
 H344 H 0.23022 0.59229 0.47573
 C345 C 0.20370 0.57930 0.49292
 H346 H 0.19988 0.56774 0.48081
 C347 C 0.21439 0.60905 0.52347
 H348 H 0.21879 0.62042 0.53548
 C349 C 0.19718 0.59549 0.52700
 H350 H 0.18825 0.59659 0.54162
 N351 N 0.22564 0.60782 0.50510
 C352 C 0.25947 0.65806 0.47163
 H353 H 0.27386 0.65893 0.48098
 C354 C 0.25655 0.67187 0.45461
 H355 H 0.26873 0.68339 0.45075
 C356 C 0.22582 0.64221 0.46535
 H357 H 0.21374 0.63087 0.46977
 C358 C 0.22226 0.65572 0.44821
 H359 H 0.20755 0.65461 0.43935
 Zn360 Zn 0.24938 0.62561 0.50007
 N361 N 0.24432 0.64344 0.47651
 C362 C 0.28428 0.60896 0.47659
 N363 N 0.27306 0.60774 0.49498
 C364 C 0.27791 0.59306 0.51000
 C365 C 0.29495 0.57916 0.50704
 C366 C 0.30146 0.59536 0.47300
 C367 C 0.23941 0.65806 0.52863
 C368 C 0.24241 0.67186 0.54566
 C369 C 0.27667 0.65562 0.55195
 C370 C 0.27303 0.64210 0.53480
 N371 N 0.25451 0.64339 0.52369
 H372 H 0.27988 0.62035 0.46461
 H373 H 0.26849 0.59220 0.52431
 H374 H 0.29877 0.56758 0.51911
 H375 H 0.31036 0.59645 0.45836
 H376 H 0.22500 0.65897 0.51931
 H377 H 0.23027 0.68343 0.54956
 H378 H 0.29141 0.65447 0.56076
 H379 H 0.28507 0.63074 0.53033
 C380 C 0.23779 0.67063 0.44277
 C381 C 0.19178 0.58052 0.51156
 C382 C 0.26119 0.67058 0.55744
 C383 C 0.30685 0.58037 0.48838
 C384 C 0.72182 0.90788 0.51007
 H385 H 0.73121 0.90878 0.52439
 C386 C 0.70469 0.92167 0.50714
 H387 H 0.70078 0.93321 0.51924
 C388 C 0.71557 0.89195 0.47662
 H389 H 0.72004 0.88059 0.46463
 C390 C 0.69832 0.90546 0.47305
 H391 H 0.68943 0.90431 0.45841
 N392 N 0.72677 0.89323 0.49502
 C393 C 0.76046 0.84298 0.52859
 H394 H 0.77490 0.84211 0.51930
 C395 C 0.75742 0.82911 0.54555
 H396 H 0.76956 0.81754 0.54941
 C397 C 0.72680 0.85886 0.53475
 H398 H 0.71475 0.87021 0.53030
 C399 C 0.72313 0.84529 0.55183
 H400 H 0.70836 0.84639 0.56061
 Zn401 Zn 0.75050 0.87545 0.50013
 N402 N 0.74534 0.85763 0.52368
 C403 C 0.78532 0.89211 0.52370
 N404 N 0.77415 0.89332 0.50528
 C405 C 0.77903 0.90800 0.49027
 C406 C 0.79605 0.92192 0.49328
 C407 C 0.80246 0.90573 0.52734
 C408 C 0.74062 0.84296 0.47163
 C409 C 0.74367 0.82912 0.45463
 C410 C 0.77792 0.84536 0.44835
 C411 C 0.77424 0.85892 0.46546
 N412 N 0.75571 0.85765 0.47655
 H413 H 0.78089 0.88072 0.53567
 H414 H 0.76966 0.90885 0.47593
 H415 H 0.79989 0.93350 0.48121
 H416 H 0.81132 0.90465 0.54201
 H417 H 0.72620 0.84207 0.48093
 H418 H 0.73154 0.81754 0.45075
 H419 H 0.79267 0.84650 0.43956
 H420 H 0.78626 0.87031 0.46992
 C421 C 0.73860 0.83033 0.55728
 C422 C 0.69281 0.92039 0.48848
 C423 C 0.76247 0.83038 0.44288
 C424 C 0.80788 0.92073 0.51197
 C425 C 0.00988 0.22197 0.40720
 H426 H 0.02426 0.23136 0.40813
 C427 C 0.00687 0.20495 0.42101
 H428 H 0.01898 0.20114 0.43260
 C429 C -0.02366 0.21560 0.39119
 H430 H -0.03567 0.21999 0.37979
 C431 C -0.02730 0.19846 0.40471
 H432 H -0.04200 0.18957 0.40354
 N433 N -0.00518 0.22681 0.39250
 C434 C 0.02868 0.26039 0.34243
 H435 H 0.01927 0.27473 0.34152
 C436 C 0.04581 0.25742 0.32866
 H437 H 0.04970 0.26952 0.31713
 C438 C 0.03497 0.22690 0.35834
 H439 H 0.03051 0.21489 0.36968
 C440 C 0.05222 0.22329 0.34487
 H441 H 0.06112 0.20862 0.34602
 Zn442 Zn -0.00003 0.25043 0.37474
 N443 N 0.02375 0.24533 0.35705
 C444 C 0.02351 0.28526 0.39134
 N445 N 0.00500 0.27409 0.39251
 C446 C -0.01018 0.27900 0.40708
 C447 C -0.00726 0.29603 0.42092
 C448 C 0.02707 0.30241 0.40489
 C449 C -0.02851 0.24036 0.34226
 C450 C -0.04556 0.24327 0.32839
 C451 C -0.05209 0.27745 0.34449
 C452 C -0.03492 0.27390 0.35807
 N453 N -0.02368 0.25547 0.35688
 H454 H 0.03561 0.28082 0.38005
 H455 H -0.02459 0.26963 0.40790
 H456 H -0.01945 0.29990 0.43241
 H457 H 0.04181 0.31127 0.40384
 H458 H -0.01909 0.22601 0.34143
 H459 H -0.04937 0.23112 0.31687
 H460 H -0.06101 0.29212 0.34556
 H461 H -0.03054 0.28595 0.36941
 C462 C 0.05770 0.23872 0.32995
 C463 C -0.01187 0.19308 0.41970
 C464 C -0.05747 0.26196 0.32957
 C465 C 0.01152 0.30786 0.41976
 C466 C -0.01004 0.72138 0.09174
 H467 H -0.02437 0.73084 0.09086
 C468 C -0.00721 0.70426 0.07798
 H469 H -0.01941 0.70045 0.06648
 C470 C 0.02355 0.71490 0.10760
 H471 H 0.03565 0.71927 0.11892
 C472 C 0.02702 0.69766 0.09412
 H473 H 0.04167 0.68868 0.09525
 N474 N 0.00514 0.72620 0.10634
 C475 C -0.02829 0.76006 0.15658
 H476 H -0.01882 0.77436 0.15744
 C477 C -0.04534 0.75718 0.17046
 H478 H -0.04911 0.76932 0.18201
 C479 C -0.03481 0.72656 0.14072
 H480 H -0.03046 0.71451 0.12936
 C481 C -0.05199 0.72305 0.15430
 H482 H -0.06095 0.70841 0.15322
 Zn483 Zn 0.00019 0.74990 0.12411
 N484 N -0.02351 0.74495 0.14194
 C485 C -0.02325 0.78486 0.10767
 N486 N -0.00482 0.77356 0.10635
 C487 C 0.01029 0.77836 0.09169
 C488 C 0.00741 0.79545 0.07794
 C489 C -0.02676 0.80207 0.09421
 C490 C 0.02880 0.73982 0.15647
 C491 C 0.04591 0.74272 0.17027
 C492 C 0.05253 0.77679 0.15403
 C493 C 0.03529 0.77326 0.14053
 N494 N 0.02397 0.75489 0.14183
 H495 H -0.03530 0.78050 0.11903
 H496 H 0.02463 0.76890 0.09076
 H497 H 0.01957 0.79925 0.06639
 H498 H -0.04142 0.81104 0.09539
 H499 H 0.01932 0.72553 0.15739
 H500 H 0.04971 0.73062 0.18182
 H501 H 0.06150 0.79142 0.15288
 H502 H 0.03091 0.78527 0.12918
 C503 C -0.05731 0.73852 0.16926
 C504 C 0.01147 0.69228 0.07924
 C505 C 0.05790 0.76136 0.16898
 C506 C -0.01126 0.80743 0.07927
 C507 C 0.48987 0.22138 0.59309
 H508 H 0.47547 0.23075 0.59220
 C509 C 0.49284 0.20430 0.57931
 H510 H 0.48068 0.20041 0.56779
 C511 C 0.52349 0.21513 0.60897
 H512 H 0.53554 0.21958 0.62030
 C513 C 0.52709 0.19793 0.59548
 H514 H 0.54182 0.18907 0.59662
 N515 N 0.50499 0.22630 0.60770
 C516 C 0.47121 0.25991 0.65788
 H517 H 0.48057 0.27428 0.65876
 C518 C 0.45414 0.25690 0.67171
 H519 H 0.45025 0.26902 0.68325
 C520 C 0.46499 0.22636 0.64201
 H521 H 0.46946 0.21434 0.63067
 C522 C 0.44780 0.22272 0.65554
 H523 H 0.43896 0.20801 0.65443
 Zn524 Zn 0.49986 0.24995 0.62548
 N525 N 0.47615 0.24483 0.64325
 C526 C 0.47625 0.28477 0.60897
 N527 N 0.49474 0.27358 0.60771
 C528 C 0.50987 0.27846 0.59309
 C529 C 0.50690 0.29550 0.57929
 C530 C 0.47265 0.30193 0.59547
 C531 C 0.52845 0.23999 0.65788
 C532 C 0.54554 0.24296 0.67169
 C533 C 0.55199 0.27709 0.65552
 C534 C 0.53478 0.27349 0.64200
 N535 N 0.52356 0.25506 0.64325
 H536 H 0.46419 0.28035 0.62032
 H537 H 0.52426 0.26909 0.59220
 H538 H 0.51906 0.29935 0.56776
 H539 H 0.45792 0.31080 0.59659
 H540 H 0.51905 0.22564 0.65876
 H541 H 0.54941 0.23084 0.68321
 H542 H 0.56089 0.29177 0.65440
 H543 H 0.53035 0.28550 0.63066
 C544 C 0.44232 0.23816 0.67048
 C545 C 0.51160 0.19246 0.58058
 C546 C 0.55743 0.26166 0.67044
 C547 C 0.48814 0.30736 0.58055
 C548 C 0.50994 0.72185 0.90795
 H549 H 0.52430 0.73129 0.90884
 C550 C 0.50706 0.70478 0.92172
 H551 H 0.51924 0.70096 0.93323
 C552 C 0.47634 0.71544 0.89209
 H553 H 0.46427 0.71982 0.88076
 C554 C 0.47283 0.69824 0.90556
 H555 H 0.45815 0.68930 0.90443
 N556 N 0.49479 0.72669 0.89335
 C557 C 0.52826 0.76044 0.84312
 H558 H 0.51880 0.77475 0.84227
 C559 C 0.54530 0.75752 0.82923
 H560 H 0.54906 0.76964 0.81768
 C561 C 0.53476 0.72696 0.85897
 H562 H 0.53041 0.71493 0.87033
 C563 C 0.55192 0.72341 0.84537
 H564 H 0.56087 0.70876 0.84644
 Zn565 Zn 0.49978 0.75036 0.87560
 N566 N 0.52347 0.74536 0.85776
 C567 C 0.52323 0.78534 0.89202
 N568 N 0.50482 0.77403 0.89337
 C569 C 0.48973 0.77884 0.90806
 C570 C 0.49262 0.79594 0.92182
 C571 C 0.52675 0.80258 0.90549
 C572 C 0.47119 0.74030 0.84321
 C573 C 0.45410 0.74323 0.82940
 C574 C 0.44753 0.77733 0.84565
 C575 C 0.46474 0.77377 0.85917
 N576 N 0.47602 0.75537 0.85787
 H577 H 0.53527 0.78099 0.88063
 H578 H 0.47540 0.76936 0.90901
 H579 H 0.48048 0.79973 0.93339
 H580 H 0.54139 0.81157 0.90428
 H581 H 0.48065 0.72599 0.84229
 H582 H 0.45029 0.73112 0.81783
 H583 H 0.43858 0.79198 0.84680
 H584 H 0.46913 0.78578 0.87054
 C585 C 0.55725 0.73886 0.83042
 C586 C 0.48835 0.69285 0.92046
 C587 C 0.44215 0.76189 0.83068
 C588 C 0.51127 0.80794 0.92046
 C589 C 0.10801 0.22892 0.28991
 C590 C 0.11207 0.24344 0.27331
 C591 C 0.12948 0.23998 0.25936
 C592 C 0.14273 0.22201 0.26210
 C593 C 0.13869 0.20752 0.27872
 C594 C 0.12128 0.21097 0.29267
 C595 C 0.11755 0.19625 0.30916
 C596 C 0.13066 0.17862 0.31181
 C597 C 0.14769 0.17524 0.29818
 C598 C 0.15173 0.18947 0.28180
 C599 C 0.13322 0.25471 0.24288
 C600 C 0.12013 0.27236 0.24026
 C601 C 0.10311 0.27574 0.25390
 C602 C 0.09905 0.26150 0.27026
 C603 C 0.16046 0.21842 0.24779
 C604 C 0.17516 0.21541 0.23592
 C605 C 0.09018 0.23241 0.30411
 C606 C 0.07538 0.23530 0.31590
 H607 H 0.10450 0.19820 0.32017
 H608 H 0.12758 0.16753 0.32451
 H609 H 0.15783 0.16153 0.30031
 H610 H 0.16517 0.18616 0.27161
 H611 H 0.14626 0.25277 0.23188
 H612 H 0.12322 0.28347 0.22757
 H613 H 0.09299 0.28948 0.25179
 H614 H 0.08562 0.26482 0.28046
 C615 C 0.60726 0.72916 0.78999
 C616 C 0.61116 0.74368 0.77335
 C617 C 0.62849 0.74025 0.75929
 C618 C 0.64182 0.72234 0.76196
 C619 C 0.63793 0.70784 0.77862
 C620 C 0.62060 0.71126 0.79267
 C621 C 0.61703 0.69654 0.80920
 C622 C 0.63020 0.67895 0.81178
 C623 C 0.64715 0.67561 0.79804
 C624 C 0.65105 0.68983 0.78162
 C625 C 0.63207 0.75498 0.74277
 C626 C 0.61891 0.77258 0.74021
 C627 C 0.60197 0.77593 0.75395
 C628 C 0.59806 0.76169 0.77036
 C629 C 0.65949 0.71881 0.74757
 C630 C 0.67416 0.71584 0.73563
 C631 C 0.58954 0.73263 0.80433
 C632 C 0.57482 0.73548 0.81623
 H633 H 0.60405 0.69846 0.82030
 H634 H 0.62724 0.66785 0.82450
 H635 H 0.65734 0.66192 0.80011
 H636 H 0.66443 0.68655 0.77135
 H637 H 0.64505 0.75306 0.73167
 H638 H 0.62188 0.78368 0.72749
 H639 H 0.59179 0.78962 0.75190
 H640 H 0.58469 0.76498 0.78064
 C641 C 0.39200 0.77161 0.79047
 C642 C 0.37868 0.78952 0.79322
 C643 C 0.36132 0.79295 0.77922
 C644 C 0.35738 0.77846 0.76254
 C645 C 0.37068 0.76053 0.75981
 C646 C 0.38804 0.75709 0.77381
 C647 C 0.40112 0.73906 0.77076
 C648 C 0.39716 0.72482 0.75435
 C649 C 0.38019 0.72818 0.74065
 C650 C 0.36705 0.74580 0.74328
 C651 C 0.34823 0.81097 0.78229
 C652 C 0.35217 0.82519 0.79872
 C653 C 0.36915 0.82183 0.81240
 C654 C 0.38230 0.80423 0.80976
 C655 C 0.33969 0.78200 0.74819
 C656 C 0.32501 0.78497 0.73628
 C657 C 0.40977 0.76813 0.80473
 C658 C 0.42453 0.76527 0.81657
 H659 H 0.41451 0.73576 0.78101
 H660 H 0.40732 0.71111 0.75225
 H661 H 0.37719 0.71708 0.72793
 H662 H 0.35405 0.74773 0.73222
 H663 H 0.33483 0.81426 0.77205
 H664 H 0.34200 0.83889 0.80084
 H665 H 0.37214 0.83293 0.82514
 H666 H 0.39530 0.80231 0.82082
 C667 C -0.10761 0.27153 0.28931
 C668 C -0.12103 0.28936 0.29208
 C669 C -0.13842 0.29271 0.27810
 C670 C -0.14230 0.27819 0.26143
 C671 C -0.12888 0.26036 0.25865
 C672 C -0.11149 0.25701 0.27264
 C673 C -0.09831 0.23906 0.26955
 C674 C -0.10219 0.22483 0.25311
 C675 C -0.11919 0.22811 0.23944
 C676 C -0.13243 0.24563 0.24210
 C677 C -0.15161 0.31065 0.28119
 C678 C -0.14772 0.32489 0.29762
 C679 C -0.13071 0.32162 0.31129
 C680 C -0.11747 0.30409 0.30863
 C681 C -0.16007 0.28161 0.24715
 C682 C -0.17483 0.28447 0.23531
 C683 C -0.08983 0.26812 0.30358
 C684 C -0.07508 0.26531 0.31543
 H685 H -0.08489 0.23583 0.27978
 H686 H -0.09194 0.21119 0.25098
 H687 H -0.12213 0.21700 0.22669
 H688 H -0.14545 0.24750 0.23105
 H689 H -0.16503 0.31388 0.27097
 H690 H -0.15797 0.33853 0.29976
 H691 H -0.12776 0.33272 0.32403
 H692 H -0.10444 0.30223 0.31967
 C693 C -0.10737 0.72895 0.20965
 C694 C -0.12089 0.71121 0.20678
 C695 C -0.13822 0.70782 0.22084
 C696 C -0.14191 0.72218 0.23769
 C697 C -0.12840 0.73993 0.24054
 C698 C -0.11108 0.74333 0.22647
 C699 C -0.09780 0.76118 0.22963
 C700 C -0.10152 0.77529 0.24622
 C701 C -0.11845 0.77197 0.25997
 C702 C -0.13179 0.75452 0.25724
 C703 C -0.15152 0.68997 0.21766
 C704 C -0.14781 0.67589 0.20106
 C705 C -0.13087 0.67920 0.18732
 C706 C -0.11751 0.69663 0.19007
 C707 C -0.15957 0.71867 0.25210
 C708 C -0.17422 0.71572 0.26405
 C709 C -0.08963 0.73237 0.19532
 C710 C -0.07490 0.73519 0.18343
 H711 H -0.08443 0.76444 0.21935
 H712 H -0.09120 0.78886 0.24841
 H713 H -0.12128 0.78297 0.27283
 H714 H -0.14476 0.75262 0.26835
 H715 H -0.16490 0.68672 0.22793
 H716 H -0.15814 0.66232 0.19886
 H717 H -0.12805 0.66821 0.17445
 H718 H -0.10454 0.69853 0.17896
 C719 C 0.39215 0.22825 0.71065
 C720 C 0.38826 0.24262 0.72745
 C721 C 0.37086 0.23915 0.74140
 C722 C 0.35745 0.22134 0.73846
 C723 C 0.36133 0.20698 0.72166
 C724 C 0.37874 0.21045 0.70771
 C725 C 0.38231 0.19587 0.69103
 C726 C 0.36906 0.17837 0.68821
 C727 C 0.35203 0.17499 0.70184
 C728 C 0.34814 0.18907 0.71840
 C729 C 0.36729 0.25373 0.75808
 C730 C 0.38054 0.27123 0.76090
 C731 C 0.39755 0.27462 0.74726
 C732 C 0.40145 0.26053 0.73070
 C733 C 0.33968 0.21779 0.75272
 C734 C 0.32492 0.21484 0.76454
 C735 C 0.40994 0.23178 0.69641
 C736 C 0.42470 0.23470 0.68459
 H737 H 0.39534 0.19782 0.68002
 H738 H 0.37202 0.16738 0.67537
 H739 H 0.34179 0.16137 0.69957
 H740 H 0.33470 0.18576 0.72858
 H741 H 0.35426 0.25177 0.76910
 H742 H 0.37758 0.28222 0.77374
 H743 H 0.40780 0.28824 0.74952
 H744 H 0.41488 0.26385 0.72051
 C745 C 0.60767 0.27140 0.71056
 C746 C 0.62090 0.28938 0.70788
 C747 C 0.63832 0.29280 0.72182
 C748 C 0.64238 0.27822 0.73837
 C749 C 0.62916 0.26024 0.74105
 C750 C 0.61175 0.25682 0.72710
 C751 C 0.59875 0.23873 0.73009
 C752 C 0.60283 0.22443 0.74639
 C753 C 0.61985 0.22778 0.76003
 C754 C 0.63291 0.24545 0.75747
 C755 C 0.65132 0.31088 0.71882
 C756 C 0.64725 0.32518 0.70251
 C757 C 0.63022 0.32184 0.68888
 C758 C 0.61715 0.30417 0.69145
 C759 C 0.66015 0.28174 0.75264
 C760 C 0.67490 0.28467 0.76448
 C761 C 0.58986 0.26793 0.69634
 C762 C 0.57507 0.26506 0.68453
 H763 H 0.58532 0.23544 0.71988
 H764 H 0.59272 0.21068 0.74845
 H765 H 0.62295 0.21662 0.77267
 H766 H 0.64596 0.24736 0.76848
 H767 H 0.66476 0.31416 0.72902
 H768 H 0.65736 0.33892 0.70045
 H769 H 0.62712 0.33299 0.67624
 H770 H 0.60410 0.30226 0.68045
 C771 C 0.10812 0.77103 0.20915
 C772 C 0.11211 0.75648 0.22574
 C773 C 0.12947 0.75992 0.23975
 C774 C 0.14273 0.77788 0.23709
 C775 C 0.13876 0.79241 0.22047
 C776 C 0.12140 0.78897 0.20646
 C777 C 0.11774 0.80372 0.18998
 C778 C 0.13085 0.82135 0.18740
 C779 C 0.14783 0.82471 0.20109
 C780 C 0.15181 0.81046 0.21747
 C781 C 0.13314 0.74516 0.25622
 C782 C 0.12005 0.72751 0.25877
 C783 C 0.10308 0.72415 0.24507
 C784 C 0.09908 0.73841 0.22871
 C785 C 0.16041 0.78144 0.25145
 C786 C 0.17507 0.78441 0.26339
 C787 C 0.09033 0.76757 0.19489
 C788 C 0.07555 0.76472 0.18307
 H789 H 0.10473 0.80179 0.17892
 H790 H 0.12783 0.83247 0.17471
 H791 H 0.15797 0.83843 0.19903
 H792 H 0.16520 0.81375 0.22771
 H793 H 0.14614 0.74708 0.26728
 H794 H 0.12309 0.71638 0.27145
 H795 H 0.09295 0.71041 0.24712
 H796 H 0.08569 0.73511 0.21846
 C797 C 0.29023 0.10672 0.22848
 C798 C 0.29307 0.11985 0.21054
 C799 C 0.27917 0.13730 0.20706
 C800 C 0.26250 0.14150 0.22155
 C801 C 0.25964 0.12835 0.23948
 C802 C 0.27355 0.11091 0.24296
 C803 C 0.27038 0.09799 0.26100
 C804 C 0.25394 0.10218 0.27520
 C805 C 0.24034 0.11923 0.27180
 C806 C 0.24308 0.13222 0.25418
 C807 C 0.28233 0.15020 0.18902
 C808 C 0.29876 0.14600 0.17481
 C809 C 0.31235 0.12894 0.17820
 C810 C 0.30962 0.11596 0.19583
 C811 C 0.24830 0.15932 0.21801
 C812 C 0.23651 0.17412 0.21510
 C813 C 0.30445 0.08893 0.23205
 C814 C 0.31627 0.07416 0.23501
 H815 H 0.28054 0.08454 0.26433
 H816 H 0.25174 0.09214 0.28891
 H817 H 0.22759 0.12242 0.28288
 H818 H 0.23210 0.14529 0.25222
 H819 H 0.27217 0.16365 0.18569
 H820 H 0.30095 0.15603 0.16108
 H821 H 0.32508 0.12574 0.16711
 H822 H 0.32059 0.10289 0.19779
 C823 C 0.78910 0.60704 0.72763
 C824 C 0.79248 0.62078 0.71023
 C825 C 0.77855 0.63821 0.70681
 C826 C 0.76132 0.64180 0.72080
 C827 C 0.75792 0.62804 0.73818
 C828 C 0.77185 0.61061 0.74160
 C829 C 0.76813 0.59708 0.75908
 C830 C 0.75113 0.60066 0.77278
 C831 C 0.73750 0.61769 0.76943
 C832 C 0.74078 0.63128 0.75236
 C833 C 0.78225 0.65172 0.68931
 C834 C 0.79923 0.64812 0.67559
 C835 C 0.81285 0.63108 0.67893
 C836 C 0.80959 0.61751 0.69603
 C837 C 0.74713 0.65965 0.71736
 C838 C 0.73536 0.67448 0.71453
 C839 C 0.80339 0.58929 0.73117
 C840 C 0.81525 0.57456 0.73413
 H841 H 0.77829 0.58361 0.76234
 H842 H 0.74852 0.59015 0.78607
 H843 H 0.72432 0.62040 0.78012
 H844 H 0.72975 0.64431 0.75041
 H845 H 0.77209 0.66519 0.68605
 H846 H 0.80183 0.65861 0.66229
 H847 H 0.82602 0.62834 0.66823
 H848 H 0.82062 0.60447 0.69797
 C849 C 0.78922 0.39237 0.77224
 C850 C 0.79206 0.37920 0.79016
 C851 C 0.77816 0.36176 0.79361
 C852 C 0.76148 0.35759 0.77912
 C853 C 0.75862 0.37079 0.76122
 C854 C 0.77253 0.38823 0.75777
 C855 C 0.76935 0.40119 0.73976
 C856 C 0.75290 0.39704 0.72557
 C857 C 0.73929 0.37999 0.72895
 C858 C 0.74204 0.36696 0.74654
 C859 C 0.78132 0.34881 0.81162
 C860 C 0.79775 0.35298 0.82583
 C861 C 0.81134 0.37004 0.82246
 C862 C 0.80861 0.38305 0.80486
 C863 C 0.74731 0.33974 0.78260
 C864 C 0.73555 0.32492 0.78547
 C865 C 0.80347 0.41014 0.76868
 C866 C 0.81531 0.42489 0.76570
 H867 H 0.77951 0.41464 0.73646
 H868 H 0.75069 0.40711 0.71189
 H869 H 0.72653 0.37684 0.71788
 H870 H 0.73105 0.35390 0.74848
 H871 H 0.77116 0.33536 0.81493
 H872 H 0.79994 0.34292 0.83953
 H873 H 0.82408 0.37321 0.83355
 H874 H 0.81959 0.39613 0.80292
 C875 C 0.28970 -0.10814 0.27200
 C876 C 0.27310 -0.11218 0.25740
 C877 C 0.25909 -0.12958 0.26070
 C878 C 0.26178 -0.14284 0.27858
 C879 C 0.27838 -0.13878 0.29319
 C880 C 0.29238 -0.12138 0.28989
 C881 C 0.30884 -0.11765 0.30471
 C882 C 0.31141 -0.13073 0.32229
 C883 C 0.29773 -0.14774 0.32551
 C884 C 0.28138 -0.15180 0.31118
 C885 C 0.24261 -0.13330 0.24590
 C886 C 0.24003 -0.12021 0.22833
 C887 C 0.25372 -0.10320 0.22510
 C888 C 0.27009 -0.09916 0.23941
 C889 C 0.24750 -0.16063 0.28194
 C890 C 0.23565 -0.17540 0.28473
 C891 C 0.30404 -0.09040 0.26859
 C892 C 0.31594 -0.07568 0.26575
 H893 H 0.31989 -0.10460 0.30289
 H894 H 0.32409 -0.12764 0.33347
 H895 H 0.29979 -0.15786 0.33919
 H896 H 0.27114 -0.16523 0.31438
 H897 H 0.23156 -0.14633 0.24772
 H898 H 0.22734 -0.12328 0.21716
 H899 H 0.25165 -0.09307 0.21143
 H900 H 0.28033 -0.08573 0.23622
 C901 C 0.21075 -0.10721 0.72771
 C902 C 0.22746 -0.11119 0.74221
 C903 C 0.24140 -0.12864 0.73889
 C904 C 0.23855 -0.14201 0.72110
 C905 C 0.22186 -0.13802 0.70659
 C906 C 0.20792 -0.12056 0.70991
 C907 C 0.19134 -0.11690 0.69519
 C908 C 0.18862 -0.13009 0.67770
 C909 C 0.20225 -0.14716 0.67446
 C910 C 0.21870 -0.15115 0.68868
 C911 C 0.25798 -0.13229 0.75360
 C912 C 0.26071 -0.11909 0.77108
 C913 C 0.24708 -0.10204 0.77433
 C914 C 0.23061 -0.09805 0.76011
 C915 C 0.25275 -0.15987 0.71774
 C916 C 0.26454 -0.17470 0.71495
 C917 C 0.19649 -0.08940 0.73112
 C918 C 0.18465 -0.07462 0.73398
 H919 H 0.18034 -0.10382 0.69703
 H920 H 0.17586 -0.12706 0.66660
 H921 H 0.20006 -0.15736 0.66085
 H922 H 0.22889 -0.16462 0.68548
 H923 H 0.26900 -0.14536 0.75175
 H924 H 0.27348 -0.12212 0.78217
 H925 H 0.24926 -0.09183 0.78794
 H926 H 0.22042 -0.08459 0.76332
 C927 C 0.71039 0.39230 0.22846
 C928 C 0.70759 0.37903 0.21059
 C929 C 0.72157 0.36162 0.20719
 C930 C 0.73826 0.35759 0.22169
 C931 C 0.74106 0.37087 0.23956
 C932 C 0.72708 0.38827 0.24296
 C933 C 0.73020 0.40132 0.26094
 C934 C 0.74665 0.39728 0.27515
 C935 C 0.76032 0.38027 0.27183
 C936 C 0.75763 0.36716 0.25427
 C937 C 0.71845 0.34858 0.18922
 C938 C 0.70199 0.35261 0.17500
 C939 C 0.68833 0.36963 0.17832
 C940 C 0.69102 0.38275 0.19588
 C941 C 0.75255 0.33982 0.21821
 C942 C 0.76442 0.32507 0.21533
 C943 C 0.69611 0.41008 0.23194
 C944 C 0.68427 0.42485 0.23484
 H945 H 0.71998 0.41474 0.26420
 H946 H 0.74880 0.40742 0.28882
 H947 H 0.77308 0.37720 0.28292
 H948 H 0.76867 0.35412 0.25237
 H949 H 0.72866 0.33514 0.18596
 H950 H 0.69984 0.34247 0.16134
 H951 H 0.67558 0.37270 0.16723
 H952 H 0.67999 0.39579 0.19778
 C953 C 0.71059 0.60723 0.27233
 C954 C 0.72524 0.61316 0.25636
 C955 C 0.73920 0.63058 0.25972
 C956 C 0.73844 0.64196 0.27903
 C957 C 0.72381 0.63602 0.29501
 C958 C 0.70985 0.61859 0.29165
 C959 C 0.69537 0.61295 0.30785
 C960 C 0.69470 0.62419 0.32684
 C961 C 0.70835 0.64122 0.33012
 C962 C 0.72277 0.64714 0.31445
 C963 C 0.75370 0.63620 0.24353
 C964 C 0.75438 0.62495 0.22455
 C965 C 0.74073 0.60792 0.22126
 C966 C 0.72629 0.60202 0.23692
 C967 C 0.75268 0.65978 0.28245
 C968 C 0.76450 0.67458 0.28527
 C969 C 0.69630 0.58946 0.26887
 C970 C 0.68443 0.57472 0.26597
 H971 H 0.68443 0.59981 0.30604
 H972 H 0.68353 0.61965 0.33906
 H973 H 0.70777 0.64990 0.34490
 H974 H 0.73306 0.66050 0.31775
 H975 H 0.76465 0.64933 0.24534
 H976 H 0.76557 0.62947 0.21234
 H977 H 0.74132 0.59923 0.20649
 H978 H 0.71600 0.58866 0.23362
 C979 C 0.21110 0.10768 0.77140
 C980 C 0.22797 0.11158 0.75707
 C981 C 0.24195 0.12896 0.76051
 C982 C 0.23898 0.14235 0.77827
 C983 C 0.22213 0.13844 0.79262
 C984 C 0.20815 0.12105 0.78918
 C985 C 0.19142 0.11746 0.80374
 C986 C 0.18858 0.13067 0.82121
 C987 C 0.20225 0.14767 0.82457
 C988 C 0.21886 0.15159 0.81050
 C989 C 0.25870 0.13254 0.74596
 C990 C 0.26155 0.11932 0.72851
 C991 C 0.24787 0.10232 0.72514
 C992 C 0.23125 0.09842 0.73920
 C993 C 0.25324 0.16014 0.78176
 C994 C 0.26507 0.17492 0.78465
 C995 C 0.19679 0.08995 0.76786
 C996 C 0.18489 0.07523 0.76492
 H997 H 0.18037 0.10443 0.80181
 H998 H 0.17570 0.12769 0.83219
 H999 H 0.19998 0.15789 0.83816
 H1000 H 0.22907 0.16501 0.81379
 H1001 H 0.26975 0.14556 0.74791
 H1002 H 0.27444 0.12228 0.71754
 H1003 H 0.25016 0.09209 0.71156
 H1004 H 0.22103 0.08500 0.73591
 C1005 C 0.22860 0.28902 0.10682
 C1006 C 0.21155 0.29273 0.12099
 C1007 C 0.20823 0.27886 0.13840
 C1008 C 0.22199 0.26135 0.14154
 C1009 C 0.23903 0.25762 0.12736
 C1010 C 0.24235 0.27150 0.10995
 C1011 C 0.25950 0.26745 0.09599
 C1012 C 0.27298 0.25019 0.09913
 C1013 C 0.26973 0.23662 0.11615
 C1014 C 0.25298 0.24022 0.13016
 C1015 C 0.19107 0.28290 0.15236
 C1016 C 0.17758 0.30016 0.14920
 C1017 C 0.18082 0.31371 0.13217
 C1018 C 0.19758 0.31012 0.11818
 C1019 C 0.21861 0.24720 0.15935
 C1020 C 0.21579 0.23547 0.17414
 C1021 C 0.23202 0.30322 0.08907
 C1022 C 0.23484 0.31505 0.07435
 H1023 H 0.26267 0.27756 0.08252
 H1024 H 0.28601 0.24733 0.08830
 H1025 H 0.28025 0.22323 0.11853
 H1026 H 0.25110 0.22922 0.14316
 H1027 H 0.18790 0.27281 0.16583
 H1028 H 0.16454 0.30301 0.16002
 H1029 H 0.17029 0.32709 0.12978
 H1030 H 0.19945 0.32112 0.10516
 C1031 C 0.72853 0.79009 0.60713
 C1032 C 0.71237 0.79468 0.62207
 C1033 C 0.70884 0.78074 0.63939
 C1034 C 0.72148 0.76228 0.64165
 C1035 C 0.73763 0.75768 0.62670
 C1036 C 0.74116 0.77163 0.60939
 C1037 C 0.75739 0.76670 0.59465
 C1038 C 0.76978 0.74851 0.59694
 C1039 C 0.76632 0.73487 0.61386
 C1040 C 0.75045 0.73932 0.62862
 C1041 C 0.69260 0.78566 0.65412
 C1042 C 0.68021 0.80385 0.65182
 C1043 C 0.68366 0.81748 0.63489
 C1044 C 0.69954 0.81303 0.62014
 C1045 C 0.71789 0.74804 0.65935
 C1046 C 0.71493 0.73622 0.67405
 C1047 C 0.73214 0.80434 0.58945
 C1048 C 0.73510 0.81618 0.57478
 H1049 H 0.76069 0.77683 0.58123
 H1050 H 0.78212 0.74498 0.58552
 H1051 H 0.77598 0.72075 0.61557
 H1052 H 0.74837 0.72823 0.64151
 H1053 H 0.68931 0.77554 0.66755
 H1054 H 0.66786 0.80737 0.66323
 H1055 H 0.67399 0.83158 0.63317
 H1056 H 0.70161 0.82412 0.60724
 C1057 C 0.77233 0.79012 0.39293
 C1058 C 0.75795 0.77324 0.38918
 C1059 C 0.76133 0.75926 0.37183
 C1060 C 0.77907 0.76226 0.35834
 C1061 C 0.79345 0.77914 0.36210
 C1062 C 0.79007 0.79311 0.37945
 C1063 C 0.80467 0.80986 0.38290
 C1064 C 0.82211 0.81273 0.36958
 C1065 C 0.82541 0.79908 0.35262
 C1066 C 0.81130 0.78245 0.34884
 C1067 C 0.74675 0.74250 0.36840
 C1068 C 0.72932 0.73962 0.38173
 C1069 C 0.72601 0.75329 0.39868
 C1070 C 0.74011 0.76993 0.40244
 C1071 C 0.78250 0.74802 0.34059
 C1072 C 0.78534 0.73619 0.32586
 C1073 C 0.76886 0.80440 0.41064
 C1074 C 0.76595 0.81625 0.42534
 H1075 H 0.80278 0.82090 0.39589
 H1076 H 0.83311 0.82563 0.37244
 H1077 H 0.83898 0.80138 0.34232
 H1078 H 0.81455 0.77225 0.33545
 H1079 H 0.74864 0.73146 0.35542
 H1080 H 0.71832 0.72672 0.37887
 H1081 H 0.71244 0.75098 0.40898
 H1082 H 0.73686 0.78013 0.41583
 C1083 C 0.27141 0.28947 -0.10777
 C1084 C 0.25679 0.27289 -0.11192
 C1085 C 0.26027 0.25895 -0.12928
 C1086 C 0.27834 0.26168 -0.14239
 C1087 C 0.29295 0.27827 -0.13824
 C1088 C 0.28948 0.29220 -0.12088
 C1089 C 0.30432 0.30866 -0.11705
 C1090 C 0.32207 0.31128 -0.13000
 C1091 C 0.32546 0.29767 -0.14698
 C1092 C 0.31112 0.28132 -0.15113
 C1093 C 0.24543 0.24250 -0.13311
 C1094 C 0.22768 0.23988 -0.12016
 C1095 C 0.22428 0.25350 -0.10319
 C1096 C 0.23862 0.26985 -0.09904
 C1097 C 0.28189 0.24744 -0.16011
 C1098 C 0.28484 0.23561 -0.17482
 C1099 C 0.26788 0.30369 -0.09003
 C1100 C 0.26497 0.31549 -0.07529
 H1101 H 0.30237 0.31966 -0.10403
 H1102 H 0.33325 0.32396 -0.12684
 H1103 H 0.33927 0.29977 -0.15699
 H1104 H 0.31444 0.27114 -0.16452
 H1105 H 0.24738 0.23149 -0.14612
 H1106 H 0.21649 0.22721 -0.12332
 H1107 H 0.21046 0.25140 -0.09319
 H1108 H 0.23529 0.28004 -0.08566
 C1109 C 0.72933 0.21024 -0.10724
 C1110 C 0.74330 0.22753 -0.11066
 C1111 C 0.73984 0.24147 -0.12799
 C1112 C 0.72243 0.23803 -0.14181
 C1113 C 0.70848 0.22073 -0.13840
 C1114 C 0.71194 0.20680 -0.12106
 C1115 C 0.69777 0.18962 -0.11797
 C1116 C 0.68068 0.18630 -0.13162
 C1117 C 0.67730 0.19992 -0.14857
 C1118 C 0.69099 0.21697 -0.15200
 C1119 C 0.75401 0.25864 -0.13109
 C1120 C 0.77111 0.26196 -0.11745
 C1121 C 0.77449 0.24833 -0.10050
 C1122 C 0.76080 0.23129 -0.09707
 C1123 C 0.71888 0.25229 -0.15950
 C1124 C 0.71592 0.26412 -0.17418
 C1125 C 0.73284 0.19602 -0.08952
 C1126 C 0.73572 0.18420 -0.07481
 H1127 H 0.69973 0.17859 -0.10501
 H1128 H 0.67000 0.17308 -0.12902
 H1129 H 0.66400 0.19727 -0.15913
 H1130 H 0.68770 0.22712 -0.16540
 H1131 H 0.75204 0.26968 -0.14405
 H1132 H 0.78179 0.27517 -0.12005
 H1133 H 0.78780 0.25097 -0.08995
 H1134 H 0.76409 0.22112 -0.08367
 C1135 C 0.22824 0.71059 0.39259
 C1136 C 0.24211 0.72798 0.38932
 C1137 C 0.23879 0.74184 0.37189
 C1138 C 0.22163 0.73821 0.35783
 C1139 C 0.20776 0.72081 0.36111
 C1140 C 0.21108 0.70696 0.37854
 C1141 C 0.19700 0.68968 0.38149
 C1142 C 0.18013 0.68618 0.36761
 C1143 C 0.17689 0.69972 0.35057
 C1144 C 0.19049 0.71686 0.34728
 C1145 C 0.25286 0.75912 0.36895
 C1146 C 0.26973 0.76262 0.38282
 C1147 C 0.27298 0.74907 0.39986
 C1148 C 0.25938 0.73193 0.40315
 C1149 C 0.21824 0.75235 0.34002
 C1150 C 0.21544 0.76410 0.32524
 C1151 C 0.23164 0.69644 0.41039
 C1152 C 0.23445 0.68468 0.42517
 H1153 H 0.19887 0.67871 0.39452
 H1154 H 0.16952 0.67289 0.37010
 H1155 H 0.16376 0.69693 0.33983
 H1156 H 0.18731 0.72695 0.33380
 H1157 H 0.25099 0.77009 0.35592
 H1158 H 0.28034 0.77591 0.38033
 H1159 H 0.28611 0.75186 0.41059
 H1160 H 0.26256 0.72184 0.41662
 C1161 C 0.27106 0.71066 0.60753
 C1162 C 0.28895 0.70774 0.62083
 C1163 C 0.29238 0.72165 0.63821
 C1164 C 0.27791 0.73840 0.64219
 C1165 C 0.26001 0.74132 0.62890
 C1166 C 0.25658 0.72740 0.61152
 C1167 C 0.23857 0.73063 0.59846
 C1168 C 0.22437 0.74714 0.60244
 C1169 C 0.22773 0.76074 0.61943
 C1170 C 0.24532 0.75794 0.63256
 C1171 C 0.31038 0.71841 0.65128
 C1172 C 0.32458 0.70190 0.64730
 C1173 C 0.32122 0.68830 0.63030
 C1174 C 0.30364 0.69111 0.61716
 C1175 C 0.28143 0.75263 0.65993
 C1176 C 0.28435 0.76446 0.67465
 C1177 C 0.26755 0.69645 0.58978
 C1178 C 0.26464 0.68465 0.57503
 H1179 H 0.23528 0.72047 0.58505
 H1180 H 0.21069 0.74938 0.59229
 H1181 H 0.21666 0.77354 0.62247
 H1182 H 0.24725 0.76894 0.64558
 H1183 H 0.31367 0.72857 0.66470
 H1184 H 0.33826 0.69965 0.65745
 H1185 H 0.33230 0.67551 0.62727
 H1186 H 0.30171 0.68012 0.60414
 C1187 C 0.77215 0.20973 0.10747
 C1188 C 0.75760 0.22642 0.11148
 C1189 C 0.76100 0.24033 0.12887
 C1190 C 0.77891 0.23747 0.14215
 C1191 C 0.79345 0.22078 0.13814
 C1192 C 0.79006 0.20687 0.12075
 C1193 C 0.80481 0.19030 0.11706
 C1194 C 0.82241 0.18756 0.13018
 C1195 C 0.82573 0.20115 0.14719
 C1196 C 0.81147 0.21760 0.15120
 C1197 C 0.74624 0.25690 0.13255
 C1198 C 0.72864 0.25964 0.11944
 C1199 C 0.72532 0.24604 0.10244
 C1200 C 0.73958 0.22959 0.09842
 C1201 C 0.78239 0.25170 0.15990
 C1202 C 0.78527 0.26353 0.17462
 C1203 C 0.76868 0.19553 0.08969
 C1204 C 0.76582 0.18375 0.07493
 H1205 H 0.80292 0.17932 0.10403
 H1206 H 0.83354 0.17480 0.12713
 H1207 H 0.83942 0.19895 0.15733
 H1208 H 0.81473 0.22776 0.16462
 H1209 H 0.74814 0.26789 0.14558
 H1210 H 0.71751 0.27239 0.12249
 H1211 H 0.71162 0.24824 0.09229
 H1212 H 0.73631 0.21942 0.08501
 C1213 C 0.47841 0.35744 0.54045
 C1214 C 0.46046 0.37074 0.54323
 C1215 C 0.45704 0.38808 0.52928
 C1216 C 0.47158 0.39202 0.51262
 C1217 C 0.48955 0.37874 0.50986
 C1218 C 0.49297 0.36140 0.52382
 C1219 C 0.51104 0.34835 0.52074
 C1220 C 0.52532 0.35231 0.50434
 C1221 C 0.52197 0.36927 0.49070
 C1222 C 0.50432 0.38238 0.49334
 C1223 C 0.43899 0.40116 0.53238
 C1224 C 0.42473 0.39721 0.54879
 C1225 C 0.42807 0.38026 0.56243
 C1226 C 0.44570 0.36712 0.55976
 C1227 C 0.46805 0.40970 0.49832
 C1228 C 0.46511 0.42436 0.48643
 C1229 C 0.48187 0.33969 0.55467
 C1230 C 0.48473 0.32495 0.56647
 H1231 H 0.51433 0.33497 0.53095
 H1232 H 0.53906 0.34217 0.50222
 H1233 H 0.53311 0.37228 0.47798
 H1234 H 0.50240 0.39537 0.48232
 H1235 H 0.43571 0.41455 0.52218
 H1236 H 0.41101 0.40738 0.55094
 H1237 H 0.41694 0.37726 0.57516
 H1238 H 0.44762 0.35413 0.57078
 C1239 C -0.02076 0.85777 0.03943
 C1240 C -0.00619 0.86178 0.02282
 C1241 C -0.00955 0.87921 0.00896
 C1242 C -0.02747 0.89254 0.01180
 C1243 C -0.04201 0.88856 0.02845
 C1244 C -0.03865 0.87113 0.04230
 C1245 C -0.05341 0.86746 0.05882
 C1246 C -0.07100 0.88065 0.06157
 C1247 C -0.07428 0.89770 0.04803
 C1248 C -0.06002 0.90168 0.03163
 C1249 C 0.00523 0.88288 -0.00754
 C1250 C 0.02283 0.86972 -0.01027
 C1251 C 0.02612 0.85268 0.00328
 C1252 C 0.01184 0.84868 0.01966
 C1253 C -0.03096 0.91029 -0.00241
 C1254 C -0.03389 0.92502 -0.01421
 C1255 C -0.01736 0.83992 0.05355
 C1256 C -0.01457 0.82510 0.06527
 H1257 H -0.05154 0.85441 0.06977
 H1258 H -0.08213 0.87762 0.07429
 H1259 H -0.08797 0.90790 0.05024
 H1260 H -0.06325 0.91514 0.02151
 H1261 H 0.00335 0.89594 -0.01849
 H1262 H 0.03398 0.87276 -0.02297
 H1263 H 0.03983 0.84250 0.00110
 H1264 H 0.01508 0.83523 0.02980
 C1265 C 0.02084 0.64187 0.03937
 C1266 C 0.00721 0.63883 0.02179
 C1267 C 0.01053 0.62136 0.00793
 C1268 C 0.02745 0.60702 0.01176
 C1269 C 0.04105 0.61004 0.02937
 C1270 C 0.03773 0.62752 0.04321
 C1271 C 0.05154 0.63021 0.06070
 C1272 C 0.06814 0.61604 0.06441
 C1273 C 0.07138 0.59895 0.05088
 C1274 C 0.05804 0.59591 0.03353
 C1275 C -0.00329 0.61866 -0.00955
 C1276 C -0.01991 0.63281 -0.01324
 C1277 C -0.02315 0.64989 0.00030
 C1278 C -0.00980 0.65295 0.01764
 C1279 C 0.03089 0.58922 -0.00244
 C1280 C 0.03377 0.57445 -0.01422
 C1281 C 0.01748 0.65974 0.05350
 C1282 C 0.01473 0.67458 0.06523
 H1283 H 0.04967 0.64326 0.07168
 H1284 H 0.07855 0.61833 0.07787
 H1285 H 0.08430 0.58799 0.05383
 H1286 H 0.06120 0.58238 0.02346
 H1287 H -0.00141 0.60561 -0.02053
 H1288 H -0.03033 0.63051 -0.02668
 H1289 H -0.03609 0.66084 -0.00263
 H1290 H -0.01296 0.66647 0.02772
 C1291 C 0.52138 0.14218 0.54065
 C1292 C 0.53932 0.12889 0.54353
 C1293 C 0.54277 0.11147 0.52965
 C1294 C 0.52826 0.10743 0.51299
 C1295 C 0.51032 0.12070 0.51013
 C1296 C 0.50686 0.13813 0.52400
 C1297 C 0.48881 0.15117 0.52083
 C1298 C 0.47457 0.14712 0.50442
 C1299 C 0.47795 0.13009 0.49084
 C1300 C 0.49559 0.11698 0.49359
 C1301 C 0.56081 0.09841 0.53284
 C1302 C 0.57504 0.10245 0.54927
 C1303 C 0.57166 0.11949 0.56283
 C1304 C 0.55404 0.13261 0.56007
 C1305 C 0.53180 0.08964 0.49879
 C1306 C 0.53474 0.07490 0.48699
 C1307 C 0.51789 0.16001 0.55480
 C1308 C 0.51501 0.17481 0.56655
 H1309 H 0.48549 0.16461 0.53098
 H1310 H 0.46084 0.15725 0.50222
 H1311 H 0.46685 0.12701 0.47811
 H1312 H 0.49754 0.10393 0.48262
 H1313 H 0.56412 0.08497 0.52270
 H1314 H 0.58876 0.09231 0.55147
 H1315 H 0.58276 0.12256 0.57557
 H1316 H 0.55209 0.14567 0.57103
 C1317 C -0.02173 0.14309 0.45988
 C1318 C -0.03915 0.12924 0.45655
 C1319 C -0.04260 0.11193 0.47053
 C1320 C -0.02861 0.10857 0.48777
 C1321 C -0.01118 0.12241 0.49109
 C1322 C -0.00773 0.13972 0.47710
 C1323 C 0.00981 0.15333 0.48074
 C1324 C 0.02354 0.14994 0.49772
 C1325 C 0.02016 0.13302 0.51140
 C1326 C 0.00302 0.11936 0.50820
 C1327 C -0.06012 0.09830 0.46687
 C1328 C -0.07384 0.10168 0.44989
 C1329 C -0.07047 0.11861 0.43622
 C1330 C -0.05335 0.13228 0.43943
 C1331 C -0.03216 0.09090 0.50207
 C1332 C -0.03509 0.07623 0.51395
 C1333 C -0.01823 0.16080 0.44563
 C1334 C -0.01532 0.17552 0.43380
 H1335 H 0.01310 0.16671 0.47054
 H1336 H 0.03687 0.16051 0.50027
 H1337 H 0.03087 0.13046 0.52456
 H1338 H 0.00106 0.10642 0.51927
 H1339 H -0.06341 0.08491 0.47707
 H1340 H -0.08716 0.09110 0.44733
 H1341 H -0.08117 0.12116 0.42305
 H1342 H -0.05138 0.14522 0.42836
 C1343 C 0.47883 0.64258 0.96037
 C1344 C 0.49336 0.63862 0.97702
 C1345 C 0.49000 0.62119 0.99089
 C1346 C 0.47212 0.60783 0.98802
 C1347 C 0.45760 0.61176 0.97135
 C1348 C 0.46096 0.62919 0.95749
 C1349 C 0.44622 0.63282 0.94095
 C1350 C 0.42868 0.61960 0.93817
 C1351 C 0.42540 0.60255 0.95172
 C1352 C 0.43964 0.59861 0.96815
 C1353 C 0.50475 0.61756 1.00742
 C1354 C 0.52232 0.63076 1.01017
 C1355 C 0.52561 0.64780 0.99662
 C1356 C 0.51135 0.65176 0.98020
 C1357 C 0.46864 0.59007 1.00224
 C1358 C 0.46573 0.57534 1.01405
 C1359 C 0.48223 0.66040 0.94623
 C1360 C 0.48504 0.67520 0.93449
 H1361 H 0.44809 0.64588 0.93000
 H1362 H 0.41756 0.62260 0.92543
 H1363 H 0.41174 0.59233 0.94950
 H1364 H 0.43641 0.58515 0.97827
 H1365 H 0.50288 0.60450 1.01837
 H1366 H 0.53344 0.62775 1.02289
 H1367 H 0.53928 0.65800 0.99882
 H1368 H 0.51458 0.66521 0.97007
 C1369 C 0.52073 0.85837 0.96026
 C1370 C 0.50960 0.85951 0.97971
 C1371 C 0.51295 0.87700 0.99354
 C1372 C 0.52741 0.89325 0.98783
 C1373 C 0.53851 0.89213 0.96835
 C1374 C 0.53516 0.87464 0.95453
 C1375 C 0.54645 0.87386 0.93516
 C1376 C 0.56063 0.88991 0.92960
 C1377 C 0.56389 0.90701 0.94310
 C1378 C 0.55301 0.90819 0.96228
 C1379 C 0.50164 0.87779 1.01289
 C1380 C 0.48743 0.86176 1.01844
 C1381 C 0.48416 0.84467 1.00493
 C1382 C 0.49507 0.84347 0.98577
 C1383 C 0.53091 0.91105 1.00200
 C1384 C 0.53385 0.92582 1.01378
 C1385 C 0.51736 0.84048 0.94617
 C1386 C 0.51458 0.82563 0.93446
 H1387 H 0.54445 0.86088 0.92413
 H1388 H 0.56912 0.88907 0.91472
 H1389 H 0.57492 0.91944 0.93871
 H1390 H 0.55609 0.92181 0.97225
 H1391 H 0.50364 0.89077 1.02393
 H1392 H 0.47891 0.86262 1.03331
 H1393 H 0.47310 0.83225 1.00931
 H1394 H 0.49198 0.82986 0.97579
 C1395 C 0.02118 0.35790 0.46001
 C1396 C 0.03903 0.37130 0.45719
 C1397 C 0.04239 0.38867 0.47117
 C1398 C 0.02789 0.39251 0.48788
 C1399 C 0.01004 0.37910 0.49071
 C1400 C 0.00668 0.36174 0.47673
 C1401 C -0.01128 0.34855 0.47987
 C1402 C -0.02549 0.35240 0.49636
 C1403 C -0.02220 0.36937 0.51003
 C1404 C -0.00467 0.38262 0.50731
 C1405 C 0.06035 0.40185 0.46802
 C1406 C 0.07458 0.39799 0.45155
 C1407 C 0.07129 0.38102 0.43789
 C1408 C 0.05375 0.36777 0.44060
 C1409 C 0.03133 0.41024 0.50217
 C1410 C 0.03419 0.42495 0.51403
 C1411 C 0.01774 0.34016 0.44574
 C1412 C 0.01490 0.32544 0.43389
 H1413 H -0.01452 0.33515 0.46966
 H1414 H -0.03914 0.34215 0.49853
 H1415 H -0.03329 0.37229 0.52281
 H1416 H -0.00279 0.39561 0.51835
 H1417 H 0.06359 0.41525 0.47824
 H1418 H 0.08823 0.40823 0.44938
 H1419 H 0.08239 0.37809 0.42512
 H1420 H 0.05188 0.35477 0.42956
 C1421 C 0.35698 0.53999 0.47868
 C1422 C 0.37034 0.54274 0.46084
 C1423 C 0.38774 0.52873 0.45747
 C1424 C 0.39167 0.51204 0.47194
 C1425 C 0.37831 0.50930 0.48977
 C1426 C 0.36092 0.52332 0.49315
 C1427 C 0.34779 0.52026 0.51110
 C1428 C 0.35173 0.50382 0.52530
 C1429 C 0.36874 0.49012 0.52199
 C1430 C 0.38193 0.49275 0.50446
 C1431 C 0.40088 0.53180 0.43953
 C1432 C 0.39694 0.54824 0.42534
 C1433 C 0.37993 0.56194 0.42864
 C1434 C 0.36673 0.55930 0.44616
 C1435 C 0.40943 0.49771 0.46848
 C1436 C 0.42417 0.48581 0.46560
 C1437 C 0.33920 0.55430 0.48212
 C1438 C 0.32445 0.56619 0.48498
 H1439 H 0.33437 0.53051 0.51435
 H1440 H 0.34153 0.50172 0.53894
 H1441 H 0.37173 0.47737 0.53307
 H1442 H 0.39495 0.48168 0.50257
 H1443 H 0.41430 0.52155 0.43628
 H1444 H 0.40715 0.55036 0.41171
 H1445 H 0.37694 0.57469 0.41757
 H1446 H 0.35370 0.57036 0.44805
 C1447 C 0.85865 0.03967 -0.02162
 C1448 C 0.86264 0.02295 -0.00721
 C1449 C 0.88010 0.00901 -0.01064
 C1450 C 0.89346 0.01189 -0.02845
 C1451 C 0.88948 0.02863 -0.04284
 C1452 C 0.87202 0.04256 -0.03942
 C1453 C 0.86836 0.05917 -0.05404
 C1454 C 0.88157 0.06194 -0.07153
 C1455 C 0.89864 0.04833 -0.07487
 C1456 C 0.90263 0.03183 -0.06075
 C1457 C 0.88377 -0.00759 0.00398
 C1458 C 0.87057 -0.01035 0.02149
 C1459 C 0.85351 0.00328 0.02484
 C1460 C 0.84951 0.01976 0.01071
 C1461 C 0.91127 -0.00237 -0.03198
 C1462 C 0.92604 -0.01422 -0.03492
 C1463 C 0.84079 0.05387 -0.01815
 C1464 C 0.82596 0.06567 -0.01529
 H1465 H 0.85529 0.07017 -0.05211
 H1466 H 0.87855 0.07473 -0.08254
 H1467 H 0.90886 0.05055 -0.08848
 H1468 H 0.91610 0.02166 -0.06403
 H1469 H 0.89684 -0.01859 0.00206
 H1470 H 0.87361 -0.02313 0.03251
 H1471 H 0.84331 0.00107 0.03846
 H1472 H 0.83604 0.02994 0.01399
 C1473 C 0.64211 0.04025 0.02046
 C1474 C 0.63734 0.02437 0.00533
 C1475 C 0.61981 0.01051 0.00865
 C1476 C 0.60716 0.01261 0.02708
 C1477 C 0.61190 0.02854 0.04218
 C1478 C 0.62943 0.04240 0.03886
 C1479 C 0.63386 0.05818 0.05418
 C1480 C 0.62133 0.06023 0.07226
 C1481 C 0.60419 0.04668 0.07551
 C1482 C 0.59945 0.03099 0.06069
 C1483 C 0.61536 -0.00525 -0.00669
 C1484 C 0.62786 -0.00726 -0.02479
 C1485 C 0.64499 0.00629 -0.02804
 C1486 C 0.64975 0.02195 -0.01320
 C1487 C 0.58935 -0.00165 0.03055
 C1488 C 0.57459 -0.01350 0.03348
 C1489 C 0.66008 0.05435 0.01713
 C1490 C 0.67500 0.06605 0.01438
 H1491 H 0.64702 0.06910 0.05237
 H1492 H 0.62494 0.07239 0.08382
 H1493 H 0.59450 0.04833 0.08958
 H1494 H 0.58595 0.02084 0.06392
 H1495 H 0.60220 -0.01617 -0.00487
 H1496 H 0.62422 -0.01940 -0.03637
 H1497 H 0.65465 0.00467 -0.04213
 H1498 H 0.66324 0.03211 -0.01643
 C1499 C 0.14164 0.54014 0.52108
 C1500 C 0.13772 0.52351 0.50651
 C1501 C 0.12037 0.50944 0.50985
 C1502 C 0.10704 0.51208 0.52773
 C1503 C 0.11095 0.52873 0.54228
 C1504 C 0.12830 0.54280 0.53894
 C1505 C 0.13190 0.55931 0.55371
 C1506 C 0.11872 0.56186 0.57126
 C1507 C 0.10175 0.54811 0.57452
 C1508 C 0.09783 0.53170 0.56025
 C1509 C 0.11677 0.49293 0.49508
 C1510 C 0.12993 0.49040 0.47751
 C1511 C 0.14689 0.50416 0.47425
 C1512 C 0.15082 0.52055 0.48853
 C1513 C 0.08934 0.49768 0.53116
 C1514 C 0.07465 0.48572 0.53403
 C1515 C 0.15940 0.55448 0.51770
 C1516 C 0.17416 0.56636 0.51490
 H1517 H 0.14489 0.57042 0.55185
 H1518 H 0.12170 0.57458 0.58239
 H1519 H 0.09156 0.55015 0.58818
 H1520 H 0.08444 0.52141 0.56347
 H1521 H 0.10378 0.48182 0.49693
 H1522 H 0.12695 0.47768 0.46637
 H1523 H 0.15707 0.50212 0.46057
 H1524 H 0.16421 0.53085 0.48530
 C1525 C 0.14167 0.45960 -0.02098
 C1526 C 0.13687 0.47540 -0.00577
 C1527 C 0.11943 0.48937 -0.00909
 C1528 C 0.10689 0.48745 -0.02760
 C1529 C 0.11166 0.47162 -0.04279
 C1530 C 0.12910 0.45765 -0.03947
 C1531 C 0.13356 0.44196 -0.05488
 C1532 C 0.12114 0.44011 -0.07305
 C1533 C 0.10408 0.45376 -0.07630
 C1534 C 0.09932 0.46937 -0.06140
 C1535 C 0.11496 0.50505 0.00633
 C1536 C 0.12735 0.50687 0.02453
 C1537 C 0.14440 0.49321 0.02778
 C1538 C 0.14918 0.47763 0.01286
 C1539 C 0.08913 0.50178 -0.03105
 C1540 C 0.07439 0.51368 -0.03394
 C1541 C 0.15953 0.44538 -0.01762
 C1542 C 0.17436 0.43357 -0.01486
 H1543 H 0.14666 0.43097 -0.05307
 H1544 H 0.12477 0.42802 -0.08467
 H1545 H 0.09448 0.45226 -0.09044
 H1546 H 0.08589 0.47961 -0.06463
 H1547 H 0.10186 0.51604 0.00452
 H1548 H 0.12370 0.51894 0.03616
 H1549 H 0.15398 0.49468 0.04193
 H1550 H 0.16261 0.46738 0.01610
 C1551 C 0.64237 0.96039 0.47897
 C1552 C 0.63834 0.97703 0.49351
 C1553 C 0.62084 0.99093 0.49020
 C1554 C 0.60748 0.98811 0.47238
 C1555 C 0.61149 0.97146 0.45786
 C1556 C 0.62899 0.95757 0.46117
 C1557 C 0.63269 0.94105 0.44643
 C1558 C 0.61947 0.93833 0.42893
 C1559 C 0.60236 0.95191 0.42571
 C1560 C 0.59834 0.96832 0.43995
 C1561 C 0.61714 1.00744 0.50494
 C1562 C 0.63034 1.01015 0.52245
 C1563 C 0.64745 0.99655 0.52568
 C1564 C 0.65148 0.98016 0.51143
 C1565 C 0.58963 1.00235 0.46898
 C1566 C 0.57483 1.01417 0.46613
 C1567 C 0.66025 0.94621 0.48233
 C1568 C 0.67510 0.93444 0.48513
 H1569 H 0.64580 0.93007 0.44826
 H1570 H 0.62253 0.92561 0.41782
 H1571 H 0.59214 0.94974 0.41209
 H1572 H 0.58483 0.97847 0.43676
 H1573 H 0.60403 1.01842 0.50311
 H1574 H 0.62728 1.02286 0.53357
 H1575 H 0.65766 0.99872 0.53931
 H1576 H 0.66498 0.96999 0.51463
 C1577 C 0.85786 0.96124 0.52180
 C1578 C 0.87112 0.95859 0.53972
 C1579 C 0.88848 0.97265 0.54312
 C1580 C 0.89246 0.98927 0.52859
 C1581 C 0.87918 0.99193 0.51068
 C1582 C 0.86183 0.97787 0.50728
 C1583 C 0.84878 0.98083 0.48927
 C1584 C 0.85276 0.99723 0.47503
 C1585 C 0.86972 1.01098 0.47836
 C1586 C 0.88283 1.00843 0.49595
 C1587 C 0.90152 0.96969 0.56113
 C1588 C 0.89753 0.95331 0.57539
 C1589 C 0.88056 0.93957 0.57206
 C1590 C 0.86746 0.94210 0.55446
 C1591 C 0.91020 1.00362 0.53205
 C1592 C 0.92494 1.01551 0.53493
 C1593 C 0.84015 0.94687 0.51832
 C1594 C 0.82543 0.93494 0.51542
 H1595 H 0.83540 0.97055 0.48600
 H1596 H 0.84262 0.99927 0.46134
 H1597 H 0.87274 1.02369 0.46725
 H1598 H 0.89583 1.01953 0.49786
 H1599 H 0.91491 0.97997 0.56440
 H1600 H 0.90766 0.95128 0.58908
 H1601 H 0.87753 0.92687 0.58318
 H1602 H 0.85445 0.93101 0.55256
 C1603 C 0.35763 0.45967 0.02127
 C1604 C 0.36164 0.47634 0.00680
 C1605 C 0.37906 0.49032 0.01022
 C1606 C 0.39237 0.48754 0.02808
 C1607 C 0.38838 0.47085 0.04253
 C1608 C 0.37096 0.45687 0.03911
 C1609 C 0.36729 0.44031 0.05378
 C1610 C 0.38045 0.43763 0.07131
 C1611 C 0.39748 0.45129 0.07465
 C1612 C 0.40148 0.46773 0.06048
 C1613 C 0.38274 0.50687 -0.00445
 C1614 C 0.36959 0.50954 -0.02201
 C1615 C 0.35257 0.49587 -0.02535
 C1616 C 0.34856 0.47944 -0.01116
 C1617 C 0.41013 0.50185 0.03160
 C1618 C 0.42486 0.51374 0.03454
 C1619 C 0.33981 0.44543 0.01780
 C1620 C 0.32501 0.43361 0.01493
 H1621 H 0.35424 0.42928 0.05186
 H1622 H 0.37741 0.42488 0.08237
 H1623 H 0.40766 0.44913 0.08830
 H1624 H 0.41492 0.47794 0.06375
 H1625 H 0.39578 0.51791 -0.00254
 H1626 H 0.37264 0.52228 -0.03307
 H1627 H 0.34240 0.49801 -0.03900
 H1628 H 0.33512 0.46922 -0.01444
 C1629 C 0.53940 0.47782 0.35745
 C1630 C 0.54225 0.45990 0.37064
 C1631 C 0.52832 0.45647 0.38803
 C1632 C 0.51162 0.47099 0.39212
 C1633 C 0.50875 0.48890 0.37891
 C1634 C 0.52268 0.49232 0.36152
 C1635 C 0.51950 0.51033 0.34854
 C1636 C 0.50302 0.52455 0.35261
 C1637 C 0.48940 0.52121 0.36961
 C1638 C 0.49215 0.50361 0.38266
 C1639 C 0.53149 0.43845 0.40100
 C1640 C 0.54795 0.42421 0.39691
 C1641 C 0.56157 0.42756 0.37990
 C1642 C 0.55883 0.44517 0.36687
 C1643 C 0.49742 0.46754 0.40992
 C1644 C 0.48563 0.46471 0.42470
 C1645 C 0.55368 0.48135 0.33973
 C1646 C 0.56554 0.48429 0.32503
 H1647 H 0.52969 0.51362 0.33513
 H1648 H 0.50082 0.53825 0.34252
 H1649 H 0.47662 0.53230 0.37271
 H1650 H 0.48114 0.50169 0.39568
 H1651 H 0.52131 0.43517 0.41441
 H1652 H 0.55015 0.41051 0.40699
 H1653 H 0.57433 0.41645 0.37679
 H1654 H 0.56983 0.44708 0.35384
 C1655 C 0.04003 -0.02147 0.85668
 C1656 C 0.04293 -0.03935 0.86993
 C1657 C 0.02906 -0.04271 0.88738
 C1658 C 0.01237 -0.02818 0.89148
 C1659 C 0.00945 -0.01033 0.87821
 C1660 C 0.02332 -0.00697 0.86076
 C1661 C 0.02008 0.01099 0.84772
 C1662 C 0.00361 0.02522 0.85180
 C1663 C -0.00995 0.02193 0.86885
 C1664 C -0.00714 0.00439 0.88196
 C1665 C 0.03229 -0.06068 0.90041
 C1666 C 0.04874 -0.07493 0.89631
 C1667 C 0.06229 -0.07165 0.87924
 C1668 C 0.05950 -0.05409 0.86615
 C1669 C -0.00178 -0.03160 0.90933
 C1670 C -0.01352 -0.03441 0.92415
 C1671 C 0.05425 -0.01799 0.83891
 C1672 C 0.06608 -0.01508 0.82417
 H1673 H 0.03021 0.01423 0.83425
 H1674 H 0.00136 0.03887 0.84166
 H1675 H -0.02272 0.03303 0.87196
 H1676 H -0.01810 0.00252 0.89503
 H1677 H 0.02216 -0.06392 0.91387
 H1678 H 0.05098 -0.08859 0.90643
 H1679 H 0.07504 -0.08277 0.87612
 H1680 H 0.07045 -0.05222 0.85307
 C1681 C 0.03958 0.02260 0.64256
 C1682 C 0.04229 0.04060 0.62944
 C1683 C 0.02828 0.04403 0.61212
 C1684 C 0.01165 0.02945 0.60802
 C1685 C 0.00891 0.01148 0.62117
 C1686 C 0.02292 0.00804 0.63849
 C1687 C 0.01987 -0.01003 0.65142
 C1688 C 0.00344 -0.02431 0.64735
 C1689 C -0.01026 -0.02096 0.63042
 C1690 C -0.00763 -0.00330 0.61743
 C1691 C 0.03131 0.06213 0.59922
 C1692 C 0.04771 0.07643 0.60332
 C1693 C 0.06140 0.07308 0.62025
 C1694 C 0.05880 0.05540 0.63322
 C1695 C -0.00262 0.03290 0.59028
 C1696 C -0.01446 0.03575 0.57555
 C1697 C 0.05394 0.01905 0.66020
 C1698 C 0.06587 0.01609 0.67484
 H1699 H 0.03011 -0.01333 0.66478
 H1700 H 0.00133 -0.03805 0.65739
 H1701 H -0.02300 -0.03210 0.62733
 H1702 H -0.01870 -0.00138 0.60445
 H1703 H 0.02107 0.06542 0.58586
 H1704 H 0.04979 0.09019 0.59329
 H1705 H 0.07411 0.08425 0.62337
 H1706 H 0.06985 0.05348 0.64620
 C1707 C 0.53969 0.52189 0.14313
 C1708 C 0.54252 0.53983 0.12994
 C1709 C 0.52863 0.54320 0.11251
 C1710 C 0.51200 0.52862 0.10837
 C1711 C 0.50915 0.51071 0.12158
 C1712 C 0.52304 0.50734 0.13901
 C1713 C 0.51987 0.48932 0.15199
 C1714 C 0.50346 0.47504 0.14787
 C1715 C 0.48988 0.47834 0.13083
 C1716 C 0.49261 0.49594 0.11779
 C1717 C 0.53178 0.56123 0.09955
 C1718 C 0.54817 0.57553 0.10370
 C1719 C 0.56174 0.57223 0.12074
 C1720 C 0.55903 0.55462 0.13377
 C1721 C 0.49786 0.53203 0.09053
 C1722 C 0.48612 0.53484 0.07571
 C1723 C 0.55392 0.51840 0.16089
 C1724 C 0.56574 0.51549 0.17562
 H1725 H 0.53002 0.48607 0.16543
 H1726 H 0.50127 0.46134 0.15795
 H1727 H 0.47715 0.46721 0.12770
 H1728 H 0.48164 0.49783 0.10473
 H1729 H 0.52163 0.56448 0.08611
 H1730 H 0.55035 0.58924 0.09362
 H1731 H 0.57445 0.58339 0.12389
 H1732 H 0.56999 0.55274 0.14683
 C1733 C 0.46043 -0.02217 0.14281
 C1734 C 0.47654 -0.00716 0.13821
 C1735 C 0.49029 -0.01041 0.12064
 C1736 C 0.48784 -0.02864 0.10776
 C1737 C 0.47174 -0.04366 0.11237
 C1738 C 0.45800 -0.04042 0.12995
 C1739 C 0.44203 -0.05565 0.13424
 C1740 C 0.43970 -0.07358 0.12154
 C1741 C 0.45313 -0.07675 0.10435
 C1742 C 0.46900 -0.06202 0.09974
 C1743 C 0.50627 0.00482 0.11636
 C1744 C 0.50861 0.02273 0.12908
 C1745 C 0.49517 0.02591 0.14626
 C1746 C 0.47929 0.01119 0.15085
 C1747 C 0.50186 -0.03194 0.08979
 C1748 C 0.51351 -0.03467 0.07488
 C1749 C 0.44634 -0.01882 0.16072
 C1750 C 0.43463 -0.01603 0.17557
 H1751 H 0.43119 -0.05389 0.14744
 H1752 H 0.42740 -0.08507 0.12505
 H1753 H 0.45126 -0.09070 0.09453
 H1754 H 0.47906 -0.06518 0.08621
 H1755 H 0.51712 0.00305 0.10317
 H1756 H 0.52092 0.03422 0.12558
 H1757 H 0.49705 0.03985 0.15609
 H1758 H 0.46923 0.01435 0.16438
 C1759 C 0.95976 0.47746 0.64243
 C1760 C 0.97647 0.49196 0.63836
 C1761 C 0.99034 0.48856 0.62091
 C1762 C 0.98741 0.47068 0.60764
 C1763 C 0.97071 0.45618 0.61173
 C1764 C 0.95684 0.45958 0.62918
 C1765 C 0.94026 0.44486 0.63295
 C1766 C 0.93746 0.42728 0.61986
 C1767 C 0.95101 0.42396 0.60279
 C1768 C 0.96747 0.43819 0.59870
 C1769 C 1.00693 0.50327 0.61715
 C1770 C 1.00975 0.52083 0.63025
 C1771 C 0.99619 0.52416 0.64731
 C1772 C 0.97971 0.50994 0.65139
 C1773 C 1.00156 0.46724 0.58979
 C1774 C 1.01333 0.46443 0.57499
 C1775 C 0.94557 0.48097 0.66023
 C1776 C 0.93378 0.48391 0.67500
 H1777 H 0.92931 0.44676 0.64604
 H1778 H 0.92470 0.41618 0.62297
 H1779 H 0.94877 0.41029 0.59267
 H1780 H 0.97760 0.43492 0.58523
 H1781 H 1.01789 0.50137 0.60408
 H1782 H 1.02252 0.53192 0.62715
 H1783 H 0.99844 0.53783 0.65744
 H1784 H 0.96958 0.51321 0.66485
 C1785 C 0.95976 0.52180 0.85731
 C1786 C 0.95665 0.53953 0.87074
 C1787 C 0.97046 0.54288 0.88824
 C1788 C 0.98731 0.52850 0.89219
 C1789 C 0.99043 0.51079 0.87874
 C1790 C 0.97662 0.50743 0.86125
 C1791 C 0.98005 0.48962 0.84803
 C1792 C 0.99666 0.47552 0.85198
 C1793 C 1.01017 0.47881 0.86908
 C1794 C 1.00717 0.49621 0.88236
 C1795 C 0.96703 0.56070 0.90145
 C1796 C 0.95043 0.57481 0.89749
 C1797 C 0.93693 0.57153 0.88038
 C1798 C 0.93993 0.55412 0.86711
 C1799 C 1.00141 0.53192 0.91007
 C1800 C 1.01313 0.53474 0.92491
 C1801 C 0.94561 0.51833 0.83948
 C1802 C 0.93384 0.51543 0.82470
 H1803 H 0.96997 0.48639 0.83453
 H1804 H 0.99907 0.46198 0.84171
 H1805 H 1.02305 0.46781 0.87208
 H1806 H 1.01809 0.49809 0.89546
 H1807 H 0.97711 0.56393 0.91496
 H1808 H 0.94803 0.58835 0.90776
 H1809 H 0.92406 0.58253 0.87737
 H1810 H 0.92901 0.55225 0.85400
 C1811 C 0.46052 0.02089 0.35816
 C1812 C 0.45756 0.03876 0.37144
 C1813 C 0.47143 0.04218 0.38888
 C1814 C 0.48818 0.02772 0.39294
 C1815 C 0.49114 0.00985 0.37966
 C1816 C 0.47727 0.00643 0.36223
 C1817 C 0.48054 -0.01155 0.34918
 C1818 C 0.49705 -0.02574 0.35325
 C1819 C 0.51061 -0.02239 0.37030
 C1820 C 0.50777 -0.00482 0.38340
 C1821 C 0.46815 0.06015 0.40192
 C1822 C 0.45164 0.07434 0.39786
 C1823 C 0.43809 0.07099 0.38081
 C1824 C 0.44094 0.05344 0.36769
 C1825 C 0.50236 0.03123 0.41074
 C1826 C 0.51416 0.03412 0.42550
 C1827 C 0.44635 0.01739 0.34035
 C1828 C 0.43458 0.01450 0.32558
 H1829 H 0.47041 -0.01484 0.33574
 H1830 H 0.49932 -0.03940 0.34311
 H1831 H 0.52341 -0.03345 0.37339
 H1832 H 0.51873 -0.00290 0.39647
 H1833 H 0.47828 0.06344 0.41538
 H1834 H 0.44936 0.08800 0.40800
 H1835 H 0.42529 0.08206 0.37771
 H1836 H 0.42998 0.05152 0.35463
   
