data_POSCAR
  _audit_creation_date              2014-09-24
  _audit_creation_method            'ToBaCCo'
  _symmetry_space_group_name_H-M    'P1'
  _symmetry_Int_Tables_number       1
  _symmetry_cell_setting            triclinic
  loop_
  _symmetry_equiv_pos_as_xyz
 x,y,z
_cell_length_a 31.3070
_cell_length_b 31.9573
_cell_length_c 29.3333
_cell_angle_alpha 90.000200
_cell_angle_beta 89.990700
_cell_angle_gamma 91.609900
loop_
  _atom_site_label
  _atom_site_type_symbol
  _atom_site_fract_x
  _atom_site_fract_y
  _atom_site_fract_z
Zr1 Zr -0.06963 0.01945 0.01632
 O2 O -0.13211 -0.00197 -0.00155
 O3 O -0.08451 0.06749 0.06250
 O4 O -0.10343 -0.01077 0.07000
 O5 O -0.05491 0.08263 -0.08007
 O6 O -0.05878 -0.06127 0.09470
 O7 O -0.10298 0.06054 -0.02593
 O8 O -0.01888 0.09130 0.08641
 O9 O -0.02354 0.01168 0.06703
 O10 O -0.02165 0.06465 0.00276
 O11 O -0.05001 -0.04257 0.00907
 O12 O -0.04868 0.00859 -0.05108
 Zr13 Zr 0.06983 -0.01685 -0.02017
 Zr14 Zr -0.00175 -0.04935 0.05777
 Zr15 Zr 0.00185 0.05211 -0.06223
 Zr16 Zr 0.02541 0.05530 0.05143
 O17 O -0.00970 0.04487 -0.13291
 O18 O 0.03679 0.04687 0.12207
 O19 O 0.05071 0.04574 -0.01388
 O20 O 0.04812 -0.00524 0.04650
 O21 O 0.02186 -0.06238 -0.00742
 O22 O 0.02349 -0.00871 -0.07048
 C23 C -0.05982 0.09217 0.08591
 C24 C -0.09256 0.08106 -0.06222
 C25 C -0.09486 -0.04285 0.09465
 O26 O 0.01274 -0.04250 0.12784
 O27 O 0.05301 -0.08391 0.07302
 O28 O 0.10182 -0.06119 0.01996
 C29 C 0.09062 -0.08304 0.05522
 O30 O -0.09140 -0.05907 -0.07258
 Zr31 Zr -0.02546 -0.05205 -0.05608
 O32 O 0.08437 -0.06551 -0.06555
 O33 O -0.01808 -0.11400 0.05524
 O34 O -0.04440 -0.11487 -0.04130
 O35 O -0.03316 -0.04670 -0.12767
 O36 O 0.01859 -0.09187 -0.08574
 C37 C 0.05952 -0.09215 -0.08610
 O38 O 0.13206 0.00333 -0.00001
 O39 O 0.01511 0.11743 -0.06108
 O40 O 0.10476 0.01506 -0.07202
 O41 O 0.06038 0.06629 -0.09562
 O42 O 0.03995 0.11925 0.03741
 O43 O 0.09150 0.06876 0.06254
 C44 C 0.09644 0.04777 -0.09587
 H45 H -0.03215 0.09357 0.00354
 H46 H 0.07116 -0.00771 0.06933
 H47 H 0.03493 -0.01287 -0.10158
 H48 H -0.07415 -0.06280 0.01353
 H49 H 0.03985 0.07502 0.13606
 H50 H 0.00742 -0.07029 0.14207
 H51 H -0.01493 -0.12500 0.08662
 H52 H -0.04758 -0.12992 -0.07071
 H53 H 0.04306 0.13401 0.06699
 H54 H 0.01121 0.12770 -0.09264
 H55 H -0.00410 0.07265 -0.14702
 H56 H -0.03698 -0.07543 -0.14001
 H57 H 0.09493 0.08901 0.08792
 H58 H 0.15275 -0.01403 -0.01665
 H59 H -0.15271 0.01569 0.01487
 H60 H -0.09576 -0.08301 -0.09366
 Zr61 Zr 0.56968 0.48298 0.48034
 O62 O 0.63189 0.50323 0.50048
 O63 O 0.58438 0.43409 0.43529
 O64 O 0.60161 0.43903 0.52110
 O65 O 0.56041 0.56575 0.40425
 O66 O 0.55265 0.41660 0.57418
 O67 O 0.60476 0.51471 0.42843
 O68 O 0.51865 0.40755 0.41514
 O69 O 0.52171 0.43750 0.49336
 O70 O 0.52345 0.49075 0.42982
 O71 O 0.54775 0.49505 0.54683
 O72 O 0.55049 0.54560 0.48600
 Zr73 Zr 0.43008 0.51945 0.51607
 Zr74 Zr 0.49787 0.45099 0.55838
 Zr75 Zr 0.50174 0.55162 0.43744
 Zr76 Zr 0.47450 0.44745 0.44446
 O77 O 0.51481 0.61697 0.43808
 O78 O 0.45567 0.38472 0.45978
 O79 O 0.45123 0.50811 0.44884
 O80 O 0.44974 0.45739 0.50946
 O81 O 0.47607 0.51209 0.56696
 O82 O 0.47806 0.56459 0.50226
 C83 C 0.55959 0.40735 0.41482
 C84 C 0.59652 0.54730 0.40431
 C85 C 0.59035 0.41746 0.55656
 O86 O 0.48157 0.38632 0.55635
 O87 O 0.44069 0.43943 0.59530
 O88 O 0.39615 0.48978 0.57002
 C89 C 0.40464 0.45792 0.59504
 O90 O 0.59111 0.56919 0.56219
 Zr91 Zr 0.52503 0.55561 0.55112
 O92 O 0.41511 0.56781 0.56179
 O93 O 0.51218 0.45836 0.62843
 O94 O 0.53636 0.54776 0.62186
 O95 O 0.53950 0.61947 0.53659
 O96 O 0.48068 0.59176 0.58574
 C97 C 0.43976 0.59260 0.58512
 O98 O 0.36767 0.49779 0.49823
 O99 O 0.49051 0.54382 0.36678
 O100 O 0.39676 0.56012 0.47328
 O101 O 0.44492 0.58187 0.41907
 O102 O 0.46688 0.45228 0.37282
 O103 O 0.40861 0.44022 0.42786
 C104 C 0.40721 0.58034 0.43679
 H105 H 0.53498 0.48639 0.39880
 H106 H 0.42559 0.43718 0.51405
 H107 H 0.46752 0.59351 0.50276
 H108 H 0.57073 0.49279 0.56977
 H109 H 0.45260 0.36944 0.43050
 H110 H 0.48459 0.37557 0.58785
 H111 H 0.50679 0.43068 0.64290
 H112 H 0.53942 0.57602 0.63558
 H113 H 0.46307 0.42346 0.36072
 H114 H 0.49609 0.57151 0.35245
 H115 H 0.51099 0.62700 0.40642
 H116 H 0.54257 0.63444 0.56606
 H117 H 0.40431 0.41604 0.40709
 H118 H 0.34700 0.51557 0.51438
 H119 H 0.65260 0.48575 0.48400
 H120 H 0.59451 0.58966 0.58736
 Zr121 Zr 0.57021 -0.01882 0.51611
 O122 O 0.63251 0.00255 0.49752
 O123 O 0.58556 -0.06634 0.56287
 O124 O 0.60420 0.01208 0.56924
 O125 O 0.55501 -0.08292 0.42033
 O126 O 0.55951 0.06261 0.59383
 O127 O 0.60335 -0.06032 0.47394
 O128 O 0.52008 -0.08968 0.58775
 O129 O 0.52437 -0.01059 0.56704
 O130 O 0.52222 -0.06423 0.50346
 O131 O 0.55029 0.04309 0.50834
 O132 O 0.54873 -0.00859 0.44877
 Zr133 Zr 0.43028 0.01696 0.48031
 Zr134 Zr 0.50232 0.05031 0.55734
 Zr135 Zr 0.49826 -0.05236 0.43848
 Zr136 Zr 0.47543 -0.05444 0.55234
 O137 O 0.50926 -0.04574 0.36763
 O138 O 0.46419 -0.04533 0.62291
 O139 O 0.44968 -0.04553 0.48713
 O140 O 0.45248 0.00600 0.54692
 O141 O 0.47824 0.06270 0.49217
 O142 O 0.47634 0.00834 0.42976
 C143 C 0.56102 -0.09059 0.58701
 C144 C 0.59279 -0.08119 0.43788
 C145 C 0.59563 0.04427 0.59375
 O146 O 0.48828 0.04403 0.62758
 O147 O 0.44758 0.08492 0.57283
 O148 O 0.39855 0.06182 0.52019
 C149 C 0.40988 0.08401 0.55521
 O150 O 0.59107 0.05922 0.42626
 Zr151 Zr 0.52526 0.05195 0.44327
 O152 O 0.41521 0.06503 0.43430
 O153 O 0.51856 0.11494 0.55391
 O154 O 0.54395 0.11499 0.45726
 O155 O 0.53266 0.04582 0.37172
 O156 O 0.48082 0.09121 0.41324
 C157 C 0.43987 0.09143 0.41312
 O158 O 0.36824 -0.00308 0.50124
 O159 O 0.48516 -0.11768 0.44058
 O160 O 0.39513 -0.01573 0.42917
 O161 O 0.43952 -0.06703 0.40570
 O162 O 0.46120 -0.11861 0.53925
 O163 O 0.40943 -0.06810 0.56387
 C164 C 0.40339 -0.04862 0.40555
 H165 H 0.53282 -0.09311 0.50456
 H166 H 0.42956 0.00866 0.56988
 H167 H 0.46470 0.01216 0.39870
 H168 H 0.57441 0.06343 0.51242
 H169 H 0.46128 -0.07334 0.63726
 H170 H 0.49367 0.07193 0.64151
 H171 H 0.51559 0.12626 0.58519
 H172 H 0.54678 0.12980 0.42769
 H173 H 0.45838 -0.13305 0.56905
 H174 H 0.48886 -0.12828 0.40912
 H175 H 0.50360 -0.07366 0.35386
 H176 H 0.53625 0.07442 0.35896
 H177 H 0.40619 -0.08816 0.58945
 H178 H 0.34742 0.01408 0.48453
 H179 H 0.65324 -0.01492 0.51401
 H180 H 0.59515 0.08299 0.40490
 Zr181 Zr -0.06945 0.51766 -0.02339
 O182 O -0.13189 0.49823 -0.00314
 O183 O -0.08393 0.56552 -0.07003
 O184 O -0.10121 0.56232 0.01691
 O185 O -0.06143 0.43220 -0.09598
 O186 O -0.05220 0.58497 0.06978
 O187 O -0.10448 0.48524 -0.07477
 O188 O -0.01814 0.59170 -0.08996
 O189 O -0.02132 0.56312 -0.01121
 O190 O -0.02332 0.50864 -0.07376
 O191 O -0.04758 0.50630 0.04328
 O192 O -0.05052 0.45500 -0.01645
 Zr193 Zr 0.06997 0.48084 0.01298
 Zr194 Zr 0.00245 0.55033 0.05405
 Zr195 Zr -0.00189 0.44774 -0.06497
 Zr196 Zr 0.02580 0.55198 -0.05990
 O197 O -0.01416 0.38226 -0.06348
 O198 O 0.04506 0.61484 -0.04582
 O199 O 0.04882 0.49123 -0.05445
 O200 O 0.05053 0.54290 0.00525
 O201 O 0.02407 0.48927 0.06376
 O202 O 0.02179 0.43570 0.00007
 C203 C -0.05912 0.59191 -0.09116
 C204 C -0.09727 0.45125 -0.09698
 C205 C -0.08993 0.58410 0.05227
 O206 O 0.01896 0.61490 0.05070
 O207 O 0.05963 0.56220 0.09075
 O208 O 0.10402 0.51134 0.06632
 C209 C 0.09560 0.54358 0.09082
 O210 O -0.09112 0.43249 0.06045
 Zr211 Zr -0.02506 0.44570 0.04879
 O212 O 0.08490 0.43318 0.05972
 O213 O -0.01170 0.54406 0.12427
 O214 O -0.03624 0.45471 0.11939
 O215 O -0.03992 0.38176 0.03507
 O216 O 0.01923 0.40985 0.08405
 C217 C 0.06017 0.40880 0.08350
 O218 O 0.13238 0.50194 -0.00557
 O219 O 0.00818 0.45454 -0.13594
 O220 O 0.10288 0.43893 -0.02877
 O221 O 0.05507 0.41732 -0.08324
 O222 O 0.03332 0.54597 -0.13145
 O223 O 0.09172 0.55871 -0.07663
 C224 C 0.09273 0.41829 -0.06516
 H225 H -0.03488 0.51250 -0.10485
 H226 H 0.07477 0.56307 0.00946
 H227 H 0.03222 0.40676 0.00113
 H228 H -0.07054 0.50896 0.06618
 H229 H 0.04814 0.62965 -0.07537
 H230 H 0.01605 0.62618 0.08200
 H231 H -0.00608 0.57189 0.13828
 H232 H -0.03931 0.42668 0.13366
 H233 H 0.03722 0.57457 -0.14412
 H234 H 0.00227 0.42666 -0.14967
 H235 H -0.01086 0.37199 -0.09513
 H236 H -0.04269 0.36706 0.06472
 H237 H 0.09608 0.58239 -0.09805
 H238 H 0.15300 0.48439 0.01094
 H239 H -0.15237 0.51559 -0.02010
 H240 H -0.09445 0.41219 0.08579
 Zr241 Zr 0.07483 0.49649 0.49808
 O242 O 0.11938 0.45801 0.53090
 O243 O 0.11373 0.53016 0.45311
 O244 O 0.10348 0.45832 0.44926
 O245 O 0.07249 0.57399 0.58063
 O246 O 0.04786 0.42351 0.41416
 O247 O 0.11664 0.53239 0.53967
 O248 O 0.06615 0.56919 0.41366
 O249 O 0.03665 0.49856 0.43970
 O250 O 0.04542 0.55444 0.49912
 O251 O 0.03353 0.44379 0.50214
 O252 O 0.04212 0.49829 0.56067
 Zr253 Zr -0.07166 0.50697 0.50675
 Zr254 Zr -0.00694 0.44803 0.44548
 Zr255 Zr 0.01013 0.55541 0.55928
 Zr256 Zr 0.00574 0.55534 0.44253
 O257 O 0.01431 0.55103 0.63109
 O258 O 0.00052 0.54497 0.37132
 O259 O -0.03061 0.56022 0.50256
 O260 O -0.03852 0.50513 0.44471
 O261 O -0.04298 0.44854 0.50549
 O262 O -0.03261 0.50452 0.56453
 C263 C 0.10392 0.55631 0.42208
 C264 C 0.10977 0.56134 0.56909
 C265 C 0.08789 0.43267 0.41943
 O266 O -0.01404 0.45281 0.37396
 O267 O -0.06908 0.42629 0.42756
 O268 O -0.11343 0.46883 0.46699
 C269 C -0.10641 0.43884 0.43876
 O270 O 0.05321 0.42153 0.59025
 Zr271 Zr -0.00248 0.44771 0.56185
 O272 O -0.11048 0.47244 0.55080
 O273 O -0.00941 0.38207 0.45188
 O274 O -0.00923 0.38232 0.55075
 O275 O -0.00243 0.45355 0.63388
 O276 O -0.06364 0.42946 0.58606
 C277 C -0.10120 0.44342 0.57878
 O278 O -0.11629 0.54442 0.47265
 O279 O 0.01554 0.62115 0.55169
 O280 O -0.10054 0.54715 0.55368
 O281 O -0.04481 0.58268 0.58794
 O282 O 0.01711 0.62084 0.44861
 O283 O -0.04887 0.58766 0.42021
 C284 C -0.08494 0.57347 0.58291
 H285 H 0.06585 0.57861 0.49785
 H286 H -0.05831 0.50687 0.41849
 H287 H -0.04815 0.50575 0.59384
 H288 H 0.04966 0.41758 0.50179
 H289 H 0.01079 0.57093 0.35587
 H290 H -0.01659 0.42382 0.36208
 H291 H -0.01364 0.37061 0.42077
 H292 H -0.01785 0.36940 0.58018
 H293 H 0.02407 0.63170 0.41776
 H294 H 0.01988 0.63284 0.58269
 H295 H 0.01704 0.58008 0.64279
 H296 H -0.01111 0.42588 0.64665
 H297 H -0.04117 0.60530 0.39354
 H298 H -0.14491 0.53665 0.48502
 H299 H 0.14792 0.46537 0.51803
 H300 H 0.04503 0.39641 0.60836
 Zr301 Zr 0.42843 0.00692 0.00694
 O302 O 0.38380 0.04434 -0.02718
 O303 O 0.38957 -0.02777 0.05085
 O304 O 0.38679 -0.03121 -0.03297
 O305 O 0.45514 0.08271 0.08814
 O306 O 0.43123 -0.07365 -0.07242
 O307 O 0.39947 0.04713 0.05385
 O308 O 0.43637 -0.07081 0.08607
 O309 O 0.45718 -0.05149 0.00563
 O310 O 0.46735 0.00443 0.06481
 O311 O 0.46171 0.00514 -0.05504
 O312 O 0.46948 0.06017 0.00287
 Zr313 Zr 0.57493 -0.00348 -0.00148
 Zr314 Zr 0.49334 -0.05195 -0.05431
 Zr315 Zr 0.51010 0.05534 0.05968
 Zr316 Zr 0.49755 -0.05235 0.06211
 O317 O 0.51561 0.12109 0.05225
 O318 O 0.49096 -0.11776 0.05096
 O319 O 0.54212 -0.00176 0.06106
 O320 O 0.53366 -0.05621 0.00246
 O321 O 0.53692 -0.00138 -0.05999
 O322 O 0.54548 0.05444 -0.00041
 C323 C 0.39880 -0.05690 0.07872
 C324 C 0.41502 0.07353 0.08304
 C325 C 0.39386 -0.06114 -0.06125
 O326 O 0.49078 -0.11791 -0.04798
 O327 O 0.54829 -0.07656 -0.08538
 O328 O 0.60375 -0.04167 -0.05011
 C329 C 0.58832 -0.06741 -0.07990
 O330 O 0.45132 0.08754 -0.07968
 Zr331 Zr 0.50594 0.05538 -0.05711
 O332 O 0.61390 0.03041 -0.04624
 O333 O 0.48647 -0.04709 -0.12585
 O334 O 0.50111 0.04498 -0.12833
 O335 O 0.51697 0.12091 -0.05088
 O336 O 0.56644 0.06966 -0.08559
 C337 C 0.60421 0.05682 -0.07706
 O338 O 0.61945 -0.04196 0.03141
 O339 O 0.51407 0.05085 0.13150
 O340 O 0.61666 0.03228 0.04021
 O341 O 0.57246 0.07384 0.08116
 O342 O 0.49737 -0.04654 0.13413
 O343 O 0.55322 -0.07846 0.09063
 C344 C 0.60975 0.06118 0.06965
 H345 H 0.45173 0.00564 0.09407
 H346 H 0.54981 -0.08241 0.00215
 H347 H 0.56588 0.07864 -0.00157
 H348 H 0.44198 0.00690 -0.08130
 H349 H 0.48235 -0.13071 0.08037
 H350 H 0.48666 -0.12934 -0.07913
 H351 H 0.48398 -0.07607 -0.13776
 H352 H 0.51139 0.07096 -0.14374
 H353 H 0.48871 -0.07423 0.14687
 H354 H 0.51685 0.07987 0.14324
 H355 H 0.51994 0.13272 0.08327
 H356 H 0.52395 0.13187 -0.08168
 H357 H 0.54503 -0.10355 0.10878
 H358 H 0.64802 -0.03458 0.01864
 H359 H 0.35517 0.03654 -0.01485
 H360 H 0.45905 0.10510 -0.10641
 Zr361 Zr 0.42492 0.50389 -0.00128
 O362 O 0.38075 0.54291 0.03137
 O363 O 0.38565 0.47011 -0.04573
 O364 O 0.39642 0.54188 -0.05043
 O365 O 0.42690 0.42671 0.08159
 O366 O 0.45222 0.57611 -0.08587
 O367 O 0.38295 0.46846 0.04056
 O368 O 0.43283 0.43048 -0.08505
 O369 O 0.46293 0.50119 -0.05975
 O370 O 0.45397 0.44575 0.00011
 O371 O 0.46656 0.55634 0.00234
 O372 O 0.45772 0.50220 0.06127
 Zr373 Zr 0.57135 0.49242 0.00722
 Zr374 Zr 0.50688 0.55146 -0.05437
 Zr375 Zr 0.48934 0.44487 0.06020
 Zr376 Zr 0.49347 0.44422 -0.05658
 O377 O 0.48520 0.44979 0.13198
 O378 O 0.49849 0.45425 -0.12785
 O379 O 0.52991 0.43944 0.00342
 O380 O 0.53809 0.49414 -0.05478
 O381 O 0.54301 0.55103 0.00556
 O382 O 0.53244 0.49552 0.06506
 C383 C 0.39515 0.44362 -0.07653
 C384 C 0.38970 0.43950 0.06999
 C385 C 0.41213 0.56722 -0.08051
 O386 O 0.51397 0.54621 -0.12586
 O387 O 0.56909 0.57278 -0.07240
 O388 O 0.61326 0.53005 -0.03298
 C389 C 0.60636 0.56003 -0.06126
 O390 O 0.44717 0.57907 0.09046
 Zr391 Zr 0.50264 0.55250 0.06201
 O392 O 0.61046 0.52719 0.05076
 O393 O 0.50972 0.61745 -0.04845
 O394 O 0.50962 0.61782 0.05047
 O395 O 0.50287 0.54708 0.13407
 O396 O 0.56397 0.57073 0.08573
 C397 C 0.60145 0.55658 0.07838
 O398 O 0.61567 0.45443 -0.02661
 O399 O 0.48354 0.37910 0.05314
 O400 O 0.60001 0.45234 0.05455
 O401 O 0.54406 0.41733 0.08900
 O402 O 0.48178 0.37881 -0.05003
 O403 O 0.54778 0.41146 -0.07896
 C404 C 0.58425 0.42622 0.08394
 H405 H 0.43341 0.42167 -0.00097
 H406 H 0.55781 0.49212 -0.08103
 H407 H 0.54804 0.49439 0.09433
 H408 H 0.45060 0.58266 0.00183
 H409 H 0.48793 0.42830 -0.14312
 H410 H 0.51667 0.57512 -0.13794
 H411 H 0.51399 0.62870 -0.07965
 H412 H 0.51834 0.63087 0.07979
 H413 H 0.47464 0.36781 -0.08077
 H414 H 0.47908 0.36764 0.08422
 H415 H 0.48225 0.42084 0.14391
 H416 H 0.51175 0.57479 0.14661
 H417 H 0.53988 0.39379 -0.10554
 H418 H 0.64435 0.46212 -0.01434
 H419 H 0.35214 0.53567 0.01862
 H420 H 0.45552 0.60422 0.10843
 Zr421 Zr 0.07171 -0.00705 0.50705
 O422 O 0.11635 -0.04468 0.47322
 O423 O 0.11059 0.02805 0.55050
 O424 O 0.11328 0.03085 0.46673
 O425 O 0.04499 -0.08241 0.58873
 O426 O 0.06872 0.07311 0.42720
 O427 O 0.10068 -0.04694 0.55433
 O428 O 0.06379 0.07126 0.58550
 O429 O 0.04290 0.05133 0.50537
 O430 O 0.03282 -0.00421 0.56494
 O431 O 0.03836 -0.00565 0.44509
 O432 O 0.03066 -0.06032 0.50337
 Zr433 Zr -0.07490 0.00326 0.49867
 Zr434 Zr 0.00669 0.05142 0.44548
 Zr435 Zr -0.00994 -0.05515 0.56016
 Zr436 Zr 0.00257 0.05252 0.56187
 O437 O -0.01543 -0.12095 0.55319
 O438 O 0.00900 0.11788 0.55030
 O439 O -0.04201 0.00192 0.56118
 O440 O -0.03362 0.05601 0.50223
 O441 O -0.03688 0.00082 0.44018
 O442 O -0.04538 -0.05463 0.50012
 C443 C 0.10138 0.05740 0.57811
 C444 C 0.08511 -0.07325 0.58364
 C445 C 0.10611 0.06067 0.43832
 O446 O 0.00919 0.11742 0.45139
 O447 O -0.04818 0.07584 0.41423
 O448 O -0.10371 0.04112 0.44959
 C449 C -0.08821 0.06670 0.41964
 O450 O 0.04875 -0.08822 0.42105
 Zr451 Zr -0.00585 -0.05590 0.44341
 O452 O -0.11385 -0.03094 0.45421
 O453 O 0.01355 0.04613 0.37398
 O454 O -0.00098 -0.04594 0.37211
 O455 O -0.01695 -0.12139 0.45012
 O456 O -0.06634 -0.07024 0.41498
 C457 C -0.10412 -0.05740 0.42347
 O458 O -0.11946 0.04192 0.53123
 O459 O -0.01385 -0.05018 0.63195
 O460 O -0.11653 -0.03236 0.54075
 O461 O -0.07220 -0.07365 0.58185
 O462 O 0.00289 0.04707 0.63392
 O463 O -0.05309 0.07874 0.59033
 C464 C -0.10952 -0.06112 0.57034
 H465 H 0.04849 -0.00523 0.59417
 H466 H -0.04978 0.08220 0.50174
 H467 H -0.06576 -0.07885 0.49913
 H468 H 0.05807 -0.00755 0.41882
 H469 H 0.01764 0.13101 0.57961
 H470 H 0.01331 0.12868 0.42017
 H471 H 0.01606 0.07504 0.36186
 H472 H -0.01126 -0.07202 0.35689
 H473 H 0.01161 0.07482 0.64647
 H474 H -0.01658 -0.07913 0.64393
 H475 H -0.01970 -0.13241 0.58430
 H476 H -0.02398 -0.13251 0.41940
 H477 H -0.04488 0.10386 0.60842
 H478 H -0.14801 0.03439 0.51852
 H479 H 0.14497 -0.03676 0.48549
 H480 H 0.04099 -0.10600 0.39451
 Zr481 Zr 0.76828 0.18125 0.23585
 O482 O 0.74342 0.12092 0.25314
 O483 O 0.81852 0.16469 0.19221
 O484 O 0.73936 0.14893 0.18074
 O485 O 0.82958 0.19416 0.33447
 O486 O 0.68999 0.19367 0.15352
 O487 O 0.80722 0.14743 0.28006
 O488 O 0.84590 0.22791 0.16884
 O489 O 0.76368 0.22618 0.18441
 O490 O 0.81534 0.22689 0.25093
 O491 O 0.70539 0.20220 0.24010
 O492 O 0.75532 0.20245 0.30254
 Zr493 Zr 0.73417 0.31889 0.26942
 Zr494 Zr 0.70180 0.24936 0.19078
 Zr495 Zr 0.80083 0.25068 0.31510
 Zr496 Zr 0.80906 0.27285 0.20142
 O497 O 0.79051 0.24010 0.38550
 O498 O 0.80348 0.28337 0.13031
 O499 O 0.79761 0.29836 0.26605
 O500 O 0.74783 0.29695 0.20349
 O501 O 0.68678 0.27327 0.25513
 O502 O 0.73918 0.27367 0.32049
 C503 C 0.84555 0.18774 0.16977
 C504 C 0.82722 0.15708 0.31708
 C505 C 0.70797 0.15791 0.15446
 O506 O 0.71156 0.26349 0.12105
 O507 O 0.66823 0.30376 0.17428
 O508 O 0.69133 0.35130 0.22748
 C509 C 0.66964 0.34079 0.19166
 O510 O 0.68443 0.16269 0.32143
 Zr511 Zr 0.69402 0.22698 0.30461
 O512 O 0.68353 0.33506 0.31263
 O513 O 0.63549 0.23464 0.19035
 O514 O 0.63009 0.20994 0.28724
 O515 O 0.69628 0.22000 0.37647
 O516 O 0.65357 0.27169 0.33174
 C517 C 0.65458 0.31185 0.33200
 O518 O 0.75753 0.37903 0.24950
 O519 O 0.86780 0.26173 0.31686
 O520 O 0.76547 0.35246 0.32236
 O521 O 0.81570 0.30797 0.34839
 O522 O 0.87406 0.28561 0.21809
 O523 O 0.82507 0.33712 0.19005
 C524 C 0.79773 0.34379 0.34766
 H525 H 0.84450 0.21570 0.25158
 H526 H 0.74672 0.31948 0.18041
 H527 H 0.73410 0.28523 0.35127
 H528 H 0.68431 0.17906 0.23480
 H529 H 0.83278 0.28529 0.11755
 H530 H 0.68365 0.25879 0.10569
 H531 H 0.62557 0.23800 0.15851
 H532 H 0.61354 0.20763 0.31598
 H533 H 0.89031 0.28783 0.18915
 H534 H 0.87689 0.25780 0.34889
 H535 H 0.81848 0.24484 0.40073
 H536 H 0.66638 0.21720 0.38743
 H537 H 0.84662 0.33964 0.16542
 H538 H 0.73993 0.40004 0.26515
 H539 H 0.76131 0.09996 0.23777
 H540 H 0.65913 0.15925 0.34150
 Zr541 Zr 0.73304 0.81832 0.73755
 O542 O 0.75899 0.87793 0.75598
 O543 O 0.68289 0.83620 0.69434
 O544 O 0.76188 0.85101 0.68267
 O545 O 0.67161 0.80495 0.83597
 O546 O 0.81049 0.80603 0.65438
 O547 O 0.69433 0.85199 0.78202
 O548 O 0.65454 0.77358 0.67033
 O549 O 0.73678 0.77401 0.68540
 O550 O 0.68549 0.77307 0.75226
 O551 O 0.79566 0.79653 0.74115
 O552 O 0.74611 0.79612 0.80388
 Zr553 Zr 0.76530 0.67984 0.76887
 Zr554 Zr 0.79834 0.75002 0.69105
 Zr555 Zr 0.69998 0.74837 0.81603
 Zr556 Zr 0.69088 0.72769 0.70200
 O557 O 0.71091 0.75841 0.88641
 O558 O 0.69601 0.71797 0.63071
 O559 O 0.70218 0.70124 0.76624
 O560 O 0.75177 0.70281 0.70332
 O561 O 0.81325 0.72500 0.75489
 O562 O 0.76131 0.72443 0.82070
 C563 C 0.65542 0.81375 0.67178
 C564 C 0.67415 0.84213 0.81885
 C565 C 0.79288 0.84197 0.65590
 O566 O 0.78823 0.73658 0.62123
 O567 O 0.83135 0.69546 0.67394
 O568 O 0.80768 0.64748 0.72644
 C569 C 0.82954 0.65825 0.69084
 O570 O 0.81730 0.83447 0.82361
 Zr571 Zr 0.80710 0.77063 0.80520
 O572 O 0.81579 0.66209 0.81140
 O573 O 0.86476 0.76422 0.69039
 O574 O 0.87096 0.78793 0.78777
 O575 O 0.80580 0.77574 0.87728
 O576 O 0.84781 0.72470 0.82986
 C577 C 0.84593 0.68450 0.82973
 O578 O 0.74068 0.62048 0.74788
 O579 O 0.63295 0.73783 0.81823
 O580 O 0.73403 0.64601 0.82159
 O581 O 0.68476 0.69091 0.84888
 O582 O 0.62578 0.71559 0.71874
 O583 O 0.67399 0.66374 0.68981
 C584 C 0.70222 0.65485 0.84745
 H585 H 0.65647 0.78457 0.75319
 H586 H 0.75254 0.68054 0.67991
 H587 H 0.76646 0.71234 0.85122
 H588 H 0.81696 0.81951 0.73600
 H589 H 0.66664 0.71662 0.61810
 H590 H 0.81612 0.74119 0.60579
 H591 H 0.87451 0.76101 0.65846
 H592 H 0.88772 0.78936 0.81642
 H593 H 0.60945 0.71389 0.68982
 H594 H 0.62410 0.74153 0.85038
 H595 H 0.68302 0.75378 0.90184
 H596 H 0.83586 0.77765 0.88782
 H597 H 0.65237 0.66178 0.66522
 H598 H 0.75797 0.59888 0.76295
 H599 H 0.74147 0.89945 0.74107
 H600 H 0.84244 0.83723 0.84399
 Zr601 Zr 0.24246 0.32363 0.75239
 O602 O 0.20086 0.36604 0.72105
 O603 O 0.27696 0.36256 0.79636
 O604 O 0.20336 0.35012 0.80293
 O605 O 0.31974 0.32382 0.66738
 O606 O 0.17270 0.29393 0.83967
 O607 O 0.27714 0.36575 0.70969
 O608 O 0.31972 0.31729 0.83384
 O609 O 0.24789 0.28602 0.81036
 O610 O 0.30255 0.29664 0.74899
 O611 O 0.19013 0.28116 0.75001
 O612 O 0.24351 0.29163 0.68963
 Zr613 Zr 0.25822 0.18022 0.74237
 Zr614 Zr 0.19783 0.24149 0.80615
 Zr615 Zr 0.30294 0.26222 0.68868
 Zr616 Zr 0.30679 0.25771 0.80525
 O617 O 0.29578 0.26697 0.61716
 O618 O 0.29843 0.25208 0.87674
 O619 O 0.31117 0.22238 0.74490
 O620 O 0.25716 0.21251 0.80460
 O621 O 0.19765 0.20634 0.74604
 O622 O 0.25239 0.21861 0.68502
 C623 C 0.30509 0.35393 0.82630
 C624 C 0.30641 0.36004 0.67948
 C625 C 0.17957 0.33357 0.83438
 O626 O 0.20528 0.23370 0.87732
 O627 O 0.17786 0.18002 0.82410
 O628 O 0.22169 0.13801 0.78353
 C629 C 0.19139 0.14378 0.81260
 O630 O 0.16361 0.29959 0.66293
 Zr631 Zr 0.19348 0.24612 0.69002
 O632 O 0.22278 0.14126 0.69956
 O633 O 0.13035 0.23751 0.80233
 O634 O 0.12739 0.23693 0.70368
 O635 O 0.19718 0.24679 0.61783
 O636 O 0.17637 0.18563 0.66605
 C637 C 0.19203 0.14923 0.67255
 O638 O 0.29911 0.13774 0.77465
 O639 O 0.37013 0.26921 0.69392
 O640 O 0.29875 0.15360 0.69327
 O641 O 0.33151 0.20959 0.65807
 O642 O 0.37304 0.27113 0.79678
 O643 O 0.34250 0.20552 0.82628
 C644 C 0.32389 0.16990 0.66280
 H645 H 0.32664 0.31735 0.74958
 H646 H 0.26044 0.19314 0.83063
 H647 H 0.25321 0.20362 0.65556
 H648 H 0.16279 0.29596 0.75152
 H649 H 0.32495 0.26314 0.89136
 H650 H 0.17617 0.23028 0.89032
 H651 H 0.11982 0.23268 0.83380
 H652 H 0.11355 0.22806 0.67474
 H653 H 0.38485 0.27837 0.82721
 H654 H 0.38098 0.27407 0.66257
 H655 H 0.32494 0.27047 0.60429
 H656 H 0.16893 0.23712 0.60600
 H657 H 0.36095 0.21368 0.85241
 H658 H 0.29165 0.10955 0.76239
 H659 H 0.20796 0.39413 0.73378
 H660 H 0.13769 0.29063 0.64578
 Zr661 Zr 0.25594 0.67682 0.25058
 O662 O 0.29772 0.63460 0.21918
 O663 O 0.22086 0.63743 0.29355
 O664 O 0.29368 0.64943 0.30127
 O665 O 0.17951 0.67791 0.16503
 O666 O 0.32585 0.70456 0.33843
 O667 O 0.22170 0.63536 0.20699
 O668 O 0.17864 0.68256 0.33195
 O669 O 0.25057 0.71368 0.30911
 O670 O 0.19606 0.70411 0.24732
 O671 O 0.30870 0.71880 0.24921
 O672 O 0.25560 0.70947 0.18829
 Zr673 Zr 0.24149 0.82023 0.24273
 Zr674 Zr 0.30108 0.75780 0.30595
 Zr675 Zr 0.19639 0.73920 0.18752
 Zr676 Zr 0.19191 0.74240 0.30414
 O677 O 0.20380 0.73558 0.11595
 O678 O 0.19974 0.74722 0.37576
 O679 O 0.18819 0.77845 0.24428
 O680 O 0.24195 0.78719 0.30449
 O681 O 0.30184 0.79369 0.24632
 O682 O 0.24729 0.78252 0.18483
 C683 C 0.19296 0.64590 0.32380
 C684 C 0.19275 0.64150 0.17661
 C685 C 0.31788 0.66511 0.33276
 O686 O 0.29328 0.76451 0.37720
 O687 O 0.32138 0.81898 0.32498
 O688 O 0.27809 0.86169 0.28463
 C689 C 0.30816 0.85544 0.31383
 O690 O 0.33558 0.70123 0.16205
 Zr691 Zr 0.30598 0.75460 0.18973
 O692 O 0.27737 0.85954 0.20066
 O693 O 0.36859 0.76147 0.30255
 O694 O 0.37204 0.76316 0.20392
 O695 O 0.30281 0.75490 0.11750
 O696 O 0.32357 0.81527 0.16668
 C697 C 0.30813 0.85169 0.17361
 O698 O 0.20077 0.86262 0.27543
 O699 O 0.12914 0.73239 0.19224
 O700 O 0.20144 0.84769 0.19386
 O701 O 0.16824 0.79237 0.15787
 O702 O 0.12564 0.72941 0.29518
 O703 O 0.15645 0.79464 0.32552
 C704 C 0.17623 0.83192 0.16318
 H705 H 0.17189 0.68348 0.24742
 H706 H 0.23867 0.80628 0.33077
 H707 H 0.24673 0.79789 0.15559
 H708 H 0.33587 0.70372 0.25064
 H709 H 0.17302 0.73619 0.39002
 H710 H 0.32234 0.76752 0.39039
 H711 H 0.37897 0.76574 0.33416
 H712 H 0.38610 0.77234 0.17521
 H713 H 0.11367 0.72186 0.32547
 H714 H 0.11846 0.72799 0.16075
 H715 H 0.17470 0.73232 0.10291
 H716 H 0.33124 0.76441 0.10603
 H717 H 0.13770 0.78633 0.35136
 H718 H 0.20847 0.89090 0.26359
 H719 H 0.29041 0.60639 0.23147
 H720 H 0.36174 0.71019 0.14530
 Zr721 Zr 0.23432 0.81908 0.76931
 O722 O 0.25773 0.87923 0.74947
 O723 O 0.18366 0.83527 0.81245
 O724 O 0.19161 0.85159 0.72735
 O725 O 0.31591 0.80807 0.84821
 O726 O 0.16837 0.80408 0.67419
 O727 O 0.26567 0.85259 0.82227
 O728 O 0.15361 0.77193 0.83149
 O729 O 0.18688 0.77349 0.75504
 O730 O 0.23932 0.77385 0.82035
 O731 O 0.24787 0.79715 0.70334
 O732 O 0.29774 0.79855 0.76588
 Zr733 Zr 0.26830 0.68144 0.73561
 Zr734 Zr 0.20180 0.74957 0.69066
 Zr735 Zr 0.30096 0.75082 0.81487
 Zr736 Zr 0.19413 0.72718 0.80449
 O737 O 0.36793 0.76186 0.81658
 O738 O 0.13019 0.71005 0.78721
 O739 O 0.25542 0.70261 0.80234
 O740 O 0.20542 0.70241 0.73995
 O741 O 0.26366 0.72641 0.68421
 O742 O 0.31538 0.72707 0.75065
 C743 C 0.15464 0.81208 0.83171
 C744 C 0.29795 0.84391 0.84752
 C745 C 0.16994 0.84113 0.69152
 O746 O 0.13547 0.73497 0.69036
 O747 O 0.18988 0.69388 0.65338
 O748 O 0.23926 0.64912 0.68053
 C749 C 0.20786 0.65810 0.65427
 O750 O 0.32510 0.83738 0.69004
 Zr751 Zr 0.30907 0.77308 0.70121
 O752 O 0.31843 0.66495 0.69179
 O753 O 0.21148 0.76365 0.62090
 O754 O 0.30344 0.78381 0.63014
 O755 O 0.37412 0.78567 0.71775
 O756 O 0.34572 0.72820 0.66840
 C757 C 0.34536 0.68804 0.66927
 O758 O 0.24350 0.62111 0.75296
 O759 O 0.29067 0.74016 0.88526
 O760 O 0.30741 0.64764 0.77968
 O761 O 0.32979 0.69433 0.83412
 O762 O 0.19638 0.72030 0.87636
 O763 O 0.18459 0.66290 0.82138
 C764 C 0.32749 0.65728 0.81666
 H765 H 0.23426 0.78541 0.85114
 H766 H 0.18433 0.67927 0.73467
 H767 H 0.34454 0.71588 0.75122
 H768 H 0.24679 0.81968 0.68027
 H769 H 0.11367 0.70775 0.81597
 H770 H 0.12551 0.73835 0.65852
 H771 H 0.18352 0.75903 0.60560
 H772 H 0.33273 0.78579 0.61736
 H773 H 0.16649 0.71755 0.88732
 H774 H 0.31864 0.74489 0.90048
 H775 H 0.37705 0.75794 0.84860
 H776 H 0.39030 0.78799 0.68877
 H777 H 0.15936 0.65946 0.84153
 H778 H 0.26137 0.60016 0.73754
 H779 H 0.24016 0.90025 0.76516
 H780 H 0.34665 0.83995 0.66541
 Zr781 Zr 0.26463 0.18070 0.26794
 O782 O 0.24081 0.12087 0.24752
 O783 O 0.31525 0.16394 0.31095
 O784 O 0.30739 0.14838 0.22591
 O785 O 0.18335 0.19151 0.34719
 O786 O 0.33072 0.19609 0.17299
 O787 O 0.23342 0.14700 0.32082
 O788 O 0.34553 0.22710 0.33032
 O789 O 0.31221 0.22621 0.25388
 O790 O 0.25982 0.22566 0.31928
 O791 O 0.25107 0.20307 0.20213
 O792 O 0.20126 0.20147 0.26467
 Zr793 Zr 0.23108 0.31863 0.23521
 Zr794 Zr 0.29730 0.25055 0.18969
 Zr795 Zr 0.19825 0.24889 0.31403
 Zr796 Zr 0.30518 0.27223 0.30367
 O797 O 0.13127 0.23793 0.31569
 O798 O 0.36915 0.28919 0.28633
 O799 O 0.24396 0.29700 0.30176
 O800 O 0.29389 0.29744 0.23932
 O801 O 0.23553 0.27399 0.18346
 O802 O 0.18382 0.27312 0.25000
 C803 C 0.34439 0.18692 0.33032
 C804 C 0.20129 0.15566 0.34631
 C805 C 0.32917 0.15899 0.19020
 O806 O 0.36364 0.26512 0.18925
 O807 O 0.30924 0.30644 0.15276
 O808 O 0.26003 0.35119 0.18032
 C809 C 0.29136 0.34226 0.15394
 O810 O 0.17361 0.16330 0.18835
 Zr811 Zr 0.18993 0.22743 0.20017
 O812 O 0.18105 0.33579 0.19153
 O813 O 0.28755 0.23672 0.11990
 O814 O 0.19551 0.21718 0.12902
 O815 O 0.12487 0.21493 0.21676
 O816 O 0.15339 0.27281 0.16778
 C817 C 0.15396 0.31300 0.16885
 O818 O 0.25629 0.37868 0.25310
 O819 O 0.20853 0.25921 0.38447
 O820 O 0.19214 0.35231 0.27950
 O821 O 0.16967 0.30540 0.33368
 O822 O 0.30304 0.27874 0.37559
 O823 O 0.31502 0.33637 0.32103
 C824 C 0.17213 0.34254 0.31646
 H825 H 0.26488 0.21393 0.34998
 H826 H 0.31505 0.32054 0.23415
 H827 H 0.15472 0.28442 0.25067
 H828 H 0.25212 0.18065 0.17893
 H829 H 0.38574 0.29119 0.31507
 H830 H 0.37353 0.26184 0.15738
 H831 H 0.31547 0.24145 0.10456
 H832 H 0.16622 0.21553 0.11623
 H833 H 0.33296 0.28126 0.38651
 H834 H 0.18055 0.25447 0.39968
 H835 H 0.12216 0.24176 0.34774
 H836 H 0.10862 0.21303 0.18780
 H837 H 0.34035 0.33958 0.34106
 H838 H 0.23857 0.39988 0.23790
 H839 H 0.25828 0.09962 0.26296
 H840 H 0.15196 0.16103 0.16380
 Zr841 Zr 0.75914 0.67879 0.24224
 O842 O 0.79993 0.63617 0.27445
 O843 O 0.72336 0.63982 0.19977
 O844 O 0.72243 0.63691 0.28371
 O845 O 0.83235 0.70763 0.15747
 O846 O 0.67899 0.67927 0.32437
 O847 O 0.79927 0.65188 0.19282
 O848 O 0.67708 0.68433 0.16629
 O849 O 0.69873 0.70525 0.24615
 O850 O 0.75331 0.71706 0.18479
 O851 O 0.75846 0.71129 0.30438
 O852 O 0.81234 0.72068 0.24437
 Zr853 Zr 0.74426 0.82212 0.25179
 Zr854 Zr 0.69927 0.74062 0.30617
 Zr855 Zr 0.80413 0.76043 0.18802
 Zr856 Zr 0.69454 0.74482 0.18998
 O857 O 0.87136 0.76718 0.19294
 O858 O 0.62849 0.73599 0.20405
 O859 O 0.74483 0.79005 0.18913
 O860 O 0.69160 0.78008 0.24986
 O861 O 0.74968 0.78477 0.30992
 O862 O 0.80422 0.79497 0.24825
 C863 C 0.69257 0.64787 0.17284
 C864 C 0.82445 0.66798 0.16224
 C865 C 0.69223 0.64292 0.31287
 O866 O 0.63177 0.73691 0.30270
 O867 O 0.67435 0.79351 0.33938
 O868 O 0.70630 0.84905 0.30272
 C869 C 0.68213 0.83306 0.33411
 O870 O 0.84395 0.70382 0.32549
 Zr871 Zr 0.80841 0.75618 0.30464
 O872 O 0.77913 0.86114 0.29529
 O873 O 0.70703 0.73313 0.37733
 O874 O 0.80050 0.75058 0.37619
 O875 O 0.87465 0.76946 0.29589
 O876 O 0.82148 0.81579 0.33320
 C877 C 0.80701 0.85247 0.32547
 O878 O 0.70248 0.86453 0.22071
 O879 O 0.79677 0.76495 0.11652
 O880 O 0.77856 0.86407 0.20884
 O881 O 0.82096 0.82203 0.16647
 O882 O 0.69775 0.74518 0.11776
 O883 O 0.66494 0.79840 0.16280
 C884 C 0.80764 0.85830 0.17852
 H885 H 0.75390 0.70199 0.15537
 H886 H 0.66439 0.79509 0.25143
 H887 H 0.82836 0.81563 0.24867
 H888 H 0.76173 0.69196 0.33045
 H889 H 0.61447 0.72708 0.17523
 H890 H 0.62135 0.73232 0.33425
 H891 H 0.67796 0.72996 0.39048
 H892 H 0.82716 0.76156 0.39061
 H893 H 0.66933 0.73573 0.10619
 H894 H 0.82588 0.76845 0.10354
 H895 H 0.88208 0.77204 0.16155
 H896 H 0.88656 0.77674 0.32627
 H897 H 0.63873 0.78957 0.14610
 H898 H 0.70966 0.89264 0.23334
 H899 H 0.79226 0.60801 0.26227
 H900 H 0.86273 0.71196 0.35135
 Zr901 Zr 0.74218 0.32164 0.74438
 O902 O 0.70178 0.36424 0.77721
 O903 O 0.77790 0.36079 0.70198
 O904 O 0.77900 0.36301 0.78627
 O905 O 0.66808 0.29381 0.66025
 O906 O 0.82343 0.32033 0.82519
 O907 O 0.70181 0.34910 0.69579
 O908 O 0.82359 0.31628 0.66755
 O909 O 0.80250 0.29495 0.74735
 O910 O 0.74736 0.28380 0.68649
 O911 O 0.74312 0.28868 0.80618
 O912 O 0.68880 0.27998 0.74653
 Zr913 Zr 0.75632 0.17823 0.75234
 Zr914 Zr 0.80223 0.25918 0.80703
 Zr915 Zr 0.69636 0.24061 0.68973
 Zr916 Zr 0.80601 0.25572 0.69082
 O917 O 0.62916 0.23392 0.69516
 O918 O 0.87221 0.26406 0.70434
 O919 O 0.75550 0.21074 0.68998
 O920 O 0.80921 0.22001 0.75034
 O921 O 0.75159 0.21521 0.81083
 O922 O 0.69648 0.20562 0.74960
 C923 C 0.80838 0.35277 0.67462
 C924 C 0.67627 0.33335 0.66538
 C925 C 0.80973 0.35676 0.81469
 O926 O 0.86972 0.26212 0.80302
 O927 O 0.82674 0.20592 0.83968
 O928 O 0.79419 0.15081 0.80285
 C929 C 0.81853 0.16649 0.83421
 O930 O 0.65791 0.29641 0.82815
 Zr931 Zr 0.69295 0.24401 0.80642
 O932 O 0.72142 0.13896 0.79561
 O933 O 0.79514 0.26656 0.87829
 O934 O 0.70148 0.24879 0.87795
 O935 O 0.62655 0.23130 0.79813
 O936 O 0.67960 0.18419 0.83436
 C937 C 0.69374 0.14748 0.82606
 O938 O 0.79783 0.13586 0.72075
 O939 O 0.70311 0.23690 0.61809
 O940 O 0.72179 0.13677 0.70907
 O941 O 0.67925 0.17926 0.66746
 O942 O 0.80224 0.25597 0.61863
 O943 O 0.83512 0.20219 0.66287
 C944 C 0.69263 0.14286 0.67893
 H945 H 0.74660 0.29913 0.65723
 H946 H 0.83633 0.20483 0.75154
 H947 H 0.67227 0.18504 0.74994
 H948 H 0.74015 0.30781 0.83247
 H949 H 0.88605 0.27316 0.67548
 H950 H 0.88041 0.26652 0.83450
 H951 H 0.82435 0.26937 0.89116
 H952 H 0.67485 0.23789 0.89250
 H953 H 0.83062 0.26533 0.60688
 H954 H 0.67388 0.23362 0.60537
 H955 H 0.61819 0.22946 0.66380
 H956 H 0.61481 0.22385 0.82855
 H957 H 0.86121 0.21102 0.64594
 H958 H 0.79056 0.10768 0.73316
 H959 H 0.70952 0.39248 0.76528
 H960 H 0.63941 0.28820 0.85422
 N961 N 0.18805 0.37742 0.90081
 N962 N 0.16521 0.39976 0.92933
 C963 C 0.12432 0.39745 0.91470
 C964 C 0.12282 0.37237 0.87592
 N965 N 0.16341 0.36088 0.86855
 H966 H 0.09539 0.36363 0.85518
 N967 N 0.30857 0.61014 0.38847
 N968 N 0.33105 0.58798 0.41746
 C969 C 0.37222 0.60084 0.41292
 C970 C 0.37434 0.63201 0.38007
 N971 N 0.33383 0.63666 0.36580
 H972 H 0.40232 0.64885 0.36724
 N973 N 0.78814 0.90755 0.61408
 N974 N 0.81339 0.93441 0.59162
 C975 C 0.85279 0.91835 0.59150
 C976 C 0.85078 0.88038 0.61400
 N977 N 0.80988 0.87477 0.62737
 H978 H 0.87661 0.85947 0.62096
 N979 N 0.71241 0.09239 0.11249
 N980 N 0.68696 0.06555 0.09028
 C981 C 0.64757 0.08165 0.09054
 C982 C 0.64979 0.11962 0.11299
 N983 N 0.69082 0.12519 0.12595
 H984 H 0.62404 0.14055 0.12019
 N985 N 0.82858 0.08490 0.34081
 N986 N 0.84950 0.06024 0.36866
 C987 C 0.88111 0.08385 0.38751
 C988 C 0.87897 0.12412 0.37049
 N989 N 0.84558 0.12327 0.34145
 H990 H 0.89907 0.15119 0.37869
 N991 N 0.30961 0.43415 0.65868
 N992 N 0.33519 0.46129 0.63694
 C993 C 0.36980 0.44022 0.62362
 C994 C 0.36426 0.39901 0.63733
 N995 N 0.32627 0.39651 0.65894
 H996 H 0.38532 0.37327 0.63137
 N997 N 0.67250 0.91425 0.84259
 N998 N 0.65109 0.93897 0.86990
 C999 C 0.61920 0.91538 0.88829
 C1000 C 0.62173 0.87502 0.87159
 N1001 N 0.65560 0.87584 0.84319
 H1002 H 0.60156 0.84794 0.87957
 N1003 N 0.19030 0.56774 0.15471
 N1004 N 0.16505 0.54058 0.13261
 C1005 C 0.13037 0.56149 0.11929
 C1006 C 0.13548 0.60265 0.13340
 N1007 N 0.17333 0.60524 0.15523
 H1008 H 0.11416 0.62823 0.12774
 N1009 N 0.30397 0.92017 0.13950
 N1010 N 0.32708 0.94534 0.11293
 C1011 C 0.36383 0.92561 0.10508
 C1012 C 0.36297 0.88792 0.12718
 N1013 N 0.32511 0.88581 0.14818
 H1014 H 0.38717 0.86436 0.12787
 N1015 N 0.58215 0.31230 0.35940
 N1016 N 0.55581 0.33705 0.38094
 C1017 C 0.57806 0.37276 0.39006
 C1018 C 0.61897 0.36950 0.37320
 N1019 N 0.61997 0.33120 0.35432
 H1020 H 0.64521 0.39225 0.37470
 N1021 N 0.92109 0.67833 0.84417
 N1022 N 0.94785 0.65333 0.86477
 C1023 C 0.92400 0.62220 0.88394
 C1024 C 0.88145 0.62859 0.87399
 N1025 N 0.88135 0.66402 0.84917
 H1026 H 0.85359 0.60989 0.88389
 N1027 N 0.19661 0.08108 0.63779
 N1028 N 0.17347 0.05578 0.61142
 C1029 C 0.13646 0.07521 0.60403
 C1030 C 0.13722 0.11288 0.62618
 N1031 N 0.17527 0.11526 0.64675
 H1032 H 0.11277 0.13618 0.62731
 N1033 N 0.17096 0.41461 0.34047
 N1034 N 0.15013 0.43921 0.36845
 C1035 C 0.11848 0.41558 0.38724
 C1036 C 0.12051 0.37537 0.37005
 N1037 N 0.15387 0.37628 0.34098
 H1038 H 0.10036 0.34831 0.37816
 N1039 N 0.32949 0.58498 0.83985
 N1040 N 0.35043 0.56039 0.86776
 C1041 C 0.38163 0.58422 0.88707
 C1042 C 0.37921 0.62454 0.87026
 N1043 N 0.34607 0.62350 0.84089
 H1044 H 0.39892 0.65177 0.87888
 N1045 N 0.69044 0.06913 0.65711
 N1046 N 0.66526 0.04179 0.63519
 C1047 C 0.63038 0.06248 0.62202
 C1048 C 0.63531 0.10369 0.63603
 N1049 N 0.67325 0.10653 0.65767
 H1050 H 0.61382 0.12914 0.63044
 N1051 N 0.81019 0.93232 0.15775
 N1052 N 0.83558 0.95977 0.13624
 C1053 C 0.87039 0.93903 0.12293
 C1054 C 0.86518 0.89771 0.13636
 N1055 N 0.82717 0.89482 0.15783
 H1056 H 0.88652 0.87218 0.13041
 N1057 N 0.80884 0.11202 0.89042
 N1058 N 0.83124 0.08968 0.91930
 C1059 C 0.87252 0.10197 0.91431
 C1060 C 0.87482 0.13298 0.88130
 N1061 N 0.83428 0.13810 0.86738
 H1062 H 0.90292 0.14933 0.86806
 N1063 N 0.21240 0.59268 0.61209
 N1064 N 0.18701 0.56587 0.58974
 C1065 C 0.14759 0.58189 0.58999
 C1066 C 0.14973 0.61979 0.61261
 N1067 N 0.19073 0.62541 0.62567
 H1068 H 0.12393 0.64066 0.61987
 N1069 N 0.69157 0.88699 0.39107
 N1070 N 0.66909 0.90940 0.41985
 C1071 C 0.62772 0.89760 0.41438
 C1072 C 0.62551 0.86674 0.38108
 N1073 N 0.66617 0.86123 0.36756
 H1074 H 0.59740 0.85075 0.36739
 N1075 N 0.28692 0.40798 0.11233
 N1076 N 0.31241 0.43499 0.09039
 C1077 C 0.35181 0.41895 0.09067
 C1078 C 0.34958 0.38084 0.11284
 N1079 N 0.30853 0.37511 0.12562
 H1080 H 0.37534 0.35989 0.11997
 N1081 N 0.69669 0.57957 0.13831
 N1082 N 0.67342 0.55441 0.11191
 C1083 C 0.63659 0.57411 0.10440
 C1084 C 0.63758 0.61180 0.12651
 N1085 N 0.67558 0.61392 0.14718
 H1086 H 0.61332 0.63530 0.12751
 N1087 N 0.08202 0.81275 0.85856
 N1088 N 0.05562 0.83761 0.87985
 C1089 C 0.07793 0.87326 0.88910
 C1090 C 0.11894 0.86983 0.87261
 N1091 N 0.11995 0.83150 0.85381
 H1092 H 0.14527 0.89247 0.87435
 N1093 N 0.41726 0.18585 0.35624
 N1094 N 0.44369 0.16111 0.37767
 C1095 C 0.42128 0.12572 0.38779
 C1096 C 0.38010 0.12921 0.37163
 N1097 N 0.37916 0.16731 0.35217
 H1098 H 0.35361 0.10681 0.37410
 N1099 N 0.80425 0.42116 0.64028
 N1100 N 0.82729 0.44612 0.61341
 C1101 C 0.86390 0.42618 0.60540
 C1102 C 0.86303 0.38862 0.62770
 N1103 N 0.82531 0.38676 0.64898
 H1104 H 0.88714 0.36496 0.62835
 N1105 N 0.81320 0.61584 0.10362
 N1106 N 0.83437 0.59473 0.07253
 C1107 C 0.87597 0.60616 0.07655
 C1108 C 0.87960 0.63538 0.11167
 N1109 N 0.83957 0.64024 0.12766
 H1110 H 0.90834 0.65044 0.12508
 N1111 N 0.68726 0.38645 0.60791
 N1112 N 0.66598 0.40770 0.57706
 C1113 C 0.62451 0.39569 0.58075
 C1114 C 0.62102 0.36600 0.61532
 N1115 N 0.66102 0.36145 0.63138
 H1116 H 0.59241 0.35037 0.62829
 N1117 N 0.20700 0.09113 0.38999
 N1118 N 0.18278 0.06535 0.41505
 C1119 C 0.14342 0.08144 0.41635
 C1120 C 0.14438 0.11824 0.39142
 N1121 N 0.18463 0.12313 0.37563
 H1122 H 0.11822 0.13876 0.38447
 N1123 N 0.29263 0.90847 0.89121
 N1124 N 0.31707 0.93424 0.91602
 C1125 C 0.35641 0.91811 0.91702
 C1126 C 0.35522 0.88127 0.89217
 N1127 N 0.31484 0.87642 0.87672
 H1128 H 0.38129 0.86070 0.88503
 N1129 N 0.16492 0.91311 0.66785
 N1130 N 0.14459 0.93619 0.63790
 C1131 C 0.11538 0.91088 0.61728
 C1132 C 0.11820 0.87120 0.63586
 N1133 N 0.14967 0.87408 0.66732
 H1134 H 0.10006 0.84308 0.62682
 N1135 N 0.68946 0.56940 0.33621
 N1136 N 0.66508 0.54321 0.36068
 C1137 C 0.63103 0.56471 0.37482
 C1138 C 0.63553 0.60519 0.35830
 N1139 N 0.67242 0.60683 0.33445
 H1140 H 0.61454 0.63106 0.36387
 N1141 N 0.33487 0.08700 0.16691
 N1142 N 0.35556 0.06393 0.13725
 C1143 C 0.38465 0.08936 0.11660
 C1144 C 0.38135 0.12913 0.13483
 N1145 N 0.34973 0.12615 0.16612
 H1146 H 0.39926 0.15735 0.12565
 N1147 N 0.80864 0.42740 0.84606
 N1148 N 0.83288 0.45338 0.87087
 C1149 C 0.87049 0.43466 0.87778
 C1150 C 0.86829 0.39592 0.85624
 N1151 N 0.82910 0.39265 0.83706
 H1152 H 0.89211 0.37199 0.85587
 N1153 N 0.69892 0.07930 0.86128
 N1154 N 0.67589 0.05409 0.88798
 C1155 C 0.63899 0.07365 0.89567
 C1156 C 0.63982 0.11135 0.87359
 N1157 N 0.67770 0.11364 0.85266
 H1158 H 0.61551 0.13480 0.87281
 N1159 N 0.41740 0.68735 0.64112
 N1160 N 0.44370 0.66243 0.61981
 C1161 C 0.42139 0.62674 0.61075
 C1162 C 0.38037 0.63027 0.62733
 N1163 N 0.37945 0.66870 0.64601
 H1164 H 0.35402 0.60764 0.62579
 N1165 N 0.08170 0.31458 0.14135
 N1166 N 0.05566 0.33957 0.11975
 C1167 C 0.07837 0.37483 0.10982
 C1168 C 0.11947 0.37091 0.12625
 N1169 N 0.11996 0.33272 0.14566
 H1170 H 0.14616 0.39310 0.12403
 N1171 N 0.80137 0.92022 0.36153
 N1172 N 0.82419 0.94525 0.38860
 C1173 C 0.86116 0.92578 0.39614
 C1174 C 0.86061 0.88835 0.37356
 N1175 N 0.82281 0.88610 0.35250
 H1176 H 0.88508 0.86506 0.37250
 N1177 N 0.83492 0.58642 0.66685
 N1178 N 0.85554 0.56355 0.63695
 C1179 C 0.88476 0.58907 0.61662
 C1180 C 0.88162 0.62867 0.63528
 N1181 N 0.84997 0.62551 0.66650
 H1182 H 0.89966 0.65690 0.62643
 N1183 N 0.66370 0.41288 0.16866
 N1184 N 0.64317 0.43594 0.13885
 C1185 C 0.61439 0.41045 0.11781
 C1186 C 0.61773 0.37064 0.13597
 N1187 N 0.64904 0.37367 0.16762
 H1188 H 0.60006 0.34237 0.12649
 N1189 N 0.31057 0.92878 0.33757
 N1190 N 0.33479 0.95504 0.36210
 C1191 C 0.36890 0.93366 0.37628
 C1192 C 0.36460 0.89316 0.35972
 N1193 N 0.32776 0.89141 0.33581
 H1194 H 0.38575 0.86740 0.36519
 N1195 N 0.18904 0.07022 0.83572
 N1196 N 0.16485 0.04391 0.86025
 C1197 C 0.13077 0.06528 0.87454
 C1198 C 0.13502 0.10577 0.85807
 N1199 N 0.17181 0.10757 0.83409
 H1200 H 0.11395 0.13155 0.86379
 N1201 N 0.18757 0.88448 0.10520
 N1202 N 0.16632 0.90601 0.07458
 C1203 C 0.12472 0.89471 0.07892
 C1204 C 0.12111 0.86518 0.11361
 N1205 N 0.16118 0.86000 0.12910
 H1206 H 0.09239 0.85012 0.12707
 N1207 N 0.79235 0.40838 0.39131
 N1208 N 0.81677 0.43418 0.41611
 C1209 C 0.85612 0.41805 0.41712
 C1210 C 0.85495 0.38120 0.39231
 N1211 N 0.81457 0.37632 0.37686
 H1212 H 0.88103 0.36064 0.38517
 N1213 N 0.31270 0.11885 0.60315
 N1214 N 0.33409 0.09702 0.57287
 C1215 C 0.37588 0.10691 0.57860
 C1216 C 0.37941 0.13597 0.61387
 N1217 N 0.33911 0.14228 0.62821
 H1218 H 0.40819 0.14991 0.62850
 N1219 N 0.70745 0.58996 0.89058
 N1220 N 0.68304 0.56420 0.91544
 C1221 C 0.64383 0.58061 0.91693
 C1222 C 0.64509 0.61760 0.89235
 N1223 N 0.68536 0.62226 0.87655
 H1224 H 0.61912 0.63839 0.88559
 N1225 N 0.30007 0.42181 0.86226
 N1226 N 0.32329 0.44677 0.88904
 C1227 C 0.36022 0.42711 0.89623
 C1228 C 0.35923 0.38963 0.87377
 N1229 N 0.32122 0.38754 0.85312
 H1230 H 0.38352 0.36617 0.87257
 N1231 N 0.91785 0.18679 0.14232
 N1232 N 0.94421 0.16181 0.12116
 C1233 C 0.92183 0.12624 0.11175
 C1234 C 0.88068 0.12993 0.12795
 N1235 N 0.87976 0.16831 0.14675
 H1236 H 0.85422 0.10745 0.12601
 N1237 N 0.58265 0.81599 0.64622
 N1238 N 0.55648 0.84093 0.62476
 C1239 C 0.57939 0.87577 0.61367
 C1240 C 0.62076 0.87166 0.62927
 N1241 N 0.62118 0.83377 0.64936
 H1242 H 0.64768 0.89346 0.62594
 N1243 N 0.19815 0.57783 0.35928
 N1244 N 0.17529 0.55295 0.38649
 C1245 C 0.13853 0.57271 0.39432
 C1246 C 0.13924 0.61014 0.37177
 N1247 N 0.17693 0.61211 0.35044
 H1248 H 0.11503 0.63369 0.37105
   
