data_POSCAR
  _audit_creation_date              2014-09-24
  _audit_creation_method            'ToBaCCo'
  _symmetry_space_group_name_H-M    'P1'
  _symmetry_Int_Tables_number       1
  _symmetry_cell_setting            triclinic
  loop_
  _symmetry_equiv_pos_as_xyz
 x,y,z
_cell_length_a 57.5195
_cell_length_b 57.6643
_cell_length_c 57.4042
_cell_angle_alpha 90.043900
_cell_angle_beta 89.972700
_cell_angle_gamma 89.950400
loop_
  _atom_site_label
  _atom_site_type_symbol
  _atom_site_fract_x
  _atom_site_fract_y
  _atom_site_fract_z
C1 C 0.35977 1.36010 0.32992
 N2 N 0.34131 1.37033 0.34060
 C3 C 0.32953 1.35936 0.35793
 N4 N 0.33684 1.33804 0.36495
 C5 C 0.35575 1.32790 0.35504
 N6 N 0.36694 1.33889 0.33739
 C7 C 0.36104 0.85983 0.83076
 N8 N 0.36933 0.83934 0.83890
 C9 C 0.35870 0.82837 0.85692
 N10 N 0.33929 0.83789 0.86656
 C11 C 0.33094 0.85861 0.85880
 N12 N 0.34209 0.86947 0.84098
 C13 C 0.85669 1.35429 0.82640
 N14 N 0.83772 1.36424 0.83660
 C15 C 0.82627 1.35327 0.85423
 N16 N 0.83432 1.33243 0.86182
 C17 C 0.85355 1.32265 0.85236
 N18 N 0.86450 1.33356 0.83457
 C19 C 0.85899 0.85743 0.32921
 N20 N 0.84060 0.86822 0.33951
 C21 C 0.83061 0.85923 0.35897
 N22 N 0.83918 0.83931 0.36823
 C23 C 0.85758 0.82840 0.35824
 N24 N 0.86729 0.83747 0.33872
 C25 C 0.64118 0.64175 0.33087
 N26 N 0.66052 0.63251 0.34075
 C27 C 0.67013 0.64235 0.35997
 N28 N 0.66024 0.66166 0.36928
 C29 C 0.64088 0.67107 0.35956
 N30 N 0.63145 0.66105 0.34033
 C31 C 0.64503 0.14420 0.82805
 N32 N 0.66297 0.13372 0.83931
 C33 C 0.67113 0.14205 0.85990
 N34 N 0.66077 0.16100 0.86946
 C35 C 0.64304 0.17195 0.85832
 N36 N 0.63540 0.16360 0.83753
 C37 C 1.14266 0.64270 0.82989
 N38 N 1.13383 0.66278 0.83851
 C39 C 1.14261 0.67233 0.85828
 N40 N 1.16063 0.66174 0.86933
 C41 C 1.16992 0.64186 0.86059
 N42 N 1.16078 0.63242 0.84094
 C43 C 1.14217 0.14206 0.33136
 N44 N 1.15994 0.13118 0.34255
 C45 C 1.17075 0.14117 0.36104
 N46 N 1.16294 0.16201 0.36891
 C47 C 1.14481 0.17289 0.35839
 N48 N 1.13478 0.16303 0.33937
 C49 C 0.64280 1.35638 0.66888
 N50 N 0.66203 1.36603 0.65918
 C51 C 0.67086 1.35768 0.63881
 N52 N 0.66017 1.33939 0.62832
 C53 C 0.64101 1.32953 0.63796
 N54 N 0.63243 1.33811 0.65822
 C55 C 0.64015 0.85664 1.16941
 N56 N 0.65956 0.86632 1.16013
 C57 C 0.66991 0.85701 1.14100
 N58 N 0.66049 0.83788 1.13084
 C59 C 0.64091 0.82813 1.13980
 N60 N 0.63101 0.83748 1.15914
 C61 C 1.14171 1.35643 1.16973
 N62 N 1.16053 1.36693 1.16008
 C63 C 1.17073 1.35834 1.14051
 N64 N 1.16170 1.33897 1.13046
 C65 C 1.14292 1.32820 1.13990
 N66 N 1.13312 1.33695 1.15957
 C67 C 1.14425 0.85477 0.67089
 N68 N 1.13478 0.83573 0.66066
 C69 C 1.14379 0.82713 0.64058
 N70 N 1.16238 0.83776 0.63070
 C71 C 1.17220 0.85674 0.64073
 N72 N 1.16304 0.86510 0.66093
 C73 C 0.35683 0.64431 0.67065
 N74 N 0.36605 0.66408 0.66178
 C75 C 0.35617 0.67477 0.64324
 N76 N 0.33661 0.66567 0.63370
 C77 C 0.32728 0.64563 0.64205
 N78 N 0.33763 0.63496 0.66052
 C79 C 0.35889 0.14172 1.16934
 N80 N 0.33824 0.13373 1.16097
 C81 C 0.32673 0.14525 1.14382
 N82 N 0.33598 0.16518 1.13533
 C83 C 0.35671 0.17324 1.14316
 N84 N 0.36818 0.16134 1.16003
 C85 C 0.85424 0.64551 1.17308
 N86 N 0.83626 0.63523 1.16167
 C87 C 0.82750 0.64493 1.14192
 N88 N 0.83708 0.66478 1.13349
 C89 C 0.85514 0.67503 1.14465
 N90 N 0.86344 0.66542 1.16452
 C91 C 0.85687 0.14328 0.67217
 N92 N 0.83780 0.13384 0.66175
 C93 C 0.82719 0.14485 0.64360
 N94 N 0.83622 0.16519 0.63567
 C95 C 0.85564 0.17435 0.64537
 N96 N 0.86566 0.16343 0.66366
 C97 C 1.36115 0.35852 0.66824
 N98 N 1.36883 0.33804 0.65933
 C99 C 1.35759 0.32749 0.64141
 N100 N 1.33817 0.33761 0.63255
 C101 C 1.33046 0.35829 0.64089
 N102 N 1.34209 0.36871 0.65864
 C103 C 1.36168 0.85798 1.16739
 N104 N 1.36978 0.83796 1.15790
 C105 C 1.35848 0.82754 1.13995
 N106 N 1.33868 0.83742 1.13162
 C107 C 1.33061 0.85771 1.14060
 N108 N 1.34220 0.86791 1.15850
 C109 C 0.85731 0.35683 1.17202
 N110 N 0.83834 0.36639 1.16154
 C111 C 0.82729 0.35512 1.14394
 N112 N 0.83558 0.33435 1.13655
 C113 C 0.85476 0.32483 1.14638
 N114 N 0.86543 0.33603 1.16422
 C115 C 0.85901 0.85870 0.67022
 N116 N 0.86691 0.83808 0.66188
 C117 C 0.85605 0.82748 0.64377
 N118 N 0.83696 0.83755 0.63416
 C119 C 0.82902 0.85827 0.64215
 N120 N 0.84017 0.86878 0.66014
 C121 C 0.64127 0.64395 0.66937
 N122 N 0.63194 0.66342 0.65991
 C123 C 0.64213 0.67394 0.64142
 N124 N 0.66204 0.66495 0.63249
 C125 C 0.67147 0.64531 0.64156
 N126 N 0.66098 0.63481 0.66000
 C127 C 0.64174 1.14442 1.16952
 N128 N 0.66233 1.13612 1.16126
 C129 C 0.67234 1.14553 1.14206
 N130 N 0.66204 1.16389 1.13155
 C131 C 0.64166 1.17271 1.13960
 N132 N 0.63139 1.16258 1.15839
 C133 C 0.14130 0.64339 1.16938
 N134 N 0.13099 0.66160 1.15828
 C135 C 0.14123 0.67167 1.13945
 N136 N 0.16152 0.66273 1.13131
 C137 C 0.17177 0.64433 1.14176
 N138 N 0.16182 0.63498 1.16102
 C139 C 0.14317 1.14499 0.67136
 N140 N 0.13407 1.16481 0.66247
 C141 C 0.14301 1.17451 0.64278
 N142 N 0.16165 1.16426 0.63226
 C143 C 0.17135 1.14480 0.64150
 N144 N 0.16188 1.13525 0.66088
 C145 C 1.35918 0.64133 0.32957
 N146 N 1.36747 0.66185 0.33775
 C147 C 1.35736 0.67254 0.35627
 N148 N 1.33839 0.66278 0.36643
 C149 C 1.32999 0.64217 0.35858
 N150 N 1.34061 0.63150 0.34034
 C151 C 1.35848 1.14244 0.82899
 N152 N 1.36720 1.16278 0.83720
 C153 C 1.35666 1.17438 0.85491
 N154 N 1.33685 1.16551 0.86424
 C155 C 1.32806 1.14501 0.85656
 N156 N 1.33905 1.13349 0.83906
 C157 C 0.85739 0.64426 0.82932
 N158 N 0.86669 0.66371 0.83890
 C159 C 0.85782 0.67277 0.85883
 N160 N 0.83913 0.66254 0.86889
 C161 C 0.82944 0.64325 0.85941
 N162 N 0.83876 0.63402 0.83969
 C163 C 0.86017 1.14143 0.33058
 N164 N 0.84120 1.13160 0.34066
 C165 C 0.82942 1.14270 0.35786
 N166 N 0.83697 1.16374 0.36529
 C167 C 0.85636 1.17358 0.35603
 N168 N 0.86773 1.16236 0.33853
 C169 C 0.64095 0.35913 0.33100
 N170 N 0.63232 0.33891 0.33971
 C171 C 0.64243 0.32846 0.35840
 N172 N 0.66143 0.33844 0.36827
 C173 C 0.67014 0.35863 0.35993
 N174 N 0.65984 0.36888 0.34134
 C175 C 0.64183 0.85623 0.82898
 N176 N 0.63294 0.83613 0.83759
 C177 C 0.64280 0.82579 0.85644
 N178 N 0.66166 0.83570 0.86662
 C179 C 0.67070 0.85573 0.85817
 N180 N 0.66074 0.86587 0.83931
 C181 C 0.14171 0.35567 0.82927
 N182 N 0.13248 0.33566 0.83763
 C183 C 0.14296 0.32388 0.85525
 N184 N 0.16304 0.33238 0.86437
 C185 C 0.17226 0.35261 0.85651
 N186 N 0.16148 0.36420 0.83896
 C187 C 0.14297 0.85675 0.32870
 N188 N 0.13342 0.83755 0.33867
 C189 C 0.14464 0.82621 0.35612
 N190 N 0.16534 0.83445 0.36388
 C191 C 0.17481 0.85386 0.35455
 N192 N 0.16366 0.86478 0.33686
 O193 O 0.97755 0.91733 0.88449
 O194 O 0.97735 0.89009 0.85751
 C195 C 0.96944 0.90902 0.86568
 C196 C 0.95018 0.92114 0.85360
 C197 C 0.94270 0.91377 0.83152
 H198 H 0.95206 0.90001 0.82274
 O199 O 1.02238 1.08067 0.88227
 O200 O 1.02224 1.10758 0.85499
 C201 C 1.03027 1.08880 0.86328
 C202 C 1.04955 1.07677 0.85118
 C203 C 1.05759 1.08479 0.82955
 H204 H 1.04849 1.09884 0.82099
 O205 O 0.88254 0.97664 0.91722
 O206 O 0.85509 0.97639 0.89041
 C207 C 0.86356 0.96863 0.90930
 C208 C 0.85165 0.94962 0.92184
 C209 C 0.82987 0.94154 0.91437
 H210 H 0.82111 0.95039 0.90025
 O211 O 1.11686 1.02198 0.91497
 O212 O 1.14408 1.02217 0.88791
 C213 C 1.13563 1.03016 0.90675
 C214 C 1.14732 1.04954 0.91902
 C215 C 1.16831 1.05878 0.91058
 H216 H 1.17612 1.05147 0.89506
 O217 O 0.91657 0.88519 0.97837
 O218 O 0.89009 0.85756 0.97862
 C219 C 0.90875 0.86615 0.97049
 C220 C 0.92121 0.85419 0.95135
 C221 C 0.91351 0.83253 0.94324
 H222 H 0.89844 0.82457 0.95121
 O223 O 1.08313 1.11382 0.97679
 O224 O 1.10974 1.14132 0.97653
 C225 C 1.09096 1.13276 0.96866
 C226 C 1.07860 1.14448 0.94930
 C227 C 1.08626 1.16610 0.94106
 H228 H 1.10009 1.17493 0.95024
 O229 O 0.91369 1.02185 0.88477
 O230 O 0.88631 1.02179 0.85790
 C231 C 0.90531 1.02971 0.86587
 C232 C 0.91773 1.04843 0.85332
 C233 C 0.90911 1.05730 0.83219
 H234 H 0.89304 1.05046 0.82523
 O235 O 1.08562 0.97624 0.88348
 O236 O 1.11270 0.97605 0.85627
 C237 C 1.09382 0.96814 0.86461
 C238 C 1.08143 0.94903 0.85264
 C239 C 1.08992 0.93976 0.83164
 H240 H 1.10568 0.94677 0.82412
 O241 O 1.02334 0.88601 0.91631
 O242 O 1.02313 0.85864 0.88946
 C243 C 1.03127 0.86709 0.90822
 C244 C 1.05067 0.85519 0.92031
 C245 C 1.05907 0.83386 0.91204
 H246 H 1.05028 0.82544 0.89767
 O247 O 0.97707 1.11265 0.91425
 O248 O 0.97694 1.13954 0.88697
 C249 C 0.96904 1.13144 0.90595
 C250 C 0.94992 1.14367 0.91821
 C251 C 0.94047 1.16420 0.90900
 H252 H 0.94741 1.17120 0.89294
 O253 O 0.88459 1.08357 0.97800
 O254 O 0.85774 1.11089 0.97808
 C255 C 0.86564 1.09187 0.97020
 C256 C 0.85294 1.07941 0.95153
 C257 C 0.83117 1.08732 0.94372
 H258 H 0.82386 1.10285 0.95137
 O259 O 1.11780 0.91752 0.97781
 O260 O 1.14489 0.89042 0.97809
 C261 C 1.13685 0.90934 0.97012
 C262 C 1.14925 0.92152 0.95112
 C263 C 1.17129 0.91401 0.94370
 H264 H 1.17994 0.90033 0.95324
 O265 O 0.97696 1.08045 0.88273
 O266 O 0.97689 1.10730 0.85539
 C267 C 0.96892 1.08853 0.86380
 C268 C 0.94939 1.07657 0.85201
 C269 C 0.94114 1.08452 0.83046
 H270 H 0.95062 1.09809 0.82159
 O271 O 1.02305 0.91698 0.88369
 O272 O 1.02276 0.88967 0.85678
 C273 C 1.03089 0.90852 0.86479
 C274 C 1.05030 0.92022 0.85255
 C275 C 1.05871 0.91153 0.83129
 H276 H 1.04976 0.89721 0.82303
 O277 O 1.11753 0.97677 0.91521
 O278 O 1.14482 0.97675 0.88822
 C279 C 1.13656 0.96894 0.90719
 C280 C 1.14889 0.95029 0.91995
 C281 C 1.17058 0.94207 0.91227
 H282 H 1.17822 0.94947 0.89674
 O283 O 0.88283 1.02175 0.91764
 O284 O 0.85525 1.02163 0.89096
 C285 C 0.86373 1.02955 0.90982
 C286 C 0.85176 1.04855 0.92241
 C287 C 0.82961 1.05610 0.91547
 H288 H 0.82061 1.04659 0.90197
 O289 O 0.91727 1.11445 0.97737
 O290 O 0.89049 1.14183 0.97735
 C291 C 0.90915 1.13324 0.96920
 C292 C 0.92097 1.14470 0.94937
 C293 C 0.91212 1.16546 0.94019
 H294 H 0.89765 1.17390 0.94879
 O295 O 1.08543 0.88632 0.97707
 O296 O 1.11242 0.85913 0.97710
 C297 C 1.09364 0.86750 0.96899
 C298 C 1.08140 0.85552 0.94971
 C299 C 1.08985 0.83440 0.94084
 H300 H 1.10541 0.82684 0.94825
 O301 O 1.08528 1.02136 0.88299
 O302 O 1.11230 1.02140 0.85572
 C303 C 1.09332 1.02920 0.86395
 C304 C 1.08066 1.04791 0.85164
 C305 C 1.08876 1.05649 0.83022
 H306 H 1.10435 1.04918 0.82258
 O307 O 0.91451 0.97670 0.88545
 O308 O 0.88727 0.97646 0.85843
 C309 C 0.90634 0.96872 0.86654
 C310 C 0.91908 0.95006 0.85414
 C311 C 0.91157 0.94215 0.83225
 H312 H 0.89627 0.94981 0.82440
 O313 O 1.02252 1.11230 0.91432
 O314 O 1.02241 1.13927 0.88712
 C315 C 1.03046 1.13112 0.90604
 C316 C 1.04949 1.14340 0.91834
 C317 C 1.05798 1.16462 0.90984
 H318 H 1.05059 1.17176 0.89407
 O319 O 0.97797 0.88557 0.91653
 O320 O 0.97780 0.85823 0.88964
 C321 C 0.97008 0.86654 0.90863
 C322 C 0.95131 0.85429 0.92130
 C323 C 0.94366 0.83240 0.91376
 H324 H 0.95253 0.82393 0.89945
 O325 O 1.11564 1.08259 0.97684
 O326 O 1.14228 1.11006 0.97665
 C327 C 1.13439 1.09103 0.96880
 C328 C 1.14676 1.07905 0.94959
 C329 C 1.16797 1.08773 0.94121
 H330 H 1.17599 1.10232 0.94994
 O331 O 0.88379 0.91593 0.97844
 O332 O 0.85717 0.88843 0.97869
 C333 C 0.86500 0.90738 0.97061
 C334 C 0.85247 0.91941 0.95160
 C335 C 0.83096 0.91117 0.94351
 H336 H 0.82346 0.89584 0.95138
 Cu337 Cu 1.00046 0.90424 0.90292
 Cu338 Cu 1.00019 0.87143 0.87065
 Cu339 Cu 0.99974 1.09382 0.90112
 Cu340 Cu 0.99962 1.12612 0.86838
 Cu341 Cu 0.90113 0.99926 0.90394
 Cu342 Cu 0.86822 0.99904 0.87173
 Cu343 Cu 1.09863 0.99907 0.90188
 Cu344 Cu 1.13122 0.99908 0.86930
 C345 C 0.93846 0.93950 0.86460
 H346 H 0.94407 0.94517 0.88169
 C347 C 0.92332 0.92407 0.82069
 C348 C 1.06098 1.05811 0.86191
 H349 H 1.05496 1.05197 0.87869
 C350 C 1.07732 1.07493 0.81897
 C351 C 0.86261 0.93868 0.94068
 H352 H 0.87946 0.94478 0.94646
 C353 C 0.81940 0.92216 0.92493
 C354 C 1.13675 1.05976 0.93859
 H355 H 1.12030 1.05311 0.94486
 C356 C 1.17880 1.07792 0.92156
 C357 C 0.94019 0.86488 0.94033
 H358 H 0.94590 0.88182 0.94614
 C359 C 0.92465 0.82141 0.92450
 C360 C 1.05993 1.13348 0.93807
 H361 H 1.05394 1.11680 0.94432
 C362 C 1.07629 1.17630 0.92113
 C363 C 0.93784 1.05823 0.86307
 H364 H 0.94414 1.05202 0.87972
 C365 C 0.92069 1.07540 0.82050
 C366 C 1.06157 0.93919 0.86288
 H367 H 1.05526 0.94586 0.87935
 C368 C 1.07867 0.92098 0.82075
 C369 C 1.06177 0.86573 0.93936
 H370 H 1.05546 0.88226 0.94574
 C371 C 1.07881 0.82339 0.92198
 C372 C 0.94008 1.13410 0.93845
 H373 H 0.94687 1.11797 0.94532
 C374 C 0.92150 1.17523 0.91983
 C375 C 0.86306 1.06004 0.94075
 H376 H 0.88014 1.05428 0.94620
 C377 C 0.81916 1.07570 0.92578
 C378 C 1.13843 0.93992 0.93940
 H379 H 1.12141 0.94573 0.94503
 C380 C 1.18214 0.92402 0.92412
 O381 O 1.02426 0.91741 1.11703
 O382 O 1.02434 0.89034 1.14415
 C383 C 1.03219 0.90924 1.13598
 C384 C 1.05097 0.92170 1.14840
 C385 C 1.05884 0.91402 1.17023
 H386 H 1.05116 0.89864 1.17776
 O387 O 0.97816 1.08256 1.11741
 O388 O 0.97799 1.10971 1.14451
 C389 C 0.97026 1.09069 1.13640
 C390 C 0.95142 1.07823 1.14873
 C391 C 0.94431 1.08528 1.17103
 H392 H 0.95399 1.09879 1.17979
 O393 O 0.88453 1.02273 1.08485
 O394 O 0.85736 1.02294 1.11196
 C395 C 0.86569 1.03081 1.09304
 C396 C 0.85380 1.05002 1.08073
 C397 C 0.83220 1.05834 1.08855
 H398 H 0.82356 1.04968 1.10286
 O399 O 1.11635 0.97825 1.08563
 O400 O 1.14377 0.97829 1.11246
 C401 C 1.13530 0.97026 1.09367
 C402 C 1.14732 0.95115 1.08124
 C403 C 1.16890 0.94287 1.08914
 H404 H 1.17677 0.95063 1.10439
 O405 O 1.08489 0.88573 1.02253
 O406 O 1.11178 0.85844 1.02257
 C407 C 1.09280 0.86668 1.03034
 C408 C 1.08030 0.85444 1.04926
 C409 C 1.08778 0.83252 1.05678
 H410 H 1.10147 0.82385 1.04720
 O411 O 0.91746 1.11511 1.02298
 O412 O 0.89071 1.14252 1.02293
 C413 C 0.90948 1.13407 1.03094
 C414 C 0.92154 1.14592 1.05041
 C415 C 0.91282 1.16689 1.05929
 H416 H 0.89829 1.17521 1.05069
 O417 O 0.91604 0.97717 1.11647
 O418 O 0.88899 0.97707 1.14369
 C419 C 0.90784 0.96909 1.13533
 C420 C 0.92025 0.94998 1.14736
 C421 C 0.91180 0.94090 1.16844
 H422 H 0.89591 0.94788 1.17572
 O423 O 1.08527 1.02388 1.11774
 O424 O 1.11250 1.02393 1.14478
 C425 C 1.09356 1.03184 1.13664
 C426 C 1.08112 1.05070 1.14894
 C427 C 1.08886 1.05885 1.17067
 H428 H 1.10429 1.05129 1.17832
 O429 O 0.97902 0.88578 1.08479
 O430 O 0.97917 0.85862 1.11182
 C431 C 0.97117 0.86686 1.09292
 C432 C 0.95201 0.85470 1.08075
 C433 C 0.94370 0.83342 1.08920
 H434 H 0.95242 0.82521 1.10373
 O435 O 1.02328 1.11430 1.08534
 O436 O 1.02327 1.14167 1.11219
 C437 C 1.03123 1.13324 1.09332
 C438 C 1.05023 1.14523 1.08068
 C439 C 1.05913 1.16646 1.08881
 H440 H 1.05195 1.17413 1.10446
 O441 O 0.88421 0.91637 1.02386
 O442 O 0.85756 0.88890 1.02417
 C443 C 0.86550 0.90794 1.03199
 C444 C 0.85323 0.92019 1.05107
 C445 C 0.83196 0.91185 1.05971
 H446 H 0.82445 0.89636 1.05218
 O447 O 1.11579 1.08290 1.02237
 O448 O 1.14246 1.11035 1.02208
 C449 C 1.13459 1.09143 1.03022
 C450 C 1.14689 1.07971 1.04963
 C451 C 1.16807 1.08844 1.05804
 H452 H 1.17627 1.10269 1.04896
 O453 O 1.02335 1.08343 1.11808
 O454 O 1.02318 1.11067 1.14507
 C455 C 1.03116 1.09176 1.13703
 C456 C 1.05021 1.07966 1.14935
 C457 C 1.05765 1.08712 1.17141
 H458 H 1.04816 1.10083 1.18011
 O459 O 0.97886 0.91756 1.11676
 O460 O 0.97897 0.89048 1.14387
 C461 C 0.97092 0.90932 1.13568
 C462 C 0.95152 0.92128 1.14777
 C463 C 0.94339 0.91309 1.16930
 H464 H 0.95275 0.89921 1.17784
 O465 O 1.11626 1.02358 1.08519
 O466 O 1.14363 1.02380 1.11208
 C467 C 1.13514 1.03168 1.09323
 C468 C 1.14694 1.05085 1.08076
 C469 C 1.16768 1.06036 1.08942
 H470 H 1.17494 1.05351 1.10538
 O471 O 0.88397 0.97756 1.08484
 O472 O 0.85677 0.97765 1.11192
 C473 C 0.86498 0.96974 1.09295
 C474 C 0.85283 0.95069 1.08062
 C475 C 0.83130 0.94248 1.08865
 H476 H 0.82282 0.95129 1.10299
 O477 O 1.08330 1.11414 1.02238
 O478 O 1.10995 1.14160 1.02197
 C479 C 1.09125 1.13318 1.03016
 C480 C 1.07917 1.14529 1.04947
 C481 C 1.08736 1.16678 1.05747
 H482 H 1.10147 1.17517 1.04827
 O483 O 0.91667 0.88528 1.02388
 O484 O 0.89014 0.85770 1.02418
 C485 C 0.90888 0.86634 1.03203
 C486 C 0.92140 0.85458 1.05123
 C487 C 0.91306 0.83354 1.06028
 H488 H 0.89750 0.82589 1.05297
 O489 O 1.08462 0.97884 1.11766
 O490 O 1.11182 0.97879 1.14473
 C491 C 1.09275 0.97106 1.13668
 C492 C 1.08022 0.95231 1.14901
 C493 C 1.08728 0.94500 1.17124
 H494 H 1.10091 0.95448 1.18005
 O495 O 0.91602 1.02247 1.11702
 O496 O 0.88905 1.02251 1.14433
 C497 C 0.90796 1.03037 1.13606
 C498 C 0.92060 1.04912 1.14840
 C499 C 0.91314 1.05703 1.17034
 H500 H 0.89781 1.04938 1.17811
 O501 O 0.97787 1.11449 1.08568
 O502 O 0.97771 1.14178 1.11261
 C503 C 0.96980 1.13338 1.09375
 C504 C 0.95066 1.14538 1.08138
 C505 C 0.94135 1.16612 1.09029
 H506 H 0.94841 1.17339 1.10617
 O507 O 1.02440 0.88590 1.08487
 O508 O 1.02455 0.85872 1.11188
 C509 C 1.03243 0.86702 1.09296
 C510 C 1.05133 0.85485 1.08036
 C511 C 1.05975 0.83336 1.08828
 H512 H 1.05243 0.82591 1.10393
 O513 O 1.11666 0.91764 1.02327
 O514 O 1.14368 0.89048 1.02351
 C515 C 1.13544 0.90938 1.03143
 C516 C 1.14747 0.92157 1.05070
 C517 C 1.16924 0.91384 1.05859
 H518 H 1.17779 0.89968 1.04961
 O519 O 0.88536 1.08369 1.02349
 O520 O 0.85854 1.11104 1.02352
 C521 C 0.86663 1.09217 1.03158
 C522 C 0.85442 1.08018 1.05086
 C523 C 0.83305 1.08855 1.05922
 H524 H 0.82549 1.10386 1.05138
 Cu525 Cu 1.00165 0.90438 1.09816
 Cu526 Cu 1.00175 0.87182 1.13064
 Cu527 Cu 1.00070 1.09599 1.09892
 Cu528 Cu 1.00049 1.12875 1.13126
 Cu529 Cu 0.90296 0.90346 1.00111
 Cu530 Cu 0.87110 0.87035 1.00144
 Cu531 Cu 1.09851 0.90453 1.00015
 Cu532 Cu 1.13089 0.87188 1.00037
 Cu533 Cu 0.90386 1.09647 1.00044
 Cu534 Cu 0.87174 1.12937 1.00047
 Cu535 Cu 1.09679 1.09561 0.99962
 Cu536 Cu 1.12876 1.12859 0.99927
 Cu537 Cu 0.90286 0.99998 1.09810
 Cu538 Cu 0.87032 1.00005 1.13072
 Cu539 Cu 1.09792 1.00112 1.09885
 Cu540 Cu 1.13075 1.00115 1.13117
 C541 C 1.06176 0.94085 1.13797
 H542 H 1.05622 0.94642 1.12083
 C543 C 1.07688 0.92565 1.18203
 C544 C 0.93975 1.05987 1.13777
 H545 H 0.94519 1.05435 1.12057
 C546 C 0.92497 1.07503 1.18200
 C547 C 0.86460 1.06086 1.06168
 H548 H 0.88132 1.05462 1.05564
 C549 C 0.82167 1.07768 1.07797
 C550 C 1.13679 0.94042 1.06195
 H551 H 1.11994 0.94639 1.05605
 C552 C 1.18009 0.92427 1.07789
 C553 C 1.06176 0.86524 1.06086
 H554 H 1.05589 0.88215 1.05512
 C555 C 1.07796 0.82187 1.07657
 C556 C 0.94068 1.13546 1.06138
 H557 H 0.94736 1.11917 1.05476
 C558 C 0.92238 1.17700 1.07941
 C559 C 0.94010 0.94000 1.13716
 H560 H 0.94630 0.94641 1.12055
 C561 C 0.92329 0.92245 1.17971
 C562 C 1.06179 1.06121 1.13849
 H563 H 1.05610 1.05540 1.12146
 C564 C 1.07713 1.07697 1.18226
 C565 C 0.94095 0.86499 1.06153
 H566 H 0.94713 0.88150 1.05504
 C567 C 0.92407 0.82279 1.07928
 C568 C 1.06037 1.13482 1.06097
 H569 H 1.05406 1.11817 1.05494
 C570 C 1.07775 1.17742 1.07732
 C571 C 0.86345 0.93967 1.06159
 H572 H 0.88013 0.94582 1.05541
 C573 C 0.82076 0.92290 1.07849
 C574 C 1.13671 1.06064 1.06085
 H575 H 1.12034 1.05385 1.05448
 C576 C 1.17855 1.07914 1.07816
 O577 O 0.97751 0.41701 0.38349
 O578 O 0.97750 0.38998 0.35630
 C579 C 0.96964 0.40892 0.36450
 C580 C 0.95060 0.42126 0.35233
 C581 C 0.94318 0.41408 0.33018
 H582 H 0.95280 0.40057 0.32132
 O583 O 1.02274 0.58293 0.38201
 O584 O 1.02244 0.60987 0.35477
 C585 C 1.03057 0.59110 0.36300
 C586 C 1.04958 0.57882 0.35064
 C587 C 1.05770 0.58684 0.32902
 H588 H 1.04997 0.60225 0.32156
 O589 O 0.88392 0.47706 0.41679
 O590 O 0.85642 0.47685 0.39003
 C591 C 0.86490 0.46910 0.40893
 C592 C 0.85292 0.45017 0.42153
 C593 C 0.83091 0.44252 0.41432
 H594 H 0.82208 0.45164 0.40043
 O595 O 1.11554 0.52282 0.41350
 O596 O 1.14279 0.52288 0.38647
 C597 C 1.13441 0.53086 0.40535
 C598 C 1.14643 0.54989 0.41786
 C599 C 1.16814 0.55808 0.41022
 H600 H 1.17613 0.55038 0.39498
 O601 O 0.91715 0.38407 0.47760
 O602 O 0.89025 0.35684 0.47779
 C603 C 0.90902 0.36517 0.46966
 C604 C 0.92095 0.35332 0.45009
 C605 C 0.91237 0.33226 0.44133
 H606 H 0.89820 0.32381 0.45034
 O607 O 1.08335 0.61449 0.47622
 O608 O 1.11020 0.64177 0.47614
 C609 C 1.09135 0.63343 0.46824
 C610 C 1.07911 0.64546 0.44902
 C611 C 1.08743 0.66673 0.44058
 H612 H 1.10189 0.67504 0.44930
 O613 O 0.91522 0.52212 0.38422
 O614 O 0.88781 0.52205 0.35738
 C615 C 0.90679 0.53002 0.36537
 C616 C 0.91893 0.54905 0.35302
 C617 C 0.90990 0.55812 0.33217
 H618 H 0.89409 0.55092 0.32495
 O619 O 1.08450 0.47674 0.38220
 O620 O 1.11161 0.47651 0.35503
 C621 C 1.09283 0.46849 0.36345
 C622 C 1.08066 0.44912 0.35167
 C623 C 1.08909 0.43993 0.33061
 H624 H 1.10484 0.44701 0.32319
 O625 O 1.02270 0.38532 0.41565
 O626 O 1.02273 0.35801 0.38874
 C627 C 1.03071 0.36641 0.40762
 C628 C 1.04999 0.35453 0.41998
 C629 C 1.05830 0.33295 0.41216
 H630 H 1.04956 0.32432 0.39789
 O631 O 0.97733 0.61456 0.41414
 O632 O 0.97709 0.64165 0.38705
 C633 C 0.96926 0.63342 0.40602
 C634 C 0.95027 0.64557 0.41854
 C635 C 0.94131 0.66667 0.41010
 H636 H 0.94847 0.67410 0.39435
 O637 O 0.88497 0.58401 0.47708
 O638 O 0.85799 0.61121 0.47700
 C639 C 0.86608 0.59226 0.46913
 C640 C 0.85362 0.57985 0.45031
 C641 C 0.83192 0.58776 0.44240
 H642 H 0.82432 0.60310 0.45020
 O643 O 1.11665 0.41795 0.47680
 O644 O 1.14379 0.39091 0.47679
 C645 C 1.13561 0.40981 0.46889
 C646 C 1.14785 0.42210 0.44984
 C647 C 1.16995 0.41479 0.44245
 H648 H 1.17867 0.40111 0.45195
 O649 O 0.97732 0.58227 0.38277
 O650 O 0.97696 0.60925 0.35557
 C651 C 0.96912 0.59041 0.36394
 C652 C 0.94964 0.57832 0.35220
 C653 C 0.94063 0.58684 0.33118
 H654 H 0.94909 0.60135 0.32274
 O655 O 1.02278 0.41642 0.38304
 O656 O 1.02274 0.38920 0.35603
 C657 C 1.03066 0.40811 0.36409
 C658 C 1.04981 0.42010 0.35176
 C659 C 1.05781 0.41182 0.33020
 H660 H 1.04850 0.39782 0.32183
 O661 O 1.11610 0.47762 0.41409
 O662 O 1.14341 0.47753 0.38710
 C663 C 1.13514 0.46976 0.40610
 C664 C 1.14747 0.45111 0.41887
 C665 C 1.16926 0.44308 0.41126
 H666 H 1.17697 0.45064 0.39583
 O667 O 0.88375 0.52223 0.41644
 O668 O 0.85619 0.52207 0.38974
 C669 C 0.86469 0.53008 0.40852
 C670 C 0.85275 0.54921 0.42093
 C671 C 0.83082 0.55704 0.41359
 H672 H 0.82198 0.54800 0.39964
 O673 O 0.91729 0.61530 0.47708
 O674 O 0.89037 0.64255 0.47703
 C675 C 0.90921 0.63418 0.46906
 C676 C 0.92130 0.64608 0.44968
 C677 C 0.91303 0.66742 0.44138
 H678 H 0.89886 0.67591 0.45043
 O679 O 1.08464 0.38628 0.47685
 O680 O 1.11165 0.35914 0.47684
 C681 C 1.09278 0.36740 0.46884
 C682 C 1.08047 0.35520 0.44970
 C683 C 1.08877 0.33386 0.44130
 H684 H 1.10420 0.32634 0.44902
 O685 O 1.08380 0.52193 0.38145
 O686 O 1.11083 0.52189 0.35420
 C687 C 1.09180 0.52966 0.36235
 C688 C 1.07919 0.54845 0.35004
 C689 C 1.08653 0.55617 0.32802
 H690 H 1.10046 0.54701 0.31930
 O691 O 0.91525 0.47689 0.38437
 O692 O 0.88793 0.47669 0.35743
 C693 C 0.90696 0.46888 0.36550
 C694 C 0.91951 0.45012 0.35308
 C695 C 0.91176 0.44209 0.33132
 H696 H 0.89622 0.44958 0.32382
 O697 O 1.02267 0.61435 0.41423
 O698 O 1.02253 0.64142 0.38712
 C699 C 1.03057 0.63321 0.40602
 C700 C 1.04966 0.64530 0.41835
 C701 C 1.05856 0.66637 0.40985
 H702 H 1.05119 0.67395 0.39426
 O703 O 0.97718 0.38487 0.41497
 O704 O 0.97715 0.35773 0.38790
 C705 C 0.96910 0.36606 0.40673
 C706 C 0.94985 0.35405 0.41893
 C707 C 0.94041 0.33344 0.40987
 H708 H 0.94731 0.32651 0.39377
 O709 O 1.11545 0.58287 0.47599
 O710 O 1.14233 0.61011 0.47592
 C711 C 1.13425 0.59120 0.46796
 C712 C 1.14647 0.57913 0.44872
 C713 C 1.16835 0.58681 0.44108
 H714 H 1.17687 0.60082 0.45028
 O715 O 0.88505 0.41558 0.47772
 O716 O 0.85805 0.38845 0.47789
 C717 C 0.86613 0.40734 0.46989
 C718 C 0.85367 0.41970 0.45103
 C719 C 0.83191 0.41189 0.44319
 H720 H 0.82425 0.39664 0.45105
 Cu721 Cu 1.00005 0.40359 0.40203
 Cu722 Cu 1.00004 0.37097 0.36957
 Cu723 Cu 1.00005 0.59583 0.40099
 Cu724 Cu 0.99973 0.62824 0.36838
 Cu725 Cu 0.90229 0.49958 0.40313
 Cu726 Cu 0.86933 0.49937 0.37094
 Cu727 Cu 1.09727 0.49982 0.40050
 Cu728 Cu 1.12989 0.49974 0.36797
 C729 C 0.93893 0.43958 0.36342
 H730 H 0.94460 0.44522 0.38050
 C731 C 0.92356 0.42415 0.31952
 C732 C 1.06042 0.55962 0.36096
 H733 H 1.05468 0.55376 0.37794
 C734 C 1.07606 0.57555 0.31733
 C735 C 0.86399 0.43889 0.44012
 H736 H 0.88102 0.44466 0.44570
 C737 C 0.82027 0.42324 0.42488
 C738 C 1.13581 0.56048 0.43718
 H739 H 1.11888 0.55457 0.44291
 C740 C 1.17934 0.57650 0.42177
 C741 C 0.93997 0.36384 0.43903
 H742 H 0.94667 0.38010 0.44569
 C743 C 0.92166 0.32226 0.42095
 C744 C 1.06001 0.63506 0.43800
 H745 H 1.05364 0.61854 0.44430
 C746 C 1.07752 0.67722 0.42082
 C747 C 0.93886 0.55920 0.36282
 H748 H 0.94558 0.55268 0.37918
 C749 C 0.92058 0.57709 0.32115
 C750 C 1.06106 0.43903 0.36212
 H751 H 1.05490 0.44552 0.37873
 C752 C 1.07772 0.42129 0.31954
 C753 C 1.06100 0.36534 0.43897
 H754 H 1.05481 0.38204 0.44501
 C755 C 1.07777 0.32246 0.42263
 C756 C 0.94016 0.63546 0.43837
 H757 H 0.94652 0.61891 0.44461
 C758 C 0.92264 0.67777 0.42141
 C759 C 0.86384 0.56052 0.43952
 H760 H 0.88081 0.55464 0.44519
 C761 C 0.82025 0.57642 0.42412
 C762 C 1.13695 0.44052 0.43819
 H763 H 1.11987 0.44620 0.44378
 C764 C 1.18081 0.42500 0.42301
 O765 O 1.02330 0.41792 0.61655
 O766 O 1.02352 0.39097 0.64378
 C767 C 1.03131 0.40985 0.63552
 C768 C 1.05036 0.42215 0.64770
 C769 C 1.05801 0.41464 0.66966
 H770 H 1.04880 0.40073 0.67831
 O771 O 0.97726 0.58297 0.61637
 O772 O 0.97732 0.61008 0.64349
 C773 C 0.96932 0.59122 0.63529
 C774 C 0.95003 0.57918 0.64739
 C775 C 0.94152 0.58761 0.66868
 H776 H 0.95025 0.60204 0.67701
 O777 O 0.88377 0.52317 0.58411
 O778 O 0.85640 0.52330 0.61102
 C779 C 0.86490 0.53129 0.59223
 C780 C 0.85315 0.55061 0.57995
 C781 C 0.83208 0.55975 0.58835
 H782 H 0.82429 0.55241 0.60384
 O783 O 1.11685 0.47840 0.58408
 O784 O 1.14419 0.47852 0.61100
 C785 C 1.13587 0.47059 0.59210
 C786 C 1.14809 0.45174 0.57952
 C787 C 1.16977 0.44362 0.58727
 H788 H 1.17767 0.45139 0.60251
 O789 O 1.08491 0.38645 0.52256
 O790 O 1.11193 0.35931 0.52259
 C791 C 1.09315 0.36769 0.53072
 C792 C 1.08101 0.35581 0.55017
 C793 C 1.08965 0.33485 0.55924
 H794 H 1.10538 0.32758 0.55194
 O795 O 0.91694 0.61556 0.52264
 O796 O 0.89001 0.64281 0.52251
 C797 C 0.90879 0.63446 0.53061
 C798 C 0.92078 0.64639 0.55005
 C799 C 0.91215 0.66745 0.55879
 H800 H 0.89764 0.67573 0.55013
 O801 O 0.91509 0.47762 0.61593
 O802 O 0.88782 0.47743 0.64294
 C803 C 0.90679 0.46955 0.63476
 C804 C 0.91926 0.45058 0.64694
 C805 C 0.91084 0.44155 0.66808
 H806 H 0.89491 0.44846 0.67533
 O807 O 1.08481 0.52327 0.61619
 O808 O 1.11192 0.52344 0.64334
 C809 C 1.09293 0.53120 0.63515
 C810 C 1.08034 0.54995 0.64747
 C811 C 1.08820 0.55814 0.66911
 H812 H 1.10355 0.55049 0.67688
 O813 O 0.97779 0.38586 0.58505
 O814 O 0.97813 0.35885 0.61223
 C815 C 0.96999 0.36697 0.59336
 C816 C 0.95095 0.35462 0.58119
 C817 C 0.94242 0.33346 0.58979
 H818 H 0.94998 0.32611 0.60540
 O819 O 1.02269 0.61446 0.58434
 O820 O 1.02293 0.64167 0.61134
 C821 C 1.03082 0.63328 0.59243
 C822 C 1.04996 0.64519 0.57992
 C823 C 1.05891 0.66634 0.58820
 H824 H 1.05166 0.67396 0.60384
 O825 O 0.88518 0.41577 0.52316
 O826 O 0.85822 0.38861 0.52332
 C827 C 0.86630 0.40757 0.53116
 C828 C 0.85379 0.42010 0.54994
 C829 C 0.83205 0.41227 0.55782
 H830 H 0.82469 0.39676 0.55021
 O831 O 1.11594 0.58305 0.52155
 O832 O 1.14275 0.61036 0.52134
 C833 C 1.13481 0.59144 0.52938
 C834 C 1.14717 0.57961 0.54866
 C835 C 1.16859 0.58805 0.55673
 H836 H 1.17691 0.60205 0.54737
 O837 O 1.02258 0.58325 0.61676
 O838 O 1.02266 0.61034 0.64390
 C839 C 1.03053 0.59143 0.63571
 C840 C 1.04962 0.57921 0.64787
 C841 C 1.05745 0.58689 0.66972
 H842 H 1.04843 0.60097 0.67835
 O843 O 0.97790 0.41826 0.61636
 O844 O 0.97818 0.39131 0.64359
 C845 C 0.97007 0.41011 0.63535
 C846 C 0.95071 0.42208 0.64748
 C847 C 0.94265 0.41397 0.66906
 H848 H 0.95211 0.40020 0.67765
 O849 O 1.11653 0.52362 0.58431
 O850 O 1.14381 0.52393 0.61128
 C851 C 1.13536 0.53180 0.59242
 C852 C 1.14719 0.55093 0.57993
 C853 C 1.16816 0.56024 0.58834
 H854 H 1.17551 0.55335 0.60424
 O855 O 0.88367 0.47795 0.58363
 O856 O 0.85619 0.47794 0.61043
 C857 C 0.86462 0.47009 0.59152
 C858 C 0.85266 0.45105 0.57899
 C859 C 0.83054 0.44350 0.58606
 H860 H 0.82155 0.45295 0.59963
 O861 O 1.08330 0.61418 0.52175
 O862 O 1.11009 0.64151 0.52156
 C863 C 1.09131 0.63314 0.52965
 C864 C 1.07916 0.64522 0.54895
 C865 C 1.08738 0.66665 0.55708
 H866 H 1.10158 0.67501 0.54801
 O867 O 0.91731 0.38428 0.52309
 O868 O 0.89045 0.35701 0.52332
 C869 C 0.90928 0.36544 0.53120
 C870 C 0.92154 0.35370 0.55055
 C871 C 0.91357 0.33232 0.55907
 H872 H 0.89934 0.32367 0.55031
 O873 O 1.08528 0.47814 0.61620
 O874 O 1.11243 0.47818 0.64332
 C875 C 1.09352 0.47023 0.63512
 C876 C 1.08108 0.45136 0.64739
 C877 C 1.08887 0.44323 0.66911
 H878 H 1.10418 0.45089 0.67691
 O879 O 0.91533 0.52284 0.61610
 O880 O 0.88812 0.52287 0.64317
 C881 C 0.90707 0.53079 0.63501
 C882 C 0.91936 0.54986 0.64719
 C883 C 0.91077 0.55889 0.66826
 H884 H 0.89513 0.55163 0.67579
 O885 O 0.97725 0.61509 0.58488
 O886 O 0.97738 0.64230 0.61188
 C887 C 0.96931 0.63400 0.59305
 C888 C 0.95011 0.64606 0.58082
 C889 C 0.94089 0.66689 0.58963
 H890 H 0.94810 0.67427 0.60540
 O891 O 1.02320 0.38658 0.58402
 O892 O 1.02351 0.35955 0.61117
 C893 C 1.03126 0.36772 0.59212
 C894 C 1.05041 0.35562 0.57973
 C895 C 1.05868 0.33419 0.58785
 H896 H 1.04960 0.32577 0.60200
 O897 O 1.11689 0.41801 0.52216
 O898 O 1.14402 0.39095 0.52211
 C899 C 1.13588 0.40988 0.53000
 C900 C 1.14819 0.42221 0.54899
 C901 C 1.17007 0.41459 0.55670
 H902 H 1.17858 0.40043 0.54770
 O903 O 0.88494 0.58390 0.52252
 O904 O 0.85799 0.61112 0.52236
 C905 C 0.86602 0.59220 0.53036
 C906 C 0.85363 0.58017 0.54948
 C907 C 0.83233 0.58872 0.55779
 H908 H 0.82424 0.60327 0.54904
 Cu909 Cu 1.00053 0.40485 0.59777
 Cu910 Cu 1.00090 0.37247 0.63041
 Cu911 Cu 0.99994 0.59625 0.59786
 Cu912 Cu 1.00010 0.62884 0.63036
 Cu913 Cu 0.90389 0.40263 0.50038
 Cu914 Cu 0.87157 0.36996 0.50061
 Cu915 Cu 1.09803 0.40484 0.49959
 Cu916 Cu 1.13050 0.37230 0.49955
 Cu917 Cu 0.90375 0.59697 0.49984
 Cu918 Cu 0.87142 0.62969 0.49971
 Cu919 Cu 1.09684 0.59589 0.49889
 Cu920 Cu 1.12901 0.62868 0.49873
 Cu921 Cu 0.90219 0.50037 0.59725
 Cu922 Cu 0.86938 0.50034 0.62960
 Cu923 Cu 1.09816 0.50082 0.59748
 Cu924 Cu 1.13085 0.50102 0.62994
 C925 C 1.06178 0.44073 0.63689
 H926 H 1.05601 0.44653 0.61990
 C927 C 1.07741 0.42488 0.68049
 C928 C 0.93905 0.56008 0.63697
 H929 H 0.94543 0.55360 0.62044
 C930 C 0.92172 0.57782 0.67917
 C931 C 0.86372 0.56090 0.56047
 H932 H 0.88024 0.55433 0.55424
 C933 C 0.82149 0.57885 0.57738
 C934 C 1.13752 0.44100 0.56030
 H935 H 1.12057 0.44685 0.55454
 C936 C 1.18100 0.42508 0.57594
 C937 C 1.06142 0.36607 0.56059
 H938 H 1.05512 0.38259 0.55422
 C939 C 1.07858 0.32373 0.57807
 C940 C 0.93997 0.63601 0.56098
 H941 H 0.94659 0.61967 0.55442
 C942 C 0.92186 0.67775 0.57876
 C943 C 0.93917 0.44068 0.63680
 H944 H 0.94532 0.44702 0.62014
 C945 C 0.92243 0.42320 0.67941
 C946 C 1.06096 0.56052 0.63706
 H947 H 1.05512 0.55464 0.62012
 C948 C 1.07683 0.57655 0.68048
 C949 C 0.94044 0.36454 0.56152
 H950 H 0.94656 0.38111 0.55512
 C951 C 0.92375 0.32209 0.57882
 C952 C 1.06022 0.63479 0.56026
 H953 H 1.05386 0.61819 0.55414
 C954 C 1.07766 0.67725 0.57691
 C955 C 0.86393 0.43950 0.56063
 H956 H 0.88098 0.44524 0.55508
 C957 C 0.82006 0.42395 0.57574
 C958 C 1.13685 0.56077 0.56010
 H959 H 1.12032 0.55418 0.55395
 C960 C 1.17917 0.57880 0.57682
 O961 O 0.47765 0.91717 0.38278
 O962 O 0.47782 0.88994 0.35578
 C963 C 0.46991 0.90891 0.36380
 C964 C 0.45099 0.92110 0.35135
 C965 C 0.44331 0.91315 0.32960
 H966 H 0.45247 0.89901 0.32124
 O967 O 0.52288 1.08398 0.38162
 O968 O 0.52289 1.11094 0.35439
 C969 C 0.53084 1.09210 0.36265
 C970 C 0.54979 1.07968 0.35036
 C971 C 0.55793 1.08756 0.32871
 H972 H 0.55027 1.10298 0.32119
 O973 O 0.38507 0.97775 0.41451
 O974 O 0.35773 0.97762 0.38759
 C975 C 0.36617 0.96968 0.40644
 C976 C 0.35432 0.95043 0.41876
 C977 C 0.33361 0.94098 0.40991
 H978 H 0.32614 0.94809 0.39415
 O979 O 0.61523 1.02378 0.41362
 O980 O 0.64256 1.02386 0.38667
 C981 C 0.63409 1.03186 0.40550
 C982 C 0.64605 1.05093 0.41797
 C983 C 0.66774 1.05908 0.41030
 H984 H 0.67574 1.05132 0.39509
 O985 O 0.41662 0.88516 0.47687
 O986 O 0.38976 0.85789 0.47701
 C987 C 0.40855 0.86621 0.46896
 C988 C 0.42076 0.85417 0.44968
 C989 C 0.41283 0.83260 0.44149
 H990 H 0.39860 0.82409 0.45038
 O991 O 0.58313 1.11574 0.47619
 O992 O 0.60994 1.14304 0.47623
 C993 C 0.59111 1.13472 0.46828
 C994 C 0.57892 1.14678 0.44900
 C995 C 0.58708 1.16822 0.44082
 H996 H 0.60101 1.17674 0.45014
 O997 O 0.41688 1.02253 0.38201
 O998 O 0.38970 1.02250 0.35493
 C999 C 0.40879 1.03022 0.36295
 C1000 C 0.42138 1.04881 0.35040
 C1001 C 0.41444 1.05571 0.32800
 H1002 H 0.40088 1.04603 0.31931
 O1003 O 0.58457 0.97748 0.38231
 O1004 O 0.61180 0.97723 0.35526
 C1005 C 0.59300 0.96919 0.36362
 C1006 C 0.58088 0.94981 0.35180
 C1007 C 0.58929 0.94067 0.33069
 H1008 H 0.60505 0.94776 0.32330
 O1009 O 0.52279 0.88565 0.41514
 O1010 O 0.52293 0.85828 0.38829
 C1011 C 0.53080 0.86670 0.40716
 C1012 C 0.54977 0.85465 0.41973
 C1013 C 0.55774 0.83286 0.41220
 H1014 H 0.54981 0.82487 0.39709
 O1015 O 0.47740 1.11575 0.41346
 O1016 O 0.47733 1.14279 0.38632
 C1017 C 0.46932 1.13453 0.40520
 C1018 C 0.44998 1.14647 0.41738
 C1019 C 0.44060 1.16717 0.40847
 H1020 H 0.44778 1.17452 0.39269
 O1021 O 0.38547 1.08377 0.47624
 O1022 O 0.35830 1.11077 0.47621
 C1023 C 0.36644 1.09177 0.46843
 C1024 C 0.35403 1.07923 0.44964
 C1025 C 0.33170 1.08623 0.44270
 H1026 H 0.32301 1.09977 0.45244
 O1027 O 0.61601 0.91795 0.47603
 O1028 O 0.64307 0.89084 0.47610
 C1029 C 0.63488 0.90968 0.46806
 C1030 C 0.64718 0.92198 0.44903
 C1031 C 0.66905 0.91436 0.44124
 H1032 H 0.67692 0.89929 0.44927
 O1033 O 0.47753 1.08390 0.38173
 O1034 O 0.47748 1.11079 0.35443
 C1035 C 0.46957 1.09195 0.36275
 C1036 C 0.45071 1.07938 0.35052
 C1037 C 0.44290 1.08669 0.32853
 H1038 H 0.45065 1.10190 0.32074
 O1039 O 0.52287 0.91712 0.38295
 O1040 O 0.52300 0.88984 0.35600
 C1041 C 0.53083 0.90881 0.36406
 C1042 C 0.54997 0.92085 0.35178
 C1043 C 0.55790 0.91269 0.33017
 H1044 H 0.54848 0.89881 0.32173
 O1045 O 0.61610 0.97863 0.41434
 O1046 O 0.64352 0.97860 0.38747
 C1047 C 0.63524 0.97089 0.40648
 C1048 C 0.64753 0.95221 0.41922
 C1049 C 0.66964 0.94470 0.41203
 H1050 H 0.67834 0.95375 0.39800
 O1051 O 0.38513 1.02309 0.41410
 O1052 O 0.35771 1.02314 0.38727
 C1053 C 0.36618 1.03110 0.40610
 C1054 C 0.35410 1.05003 0.41878
 C1055 C 0.33214 1.05789 0.41150
 H1056 H 0.32425 1.05018 0.39624
 O1057 O 0.41690 1.11605 0.47576
 O1058 O 0.38982 1.14314 0.47565
 C1059 C 0.40865 1.13484 0.46763
 C1060 C 0.42057 1.14671 0.44811
 C1061 C 0.41178 1.16765 0.43926
 H1062 H 0.39719 1.17587 0.44788
 O1063 O 0.58410 0.88620 0.47659
 O1064 O 0.61102 0.85895 0.47672
 C1065 C 0.59208 0.86714 0.46885
 C1066 C 0.57953 0.85475 0.45007
 C1067 C 0.58693 0.83272 0.44263
 H1068 H 0.60103 0.82422 0.45173
 O1069 O 0.58374 1.02269 0.38137
 O1070 O 0.61086 1.02262 0.35421
 C1071 C 0.59180 1.03038 0.36228
 C1072 C 0.57924 1.04915 0.34988
 C1073 C 0.58663 1.05676 0.32783
 H1074 H 0.60053 1.04753 0.31914
 O1075 O 0.41622 0.97747 0.38210
 O1076 O 0.38902 0.97734 0.35503
 C1077 C 0.40794 0.96943 0.36323
 C1078 C 0.42033 0.95039 0.35114
 C1079 C 0.41242 0.94179 0.32963
 H1080 H 0.39705 0.94925 0.32174
 O1081 O 0.52283 1.11556 0.41363
 O1082 O 0.52292 1.14265 0.38655
 C1083 C 0.53089 1.13436 0.40545
 C1084 C 0.55002 1.14636 0.41785
 C1085 C 0.55912 1.16731 0.40929
 H1086 H 0.55210 1.17448 0.39337
 O1087 O 0.47731 0.88555 0.41483
 O1088 O 0.47746 0.85825 0.38791
 C1089 C 0.46937 0.86664 0.40672
 C1090 C 0.45025 0.85455 0.41905
 C1091 C 0.44177 0.83323 0.41081
 H1092 H 0.44940 0.82562 0.39535
 O1093 O 0.61510 1.08401 0.47597
 O1094 O 0.64199 1.11126 0.47597
 C1095 C 0.63390 1.09235 0.46796
 C1096 C 0.64610 1.08027 0.44872
 C1097 C 0.66797 1.08793 0.44104
 H1098 H 0.67650 1.10200 0.45014
 O1099 O 0.38521 0.91741 0.47689
 O1100 O 0.35828 0.89021 0.47687
 C1101 C 0.36642 0.90910 0.46886
 C1102 C 0.35437 0.92102 0.44944
 C1103 C 0.33343 0.91217 0.44061
 H1104 H 0.32532 0.89753 0.44916
 Cu1105 Cu 0.50014 0.90408 0.40166
 Cu1106 Cu 0.50032 0.87131 0.36931
 Cu1107 Cu 0.50016 1.09712 0.40034
 Cu1108 Cu 0.50016 1.12954 0.36772
 Cu1109 Cu 0.40352 1.00025 0.40089
 Cu1110 Cu 0.37073 1.00022 0.36855
 Cu1111 Cu 0.59717 1.00067 0.40058
 Cu1112 Cu 0.62992 1.00061 0.36817
 C1113 C 0.43965 0.93995 0.36179
 H1114 H 0.44547 0.94607 0.37865
 C1115 C 0.42383 0.92312 0.31866
 C1116 C 0.56053 1.06045 0.36076
 H1117 H 0.55476 1.05470 0.37777
 C1118 C 0.57622 1.07614 0.31706
 C1119 C 0.36451 0.94037 0.43859
 H1120 H 0.38079 0.94716 0.44518
 C1121 C 0.32302 0.92180 0.42068
 C1122 C 0.63543 1.06158 0.43725
 H1123 H 0.61851 1.05567 0.44301
 C1124 C 0.67894 1.07751 0.42178
 C1125 C 0.43968 0.86482 0.43854
 H1126 H 0.44579 0.88151 0.44468
 C1127 C 0.42312 0.82198 0.42196
 C1128 C 0.56009 1.13622 0.43768
 H1129 H 0.55371 1.11968 0.44392
 C1130 C 0.57766 1.17855 0.42068
 C1131 C 0.43982 1.06045 0.36129
 H1132 H 0.44529 1.05516 0.37854
 C1133 C 0.42488 1.07485 0.31688
 C1134 C 0.56127 0.93970 0.36223
 H1135 H 0.55514 0.94612 0.37887
 C1136 C 0.57785 0.92211 0.31956
 C1137 C 0.56072 0.86539 0.43873
 H1138 H 0.55502 0.88242 0.44430
 C1139 C 0.57625 0.82163 0.42359
 C1140 C 0.43988 1.13643 0.43725
 H1141 H 0.44663 1.12019 0.44388
 C1142 C 0.42146 1.17794 0.41928
 C1143 C 0.36489 1.06084 0.43785
 H1144 H 0.38209 1.05533 0.44317
 C1145 C 0.32059 1.07590 0.42344
 C1146 C 0.63663 0.94096 0.43795
 H1147 H 0.61953 0.94660 0.44351
 C1148 C 0.68056 0.92568 0.42282
 O1149 O 0.52305 0.91895 0.61642
 O1150 O 0.52311 0.89195 0.64361
 C1151 C 0.53101 0.91081 0.63538
 C1152 C 0.55017 0.92296 0.64752
 C1153 C 0.55808 0.91515 0.66928
 H1154 H 0.54901 0.90110 0.67785
 O1155 O 0.47758 1.08294 0.61663
 O1156 O 0.47744 1.10999 0.64380
 C1157 C 0.46966 1.09103 0.63561
 C1158 C 0.45062 1.07869 0.64775
 C1159 C 0.44334 1.08567 0.67002
 H1160 H 0.45314 1.09894 0.67900
 O1161 O 0.38367 1.02374 0.58274
 O1162 O 0.35626 1.02393 0.60962
 C1163 C 0.36471 1.03175 0.59073
 C1164 C 0.35285 1.05091 0.57832
 C1165 C 0.33141 1.05941 0.58630
 H1166 H 0.32283 1.05076 0.60065
 O1167 O 0.61652 0.97892 0.58367
 O1168 O 0.64399 0.97889 0.61045
 C1169 C 0.63554 0.97099 0.59160
 C1170 C 0.64763 0.95206 0.57898
 C1171 C 0.66929 0.94385 0.58672
 H1172 H 0.67722 0.95159 0.60195
 O1173 O 0.58415 0.88697 0.52200
 O1174 O 0.61107 0.85972 0.52213
 C1175 C 0.59222 0.86811 0.53008
 C1176 C 0.57989 0.85618 0.54930
 C1177 C 0.58748 0.83441 0.55718
 H1178 H 0.60160 0.82577 0.54820
 O1179 O 0.41760 1.11575 0.52138
 O1180 O 0.39064 1.14296 0.52122
 C1181 C 0.40945 1.13463 0.52933
 C1182 C 0.42135 1.14648 0.54890
 C1183 C 0.41297 1.16777 0.55729
 H1184 H 0.39908 1.17637 0.54795
 O1185 O 0.41501 0.97857 0.61506
 O1186 O 0.38775 0.97853 0.64209
 C1187 C 0.40679 0.97070 0.63401
 C1188 C 0.41944 0.95208 0.64649
 C1189 C 0.41187 0.94422 0.66839
 H1190 H 0.39653 0.95188 0.67620
 O1191 O 0.58511 1.02420 0.61598
 O1192 O 0.61240 1.02422 0.64294
 C1193 C 0.59347 1.03219 0.63482
 C1194 C 0.58121 1.05123 0.64709
 C1195 C 0.58969 1.05999 0.66827
 H1196 H 0.60549 1.05273 0.67544
 O1197 O 0.47775 0.88699 0.58452
 O1198 O 0.47783 0.85996 0.61167
 C1199 C 0.46984 0.86812 0.59274
 C1200 C 0.45085 0.85583 0.58040
 C1201 C 0.44242 0.83452 0.58872
 H1202 H 0.45002 0.82701 0.60424
 O1203 O 0.52249 1.11479 0.58436
 O1204 O 0.52235 1.14218 0.61119
 C1205 C 0.53030 1.13382 0.59229
 C1206 C 0.54907 1.14603 0.57953
 C1207 C 0.55694 1.16788 0.58699
 H1208 H 0.54917 1.17581 0.60222
 O1209 O 0.38455 0.91681 0.52240
 O1210 O 0.35756 0.88967 0.52240
 C1211 C 0.36565 0.90857 0.53036
 C1212 C 0.35321 0.92095 0.54927
 C1213 C 0.33160 0.91297 0.55738
 H1214 H 0.32425 0.89744 0.54979
 O1215 O 0.61574 1.08418 0.52149
 O1216 O 0.64252 1.11152 0.52142
 C1217 C 0.63463 1.09254 0.52936
 C1218 C 0.64707 1.08052 0.54851
 C1219 C 0.66857 1.08883 0.55658
 H1220 H 0.67683 1.10297 0.54738
 O1221 O 0.52287 1.08377 0.61695
 O1222 O 0.52279 1.11099 0.64395
 C1223 C 0.53084 1.09213 0.63581
 C1224 C 0.55024 1.08020 0.64786
 C1225 C 0.55843 1.08817 0.66949
 H1226 H 0.54922 1.10208 0.67817
 O1227 O 0.47768 0.91912 0.61608
 O1228 O 0.47777 0.89220 0.64335
 C1229 C 0.46976 0.91101 0.63505
 C1230 C 0.45056 0.92321 0.64714
 C1231 C 0.44307 0.91593 0.66922
 H1232 H 0.45247 0.90224 0.67803
 O1233 O 0.61649 1.02419 0.58381
 O1234 O 0.64393 1.02429 0.61063
 C1235 C 0.63541 1.03225 0.59184
 C1236 C 0.64723 1.05142 0.57940
 C1237 C 0.66828 1.06056 0.58778
 H1238 H 0.67570 1.05346 0.60355
 O1239 O 0.38334 0.97858 0.58298
 O1240 O 0.35589 0.97866 0.60980
 C1241 C 0.36430 0.97075 0.59092
 C1242 C 0.35228 0.95173 0.57846
 C1243 C 0.33026 0.94409 0.58573
 H1244 H 0.32139 0.95351 0.59940
 O1245 O 0.58294 1.11518 0.52170
 O1246 O 0.60964 1.14259 0.52164
 C1247 C 0.59083 1.13418 0.52960
 C1248 C 0.57837 1.14628 0.54867
 C1249 C 0.58558 1.16835 0.55600
 H1250 H 0.59936 1.17705 0.54660
 O1251 O 0.41720 0.88585 0.52236
 O1252 O 0.39031 0.85860 0.52249
 C1253 C 0.40916 0.86698 0.53041
 C1254 C 0.42143 0.85514 0.54971
 C1255 C 0.41358 0.83361 0.55797
 H1256 H 0.39942 0.82498 0.54909
 O1257 O 0.58511 0.97897 0.61601
 O1258 O 0.61239 0.97885 0.64298
 C1259 C 0.59340 0.97100 0.63489
 C1260 C 0.58096 0.95212 0.64718
 C1261 C 0.58896 0.94373 0.66872
 H1262 H 0.60437 0.95127 0.67646
 O1263 O 0.41487 1.02372 0.61522
 O1264 O 0.38764 1.02380 0.64227
 C1265 C 0.40665 1.03160 0.63419
 C1266 C 0.41931 1.05016 0.64676
 C1267 C 0.41165 1.05802 0.66864
 H1268 H 0.39606 1.05060 0.67607
 O1269 O 0.47708 1.11481 0.58486
 O1270 O 0.47680 1.14202 0.61186
 C1271 C 0.46890 1.13364 0.59298
 C1272 C 0.44980 1.14567 0.58049
 C1273 C 0.44051 1.16652 0.58917
 H1274 H 0.44729 1.17356 0.60526
 O1275 O 0.52318 0.88754 0.58416
 O1276 O 0.52329 0.86043 0.61123
 C1277 C 0.53122 0.86870 0.59231
 C1278 C 0.55027 0.85657 0.57986
 C1279 C 0.55843 0.83500 0.58776
 H1280 H 0.55062 0.82723 0.60304
 O1281 O 0.61638 0.91833 0.52153
 O1282 O 0.64343 0.89121 0.52160
 C1283 C 0.63533 0.91017 0.52944
 C1284 C 0.64764 0.92251 0.54843
 C1285 C 0.66949 0.91481 0.55617
 H1286 H 0.67797 0.90061 0.54719
 O1287 O 0.38485 1.08495 0.52166
 O1288 O 0.35787 1.11214 0.52151
 C1289 C 0.36597 1.09331 0.52958
 C1290 C 0.35361 1.08127 0.54870
 C1291 C 0.33240 1.08990 0.55730
 H1292 H 0.32503 1.10546 0.54976
 Cu1293 Cu 0.50040 0.90585 0.59758
 Cu1294 Cu 0.50051 0.87342 0.63018
 Cu1295 Cu 0.50003 1.09636 0.59801
 Cu1296 Cu 0.49982 1.12905 0.63039
 Cu1297 Cu 0.40359 0.90402 0.49964
 Cu1298 Cu 0.37128 0.87137 0.49970
 Cu1299 Cu 0.59748 0.90510 0.49900
 Cu1300 Cu 0.62986 0.87245 0.49914
 Cu1301 Cu 0.40393 1.09744 0.49876
 Cu1302 Cu 0.37151 1.13003 0.49858
 Cu1303 Cu 0.59656 1.09703 0.49886
 Cu1304 Cu 0.62870 1.12984 0.49884
 Cu1305 Cu 0.40195 1.00113 0.59631
 Cu1306 Cu 0.36910 1.00123 0.62863
 Cu1307 Cu 0.59807 1.00154 0.59719
 Cu1308 Cu 0.63095 1.00152 0.62945
 C1309 C 0.56150 0.94166 0.63680
 H1310 H 0.55555 0.94766 0.61994
 C1311 C 0.57760 0.92525 0.68000
 C1312 C 0.43879 1.06062 0.63649
 H1313 H 0.44437 1.05513 0.61932
 C1314 C 0.42364 1.07569 0.68063
 C1315 C 0.36363 1.06173 0.55928
 H1316 H 0.38025 1.05535 0.55312
 C1317 C 0.32113 1.07911 0.57615
 C1318 C 0.63702 0.94135 0.55975
 H1319 H 0.62009 0.94725 0.55400
 C1320 C 0.68045 0.92527 0.57540
 C1321 C 0.56107 0.86698 0.56056
 H1322 H 0.55520 0.88383 0.55466
 C1323 C 0.57697 0.82369 0.57649
 C1324 C 0.44006 1.13578 0.56036
 H1325 H 0.44661 1.11934 0.55398
 C1326 C 0.42209 1.17786 0.57767
 C1327 C 0.43885 0.94150 0.63608
 H1328 H 0.44449 0.94711 0.61899
 C1329 C 0.42362 0.92618 0.67999
 C1330 C 0.56148 1.06146 0.63705
 H1331 H 0.55523 1.05522 0.62039
 C1332 C 0.57833 1.07833 0.67988
 C1333 C 0.44028 0.86594 0.56083
 H1334 H 0.44632 0.88262 0.55464
 C1335 C 0.42382 0.82318 0.57760
 C1336 C 0.55988 1.13541 0.56032
 H1337 H 0.55430 1.11834 0.55479
 C1338 C 0.57516 1.17928 0.57529
 C1339 C 0.36339 0.94032 0.55994
 H1340 H 0.38036 0.94616 0.55424
 C1341 C 0.31974 0.92452 0.57550
 C1342 C 0.63679 1.06153 0.55977
 H1343 H 0.62021 1.05505 0.55365
 C1344 C 0.67928 1.07924 0.57645
 O1345 O 0.58498 0.52270 1.11615
 O1346 O 0.61236 0.52303 1.14303
 C1347 C 0.59330 0.53078 1.13496
 C1348 C 0.58082 0.54966 1.14723
 C1349 C 0.58859 0.55780 1.16894
 H1350 H 0.60389 0.55010 1.17675
 O1351 O 0.41558 0.47731 1.11574
 O1352 O 0.38843 0.47733 1.14288
 C1353 C 0.40742 0.46946 1.13473
 C1354 C 0.42012 0.45087 1.14722
 C1355 C 0.41262 0.44311 1.16918
 H1356 H 0.39717 0.45067 1.17680
 O1357 O 0.52261 0.61405 1.08410
 O1358 O 0.52264 0.64139 1.11097
 C1359 C 0.53050 0.63303 1.09203
 C1360 C 0.54928 0.64521 1.07925
 C1361 C 0.55737 0.66693 1.08683
 H1362 H 0.54972 0.67482 1.10214
 O1363 O 0.47852 0.38569 1.08551
 O1364 O 0.47868 0.35868 1.11268
 C1365 C 0.47068 0.36680 1.09375
 C1366 C 0.45170 0.35449 1.08144
 C1367 C 0.44287 0.33347 1.09017
 H1368 H 0.45021 0.32610 1.10588
 O1369 O 0.61498 0.58257 1.02147
 O1370 O 0.64170 0.60998 1.02118
 C1371 C 0.63384 0.59102 1.02924
 C1372 C 0.64640 0.57909 1.04832
 C1373 C 0.66796 0.58743 1.05609
 H1374 H 0.67608 0.60170 1.04693
 O1375 O 0.38490 0.41515 1.02346
 O1376 O 0.35828 0.38765 1.02388
 C1377 C 0.36622 0.40670 1.03167
 C1378 C 0.35388 0.41905 1.05067
 C1379 C 0.33259 0.41076 1.05936
 H1380 H 0.32543 0.39495 1.05220
 O1381 O 0.47770 0.58230 1.11650
 O1382 O 0.47767 0.60940 1.14363
 C1383 C 0.46985 0.59044 1.13550
 C1384 C 0.45088 0.57810 1.14776
 C1385 C 0.44349 0.58531 1.16992
 H1386 H 0.45309 0.59885 1.17873
 O1387 O 0.52364 0.41777 1.11743
 O1388 O 0.52378 0.39082 1.14468
 C1389 C 0.53155 0.40972 1.13645
 C1390 C 0.55052 0.42208 1.14866
 C1391 C 0.55794 0.41487 1.17080
 H1392 H 0.54832 0.40137 1.17962
 O1393 O 0.61645 0.47748 1.08400
 O1394 O 0.64402 0.47760 1.11067
 C1395 C 0.63546 0.46955 1.09192
 C1396 C 0.64732 0.45038 1.07947
 C1397 C 0.66844 0.44136 1.08778
 H1398 H 0.67621 0.44870 1.10330
 O1399 O 0.38407 0.52252 1.08361
 O1400 O 0.35675 0.52268 1.11058
 C1401 C 0.36515 0.53055 1.09169
 C1402 C 0.35326 0.54973 1.07936
 C1403 C 0.33165 0.55799 1.08719
 H1404 H 0.32301 0.54926 1.10146
 O1405 O 0.41734 0.61472 1.02164
 O1406 O 0.39043 0.64199 1.02161
 C1407 C 0.40930 0.63367 1.02956
 C1408 C 0.42142 0.64565 1.04889
 C1409 C 0.41326 0.66710 1.05704
 H1410 H 0.39940 0.67569 1.04767
 O1411 O 0.58363 0.38574 1.02164
 O1412 O 0.61040 0.35834 1.02159
 C1413 C 0.59157 0.36676 1.02957
 C1414 C 0.57933 0.35475 1.04885
 C1415 C 0.58695 0.33292 1.05650
 H1416 H 0.60051 0.32416 1.04682
 O1417 O 0.41553 0.52251 1.11579
 O1418 O 0.38837 0.52261 1.14291
 C1419 C 0.40733 0.53046 1.13474
 C1420 C 0.41988 0.54921 1.14713
 C1421 C 0.41217 0.55724 1.16893
 H1422 H 0.39668 0.54973 1.17649
 O1423 O 0.58549 0.47756 1.11663
 O1424 O 0.61286 0.47772 1.14352
 C1425 C 0.59388 0.46974 1.13553
 C1426 C 0.58148 0.45097 1.14800
 C1427 C 0.58929 0.44292 1.16974
 H1428 H 0.60479 0.45044 1.17725
 O1429 O 0.52388 0.38644 1.08504
 O1430 O 0.52416 0.35935 1.11213
 C1431 C 0.53197 0.36761 1.09314
 C1432 C 0.55081 0.35542 1.08041
 C1433 C 0.55938 0.33401 1.08840
 H1434 H 0.55228 0.32666 1.10420
 O1435 O 0.47721 0.61409 1.08465
 O1436 O 0.47711 0.64134 1.11162
 C1437 C 0.46914 0.63296 1.09277
 C1438 C 0.45006 0.64502 1.08029
 C1439 C 0.44099 0.66606 1.08877
 H1440 H 0.44794 0.67328 1.10470
 O1441 O 0.38488 0.58367 1.02231
 O1442 O 0.35791 0.61087 1.02229
 C1443 C 0.36609 0.59205 1.03038
 C1444 C 0.35389 0.58001 1.04963
 C1445 C 0.33250 0.58833 1.05801
 H1446 H 0.32492 0.60367 1.05024
 O1447 O 0.61589 0.41720 1.02170
 O1448 O 0.64271 0.38986 1.02176
 C1449 C 0.63470 0.40883 1.02969
 C1450 C 0.64699 0.42088 1.04888
 C1451 C 0.66832 0.41242 1.05715
 H1452 H 0.67647 0.39789 1.04840
 O1453 O 0.47837 0.41797 1.11691
 O1454 O 0.47852 0.39110 1.14423
 C1455 C 0.47052 0.40992 1.13592
 C1456 C 0.45138 0.42220 1.14802
 C1457 C 0.44418 0.41525 1.17031
 H1458 H 0.45394 0.40190 1.17925
 O1459 O 0.52297 0.58280 1.11649
 O1460 O 0.52299 0.60998 1.14354
 C1461 C 0.53094 0.59109 1.13538
 C1462 C 0.55010 0.57894 1.14756
 C1463 C 0.55778 0.58651 1.16950
 H1464 H 0.54861 0.60048 1.17815
 O1465 O 0.38396 0.47731 1.08360
 O1466 O 0.35664 0.47739 1.11057
 C1467 C 0.36498 0.46944 1.09167
 C1468 C 0.35300 0.45024 1.07943
 C1469 C 0.33125 0.44237 1.08716
 H1470 H 0.32247 0.45188 1.10083
 O1471 O 0.61643 0.52270 1.08399
 O1472 O 0.64402 0.52305 1.11065
 C1473 C 0.63538 0.53084 1.09184
 C1474 C 0.64708 0.54992 1.07916
 C1475 C 0.66837 0.55892 1.08708
 H1476 H 0.67629 0.55170 1.10256
 O1477 O 0.41775 0.38439 1.02321
 O1478 O 0.39121 0.35682 1.02356
 C1479 C 0.40998 0.36545 1.03135
 C1480 C 0.42236 0.35374 1.05068
 C1481 C 0.41412 0.33257 1.05938
 H1482 H 0.39970 0.32407 1.05077
 O1483 O 0.58277 0.61416 1.02137
 O1484 O 0.60944 0.64160 1.02099
 C1485 C 0.59071 0.63323 1.02912
 C1486 C 0.57843 0.64541 1.04826
 C1487 C 0.58596 0.66734 1.05579
 H1488 H 0.59988 0.67594 1.04651
 Cu1489 Cu 0.59810 0.50008 1.09752
 Cu1490 Cu 0.63112 0.50038 1.12963
 Cu1491 Cu 0.40251 0.49989 1.09698
 Cu1492 Cu 0.36978 0.49999 1.12943
 Cu1493 Cu 0.50013 0.59560 1.09773
 Cu1494 Cu 0.50011 0.62828 1.13014
 Cu1495 Cu 0.50110 0.40466 1.09850
 Cu1496 Cu 0.50131 0.37225 1.13114
 C1497 C 0.56152 0.56030 1.13675
 H1498 H 0.55574 0.55445 1.11978
 C1499 C 0.57712 0.57615 1.18034
 C1500 C 0.43950 0.44028 1.13682
 H1501 H 0.44500 0.44573 1.11962
 C1502 C 0.42463 0.42539 1.18105
 C1503 C 0.55988 0.63465 1.05990
 H1504 H 0.55410 0.61768 1.05426
 C1505 C 0.57566 0.67825 1.07516
 C1506 C 0.44137 0.36442 1.06162
 H1507 H 0.44766 0.38090 1.05513
 C1508 C 0.42398 0.32243 1.07932
 C1509 C 0.63629 0.56010 1.05974
 H1510 H 0.61959 0.55367 1.05390
 C1511 C 0.67902 0.57770 1.07565
 C1512 C 0.36394 0.43877 1.06088
 H1513 H 0.38070 0.44481 1.05480
 C1514 C 0.32094 0.42237 1.07758
 C1515 C 0.43924 0.55976 1.13673
 H1516 H 0.44488 0.55411 1.11963
 C1517 C 0.42394 0.57520 1.18068
 C1518 C 0.56211 0.44040 1.13764
 H1519 H 0.55640 0.44604 1.12057
 C1520 C 0.57753 0.42493 1.18150
 C1521 C 0.63679 0.44008 1.05995
 H1522 H 0.62023 0.44658 1.05377
 C1523 C 0.67910 0.42233 1.07676
 C1524 C 0.36407 0.56065 1.06037
 H1525 H 0.38080 0.55444 1.05433
 C1526 C 0.32113 0.57739 1.07672
 C1527 C 0.44011 0.63495 1.06036
 H1528 H 0.44648 0.61838 1.05415
 C1529 C 0.42257 0.67737 1.07723
 C1530 C 0.56096 0.36566 1.06065
 H1531 H 0.55498 0.38250 1.05482
 C1532 C 0.57744 0.32246 1.07653
 O1533 O 0.58473 0.47648 0.88227
 O1534 O 0.61179 0.47643 0.85504
 C1535 C 0.59296 0.46845 0.86339
 C1536 C 0.58070 0.44927 0.85143
 C1537 C 0.58923 0.44014 0.83040
 H1538 H 0.60489 0.44734 0.82285
 O1539 O 0.41357 0.52098 0.88357
 O1540 O 0.38602 0.52101 0.85688
 C1541 C 0.40504 0.52897 0.86481
 C1542 C 0.41724 0.54797 0.85245
 C1543 C 0.40853 0.55691 0.83139
 H1544 H 0.39274 0.54977 0.82407
 O1545 O 0.47634 0.61316 0.91348
 O1546 O 0.47631 0.64009 0.88624
 C1547 C 0.46844 0.63204 0.90525
 C1548 C 0.44958 0.64446 0.91770
 C1549 C 0.44130 0.66590 0.90952
 H1550 H 0.44892 0.67339 0.89401
 O1551 O 0.52226 0.38534 0.91481
 O1552 O 0.52216 0.35796 0.88796
 C1553 C 0.53009 0.36631 0.90685
 C1554 C 0.54908 0.35419 0.91935
 C1555 C 0.55686 0.33231 0.91186
 H1556 H 0.54795 0.32369 0.89768
 O1557 O 0.61621 0.41709 0.97623
 O1558 O 0.64307 0.38977 0.97636
 C1559 C 0.63511 0.40873 0.96838
 C1560 C 0.64746 0.42069 0.94916
 C1561 C 0.66883 0.41223 0.94088
 H1562 H 0.67711 0.39803 0.94999
 O1563 O 0.38471 0.58275 0.97685
 O1564 O 0.35770 0.60991 0.97688
 C1565 C 0.36569 0.59086 0.96911
 C1566 C 0.35294 0.57818 0.95064
 C1567 C 0.33102 0.58588 0.94313
 H1568 H 0.32349 0.60123 0.95095
 O1569 O 0.52144 0.58084 0.88150
 O1570 O 0.52120 0.60766 0.85413
 C1571 C 0.52924 0.58888 0.86243
 C1572 C 0.54850 0.57684 0.85026
 C1573 C 0.55660 0.58504 0.82874
 H1574 H 0.54745 0.59910 0.82026
 O1575 O 0.47726 0.41723 0.88251
 O1576 O 0.47730 0.39007 0.85543
 C1577 C 0.46942 0.40902 0.86355
 C1578 C 0.45028 0.42115 0.85132
 C1579 C 0.44282 0.41358 0.82936
 H1580 H 0.45261 0.40013 0.82059
 O1581 O 0.61609 0.52198 0.91394
 O1582 O 0.64337 0.52216 0.88694
 C1583 C 0.63495 0.53006 0.90583
 C1584 C 0.64679 0.54919 0.91831
 C1585 C 0.66809 0.55805 0.91026
 H1586 H 0.67595 0.55070 0.89478
 O1587 O 0.38292 0.47525 0.91579
 O1588 O 0.35530 0.47497 0.88917
 C1589 C 0.36402 0.46704 0.90788
 C1590 C 0.35247 0.44770 0.92033
 C1591 C 0.33150 0.43833 0.91203
 H1592 H 0.32364 0.44550 0.89649
 O1593 O 0.58249 0.61353 0.97575
 O1594 O 0.60924 0.64090 0.97550
 C1595 C 0.59047 0.63238 0.96756
 C1596 C 0.57832 0.64410 0.94807
 C1597 C 0.58668 0.66525 0.93937
 H1598 H 0.60104 0.67371 0.94810
 O1599 O 0.41700 0.38401 0.97768
 O1600 O 0.39051 0.35639 0.97805
 C1601 C 0.40910 0.36500 0.96979
 C1602 C 0.42116 0.35329 0.95022
 C1603 C 0.41336 0.33170 0.94198
 H1604 H 0.39961 0.32287 0.95128
 O1605 O 0.41417 0.47588 0.88342
 O1606 O 0.38676 0.47567 0.85659
 C1607 C 0.40590 0.46797 0.86451
 C1608 C 0.41866 0.44942 0.85199
 C1609 C 0.41081 0.44094 0.83040
 H1610 H 0.39503 0.44799 0.82297
 O1611 O 0.58446 0.52159 0.88191
 O1612 O 0.61154 0.52177 0.85470
 C1613 C 0.59253 0.52950 0.86292
 C1614 C 0.57983 0.54821 0.85065
 C1615 C 0.58809 0.55710 0.82939
 H1616 H 0.60386 0.55007 0.82188
 O1617 O 0.47684 0.38553 0.91451
 O1618 O 0.47676 0.35831 0.88751
 C1619 C 0.46881 0.36667 0.90639
 C1620 C 0.44985 0.35446 0.91886
 C1621 C 0.44122 0.33329 0.91039
 H1622 H 0.44840 0.32620 0.89448
 O1623 O 0.52178 0.61263 0.91343
 O1624 O 0.52175 0.63952 0.88614
 C1625 C 0.52980 0.63138 0.90506
 C1626 C 0.54901 0.64351 0.91725
 C1627 C 0.55801 0.66443 0.90847
 H1628 H 0.55072 0.67177 0.89273
 O1629 O 0.38457 0.41522 0.97798
 O1630 O 0.35800 0.38767 0.97840
 C1631 C 0.36575 0.40664 0.97025
 C1632 C 0.35321 0.41839 0.95104
 C1633 C 0.33201 0.40956 0.94279
 H1634 H 0.32408 0.39498 0.95161
 O1635 O 0.61502 0.58233 0.97603
 O1636 O 0.64179 0.60969 0.97588
 C1637 C 0.63387 0.59065 0.96808
 C1638 C 0.64633 0.57850 0.94905
 C1639 C 0.66790 0.58669 0.94117
 H1640 H 0.67611 0.60096 0.95025
 O1641 O 0.52263 0.41666 0.88244
 O1642 O 0.52260 0.38936 0.85551
 C1643 C 0.53062 0.40823 0.86360
 C1644 C 0.54996 0.42007 0.85142
 C1645 C 0.55838 0.41153 0.83012
 H1646 H 0.54957 0.39714 0.82184
 O1647 O 0.47601 0.58071 0.88224
 O1648 O 0.47583 0.60757 0.85492
 C1649 C 0.46786 0.58882 0.86337
 C1650 C 0.44833 0.57683 0.85162
 C1651 C 0.43974 0.58511 0.83034
 H1652 H 0.44863 0.59927 0.82176
 O1653 O 0.38271 0.52050 0.91640
 O1654 O 0.35493 0.52041 0.88994
 C1655 C 0.36355 0.52831 0.90874
 C1656 C 0.35168 0.54733 0.92144
 C1657 C 0.32954 0.55495 0.91455
 H1658 H 0.32050 0.54575 0.90083
 O1659 O 0.61654 0.47677 0.91394
 O1660 O 0.64378 0.47672 0.88690
 C1661 C 0.63545 0.46879 0.90579
 C1662 C 0.64746 0.44971 0.91820
 C1663 C 0.66841 0.44047 0.90964
 H1664 H 0.67577 0.44749 0.89380
 O1665 O 0.58391 0.38569 0.97605
 O1666 O 0.61071 0.35832 0.97612
 C1667 C 0.59192 0.36672 0.96811
 C1668 C 0.57946 0.35453 0.94910
 C1669 C 0.58723 0.33283 0.94110
 H1670 H 0.60239 0.32498 0.94903
 O1671 O 0.41642 0.61471 0.97612
 O1672 O 0.38951 0.64198 0.97611
 C1673 C 0.40827 0.63355 0.96804
 C1674 C 0.42035 0.64533 0.94857
 C1675 C 0.41260 0.66698 0.94043
 H1676 H 0.39856 0.67571 0.94944
 Cu1677 Cu 0.59776 0.49923 0.90074
 Cu1678 Cu 0.63038 0.49931 0.86817
 Cu1679 Cu 0.40108 0.49816 0.90246
 Cu1680 Cu 0.36794 0.49802 0.87050
 Cu1681 Cu 0.59611 0.59542 0.99870
 Cu1682 Cu 0.62818 0.62831 0.99837
 Cu1683 Cu 0.59722 0.40416 0.99888
 Cu1684 Cu 0.62939 0.37133 0.99898
 Cu1685 Cu 0.40355 0.59625 0.99919
 Cu1686 Cu 0.37121 0.62894 0.99920
 Cu1687 Cu 0.40371 0.40245 1.00055
 Cu1688 Cu 0.37187 0.36934 1.00102
 Cu1689 Cu 0.49891 0.59415 0.90040
 Cu1690 Cu 0.49876 0.62638 0.86760
 Cu1691 Cu 0.49976 0.40392 0.90126
 Cu1692 Cu 0.49969 0.37118 0.86891
 C1693 C 0.56102 0.43916 0.86175
 H1694 H 0.55468 0.44574 0.87825
 C1695 C 0.57818 0.42126 0.81953
 C1696 C 0.43717 0.55803 0.86237
 H1697 H 0.44365 0.55165 0.87888
 C1698 C 0.41964 0.57558 0.82020
 C1699 C 0.43904 0.63440 0.93729
 H1700 H 0.44500 0.61765 0.94340
 C1701 C 0.42287 0.67743 0.92081
 C1702 C 0.56031 0.36500 0.93817
 H1703 H 0.55451 0.38194 0.94393
 C1704 C 0.57600 0.32147 0.92255
 C1705 C 0.63717 0.43970 0.93797
 H1706 H 0.62066 0.44626 0.94423
 C1707 C 0.67937 0.42170 0.92086
 C1708 C 0.36307 0.55883 0.93975
 H1709 H 0.38021 0.55314 0.94508
 C1710 C 0.31908 0.57435 0.92515
 C1711 C 0.55999 0.55817 0.86089
 H1712 H 0.55391 0.55187 0.87758
 C1713 C 0.57661 0.57559 0.81828
 C1714 C 0.43840 0.43937 0.86227
 H1715 H 0.44412 0.44526 0.87924
 C1716 C 0.42282 0.42299 0.81880
 C1717 C 0.63610 0.55951 0.93776
 H1718 H 0.61939 0.55319 0.94369
 C1719 C 0.67884 0.57685 0.92158
 C1720 C 0.36312 0.43766 0.93990
 H1721 H 0.37956 0.44443 0.94607
 C1722 C 0.32107 0.41924 0.92315
 C1723 C 0.55927 0.63353 0.93709
 H1724 H 0.55283 0.61712 0.94361
 C1725 C 0.57691 0.67546 0.91939
 C1726 C 0.43969 0.36432 0.93878
 H1727 H 0.44581 0.38096 0.94503
 C1728 C 0.42308 0.32156 0.92188
 C1729 C 1.11323 1.11176 1.27046
 C1730 C 1.10815 1.13505 1.27634
 C1731 C 1.11693 1.14469 1.29704
 C1732 C 1.13209 1.13194 1.31144
 C1733 C 1.13766 1.10903 1.30499
 C1734 C 1.12821 1.09902 1.28500
 C1735 C 1.10327 1.10202 1.24841
 C1736 C 1.10508 1.07843 1.24232
 C1737 C 1.09618 1.07034 1.22121
 C1738 C 1.08555 1.08556 1.20533
 C1739 C 1.08311 1.10903 1.21166
 C1740 C 1.09131 1.11717 1.23321
 C1741 C 1.09512 1.14884 1.26108
 C1742 C 1.08741 1.14027 1.23971
 H1743 H 1.09140 1.16677 1.26541
 H1744 H 1.07795 1.15184 1.22824
 H1745 H 1.11273 1.16253 1.30130
 H1746 H 1.14932 1.09861 1.31548
 H1747 H 1.09755 1.05200 1.21744
 H1748 H 1.07509 1.12120 1.19975
 H1749 H 1.13334 1.08148 1.28093
 H1750 H 1.11300 1.06588 1.25377
 C1751 C 1.11426 0.61209 0.76764
 C1752 C 1.11185 0.63616 0.77185
 C1753 C 1.12077 0.64596 0.79238
 C1754 C 1.13287 0.63226 0.80853
 C1755 C 1.13582 0.60854 0.80400
 C1756 C 1.12655 0.59852 0.78392
 C1757 C 1.10413 0.60224 0.74571
 C1758 C 1.10401 0.57832 0.74072
 C1759 C 1.09484 0.57006 0.71980
 C1760 C 1.08567 0.58539 0.70317
 C1761 C 1.08527 0.60924 0.70825
 C1762 C 1.09405 0.61768 0.72943
 C1763 C 1.10102 0.65040 0.75534
 C1764 C 1.09267 0.64142 0.73441
 H1765 H 1.09933 0.66887 0.75847
 H1766 H 1.08478 0.65323 0.72204
 H1767 H 1.11877 0.66440 0.79551
 H1768 H 1.14517 0.59761 0.81615
 H1769 H 1.09480 0.55154 0.71672
 H1770 H 1.07843 0.62137 0.69557
 H1771 H 1.12948 0.58022 0.78136
 H1772 H 1.11071 0.56566 0.75280
 C1773 C 0.61785 1.11478 0.76595
 C1774 C 0.61177 1.13765 0.77244
 C1775 C 0.62043 1.14720 0.79324
 C1776 C 0.63639 1.13482 0.80711
 C1777 C 0.64351 1.11267 0.79960
 C1778 C 0.63420 1.10269 0.77953
 C1779 C 0.60723 1.10471 0.74438
 C1780 C 0.60929 1.08113 0.73842
 C1781 C 0.59943 1.07262 0.71793
 C1782 C 0.58765 1.08742 0.70244
 C1783 C 0.58497 1.11091 0.70872
 C1784 C 0.59402 1.11940 0.72980
 C1785 C 0.59762 1.15103 0.75780
 C1786 C 0.58953 1.14233 0.73659
 H1787 H 0.59321 1.16869 0.76253
 H1788 H 0.57913 1.15356 0.72562
 H1789 H 0.61518 1.16458 0.79822
 H1790 H 0.65596 1.10263 0.80953
 H1791 H 0.60097 1.05425 0.71438
 H1792 H 0.57602 1.12277 0.69719
 H1793 H 0.64030 1.08564 0.77472
 H1794 H 0.61805 1.06890 0.74961
 C1795 C 0.61307 0.61114 1.26846
 C1796 C 0.60998 0.63507 1.27307
 C1797 C 0.61861 0.64478 1.29377
 C1798 C 0.63119 0.63120 1.30964
 C1799 C 0.63478 0.60764 1.30476
 C1800 C 0.62572 0.59766 1.28454
 C1801 C 0.60336 0.60141 1.24627
 C1802 C 0.60387 0.57758 1.24087
 C1803 C 0.59507 0.56946 1.21972
 C1804 C 0.58571 0.58484 1.20324
 C1805 C 0.58474 0.60858 1.20872
 C1806 C 0.59307 0.61687 1.23015
 C1807 C 0.59887 0.64929 1.25673
 C1808 C 0.59098 0.64047 1.23556
 H1809 H 0.59666 0.66765 1.26017
 H1810 H 0.58289 0.65228 1.22332
 H1811 H 0.61615 0.66312 1.29718
 H1812 H 0.64453 0.59683 1.31670
 H1813 H 0.59544 0.55098 1.21639
 H1814 H 0.57777 0.62079 1.19620
 H1815 H 0.62916 0.57950 1.28167
 H1816 H 0.61074 0.56489 1.25282
 C1817 C 0.88790 0.88347 1.26642
 C1818 C 0.87294 0.89751 1.27996
 C1819 C 0.86304 0.88869 1.30052
 C1820 C 0.86895 0.86642 1.30870
 C1821 C 0.88511 0.85323 1.29586
 C1822 C 0.89424 0.86149 1.27495
 C1823 C 0.89691 0.89291 1.24388
 C1824 C 0.90878 0.87912 1.22752
 C1825 C 0.91691 0.88867 1.20675
 C1826 C 0.91397 0.91239 1.20183
 C1827 C 0.90167 0.92614 1.21796
 C1828 C 0.89255 0.91643 1.23847
 C1829 C 0.86842 0.92042 1.27318
 C1830 C 0.87859 0.92989 1.25326
 H1831 H 0.85726 0.93137 1.28372
 H1832 H 0.87495 0.94784 1.24902
 H1833 H 0.85119 0.89952 1.31043
 H1834 H 0.89043 0.83616 1.30164
 H1835 H 0.92522 0.87718 1.19437
 H1836 H 0.89909 0.94445 1.21465
 H1837 H 0.90650 0.85056 1.26588
 H1838 H 0.91143 0.86079 1.23017
 C1839 C 0.88709 0.38295 0.76554
 C1840 C 0.87162 0.39644 0.77908
 C1841 C 0.86145 0.38697 0.79926
 C1842 C 0.86749 0.36453 0.80691
 C1843 C 0.88438 0.35209 0.79424
 C1844 C 0.89385 0.36103 0.77381
 C1845 C 0.89609 0.39281 0.74319
 C1846 C 0.90817 0.37934 0.72673
 C1847 C 0.91623 0.38918 0.70610
 C1848 C 0.91305 0.41291 0.70141
 C1849 C 0.90043 0.42634 0.71759
 C1850 C 0.89135 0.41629 0.73799
 C1851 C 0.86679 0.41938 0.77256
 C1852 C 0.87703 0.42931 0.75286
 H1853 H 0.85527 0.42995 0.78309
 H1854 H 0.87309 0.44724 0.74881
 H1855 H 0.84907 0.39725 0.80909
 H1856 H 0.88995 0.33498 0.79966
 H1857 H 0.92469 0.37789 0.69364
 H1858 H 0.89755 0.44463 0.71440
 H1859 H 0.90661 0.35059 0.76484
 H1860 H 0.91099 0.36100 0.72916
 C1861 C 0.38945 0.89124 0.76887
 C1862 C 0.39255 0.86727 0.77324
 C1863 C 0.38409 0.85740 0.79392
 C1864 C 0.37168 0.87085 0.81007
 C1865 C 0.36838 0.89453 0.80562
 C1866 C 0.37727 0.90467 0.78539
 C1867 C 0.39860 0.90101 0.74644
 C1868 C 0.39761 0.92480 0.74091
 C1869 C 0.40590 0.93293 0.71954
 C1870 C 0.41524 0.91758 0.70299
 C1871 C 0.41654 0.89387 0.70853
 C1872 C 0.40869 0.88560 0.73012
 C1873 C 0.40342 0.85311 0.75667
 C1874 C 0.41100 0.86201 0.73543
 H1875 H 0.40569 0.83474 0.75996
 H1876 H 0.41893 0.85024 0.72301
 H1877 H 0.38639 0.83899 0.79698
 H1878 H 0.35879 0.90526 0.81778
 H1879 H 0.40518 0.95137 0.71608
 H1880 H 0.42341 0.88168 0.69590
 H1881 H 0.37399 0.92291 0.78283
 H1882 H 0.39070 0.93746 0.75291
 C1883 C 0.38951 0.39123 1.26989
 C1884 C 0.39497 0.36807 1.27589
 C1885 C 0.38614 0.35834 1.29649
 C1886 C 0.37047 0.37077 1.31063
 C1887 C 0.36474 0.39364 1.30427
 C1888 C 0.37429 0.40381 1.28439
 C1889 C 0.39924 0.40091 1.24770
 C1890 C 0.39686 0.42435 1.24128
 C1891 C 0.40550 0.43231 1.22000
 C1892 C 0.41641 0.41706 1.20428
 C1893 C 0.41934 0.39376 1.21093
 C1894 C 0.41144 0.38579 1.23262
 C1895 C 0.40831 0.35438 1.26078
 C1896 C 0.41585 0.36287 1.23934
 H1897 H 0.41234 0.33656 1.26524
 H1898 H 0.42552 0.35136 1.22796
 H1899 H 0.39056 0.34055 1.30072
 H1900 H 0.35274 0.40383 1.31463
 H1901 H 0.40370 0.45055 1.21596
 H1902 H 0.42750 0.38155 1.19913
 H1903 H 0.36898 0.42128 1.28029
 H1904 H 0.38866 0.43688 1.25259
 C1905 C 0.88560 1.11510 0.73407
 C1906 C 0.86993 1.10175 0.72066
 C1907 C 0.86017 1.11109 0.70019
 C1908 C 0.86695 1.13317 0.69211
 C1909 C 0.88399 1.14540 0.70474
 C1910 C 0.89298 1.13666 0.72544
 C1911 C 0.89428 1.10544 0.75661
 C1912 C 0.90651 1.11894 0.77289
 C1913 C 0.91452 1.10923 0.79358
 C1914 C 0.91112 1.08559 0.79853
 C1915 C 0.89818 1.07217 0.78261
 C1916 C 0.88917 1.08212 0.76212
 C1917 C 0.86458 1.07905 0.72757
 C1918 C 0.87460 1.06919 0.74744
 H1919 H 0.85290 1.06855 0.71717
 H1920 H 0.87033 1.05140 0.75175
 H1921 H 0.84766 1.10096 0.69042
 H1922 H 0.89010 1.16223 0.69904
 H1923 H 0.92316 1.12054 0.80587
 H1924 H 0.89506 1.05397 0.78604
 H1925 H 0.90594 1.14692 0.73430
 H1926 H 0.90954 1.13721 0.77024
 C1927 C 0.88167 0.61825 0.23728
 C1928 C 0.87055 0.60327 0.22122
 C1929 C 0.86108 0.61224 0.20049
 C1930 C 0.86332 0.63588 0.19513
 C1931 C 0.87484 0.65051 0.21086
 C1932 C 0.88380 0.64191 0.23165
 C1933 C 0.89128 0.60817 0.25930
 C1934 C 0.90103 0.62192 0.27705
 C1935 C 0.91026 0.61176 0.29701
 C1936 C 0.91023 0.58759 0.29986
 C1937 C 0.89998 0.57374 0.28251
 C1938 C 0.89028 0.58386 0.26246
 C1939 C 0.86945 0.57941 0.22572
 C1940 C 0.87943 0.56987 0.24571
 H1941 H 0.86110 0.56787 0.21339
 H1942 H 0.87845 0.55127 0.24819
 H1943 H 0.85254 0.60072 0.18826
 H1944 H 0.87684 0.66882 0.20716
 H1945 H 0.91722 0.62298 0.31043
 H1946 H 0.89974 0.55505 0.28447
 H1947 H 0.89261 0.65406 0.24286
 H1948 H 0.90149 0.64058 0.27606
 C1949 C 0.39055 1.11071 0.22841
 C1950 C 0.36755 1.10485 0.22201
 C1951 C 0.35775 1.11404 0.20160
 C1952 C 0.36981 1.13061 0.18825
 C1953 C 0.39244 1.13685 0.19511
 C1954 C 0.40279 1.12683 0.21468
 C1955 C 0.40033 1.10055 0.25034
 C1956 C 0.42380 1.10296 0.25682
 C1957 C 0.43181 1.09405 0.27797
 C1958 C 0.41657 1.08293 0.29355
 C1959 C 0.39328 1.07980 0.28671
 C1960 C 0.38531 1.08786 0.26506
 C1961 C 0.35403 1.09085 0.23663
 C1962 C 0.36249 1.08312 0.25802
 H1963 H 0.33632 1.08653 0.23188
 H1964 H 0.35107 1.07303 0.26909
 H1965 H 0.34010 1.10927 0.19702
 H1966 H 0.40231 1.14956 0.18537
 H1967 H 0.45008 1.09589 0.28200
 H1968 H 0.38104 1.07143 0.29829
 H1969 H 0.42006 1.13253 0.21924
 H1970 H 0.43629 1.11139 0.24565
 C1971 C 0.38439 0.61634 0.73449
 C1972 C 0.37224 0.60172 0.71888
 C1973 C 0.36311 0.61083 0.69804
 C1974 C 0.36678 0.63418 0.69212
 C1975 C 0.37981 0.64825 0.70718
 C1976 C 0.38843 0.63954 0.72808
 C1977 C 0.39295 0.60636 0.75698
 C1978 C 0.40280 0.62010 0.77466
 C1979 C 0.41098 0.61005 0.79512
 C1980 C 0.40987 0.58597 0.79854
 C1981 C 0.39932 0.57218 0.78131
 C1982 C 0.39052 0.58225 0.76080
 C1983 C 0.36966 0.57810 0.72401
 C1984 C 0.37904 0.56848 0.74427
 H1985 H 0.36058 0.56679 0.71199
 H1986 H 0.37693 0.55005 0.74724
 H1987 H 0.35346 0.59969 0.68631
 H1988 H 0.38303 0.66628 0.70302
 H1989 H 0.41804 0.62133 0.80844
 H1990 H 0.39812 0.55358 0.78371
 H1991 H 0.39837 0.65124 0.73882
 H1992 H 0.40404 0.63871 0.77323
 C1993 C 1.11562 0.88082 0.73520
 C1994 C 1.12764 0.89586 0.71990
 C1995 C 1.13731 0.88720 0.69914
 C1996 C 1.13443 0.86384 0.69291
 C1997 C 1.12182 0.84917 0.70772
 C1998 C 1.11264 0.85745 0.72864
 C1999 C 1.10615 0.89058 0.75750
 C2000 C 1.09582 0.87669 0.77480
 C2001 C 1.08713 0.88658 0.79521
 C2002 C 1.08820 0.91064 0.79892
 C2003 C 1.09879 0.92458 0.78187
 C2004 C 1.10809 0.91472 0.76149
 C2005 C 1.12954 0.91951 0.72517
 C2006 C 1.11961 0.92880 0.74530
 H2007 H 1.13855 0.93109 0.71337
 H2008 H 1.12130 0.94726 0.74842
 H2009 H 1.14663 0.89878 0.68758
 H2010 H 1.11925 0.83110 0.70326
 H2011 H 1.07985 0.87520 0.80830
 H2012 H 1.09976 0.94319 0.78435
 H2013 H 1.10306 0.84535 0.73925
 H2014 H 1.09462 0.85810 0.77313
 C2015 C 1.11265 0.38233 0.23254
 C2016 C 1.12779 0.39629 0.21916
 C2017 C 1.13773 0.38746 0.19863
 C2018 C 1.13164 0.36531 0.19024
 C2019 C 1.11524 0.35225 0.20283
 C2020 C 1.10611 0.36049 0.22380
 C2021 C 1.10370 0.39176 0.25513
 C2022 C 1.09184 0.37798 0.27146
 C2023 C 1.08386 0.38750 0.29233
 C2024 C 1.08688 0.41120 0.29734
 C2025 C 1.09912 0.42494 0.28120
 C2026 C 1.10817 0.41523 0.26064
 C2027 C 1.13243 0.41914 0.22605
 C2028 C 1.12222 0.42864 0.24595
 H2029 H 1.14370 0.43003 0.21561
 H2030 H 1.12596 0.44655 0.25027
 H2031 H 1.14973 0.39823 0.18888
 H2032 H 1.10979 0.33528 0.19684
 H2033 H 1.07561 0.37599 0.30469
 H2034 H 1.10175 0.44323 0.28452
 H2035 H 1.09369 0.34965 0.23274
 H2036 H 1.08914 0.35966 0.26871
 C2037 C 0.61165 0.88316 0.23215
 C2038 C 0.62716 0.89678 0.21886
 C2039 C 0.63686 0.88779 0.19828
 C2040 C 0.63012 0.86587 0.18977
 C2041 C 0.61322 0.85329 0.20219
 C2042 C 0.60434 0.86165 0.22320
 C2043 C 0.60311 0.89259 0.25487
 C2044 C 0.59118 0.87889 0.27120
 C2045 C 0.58354 0.88838 0.29219
 C2046 C 0.58693 0.91202 0.29731
 C2047 C 0.59937 0.92564 0.28122
 C2048 C 0.60814 0.91590 0.26055
 C2049 C 0.63241 0.91946 0.22591
 C2050 C 0.62246 0.92908 0.24590
 H2051 H 0.64396 0.93012 0.21553
 H2052 H 0.62664 0.94686 0.25034
 H2053 H 0.64923 0.89822 0.18863
 H2054 H 0.60724 0.83655 0.19608
 H2055 H 0.57523 0.87691 0.30453
 H2056 H 0.60236 0.94386 0.28465
 H2057 H 0.59156 0.85117 0.23205
 H2058 H 0.58818 0.86063 0.26835
 C2059 C 0.61503 0.38186 0.73369
 C2060 C 0.62694 0.39703 0.71843
 C2061 C 0.63645 0.38854 0.69754
 C2062 C 0.63341 0.36526 0.69112
 C2063 C 0.62091 0.35048 0.70589
 C2064 C 0.61195 0.35857 0.72696
 C2065 C 0.60568 0.39142 0.75609
 C2066 C 0.59560 0.37734 0.77339
 C2067 C 0.58692 0.38706 0.79387
 C2068 C 0.58774 0.41111 0.79765
 C2069 C 0.59815 0.42523 0.78063
 C2070 C 0.60748 0.41554 0.76019
 C2071 C 0.62880 0.42065 0.72385
 C2072 C 0.61888 0.42978 0.74406
 H2073 H 0.63771 0.43234 0.71208
 H2074 H 0.62047 0.44824 0.74727
 H2075 H 0.64569 0.40020 0.68597
 H2076 H 0.61822 0.33246 0.70125
 H2077 H 0.57983 0.37555 0.80695
 H2078 H 0.59894 0.44384 0.78319
 H2079 H 0.60240 0.34639 0.73750
 H2080 H 0.59461 0.35875 0.77166
 C2081 C 1.26341 1.11960 1.11591
 C2082 C 1.27736 1.10534 1.13028
 C2083 C 1.29786 1.11418 1.14021
 C2084 C 1.30562 1.13672 1.13484
 C2085 C 1.29212 1.15037 1.11967
 C2086 C 1.27126 1.14207 1.11055
 C2087 C 1.24128 1.10982 1.10630
 C2088 C 1.22478 1.12344 1.09446
 C2089 C 1.20451 1.11351 1.08562
 C2090 C 1.20024 1.08961 1.08788
 C2091 C 1.21654 1.07600 1.10006
 C2092 C 1.23655 1.08602 1.10980
 C2093 C 1.27117 1.08214 1.13399
 C2094 C 1.25155 1.07252 1.12344
 H2095 H 1.28198 1.07107 1.14473
 H2096 H 1.24781 1.05435 1.12643
 H2097 H 1.30820 1.10307 1.15138
 H2098 H 1.29750 1.16773 1.11491
 H2099 H 1.19198 1.12481 1.07733
 H2100 H 1.21375 1.05753 1.10203
 H2101 H 1.26180 1.15334 1.09894
 H2102 H 1.22693 1.14190 1.09232
 C2103 C 1.26505 0.61888 0.61275
 C2104 C 1.27866 0.60499 0.62777
 C2105 C 1.29901 0.61405 0.63783
 C2106 C 1.30692 0.63644 0.63202
 C2107 C 1.29401 0.64950 0.61584
 C2108 C 1.27330 0.64099 0.60655
 C2109 C 1.24275 0.60914 0.60352
 C2110 C 1.22634 0.62271 0.59151
 C2111 C 1.20579 0.61290 0.58323
 C2112 C 1.20114 0.58913 0.58615
 C2113 C 1.21735 0.57559 0.59853
 C2114 C 1.23763 0.58556 0.60781
 C2115 C 1.27217 0.58198 0.63218
 C2116 C 1.25247 0.57228 0.62185
 H2117 H 1.28275 0.57115 0.64339
 H2118 H 1.24846 0.55427 0.62542
 H2119 H 1.30898 0.60332 0.64970
 H2120 H 1.29958 0.66667 0.61062
 H2121 H 1.19335 0.62423 0.57485
 H2122 H 1.21427 0.55724 0.60108
 H2123 H 1.26418 0.65185 0.59428
 H2124 H 1.22878 0.64107 0.58888
 C2125 C 0.76512 1.11854 0.61347
 C2126 C 0.77867 1.10436 0.62827
 C2127 C 0.79898 1.11323 0.63864
 C2128 C 0.80687 1.13575 0.63336
 C2129 C 0.79396 1.14914 0.61744
 C2130 C 0.77333 1.14080 0.60784
 C2131 C 0.74289 1.10898 0.60386
 C2132 C 0.72657 1.12277 0.59196
 C2133 C 0.70606 1.11314 0.58336
 C2134 C 0.70134 1.08934 0.58587
 C2135 C 0.71750 1.07555 0.59806
 C2136 C 0.73775 1.08533 0.60764
 C2137 C 0.77216 1.08126 0.63214
 C2138 C 0.75251 1.07177 0.62150
 H2139 H 0.78268 1.07020 0.64318
 H2140 H 0.74848 1.05369 0.62468
 H2141 H 0.80892 1.10228 0.65033
 H2142 H 0.79947 1.16644 0.61261
 H2143 H 0.69368 1.12463 0.57510
 H2144 H 0.71440 1.05716 0.60025
 H2145 H 0.76426 1.15193 0.59578
 H2146 H 0.72903 1.14117 0.58967
 C2147 C 0.76506 0.61759 1.11101
 C2148 C 0.78022 0.60274 1.12345
 C2149 C 0.80064 0.61165 1.13351
 C2150 C 0.80663 0.63507 1.13059
 C2151 C 0.79217 0.64939 1.11718
 C2152 C 0.77164 0.64085 1.10758
 C2153 C 0.74278 0.60782 1.10176
 C2154 C 0.72538 0.62174 1.09169
 C2155 C 0.70483 0.61193 1.08345
 C2156 C 0.70109 0.58788 1.08465
 C2157 C 0.71828 0.57389 1.09498
 C2158 C 0.73877 0.58372 1.10395
 C2159 C 0.77500 0.57910 1.12553
 C2160 C 0.75497 0.56971 1.11555
 H2161 H 0.78671 0.56762 1.13479
 H2162 H 0.75186 0.55127 1.11743
 H2163 H 0.81196 0.60033 1.14344
 H2164 H 0.79645 0.66748 1.11450
 H2165 H 0.69165 0.62338 1.07648
 H2166 H 0.71576 0.55530 1.09610
 H2167 H 0.76125 0.65273 1.09748
 H2168 H 0.72702 0.64033 1.09049
 C2169 C 1.26992 0.88882 0.88755
 C2170 C 1.27587 0.86559 0.89280
 C2171 C 1.29655 0.85593 0.88399
 C2172 C 1.31084 0.86859 0.86867
 C2173 C 1.30424 0.89138 0.86284
 C2174 C 1.28428 0.90142 0.87230
 C2175 C 1.24799 0.89865 0.89766
 C2176 C 1.24195 0.92224 0.89578
 C2177 C 1.22096 0.93043 0.90482
 C2178 C 1.20514 0.91532 0.91566
 C2179 C 1.21145 0.89185 0.91820
 C2180 C 1.23289 0.88362 0.90985
 C2181 C 1.26072 0.85191 0.90606
 C2182 C 1.23942 0.86054 0.91387
 H2183 H 1.26508 0.83403 0.90990
 H2184 H 1.22803 0.84906 0.92351
 H2185 H 1.30092 0.83816 0.88837
 H2186 H 1.31462 0.90174 0.85103
 H2187 H 1.21723 0.94877 0.90338
 H2188 H 1.19960 0.87977 0.92640
 H2189 H 1.28012 0.91888 0.86700
 H2190 H 1.25336 0.93472 0.88770
 C2191 C 1.26878 0.38999 0.38676
 C2192 C 1.27435 0.36658 0.39153
 C2193 C 1.29496 0.35684 0.38275
 C2194 C 1.30965 0.36963 0.36792
 C2195 C 1.30356 0.39269 0.36265
 C2196 C 1.28360 0.40279 0.37209
 C2197 C 1.24677 0.39981 0.39673
 C2198 C 1.24084 0.42345 0.39512
 C2199 C 1.21978 0.43160 0.40406
 C2200 C 1.20382 0.41639 0.41455
 C2201 C 1.20996 0.39286 0.41674
 C2202 C 1.23142 0.38465 0.40847
 C2203 C 1.25892 0.35276 0.40432
 C2204 C 1.23766 0.36145 0.41210
 H2205 H 1.26305 0.33475 0.40781
 H2206 H 1.22606 0.34988 0.42138
 H2207 H 1.29895 0.33889 0.38674
 H2208 H 1.31428 0.40314 0.35125
 H2209 H 1.21611 0.44997 0.40284
 H2210 H 1.19795 0.38072 0.42460
 H2211 H 1.27980 0.42046 0.36723
 H2212 H 1.25237 0.43598 0.38731
 C2213 C 0.76905 0.88954 0.38909
 C2214 C 0.77389 0.89224 0.36506
 C2215 C 0.79447 0.88312 0.35555
 C2216 C 0.80993 0.87036 0.36943
 C2217 C 0.80489 0.86730 0.39313
 C2218 C 0.78484 0.87690 0.40292
 C2219 C 0.74685 0.89950 0.39853
 C2220 C 0.74117 0.89925 0.42240
 C2221 C 0.71993 0.90808 0.43022
 C2222 C 0.70363 0.91720 0.41448
 C2223 C 0.70944 0.91800 0.39069
 C2224 C 0.73096 0.90964 0.38272
 C2225 C 0.75782 0.90333 0.35050
 C2226 C 0.73664 0.91146 0.35906
 H2227 H 0.76144 0.90528 0.33207
 H2228 H 0.72459 0.91945 0.34698
 H2229 H 0.79799 0.88517 0.33711
 H2230 H 0.81652 0.85742 0.40416
 H2231 H 0.71636 0.90786 0.44873
 H2232 H 0.69708 0.92480 0.37820
 H2233 H 0.78180 0.87378 0.42118
 H2234 H 0.75295 0.89253 0.43536
 C2235 C 0.76441 0.38087 0.88371
 C2236 C 0.77850 0.39488 0.86926
 C2237 C 0.79879 0.38564 0.85911
 C2238 C 0.80604 0.36285 0.86423
 C2239 C 0.79255 0.34961 0.87979
 C2240 C 0.77201 0.35836 0.88919
 C2241 C 0.74229 0.39084 0.89315
 C2242 C 0.72558 0.37729 0.90475
 C2243 C 0.70527 0.38731 0.91339
 C2244 C 0.70112 0.41124 0.91118
 C2245 C 0.71757 0.42479 0.89913
 C2246 C 0.73769 0.41465 0.88958
 C2247 C 0.77253 0.41817 0.86554
 C2248 C 0.75292 0.42800 0.87602
 H2249 H 0.78344 0.42909 0.85477
 H2250 H 0.74932 0.44620 0.87299
 H2251 H 0.80918 0.39645 0.84770
 H2252 H 0.79754 0.33211 0.88450
 H2253 H 0.69260 0.37604 0.92149
 H2254 H 0.71481 0.44325 0.89709
 H2255 H 0.76252 0.34732 0.90101
 H2256 H 0.72757 0.35881 0.90682
 C2257 C 0.73426 0.88615 1.11616
 C2258 C 0.71936 0.87423 1.10061
 C2259 C 0.69850 0.86443 1.10879
 C2260 C 0.69180 0.86715 1.13215
 C2261 C 0.70619 0.87976 1.14725
 C2262 C 0.72716 0.88904 1.13946
 C2263 C 0.75674 0.89560 1.10702
 C2264 C 0.77372 0.90561 1.12154
 C2265 C 0.79435 0.91425 1.11224
 C2266 C 0.79863 0.91348 1.08816
 C2267 C 0.78189 0.90320 1.07358
 C2268 C 0.76129 0.89390 1.08286
 C2269 C 0.72517 0.87255 1.07696
 C2270 C 0.74546 0.88257 1.06820
 H2271 H 0.71369 0.86365 1.06496
 H2272 H 0.74900 0.88106 1.04972
 H2273 H 0.68727 0.85509 1.09687
 H2274 H 0.70139 0.88222 1.16534
 H2275 H 0.80719 0.92123 1.12411
 H2276 H 0.78482 0.90245 1.05494
 H2277 H 0.73740 0.89861 1.15192
 H2278 H 0.77164 0.90654 1.14018
 C2279 C 0.73215 0.38650 0.60941
 C2280 C 0.72552 0.39208 0.63247
 C2281 C 0.70476 0.38322 0.64177
 C2282 C 0.69106 0.36745 0.62901
 C2283 C 0.69837 0.36118 0.60647
 C2284 C 0.71842 0.37075 0.59670
 C2285 C 0.75411 0.39680 0.59993
 C2286 C 0.76068 0.39480 0.57640
 C2287 C 0.78167 0.40411 0.56855
 C2288 C 0.79698 0.41529 0.58400
 C2289 C 0.79011 0.41794 0.60740
 C2290 C 0.76862 0.40941 0.61523
 C2291 C 0.74008 0.40576 0.64640
 C2292 C 0.76147 0.41367 0.63818
 H2293 H 0.73518 0.40984 0.66417
 H2294 H 0.77240 0.42363 0.64985
 H2295 H 0.69986 0.38793 0.65940
 H2296 H 0.68847 0.34899 0.59609
 H2297 H 0.78578 0.40259 0.55022
 H2298 H 0.80153 0.42640 0.61974
 H2299 H 0.72318 0.36516 0.57940
 H2300 H 0.74968 0.38643 0.56371
 C2301 C 0.23243 0.88670 0.61034
 C2302 C 0.22588 0.89249 0.63337
 C2303 C 0.20535 0.88338 0.64298
 C2304 C 0.19194 0.86709 0.63059
 C2305 C 0.19918 0.86069 0.60805
 C2306 C 0.21891 0.87054 0.59796
 C2307 C 0.25418 0.89715 0.60055
 C2308 C 0.26057 0.89496 0.57698
 C2309 C 0.28142 0.90433 0.56886
 C2310 C 0.29680 0.91576 0.58406
 C2311 C 0.29008 0.91861 0.60749
 C2312 C 0.26870 0.91003 0.61559
 C2313 C 0.24038 0.90653 0.64700
 C2314 C 0.26165 0.91453 0.63853
 H2315 H 0.23557 0.91078 0.66476
 H2316 H 0.27257 0.92473 0.65000
 H2317 H 0.20050 0.88819 0.66059
 H2318 H 0.18948 0.84814 0.59792
 H2319 H 0.28537 0.90267 0.55050
 H2320 H 0.30153 0.92724 0.61968
 H2321 H 0.22364 0.86480 0.58070
 H2322 H 0.24951 0.88640 0.56447
 C2323 C 0.23313 0.38799 1.11478
 C2324 C 0.22032 0.37239 1.10081
 C2325 C 0.19978 0.36238 1.10945
 C2326 C 0.19090 0.36882 1.13142
 C2327 C 0.20285 0.38580 1.14433
 C2328 C 0.22377 0.39504 1.13629
 C2329 C 0.25587 0.39683 1.10577
 C2330 C 0.27171 0.40900 1.11985
 C2331 C 0.29278 0.41681 1.11077
 C2332 C 0.29850 0.41333 1.08718
 C2333 C 0.28285 0.40075 1.07315
 C2334 C 0.26209 0.39185 1.08248
 C2335 C 0.22786 0.36728 1.07815
 C2336 C 0.24790 0.37741 1.06892
 H2337 H 0.21787 0.35566 1.06721
 H2338 H 0.25274 0.37329 1.05115
 H2339 H 0.19050 0.34993 1.09878
 H2340 H 0.19647 0.39158 1.16112
 H2341 H 0.30474 0.42529 1.12255
 H2342 H 0.28674 0.39772 1.05495
 H2343 H 0.23223 0.40787 1.14704
 H2344 H 0.26843 0.41205 1.13811
 C2345 C 0.73128 1.11269 0.89115
 C2346 C 0.72487 1.10669 0.86814
 C2347 C 0.70431 1.11552 0.85841
 C2348 C 0.69062 1.13176 0.87060
 C2349 C 0.69753 1.13825 0.89320
 C2350 C 0.71736 1.12866 0.90344
 C2351 C 0.75324 1.10262 0.90095
 C2352 C 0.75980 1.10518 0.92443
 C2353 C 0.78080 1.09602 0.93252
 C2354 C 0.79615 1.08446 0.91735
 C2355 C 0.78935 1.08142 0.89399
 C2356 C 0.76787 1.08974 0.88594
 C2357 C 0.73953 1.09272 0.85458
 C2358 C 0.76086 1.08498 0.86307
 H2359 H 0.73478 1.08831 0.83686
 H2360 H 0.77189 1.07480 0.85165
 H2361 H 0.69972 1.11056 0.84078
 H2362 H 0.68756 1.15076 0.90315
 H2363 H 0.78486 1.09793 0.95082
 H2364 H 0.80082 1.07280 0.88178
 H2365 H 0.72188 1.13446 0.92073
 H2366 H 0.74876 1.11387 0.93690
 C2367 C 0.73257 0.61384 0.38996
 C2368 C 0.72769 0.61083 0.36598
 C2369 C 0.70704 0.61971 0.35647
 C2370 C 0.69147 0.63244 0.37030
 C2371 C 0.69667 0.63604 0.39388
 C2372 C 0.71685 0.62674 0.40367
 C2373 C 0.75463 0.60372 0.39948
 C2374 C 0.76021 0.60403 0.42337
 C2375 C 0.78123 0.59483 0.43130
 C2376 C 0.79741 0.58528 0.41566
 C2377 C 0.79171 0.58446 0.39186
 C2378 C 0.77040 0.59318 0.38378
 C2379 C 0.74368 0.59950 0.35150
 C2380 C 0.76476 0.59125 0.36012
 H2381 H 0.74003 0.59736 0.33310
 H2382 H 0.77674 0.58299 0.34811
 H2383 H 0.70340 0.61725 0.33810
 H2384 H 0.68498 0.64592 0.40487
 H2385 H 0.78472 0.59510 0.44983
 H2386 H 0.80400 0.57732 0.37946
 H2387 H 0.71998 0.63015 0.42187
 H2388 H 0.74850 0.61105 0.43625
 C2389 C 0.23147 1.11020 0.38940
 C2390 C 0.22542 1.13329 0.39514
 C2391 C 0.20464 1.14297 0.38675
 C2392 C 0.19037 1.13059 0.37118
 C2393 C 0.19686 1.10786 0.36503
 C2394 C 0.21692 1.09771 0.37420
 C2395 C 0.25376 1.10051 0.39881
 C2396 C 0.26012 1.07705 0.39638
 C2397 C 0.28146 1.06906 0.40479
 C2398 C 0.29730 1.08429 0.41547
 C2399 C 0.29071 1.10762 0.41844
 C2400 C 0.26894 1.11560 0.41084
 C2401 C 0.24066 1.14696 0.40833
 C2402 C 0.26222 1.13851 0.41545
 H2403 H 0.23618 1.16474 0.41255
 H2404 H 0.27368 1.15000 0.42500
 H2405 H 0.20034 1.16068 0.39144
 H2406 H 0.18643 1.09773 0.35306
 H2407 H 0.28541 1.05080 0.40301
 H2408 H 0.30258 1.11984 0.42642
 H2409 H 0.22109 1.08033 0.36862
 H2410 H 0.24871 1.06454 0.38836
 C2411 C 0.23138 0.61200 0.89130
 C2412 C 0.22644 0.60887 0.86735
 C2413 C 0.20600 0.61805 0.85776
 C2414 C 0.19067 0.63125 0.87141
 C2415 C 0.19583 0.63488 0.89499
 C2416 C 0.21582 0.62524 0.90491
 C2417 C 0.25338 0.60174 0.90083
 C2418 C 0.25914 0.60228 0.92467
 C2419 C 0.28016 0.59301 0.93254
 C2420 C 0.29615 0.58317 0.91688
 C2421 C 0.29026 0.58213 0.89315
 C2422 C 0.26897 0.59090 0.88514
 C2423 C 0.24221 0.59718 0.85292
 C2424 C 0.26321 0.58877 0.86154
 H2425 H 0.23849 0.59493 0.83455
 H2426 H 0.27504 0.58027 0.84956
 H2427 H 0.20243 0.61556 0.83938
 H2428 H 0.18432 0.64514 0.90582
 H2429 H 0.28383 0.59349 0.95103
 H2430 H 0.30241 0.57483 0.88071
 H2431 H 0.21899 0.62871 0.92309
 H2432 H 0.24758 0.60957 0.93753
 C2433 C 1.11696 1.26418 1.11134
 C2434 C 1.10189 1.27933 1.12354
 C2435 C 1.11048 1.30016 1.13287
 C2436 C 1.13376 1.30663 1.12947
 C2437 C 1.14834 1.29214 1.11636
 C2438 C 1.14014 1.27114 1.10750
 C2439 C 1.10743 1.24158 1.10270
 C2440 C 1.12154 1.22425 1.09274
 C2441 C 1.11188 1.20351 1.08488
 C2442 C 1.08783 1.19948 1.08637
 C2443 C 1.07369 1.21651 1.09673
 C2444 C 1.08335 1.23722 1.10527
 C2445 C 1.07833 1.27374 1.12609
 C2446 C 1.06916 1.25337 1.11673
 H2447 H 1.06671 1.28545 1.13520
 H2448 H 1.05075 1.25000 1.11890
 H2449 H 1.09894 1.31150 1.14256
 H2450 H 1.16632 1.29683 1.11334
 H2451 H 1.12346 1.19044 1.07786
 H2452 H 1.05511 1.21374 1.09809
 H2453 H 1.15217 1.26070 1.09758
 H2454 H 1.14012 1.22618 1.09126
 C2455 C 1.11722 0.76347 0.61183
 C2456 C 1.10231 0.77854 0.62432
 C2457 C 1.11105 0.79925 0.63382
 C2458 C 1.13431 0.80567 0.63020
 C2459 C 1.14870 0.79126 0.61680
 C2460 C 1.14037 0.77038 0.60783
 C2461 C 1.10759 0.74100 0.60301
 C2462 C 1.12162 0.72371 0.59290
 C2463 C 1.11188 0.70310 0.58480
 C2464 C 1.08781 0.69919 0.58619
 C2465 C 1.07374 0.71618 0.59675
 C2466 C 1.08350 0.73674 0.60557
 C2467 C 1.07873 0.77301 0.62692
 C2468 C 1.06943 0.75281 0.61729
 H2469 H 1.06720 0.78465 0.63624
 H2470 H 1.05101 0.74950 0.61947
 H2471 H 1.09967 0.81055 0.64373
 H2472 H 1.16667 0.79590 0.61361
 H2473 H 1.12341 0.69004 0.57770
 H2474 H 1.05514 0.71350 0.59807
 H2475 H 1.15226 0.76004 0.59766
 H2476 H 1.14022 0.72553 0.59149
 C2477 C 0.60995 1.26789 0.60933
 C2478 C 0.63390 1.27250 0.60595
 C2479 C 0.64368 1.29315 0.61442
 C2480 C 0.63019 1.30891 0.62723
 C2481 C 0.60657 1.30415 0.63091
 C2482 C 0.59649 1.28403 0.62194
 C2483 C 0.60023 1.24557 0.60011
 C2484 C 0.57639 1.24002 0.60109
 C2485 C 0.56831 1.21872 0.59282
 C2486 C 0.58374 1.20225 0.58353
 C2487 C 0.60749 1.20786 0.58216
 C2488 C 0.61571 1.22942 0.58992
 C2489 C 0.64811 1.25614 0.59487
 C2490 C 0.63930 1.23489 0.58741
 H2491 H 0.66647 1.25959 0.59241
 H2492 H 0.65113 1.22262 0.57937
 H2493 H 0.66206 1.29648 0.61191
 H2494 H 0.59585 1.31603 0.64085
 H2495 H 0.54982 1.21526 0.59352
 H2496 H 0.61976 1.19533 0.57529
 H2497 H 0.57832 1.28120 0.62553
 H2498 H 0.56366 1.25196 0.60794
 C2499 C 0.61053 0.76633 1.11053
 C2500 C 0.63459 0.77082 1.10778
 C2501 C 0.64429 0.79140 1.11662
 C2502 C 0.63054 0.80722 1.12909
 C2503 C 0.60681 0.80253 1.13213
 C2504 C 0.59687 0.78248 1.12288
 C2505 C 0.60084 0.74418 1.10086
 C2506 C 0.57696 0.73880 1.10132
 C2507 C 0.56887 0.71764 1.09271
 C2508 C 0.58434 0.70114 1.08355
 C2509 C 0.60815 0.70661 1.08257
 C2510 C 0.61641 0.72803 1.09078
 C2511 C 0.64892 0.75445 1.09684
 C2512 C 0.64009 0.73336 1.08888
 H2513 H 0.66735 0.75777 1.09484
 H2514 H 0.65200 0.72109 1.08096
 H2515 H 0.66273 0.79468 1.11453
 H2516 H 0.59583 0.81445 1.14173
 H2517 H 0.55036 0.71430 1.09310
 H2518 H 0.62042 0.69406 1.07573
 H2519 H 0.57859 0.77978 1.12600
 H2520 H 0.56418 0.75074 1.10806
 C2521 C 0.87998 1.25853 0.88035
 C2522 C 0.89498 1.27402 0.86854
 C2523 C 0.88612 1.29457 0.85887
 C2524 C 0.86258 1.30044 0.86153
 C2525 C 0.84787 1.28533 0.87369
 C2526 C 0.85637 1.26459 0.88287
 C2527 C 0.89008 1.23666 0.89023
 C2528 C 0.87637 1.21937 0.90074
 C2529 C 0.88660 1.19951 0.91007
 C2530 C 0.91081 1.19636 0.90943
 C2531 C 0.92457 1.21331 0.89854
 C2532 C 0.91439 1.23318 0.88868
 C2533 C 0.91881 1.26920 0.86697
 C2534 C 0.92835 1.24941 0.87715
 H2535 H 0.93034 1.28113 0.85807
 H2536 H 0.94695 1.24667 0.87576
 H2537 H 0.89774 1.30636 0.84987
 H2538 H 0.82966 1.28951 0.87607
 H2539 H 0.87539 1.18642 0.91757
 H2540 H 0.94329 1.21120 0.89788
 H2541 H 0.84423 1.25378 0.89218
 H2542 H 0.85769 1.22065 0.90169
 C2543 C 0.88328 0.76399 0.38618
 C2544 C 0.89836 0.77907 0.37395
 C2545 C 0.88982 0.79992 0.36464
 C2546 C 0.86657 0.80650 0.36813
 C2547 C 0.85194 0.79202 0.38113
 C2548 C 0.86009 0.77098 0.38993
 C2549 C 0.89283 0.74147 0.39503
 C2550 C 0.87875 0.72427 0.40517
 C2551 C 0.88844 0.70367 0.41336
 C2552 C 0.91251 0.69966 0.41201
 C2553 C 0.92662 0.71654 0.40143
 C2554 C 0.91693 0.73712 0.39258
 C2555 C 0.92194 0.77343 0.37147
 C2556 C 0.93111 0.75314 0.38100
 H2557 H 0.93357 0.78508 0.36232
 H2558 H 0.94953 0.74976 0.37891
 H2559 H 0.90139 0.81126 0.35504
 H2560 H 0.83398 0.79679 0.38420
 H2561 H 0.87690 0.69069 0.42053
 H2562 H 0.94522 0.71379 0.40017
 H2563 H 0.84803 0.76059 0.39982
 H2564 H 0.86015 0.72620 0.40658
 C2565 C 0.38105 1.26269 0.38161
 C2566 C 0.39631 1.27824 0.37021
 C2567 C 0.38778 1.29913 0.36098
 C2568 C 0.36432 1.30530 0.36370
 C2569 C 0.34935 1.29014 0.37548
 C2570 C 0.35751 1.26905 0.38420
 C2571 C 0.39083 1.24046 0.39102
 C2572 C 0.37687 1.22308 0.40104
 C2573 C 0.38683 1.20286 0.40992
 C2574 C 0.41101 1.19943 0.40933
 C2575 C 0.42501 1.21651 0.39893
 C2576 C 0.41510 1.23671 0.38950
 C2577 C 0.42008 1.27315 0.36863
 C2578 C 0.42932 1.25303 0.37840
 H2579 H 0.43180 1.28512 0.36005
 H2580 H 0.44789 1.25009 0.37704
 H2581 H 0.39960 1.31094 0.35230
 H2582 H 0.33120 1.29456 0.37792
 H2583 H 0.37542 1.18973 0.41704
 H2584 H 0.44370 1.21422 0.39834
 H2585 H 0.34520 1.25820 0.39323
 H2586 H 0.35820 1.22459 0.40194
 C2587 C 0.38811 0.76497 0.88384
 C2588 C 0.36416 0.76980 0.88688
 C2589 C 0.35467 0.79064 0.87839
 C2590 C 0.36855 0.80646 0.86610
 C2591 C 0.39211 0.80124 0.86248
 C2592 C 0.40181 0.78088 0.87129
 C2593 C 0.39771 0.74284 0.89365
 C2594 C 0.42158 0.73734 0.89325
 C2595 C 0.42963 0.71635 0.90229
 C2596 C 0.41415 0.70010 0.91184
 C2597 C 0.39035 0.70566 0.91268
 C2598 C 0.38213 0.72695 0.90406
 C2599 C 0.34977 0.75362 0.89797
 C2600 C 0.35848 0.73250 0.90600
 H2601 H 0.33139 0.75718 0.90015
 H2602 H 0.34654 0.72043 0.91414
 H2603 H 0.33635 0.79431 0.88095
 H2604 H 0.40321 0.81310 0.85299
 H2605 H 0.44814 0.71297 0.90200
 H2606 H 0.37807 0.69333 0.91983
 H2607 H 0.42000 0.77785 0.86785
 H2608 H 0.43438 0.74910 0.88630
 C2609 C 1.11493 0.73716 0.88340
 C2610 C 1.12613 0.72172 0.89894
 C2611 C 1.13544 0.70073 0.89064
 C2612 C 1.13304 0.69447 0.86713
 C2613 C 1.12125 0.70947 0.85197
 C2614 C 1.11240 0.73056 0.85991
 C2615 C 1.10580 0.75967 0.89277
 C2616 C 1.09625 0.77701 0.87839
 C2617 C 1.08775 0.79758 0.88792
 C2618 C 1.08828 0.80145 0.91207
 C2619 C 1.09819 0.78441 0.92651
 C2620 C 1.10724 0.76381 0.91702
 C2621 C 1.12757 0.72713 0.92269
 C2622 C 1.11798 0.74753 0.93160
 H2623 H 1.13596 0.71524 0.93466
 H2624 H 1.11927 0.75075 0.95015
 H2625 H 1.14416 0.68905 0.90259
 H2626 H 1.11906 0.70503 0.83376
 H2627 H 1.08102 0.81066 0.87620
 H2628 H 1.09874 0.78707 0.94519
 H2629 H 1.10344 0.74127 0.84741
 H2630 H 1.09549 0.77522 0.85971
 C2631 C 1.11698 0.23596 0.38765
 C2632 C 1.11419 0.23112 0.36363
 C2633 C 1.12314 0.21045 0.35415
 C2634 C 1.13568 0.19486 0.36811
 C2635 C 1.13924 0.20022 0.39168
 C2636 C 1.12995 0.22039 0.40138
 C2637 C 1.10644 0.25775 0.39729
 C2638 C 1.10628 0.26299 0.42125
 C2639 C 1.09662 0.28369 0.42935
 C2640 C 1.08705 0.29992 0.41384
 C2641 C 1.08664 0.29453 0.38993
 C2642 C 1.09585 0.27349 0.38166
 C2643 C 1.10285 0.24709 0.34918
 C2644 C 1.09429 0.26802 0.35792
 H2645 H 1.10088 0.24353 0.33075
 H2646 H 1.08600 0.27996 0.34594
 H2647 H 1.12066 0.20669 0.33581
 H2648 H 1.14894 0.18856 0.40283
 H2649 H 1.09653 0.28689 0.44794
 H2650 H 1.07943 0.30682 0.37763
 H2651 H 1.13332 0.22355 0.41959
 H2652 H 1.11324 0.25123 0.43408
 C2653 C 0.61068 0.73353 0.38767
 C2654 C 0.63470 0.72890 0.39047
 C2655 C 0.64428 0.70821 0.38181
 C2656 C 0.63048 0.69236 0.36947
 C2657 C 0.60684 0.69728 0.36612
 C2658 C 0.59699 0.71749 0.37522
 C2659 C 0.60109 0.75569 0.39746
 C2660 C 0.57721 0.76110 0.39730
 C2661 C 0.56922 0.78222 0.40612
 C2662 C 0.58479 0.79869 0.41514
 C2663 C 0.60859 0.79318 0.41581
 C2664 C 0.61675 0.77177 0.40747
 C2665 C 0.64913 0.74520 0.40133
 C2666 C 0.64042 0.76635 0.40925
 H2667 H 0.66754 0.74175 0.40332
 H2668 H 0.65239 0.77856 0.41712
 H2669 H 0.66268 0.70478 0.38408
 H2670 H 0.59587 0.68536 0.35655
 H2671 H 0.55069 0.78557 0.40599
 H2672 H 0.62095 0.80569 0.42253
 H2673 H 0.57875 0.72039 0.37199
 H2674 H 0.56438 0.74916 0.39069
 C2675 C 0.61325 0.23386 0.88828
 C2676 C 0.61147 0.22956 0.86405
 C2677 C 0.62070 0.20908 0.85449
 C2678 C 0.63248 0.19304 0.86859
 C2679 C 0.63463 0.19757 0.89250
 C2680 C 0.62506 0.21759 0.90228
 C2681 C 0.60306 0.25588 0.89780
 C2682 C 0.60261 0.26112 0.92177
 C2683 C 0.59350 0.28215 0.92971
 C2684 C 0.58473 0.29865 0.91402
 C2685 C 0.58464 0.29331 0.89012
 C2686 C 0.59341 0.27204 0.88198
 C2687 C 0.60101 0.24596 0.84943
 C2688 C 0.59250 0.26689 0.85815
 H2689 H 0.59976 0.24276 0.83087
 H2690 H 0.58493 0.27917 0.84604
 H2691 H 0.61926 0.20596 0.83592
 H2692 H 0.64368 0.18551 0.90377
 H2693 H 0.59323 0.28542 0.94828
 H2694 H 0.57811 0.30586 0.87770
 H2695 H 0.62742 0.22015 0.92073
 H2696 H 0.60902 0.24918 0.93472
 C2697 C 0.88538 0.73833 1.11893
 C2698 C 0.87394 0.72296 1.10348
 C2699 C 0.86371 0.70254 1.11201
 C2700 C 0.86541 0.69674 1.13568
 C2701 C 0.87737 0.71165 1.15080
 C2702 C 0.88713 0.73221 1.14261
 C2703 C 0.89550 0.76024 1.10927
 C2704 C 0.90545 0.77753 1.12345
 C2705 C 0.91464 0.79765 1.11367
 C2706 C 0.91444 0.80108 1.08946
 C2707 C 0.90438 0.78400 1.07519
 C2708 C 0.89460 0.76390 1.08492
 C2709 C 0.87316 0.72785 1.07960
 C2710 C 0.88360 0.74768 1.07047
 H2711 H 0.86459 0.71600 1.06772
 H2712 H 0.88274 0.75054 1.05183
 H2713 H 0.85487 0.69090 1.10012
 H2714 H 0.87903 0.70752 1.16913
 H2715 H 0.92154 0.81079 1.12524
 H2716 H 0.90414 0.78629 1.05646
 H2717 H 0.89617 0.74289 1.15508
 H2718 H 0.90593 0.77609 1.14217
 C2719 C 0.88675 0.23644 0.61766
 C2720 C 0.86267 0.23225 0.61469
 C2721 C 0.85264 0.21183 0.62346
 C2722 C 0.86610 0.19582 0.63598
 C2723 C 0.88976 0.20043 0.63960
 C2724 C 0.90001 0.22037 0.63048
 C2725 C 0.89693 0.25810 0.60746
 C2726 C 0.92095 0.26288 0.60769
 C2727 C 0.92956 0.28343 0.59819
 C2728 C 0.91450 0.29992 0.58838
 C2729 C 0.89054 0.29509 0.58779
 C2730 C 0.88176 0.27424 0.59682
 C2731 C 0.84870 0.24865 0.60337
 C2732 C 0.85797 0.26937 0.59501
 H2733 H 0.83024 0.24557 0.60126
 H2734 H 0.84636 0.28165 0.58669
 H2735 H 0.83424 0.20863 0.62094
 H2736 H 0.90052 0.18840 0.64928
 H2737 H 0.94816 0.28628 0.59834
 H2738 H 0.87858 0.30766 0.58048
 H2739 H 0.91826 0.22295 0.63390
 H2740 H 0.93343 0.25087 0.61482
 C2741 C 0.38726 0.73686 0.61543
 C2742 C 0.36319 0.73263 0.61250
 C2743 C 0.35320 0.71216 0.62120
 C2744 C 0.36670 0.69612 0.63364
 C2745 C 0.39038 0.70069 0.63714
 C2746 C 0.40059 0.72069 0.62808
 C2747 C 0.39735 0.75866 0.60543
 C2748 C 0.42134 0.76359 0.60574
 C2749 C 0.42984 0.78430 0.59650
 C2750 C 0.41469 0.80082 0.58686
 C2751 C 0.39077 0.79585 0.58618
 C2752 C 0.38210 0.77485 0.59497
 C2753 C 0.34915 0.74907 0.60133
 C2754 C 0.35833 0.76990 0.59313
 H2755 H 0.33069 0.74596 0.59923
 H2756 H 0.34666 0.78220 0.58494
 H2757 H 0.33478 0.70898 0.61877
 H2758 H 0.40117 0.68863 0.64676
 H2759 H 0.44842 0.78726 0.59671
 H2760 H 0.37874 0.80844 0.57902
 H2761 H 0.41886 0.72326 0.63142
 H2762 H 0.43388 0.75157 0.61276
 C2763 C 0.38350 0.23761 1.11613
 C2764 C 0.39868 0.22150 1.12685
 C2765 C 0.38987 0.20064 1.13594
 C2766 C 0.36617 0.19521 1.13384
 C2767 C 0.35135 0.21094 1.12259
 C2768 C 0.35981 0.23186 1.11393
 C2769 C 0.39340 0.25987 1.10710
 C2770 C 0.37945 0.27770 1.09788
 C2771 C 0.38946 0.29792 1.08922
 C2772 C 0.41367 0.30096 1.08930
 C2773 C 0.42771 0.28355 1.09907
 C2774 C 0.41775 0.26322 1.10820
 C2775 C 0.42256 0.22613 1.12801
 C2776 C 0.43194 0.24637 1.11856
 H2777 H 0.43425 0.21375 1.13605
 H2778 H 0.45057 0.24897 1.11960
 H2779 H 0.40156 0.18843 1.14427
 H2780 H 0.33300 0.20720 1.12064
 H2781 H 0.37808 0.31136 1.08262
 H2782 H 0.44643 0.28567 1.09936
 H2783 H 0.34752 0.24311 1.10536
 H2784 H 0.36075 0.27656 1.09741
 C2785 C 1.11460 1.11281 0.73272
 C2786 C 1.11165 1.13689 0.72890
 C2787 C 1.12050 1.14724 0.70859
 C2788 C 1.13308 1.13408 0.69234
 C2789 C 1.13647 1.11034 0.69646
 C2790 C 1.12727 1.09978 0.71627
 C2791 C 1.10466 1.10237 0.75445
 C2792 C 1.10518 1.07837 0.75907
 C2793 C 1.09609 1.06955 0.77979
 C2794 C 1.08638 1.08437 0.79660
 C2795 C 1.08547 1.10829 0.79194
 C2796 C 1.09414 1.11729 0.77095
 C2797 C 1.10039 1.15059 0.74561
 C2798 C 1.09217 1.14107 0.76635
 H2799 H 1.09826 1.16906 0.74280
 H2800 H 1.08393 1.15248 0.77890
 H2801 H 1.11813 1.16568 0.70574
 H2802 H 1.14617 1.09980 0.68421
 H2803 H 1.09649 1.05098 0.78255
 H2804 H 1.07825 1.12006 0.80477
 H2805 H 1.13059 1.08152 0.71850
 H2806 H 1.11227 1.06607 0.74682
 C2807 C 1.11100 0.61427 0.23022
 C2808 C 1.13420 0.60897 0.22403
 C2809 C 1.14379 0.61799 0.20346
 C2810 C 1.13117 0.63363 0.18947
 C2811 C 1.10848 0.63969 0.19637
 C2812 C 1.09844 0.62995 0.21626
 C2813 C 1.10121 0.60368 0.25197
 C2814 C 1.07757 0.60533 0.25809
 C2815 C 1.06942 0.59569 0.27886
 C2816 C 1.08465 0.58453 0.29443
 C2817 C 1.10817 0.58227 0.28801
 C2818 C 1.11633 0.59113 0.26673
 C2819 C 1.14796 0.59537 0.23883
 C2820 C 1.13942 0.58721 0.26003
 H2821 H 1.16584 0.59152 0.23426
 H2822 H 1.15096 0.57730 0.27115
 H2823 H 1.16153 0.61346 0.19892
 H2824 H 1.09822 0.65179 0.18624
 H2825 H 1.05102 0.59693 0.28259
 H2826 H 1.12037 0.57387 0.29962
 H2827 H 1.08101 0.63531 0.22070
 H2828 H 1.06505 0.61367 0.24688
 C2829 C 0.61130 1.11496 0.23011
 C2830 C 0.63454 1.10977 0.22400
 C2831 C 0.64418 1.11892 0.20351
 C2832 C 0.63156 1.13457 0.18953
 C2833 C 0.60882 1.14050 0.19635
 C2834 C 0.59873 1.13065 0.21616
 C2835 C 0.60146 1.10426 0.25178
 C2836 C 0.57780 1.10581 0.25781
 C2837 C 0.56961 1.09613 0.27854
 C2838 C 0.58483 1.08502 0.29415
 C2839 C 0.60837 1.08280 0.28779
 C2840 C 0.61657 1.09172 0.26656
 C2841 C 0.64829 1.09617 0.23879
 C2842 C 0.63970 1.08790 0.25993
 H2843 H 0.66621 1.09240 0.23429
 H2844 H 0.65124 1.07800 0.27106
 H2845 H 0.66196 1.11448 0.19903
 H2846 H 0.59855 1.15261 0.18623
 H2847 H 0.55120 1.09733 0.28223
 H2848 H 0.62055 1.07442 0.29944
 H2849 H 0.58126 1.13593 0.22054
 H2850 H 0.56528 1.11413 0.24657
 C2851 C 0.61222 0.61614 0.73258
 C2852 C 0.62484 0.60153 0.71731
 C2853 C 0.63446 0.61060 0.69670
 C2854 C 0.63084 0.63392 0.69064
 C2855 C 0.61735 0.64799 0.70530
 C2856 C 0.60823 0.63932 0.72600
 C2857 C 0.60323 0.60620 0.75492
 C2858 C 0.59290 0.61995 0.77235
 C2859 C 0.58460 0.60996 0.79280
 C2860 C 0.58603 0.58592 0.79644
 C2861 C 0.59684 0.57211 0.77935
 C2862 C 0.60581 0.58214 0.75890
 C2863 C 0.62745 0.57794 0.72257
 C2864 C 0.61771 0.56835 0.74267
 H2865 H 0.63688 0.56663 0.71079
 H2866 H 0.61991 0.54995 0.74576
 H2867 H 0.64446 0.59946 0.68524
 H2868 H 0.61416 0.66600 0.70099
 H2869 H 0.57731 0.62128 0.80597
 H2870 H 0.59822 0.55355 0.78187
 H2871 H 0.59797 0.65101 0.73648
 H2872 H 0.59145 0.63853 0.77077
 C2873 C 0.88847 0.88958 0.73191
 C2874 C 0.89112 0.86556 0.72749
 C2875 C 0.88229 0.85582 0.70689
 C2876 C 0.86996 0.86948 0.69087
 C2877 C 0.86712 0.89321 0.69539
 C2878 C 0.87637 0.90321 0.71552
 C2879 C 0.89797 0.89922 0.75425
 C2880 C 0.89738 0.92303 0.75979
 C2881 C 0.90586 0.93103 0.78113
 C2882 C 0.91501 0.91555 0.79764
 C2883 C 0.91603 0.89184 0.79204
 C2884 C 0.90794 0.88367 0.77048
 C2885 C 0.90192 0.85124 0.74395
 C2886 C 0.90984 0.86004 0.76512
 H2887 H 0.90385 0.83284 0.74063
 H2888 H 0.91767 0.84815 0.77746
 H2889 H 0.88424 0.83737 0.70378
 H2890 H 0.85763 0.90412 0.68333
 H2891 H 0.90539 0.94948 0.78462
 H2892 H 0.92281 0.87957 0.80461
 H2893 H 0.87342 0.92149 0.71813
 H2894 H 0.89063 0.93578 0.74785
 C2895 C 0.88690 0.38868 0.23177
 C2896 C 0.89278 0.36564 0.22570
 C2897 C 0.88389 0.35569 0.20525
 C2898 C 0.86771 0.36771 0.19135
 C2899 C 0.86137 0.39037 0.19791
 C2900 C 0.87102 0.40082 0.21764
 C2901 C 0.89697 0.39869 0.25366
 C2902 C 0.89449 0.42217 0.25991
 C2903 C 0.90356 0.43046 0.28089
 C2904 C 0.91497 0.41551 0.29651
 C2905 C 0.91798 0.39215 0.29001
 C2906 C 0.90972 0.38389 0.26856
 C2907 C 0.90667 0.35227 0.24059
 C2908 C 0.91440 0.36100 0.26186
 H2909 H 0.91099 0.33453 0.23609
 H2910 H 0.92449 0.34973 0.27309
 H2911 H 0.88874 0.33802 0.20091
 H2912 H 0.84893 0.40022 0.18778
 H2913 H 0.90170 0.44874 0.28474
 H2914 H 0.92651 0.38014 0.30171
 H2915 H 0.86532 0.41814 0.22190
 H2916 H 0.88591 0.43448 0.24865
 C2917 C 0.39109 0.88466 0.23086
 C2918 C 0.37902 0.89968 0.21559
 C2919 C 0.36963 0.89103 0.19472
 C2920 C 0.37286 0.86771 0.18842
 C2921 C 0.38609 0.85328 0.20293
 C2922 C 0.39504 0.86157 0.22390
 C2923 C 0.39941 0.89406 0.25369
 C2924 C 0.40878 0.87983 0.27122
 C2925 C 0.41631 0.88931 0.29223
 C2926 C 0.41506 0.91330 0.29631
 C2927 C 0.40519 0.92758 0.27909
 C2928 C 0.39695 0.91808 0.25810
 C2929 C 0.37657 0.92322 0.22120
 C2930 C 0.38582 0.93232 0.24175
 H2931 H 0.36761 0.93484 0.20940
 H2932 H 0.38373 0.95069 0.24516
 H2933 H 0.35986 0.90245 0.18335
 H2934 H 0.38903 0.83528 0.19841
 H2935 H 0.42286 0.87764 0.30545
 H2936 H 0.40396 0.94612 0.28194
 H2937 H 0.40500 0.84962 0.23435
 H2938 H 0.41002 0.86127 0.26929
 C2939 C 0.39068 0.38551 0.73021
 C2940 C 0.37552 0.39937 0.71677
 C2941 C 0.36581 0.39048 0.69614
 C2942 C 0.37197 0.36824 0.68796
 C2943 C 0.38871 0.35550 0.70046
 C2944 C 0.39775 0.36388 0.72135
 C2945 C 0.39894 0.39466 0.75315
 C2946 C 0.41050 0.38068 0.76951
 C2947 C 0.41774 0.38983 0.79076
 C2948 C 0.41423 0.41338 0.79619
 C2949 C 0.40216 0.42731 0.78008
 C2950 C 0.39389 0.41793 0.75903
 C2951 C 0.37041 0.42208 0.72389
 C2952 C 0.38000 0.43140 0.74420
 H2953 H 0.35914 0.43294 0.71342
 H2954 H 0.37585 0.44917 0.74875
 H2955 H 0.35358 0.40103 0.68642
 H2956 H 0.39435 0.33855 0.69459
 H2957 H 0.42581 0.37817 0.80310
 H2958 H 0.39907 0.44546 0.78383
 H2959 H 0.41034 0.35321 0.73027
 H2960 H 0.41353 0.36245 0.76649
 C2961 C 1.11155 0.88776 1.26948
 C2962 C 1.13462 0.89335 1.27580
 C2963 C 1.14441 0.88397 1.29610
 C2964 C 1.13221 0.86755 1.30953
 C2965 C 1.10955 0.86144 1.30266
 C2966 C 1.09924 0.87160 1.28313
 C2967 C 1.10171 0.89836 1.24778
 C2968 C 1.07817 0.89629 1.24146
 C2969 C 1.07007 0.90573 1.22058
 C2970 C 1.08528 0.91705 1.20512
 C2971 C 1.10866 0.91980 1.21180
 C2972 C 1.11673 0.91119 1.23318
 C2973 C 1.14819 0.90741 1.26128
 C2974 C 1.13966 0.91556 1.24010
 H2975 H 1.16597 0.91151 1.26598
 H2976 H 1.15110 0.92574 1.22912
 H2977 H 1.16210 0.88863 1.30066
 H2978 H 1.09960 0.84881 1.31243
 H2979 H 1.05175 0.90414 1.21665
 H2980 H 1.12086 0.92833 1.20028
 H2981 H 1.08191 0.86608 1.27859
 H2982 H 1.06570 0.88775 1.25256
 C2983 C 1.11304 0.38834 0.76817
 C2984 C 1.10967 0.36437 0.77231
 C2985 C 1.11828 0.35414 0.79273
 C2986 C 1.13116 0.36717 0.80882
 C2987 C 1.13489 0.39081 0.80453
 C2988 C 1.12580 0.40135 0.78458
 C2989 C 1.10353 0.39853 0.74608
 C2990 C 1.10448 0.42241 0.74094
 C2991 C 1.09579 0.43093 0.71988
 C2992 C 1.08612 0.41589 0.70323
 C2993 C 1.08487 0.39211 0.70841
 C2994 C 1.09304 0.38345 0.72972
 C2995 C 1.09838 0.35057 0.75575
 C2996 C 1.09061 0.35982 0.73475
 H2997 H 1.09594 0.33219 0.75885
 H2998 H 1.08237 0.34831 0.72231
 H2999 H 1.11570 0.33574 0.79564
 H3000 H 1.14490 0.40120 0.81663
 H3001 H 1.09648 0.44942 0.71675
 H3002 H 1.07778 0.38013 0.69573
 H3003 H 1.12937 0.41954 0.78210
 H3004 H 1.11162 0.43482 0.75304
 C3005 C 0.61353 0.88829 0.76735
 C3006 C 0.61061 0.86422 0.77129
 C3007 C 0.61921 0.85401 0.79177
 C3008 C 0.63155 0.86726 0.80811
 C3009 C 0.63479 0.89100 0.80398
 C3010 C 0.62580 0.90145 0.78398
 C3011 C 0.60400 0.89852 0.74530
 C3012 C 0.60463 0.92246 0.74039
 C3013 C 0.59591 0.93106 0.71939
 C3014 C 0.58646 0.91607 0.70260
 C3015 C 0.58552 0.89220 0.70753
 C3016 C 0.59381 0.88344 0.72876
 C3017 C 0.59969 0.85037 0.75451
 C3018 C 0.59180 0.85970 0.73356
 H3019 H 0.59758 0.83192 0.75742
 H3020 H 0.58382 0.84817 0.72098
 H3021 H 0.61696 0.83556 0.79460
 H3022 H 0.64431 0.90160 0.81629
 H3023 H 0.59636 0.94959 0.71643
 H3024 H 0.57855 0.88028 0.69471
 H3025 H 0.62900 0.91973 0.78171
 H3026 H 0.61155 0.93488 0.75260
 C3027 C 0.61290 0.38991 1.26996
 C3028 C 0.60668 0.36703 1.27629
 C3029 C 0.61507 0.35735 1.29712
 C3030 C 0.63109 0.36949 1.31110
 C3031 C 0.63784 0.39191 1.30417
 C3032 C 0.62869 0.40208 1.28412
 C3033 C 0.60329 0.39974 1.24780
 C3034 C 0.60602 0.42314 1.24139
 C3035 C 0.59729 0.43131 1.22023
 C3036 C 0.58599 0.41632 1.20458
 C3037 C 0.58278 0.39302 1.21121
 C3038 C 0.59066 0.38489 1.23286
 C3039 C 0.59296 0.35361 1.26130
 C3040 C 0.58570 0.36212 1.23976
 H3041 H 0.58839 0.33598 1.26596
 H3042 H 0.57570 0.35081 1.22849
 H3043 H 0.60998 0.33984 1.30174
 H3044 H 0.65018 0.40185 1.31433
 H3045 H 0.59929 0.44955 1.21629
 H3046 H 0.57432 0.38096 1.19951
 H3047 H 0.63470 0.41923 1.27965
 H3048 H 0.61447 0.43550 1.25268
 C3049 C 0.89006 1.10985 1.27079
 C3050 C 0.89572 1.13296 1.27681
 C3051 C 0.88692 1.14283 1.29739
 C3052 C 0.87100 1.13062 1.31141
 C3053 C 0.86504 1.10782 1.30499
 C3054 C 0.87462 1.09749 1.28518
 C3055 C 0.89975 1.10000 1.24864
 C3056 C 0.89731 1.07653 1.24232
 C3057 C 0.90590 1.06842 1.22105
 C3058 C 0.91679 1.08353 1.20523
 C3059 C 0.91979 1.10687 1.21180
 C3060 C 0.91200 1.11497 1.23351
 C3061 C 0.90917 1.14648 1.26168
 C3062 C 0.91659 1.13788 1.24021
 H3063 H 0.91335 1.16427 1.26613
 H3064 H 0.92631 1.14928 1.22880
 H3065 H 0.89148 1.16057 1.30166
 H3066 H 0.85285 1.09780 1.31525
 H3067 H 0.90408 1.05016 1.21713
 H3068 H 0.92792 1.11901 1.19996
 H3069 H 0.86912 1.08009 1.28104
 H3070 H 0.88912 1.06410 1.25370
 C3071 C 0.88514 0.61789 0.76481
 C3072 C 0.87363 0.60280 0.78046
 C3073 C 0.86426 0.61151 0.80134
 C3074 C 0.86697 0.63496 0.80731
 C3075 C 0.87911 0.64965 0.79213
 C3076 C 0.88798 0.64132 0.77113
 C3077 C 0.89428 0.60812 0.74241
 C3078 C 0.90400 0.62207 0.72482
 C3079 C 0.91259 0.61219 0.70439
 C3080 C 0.91201 0.58809 0.70093
 C3081 C 0.90185 0.57407 0.71818
 C3082 C 0.89268 0.58392 0.73863
 C3083 C 0.87196 0.57909 0.77538
 C3084 C 0.88166 0.56979 0.75513
 H3085 H 0.86335 0.56746 0.78744
 H3086 H 0.88022 0.55128 0.75219
 H3087 H 0.85528 0.59992 0.81318
 H3088 H 0.88155 0.66780 0.79636
 H3089 H 0.91946 0.62361 0.69110
 H3090 H 0.90119 0.55543 0.71582
 H3091 H 0.89723 0.65346 0.76028
 H3092 H 0.90482 0.64070 0.72628
 C3093 C 0.38760 1.11063 0.76894
 C3094 C 0.39408 1.13339 0.77542
 C3095 C 0.38538 1.14324 0.79601
 C3096 C 0.36876 1.13149 0.80961
 C3097 C 0.36182 1.10914 0.80264
 C3098 C 0.37131 1.09873 0.78279
 C3099 C 0.39748 1.10072 0.74690
 C3100 C 0.39448 1.07741 0.74028
 C3101 C 0.40342 1.06924 0.71917
 C3102 C 0.41517 1.08417 0.70378
 C3103 C 0.41868 1.10734 0.71066
 C3104 C 0.41061 1.11544 0.73225
 C3105 C 0.40835 1.14662 0.76079
 C3106 C 0.41586 1.13807 0.73935
 H3107 H 0.41312 1.16416 0.76560
 H3108 H 0.42625 1.14926 0.72832
 H3109 H 0.39069 1.16068 0.80066
 H3110 H 0.34901 1.09953 0.81254
 H3111 H 0.40118 1.05106 0.71505
 H3112 H 0.42746 1.11936 0.69917
 H3113 H 0.36514 1.08167 0.77820
 H3114 H 0.38562 1.06515 0.75134
 C3115 C 0.38784 0.61027 1.26888
 C3116 C 0.39369 0.63328 1.27505
 C3117 C 0.38506 0.64304 1.29574
 C3118 C 0.36918 0.63082 1.30980
 C3119 C 0.36279 0.60822 1.30308
 C3120 C 0.37217 0.59799 1.28311
 C3121 C 0.39772 0.60040 1.24683
 C3122 C 0.39530 0.57693 1.24052
 C3123 C 0.40424 0.56875 1.21942
 C3124 C 0.41545 0.58379 1.20376
 C3125 C 0.41839 0.60714 1.21031
 C3126 C 0.41026 0.61530 1.23187
 C3127 C 0.40734 0.64677 1.26006
 C3128 C 0.41488 0.63818 1.23864
 H3129 H 0.41164 0.66450 1.26462
 H3130 H 0.42481 0.64953 1.22736
 H3131 H 0.38990 0.66066 1.30020
 H3132 H 0.35055 0.59824 1.31332
 H3133 H 0.40244 0.55047 1.21553
 H3134 H 0.42679 0.61921 1.19858
 H3135 H 0.36645 0.58071 1.27878
 H3136 H 0.38690 0.56455 1.25181
 C3137 C 1.11279 1.26222 0.88209
 C3138 C 1.13591 1.26825 0.88786
 C3139 C 1.14562 1.28893 0.87937
 C3140 C 1.13314 1.30324 0.86391
 C3141 C 1.11064 1.29636 0.85720
 C3142 C 1.10051 1.27634 0.86633
 C3143 C 1.10268 1.24061 0.89243
 C3144 C 1.07901 1.23478 0.89045
 C3145 C 1.07048 1.21428 0.90015
 C3146 C 1.08535 1.19871 0.91171
 C3147 C 1.10894 1.20475 0.91414
 C3148 C 1.11748 1.22576 0.90524
 C3149 C 1.14939 1.25328 0.90154
 C3150 C 1.14058 1.23219 0.90948
 H3151 H 1.16723 1.25769 0.90572
 H3152 H 1.15189 1.22098 0.91954
 H3153 H 1.16324 1.29344 0.88434
 H3154 H 1.10051 1.30669 0.84515
 H3155 H 1.05205 1.21078 0.89871
 H3156 H 1.12088 1.19307 0.92281
 H3157 H 1.08321 1.27201 0.86054
 H3158 H 1.06672 1.24605 0.88188
 C3159 C 1.11780 0.76233 0.38429
 C3160 C 1.10262 0.77824 0.37326
 C3161 C 1.11142 0.79899 0.36387
 C3162 C 1.13510 0.80450 0.36600
 C3163 C 1.14988 0.78903 0.37765
 C3164 C 1.14143 0.76823 0.38660
 C3165 C 1.10794 0.74009 0.39344
 C3166 C 1.12193 0.72236 0.40281
 C3167 C 1.11199 0.70207 0.41139
 C3168 C 1.08780 0.69886 0.41113
 C3169 C 1.07372 0.71624 0.40132
 C3170 C 1.08363 0.73660 0.39220
 C3171 C 1.07876 0.77350 0.37202
 C3172 C 1.06942 0.75332 0.38164
 H3173 H 1.06707 0.78574 0.36377
 H3174 H 1.05081 0.75062 0.38050
 H3175 H 1.09976 0.81101 0.35524
 H3176 H 1.16821 0.79285 0.37964
 H3177 H 1.12342 0.68868 0.41802
 H3178 H 1.05501 0.71404 0.40090
 H3179 H 1.15369 0.75716 0.39544
 H3180 H 1.14062 0.72361 0.40338
 C3181 C 0.61683 1.26483 0.38526
 C3182 C 0.60298 1.27821 0.36999
 C3183 C 0.61178 1.29891 0.36051
 C3184 C 0.63369 1.30746 0.36733
 C3185 C 0.64666 1.29468 0.38369
 C3186 C 0.63853 1.27360 0.39229
 C3187 C 0.60739 1.24231 0.39406
 C3188 C 0.62113 1.22614 0.40617
 C3189 C 0.61154 1.20549 0.41432
 C3190 C 0.58780 1.20051 0.41119
 C3191 C 0.57414 1.21640 0.39852
 C3192 C 0.58394 1.23677 0.38934
 C3193 C 0.58020 1.27120 0.36494
 C3194 C 0.57064 1.25133 0.37502
 H3195 H 0.56937 1.28158 0.35354
 H3196 H 0.55275 1.24697 0.37105
 H3197 H 0.60111 1.30876 0.34848
 H3198 H 0.66348 1.30069 0.38966
 H3199 H 0.62301 1.19327 0.42282
 H3200 H 0.55583 1.21306 0.39573
 H3201 H 0.64927 1.26465 0.40481
 H3202 H 0.63947 1.22887 0.40901
 C3203 C 0.61677 0.76093 0.88303
 C3204 C 0.60165 0.77642 0.87135
 C3205 C 0.61028 0.79737 0.86227
 C3206 C 0.63365 0.80359 0.86551
 C3207 C 0.64836 0.78854 0.87778
 C3208 C 0.64014 0.76746 0.88632
 C3209 C 0.60709 0.73851 0.89196
 C3210 C 0.62111 0.72109 0.90183
 C3211 C 0.61128 0.70070 0.91035
 C3212 C 0.58714 0.69710 0.90954
 C3213 C 0.57307 0.71414 0.89913
 C3214 C 0.58289 0.73456 0.89003
 C3215 C 0.57797 0.77114 0.86929
 C3216 C 0.56872 0.75087 0.87882
 H3217 H 0.56631 0.78306 0.86054
 H3218 H 0.55021 0.74779 0.87711
 H3219 H 0.59866 0.80911 0.85319
 H3220 H 0.66644 0.79297 0.88061
 H3221 H 0.62276 0.68757 0.91738
 H3222 H 0.55442 0.71167 0.89827
 H3223 H 0.65228 0.75673 0.89571
 H3224 H 0.63976 0.72268 0.90287
 C3225 C 0.88115 1.26047 1.11890
 C3226 C 0.89625 1.27615 1.13035
 C3227 C 0.88743 1.29678 1.13998
 C3228 C 0.86383 1.30249 1.13759
 C3229 C 0.84902 1.28713 1.12586
 C3230 C 0.85747 1.26635 1.11675
 C3231 C 0.89119 1.23861 1.10895
 C3232 C 0.87740 1.22121 1.09870
 C3233 C 0.88757 1.20134 1.08931
 C3234 C 0.91179 1.19827 1.08964
 C3235 C 0.92565 1.21535 1.10022
 C3236 C 0.91553 1.23524 1.11013
 C3237 C 0.92012 1.27145 1.13157
 C3238 C 0.92960 1.25162 1.12136
 H3239 H 0.93173 1.28350 1.14020
 H3240 H 0.94822 1.24897 1.12246
 H3241 H 0.89909 1.30875 1.14867
 H3242 H 0.83075 1.29118 1.12372
 H3243 H 0.87631 1.18816 1.08204
 H3244 H 0.94437 1.21329 1.10062
 H3245 H 0.84524 1.25539 1.10775
 H3246 H 0.85871 1.22241 1.09801
 C3247 C 0.88167 0.76272 0.61630
 C3248 C 0.89690 0.77821 0.62782
 C3249 C 0.88833 0.79903 0.63723
 C3250 C 0.86486 0.80517 0.63457
 C3251 C 0.84995 0.79011 0.62257
 C3252 C 0.85815 0.76910 0.61366
 C3253 C 0.89141 0.74047 0.60689
 C3254 C 0.87742 0.72310 0.59687
 C3255 C 0.88733 0.70284 0.58803
 C3256 C 0.91150 0.69933 0.58866
 C3257 C 0.92554 0.71639 0.59904
 C3258 C 0.91567 0.73665 0.60844
 C3259 C 0.92066 0.77307 0.62942
 C3260 C 0.92990 0.75295 0.61959
 H3261 H 0.93237 0.78500 0.63808
 H3262 H 0.94845 0.74997 0.62099
 H3263 H 0.90010 0.81078 0.64609
 H3264 H 0.83179 0.79449 0.62018
 H3265 H 0.87589 0.68971 0.58094
 H3266 H 0.94422 0.71403 0.59968
 H3267 H 0.84587 0.75832 0.60451
 H3268 H 0.85876 0.72465 0.59598
 C3269 C 0.38262 1.26386 0.61378
 C3270 C 0.39675 1.27733 0.62869
 C3271 C 0.38810 1.29798 0.63836
 C3272 C 0.36592 1.30640 0.63223
 C3273 C 0.35250 1.29350 0.61637
 C3274 C 0.36058 1.27243 0.60749
 C3275 C 0.39212 1.24141 0.60467
 C3276 C 0.37839 1.22524 0.59255
 C3277 C 0.38806 1.20464 0.58422
 C3278 C 0.41183 1.19973 0.58722
 C3279 C 0.42551 1.21565 0.59978
 C3280 C 0.41569 1.23598 0.60906
 C3281 C 0.41968 1.27048 0.63327
 C3282 C 0.42915 1.25061 0.62312
 H3283 H 0.43068 1.28095 0.64443
 H3284 H 0.44714 1.24634 0.62678
 H3285 H 0.39910 1.30789 0.65003
 H3286 H 0.33545 1.29943 0.61099
 H3287 H 0.37664 1.19241 0.57566
 H3288 H 0.44386 1.21235 0.60238
 H3289 H 0.34950 1.26335 0.59538
 H3290 H 0.36003 1.22793 0.58980
 C3291 C 0.38365 0.76407 1.11213
 C3292 C 0.39790 0.77771 1.12676
 C3293 C 0.38928 0.79842 1.13634
 C3294 C 0.36698 0.80667 1.13045
 C3295 C 0.35349 0.79368 1.11472
 C3296 C 0.36156 0.77259 1.10590
 C3297 C 0.39304 0.74147 1.10332
 C3298 C 0.37916 0.72512 1.09163
 C3299 C 0.38869 0.70434 1.08363
 C3300 C 0.41248 0.69941 1.08653
 C3301 C 0.42631 0.71551 1.09867
 C3302 C 0.41662 0.73605 1.10763
 C3303 C 0.42087 0.77092 1.13125
 C3304 C 0.43023 0.75088 1.12133
 H3305 H 0.43195 0.78153 1.14218
 H3306 H 0.44823 0.74664 1.12492
 H3307 H 0.40034 0.80841 1.14788
 H3308 H 0.33636 0.79951 1.10948
 H3309 H 0.37717 0.69199 1.07541
 H3310 H 0.44466 0.71217 1.10121
 H3311 H 0.35042 0.76338 1.09393
 H3312 H 0.36078 0.72782 1.08899
 C3313 C 0.88718 0.73442 0.88931
 C3314 C 0.88931 0.73020 0.86510
 C3315 C 0.88019 0.70980 0.85536
 C3316 C 0.86807 0.69385 0.86924
 C3317 C 0.86539 0.69839 0.89309
 C3318 C 0.87493 0.71831 0.90307
 C3319 C 0.89745 0.75625 0.89906
 C3320 C 0.89791 0.76121 0.92309
 C3321 C 0.90710 0.78208 0.93126
 C3322 C 0.91592 0.79870 0.91574
 C3323 C 0.91605 0.79362 0.89178
 C3324 C 0.90728 0.77248 0.88343
 C3325 C 0.90001 0.74661 0.85067
 C3326 C 0.90841 0.76747 0.85957
 H3327 H 0.90149 0.74348 0.83210
 H3328 H 0.91614 0.77979 0.84761
 H3329 H 0.88195 0.70666 0.83682
 H3330 H 0.85603 0.68639 0.90415
 H3331 H 0.90739 0.78513 0.94987
 H3332 H 0.92264 0.80626 0.87949
 H3333 H 0.87219 0.72090 0.92147
 H3334 H 0.89146 0.74914 0.93589
 C3335 C 0.88143 0.23742 0.38308
 C3336 C 0.89561 0.22376 0.36833
 C3337 C 0.88689 0.20314 0.35864
 C3338 C 0.86462 0.19492 0.36466
 C3339 C 0.85106 0.20814 0.38018
 C3340 C 0.85919 0.22917 0.38903
 C3341 C 0.89110 0.25965 0.39250
 C3342 C 0.87745 0.27589 0.40467
 C3343 C 0.88732 0.29617 0.41348
 C3344 C 0.91121 0.30071 0.41090
 C3345 C 0.92481 0.28475 0.39824
 C3346 C 0.91481 0.26472 0.38852
 C3347 C 0.91868 0.23034 0.36407
 C3348 C 0.92826 0.25002 0.37448
 H3349 H 0.92970 0.21976 0.35302
 H3350 H 0.94635 0.25403 0.37110
 H3351 H 0.89796 0.19302 0.34718
 H3352 H 0.83391 0.20242 0.38542
 H3353 H 0.87597 0.30847 0.42208
 H3354 H 0.94325 0.28776 0.39594
 H3355 H 0.84802 0.23841 0.40095
 H3356 H 0.85902 0.27350 0.40714
 C3357 C 0.38739 0.73534 0.38382
 C3358 C 0.36340 0.73073 0.38686
 C3359 C 0.35370 0.71010 0.37812
 C3360 C 0.36740 0.69430 0.36554
 C3361 C 0.39096 0.69936 0.36181
 C3362 C 0.40089 0.71949 0.37091
 C3363 C 0.39723 0.75718 0.39402
 C3364 C 0.42117 0.76230 0.39382
 C3365 C 0.42946 0.78306 0.40319
 C3366 C 0.41415 0.79946 0.41282
 C3367 C 0.39027 0.79423 0.41352
 C3368 C 0.38182 0.77315 0.40461
 C3369 C 0.34918 0.74694 0.39819
 C3370 C 0.35810 0.76788 0.40647
 H3371 H 0.33077 0.74357 0.40035
 H3372 H 0.34630 0.78000 0.41476
 H3373 H 0.33537 0.70656 0.38072
 H3374 H 0.40191 0.68752 0.35208
 H3375 H 0.44802 0.78614 0.40303
 H3376 H 0.37812 0.80667 0.42075
 H3377 H 0.41907 0.72242 0.36741
 H3378 H 0.43384 0.75040 0.38680
 C3379 C 0.38651 0.23601 0.88215
 C3380 C 0.36347 0.22980 0.88802
 C3381 C 0.35380 0.20917 0.87932
 C3382 C 0.36627 0.19512 0.86357
 C3383 C 0.38863 0.20226 0.85669
 C3384 C 0.39871 0.22222 0.86600
 C3385 C 0.39663 0.25748 0.89278
 C3386 C 0.42029 0.26332 0.89077
 C3387 C 0.42884 0.28371 0.90068
 C3388 C 0.41400 0.29915 0.91247
 C3389 C 0.39044 0.29305 0.91503
 C3390 C 0.38188 0.27212 0.90591
 C3391 C 0.35003 0.24453 0.90204
 C3392 C 0.35883 0.26556 0.91022
 H3393 H 0.33225 0.24000 0.90630
 H3394 H 0.34756 0.27660 0.92054
 H3395 H 0.33627 0.20446 0.88441
 H3396 H 0.39874 0.19216 0.84440
 H3397 H 0.44726 0.28723 0.89918
 H3398 H 0.37855 0.30461 0.92396
 H3399 H 0.41592 0.22676 0.86009
 H3400 H 0.43256 0.25214 0.88202
 C3401 C 1.11494 0.73391 1.11019
 C3402 C 1.10086 0.72069 1.12537
 C3403 C 1.10957 0.70008 1.13522
 C3404 C 1.13176 0.69169 1.12905
 C3405 C 1.14474 0.70410 1.11241
 C3406 C 1.13660 0.72495 1.10331
 C3407 C 1.10593 0.75668 1.10157
 C3408 C 1.12010 0.77278 1.08991
 C3409 C 1.11105 0.79385 1.08224
 C3410 C 1.08743 0.79935 1.08539
 C3411 C 1.07329 0.78346 1.09753
 C3412 C 1.08257 0.76263 1.10626
 C3413 C 1.07809 0.72795 1.13022
 C3414 C 1.06890 0.74808 1.12025
 H3415 H 1.06706 0.71767 1.14151
 H3416 H 1.05105 0.75271 1.12417
 H3417 H 1.09887 0.69047 1.14740
 H3418 H 1.16170 0.69813 1.10676
 H3419 H 1.12288 0.80599 1.07415
 H3420 H 1.05505 0.78721 1.10033
 H3421 H 1.14743 0.73369 1.09073
 H3422 H 1.13841 0.76972 1.08715
 C3423 C 1.11460 0.23744 0.61696
 C3424 C 1.12961 0.22402 0.60283
 C3425 C 1.13947 0.20347 0.61161
 C3426 C 1.13336 0.19515 0.63386
 C3427 C 1.11718 0.20790 0.64711
 C3428 C 1.10816 0.22882 0.63894
 C3429 C 1.10554 0.25991 0.60756
 C3430 C 1.09369 0.27615 0.62149
 C3431 C 1.08542 0.29680 0.61197
 C3432 C 1.08813 0.30173 0.58811
 C3433 C 1.10048 0.28573 0.57424
 C3434 C 1.10979 0.26535 0.58395
 C3435 C 1.13410 0.23089 0.57984
 C3436 C 1.12381 0.25071 0.57038
 H3437 H 1.14529 0.22047 0.56881
 H3438 H 1.12740 0.25498 0.55235
 H3439 H 1.15133 0.19363 0.60073
 H3440 H 1.11174 0.20205 0.66419
 H3441 H 1.07715 0.30908 0.62359
 H3442 H 1.10294 0.28901 0.55583
 H3443 H 1.09587 0.23779 0.64993
 H3444 H 1.09118 0.27348 0.63992
 C3445 C 0.61191 0.73622 0.61313
 C3446 C 0.63601 0.73185 0.61068
 C3447 C 0.64567 0.71125 0.61944
 C3448 C 0.63181 0.69522 0.63147
 C3449 C 0.60806 0.69988 0.63441
 C3450 C 0.59817 0.72001 0.62527
 C3451 C 0.60222 0.75827 0.60325
 C3452 C 0.57828 0.76345 0.60321
 C3453 C 0.57018 0.78445 0.59426
 C3454 C 0.58567 0.80098 0.58527
 C3455 C 0.60954 0.79573 0.58484
 C3456 C 0.61783 0.77447 0.59337
 C3457 C 0.65042 0.74828 0.60002
 C3458 C 0.64159 0.76930 0.59191
 H3459 H 0.66890 0.74503 0.59829
 H3460 H 0.65353 0.78161 0.58416
 H3461 H 0.66414 0.70800 0.61746
 H3462 H 0.59701 0.68782 0.64370
 H3463 H 0.55163 0.78765 0.59423
 H3464 H 0.62181 0.80832 0.57814
 H3465 H 0.57985 0.72268 0.62821
 H3466 H 0.56549 0.75146 0.60976
 C3467 C 0.61502 0.23479 1.11027
 C3468 C 0.60105 0.22152 1.12551
 C3469 C 0.60987 0.20097 1.13536
 C3470 C 0.63210 0.19267 1.12917
 C3471 C 0.64500 0.20514 1.11251
 C3472 C 0.63672 0.22593 1.10338
 C3473 C 0.60586 0.25749 1.10162
 C3474 C 0.61988 0.27361 1.08979
 C3475 C 0.61068 0.29460 1.08209
 C3476 C 0.58706 0.30003 1.08540
 C3477 C 0.57308 0.28414 1.09770
 C3478 C 0.58249 0.26336 1.10643
 C3479 C 0.57827 0.22869 1.13044
 C3480 C 0.56895 0.24879 1.12051
 H3481 H 0.56732 0.21839 1.14178
 H3482 H 0.55111 0.25335 1.12450
 H3483 H 0.59923 0.19132 1.14757
 H3484 H 0.66198 0.19925 1.10685
 H3485 H 0.62239 0.30677 1.07384
 H3486 H 0.55485 0.28785 1.10062
 H3487 H 0.64750 0.23471 1.09077
 H3488 H 0.63818 0.27061 1.08690
 C3489 C 1.26418 1.11844 0.88533
 C3490 C 1.28014 1.10329 0.87431
 C3491 C 1.30086 1.11206 0.86479
 C3492 C 1.30635 1.13570 0.86673
 C3493 C 1.29088 1.15050 0.87842
 C3494 C 1.27005 1.14207 0.88751
 C3495 C 1.24190 1.10856 0.89454
 C3496 C 1.22406 1.12246 0.90391
 C3497 C 1.20369 1.11247 0.91241
 C3498 C 1.20053 1.08832 0.91207
 C3499 C 1.21809 1.07435 0.90238
 C3500 C 1.23849 1.08429 0.89333
 C3501 C 1.27548 1.07948 0.87316
 C3502 C 1.25530 1.07013 0.88281
 H3503 H 1.28778 1.06782 0.86491
 H3504 H 1.25265 1.05156 0.88170
 H3505 H 1.31289 1.10038 0.85617
 H3506 H 1.29473 1.16879 0.88027
 H3507 H 1.19020 1.12382 0.91899
 H3508 H 1.21598 1.05568 0.90197
 H3509 H 1.25892 1.15430 0.89633
 H3510 H 1.22529 1.14111 0.90453
 C3511 C 1.26789 0.61153 0.38724
 C3512 C 1.27199 0.63564 0.38952
 C3513 C 1.29265 0.64541 0.38089
 C3514 C 1.30905 0.63164 0.36919
 C3515 C 1.30482 0.60781 0.36672
 C3516 C 1.28463 0.59783 0.37573
 C3517 C 1.24555 0.60180 0.39657
 C3518 C 1.24033 0.57793 0.39628
 C3519 C 1.21904 0.56981 0.40465
 C3520 C 1.20226 0.58522 0.41341
 C3521 C 1.20751 0.60902 0.41410
 C3522 C 1.22902 0.61733 0.40608
 C3523 C 1.25518 0.64996 0.39981
 C3524 C 1.23404 0.64105 0.40761
 H3525 H 1.25824 0.66843 0.40146
 H3526 H 1.22146 0.65293 0.41507
 H3527 H 1.29557 0.66391 0.38257
 H3528 H 1.31717 0.59679 0.35774
 H3529 H 1.21581 0.55132 0.40444
 H3530 H 1.19472 0.62123 0.42059
 H3531 H 1.28231 0.57946 0.37308
 H3532 H 1.25248 0.56519 0.38986
 C3533 C 0.76705 1.11230 0.38616
 C3534 C 0.77106 1.13644 0.38807
 C3535 C 0.79168 1.14613 0.37934
 C3536 C 0.80820 1.13224 0.36795
 C3537 C 0.80401 1.10839 0.36569
 C3538 C 0.78380 1.09849 0.37476
 C3539 C 0.74484 1.10264 0.39580
 C3540 C 0.73976 1.07874 0.39600
 C3541 C 0.71858 1.07068 0.40468
 C3542 C 0.70180 1.08617 0.41329
 C3543 C 0.70692 1.10999 0.41355
 C3544 C 0.72831 1.11825 0.40520
 C3545 C 0.75426 1.15087 0.39820
 C3546 C 0.73321 1.14202 0.40628
 H3547 H 0.75726 1.16937 0.39956
 H3548 H 0.72063 1.15396 0.41364
 H3549 H 0.79456 1.16465 0.38086
 H3550 H 0.81644 1.09728 0.35693
 H3551 H 0.71543 1.05217 0.40481
 H3552 H 0.69411 1.12223 0.41994
 H3553 H 0.78151 1.08009 0.37235
 H3554 H 0.75193 1.06596 0.38971
 C3555 C 0.76554 0.61633 0.88752
 C3556 C 0.78095 0.60143 0.87542
 C3557 C 0.80179 0.61022 0.86614
 C3558 C 0.80796 0.63353 0.86961
 C3559 C 0.79317 0.64788 0.88265
 C3560 C 0.77222 0.63949 0.89141
 C3561 C 0.74294 0.60668 0.89609
 C3562 C 0.72538 0.62071 0.90576
 C3563 C 0.70467 0.61098 0.91367
 C3564 C 0.70092 0.58694 0.91252
 C3565 C 0.71816 0.57286 0.90236
 C3566 C 0.73886 0.58261 0.89375
 C3567 C 0.77559 0.57785 0.87300
 C3568 C 0.75524 0.56854 0.88243
 H3569 H 0.78747 0.56633 0.86399
 H3570 H 0.75207 0.55013 0.88040
 H3571 H 0.81336 0.59887 0.85650
 H3572 H 0.79756 0.66589 0.88572
 H3573 H 0.69142 0.62249 0.92044
 H3574 H 0.71559 0.55429 0.90121
 H3575 H 0.76163 0.65138 0.90132
 H3576 H 0.72706 0.63929 0.90696
 C3577 C 1.26777 0.88860 1.11388
 C3578 C 1.27186 0.86451 1.11136
 C3579 C 1.29257 0.85466 1.11971
 C3580 C 1.30909 0.86831 1.13133
 C3581 C 1.30474 0.89205 1.13438
 C3582 C 1.28444 0.90213 1.12567
 C3583 C 1.24560 0.89848 1.10434
 C3584 C 1.24060 0.92240 1.10441
 C3585 C 1.21954 0.93069 1.09562
 C3586 C 1.20279 0.91539 1.08667
 C3587 C 1.20781 0.89154 1.08625
 C3588 C 1.22910 0.88307 1.09462
 C3589 C 1.25507 0.85030 1.10097
 C3590 C 1.23400 0.85932 1.09312
 H3591 H 1.25811 0.83183 1.09920
 H3592 H 1.22145 0.84753 1.08552
 H3593 H 1.29557 0.83621 1.11763
 H3594 H 1.31717 0.90294 1.14337
 H3595 H 1.21650 0.94922 1.09563
 H3596 H 1.19502 0.87942 1.07964
 H3597 H 1.28204 0.92044 1.12862
 H3598 H 1.25279 0.93504 1.11092
 C3599 C 1.26832 0.38941 0.61278
 C3600 C 1.27229 0.36528 0.61058
 C3601 C 1.29278 0.35538 0.61936
 C3602 C 1.30922 0.36902 0.63111
 C3603 C 1.30501 0.39283 0.63381
 C3604 C 1.28492 0.40296 0.62466
 C3605 C 1.24632 0.39931 0.60286
 C3606 C 1.24140 0.42325 0.60270
 C3607 C 1.22044 0.43154 0.59368
 C3608 C 1.20370 0.41623 0.58471
 C3609 C 1.20868 0.39237 0.58444
 C3610 C 1.22987 0.38390 0.59307
 C3611 C 1.25558 0.35106 0.60006
 C3612 C 1.23468 0.36012 0.59183
 H3613 H 1.25854 0.33256 0.59851
 H3614 H 1.22216 0.34832 0.58417
 H3615 H 1.29565 0.33688 0.61754
 H3616 H 1.31738 0.40373 0.64288
 H3617 H 1.21742 0.45008 0.59359
 H3618 H 1.19591 0.38025 0.57780
 H3619 H 1.28260 0.42132 0.62736
 H3620 H 1.25357 0.43589 0.60926
 C3621 C 0.76752 0.88945 0.61272
 C3622 C 0.77140 0.86528 0.61073
 C3623 C 0.79174 0.85535 0.61987
 C3624 C 0.80807 0.86900 0.63177
 C3625 C 0.80395 0.89286 0.63418
 C3626 C 0.78405 0.90301 0.62469
 C3627 C 0.74564 0.89938 0.60256
 C3628 C 0.74081 0.92334 0.60226
 C3629 C 0.71991 0.93166 0.59312
 C3630 C 0.70315 0.91637 0.58418
 C3631 C 0.70807 0.89249 0.58398
 C3632 C 0.72920 0.88398 0.59275
 C3633 C 0.75473 0.85108 0.60013
 C3634 C 0.73394 0.86017 0.59166
 H3635 H 0.75763 0.83255 0.59873
 H3636 H 0.72143 0.84838 0.58397
 H3637 H 0.79454 0.83682 0.61825
 H3638 H 0.81624 0.90377 0.64335
 H3639 H 0.71695 0.95020 0.59296
 H3640 H 0.69529 0.88038 0.57733
 H3641 H 0.78179 0.92141 0.62722
 H3642 H 0.75298 0.93597 0.60881
 C3643 C 0.76405 0.38203 1.11414
 C3644 C 0.77987 0.39718 1.12533
 C3645 C 0.80041 0.38837 1.13524
 C3646 C 0.80582 0.36469 1.13349
 C3647 C 0.79047 0.34991 1.12166
 C3648 C 0.76986 0.35839 1.11219
 C3649 C 0.74196 0.39190 1.10451
 C3650 C 0.72426 0.37796 1.09498
 C3651 C 0.70402 0.38790 1.08615
 C3652 C 0.70084 0.41204 1.08633
 C3653 C 0.71827 0.42608 1.09613
 C3654 C 0.73854 0.41618 1.10552
 C3655 C 0.77523 0.42102 1.12624
 C3656 C 0.75520 0.43036 1.11620
 H3657 H 0.78740 0.43269 1.13460
 H3658 H 0.75255 0.44895 1.11715
 H3659 H 0.81235 0.40001 1.14400
 H3660 H 0.79422 0.33158 1.11996
 H3661 H 0.69062 0.37651 1.07950
 H3662 H 0.71612 0.44475 1.09642
 H3663 H 0.75887 0.34614 1.10326
 H3664 H 0.72548 0.35930 1.09452
 C3665 C 0.73489 1.11656 1.11273
 C3666 C 0.73019 1.11414 1.13682
 C3667 C 0.70959 1.12328 1.14630
 C3668 C 0.69397 1.13569 1.13226
 C3669 C 0.69911 1.13876 1.10858
 C3670 C 0.71920 1.12925 1.09888
 C3671 C 0.75672 1.10603 1.10314
 C3672 C 0.76190 1.10565 1.07916
 C3673 C 0.78271 1.09612 1.07111
 C3674 C 0.79908 1.08689 1.08670
 C3675 C 0.79376 1.08668 1.11062
 C3676 C 0.77263 1.09578 1.11885
 C3677 C 0.74630 1.10305 1.15135
 C3678 C 0.76726 1.09448 1.14263
 H3679 H 0.74284 1.10136 1.16983
 H3680 H 0.77933 1.08643 1.15466
 H3681 H 0.70596 1.12119 1.16472
 H3682 H 0.68739 1.14834 1.09738
 H3683 H 0.78588 1.09585 1.05252
 H3684 H 0.80618 1.07972 1.12296
 H3685 H 0.72221 1.13230 1.08060
 H3686 H 0.75003 1.11235 1.06629
 C3687 C 0.73584 0.61896 0.61365
 C3688 C 0.72009 0.60382 0.62493
 C3689 C 0.69926 0.61252 0.63434
 C3690 C 0.69344 0.63604 0.63190
 C3691 C 0.70871 0.65080 0.61998
 C3692 C 0.72966 0.64246 0.61107
 C3693 C 0.75820 0.60919 0.60448
 C3694 C 0.77587 0.62315 0.59496
 C3695 C 0.79630 0.61326 0.58643
 C3696 C 0.79967 0.58914 0.58687
 C3697 C 0.78229 0.57510 0.59676
 C3698 C 0.76185 0.58496 0.60587
 C3699 C 0.72503 0.58007 0.62635
 C3700 C 0.74526 0.57078 0.61665
 H3701 H 0.71290 0.56841 0.63479
 H3702 H 0.74811 0.55225 0.61793
 H3703 H 0.68735 0.60089 0.64314
 H3704 H 0.70459 0.66900 0.61776
 H3705 H 0.80966 0.62468 0.57976
 H3706 H 0.78456 0.55645 0.59727
 H3707 H 0.74061 0.65466 0.60201
 H3708 H 0.77447 0.64178 0.59427
 C3709 C 0.23535 1.11626 0.61503
 C3710 C 0.22016 1.12828 0.59983
 C3711 C 0.19935 1.13792 0.60845
 C3712 C 0.19303 1.13484 0.63188
 C3713 C 0.20773 1.12208 0.64656
 C3714 C 0.22860 1.11299 0.63835
 C3715 C 0.25775 1.10699 0.60553
 C3716 C 0.27499 1.09710 0.61980
 C3717 C 0.29544 1.08837 0.61019
 C3718 C 0.29928 1.08896 0.58604
 C3719 C 0.28240 1.09938 0.57171
 C3720 C 0.26194 1.10875 0.58132
 C3721 C 0.22567 1.13015 0.57612
 C3722 C 0.24586 1.12016 0.56698
 H3723 H 0.21399 1.13911 0.56436
 H3724 H 0.24912 1.12175 0.54845
 H3725 H 0.18789 1.14739 0.59687
 H3726 H 0.20327 1.11935 0.66469
 H3727 H 0.30845 1.08140 0.62188
 H3728 H 0.28508 1.10012 0.55304
 H3729 H 0.23901 1.10325 0.65052
 H3730 H 0.27326 1.09628 0.63848
 C3731 C 0.23425 0.61560 1.11200
 C3732 C 0.22967 0.61305 1.13610
 C3733 C 0.20906 0.62206 1.14573
 C3734 C 0.19331 0.63443 1.13181
 C3735 C 0.19830 0.63756 1.10810
 C3736 C 0.21838 0.62820 1.09826
 C3737 C 0.25613 0.60531 1.10227
 C3738 C 0.26127 0.60515 1.07827
 C3739 C 0.28211 0.59582 1.07010
 C3740 C 0.29856 0.58654 1.08557
 C3741 C 0.29332 0.58617 1.10951
 C3742 C 0.27216 0.59508 1.11787
 C3743 C 0.24591 0.60201 1.15051
 C3744 C 0.26689 0.59362 1.14166
 H3745 H 0.24255 0.60021 1.16899
 H3746 H 0.27906 0.58558 1.15360
 H3747 H 0.20555 0.61991 1.16416
 H3748 H 0.18647 0.64711 1.09698
 H3749 H 0.28525 0.59570 1.05150
 H3750 H 0.30582 0.57921 1.12177
 H3751 H 0.22127 0.63131 1.07997
 H3752 H 0.24933 0.61188 1.06547
 C3753 C 0.73237 0.88454 0.88934
 C3754 C 0.72773 0.88781 0.86534
 C3755 C 0.70724 0.87897 0.85548
 C3756 C 0.69164 0.86595 0.86894
 C3757 C 0.69657 0.86214 0.89254
 C3758 C 0.71656 0.87144 0.90270
 C3759 C 0.75430 0.89457 0.89924
 C3760 C 0.75962 0.89404 0.92319
 C3761 C 0.78050 0.90324 0.93147
 C3762 C 0.79680 0.91300 0.91612
 C3763 C 0.79141 0.91390 0.89225
 C3764 C 0.77022 0.90524 0.88383
 C3765 C 0.74386 0.89930 0.85118
 C3766 C 0.76484 0.90742 0.86014
 H3767 H 0.74042 0.90163 0.83277
 H3768 H 0.77693 0.91580 0.84836
 H3769 H 0.70380 0.88158 0.83709
 H3770 H 0.68484 0.85202 0.90324
 H3771 H 0.78375 0.90288 0.95004
 H3772 H 0.80380 0.92112 0.88003
 H3773 H 0.71950 0.86784 0.92090
 H3774 H 0.74778 0.88689 0.93585
 C3775 C 0.73222 0.38714 0.39042
 C3776 C 0.72728 0.39057 0.36650
 C3777 C 0.70660 0.38191 0.35688
 C3778 C 0.69116 0.36888 0.37049
 C3779 C 0.69636 0.36492 0.39400
 C3780 C 0.71652 0.37408 0.40394
 C3781 C 0.75439 0.39688 0.40005
 C3782 C 0.76003 0.39617 0.42391
 C3783 C 0.78116 0.40500 0.43192
 C3784 C 0.79739 0.41457 0.41638
 C3785 C 0.79165 0.41571 0.39260
 C3786 C 0.77022 0.40742 0.38446
 C3787 C 0.74330 0.40199 0.35217
 C3788 C 0.76451 0.40982 0.36086
 H3789 H 0.73962 0.40445 0.33383
 H3790 H 0.77653 0.41812 0.34895
 H3791 H 0.70293 0.38461 0.33856
 H3792 H 0.68474 0.35478 0.40480
 H3793 H 0.78468 0.40449 0.45044
 H3794 H 0.80398 0.42281 0.38024
 H3795 H 0.71969 0.37034 0.42207
 H3796 H 0.74827 0.38914 0.43672
 C3797 C 0.23914 0.88039 0.38216
 C3798 C 0.22325 0.89541 0.37089
 C3799 C 0.20260 0.88655 0.36135
 C3800 C 0.19704 0.86297 0.36364
 C3801 C 0.21253 0.84824 0.37532
 C3802 C 0.23336 0.85674 0.38434
 C3803 C 0.26112 0.89047 0.39184
 C3804 C 0.27880 0.87676 0.40174
 C3805 C 0.29879 0.88697 0.41085
 C3806 C 0.30170 0.91115 0.41060
 C3807 C 0.28433 0.92493 0.40035
 C3808 C 0.26433 0.91477 0.39070
 C3809 C 0.22780 0.91925 0.36970
 C3810 C 0.24770 0.92877 0.37973
 H3811 H 0.21557 0.93079 0.36122
 H3812 H 0.25023 0.94736 0.37866
 H3813 H 0.19052 0.89816 0.35274
 H3814 H 0.20859 0.82999 0.37740
 H3815 H 0.31218 0.87577 0.41786
 H3816 H 0.28625 0.94362 0.40001
 H3817 H 0.24447 0.84458 0.39326
 H3818 H 0.27772 0.85811 0.40234
 C3819 C 0.23597 0.37881 0.88605
 C3820 C 0.22021 0.39402 0.87486
 C3821 C 0.19962 0.38534 0.86500
 C3822 C 0.19403 0.36171 0.86675
 C3823 C 0.20931 0.34682 0.87852
 C3824 C 0.23004 0.35517 0.88795
 C3825 C 0.25809 0.38864 0.89570
 C3826 C 0.27573 0.37473 0.90541
 C3827 C 0.29602 0.38470 0.91417
 C3828 C 0.29928 0.40883 0.91376
 C3829 C 0.28185 0.42281 0.90390
 C3830 C 0.26157 0.41291 0.89458
 C3831 C 0.22491 0.41783 0.87388
 C3832 C 0.24496 0.42711 0.88385
 H3833 H 0.21277 0.42953 0.86550
 H3834 H 0.24766 0.44569 0.88283
 H3835 H 0.18772 0.39709 0.85632
 H3836 H 0.20537 0.32853 0.88022
 H3837 H 0.30939 0.37333 0.92095
 H3838 H 0.28399 0.44148 0.90350
 H3839 H 0.24104 0.34287 0.89681
 H3840 H 0.27441 0.35609 0.90607
   
