data_POSCAR
  _audit_creation_date              2014-09-24
  _audit_creation_method            'ToBaCCo'
  _symmetry_space_group_name_H-M    'P1'
  _symmetry_Int_Tables_number       1
  _symmetry_cell_setting            triclinic
  loop_
  _symmetry_equiv_pos_as_xyz
 x,y,z
_cell_length_a 46.2396
_cell_length_b 46.1543
_cell_length_c 46.2665
_cell_angle_alpha 89.992100
_cell_angle_beta 89.992300
_cell_angle_gamma 89.957900
loop_
  _atom_site_label
  _atom_site_type_symbol
  _atom_site_fract_x
  _atom_site_fract_y
  _atom_site_fract_z
C1 C 0.36703 0.33068 0.33734
 C2 C 0.35259 0.35558 0.32740
 C3 C 0.32792 0.36644 0.34150
 C4 C 0.31736 0.35150 0.36582
 C5 C 0.33120 0.32643 0.37627
 C6 C 0.35569 0.31602 0.36142
 H7 H 0.35940 0.36617 0.30777
 H8 H 0.29763 0.35828 0.37624
 H9 H 0.36559 0.29576 0.36749
 C10 C 0.37511 0.82657 -0.16398
 C11 C 0.36005 0.81514 -0.14008
 C12 C 0.33583 0.82921 -0.12834
 C13 C 0.32569 0.85453 -0.14183
 C14 C 0.33976 0.86657 -0.16603
 C15 C 0.36420 0.85197 -0.17710
 H16 H 0.36595 0.79445 -0.13099
 H17 H 0.30582 0.86447 -0.13466
 H18 H 0.37434 0.85919 -0.19681
 C19 C 0.87253 0.33685 -0.16465
 C20 C 0.85838 0.36203 -0.17420
 C21 C 0.83411 0.37333 -0.15959
 C22 C 0.82363 0.35810 -0.13529
 C23 C 0.83743 0.33289 -0.12510
 C24 C 0.86160 0.32238 -0.14028
 H25 H 0.86499 0.37234 -0.19405
 H26 H 0.80382 0.36456 -0.12480
 H27 H 0.87136 0.30198 -0.13444
 C28 C 0.87204 0.83244 0.33281
 C29 C 0.85735 0.82194 0.35730
 C30 C 0.83271 0.83599 0.36828
 C31 C 0.82233 0.86062 0.35377
 C32 C 0.83628 0.87172 0.32903
 C33 C 0.86095 0.85702 0.31863
 H34 H 0.86393 0.80197 0.36745
 H35 H 0.80246 0.87078 0.36059
 H36 H 0.87127 0.86347 0.29877
 C37 C 0.62601 0.66646 0.33080
 C38 C 0.63695 0.68038 0.35556
 C39 C 0.66155 0.66982 0.37005
 C40 C 0.67539 0.64499 0.35912
 C41 C 0.66503 0.63058 0.33445
 C42 C 0.64050 0.64178 0.32038
 H43 H 0.62676 0.70027 0.36231
 H44 H 0.69518 0.63814 0.36937
 H45 H 0.63397 0.63171 0.30040
 C46 C 0.63208 0.16549 -0.16438
 C47 C 0.64316 0.14123 -0.17904
 C48 C 0.66756 0.12601 -0.16879
 C49 C 0.68173 0.13674 -0.14401
 C50 C 0.67127 0.16106 -0.12892
 C51 C 0.64654 0.17526 -0.13950
 H52 H 0.63311 0.13541 -0.19926
 H53 H 0.70172 0.12660 -0.13758
 H54 H 0.63978 0.19485 -0.12875
 C55 C 0.12988 0.66590 -0.16966
 C56 C 0.14445 0.67545 -0.14478
 C57 C 0.16871 0.66070 -0.13394
 C58 C 0.17871 0.63608 -0.14886
 C59 C 0.16463 0.62575 -0.17389
 C60 C 0.14056 0.64142 -0.18427
 H61 H 0.13812 0.69526 -0.13418
 H62 H 0.19829 0.62536 -0.14208
 H63 H 0.13046 0.63582 -0.20451
 C64 C 0.12536 0.16291 0.33235
 C65 C 0.13989 0.13872 0.32086
 C66 C 0.16440 0.12693 0.33447
 C67 C 0.17478 0.14031 0.35971
 C68 C 0.16092 0.16461 0.37170
 C69 C 0.13638 0.17584 0.35759
 H70 H 0.13328 0.12945 0.30052
 H71 H 0.19451 0.13299 0.36976
 H72 H 0.12622 0.19546 0.36514
 C73 C 0.62995 0.33408 0.66926
 C74 C 0.64126 0.35816 0.68400
 C75 C 0.66571 0.37304 0.67371
 C76 C 0.67920 0.36302 0.64833
 C77 C 0.66857 0.33884 0.63317
 C78 C 0.64403 0.32453 0.64405
 H79 H 0.63128 0.36418 0.70417
 H80 H 0.69872 0.37374 0.64148
 H81 H 0.63704 0.30513 0.63313
 C82 C 0.62766 0.83485 1.16333
 C83 C 0.64260 0.82479 1.13874
 C84 C 0.66747 0.83885 1.12836
 C85 C 0.67795 0.86305 1.14353
 C86 C 0.66381 0.87379 1.16830
 C87 C 0.63895 0.85909 1.17811
 H88 H 0.63613 0.80510 1.12800
 H89 H 0.69802 0.87309 1.13720
 H90 H 0.62868 0.86524 1.19811
 C91 C 0.12448 0.33445 1.16634
 C92 C 0.13892 0.32487 1.14122
 C93 C 0.16347 0.33930 1.13052
 C94 C 0.17426 0.36313 1.14604
 C95 C 0.16061 0.37323 1.17123
 C96 C 0.13589 0.35860 1.18117
 H97 H 0.13240 0.30527 1.13038
 H98 H 0.19431 0.37326 1.13973
 H99 H 0.12600 0.36475 1.20138
 C100 C 0.13443 0.83292 0.66637
 C101 C 0.14570 0.85697 0.68139
 C102 C 0.17059 0.87162 0.67184
 C103 C 0.18490 0.86129 0.64711
 C104 C 0.17450 0.83723 0.63165
 C105 C 0.14937 0.82320 0.64163
 H106 H 0.13537 0.86317 0.70135
 H107 H 0.20485 0.87167 0.64102
 H108 H 0.14269 0.80390 0.63037
 C109 C 0.37465 0.65969 0.66489
 C110 C 0.35982 0.63486 0.67446
 C111 C 0.33515 0.62456 0.65993
 C112 C 0.32507 0.64001 0.63574
 C113 C 0.33953 0.66473 0.62547
 C114 C 0.36411 0.67445 0.64048
 H115 H 0.36618 0.62403 0.69410
 H116 H 0.30503 0.63407 0.62541
 H117 H 0.37451 0.69447 0.63446
 C118 C 0.36842 0.16674 1.16888
 C119 C 0.35738 0.18153 1.14463
 C120 C 0.33286 0.17162 1.12967
 C121 C 0.31870 0.14670 1.13987
 C122 C 0.32885 0.13145 1.16420
 C123 C 0.35348 0.14196 1.17866
 H124 H 0.36756 0.20163 1.13853
 H125 H 0.29894 0.14037 1.12926
 H126 H 0.35978 0.13112 1.19832
 C127 C 0.87177 0.67088 1.16416
 C128 C 0.85707 0.68206 1.13986
 C129 C 0.83218 0.66854 1.12873
 C130 C 0.82145 0.64384 1.14293
 C131 C 0.83538 0.63221 1.16731
 C132 C 0.86025 0.64615 1.17782
 H133 H 0.86381 0.70206 1.12988
 H134 H 0.80143 0.63400 1.13621
 H135 H 0.87031 0.63885 1.19755
 C136 C 0.86839 0.17142 0.66253
 C137 C 0.85745 0.14632 0.67607
 C138 C 0.83297 0.13162 0.66537
 C139 C 0.81864 0.14341 0.64120
 C140 C 0.82871 0.16852 0.62728
 C141 C 0.85339 0.18241 0.63836
 H142 H 0.86767 0.13940 0.69585
 H143 H 0.79877 0.13333 0.63436
 H144 H 0.85965 0.20262 0.62850
 C145 C 0.33165 0.36519 0.66346
 C146 C 0.35636 0.35505 0.67803
 C147 C 0.37102 0.32990 0.66891
 C148 C 0.36009 0.31450 0.64507
 C149 C 0.33523 0.32383 0.63027
 C150 C 0.32124 0.34916 0.63980
 H151 H 0.36305 0.36645 0.69722
 H152 H 0.37072 0.29458 0.63919
 H153 H 0.30136 0.35522 0.62922
 C154 C 0.32817 0.87090 0.15961
 C155 C 0.31793 0.85541 0.13553
 C156 C 0.33245 0.83073 0.12517
 C157 C 0.35739 0.82127 0.13984
 C158 C 0.36824 0.83627 0.16398
 C159 C 0.35333 0.86101 0.17362
 H160 H 0.29794 0.86141 0.12517
 H161 H 0.36804 0.80143 0.13369
 H162 H 0.36009 0.87221 0.19290
 C163 C 0.83130 0.37425 0.16240
 C164 C 0.82134 0.35907 0.13798
 C165 C 0.83564 0.33415 0.12788
 C166 C 0.86000 0.32416 0.14313
 C167 C 0.87051 0.33880 0.16762
 C168 C 0.85586 0.36377 0.17702
 H169 H 0.80161 0.36544 0.12731
 H170 H 0.87032 0.30406 0.13724
 H171 H 0.86231 0.37463 0.19660
 C172 C 0.83604 0.87385 0.65799
 C173 C 0.86085 0.86329 0.67205
 C174 C 0.87568 0.83870 0.66189
 C175 C 0.86468 0.82406 0.63760
 C176 C 0.83975 0.83388 0.62319
 C177 C 0.82562 0.85872 0.63376
 H178 H 0.86739 0.87371 0.69186
 H179 H 0.87506 0.80416 0.63119
 H180 H 0.80554 0.86499 0.62367
 C181 C 0.66940 0.62786 0.66718
 C182 C 0.68328 0.63915 0.64260
 C183 C 0.67226 0.66350 0.62795
 C184 C 0.64737 0.67715 0.63898
 C185 C 0.63326 0.66667 0.66380
 C186 C 0.64479 0.64226 0.67782
 H187 H 0.70340 0.62938 0.63597
 H188 H 0.64013 0.69674 0.62856
 H189 H 0.63497 0.63554 0.69790
 C190 C 0.66289 0.12984 0.17070
 C191 C 0.67679 0.14030 0.14578
 C192 C 0.66626 0.16449 0.13059
 C193 C 0.64167 0.17888 0.14140
 C194 C 0.62720 0.16893 0.16630
 C195 C 0.63818 0.14446 0.18072
 H196 H 0.69670 0.12996 0.13935
 H197 H 0.63491 0.19851 0.13074
 H198 H 0.62773 0.13793 0.20048
 C199 C 0.16909 0.62488 0.16535
 C200 C 0.14434 0.63629 0.17891
 C201 C 0.12958 0.66040 0.16753
 C202 C 0.14065 0.67367 0.14251
 C203 C 0.16520 0.66264 0.12826
 C204 C 0.17938 0.63850 0.14019
 H205 H 0.13774 0.62689 0.19922
 H206 H 0.13059 0.69346 0.13525
 H207 H 0.19927 0.63152 0.13023
 C208 C 0.16367 0.12362 0.67617
 C209 C 0.13848 0.13788 0.68566
 C210 C 0.12667 0.16126 0.67013
 C211 C 0.14107 0.17088 0.64514
 C212 C 0.16599 0.15687 0.63481
 C213 C 0.17717 0.13343 0.65071
 H214 H 0.12834 0.13196 0.70576
 H215 H 0.13398 0.19021 0.63411
 H216 H 0.19727 0.12335 0.64444
 C217 C 0.33766 0.62922 0.33255
 C218 C 0.32384 0.64066 0.35712
 C219 C 0.33392 0.66596 0.37071
 C220 C 0.35816 0.68006 0.35899
 C221 C 0.37263 0.66915 0.33457
 C222 C 0.36187 0.64391 0.32135
 H223 H 0.30439 0.63014 0.36448
 H224 H 0.36459 0.70038 0.36853
 H225 H 0.37192 0.63681 0.30155
 C226 C 0.33492 0.12961 0.84324
 C227 C 0.35947 0.14053 0.82902
 C228 C 0.37350 0.16578 0.83862
 C229 C 0.36192 0.18068 0.86244
 C230 C 0.33734 0.17043 0.87715
 C231 C 0.32390 0.14503 0.86707
 H232 H 0.36646 0.12975 0.80956
 H233 H 0.37164 0.20108 0.86828
 H234 H 0.30397 0.13842 0.87724
 C235 C 0.83830 0.63393 0.83189
 C236 C 0.86274 0.64859 0.82121
 C237 C 0.87331 0.67379 0.83470
 C238 C 0.85872 0.68434 0.85926
 C239 C 0.83438 0.67005 0.87059
 C240 C 0.82426 0.64511 0.85642
 H241 H 0.87324 0.64150 0.80165
 H242 H 0.86519 0.70435 0.86932
 H243 H 0.80464 0.63462 0.86336
 C244 C 0.83177 0.13212 0.33240
 C245 C 0.85654 0.14670 0.32241
 C246 C 0.86705 0.17163 0.33634
 C247 C 0.85184 0.18235 0.36039
 C248 C 0.82685 0.16847 0.37084
 C249 C 0.81709 0.14338 0.35657
 H250 H 0.86741 0.13974 0.30302
 H251 H 0.85834 0.20227 0.37066
 H252 H 0.79743 0.13277 0.36317
 C253 C 0.66112 0.37449 0.32904
 C254 C 0.67508 0.36411 0.35401
 C255 C 0.66477 0.33973 0.36903
 C256 C 0.64014 0.32544 0.35834
 C257 C 0.62553 0.33537 0.33356
 C258 C 0.63652 0.35971 0.31896
 H259 H 0.69478 0.37469 0.36058
 H260 H 0.63350 0.30577 0.36900
 H261 H 0.62623 0.36602 0.29902
 C262 C 0.66622 0.87052 0.82619
 C263 C 0.68038 0.86066 0.85126
 C264 C 0.67047 0.83628 0.86658
 C265 C 0.64594 0.82160 0.85619
 C266 C 0.63114 0.83100 0.83132
 C267 C 0.64173 0.85533 0.81643
 H268 H 0.69984 0.87171 0.85774
 H269 H 0.63950 0.80209 0.86725
 H270 H 0.63112 0.86134 0.79658
 C271 C 0.16162 0.37103 0.82916
 C272 C 0.13736 0.35565 0.81920
 C273 C 0.12674 0.33127 0.83401
 C274 C 0.14100 0.32226 0.85933
 C275 C 0.16532 0.33719 0.86992
 C276 C 0.17555 0.36130 0.85436
 H277 H 0.12711 0.36143 0.79909
 H278 H 0.13431 0.30294 0.87054
 H279 H 0.19523 0.37208 0.86070
 C280 C 0.16440 0.87030 0.33149
 C281 C 0.14014 0.85486 0.32159
 C282 C 0.13011 0.82997 0.33599
 C283 C 0.14496 0.82055 0.36079
 C284 C 0.16936 0.83542 0.37123
 C285 C 0.17902 0.86004 0.35610
 H286 H 0.12949 0.86100 0.30178
 H287 H 0.13869 0.80092 0.37172
 H288 H 0.19869 0.87087 0.36232
 O289 O 0.24712 1.02884 0.20843
 O290 O 0.20771 0.97250 0.24842
 O291 O 0.20965 1.02889 0.25020
 O292 O 0.24635 0.97245 0.20741
 O293 O 0.28166 0.97124 0.23951
 O294 O 0.24431 1.02632 0.28293
 O295 O 0.24313 0.97008 0.28032
 O296 O 0.28184 1.02794 0.24117
 Cu297 Cu 0.22419 1.00081 0.22537
 Cu298 Cu 0.26631 0.99872 0.26417
 C299 C 0.27101 1.03827 0.21810
 C300 C 0.21869 0.96154 0.27108
 C301 C 0.22072 1.03714 0.27395
 C302 C 0.27028 0.96219 0.21624
 O303 O 0.24293 0.52608 0.77785
 O304 O 0.28249 0.46837 0.73934
 O305 O 0.28326 0.52507 0.73865
 O306 O 0.24216 0.46951 0.77847
 O307 O 0.20888 0.46973 0.74425
 O308 O 0.24999 0.52496 0.70443
 O309 O 0.24924 0.46864 0.70510
 O310 O 0.20958 0.52592 0.74372
 Cu311 Cu 0.26608 0.49727 0.76199
 Cu312 Cu 0.22612 0.49734 0.72093
 C313 C 0.21942 0.53575 0.76740
 C314 C 0.27254 0.45859 0.71567
 C315 C 0.27359 0.53450 0.71473
 C316 C 0.21849 0.46014 0.76813
 O317 O 0.74411 -0.02749 0.21451
 O318 O 0.78581 0.02906 0.25205
 O319 O 0.78699 -0.02724 0.25081
 O320 O 0.74371 0.02911 0.21508
 O321 O 0.71226 0.02812 0.25099
 O322 O 0.75548 -0.02849 0.28665
 O323 O 0.75434 0.02830 0.28795
 O324 O 0.71256 -0.02803 0.25034
 Cu325 Cu 0.76828 0.00092 0.22948
 Cu326 Cu 0.73059 -0.00017 0.27268
 C327 C 0.72116 -0.03735 0.22599
 C328 C 0.77703 0.03851 0.27631
 C329 C 0.77855 -0.03759 0.27477
 C330 C 0.72073 0.03835 0.22696
 O331 O 0.75502 0.47551 0.79483
 O332 O 0.71594 0.53019 0.75251
 O333 O 0.71515 0.47413 0.75505
 O334 O 0.75749 0.53190 0.79011
 O335 O 0.79070 0.52811 0.75602
 O336 O 0.74786 0.47148 0.72037
 O337 O 0.74911 0.52786 0.71824
 O338 O 0.78752 0.47168 0.76008
 Cu339 Cu 0.73268 0.50322 0.77665
 Cu340 Cu 0.77216 0.49946 0.73527
 C341 C 0.77772 0.46397 0.78458
 C342 C 0.72575 0.53841 0.72824
 C343 C 0.72425 0.46310 0.73157
 C344 C 0.78125 0.53998 0.77889
 O345 O 0.24545 0.46794 0.22044
 O346 O 0.28917 0.52379 0.25648
 O347 O 0.28465 0.46742 0.26050
 O348 O 0.24907 0.52386 0.21698
 O349 O 0.21555 0.52872 0.25064
 O350 O 0.25103 0.47209 0.29407
 O351 O 0.25551 0.52856 0.29000
 O352 O 0.21161 0.47269 0.25379
 Cu353 Cu 0.27055 0.49531 0.23533
 Cu354 Cu 0.23013 0.50095 0.27559
 C355 C 0.22104 0.46087 0.23083
 C356 C 0.27967 0.53597 0.27919
 C357 C 0.27372 0.45987 0.28453
 C358 C 0.22616 0.53585 0.22634
 O359 O 0.74631 1.02757 0.78067
 O360 O 0.78564 0.97157 0.73956
 O361 O 0.78730 1.02793 0.74222
 O362 O 0.74566 0.97103 0.77898
 O363 O 0.71283 0.97254 0.74436
 O364 O 0.75368 1.03082 0.70846
 O365 O 0.75298 0.97441 0.70486
 O366 O 0.71275 1.02870 0.74674
 Cu367 Cu 0.76955 0.99931 0.76381
 Cu368 Cu 0.72977 1.00179 0.72262
 C369 C 0.72269 1.03756 0.77073
 C370 C 0.77602 0.96352 0.71512
 C371 C 0.77749 1.03930 0.71924
 C372 C 0.72224 0.96194 0.76790
 O373 O 0.75255 0.53315 0.21225
 O374 O 0.70974 0.47654 0.24843
 O375 O 0.71256 0.53281 0.25159
 O376 O 0.74997 0.47680 0.20897
 O377 O 0.78318 0.47310 0.24306
 O378 O 0.74587 0.52904 0.28559
 O379 O 0.74321 0.47289 0.28228
 O380 O 0.78603 0.52932 0.24606
 Cu381 Cu 0.72785 0.50517 0.22688
 Cu382 Cu 0.76794 0.50077 0.26764
 C383 C 0.77658 0.54092 0.22302
 C384 C 0.71920 0.46502 0.27151
 C385 C 0.72285 0.54049 0.27586
 C386 C 0.77290 0.46530 0.21884
 O387 O 0.25916 -0.03198 0.79459
 O388 O 0.21585 0.02527 0.75955
 O389 O 0.21712 -0.03069 0.75758
 O390 O 0.25632 0.02462 0.79880
 O391 O 0.28836 0.02842 0.76364
 O392 O 0.24993 -0.02857 0.72296
 O393 O 0.24812 0.02778 0.72446
 O394 O 0.29203 -0.02812 0.76020
 Cu395 Cu 0.23399 -0.00344 0.78124
 Cu396 Cu 0.27294 0.00020 0.73939
 C397 C 0.28287 -0.04000 0.78318
 C398 C 0.22452 0.03606 0.73579
 C399 C 0.22674 -0.03913 0.73331
 C400 C 0.27873 0.03633 0.78814
 O401 O 0.25444 0.22157 0.97360
 O402 O 0.21341 0.26130 1.02935
 O403 O 0.21401 0.26080 0.97269
 O404 O 0.25344 0.22172 1.02992
 O405 O 0.28677 0.25595 1.03001
 O406 O 0.24733 0.29503 0.97308
 O407 O 0.24669 0.29557 1.02928
 O408 O 0.28777 0.25579 0.97411
 Cu409 Cu 0.23040 0.23796 1.00135
 Cu410 Cu 0.27042 0.27906 1.00164
 C411 C 0.27824 0.23187 0.96449
 C412 C 0.22316 0.28519 1.03889
 C413 C 0.22402 0.28453 0.96304
 C414 C 0.27693 0.23213 1.03962
 O415 O 0.25270 0.79075 0.47200
 O416 O 0.29348 0.74987 0.52651
 O417 O 0.28998 0.74877 0.47040
 O418 O 0.25456 0.79070 0.52825
 O419 O 0.21933 0.75846 0.52971
 O420 O 0.25545 0.71586 0.47321
 O421 O 0.25818 0.71779 0.52924
 O422 O 0.21809 0.75784 0.47313
 Cu423 Cu 0.27617 0.77331 0.49913
 Cu424 Cu 0.23418 0.73429 0.50155
 C425 C 0.22866 0.78113 0.46295
 C426 C 0.28282 0.72694 0.53726
 C427 C 0.27876 0.72507 0.46204
 C428 C 0.23087 0.78165 0.53886
 O429 O 0.24583 0.70786 0.02685
 O430 O 0.28595 0.74670 -0.03035
 O431 O 0.28693 0.74619 0.02579
 O432 O 0.24780 0.70530 -0.02965
 O433 O 0.21462 0.73964 -0.03179
 O434 O 0.25252 0.77937 0.02624
 O435 O 0.25262 0.78097 -0.02981
 O436 O 0.21144 0.74098 0.02458
 Cu437 Cu 0.26995 0.72306 -0.00176
 Cu438 Cu 0.22935 0.76354 -0.00277
 C439 C 0.22169 0.71795 0.03544
 C440 C 0.27617 0.77079 -0.03950
 C441 C 0.27648 0.76961 0.03564
 C442 C 0.22487 0.71563 -0.04061
 O443 O 0.28463 0.24196 0.47496
 O444 O 0.24523 0.20096 0.53028
 O445 O 0.24260 0.20484 0.47383
 O446 O 0.28559 0.24032 0.53091
 O447 O 0.25326 0.27550 0.53300
 O448 O 0.20975 0.23940 0.47735
 O449 O 0.21312 0.23620 0.53369
 O450 O 0.25180 0.27668 0.47672
 Cu451 Cu 0.26767 0.21842 0.50227
 Cu452 Cu 0.22867 0.26040 0.50547
 C453 C 0.27501 0.26620 0.46629
 C454 C 0.22274 0.21169 0.54178
 C455 C 0.21892 0.21627 0.46571
 C456 C 0.27675 0.26414 0.54153
 O457 O 0.78717 0.75017 1.02808
 O458 O 0.75027 0.79173 0.97090
 O459 O 0.74949 0.79201 1.02720
 O460 O 0.78798 0.75015 0.97151
 O461 O 0.75274 0.71788 0.97138
 O462 O 0.71433 0.75967 1.02711
 O463 O 0.71505 0.75945 0.97045
 O464 O 0.75196 0.71790 1.02738
 Cu465 Cu 0.77229 0.77424 0.99950
 Cu466 Cu 0.72990 0.73557 0.99907
 C467 C 0.77585 0.72691 1.03746
 C468 C 0.72650 0.78248 0.96071
 C469 C 0.72543 0.78288 1.03679
 C470 C 0.77686 0.72693 0.96186
 O471 O 0.74522 0.29278 0.47152
 O472 O 0.78280 0.25026 0.52740
 O473 O 0.78190 0.25011 0.47094
 O474 O 0.74604 0.29272 0.52790
 O475 O 0.71017 0.26118 0.52861
 O476 O 0.74596 0.21865 0.47161
 O477 O 0.74692 0.21872 0.52760
 O478 O 0.70934 0.26126 0.47183
 Cu479 Cu 0.76760 0.27464 0.49936
 Cu480 Cu 0.72438 0.23691 0.49996
 C481 C 0.72100 0.28411 0.46193
 C482 C 0.77125 0.22724 0.53705
 C483 C 0.77005 0.22714 0.46154
 C484 C 0.72215 0.28399 0.53824
 O485 O 0.79068 0.24802 -0.02614
 O486 O 0.75014 0.20840 0.02977
 O487 O 0.75181 0.20728 -0.02643
 O488 O 0.79020 0.24809 0.02978
 O489 O 0.75625 0.28174 0.02907
 O490 O 0.71771 0.24076 -0.02758
 O491 O 0.71623 0.24208 0.02907
 O492 O 0.75655 0.28148 -0.02728
 Cu493 Cu 0.77405 0.22455 0.00186
 Cu494 Cu 0.73321 0.26483 0.00074
 C495 C 0.78056 0.27155 -0.03621
 C496 C 0.72632 0.21852 0.03906
 C497 C 0.72834 0.21707 -0.03677
 C498 C 0.77997 0.27191 0.03893
 O499 O 0.78595 0.75400 0.46691
 O500 O 0.74993 0.71172 0.52381
 O501 O 0.74544 0.71517 0.46770
 O502 O 0.78960 0.75180 0.52300
 O503 O 0.75606 0.78563 0.52717
 O504 O 0.71206 0.74913 0.47196
 O505 O 0.71660 0.74573 0.52809
 O506 O 0.75276 0.78817 0.47112
 Cu507 Cu 0.77104 0.72973 0.49497
 Cu508 Cu 0.73100 0.77055 0.49997
 C509 C 0.77554 0.77829 0.45929
 C510 C 0.72723 0.72152 0.53578
 C511 C 0.72128 0.72602 0.46028
 C512 C 0.78029 0.77499 0.53454
 O513 O 0.97107 0.25060 0.28962
 O514 O 1.02774 0.28718 0.24744
 O515 O 0.97158 0.29049 0.24978
 O516 O 1.02737 0.24715 0.28687
 O517 O 1.02367 0.21357 0.25310
 O518 O 0.96795 0.25670 0.21618
 O519 O 1.02401 0.25381 0.21345
 O520 O 0.96746 0.21705 0.25580
 Cu521 Cu 0.99979 0.27221 0.27185
 Cu522 Cu 0.99548 0.23188 0.23127
 C523 C 0.95945 0.22769 0.27983
 C524 C 1.03548 0.27682 0.22322
 C525 C 0.96021 0.28092 0.22667
 C526 C 1.03510 0.22299 0.27622
 O527 O 0.47326 0.24596 0.78936
 O528 O 0.53028 0.28528 0.74965
 O529 O 0.47391 0.28664 0.75058
 O530 O 0.52962 0.24686 0.79069
 O531 O 0.53095 0.21352 0.75651
 O532 O 0.47269 0.25198 0.71772
 O533 O 0.52899 0.25190 0.71550
 O534 O 0.47465 0.21132 0.75648
 Cu535 Cu 0.50177 0.26960 0.77343
 Cu536 Cu 0.50182 0.22877 0.73319
 C537 C 0.46438 0.22177 0.77966
 C538 C 0.53921 0.27527 0.72564
 C539 C 0.46347 0.27601 0.72756
 C540 C 0.54008 0.22364 0.78038
 O541 O -0.02843 0.28831 0.75159
 O542 O 0.02629 0.24595 0.71245
 O543 O -0.02979 0.24935 0.71082
 O544 O 0.02763 0.28465 0.75301
 O545 O 0.02424 0.25058 0.78637
 O546 O -0.03260 0.21471 0.74360
 O547 O 0.02391 0.21176 0.74575
 O548 O -0.03190 0.25358 0.78422
 Cu549 Cu -0.00083 0.27052 0.72864
 Cu550 Cu -0.00442 0.22913 0.76826
 C551 C -0.03953 0.27818 0.77457
 C552 C 0.03464 0.22176 0.72253
 C553 C -0.04099 0.22598 0.71999
 C554 C 0.03573 0.27368 0.77686
 O555 O 0.52468 0.25250 0.28853
 O556 O 0.46992 0.21136 0.24871
 O557 O 0.52626 0.21467 0.24695
 O558 O 0.46832 0.25209 0.28747
 O559 O 0.46849 0.28688 0.25472
 O560 O 0.52379 0.24826 0.21306
 O561 O 0.46744 0.24611 0.21601
 O562 O 0.52481 0.28610 0.25457
 Cu563 Cu 0.49743 0.22922 0.27123
 Cu564 Cu 0.49599 0.27024 0.23124
 C565 C 0.53438 0.27608 0.27833
 C566 C 0.45897 0.22181 0.22585
 C567 C 0.53485 0.22517 0.22300
 C568 C 0.45871 0.27610 0.27797
 O569 O 1.03307 0.78948 0.74403
 O570 O 0.97510 0.75397 0.78537
 O571 O 1.03111 0.75127 0.78496
 O572 O 0.97676 0.79292 0.74461
 O573 O 0.97389 0.75785 0.71228
 O574 O 1.02979 0.71694 0.75175
 O575 O 0.97331 0.71895 0.75293
 O576 O 1.03028 0.75534 0.71072
 Cu577 Cu 1.00416 0.77544 0.76798
 Cu578 Cu 1.00157 0.73378 0.72862
 C579 C 1.04165 0.77843 0.72039
 C580 C 0.96442 0.73031 0.77631
 C581 C 1.03992 0.72714 0.77517
 C582 C 0.96585 0.78242 0.72171
 O583 O 0.52842 0.78886 0.24237
 O584 O 0.47239 0.75123 0.28452
 O585 O 0.52847 0.74933 0.28220
 O586 O 0.47195 0.79112 0.24454
 O587 O 0.46917 0.75712 0.21109
 O588 O 0.52554 0.71533 0.24876
 O589 O 0.46943 0.71748 0.25083
 O590 O 0.52559 0.75515 0.20865
 Cu591 Cu 0.50052 0.77360 0.26671
 Cu592 Cu 0.49722 0.73292 0.22641
 C593 C 0.53671 0.77834 0.21841
 C594 C 0.46142 0.72790 0.27495
 C595 C 0.53656 0.72512 0.27194
 C596 C 0.46076 0.78115 0.22151
 O597 O 0.03118 0.74333 0.21560
 O598 O -0.02573 0.78408 0.25440
 O599 O 0.03081 0.78286 0.25563
 O600 O -0.02507 0.74665 0.21248
 O601 O -0.02856 0.71231 0.24552
 O602 O 0.02883 0.74780 0.28805
 O603 O -0.02731 0.74957 0.28740
 O604 O 0.02769 0.70825 0.24784
 Cu605 Cu 0.00309 0.76773 0.23127
 Cu606 Cu -0.00004 0.72596 0.27043
 C607 C 0.03903 0.71870 0.22515
 C608 C -0.03617 0.77368 0.27763
 C609 C 0.03952 0.77152 0.27905
 C610 C -0.03664 0.72353 0.22175
 O611 O 0.53088 0.74706 0.78690
 O612 O 0.47565 0.70602 0.74743
 O613 O 0.53199 0.70966 0.74521
 O614 O 0.47483 0.74593 0.78745
 O615 O 0.47274 0.78064 0.75467
 O616 O 0.52898 0.74402 0.71214
 O617 O 0.47276 0.74087 0.71487
 O618 O 0.52928 0.78156 0.75387
 Cu619 Cu 0.50348 0.72364 0.76998
 Cu620 Cu 0.50066 0.76525 0.73061
 C621 C 0.53972 0.77114 0.77709
 C622 C 0.46463 0.71641 0.72455
 C623 C 0.54034 0.72082 0.72151
 C624 C 0.46417 0.76962 0.77830
 C625 C 0.39254 0.31739 0.32109
 C626 C 0.41769 0.30779 0.34083
 C627 C 0.43971 0.29422 0.32663
 C628 C 0.43483 0.29151 0.29390
 C629 C 0.40559 0.27624 0.29079
 C630 C 0.38357 0.28972 0.30487
 C631 C 0.40750 0.33639 0.29802
 C632 C 0.42936 0.32279 0.28376
 H633 H 0.41842 0.31193 0.36391
 H634 H 0.45907 0.28670 0.33760
 H635 H 0.40243 0.25646 0.27850
 H636 H 0.36160 0.28144 0.30450
 H637 H 0.40356 0.35927 0.29467
 H638 H 0.44278 0.33409 0.26816
 C639 C 0.39903 0.81132 0.82261
 C640 C 0.42452 0.83111 0.81395
 C641 C 0.44614 0.81722 0.79949
 C642 C 0.44068 0.78469 0.79505
 C643 C 0.43538 0.77294 0.82567
 C644 C 0.41392 0.78693 0.84023
 C645 C 0.38960 0.79663 0.79428
 C646 C 0.41125 0.78288 0.77996
 H647 H 0.42591 0.85393 0.81950
 H648 H 0.46571 0.82822 0.79263
 H649 H 0.44880 0.75661 0.83595
 H650 H 0.41050 0.78267 0.86300
 H651 H 0.36756 0.79695 0.78617
 H652 H 0.40769 0.77160 0.75972
 C653 C -0.10293 0.32278 0.81834
 C654 C -0.11315 0.29476 0.80354
 C655 C -0.09206 0.28031 0.78908
 C656 C -0.06241 0.29502 0.79040
 C657 C -0.06766 0.32598 0.77924
 C658 C -0.08864 0.34060 0.79389
 C659 C -0.07718 0.31342 0.83734
 C660 C -0.05609 0.29888 0.82276
 H661 H -0.13530 0.28699 0.80430
 H662 H -0.09618 0.26023 0.77762
 H663 H -0.05482 0.33626 0.76248
 H664 H -0.09245 0.36334 0.78963
 H665 H -0.07538 0.31842 0.86020
 H666 H -0.03642 0.29139 0.83319
 C667 C -0.10240 0.81633 0.31937
 C668 C -0.11115 0.80111 0.29112
 C669 C -0.08910 0.78723 0.27749
 C670 C -0.06003 0.78949 0.29321
 C671 C -0.05485 0.82213 0.29711
 C672 C -0.07693 0.83614 0.31082
 C673 C -0.08792 0.79239 0.33773
 C674 C -0.06603 0.77834 0.32398
 H675 H -0.13301 0.80127 0.28254
 H676 H -0.09211 0.77566 0.25728
 H677 H -0.03529 0.83316 0.29025
 H678 H -0.07603 0.85912 0.31573
 H679 H -0.09218 0.78829 0.36037
 H680 H -0.05290 0.76219 0.33489
 C681 C 0.60109 0.68059 0.31434
 C682 C 0.58710 0.66326 0.28937
 C683 C 0.56578 0.67786 0.27521
 C684 C 0.55987 0.70833 0.28730
 C685 C 0.55373 0.70333 0.31956
 C686 C 0.57518 0.68882 0.33366
 C687 C 0.61064 0.70928 0.30039
 C688 C 0.58920 0.72372 0.28642
 H689 H 0.59137 0.64074 0.28441
 H690 H 0.55314 0.66782 0.25818
 H691 H 0.53394 0.71010 0.33025
 H692 H 0.57358 0.68313 0.35637
 H693 H 0.63259 0.71756 0.30144
 H694 H 0.59284 0.74430 0.27573
 C695 C 0.60658 0.18178 0.82234
 C696 C 0.58097 0.16194 0.81433
 C697 C 0.55886 0.17580 0.80060
 C698 C 0.56410 0.20835 0.79614
 C699 C 0.57040 0.22001 0.82665
 C700 C 0.59239 0.20610 0.84044
 C701 C 0.61516 0.19655 0.79379
 C702 C 0.59305 0.21030 0.78013
 H703 H 0.58006 0.13903 0.81957
 H704 H 0.53922 0.16472 0.79406
 H705 H 0.55759 0.23658 0.83731
 H706 H 0.59710 0.21083 0.86286
 H707 H 0.63697 0.19632 0.78510
 H708 H 0.59596 0.22171 0.75982
 C709 C 1.10486 0.68286 0.81702
 C710 C 1.07895 0.66374 0.80828
 C711 C 1.05730 0.67838 0.79459
 C712 C 1.06331 0.71090 0.79088
 C713 C 1.06944 0.72177 0.82169
 C714 C 1.09092 0.70708 0.83545
 C715 C 1.11412 0.69802 0.78889
 C716 C 1.09249 0.71253 0.77526
 H717 H 1.07747 0.64076 0.81307
 H718 H 1.03749 0.66788 0.78763
 H719 H 1.05671 0.73825 0.83258
 H720 H 1.09522 0.71104 0.85811
 H721 H 1.13602 0.69743 0.78043
 H722 H 1.09589 0.72423 0.75519
 C723 C 1.10020 0.17750 0.31666
 C724 C 1.07465 0.18540 0.33660
 C725 C 1.05299 0.20026 0.32316
 C726 C 1.05859 0.20585 0.29091
 C727 C 1.08795 0.22118 0.28980
 C728 C 1.10960 0.20643 0.30312
 C729 C 1.08573 0.16068 0.29164
 C730 C 1.06421 0.17559 0.27815
 H731 H 1.07339 0.17924 0.35921
 H732 H 1.03341 0.20686 0.33432
 H733 H 1.09146 0.24193 0.27938
 H734 H 1.13159 0.21462 0.30394
 H735 H 1.08985 0.13823 0.28623
 H736 H 1.05122 0.16589 0.26118
 C737 C 0.60472 0.31767 0.68282
 C738 C 0.61386 0.30271 0.71111
 C739 C 0.59205 0.28881 0.72506
 C740 C 0.56283 0.29080 0.70957
 C741 C 0.55736 0.32336 0.70544
 C742 C 0.57917 0.33738 0.69141
 C743 C 0.59033 0.29343 0.66480
 C744 C 0.56865 0.27937 0.67887
 H745 H 0.63582 0.30295 0.71942
 H746 H 0.59537 0.27728 0.74524
 H747 H 0.53779 0.33433 0.71240
 H748 H 0.57807 0.36032 0.68633
 H749 H 0.59465 0.28888 0.64226
 H750 H 0.55571 0.26286 0.66832
 C751 C 0.60328 0.81952 0.17577
 C752 C 0.57775 0.83953 0.18391
 C753 C 0.55564 0.82583 0.19775
 C754 C 0.56066 0.79323 0.20215
 C755 C 0.56664 0.78155 0.17160
 C756 C 0.58866 0.79534 0.15766
 C757 C 0.61183 0.80452 0.20423
 C758 C 0.58968 0.79099 0.21793
 H759 H 0.57679 0.86242 0.17854
 H760 H 0.53604 0.83703 0.20426
 H761 H 0.55345 0.76529 0.16098
 H762 H 0.59280 0.79087 0.13506
 H763 H 0.63367 0.80444 0.21288
 H764 H 0.59263 0.77958 0.23820
 C765 C 1.10061 0.31874 0.17923
 C766 C 1.07505 0.33842 0.18797
 C767 C 1.05345 0.32442 0.20228
 C768 C 1.05897 0.29188 0.20651
 C769 C 1.06440 0.28032 0.17581
 C770 C 1.08593 0.29440 0.16140
 C771 C 1.11000 0.30379 0.20747
 C772 C 1.08834 0.28996 0.22165
 H773 H 1.07367 0.36130 0.18266
 H774 H 1.03386 0.33537 0.20923
 H775 H 1.05123 0.26385 0.16549
 H776 H 1.08970 0.28995 0.13874
 H777 H 1.13204 0.30392 0.21559
 H778 H 1.09190 0.27847 0.24179
 C779 C 1.10971 0.81786 0.67848
 C780 C 1.08412 0.83825 0.68541
 C781 C 1.06156 0.82509 0.69901
 C782 C 1.06620 0.79261 0.70441
 C783 C 1.07293 0.78005 0.67437
 C784 C 1.09545 0.79326 0.66067
 C785 C 1.11738 0.80354 0.70757
 C786 C 1.09476 0.79055 0.72105
 H787 H 1.08350 0.86100 0.67946
 H788 H 1.04190 0.83662 0.70472
 H789 H 1.06005 0.76341 0.66393
 H790 H 1.10041 0.78782 0.63846
 H791 H 1.13901 0.80341 0.71673
 H792 H 1.09708 0.77949 0.74164
 C793 C 0.39965 0.67317 0.68171
 C794 C 0.39051 0.70200 0.69568
 C795 C 0.41211 0.71600 0.70979
 C796 C 0.44117 0.70008 0.70901
 C797 C 0.43464 0.66967 0.72101
 C798 C 0.41311 0.65551 0.70672
 C799 C 0.42583 0.68095 0.66256
 C800 C 0.44743 0.69506 0.67680
 H801 H 0.36869 0.71064 0.69463
 H802 H 0.40875 0.73658 0.72060
 H803 H 0.44686 0.65941 0.73823
 H804 H 0.40814 0.63318 0.71183
 H805 H 0.42748 0.67529 0.63985
 H806 H 0.46738 0.70150 0.66623
 C807 C 0.39264 0.17928 0.18431
 C808 C 0.40716 0.16111 0.20843
 C809 C 0.42909 0.17509 0.22225
 C810 C 0.43507 0.20579 0.21070
 C811 C 0.44024 0.20147 0.17822
 C812 C 0.41824 0.18754 0.16446
 C813 C 0.38395 0.20780 0.19928
 C814 C 0.40602 0.22159 0.21288
 H815 H 0.40300 0.13847 0.21287
 H816 H 0.44221 0.16439 0.23852
 H817 H 0.45985 0.20810 0.16715
 H818 H 0.41931 0.18218 0.14163
 H819 H 0.36207 0.21639 0.19931
 H820 H 0.40299 0.24189 0.22435
 C821 C -0.10372 0.68530 0.17736
 C822 C -0.07848 0.66455 0.18458
 C823 C -0.05622 0.67725 0.19911
 C824 C -0.06081 0.70965 0.20500
 C825 C -0.06660 0.72284 0.17500
 C826 C -0.08878 0.71008 0.16042
 C827 C -0.11212 0.69905 0.20651
 C828 C -0.08981 0.71159 0.22088
 H829 H -0.07782 0.64194 0.17814
 H830 H -0.03680 0.66548 0.20514
 H831 H -0.05321 0.73943 0.16514
 H832 H -0.09289 0.71573 0.13809
 H833 H -0.13398 0.69905 0.21510
 H834 H -0.09261 0.72212 0.24167
 C835 C -0.10739 0.18636 0.67570
 C836 C -0.08166 0.16619 0.68281
 C837 C -0.05966 0.17939 0.69727
 C838 C -0.06495 0.21168 0.70326
 C839 C -0.07113 0.22478 0.67332
 C840 C -0.09305 0.21152 0.65877
 C841 C -0.11601 0.19986 0.70490
 C842 C -0.09395 0.21289 0.71921
 H843 H -0.08051 0.14361 0.67633
 H844 H -0.03995 0.16805 0.70321
 H845 H -0.05814 0.24169 0.66346
 H846 H -0.09730 0.21709 0.63644
 H847 H -0.13784 0.19931 0.71357
 H848 H -0.09694 0.22329 0.74002
 C849 C 0.31230 0.39231 0.32808
 C850 C 0.33255 0.41814 0.32199
 C851 C 0.31966 0.44059 0.30787
 C852 C 0.28756 0.43551 0.30115
 C853 C 0.28668 0.40685 0.28445
 C854 C 0.29947 0.38439 0.29845
 C855 C 0.28680 0.40607 0.34483
 C856 C 0.27386 0.42851 0.33065
 H857 H 0.35501 0.41893 0.32878
 H858 H 0.33112 0.46041 0.30254
 H859 H 0.27667 0.40436 0.26339
 H860 H 0.30022 0.36273 0.28931
 H861 H 0.28024 0.40040 0.36656
 H862 H 0.25637 0.44090 0.34025
 C863 C 0.32682 -0.10843 0.82001
 C864 C 0.31965 -0.08357 0.84122
 C865 C 0.30532 -0.06086 0.82900
 C866 C 0.29954 -0.06462 0.79656
 C867 C 0.32958 -0.07035 0.78341
 C868 C 0.34397 -0.09301 0.79569
 C869 C 0.29766 -0.11628 0.80595
 C870 C 0.28349 -0.09352 0.79390
 H871 H 0.32598 -0.08350 0.86382
 H872 H 0.29935 -0.04165 0.84116
 H873 H 0.33956 -0.05666 0.76716
 H874 H 0.36627 -0.09724 0.78997
 H875 H 0.28894 -0.13812 0.80536
 H876 H 0.26274 -0.09594 0.78318
 C877 C 0.81892 0.39771 0.82777
 C878 C 0.83897 0.42304 0.81906
 C879 C 0.82529 0.44504 0.80497
 C880 C 0.79271 0.44016 0.80098
 C881 C 0.79014 0.41087 0.78567
 C882 C 0.80365 0.38881 0.79958
 C883 C 0.79508 0.41274 0.84590
 C884 C 0.78133 0.43469 0.83177
 H885 H 0.86185 0.42398 0.82428
 H886 H 0.83650 0.46451 0.79807
 H887 H 0.77844 0.40767 0.76561
 H888 H 0.80332 0.36678 0.79130
 H889 H 0.79084 0.40884 0.86859
 H890 H 0.76526 0.44815 0.84237
 C891 C 0.82311 -0.10406 0.31403
 C892 C 0.81632 -0.07821 0.33412
 C893 C 0.80178 -0.05615 0.32105
 C894 C 0.79539 -0.06154 0.28895
 C895 C 0.82517 -0.06790 0.27553
 C896 C 0.83980 -0.08989 0.28865
 C897 C 0.79371 -0.11263 0.30090
 C898 C 0.77930 -0.09050 0.28800
 H899 H 0.82305 -0.07703 0.35658
 H900 H 0.79603 -0.03635 0.33236
 H901 H 0.83482 -0.05504 0.25842
 H902 H 0.86197 -0.09441 0.28265
 H903 H 0.78504 -0.13449 0.30149
 H904 H 0.75840 -0.09346 0.27771
 C905 C 0.31819 0.59942 0.67306
 C906 C 0.30328 0.60862 0.70132
 C907 C 0.28866 0.58701 0.71482
 C908 C 0.28991 0.55789 0.69900
 C909 C 0.27898 0.56440 0.66827
 C910 C 0.29381 0.58588 0.65461
 C911 C 0.33707 0.57319 0.68149
 C912 C 0.32231 0.55155 0.69508
 H913 H 0.30419 0.63046 0.71000
 H914 H 0.27725 0.59038 0.73501
 H915 H 0.26234 0.55194 0.65736
 H916 H 0.28984 0.59047 0.63201
 H917 H 0.35996 0.57149 0.67658
 H918 H 0.33262 0.53152 0.70184
 C919 C 0.31263 1.10565 0.17710
 C920 C 0.28772 1.09231 0.15922
 C921 C 0.27393 1.07003 0.17267
 C922 C 0.28624 1.06260 0.20266
 C923 C 0.31855 1.05709 0.19721
 C924 C 0.33231 1.07951 0.18383
 C925 C 0.29870 1.11351 0.20628
 C926 C 0.28506 1.09111 0.21959
 H927 H 0.28247 1.09778 0.13709
 H928 H 0.25697 1.05774 0.16206
 H929 H 0.32953 1.03708 0.20285
 H930 H 0.35503 1.07848 0.17799
 H931 H 0.29941 1.13508 0.21563
 H932 H 0.27420 1.09354 0.24026
 C933 C 0.82127 0.60679 0.18303
 C934 C 0.79249 0.61592 0.19700
 C935 C 0.77802 0.59401 0.21019
 C936 C 0.79347 0.56468 0.20854
 C937 C 0.79876 0.55950 0.17618
 C938 C 0.81332 0.58142 0.16287
 C939 C 0.83839 0.59207 0.20773
 C940 C 0.82375 0.57026 0.22110
 H941 H 0.78422 0.63794 0.19662
 H942 H 0.75743 0.59732 0.22090
 H943 H 0.79217 0.54000 0.16483
 H944 H 0.81921 0.58050 0.14017
 H945 H 0.86078 0.59627 0.21312
 H946 H 0.83363 0.55711 0.23787
 C947 C 0.82029 1.10689 0.67994
 C948 C 0.83829 1.09154 0.70370
 C949 C 0.82422 1.06922 0.71684
 C950 C 0.79366 1.06366 0.70496
 C951 C 0.77791 1.09271 0.70790
 C952 C 0.79177 1.11520 0.69501
 C953 C 0.81213 1.08189 0.65929
 C954 C 0.79814 1.05946 0.67235
 H955 H 0.86094 1.09537 0.70822
 H956 H 0.83482 1.05548 0.73267
 H957 H 0.75758 1.09542 0.71932
 H958 H 0.78319 1.13711 0.69559
 H959 H 0.81761 1.08148 0.63647
 H960 H 0.79160 1.04015 0.66066
 C961 C 0.68129 0.60547 0.32044
 C962 C 0.69530 0.61492 0.29180
 C963 C 0.70901 0.59331 0.27737
 C964 C 0.70782 0.56392 0.29272
 C965 C 0.72005 0.56966 0.32310
 C966 C 0.70616 0.59119 0.33769
 C967 C 0.66166 0.57975 0.31228
 C968 C 0.67550 0.55812 0.29776
 H969 H 0.69454 0.63695 0.28358
 H970 H 0.71979 0.59686 0.25686
 H971 H 0.73704 0.55684 0.33304
 H972 H 0.71129 0.59550 0.36010
 H973 H 0.63894 0.57838 0.31802
 H974 H 0.66458 0.53843 0.29103
 C975 C 0.68040 1.10221 0.81528
 C976 C 0.70790 1.11193 0.79922
 C977 C 0.72166 1.09039 0.78468
 C978 C 0.70685 1.06083 0.78711
 C979 C 0.70417 1.05511 0.81971
 C980 C 0.69027 1.07660 0.83442
 C981 C 0.66162 1.08735 0.79188
 C982 C 0.67557 1.06603 0.77709
 H983 H 0.71591 1.13404 0.79928
 H984 H 0.74136 1.09411 0.77247
 H985 H 0.71174 1.03547 0.83019
 H986 H 0.68590 1.07502 0.85743
 H987 H 0.63861 1.09064 0.78890
 H988 H 0.66447 1.05258 0.76137
 C989 C 0.17722 0.60166 0.81036
 C990 C 0.15916 0.58783 0.78575
 C991 C 0.17305 0.56613 0.77143
 C992 C 0.20352 0.55956 0.78303
 C993 C 0.21954 0.58856 0.78178
 C994 C 0.20587 0.61045 0.79586
 C995 C 0.18509 0.57547 0.82962
 C996 C 0.19889 0.55361 0.81537
 H997 H 0.13654 0.59210 0.78146
 H998 H 0.16234 0.55339 0.75487
 H999 H 0.23995 0.59167 0.77067
 H1000 H 0.21470 0.63224 0.79658
 H1001 H 0.17955 0.57386 0.85237
 H1002 H 0.20520 0.53361 0.82599
 C1003 C 0.18027 1.10195 0.31976
 C1004 C 0.16024 1.07664 0.31132
 C1005 C 0.17367 1.05507 0.29633
 C1006 C 0.20601 1.06053 0.29114
 C1007 C 0.20751 1.09014 0.27625
 C1008 C 0.19419 1.11171 0.29116
 C1009 C 0.20507 1.08704 0.33657
 C1010 C 0.21855 1.06560 0.32151
 H1011 H 0.13753 1.07549 0.31718
 H1012 H 0.16242 1.03565 0.28935
 H1013 H 0.21834 1.09389 0.25576
 H1014 H 0.19373 1.13390 0.28337
 H1015 H 0.21046 1.09084 0.35901
 H1016 H 0.23540 1.05236 0.33114
 C1017 C 0.67972 0.39792 0.69032
 C1018 C 0.66353 0.41045 0.71681
 C1019 C 0.67811 0.43201 0.73065
 C1020 C 0.70740 0.43950 0.71682
 C1021 C 0.72395 0.41074 0.71585
 C1022 C 0.70955 0.38910 0.70216
 C1023 C 0.68564 0.42472 0.67135
 C1024 C 0.70013 0.44636 0.68516
 H1025 H 0.64180 0.40484 0.72339
 H1026 H 0.66886 0.44357 0.74888
 H1027 H 0.74525 0.40761 0.72517
 H1028 H 0.71856 0.36748 0.69999
 H1029 H 0.67850 0.42674 0.64909
 H1030 H 0.70540 0.46672 0.67466
 C1031 C 0.67698 -0.10246 0.18406
 C1032 C 0.70588 -0.11172 0.19785
 C1033 C 0.72021 -0.09007 0.21162
 C1034 C 0.70453 -0.06084 0.21079
 C1035 C 0.69915 -0.05474 0.17861
 C1036 C 0.68471 -0.07633 0.16469
 C1037 C 0.65975 -0.08848 0.20920
 C1038 C 0.67429 -0.06700 0.22319
 H1039 H 0.71430 -0.13368 0.19702
 H1040 H 0.74077 -0.09353 0.22241
 H1041 H 0.70546 -0.03481 0.16787
 H1042 H 0.67865 -0.07460 0.14208
 H1043 H 0.63727 -0.09256 0.21429
 H1044 H 0.66425 -0.05423 0.24015
 C1045 C 0.17505 0.39756 0.18830
 C1046 C 0.18272 0.42406 0.16953
 C1047 C 0.19768 0.44505 0.18379
 C1048 C 0.20361 0.43796 0.21567
 C1049 C 0.17356 0.43177 0.22853
 C1050 C 0.15852 0.41082 0.21421
 C1051 C 0.20406 0.38749 0.20113
 C1052 C 0.21891 0.40850 0.21530
 H1053 H 0.17635 0.42639 0.14707
 H1054 H 0.20412 0.46517 0.17348
 H1055 H 0.16422 0.44378 0.24642
 H1056 H 0.13633 0.40612 0.21996
 H1057 H 0.21216 0.36548 0.19935
 H1058 H 0.23965 0.40444 0.22548
 C1059 C 0.18422 -0.10358 0.68891
 C1060 C 0.16626 -0.09009 0.71368
 C1061 C 0.18029 -0.06881 0.72838
 C1062 C 0.21088 -0.06240 0.71701
 C1063 C 0.22661 -0.09161 0.71782
 C1064 C 0.21271 -0.11305 0.70328
 C1065 C 0.19250 -0.07726 0.67009
 C1066 C 0.20647 -0.05581 0.68476
 H1067 H 0.14369 -0.09449 0.71805
 H1068 H 0.16968 -0.05638 0.74526
 H1069 H 0.24696 -0.09517 0.72898
 H1070 H 0.22122 -0.13496 0.70213
 H1071 H 0.18723 -0.07538 0.64731
 H1072 H 0.21318 -0.03577 0.67448
 C1073 C 0.31748 0.30983 0.40130
 C1074 C 0.28902 0.29526 0.39209
 C1075 C 0.27515 0.28098 0.41371
 C1076 C 0.29085 0.28227 0.44284
 C1077 C 0.32148 0.27083 0.43662
 C1078 C 0.33549 0.28526 0.41516
 C1079 C 0.30914 0.32910 0.42726
 C1080 C 0.29519 0.31471 0.44890
 H1081 H 0.28052 0.29609 0.37023
 H1082 H 0.25482 0.26973 0.41034
 H1083 H 0.33214 0.25417 0.44931
 H1084 H 0.35809 0.28094 0.41085
 H1085 H 0.31438 0.35197 0.42878
 H1086 H 0.28846 0.32531 0.46873
 C1087 C 0.31952 0.81481 -0.10353
 C1088 C 0.29655 0.83323 -0.08770
 C1089 C 0.28221 0.81869 -0.06656
 C1090 C 0.29219 0.78712 -0.06260
 C1091 C 0.28900 0.77326 -0.09251
 C1092 C 0.30317 0.78770 -0.11383
 C1093 C 0.33922 0.80395 -0.07888
 C1094 C 0.32494 0.78942 -0.05756
 H1095 H 0.29341 0.85632 -0.09048
 H1096 H 0.26671 0.82944 -0.05256
 H1097 H 0.27660 0.75372 -0.09661
 H1098 H 0.30277 0.78048 -0.13616
 H1099 H 0.36233 0.80798 -0.07790
 H1100 H 0.33586 0.78097 -0.03857
 C1101 C 0.82365 0.31592 -0.10033
 C1102 C 0.79531 0.30143 -0.10996
 C1103 C 0.78132 0.28682 -0.08866
 C1104 C 0.79678 0.28769 -0.05938
 C1105 C 0.82745 0.27636 -0.06553
 C1106 C 0.84160 0.29115 -0.08669
 C1107 C 0.81511 0.33479 -0.07418
 C1108 C 0.80104 0.32006 -0.05286
 H1109 H 0.78694 0.30259 -0.13186
 H1110 H 0.76104 0.27564 -0.09236
 H1111 H 0.83798 0.25946 -0.05305
 H1112 H 0.86423 0.28691 -0.09096
 H1113 H 0.82031 0.35764 -0.07229
 H1114 H 0.79416 0.33037 -0.03292
 C1115 C 0.81655 0.82221 0.39358
 C1116 C 0.80253 0.79338 0.38461
 C1117 C 0.78895 0.77920 0.40644
 C1118 C 0.79029 0.79495 0.43555
 C1119 C 0.82264 0.80011 0.44108
 C1120 C 0.83633 0.81438 0.41924
 C1121 C 0.79172 0.83966 0.40775
 C1122 C 0.77796 0.82530 0.42950
 H1123 H 0.80317 0.78487 0.36274
 H1124 H 0.77813 0.75861 0.40321
 H1125 H 0.83369 0.79365 0.46076
 H1126 H 0.85905 0.82017 0.42042
 H1127 H 0.78651 0.86207 0.40321
 H1128 H 0.76103 0.83540 0.44225
 C1129 C 0.68394 0.32589 0.60694
 C1130 C 0.70963 0.34276 0.59368
 C1131 C 0.72235 0.32909 0.57088
 C1132 C 0.70831 0.29994 0.56300
 C1133 C 0.70903 0.28228 0.59105
 C1134 C 0.69645 0.29579 0.61390
 C1135 C 0.66357 0.32083 0.58104
 C1136 C 0.67627 0.30725 0.55817
 H1137 H 0.71647 0.36429 0.59989
 H1138 H 0.73989 0.33892 0.55876
 H1139 H 0.71888 0.26099 0.59286
 H1140 H 0.69567 0.28599 0.63522
 H1141 H 0.64117 0.32788 0.58054
 H1142 H 0.66471 0.30265 0.53827
 C1143 C 0.68376 0.82548 1.10293
 C1144 C 0.66420 0.81841 1.07688
 C1145 C 0.67803 0.80454 1.05485
 C1146 C 0.71028 0.79901 1.06062
 C1147 C 0.72271 0.82912 1.06751
 C1148 C 0.70882 0.84308 1.08942
 C1149 C 0.69752 0.79633 1.11138
 C1150 C 0.71124 0.78254 1.08936
 H1151 H 0.64153 0.82441 1.07560
 H1152 H 0.66716 0.79864 1.03491
 H1153 H 0.73975 0.83945 1.05510
 H1154 H 0.71404 0.86537 1.09444
 H1155 H 0.69666 0.78735 1.13306
 H1156 H 0.72203 0.76184 1.09223
 C1157 C 0.17975 0.32633 1.10490
 C1158 C 0.19536 0.29825 1.11363
 C1159 C 0.20954 0.28493 1.09164
 C1160 C 0.20718 0.30073 1.06263
 C1161 C 0.17455 0.30414 1.05729
 C1162 C 0.16022 0.31757 1.07932
 C1163 C 0.20339 0.34519 1.09062
 C1164 C 0.21779 0.33171 1.06876
 H1165 H 0.19525 0.28955 1.13544
 H1166 H 0.22139 0.26489 1.09468
 H1167 H 0.16377 0.29722 1.03763
 H1168 H 0.13723 0.32219 1.07829
 H1169 H 0.20703 0.36794 1.09504
 H1170 H 0.23381 0.34292 1.05577
 C1171 C 0.19071 0.82411 0.60604
 C1172 C 0.17129 0.81923 0.57941
 C1173 C 0.18471 0.80547 0.55707
 C1174 C 0.21647 0.79783 0.56313
 C1175 C 0.23052 0.82683 0.57145
 C1176 C 0.21708 0.84069 0.59372
 C1177 C 0.20262 0.79390 0.61353
 C1178 C 0.21591 0.78023 0.59121
 H1179 H 0.14900 0.82651 0.57804
 H1180 H 0.17387 0.80096 0.53675
 H1181 H 0.24862 0.83643 0.55998
 H1182 H 0.22388 0.86218 0.60009
 H1183 H 0.20081 0.78411 0.63479
 H1184 H 0.22525 0.75878 0.59339
 C1185 C 0.32595 0.68202 0.60088
 C1186 C 0.31686 0.66328 0.57482
 C1187 C 0.30277 0.67822 0.55367
 C1188 C 0.29910 0.71063 0.56022
 C1189 C 0.28396 0.71182 0.58965
 C1190 C 0.29794 0.69700 0.61081
 C1191 C 0.34415 0.70647 0.58708
 C1192 C 0.33002 0.72147 0.56603
 H1193 H 0.32171 0.64035 0.57287
 H1194 H 0.29552 0.66801 0.53381
 H1195 H 0.26397 0.72346 0.59359
 H1196 H 0.28983 0.69610 0.63282
 H1197 H 0.36683 0.71045 0.59130
 H1198 H 0.34063 0.73827 0.55351
 C1199 C 0.31941 0.18854 1.10468
 C1200 C 0.31215 0.16960 1.07820
 C1201 C 0.29827 0.18406 1.05656
 C1202 C 0.29288 0.21625 1.06314
 C1203 C 0.27657 0.21649 1.09195
 C1204 C 0.29038 0.20218 1.11358
 C1205 C 0.33698 0.21391 1.09169
 C1206 C 0.32301 0.22841 1.07022
 H1207 H 0.31800 0.14689 1.07638
 H1208 H 0.29222 0.17368 1.03639
 H1209 H 0.25580 0.22693 1.09510
 H1210 H 0.28140 0.20063 1.13521
 H1211 H 0.35931 0.21891 1.09661
 H1212 H 0.33337 0.24571 1.05818
 C1213 C 0.81634 0.68275 1.10342
 C1214 C 0.80273 0.71185 1.11229
 C1215 C 0.78941 0.72623 1.09037
 C1216 C 0.79061 0.71036 1.06130
 C1217 C 0.82289 0.70466 1.05586
 C1218 C 0.83631 0.69021 1.07778
 C1219 C 0.79132 0.66568 1.08922
 C1220 C 0.77786 0.68020 1.06744
 H1221 H 0.80340 0.72037 1.13415
 H1222 H 0.77878 0.74698 1.09351
 H1223 H 0.83410 0.71092 1.03621
 H1224 H 0.85895 0.68409 1.07670
 H1225 H 0.78581 0.64335 1.09371
 H1226 H 0.76089 0.67027 1.05462
 C1227 C 0.81247 0.18272 0.60224
 C1228 C 0.79906 0.21184 0.61137
 C1229 C 0.78551 0.22631 0.58968
 C1230 C 0.78625 0.21050 0.56057
 C1231 C 0.81843 0.20471 0.55465
 C1232 C 0.83210 0.19018 0.57636
 C1233 C 0.78717 0.16577 0.58835
 C1234 C 0.77347 0.18040 0.56679
 H1235 H 0.80003 0.22030 0.63325
 H1236 H 0.77500 0.24709 0.59301
 H1237 H 0.82939 0.21097 0.53486
 H1238 H 0.85472 0.18400 0.57496
 H1239 H 0.78156 0.14347 0.59288
 H1240 H 0.75626 0.17059 0.55419
 C1241 C 0.67577 0.68587 0.39515
 C1242 C 0.68280 0.66608 0.42107
 C1243 C 0.69761 0.67947 0.44273
 C1244 C 0.70403 0.71155 0.43680
 C1245 C 0.71978 0.71194 0.40767
 C1246 C 0.70509 0.69868 0.38601
 C1247 C 0.65935 0.71160 0.40893
 C1248 C 0.67422 0.72503 0.43055
 H1249 H 0.67615 0.64358 0.42251
 H1250 H 0.70366 0.66838 0.46253
 H1251 H 0.74074 0.72192 0.40431
 H1252 H 0.71353 0.69751 0.36414
 H1253 H 0.63735 0.71789 0.40400
 H1254 H 0.66490 0.74269 0.44294
 C1255 C 0.68732 0.17443 -0.10335
 C1256 C 0.70075 0.20378 -0.11159
 C1257 C 0.71420 0.21760 -0.08945
 C1258 C 0.71336 0.20100 -0.06079
 C1259 C 0.68117 0.19511 -0.05516
 C1260 C 0.66758 0.18119 -0.07731
 C1261 C 0.71254 0.15705 -0.08987
 C1262 C 0.72616 0.17103 -0.06783
 H1263 H 0.69979 0.21291 -0.13320
 H1264 H 0.72453 0.23851 -0.09214
 H1265 H 0.67014 0.20086 -0.03525
 H1266 H 0.64497 0.17499 -0.07617
 H1267 H 0.71813 0.13489 -0.09509
 H1268 H 0.74333 0.16082 -0.05549
 C1269 C 0.18460 0.67375 -0.10810
 C1270 C 0.19855 0.70297 -0.11598
 C1271 C 0.21176 0.71655 -0.09354
 C1272 C 0.21018 0.69984 -0.06497
 C1273 C 0.17784 0.69432 -0.05994
 C1274 C 0.16450 0.68064 -0.08237
 C1275 C 0.20938 0.65601 -0.09429
 C1276 C 0.22275 0.66973 -0.07193
 H1277 H 0.19817 0.71214 -0.13759
 H1278 H 0.22255 0.73730 -0.09598
 H1279 H 0.16652 0.70014 -0.04021
 H1280 H 0.14180 0.67470 -0.08164
 H1281 H 0.21496 0.63389 -0.09969
 H1282 H 0.23968 0.65932 -0.05943
 C1283 C 0.17480 0.17930 0.39781
 C1284 C 0.20421 0.19269 0.38986
 C1285 C 0.21850 0.20482 0.41246
 C1286 C 0.20226 0.20278 0.44125
 C1287 C 0.17248 0.21643 0.43524
 C1288 C 0.15804 0.20415 0.41271
 C1289 C 0.18153 0.15815 0.42275
 C1290 C 0.19592 0.17039 0.44536
 H1291 H 0.21300 0.19276 0.36809
 H1292 H 0.23946 0.21512 0.40999
 H1293 H 0.16279 0.23326 0.44847
 H1294 H 0.13604 0.21052 0.40788
 H1295 H 0.17498 0.13556 0.42285
 H1296 H 0.20172 0.15827 0.46462
 C1297 C 0.31525 0.39113 0.67584
 C1298 C 0.29063 0.40428 0.65739
 C1299 C 0.27644 0.42658 0.67043
 C1300 C 0.28815 0.43425 0.70059
 C1301 C 0.28685 0.40584 0.71767
 C1302 C 0.30086 0.38342 0.70480
 C1303 C 0.33468 0.41740 0.68273
 C1304 C 0.32053 0.43985 0.69570
 H1305 H 0.28598 0.39873 0.63514
 H1306 H 0.25967 0.43878 0.65940
 H1307 H 0.27586 0.40352 0.73824
 H1308 H 0.30164 0.36196 0.71440
 H1309 H 0.35748 0.41850 0.67727
 H1310 H 0.33129 0.45996 0.70138
 C1311 C 0.31159 0.89618 0.17296
 C1312 C 0.33061 0.92306 0.17833
 C1313 C 0.31682 0.94504 0.19235
 C1314 C 0.28513 0.93840 0.19973
 C1315 C 0.27130 0.93032 0.17061
 C1316 C 0.28512 0.90841 0.15649
 C1317 C 0.29969 0.88803 0.20291
 C1318 C 0.28604 0.90999 0.21685
 H1319 H 0.35290 0.92486 0.17117
 H1320 H 0.32734 0.96549 0.19721
 H1321 H 0.25309 0.94174 0.16112
 H1322 H 0.27854 0.90229 0.13490
 H1323 H 0.30178 0.86659 0.21237
 H1324 H 0.27669 0.90734 0.23818
 C1325 C 0.81471 0.39955 0.17565
 C1326 C 0.80110 0.39081 0.20470
 C1327 C 0.78725 0.41268 0.21859
 C1328 C 0.78791 0.44160 0.20235
 C1329 C 0.82008 0.44765 0.19679
 C1330 C 0.83405 0.42578 0.18279
 C1331 C 0.78944 0.41293 0.15824
 C1332 C 0.77541 0.43475 0.17231
 H1333 H 0.80216 0.36905 0.21356
 H1334 H 0.77664 0.40959 0.23927
 H1335 H 0.83081 0.46770 0.20277
 H1336 H 0.85669 0.42728 0.17676
 H1337 H 0.78396 0.40764 0.13612
 H1338 H 0.75803 0.44694 0.16225
 C1339 C 0.81937 0.89887 0.67169
 C1340 C 0.79495 0.91303 0.65374
 C1341 C 0.78048 0.93443 0.66796
 C1342 C 0.79178 0.94022 0.69870
 C1343 C 0.79035 0.91079 0.71396
 C1344 C 0.80463 0.88929 0.69991
 C1345 C 0.83859 0.92473 0.68043
 C1346 C 0.82419 0.94625 0.69460
 H1347 H 0.79063 0.90875 0.63114
 H1348 H 0.76377 0.94721 0.65750
 H1349 H 0.77891 0.90712 0.73410
 H1350 H 0.80530 0.86725 0.70810
 H1351 H 0.86144 0.92630 0.67529
 H1352 H 0.83477 0.96602 0.70163
 C1353 C 0.68335 0.60281 0.68360
 C1354 C 0.69459 0.57805 0.66419
 C1355 C 0.70857 0.55657 0.67887
 C1356 C 0.70999 0.56159 0.71168
 C1357 C 0.72388 0.59149 0.71525
 C1358 C 0.71000 0.61296 0.70069
 C1359 C 0.66425 0.58700 0.70600
 C1360 C 0.67824 0.56570 0.72074
 H1361 H 0.69111 0.57704 0.64101
 H1362 H 0.71710 0.53745 0.66819
 H1363 H 0.74309 0.59547 0.72814
 H1364 H 0.71735 0.63528 0.70124
 H1365 H 0.64113 0.58999 0.70843
 H1366 H 0.66703 0.55170 0.73590
 C1367 C 0.67669 0.10460 0.18695
 C1368 C 0.70659 0.11292 0.19895
 C1369 C 0.72084 0.09088 0.21220
 C1370 C 0.70405 0.06228 0.21259
 C1371 C 0.67483 0.06979 0.22661
 C1372 C 0.66042 0.09176 0.21322
 C1373 C 0.68237 0.07811 0.16747
 C1374 C 0.69669 0.05608 0.18083
 H1375 H 0.71569 0.13454 0.19737
 H1376 H 0.74207 0.09367 0.22185
 H1377 H 0.66555 0.05803 0.24469
 H1378 H 0.63884 0.09763 0.22010
 H1379 H 0.67520 0.07660 0.14518
 H1380 H 0.70178 0.03587 0.16995
 C1381 C 0.18529 0.60013 0.18009
 C1382 C 0.16563 0.57446 0.18828
 C1383 C 0.17927 0.55310 0.20336
 C1384 C 0.21147 0.55909 0.20891
 C1385 C 0.22425 0.56444 0.17869
 C1386 C 0.21056 0.58570 0.16352
 C1387 C 0.19874 0.61007 0.20883
 C1388 C 0.21227 0.58871 0.22383
 H1389 H 0.14301 0.57293 0.18217
 H1390 H 0.16829 0.53348 0.21018
 H1391 H 0.24153 0.55160 0.16928
 H1392 H 0.21621 0.58976 0.14119
 H1393 H 0.19775 0.63221 0.21669
 H1394 H 0.22268 0.59262 0.24446
 C1395 C 0.17832 0.09951 0.69346
 C1396 C 0.18445 0.07229 0.67519
 C1397 C 0.19947 0.05127 0.68938
 C1398 C 0.20707 0.05909 0.72073
 C1399 C 0.22311 0.08806 0.71876
 C1400 C 0.20815 0.10910 0.70468
 C1401 C 0.16272 0.08752 0.72055
 C1402 C 0.17785 0.06654 0.73477
 H1403 H 0.17708 0.06956 0.65308
 H1404 H 0.20496 0.03071 0.67936
 H1405 H 0.24442 0.09180 0.72784
 H1406 H 0.21672 0.13082 0.70189
 H1407 H 0.14116 0.09331 0.72754
 H1408 H 0.16916 0.05553 0.75359
 C1409 C 0.32389 0.60327 0.31740
 C1410 C 0.34068 0.58883 0.29233
 C1411 C 0.32626 0.56648 0.27958
 C1412 C 0.29648 0.56020 0.29304
 C1413 C 0.30279 0.55544 0.32527
 C1414 C 0.31717 0.57785 0.33797
 C1415 C 0.29451 0.61151 0.30417
 C1416 C 0.28025 0.58912 0.29159
 H1417 H 0.36269 0.59383 0.28612
 H1418 H 0.33593 0.55357 0.26252
 H1419 H 0.29701 0.53589 0.33696
 H1420 H 0.32372 0.57727 0.36049
 H1421 H 0.28567 0.63331 0.30460
 H1422 H 0.25927 0.59181 0.28147
 C1423 C 0.31928 0.10364 0.83013
 C1424 C 0.33952 0.07823 0.82230
 C1425 C 0.32608 0.05583 0.80860
 C1426 C 0.29353 0.06058 0.80406
 C1427 C 0.28171 0.06684 0.83453
 C1428 C 0.29521 0.08916 0.84825
 C1429 C 0.30448 0.11189 0.80153
 C1430 C 0.29115 0.08950 0.78797
 H1431 H 0.36236 0.07762 0.82769
 H1432 H 0.33745 0.03627 0.80221
 H1433 H 0.26533 0.05381 0.84519
 H1434 H 0.29043 0.09401 0.87065
 H1435 H 0.30440 0.13370 0.79273
 H1436 H 0.27978 0.09220 0.76763
 C1437 C 0.82475 0.60795 0.81662
 C1438 C 0.84133 0.59405 0.79111
 C1439 C 0.82712 0.57150 0.77851
 C1440 C 0.79773 0.56452 0.79250
 C1441 C 0.80474 0.55968 0.82457
 C1442 C 0.81890 0.58227 0.83713
 C1443 C 0.79496 0.61571 0.80397
 C1444 C 0.78089 0.59311 0.79151
 H1445 H 0.86299 0.59969 0.78429
 H1446 H 0.83664 0.55901 0.76106
 H1447 H 0.79953 0.53996 0.83624
 H1448 H 0.82586 0.58169 0.85953
 H1449 H 0.78576 0.63735 0.80460
 H1450 H 0.75972 0.59545 0.78164
 C1451 C 0.81875 0.10617 0.31657
 C1452 C 0.81212 0.08034 0.33663
 C1453 C 0.79857 0.05779 0.32329
 C1454 C 0.79285 0.06288 0.29098
 C1455 C 0.77599 0.09144 0.28957
 C1456 C 0.78948 0.11396 0.30279
 C1457 C 0.83639 0.09241 0.29165
 C1458 C 0.82274 0.06998 0.27828
 H1459 H 0.81813 0.07962 0.35930
 H1460 H 0.79298 0.03795 0.33459
 H1461 H 0.75524 0.09382 0.27883
 H1462 H 0.78021 0.13558 0.30324
 H1463 H 0.85844 0.09779 0.28600
 H1464 H 0.83310 0.05745 0.26134
 C1465 C 0.67492 0.39956 0.31256
 C1466 C 0.68149 0.42597 0.33186
 C1467 C 0.69588 0.44771 0.31813
 C1468 C 0.70239 0.44137 0.28621
 C1469 C 0.71868 0.41244 0.28627
 C1470 C 0.70438 0.39069 0.29989
 C1471 C 0.65825 0.41270 0.28667
 C1472 C 0.67272 0.43439 0.27290
 H1473 H 0.67482 0.42766 0.35430
 H1474 H 0.70156 0.46784 0.32886
 H1475 H 0.73968 0.40927 0.27633
 H1476 H 0.71322 0.36894 0.30141
 H1477 H 0.63633 0.40732 0.28050
 H1478 H 0.66319 0.44637 0.25509
 C1479 C 0.67951 0.89572 0.80943
 C1480 C 0.68490 0.92265 0.82837
 C1481 C 0.69878 0.94464 0.81449
 C1482 C 0.70604 0.93797 0.78279
 C1483 C 0.72328 0.90961 0.78364
 C1484 C 0.70947 0.88762 0.79740
 C1485 C 0.66289 0.90784 0.78303
 C1486 C 0.67686 0.92976 0.76912
 H1487 H 0.67786 0.92447 0.85068
 H1488 H 0.70364 0.96511 0.82496
 H1489 H 0.74457 0.90699 0.77413
 H1490 H 0.71899 0.86621 0.79945
 H1491 H 0.64134 0.90158 0.77644
 H1492 H 0.66728 0.94104 0.75089
 C1493 C 0.17524 0.39578 0.81203
 C1494 C 0.18220 0.42266 0.83055
 C1495 C 0.19631 0.44409 0.81598
 C1496 C 0.20219 0.43692 0.78409
 C1497 C 0.21849 0.40802 0.78460
 C1498 C 0.20446 0.38661 0.79903
 C1499 C 0.15805 0.40832 0.78621
 C1500 C 0.17224 0.42960 0.77160
 H1501 H 0.17600 0.42490 0.85307
 H1502 H 0.20221 0.46447 0.82607
 H1503 H 0.23936 0.40464 0.77448
 H1504 H 0.21339 0.36494 0.80103
 H1505 H 0.13587 0.40311 0.78086
 H1506 H 0.16220 0.44129 0.75388
 C1507 C 0.17734 0.89566 0.31467
 C1508 C 0.18539 0.92181 0.33380
 C1509 C 0.19888 0.94370 0.31932
 C1510 C 0.20306 0.93773 0.28693
 C1511 C 0.21919 0.90875 0.28551
 C1512 C 0.20581 0.88688 0.29987
 C1513 C 0.15892 0.90923 0.29028
 C1514 C 0.17246 0.93101 0.27574
 H1515 H 0.18032 0.92327 0.35666
 H1516 H 0.20539 0.96368 0.32985
 H1517 H 0.23944 0.90565 0.27411
 H1518 H 0.21468 0.86510 0.30058
 H1519 H 0.13644 0.90430 0.28597
 H1520 H 0.16158 0.94341 0.25903
 C1521 C 0.39663 0.31711 0.68541
 C1522 C 0.42252 0.30952 0.66580
 C1523 C 0.44475 0.29609 0.67976
 C1524 C 0.43933 0.29150 0.71218
 C1525 C 0.43241 0.32196 0.72381
 C1526 C 0.41028 0.33544 0.70981
 C1527 C 0.38842 0.28834 0.70008
 C1528 C 0.41065 0.27499 0.71392
 H1529 H 0.42352 0.31480 0.64295
 H1530 H 0.46458 0.28985 0.66884
 H1531 H 0.44482 0.33277 0.74055
 H1532 H 0.40500 0.35775 0.71469
 H1533 H 0.36676 0.27929 0.69972
 H1534 H 0.40798 0.25458 0.72527
 C1535 C 0.39390 0.82332 0.18032
 C1536 C 0.38582 0.79408 0.19407
 C1537 C 0.40805 0.78051 0.20766
 C1538 C 0.43665 0.79723 0.20664
 C1539 C 0.44221 0.80286 0.17440
 C1540 C 0.41997 0.81651 0.16068
 C1541 C 0.40727 0.84099 0.20541
 C1542 C 0.42944 0.82725 0.21917
 H1543 H 0.36425 0.78484 0.19326
 H1544 H 0.40545 0.75971 0.21825
 H1545 H 0.46216 0.79711 0.16343
 H1546 H 0.42106 0.82247 0.13801
 H1547 H 0.40167 0.86305 0.21103
 H1548 H 0.44160 0.83754 0.23640
 C1549 C 0.89538 0.32515 0.18453
 C1550 C 0.88628 0.29595 0.19771
 C1551 C 0.90783 0.28171 0.21168
 C1552 C 0.93681 0.29778 0.21159
 C1553 C 0.94333 0.30367 0.17958
 C1554 C 0.92179 0.31800 0.16548
 C1555 C 0.90848 0.34222 0.21018
 C1556 C 0.92998 0.32780 0.22432
 H1557 H 0.86452 0.28725 0.19628
 H1558 H 0.90447 0.26089 0.22200
 H1559 H 0.96344 0.29763 0.16905
 H1560 H 0.92362 0.32423 0.14293
 H1561 H 0.90313 0.36429 0.21599
 H1562 H 0.94187 0.33754 0.24205
 C1563 C 0.90088 0.82525 0.67842
 C1564 C 0.92639 0.81601 0.65901
 C1565 C 0.94804 0.80205 0.67337
 C1566 C 0.94247 0.79864 0.70593
 C1567 C 0.93693 0.82970 0.71666
 C1568 C 0.91540 0.84372 0.70223
 C1569 C 0.89147 0.79733 0.69388
 C1570 C 0.91310 0.78348 0.70812
 H1571 H 0.92764 0.82068 0.63605
 H1572 H 0.96761 0.79472 0.66266
 H1573 H 0.94999 0.84050 0.73291
 H1574 H 0.91130 0.86649 0.70609
 H1575 H 0.86945 0.78916 0.69371
 H1576 H 0.90955 0.76354 0.72000
 C1577 C 0.60018 0.31895 0.32024
 C1578 C 0.58590 0.29490 0.33859
 C1579 C 0.56414 0.28070 0.32481
 C1580 C 0.55810 0.29183 0.29404
 C1581 C 0.55265 0.32443 0.29792
 C1582 C 0.57456 0.33859 0.31165
 C1583 C 0.60911 0.30377 0.29201
 C1584 C 0.58721 0.28973 0.27836
 H1585 H 0.59028 0.29070 0.36118
 H1586 H 0.55121 0.26436 0.33565
 H1587 H 0.53302 0.33533 0.29102
 H1588 H 0.57347 0.36156 0.31656
 H1589 H 0.63101 0.30398 0.28352
 H1590 H 0.59038 0.27803 0.25824
 C1591 C 0.60578 0.81429 0.81833
 C1592 C 0.59242 0.78955 0.83646
 C1593 C 0.57055 0.77528 0.82291
 C1594 C 0.56354 0.78699 0.79257
 C1595 C 0.55762 0.81939 0.79732
 C1596 C 0.57962 0.83363 0.81082
 C1597 C 0.61427 0.79988 0.78956
 C1598 C 0.59228 0.78577 0.77613
 H1599 H 0.59753 0.78474 0.85878
 H1600 H 0.55825 0.75839 0.83365
 H1601 H 0.53763 0.83009 0.79114
 H1602 H 0.57828 0.85648 0.81622
 H1603 H 0.63594 0.80064 0.78055
 H1604 H 0.59514 0.77458 0.75569
 C1605 C 0.10167 0.31453 0.82051
 C1606 C 0.07525 0.33390 0.81425
 C1607 C 0.05338 0.32022 0.80009
 C1608 C 0.05960 0.28823 0.79345
 C1609 C 0.08828 0.28825 0.77684
 C1610 C 0.11018 0.30183 0.79093
 C1611 C 0.08880 0.28851 0.83724
 C1612 C 0.06693 0.27479 0.82299
 H1613 H 0.07367 0.35640 0.82093
 H1614 H 0.03325 0.33103 0.79464
 H1615 H 0.09122 0.27814 0.75586
 H1616 H 0.13183 0.30319 0.78194
 H1617 H 0.09483 0.28187 0.85883
 H1618 H 0.05531 0.25670 0.83245
 C1619 C 0.10514 0.81304 0.32255
 C1620 C 0.07821 0.83194 0.31710
 C1621 C 0.05641 0.81803 0.30302
 C1622 C 0.06325 0.78632 0.29563
 C1623 C 0.09165 0.78737 0.27859
 C1624 C 0.11345 0.80115 0.29261
 C1625 C 0.09308 0.78640 0.33894
 C1626 C 0.07132 0.77246 0.32476
 H1627 H 0.07626 0.85427 0.32422
 H1628 H 0.03596 0.82849 0.29809
 H1629 H 0.09445 0.77794 0.25730
 H1630 H 0.13489 0.80328 0.28326
 H1631 H 0.09947 0.77952 0.36036
 H1632 H 0.06019 0.75398 0.33406
 C1633 C 0.60752 0.68211 0.67764
 C1634 C 0.59315 0.70719 0.66075
 C1635 C 0.57089 0.72008 0.67512
 C1636 C 0.56459 0.70676 0.70496
 C1637 C 0.55980 0.67444 0.69883
 C1638 C 0.58213 0.66158 0.68452
 C1639 C 0.61579 0.69553 0.70694
 C1640 C 0.59345 0.70827 0.72117
 H1641 H 0.59813 0.71338 0.63876
 H1642 H 0.55805 0.73718 0.66538
 H1643 H 0.54028 0.66279 0.70472
 H1644 H 0.58154 0.63896 0.67814
 H1645 H 0.63758 0.69518 0.71569
 H1646 H 0.59616 0.71871 0.74203
 C1647 C 0.60165 0.18493 0.17985
 C1648 C 0.58788 0.21018 0.16274
 C1649 C 0.56575 0.22355 0.17688
 C1650 C 0.55898 0.21052 0.20677
 C1651 C 0.55363 0.17826 0.20078
 C1652 C 0.57582 0.16493 0.18667
 C1653 C 0.60995 0.19836 0.20915
 C1654 C 0.58775 0.21159 0.22317
 H1655 H 0.59322 0.21621 0.14078
 H1656 H 0.55335 0.24087 0.16696
 H1657 H 0.53386 0.16701 0.20661
 H1658 H 0.57484 0.14229 0.18039
 H1659 H 0.63167 0.19768 0.21805
 H1660 H 0.59050 0.22209 0.24398
 C1661 C 0.10431 0.67464 0.18335
 C1662 C 0.08920 0.65672 0.20717
 C1663 C 0.06762 0.67119 0.22106
 C1664 C 0.06259 0.70218 0.20983
 C1665 C 0.09212 0.71703 0.21224
 C1666 C 0.11382 0.70270 0.19851
 C1667 C 0.07919 0.68391 0.16342
 C1668 C 0.05749 0.69836 0.17725
 H1669 H 0.09296 0.63394 0.21137
 H1670 H 0.05419 0.66073 0.23723
 H1671 H 0.09571 0.73711 0.22386
 H1672 H 0.13593 0.71061 0.19851
 H1673 H 0.07820 0.67889 0.14052
 H1674 H 0.03818 0.70576 0.16613
 C1675 C 0.10092 0.17762 0.68275
 C1676 C 0.10989 0.19546 0.70934
 C1677 C 0.08778 0.20985 0.72228
 C1678 C 0.05843 0.20541 0.70757
 C1679 C 0.06330 0.21405 0.67584
 C1680 C 0.08528 0.19945 0.66277
 C1681 C 0.07629 0.15789 0.69359
 C1682 C 0.05414 0.17241 0.70660
 H1683 H 0.13194 0.19666 0.71732
 H1684 H 0.09092 0.22326 0.74130
 H1685 H 0.04937 0.22880 0.66399
 H1686 H 0.08891 0.20161 0.63975
 H1687 H 0.07590 0.13457 0.69056
 H1688 H 0.03504 0.16146 0.71476
 C1689 C 0.39738 0.68553 0.32008
 C1690 C 0.41162 0.71052 0.33721
 C1691 C 0.43277 0.72468 0.32239
 C1692 C 0.43828 0.71255 0.29193
 C1693 C 0.44445 0.68020 0.29685
 C1694 C 0.42316 0.66611 0.31159
 C1695 C 0.38748 0.69950 0.29157
 C1696 C 0.40876 0.71349 0.27692
 H1697 H 0.40770 0.71541 0.35976
 H1698 H 0.44560 0.74168 0.33229
 H1699 H 0.46415 0.66945 0.28990
 H1700 H 0.42485 0.64335 0.31730
 H1701 H 0.36542 0.69851 0.28360
 H1702 H 0.40487 0.72430 0.25648
 C1703 C 0.39881 0.17929 0.82230
 C1704 C 0.38956 0.20716 0.80657
 C1705 C 0.41139 0.22100 0.79261
 C1706 C 0.44075 0.20584 0.79532
 C1707 C 0.44584 0.20258 0.82796
 C1708 C 0.42400 0.18866 0.84205
 C1709 C 0.41373 0.16075 0.79880
 C1710 C 0.43543 0.17472 0.78466
 H1711 H 0.36752 0.21529 0.80637
 H1712 H 0.40802 0.24092 0.78058
 H1713 H 0.46520 0.21002 0.83895
 H1714 H 0.42487 0.18415 0.86506
 H1715 H 0.40979 0.13796 0.79492
 H1716 H 0.44876 0.16382 0.76869
 C1717 C 0.89850 0.68991 0.82063
 C1718 C 0.91148 0.71619 0.83683
 C1719 C 0.93326 0.72965 0.82229
 C1720 C 0.94056 0.71571 0.79299
 C1721 C 0.94680 0.68383 0.80024
 C1722 C 0.92491 0.67039 0.81470
 C1723 C 0.88998 0.70198 0.79082
 C1724 C 0.91186 0.71530 0.77643
 H1725 H 0.90599 0.72287 0.85856
 H1726 H 0.94513 0.74765 0.83161
 H1727 H 0.96692 0.67292 0.79493
 H1728 H 0.92648 0.64802 0.82179
 H1729 H 0.86838 0.70022 0.78179
 H1730 H 0.90896 0.72471 0.75515
 C1731 C 0.89268 0.18757 0.32295
 C1732 C 0.90613 0.21307 0.33997
 C1733 C 0.92827 0.22649 0.32589
 C1734 C 0.93536 0.21322 0.29622
 C1735 C 0.94092 0.18104 0.30256
 C1736 C 0.91871 0.16767 0.31658
 C1737 C 0.88452 0.20065 0.29349
 C1738 C 0.90672 0.21390 0.27958
 H1739 H 0.90068 0.21911 0.36191
 H1740 H 0.94053 0.24393 0.33576
 H1741 H 0.96085 0.16988 0.29706
 H1742 H 0.91983 0.14510 0.32312
 H1743 H 0.86292 0.19963 0.28435
 H1744 H 0.90407 0.22402 0.25859
 C1745 C 0.32135 0.30648 0.60585
 C1746 C 0.33730 0.27934 0.59428
 C1747 C 0.32274 0.26510 0.57297
 C1748 C 0.29371 0.27918 0.56483
 C1749 C 0.27692 0.28112 0.59332
 C1750 C 0.29131 0.29521 0.61468
 C1751 C 0.31592 0.32483 0.57856
 C1752 C 0.30146 0.31061 0.55722
 H1753 H 0.35867 0.27228 0.60068
 H1754 H 0.33168 0.24621 0.56222
 H1755 H 0.25553 0.27205 0.59651
 H1756 H 0.28217 0.29796 0.63612
 H1757 H 0.32333 0.34700 0.57604
 H1758 H 0.29650 0.32066 0.53659
 C1759 C 0.31892 0.81365 0.10035
 C1760 C 0.29038 0.79926 0.10965
 C1761 C 0.27652 0.78478 0.08815
 C1762 C 0.29233 0.78569 0.05906
 C1763 C 0.29681 0.81802 0.05265
 C1764 C 0.31074 0.83261 0.07413
 C1765 C 0.33688 0.78882 0.08692
 C1766 C 0.32290 0.77419 0.06556
 H1767 H 0.28184 0.80029 0.13149
 H1768 H 0.25619 0.77355 0.09161
 H1769 H 0.29014 0.82843 0.03268
 H1770 H 0.31603 0.85545 0.07236
 H1771 H 0.35935 0.78422 0.09159
 H1772 H 0.33347 0.75717 0.05327
 C1773 C 0.82220 0.31697 0.10310
 C1774 C 0.79375 0.30254 0.11254
 C1775 C 0.77999 0.28778 0.09120
 C1776 C 0.79578 0.28841 0.06211
 C1777 C 0.80008 0.32072 0.05535
 C1778 C 0.81392 0.33563 0.07670
 C1779 C 0.84031 0.29212 0.08987
 C1780 C 0.82641 0.27717 0.06870
 H1781 H 0.78511 0.30389 0.13432
 H1782 H 0.75963 0.27671 0.09475
 H1783 H 0.79338 0.33087 0.03526
 H1784 H 0.81910 0.35848 0.07470
 H1785 H 0.86289 0.28791 0.09439
 H1786 H 0.83711 0.26020 0.05647
 C1787 C 0.82562 0.81703 0.59857
 C1788 C 0.84235 0.79125 0.58520
 C1789 C 0.82755 0.77712 0.56397
 C1790 C 0.79753 0.79002 0.55765
 C1791 C 0.78195 0.79001 0.58689
 C1792 C 0.79657 0.80397 0.60817
 C1793 C 0.81813 0.83615 0.57230
 C1794 C 0.80343 0.82208 0.55102
 H1795 H 0.86448 0.78540 0.59010
 H1796 H 0.83704 0.75933 0.55189
 H1797 H 0.76119 0.77974 0.59060
 H1798 H 0.78825 0.80546 0.63007
 H1799 H 0.82443 0.85872 0.57034
 H1800 H 0.79712 0.83265 0.53102
 C1801 C 0.31818 0.68020 0.39601
 C1802 C 0.33840 0.68762 0.42144
 C1803 C 0.32529 0.70228 0.44338
 C1804 C 0.29303 0.70821 0.43817
 C1805 C 0.29170 0.72396 0.40905
 C1806 C 0.30471 0.70938 0.38710
 C1807 C 0.29310 0.66341 0.41042
 C1808 C 0.27995 0.67814 0.43228
 H1809 H 0.36101 0.68134 0.42236
 H1810 H 0.33671 0.70856 0.46290
 H1811 H 0.28118 0.74476 0.40589
 H1812 H 0.30519 0.71776 0.36517
 H1813 H 0.28706 0.64125 0.40580
 H1814 H 0.26281 0.66852 0.44511
 C1815 C 0.32295 0.18754 0.90146
 C1816 C 0.29427 0.20108 0.89138
 C1817 C 0.27970 0.21566 0.91233
 C1818 C 0.29498 0.21572 0.94171
 C1819 C 0.30011 0.18361 0.94885
 C1820 C 0.31476 0.16891 0.92789
 C1821 C 0.34008 0.21304 0.91475
 C1822 C 0.32537 0.22778 0.93555
 H1823 H 0.28610 0.19934 0.86945
 H1824 H 0.25914 0.22622 0.90830
 H1825 H 0.29335 0.17346 0.96891
 H1826 H 0.32056 0.14623 0.93020
 H1827 H 0.36258 0.21792 0.91052
 H1828 H 0.33532 0.24521 0.94775
 C1829 C 0.81830 0.68374 0.89597
 C1830 C 0.83816 0.69174 0.92152
 C1831 C 0.82444 0.70582 0.94349
 C1832 C 0.79201 0.71066 0.93813
 C1833 C 0.79030 0.72649 0.90907
 C1834 C 0.80390 0.71247 0.88713
 C1835 C 0.79378 0.66602 0.91028
 C1836 C 0.78001 0.68019 0.93209
 H1837 H 0.86096 0.68620 0.92253
 H1838 H 0.83554 0.71236 0.96311
 H1839 H 0.77914 0.74696 0.90596
 H1840 H 0.80428 0.72100 0.86526
 H1841 H 0.78888 0.64352 0.90587
 H1842 H 0.76339 0.66982 0.94503
 C1843 C 0.81042 0.18256 0.39582
 C1844 C 0.82968 0.18812 0.42243
 C1845 C 0.81622 0.20264 0.44425
 C1846 C 0.78457 0.21034 0.43775
 C1847 C 0.78541 0.22711 0.40918
 C1848 C 0.79877 0.21265 0.38735
 C1849 C 0.78383 0.16659 0.40838
 C1850 C 0.77036 0.18119 0.43014
 H1851 H 0.85191 0.18074 0.42417
 H1852 H 0.82696 0.20769 0.46449
 H1853 H 0.77595 0.24845 0.40625
 H1854 H 0.80063 0.22171 0.36577
 H1855 H 0.77665 0.14513 0.40235
 H1856 H 0.75198 0.17214 0.44160
 C1857 C 0.68074 0.32652 0.39476
 C1858 C 0.70614 0.34376 0.40808
 C1859 C 0.71955 0.32990 0.43036
 C1860 C 0.70638 0.30022 0.43774
 C1861 C 0.67423 0.30658 0.44318
 C1862 C 0.66086 0.32034 0.42081
 C1863 C 0.69390 0.29691 0.38694
 C1864 C 0.70715 0.28322 0.40930
 H1865 H 0.71215 0.36570 0.40246
 H1866 H 0.73688 0.33997 0.44257
 H1867 H 0.66308 0.30125 0.46314
 H1868 H 0.63831 0.32681 0.42179
 H1869 H 0.69305 0.28759 0.36541
 H1870 H 0.71755 0.26226 0.40686
 C1871 C 0.68654 0.82362 0.89254
 C1872 C 0.71225 0.84087 0.90525
 C1873 C 0.72558 0.82745 0.92786
 C1874 C 0.71206 0.79816 0.93611
 C1875 C 0.68003 0.80507 0.94151
 C1876 C 0.66673 0.81839 0.91884
 C1877 C 0.69931 0.79365 0.88546
 C1878 C 0.71250 0.78040 0.90812
 H1879 H 0.71875 0.86243 0.89880
 H1880 H 0.74325 0.83753 0.93958
 H1881 H 0.66890 0.80039 0.96164
 H1882 H 0.64425 0.82514 0.91974
 H1883 H 0.69826 0.78377 0.86419
 H1884 H 0.72260 0.75924 0.90620
 C1885 C 0.18158 0.32472 0.89582
 C1886 C 0.19643 0.29596 0.88794
 C1887 C 0.21034 0.28296 0.91030
 C1888 C 0.20850 0.29975 0.93880
 C1889 C 0.21993 0.33020 0.93163
 C1890 C 0.20582 0.34336 0.90938
 C1891 C 0.16195 0.31729 0.92173
 C1892 C 0.17600 0.30420 0.94412
 H1893 H 0.19604 0.28659 0.86642
 H1894 H 0.22168 0.26253 0.90787
 H1895 H 0.23640 0.34133 0.94411
 H1896 H 0.21024 0.36578 0.90415
 H1897 H 0.13907 0.32248 0.92265
 H1898 H 0.16510 0.29816 0.96401
 C1899 C 0.18595 0.82251 0.39669
 C1900 C 0.20012 0.79350 0.38841
 C1901 C 0.21411 0.78008 0.41048
 C1902 C 0.21302 0.79675 0.43909
 C1903 C 0.22496 0.82701 0.43188
 C1904 C 0.21080 0.84058 0.40992
 C1905 C 0.16660 0.81533 0.42288
 C1906 C 0.18073 0.80183 0.44497
 H1907 H 0.19931 0.78434 0.36681
 H1908 H 0.22517 0.75950 0.40774
 H1909 H 0.24193 0.83769 0.44409
 H1910 H 0.21575 0.86286 0.40461
 H1911 H 0.14384 0.82096 0.42419
 H1912 H 0.17002 0.79588 0.46499
 C1913 C 0.68783 0.67741 0.60236
 C1914 C 0.66761 0.68450 0.57680
 C1915 C 0.68073 0.69888 0.55468
 C1916 C 0.71299 0.70485 0.55982
 C1917 C 0.71426 0.72094 0.58876
 C1918 C 0.70124 0.70667 0.61088
 C1919 C 0.71291 0.66040 0.58815
 C1920 C 0.72608 0.67484 0.56611
 H1921 H 0.64503 0.67815 0.57591
 H1922 H 0.66933 0.70488 0.53505
 H1923 H 0.72462 0.74182 0.59166
 H1924 H 0.70063 0.71540 0.63267
 H1925 H 0.71875 0.63821 0.59299
 H1926 H 0.74316 0.66500 0.55334
 C1927 C 0.68265 0.17752 0.10503
 C1928 C 0.66320 0.18645 0.07945
 C1929 C 0.67763 0.19982 0.05745
 C1930 C 0.71028 0.20305 0.06282
 C1931 C 0.71265 0.21879 0.09187
 C1932 C 0.69836 0.20550 0.11383
 C1933 C 0.70625 0.15858 0.09072
 C1934 C 0.72074 0.17202 0.06891
 H1935 H 0.64018 0.18199 0.07839
 H1936 H 0.66688 0.20683 0.03779
 H1937 H 0.72460 0.23875 0.09496
 H1938 H 0.69823 0.21416 0.13565
 H1939 H 0.70977 0.13578 0.09501
 H1940 H 0.73672 0.16075 0.05589
 C1941 C 0.17888 0.67786 0.10238
 C1942 C 0.18780 0.65714 0.07776
 C1943 C 0.20186 0.67034 0.05545
 C1944 C 0.20565 0.70313 0.05953
 C1945 C 0.17477 0.71450 0.06467
 C1946 C 0.16070 0.70125 0.08685
 C1947 C 0.20700 0.69340 0.11101
 C1948 C 0.22094 0.70648 0.08871
 H1949 H 0.18287 0.63415 0.07758
 H1950 H 0.20901 0.65862 0.03640
 H1951 H 0.16406 0.73024 0.05090
 H1952 H 0.13802 0.70557 0.09078
 H1953 H 0.21521 0.69412 0.13298
 H1954 H 0.24104 0.71827 0.09163
 C1955 C 0.18181 0.16989 0.60893
 C1956 C 0.16182 0.17722 0.58324
 C1957 C 0.17539 0.19086 0.56090
 C1958 C 0.20781 0.19584 0.56598
 C1959 C 0.20960 0.21232 0.59467
 C1960 C 0.19614 0.19883 0.61700
 C1961 C 0.20629 0.15185 0.59500
 C1962 C 0.21992 0.16550 0.57274
 H1963 H 0.13906 0.17154 0.58240
 H1964 H 0.16420 0.19691 0.54117
 H1965 H 0.22064 0.23289 0.59726
 H1966 H 0.19580 0.20791 0.63865
 H1967 H 0.21128 0.12952 0.60018
 H1968 H 0.23660 0.15487 0.56009
   
