data_POSCAR
  _audit_creation_date              2014-09-24
  _audit_creation_method            'ToBaCCo'
  _symmetry_space_group_name_H-M    'P1'
  _symmetry_Int_Tables_number       1
  _symmetry_cell_setting            triclinic
  loop_
  _symmetry_equiv_pos_as_xyz
 x,y,z
_cell_length_a 43.8493
_cell_length_b 43.9244
_cell_length_c 43.8771
_cell_angle_alpha 90.009500
_cell_angle_beta 90.072600
_cell_angle_gamma 89.938800
loop_
  _atom_site_label
  _atom_site_type_symbol
  _atom_site_fract_x
  _atom_site_fract_y
  _atom_site_fract_z
C1 C 0.24735 0.93402 -0.03008
 C2 C 0.24771 0.91838 -0.00227
 C3 C 0.24837 0.93401 0.02548
 C4 C 0.24877 0.96613 0.02575
 C5 C 0.24829 0.98233 -0.00224
 C6 C 0.24750 0.96626 -0.03031
 C7 C 0.24695 0.98287 -0.05775
 C8 C 0.24720 1.01458 -0.05762
 C9 C 0.24813 1.03095 -0.03006
 C10 C 0.24872 1.01466 -0.00211
 C11 C 0.24970 0.98244 0.05330
 C12 C 0.25027 1.01407 0.05343
 C13 C 0.24982 1.03064 0.02601
 C14 C 0.25048 1.06280 0.02590
 C15 C 0.24976 1.07858 -0.00172
 C16 C 0.24854 1.06317 -0.02956
 H17 H 0.24629 0.97143 -0.07960
 H18 H 0.24673 1.02623 -0.07937
 H19 H 0.25007 0.97087 0.07508
 H20 H 0.25105 1.02546 0.07530
 H21 H 0.24758 0.89365 -0.00215
 H22 H 0.25021 1.10334 -0.00154
 C23 C 0.75391 0.56031 0.52534
 C24 C 0.75335 0.57611 0.49775
 C25 C 0.75180 0.56068 0.46997
 C26 C 0.75091 0.52855 0.46947
 C27 C 0.75133 0.51228 0.49740
 C28 C 0.75276 0.52824 0.52548
 C29 C 0.75300 0.51175 0.55292
 C30 C 0.75181 0.48013 0.55281
 C31 C 0.75047 0.46383 0.52525
 C32 C 0.75030 0.48002 0.49728
 C33 C 0.74963 0.51227 0.44190
 C34 C 0.74881 0.48057 0.44178
 C35 C 0.74910 0.46401 0.46922
 C36 C 0.74823 0.43186 0.46943
 C37 C 0.74825 0.41615 0.49717
 C38 C 0.74928 0.43174 0.52494
 H39 H 0.75404 0.52318 0.57476
 H40 H 0.75201 0.46856 0.57460
 H41 H 0.74931 0.52395 0.42018
 H42 H 0.74787 0.46912 0.41994
 H43 H 0.75412 0.60082 0.49791
 H44 H 0.74745 0.39146 0.49715
 C45 C 0.75181 0.97031 1.06141
 C46 C 0.75080 0.99805 1.07692
 C47 C 0.75053 1.02569 1.06117
 C48 C 0.75127 1.02585 1.02899
 C49 C 0.75236 0.99778 1.01298
 C50 C 0.75268 0.96986 1.02924
 C51 C 0.75379 0.94233 1.01292
 C52 C 0.75451 0.94222 0.98118
 C53 C 0.75408 0.96963 0.96461
 C54 C 0.75302 0.99766 0.98066
 C55 C 0.75088 1.05325 1.01242
 C56 C 0.75144 1.05312 0.98076
 C57 C 0.75246 1.02558 0.96444
 C58 C 0.75283 1.02526 0.93229
 C59 C 0.75395 0.99754 0.91668
 C60 C 0.75461 0.96983 0.93241
 H61 H 0.75409 0.92062 1.02460
 H62 H 0.75533 0.92041 0.96971
 H63 H 0.75009 1.07510 1.02383
 H64 H 0.75105 1.07487 0.96917
 H65 H 0.75011 0.99807 1.10167
 H66 H 0.75419 0.99752 0.89194
 C67 C 0.24962 0.52616 0.43286
 C68 C 0.25038 0.49837 0.41730
 C69 C 0.25093 0.47066 0.43307
 C70 C 0.25064 0.47054 0.46529
 C71 C 0.24997 0.49862 0.48129
 C72 C 0.24953 0.52653 0.46503
 C73 C 0.24895 0.55410 0.48133
 C74 C 0.24879 0.55428 0.51302
 C75 C 0.24910 0.52692 0.52959
 C76 C 0.24967 0.49881 0.51364
 C77 C 0.25095 0.44316 0.48194
 C78 C 0.25054 0.44335 0.51371
 C79 C 0.24990 0.47092 0.52998
 C80 C 0.24944 0.47148 0.56218
 C81 C 0.24897 0.49932 0.57758
 C82 C 0.24884 0.52688 0.56174
 H83 H 0.24865 0.57584 0.46971
 H84 H 0.24835 0.57613 0.52444
 H85 H 0.25145 0.42132 0.47050
 H86 H 0.25076 0.42167 0.52544
 H87 H 0.25046 0.49830 0.39257
 H88 H 0.24868 0.49954 0.60233
 C89 C 0.93191 0.24700 -0.02603
 C90 C 0.91635 0.24574 0.00176
 C91 C 0.93214 0.24522 0.02949
 C92 C 0.96436 0.24609 0.02971
 C93 C 0.98040 0.24723 0.00166
 C94 C 0.96413 0.24759 -0.02633
 C95 C 0.98051 0.24860 -0.05387
 C96 C 1.01218 0.24928 -0.05395
 C97 C 1.02876 0.24909 -0.02650
 C98 C 1.01277 0.24810 0.00159
 C99 C 0.98094 0.24591 0.05717
 C100 C 1.01270 0.24692 0.05711
 C101 C 1.02908 0.24803 0.02958
 C102 C 1.06134 0.24908 0.02913
 C103 C 1.07677 0.24993 0.00130
 C104 C 1.06095 0.24989 -0.02634
 H105 H 0.96895 0.24884 -0.07569
 H106 H 1.02359 0.25003 -0.07581
 H107 H 0.96947 0.24507 0.07899
 H108 H 1.02435 0.24679 0.07889
 H109 H 0.89159 0.24526 0.00188
 H110 H 1.10156 0.25064 0.00114
 C111 C 0.43274 0.74788 0.47573
 C112 C 0.41753 0.74710 0.50370
 C113 C 0.43366 0.74663 0.53124
 C114 C 0.46590 0.74707 0.53100
 C115 C 0.48153 0.74774 0.50270
 C116 C 0.46489 0.74806 0.47496
 C117 C 0.48082 0.74862 0.44716
 C118 C 0.51252 0.74886 0.44658
 C119 C 0.52946 0.74866 0.47377
 C120 C 0.51387 0.74814 0.50210
 C121 C 0.48291 0.74689 0.55820
 C122 C 0.51469 0.74741 0.55761
 C123 C 0.53059 0.74804 0.52981
 C124 C 0.56279 0.74858 0.52884
 C125 C 0.57783 0.74898 0.50081
 C126 C 0.56161 0.74897 0.47342
 H127 H 0.46891 0.74883 0.42553
 H128 H 0.52365 0.74926 0.42457
 H129 H 0.47177 0.74639 0.58019
 H130 H 0.52673 0.74729 0.57917
 H131 H 0.39278 0.74692 0.50405
 H132 H 0.60259 0.74930 0.50029
 C133 C -0.03025 0.75195 0.06704
 C134 C -0.00248 0.75202 0.08286
 C135 C 0.02534 0.75158 0.06735
 C136 C 0.02576 0.75089 0.03521
 C137 C -0.00217 0.75100 0.01884
 C138 C -0.03034 0.75162 0.03476
 C139 C -0.05771 0.75191 0.01797
 C140 C -0.05743 0.75165 -0.01377
 C141 C -0.02976 0.75094 -0.02998
 C142 C -0.00187 0.75053 -0.01351
 C143 C 0.05341 0.75011 0.01905
 C144 C 0.05371 0.74943 -0.01260
 C145 C 0.02634 0.74965 -0.02934
 C146 C 0.02639 0.74901 -0.06153
 C147 C -0.00116 0.74959 -0.07750
 C148 C -0.02909 0.75062 -0.06222
 H149 H -0.07964 0.75241 0.02929
 H150 H -0.07914 0.75194 -0.02556
 H151 H 0.07516 0.74994 0.03076
 H152 H 0.07565 0.74879 -0.02387
 H153 H -0.00246 0.75246 0.10761
 H154 H -0.00087 0.74919 -0.10227
 C155 C 0.52492 0.24907 0.43865
 C156 C 0.49732 0.24994 0.42280
 C157 C 0.46950 0.25137 0.43821
 C158 C 0.46902 0.25182 0.47041
 C159 C 0.49698 0.25111 0.48673
 C160 C 0.52507 0.24982 0.47078
 C161 C 0.55252 0.24928 0.48733
 C162 C 0.55243 0.24999 0.51900
 C163 C 0.52487 0.25113 0.53531
 C164 C 0.49687 0.25162 0.51906
 C165 C 0.44145 0.25290 0.48669
 C166 C 0.44134 0.25321 0.51845
 C167 C 0.46880 0.25259 0.53507
 C168 C 0.46900 0.25288 0.56727
 C169 C 0.49678 0.25256 0.58303
 C170 C 0.52458 0.25177 0.56746
 H171 H 0.57437 0.24836 0.47590
 H172 H 0.57423 0.24956 0.53061
 H173 H 0.41971 0.25345 0.47497
 H174 H 0.41949 0.25400 0.52989
 H175 H 0.49749 0.24943 0.39806
 H176 H 0.49675 0.25291 0.60777
 C177 C 0.93926 -0.02644 0.25093
 C178 C 0.92302 0.00088 0.25024
 C179 C 0.93806 0.02883 0.24875
 C180 C 0.97024 0.02980 0.24812
 C181 C 0.98696 0.00213 0.24859
 C182 C 0.97138 -0.02613 0.24988
 C183 C 0.98829 -0.05331 0.25012
 C184 C 1.01995 -0.05278 0.24906
 C185 C 1.03589 -0.02503 0.24792
 C186 C 1.01929 0.00270 0.24779
 C187 C 0.98612 0.05756 0.24706
 C188 C 1.01789 0.05814 0.24656
 C189 C 1.03495 0.03096 0.24689
 C190 C 1.06722 0.03114 0.24635
 C191 C 1.08330 0.00358 0.24625
 C192 C 1.06802 -0.02433 0.24692
 H193 H 0.97716 -0.07528 0.25104
 H194 H 1.03184 -0.07439 0.24924
 H195 H 0.97409 0.07909 0.24672
 H196 H 1.02900 0.08013 0.24582
 H197 H 0.89827 0.00037 0.25092
 H198 H 1.10806 0.00377 0.24567
 C199 C 0.43837 0.47477 0.75297
 C200 C 0.42266 0.50242 0.75234
 C201 C 0.43822 0.53011 0.75083
 C202 C 0.47045 0.53042 0.75010
 C203 C 0.48663 0.50242 0.75053
 C204 C 0.47051 0.47446 0.75187
 C205 C 0.48692 0.44696 0.75207
 C206 C 0.51860 0.44687 0.75096
 C207 C 0.53507 0.47429 0.74976
 C208 C 0.51898 0.50234 0.74965
 C209 C 0.48690 0.55785 0.74898
 C210 C 0.51869 0.55779 0.74836
 C211 C 0.53516 0.53028 0.74865
 C212 C 0.56739 0.52988 0.74798
 C213 C 0.58297 0.50206 0.74789
 C214 C 0.56723 0.47439 0.74867
 H215 H 0.47537 0.42520 0.75303
 H216 H 0.53008 0.42504 0.75112
 H217 H 0.47529 0.57962 0.74866
 H218 H 0.53027 0.57953 0.74756
 H219 H 0.39791 0.50238 0.75306
 H220 H 0.60772 0.50192 0.74721
 C221 C 1.03062 0.93953 0.75053
 C222 C 1.00282 0.92401 0.74982
 C223 C 0.97513 0.93968 0.75000
 C224 C 0.97484 0.97178 0.75079
 C225 C 1.00286 0.98791 0.75165
 C226 C 1.03094 0.97175 0.75158
 C227 C 1.05841 0.98824 0.75257
 C228 C 1.05831 1.01995 0.75359
 C229 C 1.03075 1.03643 0.75356
 C230 C 1.00275 1.02024 0.75254
 C231 C 0.94728 0.98810 0.75074
 C232 C 0.94716 1.01973 0.75143
 C233 C 0.97462 1.03629 0.75233
 C234 C 0.97469 1.06847 0.75296
 C235 C 1.00242 1.08420 0.75411
 C236 C 1.03033 1.06866 0.75448
 H237 H 1.08024 0.97671 0.75259
 H238 H 1.08011 1.03148 0.75434
 H239 H 0.92550 0.97654 0.75009
 H240 H 0.92526 1.03113 0.75131
 H241 H 1.00266 0.89929 0.74913
 H242 H 1.00226 1.10894 0.75463
 C243 C 0.52846 0.43799 0.24937
 C244 C 0.50047 0.42286 0.24887
 C245 C 0.47302 0.43895 0.24929
 C246 C 0.47324 0.47103 0.25011
 C247 C 0.50152 0.48669 0.25075
 C248 C 0.52931 0.47012 0.25045
 C249 C 0.55707 0.48610 0.25122
 C250 C 0.55752 0.51781 0.25229
 C251 C 0.53023 0.53468 0.25250
 C252 C 0.50198 0.51896 0.25169
 C253 C 0.44595 0.48781 0.25031
 C254 C 0.44640 0.51943 0.25105
 C255 C 0.47415 0.53544 0.25174
 C256 C 0.47478 0.56753 0.25241
 C257 C 0.50271 0.58284 0.25333
 C258 C 0.53033 0.56684 0.25345
 H259 H 0.57869 0.47418 0.25105
 H260 H 0.57949 0.52903 0.25287
 H261 H 0.42397 0.47661 0.24983
 H262 H 0.42470 0.53123 0.25113
 H263 H 0.50005 0.39815 0.24818
 H264 H 0.50295 0.60754 0.25386
 O265 O 0.25522 0.17167 0.20112
 O266 O 0.28935 0.16359 0.24405
 O267 O 0.17538 0.20721 0.24469
 O268 O 0.16415 0.24686 0.27518
 O269 O 0.21289 0.25029 0.16425
 O270 O 0.25238 0.28550 0.15701
 O271 O 0.25428 0.29373 0.32254
 O272 O 0.21891 0.25201 0.33026
 O273 O 0.33316 0.25163 0.28563
 O274 O 0.34406 0.21898 0.24591
 O275 O 0.29605 0.32956 0.24536
 O276 O 0.25233 0.33806 0.20935
 O277 O 0.25434 0.32955 0.28525
 O278 O 0.22010 0.33864 0.24202
 O279 O 0.33223 0.29260 0.24642
 O280 O 0.33698 0.24889 0.20597
 O281 O 0.29673 0.25345 0.32242
 O282 O 0.25976 0.21906 0.33313
 O283 O 0.25545 0.20875 0.16500
 O284 O 0.29134 0.25104 0.15906
 O285 O 0.17585 0.24991 0.20056
 O286 O 0.16746 0.28482 0.24350
 O287 O 0.21276 0.17139 0.24386
 O288 O 0.25625 0.16193 0.27685
 Zr289 Zr 0.25363 0.19595 0.24278
 O290 O 0.28135 0.22247 0.27146
 Zr291 Zr 0.19958 0.24880 0.24257
 O292 O 0.22540 0.27788 0.27108
 Zr293 Zr 0.25363 0.24970 0.18937
 O294 O 0.28177 0.27836 0.21553
 Zr295 Zr 0.25506 0.25206 0.29836
 O296 O 0.22655 0.22240 0.27258
 Zr297 Zr 0.30833 0.25146 0.24481
 O298 O 0.28296 0.22249 0.21600
 Zr299 Zr 0.25461 0.30500 0.24440
 O300 O 0.22610 0.27854 0.21588
 O301 O 0.22539 0.22106 0.21439
 O302 O 0.28327 0.28035 0.27302
 C303 C 0.25608 0.18072 0.17320
 C304 C 0.18463 0.17935 0.24498
 C305 C 0.18478 0.25059 0.17258
 C306 C 0.25425 0.32160 0.31338
 C307 C 0.32474 0.25284 0.31364
 C308 C 0.32398 0.32059 0.24646
 H309 H 0.29378 0.20887 0.28447
 H310 H 0.29472 0.29076 0.20190
 H311 H 0.21249 0.20790 0.20138
 H312 H 0.21151 0.29028 0.28377
 H313 H 0.20569 0.23448 0.32511
 H314 H 0.17141 0.25778 0.29351
 H315 H 0.35585 0.26059 0.21015
 H316 H 0.28425 0.24552 0.13829
 H317 H 0.24930 0.20059 0.32572
 H318 H 0.23914 0.16541 0.29113
 H319 H 0.26978 0.33466 0.19550
 H320 H 0.23801 0.30102 0.16485
 H321 H 0.30450 0.16999 0.22862
 H322 H 0.33654 0.20107 0.25727
 H323 H 0.17382 0.29963 0.22775
 H324 H 0.20461 0.33369 0.25762
 O325 O 0.75124 0.83346 0.21306
 O326 O 0.71715 0.84231 0.25682
 O327 O 0.83028 0.79675 0.25684
 O328 O 0.84066 0.75712 0.28757
 O329 O 0.79369 0.75463 0.17572
 O330 O 0.75326 0.72041 0.16775
 O331 O 0.75023 0.71253 0.33366
 O332 O 0.78577 0.75329 0.34177
 O333 O 0.67150 0.75336 0.29667
 O334 O 0.66427 0.78979 0.25985
 O335 O 0.70787 0.67627 0.25589
 O336 O 0.75151 0.66642 0.22140
 O337 O 0.74934 0.67580 0.29726
 O338 O 0.78439 0.66654 0.25343
 O339 O 0.67196 0.71356 0.25674
 O340 O 0.66702 0.75384 0.21745
 O341 O 0.70860 0.75185 0.33293
 O342 O 0.74501 0.78682 0.34382
 O343 O 0.75160 0.79735 0.17600
 O344 O 0.71449 0.75526 0.17008
 O345 O 0.82956 0.75403 0.21325
 O346 O 0.83719 0.71924 0.25580
 O347 O 0.79334 0.83304 0.25609
 O348 O 0.74959 0.84334 0.28822
 Zr349 Zr 0.75210 0.80914 0.25431
 O350 O 0.72383 0.78297 0.28246
 Zr351 Zr 0.80549 0.75562 0.25456
 O352 O 0.77927 0.72690 0.28271
 Zr353 Zr 0.75226 0.75595 0.20038
 O354 O 0.72367 0.72751 0.22657
 Zr355 Zr 0.74999 0.75353 0.30935
 O356 O 0.77895 0.78267 0.28416
 Zr357 Zr 0.69667 0.75425 0.25573
 O358 O 0.72261 0.78310 0.22693
 Zr359 Zr 0.74983 0.70015 0.25583
 O360 O 0.77879 0.72640 0.22743
 O361 O 0.78047 0.78393 0.22613
 O362 O 0.72149 0.72534 0.28413
 C363 C 0.75095 0.82523 0.18496
 C364 C 0.82135 0.82467 0.25734
 C365 C 0.82158 0.75362 0.18504
 C366 C 0.74963 0.68455 0.32523
 C367 C 0.68050 0.75206 0.32461
 C368 C 0.67996 0.68547 0.25652
 H369 H 0.71123 0.79665 0.29522
 H370 H 0.71076 0.71522 0.21278
 H371 H 0.79373 0.79692 0.21335
 H372 H 0.79292 0.71439 0.29557
 H373 H 0.79929 0.77063 0.33675
 H374 H 0.83323 0.74612 0.30576
 H375 H 0.64600 0.75031 0.22498
 H376 H 0.72161 0.76114 0.14944
 H377 H 0.75684 0.80472 0.33715
 H378 H 0.76655 0.83983 0.30270
 H379 H 0.73545 0.67120 0.20628
 H380 H 0.76674 0.70432 0.17604
 H381 H 0.70344 0.83901 0.23920
 H382 H 0.66721 0.80340 0.24215
 H383 H 0.83051 0.70427 0.24030
 H384 H 0.79890 0.67035 0.27028
 O385 O 0.74829 0.17059 0.79082
 O386 O 0.72201 0.15793 0.74971
 O387 O 0.83013 0.20933 0.74960
 O388 O 0.84042 0.25072 0.71935
 O389 O 0.79077 0.25012 0.83000
 O390 O 0.75140 0.28212 0.83894
 O391 O 0.74794 0.28938 0.67038
 O392 O 0.77901 0.24865 0.65880
 O393 O 0.66989 0.25175 0.71071
 O394 O 0.66192 0.21726 0.74855
 O395 O 0.70980 0.32897 0.74745
 O396 O 0.75132 0.34039 0.77954
 O397 O 0.74958 0.32724 0.70553
 O398 O 0.78708 0.33499 0.75063
 O399 O 0.67207 0.29363 0.74865
 O400 O 0.66718 0.25309 0.78923
 O401 O 0.70525 0.25008 0.67292
 O402 O 0.75092 0.21208 0.66534
 O403 O 0.74984 0.20614 0.82842
 O404 O 0.71197 0.24938 0.83354
 O405 O 0.82835 0.25081 0.79428
 O406 O 0.83573 0.28639 0.75003
 O407 O 0.79465 0.17170 0.74995
 O408 O 0.75009 0.16543 0.71273
 Zr409 Zr 0.75223 0.19531 0.75052
 O410 O 0.72193 0.22122 0.72369
 Zr411 Zr 0.80485 0.24946 0.75177
 O412 O 0.77861 0.27621 0.72163
 Zr413 Zr 0.75069 0.24827 0.80460
 O414 O 0.72365 0.27806 0.77836
 Zr415 Zr 0.74816 0.24939 0.69578
 O416 O 0.77889 0.22229 0.72154
 Zr417 Zr 0.69584 0.25149 0.75033
 O418 O 0.72186 0.22129 0.77761
 Zr419 Zr 0.75023 0.30400 0.74797
 O420 O 0.77765 0.27830 0.77828
 O421 O 0.77977 0.22056 0.77946
 O422 O 0.72072 0.27887 0.72067
 C423 C 0.74812 0.17839 0.81895
 C424 C 0.82248 0.18120 0.74900
 C425 C 0.81889 0.25135 0.82216
 C426 C 0.74839 0.31754 0.67782
 C427 C 0.67744 0.25126 0.68253
 C428 C 0.68162 0.32137 0.74753
 H429 H 0.70861 0.20742 0.71183
 H430 H 0.71133 0.29109 0.79202
 H431 H 0.79273 0.20752 0.79256
 H432 H 0.79236 0.28818 0.70841
 H433 H 0.79826 0.25771 0.66623
 H434 H 0.83279 0.23967 0.70122
 H435 H 0.64640 0.25874 0.78232
 H436 H 0.71785 0.24133 0.85384
 H437 H 0.73101 0.20150 0.66553
 H438 H 0.76884 0.16871 0.70061
 H439 H 0.73909 0.33415 0.79739
 H440 H 0.76213 0.29988 0.83016
 H441 H 0.70124 0.16669 0.74992
 H442 H 0.66691 0.20250 0.76486
 H443 H 0.83092 0.29982 0.76750
 H444 H 0.79867 0.33368 0.73134
 O445 O 0.24486 0.82448 0.79441
 O446 O 0.27848 0.83331 0.74980
 O447 O 0.16562 0.78807 0.74958
 O448 O 0.15458 0.74914 0.71903
 O449 O 0.20193 0.74519 0.83002
 O450 O 0.24483 0.71100 0.83801
 O451 O 0.24533 0.70317 0.67230
 O452 O 0.20893 0.74442 0.66469
 O453 O 0.32371 0.74433 0.70857
 O454 O 0.33117 0.78038 0.74628
 O455 O 0.28618 0.66713 0.75008
 O456 O 0.24275 0.65820 0.78510
 O457 O 0.24553 0.66721 0.70946
 O458 O 0.21061 0.65783 0.75236
 O459 O 0.32322 0.70318 0.74835
 O460 O 0.32993 0.74297 0.78707
 O461 O 0.28638 0.74409 0.67255
 O462 O 0.24637 0.77794 0.66158
 O463 O 0.24554 0.78723 0.83032
 O464 O 0.27795 0.74505 0.83924
 O465 O 0.16576 0.74540 0.79287
 O466 O 0.15821 0.71066 0.75055
 O467 O 0.20199 0.82485 0.75122
 O468 O 0.24404 0.83407 0.71813
 Zr469 Zr 0.24341 0.80038 0.75253
 O470 O 0.27152 0.77394 0.72388
 Zr471 Zr 0.18996 0.74696 0.75181
 O472 O 0.21579 0.71830 0.72334
 Zr473 Zr 0.24346 0.74657 0.80556
 O474 O 0.27198 0.71833 0.77929
 Zr475 Zr 0.24514 0.74473 0.69660
 O476 O 0.21665 0.77393 0.72249
 Zr477 Zr 0.29899 0.74465 0.74987
 O478 O 0.27326 0.77357 0.77910
 Zr479 Zr 0.24500 0.69157 0.75037
 O480 O 0.21626 0.71746 0.77902
 O481 O 0.21507 0.77502 0.78052
 O482 O 0.27354 0.71619 0.72165
 C483 C 0.24593 0.81533 0.82231
 C484 C 0.17403 0.81610 0.74975
 C485 C 0.17398 0.74454 0.82094
 C486 C 0.24568 0.67529 0.68138
 C487 C 0.31454 0.74402 0.68065
 C488 C 0.31427 0.67532 0.74897
 H489 H 0.28438 0.78767 0.71151
 H490 H 0.28487 0.70591 0.79302
 H491 H 0.20205 0.78803 0.79356
 H492 H 0.20208 0.70584 0.71052
 H493 H 0.19475 0.76096 0.67064
 H494 H 0.16109 0.73695 0.70123
 H495 H 0.35070 0.73979 0.77873
 H496 H 0.29507 0.75744 0.83140
 H497 H 0.25768 0.79573 0.66944
 H498 H 0.22998 0.82702 0.70193
 H499 H 0.25950 0.66220 0.79967
 H500 H 0.22967 0.69567 0.83137
 H501 H 0.29236 0.82975 0.76723
 H502 H 0.32833 0.79354 0.76436
 H503 H 0.16470 0.69572 0.76617
 H504 H 0.19577 0.66207 0.73591
 O505 O 0.24949 0.33513 0.71470
 O506 O 0.21578 0.34412 0.75844
 O507 O 0.32851 0.29832 0.75812
 O508 O 0.33917 0.25871 0.78875
 O509 O 0.29167 0.25612 0.67715
 O510 O 0.25127 0.22202 0.66926
 O511 O 0.24804 0.21436 0.83546
 O512 O 0.28383 0.25396 0.84380
 O513 O 0.16988 0.25507 0.79850
 O514 O 0.16231 0.29115 0.76131
 O515 O 0.20613 0.17778 0.75770
 O516 O 0.24974 0.16784 0.72337
 O517 O 0.24753 0.17753 0.79914
 O518 O 0.28267 0.16816 0.75532
 O519 O 0.17020 0.21504 0.75869
 O520 O 0.16522 0.25515 0.71918
 O521 O 0.20710 0.25445 0.83465
 O522 O 0.24865 0.28962 0.84506
 O523 O 0.24957 0.29896 0.67768
 O524 O 0.21245 0.25672 0.67183
 O525 O 0.32770 0.25556 0.71451
 O526 O 0.33537 0.22052 0.75659
 O527 O 0.29153 0.33463 0.75814
 O528 O 0.24936 0.34390 0.79068
 Zr529 Zr 0.25041 0.31063 0.75587
 O530 O 0.22200 0.28460 0.78400
 Zr531 Zr 0.30383 0.25707 0.75589
 O532 O 0.27765 0.22856 0.78432
 Zr533 Zr 0.25035 0.25747 0.70198
 O534 O 0.22187 0.22900 0.72830
 Zr535 Zr 0.24848 0.25533 0.81099
 O536 O 0.27738 0.28407 0.78544
 Zr537 Zr 0.19490 0.25574 0.75744
 O538 O 0.22078 0.28461 0.72862
 Zr539 Zr 0.24807 0.20173 0.75763
 O540 O 0.27689 0.22789 0.72897
 O541 O 0.27870 0.28543 0.72760
 O542 O 0.21983 0.22703 0.78596
 C543 C 0.24903 0.32686 0.68660
 C544 C 0.31956 0.32626 0.75901
 C545 C 0.31960 0.25512 0.68635
 C546 C 0.24755 0.18634 0.82710
 C547 C 0.17899 0.25441 0.82643
 C548 C 0.17821 0.18695 0.75843
 H549 H 0.20908 0.29838 0.79628
 H550 H 0.20895 0.21664 0.71456
 H551 H 0.29191 0.29847 0.71481
 H552 H 0.29126 0.21605 0.79722
 H553 H 0.29926 0.26913 0.83743
 H554 H 0.33275 0.24610 0.80627
 H555 H 0.14423 0.25145 0.72670
 H556 H 0.21946 0.26277 0.65121
 H557 H 0.23279 0.30479 0.83993
 H558 H 0.26262 0.33626 0.80728
 H559 H 0.23384 0.17269 0.70811
 H560 H 0.26458 0.20581 0.67760
 H561 H 0.20169 0.34053 0.74120
 H562 H 0.16547 0.30487 0.74373
 H563 H 0.32842 0.20559 0.74117
 H564 H 0.29712 0.17195 0.77222
 O565 O 0.75849 0.67028 0.70174
 O566 O 0.79237 0.66218 0.74474
 O567 O 0.67857 0.70613 0.74508
 O568 O 0.66744 0.74587 0.77547
 O569 O 0.71623 0.74880 0.66453
 O570 O 0.75571 0.78393 0.65716
 O571 O 0.75772 0.79272 0.82262
 O572 O 0.72222 0.75119 0.83052
 O573 O 0.83643 0.75049 0.78592
 O574 O 0.84756 0.71793 0.74655
 O575 O 0.79942 0.82830 0.74523
 O576 O 0.75566 0.83669 0.70929
 O577 O 0.75791 0.82841 0.78520
 O578 O 0.72352 0.83744 0.74204
 O579 O 0.83562 0.79136 0.74622
 O580 O 0.84014 0.74693 0.70617
 O581 O 0.79997 0.75236 0.82268
 O582 O 0.76298 0.71806 0.83345
 O583 O 0.75883 0.70723 0.66549
 O584 O 0.79463 0.74946 0.65933
 O585 O 0.67919 0.74873 0.70086
 O586 O 0.67082 0.78372 0.74370
 O587 O 0.71583 0.67018 0.74428
 O588 O 0.75930 0.66092 0.77760
 Zr589 Zr 0.75680 0.69469 0.74328
 O590 O 0.78462 0.72129 0.77179
 Zr591 Zr 0.70287 0.74765 0.74286
 O592 O 0.72874 0.77678 0.77124
 Zr593 Zr 0.75695 0.74826 0.68967
 O594 O 0.78513 0.77700 0.71568
 Zr595 Zr 0.75835 0.75099 0.79859
 O596 O 0.72976 0.72129 0.77297
 Zr597 Zr 0.81166 0.75019 0.74507
 O598 O 0.78620 0.72110 0.71643
 Zr599 Zr 0.75799 0.80375 0.74444
 O600 O 0.72944 0.77723 0.71605
 O601 O 0.72863 0.71976 0.71478
 O602 O 0.78662 0.77918 0.77317
 C603 C 0.75947 0.67923 0.67380
 C604 C 0.68772 0.67823 0.74537
 C605 C 0.68812 0.74927 0.67288
 C606 C 0.75784 0.82054 0.81334
 C607 C 0.82798 0.75172 0.81392
 C608 C 0.82737 0.81937 0.74614
 H609 H 0.79705 0.70772 0.78483
 H610 H 0.79808 0.78932 0.70197
 H611 H 0.71574 0.70658 0.70178
 H612 H 0.71489 0.78925 0.78390
 H613 H 0.70895 0.73367 0.82546
 H614 H 0.67471 0.75683 0.79376
 H615 H 0.85879 0.75913 0.70986
 H616 H 0.78753 0.74390 0.63857
 H617 H 0.75239 0.69964 0.82614
 H618 H 0.74200 0.66435 0.79167
 H619 H 0.77307 0.83320 0.69540
 H620 H 0.74135 0.79949 0.66493
 H621 H 0.80764 0.66855 0.72941
 H622 H 0.83983 0.69980 0.75739
 H623 H 0.67724 0.79852 0.72794
 H624 H 0.70811 0.83263 0.75775
 O625 O 0.24758 0.67136 0.29044
 O626 O 0.22123 0.65921 0.24918
 O627 O 0.32978 0.70982 0.25013
 O628 O 0.34086 0.75130 0.22045
 O629 O 0.28986 0.75040 0.33040
 O630 O 0.25062 0.78267 0.33906
 O631 O 0.25007 0.79072 0.17036
 O632 O 0.28027 0.74930 0.15911
 O633 O 0.17049 0.75376 0.20970
 O634 O 0.16185 0.71889 0.24714
 O635 O 0.21049 0.83024 0.24703
 O636 O 0.25143 0.84140 0.27967
 O637 O 0.25092 0.82843 0.20570
 O638 O 0.28781 0.83565 0.25151
 O639 O 0.17251 0.79516 0.24780
 O640 O 0.16680 0.75460 0.28811
 O641 O 0.20630 0.75201 0.17229
 O642 O 0.25149 0.71344 0.16504
 O643 O 0.24868 0.70677 0.32817
 O644 O 0.21097 0.75032 0.33297
 O645 O 0.32783 0.75106 0.29511
 O646 O 0.33602 0.78678 0.25118
 O647 O 0.29404 0.67243 0.24977
 O648 O 0.24971 0.66654 0.21236
 Zr649 Zr 0.25181 0.69630 0.25025
 O650 O 0.22210 0.72256 0.22312
 Zr651 Zr 0.30483 0.75009 0.25235
 O652 O 0.27923 0.77714 0.22199
 Zr653 Zr 0.25006 0.74901 0.30453
 O654 O 0.22361 0.77914 0.27806
 Zr655 Zr 0.24892 0.75064 0.19564
 O656 O 0.27905 0.72320 0.22172
 Zr657 Zr 0.19595 0.75289 0.24959
 O658 O 0.22134 0.72237 0.27710
 Zr659 Zr 0.25072 0.80502 0.24808
 O660 O 0.27753 0.77901 0.27867
 O661 O 0.27923 0.72122 0.27960
 O662 O 0.22139 0.78022 0.22031
 C663 C 0.24709 0.67904 0.31861
 C664 C 0.32192 0.68178 0.24911
 C665 C 0.31807 0.75147 0.32289
 C666 C 0.25070 0.81886 0.17792
 C667 C 0.17840 0.75347 0.18162
 C668 C 0.18226 0.82281 0.24677
 H669 H 0.20880 0.70895 0.21104
 H670 H 0.21121 0.79221 0.29161
 H671 H 0.29198 0.70802 0.29275
 H672 H 0.29330 0.78902 0.20904
 H673 H 0.29941 0.75851 0.16664
 H674 H 0.33338 0.74052 0.20210
 H675 H 0.14611 0.76027 0.28092
 H676 H 0.21651 0.74205 0.35328
 H677 H 0.23144 0.70313 0.16494
 H678 H 0.26848 0.66983 0.20030
 H679 H 0.23934 0.83497 0.29754
 H680 H 0.26158 0.80040 0.33051
 H681 H 0.20055 0.66817 0.24892
 H682 H 0.16635 0.70415 0.26362
 H683 H 0.33114 0.80014 0.26869
 H684 H 0.29962 0.83441 0.23235
 O685 O 0.74349 0.32172 0.29245
 O686 O 0.77686 0.33064 0.24785
 O687 O 0.66419 0.28499 0.24819
 O688 O 0.65258 0.24589 0.21834
 O689 O 0.70159 0.24270 0.32905
 O690 O 0.74188 0.20779 0.33607
 O691 O 0.74373 0.20060 0.17026
 O692 O 0.70743 0.24147 0.16271
 O693 O 0.82218 0.24150 0.20661
 O694 O 0.83056 0.27671 0.24379
 O695 O 0.78483 0.16436 0.24760
 O696 O 0.74201 0.15462 0.28240
 O697 O 0.74367 0.16455 0.20731
 O698 O 0.70880 0.15543 0.25096
 O699 O 0.82180 0.20052 0.24657
 O700 O 0.82735 0.24139 0.28601
 O701 O 0.78476 0.24132 0.17066
 O702 O 0.74413 0.27571 0.16013
 O703 O 0.74380 0.28449 0.32837
 O704 O 0.78061 0.24261 0.33376
 O705 O 0.66521 0.24230 0.29199
 O706 O 0.65708 0.20750 0.24921
 O707 O 0.70049 0.32187 0.24942
 O708 O 0.74241 0.33103 0.21601
 Zr709 Zr 0.74194 0.29755 0.25062
 O710 O 0.77003 0.27119 0.22198
 Zr711 Zr 0.68865 0.24396 0.25036
 O712 O 0.71428 0.21552 0.22153
 Zr713 Zr 0.74255 0.24367 0.30380
 O714 O 0.77065 0.21528 0.27725
 Zr715 Zr 0.74353 0.24202 0.19474
 O716 O 0.71502 0.27101 0.22082
 Zr717 Zr 0.79749 0.24187 0.24790
 O718 O 0.77190 0.27088 0.27709
 Zr719 Zr 0.74360 0.18869 0.24831
 O720 O 0.71527 0.21461 0.27724
 O721 O 0.71397 0.27202 0.27876
 O722 O 0.77202 0.21345 0.21964
 C723 C 0.74432 0.31257 0.32035
 C724 C 0.67256 0.31303 0.24817
 C725 C 0.67362 0.24178 0.32006
 C726 C 0.74383 0.17271 0.17927
 C727 C 0.81294 0.24119 0.17871
 C728 C 0.81291 0.17265 0.24680
 H729 H 0.78292 0.28492 0.20965
 H730 H 0.78356 0.20273 0.29084
 H731 H 0.70093 0.28501 0.29179
 H732 H 0.70046 0.20314 0.20873
 H733 H 0.69287 0.25758 0.16893
 H734 H 0.65927 0.23459 0.20002
 H735 H 0.84816 0.23675 0.27848
 H736 H 0.77368 0.24804 0.35459
 H737 H 0.75723 0.29261 0.16716
 H738 H 0.72848 0.32374 0.19980
 H739 H 0.75815 0.15915 0.29749
 H740 H 0.72759 0.19220 0.32824
 H741 H 0.79091 0.32697 0.26512
 H742 H 0.82695 0.29109 0.26074
 H743 H 0.66337 0.19286 0.26518
 H744 H 0.69434 0.15914 0.23404
 C745 C 0.25544 0.11587 0.09995
 C746 C 0.26112 0.14660 0.09424
 C747 C 0.26188 0.16740 0.11818
 C748 C 0.25206 0.07951 0.05213
 C749 C 0.25180 0.12669 0.15411
 C750 C 0.25099 0.10582 0.12993
 C751 C 0.25358 0.09529 0.07455
 C752 C 0.25695 0.15781 0.14841
 H753 H 0.26463 0.15461 0.07114
 H754 H 0.26605 0.19110 0.11287
 H755 H 0.24784 0.11861 0.17708
 H756 H 0.24655 0.08201 0.13455
 C757 C 0.75926 0.61428 0.60077
 C758 C 0.75415 0.60435 0.63068
 C759 C 0.75486 0.62525 0.65482
 C760 C 0.75575 0.57795 0.55302
 C761 C 0.76616 0.66572 0.61898
 C762 C 0.76552 0.64490 0.59508
 C763 C 0.75735 0.59373 0.57540
 C764 C 0.76053 0.65627 0.64912
 H765 H 0.74925 0.58062 0.63526
 H766 H 0.75035 0.61729 0.67773
 H767 H 0.77078 0.68935 0.61371
 H768 H 0.76953 0.65280 0.57203
 C769 C 0.75102 0.89669 0.11806
 C770 C 0.75205 0.86625 0.10863
 C771 C 0.75184 0.84283 0.13030
 C772 C 0.75167 0.94294 0.07962
 C773 C 0.74946 0.88039 0.17074
 C774 C 0.74966 0.90364 0.14911
 C775 C 0.75141 0.92119 0.09634
 C776 C 0.75061 0.84966 0.16165
 H777 H 0.75311 0.86065 0.08461
 H778 H 0.75280 0.81945 0.12252
 H779 H 0.74849 0.88657 0.19461
 H780 H 0.74884 0.92712 0.15665
 C781 C 0.24881 0.39812 0.61934
 C782 C 0.24957 0.36762 0.61006
 C783 C 0.24947 0.34429 0.63185
 C784 C 0.24930 0.44418 0.58056
 C785 C 0.24777 0.38203 0.67214
 C786 C 0.24786 0.40519 0.65039
 C787 C 0.24910 0.42252 0.59745
 C788 C 0.24862 0.35125 0.66319
 H789 H 0.25031 0.36190 0.58606
 H790 H 0.25019 0.32088 0.62415
 H791 H 0.24711 0.38831 0.69599
 H792 H 0.24726 0.42872 0.65783
 C793 C 0.74803 0.10259 0.88066
 C794 C 0.75674 0.13143 0.89130
 C795 C 0.75588 0.15666 0.87168
 C796 C 0.75150 0.05304 0.91469
 C797 C 0.73704 0.12412 0.83119
 C798 C 0.73782 0.09917 0.85073
 C799 C 0.75008 0.07603 0.89973
 C800 C 0.74649 0.15310 0.84122
 H801 H 0.76464 0.13430 0.91453
 H802 H 0.76338 0.17862 0.88001
 H803 H 0.72939 0.12055 0.80799
 H804 H 0.73091 0.07703 0.84229
 C805 C 0.24599 0.60327 0.38062
 C806 C 0.23756 0.59950 0.35018
 C807 C 0.23719 0.62436 0.33048
 C808 C 0.24859 0.55393 0.41514
 C809 C 0.25300 0.65751 0.37174
 C810 C 0.25343 0.63238 0.39153
 C811 C 0.24751 0.57684 0.39999
 C812 C 0.24528 0.65364 0.34084
 H813 H 0.23166 0.57716 0.34149
 H814 H 0.23088 0.62048 0.30693
 H815 H 0.25943 0.67970 0.38038
 H816 H 0.25997 0.63555 0.41513
 C817 C 0.24735 0.88027 0.89589
 C818 C 0.24479 0.89057 0.86574
 C819 C 0.24462 0.86963 0.84154
 C820 C 0.24718 0.91710 0.94368
 C821 C 0.24973 0.82827 0.87774
 C822 C 0.24991 0.84911 0.90171
 C823 C 0.24719 0.90111 0.92128
 C824 C 0.24696 0.83816 0.84731
 H825 H 0.24280 0.91468 0.86095
 H826 H 0.24240 0.87803 0.81844
 H827 H 0.25163 0.80430 0.88320
 H828 H 0.25193 0.84085 0.92490
 C829 C 0.74636 0.37736 0.39393
 C830 C 0.74667 0.34613 0.39983
 C831 C 0.74611 0.32533 0.37587
 C832 C 0.74745 0.41408 0.44170
 C833 C 0.74499 0.36688 0.33953
 C834 C 0.74555 0.38778 0.36374
 C835 C 0.74691 0.39814 0.41931
 C836 C 0.74524 0.33535 0.34536
 H837 H 0.74730 0.33779 0.42307
 H838 H 0.74631 0.30130 0.38139
 H839 H 0.74428 0.37536 0.31637
 H840 H 0.74531 0.41196 0.35892
 C841 C 0.11738 0.25035 0.10128
 C842 C 0.10814 0.24944 0.13180
 C843 C 0.12997 0.24973 0.15515
 C844 C 0.07866 0.24941 0.05507
 C845 C 0.17021 0.25194 0.11737
 C846 C 0.14842 0.25166 0.09419
 C847 C 0.09547 0.24981 0.07684
 C848 C 0.16132 0.25091 0.14818
 H849 H 0.08414 0.24842 0.13753
 H850 H 0.12232 0.24887 0.17858
 H851 H 0.19406 0.25286 0.11108
 H852 H 0.15583 0.25238 0.07064
 C853 C 0.62060 0.74942 0.60178
 C854 C 0.65163 0.75027 0.59458
 C855 C 0.67348 0.75039 0.61770
 C856 C 0.58150 0.74882 0.55594
 C857 C 0.63331 0.74893 0.65560
 C858 C 0.61143 0.74880 0.63232
 C859 C 0.59858 0.74908 0.57747
 C860 C 0.66464 0.74966 0.64853
 H861 H 0.65897 0.75076 0.57101
 H862 H 0.69733 0.75096 0.61134
 H863 H 0.62571 0.74831 0.67906
 H864 H 0.58743 0.74813 0.63812
 C865 C 0.10067 0.74469 0.88569
 C866 C 0.13062 0.74940 0.89582
 C867 C 0.15484 0.74878 0.87497
 C868 C 0.05272 0.74765 0.92190
 C869 C 0.11900 0.73840 0.83414
 C870 C 0.09502 0.73896 0.85490
 C871 C 0.07522 0.74634 0.90621
 C872 C 0.14919 0.74358 0.84381
 H873 H 0.13519 0.75388 0.91967
 H874 H 0.17778 0.75292 0.88311
 H875 H 0.11375 0.73413 0.81040
 H876 H 0.07195 0.73525 0.84684
 C877 C 0.60049 0.24298 0.38489
 C878 C 0.59493 0.23562 0.35444
 C879 C 0.61889 0.23462 0.33369
 C880 C 0.55262 0.24709 0.42104
 C881 C 0.65453 0.24771 0.37391
 C882 C 0.63033 0.24879 0.39474
 C883 C 0.57504 0.24527 0.40533
 C884 C 0.64895 0.24098 0.34304
 H885 H 0.57194 0.23104 0.34660
 H886 H 0.61374 0.22914 0.31017
 H887 H 0.67738 0.25280 0.38178
 H888 H 0.63482 0.25453 0.41834
 C889 C 0.89544 0.75210 0.12040
 C890 C 0.86531 0.75455 0.10993
 C891 C 0.84101 0.75480 0.13076
 C892 C 0.94342 0.75212 0.08382
 C893 C 0.87710 0.75000 0.17237
 C894 C 0.90116 0.74974 0.15163
 C895 C 0.92093 0.75216 0.09968
 C896 C 0.84668 0.75263 0.16230
 H897 H 0.86061 0.75640 0.08576
 H898 H 0.81793 0.75691 0.12223
 H899 H 0.88249 0.74823 0.19639
 H900 H 0.92434 0.74781 0.16003
 C901 C 0.39333 0.25347 0.62165
 C902 C 0.36320 0.25610 0.61120
 C903 C 0.33893 0.25639 0.63205
 C904 C 0.44123 0.25328 0.58504
 C905 C 0.37505 0.25126 0.67360
 C906 C 0.39907 0.25097 0.65286
 C907 C 0.41879 0.25344 0.60094
 C908 C 0.34462 0.25409 0.66357
 H909 H 0.35849 0.25806 0.58704
 H910 H 0.31584 0.25865 0.62356
 H911 H 0.38046 0.24936 0.69762
 H912 H 0.42225 0.24888 0.66122
 C913 C 0.88083 0.25124 0.89811
 C914 C 0.89174 0.24396 0.86894
 C915 C 0.87200 0.24480 0.84371
 C916 C 0.91516 0.24811 0.94763
 C917 C 0.83083 0.26071 0.87693
 C918 C 0.85046 0.25994 0.90187
 C919 C 0.90010 0.24938 0.92463
 C920 C 0.84116 0.25275 0.84758
 H921 H 0.91531 0.23723 0.86579
 H922 H 0.88060 0.23847 0.82147
 H923 H 0.80732 0.26724 0.88079
 H924 H 0.84179 0.26576 0.92425
 C925 C 0.37992 0.75133 0.39894
 C926 C 0.34909 0.75802 0.40306
 C927 C 0.32940 0.75863 0.37816
 C928 C 0.41471 0.74884 0.44814
 C929 C 0.37138 0.74644 0.34436
 C930 C 0.39117 0.74577 0.36954
 C931 C 0.39940 0.74986 0.42531
 C932 C 0.34014 0.75254 0.34851
 H933 H 0.34015 0.76246 0.42564
 H934 H 0.30558 0.76367 0.38229
 H935 H 0.38032 0.74159 0.32189
 H936 H 0.41509 0.74061 0.36613
 C937 C 0.12009 0.10560 0.24636
 C938 C 0.10953 0.13566 0.24421
 C939 C 0.13033 0.15995 0.24405
 C940 C 0.08376 0.05756 0.24618
 C941 C 0.17205 0.12395 0.24838
 C942 C 0.15135 0.09991 0.24855
 C943 C 0.09946 0.08010 0.24620
 C944 C 0.16190 0.15432 0.24600
 H945 H 0.08532 0.14031 0.24251
 H946 H 0.12176 0.18300 0.24214
 H947 H 0.19611 0.11860 0.25000
 H948 H 0.15980 0.07678 0.25026
 C949 C 0.62252 0.60497 0.74712
 C950 C 0.65379 0.59895 0.74807
 C951 C 0.67473 0.62281 0.74770
 C952 C 0.58540 0.55748 0.74754
 C953 C 0.63326 0.65926 0.74555
 C954 C 0.61222 0.63518 0.74592
 C955 C 0.60154 0.57972 0.74731
 C956 C 0.66482 0.65332 0.74636
 H957 H 0.66205 0.57571 0.74902
 H958 H 0.69878 0.61721 0.74838
 H959 H 0.62484 0.68242 0.74446
 H960 H 0.58802 0.64011 0.74518
 C961 C 0.89862 0.11937 0.74927
 C962 C 0.86936 0.10839 0.75608
 C963 C 0.84411 0.12811 0.75529
 C964 C 0.94821 0.08504 0.75203
 C965 C 0.87750 0.16946 0.74044
 C966 C 0.90246 0.14984 0.74117
 C967 C 0.92516 0.10006 0.75094
 C968 C 0.84803 0.15903 0.74784
 H969 H 0.86613 0.08476 0.76234
 H970 H 0.82178 0.11941 0.76117
 H971 H 0.88145 0.19301 0.73433
 H972 H 0.92491 0.15859 0.73574
 C973 C 0.39770 0.61983 0.24895
 C974 C 0.40153 0.65014 0.24032
 C975 C 0.37663 0.66979 0.23967
 C976 C 0.44709 0.58539 0.25160
 C977 C 0.34335 0.62874 0.25563
 C978 C 0.36854 0.60898 0.25634
 C979 C 0.42416 0.60052 0.25057
 C980 C 0.34728 0.65952 0.24771
 H981 H 0.42392 0.65874 0.23442
 H982 H 0.38053 0.69324 0.23315
 H983 H 0.32109 0.62020 0.26200
 H984 H 0.36536 0.58545 0.26300
 C985 C 0.10288 0.88363 0.74911
 C986 C 0.13341 0.89273 0.75117
 C987 C 0.15672 0.87086 0.75108
 C988 C 0.05664 0.92231 0.75012
 C989 C 0.11890 0.83088 0.74671
 C990 C 0.09576 0.85270 0.74678
 C991 C 0.07844 0.90554 0.74967
 C992 C 0.14970 0.83962 0.74897
 H993 H 0.13917 0.91663 0.75300
 H994 H 0.18015 0.87840 0.75291
 H995 H 0.11256 0.80711 0.74504
 H996 H 0.07221 0.84540 0.74518
 C997 C 0.60152 0.38048 0.24759
 C998 C 0.63205 0.38959 0.24933
 C999 C 0.65532 0.36773 0.24923
 C1000 C 0.55563 0.41943 0.24876
 C1001 C 0.61743 0.32772 0.24547
 C1002 C 0.59432 0.34956 0.24556
 C1003 C 0.57720 0.40244 0.24821
 C1004 C 0.64824 0.33649 0.24742
 H1005 H 0.63784 0.41351 0.25093
 H1006 H 0.67877 0.37527 0.25081
 H1007 H 0.61108 0.30395 0.24404
 H1008 H 0.57075 0.34227 0.24420
 C1009 C 0.88613 0.89771 0.25704
 C1010 C 0.89608 0.86794 0.25122
 C1011 C 0.87527 0.84375 0.25208
 C1012 C 0.92201 0.94569 0.25296
 C1013 C 0.83489 0.87924 0.26502
 C1014 C 0.85562 0.90319 0.26424
 C1015 C 0.90648 0.92319 0.25479
 C1016 C 0.84433 0.84927 0.25857
 H1017 H 0.91972 0.86353 0.24559
 H1018 H 0.88319 0.82096 0.24693
 H1019 H 0.81131 0.88433 0.27033
 H1020 H 0.84771 0.92612 0.26883
 C1021 C 0.38441 0.39936 0.75880
 C1022 C 0.35387 0.40484 0.76591
 C1023 C 0.33312 0.38088 0.76664
 C1024 C 0.42062 0.44718 0.75492
 C1025 C 0.37351 0.34538 0.75382
 C1026 C 0.39434 0.36957 0.75301
 C1027 C 0.40485 0.42481 0.75667
 C1028 C 0.34255 0.35089 0.76026
 H1029 H 0.34597 0.42778 0.77047
 H1030 H 0.30954 0.38599 0.77190
 H1031 H 0.38144 0.32259 0.74872
 H1032 H 0.41799 0.36513 0.74746
 C1033 C 0.11415 0.25170 0.89966
 C1034 C 0.14538 0.25046 0.90562
 C1035 C 0.16620 0.25128 0.88174
 C1036 C 0.07767 0.25057 0.94742
 C1037 C 0.12462 0.25442 0.84538
 C1038 C 0.10369 0.25362 0.86952
 C1039 C 0.09344 0.25111 0.92498
 C1040 C 0.15617 0.25337 0.85129
 H1041 H 0.15371 0.24893 0.92884
 H1042 H 0.19025 0.25027 0.88730
 H1043 H 0.11615 0.25595 0.82224
 H1044 H 0.07946 0.25455 0.86472
 C1045 C 0.61538 0.74912 0.39761
 C1046 C 0.64636 0.74447 0.40332
 C1047 C 0.66725 0.74515 0.37948
 C1048 C 0.57895 0.74915 0.44547
 C1049 C 0.62622 0.75474 0.34362
 C1050 C 0.60523 0.75410 0.36772
 C1051 C 0.59467 0.74919 0.42297
 C1052 C 0.65755 0.75054 0.34933
 H1053 H 0.65445 0.74052 0.42634
 H1054 H 0.69110 0.74153 0.38481
 H1055 H 0.61803 0.75887 0.32070
 H1056 H 0.58122 0.75771 0.36309
 C1057 C 0.89902 0.75244 0.88148
 C1058 C 0.86847 0.75145 0.89063
 C1059 C 0.84518 0.75145 0.86874
 C1060 C 0.94509 0.75131 0.92032
 C1061 C 0.88312 0.75360 0.82863
 C1062 C 0.90623 0.75363 0.85049
 C1063 C 0.92339 0.75188 0.90344
 C1064 C 0.85228 0.75235 0.83744
 H1065 H 0.86266 0.75053 0.91461
 H1066 H 0.82171 0.75051 0.87630
 H1067 H 0.88949 0.75446 0.80481
 H1068 H 0.92982 0.75444 0.84317
 C1069 C 0.39599 0.25358 0.38107
 C1070 C 0.40309 0.25513 0.35006
 C1071 C 0.37991 0.25509 0.32827
 C1072 C 0.44214 0.25227 0.41985
 C1073 C 0.34210 0.25226 0.36844
 C1074 C 0.36545 0.25226 0.39028
 C1075 C 0.42043 0.25294 0.40298
 C1076 C 0.34910 0.25349 0.33713
 H1077 H 0.42664 0.25619 0.34269
 H1078 H 0.38621 0.25623 0.30444
 H1079 H 0.31865 0.25105 0.37605
 H1080 H 0.35971 0.25106 0.41425
 C1081 C 0.10269 0.75449 0.11944
 C1082 C 0.13155 0.74546 0.10895
 C1083 C 0.15673 0.74583 0.12876
 C1084 C 0.05317 0.75225 0.08506
 C1085 C 0.12412 0.76477 0.16913
 C1086 C 0.09922 0.76446 0.14942
 C1087 C 0.07616 0.75310 0.10015
 C1088 C 0.15310 0.75503 0.15925
 H1089 H 0.13447 0.73777 0.08568
 H1090 H 0.17872 0.73822 0.12051
 H1091 H 0.12050 0.77239 0.19232
 H1092 H 0.07709 0.77166 0.15774
 C1093 C 0.60162 0.25248 0.62016
 C1094 C 0.59730 0.25811 0.65115
 C1095 C 0.62206 0.25803 0.67103
 C1096 C 0.55244 0.25179 0.58518
 C1097 C 0.65618 0.24709 0.62900
 C1098 C 0.63113 0.24714 0.60900
 C1099 C 0.57534 0.25200 0.60046
 C1100 C 0.65184 0.25226 0.66036
 H1101 H 0.57464 0.26238 0.66004
 H1102 H 0.61771 0.26240 0.69493
 H1103 H 0.67875 0.24264 0.62005
 H1104 H 0.63472 0.24281 0.58496
 C1105 C 0.87772 0.24152 0.10506
 C1106 C 0.84668 0.23721 0.09936
 C1107 C 0.82590 0.23678 0.12337
 C1108 C 0.91434 0.24391 0.05722
 C1109 C 0.86714 0.24455 0.15938
 C1110 C 0.88800 0.24504 0.13513
 C1111 C 0.89842 0.24281 0.07961
 C1112 C 0.83576 0.24068 0.15371
 H1113 H 0.83845 0.23441 0.07623
 H1114 H 0.80201 0.23351 0.11803
 H1115 H 0.87549 0.24759 0.18241
 H1116 H 0.91202 0.24838 0.13980
 C1117 C 0.37953 0.74405 0.60710
 C1118 C 0.34840 0.74067 0.60129
 C1119 C 0.32756 0.74040 0.62524
 C1120 C 0.41617 0.74575 0.55920
 C1121 C 0.36888 0.74657 0.66145
 C1122 C 0.38982 0.74688 0.63725
 C1123 C 0.40031 0.74498 0.58167
 C1124 C 0.33742 0.74354 0.65567
 H1125 H 0.34015 0.73841 0.57810
 H1126 H 0.30360 0.73784 0.61979
 H1127 H 0.37725 0.74901 0.68454
 H1128 H 0.41392 0.74950 0.64202
 C1129 C 0.24685 0.11908 0.89832
 C1130 C 0.24861 0.10985 0.86782
 C1131 C 0.24866 0.13164 0.84449
 C1132 C 0.24788 0.08047 0.94453
 C1133 C 0.24502 0.17180 0.88223
 C1134 C 0.24495 0.15005 0.90539
 C1135 C 0.24735 0.09724 0.92277
 C1136 C 0.24702 0.16292 0.85146
 H1137 H 0.25010 0.08590 0.86210
 H1138 H 0.25019 0.12401 0.82107
 H1139 H 0.24358 0.19560 0.88851
 H1140 H 0.24355 0.15745 0.92892
 C1141 C 0.74962 0.61742 0.39643
 C1142 C 0.75151 0.60815 0.36596
 C1143 C 0.75132 0.62990 0.34260
 C1144 C 0.75102 0.57893 0.44262
 C1145 C 0.74717 0.67005 0.38030
 C1146 C 0.74733 0.64836 0.40348
 C1147 C 0.75036 0.59566 0.42088
 C1148 C 0.74931 0.66115 0.34955
 H1149 H 0.75329 0.58421 0.36028
 H1150 H 0.75297 0.62227 0.31919
 H1151 H 0.74541 0.69384 0.38656
 H1152 H 0.74581 0.65577 0.42700
 C1153 C 0.74655 0.09956 0.11440
 C1154 C 0.74275 0.09360 0.14539
 C1155 C 0.74162 0.11746 0.16621
 C1156 C 0.74930 0.05187 0.07792
 C1157 C 0.74788 0.15380 0.12508
 C1158 C 0.74904 0.12968 0.10416
 C1159 C 0.74811 0.07427 0.09371
 C1160 C 0.74428 0.14789 0.15641
 H1161 H 0.74079 0.07039 0.15354
 H1162 H 0.73876 0.11193 0.19009
 H1163 H 0.75009 0.17692 0.11682
 H1164 H 0.75202 0.13448 0.08013
 C1165 C 0.24763 0.60216 0.61628
 C1166 C 0.24650 0.63234 0.60596
 C1167 C 0.24591 0.65641 0.62698
 C1168 C 0.24840 0.55461 0.57944
 C1169 C 0.24766 0.61993 0.66842
 C1170 C 0.24826 0.59611 0.64750
 C1171 C 0.24805 0.57693 0.59540
 C1172 C 0.24640 0.65042 0.65851
 H1173 H 0.24603 0.63725 0.58177
 H1174 H 0.24501 0.67958 0.61860
 H1175 H 0.24819 0.61432 0.69245
 H1176 H 0.24918 0.57286 0.65573
 C1177 C 0.75724 0.89432 0.87795
 C1178 C 0.75531 0.86422 0.88840
 C1179 C 0.75568 0.83995 0.86757
 C1180 C 0.75560 0.94213 0.91459
 C1181 C 0.76008 0.87602 0.82601
 C1182 C 0.75973 0.90005 0.84675
 C1183 C 0.75637 0.91975 0.89866
 C1184 C 0.75792 0.84563 0.83606
 H1185 H 0.75338 0.85952 0.91256
 H1186 H 0.75403 0.81688 0.87608
 H1187 H 0.76198 0.88140 0.80201
 H1188 H 0.76127 0.92321 0.83838
 C1189 C 0.25320 0.39519 0.37836
 C1190 C 0.25485 0.40107 0.34712
 C1191 C 0.25530 0.37712 0.32627
 C1192 C 0.25173 0.44291 0.41524
 C1193 C 0.25262 0.34081 0.36776
 C1194 C 0.25214 0.36500 0.38870
 C1195 C 0.25240 0.42056 0.39923
 C1196 C 0.25409 0.34663 0.33622
 H1197 H 0.25571 0.42429 0.33882
 H1198 H 0.25655 0.38263 0.30225
 H1199 H 0.25170 0.31767 0.37621
 H1200 H 0.25088 0.36016 0.41288
 C1201 C 0.25038 0.88128 0.10233
 C1202 C 0.25509 0.85021 0.09771
 C1203 C 0.25551 0.83029 0.12238
 C1204 C 0.24891 0.91635 0.05332
 C1205 C 0.24682 0.87244 0.15697
 C1206 C 0.24636 0.89248 0.13201
 C1207 C 0.24949 0.90105 0.07615
 C1208 C 0.25121 0.84103 0.15236
 H1209 H 0.25828 0.84127 0.07491
 H1210 H 0.25912 0.80633 0.11781
 H1211 H 0.24336 0.88142 0.17970
 H1212 H 0.24270 0.91657 0.13583
 C1213 C 0.74757 0.37945 0.60196
 C1214 C 0.74135 0.34860 0.59775
 C1215 C 0.74124 0.32886 0.62256
 C1216 C 0.74889 0.41412 0.55275
 C1217 C 0.75312 0.37081 0.65645
 C1218 C 0.75327 0.39066 0.63136
 C1219 C 0.74840 0.39896 0.57565
 C1220 C 0.74742 0.33957 0.65222
 H1221 H 0.73680 0.33969 0.57516
 H1222 H 0.73644 0.30505 0.61833
 H1223 H 0.75791 0.37976 0.67895
 H1224 H 0.75807 0.41460 0.63484
 C1225 C 0.10443 0.12225 0.75801
 C1226 C 0.13450 0.11203 0.75419
 C1227 C 0.15878 0.13285 0.75470
 C1228 C 0.05651 0.08564 0.75566
 C1229 C 0.12285 0.17395 0.76313
 C1230 C 0.09880 0.15321 0.76266
 C1231 C 0.07893 0.10158 0.75672
 C1232 C 0.15318 0.16415 0.75893
 H1233 H 0.13914 0.08807 0.75057
 H1234 H 0.18180 0.12454 0.75141
 H1235 H 0.11755 0.19778 0.76665
 H1236 H 0.07569 0.16142 0.76571
 C1237 C 0.60622 0.62083 0.25643
 C1238 C 0.60057 0.65182 0.26072
 C1239 C 0.62460 0.67256 0.26104
 C1240 C 0.55824 0.58438 0.25447
 C1241 C 0.66056 0.63137 0.25315
 C1242 C 0.63629 0.61055 0.25278
 C1243 C 0.58072 0.60018 0.25535
 C1244 C 0.65493 0.66270 0.25704
 H1245 H 0.57744 0.66006 0.26361
 H1246 H 0.61928 0.69642 0.26430
 H1247 H 0.68359 0.62302 0.25003
 H1248 H 0.64093 0.58655 0.24945
 C1249 C 0.12057 0.89880 0.24483
 C1250 C 0.15128 0.90259 0.23752
 C1251 C 0.17092 0.87769 0.23761
 C1252 C 0.08597 0.94807 0.24637
 C1253 C 0.12910 0.84450 0.25171
 C1254 C 0.10936 0.86968 0.25167
 C1255 C 0.10119 0.92521 0.24576
 C1256 C 0.16024 0.84837 0.24510
 H1257 H 0.16016 0.92495 0.23205
 H1258 H 0.19466 0.88156 0.23201
 H1259 H 0.12020 0.82226 0.25751
 H1260 H 0.08552 0.86653 0.25731
 C1261 C 0.61940 0.39713 0.74637
 C1262 C 0.65009 0.40111 0.73903
 C1263 C 0.66988 0.37630 0.73891
 C1264 C 0.58477 0.44647 0.74811
 C1265 C 0.62829 0.34280 0.75287
 C1266 C 0.60839 0.36790 0.75305
 C1267 C 0.59990 0.42352 0.74743
 C1268 C 0.65940 0.34686 0.74618
 H1269 H 0.65886 0.42355 0.73370
 H1270 H 0.69357 0.38036 0.73329
 H1271 H 0.61952 0.32047 0.75852
 H1272 H 0.58458 0.36457 0.75871
 C1273 C 0.88033 0.10164 0.24641
 C1274 C 0.88953 0.13213 0.24741
 C1275 C 0.86767 0.15538 0.24728
 C1276 C 0.91936 0.05587 0.24786
 C1277 C 0.82748 0.11757 0.24497
 C1278 C 0.84931 0.09446 0.24507
 C1279 C 0.90230 0.07736 0.24715
 C1280 C 0.83635 0.14833 0.24623
 H1281 H 0.91352 0.13790 0.24845
 H1282 H 0.87528 0.17881 0.24825
 H1283 H 0.80363 0.11124 0.24402
 H1284 H 0.84197 0.07092 0.24426
 C1285 C 0.38137 0.60379 0.74866
 C1286 C 0.39075 0.63425 0.74951
 C1287 C 0.36902 0.65767 0.74938
 C1288 C 0.41998 0.55753 0.75001
 C1289 C 0.32860 0.62011 0.74735
 C1290 C 0.35029 0.59685 0.74746
 C1291 C 0.40319 0.57928 0.74934
 C1292 C 0.33763 0.65085 0.74846
 H1293 H 0.41478 0.63987 0.75043
 H1294 H 0.37678 0.68105 0.75022
 H1295 H 0.30471 0.61393 0.74650
 H1296 H 0.34277 0.57337 0.74675
 C1297 C 0.90013 0.88477 0.74876
 C1298 C 0.86992 0.89487 0.74593
 C1299 C 0.84596 0.87375 0.74523
 C1300 C 0.94749 0.92183 0.74947
 C1301 C 0.88259 0.83265 0.75034
 C1302 C 0.90630 0.85368 0.75105
 C1303 C 0.92525 0.90576 0.74911
 C1304 C 0.85209 0.84234 0.74727
 H1305 H 0.86493 0.91897 0.74416
 H1306 H 0.82278 0.88195 0.74291
 H1307 H 0.88827 0.80872 0.75215
 H1308 H 0.92957 0.84563 0.75330
 C1309 C 0.39716 0.38535 0.24928
 C1310 C 0.40275 0.35448 0.25437
 C1311 C 0.37883 0.33371 0.25375
 C1312 C 0.44511 0.42157 0.24911
 C1313 C 0.34315 0.37467 0.24338
 C1314 C 0.36733 0.39554 0.24395
 C1315 C 0.42260 0.40592 0.24912
 C1316 C 0.34874 0.34344 0.24799
 H1317 H 0.42573 0.34639 0.25859
 H1318 H 0.38404 0.30993 0.25770
 H1319 H 0.32027 0.38286 0.23895
 H1320 H 0.36282 0.41947 0.24001
   
