data_POSCAR
  _audit_creation_date              2014-09-24
  _audit_creation_method            'ToBaCCo'
  _symmetry_space_group_name_H-M    'P1'
  _symmetry_Int_Tables_number       1
  _symmetry_cell_setting            triclinic
  loop_
  _symmetry_equiv_pos_as_xyz
 x,y,z
_cell_length_a 73.3643
_cell_length_b 74.1249
_cell_length_c 72.7548
_cell_angle_alpha 88.735400
_cell_angle_beta 89.986900
_cell_angle_gamma 89.120400
loop_
  _atom_site_label
  _atom_site_type_symbol
  _atom_site_fract_x
  _atom_site_fract_y
  _atom_site_fract_z
C1 C 0.74897 0.61713 1.02416
 C2 C 0.75806 0.62461 1.00897
 C3 C 0.77553 0.63159 1.01112
 C4 C 0.78415 0.63142 1.02844
 C5 C 0.77472 0.62364 1.04354
 C6 C 0.75716 0.61630 1.04169
 C7 C 0.74931 0.62483 0.99065
 C8 C 0.73177 0.63233 0.98829
 C9 C 0.72344 0.63286 0.97091
 C10 C 0.73273 0.62537 0.95593
 C11 C 0.75024 0.61767 0.95809
 C12 C 0.75849 0.61760 0.97552
 H13 H 0.73587 0.61108 1.02181
 H14 H 0.78242 0.63676 0.99900
 H15 H 0.72488 0.63826 0.99993
 H16 H 0.77206 0.61187 0.97736
 H17 H 0.78040 0.62472 1.05715
 H18 H 0.72613 0.62517 0.94262
 C19 C 0.74317 0.39413 0.48199
 C20 C 0.75241 0.38639 0.49716
 C21 C 0.76970 0.37846 0.49470
 C22 C 0.77773 0.37802 0.47719
 C23 C 0.76838 0.38600 0.46216
 C24 C 0.75113 0.39416 0.46443
 C25 C 0.74393 0.38642 0.51559
 C26 C 0.72641 0.37951 0.51819
 C27 C 0.71850 0.37883 0.53577
 C28 C 0.72819 0.38566 0.55070
 C29 C 0.74570 0.39276 0.54829
 C30 C 0.75353 0.39294 0.53067
 H31 H 0.72995 0.40052 0.48401
 H32 H 0.77681 0.37247 0.50643
 H33 H 0.71924 0.37402 0.50660
 H34 H 0.76713 0.39812 0.52865
 H35 H 0.77427 0.38534 0.44854
 H36 H 0.72193 0.38573 0.56418
 C37 C 0.24374 -0.10631 -0.01940
 C38 C 0.25330 -0.11384 -0.00437
 C39 C 0.27084 -0.12117 -0.00697
 C40 C 0.27908 -0.12118 -0.02453
 C41 C 0.26918 -0.11327 -0.03939
 C42 C 0.25161 -0.10587 -0.03696
 C43 C 0.24496 -0.11404 0.01415
 C44 C 0.22755 -0.12122 0.01690
 C45 C 0.21964 -0.12220 0.03461
 C46 C 0.22962 -0.11516 0.04939
 C47 C 0.24700 -0.10785 0.04679
 C48 C 0.25461 -0.10746 0.02913
 H49 H 0.23014 -0.10077 -0.01739
 H50 H 0.27807 -0.12646 0.00497
 H51 H 0.22086 -0.12703 0.00523
 H52 H 0.26810 -0.10205 0.02698
 H53 H 0.27473 -0.11327 -0.05315
 H54 H 0.22364 -0.11448 0.06295
 C55 C 0.24730 0.11636 0.52082
 C56 C 0.25631 0.12398 0.50560
 C57 C 0.27361 0.13140 0.50787
 C58 C 0.28191 0.13142 0.52526
 C59 C 0.27280 0.12354 0.54036
 C60 C 0.25552 0.11591 0.53827
 C61 C 0.24760 0.12428 0.48728
 C62 C 0.23010 0.13185 0.48489
 C63 C 0.22193 0.13263 0.46743
 C64 C 0.23132 0.12528 0.45243
 C65 C 0.24878 0.11748 0.45465
 C66 C 0.25689 0.11721 0.47214
 H67 H 0.23388 0.11075 0.51903
 H68 H 0.28055 0.13727 0.49608
 H69 H 0.22314 0.13766 0.49653
 H70 H 0.27046 0.11148 0.47403
 H71 H 0.27915 0.12342 0.55380
 H72 H 0.22483 0.12527 0.43906
 C73 C 0.11147 0.51780 0.24675
 C74 C 0.11926 0.50267 0.25583
 C75 C 0.12795 0.50468 0.27279
 C76 C 0.12923 0.52175 0.28055
 C77 C 0.12116 0.53676 0.27143
 C78 C 0.11213 0.53513 0.25441
 C79 C 0.11880 0.48481 0.24724
 C80 C 0.12551 0.48266 0.22935
 C81 C 0.12502 0.46579 0.22096
 C82 C 0.11743 0.45111 0.23062
 C83 C 0.11048 0.45308 0.24848
 C84 C 0.11144 0.46997 0.25679
 H85 H 0.10542 0.51590 0.23339
 H86 H 0.13431 0.49303 0.27956
 H87 H 0.13112 0.49416 0.22198
 H88 H 0.10593 0.47178 0.27046
 H89 H 0.12130 0.54955 0.27828
 H90 H 0.11733 0.43797 0.22439
 C91 C -0.10569 -0.02607 0.24744
 C92 C -0.11381 -0.01143 0.25628
 C93 C -0.12108 -0.01387 0.27399
 C94 C -0.12058 -0.03094 0.28304
 C95 C -0.11207 -0.04542 0.27383
 C96 C -0.10460 -0.04310 0.25616
 C97 C -0.11472 0.00652 0.24700
 C98 C -0.12225 0.00845 0.22932
 C99 C -0.12337 0.02547 0.22023
 C100 C -0.11630 0.04047 0.22939
 C101 C -0.10860 0.03869 0.24702
 C102 C -0.10802 0.02167 0.25579
 H103 H -0.09980 -0.02406 0.23389
 H104 H -0.12679 -0.00218 0.28068
 H105 H -0.12684 -0.00358 0.22267
 H106 H -0.10192 0.02007 0.26931
 H107 H -0.11214 -0.05892 0.27976
 H108 H -0.11769 0.05391 0.22342
 C109 C 0.39541 0.47677 0.75007
 C110 C 0.38715 0.49131 0.75895
 C111 C 0.37977 0.48874 0.77659
 C112 C 0.38027 0.47161 0.78552
 C113 C 0.38894 0.45723 0.77628
 C114 C 0.39651 0.45969 0.75868
 C115 C 0.38616 0.50926 0.74970
 C116 C 0.37864 0.51113 0.73202
 C117 C 0.37751 0.52812 0.72312
 C118 C 0.38435 0.54322 0.73203
 C119 C 0.39210 0.54154 0.74965
 C120 C 0.39278 0.52449 0.75847
 H121 H 0.40135 0.47889 0.73657
 H122 H 0.37393 0.50036 0.78330
 H123 H 0.37359 0.49933 0.72524
 H124 H 0.39892 0.52292 0.77197
 H125 H 0.38889 0.44369 0.78211
 H126 H 0.38316 0.55644 0.72544
 C127 C 0.61038 1.02144 0.74597
 C128 C 0.61767 1.00645 0.75559
 C129 C 0.62508 1.00856 0.77318
 C130 C 0.62541 1.02566 0.78140
 C131 C 0.61772 1.04051 0.77143
 C132 C 0.61020 1.03851 0.75385
 C133 C 0.61731 0.98846 0.74730
 C134 C 0.62549 0.98564 0.73015
 C135 C 0.62530 0.96854 0.72223
 C136 C 0.61633 0.95438 0.73147
 C137 C 0.60788 0.95706 0.74855
 C138 C 0.60863 0.97414 0.75647
 H139 H 0.60475 1.01974 0.73236
 H140 H 0.63010 0.99662 0.78048
 H141 H 0.63248 0.99666 0.72329
 H142 H 0.60201 0.97650 0.76953
 H143 H 0.61796 1.05392 0.77696
 H144 H 0.61598 0.94119 0.72537
 C145 C -0.02860 0.23965 -0.11700
 C146 C -0.01339 0.24861 -0.12408
 C147 C -0.01554 0.26593 -0.13205
 C148 C -0.03288 0.27445 -0.13335
 C149 C -0.04794 0.26513 -0.12587
 C150 C -0.04592 0.24789 -0.11764
 C151 C 0.00483 0.23977 -0.12335
 C152 C 0.00736 0.22234 -0.13013
 C153 C 0.02465 0.21366 -0.12966
 C154 C 0.03927 0.22299 -0.12173
 C155 C 0.03687 0.24039 -0.11476
 C156 C 0.01961 0.24874 -0.11580
 H157 H -0.02683 0.22644 -0.11052
 H158 H -0.00366 0.27212 -0.13814
 H159 H -0.00443 0.21555 -0.13537
 H160 H 0.01751 0.26207 -0.11027
 H161 H -0.06136 0.27136 -0.12589
 H162 H 0.05293 0.21731 -0.12186
 C163 C 0.52513 0.25164 0.11036
 C164 C 0.50972 0.26068 0.11724
 C165 C 0.51146 0.27816 0.12399
 C166 C 0.52849 0.28657 0.12408
 C167 C 0.54377 0.27737 0.11702
 C168 C 0.54222 0.25993 0.11007
 C169 C 0.49184 0.25175 0.11749
 C170 C 0.49022 0.23433 0.12521
 C171 C 0.47332 0.22569 0.12556
 C172 C 0.45802 0.23463 0.11785
 C173 C 0.45942 0.25203 0.10997
 C174 C 0.47640 0.26056 0.10998
 H175 H 0.52368 0.23829 0.10482
 H176 H 0.49956 0.28513 0.12931
 H177 H 0.50215 0.22752 0.13097
 H178 H 0.47766 0.27403 0.10408
 H179 H 0.55703 0.28358 0.11747
 H180 H 0.44496 0.22800 0.11798
 C181 C 1.02883 0.74715 0.61003
 C182 C 1.01374 0.75646 0.61709
 C183 C 1.01586 0.77391 0.62379
 C184 C 1.03307 0.78226 0.62371
 C185 C 1.04802 0.77256 0.61631
 C186 C 1.04601 0.75513 0.60944
 C187 C 0.99566 0.74790 0.61737
 C188 C 0.99362 0.73063 0.62532
 C189 C 0.97654 0.72234 0.62565
 C190 C 0.96149 0.73148 0.61767
 C191 C 0.96332 0.74873 0.60955
 C192 C 0.98047 0.75690 0.60958
 H193 H 1.02704 0.73382 0.60454
 H194 H 1.00385 0.78096 0.62865
 H195 H 1.00537 0.72367 0.63128
 H196 H 0.98205 0.77026 0.60348
 H197 H 1.06161 0.77797 0.61677
 H198 H 0.94829 0.72513 0.61778
 C199 C 0.47559 0.74372 0.38611
 C200 C 0.49076 0.75258 0.37873
 C201 C 0.48853 0.76981 0.37059
 C202 C 0.47121 0.77811 0.36952
 C203 C 0.45616 0.76913 0.37717
 C204 C 0.45822 0.75195 0.38555
 C205 C 0.50893 0.74368 0.37929
 C206 C 0.51126 0.72623 0.37252
 C207 C 0.52846 0.71765 0.37286
 C208 C 0.54330 0.72665 0.38047
 C209 C 0.54115 0.74407 0.38750
 C210 C 0.52391 0.75257 0.38666
 H211 H 0.47743 0.73057 0.39271
 H212 H 0.50021 0.77644 0.36452
 H213 H 0.49964 0.71938 0.36689
 H214 H 0.52196 0.76589 0.39223
 H215 H 0.44278 0.77548 0.37651
 H216 H 0.55670 0.72029 0.38044
 C217 C 0.39953 -0.01785 0.27861
 H218 H 0.39023 -0.01021 0.28702
 C219 C 0.40930 -0.03234 0.28649
 H220 H 0.40737 -0.03561 0.30093
 C221 C 0.41223 -0.02377 0.24937
 H222 H 0.41299 -0.02051 0.23482
 C223 C 0.42224 -0.03843 0.25669
 H224 H 0.43093 -0.04624 0.24772
 N225 N 0.40109 -0.01388 0.26034
 C226 C 0.38967 0.03716 0.23145
 H227 H 0.37497 0.03717 0.23267
 C228 C 0.39826 0.05154 0.22260
 H229 H 0.39007 0.06271 0.21718
 C230 C 0.41813 0.02261 0.23740
 H231 H 0.42577 0.01131 0.24325
 C232 C 0.42733 0.03682 0.22868
 H233 H 0.44205 0.03624 0.22769
 Zn234 Zn 0.38592 0.00418 0.24931
 N235 N 0.39960 0.02293 0.23834
 C236 C 0.37947 0.02464 0.28028
 N237 N 0.37090 0.01493 0.26731
 C238 C 0.35243 0.01359 0.26708
 C239 C 0.34187 0.02188 0.28058
 C240 C 0.36947 0.03314 0.29400
 C241 C 0.37321 -0.00160 0.21322
 C242 C 0.36343 -0.01022 0.19962
 C243 C 0.35104 -0.03016 0.22300
 C244 C 0.36112 -0.02116 0.23618
 N245 N 0.37179 -0.00705 0.23113
 H246 H 0.39417 0.02565 0.28001
 H247 H 0.34582 0.00620 0.25639
 H248 H 0.32718 0.02076 0.28014
 H249 H 0.37662 0.04047 0.30441
 H250 H 0.38210 0.00931 0.20934
 H251 H 0.36460 -0.00550 0.18548
 H252 H 0.34274 -0.04146 0.22725
 H253 H 0.36054 -0.02549 0.25046
 C254 C 0.41732 0.05141 0.22094
 C255 C 0.42068 -0.04300 0.27546
 C256 C 0.35218 -0.02473 0.20442
 C257 C 0.35041 0.03178 0.29431
 C258 C 0.09253 1.01272 0.76986
 H259 H 0.09229 0.99876 0.77452
 C260 C 0.08208 1.02571 0.77891
 H261 H 0.07357 1.02161 0.79037
 C262 C 0.10439 1.03510 0.74961
 H263 H 0.11353 1.03885 0.73859
 C264 C 0.09414 1.04848 0.75819
 H265 H 0.09552 1.06239 0.75360
 N266 N 0.10346 1.01761 0.75555
 C267 C 0.11635 0.96955 0.72436
 H268 H 0.13103 0.97068 0.72416
 C269 C 0.10803 0.95571 0.71499
 H270 H 0.11646 0.94605 0.70779
 C271 C 0.08764 0.98078 0.73425
 H272 H 0.07976 0.99073 0.74159
 C273 C 0.07872 0.96704 0.72509
 H274 H 0.06398 0.96654 0.72545
 Zn275 Zn 0.11924 0.99997 0.74546
 N276 N 0.10614 0.98165 0.73384
 C277 C 0.13276 0.97191 0.76906
 N278 N 0.13332 0.98991 0.76505
 C279 C 0.14293 1.00125 0.77568
 C280 C 0.15260 0.99458 0.79097
 C281 C 0.14222 0.96467 0.78421
 C282 C 0.12579 1.01683 0.71167
 C283 C 0.13581 1.02467 0.69739
 C284 C 0.16323 1.01947 0.71524
 C285 C 0.15266 1.01169 0.72921
 N286 N 0.13427 1.01069 0.72725
 H287 H 0.12476 0.96314 0.76071
 H288 H 0.14283 1.01556 0.77240
 H289 H 0.15991 1.00387 0.79945
 H290 H 0.14169 0.95030 0.78708
 H291 H 0.11116 1.01569 0.71041
 H292 H 0.12872 1.02976 0.68525
 H293 H 0.17787 1.02004 0.71695
 H294 H 0.15919 1.00637 0.74152
 C295 C 0.08897 0.95431 0.71526
 C296 C 0.08295 1.04391 0.77319
 C297 C 0.15480 1.02608 0.69905
 C298 C 0.15223 0.97606 0.79547
 C299 C 0.59265 0.51483 0.27231
 H300 H 0.59215 0.50086 0.27687
 C301 C 0.58251 0.52796 0.28151
 H302 H 0.57400 0.52396 0.29301
 C303 C 0.60482 0.53710 0.25212
 H304 H 0.61396 0.54074 0.24107
 C305 C 0.59489 0.55061 0.26086
 H306 H 0.59652 0.56451 0.25634
 N307 N 0.60357 0.51960 0.25795
 C308 C 0.61517 0.47156 0.22626
 H309 H 0.62988 0.47234 0.22595
 C310 C 0.60644 0.45800 0.21683
 H311 H 0.61458 0.44822 0.20948
 C312 C 0.58681 0.48336 0.23647
 H313 H 0.57923 0.49343 0.24395
 C314 C 0.57749 0.46993 0.22726
 H315 H 0.56274 0.46977 0.22772
 Zn316 Zn 0.61892 0.50174 0.24758
 N317 N 0.60533 0.48381 0.23592
 C318 C 0.63218 0.47327 0.27084
 N319 N 0.63296 0.49128 0.26698
 C320 C 0.64284 0.50239 0.27761
 C321 C 0.65258 0.49545 0.29274
 C322 C 0.64169 0.46577 0.28583
 C323 C 0.62556 0.51889 0.21394
 C324 C 0.63562 0.52700 0.19983
 C325 C 0.66305 0.52102 0.21745
 C326 C 0.65244 0.51303 0.23126
 N327 N 0.63402 0.51235 0.22937
 H328 H 0.62396 0.46469 0.26249
 H329 H 0.64292 0.51672 0.27446
 H330 H 0.66011 0.50457 0.30122
 H331 H 0.64099 0.45138 0.28858
 H332 H 0.61092 0.51788 0.21267
 H333 H 0.62861 0.53205 0.18763
 H334 H 0.67766 0.52176 0.21932
 H335 H 0.65894 0.50744 0.24347
 C336 C 0.58735 0.45706 0.21723
 C337 C 0.58370 0.54616 0.27589
 C338 C 0.65462 0.52825 0.20152
 C339 C 0.65200 0.47690 0.29707
 C340 C 0.89837 0.48081 0.78040
 H341 H 0.88932 0.48852 0.78903
 C342 C 0.90794 0.46604 0.78797
 H343 H 0.90612 0.46262 0.80239
 C344 C 0.91058 0.47503 0.75092
 H345 H 0.91121 0.47845 0.73640
 C346 C 0.92038 0.46010 0.75792
 H347 H 0.92879 0.45224 0.74874
 N348 N 0.89978 0.48498 0.76216
 C349 C 0.88887 0.53651 0.73398
 H350 H 0.87419 0.53678 0.73541
 C351 C 0.89761 0.55080 0.72512
 H352 H 0.88955 0.56215 0.71992
 C353 C 0.91714 0.52139 0.73937
 H354 H 0.92466 0.50990 0.74499
 C355 C 0.92648 0.53549 0.73063
 H356 H 0.94118 0.53463 0.72939
 Zn357 Zn 0.88477 0.50340 0.75151
 N358 N 0.89863 0.52205 0.74059
 C359 C 0.87890 0.52361 0.78277
 N360 N 0.87008 0.51415 0.76977
 C361 C 0.85158 0.51305 0.76968
 C362 C 0.84126 0.52135 0.78336
 C363 C 0.86913 0.53212 0.79664
 C364 C 0.87162 0.49818 0.71546
 C365 C 0.86170 0.48973 0.70185
 C366 C 0.84936 0.46965 0.72513
 C367 C 0.85957 0.47848 0.73833
 N368 N 0.87031 0.49256 0.73333
 H369 H 0.89361 0.52442 0.78238
 H370 H 0.84479 0.50586 0.75899
 H371 H 0.82655 0.52044 0.78303
 H372 H 0.87647 0.53927 0.80706
 H373 H 0.88055 0.50907 0.71163
 H374 H 0.86281 0.49456 0.68774
 H375 H 0.84105 0.45834 0.72932
 H376 H 0.85908 0.47401 0.75257
 C377 C 0.91664 0.55032 0.72315
 C378 C 0.91895 0.45531 0.77666
 C379 C 0.85043 0.47522 0.70658
 C380 C 0.85005 0.53102 0.79710
 C381 C 0.26703 0.39957 -0.01699
 H382 H 0.27130 0.39991 -0.00277
 C383 C 0.27678 0.40906 -0.03049
 H384 H 0.28856 0.41668 -0.02652
 C385 C 0.24722 0.38819 -0.03954
 H386 H 0.23601 0.37969 -0.04313
 C387 C 0.25654 0.39747 -0.05343
 H388 H 0.25205 0.39631 -0.06753
 N389 N 0.25263 0.38930 -0.02173
 C390 C 0.22011 0.37900 0.02741
 H391 H 0.21937 0.36448 0.02656
 C392 C 0.21097 0.38791 0.04141
 H393 H 0.20338 0.38008 0.05147
 C394 C 0.23126 0.40670 0.01541
 H395 H 0.23905 0.41395 0.00512
 C396 C 0.22236 0.41618 0.02930
 H397 H 0.22336 0.43073 0.02958
 Zn398 Zn 0.24172 0.37454 -0.00336
 N399 N 0.23013 0.38841 0.01487
 C400 C 0.26408 0.36094 0.02571
 N401 N 0.26056 0.36009 0.00740
 C402 C 0.27124 0.35000 -0.00382
 C403 C 0.28614 0.34018 0.00331
 C404 C 0.27880 0.35132 0.03342
 C405 C 0.20852 0.36893 -0.02061
 C406 C 0.19442 0.35936 -0.02852
 C407 C 0.21130 0.33169 -0.02208
 C408 C 0.22512 0.34183 -0.01430
 N409 N 0.22357 0.36013 -0.01391
 H410 H 0.25578 0.36941 0.03435
 H411 H 0.26832 0.34980 -0.01839
 H412 H 0.29446 0.33219 -0.00583
 H413 H 0.28161 0.35253 0.04794
 H414 H 0.20751 0.38347 -0.01982
 H415 H 0.18251 0.36665 -0.03366
 H416 H 0.21288 0.31717 -0.02255
 H417 H 0.23703 0.33505 -0.00859
 C418 C 0.21205 0.40674 0.04253
 C419 C 0.27173 0.40783 -0.04904
 C420 C 0.19573 0.34048 -0.02941
 C421 C 0.29014 0.34085 0.02217
 C422 C 0.76142 0.08613 1.01816
 H423 H 0.75793 0.07937 1.00569
 C424 C 0.76975 0.07631 1.03258
 H425 H 0.77258 0.06204 1.03105
 C426 C 0.76166 0.11272 1.03562
 H427 H 0.75830 0.12690 1.03682
 C428 C 0.76986 0.10343 1.05036
 H429 H 0.77311 0.11070 1.06266
 N430 N 0.75777 0.10409 1.01984
 C431 C 0.71662 0.10582 0.98083
 H432 H 0.70882 0.11494 0.98923
 C433 C 0.70782 0.09656 0.96701
 H434 H 0.69325 0.09844 0.96523
 C435 C 0.74499 0.09258 0.97266
 H436 H 0.75959 0.09151 0.97461
 C437 C 0.73672 0.08309 0.95860
 H438 H 0.74508 0.07471 0.94984
 Zn439 Zn 0.74672 0.11838 1.00082
 N440 N 0.73493 0.10383 0.98333
 C441 C 0.76517 0.13353 0.97006
 N442 N 0.76476 0.13246 0.98875
 C443 C 0.77724 0.14118 0.99900
 C444 C 0.79113 0.15096 0.99049
 C445 C 0.77883 0.14316 0.96098
 C446 C 0.71723 0.12614 1.02383
 C447 C 0.70388 0.13675 1.03222
 C448 C 0.71570 0.16289 1.01604
 C449 C 0.72886 0.15176 1.00796
 N450 N 0.72928 0.13374 1.01188
 H451 H 0.75488 0.12695 0.96211
 H452 H 0.77661 0.14037 1.01381
 H453 H 0.80119 0.15737 0.99893
 H454 H 0.77889 0.14385 0.94610
 H455 H 0.71790 0.11176 1.02668
 H456 H 0.69418 0.13036 1.04138
 H457 H 0.71558 0.17722 1.01281
 H458 H 0.73863 0.15750 0.99846
 C459 C 0.71792 0.08525 0.95545
 C460 C 0.77408 0.08499 1.04894
 C461 C 0.70294 0.15538 1.02830
 C462 C 0.79216 0.15189 0.97122
 C463 C 0.28178 0.59952 0.51777
 H464 H 0.29000 0.60661 0.50773
 C465 C 0.29035 0.58976 0.53202
 H466 H 0.30507 0.58985 0.53298
 C467 C 0.25274 0.59112 0.52893
 H468 H 0.23809 0.59166 0.52772
 C469 C 0.26075 0.58119 0.54341
 H470 H 0.25211 0.57411 0.55315
 N471 N 0.26327 0.60046 0.51673
 C472 C 0.23012 0.61145 0.46806
 H473 H 0.22817 0.62587 0.46931
 C474 C 0.22182 0.60248 0.45375
 H475 H 0.21328 0.61008 0.44412
 C476 C 0.24355 0.58408 0.47932
 H477 H 0.25219 0.57707 0.48927
 C478 C 0.23544 0.57453 0.46519
 H479 H 0.23798 0.56015 0.46429
 Zn480 Zn 0.25216 0.61592 0.49859
 N481 N 0.24090 0.60224 0.48033
 C482 C 0.27354 0.62968 0.46914
 N483 N 0.27036 0.63063 0.48752
 C484 C 0.28057 0.64133 0.49831
 C485 C 0.29453 0.65168 0.49066
 C486 C 0.28735 0.63979 0.46093
 C487 C 0.21793 0.62214 0.51445
 C488 C 0.20372 0.63190 0.52248
 C489 C 0.22183 0.65874 0.51975
 C490 C 0.23571 0.64846 0.51177
 N491 N 0.23369 0.63041 0.50955
 H492 H 0.26554 0.62091 0.46078
 H493 H 0.27809 0.64155 0.51296
 H494 H 0.30271 0.65983 0.49955
 H495 H 0.28955 0.63893 0.44626
 H496 H 0.21623 0.60798 0.51180
 H497 H 0.19124 0.62506 0.52610
 H498 H 0.22386 0.67301 0.52171
 H499 H 0.24804 0.65499 0.50735
 C500 C 0.22458 0.58380 0.45205
 C501 C 0.27980 0.58073 0.54532
 C502 C 0.20560 0.65045 0.52533
 C503 C 0.29812 0.65092 0.47173
 C504 C 0.77137 0.90136 0.48513
 H505 H 0.77621 0.90178 0.49916
 C506 C 0.78065 0.91067 0.47117
 H507 H 0.79264 0.91824 0.47458
 C508 C 0.75061 0.88991 0.46351
 H509 H 0.73924 0.88142 0.46045
 C510 C 0.75943 0.89901 0.44917
 H511 H 0.75439 0.89774 0.43528
 N512 N 0.75676 0.89110 0.48107
 C513 C 0.72693 0.88036 0.53188
 H514 H 0.72618 0.86585 0.53090
 C515 C 0.71889 0.88901 0.54669
 H516 H 0.71179 0.88105 0.55700
 C517 C 0.73690 0.90830 0.51933
 H518 H 0.74392 0.91571 0.50858
 C519 C 0.72896 0.91755 0.53394
 H520 H 0.73011 0.93207 0.53446
 Zn521 Zn 0.74668 0.87628 0.49989
 N522 N 0.73597 0.89000 0.51875
 C523 C 0.77031 0.86257 0.52785
 N524 N 0.76595 0.86174 0.50972
 C525 C 0.77599 0.85148 0.49806
 C526 C 0.79095 0.84135 0.50459
 C527 C 0.78510 0.85264 0.53495
 C528 C 0.71270 0.87075 0.48417
 C529 C 0.69828 0.86121 0.47682
 C530 C 0.71547 0.83354 0.48224
 C531 C 0.72959 0.84363 0.48953
 N532 N 0.72804 0.86192 0.49013
 H533 H 0.76258 0.87121 0.53682
 H534 H 0.77243 0.85131 0.48363
 H535 H 0.79870 0.83317 0.49513
 H536 H 0.78852 0.85376 0.54935
 H537 H 0.71177 0.88529 0.48501
 H538 H 0.68637 0.86856 0.47179
 H539 H 0.71688 0.81898 0.48194
 H540 H 0.74170 0.83682 0.49473
 C541 C 0.72001 0.90783 0.54799
 C542 C 0.77489 0.90927 0.45284
 C543 C 0.69957 0.84234 0.47572
 C544 C 0.79568 0.84188 0.52328
 C545 C -0.02417 0.26123 0.41291
 H546 H -0.01146 0.25780 0.41969
 C547 C -0.03820 0.26950 0.42284
 H548 H -0.03615 0.27234 0.43722
 C549 C -0.04254 0.26146 0.38613
 H550 H -0.04420 0.25818 0.37182
 C551 C -0.05691 0.26962 0.39552
 H552 H -0.06942 0.27288 0.38820
 N553 N -0.02649 0.25762 0.39481
 C554 C 0.01305 0.21717 0.39373
 H555 H 0.00440 0.20939 0.38502
 C556 C 0.02758 0.20857 0.40285
 H557 H 0.02965 0.19419 0.40131
 C558 C 0.02120 0.24529 0.40593
 H559 H 0.01895 0.25972 0.40659
 C560 C 0.03598 0.23723 0.41524
 H561 H 0.04499 0.24558 0.42306
 Zn562 Zn -0.00794 0.24689 0.38032
 N563 N 0.01023 0.23526 0.39521
 C564 C 0.02164 0.26497 0.36355
 N565 N 0.00317 0.26494 0.36534
 C566 C -0.00741 0.27795 0.35702
 C567 C 0.00056 0.29206 0.34702
 C568 C 0.03017 0.27882 0.35366
 C569 C -0.03030 0.21758 0.37372
 C570 C -0.03827 0.20402 0.36360
 C571 C -0.02308 0.21562 0.33643
 C572 C -0.01541 0.22901 0.34709
 N573 N -0.01898 0.22960 0.36540
 H574 H 0.02983 0.25434 0.36992
 H575 H -0.02205 0.27759 0.35834
 H576 H -0.00810 0.30235 0.34062
 H577 H 0.04491 0.27885 0.35287
 H578 H -0.03285 0.21837 0.38833
 H579 H -0.04684 0.19429 0.37060
 H580 H -0.02006 0.21529 0.32188
 H581 H -0.00639 0.23876 0.34079
 C582 C 0.03953 0.21867 0.41346
 C583 C -0.05482 0.27384 0.41410
 C584 C -0.03458 0.20281 0.34472
 C585 C 0.01962 0.29276 0.34546
 C586 C 1.01698 0.77415 0.09731
 H587 H 1.00302 0.77903 0.09650
 C588 C 1.03079 0.78362 0.08823
 H589 H 1.02735 0.79582 0.08045
 C590 C 1.03856 0.75299 0.10948
 H591 H 1.04169 0.74137 0.11816
 C592 C 1.05273 0.76200 0.10064
 H593 H 1.06655 0.75687 0.10230
 N594 N 1.02110 0.75922 0.10781
 C595 C 0.97157 0.72867 0.11715
 H596 H 0.97240 0.72747 0.13197
 C597 C 0.95774 0.72005 0.10781
 H598 H 0.94778 0.71243 0.11560
 C599 C 0.98362 0.74021 0.08911
 H600 H 0.99392 0.74787 0.08191
 C601 C 0.96989 0.73185 0.07918
 H602 H 0.96971 0.73314 0.06433
 Zn603 Zn 1.00257 0.74852 0.12232
 N604 N 0.98411 0.73854 0.10776
 C605 C 0.97450 0.77109 0.13630
 N606 N 0.99256 0.76676 0.13728
 C607 C 1.00407 0.77611 0.14805
 C608 C 0.99747 0.79036 0.15854
 C609 C 0.96733 0.78521 0.14656
 C610 C 1.01854 0.71460 0.12750
 C611 C 1.02604 0.69971 0.13697
 C612 C 1.02060 0.71499 0.16550
 C613 C 1.01320 0.72964 0.15545
 N614 N 1.01254 0.72926 0.13678
 H615 H 0.96565 0.76385 0.12729
 H616 H 1.01843 0.77257 0.14835
 H617 H 1.00682 0.79757 0.16712
 H618 H 0.95298 0.78865 0.14531
 H619 H 1.01753 0.71455 0.11267
 H620 H 1.03065 0.68815 0.12930
 H621 H 1.02133 0.71562 0.18033
 H622 H 1.00803 0.74127 0.16259
 C623 C 0.95680 0.72151 0.08857
 C624 C 1.04900 0.77774 0.09014
 C625 C 1.02725 0.69981 0.15622
 C626 C 0.97887 0.79511 0.15782
 C627 C 0.51381 0.27672 0.59616
 H628 H 0.49995 0.28188 0.59545
 C629 C 0.52778 0.28599 0.58712
 H630 H 0.52455 0.29832 0.57946
 C631 C 0.53502 0.25509 0.60813
 H632 H 0.53796 0.24337 0.61675
 C633 C 0.54934 0.26387 0.59931
 H634 H 0.56306 0.25848 0.60090
 N635 N 0.51768 0.26168 0.60658
 C636 C 0.46694 0.23324 0.61650
 H637 H 0.46780 0.23214 0.63133
 C638 C 0.45234 0.22569 0.60736
 H639 H 0.44204 0.21865 0.61527
 C640 C 0.47971 0.24339 0.58826
 H641 H 0.49051 0.25021 0.58092
 C642 C 0.46534 0.23590 0.57850
 H643 H 0.46503 0.23722 0.56365
 Zn644 Zn 0.49903 0.25148 0.62128
 N645 N 0.48011 0.24208 0.60693
 C646 C 0.47184 0.27508 0.63516
 N647 N 0.48972 0.27004 0.63629
 C648 C 0.50152 0.27893 0.64716
 C649 C 0.49541 0.29343 0.65760
 C650 C 0.46517 0.28947 0.64535
 C651 C 0.51423 0.21723 0.62626
 C652 C 0.52178 0.20228 0.63560
 C653 C 0.51712 0.21768 0.66420
 C654 C 0.50967 0.23238 0.65428
 N655 N 0.50865 0.23198 0.63562
 H656 H 0.46273 0.26819 0.62613
 H657 H 0.51575 0.27491 0.64749
 H658 H 0.50507 0.30053 0.66593
 H659 H 0.45086 0.29317 0.64434
 H660 H 0.51296 0.21717 0.61145
 H661 H 0.52613 0.19067 0.62787
 H662 H 0.51821 0.21835 0.67901
 H663 H 0.50482 0.24409 0.66149
 C664 C 0.45133 0.22705 0.58812
 C665 C 0.54588 0.27977 0.58897
 C666 C 0.52346 0.20244 0.65482
 C667 C 0.47702 0.29894 0.65667
 C668 C 0.48089 0.77346 0.90812
 H669 H 0.49476 0.77814 0.90874
 C670 C 0.46706 0.78260 0.91754
 H671 H 0.47043 0.79432 0.92541
 C672 C 0.45948 0.75326 0.89603
 H673 H 0.45642 0.74217 0.88724
 C674 C 0.44529 0.76194 0.90523
 H675 H 0.43154 0.75708 0.90373
 N676 N 0.47686 0.75919 0.89748
 C677 C 0.52713 0.72927 0.88653
 H678 H 0.52571 0.72860 0.87176
 C679 C 0.54222 0.72127 0.89519
 H680 H 0.55228 0.71426 0.88699
 C681 C 0.51552 0.73914 0.91508
 H682 H 0.50506 0.74615 0.92271
 C683 C 0.53044 0.73122 0.92436
 H684 H 0.53146 0.73236 0.93913
 Zn685 Zn 0.49536 0.74924 0.88246
 N686 N 0.51436 0.73828 0.89645
 C687 C 0.52279 0.77259 0.86930
 N688 N 0.50487 0.76840 0.86787
 C689 C 0.49331 0.77852 0.85709
 C690 C 0.49974 0.79342 0.84705
 C691 C 0.52976 0.78734 0.85955
 C692 C 0.47995 0.71586 0.87671
 C693 C 0.47253 0.70172 0.86702
 C694 C 0.47728 0.71879 0.83880
 C695 C 0.48461 0.73266 0.84907
 N696 N 0.48557 0.73104 0.86770
 H697 H 0.53171 0.76473 0.87826
 H698 H 0.47903 0.77514 0.85651
 H699 H 0.49029 0.80148 0.83877
 H700 H 0.54410 0.79034 0.86080
 H701 H 0.48119 0.71481 0.89152
 H702 H 0.46822 0.68972 0.87448
 H703 H 0.47631 0.72042 0.82400
 H704 H 0.48948 0.74468 0.84213
 C705 C 0.54416 0.72239 0.91432
 C706 C 0.44892 0.77705 0.91586
 C707 C 0.47100 0.70311 0.84781
 C708 C 0.51818 0.79806 0.84833
 C709 C 0.45124 -0.18414 0.33939
 C710 C 0.46380 -0.17040 0.34192
 C711 C 0.47887 -0.17347 0.35344
 C712 C 0.48134 -0.19022 0.36243
 C713 C 0.46871 -0.20408 0.36002
 C714 C 0.45367 -0.20086 0.34836
 C715 C 0.46096 -0.15313 0.33284
 C716 C 0.45803 -0.13879 0.32518
 C717 C 0.45393 -0.12215 0.31621
 C718 C 0.44982 -0.10805 0.30861
 C719 C 0.44415 -0.09138 0.29967
 C720 C 0.43731 -0.09145 0.28172
 C721 C 0.43024 -0.07557 0.27360
 C722 C 0.42986 -0.05939 0.28337
 C723 C 0.43727 -0.05935 0.30122
 C724 C 0.44434 -0.07525 0.30931
 H725 H 0.43955 -0.18192 0.33048
 H726 H 0.48864 -0.16290 0.35555
 H727 H 0.49296 -0.19225 0.37145
 H728 H 0.44388 -0.21134 0.34599
 H729 H 0.43698 -0.10388 0.27418
 H730 H 0.42441 -0.07612 0.25995
 H731 H 0.43737 -0.04707 0.30901
 H732 H 0.44959 -0.07504 0.32322
 C733 C 0.97696 0.32111 0.84834
 C734 C 0.96020 0.32604 0.84047
 C735 C 0.94578 0.31399 0.84122
 C736 C 0.94801 0.29707 0.84982
 C737 C 0.96485 0.29173 0.85793
 C738 C 0.97931 0.30416 0.85694
 C739 C 0.95761 0.34349 0.83169
 C740 C 0.95488 0.35801 0.82432
 C741 C 0.95102 0.37488 0.81572
 C742 C 0.94711 0.38919 0.80842
 C743 C 0.94168 0.40611 0.79984
 C744 C 0.93463 0.40646 0.78196
 C745 C 0.92780 0.42260 0.77418
 C746 C 0.92787 0.43861 0.78422
 C747 C 0.93547 0.43821 0.80199
 C748 C 0.94230 0.42206 0.80975
 H749 H 0.98820 0.33042 0.84797
 H750 H 0.93276 0.31762 0.83502
 H751 H 0.93662 0.28802 0.84930
 H752 H 0.99232 0.30128 0.86342
 H753 H 0.93396 0.39417 0.77422
 H754 H 0.92181 0.42239 0.76059
 H755 H 0.93591 0.45035 0.80998
 H756 H 0.94771 0.42193 0.82361
 C757 C 0.01934 1.17339 0.84046
 C758 C 0.03380 1.16235 0.84656
 C759 C 0.04488 1.16796 0.86088
 C760 C 0.04174 1.18468 0.86891
 C761 C 0.02739 1.19628 0.86274
 C762 C 0.01610 1.19012 0.84846
 C763 C 0.03779 1.14562 0.83761
 C764 C 0.04157 1.13182 0.82990
 C765 C 0.04653 1.11594 0.82066
 C766 C 0.05129 1.10264 0.81260
 C767 C 0.05765 1.08712 0.80277
 C768 C 0.06522 1.07223 0.81235
 C769 C 0.07290 1.05786 0.80273
 C770 C 0.07317 1.05825 0.78338
 C771 C 0.06505 1.07304 0.77389
 C772 C 0.05736 1.08737 0.78353
 H773 H 0.01077 1.16925 0.82923
 H774 H 0.05606 1.15944 0.86581
 H775 H 0.05037 1.18811 0.88031
 H776 H 0.00529 1.19849 0.84260
 H777 H 0.06562 1.07194 0.82724
 H778 H 0.07925 1.04679 0.81042
 H779 H 0.06486 1.07362 0.75901
 H780 H 0.05155 1.09884 0.77598
 C781 C 0.52555 0.67852 0.34028
 C782 C 0.53697 0.66566 0.34896
 C783 C 0.54525 0.66961 0.36570
 C784 C 0.54231 0.68642 0.37362
 C785 C 0.53104 0.69952 0.36488
 C786 C 0.52258 0.69533 0.34818
 C787 C 0.54081 0.64876 0.34029
 C788 C 0.54439 0.63483 0.33276
 C789 C 0.54905 0.61879 0.32364
 C790 C 0.55351 0.60538 0.31561
 C791 C 0.55947 0.58975 0.30574
 C792 C 0.56683 0.57471 0.31523
 C793 C 0.57414 0.56021 0.30553
 C794 C 0.57425 0.56063 0.28618
 C795 C 0.56632 0.57557 0.27678
 C796 C 0.55900 0.59003 0.28651
 H797 H 0.51917 0.67565 0.32726
 H798 H 0.55414 0.65976 0.37253
 H799 H 0.54883 0.68917 0.38659
 H800 H 0.51403 0.70521 0.34098
 H801 H 0.56737 0.57440 0.33012
 H802 H 0.58035 0.54901 0.31316
 H803 H 0.56601 0.57618 0.26190
 H804 H 0.55335 0.60160 0.27901
 C805 C 0.52466 0.32572 0.15670
 C806 C 0.53616 0.33829 0.14824
 C807 C 0.54458 0.33425 0.13153
 C808 C 0.54178 0.31758 0.12347
 C809 C 0.53053 0.30470 0.13204
 C810 C 0.52183 0.30903 0.14865
 C811 C 0.54014 0.35495 0.15711
 C812 C 0.54409 0.36871 0.16457
 C813 C 0.54946 0.38461 0.17327
 C814 C 0.55472 0.39797 0.18064
 C815 C 0.56185 0.41363 0.18932
 C816 C 0.57602 0.42313 0.18089
 C817 C 0.58401 0.43751 0.18979
 C818 C 0.57795 0.44260 0.20730
 C819 C 0.56337 0.43329 0.21549
 C820 C 0.55540 0.41885 0.20656
 H821 H 0.51817 0.32866 0.16970
 H822 H 0.55352 0.34388 0.12488
 H823 H 0.54849 0.31472 0.11058
 H824 H 0.51327 0.29931 0.15569
 H825 H 0.58112 0.41921 0.16755
 H826 H 0.59503 0.44460 0.18302
 H827 H 0.55852 0.43680 0.22903
 H828 H 0.54450 0.41152 0.21326
 C829 C 0.05254 0.82767 0.63310
 C830 C 0.04105 0.83369 0.64707
 C831 C 0.02655 0.82302 0.65293
 C832 C 0.02368 0.80625 0.64506
 C833 C 0.03540 0.79968 0.63116
 C834 C 0.04977 0.81092 0.62521
 C835 C 0.04467 0.85049 0.65581
 C836 C 0.04829 0.86441 0.66315
 C837 C 0.05324 0.88050 0.67174
 C838 C 0.05813 0.89406 0.67902
 C839 C 0.06481 0.90998 0.68760
 C840 C 0.05807 0.91522 0.70472
 C841 C 0.06559 0.92995 0.71356
 C842 C 0.08001 0.93953 0.70540
 C843 C 0.08636 0.93440 0.68800
 C844 C 0.07882 0.91973 0.67919
 H845 H 0.06374 0.83590 0.62834
 H846 H 0.01765 0.82749 0.66387
 H847 H 0.01280 0.79817 0.65072
 H848 H 0.05872 0.80717 0.61407
 H849 H 0.04729 0.90770 0.71140
 H850 H 0.06054 0.93348 0.72701
 H851 H 0.09726 0.94168 0.68125
 H852 H 0.08413 0.91580 0.66595
 C853 C 0.96050 0.67462 0.63513
 C854 C 0.96861 0.67067 0.65218
 C855 C 0.97982 0.68337 0.66030
 C856 C 0.98269 0.70007 0.65151
 C857 C 0.97430 0.70428 0.63452
 C858 C 0.96332 0.69129 0.62634
 C859 C 0.96466 0.65395 0.66169
 C860 C 0.96068 0.64009 0.66957
 C861 C 0.95521 0.62406 0.67866
 C862 C 0.94977 0.61056 0.68625
 C863 C 0.94230 0.59474 0.69504
 C864 C 0.95033 0.58711 0.71091
 C865 C 0.94225 0.57238 0.71991
 C866 C 0.92596 0.56522 0.71317
 C867 C 0.91824 0.57277 0.69701
 C868 C 0.92635 0.58742 0.68803
 H869 H 0.95178 0.66490 0.62874
 H870 H 0.98608 0.68050 0.67355
 H871 H 0.99104 0.70986 0.65824
 H872 H 0.95689 0.69405 0.61316
 H873 H 0.96265 0.59273 0.71649
 H874 H 0.94841 0.56693 0.73240
 H875 H 0.90588 0.56737 0.69132
 H876 H 0.92002 0.59320 0.67575
 C877 C 0.47772 0.18632 0.15961
 C878 C 0.46677 0.17348 0.15137
 C879 C 0.45846 0.17749 0.13443
 C880 C 0.46083 0.19435 0.12588
 C881 C 0.47154 0.20747 0.13419
 C882 C 0.48013 0.20320 0.15107
 C883 C 0.46327 0.15654 0.16065
 C884 C 0.45966 0.14248 0.16835
 C885 C 0.45459 0.12621 0.17723
 C886 C 0.44947 0.11249 0.18465
 C887 C 0.44235 0.09641 0.19323
 C888 C 0.45026 0.08903 0.20928
 C889 C 0.44241 0.07408 0.21814
 C890 C 0.42650 0.06646 0.21106
 C891 C 0.41894 0.07374 0.19470
 C892 C 0.42681 0.08860 0.18588
 H893 H 0.48412 0.18341 0.17279
 H894 H 0.44995 0.16765 0.12794
 H895 H 0.45426 0.19715 0.11277
 H896 H 0.48829 0.21310 0.15789
 H897 H 0.46225 0.09502 0.21514
 H898 H 0.44844 0.06883 0.23078
 H899 H 0.40687 0.06798 0.18877
 H900 H 0.42059 0.09418 0.17345
 C901 C 0.34784 0.47590 -0.17483
 C902 C 0.35348 0.46141 -0.16351
 C903 C 0.36850 0.45085 -0.16857
 C904 C 0.37760 0.45443 -0.18509
 C905 C 0.37182 0.46870 -0.19707
 C906 C 0.35691 0.47959 -0.19136
 C907 C 0.34324 0.45664 -0.14728
 C908 C 0.33447 0.45205 -0.13402
 C909 C 0.32402 0.44594 -0.11889
 C910 C 0.31497 0.44008 -0.10635
 C911 C 0.30405 0.43228 -0.09188
 C912 C 0.29686 0.41509 -0.09407
 C913 C 0.28631 0.40723 -0.08017
 C914 C 0.28275 0.41647 -0.06383
 C915 C 0.29005 0.43375 -0.06172
 C916 C 0.30062 0.44162 -0.07569
 H917 H 0.33609 0.48407 -0.17112
 H918 H 0.37309 0.43965 -0.15982
 H919 H 0.38942 0.44613 -0.18812
 H920 H 0.35137 0.49036 -0.20004
 H921 H 0.29950 0.40771 -0.10650
 H922 H 0.28120 0.39378 -0.08210
 H923 H 0.28743 0.44124 -0.04936
 H924 H 0.30611 0.45494 -0.07386
 C925 C 0.84776 0.97402 0.32325
 C926 C 0.85356 0.95967 0.33467
 C927 C 0.86836 0.94890 0.32942
 C928 C 0.87712 0.95217 0.31265
 C929 C 0.87121 0.96635 0.30061
 C930 C 0.85649 0.97741 0.30647
 C931 C 0.84374 0.95532 0.35128
 C932 C 0.83533 0.95109 0.36491
 C933 C 0.82529 0.94543 0.38050
 C934 C 0.81658 0.93994 0.39346
 C935 C 0.80604 0.93256 0.40845
 C936 C 0.79850 0.91546 0.40682
 C937 C 0.78832 0.90799 0.42122
 C938 C 0.78549 0.91753 0.43751
 C939 C 0.79314 0.93473 0.43906
 C940 C 0.80334 0.94221 0.42458
 H941 H 0.83617 0.98235 0.32711
 H942 H 0.87305 0.93780 0.33823
 H943 H 0.88880 0.94374 0.30949
 H944 H 0.85085 0.98810 0.29776
 H945 H 0.80057 0.90783 0.39444
 H946 H 0.78294 0.89458 0.41971
 H947 H 0.79110 0.94246 0.45137
 H948 H 0.80912 0.95547 0.42598
 C949 C 0.84563 0.01854 1.18000
 C950 C 0.85015 0.03318 1.16856
 C951 C 0.86394 0.04478 1.17379
 C952 C 0.87292 0.04205 1.19057
 C953 C 0.86825 0.02761 1.20264
 C954 C 0.85460 0.01571 1.19681
 C955 C 0.84006 0.03695 1.15192
 C956 C 0.83148 0.04079 1.13822
 C957 C 0.82132 0.04610 1.12249
 C958 C 0.81258 0.05135 1.10935
 C959 C 0.80210 0.05852 1.09407
 C960 C 0.78731 0.07015 1.09736
 C961 C 0.77790 0.07837 1.08267
 C962 C 0.78317 0.07510 1.06444
 C963 C 0.79772 0.06298 1.06122
 C964 C 0.80717 0.05479 1.07598
 H965 H 0.83483 0.00956 1.17616
 H966 H 0.86766 0.05609 1.16495
 H967 H 0.88382 0.05114 1.19371
 H968 H 0.84994 0.00473 1.20554
 H969 H 0.78327 0.07314 1.11131
 H970 H 0.76659 0.08743 1.08556
 H971 H 0.80219 0.06033 1.04734
 H972 H 0.81866 0.04587 1.07328
 C973 C 0.36766 0.54434 0.67423
 C974 C 0.35143 0.53544 0.67052
 C975 C 0.34401 0.52372 0.68377
 C976 C 0.35265 0.52109 0.70077
 C977 C 0.36882 0.53021 0.70475
 C978 C 0.37632 0.54175 0.69122
 C979 C 0.34200 0.53898 0.65344
 C980 C 0.33399 0.54241 0.63930
 C981 C 0.32451 0.54701 0.62295
 C982 C 0.31635 0.55147 0.60917
 C983 C 0.30657 0.55750 0.59296
 C984 C 0.28978 0.56649 0.59472
 C985 C 0.28083 0.57359 0.57917
 C986 C 0.28859 0.57182 0.56160
 C987 C 0.30528 0.56237 0.55992
 C988 C 0.31422 0.55528 0.57551
 H989 H 0.37352 0.55346 0.66408
 H990 H 0.33139 0.51684 0.68108
 H991 H 0.34642 0.51230 0.71098
 H992 H 0.38886 0.54878 0.69379
 H993 H 0.28380 0.56838 0.60818
 H994 H 0.26816 0.58102 0.58098
 H995 H 0.31150 0.56061 0.54656
 H996 H 0.32722 0.54835 0.57399
 C997 C 0.14643 0.51478 0.32953
 C998 C 0.15768 0.52974 0.33129
 C999 C 0.15993 0.54174 0.31639
 C1000 C 0.15083 0.53899 0.29988
 C1001 C 0.13928 0.52417 0.29801
 C1002 C 0.13730 0.51197 0.31295
 C1003 C 0.16658 0.53332 0.34842
 C1004 C 0.17414 0.53731 0.36244
 C1005 C 0.18307 0.54309 0.37839
 C1006 C 0.19072 0.54896 0.39159
 C1007 C 0.19983 0.55708 0.40677
 C1008 C 0.20805 0.57383 0.40406
 C1009 C 0.21628 0.58236 0.41875
 C1010 C 0.21640 0.57426 0.43641
 C1011 C 0.20839 0.55726 0.43898
 C1012 C 0.20010 0.54874 0.42423
 H1013 H 0.14455 0.50543 0.34101
 H1014 H 0.16863 0.55334 0.31758
 H1015 H 0.15285 0.54844 0.28853
 H1016 H 0.12841 0.50051 0.31194
 H1017 H 0.20796 0.58040 0.39061
 H1018 H 0.22260 0.59529 0.41627
 H1019 H 0.20816 0.55077 0.45246
 H1020 H 0.19372 0.53579 0.42648
 C1021 C 0.65613 0.01930 0.82242
 C1022 C 0.65070 0.03385 0.83312
 C1023 C 0.63645 0.04521 0.82712
 C1024 C 0.62789 0.04233 0.81033
 C1025 C 0.63344 0.02798 0.79899
 C1026 C 0.64757 0.01631 0.80559
 C1027 C 0.66012 0.03773 0.84989
 C1028 C 0.66787 0.04178 0.86378
 C1029 C 0.67671 0.04744 0.87983
 C1030 C 0.68402 0.05307 0.89335
 C1031 C 0.69239 0.06075 0.90921
 C1032 C 0.68757 0.07832 0.91412
 C1033 C 0.69580 0.08618 0.92919
 C1034 C 0.70900 0.07657 0.93966
 C1035 C 0.71376 0.05887 0.93465
 C1036 C 0.70548 0.05101 0.91951
 H1037 H 0.66726 0.01048 0.82688
 H1038 H 0.63201 0.05643 0.83540
 H1039 H 0.61659 0.05121 0.80664
 H1040 H 0.65286 0.00540 0.79744
 H1041 H 0.67754 0.08602 0.90617
 H1042 H 0.69207 0.09994 0.93244
 H1043 H 0.72377 0.05109 0.94252
 H1044 H 0.70932 0.03739 0.91582
 C1045 C 0.64243 0.97480 0.67322
 C1046 C 0.65258 0.95885 0.67099
 C1047 C 0.65389 0.94619 0.68549
 C1048 C 0.64506 0.94938 0.70213
 C1049 C 0.63474 0.96530 0.70452
 C1050 C 0.63358 0.97804 0.68990
 C1051 C 0.66153 0.95518 0.65383
 C1052 C 0.66914 0.95138 0.63972
 C1053 C 0.67816 0.94603 0.62355
 C1054 C 0.68593 0.94064 0.61009
 C1055 C 0.69524 0.93319 0.59451
 C1056 C 0.70551 0.91726 0.59685
 C1057 C 0.71382 0.90925 0.58177
 C1058 C 0.71196 0.91704 0.56405
 C1059 C 0.70195 0.93329 0.56184
 C1060 C 0.69358 0.94129 0.57700
 H1061 H 0.64128 0.98467 0.66206
 H1062 H 0.66175 0.93382 0.68392
 H1063 H 0.64646 0.93946 0.71321
 H1064 H 0.62560 0.99034 0.69128
 H1065 H 0.70691 0.91090 0.61034
 H1066 H 0.72168 0.89690 0.58395
 H1067 H 0.70018 0.93952 0.54834
 H1068 H 0.68561 0.95360 0.57502
 C1069 C 0.15684 0.46837 0.17985
 C1070 C 0.14786 0.45752 0.16732
 C1071 C 0.13117 0.44984 0.17212
 C1072 C 0.12359 0.45275 0.18945
 C1073 C 0.13264 0.46340 0.20225
 C1074 C 0.14927 0.47132 0.19719
 C1075 C 0.15611 0.45355 0.14989
 C1076 C 0.16302 0.44965 0.13545
 C1077 C 0.17106 0.44439 0.11874
 C1078 C 0.17787 0.43924 0.10468
 C1079 C 0.18591 0.43228 0.08818
 C1080 C 0.17685 0.41901 0.07849
 C1081 C 0.18515 0.41107 0.06333
 C1082 C 0.20268 0.41627 0.05766
 C1083 C 0.21147 0.43000 0.06716
 C1084 C 0.20314 0.43791 0.08237
 H1085 H 0.16982 0.47429 0.17632
 H1086 H 0.12411 0.44141 0.16254
 H1087 H 0.11066 0.44667 0.19285
 H1088 H 0.15666 0.47941 0.20682
 H1089 H 0.16351 0.41454 0.08286
 H1090 H 0.17794 0.40072 0.05613
 H1091 H 0.22504 0.43416 0.06322
 H1092 H 0.21032 0.44811 0.08984
 C1093 C -0.17497 0.36691 0.45912
 C1094 C -0.17146 0.35012 0.46768
 C1095 C -0.18425 0.34275 0.47985
 C1096 C -0.20063 0.35199 0.48324
 C1097 C -0.20444 0.36872 0.47443
 C1098 C -0.19134 0.37617 0.46247
 C1099 C -0.15518 0.34005 0.46321
 C1100 C -0.14181 0.33147 0.45895
 C1101 C -0.12646 0.32130 0.45332
 C1102 C -0.11364 0.31255 0.44791
 C1103 C -0.09873 0.30206 0.44066
 C1104 C -0.08067 0.30690 0.44397
 C1105 C -0.06630 0.29740 0.43576
 C1106 C -0.06987 0.28300 0.42405
 C1107 C -0.08805 0.27797 0.42121
 C1108 C -0.10236 0.28745 0.42945
 H1109 H -0.16517 0.37273 0.44965
 H1110 H -0.18173 0.32971 0.48645
 H1111 H -0.21053 0.34579 0.49232
 H1112 H -0.19379 0.38912 0.45567
 H1113 H -0.07771 0.31824 0.45256
 H1114 H -0.05246 0.30169 0.43806
 H1115 H -0.09120 0.26679 0.41249
 H1116 H -0.11628 0.28357 0.42681
 C1117 C 0.32004 0.84818 0.98112
 C1118 C 0.33075 0.85372 0.96623
 C1119 C 0.32474 0.86798 0.95480
 C1120 C 0.30793 0.87646 0.95799
 C1121 C 0.29663 0.87082 0.97274
 C1122 C 0.30322 0.85664 0.98442
 C1123 C 0.34744 0.84421 0.96202
 C1124 C 0.36113 0.83607 0.95789
 C1125 C 0.37679 0.82634 0.95231
 C1126 C 0.38978 0.81788 0.94682
 C1127 C 0.40475 0.80762 0.93936
 C1128 C 0.40311 0.80053 0.92180
 C1129 C 0.41745 0.79058 0.91425
 C1130 C 0.43370 0.78751 0.92418
 C1131 C 0.43529 0.79473 0.94183
 C1132 C 0.42087 0.80471 0.94939
 H1133 H 0.32449 0.83701 0.98996
 H1134 H 0.33299 0.87247 0.94327
 H1135 H 0.30419 0.88776 0.94905
 H1136 H 0.29509 0.85121 0.99557
 H1137 H 0.39074 0.80277 0.91388
 H1138 H 0.41591 0.78552 0.90050
 H1139 H 0.44759 0.79250 0.94985
 H1140 H 0.42228 0.81014 0.96301
 C1141 C 1.17245 0.86060 0.02634
 C1142 C 1.16834 0.85300 0.04355
 C1143 C 1.18102 0.85375 0.05779
 C1144 C 1.19780 0.86198 0.05491
 C1145 C 1.20237 0.86972 0.03758
 C1146 C 1.18926 0.86886 0.02334
 C1147 C 1.15128 0.84413 0.04677
 C1148 C 1.13732 0.83640 0.05025
 C1149 C 1.12141 0.82703 0.05528
 C1150 C 1.10827 0.81876 0.06042
 C1151 C 1.09319 0.80861 0.06760
 C1152 C 1.09456 0.80072 0.08519
 C1153 C 1.08019 0.79073 0.09244
 C1154 C 1.06417 0.78841 0.08219
 C1155 C 1.06282 0.79648 0.06454
 C1156 C 1.07728 0.80650 0.05727
 H1157 H 1.16265 0.86020 0.01522
 H1158 H 1.17805 0.84773 0.07115
 H1159 H 1.20739 0.86141 0.06619
 H1160 H 1.19154 0.87507 0.00997
 H1161 H 1.10677 0.80234 0.09334
 H1162 H 1.08153 0.78501 0.10621
 H1163 H 1.05070 0.79484 0.05628
 H1164 H 1.07608 0.81254 0.04362
 C1165 C 0.66924 0.36530 0.52878
 C1166 C 0.66645 0.35408 0.54423
 C1167 C 0.68058 0.35108 0.55689
 C1168 C 0.69744 0.35920 0.55416
 C1169 C 0.70042 0.37048 0.53869
 C1170 C 0.68614 0.37345 0.52601
 C1171 C 0.64922 0.34550 0.54727
 C1172 C 0.63511 0.33795 0.55055
 C1173 C 0.61905 0.32872 0.55531
 C1174 C 0.60578 0.32053 0.56021
 C1175 C 0.59055 0.31041 0.56712
 C1176 C 0.59179 0.30217 0.58455
 C1177 C 0.57728 0.29222 0.59157
 C1178 C 0.56125 0.29030 0.58122
 C1179 C 0.56005 0.29871 0.56371
 C1180 C 0.57466 0.30868 0.55669
 H1181 H 0.65838 0.36774 0.51891
 H1182 H 0.67859 0.34237 0.56886
 H1183 H 0.70824 0.35640 0.56401
 H1184 H 0.68798 0.38220 0.51406
 H1185 H 0.60399 0.30348 0.59278
 H1186 H 0.57851 0.28625 0.60524
 H1187 H 0.54793 0.29739 0.55539
 H1188 H 0.57357 0.31500 0.54315
 C1189 C 0.31999 0.16542 0.52238
 C1190 C 0.33304 0.15738 0.53409
 C1191 C 0.32966 0.14055 0.54240
 C1192 C 0.31318 0.13192 0.53927
 C1193 C 0.29983 0.14005 0.52779
 C1194 C 0.30350 0.15680 0.51921
 C1195 C 0.34943 0.16682 0.53842
 C1196 C 0.36291 0.17484 0.54263
 C1197 C 0.37838 0.18432 0.54833
 C1198 C 0.39129 0.19243 0.55391
 C1199 C 0.40629 0.20207 0.56154
 C1200 C 0.40340 0.21244 0.57713
 C1201 C 0.41800 0.22091 0.58548
 C1202 C 0.43574 0.21912 0.57835
 C1203 C 0.43848 0.20907 0.56237
 C1204 C 0.42382 0.20054 0.55405
 H1205 H 0.32241 0.17850 0.51599
 H1206 H 0.33966 0.13422 0.55153
 H1207 H 0.31084 0.11893 0.54587
 H1208 H 0.29341 0.16349 0.51049
 H1209 H 0.38989 0.21374 0.58303
 H1210 H 0.41543 0.22877 0.59760
 H1211 H 0.45201 0.20735 0.55667
 H1212 H 0.42620 0.19249 0.54201
 C1213 C 0.83018 0.64127 0.04796
 C1214 C 0.83579 0.65543 0.03643
 C1215 C 0.82463 0.66131 0.02188
 C1216 C 0.80778 0.65325 0.01900
 C1217 C 0.80163 0.63914 0.03078
 C1218 C 0.81336 0.63320 0.04521
 C1219 C 0.85268 0.66430 0.04008
 C1220 C 0.86669 0.67167 0.04382
 C1221 C 0.88291 0.68017 0.04907
 C1222 C 0.89658 0.68724 0.05434
 C1223 C 0.91263 0.69539 0.06167
 C1224 C 0.91782 0.71269 0.05580
 C1225 C 0.93257 0.72105 0.06415
 C1226 C 0.94217 0.71222 0.07857
 C1227 C 0.93714 0.69466 0.08398
 C1228 C 0.92247 0.68633 0.07560
 H1229 H 0.83880 0.63650 0.05920
 H1230 H 0.82879 0.67240 0.01294
 H1231 H 0.79931 0.65888 0.00809
 H1232 H 0.80993 0.62193 0.05418
 H1233 H 0.91023 0.71986 0.04508
 H1234 H 0.93605 0.73463 0.05980
 H1235 H 0.94445 0.68742 0.09485
 H1236 H 0.91858 0.67294 0.08026
 C1237 C 0.67409 0.64710 0.97870
 C1238 C 0.67070 0.65793 0.96303
 C1239 C 0.68452 0.66060 0.95004
 C1240 C 0.70164 0.65246 0.95263
 C1241 C 0.70520 0.64149 0.96828
 C1242 C 0.69125 0.63894 0.98134
 C1243 C 0.65307 0.66622 0.95997
 C1244 C 0.63854 0.67337 0.95663
 C1245 C 0.62188 0.68194 0.95172
 C1246 C 0.60801 0.68940 0.94662
 C1247 C 0.59198 0.69842 0.93936
 C1248 C 0.59337 0.70873 0.92312
 C1249 C 0.57786 0.71679 0.91523
 C1250 C 0.56066 0.71463 0.92346
 C1251 C 0.55940 0.70460 0.94005
 C1252 C 0.57499 0.69648 0.94793
 H1253 H 0.66347 0.64490 0.98882
 H1254 H 0.68205 0.66898 0.93788
 H1255 H 0.71216 0.65491 0.94249
 H1256 H 0.69353 0.63043 0.99343
 H1257 H 0.60644 0.71037 0.91640
 H1258 H 0.57930 0.72468 0.90262
 H1259 H 0.54631 0.70262 0.94662
 H1260 H 0.57376 0.68847 0.96049
 C1261 C 0.17250 0.14675 0.47484
 C1262 C 0.16926 0.15775 0.45926
 C1263 C 0.18323 0.16064 0.44649
 C1264 C 0.20034 0.15252 0.44920
 C1265 C 0.20374 0.14134 0.46473
 C1266 C 0.18965 0.13861 0.47759
 C1267 C 0.15154 0.16577 0.45599
 C1268 C 0.13683 0.17250 0.45257
 C1269 C 0.11979 0.18031 0.44773
 C1270 C 0.10542 0.18686 0.44283
 C1271 C 0.08851 0.19448 0.43601
 C1272 C 0.08223 0.18958 0.41871
 C1273 C 0.06622 0.19731 0.41152
 C1274 C 0.05619 0.21008 0.42157
 C1275 C 0.06253 0.21486 0.43904
 C1276 C 0.07861 0.20709 0.44621
 H1277 H 0.16175 0.14435 0.48477
 H1278 H 0.18087 0.16914 0.43439
 H1279 H 0.21098 0.15511 0.43920
 H1280 H 0.19181 0.12994 0.48959
 H1281 H 0.08985 0.17994 0.41064
 H1282 H 0.06194 0.19359 0.39790
 H1283 H 0.05504 0.22454 0.44715
 H1284 H 0.08337 0.21100 0.45962
 C1285 C 0.60267 0.08608 0.73471
 C1286 C 0.58591 0.08447 0.72576
 C1287 C 0.57726 0.06778 0.72566
 C1288 C 0.58526 0.05277 0.73462
 C1289 C 0.60202 0.05430 0.74382
 C1290 C 0.61069 0.07110 0.74368
 C1291 C 0.57755 0.09999 0.71680
 C1292 C 0.57057 0.11302 0.70933
 C1293 C 0.56248 0.12829 0.70055
 C1294 C 0.55567 0.14132 0.69291
 C1295 C 0.54767 0.15681 0.68357
 C1296 C 0.55510 0.16301 0.66694
 C1297 C 0.54728 0.17790 0.65766
 C1298 C 0.53189 0.18681 0.66490
 C1299 C 0.52459 0.18056 0.68172
 C1300 C 0.53244 0.16563 0.69098
 H1301 H 0.60952 0.09893 0.73480
 H1302 H 0.56428 0.06639 0.71879
 H1303 H 0.57818 0.04006 0.73467
 H1304 H 0.62371 0.07262 0.75042
 H1305 H 0.56693 0.15633 0.66112
 H1306 H 0.55338 0.18256 0.64489
 H1307 H 0.51264 0.18701 0.68754
 H1308 H 0.52656 0.16091 0.70384
 C1309 C 1.10228 0.58313 0.23960
 C1310 C 1.08764 0.58103 0.22762
 C1311 C 1.08117 0.56378 0.22432
 C1312 C 1.08924 0.54865 0.23301
 C1313 C 1.10402 0.55046 0.24532
 C1314 C 1.11039 0.56809 0.24835
 C1315 C 1.07935 0.59660 0.21868
 C1316 C 1.07253 0.60971 0.21120
 C1317 C 1.06470 0.62511 0.20238
 C1318 C 1.05816 0.63825 0.19471
 C1319 C 1.05052 0.65389 0.18531
 C1320 C 1.05844 0.66019 0.16894
 C1321 C 1.05095 0.67520 0.15958
 C1322 C 1.03541 0.68413 0.16646
 C1323 C 1.02763 0.67780 0.18302
 C1324 C 1.03515 0.66275 0.19237
 H1325 H 1.10754 0.59644 0.24209
 H1326 H 1.06975 0.56201 0.21513
 H1327 H 1.08323 0.53570 0.23055
 H1328 H 1.12212 0.57044 0.25691
 H1329 H 1.07039 0.65348 0.16339
 H1330 H 1.05741 0.67991 0.14702
 H1331 H 1.01555 0.68425 0.18856
 H1332 H 1.02889 0.65796 0.20502
 C1333 C 0.92355 0.91445 0.24784
 C1334 C 0.92037 0.91179 0.22914
 C1335 C 0.90915 0.92393 0.21921
 C1336 C 0.90107 0.93865 0.22795
 C1337 C 0.90412 0.94140 0.24677
 C1338 C 0.91549 0.92915 0.25661
 C1339 C 0.92849 0.89651 0.22020
 C1340 C 0.93521 0.88367 0.21272
 C1341 C 0.94298 0.86861 0.20393
 C1342 C 0.94950 0.85573 0.19635
 C1343 C 0.95713 0.84035 0.18717
 C1344 C 0.94724 0.82440 0.18625
 C1345 C 0.95439 0.80961 0.17691
 C1346 C 0.97156 0.81058 0.16834
 C1347 C 0.98149 0.82661 0.16952
 C1348 C 0.97429 0.84140 0.17886
 H1349 H 0.93225 0.90516 0.25566
 H1350 H 0.90655 0.92196 0.20474
 H1351 H 0.89222 0.94771 0.22005
 H1352 H 0.91828 0.93104 0.27105
 H1353 H 0.93395 0.82343 0.19267
 H1354 H 0.94653 0.79739 0.17645
 H1355 H 0.99462 0.82788 0.16287
 H1356 H 0.98204 0.85370 0.17943
 C1357 C 0.41034 0.42710 0.72146
 C1358 C 0.42160 0.41490 0.73127
 C1359 C 0.42476 0.41739 0.75001
 C1360 C 0.41666 0.43198 0.75892
 C1361 C 0.40527 0.44429 0.74918
 C1362 C 0.40223 0.44171 0.73033
 C1363 C 0.42970 0.39974 0.72214
 C1364 C 0.43631 0.38703 0.71435
 C1365 C 0.44381 0.37217 0.70503
 C1366 C 0.44998 0.35949 0.69686
 C1367 C 0.45702 0.34441 0.68680
 C1368 C 0.46956 0.33228 0.69498
 C1369 C 0.47617 0.31752 0.68519
 C1370 C 0.47026 0.31469 0.66709
 C1371 C 0.45773 0.32704 0.65898
 C1372 C 0.45117 0.34177 0.66878
 H1373 H 0.40775 0.42527 0.70696
 H1374 H 0.43348 0.40804 0.75773
 H1375 H 0.41942 0.43374 0.77338
 H1376 H 0.39336 0.45082 0.72252
 H1377 H 0.47415 0.33418 0.70895
 H1378 H 0.48566 0.30816 0.69187
 H1379 H 0.45315 0.32542 0.64497
 H1380 H 0.44151 0.35111 0.66229
 C1381 C 0.41676 0.58541 0.75716
 C1382 C 0.41387 0.58792 0.77594
 C1383 C 0.40385 0.57530 0.78616
 C1384 C 0.39674 0.56022 0.77764
 C1385 C 0.39957 0.55757 0.75876
 C1386 C 0.40966 0.57035 0.74861
 C1387 C 0.42125 0.60341 0.78473
 C1388 C 0.42745 0.61634 0.79215
 C1389 C 0.43471 0.63141 0.80095
 C1390 C 0.44087 0.64419 0.80865
 C1391 C 0.44817 0.65931 0.81813
 C1392 C 0.44035 0.66469 0.83470
 C1393 C 0.44766 0.67904 0.84424
 C1394 C 0.46294 0.68823 0.83733
 C1395 C 0.47060 0.68285 0.82054
 C1396 C 0.46326 0.66846 0.81102
 H1397 H 0.42456 0.59506 0.74913
 H1398 H 0.40150 0.57714 0.80071
 H1399 H 0.38885 0.55074 0.78577
 H1400 H 0.41229 0.56856 0.73411
 H1401 H 0.42864 0.65773 0.84031
 H1402 H 0.44130 0.68303 0.85698
 H1403 H 0.48247 0.68952 0.81497
 H1404 H 0.46945 0.66437 0.79822
 C1405 C -0.08456 0.08284 0.25489
 C1406 C -0.08792 0.08543 0.27359
 C1407 C -0.09790 0.07267 0.28368
 C1408 C -0.10456 0.05741 0.27510
 C1409 C -0.10133 0.05473 0.25628
 C1410 C -0.09121 0.06761 0.24629
 C1411 C -0.08116 0.10120 0.28238
 C1412 C -0.07549 0.11441 0.28971
 C1413 C -0.06883 0.12985 0.29834
 C1414 C -0.06310 0.14297 0.30582
 C1415 C -0.05622 0.15848 0.31496
 C1416 C -0.06714 0.16756 0.32765
 C1417 C -0.06023 0.18219 0.33709
 C1418 C -0.04227 0.18793 0.33396
 C1419 C -0.03150 0.17889 0.32095
 C1420 C -0.03844 0.16425 0.31153
 H1421 H -0.07680 0.09260 0.24696
 H1422 H -0.10060 0.07456 0.29816
 H1423 H -0.11248 0.04785 0.28310
 H1424 H -0.08830 0.06581 0.23184
 H1425 H -0.08093 0.16323 0.33037
 H1426 H -0.06893 0.18901 0.34684
 H1427 H -0.01756 0.18283 0.31841
 H1428 H -0.02985 0.15728 0.30178
 C1429 C 0.08250 0.41123 0.25781
 C1430 C 0.08578 0.40800 0.27655
 C1431 C 0.09711 0.41953 0.28618
 C1432 C 0.10515 0.43422 0.27711
 C1433 C 0.10197 0.43754 0.25825
 C1434 C 0.09052 0.42588 0.24872
 C1435 C 0.07744 0.39288 0.28580
 C1436 C 0.07033 0.38017 0.29335
 C1437 C 0.06186 0.36529 0.30204
 C1438 C 0.05452 0.35261 0.30941
 C1439 C 0.04566 0.33754 0.31823
 C1440 C 0.03029 0.34045 0.32922
 C1441 C 0.02173 0.32587 0.33793
 C1442 C 0.02845 0.30816 0.33577
 C1443 C 0.04387 0.30537 0.32462
 C1444 C 0.05241 0.31997 0.31590
 H1445 H 0.07370 0.40245 0.25024
 H1446 H 0.09975 0.41713 0.30069
 H1447 H 0.11404 0.44284 0.28477
 H1448 H 0.08759 0.42823 0.23427
 H1449 H 0.02498 0.35400 0.33115
 H1450 H 0.01006 0.32850 0.34664
 H1451 H 0.04925 0.29188 0.32252
 H1452 H 0.06427 0.31757 0.30737
 C1453 C 0.57803 0.91630 0.75682
 C1454 C 0.57984 0.91356 0.77582
 C1455 C 0.59073 0.92507 0.78595
 C1456 C 0.59983 0.93926 0.77711
 C1457 C 0.59816 0.94208 0.75800
 C1458 C 0.58712 0.93046 0.74795
 C1459 C 0.57070 0.89881 0.78489
 C1460 C 0.56320 0.88638 0.79254
 C1461 C 0.55469 0.87176 0.80163
 C1462 C 0.54770 0.85921 0.80958
 C1463 C 0.53979 0.84417 0.81936
 C1464 C 0.54506 0.84028 0.83750
 C1465 C 0.53789 0.82540 0.84695
 C1466 C 0.52533 0.81415 0.83837
 C1467 C 0.51991 0.81830 0.82019
 C1468 C 0.52714 0.83321 0.81073
 H1469 H 0.56961 0.90749 0.74885
 H1470 H 0.59227 0.92303 0.80066
 H1471 H 0.60838 0.94785 0.78518
 H1472 H 0.58536 0.93244 0.73326
 H1473 H 0.55480 0.84870 0.84432
 H1474 H 0.54210 0.82275 0.86103
 H1475 H 0.51040 0.80981 0.81317
 H1476 H 0.52300 0.83608 0.79667
 C1477 C 0.71991 0.59958 0.07282
 C1478 C 0.72998 0.59210 0.08746
 C1479 C 0.74899 0.59269 0.08708
 C1480 C 0.75794 0.60070 0.07210
 C1481 C 0.74804 0.60832 0.05705
 C1482 C 0.72878 0.60758 0.05778
 C1483 C 0.72079 0.58374 0.10283
 C1484 C 0.71300 0.57673 0.11564
 C1485 C 0.70371 0.56855 0.13054
 C1486 C 0.69558 0.56161 0.14317
 C1487 C 0.68558 0.55342 0.15810
 C1488 C 0.69238 0.53784 0.16710
 C1489 C 0.68242 0.52971 0.18135
 C1490 C 0.66548 0.53705 0.18672
 C1491 C 0.65886 0.55280 0.17767
 C1492 C 0.66884 0.56090 0.16346
 H1493 H 0.70515 0.59933 0.07305
 H1494 H 0.75694 0.58679 0.09829
 H1495 H 0.77268 0.60012 0.07215
 H1496 H 0.72031 0.61376 0.04715
 H1497 H 0.70531 0.53191 0.16302
 H1498 H 0.68778 0.51750 0.18791
 H1499 H 0.64600 0.55892 0.18167
 H1500 H 0.66347 0.57298 0.15662
 C1501 C 0.23775 1.10728 0.58665
 C1502 C 0.22867 1.09098 0.58459
 C1503 C 0.22826 1.08290 0.56740
 C1504 C 0.23692 1.09104 0.55232
 C1505 C 0.24614 1.10740 0.55425
 C1506 C 0.24644 1.11544 0.57159
 C1507 C 0.21973 1.08254 0.60008
 C1508 C 0.21215 1.07539 0.61293
 C1509 C 0.20311 1.06692 0.62784
 C1510 C 0.19519 1.05964 0.64040
 C1511 C 0.18544 1.05089 0.65519
 C1512 C 0.17130 1.03914 0.65123
 C1513 C 0.16147 1.03093 0.66549
 C1514 C 0.16565 1.03438 0.68395
 C1515 C 0.18003 1.04606 0.68780
 C1516 C 0.18984 1.05428 0.67350
 H1517 H 0.23810 1.11369 0.59988
 H1518 H 0.22129 1.07026 0.56566
 H1519 H 0.23665 1.08439 0.53922
 H1520 H 0.25322 1.12815 0.57345
 H1521 H 0.16781 1.03638 0.63710
 H1522 H 0.15066 1.02181 0.66207
 H1523 H 0.18344 1.04914 0.70186
 H1524 H 0.20074 1.06339 0.67671
 C1525 C 0.23236 0.90162 0.91500
 C1526 C 0.22299 0.91806 0.91682
 C1527 C 0.22271 0.92657 0.93381
 C1528 C 0.23188 0.91871 0.94890
 C1529 C 0.24148 0.90226 0.94716
 C1530 C 0.24154 0.89375 0.93006
 C1531 C 0.21375 0.92622 0.90121
 C1532 C 0.20608 0.93294 0.88804
 C1533 C 0.19710 0.94065 0.87253
 C1534 C 0.18938 0.94707 0.85925
 C1535 C 0.18005 0.95452 0.84334
 C1536 C 0.16276 0.94833 0.83876
 C1537 C 0.15371 0.95534 0.82322
 C1538 C 0.16186 0.96868 0.81202
 C1539 C 0.17923 0.97489 0.81679
 C1540 C 0.18826 0.96783 0.83234
 H1541 H 0.23259 0.89488 0.90194
 H1542 H 0.21552 0.93931 0.93536
 H1543 H 0.23175 0.92566 0.96184
 H1544 H 0.24857 0.88094 0.92836
 H1545 H 0.15625 0.93807 0.84721
 H1546 H 0.14024 0.95049 0.82010
 H1547 H 0.18593 0.98501 0.80834
 H1548 H 0.20167 0.97269 0.83574
 C1549 C 0.71354 0.40832 0.43098
 C1550 C 0.72324 0.41849 0.41794
 C1551 C 0.74200 0.42079 0.42013
 C1552 C 0.75106 0.41292 0.43526
 C1553 C 0.74145 0.40262 0.44843
 C1554 C 0.72257 0.40045 0.44614
 C1555 C 0.71399 0.42645 0.40224
 C1556 C 0.70629 0.43306 0.38904
 C1557 C 0.69727 0.44072 0.37354
 C1558 C 0.68951 0.44716 0.36029
 C1559 C 0.68013 0.45471 0.34446
 C1560 C 0.68838 0.46798 0.33344
 C1561 C 0.67926 0.47523 0.31803
 C1562 C 0.66176 0.46926 0.31343
 C1563 C 0.65358 0.45594 0.32463
 C1564 C 0.66272 0.44873 0.34002
 H1565 H 0.69902 0.40641 0.42939
 H1566 H 0.74964 0.42866 0.41014
 H1567 H 0.76555 0.41504 0.43677
 H1568 H 0.71484 0.39242 0.45592
 H1569 H 0.70188 0.47268 0.33673
 H1570 H 0.68599 0.48532 0.30957
 H1571 H 0.64002 0.45126 0.32163
 H1572 H 0.65618 0.43850 0.34849
 C1573 C 0.76474 0.39788 0.59640
 C1574 C 0.77454 0.41384 0.59437
 C1575 C 0.77503 0.42285 0.57727
 C1576 C 0.76572 0.41597 0.56227
 C1577 C 0.75576 0.39997 0.56418
 C1578 C 0.75540 0.39097 0.58142
 C1579 C 0.78409 0.42102 0.60979
 C1580 C 0.79216 0.42718 0.62259
 C1581 C 0.80173 0.43458 0.63739
 C1582 C 0.81008 0.44108 0.64981
 C1583 C 0.82028 0.44911 0.66433
 C1584 C 0.83832 0.45418 0.66121
 C1585 C 0.84817 0.46249 0.67501
 C1586 C 0.84008 0.46588 0.69216
 C1587 C 0.82200 0.46052 0.69527
 C1588 C 0.81216 0.45221 0.68141
 H1589 H 0.76432 0.39076 0.60956
 H1590 H 0.78255 0.43525 0.57555
 H1591 H 0.76607 0.42332 0.54924
 H1592 H 0.74806 0.37850 0.58326
 H1593 H 0.84476 0.45180 0.64806
 H1594 H 0.86215 0.46619 0.67230
 H1595 H 0.81536 0.46310 0.70826
 H1596 H 0.79817 0.44838 0.68395
 C1597 C 0.26664 -0.10266 0.09464
 C1598 C 0.27611 -0.08650 0.09256
 C1599 C 0.27616 -0.07736 0.07553
 C1600 C 0.26675 -0.08431 0.06062
 C1601 C 0.25714 -0.10052 0.06257
 C1602 C 0.25721 -0.10964 0.07975
 C1603 C 0.28575 -0.07926 0.10789
 C1604 C 0.29388 -0.07306 0.12063
 C1605 C 0.30351 -0.06561 0.13536
 C1606 C 0.31188 -0.05907 0.14775
 C1607 C 0.32208 -0.05101 0.16224
 C1608 C 0.34014 -0.04597 0.15913
 C1609 C 0.34997 -0.03762 0.17291
 C1610 C 0.34186 -0.03416 0.19004
 C1611 C 0.32377 -0.03949 0.19314
 C1612 C 0.31394 -0.04783 0.17930
 H1613 H 0.26656 -0.10988 0.10775
 H1614 H 0.28342 -0.06482 0.07378
 H1615 H 0.26676 -0.07687 0.04764
 H1616 H 0.25013 -0.12226 0.08161
 H1617 H 0.34659 -0.04841 0.14600
 H1618 H 0.36396 -0.03394 0.17020
 H1619 H 0.31711 -0.03684 0.20610
 H1620 H 0.29994 -0.05163 0.18183
 C1621 C 0.26681 0.11049 0.40637
 C1622 C 0.27632 0.09408 0.40856
 C1623 C 0.27696 0.08538 0.42582
 C1624 C 0.26808 0.09302 0.44083
 C1625 C 0.25843 0.10949 0.43876
 C1626 C 0.25791 0.11816 0.42136
 C1627 C 0.28542 0.08614 0.39311
 C1628 C 0.29310 0.07945 0.38024
 C1629 C 0.30220 0.07157 0.36526
 C1630 C 0.31012 0.06482 0.35256
 C1631 C 0.31981 0.05676 0.33754
 C1632 C 0.31495 0.03972 0.33141
 C1633 C 0.32474 0.03167 0.31719
 C1634 C 0.33957 0.04056 0.30895
 C1635 C 0.34420 0.05778 0.31508
 C1636 C 0.33438 0.06580 0.32928
 H1637 H 0.26629 0.11737 0.39308
 H1638 H 0.28425 0.07265 0.42766
 H1639 H 0.26852 0.08591 0.45399
 H1640 H 0.25078 0.13096 0.41939
 H1641 H 0.30373 0.03258 0.33776
 H1642 H 0.32098 0.01833 0.31293
 H1643 H 0.35536 0.06507 0.30884
 H1644 H 0.33823 0.07901 0.33388
 C1645 C 0.76785 0.61025 0.90972
 C1646 C 0.77743 0.59388 0.91199
 C1647 C 0.77827 0.58536 0.92933
 C1648 C 0.76951 0.59313 0.94435
 C1649 C 0.75978 0.60955 0.94221
 C1650 C 0.75907 0.61804 0.92472
 C1651 C 0.78639 0.58581 0.89653
 C1652 C 0.79393 0.57902 0.88363
 C1653 C 0.80287 0.57105 0.86859
 C1654 C 0.81063 0.56424 0.85584
 C1655 C 0.82013 0.55612 0.84073
 C1656 C 0.81501 0.53917 0.83456
 C1657 C 0.82459 0.53108 0.82021
 C1658 C 0.83945 0.53984 0.81189
 C1659 C 0.84435 0.55696 0.81808
 C1660 C 0.83475 0.56502 0.83240
 H1661 H 0.76716 0.61699 0.89637
 H1662 H 0.78562 0.57267 0.93123
 H1663 H 0.77010 0.58615 0.95757
 H1664 H 0.75187 0.63079 0.92268
 H1665 H 0.80375 0.53214 0.84095
 H1666 H 0.82062 0.51782 0.81591
 H1667 H 0.85555 0.56415 0.81178
 H1668 H 0.83879 0.57816 0.83703
 C1669 C 0.07949 0.71741 0.59813
 C1670 C 0.09188 0.72649 0.58675
 C1671 C 0.08937 0.74494 0.58289
 C1672 C 0.07450 0.75427 0.59032
 C1673 C 0.06192 0.74525 0.60172
 C1674 C 0.06460 0.72671 0.60557
 C1675 C 0.10708 0.71684 0.57892
 C1676 C 0.11975 0.70872 0.57231
 C1677 C 0.13451 0.69914 0.56453
 C1678 C 0.14704 0.69087 0.55785
 C1679 C 0.16192 0.68087 0.54986
 C1680 C 0.17183 0.68836 0.53521
 C1681 C 0.18611 0.67853 0.52728
 C1682 C 0.19063 0.66105 0.53390
 C1683 C 0.18063 0.65369 0.54869
 C1684 C 0.16637 0.66354 0.55661
 H1685 H 0.08133 0.70313 0.60124
 H1686 H 0.09885 0.75208 0.57405
 H1687 H 0.07268 0.76848 0.58693
 H1688 H 0.05529 0.71945 0.61448
 H1689 H 0.16845 0.70175 0.52984
 H1690 H 0.19339 0.68448 0.51577
 H1691 H 0.18393 0.64037 0.55426
 H1692 H 0.15882 0.65763 0.56797
 C1693 C 0.57659 0.22288 1.09911
 C1694 C 0.58905 0.23227 1.08809
 C1695 C 0.58628 0.25070 1.08432
 C1696 C 0.57108 0.25972 1.09151
 C1697 C 0.55844 0.25038 1.10256
 C1698 C 0.56138 0.23186 1.10631
 C1699 C 0.60458 0.22295 1.08050
 C1700 C 0.61750 0.21505 1.07410
 C1701 C 0.63250 0.20564 1.06655
 C1702 C 0.64519 0.19744 1.06007
 C1703 C 0.66015 0.18741 1.05230
 C1704 C 0.66532 0.19056 1.03400
 C1705 C 0.67942 0.18034 1.02626
 C1706 C 0.68851 0.16678 1.03673
 C1707 C 0.68337 0.16389 1.05518
 C1708 C 0.66928 0.17413 1.06290
 H1709 H 0.57863 0.20862 1.10215
 H1710 H 0.59581 0.25809 1.07574
 H1711 H 0.56908 0.27392 1.08819
 H1712 H 0.55202 0.22436 1.11496
 H1713 H 0.65830 0.20076 1.02566
 H1714 H 0.68290 0.18274 1.01196
 H1715 H 0.69026 0.15373 1.06367
 H1716 H 0.66542 0.17160 1.07709
 C1717 C 0.91037 0.23942 0.90888
 C1718 C 0.90789 0.22100 0.90610
 C1719 C 0.92049 0.21134 0.89555
 C1720 C 0.93552 0.22006 0.88781
 C1721 C 0.93811 0.23859 0.89052
 C1722 C 0.92537 0.24816 0.90115
 C1723 C 0.89247 0.21202 0.91417
 C1724 C 0.87957 0.20457 0.92103
 C1725 C 0.86451 0.19589 0.92918
 C1726 C 0.85169 0.18845 0.93622
 C1727 C 0.83648 0.17952 0.94475
 C1728 C 0.83024 0.16329 0.93777
 C1729 C 0.81571 0.15440 0.94627
 C1730 C 0.80724 0.16163 0.96189
 C1731 C 0.81354 0.17803 0.96871
 C1732 C 0.82806 0.18690 0.96018
 H1733 H 0.90074 0.24701 0.91709
 H1734 H 0.91869 0.19708 0.89329
 H1735 H 0.94500 0.21238 0.87955
 H1736 H 0.92715 0.26236 0.90372
 H1737 H 0.83670 0.15742 0.92587
 H1738 H 0.81136 0.14168 0.94083
 H1739 H 0.80716 0.18405 0.98056
 H1740 H 0.83276 0.19947 0.96567
 C1741 C 0.41444 0.74346 0.41196
 C1742 C 0.41229 0.72492 0.40962
 C1743 C 0.42506 0.71524 0.39931
 C1744 C 0.43997 0.72402 0.39143
 C1745 C 0.44228 0.74265 0.39375
 C1746 C 0.42933 0.75228 0.40408
 C1747 C 0.39705 0.71580 0.41786
 C1748 C 0.38436 0.70804 0.42475
 C1749 C 0.36959 0.69878 0.43279
 C1750 C 0.35705 0.69071 0.43959
 C1751 C 0.34218 0.68084 0.44761
 C1752 C 0.33880 0.66326 0.44205
 C1753 C 0.32445 0.65356 0.44985
 C1754 C 0.31327 0.66132 0.46336
 C1755 C 0.31678 0.67902 0.46888
 C1756 C 0.33114 0.68871 0.46103
 H1757 H 0.40465 0.75107 0.41996
 H1758 H 0.42350 0.70090 0.39737
 H1759 H 0.44958 0.71629 0.38336
 H1760 H 0.43087 0.76657 0.40631
 H1761 H 0.34731 0.65702 0.43172
 H1762 H 0.32229 0.63988 0.44551
 H1763 H 0.30830 0.68543 0.47909
 H1764 H 0.33363 0.70232 0.46542
 C1765 C 0.58386 0.75230 0.41535
 C1766 C 0.58644 0.77075 0.41202
 C1767 C 0.57431 0.78048 0.40059
 C1768 C 0.55961 0.77182 0.39255
 C1769 C 0.55686 0.75328 0.39584
 C1770 C 0.56918 0.74361 0.40732
 C1771 C 0.60146 0.77970 0.42046
 C1772 C 0.61399 0.78722 0.42758
 C1773 C 0.62860 0.79609 0.43595
 C1774 C 0.64101 0.80377 0.44311
 C1775 C 0.65573 0.81312 0.45163
 C1776 C 0.65194 0.82740 0.46337
 C1777 C 0.66619 0.83677 0.47136
 C1778 C 0.68445 0.83200 0.46769
 C1779 C 0.68812 0.81749 0.45602
 C1780 C 0.67384 0.80814 0.44803
 H1781 H 0.59313 0.74465 0.42422
 H1782 H 0.57621 0.79476 0.39789
 H1783 H 0.55050 0.77958 0.38361
 H1784 H 0.56729 0.72939 0.41032
 H1785 H 0.63797 0.83133 0.46630
 H1786 H 0.66291 0.84770 0.48049
 H1787 H 0.70202 0.81363 0.45276
 H1788 H 0.67692 0.79713 0.43892
 C1789 C 0.07953 0.24930 -0.08708
 C1790 C 0.08205 0.26771 -0.09075
 C1791 C 0.06981 0.27722 -0.10225
 C1792 C 0.05510 0.26837 -0.11007
 C1793 C 0.05246 0.24986 -0.10648
 C1794 C 0.06485 0.24043 -0.09488
 C1795 C 0.09719 0.27682 -0.08271
 C1796 C 0.10986 0.28448 -0.07598
 C1797 C 0.12465 0.29352 -0.06814
 C1798 C 0.13724 0.30136 -0.06148
 C1799 C 0.15216 0.31092 -0.05360
 C1800 C 0.15781 0.32720 -0.06168
 C1801 C 0.17207 0.33673 -0.05390
 C1802 C 0.18088 0.33010 -0.03789
 C1803 C 0.17521 0.31363 -0.02996
 C1804 C 0.16092 0.30413 -0.03776
 H1805 H 0.08889 0.24182 -0.07815
 H1806 H 0.07165 0.29146 -0.10522
 H1807 H 0.04594 0.27595 -0.11911
 H1808 H 0.06305 0.22623 -0.09167
 H1809 H 0.15117 0.33256 -0.07398
 H1810 H 0.17629 0.34922 -0.06049
 H1811 H 0.18157 0.30828 -0.01752
 H1812 H 0.15662 0.29156 -0.03137
 C1813 C 0.42924 0.27874 0.07646
 C1814 C 0.41220 0.27741 0.08499
 C1815 C 0.41065 0.26813 0.10186
 C1816 C 0.42602 0.26005 0.11009
 C1817 C 0.44319 0.26115 0.10155
 C1818 C 0.44465 0.27068 0.08468
 C1819 C 0.39627 0.28540 0.07637
 C1820 C 0.38286 0.29200 0.06919
 C1821 C 0.36712 0.29972 0.06086
 C1822 C 0.35365 0.30636 0.05384
 C1823 C 0.33757 0.31443 0.04560
 C1824 C 0.32102 0.31433 0.05516
 C1825 C 0.30552 0.32267 0.04744
 C1826 C 0.30637 0.33124 0.03001
 C1827 C 0.32302 0.33106 0.02039
 C1828 C 0.33851 0.32272 0.02816
 H1829 H 0.43060 0.28587 0.06338
 H1830 H 0.39753 0.26707 0.10862
 H1831 H 0.42451 0.25302 0.12320
 H1832 H 0.45763 0.27157 0.07766
 H1833 H 0.32013 0.30792 0.06865
 H1834 H 0.29286 0.32239 0.05508
 H1835 H 0.32419 0.33774 0.00708
 H1836 H 0.35127 0.32292 0.02065
 C1837 C 0.93394 0.77566 0.57550
 C1838 C 0.91684 0.77490 0.58398
 C1839 C 0.91497 0.76586 0.60095
 C1840 C 0.93011 0.75750 0.60936
 C1841 C 0.94734 0.75807 0.60088
 C1842 C 0.94911 0.76732 0.58389
 C1843 C 0.90116 0.78327 0.57526
 C1844 C 0.88793 0.79022 0.56807
 C1845 C 0.87235 0.79837 0.55984
 C1846 C 0.85898 0.80539 0.55302
 C1847 C 0.84293 0.81391 0.54518
 C1848 C 0.82666 0.81425 0.55521
 C1849 C 0.81121 0.82309 0.54796
 C1850 C 0.81183 0.83172 0.53055
 C1851 C 0.82818 0.83106 0.52044
 C1852 C 0.84363 0.82222 0.52774
 H1853 H 0.93553 0.78260 0.56235
 H1854 H 0.90181 0.76524 0.60768
 H1855 H 0.92836 0.75069 0.62255
 H1856 H 0.96214 0.76780 0.57693
 H1857 H 0.82595 0.80782 0.56870
 H1858 H 0.79877 0.82315 0.55597
 H1859 H 0.82916 0.83776 0.50711
 H1860 H 0.85617 0.82209 0.51988
   
