data_POSCAR
  _audit_creation_date              2014-09-24
  _audit_creation_method            'ToBaCCo'
  _symmetry_space_group_name_H-M    'P1'
  _symmetry_Int_Tables_number       1
  _symmetry_cell_setting            triclinic
  loop_
  _symmetry_equiv_pos_as_xyz
 x,y,z
_cell_length_a 95.9336
_cell_length_b 96.0120
_cell_length_c 96.2218
_cell_angle_alpha 89.983500
_cell_angle_beta 89.981800
_cell_angle_gamma 89.949200
loop_
  _atom_site_label
  _atom_site_type_symbol
  _atom_site_fract_x
  _atom_site_fract_y
  _atom_site_fract_z
N1 N 0.35789 0.31927 0.32923
 N2 N 0.35772 0.32899 0.31960
 C3 C 0.36849 0.32691 0.31084
 C4 C 0.37574 0.31527 0.31526
 C5 C 0.36875 0.31068 0.32694
 H6 H 0.37093 0.33334 0.30195
 H7 H 0.37138 0.30177 0.33330
 Cu8 Cu 0.34338 0.34333 0.31959
 Cu9 Cu 0.34401 0.31839 0.34401
 Cu10 Cu 0.31841 0.34396 0.34400
 N11 N 0.32903 0.35765 0.31958
 N12 N 0.31929 0.35782 0.32921
 C13 C 0.31070 0.36867 0.32691
 C14 C 0.31530 0.37565 0.31522
 C15 C 0.32695 0.36841 0.31082
 H16 H 0.30178 0.37131 0.33326
 H17 H 0.33340 0.37084 0.30193
 N18 N 0.31931 0.32902 0.35804
 N19 N 0.32906 0.31929 0.35804
 C20 C 0.32682 0.31062 0.36882
 C21 C 0.31514 0.31512 0.37591
 C22 C 0.31064 0.32679 0.36882
 H23 H 0.33320 0.30169 0.37138
 H24 H 0.30169 0.33316 0.37137
 H25 H 0.32824 0.32819 0.33319
 H26 H 0.33949 0.33945 0.34433
 N27 N 0.35821 0.81936 -0.17105
 N28 N 0.35804 0.82907 -0.18070
 C29 C 0.36883 0.82698 -0.18944
 C30 C 0.37610 0.81534 -0.18500
 C31 C 0.36907 0.81077 -0.17331
 H32 H 0.37126 0.83343 -0.19834
 H33 H 0.37168 0.80188 -0.16691
 Cu34 Cu 0.34370 0.84345 -0.18071
 Cu35 Cu 0.34433 0.81850 -0.15627
 Cu36 Cu 0.31872 0.84404 -0.15629
 N37 N 0.32929 0.85775 -0.18072
 N38 N 0.31956 0.85792 -0.17109
 C39 C 0.31095 0.86876 -0.17337
 C40 C 0.31553 0.87577 -0.18507
 C41 C 0.32720 0.86852 -0.18948
 H42 H 0.30204 0.87137 -0.16699
 H43 H 0.33365 0.87094 -0.19838
 N44 N 0.31963 0.82911 -0.14222
 N45 N 0.32938 0.81939 -0.14222
 C46 C 0.32716 0.81071 -0.13144
 C47 C 0.31547 0.81518 -0.12435
 C48 C 0.31096 0.82686 -0.13143
 H49 H 0.33354 0.80178 -0.12890
 H50 H 0.30200 0.83321 -0.12889
 H51 H 0.32858 0.82831 -0.16709
 H52 H 0.33981 0.83957 -0.15595
 N53 N 0.85770 0.31974 -0.17087
 N54 N 0.85755 0.32948 -0.18050
 C55 C 0.86831 0.32737 -0.18926
 C56 C 0.87555 0.31573 -0.18485
 C57 C 0.86854 0.31114 -0.17317
 H58 H 0.87075 0.33381 -0.19816
 H59 H 0.87116 0.30222 -0.16683
 Cu60 Cu 0.84320 0.34381 -0.18053
 Cu61 Cu 0.84383 0.31887 -0.15610
 Cu62 Cu 0.81825 0.34446 -0.15609
 N63 N 0.82888 0.35817 -0.18049
 N64 N 0.81914 0.35834 -0.17086
 C65 C 0.81055 0.36919 -0.17315
 C66 C 0.81515 0.37620 -0.18484
 C67 C 0.82680 0.36893 -0.18925
 H68 H 0.80162 0.37180 -0.16679
 H69 H 0.83326 0.37134 -0.19814
 N70 N 0.81914 0.32951 -0.14205
 N71 N 0.82888 0.31977 -0.14206
 C72 C 0.82664 0.31109 -0.13129
 C73 C 0.81497 0.31559 -0.12419
 C74 C 0.81047 0.32727 -0.13126
 H75 H 0.83301 0.30215 -0.12876
 H76 H 0.80153 0.33364 -0.12871
 H77 H 0.82805 0.32869 -0.16690
 H78 H 0.83931 0.33993 -0.15579
 N79 N 0.85786 0.81982 0.32931
 N80 N 0.85763 0.82948 0.31963
 C81 C 0.86833 0.82731 0.31080
 C82 C 0.87559 0.81569 0.31523
 C83 C 0.86869 0.81121 0.32700
 H84 H 0.87066 0.83364 0.30180
 H85 H 0.87133 0.80231 0.33338
 Cu86 Cu 0.84323 0.84376 0.31956
 Cu87 Cu 0.84398 0.81892 0.34409
 Cu88 Cu 0.81818 0.84430 0.34387
 N89 N 0.82882 0.85803 0.31949
 N90 N 0.81901 0.85813 0.32904
 C91 C 0.81034 0.86890 0.32668
 C92 C 0.81498 0.87594 0.31501
 C93 C 0.82672 0.86876 0.31069
 H94 H 0.80136 0.87145 0.33298
 H95 H 0.83322 0.87121 0.30184
 N96 N 0.81914 0.82942 0.35799
 N97 N 0.82901 0.81982 0.35811
 C98 C 0.82685 0.81122 0.36896
 C99 C 0.81508 0.81561 0.37596
 C100 C 0.81044 0.82716 0.36875
 H101 H 0.83334 0.80240 0.37162
 H102 H 0.80139 0.83341 0.37119
 H103 H 0.82815 0.82851 0.33313
 H104 H 0.83927 0.83987 0.34428
 N105 N 0.64237 0.68093 0.32907
 N106 N 0.64238 0.67106 0.31959
 C107 C 0.63161 0.67316 0.31084
 C108 C 0.62452 0.68494 0.31511
 C109 C 0.63161 0.68962 0.32668
 H110 H 0.62904 0.66660 0.30207
 H111 H 0.62909 0.69863 0.33294
 Cu112 Cu 0.65643 0.65644 0.31968
 Cu113 Cu 0.65619 0.68175 0.34384
 Cu114 Cu 0.68156 0.65602 0.34403
 N115 N 0.67095 0.64228 0.31970
 N116 N 0.68070 0.64215 0.32931
 C117 C 0.68936 0.63135 0.32697
 C118 C 0.68479 0.62438 0.31527
 C119 C 0.67310 0.63157 0.31091
 H120 H 0.69830 0.62876 0.33330
 H121 H 0.66666 0.62914 0.30201
 N122 N 0.68070 0.67097 0.35804
 N123 N 0.67107 0.68081 0.35792
 C124 C 0.67332 0.68951 0.36867
 C125 C 0.68488 0.68490 0.37588
 C126 C 0.68931 0.67314 0.36888
 H127 H 0.66703 0.69852 0.37113
 H128 H 0.69814 0.66667 0.37154
 H129 H 0.67176 0.67168 0.33293
 H130 H 0.66051 0.66067 0.34434
 N131 N 0.64225 0.18053 -0.17093
 N132 N 0.64249 0.17088 -0.18063
 C133 C 0.63175 0.17300 -0.18941
 C134 C 0.62445 0.18459 -0.18495
 C135 C 0.63139 0.18911 -0.17321
 H136 H 0.62933 0.16659 -0.19832
 H137 H 0.62867 0.19794 -0.16678
 Cu138 Cu 0.65669 0.15638 -0.18048
 Cu139 Cu 0.65596 0.18133 -0.15599
 Cu140 Cu 0.68226 0.15661 -0.15692
 N141 N 0.67096 0.14193 -0.18034
 N142 N 0.68081 0.14190 -0.17082
 C143 C 0.68935 0.13099 -0.17300
 C144 C 0.68462 0.12381 -0.18453
 C145 C 0.67292 0.13101 -0.18893
 H146 H 0.69841 0.12855 -0.16676
 H147 H 0.66641 0.12851 -0.19776
 N148 N 0.68086 0.17080 -0.14217
 N149 N 0.67090 0.18030 -0.14192
 C150 C 0.67295 0.18876 -0.13094
 C151 C 0.68472 0.18435 -0.12396
 C152 C 0.68947 0.17293 -0.13131
 H153 H 0.66644 0.19756 -0.12826
 H154 H 0.69857 0.16672 -0.12895
 H155 H 0.67140 0.17226 -0.16728
 H156 H 0.66103 0.16041 -0.15591
 N157 N 0.14213 0.68069 -0.17078
 N158 N 0.14247 0.67116 -0.18058
 C159 C 0.13175 0.67329 -0.18938
 C160 C 0.12435 0.68477 -0.18481
 C161 C 0.13120 0.68920 -0.17299
 H162 H 0.12945 0.66700 -0.19841
 H163 H 0.12842 0.69796 -0.16648
 Cu164 Cu 0.15686 0.65688 -0.18064
 Cu165 Cu 0.15595 0.68150 -0.15596
 Cu166 Cu 0.18176 0.65615 -0.15618
 N167 N 0.17124 0.64259 -0.18070
 N168 N 0.18095 0.64239 -0.17105
 C169 C 0.18948 0.63148 -0.17330
 C170 C 0.18486 0.62449 -0.18495
 C171 C 0.17327 0.63179 -0.18941
 H172 H 0.19835 0.62880 -0.16689
 H173 H 0.16681 0.62934 -0.19828
 N174 N 0.18076 0.67099 -0.14206
 N175 N 0.17087 0.68057 -0.14191
 C176 C 0.17303 0.68916 -0.13105
 C177 C 0.18483 0.68478 -0.12409
 C178 C 0.18947 0.67325 -0.13132
 H179 H 0.16656 0.69799 -0.12839
 H180 H 0.19854 0.66701 -0.12891
 H181 H 0.17186 0.67191 -0.16679
 H182 H 0.16064 0.66045 -0.15584
 N183 N 0.14213 0.18068 0.32926
 N184 N 0.14232 0.17098 0.31961
 C185 C 0.13156 0.17307 0.31086
 C186 C 0.12429 0.18468 0.31528
 C187 C 0.13126 0.18926 0.32697
 H188 H 0.12913 0.16664 0.30196
 H189 H 0.12862 0.19816 0.33333
 Cu190 Cu 0.15663 0.15662 0.31961
 Cu191 Cu 0.15598 0.18154 0.34404
 Cu192 Cu 0.18158 0.15597 0.34403
 N193 N 0.17100 0.14233 0.31960
 N194 N 0.18071 0.14213 0.32924
 C195 C 0.18930 0.13128 0.32695
 C196 C 0.18472 0.12431 0.31525
 C197 C 0.17309 0.13158 0.31084
 H198 H 0.19821 0.12864 0.33330
 H199 H 0.16665 0.12915 0.30194
 N200 N 0.18066 0.17090 0.35807
 N201 N 0.17092 0.18063 0.35808
 C202 C 0.17315 0.18929 0.36886
 C203 C 0.18482 0.18480 0.37594
 C204 C 0.18933 0.17313 0.36886
 H205 H 0.16677 0.19823 0.37140
 H206 H 0.19827 0.16676 0.37140
 H207 H 0.17176 0.17174 0.33324
 H208 H 0.16050 0.16049 0.34436
 N209 N 0.64195 0.31943 0.67068
 N210 N 0.64212 0.32911 0.68035
 C211 C 0.63132 0.32703 0.68907
 C212 C 0.62406 0.31543 0.68461
 C213 C 0.63107 0.31087 0.67292
 H214 H 0.62891 0.33340 0.69802
 H215 H 0.62848 0.30196 0.66656
 Cu216 Cu 0.65661 0.34329 0.68066
 Cu217 Cu 0.65593 0.31848 0.65602
 Cu218 Cu 0.68170 0.34375 0.65623
 N219 N 0.67095 0.35763 0.68047
 N220 N 0.68079 0.35766 0.67095
 C221 C 0.68941 0.36847 0.67325
 C222 C 0.68471 0.37561 0.68480
 C223 C 0.67297 0.36848 0.68913
 H224 H 0.69844 0.37096 0.66699
 H225 H 0.66643 0.37104 0.69793
 N226 N 0.68083 0.32880 0.64222
 N227 N 0.67096 0.31923 0.64209
 C228 C 0.67313 0.31061 0.63125
 C229 C 0.68493 0.31496 0.62428
 C230 C 0.68956 0.32650 0.63149
 H231 H 0.66662 0.30183 0.62858
 H232 H 0.69860 0.33276 0.62904
 H233 H 0.67174 0.32810 0.66705
 H234 H 0.66059 0.33952 0.65593
 N235 N 0.64209 0.81951 1.17086
 N236 N 0.64248 0.82900 1.18071
 C237 C 0.63177 0.82687 1.18953
 C238 C 0.62432 0.81545 1.18492
 C239 C 0.63114 0.81104 1.17306
 H240 H 0.62949 0.83315 1.19858
 H241 H 0.62832 0.80233 1.16652
 Cu242 Cu 0.65688 0.84325 1.18076
 Cu243 Cu 0.65585 0.81872 1.15598
 Cu244 Cu 0.68159 0.84410 1.15613
 N245 N 0.67126 0.85752 1.18081
 N246 N 0.68085 0.85781 1.17105
 C247 C 0.68938 0.86870 1.17329
 C248 C 0.68489 0.87559 1.18507
 C249 C 0.67337 0.86824 1.18960
 H250 H 0.69817 0.87144 1.16680
 H251 H 0.66699 0.87061 1.19856
 N252 N 0.68056 0.82932 1.14196
 N253 N 0.67074 0.81969 1.14187
 C254 C 0.67293 0.81107 1.13104
 C255 C 0.68468 0.81549 1.12403
 C256 C 0.68925 0.82707 1.13120
 H257 H 0.66651 0.80219 1.12845
 H258 H 0.69828 0.83334 1.12874
 H259 H 0.67176 0.82823 1.16676
 H260 H 0.66046 0.83973 1.15592
 N261 N 0.14215 0.31950 1.17086
 N262 N 0.14227 0.32925 1.18046
 C263 C 0.13153 0.32715 1.18924
 C264 C 0.12434 0.31548 1.18487
 C265 C 0.13133 0.31090 1.17318
 H266 H 0.12910 0.33358 1.19815
 H267 H 0.12871 0.30199 1.16683
 Cu268 Cu 0.15648 0.34370 1.18043
 Cu269 Cu 0.15600 0.31865 1.15608
 Cu270 Cu 0.18154 0.34418 1.15606
 N271 N 0.17094 0.35790 1.18043
 N272 N 0.18069 0.35803 1.17082
 C273 C 0.18931 0.36883 1.17313
 C274 C 0.18473 0.37582 1.18482
 C275 C 0.17305 0.36864 1.18921
 H276 H 0.19821 0.37145 1.16675
 H277 H 0.16662 0.37107 1.19812
 N278 N 0.18064 0.32927 1.14203
 N279 N 0.17092 0.31955 1.14203
 C280 C 0.17315 0.31089 1.13125
 C281 C 0.18482 0.31538 1.12416
 C282 C 0.18932 0.32705 1.13124
 H283 H 0.16678 0.30196 1.12871
 H284 H 0.19824 0.33343 1.12868
 H285 H 0.17164 0.32855 1.16701
 H286 H 0.16041 0.33976 1.15572
 N287 N 0.14200 0.81961 0.67061
 N288 N 0.14219 0.82928 0.68028
 C289 C 0.13140 0.82722 0.68901
 C290 C 0.12413 0.81564 0.68456
 C291 C 0.13112 0.81106 0.67286
 H292 H 0.12901 0.83361 0.69796
 H293 H 0.12850 0.80215 0.66651
 Cu294 Cu 0.15667 0.84345 0.68059
 Cu295 Cu 0.15595 0.81866 0.65594
 Cu296 Cu 0.18169 0.84397 0.65612
 N297 N 0.17098 0.85779 0.68038
 N298 N 0.18079 0.85785 0.67083
 C299 C 0.18940 0.86867 0.67312
 C300 C 0.18472 0.87576 0.68470
 C301 C 0.17301 0.86861 0.68906
 H302 H 0.19839 0.87120 0.66683
 H303 H 0.16650 0.87113 0.69789
 N304 N 0.18082 0.82905 0.64211
 N305 N 0.17098 0.81944 0.64199
 C306 C 0.17318 0.81082 0.63117
 C307 C 0.18496 0.81521 0.62418
 C308 C 0.18955 0.82677 0.63137
 H309 H 0.16670 0.80201 0.62850
 H310 H 0.19856 0.83306 0.62891
 H311 H 0.17176 0.82828 0.66691
 H312 H 0.16057 0.83971 0.65586
 N313 N 0.35794 0.68058 0.67065
 N314 N 0.35793 0.67076 0.68018
 C315 C 0.36890 0.67268 0.68871
 C316 C 0.37609 0.68434 0.68428
 C317 C 0.36888 0.68908 0.67278
 H318 H 0.37139 0.66624 0.69759
 H319 H 0.37128 0.69817 0.66659
 Cu320 Cu 0.34329 0.65670 0.68076
 Cu321 Cu 0.34317 0.68213 0.65688
 Cu322 Cu 0.31848 0.65591 0.65594
 N323 N 0.32894 0.64236 0.68051
 N324 N 0.31930 0.64214 0.67079
 C325 C 0.31074 0.63127 0.67304
 C326 C 0.31527 0.62430 0.68476
 C327 C 0.32684 0.63159 0.68925
 H328 H 0.30187 0.62861 0.66663
 H329 H 0.33324 0.62918 0.69818
 N330 N 0.31944 0.67087 0.64192
 N331 N 0.32895 0.68081 0.64218
 C332 C 0.32685 0.68941 0.63132
 C333 C 0.31543 0.68471 0.62395
 C334 C 0.31099 0.67295 0.63093
 H335 H 0.33308 0.69849 0.62896
 H336 H 0.30220 0.66646 0.62821
 H337 H 0.32743 0.67137 0.66735
 H338 H 0.33941 0.66091 0.65615
 N339 N 0.35784 0.18057 1.17095
 N340 N 0.35779 0.17076 1.18048
 C341 C 0.36862 0.17277 1.18916
 C342 C 0.37578 0.18447 1.18482
 C343 C 0.36867 0.18917 1.17325
 H344 H 0.37115 0.16625 1.19797
 H345 H 0.37121 0.19815 1.16696
 Cu346 Cu 0.34342 0.15647 1.18071
 Cu347 Cu 0.34392 0.18149 1.15624
 Cu348 Cu 0.31860 0.15579 1.15606
 N349 N 0.32924 0.14199 1.18036
 N350 N 0.31955 0.14182 1.17070
 C351 C 0.31099 0.13096 1.17294
 C352 C 0.31555 0.12397 1.18463
 C353 C 0.32717 0.13121 1.18908
 H354 H 0.30208 0.12836 1.16656
 H355 H 0.33355 0.12881 1.19802
 N356 N 0.31935 0.17080 1.14214
 N357 N 0.32896 0.18064 1.14224
 C358 C 0.32666 0.18936 1.13152
 C359 C 0.31508 0.18476 1.12434
 C360 C 0.31070 0.17300 1.13133
 H361 H 0.33293 0.19838 1.12904
 H362 H 0.30189 0.16651 1.12867
 H363 H 0.32823 0.17156 1.16704
 H364 H 0.33965 0.16039 1.15596
 N365 N 0.85766 0.68068 1.17098
 N366 N 0.85765 0.67081 1.18047
 C367 C 0.86850 0.67281 1.18913
 C368 C 0.87562 0.68455 1.18482
 C369 C 0.86847 0.68928 1.17329
 H370 H 0.87105 0.66626 1.19791
 H371 H 0.87097 0.69831 1.16705
 Cu372 Cu 0.84331 0.65650 1.18064
 Cu373 Cu 0.84374 0.68160 1.15627
 Cu374 Cu 0.81846 0.65582 1.15605
 N375 N 0.82913 0.64203 1.18034
 N376 N 0.81942 0.64186 1.17069
 C377 C 0.81085 0.63101 1.17295
 C378 C 0.81542 0.62402 1.18464
 C379 C 0.82704 0.63126 1.18907
 H380 H 0.80193 0.62841 1.16659
 H381 H 0.83344 0.62886 1.19802
 N382 N 0.81922 0.67085 1.14212
 N383 N 0.82879 0.68073 1.14227
 C384 C 0.82648 0.68945 1.13154
 C385 C 0.81495 0.68482 1.12432
 C386 C 0.81059 0.67302 1.13129
 H387 H 0.83273 0.69850 1.12911
 H388 H 0.80180 0.66652 1.12861
 H389 H 0.82809 0.67163 1.16706
 H390 H 0.83953 0.66050 1.15593
 N391 N 0.85792 0.18044 0.67070
 N392 N 0.85771 0.17076 0.68037
 C393 C 0.86847 0.17283 0.68913
 C394 C 0.87574 0.18443 0.68469
 C395 C 0.86878 0.18899 0.67297
 H396 H 0.87087 0.16643 0.69806
 H397 H 0.87143 0.19789 0.66660
 Cu398 Cu 0.84338 0.15645 0.68042
 Cu399 Cu 0.84401 0.18135 0.65596
 Cu400 Cu 0.81825 0.15599 0.65616
 N401 N 0.82896 0.14223 0.68048
 N402 N 0.81914 0.14216 0.67095
 C403 C 0.81053 0.13135 0.67326
 C404 C 0.81522 0.12426 0.68485
 C405 C 0.82693 0.13142 0.68918
 H406 H 0.80156 0.12879 0.66697
 H407 H 0.83348 0.12887 0.69797
 N408 N 0.81916 0.17090 0.64211
 N409 N 0.82901 0.18051 0.64198
 C410 C 0.82681 0.18912 0.63114
 C411 C 0.81503 0.18473 0.62418
 C412 C 0.81043 0.17318 0.63139
 H413 H 0.83329 0.19794 0.62847
 H414 H 0.80140 0.16691 0.62895
 H415 H 0.82824 0.17164 0.66688
 H416 H 0.83936 0.16029 0.65570
 N417 N 0.31939 0.35805 0.67065
 N418 N 0.32933 0.35808 0.68007
 C419 C 0.32726 0.36884 0.68882
 C420 C 0.31541 0.37587 0.68463
 C421 C 0.31068 0.36877 0.67308
 H422 H 0.33381 0.37137 0.69761
 H423 H 0.30157 0.37121 0.66693
 Cu424 Cu 0.34369 0.34377 0.67999
 Cu425 Cu 0.31839 0.34407 0.65599
 Cu426 Cu 0.34398 0.31848 0.65600
 N427 N 0.35799 0.32941 0.68008
 N428 N 0.35796 0.31948 0.67067
 C429 C 0.36867 0.31076 0.67310
 C430 C 0.37579 0.31548 0.68465
 C431 C 0.36876 0.32733 0.68884
 H432 H 0.37111 0.30166 0.66695
 H433 H 0.37129 0.33388 0.69762
 N434 N 0.32894 0.31930 0.64206
 N435 N 0.31920 0.32904 0.64205
 C436 C 0.31052 0.32680 0.63128
 C437 C 0.31503 0.31513 0.62420
 C438 C 0.32670 0.31062 0.63129
 H439 H 0.30161 0.33319 0.62870
 H440 H 0.33310 0.30171 0.62872
 H441 H 0.32832 0.32843 0.66690
 H442 H 0.33940 0.33948 0.65542
 N443 N 0.31944 0.85808 0.17054
 N444 N 0.32916 0.85789 0.18017
 C445 C 0.32710 0.86866 0.18892
 C446 C 0.31546 0.87591 0.18451
 C447 C 0.31087 0.86894 0.17283
 H448 H 0.33354 0.87108 0.19781
 H449 H 0.30195 0.87158 0.16648
 Cu450 Cu 0.34353 0.84359 0.18025
 Cu451 Cu 0.31857 0.84421 0.15579
 Cu452 Cu 0.34415 0.81863 0.15582
 N453 N 0.35783 0.82923 0.18021
 N454 N 0.35801 0.81951 0.17058
 C455 C 0.36887 0.81093 0.17289
 C456 C 0.37584 0.81552 0.18457
 C457 C 0.36859 0.82715 0.18897
 H458 H 0.37151 0.80201 0.16655
 H459 H 0.37100 0.83359 0.19786
 N460 N 0.32920 0.81952 0.14179
 N461 N 0.31947 0.82926 0.14178
 C462 C 0.31079 0.82701 0.13100
 C463 C 0.31529 0.81533 0.12393
 C464 C 0.32697 0.81084 0.13102
 H465 H 0.30185 0.83338 0.12845
 H466 H 0.33335 0.80190 0.12849
 H467 H 0.32837 0.82846 0.16661
 H468 H 0.33964 0.83969 0.15549
 N469 N 0.81945 0.35810 0.17060
 N470 N 0.82916 0.35791 0.18025
 C471 C 0.82710 0.36868 0.18899
 C472 C 0.81547 0.37594 0.18456
 C473 C 0.81088 0.36897 0.17288
 H474 H 0.83354 0.37111 0.19788
 H475 H 0.80196 0.37161 0.16653
 Cu476 Cu 0.84351 0.34359 0.18025
 Cu477 Cu 0.81857 0.34424 0.15583
 Cu478 Cu 0.84414 0.31865 0.15585
 N479 N 0.85782 0.32924 0.18026
 N480 N 0.85800 0.31953 0.17063
 C481 C 0.86886 0.31095 0.17292
 C482 C 0.87584 0.31554 0.18460
 C483 C 0.86859 0.32717 0.18902
 H484 H 0.87150 0.30203 0.16657
 H485 H 0.87102 0.33361 0.19791
 N486 N 0.82919 0.31955 0.14182
 N487 N 0.81946 0.32929 0.14181
 C488 C 0.81078 0.32705 0.13104
 C489 C 0.81527 0.31537 0.12397
 C490 C 0.82695 0.31087 0.13105
 H491 H 0.80184 0.33342 0.12849
 H492 H 0.83332 0.30193 0.12851
 H493 H 0.82839 0.32849 0.16664
 H494 H 0.83965 0.33971 0.15551
 N495 N 0.81952 0.85831 0.67055
 N496 N 0.82921 0.85812 0.68021
 C497 C 0.82714 0.86891 0.68893
 C498 C 0.81553 0.87619 0.68448
 C499 C 0.81095 0.86919 0.67280
 H500 H 0.83353 0.87130 0.69787
 H501 H 0.80203 0.87181 0.66644
 Cu502 Cu 0.84341 0.84363 0.68052
 Cu503 Cu 0.81858 0.84433 0.65590
 Cu504 Cu 0.84391 0.81858 0.65610
 N505 N 0.85777 0.82930 0.68033
 N506 N 0.85782 0.81948 0.67080
 C507 C 0.86864 0.81086 0.67311
 C508 C 0.87576 0.81555 0.68467
 C509 C 0.86860 0.82727 0.68901
 H510 H 0.87117 0.80186 0.66684
 H511 H 0.87114 0.83378 0.69781
 N512 N 0.82896 0.81945 0.64210
 N513 N 0.81935 0.82930 0.64198
 C514 C 0.81071 0.82710 0.63115
 C515 C 0.81510 0.81531 0.62419
 C516 C 0.82667 0.81071 0.63138
 H517 H 0.80190 0.83359 0.62848
 H518 H 0.83296 0.80169 0.62893
 H519 H 0.82824 0.82851 0.66689
 H520 H 0.83965 0.83965 0.65579
 N521 N 0.68060 0.64194 0.67079
 N522 N 0.67091 0.64212 0.68046
 C523 C 0.67302 0.63135 0.68921
 C524 C 0.68465 0.62411 0.68477
 C525 C 0.68920 0.63110 0.67306
 H526 H 0.66664 0.62894 0.69816
 H527 H 0.69813 0.62851 0.66671
 Cu528 Cu 0.65655 0.65645 0.68067
 Cu529 Cu 0.68150 0.65587 0.65610
 Cu530 Cu 0.65618 0.68162 0.65633
 N531 N 0.64233 0.67093 0.68060
 N532 N 0.64230 0.68076 0.67108
 C533 C 0.63151 0.68941 0.67340
 C534 C 0.62438 0.68473 0.68497
 C535 C 0.63150 0.67298 0.68929
 H536 H 0.62902 0.69843 0.66715
 H537 H 0.62893 0.66646 0.69809
 N538 N 0.67109 0.68072 0.64229
 N539 N 0.68069 0.67086 0.64214
 C540 C 0.68930 0.67303 0.63130
 C541 C 0.68492 0.68482 0.62433
 C542 C 0.67337 0.68944 0.63156
 H543 H 0.69811 0.66653 0.62861
 H544 H 0.66709 0.69847 0.62912
 H545 H 0.67177 0.67158 0.66718
 H546 H 0.66040 0.66049 0.65596
 N547 N 0.68096 0.14200 0.17085
 N548 N 0.67109 0.14201 0.18033
 C549 C 0.67317 0.13123 0.18907
 C550 C 0.68496 0.12414 0.18480
 C551 C 0.68966 0.13125 0.17323
 H552 H 0.66660 0.12865 0.19783
 H553 H 0.69868 0.12873 0.16697
 Cu554 Cu 0.65645 0.15604 0.18026
 Cu555 Cu 0.68180 0.15584 0.15609
 Cu556 Cu 0.65606 0.18119 0.15593
 N557 N 0.64229 0.17056 0.18025
 N558 N 0.64216 0.18031 0.17065
 C559 C 0.63136 0.18896 0.17299
 C560 C 0.62437 0.18438 0.18468
 C561 C 0.63156 0.17269 0.18904
 H562 H 0.62877 0.19791 0.16667
 H563 H 0.62911 0.16624 0.19793
 N564 N 0.67102 0.18036 0.14193
 N565 N 0.68087 0.17074 0.14202
 C566 C 0.68957 0.17302 0.13127
 C567 C 0.68496 0.18459 0.12409
 C568 C 0.67319 0.18898 0.13110
 H569 H 0.69861 0.16674 0.12881
 H570 H 0.66671 0.19782 0.12846
 H571 H 0.67172 0.17138 0.16703
 H572 H 0.66071 0.16016 0.15561
 N573 N 0.18061 0.64212 0.17072
 N574 N 0.17104 0.64245 0.18050
 C575 C 0.17313 0.63171 0.18927
 C576 C 0.18462 0.62431 0.18472
 C577 C 0.18911 0.63119 0.17293
 H578 H 0.16677 0.62937 0.19825
 H579 H 0.19789 0.62841 0.16643
 Cu580 Cu 0.15672 0.65681 0.18051
 Cu581 Cu 0.18141 0.65589 0.15584
 Cu582 Cu 0.15583 0.68149 0.15585
 N583 N 0.14238 0.67114 0.18051
 N584 N 0.14205 0.68070 0.17073
 C585 C 0.13113 0.68922 0.17296
 C586 C 0.12424 0.68473 0.18475
 C587 C 0.13164 0.67324 0.18930
 H588 H 0.12836 0.69799 0.16647
 H589 H 0.12929 0.66689 0.19828
 N590 N 0.17070 0.68050 0.14173
 N591 N 0.18044 0.67076 0.14173
 C592 C 0.18911 0.67298 0.13093
 C593 C 0.18461 0.68465 0.12385
 C594 C 0.17293 0.68916 0.13094
 H595 H 0.19807 0.66663 0.12841
 H596 H 0.16658 0.69812 0.12841
 H597 H 0.17171 0.67177 0.16656
 H598 H 0.16033 0.66042 0.15568
 N599 N 0.18051 0.14175 0.67079
 N600 N 0.17076 0.14188 0.68041
 C601 C 0.17287 0.13110 0.68914
 C602 C 0.18454 0.12389 0.68474
 C603 C 0.18913 0.13092 0.67308
 H604 H 0.16643 0.12866 0.69804
 H605 H 0.19808 0.12834 0.66675
 Cu606 Cu 0.15635 0.15617 0.68055
 Cu607 Cu 0.18136 0.15566 0.65607
 Cu608 Cu 0.15583 0.18120 0.65609
 N609 N 0.14206 0.17059 0.68043
 N610 N 0.14194 0.18033 0.67082
 C611 C 0.13112 0.18897 0.67312
 C612 C 0.12410 0.18438 0.68479
 C613 C 0.13129 0.17270 0.68917
 H614 H 0.12855 0.19792 0.66680
 H615 H 0.12884 0.16627 0.69807
 N616 N 0.17076 0.18033 0.64205
 N617 N 0.18049 0.17060 0.64204
 C618 C 0.18917 0.17285 0.63125
 C619 C 0.18466 0.18453 0.62418
 C620 C 0.17299 0.18902 0.63128
 H621 H 0.19810 0.16648 0.62869
 H622 H 0.16661 0.19795 0.62874
 H623 H 0.17150 0.17136 0.66703
 H624 H 0.16025 0.16015 0.65583
 N625 N 0.31945 0.64191 0.32926
 N626 N 0.32912 0.64211 0.31957
 C627 C 0.32694 0.63143 0.31075
 C628 C 0.31531 0.62420 0.31519
 C629 C 0.31082 0.63111 0.32696
 H630 H 0.33330 0.62906 0.30178
 H631 H 0.30193 0.62847 0.33335
 Cu632 Cu 0.34364 0.65624 0.31953
 Cu633 Cu 0.31861 0.65573 0.34404
 Cu634 Cu 0.34394 0.68142 0.34382
 N635 N 0.35767 0.67087 0.31943
 N636 N 0.35774 0.68065 0.32899
 C637 C 0.36849 0.68932 0.32663
 C638 C 0.37554 0.68472 0.31498
 C639 C 0.36841 0.67300 0.31065
 H640 H 0.37104 0.69828 0.33294
 H641 H 0.37093 0.66650 0.30182
 N642 N 0.32912 0.68046 0.35795
 N643 N 0.31950 0.67062 0.35808
 C644 C 0.31089 0.67280 0.36892
 C645 C 0.31528 0.68456 0.37590
 C646 C 0.32685 0.68916 0.36870
 H647 H 0.30205 0.66635 0.37157
 H648 H 0.33310 0.69820 0.37113
 H649 H 0.32829 0.67136 0.33296
 H650 H 0.33961 0.66030 0.34425
 N651 N 0.31917 0.14185 0.82927
 N652 N 0.32896 0.14197 0.81968
 C653 C 0.32687 0.13123 0.81092
 C654 C 0.31517 0.12405 0.81526
 C655 C 0.31055 0.13107 0.82692
 H656 H 0.33335 0.12876 0.80205
 H657 H 0.30159 0.12847 0.83324
 Cu658 Cu 0.34339 0.15619 0.81964
 Cu659 Cu 0.31834 0.15566 0.84406
 Cu660 Cu 0.34407 0.18101 0.84424
 N661 N 0.35773 0.17051 0.81978
 N662 N 0.35795 0.18016 0.82949
 C663 C 0.36880 0.18874 0.82720
 C664 C 0.37571 0.18426 0.81542
 C665 C 0.36843 0.17267 0.81097
 H666 H 0.37146 0.19760 0.83360
 H667 H 0.37077 0.16634 0.80196
 N668 N 0.32912 0.18013 0.85826
 N669 N 0.31928 0.17052 0.85815
 C670 C 0.31057 0.17279 0.86890
 C671 C 0.31517 0.18435 0.87609
 C672 C 0.32694 0.18873 0.86910
 H673 H 0.30152 0.16654 0.87134
 H674 H 0.33341 0.19756 0.87174
 H675 H 0.32828 0.17138 0.83326
 H676 H 0.33944 0.15999 0.84438
 N677 N 0.81949 0.64198 0.82934
 N678 N 0.82925 0.64211 0.81974
 C679 C 0.82716 0.63136 0.81098
 C680 C 0.81548 0.62416 0.81535
 C681 C 0.81087 0.63117 0.82702
 H682 H 0.83361 0.62892 0.80208
 H683 H 0.80190 0.62861 0.83333
 Cu684 Cu 0.84358 0.65646 0.81974
 Cu685 Cu 0.81858 0.65587 0.84411
 Cu686 Cu 0.84412 0.68146 0.84408
 N687 N 0.85789 0.67080 0.81971
 N688 N 0.85800 0.68056 0.82930
 C689 C 0.86879 0.68920 0.82696
 C690 C 0.87581 0.68461 0.81529
 C691 C 0.86864 0.67291 0.81094
 H692 H 0.87134 0.69818 0.83325
 H693 H 0.87110 0.66647 0.80205
 N694 N 0.82918 0.68056 0.85811
 N695 N 0.81945 0.67082 0.85813
 C696 C 0.81079 0.67304 0.86893
 C697 C 0.81528 0.68472 0.87601
 C698 C 0.82695 0.68922 0.86890
 H699 H 0.80188 0.66666 0.87151
 H700 H 0.83332 0.69814 0.87145
 H701 H 0.82837 0.67163 0.83323
 H702 H 0.83962 0.66043 0.84444
 N703 N 0.81928 0.14205 0.32893
 N704 N 0.82916 0.14204 0.31946
 C705 C 0.82708 0.13128 0.31072
 C706 C 0.81529 0.12421 0.31499
 C707 C 0.81059 0.13132 0.32655
 H708 H 0.83367 0.12868 0.30197
 H709 H 0.80156 0.12880 0.33280
 Cu710 Cu 0.84379 0.15606 0.31954
 Cu711 Cu 0.81842 0.15585 0.34370
 Cu712 Cu 0.84412 0.18118 0.34388
 N713 N 0.85791 0.17059 0.31955
 N714 N 0.85801 0.18034 0.32915
 C715 C 0.86879 0.18899 0.32681
 C716 C 0.87579 0.18444 0.31512
 C717 C 0.86863 0.17274 0.31075
 H718 H 0.87136 0.19793 0.33314
 H719 H 0.87109 0.16631 0.30186
 N720 N 0.82917 0.18033 0.35789
 N721 N 0.81933 0.17072 0.35778
 C722 C 0.81061 0.17299 0.36853
 C723 C 0.81521 0.18454 0.37573
 C724 C 0.82698 0.18893 0.36874
 H725 H 0.80159 0.16671 0.37098
 H726 H 0.83346 0.19775 0.37140
 H727 H 0.82846 0.17137 0.33277
 H728 H 0.83948 0.16014 0.34420
 N729 N 0.68072 0.35788 0.32910
 N730 N 0.67096 0.35777 0.31950
 C731 C 0.67311 0.36849 0.31071
 C732 C 0.68481 0.37564 0.31508
 C733 C 0.68939 0.36864 0.32676
 H734 H 0.66664 0.37097 0.30186
 H735 H 0.69832 0.37123 0.33309
 Cu736 Cu 0.65636 0.34372 0.31953
 Cu737 Cu 0.68155 0.34406 0.34388
 Cu738 Cu 0.65604 0.31855 0.34386
 N739 N 0.64231 0.32912 0.31948
 N740 N 0.64221 0.31936 0.32907
 C741 C 0.63144 0.31070 0.32672
 C742 C 0.62443 0.31527 0.31504
 C743 C 0.63159 0.32697 0.31069
 H744 H 0.62885 0.30176 0.33306
 H745 H 0.62911 0.33345 0.30183
 N746 N 0.67092 0.31946 0.35794
 N747 N 0.68064 0.32918 0.35794
 C748 C 0.68930 0.32696 0.36874
 C749 C 0.68480 0.31529 0.37583
 C750 C 0.67314 0.31080 0.36873
 H751 H 0.69824 0.33332 0.37129
 H752 H 0.66678 0.30186 0.37127
 H753 H 0.67168 0.32848 0.33287
 H754 H 0.66051 0.33962 0.34422
 N755 N 0.68051 0.85824 0.82940
 N756 N 0.67058 0.85829 0.81997
 C757 C 0.67265 0.86904 0.81122
 C758 C 0.68450 0.87605 0.81541
 C759 C 0.68922 0.86894 0.82697
 H760 H 0.66611 0.87159 0.80242
 H761 H 0.69833 0.87137 0.83313
 Cu762 Cu 0.65622 0.84400 0.82005
 Cu763 Cu 0.68153 0.84428 0.84407
 Cu764 Cu 0.65594 0.81873 0.84408
 N765 N 0.64191 0.82966 0.81998
 N766 N 0.64194 0.81974 0.82941
 C767 C 0.63122 0.81104 0.82699
 C768 C 0.62410 0.81576 0.81544
 C769 C 0.63113 0.82759 0.81123
 H770 H 0.62879 0.80194 0.83316
 H771 H 0.62859 0.83413 0.80244
 N772 N 0.67098 0.81953 0.85803
 N773 N 0.68072 0.82925 0.85802
 C774 C 0.68940 0.82701 0.86879
 C775 C 0.68490 0.81535 0.87589
 C776 C 0.67323 0.81086 0.86881
 H777 H 0.69831 0.83340 0.87136
 H778 H 0.66683 0.80196 0.87139
 H779 H 0.67161 0.82866 0.83316
 H780 H 0.66053 0.83974 0.84464
 N781 N 0.18047 0.35790 0.82932
 N782 N 0.17070 0.35779 0.81973
 C783 C 0.17280 0.36853 0.81096
 C784 C 0.18451 0.37570 0.81530
 C785 C 0.18911 0.36868 0.82697
 H786 H 0.16635 0.37098 0.80207
 H787 H 0.19808 0.37125 0.83328
 Cu788 Cu 0.15636 0.34346 0.81975
 Cu789 Cu 0.18137 0.34402 0.84409
 Cu790 Cu 0.15579 0.31846 0.84410
 N791 N 0.14203 0.32913 0.81974
 N792 N 0.14191 0.31936 0.82933
 C793 C 0.13112 0.31073 0.82699
 C794 C 0.12411 0.31533 0.81532
 C795 C 0.13129 0.32703 0.81096
 H796 H 0.12855 0.30177 0.83330
 H797 H 0.12883 0.33347 0.80207
 N798 N 0.17074 0.31935 0.85813
 N799 N 0.18047 0.32907 0.85813
 C800 C 0.18913 0.32685 0.86893
 C801 C 0.18463 0.31519 0.87603
 C802 C 0.17296 0.31070 0.86894
 H803 H 0.19806 0.33322 0.87148
 H804 H 0.16659 0.30178 0.87150
 H805 H 0.17156 0.32826 0.83323
 H806 H 0.16033 0.33947 0.84445
 N807 N 0.18080 0.85776 0.32877
 N808 N 0.17112 0.85756 0.31909
 C809 C 0.17318 0.86834 0.31036
 C810 C 0.18476 0.87562 0.31483
 C811 C 0.18935 0.86863 0.32651
 H812 H 0.16673 0.87080 0.30147
 H813 H 0.19820 0.87131 0.33293
 Cu814 Cu 0.15672 0.84331 0.31915
 Cu815 Cu 0.18160 0.84403 0.34365
 Cu816 Cu 0.15580 0.81870 0.34386
 N817 N 0.14233 0.82905 0.31922
 N818 N 0.14198 0.81953 0.32903
 C819 C 0.13104 0.81104 0.32683
 C820 C 0.12419 0.81549 0.31501
 C821 C 0.13160 0.82694 0.31043
 H822 H 0.12827 0.80228 0.33334
 H823 H 0.12929 0.83324 0.30139
 N824 N 0.17073 0.81961 0.35793
 N825 N 0.18059 0.82920 0.35779
 C826 C 0.18930 0.82693 0.36854
 C827 C 0.18469 0.81539 0.37576
 C828 C 0.17290 0.81101 0.36879
 H829 H 0.19836 0.83317 0.37095
 H830 H 0.16643 0.80219 0.37145
 H831 H 0.17173 0.82828 0.33302
 H832 H 0.16051 0.83975 0.34396
 O833 O 0.26769 0.98632 0.24868
 O834 O 0.24855 1.01366 0.26759
 O835 O 0.24855 0.98633 0.26760
 O836 O 0.26771 1.01362 0.24869
 O837 O 0.25151 1.01364 0.23238
 O838 O 0.23235 0.98636 0.25129
 O839 O 0.23235 1.01368 0.25127
 O840 O 0.25149 0.98635 0.23236
 Cu841 Cu 0.25974 0.99997 0.25978
 Cu842 Cu 0.24030 1.00000 0.24020
 C843 C 0.26272 0.98151 0.23743
 C844 C 0.23734 1.01852 0.26250
 C845 C 0.23733 0.98151 0.26252
 C846 C 0.26273 1.01845 0.23745
 O847 O 0.24848 0.51362 0.76767
 O848 O 0.26763 0.48633 0.74871
 O849 O 0.26761 0.51366 0.74874
 O850 O 0.24848 0.48629 0.76764
 O851 O 0.23227 0.48631 0.75134
 O852 O 0.25140 0.51368 0.73244
 O853 O 0.25141 0.48635 0.73241
 O854 O 0.23227 0.51365 0.75137
 Cu855 Cu 0.25967 0.49997 0.75982
 Cu856 Cu 0.24022 0.50000 0.74026
 C857 C 0.23726 0.51847 0.76260
 C858 C 0.26264 0.48152 0.73747
 C859 C 0.26261 0.51851 0.73751
 C860 C 0.23726 0.48146 0.76257
 O861 O 0.76788 0.01345 0.25141
 O862 O 0.74874 -0.01383 0.23248
 O863 O 0.74874 0.01348 0.23248
 O864 O 0.76786 -0.01388 0.25140
 O865 O 0.75164 -0.01386 0.26770
 O866 O 0.73252 0.01351 0.24878
 O867 O 0.73252 -0.01380 0.24879
 O868 O 0.75166 0.01347 0.26771
 Cu869 Cu 0.75993 -0.00019 0.24031
 Cu870 Cu 0.74047 -0.00016 0.25988
 C871 C 0.76289 0.01829 0.26264
 C872 C 0.73751 -0.01863 0.23755
 C873 C 0.73751 0.01832 0.23754
 C874 C 0.76285 -0.01872 0.26262
 O875 O 0.73239 0.51353 0.74884
 O876 O 0.75158 0.48621 0.76776
 O877 O 0.75156 0.51355 0.76774
 O878 O 0.73244 0.48618 0.74884
 O879 O 0.74865 0.48618 0.73252
 O880 O 0.76777 0.51354 0.75143
 O881 O 0.76779 0.48621 0.75144
 O882 O 0.74860 0.51353 0.73252
 Cu883 Cu 0.74037 0.49987 0.75992
 Cu884 Cu 0.75981 0.49987 0.74035
 C885 C 0.73738 0.51837 0.73760
 C886 C 0.76281 0.48137 0.76268
 C887 C 0.76278 0.51838 0.76266
 C888 C 0.73744 0.48133 0.73761
 O889 O 0.25146 0.48636 0.26758
 O890 O 0.23233 0.51371 0.24868
 O891 O 0.23232 0.48640 0.24869
 O892 O 0.25147 0.51369 0.26760
 O893 O 0.26768 0.51369 0.25128
 O894 O 0.24853 0.48639 0.23238
 O895 O 0.24854 0.51371 0.23236
 O896 O 0.26767 0.48635 0.25127
 Cu897 Cu 0.24028 0.50005 0.25977
 Cu898 Cu 0.25973 0.50004 0.24019
 C899 C 0.26267 0.48150 0.26249
 C900 C 0.23731 0.51853 0.23743
 C901 C 0.23731 0.48157 0.23746
 C902 C 0.26268 0.51852 0.26252
 O903 O 0.74842 1.01394 0.76776
 O904 O 0.76753 0.98651 0.74889
 O905 O 0.76755 1.01381 0.74883
 O906 O 0.74839 0.98659 0.76783
 O907 O 0.73217 0.98660 0.75153
 O908 O 0.75133 1.01382 0.73253
 O909 O 0.75131 0.98652 0.73260
 O910 O 0.73220 1.01395 0.75147
 Cu911 Cu 0.75958 1.00021 0.75997
 Cu912 Cu 0.74013 1.00022 0.74042
 C913 C 0.73722 1.01882 0.76267
 C914 C 0.76255 0.98169 0.73766
 C915 C 0.76257 1.01862 0.73758
 C916 C 0.73717 0.98176 0.76276
 O917 O 0.73228 0.48635 0.25132
 O918 O 0.75144 0.51364 0.23241
 O919 O 0.75145 0.48634 0.23241
 O920 O 0.73230 0.51368 0.25132
 O921 O 0.74850 0.51365 0.26763
 O922 O 0.76765 0.48633 0.24872
 O923 O 0.76765 0.51363 0.24872
 O924 O 0.74849 0.48633 0.26763
 Cu925 Cu 0.74024 0.50000 0.24024
 Cu926 Cu 0.75969 0.49998 0.25981
 C927 C 0.73727 0.48150 0.26255
 C928 C 0.76266 0.51846 0.23748
 C929 C 0.76268 0.48152 0.23748
 C930 C 0.73729 0.51851 0.26255
 O931 O 0.24874 -0.01393 0.73247
 O932 O 0.26791 0.01329 0.75145
 O933 O 0.26792 -0.01407 0.75135
 O934 O 0.24874 0.01338 0.73256
 O935 O 0.23255 0.01335 0.74889
 O936 O 0.25173 -0.01412 0.76768
 O937 O 0.25173 0.01325 0.76778
 O938 O 0.23255 -0.01396 0.74880
 Cu939 Cu 0.25995 -0.00033 0.74034
 Cu940 Cu 0.24053 -0.00037 0.75993
 C941 C 0.23751 -0.01875 0.73754
 C942 C 0.26292 0.01811 0.76269
 C943 C 0.26293 -0.01897 0.76256
 C944 C 0.23752 0.01820 0.73765
 O945 O 0.24861 0.26754 0.98644
 O946 O 0.26763 0.24846 1.01373
 O947 O 0.26766 0.24846 0.98646
 O948 O 0.24866 0.26759 1.01371
 O949 O 0.23234 0.25137 1.01375
 O950 O 0.25133 0.23225 0.98648
 O951 O 0.25131 0.23224 1.01375
 O952 O 0.23229 0.25133 0.98648
 Cu953 Cu 0.25977 0.25963 1.00008
 Cu954 Cu 0.24019 0.24018 1.00012
 C955 C 0.23735 0.26254 0.98164
 C956 C 0.26256 0.23725 1.01857
 C957 C 0.26258 0.23724 0.98165
 C958 C 0.23741 0.26259 1.01856
 O959 O 0.24867 0.76780 0.48622
 O960 O 0.26769 0.74873 0.51352
 O961 O 0.26769 0.74870 0.48624
 O962 O 0.24869 0.76784 0.51349
 O963 O 0.23237 0.75162 0.51353
 O964 O 0.25137 0.73248 0.48628
 O965 O 0.25138 0.73251 0.51356
 O966 O 0.23235 0.75158 0.48626
 Cu967 Cu 0.25982 0.75988 0.49986
 Cu968 Cu 0.24024 0.74042 0.49991
 C969 C 0.23741 0.76279 0.48142
 C970 C 0.26263 0.73753 0.51838
 C971 C 0.26261 0.73748 0.48142
 C972 C 0.23744 0.76284 0.51833
 O973 O 0.23252 0.74862 -0.01375
 O974 O 0.25156 0.76767 0.01348
 O975 O 0.25161 0.76761 -0.01380
 O976 O 0.23250 0.74864 0.01351
 O977 O 0.24877 0.73234 0.01354
 O978 O 0.26788 0.75131 -0.01375
 O979 O 0.26783 0.75137 0.01353
 O980 O 0.24879 0.73232 -0.01372
 Cu981 Cu 0.24043 0.75976 -0.00014
 Cu982 Cu 0.25995 0.74021 -0.00010
 C983 C 0.23755 0.73737 -0.01856
 C984 C 0.26279 0.76261 0.01833
 C985 C 0.26285 0.76254 -0.01861
 C986 C 0.23753 0.73740 0.01836
 O987 O 0.26761 0.25131 0.48645
 O988 O 0.24855 0.23227 0.51374
 O989 O 0.24856 0.23228 0.48646
 O990 O 0.26760 0.25131 0.51372
 O991 O 0.25130 0.26759 0.51372
 O992 O 0.23227 0.24855 0.48646
 O993 O 0.23226 0.24854 0.51374
 O994 O 0.25131 0.26758 0.48645
 Cu995 Cu 0.25971 0.24016 0.50009
 Cu996 Cu 0.24016 0.25969 0.50009
 C997 C 0.26256 0.26254 0.48162
 C998 C 0.23731 0.23731 0.51857
 C999 C 0.23732 0.23732 0.48163
 C1000 C 0.26255 0.26255 0.51854
 O1001 O 0.74865 0.76773 0.98643
 O1002 O 0.76763 0.74862 1.01372
 O1003 O 0.76768 0.74864 0.98645
 O1004 O 0.74865 0.76774 1.01369
 O1005 O 0.73233 0.75152 1.01369
 O1006 O 0.75136 0.73242 0.98644
 O1007 O 0.75131 0.73240 1.01371
 O1008 O 0.73232 0.75151 0.98643
 Cu1009 Cu 0.75979 0.75980 1.00007
 Cu1010 Cu 0.74020 0.74034 1.00006
 C1011 C 0.73739 0.76273 0.98161
 C1012 C 0.76255 0.73741 1.01855
 C1013 C 0.76262 0.73742 0.98162
 C1014 C 0.73740 0.76273 1.01852
 O1015 O 0.74861 0.26746 0.48627
 O1016 O 0.76760 0.24831 0.51353
 O1017 O 0.76763 0.24835 0.48627
 O1018 O 0.74861 0.26744 0.51356
 O1019 O 0.73229 0.25123 0.51355
 O1020 O 0.75130 0.23214 0.48625
 O1021 O 0.75127 0.23210 0.51352
 O1022 O 0.73228 0.25125 0.48626
 Cu1023 Cu 0.75974 0.25951 0.49991
 Cu1024 Cu 0.74015 0.24006 0.49989
 C1025 C 0.73736 0.26246 0.48144
 C1026 C 0.76252 0.23709 0.51835
 C1027 C 0.76257 0.23713 0.48143
 C1028 C 0.73736 0.26243 0.51839
 O1029 O 0.76763 0.25152 -0.01372
 O1030 O 0.74867 0.23240 0.01357
 O1031 O 0.74863 0.23244 -0.01372
 O1032 O 0.76767 0.25148 0.01355
 O1033 O 0.75134 0.26772 0.01359
 O1034 O 0.73229 0.24867 -0.01368
 O1035 O 0.73234 0.24863 0.01361
 O1036 O 0.75130 0.26775 -0.01368
 Cu1037 Cu 0.75978 0.24034 -0.00008
 Cu1038 Cu 0.74018 0.25981 -0.00003
 C1039 C 0.76255 0.26275 -0.01853
 C1040 C 0.73742 0.23741 0.01843
 C1041 C 0.73737 0.23746 -0.01853
 C1042 C 0.76261 0.26270 0.01839
 O1043 O 0.73226 0.74873 0.48644
 O1044 O 0.75133 0.76777 0.51369
 O1045 O 0.75129 0.76778 0.48642
 O1046 O 0.73228 0.74873 0.51372
 O1047 O 0.74858 0.73247 0.51370
 O1048 O 0.76759 0.75151 0.48639
 O1049 O 0.76763 0.75150 0.51367
 O1050 O 0.74856 0.73246 0.48642
 Cu1051 Cu 0.74016 0.75988 0.50007
 Cu1052 Cu 0.75972 0.74036 0.50004
 C1053 C 0.73731 0.73750 0.48160
 C1054 C 0.76259 0.76273 0.51850
 C1055 C 0.76253 0.76275 0.48157
 C1056 C 0.73733 0.73750 0.51854
 O1057 O 1.01367 0.26777 0.24880
 O1058 O 0.98630 0.24857 0.26760
 O1059 O 1.01364 0.24857 0.26764
 O1060 O 0.98633 0.26775 0.24872
 O1061 O 0.98639 0.25160 0.23237
 O1062 O 1.01370 0.23242 0.25128
 O1063 O 0.98636 0.23242 0.25124
 O1064 O 1.01372 0.25162 0.23245
 Cu1065 Cu 0.99998 0.25978 0.25982
 Cu1066 Cu 1.00004 0.24040 0.24020
 C1067 C 1.01854 0.26281 0.23756
 C1068 C 0.98149 0.23737 0.26249
 C1069 C 1.01851 0.23738 0.26253
 C1070 C 0.98153 0.26280 0.23746
 O1071 O 0.48626 0.25135 0.73244
 O1072 O 0.51359 0.23221 0.75139
 O1073 O 0.48623 0.23222 0.75137
 O1074 O 0.51360 0.25134 0.73247
 O1075 O 0.51358 0.26753 0.74878
 O1076 O 0.48620 0.24841 0.76768
 O1077 O 0.51356 0.24840 0.76770
 O1078 O 0.48624 0.26754 0.74875
 Cu1079 Cu 0.49992 0.24016 0.74029
 Cu1080 Cu 0.49989 0.25959 0.75986
 C1081 C 0.48142 0.26257 0.73751
 C1082 C 0.51842 0.23720 0.76262
 C1083 C 0.48137 0.23720 0.76259
 C1084 C 0.51843 0.26255 0.73754
 O1085 O -0.01383 0.26765 0.75130
 O1086 O 0.01350 0.24842 0.73246
 O1087 O -0.01384 0.24843 0.73248
 O1088 O 0.01352 0.26760 0.75133
 O1089 O 0.01350 0.25146 0.76769
 O1090 O -0.01383 0.23228 0.74885
 O1091 O 0.01351 0.23227 0.74882
 O1092 O -0.01385 0.25150 0.76767
 Cu1093 Cu -0.00016 0.25964 0.74026
 Cu1094 Cu -0.00017 0.24027 0.75990
 C1095 C -0.01868 0.26270 0.76255
 C1096 C 0.01834 0.23721 0.73757
 C1097 C -0.01867 0.23724 0.73760
 C1098 C 0.01835 0.26264 0.76258
 O1099 O 0.51372 0.24829 0.23237
 O1100 O 0.48640 0.26748 0.25129
 O1101 O 0.51376 0.26748 0.25124
 O1102 O 0.48638 0.24830 0.23244
 O1103 O 0.48641 0.23214 0.24879
 O1104 O 0.51379 0.25132 0.26759
 O1105 O 0.48643 0.25132 0.26764
 O1106 O 0.51375 0.23213 0.24873
 Cu1107 Cu 0.50006 0.25950 0.24020
 Cu1108 Cu 0.50010 0.24012 0.25982
 C1109 C 0.51856 0.23708 0.23747
 C1110 C 0.48158 0.26252 0.26254
 C1111 C 0.51861 0.26252 0.26248
 C1112 C 0.48155 0.23710 0.23755
 O1113 O 1.01369 0.73252 0.75132
 O1114 O 0.98638 0.75167 0.73240
 O1115 O 1.01371 0.75168 0.73245
 O1116 O 0.98635 0.73253 0.75131
 O1117 O 0.98631 0.74870 0.76763
 O1118 O 1.01367 0.76786 0.74878
 O1119 O 0.98633 0.76785 0.74872
 O1120 O 1.01366 0.74869 0.76765
 Cu1121 Cu 1.00003 0.74048 0.74024
 Cu1122 Cu 0.99999 0.75989 0.75983
 C1123 C 1.01851 0.73749 0.76256
 C1124 C 0.98152 0.76288 0.73747
 C1125 C 1.01853 0.76289 0.73755
 C1126 C 0.98150 0.73749 0.76254
 O1127 O 0.48637 0.75156 0.23239
 O1128 O 0.51368 0.73240 0.25133
 O1129 O 0.48633 0.73239 0.25127
 O1130 O 0.51371 0.75155 0.23244
 O1131 O 0.51365 0.76772 0.24877
 O1132 O 0.48628 0.74856 0.26760
 O1133 O 0.51363 0.74857 0.26766
 O1134 O 0.48632 0.76773 0.24872
 Cu1135 Cu 0.50002 0.74036 0.24022
 Cu1136 Cu 0.49996 0.75976 0.25982
 C1137 C 0.48152 0.76277 0.23747
 C1138 C 0.51849 0.73737 0.26257
 C1139 C 0.48146 0.73736 0.26250
 C1140 C 0.51852 0.76276 0.23754
 O1141 O -0.01384 0.76773 0.25125
 O1142 O 0.01348 0.74856 0.23234
 O1143 O -0.01386 0.74854 0.23241
 O1144 O 0.01351 0.76770 0.25123
 O1145 O 0.01354 0.75155 0.26759
 O1146 O -0.01383 0.73238 0.24876
 O1147 O 0.01352 0.73240 0.24869
 O1148 O -0.01382 0.75158 0.26760
 Cu1149 Cu -0.00018 0.75975 0.24018
 Cu1150 Cu -0.00014 0.74036 0.25980
 C1151 C -0.01867 0.76278 0.26250
 C1152 C 0.01834 0.73736 0.23743
 C1153 C -0.01869 0.73734 0.23752
 C1154 C 0.01837 0.76274 0.26247
 O1155 O 0.48623 0.76779 0.75146
 O1156 O 0.51362 0.74866 0.73255
 O1157 O 0.48626 0.74867 0.73254
 O1158 O 0.51359 0.76780 0.75146
 O1159 O 0.51361 0.75161 0.76778
 O1160 O 0.48625 0.73248 0.74886
 O1161 O 0.51362 0.73246 0.74887
 O1162 O 0.48624 0.75161 0.76778
 Cu1163 Cu 0.49993 0.75984 0.74038
 Cu1164 Cu 0.49993 0.74042 0.75995
 C1165 C 0.48139 0.76282 0.76270
 C1166 C 0.51847 0.73744 0.73763
 C1167 C 0.48141 0.73747 0.73762
 C1168 C 0.51844 0.76282 0.76269
 N1169 N 0.40558 0.30937 0.29188
 C1170 C 0.41155 0.29791 0.29758
 N1171 N 0.40570 0.29210 0.30902
 N1172 N 0.39426 0.29762 0.31462
 C1173 C 0.38827 0.30912 0.30897
 N1174 N 0.39413 0.31488 0.29748
 C1175 C 0.42399 0.29207 0.29168
 C1176 C 0.43445 0.28713 0.28678
 C1177 C 0.44685 0.28119 0.28093
 N1178 N 0.45270 0.26969 0.28668
 N1179 N 0.46398 0.26392 0.28100
 C1180 C 0.46982 0.26949 0.26941
 N1181 N 0.46398 0.28105 0.26371
 N1182 N 0.45269 0.28681 0.26939
 N1183 N 0.40537 0.80973 0.79201
 C1184 C 0.41135 0.79829 0.79775
 N1185 N 0.40548 0.79250 0.80919
 N1186 N 0.39401 0.79802 0.81475
 C1187 C 0.38801 0.80951 0.80907
 N1188 N 0.39390 0.81525 0.79757
 C1189 C 0.42380 0.79243 0.79187
 C1190 C 0.43426 0.78748 0.78697
 C1191 C 0.44668 0.78152 0.78112
 N1192 N 0.45250 0.77000 0.78685
 N1193 N 0.46377 0.76422 0.78116
 C1194 C 0.46963 0.76979 0.76957
 N1195 N 0.46380 0.78137 0.76389
 N1196 N 0.45253 0.78715 0.76958
 N1197 N -0.09460 0.30977 0.79178
 C1198 C -0.08866 0.29830 0.79749
 N1199 N -0.09453 0.29250 0.80892
 N1200 N -0.10597 0.29804 0.81451
 C1201 C -0.11193 0.30955 0.80885
 N1202 N -0.10605 0.31531 0.79737
 C1203 C -0.07623 0.29243 0.79160
 C1204 C -0.06578 0.28747 0.78671
 C1205 C -0.05339 0.28148 0.78087
 N1206 N -0.04759 0.26996 0.78664
 N1207 N -0.03631 0.26416 0.78098
 C1208 C -0.03044 0.26970 0.76939
 N1209 N -0.03624 0.28127 0.76368
 N1210 N -0.04751 0.28707 0.76934
 N1211 N -0.09479 0.80954 0.29164
 C1212 C -0.08874 0.79817 0.29744
 N1213 N -0.09449 0.79248 0.30899
 N1214 N -0.10591 0.79803 0.31461
 C1215 C -0.11196 0.80945 0.30887
 N1216 N -0.10621 0.81509 0.29726
 C1217 C -0.07630 0.79233 0.29156
 C1218 C -0.06582 0.78740 0.28668
 C1219 C -0.05339 0.78147 0.28086
 N1220 N -0.04755 0.76998 0.28663
 N1221 N -0.03627 0.76420 0.28097
 C1222 C -0.03041 0.76976 0.26937
 N1223 N -0.03623 0.78133 0.26368
 N1224 N -0.04752 0.78710 0.26934
 N1225 N 0.59444 0.69059 0.29199
 C1226 C 0.58852 0.70210 0.29764
 N1227 N 0.59449 0.70803 0.30895
 N1228 N 0.60601 0.70260 0.31447
 C1229 C 0.61194 0.69104 0.30887
 N1230 N 0.60596 0.68515 0.29752
 C1231 C 0.57604 0.70788 0.29179
 C1232 C 0.56556 0.71278 0.28691
 C1233 C 0.55315 0.71870 0.28105
 N1234 N 0.54730 0.73021 0.28678
 N1235 N 0.53604 0.73598 0.28106
 C1236 C 0.53023 0.73041 0.26946
 N1237 N 0.53608 0.71884 0.26380
 N1238 N 0.54734 0.71307 0.26951
 N1239 N 0.59430 0.20758 0.80908
 C1240 C 0.58844 0.20180 0.79764
 N1241 N 0.59445 0.19040 0.79186
 N1242 N 0.60597 0.18493 0.79737
 C1243 C 0.61185 0.19069 0.80885
 N1244 N 0.60581 0.20212 0.81459
 C1245 C 0.57597 0.20762 0.79180
 C1246 C 0.56550 0.21256 0.78692
 C1247 C 0.55310 0.21851 0.78106
 N1248 N 0.54726 0.21288 0.76953
 N1249 N 0.53600 0.21866 0.76383
 C1250 C 0.53017 0.23024 0.76950
 N1251 N 0.53601 0.23581 0.78109
 N1252 N 0.54728 0.23003 0.78678
 N1253 N 1.09461 0.69077 0.79173
 C1254 C 1.08846 0.70203 0.79762
 N1255 N 1.09414 0.70767 0.80922
 N1256 N 1.10562 0.70219 0.81478
 C1257 C 1.11179 0.69089 0.80894
 N1258 N 1.10609 0.68529 0.79729
 C1259 C 1.07601 0.70785 0.79174
 C1260 C 1.06555 0.71277 0.78685
 C1261 C 1.05315 0.71873 0.78100
 N1262 N 1.04734 0.73026 0.78673
 N1263 N 1.03609 0.73606 0.78104
 C1264 C 1.03025 0.73050 0.76944
 N1265 N 1.03606 0.71892 0.76376
 N1266 N 1.04731 0.71312 0.76946
 N1267 N 1.09431 0.20782 0.30905
 C1268 C 1.08848 0.20201 0.29761
 N1269 N 1.09446 0.19056 0.29191
 N1270 N 1.10591 0.18506 0.29750
 C1271 C 1.11176 0.19082 0.30899
 N1272 N 1.10576 0.20232 0.31465
 C1273 C 1.07605 0.20784 0.29172
 C1274 C 1.06559 0.21277 0.28681
 C1275 C 1.05320 0.21871 0.28094
 N1276 N 1.04738 0.21309 0.26940
 N1277 N 1.03610 0.21886 0.26371
 C1278 C 1.03025 0.23042 0.26940
 N1279 N 1.03608 0.23598 0.28100
 N1280 N 1.04735 0.23021 0.28669
 N1281 N 0.59422 0.29216 0.69094
 C1282 C 0.58840 0.29792 0.70241
 N1283 N 0.59435 0.30938 0.70812
 N1284 N 0.60576 0.31493 0.70249
 C1285 C 0.61158 0.30922 0.69095
 N1286 N 0.60563 0.29771 0.68530
 C1287 C 0.57597 0.29208 0.70832
 C1288 C 0.56551 0.28716 0.71323
 C1289 C 0.55311 0.28123 0.71910
 N1290 N 0.54725 0.28687 0.73062
 N1291 N 0.53598 0.28110 0.73632
 C1292 C 0.53017 0.26953 0.73065
 N1293 N 0.53602 0.26395 0.71907
 N1294 N 0.54729 0.26972 0.71337
 N1295 N 0.59406 0.79266 0.19087
 C1296 C 0.58843 0.79825 0.20252
 N1297 N 0.59464 0.80945 0.20846
 N1298 N 0.60612 0.81492 0.20288
 C1299 C 0.61176 0.80936 0.19118
 N1300 N 0.60554 0.79812 0.18529
 C1301 C 0.57600 0.79244 0.20842
 C1302 C 0.56555 0.78751 0.21332
 C1303 C 0.55317 0.78153 0.21917
 N1304 N 0.54729 0.78713 0.23070
 N1305 N 0.53604 0.78132 0.23638
 C1306 C 0.53026 0.76975 0.23069
 N1307 N 0.53614 0.76420 0.21910
 N1308 N 0.54739 0.77001 0.21342
 N1309 N 1.09445 0.30972 0.20820
 C1310 C 1.08846 0.29828 0.20250
 N1311 N 1.09431 0.29244 0.19108
 N1312 N 1.10580 0.29788 0.18551
 C1313 C 1.11181 0.30935 0.19117
 N1314 N 1.10593 0.31517 0.20263
 C1315 C 1.07603 0.29247 0.20842
 C1316 C 1.06558 0.28754 0.21333
 C1317 C 1.05319 0.28157 0.21918
 N1318 N 1.04739 0.27006 0.21342
 N1319 N 1.03614 0.26426 0.21911
 C1320 C 1.03028 0.26980 0.23071
 N1321 N 1.03607 0.28138 0.23640
 N1322 N 1.04732 0.28718 0.23071
 N1323 N 1.09446 0.80966 0.70811
 C1324 C 1.08848 0.79821 0.70242
 N1325 N 1.09427 0.79243 0.69094
 N1326 N 1.10567 0.79796 0.68528
 C1327 C 1.11166 0.80946 0.69091
 N1328 N 1.10586 0.81519 0.70245
 C1329 C 1.07607 0.79239 0.70836
 C1330 C 1.06563 0.78747 0.71329
 C1331 C 1.05323 0.78153 0.71916
 N1332 N 1.04742 0.77002 0.71342
 N1333 N 1.03614 0.76427 0.71910
 C1334 C 1.03028 0.76985 0.73068
 N1335 N 1.03609 0.78142 0.73636
 N1336 N 1.04737 0.78717 0.73068
 N1337 N 0.40569 0.69050 0.70789
 C1338 C 0.41152 0.70207 0.70231
 N1339 N 0.40568 0.70787 0.69085
 N1340 N 0.39437 0.70223 0.68513
 C1341 C 0.38852 0.69060 0.69066
 N1342 N 0.39437 0.68486 0.70217
 C1343 C 0.42388 0.70799 0.70830
 C1344 C 0.43430 0.71295 0.71327
 C1345 C 0.44667 0.71890 0.71919
 N1346 N 0.45252 0.73040 0.71346
 N1347 N 0.46380 0.73614 0.71916
 C1348 C 0.46964 0.73054 0.73075
 N1349 N 0.46379 0.71897 0.73641
 N1350 N 0.45251 0.71324 0.73071
 N1351 N 0.40569 0.20763 0.19113
 C1352 C 0.41163 0.20170 0.20246
 N1353 N 0.40575 0.19014 0.20805
 N1354 N 0.39429 0.18467 0.20246
 C1355 C 0.38834 0.19057 0.19108
 N1356 N 0.39424 0.20216 0.18554
 C1357 C 0.42407 0.20750 0.20836
 C1358 C 0.43452 0.21242 0.21327
 C1359 C 0.44690 0.21838 0.21914
 N1360 N 0.45274 0.21277 0.23069
 N1361 N 0.46399 0.21856 0.23639
 C1362 C 0.46980 0.23013 0.23070
 N1363 N 0.46396 0.23569 0.21910
 N1364 N 0.45271 0.22990 0.21341
 N1365 N -0.09440 0.69026 0.20803
 C1366 C -0.08854 0.70182 0.20242
 N1367 N -0.09450 0.70775 0.19111
 N1368 N -0.10597 0.70227 0.18553
 C1369 C -0.11184 0.69068 0.19109
 N1370 N -0.10587 0.68478 0.20246
 C1371 C -0.07612 0.70766 0.20833
 C1372 C -0.06568 0.71260 0.21324
 C1373 C -0.05331 0.71858 0.21911
 N1374 N -0.04751 0.73010 0.21337
 N1375 N -0.03627 0.73590 0.21906
 C1376 C -0.03042 0.73036 0.23066
 N1377 N -0.03621 0.71877 0.23635
 N1378 N -0.04745 0.71297 0.23065
 N1379 N -0.09435 0.20758 0.69102
 C1380 C -0.08856 0.20179 0.70250
 N1381 N -0.09454 0.19034 0.70820
 N1382 N -0.10596 0.18483 0.70255
 C1383 C -0.11176 0.19058 0.69102
 N1384 N -0.10576 0.20207 0.68538
 C1385 C -0.07615 0.20762 0.70843
 C1386 C -0.06571 0.21255 0.71335
 C1387 C -0.05333 0.21851 0.71921
 N1388 N -0.04748 0.21290 0.73075
 N1389 N -0.03622 0.21869 0.73644
 C1390 C -0.03041 0.23026 0.73074
 N1391 N -0.03626 0.23581 0.71914
 N1392 N -0.04752 0.23002 0.71346
 N1393 N 0.30939 0.40544 0.29179
 C1394 C 0.29791 0.41140 0.29748
 N1395 N 0.29210 0.40557 0.30893
 N1396 N 0.29762 0.39415 0.31455
 C1397 C 0.30914 0.38817 0.30891
 N1398 N 0.31492 0.39401 0.29742
 C1399 C 0.29207 0.42382 0.29156
 C1400 C 0.28715 0.43428 0.28666
 C1401 C 0.28122 0.44670 0.28082
 N1402 N 0.26972 0.45254 0.28656
 N1403 N 0.26398 0.46385 0.28090
 C1404 C 0.26960 0.46971 0.26934
 N1405 N 0.28116 0.46386 0.26365
 N1406 N 0.28689 0.45256 0.26931
 N1407 N 0.29264 -0.09491 0.80898
 C1408 C 0.29844 -0.08907 0.79753
 N1409 N 0.30992 -0.09505 0.79183
 N1410 N 0.31544 -0.10648 0.79745
 C1411 C 0.30969 -0.11234 0.80896
 N1412 N 0.29817 -0.10634 0.81460
 C1413 C 0.29256 -0.07665 0.79159
 C1414 C 0.28759 -0.06621 0.78667
 C1415 C 0.28160 -0.05380 0.78082
 N1416 N 0.28723 -0.04791 0.76930
 N1417 N 0.28146 -0.03662 0.76366
 C1418 C 0.26988 -0.03079 0.76937
 N1419 N 0.26430 -0.03669 0.78094
 N1420 N 0.27008 -0.04799 0.78658
 N1421 N 0.80961 0.40539 0.79208
 C1422 C 0.79815 0.41138 0.79778
 N1423 N 0.79233 0.40554 0.80922
 N1424 N 0.79782 0.39410 0.81482
 C1425 C 0.80933 0.38808 0.80919
 N1426 N 0.81511 0.39394 0.79769
 C1427 C 0.79234 0.42382 0.79188
 C1428 C 0.78742 0.43428 0.78697
 C1429 C 0.78148 0.44668 0.78110
 N1430 N 0.76996 0.45251 0.78683
 N1431 N 0.76419 0.46378 0.78114
 C1432 C 0.76978 0.46963 0.76955
 N1433 N 0.78136 0.46379 0.76388
 N1434 N 0.78713 0.45252 0.76957
 N1435 N 0.79212 -0.09476 0.30901
 C1436 C 0.79800 -0.08888 0.29762
 N1437 N 0.80948 -0.09485 0.29196
 N1438 N 0.81497 -0.10631 0.29756
 C1439 C 0.80914 -0.11220 0.30902
 N1440 N 0.79759 -0.10621 0.31461
 C1441 C 0.79220 -0.07643 0.29172
 C1442 C 0.78731 -0.06595 0.28682
 C1443 C 0.78140 -0.05352 0.28097
 N1444 N 0.78707 -0.04767 0.26946
 N1445 N 0.78134 -0.03637 0.26379
 C1446 C 0.76978 -0.03051 0.26947
 N1447 N 0.76416 -0.03636 0.28104
 N1448 N 0.76989 -0.04766 0.28671
 N1449 N 0.29217 0.59430 0.69091
 C1450 C 0.29796 0.58846 0.70237
 N1451 N 0.30939 0.59445 0.70811
 N1452 N 0.31488 0.60591 0.70254
 C1453 C 0.30913 0.61175 0.69103
 N1454 N 0.29767 0.60575 0.68533
 C1455 C 0.29214 0.57602 0.70826
 C1456 C 0.28721 0.56557 0.71317
 C1457 C 0.28126 0.55319 0.71906
 N1458 N 0.28691 0.54734 0.73059
 N1459 N 0.28115 0.53609 0.73629
 C1460 C 0.26956 0.53027 0.73064
 N1461 N 0.26397 0.53611 0.71905
 N1462 N 0.26973 0.54737 0.71335
 N1463 N 0.30952 1.09428 0.20811
 C1464 C 0.29805 1.08834 0.20241
 N1465 N 0.29228 1.09416 0.19093
 N1466 N 0.29784 1.10555 0.18530
 C1467 C 0.30935 1.11150 0.19095
 N1468 N 0.31508 1.10567 0.20248
 C1469 C 0.29222 1.07593 0.20829
 C1470 C 0.28731 1.06547 0.21318
 C1471 C 0.28140 1.05308 0.21902
 N1472 N 0.26988 1.04727 0.21329
 N1473 N 0.26411 1.03601 0.21898
 C1474 C 0.26970 1.03016 0.23057
 N1475 N 0.28128 1.03597 0.23624
 N1476 N 0.28705 1.04723 0.23055
 N1477 N 0.80940 0.59433 0.20813
 C1478 C 0.79794 0.58839 0.20243
 N1479 N 0.79216 0.59420 0.19096
 N1480 N 0.79770 0.60560 0.18533
 C1481 C 0.80921 0.61156 0.19098
 N1482 N 0.81494 0.60574 0.20250
 C1483 C 0.79211 0.57597 0.20832
 C1484 C 0.78722 0.56550 0.21321
 C1485 C 0.78132 0.55308 0.21903
 N1486 N 0.76982 0.54726 0.21330
 N1487 N 0.76405 0.53600 0.21900
 C1488 C 0.76963 0.53017 0.23059
 N1489 N 0.78122 0.53598 0.23625
 N1490 N 0.78698 0.54724 0.23055
 N1491 N 0.79213 1.09429 0.69102
 C1492 C 0.79806 1.08833 0.70234
 N1493 N 0.80959 1.09422 0.70798
 N1494 N 0.81504 1.10571 0.70244
 C1495 C 0.80914 1.11168 0.69108
 N1496 N 0.79758 1.10577 0.68548
 C1497 C 0.79226 1.07589 0.70820
 C1498 C 0.78733 1.06545 0.71310
 C1499 C 0.78137 1.05310 0.71900
 N1500 N 0.78699 1.04729 0.73054
 N1501 N 0.78118 1.03608 0.73629
 C1502 C 0.76957 1.03030 0.73065
 N1503 N 0.76400 1.03611 0.71905
 N1504 N 0.76981 1.04732 0.71330
 N1505 N 0.69072 0.59465 0.29181
 C1506 C 0.70216 0.58864 0.29753
 N1507 N 0.70795 0.59444 0.30900
 N1508 N 0.70245 0.60587 0.31461
 C1509 C 0.69096 0.61189 0.30894
 N1510 N 0.68521 0.60609 0.29743
 C1511 C 0.70796 0.57619 0.29164
 C1512 C 0.71284 0.56571 0.28675
 C1513 C 0.71874 0.55328 0.28091
 N1514 N 0.73024 0.54742 0.28665
 N1515 N 0.73596 0.53612 0.28098
 C1516 C 0.73035 0.53028 0.26941
 N1517 N 0.71879 0.53614 0.26373
 N1518 N 0.71306 0.54744 0.26940
 N1519 N 0.70767 1.09466 0.80932
 C1520 C 0.70186 1.08884 0.79787
 N1521 N 0.69030 1.09474 0.79228
 N1522 N 0.68471 1.10610 0.79798
 C1523 C 0.69049 1.11195 0.80947
 N1524 N 0.70209 1.10603 0.81501
 C1525 C 0.70776 1.07647 0.79188
 C1526 C 0.71272 1.06605 0.78691
 C1527 C 0.71869 1.05367 0.78100
 N1528 N 0.71302 1.04782 0.76949
 N1529 N 0.71875 1.03651 0.76382
 C1530 C 0.73032 1.03065 0.76950
 N1531 N 0.73594 1.03651 0.78106
 N1532 N 0.73020 1.04782 0.78672
 N1533 N 0.19049 0.59446 0.79189
 C1534 C 0.20183 0.58836 0.79772
 N1535 N 0.20765 0.59419 0.80916
 N1536 N 0.20226 0.60574 0.81464
 C1537 C 0.19088 0.61185 0.80887
 N1538 N 0.18510 0.60601 0.79738
 C1539 C 0.20761 0.57589 0.79186
 C1540 C 0.21255 0.56544 0.78696
 C1541 C 0.21852 0.55308 0.78107
 N1542 N 0.23007 0.54728 0.78679
 N1543 N 0.23586 0.53603 0.78108
 C1544 C 0.23028 0.53020 0.76949
 N1545 N 0.21869 0.53601 0.76383
 N1546 N 0.21290 0.54726 0.76954
 N1547 N 0.19060 1.09454 0.29183
 C1548 C 0.20207 1.08856 0.29752
 N1549 N 0.20789 1.09438 0.30896
 N1550 N 0.20238 1.10581 0.31458
 C1551 C 0.19086 1.11180 0.30894
 N1552 N 0.18509 1.10597 0.29745
 C1553 C 0.20790 1.07614 0.29161
 C1554 C 0.21282 1.06569 0.28669
 C1555 C 0.21876 1.05329 0.28083
 N1556 N 0.23027 1.04745 0.28657
 N1557 N 0.23601 1.03615 0.28091
 C1558 C 0.23041 1.03030 0.26934
 N1559 N 0.21885 1.03615 0.26365
 N1560 N 0.21311 1.04745 0.26931
 N1561 N 0.70795 0.40547 0.69110
 C1562 C 0.70202 0.41143 0.70243
 N1563 N 0.69046 0.40557 0.70803
 N1564 N 0.68496 0.39412 0.70245
 C1565 C 0.69084 0.38815 0.69107
 N1566 N 0.70245 0.39402 0.68552
 C1567 C 0.70786 0.42386 0.70833
 C1568 C 0.71280 0.43429 0.71326
 C1569 C 0.71877 0.44666 0.71916
 N1570 N 0.71313 0.45250 0.73070
 N1571 N 0.71890 0.46375 0.73640
 C1572 C 0.73048 0.46957 0.73073
 N1573 N 0.73607 0.46373 0.71914
 N1574 N 0.73029 0.45248 0.71344
 N1575 N 0.70774 -0.09420 0.19098
 C1576 C 0.70203 -0.08845 0.20252
 N1577 N 0.69074 -0.09457 0.20840
 N1578 N 0.68529 -0.10607 0.20287
 C1579 C 0.69097 -0.11183 0.19128
 N1580 N 0.70230 -0.10570 0.18545
 C1581 C 0.70784 -0.07601 0.20838
 C1582 C 0.71277 -0.06557 0.21326
 C1583 C 0.71874 -0.05320 0.21911
 N1584 N 0.71311 -0.04735 0.23064
 N1585 N 0.71891 -0.03611 0.23634
 C1586 C 0.73052 -0.03034 0.23067
 N1587 N 0.73609 -0.03619 0.21908
 N1588 N 0.73028 -0.04742 0.21339
 N1589 N 0.20780 0.40583 0.19095
 C1590 C 0.20196 0.41169 0.20238
 N1591 N 0.19051 0.40571 0.20810
 N1592 N 0.18506 0.39423 0.20256
 C1593 C 0.19087 0.38834 0.19110
 N1594 N 0.20235 0.39435 0.18541
 C1595 C 0.20776 0.42413 0.20826
 C1596 C 0.21268 0.43458 0.21315
 C1597 C 0.21861 0.44697 0.21900
 N1598 N 0.21296 0.45282 0.23052
 N1599 N 0.21874 0.46406 0.23622
 C1600 C 0.23033 0.46986 0.23057
 N1601 N 0.23591 0.46403 0.21897
 N1602 N 0.23013 0.45278 0.21327
 N1603 N 0.20794 -0.09438 0.69095
 C1604 C 0.20202 -0.08843 0.70228
 N1605 N 0.19047 -0.09429 0.70791
 N1606 N 0.18498 -0.10575 0.70235
 C1607 C 0.19086 -0.11172 0.69097
 N1608 N 0.20245 -0.10584 0.68539
 C1609 C 0.20784 -0.07601 0.70816
 C1610 C 0.21277 -0.06557 0.71306
 C1611 C 0.21873 -0.05322 0.71895
 N1612 N 0.21310 -0.04742 0.73051
 N1613 N 0.21891 -0.03622 0.73626
 C1614 C 0.23051 -0.03041 0.73061
 N1615 N 0.23607 -0.03621 0.71898
 N1616 N 0.23026 -0.04741 0.71323
 N1617 N 0.30916 0.29189 0.40579
 C1618 C 0.29770 0.29767 0.41170
 N1619 N 0.29190 0.30911 0.40579
 N1620 N 0.29742 0.31464 0.39434
 C1621 C 0.30893 0.30891 0.38842
 N1622 N 0.31468 0.29741 0.39434
 C1623 C 0.29188 0.29184 0.42414
 C1624 C 0.28699 0.28695 0.43460
 C1625 C 0.28110 0.28107 0.44699
 N1626 N 0.26956 0.28677 0.45282
 N1627 N 0.26383 0.28105 0.46407
 C1628 C 0.26948 0.26946 0.46989
 N1629 N 0.28108 0.26382 0.46407
 N1630 N 0.28681 0.26954 0.45282
 N1631 N 0.30953 0.79189 -0.09449
 C1632 C 0.29807 0.79764 -0.08856
 N1633 N 0.29224 0.80908 -0.09446
 N1634 N 0.29775 0.81464 -0.10590
 C1635 C 0.30927 0.80894 -0.11184
 N1636 N 0.31503 0.79744 -0.10594
 C1637 C 0.29225 0.79178 -0.07612
 C1638 C 0.28735 0.78688 -0.06566
 C1639 C 0.28145 0.78100 -0.05327
 N1640 N 0.26990 0.78672 -0.04746
 N1641 N 0.26416 0.78102 -0.03621
 C1642 C 0.26979 0.76943 -0.03036
 N1643 N 0.28139 0.76377 -0.03617
 N1644 N 0.28713 0.76947 -0.04742
 N1645 N 0.80900 0.29231 -0.09435
 C1646 C 0.79756 0.29809 -0.08841
 N1647 N 0.79175 0.30954 -0.09430
 N1648 N 0.79726 0.31508 -0.10574
 C1649 C 0.80876 0.30935 -0.11169
 N1650 N 0.81451 0.29785 -0.10580
 C1651 C 0.79175 0.29223 -0.07597
 C1652 C 0.78687 0.28732 -0.06552
 C1653 C 0.78102 0.28140 -0.05313
 N1654 N 0.76947 0.28706 -0.04728
 N1655 N 0.76377 0.28130 -0.03604
 C1656 C 0.76944 0.26970 -0.03025
 N1657 N 0.78105 0.26410 -0.03610
 N1658 N 0.78676 0.26987 -0.04734
 N1659 N 0.80915 0.79236 0.40584
 C1660 C 0.79755 0.79798 0.41162
 N1661 N 0.79164 0.80933 0.40564
 N1662 N 0.79720 0.81492 0.39423
 C1663 C 0.80884 0.80935 0.38844
 N1664 N 0.81470 0.79795 0.39443
 C1665 C 0.79170 0.79209 0.42403
 C1666 C 0.78681 0.78717 0.43448
 C1667 C 0.78096 0.78127 0.44687
 N1668 N 0.76944 0.78697 0.45274
 N1669 N 0.76375 0.78125 0.46402
 C1670 C 0.76943 0.76967 0.46983
 N1671 N 0.78101 0.76403 0.46397
 N1672 N 0.78670 0.76975 0.45269
 N1673 N 0.69067 0.29197 0.59416
 C1674 C 0.70222 0.29764 0.58833
 N1675 N 0.70817 0.30892 0.59439
 N1676 N 0.70269 0.31440 0.60588
 C1677 C 0.69109 0.30879 0.61171
 N1678 N 0.68520 0.29746 0.60566
 C1679 C 0.70804 0.29183 0.57587
 C1680 C 0.71293 0.28693 0.56541
 C1681 C 0.71883 0.28102 0.55302
 N1682 N 0.73039 0.28667 0.54721
 N1683 N 0.73612 0.28093 0.53596
 C1684 C 0.73046 0.26936 0.53013
 N1685 N 0.71884 0.26375 0.53596
 N1686 N 0.71312 0.26950 0.54720
 N1687 N 0.69076 0.79222 1.09422
 C1688 C 0.70234 0.79788 1.08844
 N1689 N 0.70818 0.80925 1.09442
 N1690 N 0.70259 0.81482 1.10581
 C1691 C 0.69096 0.80922 1.11159
 N1692 N 0.68517 0.79780 1.10561
 C1693 C 0.70820 0.79203 1.07603
 C1694 C 0.71310 0.78713 1.06559
 C1695 C 0.71896 0.78125 1.05320
 N1696 N 0.73049 0.78693 1.04735
 N1697 N 0.73619 0.78122 1.03608
 C1698 C 0.73051 0.76966 1.03025
 N1699 N 0.71891 0.76404 1.03609
 N1700 N 0.71322 0.76975 1.04737
 N1701 N 0.19092 0.29208 1.09436
 C1702 C 0.20238 0.29785 1.08846
 N1703 N 0.20814 0.30931 1.09435
 N1704 N 0.20258 0.31486 1.10577
 C1705 C 0.19107 0.30914 1.11167
 N1706 N 0.18536 0.29764 1.10578
 C1707 C 0.20822 0.29202 1.07603
 C1708 C 0.21310 0.28712 1.06557
 C1709 C 0.21896 0.28121 1.05319
 N1710 N 0.23050 0.28687 1.04733
 N1711 N 0.23620 0.28112 1.03608
 C1712 C 0.23052 0.26954 1.03028
 N1713 N 0.21893 0.26394 1.03614
 N1714 N 0.21323 0.26969 1.04739
 N1715 N 0.20825 0.80926 0.59433
 C1716 C 0.20235 0.79797 0.58827
 N1717 N 0.19080 0.79227 0.59406
 N1718 N 0.18529 0.79773 0.60556
 C1719 C 0.19115 0.80906 0.61163
 N1720 N 0.20274 0.81472 0.60582
 C1721 C 0.20817 0.79220 0.57580
 C1722 C 0.21306 0.78734 0.56533
 C1723 C 0.21893 0.78146 0.55294
 N1724 N 0.21321 0.76994 0.54713
 N1725 N 0.21893 0.76419 0.53588
 C1726 C 0.23053 0.76979 0.53005
 N1727 N 0.23619 0.78138 0.53586
 N1728 N 0.23047 0.78712 0.54710
 N1729 N 0.29219 0.69077 0.59407
 C1730 C 0.29785 0.70234 0.58829
 N1731 N 0.30925 0.70816 0.59425
 N1732 N 0.31483 0.70256 0.60565
 C1733 C 0.30922 0.69095 0.61144
 N1734 N 0.29778 0.68518 0.60546
 C1735 C 0.29197 0.70823 0.57589
 C1736 C 0.28704 0.71314 0.56546
 C1737 C 0.28113 0.71904 0.55308
 N1738 N 0.28685 0.73054 0.54722
 N1739 N 0.28113 0.73625 0.53595
 C1740 C 0.26953 0.73062 0.53014
 N1741 N 0.26387 0.71906 0.53600
 N1742 N 0.26959 0.71335 0.54726
 N1743 N 0.29202 0.19052 1.09429
 C1744 C 0.29769 0.20206 1.08846
 N1745 N 0.30900 0.20799 1.09449
 N1746 N 0.31450 0.20252 1.10597
 C1747 C 0.30888 0.19093 1.11181
 N1748 N 0.29753 0.18505 1.10577
 C1749 C 0.29187 0.20786 1.07601
 C1750 C 0.28698 0.21275 1.06555
 C1751 C 0.28110 0.21864 1.05316
 N1752 N 0.28681 0.23016 1.04734
 N1753 N 0.28109 0.23591 1.03610
 C1754 C 0.26948 0.23031 1.03029
 N1755 N 0.26382 0.21873 1.03611
 N1756 N 0.26955 0.21298 1.04735
 N1757 N 0.80892 0.70805 1.09446
 C1758 C 0.79763 0.70211 1.08840
 N1759 N 0.79195 0.69058 1.09422
 N1760 N 0.79743 0.68510 1.10572
 C1761 C 0.80877 0.69099 1.11178
 N1762 N 0.81439 0.70258 1.10595
 C1763 C 0.79182 0.70792 1.07595
 C1764 C 0.78693 0.71284 1.06551
 C1765 C 0.78104 0.71877 1.05315
 N1766 N 0.76949 0.71312 1.04732
 N1767 N 0.76377 0.71888 1.03608
 C1768 C 0.76944 0.73046 1.03028
 N1769 N 0.78104 0.73606 1.03612
 N1770 N 0.78676 0.73030 1.04735
 N1771 N 0.80915 0.20768 0.59407
 C1772 C 0.79761 0.20197 0.58828
 N1773 N 0.79172 0.19067 0.59436
 N1774 N 0.79723 0.18522 0.60584
 C1775 C 0.80882 0.19088 0.61164
 N1776 N 0.81467 0.20223 0.60556
 C1777 C 0.79178 0.20773 0.57582
 C1778 C 0.78689 0.21259 0.56535
 C1779 C 0.78102 0.21848 0.55296
 N1780 N 0.76947 0.21282 0.54714
 N1781 N 0.76375 0.21857 0.53589
 C1782 C 0.76942 0.23015 0.53008
 N1783 N 0.78102 0.23575 0.53590
 N1784 N 0.78673 0.23000 0.54715
 N1785 N 0.69091 0.70823 0.40565
 C1786 C 0.70223 0.70234 0.41170
 N1787 N 0.70793 0.69078 0.40592
 N1788 N 0.70244 0.68526 0.39446
 C1789 C 0.69106 0.69110 0.38840
 N1790 N 0.68541 0.70271 0.39419
 C1791 C 0.70803 0.70817 0.42415
 C1792 C 0.71290 0.71307 0.43461
 C1793 C 0.71877 0.71896 0.44699
 N1794 N 0.73032 0.71327 0.45281
 N1795 N 0.73605 0.71900 0.46406
 C1796 C 0.73039 0.73059 0.46988
 N1797 N 0.71879 0.73622 0.46406
 N1798 N 0.71306 0.73049 0.45281
 N1799 N 0.70815 0.19069 -0.09429
 C1800 C 0.70227 0.20209 -0.08836
 N1801 N 0.69069 0.20770 -0.09418
 N1802 N 0.68512 0.20207 -0.10555
 C1803 C 0.69095 0.19062 -0.11148
 N1804 N 0.70258 0.18506 -0.10566
 C1805 C 0.70812 0.20802 -0.07598
 C1806 C 0.71302 0.21298 -0.06555
 C1807 C 0.71890 0.21891 -0.05318
 N1808 N 0.71316 0.23042 -0.04736
 N1809 N 0.71886 0.23616 -0.03610
 C1810 C 0.73047 0.23054 -0.03027
 N1811 N 0.73616 0.21897 -0.03610
 N1812 N 0.73045 0.21324 -0.04735
 N1813 N 0.19074 0.70787 -0.09412
 C1814 C 0.20230 0.70219 -0.08833
 N1815 N 0.20821 0.69087 -0.09437
 N1816 N 0.20268 0.68537 -0.10581
 C1817 C 0.19106 0.69099 -0.11160
 N1818 N 0.18521 0.70237 -0.10557
 C1819 C 0.20814 0.70800 -0.07590
 C1820 C 0.21305 0.71290 -0.06546
 C1821 C 0.21896 0.71879 -0.05310
 N1822 N 0.23050 0.71309 -0.04728
 N1823 N 0.23625 0.71883 -0.03606
 C1824 C 0.23062 0.73044 -0.03025
 N1825 N 0.21902 0.73608 -0.03608
 N1826 N 0.21328 0.73034 -0.04730
 N1827 N 0.19080 0.20803 0.40580
 C1828 C 0.20225 0.20224 0.41171
 N1829 N 0.20805 0.19080 0.40581
 N1830 N 0.20254 0.18528 0.39436
 C1831 C 0.19104 0.19101 0.38844
 N1832 N 0.18528 0.20250 0.39435
 C1833 C 0.20806 0.20806 0.42415
 C1834 C 0.21294 0.21294 0.43461
 C1835 C 0.21881 0.21881 0.44701
 N1836 N 0.23035 0.21311 0.45283
 N1837 N 0.23606 0.21882 0.46409
 C1838 C 0.23041 0.23041 0.46991
 N1839 N 0.21881 0.23605 0.46408
 N1840 N 0.21310 0.23033 0.45283
 N1841 N 0.30957 0.40569 0.70800
 C1842 C 0.29793 0.41150 0.70248
 N1843 N 0.29196 0.40552 0.69120
 N1844 N 0.29749 0.39411 0.68556
 C1845 C 0.30919 0.38831 0.69102
 N1846 N 0.31511 0.39428 0.70236
 C1847 C 0.29211 0.42393 0.70837
 C1848 C 0.28720 0.43440 0.71325
 C1849 C 0.28129 0.44682 0.71907
 N1850 N 0.26977 0.45266 0.71334
 N1851 N 0.26401 0.46394 0.71901
 C1852 C 0.26961 0.46979 0.73059
 N1853 N 0.28119 0.46396 0.73626
 N1854 N 0.28695 0.45268 0.73058
 N1855 N 0.29238 0.90593 0.19073
 C1856 C 0.29823 0.91177 0.20214
 N1857 N 0.30968 0.90577 0.20785
 N1858 N 0.31516 0.89431 0.20226
 C1859 C 0.30936 0.88846 0.19079
 N1860 N 0.29786 0.89446 0.18514
 C1861 C 0.29241 0.92419 0.20805
 C1862 C 0.28748 0.93463 0.21297
 C1863 C 0.28151 0.94699 0.21887
 N1864 N 0.28713 0.95279 0.23042
 N1865 N 0.28132 0.96401 0.23616
 C1866 C 0.26971 0.96982 0.23052
 N1867 N 0.26415 0.96402 0.21891
 N1868 N 0.26997 0.95280 0.21317
 N1869 N 0.79239 0.40595 0.19077
 C1870 C 0.79823 0.41179 0.20219
 N1871 N 0.80968 0.40580 0.20790
 N1872 N 0.81516 0.39433 0.20231
 C1873 C 0.80936 0.38848 0.19084
 N1874 N 0.79786 0.39449 0.18519
 C1875 C 0.79242 0.42422 0.20809
 C1876 C 0.78748 0.43466 0.21301
 C1877 C 0.78151 0.44701 0.21891
 N1878 N 0.78712 0.45282 0.23046
 N1879 N 0.78130 0.46403 0.23620
 C1880 C 0.76969 0.46983 0.23056
 N1881 N 0.76413 0.46403 0.21895
 N1882 N 0.76996 0.45282 0.21321
 N1883 N 0.79232 0.90611 0.69080
 C1884 C 0.79812 0.91192 0.70226
 N1885 N 0.80958 0.90592 0.70796
 N1886 N 0.81510 0.89450 0.70233
 C1887 C 0.80935 0.88869 0.69081
 N1888 N 0.79784 0.89469 0.68517
 C1889 C 0.79228 0.92434 0.70820
 C1890 C 0.78734 0.93478 0.71314
 C1891 C 0.78136 0.94715 0.71906
 N1892 N 0.78699 0.95296 0.73060
 N1893 N 0.78117 0.96417 0.73635
 C1894 C 0.76955 0.96998 0.73073
 N1895 N 0.76398 0.96417 0.71912
 N1896 N 0.76980 0.95296 0.71337
 N1897 N 0.69063 0.59439 0.70824
 C1898 C 0.70206 0.58838 0.70251
 N1899 N 0.70786 0.59419 0.69105
 N1900 N 0.70235 0.60563 0.68543
 C1901 C 0.69085 0.61163 0.69110
 N1902 N 0.68512 0.60582 0.70263
 C1903 C 0.70788 0.57594 0.70841
 C1904 C 0.71279 0.56548 0.71333
 C1905 C 0.71872 0.55308 0.71919
 N1906 N 0.73024 0.54725 0.71346
 N1907 N 0.73600 0.53597 0.71914
 C1908 C 0.73041 0.53012 0.73072
 N1909 N 0.71883 0.53595 0.73640
 N1910 N 0.71307 0.54723 0.73072
 N1911 N 0.70802 0.09409 0.19093
 C1912 C 0.70206 0.08811 0.20222
 N1913 N 0.69054 0.09403 0.20787
 N1914 N 0.68512 0.10556 0.20236
 C1915 C 0.69104 0.11155 0.19102
 N1916 N 0.70260 0.10561 0.18541
 C1917 C 0.70783 0.07563 0.20807
 C1918 C 0.71274 0.06517 0.21297
 C1919 C 0.71869 0.05280 0.21887
 N1920 N 0.71307 0.04701 0.23044
 N1921 N 0.71889 0.03581 0.23622
 C1922 C 0.73051 0.03000 0.23060
 N1923 N 0.73607 0.03579 0.21897
 N1924 N 0.73025 0.04699 0.21320
 N1925 N 0.20740 0.59400 0.19061
 C1926 C 0.20170 0.58828 0.20217
 N1927 N 0.19043 0.59445 0.20806
 N1928 N 0.18501 0.60596 0.20253
 C1929 C 0.19067 0.61170 0.19093
 N1930 N 0.20198 0.60552 0.18508
 C1931 C 0.20750 0.57583 0.20805
 C1932 C 0.21244 0.56538 0.21295
 C1933 C 0.21843 0.55302 0.21885
 N1934 N 0.21282 0.54721 0.23041
 N1935 N 0.21867 0.53601 0.23616
 C1936 C 0.23029 0.53023 0.23052
 N1937 N 0.23584 0.53604 0.21889
 N1938 N 0.22999 0.54724 0.21315
 N1939 N 0.19043 0.09399 0.70806
 C1940 C 0.20188 0.08801 0.70233
 N1941 N 0.20771 0.09389 0.69091
 N1942 N 0.20222 0.10536 0.68535
 C1943 C 0.19071 0.11135 0.69102
 N1944 N 0.18493 0.10547 0.70250
 C1945 C 0.20773 0.07557 0.70823
 C1946 C 0.21268 0.06512 0.71316
 C1947 C 0.21867 0.05275 0.71907
 N1948 N 0.23022 0.04694 0.71337
 N1949 N 0.23605 0.03573 0.71911
 C1950 C 0.23050 0.02992 0.73074
 N1951 N 0.21889 0.03572 0.73638
 N1952 N 0.21306 0.04694 0.73063
 N1953 N 0.30926 0.59456 0.29167
 C1954 C 0.29790 0.58851 0.29749
 N1955 N 0.29218 0.59426 0.30902
 N1956 N 0.29770 0.60569 0.31462
 C1957 C 0.30911 0.61174 0.30886
 N1958 N 0.31478 0.60599 0.29727
 C1959 C 0.29209 0.57608 0.29162
 C1960 C 0.28718 0.56562 0.28674
 C1961 C 0.28128 0.55321 0.28090
 N1962 N 0.26978 0.54738 0.28664
 N1963 N 0.26403 0.53610 0.28097
 C1964 C 0.26964 0.53025 0.26939
 N1965 N 0.28121 0.53608 0.26372
 N1966 N 0.28695 0.54736 0.26939
 N1967 N 0.29209 0.09409 0.80901
 C1968 C 0.29796 0.08824 0.79760
 N1969 N 0.30943 0.09421 0.79192
 N1970 N 0.31489 0.10567 0.79752
 C1971 C 0.30906 0.11153 0.80897
 N1972 N 0.29754 0.10555 0.81460
 C1973 C 0.29219 0.07579 0.79172
 C1974 C 0.28731 0.06531 0.78684
 C1975 C 0.28143 0.05289 0.78100
 N1976 N 0.28709 0.04705 0.76949
 N1977 N 0.28138 0.03575 0.76383
 C1978 C 0.26984 0.02988 0.76954
 N1979 N 0.26423 0.03573 0.78112
 N1980 N 0.26995 0.04703 0.78677
 N1981 N 0.80960 0.59432 0.79200
 C1982 C 0.79816 0.58834 0.79774
 N1983 N 0.79233 0.59421 0.80916
 N1984 N 0.79781 0.60567 0.81472
 C1985 C 0.80931 0.61165 0.80905
 N1986 N 0.81508 0.60579 0.79756
 C1987 C 0.79236 0.57588 0.79187
 C1988 C 0.78744 0.56541 0.78698
 C1989 C 0.78149 0.55302 0.78111
 N1990 N 0.76996 0.54721 0.78684
 N1991 N 0.76418 0.53596 0.78114
 C1992 C 0.76976 0.53012 0.76955
 N1993 N 0.78135 0.53593 0.76388
 N1994 N 0.78712 0.54718 0.76958
 N1995 N 0.79222 0.09421 0.30891
 C1996 C 0.79815 0.08823 0.29761
 N1997 N 0.80966 0.09413 0.29193
 N1998 N 0.81510 0.10564 0.29743
 C1999 C 0.80921 0.11163 0.30879
 N2000 N 0.79765 0.10572 0.31441
 C2001 C 0.79239 0.07575 0.29180
 C2002 C 0.78749 0.06528 0.28695
 C2003 C 0.78157 0.05289 0.28110
 N2004 N 0.78722 0.04706 0.26957
 N2005 N 0.78144 0.03581 0.26386
 C2006 C 0.76985 0.03001 0.26952
 N2007 N 0.76426 0.03584 0.28111
 N2008 N 0.77004 0.04709 0.28681
 N2009 N 0.70789 0.40563 0.30895
 C2010 C 0.70207 0.41150 0.29753
 N2011 N 0.69064 0.40552 0.29178
 N2012 N 0.68516 0.39405 0.29734
 C2013 C 0.69093 0.38818 0.30882
 N2014 N 0.70241 0.39417 0.31451
 C2015 C 0.70785 0.42396 0.29169
 C2016 C 0.71274 0.43444 0.28682
 C2017 C 0.71865 0.44683 0.28097
 N2018 N 0.71300 0.45267 0.26945
 N2019 N 0.71876 0.46394 0.26375
 C2020 C 0.73033 0.46976 0.26942
 N2021 N 0.73593 0.46392 0.28100
 N2022 N 0.73017 0.45265 0.28669
 N2023 N 0.70801 0.90562 0.80884
 C2024 C 0.70206 0.91161 0.79755
 N2025 N 0.69041 0.90584 0.79203
 N2026 N 0.68485 0.89446 0.79767
 C2027 C 0.69075 0.88847 0.80903
 N2028 N 0.70244 0.89423 0.81449
 C2029 C 0.70789 0.92403 0.79168
 C2030 C 0.71279 0.93451 0.78682
 C2031 C 0.71867 0.94694 0.78102
 N2032 N 0.71299 0.95283 0.76953
 N2033 N 0.71870 0.96415 0.76390
 C2034 C 0.73025 0.96999 0.76960
 N2035 N 0.73587 0.96410 0.78115
 N2036 N 0.73016 0.95278 0.78678
 N2037 N 0.19042 0.40553 0.79193
 C2038 C 0.20187 0.41149 0.79765
 N2039 N 0.20768 0.40562 0.80908
 N2040 N 0.20218 0.39418 0.81466
 C2041 C 0.19068 0.38821 0.80900
 N2042 N 0.18491 0.39408 0.79751
 C2043 C 0.20769 0.42394 0.79177
 C2044 C 0.21261 0.43441 0.78688
 C2045 C 0.21856 0.44680 0.78102
 N2046 N 0.23009 0.45260 0.78674
 N2047 N 0.23588 0.46386 0.78104
 C2048 C 0.23029 0.46971 0.76945
 N2049 N 0.21870 0.46391 0.76379
 N2050 N 0.21292 0.45266 0.76949
 N2051 N 0.19049 0.90562 0.29168
 C2052 C 0.20183 0.91167 0.29752
 N2053 N 0.20761 0.90583 0.30897
 N2054 N 0.20219 0.89430 0.31446
 C2055 C 0.19081 0.88824 0.30866
 N2056 N 0.18507 0.89409 0.29716
 C2057 C 0.20764 0.92413 0.29168
 C2058 C 0.21258 0.93457 0.28680
 C2059 C 0.21857 0.94692 0.28094
 N2060 N 0.23011 0.95269 0.28667
 N2061 N 0.23592 0.96393 0.28097
 C2062 C 0.23036 0.96978 0.26938
 N2063 N 0.21877 0.96400 0.26370
 N2064 N 0.21296 0.95277 0.26940
 N2065 N 0.40543 0.29201 0.69121
 C2066 C 0.41142 0.29796 0.70250
 N2067 N 0.40563 0.30960 0.70801
 N2068 N 0.39422 0.31516 0.70238
 C2069 C 0.38822 0.30925 0.69104
 N2070 N 0.39402 0.29756 0.68558
 C2071 C 0.42385 0.29213 0.70838
 C2072 C 0.43433 0.28721 0.71326
 C2073 C 0.44674 0.28127 0.71909
 N2074 N 0.45260 0.28691 0.73061
 N2075 N 0.46387 0.28113 0.73629
 C2076 C 0.46969 0.26955 0.73062
 N2077 N 0.46384 0.26398 0.71904
 N2078 N 0.45257 0.26976 0.71335
 N2079 N 0.40580 0.79238 0.19085
 C2080 C 0.41164 0.79821 0.20228
 N2081 N 0.40567 0.80967 0.20797
 N2082 N 0.39421 0.81517 0.20236
 C2083 C 0.38837 0.80939 0.19088
 N2084 N 0.39436 0.79788 0.18525
 C2085 C 0.42408 0.79239 0.20818
 C2086 C 0.43453 0.78746 0.21310
 C2087 C 0.44691 0.78151 0.21898
 N2088 N 0.45273 0.78713 0.23052
 N2089 N 0.46397 0.78133 0.23624
 C2090 C 0.46980 0.76976 0.23057
 N2091 N 0.46399 0.76420 0.21897
 N2092 N 0.45274 0.76999 0.21325
 N2093 N 0.90581 0.29240 0.19086
 C2094 C 0.91165 0.29823 0.20229
 N2095 N 0.90567 0.30969 0.20798
 N2096 N 0.89422 0.31519 0.20238
 C2097 C 0.88837 0.30940 0.19090
 N2098 N 0.89436 0.29790 0.18526
 C2099 C 0.92408 0.29241 0.20819
 C2100 C 0.93453 0.28748 0.21311
 C2101 C 0.94691 0.28152 0.21899
 N2102 N 0.95272 0.28713 0.23054
 N2103 N 0.96397 0.28135 0.23625
 C2104 C 0.96981 0.26978 0.23057
 N2105 N 0.96400 0.26423 0.21896
 N2106 N 0.95275 0.27002 0.21325
 N2107 N 0.90575 0.80981 0.70787
 C2108 C 0.91162 0.79826 0.70226
 N2109 N 0.90566 0.79233 0.69095
 N2110 N 0.89419 0.79781 0.68538
 C2111 C 0.88830 0.80941 0.69093
 N2112 N 0.89427 0.81530 0.70230
 C2113 C 0.92407 0.79244 0.70815
 C2114 C 0.93453 0.78752 0.71306
 C2115 C 0.94691 0.78157 0.71895
 N2116 N 0.95275 0.77006 0.71324
 N2117 N 0.96399 0.76427 0.71896
 C2118 C 0.96980 0.76984 0.73057
 N2119 N 0.96396 0.78142 0.73623
 N2120 N 0.95271 0.78720 0.73050
 N2121 N 0.59443 0.29217 0.30892
 C2122 C 0.58856 0.29798 0.29749
 N2123 N 0.59453 0.30942 0.29175
 N2124 N 0.60600 0.31491 0.29731
 C2125 C 0.61188 0.30914 0.30879
 N2126 N 0.60590 0.29766 0.31448
 C2127 C 0.57609 0.29217 0.29164
 C2128 C 0.56563 0.28725 0.28676
 C2129 C 0.55324 0.28128 0.28090
 N2130 N 0.54740 0.28688 0.26935
 N2131 N 0.53615 0.28108 0.26365
 C2132 C 0.53035 0.26951 0.26934
 N2133 N 0.53620 0.26396 0.28095
 N2134 N 0.54744 0.26976 0.28664
 N2135 N 0.59445 0.79231 0.80893
 C2136 C 0.58844 0.79825 0.79764
 N2137 N 0.59422 0.80988 0.79210
 N2138 N 0.60564 0.81543 0.79772
 C2139 C 0.61164 0.80953 0.80907
 N2140 N 0.60586 0.79785 0.81455
 C2141 C 0.57601 0.79241 0.79177
 C2142 C 0.56554 0.78747 0.78689
 C2143 C 0.55313 0.78152 0.78106
 N2144 N 0.54726 0.78715 0.76954
 N2145 N 0.53599 0.78137 0.76387
 C2146 C 0.53019 0.76979 0.76956
 N2147 N 0.53606 0.76422 0.78114
 N2148 N 0.54733 0.77000 0.78680
 N2149 N 0.09429 0.30944 0.79194
 C2150 C 0.08832 0.29799 0.79765
 N2151 N 0.09417 0.29217 0.80909
 N2152 N 0.10563 0.29767 0.81467
 C2153 C 0.11160 0.30916 0.80901
 N2154 N 0.10574 0.31493 0.79752
 C2155 C 0.07586 0.29219 0.79178
 C2156 C 0.06539 0.28728 0.78689
 C2157 C 0.05300 0.28134 0.78102
 N2158 N 0.04716 0.26985 0.78677
 N2159 N 0.03591 0.26407 0.78107
 C2160 C 0.03009 0.26961 0.76945
 N2161 N 0.03592 0.28117 0.76376
 N2162 N 0.04717 0.28695 0.76947
 N2163 N 0.09444 0.80949 0.29154
 C2164 C 0.08829 0.79825 0.29746
 N2165 N 0.09398 0.79261 0.30906
 N2166 N 0.10546 0.79808 0.31462
 C2167 C 0.11163 0.80937 0.30876
 N2168 N 0.10592 0.81497 0.29710
 C2169 C 0.07585 0.79242 0.29158
 C2170 C 0.06540 0.78748 0.28669
 C2171 C 0.05301 0.78151 0.28084
 N2172 N 0.04722 0.76999 0.28660
 N2173 N 0.03597 0.76419 0.28093
 C2174 C 0.03011 0.76973 0.26932
 N2175 N 0.03590 0.78130 0.26362
 N2176 N 0.04715 0.78710 0.26930
 N2177 N 0.59441 0.70790 0.69116
 C2178 C 0.58842 0.70197 0.70247
 N2179 N 0.59433 0.69046 0.70813
 N2180 N 0.60583 0.68499 0.70259
 C2181 C 0.61181 0.69086 0.69122
 N2182 N 0.60591 0.70244 0.68563
 C2183 C 0.57596 0.70779 0.70834
 C2184 C 0.56551 0.71274 0.71326
 C2185 C 0.55314 0.71872 0.71916
 N2186 N 0.54730 0.71310 0.73070
 N2187 N 0.53604 0.71889 0.73641
 C2188 C 0.53022 0.73047 0.73075
 N2189 N 0.53607 0.73605 0.71916
 N2190 N 0.54733 0.73026 0.71345
 N2191 N 0.59440 0.20754 0.19092
 C2192 C 0.58857 0.20173 0.20237
 N2193 N 0.59456 0.19030 0.20809
 N2194 N 0.60602 0.18479 0.20250
 C2195 C 0.61186 0.19055 0.19099
 N2196 N 0.60586 0.20204 0.18532
 C2197 C 0.57610 0.20754 0.20825
 C2198 C 0.56563 0.21244 0.21314
 C2199 C 0.55321 0.21837 0.21899
 N2200 N 0.54739 0.21275 0.23054
 N2201 N 0.53613 0.21853 0.23625
 C2202 C 0.53029 0.23010 0.23057
 N2203 N 0.53611 0.23566 0.21895
 N2204 N 0.54737 0.22988 0.21325
 N2205 N 0.09398 0.70758 0.19071
 C2206 C 0.08827 0.70189 0.20228
 N2207 N 0.09441 0.69062 0.20815
 N2208 N 0.10592 0.68516 0.20260
 C2209 C 0.11165 0.69081 0.19098
 N2210 N 0.10548 0.70213 0.18516
 C2211 C 0.07581 0.70770 0.20817
 C2212 C 0.06535 0.71263 0.21307
 C2213 C 0.05297 0.71860 0.21895
 N2214 N 0.04715 0.71300 0.23051
 N2215 N 0.03590 0.71880 0.23622
 C2216 C 0.03007 0.73037 0.23054
 N2217 N 0.03589 0.73592 0.21892
 N2218 N 0.04714 0.73012 0.21321
 N2219 N 0.09417 0.20760 0.69100
 C2220 C 0.08829 0.20179 0.70242
 N2221 N 0.09425 0.19033 0.70814
 N2222 N 0.10571 0.18481 0.70256
 C2223 C 0.11159 0.19057 0.69108
 N2224 N 0.10563 0.20209 0.68542
 C2225 C 0.07585 0.20762 0.70830
 C2226 C 0.06538 0.21255 0.71321
 C2227 C 0.05299 0.21850 0.71909
 N2228 N 0.04717 0.21288 0.73064
 N2229 N 0.03591 0.21865 0.73635
 C2230 C 0.03006 0.23022 0.73067
 N2231 N 0.03588 0.23578 0.71905
 N2232 N 0.04714 0.23000 0.71335
 N2233 N 0.40552 0.69051 0.29176
 C2234 C 0.41148 0.70195 0.29749
 N2235 N 0.40556 0.70779 0.30888
 N2236 N 0.39406 0.70234 0.31440
 C2237 C 0.38809 0.69085 0.30873
 N2238 N 0.39402 0.68504 0.29729
 C2239 C 0.42394 0.70776 0.29164
 C2240 C 0.43441 0.71269 0.28676
 C2241 C 0.44680 0.71864 0.28091
 N2242 N 0.45260 0.73015 0.28665
 N2243 N 0.46386 0.73594 0.28096
 C2244 C 0.46972 0.73039 0.26937
 N2245 N 0.46392 0.71881 0.26369
 N2246 N 0.45266 0.71302 0.26938
 N2247 N 0.40534 0.19038 0.79183
 C2248 C 0.41136 0.20176 0.79761
 N2249 N 0.40561 0.20745 0.80916
 N2250 N 0.39421 0.20190 0.81480
 C2251 C 0.38817 0.19047 0.80907
 N2252 N 0.39393 0.18483 0.79746
 C2253 C 0.42379 0.20762 0.79170
 C2254 C 0.43424 0.21256 0.78680
 C2255 C 0.44665 0.21852 0.78096
 N2256 N 0.45245 0.23003 0.78671
 N2257 N 0.46373 0.23581 0.78104
 C2258 C 0.46961 0.23024 0.76945
 N2259 N 0.46381 0.21866 0.76378
 N2260 N 0.45254 0.21289 0.76945
 N2261 N 0.90571 0.70781 0.80906
 C2262 C 0.91159 0.70200 0.79764
 N2263 N 0.90564 0.69056 0.79191
 N2264 N 0.89418 0.68505 0.79749
 C2265 C 0.88830 0.69080 0.80898
 N2266 N 0.89426 0.70231 0.81464
 C2267 C 0.92404 0.70783 0.79176
 C2268 C 0.93449 0.71277 0.78686
 C2269 C 0.94687 0.71874 0.78099
 N2270 N 0.95272 0.71313 0.76945
 N2271 N 0.96397 0.71892 0.76375
 C2272 C 0.96977 0.73050 0.76942
 N2273 N 0.96392 0.73606 0.78102
 N2274 N 0.95266 0.73026 0.78672
 N2275 N 0.90558 0.19044 0.29171
 C2276 C 0.91154 0.20187 0.29746
 N2277 N 0.90569 0.20764 0.30892
 N2278 N 0.89425 0.20211 0.31451
 C2279 C 0.88828 0.19063 0.30882
 N2280 N 0.89414 0.18491 0.29730
 C2281 C 0.92399 0.20771 0.29160
 C2282 C 0.93446 0.21264 0.28672
 C2283 C 0.94686 0.21859 0.28088
 N2284 N 0.95265 0.23010 0.28663
 N2285 N 0.96390 0.23591 0.28095
 C2286 C 0.96976 0.23037 0.26935
 N2287 N 0.96397 0.21880 0.26365
 N2288 N 0.95272 0.21299 0.26934
 N2289 N 0.29187 0.30918 0.59427
 C2290 C 0.29768 0.29774 0.58836
 N2291 N 0.30912 0.29195 0.59429
 N2292 N 0.31461 0.29745 0.60576
 C2293 C 0.30885 0.30894 0.61167
 N2294 N 0.29737 0.31469 0.60573
 C2295 C 0.29186 0.29191 0.57593
 C2296 C 0.28698 0.28701 0.56549
 C2297 C 0.28109 0.28112 0.55311
 N2298 N 0.28680 0.26958 0.54731
 N2299 N 0.28107 0.26384 0.53607
 C2300 C 0.26947 0.26947 0.53025
 N2301 N 0.26382 0.28107 0.53606
 N2302 N 0.26955 0.28681 0.54729
 N2303 N 0.29205 0.80927 0.09409
 C2304 C 0.29785 0.79781 0.08821
 N2305 N 0.30930 0.79204 0.09413
 N2306 N 0.31482 0.79759 0.10556
 C2307 C 0.30907 0.80909 0.11145
 N2308 N 0.29757 0.81481 0.10552
 C2309 C 0.29203 0.79196 0.07578
 C2310 C 0.28715 0.78706 0.06533
 C2311 C 0.28128 0.78116 0.05295
 N2312 N 0.28699 0.76962 0.04716
 N2313 N 0.28128 0.76389 0.03591
 C2314 C 0.26970 0.76953 0.03005
 N2315 N 0.26405 0.78114 0.03585
 N2316 N 0.26977 0.78687 0.04710
 N2317 N 0.79201 0.30934 0.09412
 C2318 C 0.79780 0.29788 0.08823
 N2319 N 0.80925 0.29210 0.09414
 N2320 N 0.81478 0.29763 0.10558
 C2321 C 0.80904 0.30914 0.11148
 N2322 N 0.79754 0.31487 0.10556
 C2323 C 0.79196 0.29205 0.07580
 C2324 C 0.78707 0.28715 0.06535
 C2325 C 0.78118 0.28126 0.05297
 N2326 N 0.78690 0.26975 0.04713
 N2327 N 0.78116 0.26402 0.03590
 C2328 C 0.76954 0.26963 0.03010
 N2329 N 0.76388 0.28121 0.03594
 N2330 N 0.76962 0.28694 0.04717
 N2331 N 0.79210 0.80948 0.59411
 C2332 C 0.79779 0.79793 0.58832
 N2333 N 0.80910 0.79201 0.59438
 N2334 N 0.81458 0.79752 0.60586
 C2335 C 0.80893 0.80912 0.61165
 N2336 N 0.79758 0.81499 0.60558
 C2337 C 0.79199 0.79210 0.57587
 C2338 C 0.78711 0.78720 0.56542
 C2339 C 0.78121 0.78131 0.55304
 N2340 N 0.78690 0.76978 0.54722
 N2341 N 0.78115 0.76403 0.53600
 C2342 C 0.76953 0.76966 0.53020
 N2343 N 0.76389 0.78125 0.53603
 N2344 N 0.76965 0.78699 0.54725
 N2345 N 0.30902 0.70807 0.40550
 C2346 C 0.29766 0.70221 0.41151
 N2347 N 0.29202 0.69062 0.40576
 N2348 N 0.29761 0.68502 0.39437
 C2349 C 0.30902 0.69083 0.38836
 N2350 N 0.31460 0.70247 0.39411
 C2351 C 0.29180 0.70809 0.42391
 C2352 C 0.28690 0.71302 0.43435
 C2353 C 0.28103 0.71893 0.44673
 N2354 N 0.26950 0.71325 0.45259
 N2355 N 0.26382 0.71898 0.46387
 C2356 C 0.26950 0.73054 0.46968
 N2357 N 0.28109 0.73616 0.46382
 N2358 N 0.28677 0.73043 0.45255
 N2359 N 0.29173 0.19063 0.90577
 C2360 C 0.29762 0.20197 0.91175
 N2361 N 0.30920 0.20759 0.90595
 N2362 N 0.31476 0.20201 0.89455
 C2363 C 0.30892 0.19062 0.88856
 N2364 N 0.29728 0.18504 0.89436
 C2365 C 0.29177 0.20784 0.92416
 C2366 C 0.28689 0.21276 0.93461
 C2367 C 0.28103 0.21867 0.94700
 N2368 N 0.28678 0.23016 0.95282
 N2369 N 0.28109 0.23590 0.96408
 C2370 C 0.26948 0.23030 0.96993
 N2371 N 0.26380 0.21873 0.96411
 N2372 N 0.26950 0.21300 0.95285
 N2373 N 0.80924 0.70800 0.90583
 C2374 C 0.79779 0.70223 0.91175
 N2375 N 0.79203 0.69077 0.90587
 N2376 N 0.79757 0.68521 0.89444
 C2377 C 0.80907 0.69094 0.88852
 N2378 N 0.81479 0.70245 0.89441
 C2379 C 0.79195 0.70807 0.92418
 C2380 C 0.78705 0.71297 0.93463
 C2381 C 0.78117 0.71886 0.94701
 N2382 N 0.76961 0.71319 0.95282
 N2383 N 0.76388 0.71892 0.96407
 C2384 C 0.76954 0.73049 0.96990
 N2385 N 0.78116 0.73610 0.96409
 N2386 N 0.78689 0.73036 0.95285
 N2387 N 0.79188 0.19059 0.40554
 C2388 C 0.79778 0.20190 0.41158
 N2389 N 0.80933 0.20758 0.40577
 N2390 N 0.81486 0.20208 0.39431
 C2391 C 0.80901 0.19072 0.38827
 N2392 N 0.79741 0.18508 0.39408
 C2393 C 0.79194 0.20771 0.42403
 C2394 C 0.78704 0.21261 0.43448
 C2395 C 0.78115 0.21851 0.44686
 N2396 N 0.78686 0.23003 0.45267
 N2397 N 0.78111 0.23579 0.46391
 C2398 C 0.76949 0.23019 0.46972
 N2399 N 0.76384 0.21861 0.46390
 N2400 N 0.76958 0.21286 0.45266
 N2401 N 0.69087 0.29198 0.40563
 C2402 C 0.70232 0.29775 0.41153
 N2403 N 0.70809 0.30920 0.40565
 N2404 N 0.70254 0.31476 0.39422
 C2405 C 0.69104 0.30905 0.38831
 N2406 N 0.68532 0.29754 0.39421
 C2407 C 0.70816 0.29189 0.42395
 C2408 C 0.71305 0.28697 0.43440
 C2409 C 0.71891 0.28106 0.44679
 N2410 N 0.73045 0.28672 0.45263
 N2411 N 0.73614 0.28098 0.46389
 C2412 C 0.73046 0.26941 0.46971
 N2413 N 0.71886 0.26381 0.46387
 N2414 N 0.71317 0.26955 0.45261
 N2415 N 0.69085 0.79220 0.90583
 C2416 C 0.70229 0.79798 0.91174
 N2417 N 0.70808 0.80941 0.90582
 N2418 N 0.70258 0.81491 0.89435
 C2419 C 0.69109 0.80917 0.88842
 N2420 N 0.68534 0.79770 0.89436
 C2421 C 0.70811 0.79216 0.92419
 C2422 C 0.71299 0.78726 0.93464
 C2423 C 0.71887 0.78136 0.94702
 N2424 N 0.73042 0.78701 0.95284
 N2425 N 0.73614 0.78126 0.96408
 C2426 C 0.73048 0.76968 0.96990
 N2427 N 0.71886 0.76409 0.96408
 N2428 N 0.71314 0.76984 0.95284
 N2429 N 0.20790 0.30916 0.90587
 C2430 C 0.20213 0.29771 0.91178
 N2431 N 0.19068 0.29194 0.90588
 N2432 N 0.18513 0.29748 0.89445
 C2433 C 0.19085 0.30898 0.88853
 N2434 N 0.20236 0.31470 0.89444
 C2435 C 0.20798 0.29188 0.92420
 C2436 C 0.21289 0.28698 0.93465
 C2437 C 0.21878 0.28110 0.94704
 N2438 N 0.21306 0.26960 0.95289
 N2439 N 0.21880 0.26386 0.96413
 C2440 C 0.23042 0.26947 0.96992
 N2441 N 0.23608 0.28104 0.96408
 N2442 N 0.23034 0.28677 0.95283
 N2443 N 0.20808 0.80929 0.40550
 C2444 C 0.20218 0.79798 0.41155
 N2445 N 0.19061 0.79231 0.40577
 N2446 N 0.18507 0.79782 0.39432
 C2447 C 0.19091 0.80919 0.38827
 N2448 N 0.20254 0.81480 0.39405
 C2449 C 0.20802 0.79217 0.42399
 C2450 C 0.21292 0.78729 0.43445
 C2451 C 0.21882 0.78139 0.44683
 N2452 N 0.21311 0.76988 0.45267
 N2453 N 0.21886 0.76413 0.46390
 C2454 C 0.23048 0.76973 0.46970
 N2455 N 0.23612 0.78131 0.46387
 N2456 N 0.23038 0.78706 0.45263
 N2457 N 0.69093 0.70814 0.59452
 C2458 C 0.70224 0.70224 0.58845
 N2459 N 0.70793 0.69068 0.59424
 N2460 N 0.70245 0.68516 0.60571
 C2461 C 0.69109 0.69102 0.61179
 N2462 N 0.68544 0.70262 0.60600
 C2463 C 0.70804 0.70808 0.57600
 C2464 C 0.71292 0.71299 0.56554
 C2465 C 0.71880 0.71891 0.55316
 N2466 N 0.73035 0.71323 0.54733
 N2467 N 0.73608 0.71898 0.53609
 C2468 C 0.73042 0.73057 0.53027
 N2469 N 0.71882 0.73619 0.53611
 N2470 N 0.71309 0.73044 0.54735
 N2471 N 0.69080 0.20773 0.09411
 C2472 C 0.70237 0.20207 0.08830
 N2473 N 0.70829 0.19074 0.09431
 N2474 N 0.70278 0.18520 0.10576
 C2475 C 0.69116 0.19081 0.11158
 N2476 N 0.68529 0.20219 0.10556
 C2477 C 0.70820 0.20792 0.07587
 C2478 C 0.71309 0.21284 0.06542
 C2479 C 0.71896 0.21877 0.05305
 N2480 N 0.73051 0.21311 0.04720
 N2481 N 0.73622 0.21887 0.03596
 C2482 C 0.73054 0.23046 0.03016
 N2483 N 0.71893 0.23606 0.03601
 N2484 N 0.71322 0.23030 0.04725
 N2485 N 0.19076 0.70802 0.09410
 C2486 C 0.20223 0.70225 0.08821
 N2487 N 0.20799 0.69078 0.09410
 N2488 N 0.20241 0.68520 0.10550
 C2489 C 0.19088 0.69092 0.11139
 N2490 N 0.18518 0.70244 0.10550
 C2491 C 0.20810 0.70811 0.07580
 C2492 C 0.21302 0.71302 0.06536
 C2493 C 0.21893 0.71890 0.05298
 N2494 N 0.23046 0.71318 0.04716
 N2495 N 0.23621 0.71890 0.03592
 C2496 C 0.23059 0.73050 0.03009
 N2497 N 0.21899 0.73616 0.03590
 N2498 N 0.21324 0.73044 0.04715
 N2499 N 0.19067 0.20784 0.59436
 C2500 C 0.20212 0.20208 0.58843
 N2501 N 0.20791 0.19062 0.59431
 N2502 N 0.20238 0.18506 0.60575
 C2503 C 0.19088 0.19077 0.61168
 N2504 N 0.18513 0.20228 0.60579
 C2505 C 0.20796 0.20794 0.57601
 C2506 C 0.21286 0.21285 0.56556
 C2507 C 0.21875 0.21875 0.55319
 N2508 N 0.23030 0.21306 0.54736
 N2509 N 0.23603 0.21879 0.53612
 C2510 C 0.23038 0.23038 0.53030
 N2511 N 0.21878 0.23602 0.53612
 N2512 N 0.21305 0.23029 0.54737
   
