data_POSCAR
  _audit_creation_date              2014-09-24
  _audit_creation_method            'ToBaCCo'
  _symmetry_space_group_name_H-M    'P1'
  _symmetry_Int_Tables_number       1
  _symmetry_cell_setting            triclinic
  loop_
  _symmetry_equiv_pos_as_xyz
 x,y,z
_cell_length_a 62.7248
_cell_length_b 61.2082
_cell_length_c 62.0745
_cell_angle_alpha 90.006400
_cell_angle_beta 90.013700
_cell_angle_gamma 90.026000
loop_
  _atom_site_label
  _atom_site_type_symbol
  _atom_site_fract_x
  _atom_site_fract_y
  _atom_site_fract_z
C1 C 0.32411 0.46180 0.92893
 C2 C 0.31749 0.47169 0.90962
 C3 C 0.29993 0.46335 0.89826
 C4 C 0.28796 0.44616 0.90707
 C5 C 0.29468 0.43579 0.92600
 C6 C 0.31314 0.44325 0.93668
 C7 C 0.34218 0.46937 0.93997
 C8 C 0.34965 0.45864 0.95865
 C9 C 0.33925 0.43935 0.96536
 C10 C 0.32112 0.43162 0.95455
 C11 C 0.31139 0.41193 0.96075
 C12 C 0.29332 0.40409 0.94975
 C13 C 0.28421 0.41703 0.93344
 H14 H 0.32661 0.48507 0.90281
 H15 H 0.27442 0.43979 0.89819
 H16 H 0.35091 0.48321 0.93355
 H17 H 0.34491 0.43056 0.97940
 H18 H 0.31833 0.40229 0.97361
 H19 H 0.26981 0.41155 0.92542
 C20 C 0.45610 0.82080 0.43100
 C21 C 0.46436 0.84058 0.43869
 C22 C 0.45399 0.85211 0.45528
 C23 C 0.43694 0.84197 0.46617
 C24 C 0.42847 0.82216 0.45862
 C25 C 0.43774 0.81179 0.44061
 C26 C 0.46502 0.81079 0.41285
 C27 C 0.45542 0.79230 0.40364
 C28 C 0.43690 0.78352 0.41301
 C29 C 0.42802 0.79310 0.43152
 C30 C 0.40880 0.78529 0.44019
 C31 C 0.39927 0.79596 0.45774
 C32 C 0.40968 0.81370 0.46751
 H33 H 0.47825 0.84766 0.43096
 H34 H 0.42890 0.85049 0.47915
 H35 H 0.47900 0.81786 0.40528
 H36 H 0.42910 0.76968 0.40547
 H37 H 0.40063 0.77169 0.43260
 H38 H 0.40214 0.82196 0.48096
 C39 C 0.95031 0.92960 0.82425
 C40 C 0.95800 0.90998 0.81562
 C41 C 0.94925 0.90121 0.79659
 C42 C 0.93387 0.91333 0.78520
 C43 C 0.92568 0.93278 0.79387
 C44 C 0.93394 0.94096 0.81345
 C45 C 0.95756 0.93705 0.84436
 C46 C 0.94816 0.95540 0.85428
 C47 C 0.93279 0.96739 0.84261
 C48 C 0.92511 0.95991 0.82276
 C49 C 0.90766 0.97016 0.81291
 C50 C 0.89879 0.96156 0.79396
 C51 C 0.90820 0.94322 0.78422
 H52 H 0.97026 0.90098 0.82418
 H53 H 0.92695 0.90667 0.77059
 H54 H 0.96934 0.92749 0.85298
 H55 H 0.92621 0.98227 0.84939
 H56 H 0.90010 0.98401 0.82066
 H57 H 0.90116 0.93646 0.76972
 C58 C 0.45863 -0.06840 0.32009
 C59 C 0.46581 -0.08895 0.31317
 C60 C 0.45681 -0.09892 0.29494
 C61 C 0.44122 -0.08780 0.28295
 C62 C 0.43367 -0.06738 0.28977
 C63 C 0.44253 -0.05752 0.30831
 C64 C 0.46603 -0.05934 0.33949
 C65 C 0.45731 -0.03977 0.34730
 C66 C 0.44207 -0.02851 0.33509
 C67 C 0.43430 -0.03747 0.31588
 C68 C 0.41697 -0.02780 0.30533
 C69 C 0.40730 -0.03832 0.28782
 C70 C 0.41613 -0.05762 0.27955
 H71 H 0.47765 -0.09770 0.32252
 H72 H 0.43419 -0.09566 0.26899
 H73 H 0.47764 -0.06808 0.34915
 H74 H 0.43524 -0.01354 0.34139
 H75 H 0.40973 -0.01316 0.31189
 H76 H 0.40827 -0.06588 0.26628
 C77 C 0.82723 0.29036 0.32455
 C78 C 0.81758 0.28170 0.34306
 C79 C 0.79820 0.29024 0.35070
 C80 C 0.78907 0.30833 0.34022
 C81 C 0.79886 0.31758 0.32208
 C82 C 0.81776 0.30829 0.31390
 C83 C 0.84640 0.28167 0.31674
 C84 C 0.85602 0.29044 0.29827
 C85 C 0.84651 0.30817 0.28761
 C86 C 0.82747 0.31726 0.29539
 C87 C 0.81825 0.33548 0.28529
 C88 C 0.79973 0.34524 0.29374
 C89 C 0.79029 0.33626 0.31229
 H90 H 0.82517 0.26837 0.35163
 H91 H 0.77438 0.31530 0.34632
 H92 H 0.85392 0.26809 0.32500
 H93 H 0.85421 0.31510 0.27354
 H94 H 0.82570 0.34236 0.27107
 H95 H 0.77642 0.34405 0.31932
 C96 C -0.20095 0.82319 0.82754
 C97 C -0.20871 0.84362 0.82102
 C98 C -0.19910 0.85504 0.80387
 C99 C -0.18241 0.84496 0.79240
 C100 C -0.17435 0.82467 0.79888
 C101 C -0.18353 0.81376 0.81660
 C102 C -0.20998 0.81230 0.84516
 C103 C -0.20184 0.79208 0.85196
 C104 C -0.18421 0.78294 0.84131
 C105 C -0.17498 0.79367 0.82367
 C106 C -0.15702 0.78495 0.81331
 C107 C -0.14789 0.79577 0.79560
 C108 C -0.15675 0.81550 0.78838
 H109 H -0.22229 0.85067 0.82931
 H110 H -0.17482 0.85349 0.77914
 H111 H -0.22312 0.81966 0.85388
 H112 H -0.17767 0.76755 0.84688
 H113 H -0.14988 0.76996 0.81920
 H114 H -0.14953 0.82396 0.77487
 C115 C 0.92859 0.31908 0.45801
 C116 C 0.93730 0.33782 0.46751
 C117 C 0.95568 0.34795 0.45893
 C118 C 0.96473 0.33903 0.44000
 C119 C 0.95665 0.31977 0.43078
 C120 C 0.93864 0.30963 0.43997
 C121 C 0.90954 0.31006 0.46583
 C122 C 0.90045 0.29178 0.45576
 C123 C 0.91137 0.28139 0.43890
 C124 C 0.93025 0.29041 0.43070
 C125 C 0.94027 0.28110 0.41276
 C126 C 0.95808 0.29121 0.40327
 C127 C 0.96593 0.31079 0.41216
 H128 H 0.92988 0.34419 0.48197
 H129 H 0.97782 0.34734 0.43208
 H130 H 0.90118 0.31787 0.47904
 H131 H 0.90442 0.26708 0.43136
 H132 H 0.93389 0.26624 0.40577
 H133 H 0.97919 0.31907 0.40450
 C134 C 0.42751 0.46115 0.82107
 C135 C 0.43524 0.46950 0.84058
 C136 C 0.45028 0.45772 0.85260
 C137 C 0.45859 0.43812 0.84448
 C138 C 0.45116 0.42963 0.82490
 C139 C 0.43544 0.44111 0.81318
 C140 C 0.41100 0.47176 0.81008
 C141 C 0.40196 0.46237 0.79156
 C142 C 0.41017 0.44268 0.78349
 C143 C 0.42693 0.43205 0.79411
 C144 C 0.43435 0.41181 0.78677
 C145 C 0.44947 0.40007 0.79875
 C146 C 0.45818 0.40923 0.81751
 H147 H 0.42881 0.48460 0.84703
 H148 H 0.47011 0.42903 0.85394
 H149 H 0.40443 0.48681 0.81646
 H150 H 0.40278 0.43513 0.76955
 H151 H 0.42768 0.40464 0.77228
 H152 H 0.46976 0.40003 0.82678
 C153 C 0.82334 0.92630 0.95126
 C154 C 0.81466 0.90621 0.95763
 C155 C 0.79678 0.89740 0.94699
 C156 C 0.78704 0.90964 0.93045
 C157 C 0.79540 0.92993 0.92411
 C158 C 0.81350 0.93842 0.93471
 C159 C 0.84231 0.93392 0.96048
 C160 C 0.85133 0.95381 0.95376
 C161 C 0.84065 0.96662 0.93838
 C162 C 0.82216 0.95872 0.92830
 C163 C 0.81284 0.97020 0.91117
 C164 C 0.79516 0.96156 0.90019
 C165 C 0.78645 0.94149 0.90682
 H166 H 0.82256 0.89686 0.97014
 H167 H 0.77289 0.90338 0.92254
 H168 H 0.85039 0.92420 0.97261
 H169 H 0.84765 0.98192 0.93309
 H170 H 0.81971 0.98555 0.90587
 H171 H 0.77310 0.93459 0.89805
 C172 C 0.32537 0.81618 0.28903
 C173 C 0.31871 0.83655 0.28121
 C174 C 0.30203 0.84819 0.29131
 C175 C 0.29070 0.83792 0.30815
 C176 C 0.29692 0.81734 0.31590
 C177 C 0.31424 0.80635 0.30622
 C178 C 0.34413 0.80643 0.28123
 C179 C 0.35189 0.78715 0.29063
 C180 C 0.33969 0.77637 0.30631
 C181 C 0.32129 0.78617 0.31464
 C182 C 0.31127 0.77733 0.33279
 C183 C 0.29517 0.78902 0.34339
 C184 C 0.28743 0.80852 0.33445
 H185 H 0.32701 0.84370 0.26760
 H186 H 0.27804 0.84662 0.31638
 H187 H 0.35358 0.81469 0.26908
 H188 H 0.34575 0.76144 0.31347
 H189 H 0.31731 0.76240 0.33996
 H190 H 0.27509 0.81755 0.34284
 C191 C 0.82359 0.42891 0.45583
 C192 C 0.81422 0.40946 0.46300
 C193 C 0.79684 0.40041 0.45191
 C194 C 0.78937 0.41040 0.43303
 C195 C 0.79857 0.42992 0.42570
 C196 C 0.81527 0.43963 0.43755
 C197 C 0.84185 0.43720 0.46591
 C198 C 0.85148 0.45646 0.45836
 C199 C 0.84188 0.46828 0.44155
 C200 C 0.82423 0.45958 0.43061
 C201 C 0.81648 0.46956 0.41184
 C202 C 0.80147 0.45877 0.39876
 C203 C 0.79204 0.43934 0.40622
 H204 H 0.82053 0.40114 0.47704
 H205 H 0.77645 0.40290 0.42407
 H206 H 0.84913 0.42825 0.47908
 H207 H 0.84943 0.48306 0.43563
 H208 H 0.82321 0.48498 0.40657
 H209 H 0.78016 0.43112 0.39646
 C210 C 0.95440 0.81937 -0.07052
 C211 C 0.96351 0.83808 -0.06114
 C212 C 0.95644 0.84579 -0.04098
 C213 C 0.93977 0.83470 -0.03044
 C214 C 0.92989 0.81659 -0.04001
 C215 C 0.93742 0.80869 -0.05997
 C216 C 0.96109 0.81197 -0.09087
 C217 C 0.95059 0.79441 -0.10115
 C218 C 0.93434 0.78334 -0.08993
 C219 C 0.92726 0.79074 -0.06986
 C220 C 0.90914 0.78149 -0.06034
 C221 C 0.90078 0.79031 -0.04134
 C222 C 0.91164 0.80723 -0.03072
 H223 H 0.97570 0.84705 -0.06981
 H224 H 0.93396 0.84070 -0.01509
 H225 H 0.97360 0.82077 -0.09925
 H226 H 0.92672 0.76921 -0.09716
 H227 H 0.90052 0.76857 -0.06856
 H228 H 0.90494 0.81409 -0.01611
 C229 C 0.32084 0.31879 0.78615
 C230 C 0.31468 0.33926 0.77809
 C231 C 0.29899 0.35166 0.78868
 C232 C 0.28817 0.34263 0.80638
 C233 C 0.29364 0.32189 0.81423
 C234 C 0.31022 0.31001 0.80426
 C235 C 0.33841 0.30770 0.77741
 C236 C 0.34568 0.28821 0.78682
 C237 C 0.33464 0.27916 0.80432
 C238 C 0.31696 0.28991 0.81311
 C239 C 0.30699 0.28175 0.83164
 C240 C 0.29070 0.29365 0.84166
 C241 C 0.28385 0.31352 0.83281
 H242 H 0.32283 0.34609 0.76423
 H243 H 0.27603 0.35215 0.81455
 H244 H 0.34729 0.31487 0.76420
 H245 H 0.34055 0.26429 0.81172
 H246 H 0.31268 0.26680 0.83904
 H247 H 0.27175 0.32297 0.84110
 C248 C 0.17578 0.54499 0.56877
 C249 C 0.15801 0.53559 0.55864
 C250 C 0.15043 0.54396 0.53900
 C251 C 0.16107 0.56157 0.52925
 C252 C 0.17869 0.57131 0.53930
 C253 C 0.18592 0.56320 0.55928
 C254 C 0.18303 0.53711 0.58869
 C255 C 0.19975 0.54770 0.59955
 C256 C 0.20967 0.56588 0.59014
 C257 C 0.20281 0.57377 0.57012
 C258 C 0.21201 0.59255 0.56116
 C259 C 0.20517 0.60049 0.54108
 C260 C 0.18861 0.58962 0.53016
 H261 H 0.14958 0.52226 0.56637
 H262 H 0.15513 0.56811 0.51416
 H263 H 0.17532 0.52314 0.59610
 H264 H 0.22242 0.57414 0.59869
 H265 H 0.22422 0.60132 0.57003
 H266 H 0.18305 0.59585 0.51481
 C267 C 0.57283 0.70851 0.07248
 C268 C 0.59139 0.71707 0.06318
 C269 C 0.60104 0.70644 0.04572
 C270 C 0.59143 0.68794 0.03661
 C271 C 0.57280 0.67922 0.04567
 C272 C 0.56361 0.68934 0.06390
 C273 C 0.56450 0.71765 0.09138
 C274 C 0.54799 0.70710 0.10257
 C275 C 0.53826 0.68858 0.09358
 C276 C 0.54601 0.67957 0.07433
 C277 C 0.53759 0.65997 0.06632
 C278 C 0.54692 0.64975 0.04841
 C279 C 0.56420 0.65960 0.03788
 H280 H 0.59919 0.73111 0.07035
 H281 H 0.59922 0.67963 0.02334
 H282 H 0.57195 0.73198 0.09839
 H283 H 0.52555 0.68044 0.10229
 H284 H 0.52449 0.65201 0.07459
 H285 H 0.57159 0.65136 0.02434
 C286 C 0.69867 0.17871 0.67427
 C287 C 0.70825 0.18913 0.65668
 C288 C 0.70145 0.20993 0.65015
 C289 C 0.68487 0.22037 0.66135
 C290 C 0.67508 0.21011 0.67899
 C291 C 0.68197 0.18916 0.68546
 C292 C 0.70523 0.15780 0.68050
 C293 C 0.69513 0.14680 0.69761
 C294 C 0.67878 0.15758 0.70903
 C295 C 0.67188 0.17846 0.70281
 C296 C 0.65461 0.18852 0.71321
 C297 C 0.64766 0.20940 0.70689
 C298 C 0.65811 0.22015 0.68987
 H299 H 0.72071 0.18090 0.64768
 H300 H 0.67945 0.23631 0.65608
 H301 H 0.71844 0.15013 0.67215
 H302 H 0.67076 0.14931 0.72219
 H303 H 0.64620 0.17990 0.72589
 H304 H 0.65266 0.23615 0.68479
 C305 C 1.07494 0.03934 0.17622
 C306 C 1.09479 0.03077 0.18238
 C307 C 1.10649 0.04043 0.19919
 C308 C 1.09854 0.05921 0.20939
 C309 C 1.07899 0.06825 0.20310
 C310 C 1.06698 0.05809 0.18667
 C311 C 1.06328 0.02990 0.15930
 C312 C 1.04314 0.03824 0.15315
 C313 C 1.03536 0.05687 0.16410
 C314 C 1.04732 0.06710 0.18027
 C315 C 1.04029 0.08674 0.18950
 C316 C 1.05279 0.09756 0.20492
 C317 C 1.07165 0.08776 0.21235
 H318 H 1.10123 0.01662 0.17413
 H319 H 1.10779 0.06694 0.22204
 H320 H 1.07045 0.01663 0.15031
 H321 H 1.01986 0.06356 0.16016
 H322 H 1.02560 0.09421 0.18397
 H323 H 1.08108 0.09594 0.22458
 C324 C 0.04257 0.18199 1.07231
 C325 C 0.03432 0.16204 1.06509
 C326 C 0.04288 0.15162 1.04684
 C327 C 0.05916 0.16207 1.03508
 C328 C 0.06800 0.18183 1.04245
 C329 C 0.05957 0.19189 1.06108
 C330 C 0.03483 0.19157 1.09127
 C331 C 0.04398 0.21084 1.09927
 C332 C 0.06082 0.22076 1.08804
 C333 C 0.06869 0.21140 1.06898
 C334 C 0.08618 0.22065 1.05831
 C335 C 0.09516 0.21041 1.04016
 C336 C 0.08592 0.19101 1.03230
 H337 H 0.02151 0.15426 1.07399
 H338 H 0.06597 0.15405 1.02109
 H339 H 0.02218 0.18366 1.10028
 H340 H 0.06809 0.23545 1.09448
 H341 H 0.09334 0.23549 1.06454
 H342 H 0.09316 0.18266 1.01875
 C343 C 0.17728 0.68469 0.70533
 C344 C 0.16067 0.69480 0.71662
 C345 C 0.15029 0.71318 0.70807
 C346 C 0.15735 0.72203 0.68841
 C347 C 0.17425 0.71229 0.67709
 C348 C 0.18393 0.69324 0.68533
 C349 C 0.18677 0.66566 0.71338
 C350 C 0.20293 0.65507 0.70178
 C351 C 0.20926 0.66337 0.68164
 C352 C 0.19983 0.68241 0.67330
 C353 C 0.20556 0.69043 0.65290
 C354 C 0.19595 0.70941 0.64453
 C355 C 0.18096 0.72072 0.65722
 H356 H 0.15524 0.68792 0.73176
 H357 H 0.14906 0.73589 0.68149
 H358 H 0.18138 0.65882 0.72855
 H359 H 0.22142 0.65490 0.67247
 H360 H 0.21723 0.68168 0.64334
 H361 H 0.17398 0.73574 0.65123
 C362 C 1.20354 0.17652 0.16921
 C363 C 1.21216 0.15694 0.17701
 C364 C 1.20446 0.14742 0.19618
 C365 C 1.18695 0.15721 0.20668
 C366 C 1.17807 0.17674 0.19898
 C367 C 1.18661 0.18661 0.18037
 C368 C 1.21150 0.18612 0.15033
 C369 C 1.20272 0.20566 0.14255
 C370 C 1.18606 0.21578 0.15377
 C371 C 1.17796 0.20641 0.17266
 C372 C 1.16104 0.21626 0.18368
 C373 C 1.15213 0.20633 0.20199
 C374 C 1.16059 0.18641 0.20941
 H375 H 1.22548 0.14956 0.16857
 H376 H 1.18004 0.14943 0.22074
 H377 H 1.22428 0.17830 0.14145
 H378 H 1.17925 0.23080 0.14756
 H379 H 1.15444 0.23149 0.17775
 H380 H 1.15338 0.17837 0.22317
 C381 C 0.67535 1.07336 0.54753
 C382 C 0.65663 1.06569 0.53782
 C383 C 0.64617 1.04720 0.54601
 C384 C 0.65554 1.03514 0.56273
 C385 C 0.67454 1.04234 0.57233
 C386 C 0.68424 1.06181 0.56502
 C387 C 0.68447 1.09317 0.54095
 C388 C 0.70178 1.10230 0.55228
 C389 C 0.71109 1.09020 0.56917
 C390 C 0.70234 1.07016 0.57570
 C391 C 0.71084 1.05879 0.59335
 C392 C 0.70154 1.03914 0.60038
 C393 C 0.68337 1.03105 0.58983
 H394 H 0.64934 1.07486 0.52481
 H395 H 0.64745 1.02080 0.56895
 H396 H 0.67705 1.10227 0.52796
 H397 H 0.72502 1.09656 0.57741
 H398 H 0.72437 1.06548 0.60201
 H399 H 0.67588 1.01619 0.59559
 C400 C 0.54829 0.56731 0.18143
 C401 C 0.54055 0.55976 0.16155
 C402 C 0.54798 0.53997 0.15283
 C403 C 0.56386 0.52814 0.16367
 C404 C 0.57185 0.53554 0.18347
 C405 C 0.56363 0.55486 0.19268
 C406 C 0.54171 0.58755 0.18983
 C407 C 0.54988 0.59517 0.20957
 C408 C 0.56362 0.58167 0.22153
 C409 C 0.57142 0.56221 0.21274
 C410 C 0.58808 0.55093 0.22287
 C411 C 0.59729 0.53261 0.21301
 C412 C 0.58867 0.52456 0.19368
 H413 H 0.52882 0.56924 0.15278
 H414 H 0.57000 0.51321 0.15660
 H415 H 0.53083 0.59770 0.18067
 H416 H 0.56944 0.58717 0.23706
 H417 H 0.59504 0.55738 0.23756
 H418 H 0.59590 0.51046 0.18604
 C419 C 0.68159 0.71029 0.18222
 C420 C 0.66465 0.72029 0.19321
 C421 C 0.65547 0.71016 0.21126
 C422 C 0.66388 0.69033 0.21883
 C423 C 0.68068 0.68006 0.20793
 C424 C 0.68941 0.68990 0.18937
 C425 C 0.69013 0.71983 0.16358
 C426 C 0.70616 0.70916 0.15181
 C427 C 0.71355 0.68862 0.15873
 C428 C 0.70538 0.67895 0.17750
 C429 C 0.71224 0.65814 0.18412
 C430 C 0.70328 0.64816 0.20240
 C431 C 0.68802 0.65952 0.21459
 H432 H 0.65784 0.73536 0.18713
 H433 H 0.65654 0.68239 0.23257
 H434 H 0.68412 0.73545 0.15801
 H435 H 0.72544 0.68007 0.14927
 H436 H 0.72405 0.64940 0.17474
 H437 H 0.68121 0.65185 0.22876
 C438 C 0.17661 0.04258 1.06962
 C439 C 0.15706 0.03451 1.06187
 C440 C 0.14592 0.04570 1.04552
 C441 C 0.15593 0.06349 1.03527
 C442 C 0.17512 0.07196 1.04311
 C443 C 0.18546 0.06162 1.06049
 C444 C 0.18676 0.03264 1.08720
 C445 C 0.20573 0.04140 1.09590
 C446 C 0.21415 0.06070 1.08682
 C447 C 0.20416 0.07087 1.06927
 C448 C 0.21188 0.09079 1.06111
 C449 C 0.20106 0.10144 1.04433
 C450 C 0.18323 0.09155 1.03485
 H451 H 0.14976 0.02060 1.06979
 H452 H 0.14810 0.07153 1.02186
 H453 H 0.17991 0.01793 1.09404
 H454 H 0.22791 0.06848 1.09411
 H455 H 0.22571 0.09847 1.06835
 H456 H 0.17496 0.09987 1.02188
 C457 C 0.57282 0.18111 0.54735
 C458 C 0.59211 0.18890 0.53885
 C459 C 0.60238 0.20693 0.54826
 C460 C 0.59355 0.21692 0.56652
 C461 C 0.57432 0.20935 0.57519
 C462 C 0.56380 0.19147 0.56551
 C463 C 0.56260 0.16289 0.53830
 C464 C 0.54328 0.15517 0.54692
 C465 C 0.53434 0.16564 0.56491
 C466 C 0.54452 0.18363 0.57433
 C467 C 0.53607 0.19353 0.59282
 C468 C 0.54665 0.21116 0.60256
 C469 C 0.56570 0.21905 0.59366
 H470 H 0.59917 0.18102 0.52493
 H471 H 0.60181 0.23051 0.57402
 H472 H 0.56978 0.15447 0.52475
 H473 H 0.51960 0.15949 0.57174
 H474 H 0.52156 0.18722 0.60001
 H475 H 0.57392 0.23253 0.60138
 C476 C 0.07625 0.54486 0.67915
 C477 C 0.09456 0.53607 0.68880
 C478 C 0.10257 0.54494 0.70806
 C479 C 0.09233 0.56298 0.71745
 C480 C 0.07436 0.57227 0.70773
 C481 C 0.06614 0.56312 0.68859
 C482 C 0.06820 0.53610 0.65991
 C483 C 0.04998 0.54512 0.65021
 C484 C 0.04016 0.56345 0.65953
 C485 C 0.04819 0.57261 0.67857
 C486 C 0.03897 0.59147 0.68743
 C487 C 0.04740 0.60081 0.70626
 C488 C 0.06493 0.59103 0.71644
 H489 H 0.10283 0.52257 0.68120
 H490 H 0.09872 0.57005 0.73212
 H491 H 0.07614 0.52236 0.65235
 H492 H 0.02636 0.57067 0.65178
 H493 H 0.02561 0.59925 0.67943
 H494 H 0.07148 0.59838 0.73090
 C495 C 0.67662 0.56982 0.04399
 C496 C 0.65884 0.56124 0.03315
 C497 C 0.64932 0.54172 0.04018
 C498 C 0.65833 0.53020 0.05747
 C499 C 0.67592 0.53867 0.06857
 C500 C 0.68471 0.55888 0.06225
 C501 C 0.68594 0.58954 0.03742
 C502 C 0.70283 0.59880 0.04922
 C503 C 0.70989 0.58851 0.06814
 C504 C 0.70112 0.56848 0.07460
 C505 C 0.70792 0.55827 0.09362
 C506 C 0.69907 0.53817 0.10005
 C507 C 0.68401 0.52790 0.08668
 H508 H 0.65192 0.57007 0.01971
 H509 H 0.65082 0.51527 0.06305
 H510 H 0.67999 0.59782 0.02319
 H511 H 0.72224 0.59614 0.07779
 H512 H 0.71974 0.56618 0.10370
 H513 H 0.67766 0.51206 0.09115
 C514 C 0.04629 0.68141 0.57246
 C515 C 0.03976 0.69040 0.59218
 C516 C 0.05050 0.70847 0.60098
 C517 C 0.06733 0.71816 0.58954
 C518 C 0.07429 0.70917 0.57000
 C519 C 0.06369 0.69079 0.56135
 C520 C 0.03649 0.66255 0.56420
 C521 C 0.04389 0.65303 0.54501
 C522 C 0.06104 0.66253 0.53396
 C523 C 0.07110 0.68120 0.54207
 C524 C 0.08925 0.68963 0.53190
 C525 C 0.10018 0.70734 0.54092
 C526 C 0.09246 0.71740 0.55965
 H527 H 0.02679 0.68293 0.60109
 H528 H 0.07555 0.73213 0.59636
 H529 H 0.02360 0.65482 0.57300
 H530 H 0.06697 0.65489 0.51937
 H531 H 0.09558 0.68176 0.51762
 H532 H 0.10129 0.73086 0.56671
 C533 C 0.54423 1.07076 0.67788
 C534 C 0.53429 1.06194 0.65967
 C535 C 0.54188 1.04258 0.65000
 C536 C 0.55995 1.03227 0.65900
 C537 C 0.56995 1.04081 0.67741
 C538 C 0.56197 1.06006 0.68696
 C539 C 0.53720 1.09062 0.68663
 C540 C 0.54784 1.09997 0.70423
 C541 C 0.56485 1.08879 0.71390
 C542 C 0.57220 1.06908 0.70516
 C543 C 0.59026 1.05885 0.71367
 C544 C 0.59860 1.04001 0.70396
 C545 C 0.58839 1.03100 0.68587
 H546 H 0.52044 1.07017 0.65308
 H547 H 0.56688 1.01817 0.65109
 H548 H 0.52399 1.09927 0.67927
 H549 H 0.57290 1.09600 0.72764
 H550 H 0.59836 1.06596 0.72743
 H551 H 0.59514 1.01672 0.67811
 C552 C 0.42549 0.31861 0.95863
 C553 C 0.43304 0.33873 0.96626
 C554 C 0.45188 0.34806 0.95784
 C555 C 0.46171 0.33790 0.93999
 C556 C 0.45424 0.31782 0.93212
 C557 C 0.43692 0.30753 0.94242
 C558 C 0.40607 0.30992 0.96598
 C559 C 0.39859 0.28984 0.95793
 C560 C 0.41196 0.27729 0.94465
 C561 C 0.43029 0.28662 0.93569
 C562 C 0.44046 0.27655 0.91827
 C563 C 0.45486 0.28846 0.90552
 C564 C 0.46278 0.30850 0.91329
 H565 H 0.42462 0.34670 0.97933
 H566 H 0.47497 0.34586 0.93197
 H567 H 0.39621 0.31934 0.97690
 H568 H 0.40659 0.26141 0.93910
 H569 H 0.43506 0.26063 0.91285
 H570 H 0.47458 0.31741 0.90405
 C571 C 0.92521 0.45551 0.32261
 C572 C 0.93253 0.46447 0.34204
 C573 C 0.94847 0.45390 0.35425
 C574 C 0.95873 0.43553 0.34526
 C575 C 0.95185 0.42662 0.32565
 C576 C 0.93481 0.43641 0.31441
 C577 C 0.90744 0.46443 0.31208
 C578 C 0.89894 0.45417 0.29380
 C579 C 0.90885 0.43555 0.28528
 C580 C 0.92671 0.42652 0.29553
 C581 C 0.93565 0.40691 0.28813
 C582 C 0.95231 0.39697 0.29955
 C583 C 0.96075 0.40715 0.31792
 H584 H 0.92530 0.47937 0.34803
 H585 H 0.97102 0.42708 0.35429
 H586 H 0.89932 0.47849 0.31886
 H587 H 0.90188 0.42746 0.27143
 H588 H 0.92906 0.39884 0.27407
 H589 H 0.97353 0.39926 0.32673
 C590 C 0.32060 0.96421 0.42742
 C591 C 0.31177 0.97483 0.40947
 C592 C 0.29419 0.96582 0.39853
 C593 C 0.28510 0.94632 0.40616
 C594 C 0.29334 0.93587 0.42441
 C595 C 0.31142 0.94458 0.43486
 C596 C 0.33897 0.97241 0.43745
 C597 C 0.34850 0.96125 0.45486
 C598 C 0.33928 0.94149 0.46194
 C599 C 0.32077 0.93322 0.45224
 C600 C 0.31189 0.91336 0.45912
 C601 C 0.29394 0.90467 0.44868
 C602 C 0.28444 0.91624 0.43170
 H603 H 0.31897 0.98979 0.40357
 H604 H 0.27205 0.93883 0.39739
 H605 H 0.34647 0.98698 0.43100
 H606 H 0.34635 0.93264 0.47529
 H607 H 0.31930 0.90426 0.47211
 H608 H 0.27064 0.90939 0.42361
 O609 O 0.19570 0.52997 0.75057
 O610 O 0.20596 0.52900 0.78754
 O611 O 0.24749 0.56237 0.71977
 O612 O 0.28287 0.55833 0.71765
 O613 O 0.22116 0.50459 0.69324
 O614 O 0.22667 0.46636 0.70047
 O615 O 0.31073 0.50634 0.77243
 O616 O 0.30305 0.54394 0.76818
 O617 O 0.26127 0.47741 0.80406
 O618 O 0.22234 0.47666 0.79993
 O619 O 0.28413 0.44931 0.74761
 O620 O 0.27968 0.45645 0.70948
 O621 O 0.31097 0.48079 0.74580
 O622 O 0.29986 0.48161 0.70697
 O623 O 0.26028 0.44794 0.77514
 O624 O 0.22074 0.45432 0.77646
 O625 O 0.28460 0.50586 0.80271
 O626 O 0.27953 0.54486 0.79466
 O627 O 0.19459 0.50227 0.72609
 O628 O 0.20538 0.46436 0.72636
 O629 O 0.24591 0.53170 0.69060
 O630 O 0.28496 0.52976 0.69579
 O631 O 0.22428 0.56199 0.74802
 O632 O 0.22857 0.55398 0.78609
 Zr633 Zr 0.22744 0.53031 0.76134
 O634 O 0.24838 0.51209 0.78078
 Zr635 Zr 0.26180 0.53148 0.72057
 O636 O 0.28463 0.51402 0.73859
 Zr637 Zr 0.22637 0.49126 0.72407
 O638 O 0.24783 0.47163 0.74156
 Zr639 Zr 0.27984 0.51913 0.77174
 O640 O 0.25897 0.53917 0.75364
 Zr641 Zr 0.24480 0.47852 0.77455
 O642 O 0.22165 0.49659 0.75723
 Zr643 Zr 0.27941 0.48042 0.73405
 O644 O 0.25785 0.49797 0.71424
 O645 O 0.23037 0.52461 0.72856
 O646 O 0.27643 0.48554 0.76711
 C647 C 0.18587 0.51778 0.73695
 C648 C 0.23327 0.57127 0.73176
 C649 C 0.23029 0.52036 0.68316
 C650 C 0.31989 0.49151 0.76117
 C651 C 0.27613 0.48931 0.81213
 C652 C 0.27528 0.43966 0.76364
 H653 H 0.24569 0.51556 0.79608
 H654 H 0.24493 0.45609 0.73837
 H655 H 0.22005 0.53342 0.72023
 H656 H 0.29917 0.51846 0.73427
 H657 H 0.29585 0.55645 0.76114
 H658 H 0.29629 0.55437 0.72504
 H659 H 0.22292 0.44395 0.76443
 H660 H 0.20013 0.46420 0.74138
 H661 H 0.26798 0.54200 0.80513
 H662 H 0.24241 0.56156 0.78455
 H663 H 0.26638 0.44787 0.71079
 H664 H 0.23996 0.46831 0.69209
 H665 H 0.20032 0.51390 0.78793
 H666 H 0.22326 0.49040 0.80827
 H667 H 0.28200 0.51633 0.68741
 H668 H 0.30785 0.49550 0.70767
 O669 O 0.25688 -0.02379 0.30258
 O670 O 0.22073 -0.02907 0.29277
 O671 O 0.28615 -0.05712 0.24632
 O672 O 0.28638 -0.05178 0.21071
 O673 O 0.31242 0.00199 0.27233
 O674 O 0.30309 0.04015 0.26693
 O675 O 0.22893 -0.00240 0.18700
 O676 O 0.23561 -0.04058 0.19516
 O677 O 0.19931 0.02464 0.23907
 O678 O 0.20634 0.02268 0.27976
 O679 O 0.25109 0.05560 0.21408
 O680 O 0.29075 0.04966 0.21680
 O681 O 0.25318 0.02521 0.18598
 O682 O 0.29102 0.02710 0.19348
 O683 O 0.22624 0.05544 0.24073
 O684 O 0.22570 0.04839 0.27863
 O685 O 0.20024 -0.00376 0.21548
 O686 O 0.20874 -0.04080 0.21838
 O687 O 0.28195 0.00305 0.30131
 O688 O 0.27972 0.04066 0.29103
 O689 O 0.31441 -0.02446 0.24661
 O690 O 0.30657 -0.02288 0.20794
 O691 O 0.26224 -0.05690 0.27385
 O692 O 0.22383 -0.05279 0.27007
 Zr693 Zr 0.24603 -0.02677 0.27049
 O694 O 0.22448 -0.00953 0.25071
 Zr695 Zr 0.28368 -0.02565 0.23287
 O696 O 0.26377 -0.00843 0.21136
 Zr697 Zr 0.28108 0.01407 0.26928
 O698 O 0.26106 0.03307 0.24956
 Zr699 Zr 0.23168 -0.01541 0.21817
 O700 O 0.25164 -0.03487 0.23797
 Zr701 Zr 0.22910 0.02422 0.25459
 O702 O 0.24891 0.00708 0.27641
 Zr703 Zr 0.26676 0.02532 0.21704
 O704 O 0.28868 0.00812 0.23677
 O705 O 0.27785 -0.01942 0.26526
 O706 O 0.23464 0.01830 0.22204
 C707 C 0.27088 -0.01128 0.31145
 C708 C 0.27723 -0.06595 0.26280
 C709 C 0.32240 -0.01307 0.26201
 C710 C 0.23854 0.01336 0.17739
 C711 C 0.19084 0.01240 0.22463
 C712 C 0.23602 0.06457 0.22494
 H713 H 0.20970 -0.01385 0.25425
 H714 H 0.26357 0.04869 0.25275
 H715 H 0.28708 -0.02769 0.27518
 H716 H 0.26738 -0.01230 0.19633
 H717 H 0.24201 -0.05319 0.20281
 H718 H 0.27746 -0.04814 0.19808
 H719 H 0.23999 0.05475 0.28090
 H720 H 0.26640 0.03900 0.29942
 H721 H 0.20474 -0.04343 0.23354
 H722 H 0.22700 -0.06167 0.25712
 H723 H 0.28787 0.05980 0.22887
 H724 H 0.31088 0.03815 0.25320
 H725 H 0.21639 -0.01388 0.29589
 H726 H 0.19534 0.01183 0.27573
 H727 H 0.31440 -0.00903 0.21033
 H728 H 0.29320 0.01214 0.18796
 O729 O 0.51120 0.69040 0.22775
 O730 O 0.47311 0.69535 0.22903
 O731 O 0.53309 0.74913 0.19816
 O732 O 0.52948 0.78515 0.20393
 O733 O 0.56318 0.72465 0.25455
 O734 O 0.55466 0.72683 0.29256
 O735 O 0.47322 0.80347 0.25624
 O736 O 0.47855 0.79694 0.21823
 O737 O 0.44830 0.74646 0.28156
 O738 O 0.45906 0.70669 0.27873
 O739 O 0.49973 0.77618 0.31122
 O740 O 0.53875 0.77700 0.30432
 O741 O 0.49858 0.80548 0.28236
 O742 O 0.53752 0.80035 0.28156
 O743 O 0.47715 0.74709 0.31136
 O744 O 0.47945 0.70888 0.30330
 O745 O 0.44681 0.77222 0.25521
 O746 O 0.45277 0.76964 0.21953
 O747 O 0.53495 0.69189 0.25524
 O748 O 0.53363 0.70068 0.29260
 O749 O 0.56226 0.75178 0.22945
 O750 O 0.55066 0.78963 0.23166
 O751 O 0.50951 0.72083 0.19768
 O752 O 0.47111 0.71864 0.20542
 Zr753 Zr 0.49571 0.72099 0.22866
 O754 O 0.47349 0.73882 0.24710
 Zr755 Zr 0.53021 0.76220 0.22939
 O756 O 0.50945 0.78174 0.24792
 Zr757 Zr 0.53212 0.72388 0.26740
 O758 O 0.51149 0.74162 0.28755
 Zr759 Zr 0.47774 0.77245 0.24227
 O760 O 0.49826 0.75462 0.22148
 Zr761 Zr 0.47965 0.73409 0.28004
 O762 O 0.50044 0.71418 0.26164
 Zr763 Zr 0.51437 0.77518 0.28079
 O764 O 0.53691 0.75752 0.26232
 O765 O 0.52737 0.72879 0.23467
 O766 O 0.48242 0.76767 0.27517
 C767 C 0.52604 0.68196 0.23942
 C768 C 0.52384 0.73290 0.18889
 C769 C 0.57192 0.73674 0.24010
 C770 C 0.48279 0.81337 0.27175
 C771 C 0.43853 0.76135 0.27080
 C772 C 0.48590 0.76378 0.32031
 H773 H 0.45888 0.73436 0.24303
 H774 H 0.51491 0.73818 0.30272
 H775 H 0.53731 0.72010 0.22575
 H776 H 0.51169 0.79732 0.24442
 H777 H 0.48418 0.78999 0.20499
 H778 H 0.51960 0.79696 0.20822
 H779 H 0.49385 0.70845 0.30972
 H780 H 0.52051 0.69174 0.29162
 H781 H 0.45865 0.76161 0.20710
 H782 H 0.47295 0.73090 0.19520
 H783 H 0.53764 0.76389 0.31356
 H784 H 0.56095 0.74161 0.29131
 H785 H 0.47423 0.68830 0.24334
 H786 H 0.44908 0.70885 0.26658
 H787 H 0.55783 0.78870 0.24583
 H788 H 0.53532 0.80969 0.26875
 O789 O 0.00434 0.69504 0.72207
 O790 O -0.03242 0.70242 0.71850
 O791 O 0.03181 0.75392 0.69506
 O792 O 0.02782 0.79018 0.70150
 O793 O 0.05752 0.72741 0.75232
 O794 O 0.04685 0.72742 0.78936
 O795 O -0.02999 0.80891 0.75085
 O796 O -0.02324 0.80303 0.71342
 O797 O -0.05810 0.75067 0.77272
 O798 O -0.04903 0.71206 0.77142
 O799 O -0.00712 0.77793 0.80724
 O800 O 0.03227 0.77866 0.80175
 O801 O -0.00778 0.80810 0.77981
 O802 O 0.03178 0.80325 0.78024
 O803 O -0.03149 0.75064 0.80446
 O804 O -0.02713 0.71113 0.79455
 O805 O -0.05664 0.77939 0.74950
 O806 O -0.04998 0.77608 0.71316
 O807 O 0.02909 0.69563 0.74893
 O808 O 0.02407 0.70230 0.78686
 O809 O 0.05865 0.75526 0.72806
 O810 O 0.04793 0.79328 0.73032
 O811 O 0.00757 0.72633 0.69243
 O812 O -0.03182 0.72733 0.69720
 Zr813 Zr -0.00874 0.72670 0.72209
 O814 O -0.03129 0.74432 0.74018
 Zr815 Zr 0.02696 0.76651 0.72631
 O816 O 0.00585 0.78606 0.74451
 Zr817 Zr 0.02565 0.72679 0.76289
 O818 O 0.00463 0.74450 0.78272
 Zr819 Zr -0.02573 0.77797 0.73678
 O820 O -0.00469 0.76041 0.71632
 Zr821 Zr -0.02689 0.73808 0.77318
 O822 O -0.00597 0.71835 0.75490
 Zr823 Zr 0.00870 0.77816 0.77735
 O824 O 0.03166 0.76045 0.75940
 O825 O 0.02278 0.73307 0.73020
 O826 O -0.02292 0.77169 0.76965
 C827 C 0.01899 0.68611 0.73353
 C828 C 0.02286 0.73804 0.68491
 C829 C 0.06741 0.73974 0.73884
 C830 C -0.02227 0.81717 0.76819
 C831 C -0.06636 0.76725 0.76319
 C832 C -0.02267 0.76649 0.81467
 H833 H -0.04582 0.74047 0.73528
 H834 H 0.00721 0.74050 0.79792
 H835 H 0.03303 0.72426 0.72175
 H836 H 0.00866 0.80171 0.74174
 H837 H -0.01743 0.79623 0.70020
 H838 H 0.01809 0.80213 0.70576
 H839 H -0.01583 0.71354 0.80542
 H840 H 0.01057 0.69428 0.78445
 H841 H -0.04366 0.76876 0.70052
 H842 H -0.02782 0.73917 0.68712
 H843 H 0.03039 0.76538 0.81063
 H844 H 0.05317 0.74225 0.78969
 H845 H -0.03458 0.69607 0.73298
 H846 H -0.05611 0.71293 0.75723
 H847 H 0.05278 0.79284 0.74548
 H848 H 0.02950 0.81375 0.76835
 O849 O -0.00151 0.05693 0.03328
 O850 O -0.03946 0.04910 0.03089
 O851 O 0.02326 -0.00185 0.06039
 O852 O 0.02791 -0.03762 0.05008
 O853 O 0.05257 0.02947 0.00336
 O854 O 0.04367 0.02826 -0.03401
 O855 O -0.02841 -0.05861 0.00213
 O856 O -0.02666 -0.05177 0.03877
 O857 O -0.06069 -0.00075 -0.02182
 O858 O -0.05321 0.03830 -0.01974
 O859 O -0.00950 -0.02750 -0.05316
 O860 O 0.03124 -0.02223 -0.04830
 O861 O -0.00372 -0.05734 -0.02465
 O862 O 0.03301 -0.04724 -0.02760
 O863 O -0.03309 0.00050 -0.05240
 O864 O -0.03130 0.03973 -0.04287
 O865 O -0.05773 -0.03087 -0.00061
 O866 O -0.05157 -0.02664 0.03987
 O867 O 0.02149 0.05907 0.00498
 O868 O 0.01936 0.05156 -0.03309
 O869 O 0.05350 0.00379 0.02979
 O870 O 0.04750 -0.03586 0.02373
 O871 O -0.00276 0.02391 0.06190
 O872 O -0.03934 0.02444 0.05394
 Zr873 Zr -0.01497 0.02538 0.03046
 O874 O -0.03570 0.00636 0.01155
 Zr875 Zr 0.02351 -0.01190 0.02784
 O876 O 0.00431 -0.03264 0.00891
 Zr877 Zr 0.02119 0.02757 -0.00866
 O878 O 0.00200 0.00858 -0.02939
 Zr879 Zr -0.02817 -0.02691 0.01515
 O880 O -0.00892 -0.00807 0.03617
 Zr881 Zr -0.03012 0.01313 -0.02109
 O882 O -0.01110 0.03410 -0.00209
 Zr883 Zr 0.00773 -0.02481 -0.02392
 O884 O 0.02905 -0.00569 -0.00504
 O885 O 0.01724 0.02109 0.02404
 O886 O -0.02447 -0.02031 -0.01754
 C887 C 0.01243 0.06708 0.02179
 C888 C 0.01183 0.01216 0.07068
 C889 C 0.06191 0.01954 0.01898
 C890 C -0.01772 -0.06748 -0.01322
 C891 C -0.06780 -0.01876 -0.01412
 C892 C -0.02476 -0.01622 -0.06151
 H893 H -0.05061 0.00951 0.01563
 H894 H 0.00479 0.01267 -0.04452
 H895 H 0.02612 0.03011 0.03373
 H896 H 0.00845 -0.04791 0.01200
 H897 H -0.01959 -0.04533 0.05155
 H898 H 0.01574 -0.04770 0.04831
 H899 H -0.01919 0.03827 -0.05296
 H900 H 0.00530 0.05873 -0.03151
 H901 H -0.06353 -0.01716 0.03538
 H902 H -0.04045 0.00902 0.05860
 H903 H 0.02594 -0.01209 -0.05949
 H904 H 0.04990 0.01343 -0.03479
 H905 H -0.03812 0.05759 0.01738
 H906 H -0.06086 0.03691 -0.00587
 H907 H 0.05629 -0.03131 0.01126
 H908 H 0.03680 -0.05217 -0.01294
 O909 O 0.00125 0.55816 0.52915
 O910 O -0.03538 0.54922 0.53201
 O911 O 0.02996 0.50046 0.55698
 O912 O 0.02956 0.46421 0.55002
 O913 O 0.05592 0.52800 0.49869
 O914 O 0.04507 0.52719 0.46190
 O915 O -0.02697 0.44214 0.50237
 O916 O -0.02370 0.44915 0.53862
 O917 O -0.05879 0.49980 0.47846
 O918 O -0.05019 0.53954 0.48059
 O919 O -0.00913 0.47248 0.44580
 O920 O 0.03203 0.47682 0.44969
 O921 O -0.00331 0.44259 0.47463
 O922 O 0.03317 0.45157 0.46913
 O923 O -0.03243 0.50073 0.44706
 O924 O -0.03005 0.53949 0.45577
 O925 O -0.05587 0.47055 0.50085
 O926 O -0.04751 0.47544 0.54091
 O927 O 0.02611 0.55837 0.50238
 O928 O 0.02128 0.55125 0.46429
 O929 O 0.05805 0.50099 0.52378
 O930 O 0.04905 0.46215 0.52241
 O931 O 0.00493 0.52732 0.55891
 O932 O -0.03325 0.52394 0.55418
 Zr933 Zr -0.01063 0.52603 0.52901
 O934 O -0.03251 0.50732 0.51110
 Zr935 Zr 0.02690 0.48798 0.52545
 O936 O 0.00664 0.46742 0.50752
 Zr937 Zr 0.02395 0.52704 0.48843
 O938 O 0.00359 0.50822 0.46874
 Zr939 Zr -0.02546 0.47397 0.51498
 O940 O -0.00500 0.49263 0.53504
 Zr941 Zr -0.02811 0.51349 0.47817
 O942 O -0.00797 0.53425 0.49618
 Zr943 Zr 0.00890 0.47482 0.47448
 O944 O 0.03128 0.49363 0.49227
 O945 O 0.02128 0.52110 0.52126
 O946 O -0.02295 0.48000 0.48204
 C947 C 0.01570 0.56756 0.51777
 C948 C 0.02013 0.51589 0.56694
 C949 C 0.06629 0.51642 0.51243
 C950 C -0.01704 0.43287 0.48673
 C951 C -0.06610 0.48240 0.48723
 C952 C -0.02437 0.48397 0.43777
 H953 H -0.04718 0.51088 0.51569
 H954 H 0.00592 0.51204 0.45346
 H955 H 0.03110 0.53030 0.52984
 H956 H 0.01058 0.45210 0.51063
 H957 H -0.01595 0.45541 0.55109
 H958 H 0.01914 0.45255 0.54675
 H959 H -0.01748 0.53856 0.44620
 H960 H 0.00759 0.55887 0.46684
 H961 H -0.05946 0.48514 0.53686
 H962 H -0.03151 0.50933 0.56079
 H963 H 0.02651 0.48666 0.43833
 H964 H 0.05127 0.51235 0.46109
 H965 H -0.03762 0.55532 0.51744
 H966 H -0.05957 0.53666 0.49309
 H967 H 0.05530 0.46351 0.50787
 H968 H 0.03711 0.44583 0.48344
 O969 O 0.49806 0.06140 0.52863
 O970 O 0.46067 0.05324 0.52739
 O971 O 0.52360 0.00250 0.55634
 O972 O 0.52636 -0.03294 0.54762
 O973 O 0.55287 0.03412 0.50166
 O974 O 0.54564 0.03195 0.46337
 O975 O 0.46939 -0.05269 0.49484
 O976 O 0.47382 -0.04826 0.53256
 O977 O 0.44012 0.00429 0.47292
 O978 O 0.44792 0.04244 0.47322
 O979 O 0.49600 -0.02076 0.44114
 O980 O 0.53316 -0.02049 0.44842
 O981 O 0.49524 -0.05167 0.46921
 O982 O 0.53480 -0.04280 0.47215
 O983 O 0.46846 0.00329 0.44301
 O984 O 0.47153 0.04394 0.45180
 O985 O 0.44104 -0.02383 0.49684
 O986 O 0.44879 -0.02296 0.53535
 O987 O 0.52185 0.06356 0.50105
 O988 O 0.52206 0.05575 0.46335
 O989 O 0.55376 0.00632 0.52603
 O990 O 0.54615 -0.03323 0.51973
 O991 O 0.49840 0.02923 0.55732
 O992 O 0.46073 0.02758 0.54937
 Zr993 Zr 0.48528 0.02965 0.52611
 O994 O 0.46484 0.01117 0.50643
 Zr995 Zr 0.52329 -0.00815 0.52411
 O996 O 0.50416 -0.02863 0.50476
 Zr997 Zr 0.52225 0.03186 0.48790
 O998 O 0.50359 0.01300 0.46666
 Zr999 Zr 0.47175 -0.02222 0.51026
 O1000 O 0.49077 -0.00385 0.53185
 Zr1001 Zr 0.47116 0.01749 0.47381
 O1002 O 0.48972 0.03837 0.49356
 Zr1003 Zr 0.50908 -0.02040 0.47228
 O1004 O 0.52994 -0.00139 0.49155
 O1005 O 0.51750 0.02505 0.52034
 O1006 O 0.47655 -0.01587 0.47762
 C1007 C 0.51171 0.07182 0.51709
 C1008 C 0.51288 0.01737 0.56616
 C1009 C 0.56216 0.02275 0.51632
 C1010 C 0.47968 -0.06110 0.47899
 C1011 C 0.43148 -0.01189 0.48284
 C1012 C 0.47960 -0.01120 0.43316
 H1013 H 0.44994 0.01478 0.51019
 H1014 H 0.50695 0.01714 0.45165
 H1015 H 0.52621 0.03421 0.53007
 H1016 H 0.50752 -0.04413 0.50771
 H1017 H 0.48076 -0.04232 0.54565
 H1018 H 0.51618 -0.04464 0.54381
 H1019 H 0.48198 0.04057 0.44034
 H1020 H 0.50718 0.06094 0.46228
 H1021 H 0.43988 -0.00969 0.53422
 H1022 H 0.46202 0.01301 0.55617
 H1023 H 0.53386 -0.00558 0.44234
 H1024 H 0.55361 0.01806 0.46471
 H1025 H 0.46199 0.06228 0.51424
 H1026 H 0.44341 0.04473 0.48829
 H1027 H 0.55490 -0.02918 0.50707
 H1028 H 0.53196 -0.05397 0.48330
 O1029 O 0.43969 0.50046 -0.01968
 O1030 O 0.44897 0.53820 -0.01930
 O1031 O 0.49284 0.47316 -0.05481
 O1032 O 0.52853 0.47387 -0.05153
 O1033 O 0.47048 0.44142 0.00184
 O1034 O 0.47482 0.44843 0.03971
 O1035 O 0.55438 0.52716 0.00178
 O1036 O 0.54579 0.52406 -0.03532
 O1037 O 0.50420 0.55488 0.03304
 O1038 O 0.46372 0.54835 0.03162
 O1039 O 0.52917 0.49921 0.05772
 O1040 O 0.52602 0.45938 0.04841
 O1041 O 0.55615 0.49951 0.02622
 O1042 O 0.54799 0.46057 0.02577
 O1043 O 0.50257 0.52421 0.06088
 O1044 O 0.46521 0.52600 0.05494
 O1045 O 0.52662 0.55634 0.00428
 O1046 O 0.52146 0.55035 -0.03388
 O1047 O 0.44116 0.47240 0.00429
 O1048 O 0.45134 0.47261 0.04186
 O1049 O 0.49500 0.44161 -0.02519
 O1050 O 0.53273 0.45010 -0.02556
 O1051 O 0.46716 0.49932 -0.05214
 O1052 O 0.47126 0.53783 -0.04393
 Zr1053 Zr 0.47114 0.51231 -0.02097
 O1054 O 0.49127 0.53254 -0.00253
 Zr1055 Zr 0.50790 0.47343 -0.02455
 O1056 O 0.52981 0.49203 -0.00643
 Zr1057 Zr 0.47287 0.47278 0.01564
 O1058 O 0.49321 0.49119 0.03562
 Zr1059 Zr 0.52315 0.52549 -0.01011
 O1060 O 0.50294 0.50698 -0.03047
 Zr1061 Zr 0.48831 0.52468 0.03022
 O1062 O 0.46600 0.50627 0.01208
 Zr1063 Zr 0.52517 0.48597 0.02662
 O1064 O 0.50488 0.46537 0.00828
 O1065 O 0.47610 0.47897 -0.01702
 O1066 O 0.52030 0.51940 0.02288
 C1067 C 0.43111 0.48467 -0.00914
 C1068 C 0.47704 0.48410 -0.06235
 C1069 C 0.48061 0.43220 -0.01371
 C1070 C 0.56435 0.51555 0.01571
 C1071 C 0.51840 0.56439 0.02144
 C1072 C 0.51850 0.51347 0.06842
 H1073 H 0.48769 0.54802 -0.00518
 H1074 H 0.49044 0.48714 0.05078
 H1075 H 0.46622 0.46993 -0.02568
 H1076 H 0.54450 0.48856 -0.01106
 H1077 H 0.53831 0.51820 -0.04814
 H1078 H 0.54159 0.48186 -0.04730
 H1079 H 0.46268 0.51079 0.05955
 H1080 H 0.44294 0.48626 0.04092
 H1081 H 0.50824 0.55880 -0.03157
 H1082 H 0.48450 0.53618 -0.05246
 H1083 H 0.51450 0.46154 0.05907
 H1084 H 0.48879 0.44117 0.03782
 H1085 H 0.44522 0.53971 -0.00390
 H1086 H 0.46745 0.56043 0.02173
 H1087 H 0.53339 0.44354 -0.01104
 H1088 H 0.55519 0.46131 0.01164
 O1089 O 0.77698 0.30836 0.49621
 O1090 O 0.77745 0.30249 0.53397
 O1091 O 0.80675 0.24929 0.47284
 O1092 O 0.80107 0.21324 0.47683
 O1093 O 0.75120 0.27360 0.44194
 O1094 O 0.71392 0.27268 0.45024
 O1095 O 0.74785 0.19592 0.53416
 O1096 O 0.78527 0.20113 0.52914
 O1097 O 0.72273 0.25312 0.55741
 O1098 O 0.72587 0.29276 0.54624
 O1099 O 0.69454 0.22275 0.50536
 O1100 O 0.70221 0.22141 0.46611
 O1101 O 0.72226 0.19399 0.50833
 O1102 O 0.72474 0.19788 0.46843
 O1103 O 0.69424 0.25165 0.52841
 O1104 O 0.70205 0.29021 0.52493
 O1105 O 0.74935 0.22809 0.56020
 O1106 O 0.78687 0.22812 0.55241
 O1107 O 0.75228 0.30612 0.46937
 O1108 O 0.71440 0.29882 0.47242
 O1109 O 0.77639 0.24689 0.44340
 O1110 O 0.77331 0.20867 0.45528
 O1111 O 0.80714 0.27771 0.49656
 O1112 O 0.80016 0.27791 0.53502
 Zr1113 Zr 0.77655 0.27733 0.51069
 O1114 O 0.75754 0.26021 0.53294
 Zr1115 Zr 0.77586 0.23618 0.47578
 O1116 O 0.75728 0.21691 0.49686
 Zr1117 Zr 0.73868 0.27487 0.47326
 O1118 O 0.71821 0.25720 0.49366
 Zr1119 Zr 0.76238 0.22650 0.52896
 O1120 O 0.78330 0.24372 0.50816
 Zr1121 Zr 0.72511 0.26505 0.52582
 O1122 O 0.74409 0.28463 0.50530
 Zr1123 Zr 0.72490 0.22359 0.49127
 O1124 O 0.74344 0.24113 0.46859
 O1125 O 0.77089 0.26959 0.47864
 O1126 O 0.72998 0.23147 0.52351
 C1127 C 0.76663 0.31635 0.48020
 C1128 C 0.81583 0.26564 0.48206
 C1129 C 0.76582 0.26177 0.43336
 C1130 C 0.73217 0.18631 0.52478
 C1131 C 0.73360 0.23898 0.56797
 C1132 C 0.68549 0.23499 0.51940
 H1133 H 0.76108 0.26514 0.54767
 H1134 H 0.70326 0.26058 0.48989
 H1135 H 0.77982 0.27825 0.46867
 H1136 H 0.76063 0.20125 0.49492
 H1137 H 0.79806 0.20685 0.52168
 H1138 H 0.79640 0.20103 0.48614
 H1139 H 0.69597 0.29032 0.51026
 H1140 H 0.71654 0.30829 0.48518
 H1141 H 0.78789 0.24343 0.55731
 H1142 H 0.80830 0.26411 0.53375
 H1143 H 0.69292 0.23444 0.46697
 H1144 H 0.71436 0.25762 0.44446
 H1145 H 0.76281 0.30842 0.53480
 H1146 H 0.73704 0.29036 0.55725
 H1147 H 0.75919 0.20962 0.44823
 H1148 H 0.73669 0.18793 0.47186
 O1149 O 0.77597 0.80703 -0.00693
 O1150 O 0.77313 0.80274 0.03221
 O1151 O 0.80699 0.74830 -0.02604
 O1152 O 0.80130 0.71223 -0.02260
 O1153 O 0.75038 0.77022 -0.05946
 O1154 O 0.71277 0.76961 -0.05084
 O1155 O 0.74851 0.69400 0.03258
 O1156 O 0.78674 0.70189 0.02824
 O1157 O 0.72258 0.75209 0.05696
 O1158 O 0.72366 0.79080 0.04520
 O1159 O 0.69437 0.72011 0.00436
 O1160 O 0.70237 0.71907 -0.03508
 O1161 O 0.72314 0.69162 0.00651
 O1162 O 0.72503 0.69598 -0.03269
 O1163 O 0.69395 0.74837 0.02820
 O1164 O 0.70055 0.78779 0.02284
 O1165 O 0.74858 0.72633 0.05933
 O1166 O 0.78492 0.72691 0.05318
 O1167 O 0.75035 0.80417 -0.03271
 O1168 O 0.71308 0.79616 -0.02967
 O1169 O 0.77772 0.74594 -0.05638
 O1170 O 0.77422 0.70773 -0.04526
 O1171 O 0.80570 0.77788 -0.00380
 O1172 O 0.79806 0.77981 0.03429
 Zr1173 Zr 0.77494 0.77692 0.00965
 O1174 O 0.75659 0.75905 0.03193
 Zr1175 Zr 0.77599 0.73502 -0.02434
 O1176 O 0.75732 0.71547 -0.00373
 Zr1177 Zr 0.73767 0.77262 -0.02810
 O1178 O 0.71747 0.75490 -0.00742
 Zr1179 Zr 0.76198 0.72534 0.02828
 O1180 O 0.78269 0.74341 0.00793
 Zr1181 Zr 0.72408 0.76308 0.02481
 O1182 O 0.74242 0.78303 0.00390
 Zr1183 Zr 0.72483 0.72154 -0.00972
 O1184 O 0.74351 0.73904 -0.03223
 O1185 O 0.76994 0.76826 -0.02223
 O1186 O 0.72951 0.72954 0.02261
 C1187 C 0.76563 0.81443 -0.02331
 C1188 C 0.81526 0.76538 -0.01732
 C1189 C 0.76633 0.75955 -0.06714
 C1190 C 0.73358 0.68380 0.02249
 C1191 C 0.73343 0.73781 0.06747
 C1192 C 0.68543 0.73176 0.01896
 H1193 H 0.76014 0.76399 0.04666
 H1194 H 0.70246 0.75784 -0.01127
 H1195 H 0.77894 0.77672 -0.03228
 H1196 H 0.76107 0.69992 -0.00570
 H1197 H 0.79940 0.70893 0.02170
 H1198 H 0.79643 0.69983 -0.01364
 H1199 H 0.69183 0.78496 0.00986
 H1200 H 0.71357 0.80435 -0.01593
 H1201 H 0.78928 0.74236 0.05437
 H1202 H 0.80703 0.76651 0.03362
 H1203 H 0.69209 0.73123 -0.03358
 H1204 H 0.71324 0.75436 -0.05609
 H1205 H 0.75941 0.81027 0.02960
 H1206 H 0.73659 0.79027 0.05431
 H1207 H 0.76086 0.70924 -0.05363
 H1208 H 0.73822 0.68741 -0.03051
 O1209 O 1.06339 0.22480 0.25096
 O1210 O 1.05532 0.22342 0.28871
 O1211 O 1.00927 0.19118 0.22402
 O1212 O 0.97368 0.19472 0.22589
 O1213 O 1.03122 0.25059 0.19555
 O1214 O 1.02742 0.28857 0.20489
 O1215 O 0.94942 0.24698 0.28178
 O1216 O 0.95783 0.20860 0.27648
 O1217 O 1.00336 0.27378 0.31110
 O1218 O 1.04041 0.27687 0.30263
 O1219 O 0.97435 0.30392 0.25645
 O1220 O 0.97701 0.29663 0.21672
 O1221 O 0.94747 0.27298 0.25565
 O1222 O 0.95480 0.27328 0.21706
 O1223 O 0.99919 0.30410 0.28317
 O1224 O 1.03963 0.29891 0.27884
 O1225 O 0.97807 0.24718 0.31009
 O1226 O 0.98275 0.21111 0.30417
 O1227 O 1.06131 0.25127 0.22530
 O1228 O 1.05148 0.28906 0.22853
 O1229 O 1.00627 0.22352 0.19477
 O1230 O 0.96877 0.22217 0.20444
 O1231 O 1.03604 0.19249 0.24878
 O1232 O 1.03329 0.19885 0.28812
 Zr1233 Zr 1.03233 0.22311 0.26384
 O1234 O 1.01273 0.24074 0.28520
 Zr1235 Zr 0.99444 0.22195 0.22655
 O1236 O 0.97311 0.23952 0.24629
 Zr1237 Zr 1.02974 0.26269 0.22731
 O1238 O 1.00998 0.28201 0.24704
 Zr1239 Zr 0.98047 0.23413 0.27887
 O1240 O 1.00016 0.21408 0.25918
 Zr1241 Zr 1.01578 0.27442 0.27953
 O1242 O 1.03748 0.25689 0.25988
 Zr1243 Zr 0.97802 0.27321 0.24181
 O1244 O 0.99763 0.25562 0.22021
 O1245 O 1.02640 0.22923 0.23149
 O1246 O 0.98362 0.26767 0.27448
 C1247 C 1.07151 0.23653 0.23586
 C1248 C 1.02547 0.18294 0.23375
 C1249 C 1.02053 0.23561 0.18583
 C1250 C 0.93950 0.26193 0.27124
 C1251 C 0.98850 0.26232 0.31982
 C1252 C 0.98366 0.31269 0.27268
 H1253 H 1.01653 0.23674 0.30017
 H1254 H 1.01254 0.29763 0.24395
 H1255 H 1.03589 0.22101 0.22171
 H1256 H 0.95828 0.23513 0.24304
 H1257 H 0.96565 0.19545 0.27158
 H1258 H 0.96153 0.19814 0.23545
 H1259 H 1.03514 0.31033 0.26852
 H1260 H 1.05841 0.28839 0.24284
 H1261 H 0.99208 0.19927 0.29891
 H1262 H 1.02252 0.18765 0.28439
 H1263 H 0.98833 0.30754 0.21946
 H1264 H 1.01343 0.28698 0.19767
 H1265 H 1.06135 0.23834 0.28893
 H1266 H 1.04252 0.26208 0.30862
 H1267 H 0.96834 0.23700 0.19817
 H1268 H 0.94670 0.25946 0.21811
 O1269 O 0.74286 1.05482 0.71661
 O1270 O 0.78103 1.04990 0.71919
 O1271 O 0.72028 0.99416 0.69386
 O1272 O 0.72331 0.95874 0.70341
 O1273 O 0.69049 1.02535 0.74681
 O1274 O 0.69860 1.02775 0.78488
 O1275 O 0.77904 0.94562 0.75805
 O1276 O 0.77416 0.94721 0.72011
 O1277 O 0.80487 1.00495 0.77676
 O1278 O 0.79577 1.04264 0.77270
 O1279 O 0.75067 0.98008 0.80997
 O1280 O 0.71306 0.97688 0.80203
 O1281 O 0.75404 0.94726 0.78449
 O1282 O 0.71433 0.95204 0.78140
 O1283 O 0.77653 1.00586 0.80635
 O1284 O 0.77140 1.04525 0.79383
 O1285 O 0.80532 0.97548 0.75445
 O1286 O 0.79781 0.97374 0.71565
 O1287 O 0.71798 1.05651 0.74323
 O1288 O 0.72142 1.05308 0.78190
 O1289 O 0.69104 0.99592 0.72436
 O1290 O 0.70134 0.95810 0.73143
 O1291 O 0.74573 1.02049 0.69035
 O1292 O 0.78304 1.02335 0.69856
 Zr1293 Zr 0.75825 1.02453 0.72155
 O1294 O 0.77986 1.00865 0.74221
 Zr1295 Zr 0.72268 0.98438 0.72628
 O1296 O 0.74292 0.96659 0.74698
 Zr1297 Zr 0.72140 1.02678 0.75981
 O1298 O 0.74125 1.01081 0.78214
 Zr1299 Zr 0.77482 0.97473 0.74071
 O1300 O 0.75481 0.99043 0.71805
 Zr1301 Zr 0.77336 1.01690 0.77438
 O1302 O 0.75339 1.03513 0.75344
 Zr1303 Zr 0.73776 0.97683 0.77888
 O1304 O 0.71576 0.99292 0.75842
 O1305 O 0.72643 1.01801 0.72791
 O1306 O 0.76986 0.98310 0.77288
 C1307 C 0.72735 1.06427 0.72649
 C1308 C 0.73076 1.00834 0.68282
 C1309 C 0.68167 1.01225 0.73330
 C1310 C 0.76982 0.93803 0.77493
 C1311 C 0.81416 0.98845 0.76799
 C1312 C 0.76606 0.99172 0.81738
 H1313 H 0.79457 1.01274 0.73816
 H1314 H 0.73759 1.01586 0.79680
 H1315 H 0.71679 1.02561 0.71776
 H1316 H 0.74054 0.95073 0.74518
 H1317 H 0.76702 0.95189 0.70664
 H1318 H 0.73175 0.94665 0.70965
 H1319 H 0.76031 1.04271 0.80488
 H1320 H 0.73492 1.06112 0.77962
 H1321 H 0.80685 0.98694 0.71669
 H1322 H 0.78423 1.00789 0.69409
 H1323 H 0.71140 0.99211 0.80703
 H1324 H 0.69099 1.01358 0.78460
 H1325 H 0.77888 1.05949 0.73185
 H1326 H 0.80046 1.04362 0.75754
 H1327 H 0.69473 0.96053 0.74569
 H1328 H 0.71772 0.94054 0.77074
 O1329 O 0.74400 0.55214 0.21783
 O1330 O 0.78151 0.54554 0.21585
 O1331 O 0.71970 0.49022 0.19382
 O1332 O 0.71948 0.45539 0.20381
 O1333 O 0.69220 0.52047 0.25228
 O1334 O 0.70432 0.52310 0.28834
 O1335 O 0.77975 0.43957 0.24987
 O1336 O 0.77435 0.44449 0.21335
 O1337 O 0.80844 0.49831 0.27147
 O1338 O 0.79891 0.53816 0.26568
 O1339 O 0.76053 0.47251 0.30594
 O1340 O 0.71957 0.47296 0.30211
 O1341 O 0.75674 0.44016 0.27821
 O1342 O 0.72029 0.44653 0.28366
 O1343 O 0.78238 0.50185 0.30260
 O1344 O 0.77913 0.53935 0.29113
 O1345 O 0.80681 0.46898 0.24902
 O1346 O 0.79713 0.47178 0.20909
 O1347 O 0.72024 0.55259 0.24558
 O1348 O 0.72682 0.54784 0.28391
 O1349 O 0.69165 0.49389 0.22665
 O1350 O 0.70146 0.45507 0.23267
 O1351 O 0.74184 0.51930 0.19012
 O1352 O 0.78017 0.51935 0.19399
 Zr1353 Zr 0.75815 0.52096 0.21971
 O1354 O 0.78145 0.50426 0.23786
 Zr1355 Zr 0.72281 0.48110 0.22632
 O1356 O 0.74450 0.46257 0.24451
 Zr1357 Zr 0.72457 0.52223 0.26115
 O1358 O 0.74632 0.50547 0.28106
 Zr1359 Zr 0.77597 0.47046 0.23576
 O1360 O 0.75412 0.48701 0.21552
 Zr1361 Zr 0.77757 0.51179 0.27060
 O1362 O 0.75591 0.53061 0.25220
 Zr1363 Zr 0.74256 0.47154 0.27717
 O1364 O 0.71882 0.48832 0.25923
 O1365 O 0.72680 0.51467 0.22860
 O1366 O 0.77390 0.47796 0.26848
 C1367 C 0.72929 0.56132 0.22907
 C1368 C 0.72748 0.50615 0.18293
 C1369 C 0.68265 0.50871 0.23812
 C1370 C 0.77070 0.43066 0.26619
 C1371 C 0.81643 0.48115 0.26276
 C1372 C 0.77496 0.48556 0.31317
 H1373 H 0.79584 0.50821 0.23273
 H1374 H 0.74408 0.51007 0.29616
 H1375 H 0.71646 0.52279 0.21961
 H1376 H 0.74129 0.44692 0.24225
 H1377 H 0.76583 0.44981 0.20098
 H1378 H 0.73088 0.44469 0.20689
 H1379 H 0.76636 0.53903 0.30046
 H1380 H 0.73968 0.55640 0.28013
 H1381 H 0.80881 0.48212 0.21239
 H1382 H 0.77962 0.50420 0.18844
 H1383 H 0.72375 0.48477 0.31214
 H1384 H 0.69927 0.50796 0.29058
 H1385 H 0.78247 0.55327 0.22982
 H1386 H 0.80862 0.53427 0.25373
 H1387 H 0.69304 0.45920 0.24553
 H1388 H 0.71483 0.44163 0.26955
 O1389 O 0.50490 0.19329 0.72297
 O1390 O 0.46670 0.19851 0.72386
 O1391 O 0.52759 0.25341 0.69680
 O1392 O 0.52429 0.28922 0.70448
 O1393 O 0.55704 0.22654 0.75327
 O1394 O 0.54676 0.22545 0.79084
 O1395 O 0.46657 0.30456 0.75616
 O1396 O 0.47352 0.30047 0.71802
 O1397 O 0.44105 0.24682 0.77740
 O1398 O 0.45222 0.20688 0.77343
 O1399 O 0.49174 0.27453 0.81037
 O1400 O 0.53086 0.27589 0.80454
 O1401 O 0.49147 0.30536 0.78279
 O1402 O 0.53041 0.30012 0.78282
 O1403 O 0.46937 0.24552 0.80845
 O1404 O 0.47159 0.20834 0.79893
 O1405 O 0.44004 0.27290 0.75130
 O1406 O 0.44907 0.27499 0.71510
 O1407 O 0.52984 0.19402 0.74965
 O1408 O 0.52517 0.19934 0.78785
 O1409 O 0.55598 0.25346 0.72803
 O1410 O 0.54541 0.29142 0.73328
 O1411 O 0.50348 0.22564 0.69432
 O1412 O 0.46606 0.22280 0.70076
 Zr1413 Zr 0.48962 0.22383 0.72509
 O1414 O 0.46707 0.24071 0.74375
 Zr1415 Zr 0.52431 0.26479 0.72863
 O1416 O 0.50318 0.28343 0.74758
 Zr1417 Zr 0.52536 0.22456 0.76457
 O1418 O 0.50422 0.24131 0.78510
 Zr1419 Zr 0.47165 0.27455 0.74049
 O1420 O 0.49259 0.25769 0.71958
 Zr1421 Zr 0.47250 0.23436 0.77654
 O1422 O 0.49372 0.21531 0.75771
 Zr1423 Zr 0.50719 0.27515 0.78023
 O1424 O 0.53023 0.25842 0.76144
 O1425 O 0.52117 0.23123 0.73208
 O1426 O 0.47534 0.26815 0.77333
 C1427 C 0.52034 0.18482 0.73370
 C1428 C 0.51798 0.23811 0.68645
 C1429 C 0.56579 0.23858 0.73875
 C1430 C 0.47583 0.31368 0.77228
 C1431 C 0.43131 0.26133 0.76608
 C1432 C 0.47759 0.26178 0.81852
 H1433 H 0.45264 0.23618 0.73920
 H1434 H 0.50729 0.23712 0.80016
 H1435 H 0.53125 0.22318 0.72276
 H1436 H 0.50554 0.29917 0.74496
 H1437 H 0.48085 0.29466 0.70509
 H1438 H 0.51581 0.30168 0.70990
 H1439 H 0.48578 0.20763 0.80585
 H1440 H 0.51209 0.19067 0.78529
 H1441 H 0.44435 0.25979 0.71269
 H1442 H 0.46594 0.23741 0.69394
 H1443 H 0.52921 0.26261 0.81346
 H1444 H 0.55199 0.24068 0.79175
 H1445 H 0.46781 0.19044 0.73764
 H1446 H 0.44210 0.20980 0.76155
 H1447 H 0.55273 0.28899 0.74720
 H1448 H 0.52894 0.30975 0.77012
 O1449 O 0.25197 0.77593 0.43624
 O1450 O 0.21434 0.77426 0.44157
 O1451 O 0.27202 0.81227 0.49239
 O1452 O 0.26939 0.80861 0.52833
 O1453 O 0.30614 0.75483 0.47296
 O1454 O 0.29944 0.71632 0.47665
 O1455 O 0.21493 0.75559 0.54951
 O1456 O 0.21793 0.79271 0.54014
 O1457 O 0.19295 0.72222 0.49605
 O1458 O 0.20290 0.72344 0.45628
 O1459 O 0.24596 0.69720 0.52571
 O1460 O 0.28233 0.70724 0.53008
 O1461 O 0.23934 0.72848 0.55274
 O1462 O 0.28011 0.73355 0.54907
 O1463 O 0.22258 0.69473 0.49782
 O1464 O 0.22602 0.70065 0.45939
 O1465 O 0.18931 0.75147 0.51840
 O1466 O 0.19527 0.79070 0.51325
 O1467 O 0.27897 0.75147 0.44062
 O1468 O 0.27750 0.71341 0.45140
 O1469 O 0.30301 0.78312 0.49654
 O1470 O 0.29177 0.78149 0.53448
 O1471 O 0.24945 0.80904 0.46380
 O1472 O 0.21197 0.80011 0.46366
 Zr1473 Zr 0.23703 0.77721 0.46658
 O1474 O 0.21557 0.75863 0.48507
 Zr1475 Zr 0.27120 0.78138 0.50741
 O1476 O 0.25097 0.76315 0.52783
 Zr1477 Zr 0.27560 0.74040 0.47258
 O1478 O 0.25589 0.72028 0.49147
 Zr1479 Zr 0.21925 0.76668 0.51776
 O1480 O 0.23910 0.78717 0.49903
 Zr1481 Zr 0.22381 0.72547 0.48302
 O1482 O 0.24376 0.74378 0.46230
 Zr1483 Zr 0.25747 0.72965 0.52404
 O1484 O 0.27952 0.74804 0.50540
 O1485 O 0.26889 0.77347 0.47496
 O1486 O 0.22561 0.73328 0.51566
 C1487 C 0.26838 0.76543 0.42943
 C1488 C 0.26312 0.81965 0.47516
 C1489 C 0.31359 0.77159 0.48293
 C1490 C 0.22353 0.73978 0.55993
 C1491 C 0.18245 0.73388 0.50959
 C1492 C 0.23243 0.68664 0.51407
 H1493 H 0.20087 0.76118 0.47997
 H1494 H 0.26042 0.70496 0.48934
 H1495 H 0.27838 0.78242 0.46581
 H1496 H 0.25271 0.76796 0.54292
 H1497 H 0.22512 0.80535 0.53332
 H1498 H 0.26020 0.80443 0.54060
 H1499 H 0.23966 0.69290 0.46173
 H1500 H 0.26451 0.71382 0.44234
 H1501 H 0.18756 0.78742 0.49973
 H1502 H 0.21169 0.80852 0.47728
 H1503 H 0.28703 0.70182 0.51587
 H1504 H 0.30653 0.71938 0.49058
 H1505 H 0.21513 0.75897 0.43647
 H1506 H 0.19135 0.73424 0.45832
 H1507 H 0.30018 0.76782 0.53388
 H1508 H 0.27465 0.74469 0.55921
 O1509 O 0.24675 0.27759 0.93457
 O1510 O 0.20871 0.27503 0.94197
 O1511 O 0.27216 0.30926 0.98826
 O1512 O 0.27194 0.30496 1.02445
 O1513 O 0.30162 0.24867 0.96672
 O1514 O 0.29108 0.21112 0.96710
 O1515 O 0.21730 0.25133 1.04919
 O1516 O 0.22178 0.28954 1.04210
 O1517 O 0.18735 0.22571 0.99466
 O1518 O 0.19775 0.22413 0.95516
 O1519 O 0.24256 0.19562 1.02299
 O1520 O 0.28198 0.20355 1.01900
 O1521 O 0.24410 0.22630 1.05042
 O1522 O 0.28147 0.22624 1.04228
 O1523 O 0.21554 0.19531 0.99854
 O1524 O 0.21707 0.19808 0.96082
 O1525 O 0.18862 0.25178 1.02071
 O1526 O 0.19655 0.29054 1.01732
 O1527 O 0.27273 0.25164 0.93566
 O1528 O 0.26788 0.21306 0.94313
 O1529 O 0.30169 0.27800 0.98910
 O1530 O 0.29405 0.27690 1.02780
 O1531 O 0.24522 0.30872 0.96378
 O1532 O 0.20809 0.30009 0.96502
 Zr1533 Zr 0.23294 0.27678 0.96561
 O1534 O 0.21240 0.25866 0.98563
 Zr1535 Zr 0.27090 0.27813 1.00297
 O1536 O 0.25199 0.26005 1.02468
 Zr1537 Zr 0.26981 0.23790 0.96673
 O1538 O 0.25095 0.21805 0.98685
 Zr1539 Zr 0.21947 0.26508 1.01814
 O1540 O 0.23835 0.28543 0.99808
 Zr1541 Zr 0.21855 0.22515 0.98194
 O1542 O 0.23737 0.24313 0.95972
 Zr1543 Zr 0.25671 0.22649 1.01914
 O1544 O 0.27749 0.24458 0.99911
 O1545 O 0.26510 0.27117 0.97097
 O1546 O 0.22415 0.23164 1.01439
 C1547 C 0.26240 0.26702 0.92617
 C1548 C 0.26098 0.31813 0.97317
 C1549 C 0.31084 0.26506 0.97559
 C1550 C 0.22844 0.23668 1.05887
 C1551 C 0.17883 0.23691 1.00992
 C1552 C 0.22638 0.18672 1.01393
 H1553 H 0.19753 0.26235 0.98185
 H1554 H 0.25406 0.20248 0.98404
 H1555 H 0.27442 0.28019 0.96188
 H1556 H 0.25549 0.26423 1.03966
 H1557 H 0.22876 0.30229 1.03527
 H1558 H 0.26432 0.30060 1.03772
 H1559 H 0.23186 0.19465 0.95652
 H1560 H 0.25454 0.21561 0.93496
 H1561 H 0.18769 0.28861 1.00429
 H1562 H 0.20858 0.30779 0.97904
 H1563 H 0.27846 0.19198 1.00845
 H1564 H 0.29812 0.21128 0.98136
 H1565 H 0.21100 0.26129 0.93387
 H1566 H 0.18995 0.23814 0.95495
 H1567 H 0.30215 0.26316 1.02584
 H1568 H 0.28213 0.24099 1.04870
 C1569 C 0.26723 0.40099 0.77141
 C1570 C 0.27292 0.37983 0.77731
 C1571 C 0.29418 0.37442 0.78178
 C1572 C 0.31006 0.39095 0.78036
 C1573 C 0.30435 0.41235 0.77356
 C1574 C 0.28265 0.41739 0.76927
 C1575 C 0.32051 0.42827 0.77236
 N1576 N 0.34080 0.42320 0.77792
 N1577 N 0.34605 0.40334 0.78480
 C1578 C 0.33140 0.38714 0.78640
 H1579 H 0.25059 0.40457 0.76832
 H1580 H 0.26054 0.36754 0.77849
 H1581 H 0.31719 0.44482 0.76764
 H1582 H 0.33660 0.37163 0.79278
 C1583 C 0.26957 -0.10328 0.27600
 C1584 C 0.27546 -0.12395 0.28327
 C1585 C 0.29703 -0.13005 0.28508
 C1586 C 0.31293 -0.11396 0.28055
 C1587 C 0.30688 -0.09318 0.27220
 C1588 C 0.28489 -0.08782 0.26992
 C1589 C 0.32318 -0.07807 0.26754
 N1590 N 0.34380 -0.08294 0.27184
 N1591 N 0.34932 -0.10175 0.28091
 C1592 C 0.33463 -0.11718 0.28577
 H1593 H 0.25275 -0.09948 0.27467
 H1594 H 0.26286 -0.13555 0.28669
 H1595 H 0.31993 -0.06216 0.26115
 H1596 H 0.34012 -0.13147 0.29431
 C1597 C 0.78254 0.90045 0.76903
 C1598 C 0.79039 0.88043 0.77594
 C1599 C 0.79384 0.87612 0.79791
 C1600 C 0.79038 0.89328 0.81310
 C1601 C 0.78233 0.91377 0.80594
 C1602 C 0.77798 0.91714 0.78371
 C1603 C 0.78007 0.93062 0.82120
 N1604 N 0.78548 0.92726 0.84205
 N1605 N 0.79347 0.90832 0.84869
 C1606 C 0.79641 0.89139 0.83495
 H1607 H 0.77967 0.90281 0.75197
 H1608 H 0.79295 0.86785 0.76392
 H1609 H 0.77471 0.94664 0.81674
 H1610 H 0.80411 0.87698 0.84123
 C1611 C 0.48998 0.85259 0.27810
 C1612 C 0.48376 0.87372 0.28365
 C1613 C 0.46260 0.87829 0.28932
 C1614 C 0.44753 0.86100 0.29000
 C1615 C 0.45384 0.83953 0.28414
 C1616 C 0.47521 0.83540 0.27789
 C1617 C 0.43864 0.82272 0.28555
 N1618 N 0.41852 0.82716 0.29218
 N1619 N 0.41261 0.84725 0.29777
 C1620 C 0.42642 0.86426 0.29705
 H1621 H 0.50644 0.84966 0.27366
 H1622 H 0.49551 0.88669 0.28336
 H1623 H 0.44266 0.80605 0.28184
 H1624 H 0.42080 0.88006 0.30234
 C1625 C -0.03160 0.85606 0.76157
 C1626 C -0.03882 0.87649 0.76842
 C1627 C -0.04528 0.87991 0.78986
 C1628 C -0.04649 0.86161 0.80399
 C1629 C -0.03952 0.84080 0.79680
 C1630 C -0.03110 0.83828 0.77574
 C1631 C -0.04229 0.82282 0.81057
 N1632 N -0.05111 0.82551 0.83030
 N1633 N -0.05780 0.84493 0.83707
 C1634 C -0.05608 0.86296 0.82455
 H1635 H -0.02585 0.85425 0.74521
 H1636 H -0.03829 0.88999 0.75714
 H1637 H -0.03833 0.80652 0.80551
 H1638 H -0.06293 0.87792 0.83060
 C1639 C -0.04405 -0.09718 -0.01781
 C1640 C -0.05035 -0.11769 -0.02501
 C1641 C -0.03537 -0.13316 -0.03198
 C1642 C -0.01334 -0.12790 -0.03044
 C1643 C -0.00697 -0.10658 -0.02380
 C1644 C -0.02263 -0.09073 -0.01836
 C1645 C 0.01496 -0.10229 -0.02175
 N1646 N 0.02942 -0.11807 -0.02630
 N1647 N 0.02347 -0.13799 -0.03246
 C1648 C 0.00264 -0.14349 -0.03449
 H1649 H -0.05625 -0.08593 -0.01245
 H1650 H -0.06726 -0.12126 -0.02560
 H1651 H 0.02077 -0.08689 -0.01581
 H1652 H -0.00115 -0.16017 -0.03870
 C1653 C -0.04380 0.40340 0.48355
 C1654 C -0.05059 0.38302 0.47646
 C1655 C -0.03612 0.36746 0.46832
 C1656 C -0.01387 0.37239 0.46968
 C1657 C -0.00710 0.39361 0.47626
 C1658 C -0.02241 0.40964 0.48206
 C1659 C 0.01488 0.39757 0.47828
 N1660 N 0.02912 0.38150 0.47409
 N1661 N 0.02287 0.36154 0.46847
 C1662 C 0.00196 0.35634 0.46649
 H1663 H -0.05567 0.41480 0.48933
 H1664 H -0.06762 0.38016 0.47616
 H1665 H 0.02089 0.41288 0.48419
 H1666 H -0.00197 0.33949 0.46328
 C1667 C 0.46876 -0.09898 0.48742
 C1668 C 0.46220 -0.11995 0.48181
 C1669 C 0.45974 -0.12608 0.46013
 C1670 C 0.46259 -0.10984 0.44385
 C1671 C 0.46959 -0.08853 0.44964
 C1672 C 0.47303 -0.08319 0.47166
 C1673 C 0.47171 -0.07287 0.43319
 N1674 N 0.46684 -0.07798 0.41254
 N1675 N 0.45951 -0.09761 0.40720
 C1676 C 0.45689 -0.11353 0.42210
 H1677 H 0.47088 -0.09513 0.50433
 H1678 H 0.45982 -0.13175 0.49460
 H1679 H 0.47653 -0.05644 0.43649
 H1680 H 0.44966 -0.12858 0.41678
 C1681 C 0.45263 0.40534 -0.02244
 C1682 C 0.44554 0.38494 -0.02924
 C1683 C 0.45996 0.36791 -0.03366
 C1684 C 0.48208 0.37150 -0.02943
 C1685 C 0.48920 0.39243 -0.02247
 C1686 C 0.47433 0.40961 -0.01953
 C1687 C 0.51092 0.39516 -0.01757
 N1688 N 0.52459 0.37814 -0.01941
 N1689 N 0.51794 0.35844 -0.02546
 C1690 C 0.49722 0.35445 -0.03022
 H1691 H 0.44102 0.41818 -0.02010
 H1692 H 0.42863 0.38295 -0.03219
 H1693 H 0.51706 0.41041 -0.01157
 H1694 H 0.49279 0.33781 -0.03383
 C1695 C 0.78207 0.34095 0.45307
 C1696 C 0.78938 0.36124 0.44621
 C1697 C 0.78734 0.37967 0.45942
 C1698 C 0.77705 0.37772 0.47966
 C1699 C 0.76956 0.35703 0.48660
 C1700 C 0.77239 0.33853 0.47322
 C1701 C 0.75918 0.35562 0.50662
 N1702 N 0.75661 0.37380 0.51883
 N1703 N 0.76362 0.39325 0.51232
 C1704 C 0.77368 0.39586 0.49315
 H1705 H 0.78470 0.32687 0.44290
 H1706 H 0.79728 0.36247 0.43073
 H1707 H 0.75284 0.34034 0.51252
 H1708 H 0.77871 0.41210 0.48856
 C1709 C 0.77792 0.85235 -0.01782
 C1710 C 0.78598 0.87226 -0.02491
 C1711 C 0.78890 0.87661 -0.04696
 C1712 C 0.78445 0.85968 -0.06210
 C1713 C 0.77625 0.83926 -0.05479
 C1714 C 0.77265 0.83575 -0.03237
 C1715 C 0.77336 0.82255 -0.07014
 N1716 N 0.77824 0.82597 -0.09112
 N1717 N 0.78629 0.84484 -0.09787
 C1718 C 0.78984 0.86163 -0.08412
 H1719 H 0.77576 0.84990 -0.00067
 H1720 H 0.78938 0.88469 -0.01295
 H1721 H 0.76794 0.80656 -0.06578
 H1722 H 0.79755 0.87596 -0.09056
 C1723 C 0.77501 0.28970 0.40658
 C1724 C 0.78319 0.29661 0.38696
 C1725 C 0.78833 0.28158 0.37077
 C1726 C 0.78424 0.25901 0.37436
 C1727 C 0.77643 0.25192 0.39472
 C1728 C 0.77223 0.26747 0.41110
 C1729 C 0.77230 0.22955 0.39764
 N1730 N 0.77575 0.21530 0.38129
 N1731 N 0.78283 0.22194 0.36216
 C1732 C 0.78703 0.24327 0.35808
 H1733 H 0.77156 0.30188 0.41869
 H1734 H 0.78603 0.31391 0.38464
 H1735 H 0.76586 0.22329 0.41252
 H1736 H 0.79207 0.24770 0.34203
 C1737 C 0.79529 0.76967 -0.09180
 C1738 C 0.80300 0.77778 -0.11120
 C1739 C 0.78927 0.78135 -0.12863
 C1740 C 0.76744 0.77556 -0.12673
 C1741 C 0.75955 0.76736 -0.10687
 C1742 C 0.77358 0.76495 -0.08914
 C1743 C 0.73795 0.76136 -0.10566
 N1744 N 0.72515 0.76366 -0.12312
 N1745 N 0.73253 0.77138 -0.14173
 C1746 C 0.75322 0.77731 -0.14417
 H1747 H 0.80627 0.76808 -0.07840
 H1748 H 0.81971 0.78210 -0.11235
 H1749 H 0.73122 0.75439 -0.09121
 H1750 H 0.75840 0.78298 -0.15981
 C1751 C 0.28129 0.49726 0.85100
 C1752 C 0.28692 0.49095 0.87189
 C1753 C 0.29577 0.47031 0.87580
 C1754 C 0.30000 0.45618 0.85821
 C1755 C 0.29419 0.46254 0.83707
 C1756 C 0.28429 0.48303 0.83357
 C1757 C 0.29884 0.44825 0.81998
 N1758 N 0.30851 0.42886 0.82393
 N1759 N 0.31398 0.42285 0.84377
 C1760 C 0.31014 0.43584 0.86102
 H1761 H 0.27389 0.51305 0.84852
 H1762 H 0.28383 0.50199 0.88517
 H1763 H 0.29519 0.45249 0.80352
 H1764 H 0.31527 0.43023 0.87670
 C1765 C 0.29686 -0.01456 0.34113
 C1766 C 0.30256 -0.02028 0.36201
 C1767 C 0.28700 -0.02485 0.37759
 C1768 C 0.26519 -0.02190 0.37216
 C1769 C 0.25939 -0.01676 0.35060
 C1770 C 0.27546 -0.01417 0.33472
 C1771 C 0.23770 -0.01346 0.34593
 N1772 N 0.22289 -0.01540 0.36172
 N1773 N 0.22831 -0.02016 0.38192
 C1774 C 0.24892 -0.02330 0.38771
 H1775 H 0.30940 -0.01125 0.32966
 H1776 H 0.31935 -0.02199 0.36574
 H1777 H 0.23242 -0.00864 0.33012
 H1778 H 0.25240 -0.02634 0.40449
 C1779 C -0.01846 -0.03189 -0.09772
 C1780 C -0.02486 -0.03926 -0.11794
 C1781 C -0.04636 -0.03864 -0.12430
 C1782 C -0.06182 -0.03161 -0.10893
 C1783 C -0.05517 -0.02267 -0.08883
 C1784 C -0.03311 -0.02310 -0.08303
 C1785 C -0.07118 -0.01454 -0.07503
 N1786 N -0.09206 -0.01684 -0.08010
 N1787 N -0.09823 -0.02699 -0.09795
 C1788 C -0.08390 -0.03477 -0.11228
 H1789 H -0.00165 -0.03257 -0.09373
 H1790 H -0.01259 -0.04465 -0.12901
 H1791 H -0.06774 -0.00672 -0.06008
 H1792 H -0.08999 -0.04382 -0.12588
 C1793 C -0.01805 0.46943 0.40126
 C1794 C -0.02447 0.46178 0.38120
 C1795 C -0.04610 0.46120 0.37527
 C1796 C -0.06160 0.46788 0.39079
 C1797 C -0.05494 0.47693 0.41086
 C1798 C -0.03282 0.47731 0.41629
 C1799 C -0.07089 0.48424 0.42512
 N1800 N -0.09178 0.48137 0.42037
 N1801 N -0.09795 0.47134 0.40245
 C1802 C -0.08365 0.46418 0.38775
 H1803 H -0.00116 0.46950 0.40495
 H1804 H -0.01215 0.45690 0.36995
 H1805 H -0.06732 0.49182 0.44021
 H1806 H -0.08976 0.45510 0.37420
 C1807 C 0.48797 -0.01764 0.39475
 C1808 C 0.48271 -0.02473 0.37407
 C1809 C 0.46218 -0.03238 0.36945
 C1810 C 0.44673 -0.03335 0.38611
 C1811 C 0.45205 -0.02608 0.40712
 C1812 C 0.47282 -0.01790 0.41134
 C1813 C 0.43667 -0.02839 0.42349
 N1814 N 0.41725 -0.03691 0.41893
 N1815 N 0.41220 -0.04356 0.39917
 C1816 C 0.42626 -0.04220 0.38266
 H1817 H 0.50401 -0.01186 0.39784
 H1818 H 0.49472 -0.02420 0.36155
 H1819 H 0.44002 -0.02404 0.43995
 H1820 H 0.42138 -0.04841 0.36713
 C1821 C 0.48359 0.47777 -0.10103
 C1822 C 0.47715 0.47140 -0.12157
 C1823 C 0.45609 0.46496 -0.12547
 C1824 C 0.44123 0.46459 -0.10825
 C1825 C 0.44777 0.47109 -0.08734
 C1826 C 0.46911 0.47796 -0.08386
 C1827 C 0.43287 0.46957 -0.07043
 N1828 N 0.41278 0.46244 -0.07438
 N1829 N 0.40662 0.45646 -0.09403
 C1830 C 0.42015 0.45715 -0.11104
 H1831 H 0.50001 0.48263 -0.09851
 H1832 H 0.48871 0.47145 -0.13454
 H1833 H 0.43702 0.47357 -0.05407
 H1834 H 0.41432 0.45159 -0.12648
 C1835 C 0.47234 0.79145 0.34552
 C1836 C 0.46473 0.79824 0.36545
 C1837 C 0.46367 0.78374 0.38290
 C1838 C 0.47081 0.76194 0.38018
 C1839 C 0.47850 0.75497 0.35976
 C1840 C 0.47896 0.76986 0.34226
 C1841 C 0.48626 0.73351 0.35785
 N1842 N 0.48597 0.71994 0.37511
 N1843 N 0.47868 0.72643 0.39420
 C1844 C 0.47122 0.74697 0.39737
 H1845 H 0.47258 0.80307 0.33234
 H1846 H 0.45937 0.81497 0.36722
 H1847 H 0.49298 0.72753 0.34300
 H1848 H 0.46599 0.75144 0.41335
 C1849 C -0.01595 0.77858 0.85203
 C1850 C -0.02227 0.78620 0.87216
 C1851 C -0.04393 0.78809 0.87759
 C1852 C -0.05951 0.78330 0.86146
 C1853 C -0.05302 0.77498 0.84105
 C1854 C -0.03092 0.77254 0.83635
 C1855 C -0.06896 0.77095 0.82554
 N1856 N -0.08965 0.77544 0.82986
 N1857 N -0.09560 0.78413 0.84852
 C1858 C -0.08128 0.78853 0.86426
 H1859 H 0.00096 0.77728 0.84869
 H1860 H -0.00997 0.78985 0.88388
 H1861 H -0.06537 0.76488 0.80979
 H1862 H -0.08709 0.79681 0.87843
 C1863 C 0.40070 0.76725 0.26095
 C1864 C 0.37984 0.77359 0.26562
 C1865 C 0.37411 0.78004 0.28647
 C1866 C 0.38987 0.78047 0.30290
 C1867 C 0.41099 0.77362 0.29824
 C1868 C 0.41640 0.76691 0.27703
 C1869 C 0.42629 0.77494 0.31477
 N1870 N 0.42078 0.78243 0.33453
 N1871 N 0.40105 0.78901 0.33887
 C1872 C 0.38548 0.78848 0.32375
 H1873 H 0.40465 0.76255 0.24460
 H1874 H 0.36807 0.77354 0.25284
 H1875 H 0.44268 0.77066 0.31209
 H1876 H 0.37000 0.79473 0.32815
 C1877 C -0.09084 0.79507 0.77712
 C1878 C -0.11037 0.80184 0.78526
 C1879 C -0.12789 0.78762 0.78574
 C1880 C -0.12574 0.76625 0.77714
 C1881 C -0.10569 0.75925 0.76910
 C1882 C -0.08809 0.77376 0.76945
 C1883 C -0.10412 0.73814 0.76035
 N1884 N -0.12149 0.72495 0.75981
 N1885 N -0.14033 0.73154 0.76724
 C1886 C -0.14309 0.75175 0.77576
 H1887 H -0.07751 0.80634 0.77756
 H1888 H -0.11167 0.81823 0.79175
 H1889 H -0.08941 0.73214 0.75354
 H1890 H -0.15888 0.75634 0.78102
 C1891 C 0.85431 0.27109 0.48898
 C1892 C 0.87474 0.27735 0.48261
 C1893 C 0.87860 0.28479 0.46161
 C1894 C 0.86139 0.28638 0.44684
 C1895 C 0.84069 0.27975 0.45326
 C1896 C 0.83724 0.27191 0.47447
 C1897 C 0.82390 0.28198 0.43838
 N1898 N 0.82768 0.29024 0.41849
 N1899 N 0.84706 0.29665 0.41252
 C1900 C 0.86399 0.29515 0.42601
 H1901 H 0.85180 0.26546 0.50534
 H1902 H 0.88768 0.27640 0.49414
 H1903 H 0.80778 0.27755 0.44242
 H1904 H 0.87918 0.30116 0.42036
 C1905 C 0.85410 0.75828 -0.01962
 C1906 C 0.87485 0.76450 -0.02500
 C1907 C 0.87877 0.78461 -0.03501
 C1908 C 0.86145 0.79848 -0.04029
 C1909 C 0.84041 0.79213 -0.03492
 C1910 C 0.83681 0.77201 -0.02416
 C1911 C 0.82353 0.80591 -0.04111
 N1912 N 0.82760 0.82486 -0.05163
 N1913 N 0.84739 0.83092 -0.05654
 C1914 C 0.86442 0.81837 -0.05132
 H1915 H 0.85152 0.74277 -0.01161
 H1916 H 0.88795 0.75360 -0.02130
 H1917 H 0.80715 0.80166 -0.03804
 H1918 H 0.88007 0.82401 -0.05604
 C1919 C -0.10656 -0.01363 -0.01947
 C1920 C -0.12622 -0.02004 -0.02784
 C1921 C -0.12842 -0.03997 -0.03883
 C1922 C -0.10996 -0.05279 -0.04298
 C1923 C -0.08988 -0.04579 -0.03510
 C1924 C -0.08843 -0.02659 -0.02243
 C1925 C -0.07158 -0.05738 -0.04151
 N1926 N -0.07340 -0.07509 -0.05448
 N1927 N -0.09226 -0.08192 -0.06161
 C1928 C -0.11054 -0.07140 -0.05640
 H1929 H -0.10547 0.00157 -0.01059
 H1930 H -0.13999 -0.00972 -0.02506
 H1931 H -0.05578 -0.05225 -0.03677
 H1932 H -0.12520 -0.07727 -0.06346
 C1933 C -0.10499 0.48814 0.48377
 C1934 C -0.12510 0.48204 0.47629
 C1935 C -0.12804 0.46216 0.46544
 C1936 C -0.11001 0.44895 0.46060
 C1937 C -0.08951 0.45560 0.46761
 C1938 C -0.08721 0.47486 0.48002
 C1939 C -0.07171 0.44353 0.46064
 N1940 N -0.07439 0.42572 0.44796
 N1941 N -0.09364 0.41921 0.44166
 C1942 C -0.11149 0.43019 0.44746
 H1943 H -0.10325 0.50338 0.49248
 H1944 H -0.13856 0.49265 0.47949
 H1945 H -0.05564 0.44835 0.46473
 H1946 H -0.12654 0.42450 0.44113
 C1947 C 0.40464 -0.03980 0.47364
 C1948 C 0.38442 -0.04644 0.46719
 C1949 C 0.36791 -0.03123 0.46392
 C1950 C 0.37181 -0.00888 0.46918
 C1951 C 0.39251 -0.00219 0.47588
 C1952 C 0.40920 -0.01775 0.47738
 C1953 C 0.39552 0.01974 0.48196
 N1954 N 0.37900 0.03398 0.48133
 N1955 N 0.35956 0.02770 0.47543
 C1956 C 0.35533 0.00680 0.46963
 H1957 H 0.41710 -0.05200 0.47497
 H1958 H 0.38216 -0.06357 0.46341
 H1959 H 0.41060 0.02560 0.48794
 H1960 H 0.33898 0.00258 0.46616
 C1961 C 0.40341 0.45703 -0.01645
 C1962 C 0.38368 0.45060 -0.02444
 C1963 C 0.36823 0.46608 -0.03055
 C1964 C 0.37239 0.48858 -0.02618
 C1965 C 0.39263 0.49506 -0.01800
 C1966 C 0.40859 0.47913 -0.01410
 C1967 C 0.39587 0.51723 -0.01301
 N1968 N 0.37998 0.53190 -0.01600
 N1969 N 0.36092 0.52586 -0.02328
 C1970 C 0.35650 0.50476 -0.02818
 H1971 H 0.41517 0.44456 -0.01317
 H1972 H 0.38122 0.43332 -0.02732
 H1973 H 0.41054 0.52296 -0.00595
 H1974 H 0.34037 0.50083 -0.03288
 C1975 C 0.34496 0.48069 0.78941
 C1976 C 0.36467 0.47368 0.79677
 C1977 C 0.38194 0.47145 0.78263
 C1978 C 0.37928 0.47694 0.76060
 C1979 C 0.35902 0.48390 0.75302
 C1980 C 0.34171 0.48547 0.76761
 C1981 C 0.35700 0.48970 0.73121
 N1982 N 0.37412 0.48842 0.71793
 N1983 N 0.39312 0.48193 0.72503
 C1984 C 0.39632 0.47626 0.74590
 H1985 H 0.33189 0.48175 0.80079
 H1986 H 0.36632 0.46941 0.81364
 H1987 H 0.34215 0.49563 0.72468
 H1988 H 0.41221 0.47163 0.75084
 C1989 C 0.36154 -0.01391 0.25649
 C1990 C 0.38210 -0.02019 0.26256
 C1991 C 0.38545 -0.03194 0.28161
 C1992 C 0.36783 -0.03777 0.29467
 C1993 C 0.34705 -0.03121 0.28864
 C1994 C 0.34395 -0.01905 0.26945
 C1995 C 0.32990 -0.03781 0.30171
 N1996 N 0.33343 -0.05005 0.31954
 N1997 N 0.35297 -0.05620 0.32523
 C1998 C 0.37028 -0.05052 0.31343
 H1999 H 0.35932 -0.00497 0.24159
 H2000 H 0.39546 -0.01587 0.25236
 H2001 H 0.31370 -0.03358 0.29785
 H2002 H 0.38571 -0.05628 0.31871
 C2003 C 0.15918 0.54556 0.72784
 C2004 C 0.13926 0.55209 0.72052
 C2005 C 0.12287 0.53686 0.71736
 C2006 C 0.12649 0.51462 0.72269
 C2007 C 0.14696 0.50791 0.72994
 C2008 C 0.16353 0.52352 0.73200
 C2009 C 0.14990 0.48586 0.73553
 N2010 N 0.13348 0.47155 0.73380
 N2011 N 0.11429 0.47784 0.72705
 C2012 C 0.11020 0.49886 0.72157
 H2013 H 0.17163 0.55776 0.72928
 H2014 H 0.13684 0.56916 0.71660
 H2015 H 0.16489 0.47996 0.74176
 H2016 H 0.09416 0.50308 0.71678
 C2017 C 0.16554 0.03916 0.20992
 C2018 C 0.14526 0.04591 0.20377
 C2019 C 0.12773 0.03180 0.20541
 C2020 C 0.13082 0.01033 0.21348
 C2021 C 0.15159 0.00338 0.21956
 C2022 C 0.16902 0.01800 0.21772
 C2023 C 0.15402 -0.01775 0.22809
 N2024 N 0.13682 -0.03099 0.23024
 N2025 N 0.11735 -0.02446 0.22464
 C2026 C 0.11374 -0.00425 0.21648
 H2027 H 0.17869 0.05057 0.20852
 H2028 H 0.14320 0.06238 0.19771
 H2029 H 0.16933 -0.02377 0.23337
 H2030 H 0.09751 0.00025 0.21272
 C2031 C 0.59722 0.71083 0.22456
 C2032 C 0.61731 0.70426 0.21786
 C2033 C 0.63491 0.71815 0.21995
 C2034 C 0.63207 0.73912 0.22926
 C2035 C 0.61145 0.74573 0.23623
 C2036 C 0.59396 0.73132 0.23385
 C2037 C 0.60917 0.76645 0.24566
 N2038 N 0.62642 0.77964 0.24788
 N2039 N 0.64574 0.77344 0.24141
 C2040 C 0.64917 0.75362 0.23224
 H2041 H 0.58384 0.70015 0.22158
 H2042 H 0.61902 0.68837 0.21035
 H2043 H 0.59390 0.77217 0.25143
 H2044 H 0.66524 0.74933 0.22756
 C2045 C 0.09455 0.71217 0.73029
 C2046 C 0.11431 0.70579 0.72245
 C2047 C 0.13035 0.72119 0.71832
 C2048 C 0.12654 0.74347 0.72332
 C2049 C 0.10617 0.75003 0.73104
 C2050 C 0.08986 0.73421 0.73390
 C2051 C 0.10308 0.77214 0.73627
 N2052 N 0.11923 0.78665 0.73374
 N2053 N 0.13830 0.78051 0.72655
 C2054 C 0.14255 0.75944 0.72138
 H2055 H 0.08243 0.69980 0.73255
 H2056 H 0.11682 0.68866 0.71884
 H2057 H 0.08823 0.77794 0.74288
 H2058 H 0.15850 0.75534 0.71621
 C2059 C 0.66045 0.20746 0.53327
 C2060 C 0.64039 0.20056 0.54002
 C2061 C 0.62297 0.21485 0.53962
 C2062 C 0.62573 0.23639 0.53166
 C2063 C 0.64619 0.24342 0.52480
 C2064 C 0.66371 0.22886 0.52598
 C2065 C 0.64822 0.26461 0.51630
 N2066 N 0.63096 0.27788 0.51510
 N2067 N 0.61178 0.27132 0.52161
 C2068 C 0.60854 0.25103 0.52974
 H2069 H 0.67366 0.19607 0.53410
 H2070 H 0.63853 0.18405 0.54602
 H2071 H 0.66323 0.27063 0.51023
 H2072 H 0.59251 0.24647 0.53429
 C2073 C 0.64624 0.73231 0.01495
 C2074 C 0.62579 0.72615 0.02138
 C2075 C 0.62287 0.71257 0.03929
 C2076 C 0.64084 0.70485 0.05084
 C2077 C 0.66157 0.71110 0.04429
 C2078 C 0.66417 0.72500 0.02628
 C2079 C 0.67911 0.70303 0.05594
 N2080 N 0.67594 0.68959 0.07301
 N2081 N 0.65644 0.68371 0.07920
 C2082 C 0.63880 0.69085 0.06872
 H2083 H 0.64811 0.74286 0.00106
 H2084 H 0.61214 0.73204 0.01240
 H2085 H 0.69531 0.70719 0.05159
 H2086 H 0.62338 0.68544 0.07441
 C2087 C 0.09905 0.01170 0.03032
 C2088 C 0.11931 0.01788 0.03733
 C2089 C 0.12467 0.04001 0.04019
 C2090 C 0.10837 0.05603 0.03749
 C2091 C 0.08798 0.04977 0.02964
 C2092 C 0.08336 0.02733 0.02579
 C2093 C 0.07252 0.06621 0.02707
 N2094 N 0.07686 0.08715 0.03254
 N2095 N 0.09550 0.09282 0.04100
 C2096 C 0.11119 0.07798 0.04406
 H2097 H 0.09572 -0.00551 0.02799
 H2098 H 0.13115 0.00521 0.03961
 H2099 H 0.05683 0.06271 0.02136
 H2100 H 0.12540 0.08348 0.05221
 C2101 C 0.09338 0.54449 0.52028
 C2102 C 0.11355 0.55114 0.52691
 C2103 C 0.12999 0.53594 0.52986
 C2104 C 0.12622 0.51368 0.52483
 C2105 C 0.10558 0.50690 0.51810
 C2106 C 0.08883 0.52241 0.51658
 C2107 C 0.10266 0.48490 0.51241
 N2108 N 0.11912 0.47062 0.51382
 N2109 N 0.13839 0.47692 0.52032
 C2110 C 0.14254 0.49795 0.52576
 H2111 H 0.08097 0.55665 0.51882
 H2112 H 0.11613 0.56826 0.53048
 H2113 H 0.08767 0.47907 0.50622
 H2114 H 0.15864 0.50222 0.53034
 C2115 C 0.60064 0.01556 0.52141
 C2116 C 0.62090 0.02143 0.52865
 C2117 C 0.62441 0.04171 0.53850
 C2118 C 0.60701 0.05620 0.54157
 C2119 C 0.58650 0.05037 0.53390
 C2120 C 0.58341 0.02992 0.52361
 C2121 C 0.56954 0.06496 0.53754
 N2122 N 0.57298 0.08400 0.54812
 N2123 N 0.59217 0.08938 0.55553
 C2124 C 0.60925 0.07611 0.55277
 H2125 H 0.59839 -0.00026 0.51392
 H2126 H 0.63398 0.01008 0.52651
 H2127 H 0.55353 0.06134 0.53235
 H2128 H 0.62426 0.08117 0.55968
 C2129 C 0.59065 0.54271 0.02787
 C2130 C 0.61121 0.54915 0.03341
 C2131 C 0.62844 0.53471 0.03139
 C2132 C 0.62491 0.51359 0.02271
 C2133 C 0.60393 0.50701 0.01709
 C2134 C 0.58666 0.52157 0.02025
 C2135 C 0.60107 0.48623 0.00792
 N2136 N 0.61806 0.47288 0.00492
 N2137 N 0.63773 0.47900 0.01030
 C2138 C 0.64176 0.49891 0.01899
 H2139 H 0.57764 0.55413 0.03010
 H2140 H 0.61358 0.56535 0.04006
 H2141 H 0.58559 0.48065 0.00270
 H2142 H 0.65810 0.50318 0.02257
 C2143 C 0.01338 0.03767 0.10144
 C2144 C 0.02127 0.04428 0.12127
 C2145 C 0.03202 0.02964 0.13499
 C2146 C 0.03199 0.00704 0.12915
 C2147 C 0.02449 0.00049 0.10843
 C2148 C 0.01652 0.01640 0.09386
 C2149 C 0.02394 -0.02195 0.10359
 N2150 N 0.03037 -0.03680 0.11841
 N2151 N 0.03690 -0.03079 0.13792
 C2152 C 0.03760 -0.00951 0.14390
 H2153 H 0.00587 0.04989 0.09139
 H2154 H 0.02033 0.06156 0.12480
 H2155 H 0.01744 -0.02799 0.08868
 H2156 H 0.04177 -0.00586 0.16040
 C2157 C 0.03377 0.54372 0.59188
 C2158 C 0.04096 0.55078 0.61189
 C2159 C 0.04196 0.53641 0.62943
 C2160 C 0.03523 0.51442 0.62670
 C2161 C 0.02810 0.50717 0.60617
 C2162 C 0.02752 0.52200 0.58867
 C2163 C 0.02104 0.48546 0.60411
 N2164 N 0.02124 0.47198 0.62143
 N2165 N 0.02782 0.47878 0.64069
 C2166 C 0.03469 0.49953 0.64395
 H2167 H 0.03333 0.55528 0.57866
 H2168 H 0.04598 0.56762 0.61366
 H2169 H 0.01504 0.47917 0.58902
 H2170 H 0.03934 0.50422 0.66007
 C2171 C 0.52084 0.04440 0.59425
 C2172 C 0.52777 0.05062 0.61456
 C2173 C 0.53275 0.03504 0.63046
 C2174 C 0.52891 0.01252 0.62576
 C2175 C 0.52188 0.00625 0.60482
 C2176 C 0.51848 0.02239 0.58880
 C2177 C 0.51743 -0.01594 0.60096
 N2178 N 0.51974 -0.03079 0.61697
 N2179 N 0.52584 -0.02494 0.63667
 C2180 C 0.53021 -0.00385 0.64168
 H2181 H 0.51805 0.05699 0.58237
 H2182 H 0.53050 0.06788 0.61727
 H2183 H 0.51142 -0.02157 0.58565
 H2184 H 0.53393 -0.00010 0.65826
 C2185 C 0.54692 0.52265 0.09452
 C2186 C 0.55396 0.52945 0.11474
 C2187 C 0.53965 0.53191 0.13190
 C2188 C 0.51791 0.52636 0.12883
 C2189 C 0.51075 0.51937 0.10825
 C2190 C 0.52531 0.51825 0.09078
 C2191 C 0.48932 0.51296 0.10608
 N2192 N 0.47595 0.51404 0.12320
 N2193 N 0.48261 0.52085 0.14243
 C2194 C 0.50312 0.52692 0.14587
 H2195 H 0.55834 0.52163 0.08146
 H2196 H 0.57069 0.53334 0.11688
 H2197 H 0.48319 0.50650 0.09115
 H2198 H 0.50768 0.53174 0.16196
 C2199 C 0.23497 0.52662 0.64411
 C2200 C 0.22756 0.53319 0.62396
 C2201 C 0.20650 0.54033 0.62122
 C2202 C 0.19269 0.54119 0.63928
 C2203 C 0.20018 0.53433 0.65975
 C2204 C 0.22147 0.52682 0.66206
 C2205 C 0.18628 0.53608 0.67744
 N2206 N 0.16626 0.54393 0.67470
 N2207 N 0.15925 0.55042 0.65551
 C2208 C 0.17179 0.54947 0.63776
 H2209 H 0.25135 0.52126 0.64572
 H2210 H 0.23837 0.53273 0.61036
 H2211 H 0.19118 0.53164 0.69347
 H2212 H 0.16535 0.55551 0.62276
 C2213 C 0.20940 0.01977 0.15159
 C2214 C 0.20134 0.02622 0.13173
 C2215 C 0.21495 0.03219 0.11469
 C2216 C 0.23739 0.02959 0.11759
 C2217 C 0.24556 0.02295 0.13796
 C2218 C 0.23138 0.01873 0.15526
 C2219 C 0.26767 0.01972 0.14000
 N2220 N 0.28067 0.02283 0.12285
 N2221 N 0.27305 0.02860 0.10368
 C2222 C 0.25192 0.03180 0.10039
 H2223 H 0.19827 0.01636 0.16452
 H2224 H 0.18420 0.02793 0.13028
 H2225 H 0.27471 0.01403 0.15479
 H2226 H 0.24671 0.03533 0.08418
 C2227 C 0.70454 0.23078 0.59334
 C2228 C 0.69672 0.22378 0.61313
 C2229 C 0.71053 0.21983 0.63041
 C2230 C 0.73261 0.22414 0.62796
 C2231 C 0.74061 0.23134 0.60777
 C2232 C 0.72645 0.23403 0.59015
 C2233 C 0.76246 0.23616 0.60614
 N2234 N 0.77540 0.23352 0.62345
 N2235 N 0.76793 0.22658 0.64232
 C2236 C 0.74700 0.22190 0.64520
 H2237 H 0.69343 0.23277 0.58011
 H2238 H 0.67980 0.22057 0.61471
 H2239 H 0.76933 0.24252 0.59150
 H2240 H 0.74177 0.21684 0.66103
 C2241 C 0.70579 0.73153 0.09521
 C2242 C 0.69922 0.72403 0.11532
 C2243 C 0.71412 0.71883 0.13136
 C2244 C 0.73606 0.72276 0.12740
 C2245 C 0.74274 0.73028 0.10682
 C2246 C 0.72748 0.73359 0.09024
 C2247 C 0.76446 0.73507 0.10383
 N2248 N 0.77853 0.73194 0.12013
 N2249 N 0.77231 0.72463 0.13932
 C2250 C 0.75158 0.72007 0.14356
 H2251 H 0.69379 0.73491 0.08314
 H2252 H 0.68234 0.72159 0.11815
 H2253 H 0.77029 0.74201 0.08901
 H2254 H 0.74743 0.71486 0.15965
 C2255 C 0.51583 0.72642 0.15034
 C2256 C 0.52163 0.72017 0.12953
 C2257 C 0.54261 0.71390 0.12485
 C2258 C 0.55798 0.71349 0.14165
 C2259 C 0.55219 0.72041 0.16265
 C2260 C 0.53092 0.72693 0.16697
 C2261 C 0.56779 0.71971 0.17890
 N2262 N 0.58770 0.71245 0.17441
 N2263 N 0.59303 0.70552 0.15484
 C2264 C 0.57885 0.70559 0.13838
 H2265 H 0.49945 0.73103 0.15348
 H2266 H 0.50965 0.72021 0.11696
 H2267 H 0.56432 0.72456 0.19520
 H2268 H 0.58402 0.69911 0.12308
 C2269 C 0.01719 0.73161 0.64608
 C2270 C 0.02379 0.72425 0.62591
 C2271 C 0.04461 0.71666 0.62267
 C2272 C 0.05909 0.71636 0.64027
 C2273 C 0.05243 0.72413 0.66075
 C2274 C 0.03129 0.73185 0.66357
 C2275 C 0.06698 0.72298 0.67798
 N2276 N 0.08679 0.71477 0.67482
 N2277 N 0.09299 0.70735 0.65567
 C2278 C 0.07982 0.70771 0.63837
 H2279 H 0.00088 0.73707 0.64810
 H2280 H 0.01249 0.72436 0.61270
 H2281 H 0.06276 0.72825 0.69398
 H2282 H 0.08562 0.70088 0.62344
 C2283 C 0.51795 0.64495 0.22559
 C2284 C 0.52353 0.62431 0.21801
 C2285 C 0.54486 0.61764 0.21736
 C2286 C 0.56092 0.63229 0.22465
 C2287 C 0.55512 0.65260 0.23418
 C2288 C 0.53334 0.65945 0.23374
 C2289 C 0.57164 0.66536 0.24314
 N2290 N 0.59226 0.65909 0.24115
 N2291 N 0.59769 0.64101 0.23067
 C2292 C 0.58279 0.62759 0.22212
 H2293 H 0.50129 0.64959 0.22521
 H2294 H 0.51101 0.61346 0.21252
 H2295 H 0.56886 0.68037 0.25158
 H2296 H 0.58830 0.61356 0.21318
 C2297 C 0.04644 0.66027 0.72132
 C2298 C 0.05324 0.63975 0.71464
 C2299 C 0.03918 0.62195 0.71434
 C2300 C 0.01791 0.62485 0.72149
 C2301 C 0.01100 0.64581 0.72834
 C2302 C 0.02539 0.66366 0.72793
 C2303 C -0.01000 0.64804 0.73592
 N2304 N -0.02317 0.63047 0.73635
 N2305 N -0.01671 0.61082 0.72987
 C2306 C 0.00338 0.60738 0.72255
 H2307 H 0.05755 0.67377 0.72077
 H2308 H 0.06956 0.63782 0.70923
 H2309 H -0.01593 0.66345 0.74188
 H2310 H 0.00785 0.59098 0.71791
 C2311 C 0.02063 0.10604 0.01438
 C2312 C 0.02880 0.12642 0.02020
 C2313 C 0.03606 0.13041 0.04125
 C2314 C 0.03669 0.11276 0.05618
 C2315 C 0.02883 0.09191 0.05002
 C2316 C 0.01993 0.08880 0.02920
 C2317 C 0.03175 0.07435 0.06435
 N2318 N 0.04151 0.07752 0.08355
 N2319 N 0.04880 0.09703 0.08941
 C2320 C 0.04689 0.11466 0.07639
 H2321 H 0.01477 0.10369 -0.00188
 H2322 H 0.02868 0.13943 0.00836
 H2323 H 0.02708 0.05795 0.06023
 H2324 H 0.05419 0.12970 0.08169
 C2325 C 0.04295 0.59369 0.52965
 C2326 C 0.04968 0.61417 0.53646
 C2327 C 0.03541 0.63175 0.53754
 C2328 C 0.01390 0.62858 0.53127
 C2329 C 0.00704 0.60761 0.52431
 C2330 C 0.02175 0.59004 0.52369
 C2331 C -0.01422 0.60513 0.51760
 N2332 N -0.02768 0.62245 0.51807
 N2333 N -0.02126 0.64210 0.52463
 C2334 C -0.00093 0.64579 0.53114
 H2335 H 0.05429 0.58040 0.52951
 H2336 H 0.06618 0.61628 0.54122
 H2337 H -0.02016 0.58972 0.51162
 H2338 H 0.00346 0.66217 0.53590
 C2339 C 0.52194 0.09776 0.54556
 C2340 C 0.52990 0.11767 0.55271
 C2341 C 0.53328 0.13498 0.53835
 C2342 C 0.52745 0.13236 0.51641
 C2343 C 0.51945 0.11194 0.50909
 C2344 C 0.51731 0.09431 0.52377
 C2345 C 0.51323 0.11011 0.48741
 N2346 N 0.51517 0.12747 0.47398
 N2347 N 0.52271 0.14659 0.48082
 C2348 C 0.52879 0.14967 0.50156
 H2349 H 0.52035 0.08458 0.55703
 H2350 H 0.53413 0.11935 0.56956
 H2351 H 0.50632 0.09527 0.48112
 H2352 H 0.53424 0.16572 0.50628
 C2353 C 0.52269 0.60413 0.01581
 C2354 C 0.52948 0.62478 0.02239
 C2355 C 0.54007 0.62756 0.04207
 C2356 C 0.54449 0.60910 0.05510
 C2357 C 0.53759 0.58813 0.04840
 C2358 C 0.52628 0.58578 0.02878
 C2359 C 0.54284 0.57004 0.06132
 N2360 N 0.55404 0.57293 0.07979
 N2361 N 0.56045 0.59263 0.08614
 C2362 C 0.55614 0.61079 0.07442
 H2363 H 0.51432 0.60247 0.00062
 H2364 H 0.52630 0.63874 0.01215
 H2365 H 0.53851 0.55362 0.05672
 H2366 H 0.56211 0.62628 0.08021
 C2367 C 0.72039 0.14841 0.51832
 C2368 C 0.71272 0.12816 0.52487
 C2369 C 0.70934 0.12337 0.54677
 C2370 C 0.71288 0.14022 0.56228
 C2371 C 0.72075 0.16095 0.55549
 C2372 C 0.72484 0.16490 0.53328
 C2373 C 0.72300 0.17748 0.57108
 N2374 N 0.71772 0.17366 0.59189
 N2375 N 0.70990 0.15452 0.59819
 C2376 C 0.70701 0.13785 0.58414
 H2377 H 0.72305 0.15118 0.50129
 H2378 H 0.71004 0.11583 0.51263
 H2379 H 0.72827 0.19359 0.56694
 H2380 H 0.69944 0.12327 0.59020
 C2381 C 0.70543 0.65786 0.03272
 C2382 C 0.69799 0.63754 0.03922
 C2383 C 0.71205 0.62008 0.04244
 C2384 C 0.73420 0.62330 0.03877
 C2385 C 0.74185 0.64429 0.03263
 C2386 C 0.72725 0.66175 0.02984
 C2387 C 0.76376 0.64671 0.02843
 N2388 N 0.77704 0.62937 0.03043
 N2389 N 0.76989 0.60971 0.03606
 C2390 C 0.74896 0.60604 0.04013
 H2391 H 0.69395 0.67073 0.02987
 H2392 H 0.68102 0.63542 0.04171
 H2393 H 0.77045 0.66203 0.02314
 H2394 H 0.74409 0.58957 0.04395
 C2395 C 0.21690 0.59534 0.70478
 C2396 C 0.20995 0.61556 0.69734
 C2397 C 0.21203 0.63433 0.71009
 C2398 C 0.22181 0.63264 0.73067
 C2399 C 0.22866 0.61194 0.73835
 C2400 C 0.22598 0.59319 0.72529
 C2401 C 0.23858 0.61084 0.75862
 N2402 N 0.24141 0.62929 0.77037
 N2403 N 0.23515 0.64874 0.76314
 C2404 C 0.22557 0.65107 0.74369
 H2405 H 0.21493 0.58114 0.69452
 H2406 H 0.20251 0.61650 0.68161
 H2407 H 0.24436 0.59559 0.76509
 H2408 H 0.22132 0.66734 0.73848
 C2409 C 0.22520 0.09061 0.19665
 C2410 C 0.21772 0.11077 0.18959
 C2411 C 0.21368 0.12791 0.20416
 C2412 C 0.21906 0.12480 0.22630
 C2413 C 0.22682 0.10418 0.23340
 C2414 C 0.22924 0.08680 0.21849
 C2415 C 0.23304 0.10200 0.25508
 N2416 N 0.23154 0.11921 0.26870
 N2417 N 0.22464 0.13861 0.26205
 C2418 C 0.21865 0.14208 0.24136
 H2419 H 0.22726 0.07761 0.18497
 H2420 H 0.21398 0.11253 0.17264
 H2421 H 0.23979 0.08707 0.26119
 H2422 H 0.21438 0.15853 0.23684
 C2423 C 0.71417 1.10172 0.73248
 C2424 C 0.70563 1.12149 0.72565
 C2425 C 0.70183 1.12563 0.70371
 C2426 C 0.70534 1.10844 0.68857
 C2427 C 0.71397 1.08817 0.69564
 C2428 C 0.71898 1.08510 0.71778
 C2429 C 0.71612 1.07122 0.68043
 N2430 N 0.71015 1.07437 0.65969
 N2431 N 0.70172 1.09315 0.65314
 C2432 C 0.69883 1.11011 0.66685
 H2433 H 0.71736 1.09949 0.74950
 H2434 H 0.70299 1.13408 0.73763
 H2435 H 0.72187 1.05529 0.68478
 H2436 H 0.69081 1.12441 0.66070
 C2437 C 0.73681 0.59991 0.21961
 C2438 C 0.73059 0.62077 0.21305
 C2439 C 0.70920 0.62543 0.20838
 C2440 C 0.69387 0.60840 0.20969
 C2441 C 0.70014 0.58728 0.21675
 C2442 C 0.72179 0.58312 0.22199
 C2443 C 0.68455 0.57078 0.21758
 N2444 N 0.66418 0.57516 0.21174
 N2445 N 0.65834 0.59486 0.20488
 C2446 C 0.67248 0.61155 0.20351
 H2447 H 0.75346 0.59693 0.22323
 H2448 H 0.74255 0.63350 0.21190
 H2449 H 0.68838 0.55436 0.22247
 H2450 H 0.66687 0.62697 0.19723
 C2451 C 0.51440 0.14562 0.72680
 C2452 C 0.52105 0.12515 0.71968
 C2453 C 0.54177 0.12202 0.71184
 C2454 C 0.55599 0.14004 0.71077
 C2455 C 0.54929 0.16081 0.71825
 C2456 C 0.52835 0.16346 0.72646
 C2457 C 0.56356 0.17848 0.71648
 N2458 N 0.58320 0.17541 0.70790
 N2459 N 0.58946 0.15594 0.70075
 C2460 C 0.57653 0.13822 0.70176
 H2461 H 0.49827 0.14754 0.73274
 H2462 H 0.50995 0.11160 0.72032
 H2463 H 0.55925 0.19474 0.72152
 H2464 H 0.58236 0.12302 0.69518
 C2465 C 1.02017 0.14318 0.22911
 C2466 C 1.02685 0.12259 0.22228
 C2467 C 1.04669 0.11976 0.21224
 C2468 C 1.05988 0.13827 0.20861
 C2469 C 1.05324 0.15914 0.21593
 C2470 C 1.03325 0.16149 0.22633
 C2471 C 1.06658 0.17718 0.21187
 N2472 N 1.08519 0.17442 0.20113
 N2473 N 1.09129 0.15491 0.19399
 C2474 C 1.07925 0.13680 0.19721
 H2475 H 1.00476 0.14482 0.23682
 H2476 H 1.01646 0.10869 0.22488
 H2477 H 1.06232 0.19347 0.21686
 H2478 H 1.08485 0.12158 0.19049
 C2479 C 0.20546 0.65799 0.51969
 C2480 C 0.19883 0.63746 0.52639
 C2481 C 0.21362 0.62150 0.53257
 C2482 C 0.23574 0.62630 0.53099
 C2483 C 0.24247 0.64760 0.52483
 C2484 C 0.22705 0.66380 0.51986
 C2485 C 0.26446 0.65155 0.52279
 N2486 N 0.27866 0.63538 0.52687
 N2487 N 0.27237 0.61543 0.53255
 C2488 C 0.25144 0.61029 0.53458
 H2489 H 0.19345 0.66963 0.51475
 H2490 H 0.18187 0.63418 0.52713
 H2491 H 0.27052 0.66706 0.51736
 H2492 H 0.24734 0.59360 0.53845
 C2493 C 0.23298 0.14738 1.01991
 C2494 C 0.22697 0.12681 1.02745
 C2495 C 0.20729 0.12377 1.03767
 C2496 C 0.19370 0.14199 1.04105
 C2497 C 0.19977 0.16285 1.03326
 C2498 C 0.21940 0.16538 1.02229
 C2499 C 0.18619 0.18068 1.03728
 N2500 N 0.16775 0.17767 1.04826
 N2501 N 0.16203 0.15809 1.05561
 C2502 C 0.17438 0.14020 1.05247
 H2503 H 0.24821 0.14922 1.01187
 H2504 H 0.23759 0.11308 1.02497
 H2505 H 0.19021 0.19701 1.03210
 H2506 H 0.16909 0.12484 1.05922
 C2507 C 0.22984 0.72678 0.59712
 C2508 C 0.22338 0.71919 0.61723
 C2509 C 0.20173 0.71748 0.62254
 C2510 C 0.18628 0.72387 0.60700
 C2511 C 0.19287 0.73331 0.58708
 C2512 C 0.21503 0.73392 0.58170
 C2513 C 0.17679 0.74107 0.57315
 N2514 N 0.15594 0.73829 0.57814
 N2515 N 0.14989 0.72805 0.59599
 C2516 C 0.16430 0.72049 0.61040
 H2517 H 0.24677 0.72722 0.59364
 H2518 H 0.23550 0.71452 0.62877
 H2519 H 0.18019 0.74907 0.55821
 H2520 H 0.15834 0.71165 0.62418
 C2521 C 0.20217 0.22161 1.08419
 C2522 C 0.19600 0.21395 1.10433
 C2523 C 0.21003 0.21486 1.12184
 C2524 C 0.23051 0.22420 1.11912
 C2525 C 0.23670 0.23221 1.09861
 C2526 C 0.22240 0.23065 1.08101
 C2527 C 0.25693 0.24187 1.09653
 N2528 N 0.27008 0.24312 1.11384
 N2529 N 0.26431 0.23548 1.13307
 C2530 C 0.24497 0.22612 1.13632
 H2531 H 0.19135 0.21975 1.07079
 H2532 H 0.18032 0.20675 1.10616
 H2533 H 0.26227 0.24873 1.08144
 H2534 H 0.24104 0.22046 1.15234
 C2535 C 0.73378 0.51847 0.14567
 C2536 C 0.72699 0.52670 0.12597
 C2537 C 0.70526 0.52824 0.12103
 C2538 C 0.69007 0.52034 0.13616
 C2539 C 0.69709 0.51003 0.15545
 C2540 C 0.71920 0.51044 0.16087
 C2541 C 0.68144 0.50044 0.16877
 N2542 N 0.66048 0.50252 0.16393
 N2543 N 0.65393 0.51383 0.14691
 C2544 C 0.66795 0.52310 0.13310
 H2545 H 0.75069 0.51869 0.14924
 H2546 H 0.73888 0.53243 0.11464
 H2547 H 0.68523 0.49130 0.18300
 H2548 H 0.66153 0.53275 0.12009
 C2549 C 0.70231 1.01712 0.65698
 C2550 C 0.69529 1.02496 0.63717
 C2551 C 0.70960 1.02819 0.62011
 C2552 C 0.73124 1.02202 0.62278
 C2553 C 0.73843 1.01422 0.64305
 C2554 C 0.72389 1.01245 0.66044
 C2555 C 0.75991 1.00803 0.64511
 N2556 N 0.77324 1.00966 0.62800
 N2557 N 0.76650 1.01691 0.60895
 C2558 C 0.74598 1.02303 0.60572
 H2559 H 0.69097 1.01593 0.67011
 H2560 H 0.67868 1.02951 0.63547
 H2561 H 0.76610 1.00143 0.65999
 H2562 H 0.74133 1.02828 0.58977
 C2563 C 0.54517 0.22433 0.66157
 C2564 C 0.55207 0.21776 0.64132
 C2565 C 0.53888 0.22006 0.62324
 C2566 C 0.51856 0.22991 0.62557
 C2567 C 0.51156 0.23663 0.64626
 C2568 C 0.52496 0.23353 0.66433
 C2569 C 0.49143 0.24652 0.64810
 N2570 N 0.47919 0.24941 0.63031
 N2571 N 0.48577 0.24316 0.61087
 C2572 C 0.50504 0.23359 0.60787
 H2573 H 0.55536 0.22144 0.67534
 H2574 H 0.56760 0.21016 0.63983
 H2575 H 0.48547 0.25225 0.66343
 H2576 H 0.50968 0.22917 0.59167
 C2577 C 1.04659 0.22459 0.15823
 C2578 C 1.05232 0.21878 0.13734
 C2579 C 1.03734 0.21927 0.12061
 C2580 C 1.01633 0.22655 0.12495
 C2581 C 1.01056 0.23264 0.14624
 C2582 C 1.02579 0.23121 0.16305
 C2583 C 0.98980 0.24041 0.14987
 N2584 N 0.97573 0.24164 0.13332
 N2585 N 0.98109 0.23577 0.11338
 C2586 C 1.00090 0.22835 0.10861
 H2587 H 1.05831 0.22316 0.17088
 H2588 H 1.06842 0.21314 0.13434
 H2589 H 0.98475 0.24589 0.16559
 H2590 H 1.00447 0.22421 0.09207
 C2591 C 0.59230 0.23286 0.71009
 C2592 C 0.61178 0.22549 0.70235
 C2593 C 0.62803 0.21904 0.71646
 C2594 C 0.62473 0.22123 0.73901
 C2595 C 0.60461 0.22841 0.74692
 C2596 C 0.58804 0.23363 0.73223
 C2597 C 0.60209 0.23083 0.76929
 N2598 N 0.61851 0.22622 0.78275
 N2599 N 0.63734 0.21956 0.77536
 C2600 C 0.64105 0.21705 0.75399
 H2601 H 0.58007 0.23714 0.69855
 H2602 H 0.61391 0.22411 0.68508
 H2603 H 0.58749 0.23693 0.77621
 H2604 H 0.65686 0.21225 0.74895
 C2605 C 1.09649 0.22876 0.20641
 C2606 C 1.11561 0.22091 0.19826
 C2607 C 1.13268 0.21588 0.21195
 C2608 C 1.13054 0.21988 0.23439
 C2609 C 1.11075 0.22744 0.24275
 C2610 C 1.09341 0.23132 0.22858
 C2611 C 1.10929 0.23165 0.26495
 N2612 N 1.12643 0.22839 0.27787
 N2613 N 1.14499 0.22144 0.27004
 C2614 C 1.14768 0.21723 0.24877
 H2615 H 1.08362 0.23197 0.19531
 H2616 H 1.11684 0.21816 0.18106
 H2617 H 1.09493 0.23808 0.27208
 H2618 H 1.16330 0.21230 0.24332
 C2619 C 0.14310 0.73557 0.50897
 C2620 C 0.12315 0.72928 0.51674
 C2621 C 0.12143 0.71316 0.53263
 C2622 C 0.14002 0.70298 0.54077
 C2623 C 0.16024 0.70941 0.53295
 C2624 C 0.16167 0.72575 0.51687
 C2625 C 0.17848 0.69980 0.54212
 N2626 N 0.17642 0.68446 0.55774
 N2627 N 0.15736 0.67813 0.56484
 C2628 C 0.13911 0.68685 0.55691
 H2629 H 0.14409 0.74832 0.49691
 H2630 H 0.10898 0.73718 0.51050
 H2631 H 0.19436 0.70449 0.53719
 H2632 H 0.12409 0.68121 0.56342
 C2633 C 0.15232 0.22940 1.03828
 C2634 C 0.13242 0.22265 1.04554
 C2635 C 0.11564 0.21875 1.03111
 C2636 C 0.11904 0.22262 1.00881
 C2637 C 0.13960 0.22901 1.00136
 C2638 C 0.15655 0.23181 1.01629
 C2639 C 0.14218 0.23331 0.97927
 N2640 N 0.12543 0.23115 0.96562
 N2641 N 0.10621 0.22525 0.97259
 C2642 C 0.10240 0.22108 0.99368
 H2643 H 0.16475 0.23212 1.04999
 H2644 H 0.13027 0.22001 1.06266
 H2645 H 0.15712 0.23897 0.97278
 H2646 H 0.08629 0.21707 0.99842
 C2647 C 0.65608 0.52214 0.21261
 C2648 C 0.63550 0.52741 0.20633
 C2649 C 0.61833 0.52470 0.22048
 C2650 C 0.62213 0.51630 0.24143
 C2651 C 0.64325 0.51083 0.24777
 C2652 C 0.66027 0.51381 0.23310
 C2653 C 0.64651 0.50230 0.26850
 N2654 N 0.62969 0.49950 0.28195
 N2655 N 0.60989 0.50456 0.27600
 C2656 C 0.60552 0.51281 0.25620
 H2657 H 0.66906 0.52534 0.20159
 H2658 H 0.63304 0.53433 0.19045
 H2659 H 0.66223 0.49772 0.27406
 H2660 H 0.58912 0.51635 0.25212
 C2661 C 0.65666 1.03907 0.71858
 C2662 C 0.63678 1.04570 0.71129
 C2663 C 0.61936 1.03137 0.71153
 C2664 C 0.62215 1.00979 0.71937
 C2665 C 0.64257 1.00295 0.72668
 C2666 C 0.65990 1.01781 0.72622
 C2667 C 0.64469 0.98169 0.73494
 N2668 N 0.62755 0.96820 0.73562
 N2669 N 0.60841 0.97461 0.72881
 C2670 C 0.60510 0.99495 0.72083
 H2671 H 0.66977 1.05062 0.71800
 H2672 H 0.63496 1.06223 0.70532
 H2673 H 0.65967 0.97577 0.74116
 H2674 H 0.58913 0.99936 0.71597
 C2675 C 0.85593 0.48300 0.26223
 C2676 C 0.87592 0.47644 0.26977
 C2677 C 0.87764 0.46056 0.28593
 C2678 C 0.85897 0.45109 0.29471
 C2679 C 0.83874 0.45772 0.28706
 C2680 C 0.83730 0.47373 0.27065
 C2681 C 0.82048 0.44844 0.29656
 N2682 N 0.82252 0.43344 0.31249
 N2683 N 0.84156 0.42706 0.31956
 C2684 C 0.85984 0.43534 0.31123
 H2685 H 0.85497 0.49537 0.24979
 H2686 H 0.89013 0.48383 0.26304
 H2687 H 0.80460 0.45309 0.29159
 H2688 H 0.87484 0.42963 0.31769
 C2689 C 0.84041 0.96145 0.78035
 C2690 C 0.86080 0.95485 0.78621
 C2691 C 0.87784 0.96965 0.78624
 C2692 C 0.87420 0.99158 0.77987
 C2693 C 0.85334 0.99834 0.77383
 C2694 C 0.83628 0.98310 0.77434
 C2695 C 0.85052 1.01996 0.76675
 N2696 N 0.86734 1.03387 0.76618
 N2697 N 0.88683 1.02757 0.77198
 C2698 C 0.89086 1.00691 0.77870
 H2699 H 0.82763 0.94953 0.78075
 H2700 H 0.86323 0.93806 0.79116
 H2701 H 0.83524 1.02587 0.76132
 H2702 H 0.90708 1.00259 0.78274
 C2703 C 0.40379 0.27461 0.79096
 C2704 C 0.38315 0.28105 0.79598
 C2705 C 0.36675 0.27928 0.78079
 C2706 C 0.37120 0.27017 0.76031
 C2707 C 0.39225 0.26324 0.75536
 C2708 C 0.40868 0.26575 0.77084
 C2709 C 0.39607 0.25387 0.73507
 N2710 N 0.37989 0.25183 0.72070
 N2711 N 0.36017 0.25844 0.72531
 C2712 C 0.35526 0.26750 0.74463
 H2713 H 0.41633 0.27786 0.80240
 H2714 H 0.38013 0.28836 0.81159
 H2715 H 0.41167 0.24790 0.73062
 H2716 H 0.33895 0.27236 0.74761
 C2717 C 0.91471 0.27801 0.29754
 C2718 C 0.89460 0.28500 0.30402
 C2719 C 0.87677 0.28179 0.29081
 C2720 C 0.87923 0.27079 0.27087
 C2721 C 0.89973 0.26353 0.26437
 C2722 C 0.91757 0.26737 0.27782
 C2723 C 0.90160 0.25235 0.24468
 N2724 N 0.88408 0.24886 0.23235
 N2725 N 0.86484 0.25569 0.23843
 C2726 C 0.86179 0.26646 0.25728
 H2727 H 0.92826 0.28157 0.30769
 H2728 H 0.89300 0.29348 0.31927
 H2729 H 0.91676 0.24613 0.23914
 H2730 H 0.84578 0.27137 0.26152
 C2731 C 0.35214 0.76378 0.47846
 C2732 C 0.37276 0.76954 0.47221
 C2733 C 0.37715 0.79045 0.46416
 C2734 C 0.36029 0.80572 0.46190
 C2735 C 0.33943 0.80003 0.46871
 C2736 C 0.33537 0.77886 0.47717
 C2737 C 0.32308 0.81547 0.46577
 N2738 N 0.32738 0.83515 0.45677
 N2739 N 0.34687 0.84038 0.45015
 C2740 C 0.36340 0.82632 0.45221
 H2741 H 0.34923 0.74743 0.48447
 H2742 H 0.38543 0.75761 0.47368
 H2743 H 0.30685 0.81198 0.47002
 H2744 H 0.37867 0.83132 0.44587
 C2745 C 0.34695 0.27687 0.98656
 C2746 C 0.36796 0.28297 0.98248
 C2747 C 0.37606 0.28301 0.96147
 C2748 C 0.36247 0.27672 0.94416
 C2749 C 0.34164 0.26865 0.94851
 C2750 C 0.33348 0.26962 0.96996
 C2751 C 0.32962 0.26074 0.93093
 N2752 N 0.33726 0.26233 0.91058
 N2753 N 0.35604 0.27145 0.90643
 C2754 C 0.36872 0.27897 0.92243
 H2755 H 0.34118 0.27763 1.00300
 H2756 H 0.37795 0.28787 0.99587
 H2757 H 0.31404 0.25377 0.93267
 H2758 H 0.38335 0.28697 0.91783
 C2759 C 0.76808 0.47499 0.35083
 C2760 C 0.77434 0.46856 0.37135
 C2761 C 0.79594 0.46723 0.37694
 C2762 C 0.81157 0.47333 0.36143
 C2763 C 0.80508 0.48176 0.34108
 C2764 C 0.78306 0.48143 0.33534
 C2765 C 0.82111 0.48935 0.32703
 N2766 N 0.84196 0.48721 0.33233
 N2767 N 0.84800 0.47779 0.35062
 C2768 C 0.83358 0.47051 0.36517
 H2769 H 0.75122 0.47491 0.34700
 H2770 H 0.76211 0.46410 0.38287
 H2771 H 0.81762 0.49666 0.31174
 H2772 H 0.83960 0.46230 0.37928
 C2773 C 0.79452 0.98345 0.84352
 C2774 C 0.80151 0.97588 0.86346
 C2775 C 0.78711 0.97238 0.88039
 C2776 C 0.76538 0.97808 0.87750
 C2777 C 0.75824 0.98573 0.85715
 C2778 C 0.77287 0.98763 0.83983
 C2779 C 0.73671 0.99170 0.85498
 N2780 N 0.72327 0.98984 0.87199
 N2781 N 0.72995 0.98259 0.89106
 C2782 C 0.75053 0.97675 0.89443
 H2783 H 0.80595 0.98484 0.83050
 H2784 H 0.81820 0.97172 0.86536
 H2785 H 0.73055 0.99835 0.84013
 H2786 H 0.75514 0.97150 0.91039
 C2787 C 0.26183 0.77001 0.39035
 C2788 C 0.26818 0.77583 0.36959
 C2789 C 0.28907 0.78277 0.36557
 C2790 C 0.30377 0.78433 0.38287
 C2791 C 0.29740 0.77816 0.40392
 C2792 C 0.27624 0.77076 0.40760
 C2793 C 0.31220 0.78073 0.42079
 N2794 N 0.33198 0.78863 0.41674
 N2795 N 0.33795 0.79444 0.39700
 C2796 C 0.32452 0.79271 0.37999
 H2797 H 0.24552 0.76480 0.39298
 H2798 H 0.25672 0.77493 0.35656
 H2799 H 0.30817 0.77710 0.43723
 H2800 H 0.33016 0.79829 0.36449
 C2801 C 0.25981 0.26641 0.88636
 C2802 C 0.26658 0.27285 0.86588
 C2803 C 0.28370 0.28733 0.86348
 C2804 C 0.29425 0.29552 0.88193
 C2805 C 0.28744 0.28899 0.90269
 C2806 C 0.27010 0.27420 0.90486
 C2807 C 0.29813 0.29783 0.92062
 N2808 N 0.31452 0.31199 0.91784
 N2809 N 0.32101 0.31796 0.89830
 C2810 C 0.31149 0.31019 0.88027
 H2811 H 0.24652 0.25520 0.88780
 H2812 H 0.25843 0.26651 0.85182
 H2813 H 0.29372 0.29367 0.93679
 H2814 H 0.31744 0.31565 0.86483
 C2815 C 0.48631 0.27391 0.85554
 C2816 C 0.48102 0.28060 0.87632
 C2817 C 0.45976 0.28101 0.88317
 C2818 C 0.44351 0.27433 0.86855
 C2819 C 0.44909 0.26547 0.84812
 C2820 C 0.47071 0.26633 0.84109
 C2821 C 0.43252 0.25681 0.83536
 N2822 N 0.41194 0.25857 0.84178
 N2823 N 0.40665 0.26865 0.85995
 C2824 C 0.42165 0.27689 0.87334
 H2825 H 0.50290 0.27455 0.85071
 H2826 H 0.49366 0.28573 0.88708
 H2827 H 0.43528 0.24878 0.82027
 H2828 H 0.41619 0.28564 0.88738
 C2829 C 0.96023 0.26976 0.34637
 C2830 C 0.95292 0.27727 0.36616
 C2831 C 0.96713 0.28217 0.38293
 C2832 C 0.98925 0.27835 0.37974
 C2833 C 0.99674 0.27124 0.35925
 C2834 C 0.98205 0.26761 0.34222
 C2835 C 1.01864 0.26705 0.35685
 N2836 N 1.03209 0.26997 0.37371
 N2837 N 1.02509 0.27652 0.39289
 C2838 C 1.00416 0.28063 0.39653
 H2839 H 0.94871 0.26638 0.33387
 H2840 H 0.93594 0.27976 0.36819
 H2841 H 1.02513 0.26084 0.34200
 H2842 H 0.99940 0.28514 0.41265
 C2843 C 0.48302 0.35226 0.78128
 C2844 C 0.47670 0.37309 0.78762
 C2845 C 0.45531 0.37758 0.79233
 C2846 C 0.44004 0.36051 0.79119
 C2847 C 0.44643 0.33938 0.78443
 C2848 C 0.46810 0.33534 0.77925
 C2849 C 0.43097 0.32276 0.78387
 N2850 N 0.41055 0.32710 0.78957
 N2851 N 0.40457 0.34687 0.79610
 C2852 C 0.41861 0.36366 0.79727
 H2853 H 0.49967 0.34938 0.77762
 H2854 H 0.48858 0.38591 0.78869
 H2855 H 0.43497 0.30629 0.77934
 H2856 H 0.41289 0.37914 0.80328
 C2857 C 0.97782 0.35214 0.26694
 C2858 C 0.97019 0.37250 0.27342
 C2859 C 0.95984 0.37499 0.29327
 C2860 C 0.95660 0.35648 0.30662
 C2861 C 0.96453 0.33585 0.30009
 C2862 C 0.97542 0.33383 0.28022
 C2863 C 0.96067 0.31770 0.31343
 N2864 N 0.94966 0.32019 0.33206
 N2865 N 0.94212 0.33954 0.33817
 C2866 C 0.94511 0.35773 0.32608
 H2867 H 0.98585 0.35070 0.25156
 H2868 H 0.97251 0.38646 0.26296
 H2869 H 0.96601 0.30153 0.30907
 H2870 H 0.93821 0.37287 0.33167
 C2871 C 0.27070 0.85879 0.48176
 C2872 C 0.27835 0.87921 0.47548
 C2873 C 0.28593 0.88269 0.45453
 C2874 C 0.28617 0.86509 0.43968
 C2875 C 0.27812 0.84438 0.44595
 C2876 C 0.27018 0.84129 0.46722
 C2877 C 0.27948 0.82714 0.43100
 N2878 N 0.28797 0.83054 0.41121
 N2879 N 0.29557 0.84993 0.40538
 C2880 C 0.29513 0.86725 0.41896
 H2881 H 0.26510 0.85663 0.49813
 H2882 H 0.27834 0.89246 0.48706
 H2883 H 0.27448 0.81086 0.43492
 H2884 H 0.30220 0.88235 0.41349
 C2885 C 0.27336 0.35554 0.98175
 C2886 C 0.28132 0.37606 0.97625
 C2887 C 0.28456 0.38192 0.95466
 C2888 C 0.27936 0.36656 0.93827
 C2889 C 0.26933 0.34646 0.94378
 C2890 C 0.26723 0.34046 0.96591
 C2891 C 0.26253 0.33290 0.92674
 N2892 N 0.26686 0.33830 0.90603
 N2893 N 0.27782 0.35617 0.90106
 C2894 C 0.28453 0.37024 0.91644
 H2895 H 0.27184 0.35145 0.99867
 H2896 H 0.28519 0.38741 0.98906
 H2897 H 0.25413 0.31789 0.92929
 H2898 H 0.29411 0.38394 0.91136
 C2899 C 0.79880 0.40336 0.27345
 C2900 C 0.80580 0.38294 0.28029
 C2901 C 0.79132 0.36596 0.28434
 C2902 C 0.76932 0.36956 0.28012
 C2903 C 0.76214 0.39071 0.27401
 C2904 C 0.77704 0.40796 0.27148
 C2905 C 0.74034 0.39359 0.26958
 N2906 N 0.72670 0.37648 0.27123
 N2907 N 0.73343 0.35663 0.27673
 C2908 C 0.75424 0.35254 0.28104
 H2909 H 0.81054 0.41587 0.27021
 H2910 H 0.82272 0.38061 0.28294
 H2911 H 0.73410 0.40905 0.26419
 H2912 H 0.75881 0.33591 0.28459
   
