data_POSCAR
  _audit_creation_date              2014-09-24
  _audit_creation_method            'ToBaCCo'
  _symmetry_space_group_name_H-M    'P1'
  _symmetry_Int_Tables_number       1
  _symmetry_cell_setting            triclinic
  loop_
  _symmetry_equiv_pos_as_xyz
 x,y,z
_cell_length_a 79.6895
_cell_length_b 75.2263
_cell_length_c 76.6127
_cell_angle_alpha 90.056100
_cell_angle_beta 88.640100
_cell_angle_gamma 90.253900
loop_
  _atom_site_label
  _atom_site_type_symbol
  _atom_site_fract_x
  _atom_site_fract_y
  _atom_site_fract_z
C1 C 0.36514 0.32181 0.36427
 C2 C 0.35113 0.31955 0.37546
 C3 C 0.33736 0.33050 0.37397
 C4 C 0.33742 0.34389 0.36121
 C5 C 0.35127 0.34613 0.35020
 C6 C 0.36523 0.33499 0.35172
 C7 C 0.37996 0.31266 0.36238
 N8 N 0.38912 0.31992 0.34896
 C9 C 0.38017 0.33364 0.34239
 C10 C 0.34771 0.35978 0.33897
 N11 N 0.33200 0.36592 0.34281
 C12 C 0.32566 0.35622 0.35645
 C13 C 0.32563 0.32509 0.38637
 N14 N 0.33195 0.31114 0.39536
 C15 C 0.34757 0.30768 0.38870
 H16 H 0.38349 0.30114 0.36988
 H17 H 0.38412 0.34201 0.33156
 H18 H 0.35607 0.36489 0.32881
 H19 H 0.31323 0.35766 0.36226
 H20 H 0.31329 0.33077 0.38845
 H21 H 0.35588 0.29744 0.39326
 C22 C 0.37960 0.83024 -0.14579
 C23 C 0.36500 0.82695 -0.13569
 C24 C 0.35152 0.83848 -0.13638
 C25 C 0.35251 0.85358 -0.14722
 C26 C 0.36701 0.85676 -0.15690
 C27 C 0.38060 0.84518 -0.15609
 C28 C 0.39342 0.81998 -0.14997
 N29 N 0.40277 0.82834 -0.16274
 C30 C 0.39494 0.84397 -0.16622
 C31 C 0.36409 0.87071 -0.16779
 N32 N 0.34801 0.87637 -0.16526
 C33 C 0.34091 0.86601 -0.15240
 C34 C 0.33867 0.83106 -0.12644
 N35 N 0.34405 0.81540 -0.11966
 C36 C 0.36015 0.81284 -0.12536
 H37 H 0.39584 0.80701 -0.14456
 H38 H 0.39826 0.85310 -0.17664
 H39 H 0.37323 0.87605 -0.17704
 H40 H 0.32793 0.86644 -0.14796
 H41 H 0.32616 0.83644 -0.12477
 H42 H 0.36788 0.80154 -0.12227
 C43 C 0.85779 0.34159 -0.15493
 C44 C 0.84409 0.34095 -0.14302
 C45 C 0.83239 0.35450 -0.14288
 C46 C 0.83407 0.36871 -0.15457
 C47 C 0.84742 0.36926 -0.16626
 C48 C 0.85940 0.35569 -0.16635
 C49 C 0.87043 0.32979 -0.15918
 N50 N 0.87976 0.33635 -0.17297
 C51 C 0.87286 0.35229 -0.17728
 C52 C 0.84483 0.38332 -0.17730
 N53 N 0.83005 0.39140 -0.17274
 C54 C 0.82356 0.38246 -0.15860
 C55 C 0.81981 0.34991 -0.13124
 N56 N 0.82338 0.33381 -0.12426
 C57 C 0.83828 0.32824 -0.13135
 H58 H 0.87228 0.31724 -0.15267
 H59 H 0.87660 0.36074 -0.18809
 H60 H 0.85314 0.38690 -0.18809
 H61 H 0.81147 0.38472 -0.15232
 H62 H 0.80870 0.35768 -0.12830
 H63 H 0.84410 0.31556 -0.12882
 C64 C 0.86076 0.81547 0.32967
 C65 C 0.84659 0.81726 0.34073
 C66 C 0.83588 0.83136 0.33858
 C67 C 0.83909 0.84380 0.32535
 C68 C 0.85293 0.84206 0.31435
 C69 C 0.86398 0.82773 0.31661
 C70 C 0.87315 0.80289 0.32866
 N71 N 0.88409 0.80698 0.31525
 C72 C 0.87838 0.82230 0.30784
 C73 C 0.85220 0.85568 0.30233
 N74 N 0.83818 0.86567 0.30576
 C75 C 0.83024 0.85824 0.31997
 C76 C 0.82295 0.82954 0.35065
 N77 N 0.82546 0.81454 0.36011
 C78 C 0.83997 0.80696 0.35406
 H79 H 0.87394 0.79173 0.33746
 H80 H 0.88391 0.82907 0.29667
 H81 H 0.86132 0.85788 0.29188
 H82 H 0.81842 0.86230 0.32584
 H83 H 0.81250 0.83856 0.35234
 H84 H 0.84514 0.79457 0.35859
 C85 C 0.63391 0.68941 0.31205
 C86 C 0.64579 0.68955 0.32552
 C87 C 0.65828 0.67677 0.32554
 C88 C 0.65918 0.66375 0.31248
 C89 C 0.64751 0.66349 0.29958
 C90 C 0.63492 0.67633 0.29932
 C91 C 0.62077 0.70044 0.30746
 N92 N 0.61418 0.69430 0.29229
 C93 C 0.62273 0.67947 0.28749
 C94 C 0.65159 0.64979 0.28841
 N95 N 0.66564 0.64167 0.29415
 C96 C 0.67033 0.65021 0.30896
 C97 C 0.66819 0.67996 0.33956
 N98 N 0.66216 0.69427 0.34850
 C99 C 0.64849 0.70035 0.33989
 H100 H 0.61677 0.71236 0.31426
 H101 H 0.62041 0.67154 0.27598
 H102 H 0.64472 0.64611 0.27694
 H103 H 0.68131 0.64724 0.31643
 H104 H 0.67923 0.67243 0.34277
 H105 H 0.64091 0.71161 0.34385
 C106 C 0.65484 0.16418 -0.16395
 C107 C 0.66672 0.16690 -0.15105
 C108 C 0.68055 0.15598 -0.15020
 C109 C 0.68262 0.14210 -0.16229
 C110 C 0.67086 0.13940 -0.17500
 C111 C 0.65687 0.15066 -0.17594
 C112 C 0.64062 0.17329 -0.16809
 N113 N 0.63373 0.16580 -0.18249
 C114 C 0.64375 0.15184 -0.18732
 C115 C 0.67623 0.12519 -0.18491
 N116 N 0.69102 0.11903 -0.17862
 C117 C 0.69494 0.12954 -0.16474
 C118 C 0.69018 0.16217 -0.13677
 N119 N 0.68251 0.17662 -0.12951
 C120 C 0.66810 0.17950 -0.13820
 H121 H 0.63630 0.18508 -0.16133
 H122 H 0.64182 0.14300 -0.19822
 H123 H 0.66980 0.12022 -0.19619
 H124 H 0.70573 0.12813 -0.15657
 H125 H 0.70214 0.15684 -0.13295
 H126 H 0.65919 0.19000 -0.13543
 C127 C 0.12941 0.66795 -0.16355
 C128 C 0.14295 0.66979 -0.15226
 C129 C 0.15568 0.65727 -0.15236
 C130 C 0.15498 0.64260 -0.16381
 C131 C 0.14156 0.64090 -0.17470
 C132 C 0.12877 0.65353 -0.17454
 C133 C 0.11577 0.67847 -0.16718
 N134 N 0.10681 0.67070 -0.18020
 C135 C 0.11488 0.65532 -0.18458
 C136 C 0.14407 0.62610 -0.18476
 N137 N 0.15887 0.61835 -0.18056
 C138 C 0.16557 0.62847 -0.16754
 C139 C 0.16726 0.66287 -0.14038
 N140 N 0.16186 0.67839 -0.13299
 C141 C 0.14698 0.68262 -0.14027
 H142 H 0.11285 0.69089 -0.16073
 H143 H 0.11164 0.64631 -0.19496
 H144 H 0.13534 0.62151 -0.19435
 H145 H 0.17747 0.62626 -0.16144
 H146 H 0.17889 0.65622 -0.13756
 H147 H 0.13940 0.69410 -0.13699
 C148 C 0.13646 0.18800 0.35344
 C149 C 0.15006 0.18824 0.36452
 C150 C 0.16296 0.17620 0.36236
 C151 C 0.16224 0.16360 0.34880
 C152 C 0.14886 0.16361 0.33757
 C153 C 0.13582 0.17605 0.33987
 C154 C 0.12285 0.19890 0.35251
 N155 N 0.11365 0.19419 0.33848
 C156 C 0.12164 0.18013 0.33061
 C157 C 0.15185 0.15046 0.32539
 N158 N 0.16665 0.14221 0.32888
 C159 C 0.17301 0.15038 0.34325
 C160 C 0.17487 0.18057 0.37455
 N161 N 0.16939 0.19508 0.38363
 C162 C 0.15417 0.19967 0.37762
 H163 H 0.12057 0.21016 0.36100
 H164 H 0.11758 0.17325 0.31904
 H165 H 0.14344 0.14710 0.31502
 H166 H 0.18486 0.14748 0.34918
 H167 H 0.18689 0.17419 0.37616
 H168 H 0.14673 0.21080 0.38225
 C169 C 0.65074 0.32104 0.65025
 C170 C 0.66285 0.32112 0.63670
 C171 C 0.67620 0.33285 0.63709
 C172 C 0.67750 0.34490 0.65103
 C173 C 0.66548 0.34485 0.66437
 C174 C 0.65205 0.33272 0.66406
 C175 C 0.63728 0.31010 0.65379
 N176 N 0.63039 0.31457 0.66960
 C177 C 0.63934 0.32855 0.67590
 C178 C 0.67007 0.35761 0.67622
 N179 N 0.68460 0.36549 0.67049
 C180 C 0.68923 0.35765 0.65509
 C181 C 0.68646 0.32904 0.62282
 N182 N 0.67964 0.31524 0.61385
 C183 C 0.66512 0.31043 0.62231
 H184 H 0.63311 0.29940 0.64548
 H185 H 0.63736 0.33469 0.68856
 H186 H 0.66309 0.36101 0.68802
 H187 H 0.70044 0.36073 0.64743
 H188 H 0.69834 0.33543 0.61968
 H189 H 0.65680 0.29981 0.61845
 C190 C 0.62344 0.83784 1.14344
 C191 C 0.63745 0.83394 1.13255
 C192 C 0.65270 0.84227 1.13535
 C193 C 0.65420 0.85457 1.14901
 C194 C 0.64038 0.85844 1.15949
 C195 C 0.62498 0.85013 1.15663
 C196 C 0.60745 0.83075 1.14509
 N197 N 0.59927 0.83849 1.15905
 C198 C 0.61012 0.85050 1.16595
 C199 C 0.64546 0.86982 1.17230
 N200 N 0.66214 0.87302 1.17001
 C201 C 0.66761 0.86381 1.15568
 C202 C 0.66418 0.83534 1.12354
 N203 N 0.65636 0.82304 1.11350
 C204 C 0.63999 0.82212 1.11901
 H205 H 0.60252 0.82042 1.13683
 H206 H 0.60809 0.85820 1.17771
 H207 H 0.63755 0.87526 1.18265
 H208 H 0.68047 0.86333 1.15085
 H209 H 0.67739 0.83869 1.12274
 H210 H 0.63052 0.81350 1.11361
 C211 C 0.14129 0.35255 1.15101
 C212 C 0.15374 0.35472 1.13794
 C213 C 0.16734 0.36568 1.14084
 C214 C 0.16878 0.37445 1.15684
 C215 C 0.15660 0.37226 1.16978
 C216 C 0.14266 0.36129 1.16677
 C217 C 0.12731 0.34184 1.15224
 N218 N 0.11992 0.34382 1.16838
 C219 C 0.12942 0.35581 1.17727
 C220 C 0.16208 0.38114 1.18434
 N221 N 0.17730 0.38865 1.18050
 C222 C 0.18138 0.38462 1.16363
 C223 C 0.17826 0.36388 1.12684
 N224 N 0.17171 0.35200 1.11548
 C225 C 0.15664 0.34638 1.12215
 H226 H 0.12303 0.33331 1.14188
 H227 H 0.12753 0.35982 1.19072
 H228 H 0.15574 0.38143 1.19698
 H229 H 0.19279 0.38859 1.15672
 H230 H 0.19062 0.36984 1.12564
 H231 H 0.14867 0.33641 1.11635
 C232 C 0.14003 0.85481 0.66416
 C233 C 0.15228 0.85417 0.65068
 C234 C 0.16290 0.86853 0.64805
 C235 C 0.16177 0.88342 0.65890
 C236 C 0.15019 0.88386 0.67252
 C237 C 0.13900 0.86956 0.67498
 C238 C 0.12847 0.84260 0.67040
 N239 N 0.12029 0.84962 0.68459
 C240 C 0.12682 0.86607 0.68750
 C241 C 0.15418 0.89832 0.68275
 N242 N 0.16795 0.90666 0.67558
 C243 C 0.17237 0.89762 0.66077
 C244 C 0.17485 0.86371 0.63587
 N245 N 0.17203 0.84662 0.63104
 C246 C 0.15807 0.84070 0.63987
 H247 H 0.12646 0.82943 0.66514
 H248 H 0.12292 0.87504 0.69786
 H249 H 0.14790 0.90186 0.69492
 H250 H 0.18361 0.89983 0.65287
 H251 H 0.18535 0.87185 0.63147
 H252 H 0.15326 0.82723 0.63946
 C253 C 0.33935 0.66525 0.66313
 C254 C 0.32534 0.66334 0.65258
 C255 C 0.31379 0.64991 0.65581
 C256 C 0.31615 0.63816 0.66979
 C257 C 0.33000 0.64007 0.68017
 C258 C 0.34167 0.65369 0.67682
 C259 C 0.35230 0.67738 0.66324
 N260 N 0.36244 0.67351 0.67675
 C261 C 0.35597 0.65899 0.68511
 C262 C 0.32892 0.62727 0.69291
 N263 N 0.31469 0.61758 0.69066
 C264 C 0.30681 0.62419 0.67649
 C265 C 0.30136 0.65165 0.64372
 N266 N 0.30508 0.66585 0.63327
 C267 C 0.31975 0.67304 0.63875
 H268 H 0.35417 0.68820 0.65409
 H269 H 0.36097 0.65296 0.69669
 H270 H 0.33795 0.62518 0.70303
 H271 H 0.29494 0.61953 0.67163
 H272 H 0.29044 0.64315 0.64266
 H273 H 0.32578 0.68483 0.63346
 C274 C 0.36151 0.18615 1.17043
 C275 C 0.35053 0.18701 1.15651
 C276 C 0.33743 0.17513 1.15556
 C277 C 0.33519 0.16212 1.16847
 C278 C 0.34596 0.16115 1.18230
 C279 C 0.35933 0.17343 1.18338
 C280 C 0.37417 0.19726 1.17529
 N281 N 0.37984 0.19190 1.19097
 C282 C 0.37098 0.17719 1.19602
 C283 C 0.33987 0.14783 1.19315
 N284 N 0.32564 0.14070 1.18624
 C285 C 0.32290 0.14960 1.17107
 C286 C 0.32781 0.18021 1.14177
 N287 N 0.33479 0.19498 1.13429
 C288 C 0.34880 0.19913 1.14326
 H289 H 0.37859 0.20884 1.16812
 H290 H 0.37227 0.17037 1.20835
 H291 H 0.34527 0.14419 1.20544
 H292 H 0.31282 0.14731 1.16216
 H293 H 0.31606 0.17412 1.13818
 H294 H 0.35697 0.21040 1.14073
 C295 C 0.87155 0.68419 1.14229
 C296 C 0.85866 0.68286 1.13018
 C297 C 0.84665 0.66954 1.13177
 C298 C 0.84741 0.65730 1.14561
 C299 C 0.86008 0.65876 1.15755
 C300 C 0.87218 0.67222 1.15587
 C301 C 0.88505 0.69557 1.14389
 N302 N 0.89386 0.69071 1.15812
 C303 C 0.88594 0.67645 1.16552
 C304 C 0.85791 0.64537 1.16951
 N305 N 0.84425 0.63554 1.16523
 C306 C 0.83771 0.64282 1.15060
 C307 C 0.83576 0.67167 1.11818
 N308 N 0.84089 0.68590 1.10843
 C309 C 0.85488 0.69277 1.11578
 H310 H 0.88832 0.70638 1.13513
 H311 H 0.88973 0.66968 1.17723
 H312 H 0.86567 0.64320 1.18070
 H313 H 0.82686 0.63787 1.14387
 H314 H 0.82502 0.66333 1.11553
 H315 H 0.86172 0.70440 1.11122
 C316 C 0.83944 0.17846 0.65760
 C317 C 0.82861 0.18018 0.64373
 C318 C 0.81668 0.16736 0.64061
 C319 C 0.81551 0.15246 0.65162
 C320 C 0.82641 0.15061 0.66543
 C321 C 0.83867 0.16384 0.66842
 C322 C 0.85134 0.18978 0.66362
 N323 N 0.85826 0.18272 0.67808
 C324 C 0.85071 0.16658 0.68101
 C325 C 0.82161 0.13534 0.67426
 N326 N 0.80813 0.12805 0.66625
 C327 C 0.80443 0.13844 0.65237
 C328 C 0.80755 0.17324 0.62661
 N329 N 0.81379 0.18934 0.62145
 C330 C 0.82671 0.19355 0.63188
 H331 H 0.85489 0.20220 0.65741
 H332 H 0.85316 0.15783 0.69184
 H333 H 0.82714 0.13032 0.68603
 H334 H 0.79427 0.13612 0.64351
 H335 H 0.79695 0.16654 0.62092
 H336 H 0.83427 0.20551 0.63092
 C337 C 0.33261 0.33913 0.67943
 C338 C 0.33161 0.32671 0.66581
 C339 C 0.34462 0.31495 0.66286
 C340 C 0.35867 0.31527 0.67345
 C341 C 0.35966 0.32737 0.68695
 C342 C 0.34652 0.33951 0.68991
 C343 C 0.32165 0.35183 0.68566
 N344 N 0.32854 0.36013 0.69959
 C345 C 0.34377 0.35256 0.70226
 C346 C 0.37412 0.32357 0.69576
 N347 N 0.38183 0.30942 0.68791
 C348 C 0.37243 0.30443 0.67416
 C349 C 0.34005 0.30383 0.64959
 N350 N 0.32448 0.30841 0.64435
 C351 C 0.31925 0.32251 0.65417
 H352 H 0.30938 0.35447 0.68053
 H353 H 0.35239 0.35629 0.71234
 H354 H 0.37824 0.33011 0.70750
 H355 H 0.37516 0.29348 0.66539
 H356 H 0.34753 0.29305 0.64427
 H357 H 0.30711 0.32881 0.65341
 C358 C 0.30448 0.86120 0.15557
 C359 C 0.30392 0.84730 0.14338
 C360 C 0.31533 0.83350 0.14403
 C361 C 0.32762 0.83350 0.15696
 C362 C 0.32809 0.84728 0.16893
 C363 C 0.31642 0.86116 0.16828
 C364 C 0.29443 0.87579 0.15852
 N365 N 0.29984 0.88462 0.17289
 C366 C 0.31337 0.87567 0.17887
 C367 C 0.34085 0.84378 0.18013
 N368 N 0.34823 0.82813 0.17549
 C369 C 0.34019 0.82177 0.16124
 C370 C 0.31118 0.82165 0.13100
 N371 N 0.29753 0.82792 0.12260
 C372 C 0.29312 0.84364 0.13013
 H373 H 0.28386 0.87947 0.15074
 H374 H 0.32023 0.87895 0.19046
 H375 H 0.34451 0.85222 0.19083
 H376 H 0.34299 0.80936 0.15467
 H377 H 0.31736 0.80915 0.12823
 H378 H 0.28277 0.85192 0.12629
 C379 C 0.83220 0.35901 0.15255
 C380 C 0.83440 0.34546 0.14014
 C381 C 0.84770 0.33394 0.14143
 C382 C 0.85882 0.33556 0.15519
 C383 C 0.85662 0.34871 0.16764
 C384 C 0.84320 0.36068 0.16621
 C385 C 0.81997 0.37164 0.15489
 N386 N 0.82320 0.38105 0.16959
 C387 C 0.83738 0.37437 0.17663
 C388 C 0.86827 0.34567 0.18040
 N389 N 0.87723 0.33091 0.17594
 C390 C 0.87158 0.32486 0.16044
 C391 C 0.84597 0.32116 0.12880
 N392 N 0.83176 0.32444 0.11989
 C393 C 0.82467 0.33942 0.12672
 H394 H 0.80952 0.37384 0.14640
 H395 H 0.84286 0.37884 0.18866
 H396 H 0.86942 0.35299 0.19249
 H397 H 0.87604 0.31310 0.15366
 H398 H 0.85428 0.31000 0.12670
 H399 H 0.81277 0.34495 0.12300
 C400 C 0.82139 0.83027 0.65078
 C401 C 0.81991 0.81817 0.63688
 C402 C 0.83205 0.80530 0.63397
 C403 C 0.84603 0.80447 0.64488
 C404 C 0.84735 0.81643 0.65847
 C405 C 0.83499 0.82923 0.66151
 C406 C 0.81150 0.84403 0.65702
 N407 N 0.81884 0.85115 0.67132
 C408 C 0.83325 0.84215 0.67406
 C409 C 0.86189 0.81292 0.66690
 N410 N 0.86978 0.79914 0.65880
 C411 C 0.86009 0.79372 0.64534
 C412 C 0.82703 0.79532 0.61988
 N413 N 0.81219 0.80179 0.61408
 C414 C 0.80790 0.81586 0.62448
 H415 H 0.79970 0.84833 0.65174
 H416 H 0.84194 0.84490 0.68438
 H417 H 0.86628 0.81984 0.67833
 H418 H 0.86313 0.78300 0.63641
 H419 H 0.83367 0.78396 0.61456
 H420 H 0.79690 0.82407 0.62321
 C421 C 0.66173 0.63059 0.63872
 C422 C 0.66066 0.64486 0.62698
 C423 C 0.64697 0.65617 0.62779
 C424 C 0.63407 0.65328 0.64029
 C425 C 0.63498 0.63892 0.65143
 C426 C 0.64882 0.62761 0.65067
 C427 C 0.67446 0.61901 0.64275
 N428 N 0.66953 0.60926 0.65697
 C429 C 0.65373 0.61437 0.66165
 C430 C 0.62205 0.64027 0.66340
 N431 N 0.61332 0.65533 0.66019
 C432 C 0.62047 0.66329 0.64588
 C433 C 0.64974 0.66926 0.61549
 N434 N 0.66464 0.66604 0.60709
 C435 C 0.67145 0.65124 0.61419
 H436 H 0.68681 0.61866 0.63657
 H437 H 0.64647 0.60939 0.67272
 H438 H 0.61973 0.63125 0.67419
 H439 H 0.61691 0.67608 0.64071
 H440 H 0.64139 0.68014 0.61269
 H441 H 0.68349 0.64562 0.61045
 C442 C 0.66883 0.13973 0.16117
 C443 C 0.67195 0.15306 0.14877
 C444 C 0.66085 0.16695 0.14712
 C445 C 0.64640 0.16767 0.15792
 C446 C 0.64328 0.15448 0.17018
 C447 C 0.65463 0.14035 0.17181
 C448 C 0.67800 0.12526 0.16606
 N449 N 0.66976 0.11684 0.17944
 C450 C 0.65538 0.12605 0.18302
 C451 C 0.62877 0.15903 0.17919
 N452 N 0.62300 0.17464 0.17272
 C453 C 0.63375 0.17996 0.15967
 C454 C 0.66738 0.17808 0.13437
 N455 N 0.68216 0.17122 0.12826
 C456 C 0.68499 0.15588 0.13706
 H457 H 0.69016 0.12164 0.16061
 H458 H 0.64616 0.12277 0.19311
 H459 H 0.62292 0.15150 0.18973
 H460 H 0.63280 0.19219 0.15234
 H461 H 0.66189 0.19044 0.13015
 H462 H 0.69566 0.14722 0.13501
 C463 C 0.19121 0.63443 0.16770
 C464 C 0.19131 0.64428 0.15219
 C465 C 0.17952 0.65738 0.14989
 C466 C 0.16744 0.66080 0.16304
 C467 C 0.16728 0.65111 0.17839
 C468 C 0.17936 0.63778 0.18077
 C469 C 0.20169 0.62149 0.17364
 N470 N 0.19669 0.61681 0.19009
 C471 C 0.18295 0.62670 0.19454
 C472 C 0.15446 0.65782 0.18887
 N473 N 0.14693 0.67132 0.18023
 C474 C 0.15485 0.67315 0.16442
 C475 C 0.18325 0.66549 0.13417
 N476 N 0.19708 0.65764 0.12685
 C477 C 0.20203 0.64459 0.13784
 H478 H 0.21224 0.61592 0.16639
 H479 H 0.17633 0.62629 0.20703
 H480 H 0.15115 0.65344 0.20196
 H481 H 0.15165 0.68271 0.15450
 H482 H 0.17677 0.67682 0.12889
 H483 H 0.21279 0.63607 0.13575
 C484 C 0.16610 0.13446 0.67865
 C485 C 0.16686 0.14812 0.66626
 C486 C 0.15388 0.16024 0.66512
 C487 C 0.13978 0.15872 0.67651
 C488 C 0.13906 0.14496 0.68850
 C489 C 0.15223 0.13287 0.68960
 C490 C 0.17784 0.12250 0.68427
 N491 N 0.17140 0.11377 0.69848
 C492 C 0.15563 0.11998 0.70166
 C493 C 0.12527 0.14752 0.69913
 N494 N 0.11746 0.16262 0.69420
 C495 C 0.12612 0.16953 0.68021
 C496 C 0.15886 0.17267 0.65274
 N497 N 0.17445 0.16828 0.64645
 C498 C 0.17933 0.15328 0.65473
 H499 H 0.19055 0.12124 0.67914
 H500 H 0.14740 0.11601 0.71240
 H501 H 0.12158 0.13931 0.71017
 H502 H 0.12333 0.18204 0.67396
 H503 H 0.15186 0.18430 0.64898
 H504 H 0.19116 0.14652 0.65256
 C505 C 0.32653 0.65109 0.34912
 C506 C 0.32308 0.66504 0.36069
 C507 C 0.33242 0.68053 0.35985
 C508 C 0.34541 0.68224 0.34726
 C509 C 0.34879 0.66842 0.33577
 C510 C 0.33926 0.65269 0.33670
 C511 C 0.31878 0.63503 0.34658
 N512 N 0.32648 0.62660 0.33290
 C513 C 0.33908 0.63738 0.32678
 C514 C 0.36147 0.67405 0.32460
 N515 N 0.36597 0.69091 0.32902
 C516 C 0.35615 0.69599 0.34291
 C517 C 0.32575 0.69191 0.37227
 N518 N 0.31260 0.68362 0.38055
 C519 C 0.31097 0.66715 0.37351
 H520 H 0.30781 0.63027 0.35377
 H521 H 0.34740 0.63448 0.31579
 H522 H 0.36665 0.66653 0.31371
 H523 H 0.35672 0.70874 0.34941
 H524 H 0.32991 0.70537 0.37476
 H525 H 0.30168 0.65732 0.37745
 C526 C 0.34794 0.13989 0.86076
 C527 C 0.34698 0.15104 0.87531
 C528 C 0.35707 0.16590 0.87622
 C529 C 0.36877 0.16946 0.86269
 C530 C 0.36981 0.15838 0.84822
 C531 C 0.35909 0.14352 0.84710
 C532 C 0.33717 0.12693 0.85536
 N533 N 0.34127 0.12253 0.83868
 C534 C 0.35481 0.13241 0.83345
 C535 C 0.38135 0.16592 0.83673
 N536 N 0.38744 0.18112 0.84394
 C537 C 0.37964 0.18341 0.85975
 C538 C 0.35105 0.17595 0.89007
 N539 N 0.33748 0.16751 0.89747
 C540 C 0.33521 0.15208 0.88856
 H541 H 0.32618 0.12212 0.86252
 H542 H 0.36001 0.13276 0.82027
 H543 H 0.38480 0.16083 0.82393
 H544 H 0.38182 0.19433 0.86863
 H545 H 0.35536 0.18915 0.89338
 H546 H 0.32514 0.14262 0.89074
 C547 C 0.82625 0.64745 0.83214
 C548 C 0.82774 0.66043 0.84530
 C549 C 0.83963 0.67382 0.84340
 C550 C 0.85019 0.67447 0.82853
 C551 C 0.84877 0.66171 0.81575
 C552 C 0.83674 0.64821 0.81753
 C553 C 0.81570 0.63302 0.82989
 N554 N 0.81959 0.62515 0.81426
 C555 C 0.83245 0.63451 0.80671
 C556 C 0.86064 0.66541 0.80298
 N557 N 0.86930 0.68024 0.80759
 C558 C 0.86288 0.68587 0.82327
 C559 C 0.83827 0.68460 0.85781
 N560 N 0.82588 0.67821 0.86860
 C561 C 0.81933 0.66342 0.86100
 H562 H 0.80595 0.62866 0.83899
 H563 H 0.83805 0.63200 0.79396
 H564 H 0.86295 0.65752 0.79136
 H565 H 0.86696 0.69749 0.83037
 H566 H 0.84561 0.69649 0.86001
 H567 H 0.80928 0.65530 0.86647
 C568 C 0.83448 0.14295 0.32043
 C569 C 0.83255 0.15638 0.33304
 C570 C 0.84419 0.17006 0.33384
 C571 C 0.85793 0.17050 0.32201
 C572 C 0.85983 0.15715 0.30974
 C573 C 0.84809 0.14334 0.30898
 C574 C 0.82458 0.12877 0.31568
 N575 N 0.83190 0.12059 0.30159
 C576 C 0.84638 0.12945 0.29757
 C577 C 0.87348 0.16136 0.29931
 N578 N 0.87999 0.17704 0.30481
 C579 C 0.87059 0.18269 0.31880
 C580 C 0.83885 0.18141 0.34690
 N581 N 0.82429 0.17495 0.35412
 C582 C 0.82036 0.15966 0.34563
 H583 H 0.81256 0.12524 0.32161
 H584 H 0.85504 0.12628 0.28694
 H585 H 0.87815 0.15363 0.28832
 H586 H 0.87236 0.19512 0.32567
 H587 H 0.84498 0.19366 0.35060
 H588 H 0.80951 0.15136 0.34847
 C589 C 0.67122 0.37156 0.33770
 C590 C 0.67270 0.35826 0.35041
 C591 C 0.65908 0.34748 0.35442
 C592 C 0.64394 0.34968 0.34588
 C593 C 0.64248 0.36253 0.33316
 C594 C 0.65625 0.37367 0.32912
 C595 C 0.68258 0.38341 0.33045
 N596 N 0.67491 0.39276 0.31773
 C597 C 0.65880 0.38680 0.31683
 C598 C 0.62700 0.36009 0.32576
 N599 N 0.61914 0.34613 0.33384
 C600 C 0.62947 0.33978 0.34617
 C601 C 0.66426 0.33477 0.36584
 N602 N 0.68079 0.33739 0.36890
 C603 C 0.68607 0.35186 0.35963
 H604 H 0.69563 0.38471 0.33388
 H605 H 0.64954 0.39162 0.30791
 H606 H 0.62211 0.36746 0.31489
 H607 H 0.62708 0.32804 0.35403
 H608 H 0.65662 0.32405 0.37117
 H609 H 0.69886 0.35677 0.35892
 C610 C 0.66530 0.83911 0.82820
 C611 C 0.66396 0.82938 0.84392
 C612 C 0.65168 0.81641 0.84576
 C613 C 0.64078 0.81280 0.83218
 C614 C 0.64204 0.82228 0.81683
 C615 C 0.65436 0.83553 0.81483
 C616 C 0.67595 0.85246 0.82226
 N617 N 0.67170 0.85698 0.80571
 C618 C 0.65847 0.84663 0.80118
 C619 C 0.63006 0.81560 0.80589
 N620 N 0.62165 0.80224 0.81431
 C621 C 0.62814 0.80052 0.83044
 C622 C 0.65319 0.80882 0.86186
 N623 N 0.66608 0.81675 0.87016
 C624 C 0.67285 0.82933 0.85925
 H625 H 0.68618 0.85822 0.82941
 H626 H 0.65205 0.84724 0.78891
 H627 H 0.62793 0.81987 0.79264
 H628 H 0.62396 0.79106 0.84027
 H629 H 0.64567 0.79789 0.86694
 H630 H 0.68342 0.83781 0.86219
 C631 C 0.15660 0.33443 0.84617
 C632 C 0.15803 0.32175 0.85945
 C633 C 0.14598 0.30863 0.86142
 C634 C 0.13246 0.30784 0.85011
 C635 C 0.13108 0.32020 0.83693
 C636 C 0.14322 0.33371 0.83502
 C637 C 0.16675 0.34830 0.84079
 N638 N 0.15985 0.35619 0.82669
 C639 C 0.14543 0.34725 0.82311
 C640 C 0.11752 0.31521 0.82717
 N641 N 0.11068 0.30009 0.83414
 C642 C 0.11976 0.29566 0.84828
 C643 C 0.15094 0.29760 0.87456
 N644 N 0.16581 0.30361 0.88067
 C645 C 0.17020 0.31848 0.87151
 H646 H 0.17854 0.35197 0.84653
 H647 H 0.13702 0.35031 0.81267
 H648 H 0.11350 0.32168 0.81539
 H649 H 0.11758 0.28421 0.85657
 H650 H 0.14423 0.28592 0.87918
 H651 H 0.18170 0.32597 0.87299
 C652 C 0.17315 0.85607 0.34978
 C653 C 0.17011 0.84189 0.36128
 C654 C 0.15763 0.82967 0.35791
 C655 C 0.14795 0.83151 0.34298
 C656 C 0.15091 0.84550 0.33159
 C657 C 0.16366 0.85791 0.33502
 C658 C 0.18493 0.86944 0.34953
 N659 N 0.18299 0.87941 0.33493
 C660 C 0.16993 0.87243 0.32599
 C661 C 0.13999 0.84352 0.31804
 N662 N 0.13048 0.82868 0.32092
 C663 C 0.13538 0.82128 0.33617
 C664 C 0.15800 0.81700 0.37085
 N665 N 0.17046 0.82122 0.38199
 C666 C 0.17791 0.83647 0.37615
 H667 H 0.19427 0.87167 0.35934
 H668 H 0.16560 0.87718 0.31356
 H669 H 0.13905 0.85231 0.30694
 H670 H 0.13051 0.80904 0.34175
 H671 H 0.14984 0.80550 0.37197
 H672 H 0.18863 0.84289 0.38191
 O673 O 0.25952 1.03404 0.24769
 O674 O 0.23027 1.00046 0.26570
 O675 O 0.23398 1.03473 0.26946
 O676 O 0.25575 0.99962 0.24390
 O677 O 0.27326 0.99577 0.26544
 O678 O 0.25085 1.02989 0.29134
 O679 O 0.24764 0.99541 0.28712
 O680 O 0.27647 1.02992 0.26965
 Cu681 Cu 0.24320 1.01768 0.25450
 Cu682 Cu 0.26371 1.01229 0.28060
 C683 C 0.27289 1.03790 0.25563
 C684 C 0.23407 0.99198 0.27936
 C685 C 0.23874 1.03835 0.28479
 C686 C 0.26825 0.99171 0.25033
 O687 O 0.24294 0.50497 0.78544
 O688 O 0.26298 0.46924 0.75964
 O689 O 0.26217 0.50397 0.75758
 O690 O 0.24212 0.47018 0.78637
 O691 O 0.22054 0.46926 0.76887
 O692 O 0.24039 0.50264 0.74034
 O693 O 0.24132 0.46844 0.74224
 O694 O 0.22123 0.50416 0.76814
 Cu695 Cu 0.25472 0.48716 0.77400
 Cu696 Cu 0.22863 0.48601 0.75329
 C697 C 0.22876 0.51088 0.78106
 C698 C 0.25566 0.46278 0.74651
 C699 C 0.25464 0.50902 0.74399
 C700 C 0.22793 0.46379 0.78232
 O701 O 0.75324 -0.02824 0.26168
 O702 O 0.73220 0.00577 0.23584
 O703 O 0.73352 -0.02886 0.23515
 O704 O 0.75208 0.00611 0.26219
 O705 O 0.77385 0.00734 0.24388
 O706 O 0.75540 -0.02784 0.21698
 O707 O 0.75395 0.00656 0.21749
 O708 O 0.77520 -0.02738 0.24363
 Cu709 Cu 0.74054 -0.01146 0.25050
 Cu710 Cu 0.76684 -0.01023 0.22871
 C711 C 0.76780 -0.03360 0.25720
 C712 C 0.73947 0.01202 0.22224
 C713 C 0.74121 -0.03431 0.22146
 C714 C 0.76615 0.01278 0.25757
 O715 O 0.77076 0.47966 0.69679
 O716 O 0.79160 0.51660 0.71957
 O717 O 0.79363 0.48217 0.72044
 O718 O 0.76972 0.51413 0.69470
 O719 O 0.74958 0.51385 0.71496
 O720 O 0.77375 0.48239 0.74097
 O721 O 0.77131 0.51669 0.73965
 O722 O 0.75096 0.47924 0.71742
 Cu723 Cu 0.78343 0.49819 0.70583
 Cu724 Cu 0.75934 0.49803 0.73023
 C725 C 0.75732 0.47304 0.70334
 C726 C 0.78508 0.52289 0.73357
 C727 C 0.78787 0.47691 0.73515
 C728 C 0.75551 0.51941 0.70040
 O729 O 0.23875 0.47582 0.26781
 O730 O 0.26421 0.50865 0.29093
 O731 O 0.26196 0.47400 0.29111
 O732 O 0.24089 0.51028 0.26815
 O733 O 0.22143 0.51144 0.28910
 O734 O 0.24258 0.47512 0.31211
 O735 O 0.24497 0.50973 0.31209
 O736 O 0.21921 0.47708 0.28866
 Cu737 Cu 0.25341 0.49199 0.27742
 Cu738 Cu 0.23015 0.49340 0.30266
 C739 C 0.22455 0.47102 0.27408
 C740 C 0.25886 0.51497 0.30537
 C741 C 0.25590 0.46836 0.30556
 C742 C 0.22758 0.51708 0.27467
 O743 O 0.74776 1.00588 0.75820
 O744 O 0.76979 0.96956 0.73380
 O745 O 0.77316 1.00418 0.73580
 O746 O 0.74920 0.97135 0.76100
 O747 O 0.73008 0.97016 0.74069
 O748 O 0.75305 1.00625 0.71664
 O749 O 0.75123 0.97229 0.71305
 O750 O 0.72821 1.00528 0.73828
 Cu751 Cu 0.76191 0.98770 0.74911
 Cu752 Cu 0.73872 0.98811 0.72558
 C753 C 0.73393 1.01157 0.75228
 C754 C 0.76423 0.96504 0.71892
 C755 C 0.76726 1.01124 0.72228
 C756 C 0.73565 0.96503 0.75533
 O757 O 0.78420 0.50133 0.24417
 O758 O 0.75817 0.53472 0.26658
 O759 O 0.76130 0.50049 0.26901
 O760 O 0.77963 0.53535 0.24028
 O761 O 0.75952 0.53065 0.22148
 O762 O 0.74120 0.49629 0.25012
 O763 O 0.73816 0.53065 0.24752
 O764 O 0.76409 0.49637 0.22544
 Cu765 Cu 0.77285 0.51843 0.25686
 Cu766 Cu 0.74877 0.51303 0.23422
 C767 C 0.77859 0.49296 0.23115
 C768 C 0.74377 0.53846 0.26092
 C769 C 0.74802 0.49246 0.26443
 C770 C 0.77257 0.53902 0.22600
 O771 O 0.25425 -0.02055 0.74929
 O772 O 0.28705 0.00936 0.76530
 O773 O 0.27903 -0.02380 0.77091
 O774 O 0.26208 0.01216 0.74420
 O775 O 0.24472 0.01920 0.76597
 O776 O 0.26253 -0.01599 0.79311
 O777 O 0.26980 0.01758 0.78676
 O778 O 0.23760 -0.01373 0.77174
 Cu779 Cu 0.27237 -0.00659 0.75531
 Cu780 Cu 0.25208 0.00250 0.78174
 C781 C 0.24026 -0.02199 0.75749
 C782 C 0.28379 0.01895 0.77856
 C783 C 0.27379 -0.02603 0.78655
 C784 C 0.25019 0.02160 0.75042
 O785 O 0.25181 0.27977 0.99167
 O786 O 0.27074 0.25593 1.02853
 O787 O 0.27745 0.25869 0.99534
 O788 O 0.24599 0.27833 1.02518
 O789 O 0.22912 0.25537 1.02141
 O790 O 0.26044 0.23598 0.99096
 O791 O 0.25384 0.23318 1.02396
 O792 O 0.23491 0.25686 0.98785
 Cu793 Cu 0.26317 0.27050 1.01064
 Cu794 Cu 0.24285 0.24310 1.00561
 C795 C 0.24005 0.27223 0.98345
 C796 C 0.26564 0.24032 1.03233
 C797 C 0.27436 0.24391 0.98808
 C798 C 0.23223 0.27030 1.02843
 O799 O 0.24134 0.78291 0.49859
 O800 O 0.26530 0.75615 0.52910
 O801 O 0.26673 0.76158 0.49588
 O802 O 0.23943 0.77713 0.53199
 O803 O 0.22169 0.75511 0.52744
 O804 O 0.24975 0.73868 0.49226
 O805 O 0.24760 0.73376 0.52608
 O806 O 0.22448 0.76015 0.49384
 Cu807 Cu 0.25488 0.77172 0.51439
 Cu808 Cu 0.23415 0.74460 0.50957
 C809 C 0.22903 0.77609 0.49075
 C810 C 0.26064 0.74043 0.53281
 C811 C 0.26287 0.74740 0.48789
 C812 C 0.22581 0.76901 0.53574
 O813 O 0.26869 0.74364 -0.02536
 O814 O 0.24631 0.71683 0.00849
 O815 O 0.24723 0.71707 -0.02568
 O816 O 0.26919 0.74148 0.00847
 O817 O 0.24836 0.76064 0.01054
 O818 O 0.22730 0.73732 -0.02575
 O819 O 0.22546 0.73601 0.00825
 O820 O 0.24866 0.76372 -0.02336
 Cu821 Cu 0.25985 0.72775 -0.00872
 Cu822 Cu 0.23542 0.75138 -0.00754
 C823 C 0.26260 0.75853 -0.02980
 C824 C 0.23196 0.72194 0.01409
 C825 C 0.23362 0.72294 -0.03167
 C826 C 0.26252 0.75504 0.01557
 O827 O 0.26023 0.25663 0.50352
 O828 O 0.23414 0.23286 0.53669
 O829 O 0.23870 0.23049 0.50294
 O830 O 0.25740 0.25687 0.53756
 O831 O 0.23735 0.27689 0.53589
 O832 O 0.21951 0.25118 0.49947
 O833 O 0.21401 0.25252 0.53329
 O834 O 0.24071 0.27726 0.50210
 Cu835 Cu 0.24959 0.24221 0.52041
 Cu836 Cu 0.22587 0.26643 0.51746
 C837 C 0.25489 0.27117 0.49726
 C838 C 0.21956 0.23869 0.54059
 C839 C 0.22611 0.23641 0.49504
 C840 C 0.25060 0.27115 0.54289
 O841 O 0.74943 0.77332 0.97678
 O842 O 0.76769 0.74629 1.01113
 O843 O 0.76675 0.74435 0.97716
 O844 O 0.74773 0.77388 1.01096
 O845 O 0.72527 0.75666 1.01190
 O846 O 0.74386 0.72774 0.97824
 O847 O 0.74512 0.72924 1.01240
 O848 O 0.72646 0.75682 0.97774
 Cu849 Cu 0.76015 0.76113 0.99401
 Cu850 Cu 0.73293 0.74095 0.99521
 C851 C 0.73501 0.76960 0.97112
 C852 C 0.75973 0.73316 1.01764
 C853 C 0.75830 0.73113 0.97171
 C854 C 0.73317 0.77019 1.01723
 O855 O 0.74371 0.26565 0.49860
 O856 O 0.76783 0.24189 0.46404
 O857 O 0.76275 0.23767 0.49740
 O858 O 0.74730 0.26849 0.46471
 O859 O 0.76903 0.28630 0.46822
 O860 O 0.78366 0.25611 0.50270
 O861 O 0.78957 0.25927 0.46898
 O862 O 0.76499 0.28417 0.50177
 Cu863 Cu 0.75322 0.25167 0.48075
 Cu864 Cu 0.77906 0.27317 0.48579
 C865 C 0.75026 0.27907 0.50600
 C866 C 0.78293 0.24654 0.46069
 C867 C 0.77564 0.24177 0.50591
 C868 C 0.75544 0.28248 0.46067
 O869 O 0.75260 0.27329 0.01218
 O870 O 0.73485 0.24302 -0.02032
 O871 O 0.72938 0.24870 0.01289
 O872 O 0.75790 0.26725 -0.02086
 O873 O 0.77703 0.24725 -0.01465
 O874 O 0.74843 0.22866 0.01920
 O875 O 0.75374 0.22278 -0.01411
 O876 O 0.77152 0.25309 0.01840
 Cu877 Cu 0.74174 0.26007 -0.00461
 Cu878 Cu 0.76456 0.23588 0.00285
 C879 C 0.76517 0.26838 0.02081
 C880 C 0.74133 0.22783 -0.02293
 C881 C 0.73407 0.23554 0.02189
 C882 C 0.77230 0.26047 -0.02357
 O883 O 0.77450 0.72652 0.46403
 O884 O 0.74721 0.70189 0.49445
 O885 O 0.74781 0.70663 0.46090
 O886 O 0.77257 0.72347 0.49757
 O887 O 0.75571 0.74658 0.49990
 O888 O 0.73094 0.72972 0.46308
 O889 O 0.73031 0.72493 0.49717
 O890 O 0.75771 0.74974 0.46580
 Cu891 Cu 0.76214 0.71233 0.47897
 Cu892 Cu 0.74196 0.74006 0.48168
 C893 C 0.77094 0.74230 0.45976
 C894 C 0.73425 0.70909 0.50119
 C895 C 0.73515 0.71522 0.45571
 C896 C 0.76836 0.73796 0.50501
 O897 O 1.01816 0.29859 0.25906
 O898 O 0.98645 0.27087 0.28135
 O899 O 1.01889 0.26940 0.27749
 O900 O 0.98531 0.29839 0.26085
 O901 O 0.98394 0.28095 0.23773
 O902 O 1.01745 0.25285 0.25377
 O903 O 0.98499 0.25372 0.25805
 O904 O 1.01675 0.28184 0.23550
 Cu905 Cu 1.00242 0.28605 0.27200
 Cu906 Cu 1.00065 0.26571 0.24389
 C907 C 1.02301 0.29499 0.24358
 C908 C 0.98022 0.25761 0.27355
 C909 C 1.02386 0.25614 0.26841
 C910 C 0.97864 0.29418 0.24648
 O911 O 0.52656 0.27715 0.76392
 O912 O 0.49313 0.24945 0.78481
 O913 O 0.52578 0.25139 0.78668
 O914 O 0.49397 0.27658 0.76370
 O915 O 0.49487 0.25711 0.74214
 O916 O 0.52823 0.23254 0.76472
 O917 O 0.49577 0.23008 0.76328
 O918 O 0.52774 0.25812 0.74201
 Cu919 Cu 0.50969 0.26552 0.77698
 Cu920 Cu 0.51181 0.24261 0.75081
 C921 C 0.53285 0.27223 0.74928
 C922 C 0.48888 0.23491 0.77758
 C923 C 0.53261 0.23784 0.77972
 C924 C 0.48881 0.27113 0.74912
 O925 O 0.00465 0.23838 0.77534
 O926 O -0.02835 0.21069 0.75578
 O927 O 0.00433 0.21461 0.75095
 O928 O -0.02780 0.23552 0.77956
 O929 O -0.03085 0.25654 0.75984
 O930 O 0.00014 0.23487 0.73072
 O931 O -0.03238 0.23185 0.73643
 O932 O 0.00121 0.25888 0.75517
 Cu933 Cu -0.01143 0.22264 0.76734
 Cu934 Cu -0.01586 0.24750 0.74344
 C935 C 0.00860 0.25330 0.76860
 C936 C -0.03634 0.21686 0.74300
 C937 C 0.00793 0.22134 0.73610
 C938 C -0.03466 0.24983 0.77461
 O939 O 0.52387 0.24634 0.23762
 O940 O 0.49159 0.27612 0.25676
 O941 O 0.52425 0.27697 0.25354
 O942 O 0.49103 0.24636 0.24039
 O943 O 0.49288 0.23146 0.26510
 O944 O 0.52543 0.26339 0.27899
 O945 O 0.49291 0.26155 0.28167
 O946 O 0.52571 0.23268 0.26295
 Cu947 Cu 0.50762 0.26281 0.24452
 Cu948 Cu 0.50949 0.24582 0.27467
 C949 C 0.53043 0.23450 0.24710
 C950 C 0.48651 0.27367 0.27244
 C951 C 0.53039 0.27561 0.26860
 C952 C 0.48602 0.23398 0.25051
 O953 O 1.01333 0.78447 0.74214
 O954 O 0.97930 0.76444 0.76888
 O955 O 1.01190 0.76460 0.76963
 O956 O 0.98062 0.78439 0.74102
 O957 O 0.98106 0.76050 0.72428
 O958 O 1.01249 0.74070 0.75292
 O959 O 0.97974 0.74076 0.75182
 O960 O 1.01381 0.76080 0.72510
 Cu961 Cu 0.99617 0.77689 0.75706
 Cu962 Cu 0.99691 0.74828 0.73686
 C963 C 1.01947 0.77604 0.72914
 C964 C 0.97364 0.74921 0.76483
 C965 C 1.01762 0.74925 0.76611
 C966 C 0.97538 0.77585 0.72788
 O967 O 0.49366 0.77655 0.22103
 O968 O 0.46424 0.75279 0.25133
 O969 O 0.49637 0.75880 0.25018
 O970 O 0.46078 0.77328 0.22435
 O971 O 0.46260 0.74915 0.20805
 O972 O 0.49959 0.73520 0.23330
 O973 O 0.46744 0.72873 0.23512
 O974 O 0.49509 0.75256 0.20452
 Cu975 Cu 0.47852 0.76781 0.23826
 Cu976 Cu 0.48137 0.73905 0.21863
 C977 C 0.49948 0.76843 0.20760
 C978 C 0.46107 0.73647 0.24838
 C979 C 0.50410 0.74461 0.24623
 C980 C 0.45534 0.76369 0.21208
 O981 O 0.02699 0.74307 0.27319
 O982 O -0.00106 0.71823 0.24460
 O983 O 0.03070 0.71672 0.25134
 O984 O -0.00478 0.74460 0.26616
 O985 O 0.00116 0.76395 0.24528
 O986 O 0.03604 0.73550 0.22981
 O987 O 0.00375 0.73766 0.22348
 O988 O 0.03310 0.76179 0.25180
 Cu989 Cu 0.01244 0.72877 0.26095
 Cu990 Cu 0.01912 0.75159 0.23542
 C991 C 0.03494 0.75659 0.26742
 C992 C -0.00373 0.72385 0.22931
 C993 C 0.03945 0.72134 0.23802
 C994 C -0.00792 0.75902 0.25826
 O995 O 0.47909 0.75523 0.74888
 O996 O 0.50671 0.73588 0.71455
 O997 O 0.47494 0.73248 0.72354
 O998 O 0.51019 0.75920 0.73925
 O999 O 0.51635 0.73785 0.75773
 O1000 O 0.48175 0.71055 0.74106
 O1001 O 0.51341 0.71472 0.73301
 O1002 O 0.48495 0.73301 0.76652
 Cu1003 Cu 0.49199 0.74783 0.72970
 Cu1004 Cu 0.49975 0.72183 0.75135
 C1005 C 0.47734 0.74742 0.76353
 C1006 C 0.51510 0.72210 0.71818
 C1007 C 0.47230 0.71696 0.72955
 C1008 C 0.51926 0.75315 0.75126
 C1009 C 0.41002 0.31597 0.32476
 C1010 C 0.42504 0.30862 0.31812
 C1011 C 0.43533 0.29865 0.32923
 C1012 C 0.43068 0.29662 0.34686
 C1013 C 0.41574 0.30396 0.35336
 C1014 C 0.40510 0.31346 0.34237
 C1015 C 0.44993 0.29058 0.32250
 C1016 C 0.45434 0.29224 0.30475
 C1017 C 0.44432 0.30257 0.29370
 C1018 C 0.42975 0.31074 0.30046
 C1019 C 0.44888 0.30423 0.27597
 C1020 C 0.46293 0.29530 0.26916
 C1021 C 0.47266 0.28453 0.27993
 C1022 C 0.46842 0.28334 0.29782
 H1023 H 0.40193 0.32310 0.31607
 H1024 H 0.43851 0.28917 0.35560
 H1025 H 0.41251 0.30214 0.36703
 H1026 H 0.45767 0.28273 0.33101
 H1027 H 0.42193 0.31846 0.29192
 H1028 H 0.44140 0.31216 0.26732
 H1029 H 0.46591 0.29645 0.25534
 H1030 H 0.47587 0.27517 0.30631
 C1031 C 0.41987 0.80317 0.82820
 C1032 C 0.43171 0.79583 0.81643
 C1033 C 0.44034 0.80694 0.80435
 C1034 C 0.43761 0.82526 0.80477
 C1035 C 0.42571 0.83246 0.81633
 C1036 C 0.41610 0.82151 0.82778
 C1037 C 0.45128 0.79956 0.79177
 C1038 C 0.45364 0.78113 0.79104
 C1039 C 0.44548 0.77002 0.80350
 C1040 C 0.43457 0.77744 0.81614
 C1041 C 0.44819 0.75163 0.80295
 C1042 C 0.45870 0.74429 0.79002
 C1043 C 0.46645 0.75520 0.77730
 C1044 C 0.46393 0.77364 0.77793
 H1045 H 0.41297 0.79425 0.83681
 H1046 H 0.44441 0.83403 0.79585
 H1047 H 0.42408 0.84670 0.81608
 H1048 H 0.45769 0.80810 0.78233
 H1049 H 0.42807 0.76887 0.82549
 H1050 H 0.44212 0.74291 0.81244
 H1051 H 0.46055 0.73004 0.78978
 H1052 H 0.47008 0.78215 0.76829
 C1053 C -0.10216 0.31061 0.82240
 C1054 C -0.08917 0.30212 0.81290
 C1055 C -0.08067 0.31130 0.79924
 C1056 C -0.08495 0.32885 0.79558
 C1057 C -0.09779 0.33722 0.80504
 C1058 C -0.10696 0.32824 0.81844
 C1059 C -0.06810 0.30280 0.78932
 C1060 C -0.06385 0.28516 0.79286
 C1061 C -0.07203 0.27597 0.80674
 C1062 C -0.08467 0.28451 0.81668
 C1063 C -0.06748 0.25837 0.81031
 C1064 C -0.05513 0.24989 0.80006
 C1065 C -0.04723 0.25883 0.78599
 C1066 C -0.05161 0.27653 0.78258
 H1067 H -0.10864 0.30312 0.83254
 H1068 H -0.07839 0.33615 0.78529
 H1069 H -0.10029 0.35084 0.80163
 H1070 H -0.06173 0.30987 0.77873
 H1071 H -0.09108 0.27741 0.82722
 H1072 H -0.07355 0.25112 0.82093
 H1073 H -0.05197 0.23624 0.80295
 H1074 H -0.04548 0.28364 0.77188
 C1075 C -0.09042 0.80378 0.29726
 C1076 C -0.07614 0.79391 0.29223
 C1077 C -0.07310 0.77735 0.30019
 C1078 C -0.08433 0.77092 0.31297
 C1079 C -0.09847 0.78071 0.31791
 C1080 C -0.10190 0.79738 0.31023
 C1081 C -0.05892 0.76742 0.29522
 C1082 C -0.04769 0.77381 0.28231
 C1083 C -0.05066 0.79039 0.27432
 C1084 C -0.06484 0.80036 0.27935
 C1085 C -0.03944 0.79665 0.26134
 C1086 C -0.02548 0.78653 0.25623
 C1087 C -0.02244 0.76998 0.26405
 C1088 C -0.03360 0.76377 0.27719
 H1089 H -0.09226 0.81649 0.29109
 H1090 H -0.08221 0.75819 0.31915
 H1091 H -0.10672 0.77479 0.32765
 H1092 H -0.05666 0.75469 0.30136
 H1093 H -0.06711 0.81307 0.27319
 H1094 H -0.04150 0.80933 0.25506
 H1095 H -0.01710 0.79165 0.24608
 H1096 H -0.03147 0.75102 0.28331
 C1097 C 0.58719 0.71061 0.29006
 C1098 C 0.57365 0.71626 0.27991
 C1099 C 0.57412 0.71338 0.26163
 C1100 C 0.58826 0.70559 0.25372
 C1101 C 0.60158 0.70010 0.26381
 C1102 C 0.60108 0.70207 0.28210
 C1103 C 0.56041 0.71814 0.25151
 C1104 C 0.54620 0.72600 0.25932
 C1105 C 0.54588 0.72947 0.27748
 C1106 C 0.55953 0.72446 0.28768
 C1107 C 0.53187 0.73793 0.28510
 C1108 C 0.51837 0.74290 0.27486
 C1109 C 0.51842 0.73913 0.25689
 C1110 C 0.53237 0.73057 0.24920
 H1111 H 0.58666 0.71225 0.30411
 H1112 H 0.58894 0.70353 0.23972
 H1113 H 0.61229 0.69405 0.25726
 H1114 H 0.56078 0.71568 0.23755
 H1115 H 0.55914 0.72689 0.30164
 H1116 H 0.53140 0.74081 0.29897
 H1117 H 0.50775 0.74951 0.28105
 H1118 H 0.53260 0.72787 0.23529
 C1119 C 0.60903 0.18454 0.81718
 C1120 C 0.59533 0.19159 0.80843
 C1121 C 0.59180 0.18578 0.79139
 C1122 C 0.60192 0.17269 0.78355
 C1123 C 0.61564 0.16574 0.79232
 C1124 C 0.61969 0.17178 0.80920
 C1125 C 0.57835 0.19331 0.78245
 C1126 C 0.56850 0.20666 0.79037
 C1127 C 0.57199 0.21222 0.80756
 C1128 C 0.58528 0.20459 0.81649
 C1129 C 0.56229 0.22554 0.81551
 C1130 C 0.54941 0.23359 0.80646
 C1131 C 0.54588 0.22845 0.78927
 C1132 C 0.55539 0.21477 0.78135
 H1133 H 0.61111 0.18906 0.83034
 H1134 H 0.59938 0.16800 0.77049
 H1135 H 0.62330 0.15607 0.78546
 H1136 H 0.57571 0.18896 0.76929
 H1137 H 0.58797 0.20901 0.82961
 H1138 H 0.56478 0.22991 0.82869
 H1139 H 0.54227 0.24400 0.81294
 H1140 H 0.55282 0.21068 0.76811
 C1141 C 1.08750 0.69505 0.81457
 C1142 C 1.07400 0.70209 0.80533
 C1143 C 1.06546 0.69129 0.79330
 C1144 C 1.07023 0.67359 0.79102
 C1145 C 1.08366 0.66670 0.80011
 C1146 C 1.09286 0.67733 0.81181
 C1147 C 1.05241 0.69838 0.78355
 C1148 C 1.04779 0.71622 0.78560
 C1149 C 1.05607 0.72699 0.79787
 C1150 C 1.06911 0.71986 0.80767
 C1151 C 1.05129 0.74479 0.79998
 C1152 C 1.03861 0.75191 0.78985
 C1153 C 1.03053 0.74141 0.77734
 C1154 C 1.03514 0.72350 0.77540
 H1155 H 1.09408 0.70374 0.82335
 H1156 H 1.06364 0.66505 0.78204
 H1157 H 1.08658 0.65288 0.79790
 H1158 H 1.04600 0.69007 0.77421
 H1159 H 1.07557 0.72820 0.81694
 H1160 H 1.05745 0.75324 0.80935
 H1161 H 1.03531 0.76576 0.79162
 H1162 H 1.02895 0.71522 0.76589
 C1163 C 1.09383 0.20116 0.31586
 C1164 C 1.08050 0.21163 0.31000
 C1165 C 1.07244 0.22369 0.32158
 C1166 C 1.07752 0.22482 0.33885
 C1167 C 1.09087 0.21463 0.34452
 C1168 C 1.09960 0.20293 0.33308
 C1169 C 1.05958 0.23464 0.31569
 C1170 C 1.05470 0.23385 0.29828
 C1171 C 1.06255 0.22162 0.28670
 C1172 C 1.07537 0.21056 0.29263
 C1173 C 1.05753 0.22078 0.26932
 C1174 C 1.04493 0.23199 0.26345
 C1175 C 1.03718 0.24435 0.27481
 C1176 C 1.04215 0.24517 0.29225
 H1177 H 1.10017 0.19241 0.30666
 H1178 H 1.07129 0.23377 0.34797
 H1179 H 1.09412 0.21593 0.35807
 H1180 H 1.05352 0.24396 0.32461
 H1181 H 1.08148 0.20132 0.28368
 H1182 H 1.06336 0.21148 0.26025
 H1183 H 1.04135 0.23106 0.24994
 H1184 H 1.03619 0.25454 0.30117
 C1185 C 0.60740 0.31326 0.69213
 C1186 C 0.59445 0.30387 0.70093
 C1187 C 0.59079 0.28620 0.69592
 C1188 C 0.60019 0.27815 0.68249
 C1189 C 0.61313 0.28745 0.67400
 C1190 C 0.61688 0.30514 0.67856
 C1191 C 0.57785 0.27676 0.70446
 C1192 C 0.56856 0.28464 0.71811
 C1193 C 0.57225 0.30221 0.72338
 C1194 C 0.58513 0.31178 0.71467
 C1195 C 0.56301 0.30981 0.73730
 C1196 C 0.55024 0.30010 0.74588
 C1197 C 0.54639 0.28270 0.74054
 C1198 C 0.55566 0.27510 0.72662
 H1199 H 0.60998 0.32688 0.69579
 H1200 H 0.59762 0.26456 0.67862
 H1201 H 0.62035 0.28055 0.66400
 H1202 H 0.57505 0.26323 0.70052
 H1203 H 0.58794 0.32529 0.71863
 H1204 H 0.56568 0.32324 0.74158
 H1205 H 0.54328 0.30625 0.75657
 H1206 H 0.55295 0.26163 0.72247
 C1207 C 0.57511 0.81859 0.16076
 C1208 C 0.56029 0.81303 0.16951
 C1209 C 0.55361 0.82320 0.18351
 C1210 C 0.56142 0.83915 0.18804
 C1211 C 0.57619 0.84455 0.17944
 C1212 C 0.58372 0.83410 0.16604
 C1213 C 0.53950 0.81707 0.19307
 C1214 C 0.53210 0.80070 0.18896
 C1215 C 0.53844 0.79081 0.17456
 C1216 C 0.55239 0.79708 0.16486
 C1217 C 0.53104 0.77450 0.17040
 C1218 C 0.51797 0.76766 0.18082
 C1219 C 0.51196 0.77699 0.19562
 C1220 C 0.51884 0.79377 0.19936
 H1221 H 0.58022 0.81021 0.15051
 H1222 H 0.55628 0.84733 0.19851
 H1223 H 0.58159 0.85702 0.18351
 H1224 H 0.53461 0.82477 0.20403
 H1225 H 0.55740 0.78927 0.15404
 H1226 H 0.53565 0.76679 0.15934
 H1227 H 0.51286 0.75476 0.17750
 H1228 H 0.51431 0.80113 0.21069
 C1229 C 1.09795 0.34012 0.19060
 C1230 C 1.08405 0.33073 0.19742
 C1231 C 1.07773 0.31590 0.18835
 C1232 C 1.08528 0.31089 0.17244
 C1233 C 1.09913 0.32027 0.16569
 C1234 C 1.10592 0.33496 0.17472
 C1235 C 1.06408 0.30623 0.19538
 C1236 C 1.05670 0.31121 0.21145
 C1237 C 1.06290 0.32623 0.22041
 C1238 C 1.07647 0.33592 0.21331
 C1239 C 1.05557 0.33117 0.23646
 C1240 C 1.04244 0.32116 0.24379
 C1241 C 1.03629 0.30604 0.23516
 C1242 C 1.04338 0.30126 0.21885
 H1243 H 1.10229 0.35158 0.19774
 H1244 H 1.08060 0.29955 0.16528
 H1245 H 1.10466 0.31549 0.15359
 H1246 H 1.05933 0.29474 0.18846
 H1247 H 1.08127 0.34736 0.22028
 H1248 H 1.06015 0.34266 0.24348
 H1249 H 1.03719 0.32518 0.25634
 H1250 H 1.03880 0.28962 0.21207
 C1251 C 1.09691 0.82787 0.68731
 C1252 C 1.08363 0.82007 0.69697
 C1253 C 1.08016 0.82582 0.71425
 C1254 C 1.09023 0.83898 0.72168
 C1255 C 1.10350 0.84655 0.71204
 C1256 C 1.10693 0.84124 0.69470
 C1257 C 1.06670 0.81835 0.72383
 C1258 C 1.05674 0.80506 0.71643
 C1259 C 1.06036 0.79905 0.69927
 C1260 C 1.07372 0.80668 0.68960
 C1261 C 1.05057 0.78546 0.69210
 C1262 C 1.03731 0.77790 0.70183
 C1263 C 1.03346 0.78399 0.71880
 C1264 C 1.04324 0.79762 0.72600
 H1265 H 1.09920 0.82373 0.67393
 H1266 H 1.08784 0.84342 0.73496
 H1267 H 1.11114 0.85651 0.71828
 H1268 H 1.06399 0.82287 0.73705
 H1269 H 1.07643 0.80216 0.67638
 H1270 H 1.05320 0.78064 0.67899
 H1271 H 1.02995 0.76741 0.69602
 H1272 H 1.04050 0.80226 0.73916
 C1273 C 0.38987 0.67512 0.69118
 C1274 C 0.40397 0.68479 0.69644
 C1275 C 0.40556 0.70296 0.69197
 C1276 C 0.39302 0.71113 0.68233
 C1277 C 0.37894 0.70145 0.67730
 C1278 C 0.37717 0.68337 0.68168
 C1279 C 0.41956 0.71270 0.69731
 C1280 C 0.43193 0.70456 0.70724
 C1281 C 0.43033 0.68641 0.71176
 C1282 C 0.41642 0.67660 0.70624
 C1283 C 0.44261 0.67840 0.72189
 C1284 C 0.45629 0.68832 0.72762
 C1285 C 0.45800 0.70638 0.72319
 C1286 C 0.44579 0.71437 0.71288
 H1287 H 0.38886 0.66115 0.69444
 H1288 H 0.39400 0.72506 0.67885
 H1289 H 0.36931 0.70827 0.67024
 H1290 H 0.42076 0.72665 0.69388
 H1291 H 0.41519 0.66268 0.70972
 H1292 H 0.44159 0.66450 0.72549
 H1293 H 0.46554 0.68183 0.73552
 H1294 H 0.44691 0.72831 0.70945
 C1295 C 0.40426 0.19263 0.21051
 C1296 C 0.41741 0.20228 0.21813
 C1297 C 0.41813 0.22098 0.21607
 C1298 C 0.40551 0.22979 0.20721
 C1299 C 0.39264 0.22017 0.19967
 C1300 C 0.39210 0.20153 0.20078
 C1301 C 0.43166 0.23064 0.22252
 C1302 C 0.44457 0.22195 0.23104
 C1303 C 0.44370 0.20340 0.23385
 C1304 C 0.43010 0.19362 0.22731
 C1305 C 0.45660 0.19502 0.24294
 C1306 C 0.47033 0.20492 0.24882
 C1307 C 0.47148 0.22321 0.24533
 C1308 C 0.45847 0.23162 0.23661
 H1309 H 0.40388 0.17827 0.21145
 H1310 H 0.40579 0.24412 0.20576
 H1311 H 0.38318 0.22733 0.19265
 H1312 H 0.43229 0.24492 0.22061
 H1313 H 0.42955 0.17934 0.22911
 H1314 H 0.45612 0.18085 0.24538
 H1315 H 0.48023 0.19825 0.25566
 H1316 H 0.45915 0.24582 0.23421
 C1317 C -0.07992 0.68948 0.17472
 C1318 C -0.06592 0.69779 0.18195
 C1319 C -0.06273 0.71598 0.17861
 C1320 C -0.07358 0.72547 0.16792
 C1321 C -0.08768 0.71715 0.16098
 C1322 C -0.09113 0.69912 0.16446
 C1323 C -0.04899 0.72444 0.18631
 C1324 C -0.03867 0.71501 0.19765
 C1325 C -0.04189 0.69678 0.20090
 C1326 C -0.05532 0.68825 0.19284
 C1327 C -0.03194 0.68748 0.21260
 C1328 C -0.01926 0.69626 0.22148
 C1329 C -0.01604 0.71440 0.21855
 C1330 C -0.02555 0.72363 0.20629
 H1331 H -0.08213 0.67550 0.17723
 H1332 H -0.07136 0.73943 0.16522
 H1333 H -0.09610 0.72497 0.15325
 H1334 H -0.04662 0.73843 0.18385
 H1335 H -0.05782 0.67430 0.19545
 H1336 H -0.03425 0.67353 0.21524
 H1337 H -0.01205 0.68890 0.23083
 H1338 H -0.02327 0.73768 0.20411
 C1339 C -0.11850 0.18127 0.69816
 C1340 C -0.10478 0.18987 0.70599
 C1341 C -0.10249 0.20839 0.70365
 C1342 C -0.11395 0.21809 0.69411
 C1343 C -0.12720 0.20953 0.68617
 C1344 C -0.12950 0.19094 0.68753
 C1345 C -0.08863 0.21704 0.71063
 C1346 C -0.07680 0.20749 0.71990
 C1347 C -0.07903 0.18906 0.72270
 C1348 C -0.09306 0.18032 0.71572
 C1349 C -0.06711 0.17978 0.73234
 C1350 C -0.05316 0.18871 0.73903
 C1351 C -0.05079 0.20699 0.73595
 C1352 C -0.06273 0.21623 0.72638
 H1353 H -0.11992 0.16701 0.69952
 H1354 H -0.11253 0.23234 0.69252
 H1355 H -0.13580 0.21777 0.67912
 H1356 H -0.08692 0.23122 0.70863
 H1357 H -0.09471 0.16614 0.71766
 H1358 H -0.06859 0.16566 0.73472
 H1359 H -0.04416 0.18131 0.74647
 H1360 H -0.06120 0.23039 0.72415
 C1361 C 0.31049 0.38964 0.34212
 C1362 C 0.30218 0.40328 0.33331
 C1363 C 0.30702 0.40749 0.31592
 C1364 C 0.31995 0.39791 0.30761
 C1365 C 0.32806 0.38428 0.31641
 C1366 C 0.32350 0.37999 0.33377
 C1367 C 0.29887 0.42119 0.30711
 C1368 C 0.28583 0.43068 0.31542
 C1369 C 0.28087 0.42637 0.33274
 C1370 C 0.28911 0.41275 0.34160
 C1371 C 0.26770 0.43576 0.34092
 C1372 C 0.25954 0.44931 0.33204
 C1373 C 0.26445 0.45383 0.31486
 C1374 C 0.27766 0.44441 0.30664
 H1375 H 0.30692 0.38672 0.35553
 H1376 H 0.32375 0.40088 0.29425
 H1377 H 0.33777 0.37696 0.30948
 H1378 H 0.30264 0.42444 0.29379
 H1379 H 0.28533 0.40949 0.35492
 H1380 H 0.26371 0.43262 0.35418
 H1381 H 0.24944 0.45636 0.33870
 H1382 H 0.28153 0.44769 0.29336
 C1383 C 0.32508 -0.10284 0.83096
 C1384 C 0.31750 -0.08940 0.82112
 C1385 C 0.32503 -0.08397 0.80510
 C1386 C 0.33994 -0.09182 0.79922
 C1387 C 0.34751 -0.10489 0.80910
 C1388 C 0.34032 -0.11068 0.82518
 C1389 C 0.31762 -0.07069 0.79515
 C1390 C 0.30286 -0.06247 0.80110
 C1391 C 0.29533 -0.06761 0.81722
 C1392 C 0.30264 -0.08116 0.82710
 C1393 C 0.28069 -0.05900 0.82317
 C1394 C 0.27365 -0.04543 0.81326
 C1395 C 0.28104 -0.04037 0.79715
 C1396 C 0.29564 -0.04904 0.79117
 H1397 H 0.31931 -0.10668 0.84332
 H1398 H 0.34579 -0.08787 0.78690
 H1399 H 0.35879 -0.11074 0.80360
 H1400 H 0.32343 -0.06665 0.78282
 H1401 H 0.29685 -0.08516 0.83944
 H1402 H 0.27474 -0.06270 0.83551
 H1403 H 0.26238 -0.03896 0.81815
 H1404 H 0.30155 -0.04519 0.77885
 C1405 C 0.82822 0.41032 0.80169
 C1406 C 0.81962 0.42314 0.79213
 C1407 C 0.80506 0.43112 0.79941
 C1408 C 0.79953 0.42640 0.81624
 C1409 C 0.80804 0.41351 0.82563
 C1410 C 0.82238 0.40494 0.81846
 C1411 C 0.79613 0.44353 0.78968
 C1412 C 0.80152 0.44794 0.77267
 C1413 C 0.81621 0.44011 0.76544
 C1414 C 0.82519 0.42781 0.77523
 C1415 C 0.82158 0.44460 0.74845
 C1416 C 0.81240 0.45662 0.73864
 C1417 C 0.79767 0.46433 0.74562
 C1418 C 0.79236 0.45996 0.76272
 H1419 H 0.83904 0.40415 0.79552
 H1420 H 0.78849 0.43255 0.82210
 H1421 H 0.80326 0.41050 0.83860
 H1422 H 0.78489 0.44957 0.79525
 H1423 H 0.83639 0.42170 0.76962
 H1424 H 0.83283 0.43875 0.74271
 H1425 H 0.81679 0.45977 0.72551
 H1426 H 0.78107 0.46588 0.76831
 C1427 C 0.81865 -0.10995 0.30252
 C1428 C 0.81206 -0.09612 0.29261
 C1429 C 0.81955 -0.09166 0.27633
 C1430 C 0.83371 -0.10105 0.27038
 C1431 C 0.84014 -0.11502 0.28025
 C1432 C 0.83256 -0.11999 0.29641
 C1433 C 0.81263 -0.07803 0.26625
 C1434 C 0.79817 -0.06903 0.27224
 C1435 C 0.79078 -0.07356 0.28861
 C1436 C 0.79785 -0.08692 0.29873
 C1437 C 0.77627 -0.06481 0.29456
 C1438 C 0.76895 -0.05182 0.28432
 C1439 C 0.77604 -0.04718 0.26797
 C1440 C 0.79080 -0.05576 0.26205
 H1441 H 0.81271 -0.11265 0.31504
 H1442 H 0.83969 -0.09779 0.25793
 H1443 H 0.85081 -0.12208 0.27480
 H1444 H 0.81834 -0.07462 0.25370
 H1445 H 0.79209 -0.09039 0.31126
 H1446 H 0.77049 -0.06814 0.30709
 H1447 H 0.75766 -0.04539 0.28925
 H1448 H 0.79637 -0.05233 0.24945
 C1449 C 0.29808 0.58999 0.69511
 C1450 C 0.29228 0.57603 0.70583
 C1451 C 0.29748 0.57499 0.72331
 C1452 C 0.30831 0.58799 0.72979
 C1453 C 0.31389 0.60194 0.71910
 C1454 C 0.30888 0.60312 0.70164
 C1455 C 0.29164 0.56110 0.73408
 C1456 C 0.28042 0.54838 0.72767
 C1457 C 0.27515 0.54950 0.71020
 C1458 C 0.28123 0.56320 0.69935
 C1459 C 0.26364 0.53706 0.70393
 C1460 C 0.25716 0.52381 0.71493
 C1461 C 0.26227 0.52257 0.73231
 C1462 C 0.27412 0.53477 0.73855
 H1463 H 0.29426 0.59052 0.68166
 H1464 H 0.31235 0.58748 0.74319
 H1465 H 0.32195 0.61196 0.72466
 H1466 H 0.29563 0.56033 0.74750
 H1467 H 0.27717 0.56402 0.68596
 H1468 H 0.25946 0.53772 0.69059
 H1469 H 0.24810 0.51451 0.70981
 H1470 H 0.27801 0.53400 0.75199
 C1471 C 0.32071 1.11714 0.20765
 C1472 C 0.31050 1.10331 0.21440
 C1473 C 0.29496 1.09955 0.20668
 C1474 C 0.28982 1.10960 0.19249
 C1475 C 0.29995 1.12323 0.18585
 C1476 C 0.31567 1.12731 0.19315
 C1477 C 0.28470 1.08582 0.21323
 C1478 C 0.28974 1.07572 0.22750
 C1479 C 0.30525 1.07938 0.23534
 C1480 C 0.31557 1.09314 0.22872
 C1481 C 0.31011 1.06924 0.24971
 C1482 C 0.29966 1.05569 0.25627
 C1483 C 0.28419 1.05197 0.24854
 C1484 C 0.27938 1.06206 0.23408
 H1485 H 0.33266 1.11957 0.21361
 H1486 H 0.27788 1.10695 0.18651
 H1487 H 0.29501 1.13064 0.17510
 H1488 H 0.27278 1.08302 0.20723
 H1489 H 0.32749 1.09594 0.23473
 H1490 H 0.32195 1.07184 0.25592
 H1491 H 0.30368 1.04813 0.26744
 H1492 H 0.26747 1.05942 0.22801
 C1493 C 0.82106 0.61487 0.17380
 C1494 C 0.81487 0.60055 0.18387
 C1495 C 0.82566 0.59155 0.19525
 C1496 C 0.84254 0.59663 0.19597
 C1497 C 0.84863 0.61072 0.18582
 C1498 C 0.83797 0.62026 0.17483
 C1499 C 0.81943 0.57766 0.20578
 C1500 C 0.80255 0.57248 0.20497
 C1501 C 0.79184 0.58114 0.19325
 C1502 C 0.79803 0.59519 0.18287
 C1503 C 0.77508 0.57561 0.19215
 C1504 C 0.76895 0.56174 0.20264
 C1505 C 0.77938 0.55331 0.21461
 C1506 C 0.79621 0.55876 0.21570
 H1507 H 0.81262 0.62203 0.16550
 H1508 H 0.85104 0.58973 0.20444
 H1509 H 0.86179 0.61410 0.18661
 H1510 H 0.82771 0.57092 0.21464
 H1511 H 0.78974 0.60196 0.17404
 H1512 H 0.76671 0.58203 0.18320
 H1513 H 0.75592 0.55781 0.20159
 H1514 H 0.80439 0.55222 0.22477
 C1515 C 0.80665 1.09848 0.68048
 C1516 C 0.79744 1.08339 0.68593
 C1517 C 0.78005 1.08232 0.68280
 C1518 C 0.77219 1.09631 0.67418
 C1519 C 0.78142 1.11124 0.66879
 C1520 C 0.79873 1.11253 0.67187
 C1521 C 0.77076 1.06739 0.68847
 C1522 C 0.77861 1.05356 0.69741
 C1523 C 0.79605 1.05461 0.70040
 C1524 C 0.80535 1.06943 0.69457
 C1525 C 0.80388 1.04097 0.70952
 C1526 C 0.79449 1.02669 0.71612
 C1527 C 0.77710 1.02557 0.71353
 C1528 C 0.76926 1.03891 0.70382
 H1529 H 0.82000 1.09921 0.68279
 H1530 H 0.75886 1.09577 0.67171
 H1531 H 0.77492 1.12194 0.66243
 H1532 H 0.75739 1.06667 0.68616
 H1533 H 0.81869 1.07021 0.69699
 H1534 H 0.81723 1.04152 0.71189
 H1535 H 0.80084 1.01655 0.72348
 H1536 H 0.75584 1.03826 0.70188
 C1537 C 0.68570 0.61657 0.29492
 C1538 C 0.69442 0.60264 0.28661
 C1539 C 0.69148 0.59878 0.26889
 C1540 C 0.68001 0.60902 0.25974
 C1541 C 0.67160 0.62305 0.26800
 C1542 C 0.67429 0.62703 0.28570
 C1543 C 0.70019 0.58488 0.26053
 C1544 C 0.71207 0.57503 0.26959
 C1545 C 0.71517 0.57905 0.28727
 C1546 C 0.70619 0.59268 0.29572
 C1547 C 0.72739 0.56952 0.29615
 C1548 C 0.73662 0.55630 0.28755
 C1549 C 0.73360 0.55213 0.27001
 C1550 C 0.72115 0.56143 0.26115
 H1551 H 0.68782 0.61916 0.30858
 H1552 H 0.67768 0.60633 0.24611
 H1553 H 0.66319 0.63093 0.26034
 H1554 H 0.69789 0.58191 0.24693
 H1555 H 0.70856 0.59572 0.30929
 H1556 H 0.72995 0.57245 0.30968
 H1557 H 0.74611 0.54925 0.29465
 H1558 H 0.71885 0.55842 0.24757
 C1559 C 0.69339 1.09309 0.80266
 C1560 C 0.70275 1.07882 0.79588
 C1561 C 0.71934 1.07605 0.80129
 C1562 C 0.72622 1.08758 0.81359
 C1563 C 0.71682 1.10178 0.82036
 C1564 C 0.70023 1.10493 0.81494
 C1565 C 0.72878 1.06188 0.79424
 C1566 C 0.72177 1.05050 0.78178
 C1567 C 0.70506 1.05329 0.77657
 C1568 C 0.69568 1.06733 0.78368
 C1569 C 0.69798 1.04212 0.76414
 C1570 C 0.70742 1.02849 0.75660
 C1571 C 0.72413 1.02561 0.76139
 C1572 C 0.73120 1.03655 0.77422
 H1573 H 0.68063 1.09456 0.79845
 H1574 H 0.73894 1.08571 0.81791
 H1575 H 0.72291 1.11045 0.82951
 H1576 H 0.74157 1.05983 0.79831
 H1577 H 0.68291 1.06943 0.77955
 H1578 H 0.68519 1.04404 0.76006
 H1579 H 0.70157 1.02020 0.74688
 H1580 H 0.74407 1.03449 0.77798
 C1581 C 0.18003 0.59494 0.81819
 C1582 C 0.18670 0.57960 0.81008
 C1583 C 0.17895 0.57250 0.79520
 C1584 C 0.16479 0.58074 0.78865
 C1585 C 0.15825 0.59589 0.79666
 C1586 C 0.16561 0.60338 0.81165
 C1587 C 0.18548 0.55732 0.78695
 C1588 C 0.19981 0.54909 0.79330
 C1589 C 0.20765 0.55605 0.80821
 C1590 C 0.20102 0.57123 0.81655
 C1591 C 0.22208 0.54777 0.81438
 C1592 C 0.22879 0.53293 0.80573
 C1593 C 0.22115 0.52600 0.79079
 C1594 C 0.20654 0.53412 0.78478
 H1595 H 0.18605 0.59999 0.82969
 H1596 H 0.15876 0.57551 0.77718
 H1597 H 0.14754 0.60172 0.79058
 H1598 H 0.17947 0.55199 0.77550
 H1599 H 0.20707 0.57659 0.82796
 H1600 H 0.22829 0.55288 0.82579
 H1601 H 0.24007 0.52696 0.81067
 H1602 H 0.20054 0.52901 0.77324
 C1603 C 0.18744 1.11864 0.32632
 C1604 C 0.19471 1.10445 0.31691
 C1605 C 0.18850 1.09976 0.30042
 C1606 C 0.17503 1.10923 0.29370
 C1607 C 0.16776 1.12323 0.30315
 C1608 C 0.17381 1.12833 0.31964
 C1609 C 0.19583 1.08570 0.29091
 C1610 C 0.20930 1.07617 0.29773
 C1611 C 0.21540 1.08075 0.31433
 C1612 C 0.20810 1.09484 0.32379
 C1613 C 0.22877 1.07118 0.32118
 C1614 C 0.23616 1.05731 0.31165
 C1615 C 0.23036 1.05270 0.29504
 C1616 C 0.21681 1.06220 0.28820
 H1617 H 0.19230 1.12168 0.33903
 H1618 H 0.17012 1.10585 0.28105
 H1619 H 0.15762 1.13023 0.29712
 H1620 H 0.19108 1.08220 0.27820
 H1621 H 0.21286 1.09835 0.33649
 H1622 H 0.23359 1.07447 0.33390
 H1623 H 0.24656 1.05028 0.31727
 H1624 H 0.21218 1.05881 0.27543
 C1625 C 0.70481 0.39076 0.66990
 C1626 C 0.71315 0.40474 0.67831
 C1627 C 0.70992 0.40794 0.69625
 C1628 C 0.69870 0.39690 0.70555
 C1629 C 0.69062 0.38290 0.69715
 C1630 C 0.69341 0.37971 0.67920
 C1631 C 0.71794 0.42210 0.70464
 C1632 C 0.72932 0.43302 0.69535
 C1633 C 0.73283 0.42963 0.67748
 C1634 C 0.72463 0.41559 0.66904
 C1635 C 0.74450 0.44034 0.66835
 C1636 C 0.75257 0.45433 0.67681
 C1637 C 0.74897 0.45802 0.69449
 C1638 C 0.73730 0.44727 0.70368
 H1639 H 0.70705 0.38873 0.65606
 H1640 H 0.69620 0.39905 0.71935
 H1641 H 0.68225 0.37451 0.70485
 H1642 H 0.71535 0.42460 0.71838
 H1643 H 0.72723 0.41309 0.65529
 H1644 H 0.74739 0.43790 0.65467
 H1645 H 0.76150 0.46243 0.66944
 H1646 H 0.73454 0.44988 0.71736
 C1647 C 0.68625 -0.10679 0.17461
 C1648 C 0.69522 -0.09520 0.18537
 C1649 C 0.69002 -0.09292 0.20302
 C1650 C 0.67628 -0.10258 0.20972
 C1651 C 0.66744 -0.11403 0.19895
 C1652 C 0.67211 -0.11604 0.18124
 C1653 C 0.69844 -0.08084 0.21364
 C1654 C 0.71198 -0.07091 0.20687
 C1655 C 0.71749 -0.07344 0.18937
 C1656 C 0.70908 -0.08559 0.17872
 C1657 C 0.73120 -0.06357 0.18277
 C1658 C 0.73915 -0.05108 0.19332
 C1659 C 0.73344 -0.04816 0.21058
 C1660 C 0.71994 -0.05828 0.21731
 H1661 H 0.68993 -0.10817 0.16097
 H1662 H 0.67225 -0.10113 0.22325
 H1663 H 0.65688 -0.12131 0.20452
 H1664 H 0.69429 -0.07897 0.22711
 H1665 H 0.71316 -0.08737 0.16522
 H1666 H 0.73566 -0.06538 0.16942
 H1667 H 0.74955 -0.04344 0.18784
 H1668 H 0.71554 -0.05627 0.23067
 C1669 C 0.18059 0.40734 0.20691
 C1670 C 0.19070 0.41738 0.21805
 C1671 C 0.20815 0.41873 0.21448
 C1672 C 0.21526 0.40973 0.20015
 C1673 C 0.20516 0.39968 0.18924
 C1674 C 0.18770 0.39854 0.19230
 C1675 C 0.21824 0.42918 0.22519
 C1676 C 0.21113 0.43830 0.23947
 C1677 C 0.19376 0.43666 0.24334
 C1678 C 0.18363 0.42623 0.23258
 C1679 C 0.18680 0.44566 0.25781
 C1680 C 0.19689 0.45648 0.26812
 C1681 C 0.21408 0.45857 0.26405
 C1682 C 0.22113 0.44925 0.24980
 H1683 H 0.16718 0.40672 0.20943
 H1684 H 0.22863 0.41049 0.19735
 H1685 H 0.21114 0.39272 0.17844
 H1686 H 0.23160 0.43035 0.22230
 H1687 H 0.17027 0.42512 0.23542
 H1688 H 0.17353 0.44450 0.26104
 H1689 H 0.19116 0.46355 0.27902
 H1690 H 0.23440 0.45065 0.24660
 C1691 C 0.17650 -0.07659 0.70100
 C1692 C 0.18827 -0.06527 0.70876
 C1693 C 0.20067 -0.05676 0.69820
 C1694 C 0.20074 -0.05909 0.68012
 C1695 C 0.18930 -0.07061 0.67256
 C1696 C 0.17738 -0.08010 0.68287
 C1697 C 0.21312 -0.04641 0.70588
 C1698 C 0.21349 -0.04459 0.72404
 C1699 C 0.20086 -0.05262 0.73468
 C1700 C 0.18827 -0.06289 0.72696
 C1701 C 0.20119 -0.05036 0.75286
 C1702 C 0.21400 -0.04037 0.76040
 C1703 C 0.22680 -0.03279 0.74988
 C1704 C 0.22642 -0.03492 0.73170
 H1705 H 0.16757 -0.08358 0.70937
 H1706 H 0.20996 -0.05236 0.67183
 H1707 H 0.18993 -0.07209 0.65852
 H1708 H 0.22275 -0.04010 0.69774
 H1709 H 0.17873 -0.06931 0.73511
 H1710 H 0.19158 -0.05632 0.76124
 H1711 H 0.21402 -0.03875 0.77444
 H1712 H 0.23607 -0.02879 0.72347
 C1713 C 0.31145 0.31013 0.42011
 C1714 C 0.30324 0.30092 0.43379
 C1715 C 0.30725 0.28295 0.43700
 C1716 C 0.31943 0.27452 0.42646
 C1717 C 0.32750 0.28376 0.41282
 C1718 C 0.32361 0.30164 0.40947
 C1719 C 0.29896 0.27368 0.45060
 C1720 C 0.28655 0.28212 0.46091
 C1721 C 0.28255 0.30010 0.45763
 C1722 C 0.29099 0.30940 0.44420
 C1723 C 0.27000 0.30846 0.46771
 C1724 C 0.26124 0.29904 0.48070
 C1725 C 0.26498 0.28113 0.48406
 C1726 C 0.27785 0.27280 0.47424
 H1727 H 0.30847 0.32396 0.41789
 H1728 H 0.32264 0.26073 0.42867
 H1729 H 0.33663 0.27678 0.40473
 H1730 H 0.30202 0.25988 0.45303
 H1731 H 0.28787 0.32318 0.44171
 H1732 H 0.26679 0.32222 0.46538
 H1733 H 0.25145 0.30580 0.48813
 H1734 H 0.28076 0.25896 0.47663
 C1735 C 0.32085 0.80975 -0.09822
 C1736 C 0.31177 0.79824 -0.08705
 C1737 C 0.31632 0.78013 -0.08604
 C1738 C 0.32968 0.77379 -0.09646
 C1739 C 0.33858 0.78530 -0.10763
 C1740 C 0.33441 0.80344 -0.10854
 C1741 C 0.30751 0.76868 -0.07459
 C1742 C 0.29410 0.77509 -0.06422
 C1743 C 0.28938 0.79314 -0.06548
 C1744 C 0.29828 0.80460 -0.07681
 C1745 C 0.27584 0.79949 -0.05534
 C1746 C 0.26710 0.78812 -0.04395
 C1747 C 0.27179 0.77020 -0.04234
 C1748 C 0.28534 0.76375 -0.05257
 H1749 H 0.31754 0.82369 -0.09859
 H1750 H 0.33326 0.75993 -0.09598
 H1751 H 0.34868 0.77989 -0.11563
 H1752 H 0.31110 0.75482 -0.07374
 H1753 H 0.29471 0.81847 -0.07764
 H1754 H 0.27203 0.81326 -0.05618
 H1755 H 0.25676 0.79346 -0.03621
 H1756 H 0.28901 0.74995 -0.05152
 C1757 C 0.81936 0.31223 -0.10008
 C1758 C 0.80883 0.30357 -0.08775
 C1759 C 0.79137 0.30688 -0.08759
 C1760 C 0.78466 0.31839 -0.09991
 C1761 C 0.79517 0.32689 -0.11208
 C1762 C 0.81263 0.32416 -0.11217
 C1763 C 0.78084 0.29877 -0.07504
 C1764 C 0.78751 0.28735 -0.06259
 C1765 C 0.80491 0.28370 -0.06288
 C1766 C 0.81548 0.29187 -0.07545
 C1767 C 0.81140 0.27203 -0.05048
 C1768 C 0.80078 0.26424 -0.03782
 C1769 C 0.78354 0.26812 -0.03724
 C1770 C 0.77700 0.27963 -0.04978
 H1771 H 0.83278 0.31004 -0.09996
 H1772 H 0.77129 0.32090 -0.10008
 H1773 H 0.78956 0.33561 -0.12150
 H1774 H 0.76748 0.30148 -0.07486
 H1775 H 0.82885 0.28922 -0.07558
 H1776 H 0.82468 0.26901 -0.05052
 H1777 H 0.80611 0.25540 -0.02830
 H1778 H 0.76369 0.28258 -0.04959
 C1779 C 0.82043 0.79566 0.38619
 C1780 C 0.80960 0.78839 0.39903
 C1781 C 0.79251 0.79333 0.39972
 C1782 C 0.78654 0.80543 0.38748
 C1783 C 0.79733 0.81240 0.37455
 C1784 C 0.81440 0.80759 0.37370
 C1785 C 0.78162 0.78589 0.41244
 C1786 C 0.78756 0.77326 0.42424
 C1787 C 0.80467 0.76827 0.42343
 C1788 C 0.81560 0.77602 0.41101
 C1789 C 0.81052 0.75531 0.43486
 C1790 C 0.79949 0.74707 0.44673
 C1791 C 0.78247 0.75186 0.44766
 C1792 C 0.77661 0.76521 0.43655
 H1793 H 0.83354 0.79198 0.38597
 H1794 H 0.77345 0.80931 0.38773
 H1795 H 0.79217 0.82131 0.36504
 H1796 H 0.76850 0.78967 0.41293
 H1797 H 0.82870 0.77215 0.41043
 H1798 H 0.82358 0.75133 0.43441
 H1799 H 0.80430 0.73690 0.45525
 H1800 H 0.76346 0.76886 0.43710
 C1801 C 0.69841 0.31551 0.58753
 C1802 C 0.70564 0.30691 0.57292
 C1803 C 0.70114 0.28914 0.56915
 C1804 C 0.68954 0.28026 0.58008
 C1805 C 0.68256 0.28882 0.59468
 C1806 C 0.68685 0.30654 0.59862
 C1807 C 0.70844 0.28045 0.55466
 C1808 C 0.72045 0.28918 0.54405
 C1809 C 0.72503 0.30693 0.54789
 C1810 C 0.71747 0.31574 0.56216
 C1811 C 0.73733 0.31549 0.53755
 C1812 C 0.74531 0.30645 0.52379
 C1813 C 0.74093 0.28879 0.51989
 C1814 C 0.72827 0.28031 0.52993
 H1815 H 0.70174 0.32919 0.59020
 H1816 H 0.68602 0.26661 0.57745
 H1817 H 0.67399 0.28136 0.60305
 H1818 H 0.70498 0.26680 0.55182
 H1819 H 0.72102 0.32934 0.56508
 H1820 H 0.74100 0.32908 0.54029
 H1821 H 0.75499 0.31329 0.51620
 H1822 H 0.72494 0.26662 0.52713
 C1823 C 0.67910 0.81831 1.09123
 C1824 C 0.68693 0.80787 1.07820
 C1825 C 0.67972 0.79139 1.07353
 C1826 C 0.66490 0.78561 1.08199
 C1827 C 0.65728 0.79599 1.09503
 C1828 C 0.66423 0.81246 1.09984
 C1829 C 0.68744 0.78091 1.06053
 C1830 C 0.70238 0.78660 1.05220
 C1831 C 0.70971 0.80300 1.05691
 C1832 C 0.70189 0.81359 1.06983
 C1833 C 0.72475 0.80849 1.04862
 C1834 C 0.73247 0.79784 1.03578
 C1835 C 0.72522 0.78156 1.03091
 C1836 C 0.71013 0.77607 1.03924
 H1837 H 0.68454 0.83105 1.09454
 H1838 H 0.65926 0.77297 1.07862
 H1839 H 0.64606 0.79092 1.10152
 H1840 H 0.68186 0.76828 1.05694
 H1841 H 0.70749 0.82620 1.07343
 H1842 H 0.73057 0.82101 1.05208
 H1843 H 0.74406 0.80240 1.02959
 H1844 H 0.70441 0.76351 1.03572
 C1845 C 0.17818 0.32712 1.09535
 C1846 C 0.18820 0.31966 1.08196
 C1847 C 0.20054 0.33023 1.07332
 C1848 C 0.20229 0.34817 1.07782
 C1849 C 0.19238 0.35544 1.09124
 C1850 C 0.18047 0.34495 1.10037
 C1851 C 0.21122 0.32259 1.06065
 C1852 C 0.20982 0.30449 1.05659
 C1853 C 0.19719 0.29400 1.06484
 C1854 C 0.18642 0.30167 1.07746
 C1855 C 0.19574 0.27595 1.06051
 C1856 C 0.20693 0.26827 1.04839
 C1857 C 0.21983 0.27849 1.04055
 C1858 C 0.22107 0.29666 1.04459
 H1859 H 0.16918 0.31882 1.10238
 H1860 H 0.21159 0.35649 1.07122
 H1861 H 0.19419 0.36926 1.09468
 H1862 H 0.22085 0.33065 1.05422
 H1863 H 0.17691 0.29357 1.08401
 H1864 H 0.18608 0.26772 1.06663
 H1865 H 0.20571 0.25425 1.04544
 H1866 H 0.23086 0.30471 1.03846
 C1867 C 0.17704 0.82259 0.60942
 C1868 C 0.18796 0.81342 0.59791
 C1869 C 0.20521 0.81798 0.59717
 C1870 C 0.21136 0.83118 0.60819
 C1871 C 0.20047 0.84021 0.61951
 C1872 C 0.18319 0.83631 0.62003
 C1873 C 0.21606 0.80953 0.58523
 C1874 C 0.20992 0.79660 0.57388
 C1875 C 0.19279 0.79161 0.57483
 C1876 C 0.18190 0.80005 0.58687
 C1877 C 0.18685 0.77849 0.56349
 C1878 C 0.19768 0.77074 0.55104
 C1879 C 0.21459 0.77607 0.54969
 C1880 C 0.22066 0.78883 0.56135
 H1881 H 0.16375 0.81947 0.60974
 H1882 H 0.22457 0.83467 0.60793
 H1883 H 0.20564 0.85032 0.62791
 H1884 H 0.22923 0.81324 0.58455
 H1885 H 0.16871 0.79642 0.58746
 H1886 H 0.17379 0.77441 0.56406
 H1887 H 0.19272 0.76091 0.54219
 H1888 H 0.23372 0.79292 0.56054
 C1889 C 0.30259 0.68358 0.60628
 C1890 C 0.29290 0.69139 0.59337
 C1891 C 0.27550 0.68784 0.59287
 C1892 C 0.26813 0.67642 0.60535
 C1893 C 0.27784 0.66898 0.61846
 C1894 C 0.29515 0.67262 0.61921
 C1895 C 0.26574 0.69604 0.58014
 C1896 C 0.27314 0.70813 0.56825
 C1897 C 0.29057 0.71170 0.56892
 C1898 C 0.30036 0.70310 0.58125
 C1899 C 0.29793 0.72416 0.55751
 C1900 C 0.28809 0.73334 0.54577
 C1901 C 0.27078 0.72996 0.54492
 C1902 C 0.26338 0.71709 0.55600
 H1903 H 0.31594 0.68624 0.60631
 H1904 H 0.25480 0.67355 0.60522
 H1905 H 0.27165 0.66074 0.62824
 H1906 H 0.25237 0.69336 0.57976
 H1907 H 0.31371 0.70590 0.58173
 H1908 H 0.31125 0.72706 0.55789
 H1909 H 0.29405 0.74311 0.53726
 H1910 H 0.25000 0.71455 0.55550
 C1911 C 0.31621 0.19737 1.10898
 C1912 C 0.30869 0.20743 1.09593
 C1913 C 0.31302 0.22555 1.09379
 C1914 C 0.32475 0.23330 1.10482
 C1915 C 0.33198 0.22327 1.11799
 C1916 C 0.32777 0.20520 1.12029
 C1917 C 0.30544 0.23564 1.08077
 C1918 C 0.29344 0.22786 1.07000
 C1919 C 0.28904 0.20976 1.07229
 C1920 C 0.29677 0.19964 1.08513
 C1921 C 0.27692 0.20203 1.06171
 C1922 C 0.26924 0.21210 1.04892
 C1923 C 0.27358 0.23007 1.04636
 C1924 C 0.28572 0.23789 1.05700
 H1925 H 0.31299 0.18344 1.11029
 H1926 H 0.32818 0.24719 1.10343
 H1927 H 0.34061 0.22985 1.12657
 H1928 H 0.30879 0.24954 1.07910
 H1929 H 0.29339 0.18575 1.08683
 H1930 H 0.27339 0.18819 1.06332
 H1931 H 0.25998 0.20569 1.04089
 H1932 H 0.28916 0.25173 1.05518
 C1933 C 0.81566 0.69051 1.09047
 C1934 C 0.80795 0.69822 1.07597
 C1935 C 0.81774 0.70833 1.06392
 C1936 C 0.83502 0.71018 1.06625
 C1937 C 0.84256 0.70248 1.08062
 C1938 C 0.83300 0.69281 1.09306
 C1939 C 0.81011 0.71666 1.04984
 C1940 C 0.79277 0.71505 1.04757
 C1941 C 0.78296 0.70459 1.05927
 C1942 C 0.79061 0.69624 1.07344
 C1943 C 0.76563 0.70289 1.05668
 C1944 C 0.75807 0.71177 1.04288
 C1945 C 0.76767 0.72264 1.03152
 C1946 C 0.78508 0.72401 1.03387
 H1947 H 0.80808 0.68319 1.09995
 H1948 H 0.84272 0.71772 1.05703
 H1949 H 0.85596 0.70412 1.08195
 H1950 H 0.81764 0.72459 1.04076
 H1951 H 0.78307 0.68840 1.08257
 H1952 H 0.75791 0.69485 1.06545
 H1953 H 0.74464 0.71050 1.04134
 H1954 H 0.79268 0.73219 1.02509
 C1955 C 0.80185 0.19297 0.59214
 C1956 C 0.79791 0.20392 0.57796
 C1957 C 0.80008 0.22255 0.57931
 C1958 C 0.80568 0.22997 0.59488
 C1959 C 0.80958 0.21903 0.60885
 C1960 C 0.80804 0.20044 0.60754
 C1961 C 0.79673 0.23352 0.56506
 C1962 C 0.79102 0.22616 0.54949
 C1963 C 0.78847 0.20758 0.54820
 C1964 C 0.79205 0.19656 0.56240
 C1965 C 0.78219 0.20038 0.53277
 C1966 C 0.77823 0.21152 0.51888
 C1967 C 0.78091 0.22995 0.52003
 C1968 C 0.78752 0.23717 0.53529
 H1969 H 0.80068 0.17866 0.59099
 H1970 H 0.80722 0.24422 0.59621
 H1971 H 0.81396 0.22514 0.62070
 H1972 H 0.79852 0.24778 0.56611
 H1973 H 0.79024 0.18230 0.56135
 H1974 H 0.78008 0.18620 0.53155
 H1975 H 0.77307 0.20574 0.50721
 H1976 H 0.78932 0.25142 0.53635
 C1977 C 0.67949 0.69061 0.37470
 C1978 C 0.68774 0.69760 0.38917
 C1979 C 0.68558 0.71564 0.39377
 C1980 C 0.67508 0.72633 0.38374
 C1981 C 0.66713 0.71931 0.36908
 C1982 C 0.66939 0.70142 0.36423
 C1983 C 0.69412 0.72267 0.40815
 C1984 C 0.70501 0.71191 0.41774
 C1985 C 0.70716 0.69389 0.41295
 C1986 C 0.69839 0.68683 0.39887
 C1987 C 0.71821 0.68319 0.42219
 C1988 C 0.72724 0.69024 0.43598
 C1989 C 0.72527 0.70809 0.44103
 C1990 C 0.71399 0.71887 0.43189
 H1991 H 0.68108 0.67668 0.37158
 H1992 H 0.67325 0.74020 0.38704
 H1993 H 0.65954 0.72803 0.36132
 H1994 H 0.69248 0.73652 0.41170
 H1995 H 0.70010 0.67299 0.39525
 H1996 H 0.72000 0.66936 0.41865
 H1997 H 0.73573 0.68161 0.44280
 H1998 H 0.71241 0.73268 0.43557
 C1999 C 0.69943 0.18020 -0.10302
 C2000 C 0.70541 0.19077 -0.08935
 C2001 C 0.70053 0.20878 -0.08808
 C2002 C 0.68990 0.21595 -0.10050
 C2003 C 0.68410 0.20541 -0.11409
 C2004 C 0.68871 0.18742 -0.11549
 C2005 C 0.70640 0.21939 -0.07448
 C2006 C 0.71724 0.21229 -0.06218
 C2007 C 0.72223 0.19432 -0.06345
 C2008 C 0.71621 0.18363 -0.07698
 C2009 C 0.73329 0.18742 -0.05122
 C2010 C 0.73945 0.19826 -0.03796
 C2011 C 0.73451 0.21613 -0.03660
 C2012 C 0.72330 0.22300 -0.04873
 H2013 H 0.70297 0.16634 -0.10380
 H2014 H 0.68613 0.22977 -0.09978
 H2015 H 0.67615 0.21146 -0.12364
 H2016 H 0.70263 0.23321 -0.07353
 H2017 H 0.72002 0.16983 -0.07795
 H2018 H 0.73728 0.17368 -0.05199
 H2019 H 0.74807 0.19264 -0.02877
 H2020 H 0.71949 0.23680 -0.04791
 C2021 C 0.18204 0.68071 -0.10879
 C2022 C 0.18993 0.69066 -0.09572
 C2023 C 0.18594 0.70882 -0.09343
 C2024 C 0.17436 0.71677 -0.10441
 C2025 C 0.16670 0.70686 -0.11746
 C2026 C 0.17029 0.68867 -0.11977
 C2027 C 0.19359 0.71874 -0.08022
 C2028 C 0.20534 0.71079 -0.06935
 C2029 C 0.20952 0.69268 -0.07184
 C2030 C 0.20172 0.68272 -0.08491
 C2031 C 0.22149 0.68483 -0.06125
 C2032 C 0.22929 0.69476 -0.04832
 C2033 C 0.22515 0.71271 -0.04553
 C2034 C 0.21307 0.72065 -0.05610
 H2035 H 0.18490 0.66672 -0.11017
 H2036 H 0.17124 0.73071 -0.10295
 H2037 H 0.15804 0.71358 -0.12583
 H2038 H 0.19044 0.73265 -0.07845
 H2039 H 0.20489 0.66882 -0.08669
 H2040 H 0.22488 0.67100 -0.06300
 H2041 H 0.23849 0.68829 -0.04035
 H2042 H 0.20986 0.73451 -0.05417
 C2043 C 0.18702 0.19605 0.40976
 C2044 C 0.19362 0.20568 0.42380
 C2045 C 0.19150 0.22435 0.42460
 C2046 C 0.18328 0.23313 0.41120
 C2047 C 0.17664 0.22347 0.39746
 C2048 C 0.17811 0.20487 0.39677
 C2049 C 0.19734 0.23396 0.43891
 C2050 C 0.20532 0.22519 0.45250
 C2051 C 0.20781 0.20660 0.45158
 C2052 C 0.20192 0.19695 0.43725
 C2053 C 0.21615 0.19798 0.46505
 C2054 C 0.22200 0.20769 0.47924
 C2055 C 0.21938 0.22613 0.48035
 C2056 C 0.21093 0.23478 0.46696
 H2057 H 0.18814 0.18171 0.40931
 H2058 H 0.18169 0.24743 0.41153
 H2059 H 0.17007 0.23055 0.38741
 H2060 H 0.19555 0.24823 0.43955
 H2061 H 0.20366 0.18267 0.43665
 H2062 H 0.21823 0.18376 0.46457
 H2063 H 0.22853 0.20076 0.48942
 H2064 H 0.20907 0.24904 0.46760
 C2065 C 0.30792 0.38462 0.70287
 C2066 C 0.30029 0.39819 0.71278
 C2067 C 0.30588 0.40185 0.72978
 C2068 C 0.31889 0.39172 0.73663
 C2069 C 0.32626 0.37806 0.72678
 C2070 C 0.32092 0.37432 0.70976
 C2071 C 0.29834 0.41550 0.73967
 C2072 C 0.28510 0.42538 0.73286
 C2073 C 0.27936 0.42154 0.71593
 C2074 C 0.28708 0.40808 0.70596
 C2075 C 0.26593 0.43116 0.70928
 C2076 C 0.25820 0.44447 0.71929
 C2077 C 0.26388 0.44856 0.73605
 C2078 C 0.27741 0.43896 0.74274
 H2079 H 0.30375 0.38224 0.68974
 H2080 H 0.32328 0.39427 0.74968
 H2081 H 0.33601 0.37030 0.73265
 H2082 H 0.30269 0.41834 0.75270
 H2083 H 0.28270 0.40521 0.69295
 H2084 H 0.26135 0.42837 0.69635
 H2085 H 0.24784 0.45169 0.71381
 H2086 H 0.28183 0.44191 0.75570
 C2087 C 0.30069 0.91051 0.19316
 C2088 C 0.29291 0.92514 0.20140
 C2089 C 0.27635 0.92979 0.19710
 C2090 C 0.26784 0.91967 0.18473
 C2091 C 0.27554 0.90498 0.17682
 C2092 C 0.29206 0.90013 0.18088
 C2093 C 0.26849 0.94431 0.20537
 C2094 C 0.27685 0.95405 0.21819
 C2095 C 0.29337 0.94930 0.22260
 C2096 C 0.30136 0.93503 0.21405
 C2097 C 0.30156 0.95875 0.23571
 C2098 C 0.29339 0.97258 0.24458
 C2099 C 0.27698 0.97747 0.24033
 C2100 C 0.26884 0.96825 0.22693
 H2101 H 0.31346 0.90729 0.19640
 H2102 H 0.25510 0.92297 0.18135
 H2103 H 0.26832 0.89729 0.16772
 H2104 H 0.25578 0.94784 0.20204
 H2105 H 0.31403 0.93143 0.21746
 H2106 H 0.31421 0.95528 0.23928
 H2107 H 0.29995 0.97949 0.25480
 H2108 H 0.25613 0.97179 0.22365
 C2109 C 0.82066 0.40915 0.18624
 C2110 C 0.81101 0.42340 0.19267
 C2111 C 0.79367 0.42410 0.18925
 C2112 C 0.78626 0.41050 0.17954
 C2113 C 0.79594 0.39636 0.17322
 C2114 C 0.81323 0.39553 0.17644
 C2115 C 0.78398 0.43832 0.19565
 C2116 C 0.79139 0.45177 0.20559
 C2117 C 0.80874 0.45103 0.20905
 C2118 C 0.81845 0.43692 0.20248
 C2119 C 0.81606 0.46432 0.21922
 C2120 C 0.80626 0.47806 0.22616
 C2121 C 0.78899 0.47891 0.22289
 C2122 C 0.78167 0.46581 0.21238
 H2123 H 0.83399 0.40881 0.18864
 H2124 H 0.77297 0.41077 0.17687
 H2125 H 0.78982 0.38595 0.16596
 H2126 H 0.77067 0.43882 0.19304
 H2127 H 0.83175 0.43638 0.20515
 H2128 H 0.82932 0.46397 0.22200
 H2129 H 0.81220 0.48802 0.23418
 H2130 H 0.76835 0.46625 0.20989
 C2131 C 0.80414 0.87990 0.67435
 C2132 C 0.79875 0.89437 0.68462
 C2133 C 0.80171 0.89451 0.70276
 C2134 C 0.81006 0.88020 0.71029
 C2135 C 0.81551 0.86594 0.69996
 C2136 C 0.81265 0.86564 0.68192
 C2137 C 0.79623 0.90892 0.71307
 C2138 C 0.78775 0.92317 0.70548
 C2139 C 0.78492 0.92302 0.68730
 C2140 C 0.79049 0.90870 0.67700
 C2141 C 0.77630 0.93709 0.67971
 C2142 C 0.77008 0.95092 0.69006
 C2143 C 0.77251 0.95113 0.70818
 C2144 C 0.78168 0.93737 0.71580
 H2145 H 0.80205 0.87988 0.66043
 H2146 H 0.81241 0.88003 0.72416
 H2147 H 0.82188 0.85502 0.70613
 H2148 H 0.79842 0.90895 0.72699
 H2149 H 0.78823 0.90862 0.66309
 H2150 H 0.77408 0.93723 0.66582
 H2151 H 0.76313 0.96143 0.68386
 H2152 H 0.78350 0.93734 0.72978
 C2153 C 0.69339 0.58826 0.65872
 C2154 C 0.70323 0.57651 0.66838
 C2155 C 0.69927 0.57353 0.68623
 C2156 C 0.68580 0.58248 0.69420
 C2157 C 0.67622 0.59423 0.68461
 C2158 C 0.67974 0.59716 0.66673
 C2159 C 0.70883 0.56168 0.69591
 C2160 C 0.72244 0.55282 0.68804
 C2161 C 0.72663 0.55592 0.67027
 C2162 C 0.71695 0.56769 0.66051
 C2163 C 0.74046 0.54717 0.66260
 C2164 C 0.74996 0.53542 0.67242
 C2165 C 0.74572 0.53208 0.69004
 C2166 C 0.73192 0.54088 0.69775
 H2167 H 0.69625 0.59030 0.64497
 H2168 H 0.68272 0.58049 0.70792
 H2169 H 0.66618 0.60119 0.69137
 H2170 H 0.70569 0.55937 0.70959
 H2171 H 0.72011 0.57001 0.64685
 H2172 H 0.74391 0.54941 0.64901
 H2173 H 0.76053 0.52877 0.66617
 H2174 H 0.72859 0.53854 0.71136
 C2175 C 0.68820 0.09049 0.18094
 C2176 C 0.69520 0.07644 0.19028
 C2177 C 0.68947 0.07287 0.20751
 C2178 C 0.67679 0.08344 0.21507
 C2179 C 0.67014 0.09767 0.20581
 C2180 C 0.67586 0.10150 0.18869
 C2181 C 0.69669 0.05901 0.21698
 C2182 C 0.70983 0.04894 0.20954
 C2183 C 0.71561 0.05262 0.19232
 C2184 C 0.70813 0.06619 0.18273
 C2185 C 0.72898 0.04284 0.18505
 C2186 C 0.73671 0.02965 0.19480
 C2187 C 0.73106 0.02582 0.21190
 C2188 C 0.71748 0.03544 0.21914
 H2189 H 0.69254 0.09288 0.16766
 H2190 H 0.67227 0.08092 0.22829
 H2191 H 0.66080 0.10591 0.21228
 H2192 H 0.69230 0.05628 0.23022
 H2193 H 0.71259 0.06900 0.16953
 H2194 H 0.73358 0.04551 0.17189
 H2195 H 0.74709 0.02239 0.18890
 H2196 H 0.71309 0.03270 0.23237
 C2197 C 0.19602 0.59468 0.21416
 C2198 C 0.20399 0.58157 0.22405
 C2199 C 0.22109 0.57761 0.22057
 C2200 C 0.23000 0.58705 0.20762
 C2201 C 0.22204 0.60008 0.19794
 C2202 C 0.20492 0.60390 0.20086
 C2203 C 0.22901 0.56422 0.22999
 C2204 C 0.22012 0.55473 0.24296
 C2205 C 0.20314 0.55888 0.24677
 C2206 C 0.19515 0.57223 0.23724
 C2207 C 0.19443 0.54952 0.26000
 C2208 C 0.20243 0.53608 0.26925
 C2209 C 0.21921 0.53163 0.26529
 C2210 C 0.22798 0.54110 0.25214
 H2211 H 0.18283 0.59738 0.21655
 H2212 H 0.24315 0.58432 0.20492
 H2213 H 0.22939 0.60722 0.18817
 H2214 H 0.24208 0.56112 0.22716
 H2215 H 0.18207 0.57529 0.24004
 H2216 H 0.18143 0.55255 0.26317
 H2217 H 0.19540 0.52898 0.27932
 H2218 H 0.24098 0.53791 0.24908
 C2219 C 0.19403 0.09184 0.70270
 C2220 C 0.20297 0.08037 0.71349
 C2221 C 0.19807 0.07855 0.73127
 C2222 C 0.18447 0.08830 0.73797
 C2223 C 0.17574 0.09976 0.72720
 C2224 C 0.18034 0.10165 0.70944
 C2225 C 0.20681 0.06700 0.74207
 C2226 C 0.22039 0.05720 0.73536
 C2227 C 0.22545 0.05911 0.71764
 C2228 C 0.21670 0.07070 0.70681
 C2229 C 0.23906 0.04923 0.71104
 C2230 C 0.24738 0.03732 0.72179
 C2231 C 0.24225 0.03512 0.73935
 C2232 C 0.22884 0.04530 0.74607
 H2233 H 0.19765 0.09300 0.68903
 H2234 H 0.18063 0.08714 0.75159
 H2235 H 0.16555 0.10738 0.73295
 H2236 H 0.20296 0.06556 0.75568
 H2237 H 0.22052 0.07211 0.69319
 H2238 H 0.24314 0.05055 0.69751
 H2239 H 0.25767 0.02963 0.71627
 H2240 H 0.22475 0.04374 0.75958
 C2241 C 0.31140 0.59791 0.33573
 C2242 C 0.30445 0.58264 0.32826
 C2243 C 0.30778 0.57877 0.31046
 C2244 C 0.31818 0.59017 0.30054
 C2245 C 0.32470 0.60564 0.30798
 C2246 C 0.32115 0.60986 0.32558
 C2247 C 0.30028 0.56387 0.30279
 C2248 C 0.28909 0.55313 0.31257
 C2249 C 0.28581 0.55701 0.33039
 C2250 C 0.29374 0.57155 0.33819
 C2251 C 0.27427 0.54658 0.34000
 C2252 C 0.26567 0.53274 0.33192
 C2253 C 0.26871 0.52887 0.31419
 C2254 C 0.28070 0.53893 0.30467
 H2255 H 0.30887 0.60064 0.34941
 H2256 H 0.32086 0.58742 0.28687
 H2257 H 0.33205 0.61454 0.29976
 H2258 H 0.30273 0.56096 0.28910
 H2259 H 0.29113 0.57459 0.35183
 H2260 H 0.27162 0.54939 0.35366
 H2261 H 0.25656 0.52512 0.33952
 H2262 H 0.28304 0.53614 0.29094
 C2263 C 0.33666 0.09724 0.81875
 C2264 C 0.32538 0.08539 0.81088
 C2265 C 0.30792 0.08888 0.81190
 C2266 C 0.30207 0.10437 0.82005
 C2267 C 0.31328 0.11584 0.82802
 C2268 C 0.33053 0.11216 0.82785
 C2269 C 0.29649 0.07658 0.80530
 C2270 C 0.30219 0.06071 0.79777
 C2271 C 0.31961 0.05741 0.79607
 C2272 C 0.33113 0.06979 0.80264
 C2273 C 0.32514 0.04162 0.78806
 C2274 C 0.31350 0.02914 0.78210
 C2275 C 0.29620 0.03213 0.78437
 C2276 C 0.29065 0.04801 0.79209
 H2277 H 0.34997 0.09439 0.81871
 H2278 H 0.28877 0.10730 0.82079
 H2279 H 0.30845 0.12740 0.83487
 H2280 H 0.28312 0.07916 0.80641
 H2281 H 0.34448 0.06711 0.80169
 H2282 H 0.33843 0.03888 0.78651
 H2283 H 0.31801 0.01699 0.77606
 H2284 H 0.27730 0.05052 0.79357
 C2285 C 0.81948 0.60028 0.79304
 C2286 C 0.81116 0.58658 0.78430
 C2287 C 0.79453 0.58202 0.78931
 C2288 C 0.78653 0.59132 0.80302
 C2289 C 0.79480 0.60526 0.81142
 C2290 C 0.81131 0.61005 0.80643
 C2291 C 0.78614 0.56840 0.78040
 C2292 C 0.79413 0.55952 0.76636
 C2293 C 0.81074 0.56425 0.76132
 C2294 C 0.81919 0.57761 0.77041
 C2295 C 0.81862 0.55560 0.74716
 C2296 C 0.81018 0.54235 0.73806
 C2297 C 0.79372 0.53737 0.74300
 C2298 C 0.78576 0.54605 0.75722
 H2299 H 0.83232 0.60337 0.78924
 H2300 H 0.77376 0.58803 0.80703
 H2301 H 0.78807 0.61253 0.82154
 H2302 H 0.77338 0.56486 0.78425
 H2303 H 0.83193 0.58119 0.76652
 H2304 H 0.83133 0.55910 0.74311
 H2305 H 0.81663 0.53585 0.72723
 H2306 H 0.77306 0.54239 0.76114
 C2307 C 0.81313 0.09432 0.29961
 C2308 C 0.80639 0.08016 0.29005
 C2309 C 0.81190 0.07730 0.27259
 C2310 C 0.82385 0.08871 0.26493
 C2311 C 0.83030 0.10289 0.27443
 C2312 C 0.82512 0.10585 0.29189
 C2313 C 0.80529 0.06317 0.26299
 C2314 C 0.79303 0.05199 0.27052
 C2315 C 0.78732 0.05495 0.28789
 C2316 C 0.79415 0.06892 0.29761
 C2317 C 0.77476 0.04395 0.29519
 C2318 C 0.76785 0.03023 0.28532
 C2319 C 0.77356 0.02712 0.26809
 C2320 C 0.78624 0.03802 0.26082
 H2321 H 0.80910 0.09624 0.31306
 H2322 H 0.82809 0.08679 0.25152
 H2323 H 0.83918 0.11167 0.26789
 H2324 H 0.80958 0.06097 0.24962
 H2325 H 0.78982 0.07116 0.31096
 H2326 H 0.77019 0.04604 0.30846
 H2327 H 0.75810 0.02198 0.29121
 H2328 H 0.79062 0.03584 0.24749
 C2329 C 0.69643 0.41621 0.31274
 C2330 C 0.70404 0.42930 0.30212
 C2331 C 0.69775 0.43262 0.28534
 C2332 C 0.68404 0.42276 0.27946
 C2333 C 0.67659 0.40972 0.29007
 C2334 C 0.68265 0.40628 0.30683
 C2335 C 0.70524 0.44572 0.27470
 C2336 C 0.71901 0.45554 0.28059
 C2337 C 0.72539 0.45218 0.29732
 C2338 C 0.71784 0.43911 0.30800
 C2339 C 0.73923 0.46198 0.30307
 C2340 C 0.74665 0.47502 0.29237
 C2341 C 0.74034 0.47854 0.27575
 C2342 C 0.72649 0.46867 0.26997
 H2343 H 0.70113 0.41393 0.32569
 H2344 H 0.67911 0.42507 0.26660
 H2345 H 0.66622 0.40214 0.28501
 H2346 H 0.70037 0.44828 0.26185
 H2347 H 0.72272 0.43656 0.32086
 H2348 H 0.74430 0.45958 0.31584
 H2349 H 0.75729 0.48241 0.29716
 H2350 H 0.72150 0.47118 0.25717
 C2351 C 0.68802 0.88497 0.80201
 C2352 C 0.69526 0.89822 0.79125
 C2353 C 0.69405 0.89695 0.77291
 C2354 C 0.68581 0.88234 0.76563
 C2355 C 0.67874 0.86918 0.77639
 C2356 C 0.67962 0.87036 0.79470
 C2357 C 0.70116 0.91025 0.76213
 C2358 C 0.70970 0.92471 0.76945
 C2359 C 0.71105 0.92582 0.78782
 C2360 C 0.70371 0.91270 0.79858
 C2361 C 0.71994 0.93995 0.79516
 C2362 C 0.72769 0.95268 0.78446
 C2363 C 0.72646 0.95179 0.76620
 C2364 C 0.71721 0.93789 0.75874
 H2365 H 0.68871 0.88621 0.81606
 H2366 H 0.68487 0.88104 0.75160
 H2367 H 0.67267 0.85797 0.77029
 H2368 H 0.70018 0.90925 0.74807
 H2369 H 0.70474 0.91366 0.81264
 H2370 H 0.72111 0.94101 0.80919
 H2371 H 0.73469 0.96332 0.79050
 H2372 H 0.71635 0.93701 0.74467
 C2373 C 0.17879 0.38246 0.82458
 C2374 C 0.18586 0.39670 0.81508
 C2375 C 0.18069 0.39993 0.79786
 C2376 C 0.16870 0.38880 0.79039
 C2377 C 0.16192 0.37450 0.79982
 C2378 C 0.16682 0.37112 0.81703
 C2379 C 0.18768 0.41414 0.78832
 C2380 C 0.20000 0.42500 0.79566
 C2381 C 0.20535 0.42169 0.81281
 C2382 C 0.19812 0.40765 0.82248
 C2383 C 0.21798 0.43236 0.81989
 C2384 C 0.22533 0.44610 0.81003
 C2385 C 0.22000 0.44957 0.79303
 C2386 C 0.20722 0.43900 0.78599
 H2387 H 0.18259 0.38033 0.83788
 H2388 H 0.16468 0.39102 0.77716
 H2389 H 0.15302 0.36596 0.79344
 H2390 H 0.18366 0.41662 0.77511
 H2391 H 0.20219 0.40513 0.83566
 H2392 H 0.22228 0.42998 0.83299
 H2393 H 0.23515 0.45405 0.81573
 H2394 H 0.20312 0.44141 0.77281
 C2395 C 0.18721 0.90765 0.31868
 C2396 C 0.19741 0.92210 0.31354
 C2397 C 0.21403 0.92333 0.31952
 C2398 C 0.22018 0.91007 0.33044
 C2399 C 0.21002 0.89570 0.33539
 C2400 C 0.19341 0.89431 0.32964
 C2401 C 0.22429 0.93769 0.31442
 C2402 C 0.21822 0.95079 0.30321
 C2403 C 0.20164 0.94954 0.29714
 C2404 C 0.19130 0.93529 0.30244
 C2405 C 0.19574 0.96249 0.28569
 C2406 C 0.20623 0.97638 0.28008
 C2407 C 0.22276 0.97773 0.28600
 C2408 C 0.22860 0.96495 0.29775
 H2409 H 0.17442 0.90690 0.31427
 H2410 H 0.23292 0.91073 0.33505
 H2411 H 0.21530 0.88553 0.34354
 H2412 H 0.23703 0.93859 0.31902
 H2413 H 0.17857 0.93436 0.29778
 H2414 H 0.18307 0.96175 0.28089
 H2415 H 0.20142 0.98607 0.27105
 H2416 H 0.24137 0.96576 0.30229
 C2417 C 0.40856 0.30932 0.70389
 C2418 C 0.42278 0.30038 0.70983
 C2419 C 0.42529 0.28231 0.70542
 C2420 C 0.41355 0.27349 0.69519
 C2421 C 0.39937 0.28239 0.68950
 C2422 C 0.39666 0.30040 0.69374
 C2423 C 0.43935 0.27325 0.71150
 C2424 C 0.45081 0.28193 0.72224
 C2425 C 0.44828 0.30000 0.72669
 C2426 C 0.43440 0.30916 0.72030
 C2427 C 0.45950 0.30854 0.73776
 C2428 C 0.47283 0.29916 0.74475
 C2429 C 0.47540 0.28116 0.74054
 C2430 C 0.46450 0.27270 0.72900
 H2431 H 0.40680 0.32321 0.70713
 H2432 H 0.41521 0.25961 0.69178
 H2433 H 0.39036 0.27498 0.68204
 H2434 H 0.44121 0.25937 0.70814
 H2435 H 0.43248 0.32300 0.72377
 H2436 H 0.45777 0.32237 0.74131
 H2437 H 0.48112 0.30598 0.75356
 H2438 H 0.46629 0.25877 0.72583
 C2439 C 0.37296 0.80788 0.17593
 C2440 C 0.38676 0.80070 0.18470
 C2441 C 0.38957 0.80567 0.20220
 C2442 C 0.37840 0.81719 0.21080
 C2443 C 0.36474 0.82412 0.20211
 C2444 C 0.36195 0.81989 0.18450
 C2445 C 0.40356 0.79917 0.21087
 C2446 C 0.41480 0.78759 0.20238
 C2447 C 0.41186 0.78213 0.18506
 C2448 C 0.39789 0.78880 0.17627
 C2449 C 0.42302 0.77015 0.17687
 C2450 C 0.43703 0.76384 0.18569
 C2451 C 0.44026 0.76963 0.20273
 C2452 C 0.42899 0.78145 0.21099
 H2453 H 0.37106 0.80445 0.16240
 H2454 H 0.38026 0.82092 0.22429
 H2455 H 0.35632 0.83283 0.20930
 H2456 H 0.40575 0.80320 0.22423
 H2457 H 0.39574 0.78480 0.16290
 H2458 H 0.42096 0.76572 0.16364
 H2459 H 0.44552 0.75472 0.17906
 H2460 H 0.43121 0.78582 0.22424
 C2461 C 0.90029 0.33140 0.19723
 C2462 C 0.91296 0.32243 0.20620
 C2463 C 0.91460 0.30380 0.20422
 C2464 C 0.90338 0.29439 0.19392
 C2465 C 0.89092 0.30333 0.18511
 C2466 C 0.88943 0.32192 0.18630
 C2467 C 0.92760 0.29481 0.21230
 C2468 C 0.93909 0.30411 0.22239
 C2469 C 0.93731 0.32260 0.22499
 C2470 C 0.92422 0.33170 0.21684
 C2471 C 0.94880 0.33161 0.23554
 C2472 C 0.96212 0.32240 0.24302
 C2473 C 0.96424 0.30415 0.23982
 C2474 C 0.95252 0.29510 0.22969
 H2475 H 0.89922 0.34571 0.19829
 H2476 H 0.90435 0.28009 0.19248
 H2477 H 0.88243 0.29562 0.17727
 H2478 H 0.92893 0.28056 0.21050
 H2479 H 0.92296 0.34595 0.21855
 H2480 H 0.94759 0.34576 0.23784
 H2481 H 0.97099 0.32960 0.25089
 H2482 H 0.95389 0.28094 0.22743
 C2483 C 0.89716 0.80269 0.67272
 C2484 C 0.91151 0.79547 0.68011
 C2485 C 0.91474 0.77709 0.67846
 C2486 C 0.90365 0.76636 0.66905
 C2487 C 0.88913 0.77365 0.66200
 C2488 C 0.88556 0.79181 0.66413
 C2489 C 0.92870 0.76973 0.68665
 C2490 C 0.93916 0.78049 0.69682
 C2491 C 0.93592 0.79891 0.69825
 C2492 C 0.92229 0.80631 0.68968
 C2493 C 0.94607 0.80961 0.70866
 C2494 C 0.95904 0.80209 0.71803
 C2495 C 0.96230 0.78378 0.71696
 C2496 C 0.95249 0.77308 0.70603
 H2497 H 0.89482 0.81680 0.67406
 H2498 H 0.90593 0.75224 0.66759
 H2499 H 0.88041 0.76498 0.65547
 H2500 H 0.93112 0.75559 0.68555
 H2501 H 0.91974 0.82041 0.69095
 H2502 H 0.94375 0.82375 0.70986
 H2503 H 0.96647 0.81063 0.72625
 H2504 H 0.95482 0.75892 0.70519
 C2505 C 0.59935 0.33643 0.31133
 C2506 C 0.58567 0.32586 0.30639
 C2507 C 0.57605 0.31668 0.31930
 C2508 C 0.57991 0.31870 0.33693
 C2509 C 0.59364 0.32905 0.34169
 C2510 C 0.60370 0.33768 0.32896
 C2511 C 0.56303 0.30528 0.31438
 C2512 C 0.55954 0.30281 0.29669
 C2513 C 0.56885 0.31234 0.28380
 C2514 C 0.58183 0.32382 0.28873
 C2515 C 0.56516 0.31004 0.26615
 C2516 C 0.55253 0.29823 0.26128
 C2517 C 0.54348 0.28836 0.27395
 C2518 C 0.54700 0.29080 0.29167
 H2519 H 0.60712 0.34288 0.30140
 H2520 H 0.57259 0.31191 0.34700
 H2521 H 0.59664 0.33003 0.35537
 H2522 H 0.55583 0.29807 0.32429
 H2523 H 0.58913 0.33091 0.27881
 H2524 H 0.57210 0.31728 0.25610
 H2525 H 0.55004 0.29660 0.24754
 H2526 H 0.53997 0.28340 0.30156
 C2527 C 0.59745 0.79852 0.79500
 C2528 C 0.58426 0.78817 0.78857
 C2529 C 0.58196 0.77052 0.79454
 C2530 C 0.59293 0.76350 0.80674
 C2531 C 0.60599 0.77388 0.81309
 C2532 C 0.60835 0.79150 0.80738
 C2533 C 0.56872 0.76019 0.78829
 C2534 C 0.55770 0.76727 0.77615
 C2535 C 0.56003 0.78489 0.77010
 C2536 C 0.57328 0.79523 0.77635
 C2537 C 0.54902 0.79187 0.75790
 C2538 C 0.53580 0.78153 0.75177
 C2539 C 0.53332 0.76403 0.75775
 C2540 C 0.54437 0.75699 0.76997
 H2541 H 0.59902 0.81213 0.79064
 H2542 H 0.59141 0.74997 0.81139
 H2543 H 0.61436 0.76804 0.82237
 H2544 H 0.56695 0.74667 0.79292
 H2545 H 0.57503 0.80877 0.77175
 H2546 H 0.55061 0.80534 0.75310
 H2547 H 0.52748 0.78729 0.74236
 H2548 H 0.54264 0.74350 0.77465
 C2549 C 0.08530 0.29767 0.81607
 C2550 C 0.07220 0.28754 0.80908
 C2551 C 0.07060 0.26933 0.81340
 C2552 C 0.08219 0.26153 0.82445
 C2553 C 0.09529 0.27160 0.83116
 C2554 C 0.09701 0.28981 0.82715
 C2555 C 0.05754 0.25916 0.80653
 C2556 C 0.04614 0.26689 0.79517
 C2557 C 0.04780 0.28505 0.79067
 C2558 C 0.06074 0.29530 0.79776
 C2559 C 0.03655 0.29261 0.77904
 C2560 C 0.02383 0.28228 0.77187
 C2561 C 0.02199 0.26424 0.77635
 C2562 C 0.03318 0.25666 0.78811
 H2563 H 0.08628 0.31167 0.81295
 H2564 H 0.08124 0.24755 0.82778
 H2565 H 0.10421 0.26495 0.83928
 H2566 H 0.05634 0.24520 0.80990
 H2567 H 0.06197 0.30924 0.79434
 H2568 H 0.03764 0.30650 0.77542
 H2569 H 0.01535 0.28844 0.76287
 H2570 H 0.03198 0.24273 0.79155
 C2571 C 0.10499 0.81047 0.31648
 C2572 C 0.09310 0.80281 0.30551
 C2573 C 0.09374 0.80652 0.28743
 C2574 C 0.10625 0.81791 0.28067
 C2575 C 0.11818 0.82533 0.29166
 C2576 C 0.11778 0.82161 0.30966
 C2577 C 0.08200 0.79860 0.27641
 C2578 C 0.06980 0.78682 0.28323
 C2579 C 0.06922 0.78315 0.30134
 C2580 C 0.08076 0.79127 0.31237
 C2581 C 0.05723 0.77119 0.30812
 C2582 C 0.04606 0.76271 0.29707
 C2583 C 0.04652 0.76615 0.27903
 C2584 C 0.05835 0.77841 0.27221
 H2585 H 0.10426 0.80770 0.33034
 H2586 H 0.10696 0.82088 0.26683
 H2587 H 0.12793 0.83367 0.28595
 H2588 H 0.08252 0.80141 0.26252
 H2589 H 0.08030 0.78839 0.32625
 H2590 H 0.05660 0.76824 0.32196
 H2591 H 0.03703 0.75341 0.30267
 H2592 H 0.05889 0.78111 0.25831
 C2593 C 0.58836 0.67450 0.66517
 C2594 C 0.57585 0.68151 0.67645
 C2595 C 0.57529 0.67634 0.69420
 C2596 C 0.58721 0.66455 0.70047
 C2597 C 0.59963 0.65783 0.68930
 C2598 C 0.60032 0.66254 0.67151
 C2599 C 0.56292 0.68311 0.70555
 C2600 C 0.55114 0.69520 0.69950
 C2601 C 0.55165 0.70064 0.68185
 C2602 C 0.56396 0.69365 0.67035
 C2603 C 0.53989 0.71308 0.67613
 C2604 C 0.52788 0.72011 0.68785
 C2605 C 0.52732 0.71463 0.70539
 C2606 C 0.53898 0.70208 0.71103
 H2607 H 0.58869 0.67824 0.65152
 H2608 H 0.58703 0.66062 0.71408
 H2609 H 0.60888 0.64913 0.69479
 H2610 H 0.56255 0.67907 0.71915
 H2611 H 0.56437 0.69775 0.65678
 H2612 H 0.54008 0.71747 0.66267
 H2613 H 0.51903 0.72980 0.68320
 H2614 H 0.53881 0.69784 0.72456
 C2615 C 0.60281 0.18268 0.19649
 C2616 C 0.58912 0.19267 0.20283
 C2617 C 0.58090 0.20451 0.19158
 C2618 C 0.58637 0.20595 0.17412
 C2619 C 0.60001 0.19598 0.16792
 C2620 C 0.60848 0.18435 0.17903
 C2621 C 0.56746 0.21482 0.19800
 C2622 C 0.56218 0.21349 0.21556
 C2623 C 0.57029 0.20147 0.22674
 C2624 C 0.58368 0.19114 0.22031
 C2625 C 0.56496 0.20009 0.24424
 C2626 C 0.55188 0.21067 0.25071
 C2627 C 0.54385 0.22287 0.23983
 C2628 C 0.54902 0.22411 0.22218
 H2629 H 0.60930 0.17398 0.20529
 H2630 H 0.58015 0.21487 0.16527
 H2631 H 0.60388 0.19733 0.15435
 H2632 H 0.56124 0.22399 0.18938
 H2633 H 0.58995 0.18203 0.22894
 H2634 H 0.57101 0.19093 0.25297
 H2635 H 0.54818 0.20941 0.26435
 H2636 H 0.54292 0.23342 0.21363
 C2637 C 0.12114 0.67526 0.19861
 C2638 C 0.10739 0.68565 0.20422
 C2639 C 0.10564 0.70314 0.19776
 C2640 C 0.11773 0.71002 0.18602
 C2641 C 0.13132 0.69964 0.18053
 C2642 C 0.13314 0.68211 0.18659
 C2643 C 0.09183 0.71348 0.20307
 C2644 C 0.07972 0.70662 0.21483
 C2645 C 0.08151 0.68921 0.22146
 C2646 C 0.09530 0.67881 0.21608
 C2647 C 0.06947 0.68251 0.23340
 C2648 C 0.05582 0.69296 0.23875
 C2649 C 0.05384 0.71024 0.23215
 C2650 C 0.06587 0.71695 0.22012
 H2651 H 0.12228 0.66176 0.20329
 H2652 H 0.11666 0.72344 0.18105
 H2653 H 0.14051 0.70542 0.17157
 H2654 H 0.09051 0.72686 0.19803
 H2655 H 0.09662 0.66543 0.22111
 H2656 H 0.07064 0.66922 0.23865
 H2657 H 0.04674 0.68745 0.24802
 H2658 H 0.06457 0.73030 0.21502
 C2659 C 0.09091 0.17978 0.69509
 C2660 C 0.07682 0.18622 0.70455
 C2661 C 0.07558 0.18346 0.72281
 C2662 C 0.08846 0.17474 0.73137
 C2663 C 0.10230 0.16840 0.72194
 C2664 C 0.10358 0.17053 0.70372
 C2665 C 0.06147 0.18937 0.73231
 C2666 C 0.04856 0.19821 0.72390
 C2667 C 0.04979 0.20133 0.70572
 C2668 C 0.06388 0.19521 0.69611
 C2669 C 0.03694 0.21066 0.69754
 C2670 C 0.02316 0.21700 0.70734
 C2671 C 0.02184 0.21381 0.72540
 C2672 C 0.03454 0.20423 0.73353
 H2673 H 0.09180 0.18148 0.68106
 H2674 H 0.08778 0.17271 0.74537
 H2675 H 0.11208 0.16175 0.72896
 H2676 H 0.06057 0.18713 0.74630
 H2677 H 0.06480 0.19748 0.68214
 H2678 H 0.03765 0.21325 0.68363
 H2679 H 0.01354 0.22442 0.70080
 H2680 H 0.03379 0.20195 0.74750
 C2681 C 0.39174 0.69353 0.31058
 C2682 C 0.40357 0.70380 0.30120
 C2683 C 0.40251 0.72255 0.30156
 C2684 C 0.38963 0.73067 0.31142
 C2685 C 0.37775 0.72032 0.32056
 C2686 C 0.37858 0.70164 0.32014
 C2687 C 0.41417 0.73281 0.29186
 C2688 C 0.42667 0.72452 0.28155
 C2689 C 0.42767 0.70574 0.28126
 C2690 C 0.41625 0.69553 0.29122
 C2691 C 0.43987 0.69740 0.27073
 C2692 C 0.45079 0.70751 0.26026
 C2693 C 0.44990 0.72617 0.26029
 C2694 C 0.43796 0.73464 0.27121
 H2695 H 0.39279 0.67919 0.31037
 H2696 H 0.38858 0.74502 0.31183
 H2697 H 0.36769 0.72700 0.32762
 H2698 H 0.41332 0.74720 0.29208
 H2699 H 0.41702 0.68114 0.29090
 H2700 H 0.44081 0.68304 0.27037
 H2701 H 0.45996 0.70068 0.25206
 H2702 H 0.43711 0.74902 0.27123
 C2703 C 0.41247 0.18589 0.82474
 C2704 C 0.42526 0.19693 0.81792
 C2705 C 0.42586 0.21505 0.82280
 C2706 C 0.41352 0.22184 0.83427
 C2707 C 0.40081 0.21078 0.84097
 C2708 C 0.40018 0.19267 0.83640
 C2709 C 0.43877 0.22606 0.81615
 C2710 C 0.45102 0.21920 0.80456
 C2711 C 0.45029 0.20110 0.79957
 C2712 C 0.43749 0.19008 0.80635
 C2713 C 0.46231 0.19432 0.78776
 C2714 C 0.47486 0.20536 0.78079
 C2715 C 0.47579 0.22336 0.78564
 C2716 C 0.46389 0.23018 0.79770
 H2717 H 0.41230 0.17194 0.82126
 H2718 H 0.41371 0.23572 0.83807
 H2719 H 0.39139 0.21646 0.84969
 H2720 H 0.43924 0.23995 0.81994
 H2721 H 0.43701 0.17619 0.80255
 H2722 H 0.46192 0.18049 0.78379
 H2723 H 0.48390 0.19976 0.77157
 H2724 H 0.46442 0.24408 0.80141
 C2725 C 0.89444 0.69983 0.80578
 C2726 C 0.90794 0.70735 0.79622
 C2727 C 0.91028 0.70305 0.77837
 C2728 C 0.89890 0.69168 0.77029
 C2729 C 0.88537 0.68448 0.77980
 C2730 C 0.88303 0.68827 0.79770
 C2731 C 0.92393 0.71022 0.76885
 C2732 C 0.93513 0.72189 0.77688
 C2733 C 0.93259 0.72656 0.79463
 C2734 C 0.91911 0.71912 0.80424
 C2735 C 0.94355 0.73869 0.80242
 C2736 C 0.95687 0.74615 0.79270
 C2737 C 0.95964 0.74134 0.77516
 C2738 C 0.94874 0.72913 0.76735
 H2739 H 0.89305 0.70284 0.81955
 H2740 H 0.90041 0.68839 0.75657
 H2741 H 0.87669 0.67601 0.77300
 H2742 H 0.92578 0.70679 0.75519
 H2743 H 0.91725 0.72257 0.81790
 H2744 H 0.94175 0.74249 0.81597
 H2745 H 0.96514 0.75555 0.79896
 H2746 H 0.95066 0.72554 0.75373
 C2747 C 0.90404 0.19786 0.30620
 C2748 C 0.91751 0.20696 0.29806
 C2749 C 0.92083 0.20456 0.28000
 C2750 C 0.91064 0.19317 0.27038
 C2751 C 0.89725 0.18423 0.27854
 C2752 C 0.89382 0.18642 0.29652
 C2753 C 0.93420 0.21367 0.27179
 C2754 C 0.94422 0.22530 0.28137
 C2755 C 0.94091 0.22773 0.29943
 C2756 C 0.92764 0.21847 0.30769
 C2757 C 0.95084 0.23956 0.30889
 C2758 C 0.96374 0.24910 0.30050
 C2759 C 0.96707 0.24686 0.28253
 C2760 C 0.95735 0.23476 0.27308
 H2761 H 0.90164 0.19953 0.32007
 H2762 H 0.91294 0.19125 0.25651
 H2763 H 0.88942 0.17579 0.27067
 H2764 H 0.93670 0.21183 0.25792
 H2765 H 0.92510 0.22036 0.32154
 H2766 H 0.94850 0.24159 0.32274
 H2767 H 0.97109 0.25832 0.30809
 H2768 H 0.95972 0.23299 0.25919
 C2769 C 0.30296 0.30816 0.62148
 C2770 C 0.29429 0.29920 0.60829
 C2771 C 0.29778 0.28108 0.60492
 C2772 C 0.30954 0.27215 0.61490
 C2773 C 0.31804 0.28110 0.62795
 C2774 C 0.31505 0.29922 0.63127
 C2775 C 0.28959 0.27215 0.59154
 C2776 C 0.27790 0.28105 0.58142
 C2777 C 0.27408 0.29905 0.58488
 C2778 C 0.28233 0.30806 0.59831
 C2779 C 0.26213 0.30770 0.57475
 C2780 C 0.25424 0.29864 0.56120
 C2781 C 0.25829 0.28085 0.55749
 C2782 C 0.27006 0.27215 0.56778
 H2783 H 0.30057 0.32213 0.62383
 H2784 H 0.31223 0.25822 0.61258
 H2785 H 0.32693 0.27373 0.63554
 H2786 H 0.29242 0.25829 0.58891
 H2787 H 0.27955 0.32193 0.60090
 H2788 H 0.25897 0.32148 0.57724
 H2789 H 0.24519 0.30562 0.55345
 H2790 H 0.27316 0.25836 0.56520
 C2791 C 0.29727 0.80773 0.09691
 C2792 C 0.28878 0.79977 0.08300
 C2793 C 0.27159 0.80341 0.08063
 C2794 C 0.26315 0.81479 0.09231
 C2795 C 0.27164 0.82263 0.10609
 C2796 C 0.28881 0.81933 0.10853
 C2797 C 0.26309 0.79562 0.06668
 C2798 C 0.27153 0.78409 0.05508
 C2799 C 0.28870 0.78034 0.05752
 C2800 C 0.29722 0.78824 0.07139
 C2801 C 0.29706 0.76864 0.04609
 C2802 C 0.28850 0.76058 0.03248
 C2803 C 0.27144 0.76417 0.02985
 C2804 C 0.26304 0.77610 0.04117
 H2805 H 0.31050 0.80514 0.09850
 H2806 H 0.24994 0.81763 0.09080
 H2807 H 0.26466 0.83116 0.11497
 H2808 H 0.24991 0.79848 0.06490
 H2809 H 0.31040 0.78537 0.07319
 H2810 H 0.31021 0.76562 0.04775
 H2811 H 0.29531 0.75151 0.02395
 H2812 H 0.24987 0.77890 0.03936
 C2813 C 0.81307 0.31968 0.09484
 C2814 C 0.80591 0.30844 0.08238
 C2815 C 0.81062 0.29035 0.08161
 C2816 C 0.82224 0.28377 0.09334
 C2817 C 0.82913 0.29496 0.10582
 C2818 C 0.82471 0.31305 0.10673
 C2819 C 0.80357 0.27905 0.06921
 C2820 C 0.79171 0.28553 0.05763
 C2821 C 0.78684 0.30357 0.05844
 C2822 C 0.79405 0.31495 0.07075
 C2823 C 0.77479 0.30988 0.04696
 C2824 C 0.76765 0.29842 0.03478
 C2825 C 0.77253 0.28050 0.03380
 C2826 C 0.78460 0.27418 0.04530
 H2827 H 0.80962 0.33358 0.09521
 H2828 H 0.82589 0.26991 0.09301
 H2829 H 0.83771 0.28924 0.11495
 H2830 H 0.80724 0.26518 0.06863
 H2831 H 0.79035 0.32880 0.07135
 H2832 H 0.77088 0.32365 0.04740
 H2833 H 0.75840 0.30364 0.02604
 H2834 H 0.78841 0.26037 0.04476
 C2835 C 0.80961 0.78299 0.58738
 C2836 C 0.80013 0.77641 0.57347
 C2837 C 0.78337 0.78202 0.57160
 C2838 C 0.77627 0.79379 0.58381
 C2839 C 0.78565 0.80005 0.59773
 C2840 C 0.80250 0.79493 0.59971
 C2841 C 0.77392 0.77574 0.55760
 C2842 C 0.78092 0.76366 0.54554
 C2843 C 0.79758 0.75774 0.54758
 C2844 C 0.80712 0.76426 0.56143
 C2845 C 0.80439 0.74532 0.53576
 C2846 C 0.79482 0.73883 0.52206
 C2847 C 0.77834 0.74480 0.51971
 C2848 C 0.77148 0.75730 0.53153
 H2849 H 0.82252 0.77886 0.58842
 H2850 H 0.76338 0.79810 0.58269
 H2851 H 0.77948 0.80882 0.60699
 H2852 H 0.76110 0.78018 0.55616
 H2853 H 0.81993 0.75979 0.56288
 H2854 H 0.81711 0.74058 0.53715
 H2855 H 0.80042 0.72925 0.51313
 H2856 H 0.75873 0.76190 0.52997
 C2857 C 0.30821 0.70372 0.40582
 C2858 C 0.29804 0.71019 0.41961
 C2859 C 0.28142 0.70375 0.42184
 C2860 C 0.27516 0.69123 0.41013
 C2861 C 0.28533 0.68490 0.39646
 C2862 C 0.30199 0.69089 0.39425
 C2863 C 0.27133 0.70984 0.43579
 C2864 C 0.27760 0.72235 0.44754
 C2865 C 0.29412 0.72903 0.44520
 C2866 C 0.30426 0.72286 0.43128
 C2867 C 0.30020 0.74176 0.45687
 C2868 C 0.29002 0.74779 0.47073
 C2869 C 0.27366 0.74106 0.47326
 C2870 C 0.26755 0.72831 0.46158
 H2871 H 0.32105 0.70835 0.40436
 H2872 H 0.26241 0.68627 0.41156
 H2873 H 0.28008 0.67532 0.38754
 H2874 H 0.25862 0.70480 0.43754
 H2875 H 0.31698 0.72788 0.42955
 H2876 H 0.31281 0.74706 0.45527
 H2877 H 0.29501 0.75762 0.47957
 H2878 H 0.25489 0.72316 0.46331
 C2879 C 0.33052 0.18932 0.92091
 C2880 C 0.31885 0.19703 0.93265
 C2881 C 0.30247 0.18983 0.93428
 C2882 C 0.29800 0.17515 0.92421
 C2883 C 0.30951 0.16779 0.91236
 C2884 C 0.32592 0.17474 0.91045
 C2885 C 0.29069 0.19755 0.94576
 C2886 C 0.29495 0.21259 0.95547
 C2887 C 0.31128 0.21992 0.95386
 C2888 C 0.32320 0.21200 0.94255
 C2889 C 0.31534 0.23514 0.96348
 C2890 C 0.30331 0.24302 0.97455
 C2891 C 0.28706 0.23576 0.97625
 C2892 C 0.28302 0.22048 0.96667
 H2893 H 0.34308 0.19479 0.91985
 H2894 H 0.28547 0.16955 0.92525
 H2895 H 0.30521 0.15689 0.90444
 H2896 H 0.27813 0.19198 0.94696
 H2897 H 0.33573 0.21762 0.94130
 H2898 H 0.32778 0.24097 0.96242
 H2899 H 0.30677 0.25477 0.98184
 H2900 H 0.27053 0.21477 0.96782
 C2901 C 0.80406 0.68381 0.89162
 C2902 C 0.79862 0.69262 0.90692
 C2903 C 0.80976 0.70403 0.91572
 C2904 C 0.82629 0.70600 0.90939
 C2905 C 0.83162 0.69717 0.89423
 C2906 C 0.82054 0.68623 0.88496
 C2907 C 0.80418 0.71346 0.93056
 C2908 C 0.78756 0.71163 0.93676
 C2909 C 0.77654 0.69985 0.92824
 C2910 C 0.78212 0.69044 0.91339
 C2911 C 0.76001 0.69784 0.93459
 C2912 C 0.75431 0.70770 0.94897
 C2913 C 0.76498 0.71985 0.95728
 C2914 C 0.78169 0.72159 0.95118
 H2915 H 0.79531 0.67554 0.88465
 H2916 H 0.83507 0.71452 0.91607
 H2917 H 0.84449 0.69897 0.88977
 H2918 H 0.81270 0.72238 0.93713
 H2919 H 0.77357 0.68160 0.90675
 H2920 H 0.75142 0.68882 0.92828
 H2921 H 0.74138 0.70607 0.95336
 H2922 H 0.79008 0.73083 0.95752
 C2923 C 0.82257 0.19383 0.38057
 C2924 C 0.81326 0.20171 0.39428
 C2925 C 0.79578 0.19862 0.39580
 C2926 C 0.78792 0.18774 0.38356
 C2927 C 0.79727 0.18001 0.36991
 C2928 C 0.81468 0.18295 0.36824
 C2929 C 0.78643 0.20653 0.40946
 C2930 C 0.79433 0.21760 0.42155
 C2931 C 0.81182 0.22071 0.41998
 C2932 C 0.82118 0.21267 0.40643
 C2933 C 0.81965 0.23194 0.43193
 C2934 C 0.81024 0.24020 0.44521
 C2935 C 0.79284 0.23726 0.44690
 C2936 C 0.78498 0.22580 0.43507
 H2937 H 0.83600 0.19603 0.37965
 H2938 H 0.77452 0.18528 0.38448
 H2939 H 0.79078 0.17192 0.36051
 H2940 H 0.77301 0.20416 0.41061
 H2941 H 0.83459 0.21508 0.40525
 H2942 H 0.83304 0.23447 0.43092
 H2943 H 0.81662 0.24893 0.45416
 H2944 H 0.77156 0.22350 0.43617
 C2945 C 0.70415 0.33257 0.38908
 C2946 C 0.71305 0.32129 0.40016
 C2947 C 0.70876 0.30303 0.40106
 C2948 C 0.69606 0.29625 0.39063
 C2949 C 0.68724 0.30753 0.37982
 C2950 C 0.69093 0.32580 0.37916
 C2951 C 0.71694 0.29184 0.41262
 C2952 C 0.72926 0.29863 0.42351
 C2953 C 0.73395 0.31675 0.42244
 C2954 C 0.72585 0.32799 0.41069
 C2955 C 0.74645 0.32329 0.43340
 C2956 C 0.75385 0.31210 0.44560
 C2957 C 0.74878 0.29423 0.44707
 C2958 C 0.73668 0.28757 0.43575
 H2959 H 0.70706 0.34665 0.38865
 H2960 H 0.69276 0.28226 0.39105
 H2961 H 0.67741 0.30193 0.37198
 H2962 H 0.71345 0.27790 0.41342
 H2963 H 0.72924 0.34195 0.41000
 H2964 H 0.75030 0.33711 0.43272
 H2965 H 0.76320 0.31751 0.45418
 H2966 H 0.73282 0.27375 0.43661
 C2967 C 0.68875 0.81276 0.89147
 C2968 C 0.69436 0.80559 0.90726
 C2969 C 0.68275 0.79734 0.91897
 C2970 C 0.66568 0.79710 0.91510
 C2971 C 0.66023 0.80421 0.89943
 C2972 C 0.67170 0.81166 0.88721
 C2973 C 0.68838 0.78912 0.93417
 C2974 C 0.70552 0.78902 0.93788
 C2975 C 0.71707 0.79786 0.92653
 C2976 C 0.71143 0.80606 0.91130
 C2977 C 0.73414 0.79810 0.93047
 C2978 C 0.73979 0.78930 0.94524
 C2979 C 0.72853 0.77992 0.95629
 C2980 C 0.71134 0.77998 0.95260
 H2981 H 0.69773 0.81844 0.88219
 H2982 H 0.65657 0.79107 0.92403
 H2983 H 0.64697 0.80361 0.89674
 H2984 H 0.67947 0.78253 0.94294
 H2985 H 0.72037 0.81251 0.90245
 H2986 H 0.74317 0.80489 0.92201
 H2987 H 0.75311 0.78945 0.94776
 H2988 H 0.70253 0.77291 0.96110
 C2989 C 0.18658 0.30504 0.90422
 C2990 C 0.19567 0.29674 0.91742
 C2991 C 0.19359 0.27830 0.92037
 C2992 C 0.18275 0.26843 0.90997
 C2993 C 0.17383 0.27674 0.89689
 C2994 C 0.17548 0.29513 0.89395
 C2995 C 0.20226 0.26998 0.93373
 C2996 C 0.21301 0.27983 0.94426
 C2997 C 0.21538 0.29821 0.94123
 C2998 C 0.20667 0.30658 0.92781
 C2999 C 0.22632 0.30787 0.95181
 C3000 C 0.23462 0.29944 0.96540
 C3001 C 0.23204 0.28124 0.96867
 C3002 C 0.22131 0.27153 0.95790
 H3003 H 0.18790 0.31923 0.90221
 H3004 H 0.18114 0.25426 0.91198
 H3005 H 0.16573 0.26867 0.88895
 H3006 H 0.20053 0.25585 0.93604
 H3007 H 0.20836 0.32071 0.92554
 H3008 H 0.22834 0.32196 0.94967
 H3009 H 0.24284 0.30721 0.97351
 H3010 H 0.21930 0.25745 0.96017
 C3011 C 0.18393 0.81925 0.41067
 C3012 C 0.18991 0.80923 0.42462
 C3013 C 0.18724 0.79065 0.42505
 C3014 C 0.17845 0.78246 0.41157
 C3015 C 0.17271 0.79251 0.39759
 C3016 C 0.17554 0.81098 0.39688
 C3017 C 0.19366 0.78054 0.43874
 C3018 C 0.20299 0.78876 0.45184
 C3019 C 0.20554 0.80738 0.45142
 C3020 C 0.19884 0.81751 0.43794
 C3021 C 0.21510 0.81555 0.46429
 C3022 C 0.22246 0.80536 0.47722
 C3023 C 0.22021 0.78682 0.47768
 C3024 C 0.21018 0.77862 0.46509
 H3025 H 0.18593 0.83349 0.41051
 H3026 H 0.17630 0.76822 0.41165
 H3027 H 0.16645 0.78571 0.38713
 H3028 H 0.19171 0.76626 0.43900
 H3029 H 0.20091 0.83177 0.43759
 H3030 H 0.21716 0.82980 0.46418
 H3031 H 0.23004 0.81200 0.48681
 H3032 H 0.20845 0.76432 0.46526
 C3033 C 0.68176 0.66781 0.57992
 C3034 C 0.68913 0.67760 0.56619
 C3035 C 0.68658 0.69615 0.56524
 C3036 C 0.67647 0.70453 0.57802
 C3037 C 0.66916 0.69465 0.59169
 C3038 C 0.67186 0.67623 0.59286
 C3039 C 0.69431 0.70601 0.55169
 C3040 C 0.70467 0.69752 0.53918
 C3041 C 0.70702 0.67891 0.54011
 C3042 C 0.69916 0.66908 0.55350
 C3043 C 0.71747 0.67042 0.52780
 C3044 C 0.72595 0.68029 0.51496
 C3045 C 0.72401 0.69883 0.51402
 C3046 C 0.71307 0.70736 0.52600
 H3047 H 0.68366 0.65357 0.58050
 H3048 H 0.67435 0.71874 0.57753
 H3049 H 0.66165 0.70146 0.60154
 H3050 H 0.69247 0.72027 0.55103
 H3051 H 0.70109 0.65483 0.55423
 H3052 H 0.71936 0.65617 0.52830
 H3053 H 0.73421 0.67338 0.50583
 H3054 H 0.71155 0.72166 0.52545
 C3055 C 0.68659 0.18987 0.10189
 C3056 C 0.69716 0.19683 0.08862
 C3057 C 0.71444 0.19259 0.08827
 C3058 C 0.72089 0.18171 0.10129
 C3059 C 0.71033 0.17492 0.11447
 C3060 C 0.69306 0.17877 0.11487
 C3061 C 0.72500 0.19927 0.07491
 C3062 C 0.71855 0.21025 0.06194
 C3063 C 0.70132 0.21471 0.06239
 C3064 C 0.69072 0.20790 0.07568
 C3065 C 0.69501 0.22594 0.04954
 C3066 C 0.70567 0.23274 0.03639
 C3067 C 0.72278 0.22825 0.03574
 C3068 C 0.72911 0.21694 0.04857
 H3069 H 0.67331 0.19283 0.10189
 H3070 H 0.73412 0.17844 0.10129
 H3071 H 0.71576 0.16674 0.12444
 H3072 H 0.73824 0.19593 0.07463
 H3073 H 0.67748 0.21124 0.07596
 H3074 H 0.68186 0.22953 0.04969
 H3075 H 0.70048 0.24142 0.02664
 H3076 H 0.74232 0.21351 0.04830
 C3077 C 0.19684 0.67207 0.09785
 C3078 C 0.20528 0.67856 0.08288
 C3079 C 0.22274 0.67583 0.08067
 C3080 C 0.23140 0.66645 0.09340
 C3081 C 0.22294 0.66023 0.10839
 C3082 C 0.20561 0.66313 0.11090
 C3083 C 0.23131 0.68285 0.06598
 C3084 C 0.22267 0.69290 0.05367
 C3085 C 0.20517 0.69549 0.05587
 C3086 C 0.19656 0.68813 0.07032
 C3087 C 0.19659 0.70583 0.04381
 C3088 C 0.20532 0.71403 0.03002
 C3089 C 0.22275 0.71182 0.02782
 C3090 C 0.23132 0.70089 0.03949
 H3091 H 0.18345 0.67414 0.09940
 H3092 H 0.24479 0.66425 0.09195
 H3093 H 0.23011 0.65358 0.11824
 H3094 H 0.24473 0.68089 0.06436
 H3095 H 0.18317 0.69026 0.07203
 H3096 H 0.18319 0.70793 0.04529
 H3097 H 0.19844 0.72230 0.02113
 H3098 H 0.24478 0.69923 0.03799
 C3099 C 0.17678 0.18753 0.62021
 C3100 C 0.18661 0.19578 0.60701
 C3101 C 0.20430 0.19423 0.60711
 C3102 C 0.21187 0.18484 0.62055
 C3103 C 0.20205 0.17675 0.63361
 C3104 C 0.18442 0.17775 0.63348
 C3105 C 0.21417 0.20202 0.59378
 C3106 C 0.20663 0.21155 0.58038
 C3107 C 0.18897 0.21342 0.58040
 C3108 C 0.17906 0.20543 0.59365
 C3109 C 0.18154 0.22336 0.56721
 C3110 C 0.19150 0.23149 0.55422
 C3111 C 0.20904 0.22956 0.55400
 C3112 C 0.21651 0.21942 0.56707
 H3113 H 0.16323 0.18834 0.61989
 H3114 H 0.22541 0.18369 0.62094
 H3115 H 0.20832 0.16970 0.64385
 H3116 H 0.22772 0.20070 0.59385
 H3117 H 0.16551 0.20676 0.59358
 H3118 H 0.16804 0.22499 0.56702
 H3119 H 0.18547 0.23925 0.54427
 H3120 H 0.23005 0.21805 0.56713
   
