data_POSCAR
  _audit_creation_date              2014-09-24
  _audit_creation_method            'ToBaCCo'
  _symmetry_space_group_name_H-M    'P1'
  _symmetry_Int_Tables_number       1
  _symmetry_cell_setting            triclinic
  loop_
  _symmetry_equiv_pos_as_xyz
 x,y,z
_cell_length_a 46.8547
_cell_length_b 46.8556
_cell_length_c 46.8830
_cell_angle_alpha 90.044600
_cell_angle_beta 90.019700
_cell_angle_gamma 90.082400
loop_
  _atom_site_label
  _atom_site_type_symbol
  _atom_site_fract_x
  _atom_site_fract_y
  _atom_site_fract_z
C1 C 0.34151 1.34232 0.30547
 N2 N 0.32264 1.35737 0.32161
 C3 C 0.31153 1.34621 0.34596
 N4 N 0.31989 1.31973 0.35439
 C5 C 0.33977 1.30512 0.33926
 N6 N 0.35057 1.31652 0.31497
 C7 C 0.34273 0.84055 0.80409
 N8 N 0.35359 0.81627 0.81543
 C9 C 0.33979 0.80297 0.83710
 N10 N 0.31501 0.81392 0.84734
 C11 C 0.30407 0.83841 0.83624
 N12 N 0.31852 0.85196 0.81504
 C13 C 0.83664 1.33476 0.80115
 N14 N 0.81173 1.34496 0.81226
 C15 C 0.80254 1.33616 0.83844
 N16 N 0.81805 1.31668 0.85323
 C17 C 0.84198 1.30535 0.84173
 N18 N 0.85149 1.31482 0.81615
 C19 C 0.84840 0.84725 0.31056
 N20 N 0.86093 0.82474 0.32388
 C21 C 0.84959 0.81398 0.34823
 N22 N 0.82650 0.82665 0.36023
 C23 C 0.81475 0.85003 0.34787
 N24 N 0.82542 0.85994 0.32284
 C25 C 0.64345 0.64009 0.32406
 N26 N 0.66959 0.63177 0.33334
 C27 C 0.68181 0.64476 0.35617
 N28 N 0.66794 0.66635 0.36959
 C29 C 0.64189 0.67499 0.36028
 N30 N 0.62977 0.66191 0.33739
 C31 C 0.64950 0.14606 0.81650
 N32 N 0.67584 0.13783 0.82546
 C33 C 0.69100 0.15378 0.84446
 N34 N 0.67947 0.17854 0.85429
 C35 C 0.65326 0.18720 0.84530
 N36 N 0.63831 0.17074 0.82672
 C37 C 1.13892 0.63645 0.82713
 N38 N 1.12570 0.65902 0.83963
 C39 C 1.13810 0.67265 0.86203
 N40 N 1.16405 0.66399 0.87154
 C41 C 1.17754 0.64167 0.85895
 N42 N 1.16489 0.62796 0.83677
 C43 C 1.16744 0.16301 0.29889
 N44 N 1.19088 0.15195 0.31189
 C45 C 1.20025 0.16244 0.33724
 N46 N 1.18470 0.18297 0.35055
 C47 C 1.16104 0.19398 0.33802
 N48 N 1.15268 0.18426 0.31201
 C49 C 0.65599 1.34944 0.68699
 N50 N 0.67949 1.36053 0.67424
 C51 C 0.69372 1.34569 0.65384
 N52 N 0.68293 1.32032 0.64470
 C53 C 0.65835 1.30988 0.65604
 N54 N 0.64501 1.32442 0.67724
 C55 C 0.63883 0.86200 1.17334
 N56 N 0.62888 0.83695 1.16255
 C57 C 0.64330 0.82322 1.14149
 N58 N 0.66729 0.83514 1.13041
 C59 C 0.67722 0.86032 1.14076
 N60 N 0.66345 0.87316 1.16275
 C61 C 1.13954 1.36222 1.17293
 N62 N 1.13036 1.33625 1.16387
 C63 C 1.14532 1.32154 1.14392
 N64 N 1.16900 1.33335 1.13212
 C65 C 1.17781 1.35985 1.14009
 N66 N 1.16356 1.37359 1.16126
 C67 C 1.16140 0.84062 0.69484
 N68 N 1.15058 0.81638 0.68327
 C69 C 1.16462 0.80288 0.66183
 N70 N 1.18951 0.81399 0.65176
 C71 C 1.20011 0.83875 0.66276
 N72 N 1.18560 0.85217 0.68397
 C73 C 0.34792 0.65405 0.68669
 N74 N 0.36313 0.67350 0.67157
 C75 C 0.35333 0.68296 0.64604
 N76 N 0.32806 0.67304 0.63585
 C77 C 0.31230 0.65402 0.65109
 N78 N 0.32264 0.64430 0.67636
 C79 C 0.33162 0.16837 1.20420
 N80 N 0.30890 0.15643 1.19057
 C81 C 0.29846 0.16787 1.16606
 N82 N 0.31204 0.19068 1.15433
 C83 C 0.33469 0.20285 1.16771
 N84 N 0.34448 0.19162 1.19253
 C85 C 0.85446 0.64713 1.18068
 N86 N 0.83250 0.63402 1.16707
 C87 C 0.82255 0.64453 1.14199
 N88 N 0.83469 0.66822 1.13053
 C89 C 0.85713 0.68096 1.14375
 N90 N 0.86693 0.67045 1.16887
 C91 C 0.84477 0.15619 0.68965
 N92 N 0.82063 0.14514 0.67785
 C93 C 0.81088 0.15465 0.65225
 N94 N 0.82659 0.17417 0.63762
 C95 C 0.85096 0.18499 0.64894
 N96 N 0.85975 0.17628 0.67509
 C97 C 1.33917 0.33902 0.69650
 N98 N 1.35095 0.31546 0.68433
 C99 C 1.34094 0.30504 0.65918
 N100 N 1.32004 0.31955 0.64527
 C101 C 1.30825 0.34321 0.65708
 N102 N 1.31766 0.35277 0.68277
 C103 C 1.35478 0.85333 1.18073
 N104 N 1.36510 0.82794 1.17138
 C105 C 1.35247 0.81427 1.14908
 N106 N 1.33036 0.82702 1.13536
 C107 C 1.32086 0.85304 1.14378
 N108 N 1.33270 0.86586 1.16688
 C109 C 0.83937 0.33777 1.19587
 N110 N 0.81507 0.34833 1.18399
 C111 C 0.80488 0.33736 1.15912
 N112 N 0.81891 0.31562 1.14613
 C113 C 0.84278 0.30456 1.15814
 N114 N 0.85328 0.31612 1.18250
 C115 C 0.84916 0.85023 0.68477
 N116 N 0.86108 0.82622 0.67383
 C117 C 0.85027 0.81427 0.64977
 N118 N 0.82802 0.82683 0.63616
 C119 C 0.81652 0.85127 0.64663
 N120 N 0.82692 0.86274 0.67112
 C121 C 0.65546 0.65174 0.68667
 N122 N 0.64503 0.67647 0.67585
 C123 C 0.65622 0.68762 0.65159
 N124 N 0.67756 0.67367 0.63785
 C125 C 0.68759 0.64856 0.64823
 N126 N 0.67656 0.63770 0.67270
 C127 C 0.65089 1.14958 1.18404
 N128 N 0.67754 1.14124 1.17638
 C129 C 0.69332 1.15696 1.15792
 N130 N 0.68268 1.18193 1.14768
 C131 C 0.65625 1.19103 1.15566
 N132 N 0.64031 1.17429 1.17326
 C133 C 0.14830 0.65086 1.18331
 N134 N 0.13323 0.66934 1.16683
 C135 C 0.14449 0.67976 1.14221
 N136 N 0.17061 0.67042 1.13363
 C137 C 0.18508 0.65076 1.14915
 N138 N 0.17415 0.64142 1.17426
 C139 C 0.16141 1.15970 0.69357
 N140 N 0.15081 1.18423 0.68246
 C141 C 0.16417 1.19751 0.66035
 N142 N 0.18798 1.18534 0.64906
 C143 C 0.19842 1.16054 0.65980
 N144 N 0.18490 1.14760 0.68185
 C145 C 1.35177 0.64935 0.31313
 N146 N 1.36142 0.67419 0.32458
 C147 C 1.34895 0.68528 0.34823
 N148 N 1.32643 0.67167 0.36036
 C149 C 1.31667 0.64679 0.34912
 N150 N 1.33002 0.63530 0.32615
 C151 C 1.36060 1.14056 0.82262
 N152 N 1.37283 1.16363 0.83532
 C153 C 1.36023 1.17665 0.85793
 N154 N 1.33412 1.16744 0.86667
 C155 C 1.32139 1.14482 0.85379
 N156 N 1.33479 1.13120 0.83203
 C157 C 0.84852 0.65302 0.81135
 N158 N 0.82419 0.64170 0.82226
 C159 C 0.81279 0.65245 0.84661
 N160 N 0.82634 0.67400 0.86052
 C161 C 0.85095 0.68507 0.84996
 N162 N 0.86187 0.67470 0.82521
 C163 C 0.86163 1.13900 0.32445
 N164 N 0.83812 1.12691 0.33642
 C165 C 0.82310 1.14106 0.35677
 N166 N 0.83128 1.16768 0.36487
 C167 C 0.85449 1.18022 0.35285
 N168 N 0.86953 1.16562 0.33285
 C169 C 0.64276 0.36010 0.32282
 N170 N 0.66784 0.37013 0.33339
 C171 C 0.68183 0.35577 0.35423
 N172 N 0.67182 0.33010 0.36307
 C173 C 0.64730 0.31918 0.35202
 N174 N 0.63239 0.33481 0.33261
 C175 C 0.64689 0.85571 0.81950
 N176 N 0.63365 0.83332 0.83226
 C177 C 0.64352 0.82302 0.85746
 N178 N 0.66671 0.83520 0.86989
 C179 C 0.67951 0.85811 0.85761
 N180 N 0.66965 0.86824 0.83235
 C181 C 0.15430 0.34788 0.81187
 N182 N 0.14409 0.32250 0.82129
 C183 C 0.15946 0.30623 0.83975
 N184 N 0.18505 0.31621 0.84937
 C185 C 0.19520 0.34187 0.84032
 N186 N 0.17980 0.35755 0.82152
 C187 C 0.15650 0.84731 0.30914
 N188 N 0.14618 0.82216 0.31931
 C189 C 0.15614 0.81116 0.34416
 N190 N 0.17633 0.82546 0.35918
 C191 C 0.18618 0.85099 0.34972
 N192 N 0.17611 0.86189 0.32486
 O193 O 0.97221 0.89804 0.85702
 O194 O 0.97157 0.86482 0.82368
 C195 C 0.96197 0.88796 0.83403
 C196 C 0.93784 0.90264 0.81989
 C197 C 0.92477 0.89046 0.79583
 H198 H 0.93303 0.87084 0.78680
 O199 O 1.02884 1.10269 0.85569
 O200 O 1.02875 1.13613 0.82259
 C201 C 1.03879 1.11310 0.83275
 C202 C 1.06338 1.09922 0.81869
 C203 C 1.07709 1.11264 0.79569
 H204 H 1.06865 1.13230 0.78692
 O205 O 0.85910 0.97374 0.89745
 O206 O 0.82515 0.97360 0.86486
 C207 C 0.83572 0.96389 0.88783
 C208 C 0.82107 0.94044 0.90314
 C209 C 0.79475 0.92995 0.89334
 H210 H 0.78479 0.93926 0.87468
 O211 O 1.14298 1.02743 0.89607
 O212 O 1.17623 1.02752 0.86281
 C213 C 1.16610 1.03735 0.88597
 C214 C 1.18063 1.06145 0.90058
 C215 C 1.20544 1.07355 0.88884
 H216 H 1.21498 1.06442 0.86986
 O217 O 0.89793 0.85934 0.97258
 O218 O 0.86457 0.82609 0.97300
 C219 C 0.88760 0.83619 0.96288
 C220 C 0.90204 0.82141 0.93897
 C221 C 0.89136 0.79543 0.92839
 H222 H 0.87317 0.78537 0.93852
 O223 O 1.10460 1.14291 0.97044
 O224 O 1.13780 1.17631 0.96993
 C225 C 1.11489 1.16575 0.96000
 C226 C 1.10113 1.17924 0.93497
 C227 C 1.11476 1.20189 0.92079
 H228 H 1.13405 1.21118 0.92958
 O229 O 0.89698 1.02989 0.85786
 O230 O 0.86304 1.02976 0.82523
 C231 C 0.88607 1.04003 0.83522
 C232 C 0.89974 1.06468 0.82101
 C233 C 0.88543 1.07938 0.79919
 H234 H 0.86433 1.07244 0.79275
 O235 O 1.10301 0.97266 0.85626
 O236 O 1.13618 0.97276 0.82288
 C237 C 1.11308 0.96284 0.83311
 C238 C 1.09882 0.93843 0.81891
 C239 C 1.11206 0.92474 0.79580
 H240 H 1.13166 0.93326 0.78694
 O241 O 1.02736 0.85783 0.89554
 O242 O 1.02652 0.82430 0.86250
 C243 C 1.03648 0.83429 0.88565
 C244 C 1.05941 0.81888 0.90091
 C245 C 1.06840 0.79174 0.89183
 H246 H 1.05807 0.78142 0.87389
 O247 O 0.97347 1.14159 0.89538
 O248 O 0.97325 1.17498 0.86226
 C249 C 0.96346 1.16469 0.88536
 C250 C 0.93935 1.17902 0.89998
 C251 C 0.92591 1.20260 0.88727
 H252 H 0.93379 1.21116 0.86729
 O253 O 0.85945 1.10363 0.97318
 O254 O 0.82672 1.13740 0.97364
 C255 C 0.83633 1.11410 0.96367
 C256 C 0.82154 1.09997 0.93955
 C257 C 0.79765 1.11278 0.92669
 H258 H 0.78801 1.13144 0.93634
 O259 O 1.14301 0.89560 0.96857
 O260 O 1.17559 0.86168 0.96806
 C261 C 1.16563 0.88487 0.95820
 C262 C 1.17950 0.89868 0.93339
 C263 C 1.20198 0.88497 0.91907
 H264 H 1.21110 0.86563 0.92782
 O265 O 0.97313 1.10314 0.85551
 O266 O 0.97299 1.13659 0.82243
 C267 C 0.96311 1.11346 0.83253
 C268 C 0.93838 1.09953 0.81861
 C269 C 0.92496 1.11243 0.79513
 H270 H 0.93504 1.13043 0.78472
 O271 O 1.02811 0.89734 0.85689
 O272 O 1.02768 0.86389 0.82379
 C273 C 1.03796 0.88687 0.83393
 C274 C 1.06242 0.90091 0.81961
 C275 C 1.07630 0.88735 0.79676
 H276 H 1.06845 0.86711 0.78873
 O277 O 1.14274 0.97117 0.89419
 O278 O 1.17582 0.97133 0.86073
 C279 C 1.16533 0.96078 0.88335
 C280 C 1.17876 0.93530 0.89633
 C281 C 1.20017 0.92040 0.88155
 H282 H 1.20735 0.92803 0.86096
 O283 O 0.85917 1.02958 0.89754
 O284 O 0.82535 1.02942 0.86479
 C285 C 0.83606 1.03959 0.88753
 C286 C 0.82218 1.06414 0.90169
 C287 C 0.79946 1.07826 0.88829
 H288 H 0.79172 1.07068 0.86785
 O289 O 0.89933 1.14211 0.97221
 O290 O 0.86655 1.17582 0.97276
 C291 C 0.88924 1.16526 0.96236
 C292 C 0.90316 1.17935 0.93769
 C293 C 0.89018 1.20300 0.92463
 H294 H 0.87065 1.21185 0.93326
 O295 O 1.10324 0.85728 0.96975
 O296 O 1.13578 0.82329 0.96955
 C297 C 1.11259 0.83371 0.96017
 C298 C 1.09666 0.81868 0.93743
 C299 C 1.10531 0.79158 0.92811
 H300 H 1.12326 0.78105 0.93818
 O301 O 1.10447 1.02838 0.85635
 O302 O 1.13781 1.02851 0.82316
 C303 C 1.11483 1.03848 0.83342
 C304 C 1.10078 1.06290 0.81924
 C305 C 1.11422 1.07673 0.79631
 H306 H 1.13432 1.06883 0.78807
 O307 O 0.89774 0.97401 0.85779
 O308 O 0.86386 0.97381 0.82515
 C309 C 0.88722 0.96410 0.83486
 C310 C 0.90152 0.94010 0.82010
 C311 C 0.88917 0.92790 0.79567
 H312 H 0.87021 0.93726 0.78632
 O313 O 1.02955 1.14155 0.89449
 O314 O 1.02938 1.17491 0.86132
 C315 C 1.03976 1.16438 0.88402
 C316 C 1.06485 1.17811 0.89750
 C317 C 1.07947 1.19999 0.88314
 H318 H 1.07181 1.20742 0.86264
 O319 O 0.97182 0.85918 0.89604
 O320 O 0.97101 0.82587 0.86278
 C321 C 0.96156 0.83616 0.88600
 C322 C 0.93796 0.82161 0.90116
 C323 C 0.92667 0.79591 0.89063
 H324 H 0.93547 0.78636 0.87151
 O325 O 1.14308 1.10335 0.97130
 O326 O 1.17627 1.13676 0.97092
 C327 C 1.16614 1.11346 0.96129
 C328 C 1.18063 1.09865 0.93738
 C329 C 1.20547 1.11029 0.92528
 H330 H 1.21495 1.12943 0.93422
 O331 O 0.85951 0.89895 0.97333
 O332 O 0.82603 0.86581 0.97365
 C333 C 0.83614 0.88899 0.96383
 C334 C 0.82109 0.90406 0.94052
 C335 C 0.79452 0.89423 0.93070
 H336 H 0.78426 0.87624 0.94100
 Cu337 Cu 1.00000 0.88148 0.87965
 Cu338 Cu 0.99914 0.84147 0.83973
 Cu339 Cu 1.00115 1.11891 0.87861
 Cu340 Cu 1.00099 1.15906 0.83889
 Cu341 Cu 0.88167 1.00170 0.88092
 Cu342 Cu 0.84096 1.00147 0.84170
 Cu343 Cu 1.12005 0.99999 0.87913
 Cu344 Cu 1.15989 1.00012 0.83912
 C345 C 0.92610 0.92754 0.83184
 H346 H 0.93551 0.93657 0.85093
 C347 C 0.90022 0.90270 0.78395
 C348 C 1.07523 1.07418 0.83015
 H349 H 1.06514 1.06404 0.84830
 C350 C 1.10273 1.10178 0.78486
 C351 C 0.83399 0.92747 0.92688
 H352 H 0.85458 0.93505 0.93419
 C353 C 0.78115 0.90722 0.90730
 C354 C 1.16850 1.07406 0.92500
 H355 H 1.14902 1.06527 0.93383
 C356 C 1.21769 1.09804 0.90094
 C357 C 0.92563 0.83410 0.92546
 H358 H 0.93385 0.85423 0.93335
 C359 C 0.90371 0.78249 0.90438
 C360 C 1.07595 1.16772 0.92335
 H361 H 1.06544 1.15009 0.93399
 C362 C 1.10466 1.21167 0.89438
 C363 C 0.92600 1.07517 0.83087
 H364 H 0.93637 1.06492 0.84879
 C365 C 0.89767 1.10355 0.78626
 C366 C 1.07378 0.92653 0.83046
 H367 H 1.06375 0.93664 0.84865
 C368 C 1.10138 0.89886 0.78525
 C369 C 1.07348 0.83199 0.92393
 H370 H 1.06695 0.85309 0.93078
 C371 C 1.09115 0.77795 0.90555
 C372 C 0.92792 1.16767 0.92535
 H373 H 0.93772 1.14907 0.93493
 C374 C 0.90132 1.21442 0.89940
 C375 C 0.83322 1.07526 0.92722
 H376 H 0.85163 1.06525 0.93695
 C377 C 0.78729 1.10281 0.90036
 C378 C 1.16839 0.92413 0.92211
 H379 H 1.15102 0.93481 0.93298
 C380 C 1.21160 0.89498 0.89252
 O381 O 1.03093 0.89918 1.14124
 O382 O 1.03136 0.86590 1.17445
 C383 C 1.04111 0.88907 1.16420
 C384 C 1.06573 0.90336 1.17809
 C385 C 1.07856 0.89103 1.20217
 H386 H 1.06880 0.87268 1.21231
 O387 O 0.97711 1.10101 1.14471
 O388 O 0.97782 1.13394 1.17834
 C389 C 0.96810 1.11066 1.16839
 C390 C 0.94520 1.09523 1.18375
 C391 C 0.93656 1.10375 1.21116
 H392 H 0.94809 1.12056 1.22209
 O393 O 0.86117 1.02955 1.10483
 O394 O 0.82834 1.02983 1.13853
 C395 C 0.83851 1.03988 1.11550
 C396 C 0.82457 1.06461 1.10165
 C397 C 0.80163 1.07848 1.11503
 H398 H 0.79316 1.07039 1.13496
 O399 O 1.14680 0.97252 1.09860
 O400 O 1.18083 0.97203 1.13110
 C401 C 1.17004 0.96242 1.10815
 C402 C 1.18411 0.93857 1.09299
 C403 C 1.21008 0.92753 1.10298
 H404 H 1.22041 0.93698 1.12141
 O405 O 1.10424 0.85762 1.02523
 O406 O 1.13689 0.82376 1.02495
 C407 C 1.11394 0.83422 1.03485
 C408 C 1.09888 0.81956 1.05844
 C409 C 1.10739 0.79225 1.06732
 H410 H 1.12379 0.78104 1.05552
 O411 O 0.90046 1.14176 1.02832
 O412 O 0.86769 1.17549 1.02882
 C413 C 0.89054 1.16474 1.03869
 C414 C 0.90468 1.17824 1.06356
 C415 C 0.89167 1.20150 1.07724
 H416 H 0.87212 1.21049 1.06880
 O417 O 0.89995 0.97300 1.14286
 O418 O 0.86676 0.97268 1.17621
 C419 C 0.88986 0.96292 1.16589
 C420 C 0.90424 0.93858 1.17994
 C421 C 0.89184 0.92557 1.20389
 H422 H 0.87331 0.93512 1.21387
 O423 O 1.10940 1.02864 1.13863
 O424 O 1.14337 1.02812 1.17122
 C425 C 1.12047 1.03867 1.16126
 C426 C 1.10740 1.06377 1.17529
 C427 C 1.12276 1.07919 1.19593
 H428 H 1.14391 1.07219 1.20210
 O429 O 0.97565 0.85915 1.10233
 O430 O 0.97601 0.82569 1.13540
 C431 C 0.96604 0.83585 1.11232
 C432 C 0.94233 0.82104 1.09746
 C433 C 0.93175 0.79489 1.10767
 H434 H 0.94152 0.78480 1.12603
 O435 O 1.03083 1.14094 1.10378
 O436 O 1.03092 1.17438 1.13691
 C437 C 1.04044 1.16432 1.11361
 C438 C 1.06371 1.17938 1.09845
 C439 C 1.07565 1.20429 1.11009
 H440 H 1.06704 1.21336 1.12953
 O441 O 0.85986 0.89844 1.02900
 O442 O 0.82638 0.86530 1.02931
 C443 C 0.83668 0.88846 1.03897
 C444 C 0.82196 0.90359 1.06247
 C445 C 0.79540 0.89394 1.07248
 H446 H 0.78500 0.87590 1.06236
 O447 O 1.14394 1.10532 1.02720
 O448 O 1.17669 1.13918 1.02687
 C449 C 1.16668 1.11625 1.03725
 C450 C 1.18092 1.10290 1.06205
 C451 C 1.20122 1.11836 1.07788
 H452 H 1.20693 1.13982 1.07145
 O453 O 1.03288 1.10183 1.14244
 O454 O 1.03359 1.13533 1.17551
 C455 C 1.04367 1.11250 1.16491
 C456 C 1.06934 1.09928 1.17773
 C457 C 1.08434 1.11350 1.19946
 H458 H 1.07549 1.13263 1.20895
 O459 O 0.97492 0.89770 1.14165
 O460 O 0.97522 0.86430 1.17476
 C461 C 0.96487 0.88712 1.16449
 C462 C 0.94019 0.90088 1.17862
 C463 C 0.92635 0.88725 1.20145
 H464 H 0.93406 0.86683 1.20902
 O465 O 1.14782 1.02845 1.09952
 O466 O 1.18164 1.02792 1.13226
 C467 C 1.17091 1.03845 1.10974
 C468 C 1.18399 1.06410 1.09668
 C469 C 1.20539 1.07925 1.11133
 H470 H 1.21473 1.07033 1.13049
 O471 O 0.86030 0.97361 1.10442
 O472 O 0.82700 0.97376 1.13765
 C473 C 0.83706 0.96394 1.11447
 C474 C 0.82211 0.94047 1.09943
 C475 C 0.79568 0.93030 1.10931
 H476 H 0.78563 0.94006 1.12770
 O477 O 1.10386 1.14306 1.02643
 O478 O 1.13671 1.17680 1.02590
 C479 C 1.11385 1.16632 1.03612
 C480 C 1.09955 1.18050 1.06048
 C481 C 1.11115 1.20542 1.07251
 H482 H 1.12973 1.21543 1.06303
 O483 O 0.89929 0.85969 1.02824
 O484 O 0.86594 0.82643 1.02868
 C485 C 0.88935 0.83648 1.03807
 C486 C 0.90477 0.82146 1.06117
 C487 C 0.89464 0.79527 1.07161
 H488 H 0.87604 0.78534 1.06206
 O489 O 1.10853 0.97263 1.13856
 O490 O 1.14250 0.97194 1.17110
 C491 C 1.11906 0.96238 1.16133
 C492 C 1.10448 0.93841 1.17602
 C493 C 1.11761 0.92483 1.19929
 H494 H 1.13815 0.93228 1.20691
 O495 O 0.90012 1.02843 1.14383
 O496 O 0.86735 1.02820 1.17760
 C497 C 0.89055 1.03781 1.16738
 C498 C 0.90648 1.06034 1.18273
 C499 C 0.89727 1.07008 1.20949
 H500 H 0.87802 1.06133 1.21886
 O501 O 0.97516 1.13966 1.10498
 O502 O 0.97521 1.17266 1.13853
 C503 C 0.96513 1.16255 1.11545
 C504 C 0.94088 1.17703 1.10123
 C505 C 0.92768 1.20055 1.11430
 H506 H 0.93597 1.20904 1.13416
 O507 O 1.03138 0.85935 1.10290
 O508 O 1.03171 0.82600 1.13606
 C509 C 1.04134 0.83620 1.11289
 C510 C 1.06440 0.82111 1.09743
 C511 C 1.07457 0.79464 1.10714
 H512 H 1.06621 0.78567 1.12673
 O513 O 1.14389 0.89632 1.02424
 O514 O 1.17671 0.86265 1.02390
 C515 C 1.16714 0.88609 1.03360
 C516 C 1.18272 0.90122 1.05655
 C517 C 1.20886 0.89067 1.06671
 H518 H 1.21838 0.87196 1.05702
 O519 O 0.86061 1.10388 1.02894
 O520 O 0.82790 1.13769 1.02940
 C521 C 0.83800 1.11461 1.03935
 C522 C 0.82417 1.10099 1.06426
 C523 C 0.80111 1.11441 1.07788
 H524 H 0.79213 1.13385 1.06919
 Cu525 Cu 1.00323 0.88222 1.11876
 Cu526 Cu 1.00366 0.84224 1.15860
 Cu527 Cu 1.00384 1.11748 1.12069
 Cu528 Cu 1.00431 1.15741 1.16068
 Cu529 Cu 0.88250 0.88242 1.00077
 Cu530 Cu 0.84238 0.84257 1.00123
 Cu531 Cu 1.12036 0.88013 0.99702
 Cu532 Cu 1.15961 0.83951 0.99665
 Cu533 Cu 0.88326 1.11948 1.00050
 Cu534 Cu 0.84401 1.16005 1.00114
 Cu535 Cu 1.12055 1.12032 0.99888
 Cu536 Cu 1.16016 1.16063 0.99830
 Cu537 Cu 0.88362 1.00116 1.12056
 Cu538 Cu 0.84396 1.00109 1.16080
 Cu539 Cu 1.12475 1.00050 1.11555
 Cu540 Cu 1.16545 0.99975 1.15473
 C541 C 1.07858 0.92741 1.16547
 H542 H 1.06894 0.93695 1.14677
 C543 C 1.10508 0.90083 1.21212
 C544 C 0.93048 1.07300 1.17008
 H545 H 0.93711 1.06623 1.14901
 C546 C 0.91266 1.09114 1.22432
 C547 C 0.83561 1.07596 1.07617
 H548 H 0.85373 1.06579 1.06608
 C549 C 0.79017 1.10356 1.10348
 C550 C 1.17072 0.92543 1.06957
 H551 H 1.15039 0.93348 1.06210
 C552 C 1.22268 0.90386 1.08974
 C553 C 1.07681 0.83345 1.07314
 H554 H 1.06983 0.85433 1.06613
 C555 C 1.09532 0.77948 1.09166
 C556 C 0.92936 1.16616 1.07567
 H557 H 0.93906 1.14770 1.06571
 C558 C 0.90271 1.21231 1.10280
 C559 C 0.92880 0.92640 1.16782
 H560 H 0.93853 0.93633 1.14936
 C561 C 0.90185 0.89918 1.21389
 C562 C 1.08081 1.07413 1.16613
 H563 H 1.06944 1.06309 1.14929
 C564 C 1.11162 1.10434 1.20781
 C565 C 0.92885 0.83399 1.07401
 H566 H 0.93653 0.85440 1.06632
 C567 C 0.90811 0.78184 1.09466
 C568 C 1.07565 1.16777 1.07349
 H569 H 1.06693 1.14822 1.06473
 C570 C 1.09946 1.21713 1.09741
 C571 C 0.83496 0.92709 1.07586
 H572 H 0.85556 0.93448 1.06841
 C573 C 0.78206 0.90736 1.09565
 C574 C 1.17229 1.07589 1.07175
 H575 H 1.15565 1.06447 1.06043
 C576 C 1.21311 1.10698 1.10291
 O577 O 0.97247 0.39575 0.35616
 O578 O 0.97218 0.36245 0.32286
 C579 C 0.96195 0.38520 0.33350
 C580 C 0.93681 0.39879 0.32009
 C581 C 0.92157 0.38440 0.29865
 H582 H 0.92868 0.36359 0.29151
 O583 O 1.02875 0.60335 0.35674
 O584 O 1.02841 0.63662 0.32348
 C585 C 1.03853 0.61365 0.33367
 C586 C 1.06288 0.59967 0.31933
 C587 C 1.07491 0.61196 0.29485
 H588 H 1.06546 0.63085 0.28545
 O589 O 0.86066 0.47143 0.39631
 O590 O 0.82662 0.47159 0.36380
 C591 C 0.83735 0.46155 0.38658
 C592 C 0.82311 0.43752 0.40134
 C593 C 0.79729 0.42647 0.39088
 H594 H 0.78712 0.43607 0.37247
 O595 O 1.14203 0.52510 0.39676
 O596 O 1.17568 0.52494 0.36388
 C597 C 1.16579 0.53413 0.38742
 C598 C 1.18122 0.55690 0.40301
 C599 C 1.20721 0.56724 0.39239
 H600 H 1.21777 0.55614 0.37508
 O601 O 0.90049 0.35614 0.47083
 O602 O 0.86696 0.32304 0.47099
 C603 C 0.89011 0.33304 0.46105
 C604 C 0.90430 0.31848 0.43691
 C605 C 0.89225 0.29378 0.42493
 H606 H 0.87409 0.28369 0.43511
 O607 O 1.10442 0.64199 0.47054
 O608 O 1.13838 0.67463 0.47009
 C609 C 1.11512 0.66471 0.46028
 C610 C 1.10115 0.67889 0.43577
 C611 C 1.11432 0.70221 0.42227
 H612 H 1.13385 0.71116 0.43086
 O613 O 0.89882 0.52736 0.35680
 O614 O 0.86498 0.52742 0.32408
 C615 C 0.88823 0.53732 0.33396
 C616 C 0.90246 0.56149 0.31948
 C617 C 0.89044 0.57357 0.29486
 H618 H 0.87135 0.56441 0.28550
 O619 O 1.10104 0.47326 0.35452
 O620 O 1.13422 0.47355 0.32116
 C621 C 1.11060 0.46433 0.33081
 C622 C 1.09473 0.44199 0.31508
 C623 C 1.10281 0.43405 0.28738
 H624 H 1.11916 0.44621 0.27645
 O625 O 1.02967 0.35760 0.39391
 O626 O 1.02979 0.32459 0.36037
 C627 C 1.03979 0.33475 0.38344
 C628 C 1.06400 0.32035 0.39777
 C629 C 1.07674 0.29626 0.38534
 H630 H 1.06854 0.28777 0.36544
 O631 O 0.97346 0.64252 0.39611
 O632 O 0.97326 0.67587 0.36294
 C633 C 0.96359 0.66568 0.38610
 C634 C 0.93980 0.68020 0.40089
 C635 C 0.92701 0.70445 0.38884
 H636 H 0.93535 0.71353 0.36928
 O637 O 0.86146 0.60284 0.47177
 O638 O 0.82789 0.63578 0.47222
 C639 C 0.83824 0.61290 0.46205
 C640 C 0.82364 0.59847 0.43803
 C641 C 0.79875 0.61030 0.42628
 H642 H 0.78950 0.62940 0.43543
 O643 O 1.14207 0.39621 0.47078
 O644 O 1.17566 0.36328 0.47074
 C645 C 1.16527 0.38630 0.46088
 C646 C 1.17954 0.40083 0.43670
 C647 C 1.20554 0.39046 0.42605
 H648 H 1.21629 0.37316 0.43696
 O649 O 0.97297 0.60337 0.35704
 O650 O 0.97266 0.63672 0.32386
 C651 C 0.96291 0.61355 0.33403
 C652 C 0.93894 0.59887 0.31959
 C653 C 0.92661 0.61060 0.29496
 H654 H 0.93541 0.62981 0.28554
 O655 O 1.02821 0.39652 0.35466
 O656 O 1.02809 0.36366 0.32096
 C657 C 1.03762 0.38694 0.33112
 C658 C 1.06011 0.40303 0.31580
 C659 C 1.06989 0.39413 0.28891
 H660 H 1.06146 0.37472 0.27955
 O661 O 1.14046 0.46963 0.39325
 O662 O 1.17377 0.46942 0.36004
 C663 C 1.16329 0.45929 0.38289
 C664 C 1.17777 0.43533 0.39762
 C665 C 1.20301 0.42357 0.38647
 H666 H 1.21151 0.43145 0.36649
 O667 O 0.86028 0.52735 0.39620
 O668 O 0.82641 0.52749 0.36352
 C669 C 0.83707 0.53737 0.38641
 C670 C 0.82297 0.56154 0.40112
 C671 C 0.79805 0.57372 0.38973
 H672 H 0.78818 0.56464 0.37089
 O673 O 0.89995 0.64242 0.47215
 O674 O 0.86632 0.67531 0.47262
 C675 C 0.88943 0.66545 0.46250
 C676 C 0.90351 0.68013 0.43836
 C677 C 0.89105 0.70440 0.42600
 H678 H 0.87182 0.71352 0.43503
 O679 O 1.10372 0.35649 0.47028
 O680 O 1.13724 0.32351 0.47007
 C681 C 1.11417 0.33364 0.46009
 C682 C 1.10007 0.31949 0.43551
 C683 C 1.11220 0.29511 0.42295
 H684 H 1.13112 0.28555 0.43217
 O685 O 1.10436 0.52884 0.35633
 O686 O 1.13796 0.52915 0.32341
 C687 C 1.11507 0.53935 0.33372
 C688 C 1.10092 0.56395 0.31970
 C689 C 1.11291 0.57689 0.29539
 H690 H 1.13247 0.56866 0.28624
 O691 O 0.89846 0.47159 0.35620
 O692 O 0.86442 0.47157 0.32369
 C693 C 0.88765 0.46157 0.33343
 C694 C 0.90117 0.43679 0.31925
 C695 C 0.88720 0.42287 0.29665
 H696 H 0.86811 0.43210 0.28745
 O697 O 1.02926 0.64214 0.39562
 O698 O 1.02913 0.67540 0.36234
 C699 C 1.03936 0.66503 0.38519
 C700 C 1.06416 0.67893 0.39897
 C701 C 1.07784 0.70202 0.38563
 H702 H 1.06947 0.71062 0.36589
 O703 O 0.97385 0.35664 0.39449
 O704 O 0.97380 0.32337 0.36118
 C705 C 0.96392 0.33357 0.38427
 C706 C 0.93983 0.31920 0.39879
 C707 C 0.92646 0.29546 0.38626
 H708 H 0.93428 0.28717 0.36615
 O709 O 1.14258 0.60196 0.47104
 O710 O 1.17651 0.63461 0.47051
 C711 C 1.16590 0.61150 0.46102
 C712 C 1.18041 0.59598 0.43759
 C713 C 1.20511 0.60734 0.42488
 H714 H 1.21366 0.62753 0.43227
 O715 O 0.86178 0.39548 0.47115
 O716 O 0.82825 0.36240 0.47148
 C717 C 0.83848 0.38545 0.46152
 C718 C 0.82363 0.40030 0.43792
 C719 C 0.79772 0.38966 0.42717
 H720 H 0.78782 0.37109 0.43678
 Cu721 Cu 1.00120 0.37994 0.37815
 Cu722 Cu 1.00111 0.34016 0.33799
 Cu723 Cu 1.00103 0.61950 0.37973
 Cu724 Cu 1.00077 0.65952 0.33983
 Cu725 Cu 0.88296 0.49943 0.37965
 Cu726 Cu 0.84220 0.49954 0.34050
 Cu727 Cu 1.11859 0.49917 0.37847
 Cu728 Cu 1.15878 0.49924 0.33883
 C729 C 0.92630 0.42487 0.33044
 H730 H 0.93717 0.43543 0.34791
 C731 C 0.89648 0.39601 0.28713
 C732 C 1.07583 0.57549 0.33142
 H733 H 1.06677 0.56611 0.35049
 C734 C 1.09997 0.60092 0.28303
 C735 C 0.83602 0.42442 0.42502
 H736 H 0.85618 0.43254 0.43294
 C737 C 0.78441 0.40283 0.40389
 C738 C 1.16837 0.57091 0.42621
 H739 H 1.14837 0.56295 0.43464
 C740 C 1.21822 0.59344 0.40181
 C741 C 0.92846 0.33067 0.42403
 H742 H 0.93787 0.34973 0.43317
 C743 C 0.90243 0.28281 0.39899
 C744 C 1.07591 0.66758 0.42410
 H745 H 1.06589 0.64930 0.43409
 C746 C 1.10310 0.71341 0.39690
 C747 C 0.92687 0.57415 0.33155
 H748 H 0.93593 0.56529 0.35086
 C749 C 0.90223 0.59823 0.28280
 C750 C 1.07273 0.42695 0.32869
 H751 H 1.06619 0.43321 0.34995
 C752 C 1.09054 0.41009 0.27398
 C753 C 1.07571 0.33170 0.42297
 H754 H 1.06640 0.35067 0.43232
 C755 C 1.10060 0.28335 0.39795
 C756 C 0.92807 0.66838 0.42582
 H757 H 0.93746 0.64931 0.43487
 C758 C 0.90249 0.71633 0.40109
 C759 C 0.83550 0.57397 0.42541
 H760 H 0.85499 0.56505 0.43403
 C761 C 0.78614 0.59824 0.40202
 C762 C 1.16615 0.42371 0.42271
 H763 H 1.14621 0.43199 0.43094
 C764 C 1.21749 0.40166 0.40095
 O765 O 1.02805 0.39746 0.64327
 O766 O 1.02829 0.36426 0.67658
 C767 C 1.03778 0.38762 0.66653
 C768 C 1.06131 0.40286 0.68120
 C769 C 1.07282 0.39218 0.70672
 H770 H 1.06385 0.37318 0.71638
 O771 O 0.97491 0.60322 0.64153
 O772 O 0.97490 0.63649 0.67484
 C773 C 0.96491 0.61345 0.66455
 C774 C 0.94061 0.59912 0.67882
 C775 C 0.92744 0.61187 0.70251
 H776 H 0.93604 0.63139 0.71152
 O777 O 0.86161 0.52648 0.60350
 O778 O 0.82768 0.52667 0.63608
 C779 C 0.83824 0.53635 0.61310
 C780 C 0.82366 0.55992 0.59793
 C781 C 0.79788 0.57102 0.60849
 H782 H 0.78825 0.56199 0.62746
 O783 O 1.14270 0.47120 0.60202
 O784 O 1.17625 0.47123 0.63501
 C785 C 1.16578 0.46122 0.61207
 C786 C 1.18006 0.43704 0.59759
 C787 C 1.20473 0.42493 0.60947
 H788 H 1.21404 0.43390 0.62866
 O789 O 1.10314 0.35645 0.52621
 O790 O 1.13663 0.32343 0.52605
 C791 C 1.11356 0.33350 0.53613
 C792 C 1.10006 0.31968 0.56115
 C793 C 1.11358 0.29656 0.57456
 H794 H 1.13146 0.28618 0.56423
 O795 O 0.90018 0.64185 0.52796
 O796 O 0.86647 0.67464 0.52842
 C797 C 0.88973 0.66470 0.53812
 C798 C 0.90411 0.67922 0.56225
 C799 C 0.89164 0.70328 0.57500
 H800 H 0.87224 0.71232 0.56627
 O801 O 0.89928 0.47058 0.64384
 O802 O 0.86538 0.47102 0.67646
 C803 C 0.88823 0.46048 0.66647
 C804 C 0.90089 0.43484 0.67992
 C805 C 0.88597 0.41993 0.70128
 H806 H 0.86670 0.42895 0.71029
 O807 O 1.10471 0.52738 0.64141
 O808 O 1.13802 0.52712 0.67467
 C809 C 1.11479 0.53688 0.66472
 C810 C 1.09960 0.55989 0.68004
 C811 C 1.10849 0.56868 0.70727
 H812 H 1.12617 0.55805 0.71769
 O813 O 0.97506 0.35658 0.60256
 O814 O 0.97568 0.32271 0.63520
 C815 C 0.96594 0.33289 0.61203
 C816 C 0.94296 0.31773 0.59647
 C817 C 0.93181 0.29194 0.60692
 H818 H 0.94047 0.28261 0.62620
 O819 O 1.03136 0.64197 0.60302
 O820 O 1.03187 0.67487 0.63667
 C821 C 1.04176 0.66470 0.61357
 C822 C 1.06644 0.67865 0.59954
 C823 C 1.08114 0.70088 0.61333
 H824 H 1.07368 0.70885 0.63371
 O825 O 0.86223 0.39544 0.52703
 O826 O 0.82892 0.36215 0.52735
 C827 C 0.83921 0.38527 0.53716
 C828 C 0.82500 0.39964 0.56147
 C829 C 0.80096 0.38714 0.57431
 H830 H 0.79143 0.36814 0.56515
 O831 O 1.14257 0.60283 0.52687
 O832 O 1.17646 0.63555 0.52635
 C833 C 1.16573 0.61292 0.53676
 C834 C 1.17971 0.59904 0.56143
 C835 C 1.20271 0.61254 0.57511
 H836 H 1.21070 0.63272 0.56711
 O837 O 1.03049 0.60292 0.64199
 O838 O 1.03050 0.63575 0.67574
 C839 C 1.04005 0.61257 0.66545
 C840 C 1.06300 0.59697 0.68041
 C841 C 1.07233 0.60565 0.70753
 H842 H 1.06234 0.62366 0.71804
 O843 O 0.97211 0.39457 0.64234
 O844 O 0.97215 0.36072 0.67499
 C845 C 0.96156 0.38342 0.66470
 C846 C 0.93606 0.39642 0.67814
 C847 C 0.92013 0.38124 0.69854
 H848 H 0.92698 0.36013 0.70498
 O849 O 1.14333 0.52720 0.60191
 O850 O 1.17668 0.52731 0.63510
 C851 C 1.16641 0.53721 0.61206
 C852 C 1.18056 0.56165 0.59779
 C853 C 1.20434 0.57492 0.61044
 H854 H 1.21394 0.56581 0.62939
 O855 O 0.86251 0.47068 0.60306
 O856 O 0.82866 0.47089 0.63575
 C857 C 0.83938 0.46069 0.61301
 C858 C 0.82543 0.43613 0.59882
 C859 C 0.80208 0.42262 0.61186
 H860 H 0.79377 0.43069 0.63186
 O861 O 1.10456 0.64244 0.52653
 O862 O 1.13853 0.67507 0.52614
 C863 C 1.11550 0.66518 0.53651
 C864 C 1.10230 0.67916 0.56159
 C865 C 1.11654 0.70154 0.57564
 H866 H 1.13623 0.71009 0.56702
 O867 O 0.90132 0.35621 0.52633
 O868 O 0.86801 0.32289 0.52642
 C869 C 0.89141 0.33286 0.53590
 C870 C 0.90669 0.31768 0.55897
 C871 C 0.89639 0.29150 0.56924
 H872 H 0.87810 0.28152 0.55918
 O873 O 1.10389 0.47196 0.64149
 O874 O 1.13742 0.47181 0.67452
 C875 C 1.11392 0.46238 0.66477
 C876 C 1.09858 0.43946 0.68021
 C877 C 1.10934 0.42886 0.70605
 H878 H 1.12818 0.43840 0.71551
 O879 O 0.90080 0.52674 0.64249
 O880 O 0.86685 0.52723 0.67504
 C881 C 0.89009 0.53711 0.66508
 C882 C 0.90400 0.56183 0.67908
 C883 C 0.89098 0.57515 0.70254
 H884 H 0.87140 0.56657 0.71138
 O885 O 0.97542 0.64240 0.60285
 O886 O 0.97570 0.67568 0.63613
 C887 C 0.96560 0.66546 0.61313
 C888 C 0.94126 0.67968 0.59892
 C889 C 0.92831 0.70361 0.61146
 H890 H 0.93696 0.71272 0.63089
 O891 O 1.03072 0.35851 0.60436
 O892 O 1.03150 0.32529 0.63766
 C893 C 1.04150 0.33596 0.61484
 C894 C 1.06634 0.32236 0.60079
 C895 C 1.08187 0.30104 0.61501
 H896 H 1.07572 0.29485 0.63641
 O897 O 1.14238 0.39542 0.52670
 O898 O 1.17583 0.36236 0.52661
 C899 C 1.16549 0.38531 0.53668
 C900 C 1.17990 0.39982 0.56089
 C901 C 1.20454 0.38798 0.57327
 H902 H 1.21379 0.36866 0.56456
 O903 O 0.86169 0.60203 0.52750
 O904 O 0.82800 0.63485 0.52780
 C905 C 0.83837 0.61170 0.53733
 C906 C 0.82362 0.59649 0.56075
 C907 C 0.79763 0.60690 0.57136
 H908 H 0.78762 0.62527 0.56153
 Cu909 Cu 1.00143 0.38018 0.61990
 Cu910 Cu 1.00197 0.33992 0.65946
 Cu911 Cu 1.00308 0.61937 0.61894
 Cu912 Cu 1.00330 0.65912 0.65912
 Cu913 Cu 0.88476 0.37919 0.49884
 Cu914 Cu 0.84462 0.33935 0.49914
 Cu915 Cu 1.11946 0.37942 0.49851
 Cu916 Cu 1.15966 0.33982 0.49834
 Cu917 Cu 0.88424 0.61902 0.49983
 Cu918 Cu 0.84381 0.65846 0.50037
 Cu919 Cu 1.12008 0.61908 0.49868
 Cu920 Cu 1.16084 0.65827 0.49812
 Cu921 Cu 0.88454 0.49868 0.62006
 Cu922 Cu 0.84380 0.49909 0.65915
 Cu923 Cu 1.12038 0.49945 0.61830
 Cu924 Cu 1.16059 0.49931 0.65801
 C925 C 1.07421 0.42668 0.66825
 H926 H 1.06600 0.43455 0.64815
 C927 C 1.09662 0.40527 0.71941
 C928 C 0.92889 0.57392 0.66742
 H929 H 0.93864 0.56422 0.64885
 C930 C 0.90233 0.60036 0.71399
 C931 C 0.83629 0.57270 0.57390
 H932 H 0.85650 0.56474 0.56603
 C933 C 0.78463 0.59425 0.59511
 C934 C 1.16796 0.42452 0.57311
 H935 H 1.14866 0.43348 0.56410
 C936 C 1.21705 0.40055 0.59741
 C937 C 1.07595 0.33196 0.57408
 H938 H 1.06519 0.34960 0.56376
 C939 C 1.10590 0.28834 0.60233
 C940 C 0.92910 0.66774 0.57419
 H941 H 0.93854 0.64887 0.56479
 C942 C 0.90333 0.71517 0.59984
 C943 C 0.92615 0.42311 0.66887
 H944 H 0.93768 0.43440 0.65234
 C945 C 0.89480 0.39261 0.70997
 C946 C 1.07660 0.57391 0.66697
 H947 H 1.06981 0.56739 0.64586
 C948 C 1.09473 0.59130 0.72122
 C949 C 0.93037 0.33031 0.57234
 H950 H 0.93826 0.35064 0.56466
 C951 C 0.90877 0.27853 0.59320
 C952 C 1.07711 0.66805 0.57358
 H953 H 1.06634 0.65041 0.56320
 C954 C 1.10640 0.71200 0.60176
 C955 C 0.83685 0.42442 0.57365
 H956 H 0.85554 0.43408 0.56405
 C957 C 0.79007 0.39791 0.60002
 C958 C 1.16867 0.57366 0.57300
 H959 H 1.15021 0.56372 0.56321
 C960 C 1.21487 0.60090 0.59982
 O961 O 0.47267 0.89794 0.35700
 O962 O 0.47208 0.86485 0.32352
 C963 C 0.46266 0.88813 0.33381
 C964 C 0.43910 0.90336 0.31925
 C965 C 0.42729 0.89224 0.29405
 H966 H 0.43609 0.87309 0.28453
 O967 O 0.52739 1.10361 0.35478
 O968 O 0.52739 1.13676 0.32142
 C969 C 0.53720 1.11367 0.33163
 C970 C 0.56075 1.09862 0.31696
 C971 C 0.57208 1.10912 0.29127
 H972 H 0.56375 1.12868 0.28222
 O973 O 0.35868 0.97301 0.39711
 O974 O 0.32496 0.97247 0.36429
 C975 C 0.33544 0.96294 0.38738
 C976 C 0.32077 0.93950 0.40269
 C977 C 0.29500 0.92831 0.39219
 H978 H 0.28556 0.93702 0.37297
 O979 O 0.64059 1.02804 0.39488
 O980 O 0.67402 1.02796 0.36179
 C981 C 0.66391 1.03770 0.38500
 C982 C 0.67898 1.06101 0.40026
 C983 C 0.70588 1.07042 0.39093
 H984 H 0.71630 1.05983 0.37322
 O985 O 0.39701 0.85897 0.47134
 O986 O 0.36348 0.82589 0.47143
 C987 C 0.38638 0.83614 0.46120
 C988 C 0.40015 0.82196 0.43658
 C989 C 0.38760 0.79772 0.42417
 H990 H 0.36863 0.78833 0.43350
 O991 O 0.60207 1.14369 0.47026
 O992 O 0.63568 1.17666 0.46969
 C993 C 0.61229 1.16669 0.46020
 C994 C 0.59765 1.18119 0.43624
 C995 C 0.60915 1.20623 0.42445
 H996 H 0.62735 1.21643 0.43446
 O997 O 0.39588 1.03004 0.35786
 O998 O 0.36192 1.02960 0.32525
 C999 C 0.38467 1.04030 0.33541
 C1000 C 0.39739 1.06581 0.32178
 C1001 C 0.38141 1.08183 0.30215
 H1002 H 0.36003 1.07500 0.29650
 O1003 O 0.60129 0.97281 0.35534
 O1004 O 0.63434 0.97293 0.32183
 C1005 C 0.61105 0.96335 0.33191
 C1006 C 0.59565 0.94026 0.31684
 C1007 C 0.60373 0.93190 0.28926
 H1008 H 0.62007 0.94387 0.27811
 O1009 O 0.52728 0.85737 0.39584
 O1010 O 0.52683 0.82403 0.36261
 C1011 C 0.53667 0.83399 0.38585
 C1012 C 0.55980 0.81884 0.40114
 C1013 C 0.56966 0.79215 0.39166
 H1014 H 0.55991 0.78197 0.37332
 O1015 O 0.47205 1.14241 0.39434
 O1016 O 0.47193 1.17571 0.36111
 C1017 C 0.46193 1.16533 0.38408
 C1018 C 0.43729 1.17919 0.39810
 C1019 C 0.42236 1.20094 0.38397
 H1020 H 0.42972 1.20864 0.36345
 O1021 O 0.36010 1.10470 0.47134
 O1022 O 0.32691 1.13805 0.47168
 C1023 C 0.33717 1.11520 0.46137
 C1024 C 0.32303 1.10155 0.43665
 C1025 C 0.30168 1.11627 0.42165
 H1026 H 0.29499 1.13723 0.42873
 O1027 O 0.64122 0.89675 0.46968
 O1028 O 0.67467 0.86370 0.46918
 C1029 C 0.66425 0.88675 0.45950
 C1030 C 0.67858 0.90156 0.43556
 C1031 C 0.70425 0.89091 0.42439
 H1032 H 0.71436 0.87252 0.43407
 O1033 O 0.47147 1.10406 0.35499
 O1034 O 0.47132 1.13745 0.32185
 C1035 C 0.46107 1.11463 0.33230
 C1036 C 0.43539 1.10147 0.31933
 C1037 C 0.41976 1.11632 0.29848
 H1038 H 0.42830 1.13580 0.28943
 O1039 O 0.52825 0.89614 0.35649
 O1040 O 0.52781 0.86303 0.32304
 C1041 C 0.53783 0.88608 0.33322
 C1042 C 0.56086 0.90148 0.31804
 C1043 C 0.57053 0.89224 0.29121
 H1044 H 0.56180 0.87294 0.28192
 O1045 O 0.64051 0.97211 0.39414
 O1046 O 0.67369 0.97202 0.36080
 C1047 C 0.66348 0.96208 0.38384
 C1048 C 0.67807 0.93815 0.39840
 C1049 C 0.70348 0.92683 0.38725
 H1050 H 0.71283 0.93588 0.36815
 O1051 O 0.35793 1.02874 0.39739
 O1052 O 0.32414 1.02820 0.36460
 C1053 C 0.33470 1.03848 0.38738
 C1054 C 0.32104 1.06341 0.40113
 C1055 C 0.29878 1.07786 0.38721
 H1056 H 0.28951 1.06902 0.36794
 O1057 O 0.39909 1.14361 0.47157
 O1058 O 0.36571 1.17675 0.47198
 C1059 C 0.38848 1.16643 0.46152
 C1060 C 0.40158 1.18000 0.43616
 C1061 C 0.38714 1.20197 0.42176
 H1062 H 0.36753 1.21064 0.43039
 O1063 O 0.60222 0.85744 0.47079
 O1064 O 0.63556 0.82426 0.47044
 C1065 C 0.61211 0.83416 0.46110
 C1066 C 0.59661 0.81894 0.43815
 C1067 C 0.60596 0.79217 0.42858
 H1068 H 0.62397 0.78189 0.43880
 O1069 O 0.60171 1.02814 0.35532
 O1070 O 0.63503 1.02820 0.32211
 C1071 C 0.61169 1.03772 0.33202
 C1072 C 0.59652 1.06081 0.31681
 C1073 C 0.60636 1.07050 0.29026
 H1074 H 0.62393 1.05960 0.27994
 O1075 O 0.39769 0.97399 0.35757
 O1076 O 0.36404 0.97353 0.32470
 C1077 C 0.38753 0.96413 0.33445
 C1078 C 0.40251 0.94064 0.31944
 C1079 C 0.39128 0.92933 0.29404
 H1080 H 0.37251 0.93877 0.28440
 O1081 O 0.52786 1.14259 0.39385
 O1082 O 0.52794 1.17586 0.36061
 C1083 C 0.53787 1.16563 0.38365
 C1084 C 0.56191 1.18015 0.39823
 C1085 C 0.57462 1.20441 0.38603
 H1086 H 0.56649 1.21288 0.36612
 O1087 O 0.47152 0.85846 0.39528
 O1088 O 0.47090 0.82526 0.36191
 C1089 C 0.46105 0.83568 0.38491
 C1090 C 0.43651 0.82182 0.39918
 C1091 C 0.42336 0.79785 0.38686
 H1092 H 0.43175 0.78875 0.36733
 O1093 O 0.64103 1.10428 0.47001
 O1094 O 0.67474 1.13716 0.46957
 C1095 C 0.66429 1.11401 0.45999
 C1096 C 0.67899 1.09855 0.43661
 C1097 C 0.70561 1.10799 0.42651
 H1098 H 0.71567 1.12657 0.43595
 O1099 O 0.35869 0.89853 0.47341
 O1100 O 0.32515 0.86546 0.47378
 C1101 C 0.33525 0.88867 0.46400
 C1102 C 0.32031 0.90364 0.44056
 C1103 C 0.29431 0.89310 0.42999
 H1104 H 0.28422 0.87486 0.44002
 Cu1105 Cu 0.50010 0.88075 0.37953
 Cu1106 Cu 0.49940 0.84092 0.33944
 Cu1107 Cu 0.49980 1.11979 0.37777
 Cu1108 Cu 0.49976 1.15981 0.33791
 Cu1109 Cu 0.38098 1.00133 0.38072
 Cu1110 Cu 0.34043 1.00065 0.34136
 Cu1111 Cu 0.61776 1.00032 0.37833
 Cu1112 Cu 0.65772 1.00034 0.33838
 C1113 C 0.42667 0.92771 0.33170
 H1114 H 0.43517 0.93595 0.35155
 C1115 C 0.40321 0.90484 0.28166
 C1116 C 0.57319 1.07448 0.32958
 H1117 H 0.56534 1.06692 0.34995
 C1118 C 0.59441 1.09475 0.27732
 C1119 C 0.33315 0.92716 0.42704
 H1120 H 0.35336 0.93524 0.43486
 C1121 C 0.28151 0.90540 0.40592
 C1122 C 0.66593 1.07492 0.42342
 H1123 H 0.64513 1.06788 0.43066
 C1124 C 0.71943 1.09370 0.40409
 C1125 C 0.42477 0.83371 0.42409
 H1126 H 0.43438 0.85261 0.43336
 C1127 C 0.39872 0.78600 0.39901
 C1128 C 0.57366 1.16861 0.42328
 H1129 H 0.56471 1.14925 0.43219
 C1130 C 0.59851 1.21731 0.39874
 C1131 C 0.42424 1.07595 0.33045
 H1132 H 0.43607 1.06444 0.34662
 C1133 C 0.39218 1.10737 0.29072
 C1134 C 0.57367 0.92542 0.33069
 H1135 H 0.56706 0.93206 0.35182
 C1136 C 0.59126 0.90791 0.27613
 C1137 C 0.57326 0.83189 0.42458
 H1138 H 0.56616 0.85271 0.43168
 C1139 C 0.59248 0.77859 0.40555
 C1140 C 0.42678 1.16888 0.42425
 H1141 H 0.43771 1.15151 0.43486
 C1142 C 0.39712 1.21204 0.39543
 C1143 C 0.33270 1.07520 0.42614
 H1144 H 0.35006 1.06436 0.43687
 C1145 C 0.28986 1.10485 0.39663
 C1146 C 0.66586 0.92545 0.42267
 H1147 H 0.64595 0.93365 0.43104
 C1148 C 0.71687 0.90352 0.40038
 O1149 O 0.52972 0.89713 0.64114
 O1150 O 0.52965 0.86404 0.67457
 C1151 C 0.53960 0.88707 0.66426
 C1152 C 0.56369 0.90172 0.67856
 C1153 C 0.57582 0.89028 0.70343
 H1154 H 0.56684 0.87123 0.71300
 O1155 O 0.47528 1.10374 0.64216
 O1156 O 0.47568 1.13647 0.67599
 C1157 C 0.46603 1.11325 0.66579
 C1158 C 0.44304 1.09768 0.68091
 C1159 C 0.43412 1.10627 0.70822
 H1160 H 0.44560 1.12308 0.71920
 O1161 O 0.36050 1.02848 0.60254
 O1162 O 0.32762 1.02893 0.63618
 C1163 C 0.33767 1.03867 0.61296
 C1164 C 0.32350 1.06309 0.59882
 C1165 C 0.30068 1.07703 0.61234
 H1166 H 0.29242 1.06908 0.63241
 O1167 O 0.64300 0.97287 0.60042
 O1168 O 0.67689 0.97302 0.63308
 C1169 C 0.66639 0.96318 0.61009
 C1170 C 0.68092 0.93951 0.59505
 C1171 C 0.70660 0.92834 0.60567
 H1172 H 0.71667 0.93793 0.62416
 O1173 O 0.60373 0.85765 0.52644
 O1174 O 0.63734 0.82473 0.52608
 C1175 C 0.61440 0.83481 0.53638
 C1176 C 0.60077 0.82065 0.56107
 C1177 C 0.61378 0.79699 0.57401
 H1178 H 0.63284 0.78772 0.56477
 O1179 O 0.39906 1.14314 0.52790
 O1180 O 0.36561 1.17619 0.52822
 C1181 C 0.38847 1.16580 0.53837
 C1182 C 0.40196 1.17943 0.56354
 C1183 C 0.38768 1.20138 0.57811
 H1184 H 0.36722 1.20887 0.57039
 O1185 O 0.39973 0.97307 0.64192
 O1186 O 0.36661 0.97326 0.67535
 C1187 C 0.38949 0.96311 0.66495
 C1188 C 0.40336 0.93838 0.67887
 C1189 C 0.38994 0.92459 0.70186
 H1190 H 0.37017 0.93290 0.71050
 O1191 O 0.60420 1.02792 0.64061
 O1192 O 0.63777 1.02772 0.67360
 C1193 C 0.61438 1.03737 0.66389
 C1194 C 0.59946 1.06060 0.67921
 C1195 C 0.60896 1.06968 0.70613
 H1196 H 0.62603 1.05821 0.71667
 O1197 O 0.47445 0.85767 0.60195
 O1198 O 0.47450 0.82418 0.63497
 C1199 C 0.46481 0.83431 0.61178
 C1200 C 0.44163 0.81929 0.59635
 C1201 C 0.43108 0.79301 0.60623
 H1202 H 0.44001 0.78344 0.62527
 O1203 O 0.52981 1.14359 0.60237
 O1204 O 0.53017 1.17658 0.63595
 C1205 C 0.53983 1.16658 0.61268
 C1206 C 0.56392 1.18098 0.59820
 C1207 C 0.57769 1.20418 0.61127
 H1208 H 0.56977 1.21265 0.63128
 O1209 O 0.35966 0.89673 0.52923
 O1210 O 0.32656 0.86323 0.52965
 C1211 C 0.33698 0.88615 0.53972
 C1212 C 0.32340 0.89987 0.56474
 C1213 C 0.30116 0.88600 0.57934
 H1214 H 0.29245 0.86620 0.57111
 O1215 O 0.64136 1.10468 0.52597
 O1216 O 0.67486 1.13779 0.52552
 C1217 C 0.66445 1.11497 0.53585
 C1218 C 0.67867 1.10101 0.56039
 C1219 C 0.70183 1.11441 0.57398
 H1220 H 0.70986 1.13458 0.56601
 O1221 O 0.53085 1.10465 0.64127
 O1222 O 0.53125 1.13755 0.67494
 C1223 C 0.54099 1.11455 0.66440
 C1224 C 0.56448 1.09919 0.67892
 C1225 C 0.57542 1.10898 0.70507
 H1226 H 0.56711 1.12842 0.71442
 O1227 O 0.47397 0.89693 0.64093
 O1228 O 0.47375 0.86352 0.67404
 C1229 C 0.46393 0.88664 0.66389
 C1230 C 0.43972 0.90095 0.67824
 C1231 C 0.42609 0.88770 0.70138
 H1232 H 0.43421 0.86778 0.70983
 O1233 O 0.64265 1.02875 0.60086
 O1234 O 0.67626 1.02895 0.63380
 C1235 C 0.66572 1.03891 0.61090
 C1236 C 0.67966 1.06348 0.59664
 C1237 C 0.70349 1.07667 0.60920
 H1238 H 0.71312 1.06753 0.62812
 O1239 O 0.36028 0.97241 0.60372
 O1240 O 0.32727 0.97282 0.63725
 C1241 C 0.33755 0.96228 0.61451
 C1242 C 0.32384 0.93697 0.60142
 C1243 C 0.30217 0.92232 0.61610
 H1244 H 0.29463 0.93027 0.63645
 O1245 O 0.60308 1.14411 0.52605
 O1246 O 0.63666 1.17714 0.52550
 C1247 C 0.61372 1.16706 0.53587
 C1248 C 0.60011 1.18127 0.56059
 C1249 C 0.61354 1.20451 0.57402
 H1250 H 0.63310 1.21332 0.56536
 O1251 O 0.39929 0.85818 0.52691
 O1252 O 0.36619 0.82467 0.52688
 C1253 C 0.38968 0.83461 0.53619
 C1254 C 0.40537 0.81920 0.55884
 C1255 C 0.39581 0.79248 0.56839
 H1256 H 0.37787 0.78224 0.55795
 O1257 O 0.60467 0.97233 0.64021
 O1258 O 0.63853 0.97221 0.67290
 C1259 C 0.61519 0.96242 0.66313
 C1260 C 0.60065 0.93862 0.67801
 C1261 C 0.61219 0.92712 0.70314
 H1262 H 0.63102 0.93661 0.71270
 O1263 O 0.39940 1.02896 0.64181
 O1264 O 0.36651 1.02907 0.67544
 C1265 C 0.38953 1.03887 0.66503
 C1266 C 0.40482 1.06223 0.67989
 C1267 C 0.39503 1.07244 0.70629
 H1268 H 0.37565 1.06374 0.71541
 O1269 O 0.47402 1.14326 0.60344
 O1270 O 0.47404 1.17612 0.63712
 C1271 C 0.46391 1.16606 0.61404
 C1272 C 0.43917 1.18007 0.60016
 C1273 C 0.42521 1.20295 0.61362
 H1274 H 0.43401 1.21209 0.63296
 O1275 O 0.53018 0.85798 0.60252
 O1276 O 0.53033 0.82485 0.63592
 C1277 C 0.54034 0.83511 0.61293
 C1278 C 0.56478 0.82102 0.59878
 C1279 C 0.57844 0.79770 0.61171
 H1280 H 0.57044 0.78918 0.63166
 O1281 O 0.64207 0.89724 0.52541
 O1282 O 0.67566 0.86431 0.52492
 C1283 C 0.66543 0.88735 0.53491
 C1284 C 0.68033 0.90228 0.55845
 C1285 C 0.70581 0.89123 0.56966
 H1286 H 0.71514 0.87210 0.56062
 O1287 O 0.36036 1.10381 0.52716
 O1288 O 0.32703 1.13700 0.52742
 C1289 C 0.33732 1.11392 0.53721
 C1290 C 0.32324 1.09974 0.56166
 C1291 C 0.30028 1.11316 0.57545
 H1292 H 0.29160 1.13290 0.56714
 Cu1293 Cu 0.50202 0.88075 0.61829
 Cu1294 Cu 0.50196 0.84083 0.65825
 Cu1295 Cu 0.50241 1.12056 0.61892
 Cu1296 Cu 0.50275 1.16011 0.65928
 Cu1297 Cu 0.38196 0.88148 0.50025
 Cu1298 Cu 0.34194 0.84153 0.50050
 Cu1299 Cu 0.61894 0.88058 0.49806
 Cu1300 Cu 0.65919 0.84094 0.49751
 Cu1301 Cu 0.38308 1.12056 0.49947
 Cu1302 Cu 0.34305 1.16038 0.49992
 Cu1303 Cu 0.61853 1.12089 0.49802
 Cu1304 Cu 0.65886 1.16048 0.49736
 Cu1305 Cu 0.38325 1.00080 0.61910
 Cu1306 Cu 0.34363 1.00117 0.65935
 Cu1307 Cu 0.62028 1.00046 0.61720
 Cu1308 Cu 0.66083 1.00049 0.65656
 C1309 C 0.57619 0.92598 0.66608
 H1310 H 0.56739 0.93450 0.64650
 C1311 C 0.60024 0.90264 0.71557
 C1312 C 0.42877 1.07507 0.66732
 H1313 H 0.43578 1.06805 0.64645
 C1314 C 0.41016 1.09365 0.72124
 C1315 C 0.33456 1.07453 0.57336
 H1316 H 0.35270 1.06443 0.56324
 C1317 C 0.28946 1.10227 0.60105
 C1318 C 0.66815 0.92657 0.57116
 H1319 H 0.64816 0.93484 0.56304
 C1320 C 0.71918 0.90436 0.59300
 C1321 C 0.57608 0.83229 0.57342
 H1322 H 0.56614 0.85076 0.56374
 C1323 C 0.60317 0.78592 0.59969
 C1324 C 0.42761 1.16878 0.57484
 H1325 H 0.43811 1.15104 0.56439
 C1326 C 0.39885 1.21294 0.60339
 C1327 C 0.42836 0.92647 0.66729
 H1328 H 0.43840 0.93649 0.64906
 C1329 C 0.40089 0.89903 0.71273
 C1330 C 0.57672 1.07502 0.66614
 H1331 H 0.56912 1.06793 0.64549
 C1332 C 0.59707 1.09385 0.71934
 C1333 C 0.42871 0.83212 0.57254
 H1334 H 0.43611 0.85280 0.56533
 C1335 C 0.40848 0.77924 0.59207
 C1336 C 0.57514 1.16984 0.57271
 H1337 H 0.56502 1.15151 0.56287
 C1338 C 0.60266 1.21565 0.59954
 C1339 C 0.33436 0.92554 0.57578
 H1340 H 0.35173 0.93619 0.56485
 C1341 C 0.29111 0.89658 0.60549
 C1342 C 0.66764 1.07559 0.57196
 H1343 H 0.64912 1.06570 0.56226
 C1344 C 0.71400 1.10266 0.59866
 O1345 O 0.60621 0.52809 1.14097
 O1346 O 0.63985 0.52833 1.17391
 C1347 C 0.61660 0.53803 1.16397
 C1348 C 0.60166 0.56139 1.17898
 C1349 C 0.61132 0.57112 1.20563
 H1350 H 0.62952 0.56110 1.21577
 O1351 O 0.39732 0.47101 1.14100
 O1352 O 0.36377 0.47099 1.17398
 C1353 C 0.38674 0.46089 1.16380
 C1354 C 0.40061 0.43639 1.17804
 C1355 C 0.38645 0.42194 1.20012
 H1356 H 0.36568 0.42921 1.20721
 O1357 O 0.52953 0.64120 1.10287
 O1358 O 0.52956 0.67437 1.13626
 C1359 C 0.53926 0.66441 1.11299
 C1360 C 0.56281 0.67930 1.09806
 C1361 C 0.57419 0.70482 1.10901
 H1362 H 0.56508 0.71441 1.12796
 O1363 O 0.47328 0.35854 1.10501
 O1364 O 0.47356 0.32561 1.13861
 C1365 C 0.46306 0.33587 1.11582
 C1366 C 0.43764 0.32232 1.10276
 C1367 C 0.42254 0.30115 1.11770
 H1368 H 0.43031 0.29361 1.13812
 O1369 O 0.64294 0.60244 1.02638
 O1370 O 0.67647 0.63551 1.02601
 C1371 C 0.66644 0.61226 1.03572
 C1372 C 0.68182 0.59692 1.05866
 C1373 C 0.70838 0.60685 1.06841
 H1374 H 0.71837 0.62510 1.05830
 O1375 O 0.35925 0.39661 1.02664
 O1376 O 0.32556 0.36369 1.02622
 C1377 C 0.33557 0.38705 1.03575
 C1378 C 0.32026 0.40262 1.05859
 C1379 C 0.29341 0.39325 1.06814
 H1380 H 0.28284 0.37568 1.05743
 O1381 O 0.47508 0.60076 1.14227
 O1382 O 0.47504 0.63386 1.17575
 C1383 C 0.46543 0.61059 1.16560
 C1384 C 0.44164 0.59579 1.18018
 C1385 C 0.42970 0.60756 1.20496
 H1386 H 0.43965 0.62586 1.21505
 O1387 O 0.52970 0.39764 1.14314
 O1388 O 0.52989 0.36489 1.17689
 C1389 C 0.53963 0.38790 1.16639
 C1390 C 0.56298 0.40336 1.18106
 C1391 C 0.57301 0.39420 1.20775
 H1392 H 0.56410 0.37516 1.21737
 O1393 O 0.64355 0.47087 1.10252
 O1394 O 0.67695 0.47070 1.13566
 C1395 C 0.66634 0.46050 1.11288
 C1396 C 0.67992 0.43556 1.09900
 C1397 C 0.70249 0.42126 1.11256
 H1398 H 0.71102 0.42921 1.13254
 O1399 O 0.35907 0.52794 1.10281
 O1400 O 0.32568 0.52788 1.13596
 C1401 C 0.33614 0.53807 1.11316
 C1402 C 0.32210 0.56265 1.09917
 C1403 C 0.29710 0.57447 1.11073
 H1404 H 0.28730 0.56501 1.12940
 O1405 O 0.39994 0.64249 1.02694
 O1406 O 0.36674 0.67580 1.02719
 C1407 C 0.38997 0.66564 1.03685
 C1408 C 0.40444 0.67975 1.06121
 C1409 C 0.39245 0.70415 1.07382
 H1410 H 0.37450 0.71464 1.06374
 O1411 O 0.60328 0.35718 1.02756
 O1412 O 0.63627 0.32365 1.02749
 C1413 C 0.61339 0.33411 1.03756
 C1414 C 0.59941 0.32020 1.06222
 C1415 C 0.61229 0.29657 1.07536
 H1416 H 0.63116 0.28698 1.06606
 O1417 O 0.39856 0.52677 1.14121
 O1418 O 0.36518 0.52689 1.17438
 C1419 C 0.38844 0.53662 1.16432
 C1420 C 0.40329 0.56036 1.17901
 C1421 C 0.39086 0.57346 1.20292
 H1422 H 0.37065 0.56573 1.21110
 O1423 O 0.60479 0.47281 1.14186
 O1424 O 0.63809 0.47309 1.17513
 C1425 C 0.61455 0.46370 1.16543
 C1426 C 0.59881 0.44124 1.18110
 C1427 C 0.60728 0.43296 1.20860
 H1428 H 0.62424 0.44455 1.21926
 O1429 O 0.52934 0.35852 1.10417
 O1430 O 0.52981 0.32569 1.13784
 C1431 C 0.53953 0.33571 1.11461
 C1432 C 0.56378 0.32139 1.10030
 C1433 C 0.57765 0.29844 1.11362
 H1434 H 0.57004 0.29057 1.13398
 O1435 O 0.47370 0.64026 1.10372
 O1436 O 0.47361 0.67334 1.13721
 C1437 C 0.46354 0.66310 1.11420
 C1438 C 0.43933 0.67752 1.09994
 C1439 C 0.42585 0.70081 1.11310
 H1440 H 0.43332 0.70828 1.13367
 O1441 O 0.35999 0.60429 1.02875
 O1442 O 0.32681 0.63763 1.02896
 C1443 C 0.33709 0.61466 1.03892
 C1444 C 0.32269 0.60024 1.06304
 C1445 C 0.29764 0.61171 1.07490
 H1446 H 0.28815 0.63075 1.06587
 O1447 O 0.64272 0.39585 1.02691
 O1448 O 0.67560 0.36223 1.02681
 C1449 C 0.66558 0.38529 1.03693
 C1450 C 0.67972 0.39896 1.06170
 C1451 C 0.70227 0.38502 1.07567
 H1452 H 0.71050 0.36504 1.06743
 O1453 O 0.47392 0.39768 1.14352
 O1454 O 0.47412 0.36466 1.17704
 C1455 C 0.46395 0.38749 1.16657
 C1456 C 0.43895 0.40117 1.18017
 C1457 C 0.42499 0.38771 1.20303
 H1458 H 0.43412 0.36878 1.21265
 O1459 O 0.53067 0.60235 1.14197
 O1460 O 0.53059 0.63542 1.17549
 C1461 C 0.54057 0.61248 1.16510
 C1462 C 0.56436 0.59774 1.17961
 C1463 C 0.57437 0.60728 1.20620
 H1464 H 0.56429 0.62526 1.21669
 O1465 O 0.35882 0.47198 1.10153
 O1466 O 0.32528 0.47200 1.13452
 C1467 C 0.33555 0.46222 1.11141
 C1468 C 0.32070 0.43879 1.09621
 C1469 C 0.29447 0.42829 1.10619
 H1470 H 0.28490 0.43742 1.12515
 O1471 O 0.64445 0.52684 1.10126
 O1472 O 0.67824 0.52689 1.13401
 C1473 C 0.66783 0.53658 1.11092
 C1474 C 0.68249 0.56002 1.09556
 C1475 C 0.70880 0.57064 1.10531
 H1476 H 0.71891 0.56125 1.12385
 O1477 O 0.39826 0.35769 1.02971
 O1478 O 0.36457 0.32479 1.03008
 C1479 C 0.38736 0.33528 1.04042
 C1480 C 0.40055 0.32211 1.06597
 C1481 C 0.38597 0.30072 1.08114
 H1482 H 0.36578 0.29258 1.07330
 O1483 O 0.60384 0.64159 1.02724
 O1484 O 0.63729 0.67476 1.02725
 C1485 C 0.61412 0.66468 1.03711
 C1486 C 0.59942 0.67942 1.06088
 C1487 C 0.61025 0.70511 1.07192
 H1488 H 0.62872 0.71509 1.06220
 Cu1489 Cu 0.62148 0.49965 1.11826
 Cu1490 Cu 0.66182 0.49974 1.15785
 Cu1491 Cu 0.38176 0.49942 1.11828
 Cu1492 Cu 0.34164 0.49942 1.15805
 Cu1493 Cu 0.50229 0.61784 1.11932
 Cu1494 Cu 0.50218 0.65762 1.15950
 Cu1495 Cu 0.50164 0.38136 1.12056
 Cu1496 Cu 0.50201 0.34181 1.16088
 C1497 C 0.57800 0.57464 1.16630
 H1498 H 0.57060 0.56739 1.14563
 C1499 C 0.59758 0.59381 1.21942
 C1500 C 0.42682 0.42580 1.16812
 H1501 H 0.43730 0.43617 1.15033
 C1502 C 0.39822 0.39733 1.21237
 C1503 C 0.57548 0.66688 1.07388
 H1504 H 0.56724 0.64687 1.06571
 C1505 C 0.59808 0.71758 1.09625
 C1506 C 0.42649 0.33263 1.07687
 H1507 H 0.43760 0.34951 1.06563
 C1508 C 0.39651 0.29071 1.10730
 C1509 C 0.66928 0.57320 1.07207
 H1510 H 0.64868 0.56559 1.06482
 C1511 C 0.72205 0.59373 1.09156
 C1512 C 0.33339 0.42583 1.07235
 H1513 H 0.35407 0.43320 1.06509
 C1514 C 0.28023 0.40617 1.09176
 C1515 C 0.42864 0.57178 1.16769
 H1516 H 0.43766 0.56266 1.14847
 C1517 C 0.40366 0.59739 1.21564
 C1518 C 0.57608 0.42685 1.16789
 H1519 H 0.56919 0.43335 1.14682
 C1520 C 0.59445 0.40947 1.22224
 C1521 C 0.66880 0.42435 1.07344
 H1522 H 0.65096 0.43486 1.06320
 C1523 C 0.71332 0.39580 1.10126
 C1524 C 0.33461 0.57557 1.07519
 H1525 H 0.35410 0.56682 1.06640
 C1526 C 0.28468 0.59878 1.09853
 C1527 C 0.42830 0.66696 1.07411
 H1528 H 0.43773 0.64816 1.06453
 C1529 C 0.40218 0.71404 1.10042
 C1530 C 0.57487 0.33220 1.07461
 H1531 H 0.56497 0.35060 1.06476
 C1532 C 0.60219 0.28631 1.10157
 O1533 O 0.60086 0.47331 0.85666
 O1534 O 0.63374 0.47349 0.82300
 C1535 C 0.61011 0.46445 0.83281
 C1536 C 0.59449 0.44182 0.81728
 C1537 C 0.60537 0.43140 0.79150
 H1538 H 0.62229 0.44293 0.78074
 O1539 O 0.39782 0.52861 0.85752
 O1540 O 0.36399 0.52879 0.82482
 C1541 C 0.38713 0.53884 0.83483
 C1542 C 0.40117 0.56333 0.82058
 C1543 C 0.38779 0.57720 0.79763
 H1544 H 0.36744 0.56950 0.78976
 O1545 O 0.47220 0.64184 0.89525
 O1546 O 0.47221 0.67505 0.86192
 C1547 C 0.46190 0.66456 0.88469
 C1548 C 0.43681 0.67813 0.89822
 C1549 C 0.42246 0.70048 0.88436
 H1550 H 0.43045 0.70887 0.86435
 O1551 O 0.52853 0.35771 0.89577
 O1552 O 0.52852 0.32449 0.86241
 C1553 C 0.53843 0.33466 0.88551
 C1554 C 0.56230 0.32002 0.90009
 C1555 C 0.57515 0.29597 0.88764
 H1556 H 0.56712 0.28748 0.86768
 O1557 O 0.64196 0.39510 0.97061
 O1558 O 0.67479 0.36142 0.97051
 C1559 C 0.66447 0.38422 0.96012
 C1560 C 0.67780 0.39723 0.93455
 C1561 C 0.69994 0.38298 0.92021
 H1562 H 0.70848 0.36325 0.92869
 O1563 O 0.35938 0.60213 0.97318
 O1564 O 0.32600 0.63527 0.97343
 C1565 C 0.33594 0.61194 0.96380
 C1566 C 0.32089 0.59689 0.94041
 C1567 C 0.29521 0.60781 0.92956
 H1568 H 0.28503 0.62580 0.93991
 O1569 O 0.52943 0.60389 0.85739
 O1570 O 0.52980 0.63732 0.82431
 C1571 C 0.53977 0.61435 0.83464
 C1572 C 0.56439 0.60030 0.82077
 C1573 C 0.57742 0.61270 0.79681
 H1574 H 0.56875 0.63198 0.78747
 O1575 O 0.47151 0.39608 0.85790
 O1576 O 0.47123 0.36261 0.82480
 C1577 C 0.46101 0.38543 0.83529
 C1578 C 0.43593 0.39898 0.82170
 C1579 C 0.42052 0.38423 0.80066
 H1580 H 0.42742 0.36317 0.79407
 O1581 O 0.64286 0.52570 0.89735
 O1582 O 0.67596 0.52550 0.86393
 C1583 C 0.66599 0.53541 0.88711
 C1584 C 0.68040 0.55978 0.90125
 C1585 C 0.70440 0.57254 0.88859
 H1586 H 0.71386 0.56328 0.86965
 O1587 O 0.36026 0.47148 0.89627
 O1588 O 0.32655 0.47149 0.86342
 C1589 C 0.33743 0.46107 0.88596
 C1590 C 0.32424 0.43559 0.89932
 C1591 C 0.30142 0.42163 0.88574
 H1592 H 0.29238 0.43025 0.86630
 O1593 O 0.60323 0.64222 0.97163
 O1594 O 0.63641 0.67565 0.97169
 C1595 C 0.61308 0.66564 0.96214
 C1596 C 0.59767 0.68090 0.93918
 C1597 C 0.60728 0.70760 0.92951
 H1598 H 0.62535 0.71783 0.93972
 O1599 O 0.40026 0.35562 0.97388
 O1600 O 0.36729 0.32199 0.97420
 C1601 C 0.39059 0.33203 0.96461
 C1602 C 0.40583 0.31700 0.94137
 C1603 C 0.39654 0.29012 0.93187
 H1604 H 0.37946 0.27923 0.94303
 O1605 O 0.39808 0.47262 0.85649
 O1606 O 0.36430 0.47269 0.82371
 C1607 C 0.38739 0.46257 0.83367
 C1608 C 0.40074 0.43740 0.81991
 C1609 C 0.38656 0.42301 0.79769
 H1610 H 0.36759 0.43223 0.78826
 O1611 O 0.60447 0.52854 0.85801
 O1612 O 0.63775 0.52846 0.82472
 C1613 C 0.61502 0.53878 0.83522
 C1614 C 0.60128 0.56347 0.82124
 C1615 C 0.61400 0.57622 0.79732
 H1616 H 0.63349 0.56751 0.78843
 O1617 O 0.47301 0.35702 0.89661
 O1618 O 0.47294 0.32351 0.86355
 C1619 C 0.46341 0.33361 0.88684
 C1620 C 0.44062 0.31834 0.90255
 C1621 C 0.43013 0.29208 0.89261
 H1622 H 0.43864 0.28290 0.87317
 O1623 O 0.52803 0.64274 0.89654
 O1624 O 0.52809 0.67628 0.86356
 C1625 C 0.53767 0.66612 0.88678
 C1626 C 0.56090 0.68107 0.90216
 C1627 C 0.57118 0.70750 0.89245
 H1628 H 0.56170 0.71747 0.87388
 O1629 O 0.36151 0.39477 0.97094
 O1630 O 0.32851 0.36117 0.97050
 C1631 C 0.33897 0.38403 0.96031
 C1632 C 0.32531 0.39770 0.93527
 C1633 C 0.30256 0.38406 0.92120
 H1634 H 0.29425 0.36398 0.92911
 O1635 O 0.64191 0.60269 0.97075
 O1636 O 0.67513 0.63607 0.97033
 C1637 C 0.66489 0.61289 0.96061
 C1638 C 0.67935 0.59815 0.93670
 C1639 C 0.70318 0.61068 0.92352
 H1640 H 0.71169 0.63070 0.93141
 O1641 O 0.52749 0.39666 0.85655
 O1642 O 0.52753 0.36351 0.82315
 C1643 C 0.53727 0.38672 0.83331
 C1644 C 0.56071 0.40209 0.81855
 C1645 C 0.57432 0.39020 0.79454
 H1646 H 0.56773 0.36945 0.78670
 O1647 O 0.47363 0.60286 0.85648
 O1648 O 0.47387 0.63610 0.82319
 C1649 C 0.46388 0.61301 0.83334
 C1650 C 0.43939 0.59889 0.81920
 C1651 C 0.42630 0.61168 0.79550
 H1652 H 0.43586 0.63032 0.78571
 O1653 O 0.35911 0.52755 0.89697
 O1654 O 0.32528 0.52759 0.86427
 C1655 C 0.33574 0.53734 0.88731
 C1656 C 0.32117 0.56101 0.90247
 C1657 C 0.29611 0.57308 0.89126
 H1658 H 0.28687 0.56457 0.87184
 O1659 O 0.64131 0.46944 0.89445
 O1660 O 0.67416 0.46914 0.86080
 C1661 C 0.66370 0.45870 0.88349
 C1662 C 0.67709 0.43326 0.89675
 C1663 C 0.69908 0.41847 0.88261
 H1664 H 0.70712 0.42614 0.86234
 O1665 O 0.60262 0.35656 0.97193
 O1666 O 0.63554 0.32295 0.97198
 C1667 C 0.61248 0.33327 0.96219
 C1668 C 0.59799 0.31892 0.93811
 C1669 C 0.61012 0.29453 0.92566
 H1670 H 0.62897 0.28487 0.93494
 O1671 O 0.39754 0.64192 0.97092
 O1672 O 0.36418 0.67508 0.97109
 C1673 C 0.38682 0.66457 0.96058
 C1674 C 0.40004 0.67807 0.93527
 C1675 C 0.38597 0.70035 0.92098
 H1676 H 0.36599 0.70868 0.92909
 Cu1677 Cu 0.61921 0.49917 0.88014
 Cu1678 Cu 0.65887 0.49897 0.83991
 Cu1679 Cu 0.38220 0.50017 0.88008
 Cu1680 Cu 0.34164 0.50026 0.84079
 Cu1681 Cu 0.61963 0.61891 0.99903
 Cu1682 Cu 0.65970 0.65881 0.99882
 Cu1683 Cu 0.61943 0.37964 0.99928
 Cu1684 Cu 0.65896 0.33930 0.99922
 Cu1685 Cu 0.38262 0.61946 0.99996
 Cu1686 Cu 0.34269 0.65937 1.00018
 Cu1687 Cu 0.38318 0.37947 1.00031
 Cu1688 Cu 0.34317 0.33955 1.00023
 Cu1689 Cu 0.50088 0.61949 0.87974
 Cu1690 Cu 0.50109 0.65952 0.83989
 Cu1691 Cu 0.50022 0.38028 0.87995
 Cu1692 Cu 0.50007 0.34028 0.84003
 C1693 C 0.57142 0.42766 0.83010
 H1694 H 0.56266 0.43589 0.84983
 C1695 C 0.59735 0.40440 0.78141
 C1696 C 0.42692 0.57442 0.83128
 H1697 H 0.43679 0.56455 0.84969
 C1698 C 0.39998 0.60164 0.78530
 C1699 C 0.42553 0.66719 0.92378
 H1700 H 0.43619 0.64962 0.93433
 C1701 C 0.39702 0.71137 0.89553
 C1702 C 0.57381 0.33128 0.92540
 H1703 H 0.56459 0.35035 0.93465
 C1704 C 0.59931 0.28354 0.90006
 C1705 C 0.66666 0.42246 0.92274
 H1706 H 0.64931 0.43332 0.93344
 C1707 C 0.71037 0.39325 0.89414
 C1708 C 0.33344 0.57315 0.92703
 H1709 H 0.35335 0.56473 0.93518
 C1710 C 0.28327 0.59673 0.90444
 C1711 C 0.57637 0.57555 0.83273
 H1712 H 0.56673 0.56610 0.85148
 C1713 C 0.60238 0.60094 0.78532
 C1714 C 0.42574 0.42545 0.83140
 H1715 H 0.43676 0.43631 0.84859
 C1716 C 0.39560 0.39583 0.78877
 C1717 C 0.66821 0.57259 0.92552
 H1718 H 0.64937 0.56322 0.93509
 C1719 C 0.71543 0.59823 0.89928
 C1720 C 0.33598 0.42352 0.92419
 H1721 H 0.35389 0.43388 0.93453
 C1722 C 0.29084 0.39579 0.89636
 C1723 C 0.57415 0.66806 0.92568
 H1724 H 0.56678 0.64736 0.93288
 C1725 C 0.59400 0.72111 0.90633
 C1726 C 0.42836 0.33059 0.92699
 H1727 H 0.43568 0.35131 0.93423
 C1728 C 0.40872 0.27738 0.90760
 C1729 C 1.14541 1.16594 1.25065
 C1730 C 1.15671 1.15019 1.27400
 C1731 C 1.15613 1.12027 1.27293
 C1732 C 1.14150 1.10601 1.25143
 C1733 C 1.12855 1.12096 1.22905
 C1734 C 1.13220 1.15109 1.22750
 C1735 C 1.14913 1.19583 1.24855
 C1736 C 1.14022 1.21066 1.22436
 C1737 C 1.12803 1.19609 1.20156
 C1738 C 1.12427 1.16662 1.20290
 H1739 H 1.15994 1.20793 1.26495
 H1740 H 1.14348 1.23349 1.22299
 H1741 H 1.12186 1.20763 1.18253
 H1742 H 1.11594 1.15615 1.18411
 H1743 H 1.16501 1.10767 1.29016
 H1744 H 1.13967 1.08300 1.25277
 C1745 C 1.09808 0.61272 0.80020
 C1746 C 1.12658 0.62293 0.80144
 C1747 C 1.14397 0.62091 0.77725
 C1748 C 1.13333 0.61021 0.75171
 C1749 C 1.10496 0.60104 0.74952
 C1750 C 1.08716 0.60169 0.77401
 C1751 C 1.08049 0.61231 0.82462
 C1752 C 1.05262 0.60195 0.82318
 C1753 C 1.04192 0.59131 0.79761
 C1754 C 1.05901 0.59088 0.77328
 H1755 H 1.08827 0.61931 0.84513
 H1756 H 1.03940 0.60183 0.84211
 H1757 H 1.02037 0.58298 0.79671
 H1758 H 1.05008 0.58161 0.75412
 H1759 H 1.16584 0.62845 0.77789
 H1760 H 1.14722 0.60968 0.73324
 C1761 C 0.60473 1.12733 0.79419
 C1762 C 0.63504 1.13022 0.79538
 C1763 C 0.65150 1.11778 0.77367
 C1764 C 0.63878 1.10598 0.74964
 C1765 C 0.60903 1.10456 0.74689
 C1766 C 0.59175 1.11387 0.77003
 C1767 C 0.58711 1.13534 0.81738
 C1768 C 0.55768 1.13113 0.81648
 C1769 C 0.54517 1.11796 0.79304
 C1770 C 0.56197 1.10896 0.77027
 H1771 H 0.59577 1.14376 0.83699
 H1772 H 0.54459 1.13742 0.83444
 H1773 H 0.52239 1.11409 0.79280
 H1774 H 0.55142 1.09738 0.75334
 H1775 H 0.67460 1.11918 0.77404
 H1776 H 0.65252 1.09878 0.73252
 C1777 C 0.60305 0.61453 1.29836
 C1778 C 0.63084 0.62658 1.29853
 C1779 C 0.64721 0.62615 1.27357
 C1780 C 0.63613 0.61517 1.24832
 C1781 C 0.60832 0.60423 1.24724
 C1782 C 0.59161 0.60342 1.27244
 C1783 C 0.58676 0.61231 1.32357
 C1784 C 0.55952 0.60033 1.32314
 C1785 C 0.54820 0.58981 1.29778
 C1786 C 0.56410 0.59103 1.27268
 H1787 H 0.59519 0.61909 1.34388
 H1788 H 0.54728 0.59886 1.34267
 H1789 H 0.52715 0.58026 1.29764
 H1790 H 0.55479 0.58181 1.25368
 H1791 H 0.66859 0.63502 1.27347
 H1792 H 0.64920 0.61569 1.22926
 C1793 C 0.84292 0.86746 1.26170
 C1794 C 0.85997 0.85799 1.28506
 C1795 C 0.88980 0.85948 1.28279
 C1796 C 0.90275 0.87286 1.25974
 C1797 C 0.88655 0.88379 1.23715
 C1798 C 0.85645 0.87966 1.23724
 C1799 C 0.81305 0.86278 1.26086
 C1800 C 0.79696 0.87044 1.23708
 C1801 C 0.81021 0.88191 1.21321
 C1802 C 0.83963 0.88605 1.21300
 H1803 H 0.80179 0.85213 1.27788
 H1804 H 0.77416 0.86664 1.23686
 H1805 H 0.79770 0.88703 1.19448
 H1806 H 0.84900 0.89343 1.19330
 H1807 H 0.90333 0.85200 1.29998
 H1808 H 0.92575 0.87526 1.25991
 C1809 C 0.83323 0.35746 0.75254
 C1810 C 0.84902 0.34682 0.77634
 C1811 C 0.87897 0.34915 0.77574
 C1812 C 0.89298 0.36393 0.75425
 C1813 C 0.87802 0.37596 0.73143
 C1814 C 0.84798 0.37155 0.72969
 C1815 C 0.80361 0.35234 0.74955
 C1816 C 0.78881 0.36124 0.72535
 C1817 C 0.80317 0.37467 0.70318
 C1818 C 0.83246 0.37949 0.70507
 H1819 H 0.79169 0.34032 0.76508
 H1820 H 0.76617 0.35697 0.72345
 H1821 H 0.79167 0.38084 0.68412
 H1822 H 0.84282 0.38865 0.68664
 H1823 H 0.89189 0.34114 0.79315
 H1824 H 0.91590 0.36658 0.75592
 C1825 C 0.35951 0.84102 0.75284
 C1826 C 0.35702 0.85444 0.77984
 C1827 C 0.36764 0.88209 0.78374
 C1828 C 0.38162 0.89622 0.76169
 C1829 C 0.38507 0.88323 0.73502
 C1830 C 0.37339 0.85567 0.73012
 C1831 C 0.34767 0.81375 0.74765
 C1832 C 0.34942 0.80125 0.72070
 C1833 C 0.36263 0.81570 0.69839
 C1834 C 0.37441 0.84268 0.70290
 H1835 H 0.33662 0.80200 0.76416
 H1836 H 0.34019 0.78037 0.71702
 H1837 H 0.36357 0.80605 0.67742
 H1838 H 0.38385 0.85336 0.68477
 H1839 H 0.36548 0.89265 0.80420
 H1840 H 0.39013 0.91739 0.76556
 C1841 C 0.36152 0.33813 1.25612
 C1842 C 0.35316 0.35444 1.28052
 C1843 C 0.35731 0.38414 1.28011
 C1844 C 0.37198 0.39730 1.25803
 C1845 C 0.38210 0.38163 1.23475
 C1846 C 0.37583 0.35198 1.23298
 C1847 C 0.35390 0.30900 1.25293
 C1848 C 0.36116 0.29376 1.22845
 C1849 C 0.37530 0.30723 1.20617
 C1850 C 0.38216 0.33609 1.20811
 H1851 H 0.34120 0.29782 1.26854
 H1852 H 0.35514 0.27152 1.22646
 H1853 H 0.38041 0.29540 1.18701
 H1854 H 0.39172 0.34583 1.18955
 H1855 H 0.35077 0.39733 1.29793
 H1856 H 0.37600 0.42004 1.25947
 C1857 C 0.86810 1.16268 0.73703
 C1858 C 0.85525 1.14534 0.71557
 C1859 C 0.85386 1.11574 0.71974
 C1860 C 0.86773 1.10290 0.74253
 C1861 C 0.88188 1.11916 0.76333
 C1862 C 0.88058 1.14950 0.76156
 C1863 C 0.86669 1.19285 0.73595
 C1864 C 0.87778 1.20956 0.75792
 C1865 C 0.88948 1.19675 0.78190
 C1866 C 0.89023 1.16712 0.78412
 H1867 H 0.85611 1.20397 0.71880
 H1868 H 0.87646 1.23259 0.75673
 H1869 H 0.89720 1.20985 0.79931
 H1870 H 0.89757 1.15838 0.80412
 H1871 H 0.84393 1.10201 0.70397
 H1872 H 0.86803 1.07981 0.74336
 C1873 C 0.86425 0.65118 0.23363
 C1874 C 0.86525 0.63554 0.20776
 C1875 C 0.87677 0.60802 0.20747
 C1876 C 0.88837 0.59623 0.23208
 C1877 C 0.88854 0.61153 0.25773
 C1878 C 0.87580 0.63896 0.25893
 C1879 C 0.85125 0.67831 0.23513
 C1880 C 0.84963 0.69301 0.26097
 C1881 C 0.86069 0.68097 0.28574
 C1882 C 0.87361 0.65419 0.28486
 H1883 H 0.84188 0.68821 0.21651
 H1884 H 0.83949 0.71374 0.26183
 H1885 H 0.85910 0.69237 0.30578
 H1886 H 0.88142 0.64542 0.30472
 H1887 H 0.87732 0.59579 0.18785
 H1888 H 0.89773 0.57512 0.23103
 C1889 C 0.35560 1.16998 0.25173
 C1890 C 0.34356 1.15487 0.22821
 C1891 C 0.34481 1.12494 0.22809
 C1892 C 0.36063 1.11023 0.24836
 C1893 C 0.37439 1.12460 0.27070
 C1894 C 0.37041 1.15459 0.27352
 C1895 C 0.35121 1.19965 0.25539
 C1896 C 0.36144 1.21383 0.27947
 C1897 C 0.37553 1.19879 0.30075
 C1898 C 0.37961 1.16946 0.29813
 H1899 H 0.33892 1.21207 0.24038
 H1900 H 0.35779 1.23652 0.28195
 H1901 H 0.38293 1.20982 0.31964
 H1902 H 0.38928 1.15859 0.31599
 H1903 H 0.33542 1.11274 0.21081
 H1904 H 0.36273 1.08733 0.24607
 C1905 C 0.36699 0.65929 0.73706
 C1906 C 0.35966 0.64212 0.71326
 C1907 C 0.36417 0.61266 0.71430
 C1908 C 0.37693 0.60010 0.73790
 C1909 C 0.38517 0.61650 0.76153
 C1910 C 0.37943 0.64635 0.76164
 C1911 C 0.36145 0.68892 0.73729
 C1912 C 0.36822 0.70550 0.76105
 C1913 C 0.38003 0.69289 0.78515
 C1914 C 0.38508 0.66357 0.78577
 H1915 H 0.35158 0.69949 0.71933
 H1916 H 0.36393 0.72820 0.76091
 H1917 H 0.38496 0.70585 0.80362
 H1918 H 0.39304 0.65465 0.80546
 H1919 H 0.35854 0.59932 0.69625
 H1920 H 0.38098 0.57734 0.73745
 C1921 C 1.16053 0.85850 0.74580
 C1922 C 1.14690 0.85443 0.71907
 C1923 C 1.11874 0.86354 0.71526
 C1924 C 1.10430 0.87767 0.73702
 C1925 C 1.11751 0.88285 0.76331
 C1926 C 1.14562 0.87262 0.76821
 C1927 C 1.18831 0.84803 0.75108
 C1928 C 1.20113 0.85152 0.77772
 C1929 C 1.18649 0.86510 0.79967
 C1930 C 1.15895 0.87538 0.79515
 H1931 H 1.20023 0.83669 0.73491
 H1932 H 1.22240 0.84335 0.78147
 H1933 H 1.19642 0.86747 0.82038
 H1934 H 1.14816 0.88505 0.81309
 H1935 H 1.10804 0.86022 0.69503
 H1936 H 1.08272 0.88503 0.73318
 C1937 C 1.09533 0.37726 0.19856
 C1938 C 1.12559 0.37645 0.19537
 C1939 C 1.14266 0.38980 0.21603
 C1940 C 1.13088 0.40057 0.24096
 C1941 C 1.10130 0.40035 0.24556
 C1942 C 1.08315 0.39015 0.22341
 C1943 C 1.07681 0.36782 0.17661
 C1944 C 1.04731 0.37047 0.17923
 C1945 C 1.03558 0.38344 0.20314
 C1946 C 1.05322 0.39363 0.22480
 H1947 H 1.08471 0.35937 0.15671
 H1948 H 1.03351 0.36316 0.16219
 H1949 H 1.01269 0.38618 0.20466
 H1950 H 1.04314 0.40499 0.24212
 H1951 H 1.16572 0.38989 0.21407
 H1952 H 1.14533 0.40831 0.25727
 C1953 C 0.59497 0.87669 0.19993
 C1954 C 0.62521 0.87528 0.19659
 C1955 C 0.64266 0.88730 0.21778
 C1956 C 0.63120 0.89760 0.24304
 C1957 C 0.60165 0.89810 0.24764
 C1958 C 0.58319 0.88894 0.22530
 C1959 C 0.57612 0.86856 0.17773
 C1960 C 0.54671 0.87172 0.18063
 C1961 C 0.53537 0.88395 0.20511
 C1962 C 0.55334 0.89294 0.22702
 H1963 H 0.58369 0.86079 0.15743
 H1964 H 0.53267 0.86539 0.16340
 H1965 H 0.51255 0.88708 0.20688
 H1966 H 0.54355 0.90380 0.24483
 H1967 H 0.66571 0.88689 0.21580
 H1968 H 0.64584 0.90456 0.25954
 C1969 C 0.65893 0.37610 0.73450
 C1970 C 0.64274 0.36400 0.71177
 C1971 C 0.61289 0.36495 0.71293
 C1972 C 0.59883 0.37805 0.73552
 C1973 C 0.61400 0.39042 0.75813
 C1974 C 0.64447 0.38919 0.75795
 C1975 C 0.68914 0.37460 0.73517
 C1976 C 0.70472 0.38753 0.75691
 C1977 C 0.69071 0.40036 0.77957
 C1978 C 0.66104 0.39985 0.78091
 H1979 H 0.70136 0.36316 0.71945
 H1980 H 0.72781 0.38662 0.75674
 H1981 H 0.70293 0.40936 0.79701
 H1982 H 0.65164 0.40738 0.80049
 H1983 H 0.60023 0.35579 0.69587
 H1984 H 0.57572 0.37881 0.73514
 C1985 C 1.25119 1.14316 1.16641
 C1986 C 1.27516 1.15511 1.15189
 C1987 C 1.27598 1.15373 1.12197
 C1988 C 1.25580 1.13815 1.10674
 C1989 C 1.23307 1.12451 1.12055
 C1990 C 1.22975 1.12829 1.15050
 C1991 C 1.24665 1.14772 1.19596
 C1992 C 1.22239 1.13722 1.20956
 C1993 C 1.20165 1.12282 1.19403
 C1994 C 1.20490 1.11883 1.16479
 H1995 H 1.26102 1.16038 1.20878
 H1996 H 1.21931 1.14092 1.23216
 H1997 H 1.18264 1.11516 1.20458
 H1998 H 1.18732 1.10901 1.15356
 H1999 H 1.29356 1.16309 1.11021
 H2000 H 1.25842 1.13615 1.08387
 C2001 C 1.26223 0.63645 0.65696
 C2002 C 1.28650 0.64333 0.63987
 C2003 C 1.28502 0.63878 0.61030
 C2004 C 1.26184 0.62496 0.59803
 C2005 C 1.23850 0.61627 0.61451
 C2006 C 1.23794 0.62319 0.64403
 C2007 C 1.26039 0.64469 0.68598
 C2008 C 1.23593 0.63917 0.70197
 C2009 C 1.21244 0.62618 0.68937
 C2010 C 1.21318 0.61861 0.66066
 H2011 H 1.27712 0.65656 0.69647
 H2012 H 1.23495 0.64569 0.72411
 H2013 H 1.19327 0.62256 0.70175
 H2014 H 1.19380 0.61001 0.65158
 H2015 H 1.30283 0.64424 0.59658
 H2016 H 1.26242 0.62047 0.57536
 C2017 C 0.76059 1.13735 0.65689
 C2018 C 0.78539 1.14387 0.64039
 C2019 C 0.78448 1.13955 0.61075
 C2020 C 0.76128 1.12631 0.59782
 C2021 C 0.73744 1.11795 0.61374
 C2022 C 0.73635 1.12468 0.64329
 C2023 C 0.75818 1.14541 0.68593
 C2024 C 0.73324 1.14025 0.70128
 C2025 C 0.70982 1.12782 0.68803
 C2026 C 0.71110 1.12046 0.65929
 H2027 H 0.77483 1.15690 0.69695
 H2028 H 0.73185 1.14661 0.72344
 H2029 H 0.69029 1.12449 0.69991
 H2030 H 0.69178 1.11231 0.64967
 H2031 H 0.80267 1.14485 0.59748
 H2032 H 0.76224 1.12197 0.57514
 C2033 C 0.79892 0.60151 1.11909
 C2034 C 0.79830 0.63057 1.12758
 C2035 C 0.77382 0.64685 1.12262
 C2036 C 0.74959 0.63457 1.11061
 C2037 C 0.74920 0.60569 1.10276
 C2038 C 0.77425 0.58903 1.10629
 C2039 C 0.82379 0.58481 1.12223
 C2040 C 0.82433 0.55650 1.11311
 C2041 C 0.80039 0.54441 1.10032
 C2042 C 0.77563 0.56048 1.09670
 H2043 H 0.84316 0.59352 1.13130
 H2044 H 0.84356 0.54397 1.11563
 H2045 H 0.80109 0.52253 1.09291
 H2046 H 0.75787 0.55043 1.08591
 H2047 H 0.77316 0.66911 1.12886
 H2048 H 0.73071 0.64764 1.10796
 C2049 C 1.25518 0.83477 0.85712
 C2050 C 1.27930 0.85085 0.84781
 C2051 C 1.27873 0.88069 0.85059
 C2052 C 1.25676 0.89432 0.86504
 C2053 C 1.23360 0.87896 0.87602
 C2054 C 1.23192 0.84908 0.87074
 C2055 C 1.25240 0.80530 0.85097
 C2056 C 1.22792 0.79025 0.85863
 C2057 C 1.20534 0.80423 0.87172
 C2058 C 1.20701 0.83336 0.87733
 H2059 H 1.26836 0.79367 0.83915
 H2060 H 1.22613 0.76776 0.85365
 H2061 H 1.18615 0.79256 0.87699
 H2062 H 1.18819 0.84344 0.88599
 H2063 H 1.29648 0.89363 0.84327
 H2064 H 1.25827 0.91717 0.86828
 C2065 C 1.29095 0.39162 0.36510
 C2066 C 1.29086 0.36130 0.36179
 C2067 C 1.26866 0.34553 0.37430
 C2068 C 1.24545 0.35901 0.38686
 C2069 C 1.24399 0.38882 0.38880
 C2070 C 1.26751 0.40535 0.37905
 C2071 C 1.31480 0.40845 0.35719
 C2072 C 1.31506 0.43785 0.36160
 C2073 C 1.29219 0.45111 0.37496
 C2074 C 1.26889 0.43507 0.38408
 H2075 H 1.33408 0.39917 0.34874
 H2076 H 1.33349 0.45031 0.35534
 H2077 H 1.29284 0.47386 0.37896
 H2078 H 1.25248 0.44618 0.39584
 H2079 H 1.26811 0.32246 0.37263
 H2080 H 1.22797 0.34588 0.39441
 C2081 C 0.79246 0.89391 0.37026
 C2082 C 0.79080 0.86486 0.36183
 C2083 C 0.76595 0.84926 0.36727
 C2084 C 0.74242 0.86216 0.37992
 C2085 C 0.74313 0.89100 0.38791
 C2086 C 0.76850 0.90704 0.38364
 C2087 C 0.81775 0.90997 0.36660
 C2088 C 0.81931 0.93827 0.37567
 C2089 C 0.79603 0.95098 0.38896
 C2090 C 0.77093 0.93555 0.39317
 H2091 H 0.83667 0.90080 0.35715
 H2092 H 0.83883 0.95029 0.37271
 H2093 H 0.79753 0.97284 0.39632
 H2094 H 0.75373 0.94607 0.40436
 H2095 H 0.76456 0.82698 0.36117
 H2096 H 0.72327 0.84959 0.38316
 C2097 C 0.75124 0.34936 0.83821
 C2098 C 0.77859 0.34868 0.85129
 C2099 C 0.78189 0.36019 0.87875
 C2100 C 0.75966 0.37472 0.89201
 C2101 C 0.73300 0.37725 0.87885
 C2102 C 0.72817 0.36343 0.85233
 C2103 C 0.74556 0.33395 0.81292
 C2104 C 0.71792 0.33203 0.80209
 C2105 C 0.69546 0.34551 0.81601
 C2106 C 0.70051 0.36161 0.84054
 H2107 H 0.76208 0.32203 0.80213
 H2108 H 0.71383 0.31966 0.78300
 H2109 H 0.67400 0.34357 0.80769
 H2110 H 0.68236 0.37149 0.85080
 H2111 H 0.80233 0.35919 0.88954
 H2112 H 0.76339 0.38435 0.91270
 C2113 C 0.70346 0.90201 1.11812
 C2114 C 0.70303 0.87349 1.12835
 C2115 C 0.72774 0.85685 1.12655
 C2116 C 0.75299 0.86822 1.11582
 C2117 C 0.75430 0.89652 1.10630
 C2118 C 0.72932 0.91360 1.10695
 C2119 C 0.67855 0.91898 1.11774
 C2120 C 0.67920 0.94676 1.10713
 C2121 C 0.70442 0.95804 1.09627
 C2122 C 0.72921 0.94165 1.09590
 H2123 H 0.65822 0.91091 1.12507
 H2124 H 0.65994 0.95948 1.10701
 H2125 H 0.70469 0.97951 1.08776
 H2126 H 0.74806 0.95104 1.08648
 H2127 H 0.72762 0.83497 1.13403
 H2128 H 0.77185 0.85487 1.11524
 C2129 C 0.74350 0.34050 0.63575
 C2130 C 0.71881 0.35714 0.64199
 C2131 C 0.71955 0.38662 0.63671
 C2132 C 0.74260 0.39917 0.62296
 C2133 C 0.76646 0.38307 0.61510
 C2134 C 0.76764 0.35373 0.62262
 C2135 C 0.74595 0.31178 0.64473
 C2136 C 0.77083 0.29627 0.64004
 C2137 C 0.79420 0.30916 0.62720
 C2138 C 0.79288 0.33764 0.61888
 H2139 H 0.72938 0.30133 0.65666
 H2140 H 0.77226 0.27434 0.64716
 H2141 H 0.81371 0.29724 0.62434
 H2142 H 0.81216 0.34701 0.61038
 H2143 H 0.70138 0.39999 0.64182
 H2144 H 0.74161 0.42174 0.61802
 C2145 C 0.24958 0.83664 0.64340
 C2146 C 0.22435 0.85182 0.65082
 C2147 C 0.22331 0.88137 0.64596
 C2148 C 0.24501 0.89528 0.63127
 C2149 C 0.26932 0.88055 0.62215
 C2150 C 0.27248 0.85132 0.62959
 C2151 C 0.25376 0.80798 0.65184
 C2152 C 0.27949 0.79408 0.64664
 C2153 C 0.30183 0.80851 0.63354
 C2154 C 0.29853 0.83681 0.62514
 H2155 H 0.23786 0.79646 0.66381
 H2156 H 0.28241 0.77224 0.65358
 H2157 H 0.32207 0.79795 0.63053
 H2158 H 0.31696 0.84740 0.61617
 H2159 H 0.20464 0.89365 0.65190
 H2160 H 0.24250 0.91775 0.62647
 C2161 C 0.20333 0.40254 1.12062
 C2162 C 0.20145 0.37264 1.12653
 C2163 C 0.22405 0.35487 1.11807
 C2164 C 0.24906 0.36613 1.10677
 C2165 C 0.25219 0.39551 1.10233
 C2166 C 0.22881 0.41387 1.10818
 C2167 C 0.17976 0.42114 1.12432
 C2168 C 0.18168 0.45000 1.11747
 C2169 C 0.20657 0.46092 1.10571
 C2170 C 0.22969 0.44306 1.10057
 H2171 H 0.15911 0.41374 1.13126
 H2172 H 0.16344 0.46382 1.12057
 H2173 H 0.20770 0.48319 1.09980
 H2174 H 0.24785 0.45233 1.08980
 H2175 H 0.22313 0.33204 1.12171
 H2176 H 0.26647 0.35168 1.10206
 C2177 C 0.74006 1.16042 0.86512
 C2178 C 0.71674 1.14299 0.85594
 C2179 C 0.71876 1.11331 0.85965
 C2180 C 0.74137 1.10115 0.87437
 C2181 C 0.76383 1.11782 0.88495
 C2182 C 0.76387 1.14769 0.87942
 C2183 C 0.74158 1.18973 0.85820
 C2184 C 0.76471 1.20647 0.86655
 C2185 C 0.78754 1.19419 0.88083
 C2186 C 0.78761 1.16503 0.88648
 H2187 H 0.72574 1.19977 0.84512
 H2188 H 0.76531 1.22892 0.86111
 H2189 H 0.80574 1.20718 0.88671
 H2190 H 0.80683 1.15633 0.89567
 H2191 H 0.70171 1.09924 0.85275
 H2192 H 0.74102 1.07831 0.87796
 C2193 C 0.73476 0.63523 0.35026
 C2194 C 0.70956 0.63471 0.36700
 C2195 C 0.71048 0.62382 0.39475
 C2196 C 0.73554 0.61234 0.40572
 C2197 C 0.76051 0.61164 0.38935
 C2198 C 0.76055 0.62380 0.36163
 C2199 C 0.73513 0.64763 0.32282
 C2200 C 0.76032 0.64883 0.30702
 C2201 C 0.78556 0.63791 0.31821
 C2202 C 0.78580 0.62555 0.34526
 H2203 H 0.71614 0.65691 0.31356
 H2204 H 0.76032 0.65854 0.28607
 H2205 H 0.80510 0.63921 0.30595
 H2206 H 0.80600 0.61786 0.35334
 H2207 H 0.69140 0.62353 0.40781
 H2208 H 0.73536 0.60347 0.42706
 C2209 C 0.24920 1.14154 0.33540
 C2210 C 0.22449 1.15080 0.35061
 C2211 C 0.22387 1.14766 0.38040
 C2212 C 0.24516 1.13282 0.39467
 C2213 C 0.26863 1.12163 0.38003
 C2214 C 0.27157 1.12720 0.35037
 C2215 C 0.25343 1.14833 0.30625
 C2216 C 0.27834 1.14042 0.29208
 C2217 C 0.29994 1.12638 0.30668
 C2218 C 0.29691 1.12022 0.33556
 H2219 H 0.23830 1.16085 0.29425
 H2220 H 0.28119 1.14582 0.26981
 H2221 H 0.31942 1.12075 0.29573
 H2222 H 0.31502 1.11074 0.34619
 H2223 H 0.20573 1.15501 0.39271
 H2224 H 0.24287 1.12942 0.41742
 C2225 C 0.22902 0.65048 0.87415
 C2226 C 0.20555 0.63181 0.86959
 C2227 C 0.20862 0.60267 0.87529
 C2228 C 0.23393 0.59189 0.88634
 C2229 C 0.25726 0.60980 0.89181
 C2230 C 0.25516 0.63938 0.88519
 C2231 C 0.22749 0.67977 0.86706
 C2232 C 0.25067 0.69785 0.87164
 C2233 C 0.27605 0.68709 0.88252
 C2234 C 0.27864 0.65809 0.88852
 H2235 H 0.20864 0.68900 0.85756
 H2236 H 0.24909 0.72026 0.86634
 H2237 H 0.29403 0.70124 0.88583
 H2238 H 0.29932 0.65063 0.89541
 H2239 H 0.19095 0.58813 0.87176
 H2240 H 0.23515 0.56930 0.89112
 C2241 C 1.15146 1.26859 1.13412
 C2242 C 1.13467 1.29376 1.13368
 C2243 C 1.10686 1.29276 1.12284
 C2244 C 1.09587 1.26770 1.11137
 C2245 C 1.11228 1.24279 1.11060
 C2246 C 1.14007 1.24279 1.12262
 C2247 C 1.17891 1.26821 1.14656
 C2248 C 1.19477 1.24305 1.14759
 C2249 C 1.18358 1.21783 1.13651
 C2250 C 1.15648 1.21757 1.12420
 H2251 H 1.18817 1.28714 1.15602
 H2252 H 1.21575 1.24306 1.15727
 H2253 H 1.19588 1.19831 1.13765
 H2254 H 1.14840 1.19740 1.11637
 H2255 H 1.09373 1.31179 1.12264
 H2256 H 1.07446 1.26782 1.10261
 C2257 C 1.16475 0.75154 0.64375
 C2258 C 1.15103 0.77825 0.64749
 C2259 C 1.12327 0.78205 0.63710
 C2260 C 1.10931 0.76036 0.62240
 C2261 C 1.12261 0.73408 0.61762
 C2262 C 1.15045 0.72925 0.62864
 C2263 C 1.19187 0.74610 0.65562
 C2264 C 1.20496 0.71960 0.65214
 C2265 C 1.19113 0.69791 0.63726
 C2266 C 1.16404 0.70249 0.62582
 H2267 H 1.20286 0.76196 0.66821
 H2268 H 1.22580 0.71575 0.66135
 H2269 H 1.20129 0.67732 0.63486
 H2270 H 1.15379 0.68475 0.61517
 H2271 H 1.11242 0.80227 0.63997
 H2272 H 1.08797 0.76422 0.61438
 C2273 C 0.65854 1.25742 0.64230
 C2274 C 0.64481 1.28432 0.64359
 C2275 C 0.61764 1.28758 0.63163
 C2276 C 0.60441 1.26507 0.61750
 C2277 C 0.61797 1.23862 0.61485
 C2278 C 0.64510 1.23437 0.62765
 C2279 C 0.68485 1.25263 0.65611
 C2280 C 0.69808 1.22600 0.65481
 C2281 C 0.68515 1.20357 0.64021
 C2282 C 0.65880 1.20753 0.62694
 H2283 H 0.69496 1.26913 0.66863
 H2284 H 0.71829 1.22266 0.66549
 H2285 H 0.69541 1.18289 0.63949
 H2286 H 0.64920 1.18930 0.61650
 H2287 H 0.60683 1.30799 0.63266
 H2288 H 0.58352 1.26841 0.60817
 C2289 C 0.65044 0.77067 1.13031
 C2290 C 0.63295 0.79539 1.13088
 C2291 C 0.60464 0.79360 1.12150
 C2292 C 0.59376 0.76820 1.11055
 C2293 C 0.61077 0.74371 1.10885
 C2294 C 0.63921 0.74457 1.11932
 C2295 C 0.67851 0.77098 1.14139
 C2296 C 0.69520 0.74638 1.14123
 C2297 C 0.68422 0.72092 1.13059
 C2298 C 0.65645 0.71985 1.11998
 H2299 H 0.68770 0.78996 1.15076
 H2300 H 0.71666 0.74698 1.14977
 H2301 H 0.69717 0.70180 1.13088
 H2302 H 0.64858 0.69937 1.11279
 H2303 H 0.59096 0.81222 1.12216
 H2304 H 0.57192 0.76774 1.10294
 C2305 C 0.85127 1.25274 0.84780
 C2306 C 0.85646 1.28142 0.85594
 C2307 C 0.87562 1.28740 0.87804
 C2308 C 0.89001 1.26540 0.89193
 C2309 C 0.88551 1.23692 0.88409
 C2310 C 0.86590 1.23028 0.86203
 C2311 C 0.83159 1.24587 0.82602
 C2312 C 0.82640 1.21751 0.81855
 C2313 C 0.84064 1.19554 0.83254
 C2314 C 0.86029 1.20174 0.85403
 H2315 H 0.81995 1.26230 0.81473
 H2316 H 0.81120 1.21254 0.80187
 H2317 H 0.83646 1.17357 0.82669
 H2318 H 0.87084 1.18403 0.86439
 H2319 H 0.87957 1.30927 0.88447
 H2320 H 0.90484 1.27061 0.90890
 C2321 C 0.84747 0.76171 0.36134
 C2322 C 0.86200 0.78826 0.36122
 C2323 C 0.88932 0.79032 0.37308
 C2324 C 0.90208 0.76676 0.38585
 C2325 C 0.88796 0.74043 0.38689
 C2326 C 0.86065 0.73749 0.37410
 C2327 C 0.82047 0.75847 0.34830
 C2328 C 0.80686 0.73198 0.34776
 C2329 C 0.81985 0.70826 0.36000
 C2330 C 0.84651 0.71086 0.37299
 H2331 H 0.80982 0.77624 0.33813
 H2332 H 0.78623 0.72978 0.33760
 H2333 H 0.80929 0.68771 0.35928
 H2334 H 0.85602 0.69176 0.38175
 H2335 H 0.90072 0.81046 0.37274
 H2336 H 0.92310 0.76911 0.39522
 C2337 C 0.33846 1.25368 0.35626
 C2338 C 0.35323 1.27965 0.35168
 C2339 C 0.38176 1.28219 0.36007
 C2340 C 0.39552 1.25996 0.37397
 C2341 C 0.38126 1.23435 0.37968
 C2342 C 0.35270 1.23064 0.37011
 C2343 C 0.31018 1.24984 0.34667
 C2344 C 0.29630 1.22373 0.35033
 C2345 C 0.31031 1.20107 0.36345
 C2346 C 0.33826 1.20434 0.37318
 H2347 H 0.29878 1.26681 0.33595
 H2348 H 0.27464 1.22097 0.34274
 H2349 H 0.29950 1.18082 0.36600
 H2350 H 0.34850 1.18599 0.38268
 H2351 H 0.39330 1.30194 0.35653
 H2352 H 0.41741 1.26297 0.38081
 C2353 C 0.34462 0.74995 0.84631
 C2354 C 0.35324 0.77848 0.85130
 C2355 C 0.37575 0.78418 0.87009
 C2356 C 0.38959 0.76212 0.88427
 C2357 C 0.38138 0.73376 0.87995
 C2358 C 0.35888 0.72733 0.86074
 C2359 C 0.32252 0.74338 0.82695
 C2360 C 0.31476 0.71507 0.82179
 C2361 C 0.32877 0.69293 0.83581
 C2362 C 0.35053 0.69889 0.85525
 H2363 H 0.31127 0.75999 0.81554
 H2364 H 0.29784 0.71028 0.80681
 H2365 H 0.32267 0.67103 0.83166
 H2366 H 0.36090 0.68111 0.86568
 H2367 H 0.38259 0.80596 0.87388
 H2368 H 0.40689 0.76720 0.89878
 C2369 C 1.09688 0.69865 0.88588
 C2370 C 1.12484 0.69844 0.87429
 C2371 C 1.14089 0.72364 0.87402
 C2372 C 1.12945 0.74904 0.88416
 C2373 C 1.10169 0.75008 0.89509
 C2374 C 1.08518 0.72473 0.89636
 C2375 C 1.08069 0.67336 0.88830
 C2376 C 1.05347 0.67378 0.90031
 C2377 C 1.04205 0.69922 0.91049
 C2378 C 1.05769 0.72449 0.90868
 H2379 H 1.08915 0.65302 0.88163
 H2380 H 1.04134 0.65418 0.90208
 H2381 H 1.02113 0.69931 0.92024
 H2382 H 1.04824 0.74364 0.91741
 H2383 H 1.16234 0.72379 0.86537
 H2384 H 1.14228 0.76823 0.88325
 C2385 C 1.11525 0.21159 0.36097
 C2386 C 1.14422 0.21582 0.35321
 C2387 C 1.15816 0.24096 0.36133
 C2388 C 1.14373 0.26229 0.37606
 C2389 C 1.11495 0.25904 0.38355
 C2390 C 1.10055 0.23329 0.37648
 C2391 C 1.10082 0.18587 0.35458
 C2392 C 1.07259 0.18172 0.36302
 C2393 C 1.05835 0.20276 0.37835
 C2394 C 1.07217 0.22821 0.38527
 H2395 H 1.11121 0.16858 0.34341
 H2396 H 1.06182 0.16189 0.35796
 H2397 H 1.03657 0.19922 0.38519
 H2398 H 1.06052 0.24355 0.39795
 H2399 H 1.18039 0.24427 0.35585
 H2400 H 1.15507 0.28177 0.38132
 C2401 C 0.59951 0.69998 0.38336
 C2402 C 0.62811 0.70014 0.37340
 C2403 C 0.64418 0.72527 0.37526
 C2404 C 0.63221 0.75027 0.38577
 C2405 C 0.60375 0.75102 0.39490
 C2406 C 0.58718 0.72566 0.39412
 C2407 C 0.58321 0.67465 0.38386
 C2408 C 0.55522 0.67469 0.39394
 C2409 C 0.54312 0.69977 0.40422
 C2410 C 0.55894 0.72499 0.40462
 H2411 H 0.59214 0.65453 0.37720
 H2412 H 0.54300 0.65507 0.39412
 H2413 H 0.52148 0.69959 0.41232
 H2414 H 0.54895 0.74374 0.41360
 H2415 H 0.66610 0.72571 0.36788
 H2416 H 0.64519 0.76942 0.38642
 C2417 C 0.65490 0.23960 0.85932
 C2418 C 0.64008 0.21328 0.85719
 C2419 C 0.61218 0.21124 0.86775
 C2420 C 0.59934 0.23428 0.88134
 C2421 C 0.61417 0.25993 0.88529
 C2422 C 0.64225 0.26285 0.87427
 C2423 C 0.68156 0.24369 0.84599
 C2424 C 0.69680 0.26898 0.84970
 C2425 C 0.68521 0.29107 0.86573
 C2426 C 0.65785 0.28854 0.87711
 H2427 H 0.69039 0.22774 0.83197
 H2428 H 0.71754 0.27156 0.83986
 H2429 H 0.69725 0.31049 0.86891
 H2430 H 0.64921 0.30693 0.88798
 H2431 H 0.60041 0.19139 0.86603
 H2432 H 0.57780 0.23190 0.88941
 C2433 C 0.89944 0.70442 1.11981
 C2434 C 0.87120 0.70576 1.13056
 C2435 C 0.85573 0.73115 1.12841
 C2436 C 0.86809 0.75544 1.11662
 C2437 C 0.89616 0.75497 1.10631
 C2438 C 0.91194 0.72918 1.10730
 C2439 C 0.91522 0.67878 1.12042
 C2440 C 0.94254 0.67748 1.10872
 C2441 C 0.95454 0.70151 1.09604
 C2442 C 0.93950 0.72716 1.09529
 H2443 H 0.90647 0.65943 1.12949
 H2444 H 0.95432 0.65763 1.10915
 H2445 H 0.97550 0.70019 1.08645
 H2446 H 0.94947 0.74513 1.08478
 H2447 H 0.83405 0.73229 1.13635
 H2448 H 0.85570 0.77494 1.11580
 C2449 C 0.89642 0.20474 0.62691
 C2450 C 0.86697 0.20721 0.63347
 C2451 C 0.85206 0.23168 0.62528
 C2452 C 0.86600 0.25413 0.61188
 C2453 C 0.89526 0.25279 0.60585
 C2454 C 0.91064 0.22762 0.61270
 C2455 C 0.91186 0.17968 0.63331
 C2456 C 0.94060 0.17726 0.62602
 C2457 C 0.95438 0.19943 0.61187
 C2458 C 0.93959 0.22430 0.60501
 H2459 H 0.90184 0.16157 0.64351
 H2460 H 0.95214 0.15791 0.63104
 H2461 H 0.97658 0.19723 0.60589
 H2462 H 0.95093 0.24057 0.59323
 H2463 H 0.82951 0.23378 0.63000
 H2464 H 0.85392 0.27307 0.60664
 C2465 C 0.39838 0.70433 0.62429
 C2466 C 0.36875 0.70562 0.63049
 C2467 C 0.35307 0.72958 0.62219
 C2468 C 0.36633 0.75267 0.60923
 C2469 C 0.39575 0.75268 0.60391
 C2470 C 0.41196 0.72798 0.61065
 C2471 C 0.41463 0.67973 0.63041
 C2472 C 0.44355 0.67850 0.62353
 C2473 C 0.45671 0.70142 0.60999
 C2474 C 0.44111 0.72584 0.60334
 H2475 H 0.40514 0.66102 0.64001
 H2476 H 0.45572 0.65948 0.62833
 H2477 H 0.47906 0.70014 0.60430
 H2478 H 0.45200 0.74269 0.59195
 H2479 H 0.33039 0.73084 0.62658
 H2480 H 0.35354 0.77108 0.60380
 C2481 C 0.33661 0.25359 1.14915
 C2482 C 0.34983 0.22689 1.15421
 C2483 C 0.37802 0.22248 1.14546
 C2484 C 0.39280 0.24352 1.13059
 C2485 C 0.37996 0.26974 1.12430
 C2486 C 0.35192 0.27536 1.13438
 C2487 C 0.30880 0.25939 1.15916
 C2488 C 0.29643 0.28611 1.15493
 C2489 C 0.31154 0.30755 1.14099
 C2490 C 0.33905 0.30238 1.13089
 H2491 H 0.29658 0.24354 1.17068
 H2492 H 0.27512 0.29030 1.16280
 H2493 H 0.30198 0.32837 1.13817
 H2494 H 0.35021 0.31988 1.12081
 H2495 H 0.38839 0.20221 1.14942
 H2496 H 0.41432 0.23908 1.12342
 C2497 C 1.14507 1.15921 0.74502
 C2498 C 1.14717 1.14592 0.71791
 C2499 C 1.13587 1.11857 0.71385
 C2500 C 1.12163 1.10462 0.73583
 C2501 C 1.11849 1.11754 0.76256
 C2502 C 1.13073 1.14481 0.76762
 C2503 C 1.15770 1.18607 0.75043
 C2504 C 1.15611 1.19849 0.77744
 C2505 C 1.14218 1.18439 0.79954
 C2506 C 1.12972 1.15776 0.79484
 H2507 H 1.16920 1.19753 0.73403
 H2508 H 1.16594 1.21905 0.78132
 H2509 H 1.14117 1.19405 0.82048
 H2510 H 1.11968 1.14733 0.81280
 H2511 H 1.13769 1.10811 0.69331
 H2512 H 1.11271 1.08363 0.73189
 C2513 C 1.15164 0.64253 0.23528
 C2514 C 1.13676 0.64072 0.20889
 C2515 C 1.10941 0.62853 0.20827
 C2516 C 1.09808 0.61543 0.23238
 C2517 C 1.11306 0.61541 0.25822
 C2518 C 1.13921 0.63047 0.26029
 C2519 C 1.17724 0.65837 0.23795
 C2520 C 1.18964 0.66296 0.26460
 C2521 C 1.17697 0.65189 0.28904
 C2522 C 1.15237 0.63527 0.28697
 H2523 H 1.18720 0.66846 0.21976
 H2524 H 1.20890 0.67562 0.26637
 H2525 H 1.18638 0.65606 0.30972
 H2526 H 1.14324 0.62710 0.30653
 H2527 H 1.09738 0.62764 0.18853
 H2528 H 1.07750 0.60497 0.23083
 C2529 C 0.60512 1.13047 0.20393
 C2530 C 0.63542 1.13365 0.20430
 C2531 C 0.65093 1.12106 0.22659
 C2532 C 0.63722 1.10859 0.24964
 C2533 C 0.60741 1.10660 0.25078
 C2534 C 0.59114 1.11635 0.22711
 C2535 C 0.58858 1.13875 0.18006
 C2536 C 0.55918 1.13427 0.17945
 C2537 C 0.54569 1.12054 0.20197
 C2538 C 0.56146 1.11121 0.22534
 H2539 H 0.59809 1.14757 0.16107
 H2540 H 0.54692 1.14077 0.16100
 H2541 H 0.52295 1.11648 0.20103
 H2542 H 0.55022 1.09922 0.24150
 H2543 H 0.67400 1.12272 0.22743
 H2544 H 0.65022 1.10123 0.26726
 C2545 C 0.64307 0.65474 0.73919
 C2546 C 0.64326 0.63964 0.71296
 C2547 C 0.63140 0.61226 0.71150
 C2548 C 0.61836 0.60010 0.73521
 C2549 C 0.61696 0.61490 0.76111
 C2550 C 0.62987 0.64220 0.76353
 C2551 C 0.65653 0.68158 0.74203
 C2552 C 0.65679 0.69580 0.76817
 C2553 C 0.64393 0.68354 0.79196
 C2554 C 0.63067 0.65697 0.78980
 H2555 H 0.66736 0.69161 0.72430
 H2556 H 0.66727 0.71632 0.77006
 H2557 H 0.64445 0.69457 0.81225
 H2558 H 0.62151 0.64799 0.80897
 H2559 H 0.63173 0.60041 0.69164
 H2560 H 0.60893 0.57906 0.73326
 C2561 C 0.84421 0.86685 0.73596
 C2562 C 0.86083 0.86301 0.71100
 C2563 C 0.88954 0.87122 0.71090
 C2564 C 0.90178 0.88401 0.73471
 C2565 C 0.88581 0.88862 0.75954
 C2566 C 0.85690 0.87942 0.76061
 C2567 C 0.81553 0.85757 0.73732
 C2568 C 0.79973 0.86062 0.76232
 C2569 C 0.81223 0.87243 0.78653
 C2570 C 0.84057 0.88153 0.78587
 H2571 H 0.80517 0.84751 0.71931
 H2572 H 0.77778 0.85340 0.76304
 H2573 H 0.79998 0.87430 0.80602
 H2574 H 0.84955 0.88974 0.80547
 H2575 H 0.90247 0.86816 0.69199
 H2576 H 0.92392 0.89064 0.73368
 C2577 C 0.83559 0.36108 0.24382
 C2578 C 0.85165 0.35056 0.22019
 C2579 C 0.88151 0.35320 0.22077
 C2580 C 0.89526 0.36814 0.24233
 C2581 C 0.88004 0.37978 0.26521
 C2582 C 0.85005 0.37510 0.26682
 C2583 C 0.80596 0.35577 0.24651
 C2584 C 0.79091 0.36450 0.27060
 C2585 C 0.80504 0.37779 0.29302
 C2586 C 0.83432 0.38266 0.29144
 H2587 H 0.79420 0.34380 0.23079
 H2588 H 0.76826 0.36017 0.27222
 H2589 H 0.79336 0.38378 0.31203
 H2590 H 0.84446 0.39156 0.31013
 H2591 H 0.89445 0.34519 0.20335
 H2592 H 0.91816 0.37103 0.24081
 C2593 C 0.34952 0.86763 0.23237
 C2594 C 0.36605 0.86618 0.20708
 C2595 C 0.39404 0.87655 0.20702
 C2596 C 0.40562 0.88909 0.23135
 C2597 C 0.38963 0.89133 0.25651
 C2598 C 0.36151 0.88003 0.25741
 C2599 C 0.32163 0.85618 0.23357
 C2600 C 0.30596 0.85689 0.25883
 C2601 C 0.31780 0.86863 0.28340
 C2602 C 0.34534 0.87993 0.28286
 H2603 H 0.31179 0.84625 0.21519
 H2604 H 0.28464 0.84799 0.25944
 H2605 H 0.30568 0.86876 0.30306
 H2606 H 0.35386 0.88813 0.30267
 H2607 H 0.40691 0.87522 0.18787
 H2608 H 0.42725 0.89728 0.23054
 C2609 C 0.33491 0.36210 0.74427
 C2610 C 0.35129 0.35070 0.72134
 C2611 C 0.38116 0.35183 0.72293
 C2612 C 0.39479 0.36664 0.74468
 C2613 C 0.37931 0.37933 0.76687
 C2614 C 0.34915 0.37561 0.76769
 C2615 C 0.30500 0.35815 0.74578
 C2616 C 0.28956 0.36719 0.76953
 C2617 C 0.30349 0.37975 0.79251
 C2618 C 0.33297 0.38366 0.79184
 H2619 H 0.29334 0.34704 0.72927
 H2620 H 0.26672 0.36375 0.77042
 H2621 H 0.29146 0.38605 0.81119
 H2622 H 0.34289 0.39217 0.81084
 H2623 H 0.39422 0.34301 0.70600
 H2624 H 0.41781 0.36870 0.74375
 C2625 C 1.13800 0.84216 1.25932
 C2626 C 1.14606 0.85899 1.28346
 C2627 C 1.14319 0.88880 1.28186
 C2628 C 1.12998 0.90172 1.25870
 C2629 C 1.12016 0.88560 1.23556
 C2630 C 1.12533 0.85570 1.23510
 C2631 C 1.14446 0.81266 1.25749
 C2632 C 1.13758 0.79684 1.23327
 C2633 C 1.12514 0.81003 1.20988
 C2634 C 1.11952 0.83919 1.21048
 H2635 H 1.15600 0.80155 1.27399
 H2636 H 1.14267 0.77432 1.23236
 H2637 H 1.12050 0.79775 1.19086
 H2638 H 1.11141 0.84863 1.19111
 H2639 H 1.14957 0.90231 1.29953
 H2640 H 1.12679 0.92462 1.25919
 C2641 C 1.10956 0.37232 0.79336
 C2642 C 1.13853 0.36420 0.79010
 C2643 C 1.15307 0.37118 0.76503
 C2644 C 1.13916 0.38482 0.74273
 C2645 C 1.11031 0.39238 0.74488
 C2646 C 1.09538 0.38678 0.77064
 C2647 C 1.09460 0.36719 0.81900
 C2648 C 1.06634 0.37591 0.82213
 C2649 C 1.05260 0.39025 0.80008
 C2650 C 1.06695 0.39588 0.77465
 H2651 H 1.10467 0.35690 0.83701
 H2652 H 1.05515 0.37185 0.84192
 H2653 H 1.03078 0.39731 0.80281
 H2654 H 1.05569 0.40781 0.75845
 H2655 H 1.17524 0.36519 0.76230
 H2656 H 1.15093 0.38893 0.72326
 C2657 C 0.65362 0.86833 0.76733
 C2658 C 0.63623 0.86670 0.79205
 C2659 C 0.60778 0.87559 0.79072
 C2660 C 0.59660 0.88704 0.76576
 C2661 C 0.61341 0.88963 0.74120
 C2662 C 0.64203 0.87963 0.74158
 C2663 C 0.68197 0.85807 0.76733
 C2664 C 0.69853 0.85905 0.74265
 C2665 C 0.68712 0.86975 0.71744
 C2666 C 0.65911 0.87973 0.71673
 H2667 H 0.69148 0.84879 0.78617
 H2668 H 0.72021 0.85110 0.74298
 H2669 H 0.69996 0.87004 0.69824
 H2670 H 0.65095 0.88704 0.69645
 H2671 H 0.59423 0.87419 0.80941
 H2672 H 0.57465 0.89429 0.76569
 C2673 C 0.59889 0.37714 1.29781
 C2674 C 0.62911 0.37471 1.30044
 C2675 C 0.64648 0.38686 1.27929
 C2676 C 0.63483 0.39809 1.25452
 C2677 C 0.60522 0.39944 1.25051
 C2678 C 0.58697 0.39039 1.27304
 C2679 C 0.58032 0.36896 1.32018
 C2680 C 0.55096 0.37310 1.31802
 C2681 C 0.53948 0.38635 1.29414
 C2682 C 0.55723 0.39535 1.27209
 H2683 H 0.58814 0.36038 1.34005
 H2684 H 0.53711 0.36673 1.33537
 H2685 H 0.51674 0.39022 1.29297
 H2686 H 0.54743 0.40697 1.25477
 H2687 H 0.66954 0.38570 1.28077
 H2688 H 0.64932 0.40493 1.23786
 C2689 C 0.88032 1.09526 1.29991
 C2690 C 0.87661 1.12543 1.30213
 C2691 C 0.88802 1.14291 1.28058
 C2692 C 0.89986 1.13138 1.25605
 C2693 C 0.90222 1.10184 1.25242
 C2694 C 0.89369 1.08352 1.27507
 C2695 C 0.87331 1.07660 1.32261
 C2696 C 0.87826 1.04735 1.32055
 C2697 C 0.89121 1.03606 1.29642
 C2698 C 0.89930 1.05391 1.27410
 H2699 H 0.86509 1.08422 1.34269
 H2700 H 0.87272 1.03346 1.33814
 H2701 H 0.89562 1.01342 1.29526
 H2702 H 0.91071 1.04429 1.25654
 H2703 H 0.88600 1.16593 1.28162
 H2704 H 0.90636 1.14585 1.23923
 C2705 C 0.86396 0.65638 0.75971
 C2706 C 0.86121 0.64074 0.78541
 C2707 C 0.87075 0.61251 0.78668
 C2708 C 0.88384 0.59986 0.76328
 C2709 C 0.88749 0.61495 0.73777
 C2710 C 0.87689 0.64326 0.73551
 C2711 C 0.85336 0.68447 0.75725
 C2712 C 0.85528 0.69923 0.73150
 C2713 C 0.86747 0.68629 0.70772
 C2714 C 0.87807 0.65854 0.70956
 H2715 H 0.84318 0.69510 0.77503
 H2716 H 0.84697 0.72072 0.72988
 H2717 H 0.86855 0.69773 0.68769
 H2718 H 0.88671 0.64914 0.69035
 H2719 H 0.86854 0.60032 0.80619
 H2720 H 0.89155 0.57815 0.76519
 C2721 C 0.37624 1.09710 0.79618
 C2722 C 0.37435 1.12729 0.79949
 C2723 C 0.38709 1.14494 0.77894
 C2724 C 0.39862 1.13364 0.75410
 C2725 C 0.39968 1.10409 0.74951
 C2726 C 0.38992 1.08552 0.77147
 C2727 C 0.36722 1.07814 0.81791
 C2728 C 0.37109 1.04879 0.81524
 C2729 C 0.38490 1.03766 0.79152
 C2730 C 0.39467 1.05575 0.77009
 H2731 H 0.35811 1.08559 0.83768
 H2732 H 0.36408 1.03466 0.83211
 H2733 H 0.38861 1.01490 0.78999
 H2734 H 0.40671 1.04616 0.75294
 H2735 H 0.38639 1.16797 0.78111
 H2736 H 0.40607 1.14836 0.73792
 C2737 C 0.37139 0.65539 1.26401
 C2738 C 0.36369 0.63821 1.28797
 C2739 C 0.36710 0.60849 1.28621
 C2740 C 0.38021 0.59592 1.26284
 C2741 C 0.38921 0.61231 1.23960
 C2742 C 0.38372 0.64216 1.23945
 C2743 C 0.36472 0.68487 1.26260
 C2744 C 0.37087 0.70091 1.23835
 C2745 C 0.38278 0.68796 1.21454
 C2746 C 0.38872 0.65887 1.21481
 H2747 H 0.35361 0.69585 1.27947
 H2748 H 0.36558 0.72339 1.23774
 H2749 H 0.38679 0.70039 1.19549
 H2750 H 0.39639 0.64963 1.19515
 H2751 H 0.36091 0.59483 1.30381
 H2752 H 0.38371 0.57306 1.26309
 C2753 C 1.16366 1.25619 0.85816
 C2754 C 1.14745 1.28087 0.85071
 C2755 C 1.11776 1.28038 0.85504
 C2756 C 1.10460 1.25789 0.86908
 C2757 C 1.12023 1.23426 0.87838
 C2758 C 1.14981 1.23261 0.87178
 C2759 C 1.19263 1.25322 0.85019
 C2760 C 1.20774 1.22833 0.85619
 C2761 C 1.19428 1.20555 0.86958
 C2762 C 1.16558 1.20744 0.87704
 H2763 H 1.20366 1.26937 0.83811
 H2764 H 1.22985 1.22644 0.84978
 H2765 H 1.20599 1.18607 0.87364
 H2766 H 1.15577 1.18860 0.88602
 H2767 H 1.10460 1.29847 0.84921
 H2768 H 1.08192 1.25931 0.87337
 C2769 C 1.15953 0.75941 0.35926
 C2770 C 1.14363 0.78486 0.35585
 C2771 C 1.11510 0.78579 0.36449
 C2772 C 1.10241 0.76235 0.37751
 C2773 C 1.11776 0.73711 0.38192
 C2774 C 1.14635 0.73511 0.37200
 C2775 C 1.18799 0.75734 0.34961
 C2776 C 1.20301 0.73178 0.35207
 C2777 C 1.18997 0.70785 0.36390
 C2778 C 1.16190 0.70936 0.37370
 H2779 H 1.19869 0.77527 0.33974
 H2780 H 1.22478 0.73045 0.34446
 H2781 H 1.20161 0.68796 0.36535
 H2782 H 1.15246 0.69007 0.38215
 H2783 H 1.10275 0.80515 0.36184
 H2784 H 1.08049 0.76409 0.38467
 C2785 C 0.65471 1.26883 0.36785
 C2786 C 0.63677 1.29257 0.36127
 C2787 C 0.60710 1.28949 0.36431
 C2788 C 0.59534 1.26511 0.37643
 C2789 C 0.61255 1.24220 0.38480
 C2790 C 0.64236 1.24336 0.37927
 C2791 C 0.68417 1.26872 0.36100
 C2792 C 0.70108 1.24487 0.36626
 C2793 C 0.68905 1.22023 0.37745
 C2794 C 0.65997 1.21921 0.38345
 H2795 H 0.69443 1.28636 0.35034
 H2796 H 0.72352 1.24524 0.36081
 H2797 H 0.70217 1.20153 0.38081
 H2798 H 0.65146 1.19898 0.39050
 H2799 H 0.59281 1.30686 0.35897
 H2800 H 0.57249 1.26442 0.37990
 C2801 C 0.60051 0.79820 0.87909
 C2802 C 0.62965 0.79820 0.87094
 C2803 C 0.64631 0.77395 0.87581
 C2804 C 0.63439 0.74943 0.88754
 C2805 C 0.60549 0.74850 0.89524
 C2806 C 0.58839 0.77325 0.89165
 C2807 C 0.58336 0.82276 0.87588
 C2808 C 0.55497 0.82273 0.88475
 C2809 C 0.54324 0.79853 0.89734
 C2810 C 0.55975 0.77408 0.90102
 H2811 H 0.59177 0.84231 0.86694
 H2812 H 0.54209 0.84172 0.88218
 H2813 H 0.52130 0.79880 0.90456
 H2814 H 0.54995 0.75611 0.91166
 H2815 H 0.66865 0.77376 0.86984
 H2816 H 0.64778 0.73078 0.89019
 C2817 C 0.86014 1.25350 1.15918
 C2818 C 0.85726 1.28003 1.14493
 C2819 C 0.86843 1.28338 1.11749
 C2820 C 0.88321 1.26125 1.10434
 C2821 C 0.88707 1.23505 1.11816
 C2822 C 0.87505 1.23073 1.14564
 C2823 C 0.84765 1.24878 1.18620
 C2824 C 0.84995 1.22234 1.19963
 C2825 C 0.86438 1.20006 1.18636
 C2826 C 0.87665 1.20403 1.15957
 H2827 H 0.83564 1.26524 1.19702
 H2828 H 0.84021 1.21903 1.22030
 H2829 H 0.86578 1.17948 1.19674
 H2830 H 0.88685 1.18582 1.14979
 H2831 H 0.86609 1.30349 1.10633
 H2832 H 0.89192 1.26465 1.08320
 C2833 C 0.84756 0.76188 0.63710
 C2834 C 0.86288 0.78795 0.63829
 C2835 C 0.89104 0.78910 0.62847
 C2836 C 0.90385 0.76519 0.61642
 C2837 C 0.88896 0.73936 0.61414
 C2838 C 0.86083 0.73725 0.62522
 C2839 C 0.81963 0.75955 0.64819
 C2840 C 0.80517 0.73352 0.64772
 C2841 C 0.81827 0.70935 0.63651
 C2842 C 0.84585 0.71105 0.62545
 H2843 H 0.80888 0.77766 0.65765
 H2844 H 0.78380 0.73203 0.65636
 H2845 H 0.80708 0.68913 0.63657
 H2846 H 0.85540 0.69160 0.61756
 H2847 H 0.90300 0.80888 0.62958
 H2848 H 0.92544 0.76698 0.60835
 C2849 C 0.36182 1.25616 0.66283
 C2850 C 0.35319 1.28055 0.64677
 C2851 C 0.35730 1.28045 0.61711
 C2852 C 0.37225 1.25860 0.60377
 C2853 C 0.38248 1.23517 0.61919
 C2854 C 0.37609 1.23312 0.64878
 C2855 C 0.35433 1.25285 0.69192
 C2856 C 0.36138 1.22816 0.70688
 C2857 C 0.37517 1.20583 0.69317
 C2858 C 0.38212 1.20801 0.66439
 H2859 H 0.34191 1.26856 0.70325
 H2860 H 0.35539 1.22604 0.72908
 H2861 H 0.37992 1.18642 0.70473
 H2862 H 0.39133 1.18939 0.65443
 H2863 H 0.35052 1.29838 0.60419
 H2864 H 0.37632 1.26031 0.58108
 C2865 C 0.34501 0.76510 1.13014
 C2866 C 0.36298 0.78781 1.13963
 C2867 C 0.39267 0.78401 1.13905
 C2868 C 0.40473 0.76012 1.12632
 C2869 C 0.38767 0.73821 1.11517
 C2870 C 0.35754 0.73983 1.11853
 C2871 C 0.31505 0.76577 1.13418
 C2872 C 0.29794 0.74272 1.12634
 C2873 C 0.31020 0.71811 1.11532
 C2874 C 0.33966 0.71638 1.11192
 H2875 H 0.30448 0.78344 1.14447
 H2876 H 0.27508 0.74366 1.12960
 H2877 H 0.29685 0.70002 1.10995
 H2878 H 0.34818 0.69616 1.10488
 H2879 H 0.40688 0.80066 1.14659
 H2880 H 0.42776 0.75915 1.12453
 C2881 C 0.89459 0.70705 0.87353
 C2882 C 0.86551 0.70850 0.86520
 C2883 C 0.84961 0.73295 0.87153
 C2884 C 0.86227 0.75636 0.88470
 C2885 C 0.89119 0.75599 0.89229
 C2886 C 0.90750 0.73094 0.88736
 C2887 C 0.91091 0.68208 0.86928
 C2888 C 0.93931 0.68079 0.87805
 C2889 C 0.95184 0.70404 0.89165
 C2890 C 0.93612 0.72879 0.89656
 H2891 H 0.90187 0.66316 0.85963
 H2892 H 0.95155 0.66152 0.87461
 H2893 H 0.97377 0.70276 0.89871
 H2894 H 0.94651 0.74593 0.90802
 H2895 H 0.82731 0.73423 0.86551
 H2896 H 0.84949 0.77526 0.88839
 C2897 C 0.84605 0.23007 0.37011
 C2898 C 0.86435 0.20706 0.36221
 C2899 C 0.89403 0.21098 0.36399
 C2900 C 0.90565 0.23547 0.37591
 C2901 C 0.88827 0.25787 0.38519
 C2902 C 0.85824 0.25591 0.38101
 C2903 C 0.81624 0.22915 0.36514
 C2904 C 0.79894 0.25250 0.37135
 C2905 C 0.81086 0.27762 0.38166
 C2906 C 0.84019 0.27956 0.38603
 H2907 H 0.80594 0.21103 0.35533
 H2908 H 0.77623 0.25137 0.36735
 H2909 H 0.79738 0.29593 0.38569
 H2910 H 0.84851 0.30007 0.39251
 H2911 H 0.90860 0.19412 0.35783
 H2912 H 0.92861 0.23661 0.37849
 C2913 C 0.34342 0.73689 0.36357
 C2914 C 0.36016 0.71187 0.36070
 C2915 C 0.38873 0.71213 0.36932
 C2916 C 0.40072 0.73635 0.38158
 C2917 C 0.38462 0.76123 0.38526
 C2918 C 0.35584 0.76192 0.37568
 C2919 C 0.31493 0.73791 0.35374
 C2920 C 0.29903 0.76295 0.35586
 C2921 C 0.31125 0.78749 0.36731
 C2922 C 0.33941 0.78716 0.37697
 H2923 H 0.30480 0.71960 0.34397
 H2924 H 0.27723 0.76343 0.34822
 H2925 H 0.29893 0.80698 0.36846
 H2926 H 0.34820 0.80695 0.38496
 H2927 H 0.40179 0.69320 0.36695
 H2928 H 0.42276 0.73559 0.38854
 C2929 C 0.40381 0.20141 0.87644
 C2930 C 0.37366 0.19964 0.87199
 C2931 C 0.35631 0.22183 0.88218
 C2932 C 0.36807 0.24650 0.89369
 C2933 C 0.39764 0.24959 0.89679
 C2934 C 0.41573 0.22646 0.88926
 C2935 C 0.42222 0.17808 0.87084
 C2936 C 0.45138 0.17982 0.87637
 C2937 C 0.46286 0.20425 0.88860
 C2938 C 0.44526 0.22714 0.89549
 H2939 H 0.41446 0.15774 0.86336
 H2940 H 0.46505 0.16176 0.87185
 H2941 H 0.48543 0.20519 0.89348
 H2942 H 0.45501 0.24492 0.90648
 H2943 H 0.33332 0.22097 0.87961
 H2944 H 0.35384 0.26374 0.89956
 C2945 C 1.10021 0.70421 1.12492
 C2946 C 1.13051 0.70156 1.12686
 C2947 C 1.14761 0.72255 1.11399
 C2948 C 1.13576 0.74718 1.10263
 C2949 C 1.10616 0.75135 1.10207
 C2950 C 1.08805 0.72903 1.11193
 C2951 C 1.08169 0.68188 1.13346
 C2952 C 1.05222 0.68434 1.13047
 C2953 C 1.04051 0.70844 1.11787
 C2954 C 1.05815 0.73027 1.10809
 H2955 H 1.08955 0.66179 1.14145
 H2956 H 1.03842 0.66709 1.13725
 H2957 H 1.01766 0.70996 1.11508
 H2958 H 1.04806 0.74765 1.09685
 H2959 H 1.17069 0.72115 1.11467
 H2960 H 1.15014 0.76365 1.09510
 C2961 C 1.16791 0.24416 0.63429
 C2962 C 1.15187 0.22207 0.64791
 C2963 C 1.12195 0.22417 0.64816
 C2964 C 1.10786 0.24545 0.63318
 C2965 C 1.12289 0.26665 0.61842
 C2966 C 1.15329 0.26681 0.61990
 C2967 C 1.19802 0.24567 0.63652
 C2968 C 1.21342 0.26745 0.62346
 C2969 C 1.19925 0.28916 0.60926
 C2970 C 1.16957 0.28956 0.60845
 H2971 H 1.21011 0.23089 0.64918
 H2972 H 1.23647 0.26790 0.62506
 H2973 H 1.21132 0.30614 0.59936
 H2974 H 1.15979 0.30826 0.59930
 H2975 H 1.10896 0.20803 0.65846
 H2976 H 1.08475 0.24487 0.63264
 C2977 C 0.66034 0.73892 0.63488
 C2978 C 0.64401 0.71385 0.63937
 C2979 C 0.61505 0.71351 0.63213
 C2980 C 0.60229 0.73711 0.61953
 C2981 C 0.61798 0.76200 0.61416
 C2982 C 0.64712 0.76339 0.62255
 C2983 C 0.68926 0.74054 0.64323
 C2984 C 0.70480 0.76568 0.63962
 C2985 C 0.69179 0.78974 0.62809
 C2986 C 0.66321 0.78878 0.61981
 H2987 H 0.70002 0.72261 0.65297
 H2988 H 0.72694 0.76663 0.64616
 H2989 H 0.70384 0.80933 0.62578
 H2990 H 0.65384 0.80823 0.61173
 H2991 H 0.60232 0.69451 0.63567
 H2992 H 0.58000 0.73580 0.61350
 C2993 C 0.66055 0.24134 1.13784
 C2994 C 0.64435 0.21632 1.14437
 C2995 C 0.61480 0.21656 1.13907
 C2996 C 0.60184 0.23926 1.12521
 C2997 C 0.61756 0.26321 1.11686
 C2998 C 0.64698 0.26493 1.12406
 C2999 C 0.68913 0.24468 1.14698
 C3000 C 0.70443 0.26957 1.14130
 C3001 C 0.69139 0.29216 1.12731
 C3002 C 0.66285 0.29019 1.11924
 H3003 H 0.69959 0.22890 1.15986
 H3004 H 0.72631 0.27161 1.14847
 H3005 H 0.70322 0.31161 1.12336
 H3006 H 0.65332 0.30900 1.10998
 H3007 H 0.60160 0.19827 1.14419
 H3008 H 0.57925 0.23785 1.12043
 C3009 C 1.26829 1.13564 0.84883
 C3010 C 1.29398 1.13400 0.86470
 C3011 C 1.29375 1.12190 0.89197
 C3012 C 1.26878 1.11058 0.90335
 C3013 C 1.24325 1.11119 0.88787
 C3014 C 1.24261 1.12432 0.86061
 C3015 C 1.26739 1.14899 0.82187
 C3016 C 1.24172 1.15130 0.80694
 C3017 C 1.21659 1.14048 0.81854
 C3018 C 1.21691 1.12711 0.84511
 H3019 H 1.28637 1.15803 0.81230
 H3020 H 1.24129 1.16173 0.78635
 H3021 H 1.19671 1.14257 0.80694
 H3022 H 1.19683 1.11942 0.85353
 H3023 H 1.31324 1.12081 0.90438
 H3024 H 1.26944 1.10090 0.92433
 C3025 C 1.26768 0.62391 0.34363
 C3026 C 1.29083 0.63309 0.36100
 C3027 C 1.28922 0.62973 0.39060
 C3028 C 1.26567 0.61680 0.40322
 C3029 C 1.24266 0.60708 0.38674
 C3030 C 1.24332 0.61097 0.35659
 C3031 C 1.26762 0.62822 0.31373
 C3032 C 1.24522 0.61834 0.29688
 C3033 C 1.22170 0.60548 0.30946
 C3034 C 1.22006 0.60307 0.33899
 H3035 H 1.28450 0.63949 0.30288
 H3036 H 1.24581 0.62129 0.27399
 H3037 H 1.20412 0.59825 0.29631
 H3038 H 1.20017 0.59526 0.34754
 H3039 H 1.30662 0.63680 0.40411
 H3040 H 1.26555 0.61410 0.42617
 C3041 C 0.79694 1.12027 0.39919
 C3042 C 0.79785 1.12770 0.36991
 C3043 C 0.77410 1.12252 0.35262
 C3044 C 0.74913 1.11120 0.36406
 C3045 C 0.74727 1.10423 0.39310
 C3046 C 0.77160 1.10803 0.41082
 C3047 C 0.82096 1.12404 0.41700
 C3048 C 0.82013 1.11580 0.44555
 C3049 C 0.79562 1.10333 0.45678
 C3050 C 0.77163 1.09925 0.43963
 H3051 H 0.84067 1.13302 0.40899
 H3052 H 0.83872 1.11876 0.45895
 H3053 H 0.79526 1.09657 0.47885
 H3054 H 0.75339 1.08875 0.44910
 H3055 H 0.77464 1.12799 0.33017
 H3056 H 0.73085 1.10835 0.35019
 C3057 C 0.76092 0.63688 0.84327
 C3058 C 0.78674 0.63971 0.85887
 C3059 C 0.78808 0.63000 0.88706
 C3060 C 0.76476 0.61668 0.89967
 C3061 C 0.73928 0.61281 0.88457
 C3062 C 0.73691 0.62342 0.85630
 C3063 C 0.75806 0.64802 0.81542
 C3064 C 0.73231 0.64571 0.80067
 C3065 C 0.70887 0.63265 0.81339
 C3066 C 0.71097 0.62177 0.84098
 H3067 H 0.77543 0.65904 0.80497
 H3068 H 0.73042 0.65439 0.77936
 H3069 H 0.68887 0.63116 0.80191
 H3070 H 0.69198 0.61250 0.85024
 H3071 H 0.80760 0.63223 0.89927
 H3072 H 0.76670 0.60899 0.92139
 C3073 C 1.29910 0.89511 1.11762
 C3074 C 1.29721 0.86685 1.12835
 C3075 C 1.27212 0.85114 1.12435
 C3076 C 1.24849 0.86334 1.11125
 C3077 C 1.24931 0.89157 1.10148
 C3078 C 1.27494 0.90755 1.10398
 C3079 C 1.32470 0.91099 1.11930
 C3080 C 1.32631 0.93855 1.10823
 C3081 C 1.30273 0.95067 1.09491
 C3082 C 1.27733 0.93533 1.09255
 H3083 H 1.34385 0.90220 1.12864
 H3084 H 1.34608 0.95045 1.10969
 H3085 H 1.30423 0.97195 1.08606
 H3086 H 1.25983 0.94529 1.08129
 H3087 H 1.27052 0.82943 1.13218
 H3088 H 1.22910 0.85085 1.10935
 C3089 C 1.29090 0.38636 0.62972
 C3090 C 1.28597 0.35895 0.64152
 C3091 C 1.25935 0.34587 0.63804
 C3092 C 1.23743 0.35976 0.62365
 C3093 C 1.24166 0.38679 0.61166
 C3094 C 1.26860 0.40033 0.61447
 C3095 C 1.31770 0.39995 0.63219
 C3096 C 1.32239 0.42669 0.62001
 C3097 C 1.30068 0.44025 0.60496
 C3098 C 1.27405 0.42723 0.60204
 H3099 H 1.33529 0.39000 0.64332
 H3100 H 1.34304 0.43686 0.62208
 H3101 H 1.30454 0.46090 0.59536
 H3102 H 1.25795 0.43829 0.58977
 H3103 H 1.25535 0.32492 0.64700
 H3104 H 1.21670 0.34965 0.62230
 C3105 C 0.79474 0.87447 0.60290
 C3106 C 0.79272 0.86531 0.63167
 C3107 C 0.76758 0.87013 0.64701
 C3108 C 0.74418 0.88297 0.63411
 C3109 C 0.74528 0.89173 0.60556
 C3110 C 0.77085 0.88796 0.58978
 C3111 C 0.82027 0.87146 0.58717
 C3112 C 0.82211 0.88118 0.55913
 C3113 C 0.79885 0.89446 0.54638
 C3114 C 0.77351 0.89808 0.56152
 H3115 H 0.83917 0.86203 0.59640
 H3116 H 0.84182 0.87871 0.54735
 H3117 H 0.80054 0.90229 0.52473
 H3118 H 0.75630 0.90925 0.55100
 H3119 H 0.76589 0.86344 0.66907
 H3120 H 0.72483 0.88578 0.64645
 C3121 C 0.75273 0.35178 1.15775
 C3122 C 0.78010 0.35058 1.14499
 C3123 C 0.78440 0.36276 1.11807
 C3124 C 0.76244 0.37710 1.10421
 C3125 C 0.73551 0.37967 1.11683
 C3126 C 0.73022 0.36654 1.14360
 C3127 C 0.74698 0.33787 1.18380
 C3128 C 0.71982 0.33887 1.19591
 C3129 C 0.69787 0.35343 1.18221
 C3130 C 0.70286 0.36702 1.15623
 H3131 H 0.76320 0.32564 1.19469
 H3132 H 0.71571 0.32807 1.21589
 H3133 H 0.67677 0.35392 1.19161
 H3134 H 0.68501 0.37745 1.14600
 H3135 H 0.80517 0.36170 1.10797
 H3136 H 0.76661 0.38671 1.08361
 C3137 C 0.74597 1.15934 1.14407
 C3138 C 0.71966 1.14448 1.14584
 C3139 C 0.71772 1.11668 1.13495
 C3140 C 0.74084 1.10388 1.12157
 C3141 C 0.76669 1.11847 1.11843
 C3142 C 0.76963 1.14638 1.12995
 C3143 C 0.74966 1.18629 1.15695
 C3144 C 0.77557 1.20083 1.15483
 C3145 C 0.79843 1.18853 1.14046
 C3146 C 0.79576 1.16140 1.12849
 H3147 H 0.73289 1.19591 1.16940
 H3148 H 0.77802 1.22160 1.16468
 H3149 H 0.81847 1.19989 1.13893
 H3150 H 0.81440 1.15229 1.11843
 H3151 H 0.69782 1.10492 1.13624
 H3152 H 0.73838 1.08249 1.11309
 C3153 C 0.70896 0.60460 0.62483
 C3154 C 0.71095 0.63360 0.63339
 C3155 C 0.73598 0.64895 0.62793
 C3156 C 0.75936 0.63583 0.61528
 C3157 C 0.75839 0.60700 0.60735
 C3158 C 0.73285 0.59123 0.61153
 C3159 C 0.68347 0.58884 0.62830
 C3160 C 0.68166 0.56055 0.61921
 C3161 C 0.70490 0.54757 0.60611
 C3162 C 0.73019 0.56273 0.60204
 H3163 H 0.66457 0.59825 0.63755
 H3164 H 0.66198 0.54876 0.62202
 H3165 H 0.70322 0.52572 0.59877
 H3166 H 0.74738 0.55202 0.59101
 H3167 H 0.73770 0.67116 0.63419
 H3168 H 0.77864 0.64821 0.61210
 C3169 C 0.25017 1.15971 0.64392
 C3170 C 0.22303 1.14650 0.64621
 C3171 C 0.21885 1.11915 0.63494
 C3172 C 0.24068 1.10517 0.62054
 C3173 C 0.26734 1.11814 0.61697
 C3174 C 0.27252 1.14548 0.62903
 C3175 C 0.25588 1.18628 0.65696
 C3176 C 0.28272 1.19899 0.65462
 C3177 C 0.30447 1.18527 0.63980
 C3178 C 0.29963 1.15865 0.62737
 H3179 H 0.23992 1.19709 0.66958
 H3180 H 0.28677 1.21941 0.66466
 H3181 H 0.32530 1.19513 0.63823
 H3182 H 0.31741 1.14844 0.61682
 H3183 H 0.19827 1.10873 0.63683
 H3184 H 0.23662 1.08417 0.61172
 C3185 C 0.20789 0.60866 1.12478
 C3186 C 0.21005 0.63645 1.13661
 C3187 C 0.23591 0.65129 1.13502
 C3188 C 0.25980 0.63874 1.12254
 C3189 C 0.25840 0.61116 1.11100
 C3190 C 0.23218 0.59600 1.11164
 C3191 C 0.18181 0.59346 1.12500
 C3192 C 0.17971 0.56656 1.11244
 C3193 C 0.20333 0.55441 1.09922
 C3194 C 0.22933 0.56890 1.09871
 H3195 H 0.16274 0.60228 1.13454
 H3196 H 0.15956 0.55523 1.11267
 H3197 H 0.20142 0.53376 1.08907
 H3198 H 0.24693 0.55884 1.08772
 H3199 H 0.23764 0.67269 1.14365
 H3200 H 0.27968 0.65055 1.12206
 C3201 C 0.70417 0.90080 0.87992
 C3202 C 0.70424 0.87172 0.87150
 C3203 C 0.72843 0.85500 0.87640
 C3204 C 0.75289 0.86684 0.88836
 C3205 C 0.75380 0.89570 0.89620
 C3206 C 0.72907 0.91283 0.89266
 C3207 C 0.67962 0.91796 0.87676
 C3208 C 0.67962 0.94630 0.88583
 C3209 C 0.70379 0.95796 0.89858
 C3210 C 0.72824 0.94142 0.90221
 H3211 H 0.66009 0.90961 0.86769
 H3212 H 0.66063 0.95919 0.88329
 H3213 H 0.70352 0.97986 0.90594
 H3214 H 0.74620 0.95115 0.91296
 H3215 H 0.72862 0.83270 0.87023
 H3216 H 0.77154 0.85345 0.89102
 C3217 C 0.70635 0.39612 0.38066
 C3218 C 0.70709 0.36857 0.36803
 C3219 C 0.73231 0.35262 0.36891
 C3220 C 0.75702 0.36395 0.38095
 C3221 C 0.75717 0.39148 0.39261
 C3222 C 0.73164 0.40768 0.39299
 C3223 C 0.68081 0.41210 0.38222
 C3224 C 0.68041 0.43899 0.39497
 C3225 C 0.70516 0.45032 0.40682
 C3226 C 0.73051 0.43482 0.40611
 H3227 H 0.66081 0.40391 0.37417
 H3228 H 0.66069 0.45096 0.39594
 H3229 H 0.70464 0.47109 0.41694
 H3230 H 0.74901 0.44416 0.41630
 H3231 H 0.73302 0.33142 0.35969
 H3232 H 0.77637 0.35131 0.38073
 C3233 C 0.20675 0.89504 0.37392
 C3234 C 0.20885 0.86597 0.36566
 C3235 C 0.23346 0.85050 0.37242
 C3236 C 0.25640 0.86358 0.38594
 C3237 C 0.25540 0.89250 0.39347
 C3238 C 0.23018 0.90837 0.38811
 C3239 C 0.18158 0.91092 0.36922
 C3240 C 0.17966 0.93929 0.37796
 C3241 C 0.20246 0.95225 0.39193
 C3242 C 0.22741 0.93697 0.39721
 H3243 H 0.16299 0.90153 0.35926
 H3244 H 0.16023 0.95119 0.37422
 H3245 H 0.20068 0.97418 0.39900
 H3246 H 0.24424 0.94766 0.40887
 H3247 H 0.23529 0.82824 0.36639
 H3248 H 0.27545 0.85114 0.38997
 C3249 C 0.24826 0.34179 0.85190
 C3250 C 0.22090 0.35452 0.85344
 C3251 C 0.21752 0.38046 0.86790
 C3252 C 0.24046 0.39344 0.88156
 C3253 C 0.26751 0.38091 0.88116
 C3254 C 0.27180 0.35507 0.86596
 C3255 C 0.25297 0.31672 0.83591
 C3256 C 0.28015 0.30475 0.83417
 C3257 C 0.30311 0.31759 0.84804
 C3258 C 0.29911 0.34257 0.86372
 H3259 H 0.23587 0.30653 0.82423
 H3260 H 0.28347 0.28553 0.82179
 H3261 H 0.32418 0.30828 0.84644
 H3262 H 0.31761 0.35216 0.87370
 H3263 H 0.19676 0.39057 0.86901
 H3264 H 0.23702 0.41334 0.89282
   
