data_POSCAR
  _audit_creation_date              2014-09-24
  _audit_creation_method            'ToBaCCo'
  _symmetry_space_group_name_H-M    'P1'
  _symmetry_Int_Tables_number       1
  _symmetry_cell_setting            triclinic
  loop_
  _symmetry_equiv_pos_as_xyz
 x,y,z
_cell_length_a 68.4607
_cell_length_b 68.5596
_cell_length_c 68.5272
_cell_angle_alpha 89.994100
_cell_angle_beta 90.097300
_cell_angle_gamma 89.847600
loop_
  _atom_site_label
  _atom_site_type_symbol
  _atom_site_fract_x
  _atom_site_fract_y
  _atom_site_fract_z
C1 C 0.24871 0.99482 -0.01557
 C2 C 0.25061 0.99498 0.00420
 C3 C 0.25051 0.97681 0.01597
 C4 C 0.25265 1.01344 0.01535
 C5 C 0.24788 1.01316 -0.02709
 C6 C 0.24757 0.97638 -0.02689
 C7 C 0.23452 0.96400 0.01552
 C8 C 0.23394 0.94791 0.02809
 C9 C 0.24931 0.94456 0.04121
 C10 C 0.26539 0.95711 0.04147
 C11 C 0.26596 0.97316 0.02898
 C12 C 0.23942 1.01757 0.03043
 C13 C 0.24147 1.03443 0.04164
 C14 C 0.25688 1.04734 0.03801
 C15 C 0.27016 1.04333 0.02295
 C16 C 0.26809 1.02641 0.01171
 C17 C 0.26131 1.01608 -0.04226
 C18 C 0.26059 1.03307 -0.05348
 C19 C 0.24636 1.04727 -0.04975
 C20 C 0.23281 1.04442 -0.03474
 C21 C 0.23351 1.02739 -0.02349
 C22 C 0.26245 0.96224 -0.02577
 C23 C 0.26171 0.94558 -0.03756
 C24 C 0.24617 0.94298 -0.05062
 C25 C 0.23126 0.95694 -0.05166
 C26 C 0.23198 0.97356 -0.03991
 H27 H 0.22229 0.96677 0.00586
 H28 H 0.22136 0.93836 0.02788
 H29 H 0.27730 0.95471 0.05162
 H30 H 0.27834 0.98295 0.02963
 H31 H 0.22750 1.00769 0.03352
 H32 H 0.23111 1.03726 0.05326
 H33 H 0.27864 1.02328 0.00037
 H34 H 0.27241 1.00523 -0.04534
 H35 H 0.27108 1.03508 -0.06512
 H36 H 0.22165 1.05526 -0.03182
 H37 H 0.22279 1.02524 -0.01209
 H38 H 0.27480 0.96432 -0.01610
 H39 H 0.27341 0.93494 -0.03676
 H40 H 0.21921 0.95513 -0.06177
 H41 H 0.22045 0.98435 -0.04109
 H42 H 0.28223 1.05309 0.02002
 C43 C 0.74937 0.49284 0.48219
 C44 C 0.75120 0.49295 0.50196
 C45 C 0.75068 0.47478 0.51373
 C46 C 0.75375 0.51134 0.51313
 C47 C 0.74870 0.51121 0.47071
 C48 C 0.74820 0.47439 0.47087
 C49 C 0.73448 0.46224 0.51313
 C50 C 0.73351 0.44617 0.52570
 C51 C 0.74870 0.44257 0.53897
 C52 C 0.76499 0.45484 0.53937
 C53 C 0.76595 0.47087 0.52687
 C54 C 0.74082 0.51571 0.52841
 C55 C 0.74359 0.53233 0.53983
 C56 C 0.75937 0.54472 0.53620
 C57 C 0.77230 0.54054 0.52093
 C58 C 0.76954 0.52387 0.50946
 C59 C 0.76205 0.51402 0.45544
 C60 C 0.76149 0.53107 0.44432
 C61 C 0.74751 0.54547 0.44824
 C62 C 0.73403 0.54273 0.46334
 C63 C 0.73456 0.52563 0.47449
 C64 C 0.76292 0.46011 0.47226
 C65 C 0.76211 0.44335 0.46063
 C66 C 0.74668 0.44079 0.44744
 C67 C 0.73195 0.45492 0.44608
 C68 C 0.73274 0.47165 0.45767
 H69 H 0.72239 0.46521 0.50335
 H70 H 0.72077 0.43684 0.52538
 H71 H 0.77677 0.45224 0.54963
 H72 H 0.77850 0.48044 0.52764
 H73 H 0.72864 0.50616 0.53154
 H74 H 0.73355 0.53538 0.55166
 H75 H 0.77988 0.52055 0.49798
 H76 H 0.77298 0.50303 0.45223
 H77 H 0.77194 0.53301 0.43262
 H78 H 0.72307 0.55372 0.46640
 H79 H 0.72390 0.52358 0.48596
 H80 H 0.77518 0.46213 0.48206
 H81 H 0.77367 0.43257 0.46169
 H82 H 0.71999 0.45313 0.43586
 H83 H 0.72134 0.48255 0.45627
 H84 H 0.78465 0.54997 0.51809
 C85 C 0.74969 1.00162 0.99346
 C86 C 0.74969 0.98178 0.99338
 C87 C 0.74843 0.97036 1.01176
 C88 C 0.75124 0.97035 0.97503
 C89 C 0.74992 1.01329 0.97521
 C90 C 0.74936 1.01300 1.01189
 C91 C 0.76295 0.95653 1.01611
 C92 C 0.76200 0.94561 1.03328
 C93 C 0.74644 0.94830 1.04625
 C94 C 0.73177 0.96191 1.04191
 C95 C 0.73270 0.97284 1.02470
 C96 C 0.76697 0.97299 0.96215
 C97 C 0.76874 0.96129 0.94551
 C98 C 0.75488 0.94678 0.94168
 C99 C 0.73917 0.94414 0.95444
 C100 C 0.73739 0.95581 0.97105
 C101 C 0.73502 1.01149 0.96119
 C102 C 0.73437 1.02416 0.94516
 C103 C 0.74858 1.03868 0.94307
 C104 C 0.76367 1.04020 0.95677
 C105 C 0.76431 1.02763 0.97277
 C106 C 0.73457 1.02690 1.01483
 C107 C 0.73460 1.03859 1.03151
 C108 C 0.74948 1.03659 1.04541
 C109 C 0.76425 1.02266 1.04264
 C110 C 0.76422 1.01094 1.02592
 H111 H 0.77513 0.95433 1.00627
 H112 H 0.77339 0.93508 1.03646
 H113 H 0.71960 0.96402 1.05178
 H114 H 0.72116 0.98318 1.02142
 H115 H 0.77804 0.98384 0.96517
 H116 H 0.78103 0.96335 0.93580
 H117 H 0.72526 0.95343 0.98088
 H118 H 0.72360 1.00076 0.96300
 H119 H 0.72255 1.02296 0.93471
 H120 H 0.77467 1.05144 0.95536
 H121 H 0.77582 1.02933 0.98349
 H122 H 0.72306 1.02878 1.00412
 H123 H 0.72313 1.04936 1.03340
 H124 H 0.77594 1.02105 1.05321
 H125 H 0.77595 1.00054 1.02373
 H126 H 0.72841 0.93291 0.95168
 C127 C 0.24846 0.50247 0.49419
 C128 C 0.24891 0.48263 0.49454
 C129 C 0.24773 0.47157 0.51314
 C130 C 0.25081 0.47085 0.47645
 C131 C 0.24841 0.51374 0.47569
 C132 C 0.24767 0.51420 0.51239
 C133 C 0.26248 0.45811 0.51788
 C134 C 0.26156 0.44748 0.53524
 C135 C 0.24582 0.45007 0.54799
 C136 C 0.23093 0.46332 0.54327
 C137 C 0.23183 0.47397 0.52588
 C138 C 0.26656 0.47354 0.46360
 C139 C 0.26870 0.46149 0.44725
 C140 C 0.25518 0.44660 0.44368
 C141 C 0.23943 0.44394 0.45638
 C142 C 0.23729 0.45594 0.47270
 C143 C 0.23367 0.51114 0.46164
 C144 C 0.23274 0.52335 0.44527
 C145 C 0.24651 0.53824 0.44287
 C146 C 0.26142 0.54062 0.45665
 C147 C 0.26233 0.52849 0.47298
 C148 C 0.23251 0.52779 0.51491
 C149 C 0.23196 0.53963 0.53146
 C150 C 0.24661 0.53811 0.54564
 C151 C 0.26177 0.52455 0.54328
 C152 C 0.26234 0.51266 0.52669
 H153 H 0.27479 0.45597 0.50819
 H154 H 0.27312 0.43721 0.53870
 H155 H 0.21862 0.46534 0.55298
 H156 H 0.22011 0.48400 0.52231
 H157 H 0.27738 0.48469 0.46644
 H158 H 0.28102 0.46358 0.43758
 H159 H 0.22513 0.45354 0.48250
 H160 H 0.22257 0.50010 0.46366
 H161 H 0.22105 0.52148 0.43477
 H162 H 0.27208 0.55216 0.45500
 H163 H 0.27371 0.53083 0.48372
 H164 H 0.22114 0.52926 0.50399
 H165 H 0.22022 0.55013 0.53309
 H166 H 0.27325 0.52335 0.55412
 H167 H 0.27433 0.50251 0.52484
 H168 H 0.22893 0.43242 0.45381
 C169 C 0.99334 0.24813 0.01728
 C170 C 0.99341 0.24798 -0.00257
 C171 C 1.01186 0.24851 -0.01390
 C172 C 0.97513 0.24749 -0.01425
 C173 C 0.97502 0.24653 0.02872
 C174 C 1.01171 0.24970 0.02875
 C175 C 1.01461 0.26325 -0.02784
 C176 C 1.03142 0.26350 -0.03933
 C177 C 1.04564 0.24894 -0.03711
 C178 C 1.04303 0.23420 -0.02318
 C179 C 1.02618 0.23395 -0.01165
 C180 C 0.96084 0.26213 -0.01237
 C181 C 0.94467 0.26247 -0.02490
 C182 C 0.94270 0.24820 -0.03944
 C183 C 0.95673 0.23341 -0.04110
 C184 C 0.97286 0.23309 -0.02863
 C185 C 0.96238 0.23056 0.02635
 C186 C 0.94591 0.22864 0.03827
 C187 C 0.94201 0.24260 0.05269
 C188 C 0.95446 0.25859 0.05497
 C189 C 0.97089 0.26052 0.04310
 C190 C 1.01616 0.23540 0.04273
 C191 C 1.03313 0.23681 0.05397
 C192 C 1.04580 0.25261 0.05146
 C193 C 1.04140 0.26702 0.03759
 C194 C 1.02440 0.26560 0.02633
 H195 H 1.00367 0.27452 -0.02986
 H196 H 1.03319 0.27494 -0.05009
 H197 H 1.05385 0.22276 -0.02141
 H198 H 1.02415 0.22227 -0.00122
 H199 H 0.96253 0.27358 -0.00162
 H200 H 0.93399 0.27408 -0.02353
 H201 H 0.98379 0.22177 -0.03039
 H202 H 0.96552 0.21941 0.01561
 H203 H 0.93645 0.21612 0.03649
 H204 H 0.95165 0.26941 0.06615
 H205 H 0.98052 0.27285 0.04525
 H206 H 1.00650 0.22310 0.04489
 H207 H 1.03629 0.22560 0.06469
 H208 H 1.05100 0.27940 0.03559
 H209 H 1.02103 0.27697 0.01587
 H210 H 0.95546 0.22233 -0.05231
 C211 C 0.49404 0.74891 0.51758
 C212 C 0.49349 0.74887 0.49773
 C213 C 0.47486 0.74827 0.48664
 C214 C 0.51157 0.74975 0.48581
 C215 C 0.51274 0.75071 0.52847
 C216 C 0.47609 0.74712 0.52957
 C217 C 0.47224 0.73389 0.47229
 C218 C 0.45572 0.73415 0.46034
 C219 C 0.44167 0.74884 0.46250
 C220 C 0.44399 0.76307 0.47699
 C221 C 0.46054 0.76281 0.48901
 C222 C 0.52625 0.73548 0.48758
 C223 C 0.54277 0.73616 0.47559
 C224 C 0.54466 0.75101 0.46169
 C225 C 0.53009 0.76525 0.45990
 C226 C 0.51361 0.76459 0.47184
 C227 C 0.52512 0.76680 0.52566
 C228 C 0.54253 0.76835 0.53626
 C229 C 0.54763 0.75393 0.54984
 C230 C 0.53526 0.73799 0.55281
 C231 C 0.51788 0.73642 0.54224
 C232 C 0.47227 0.76106 0.54409
 C233 C 0.45609 0.75911 0.55628
 C234 C 0.44357 0.74314 0.55420
 C235 C 0.44719 0.72920 0.53969
 C236 C 0.46342 0.73115 0.52745
 H237 H 0.48318 0.72266 0.47014
 H238 H 0.45413 0.72314 0.44911
 H239 H 0.43327 0.77459 0.47868
 H240 H 0.46249 0.77424 0.49974
 H241 H 0.52477 0.72372 0.49802
 H242 H 0.55391 0.72500 0.47699
 H243 H 0.50240 0.77565 0.47018
 H244 H 0.52122 0.77817 0.51538
 H245 H 0.55194 0.78081 0.53394
 H246 H 0.53903 0.72680 0.56333
 H247 H 0.50846 0.72399 0.54470
 H248 H 0.48192 0.77341 0.54604
 H249 H 0.45348 0.76993 0.56751
 H250 H 0.43767 0.71672 0.53804
 H251 H 0.46632 0.72003 0.51659
 H252 H 0.53137 0.77675 0.44914
 C253 C -0.01776 0.75243 0.00558
 C254 C 0.00203 0.75050 0.00560
 C255 C 0.01335 0.74831 -0.01275
 C256 C 0.01371 0.75076 0.02385
 C257 C -0.02922 0.75354 0.02394
 C258 C -0.02909 0.75331 -0.01290
 C259 C 0.00989 0.73274 -0.02563
 C260 C 0.02155 0.73030 -0.04222
 C261 C 0.03682 0.74336 -0.04600
 C262 C 0.04020 0.75897 -0.03326
 C263 C 0.02858 0.76139 -0.01672
 C264 C 0.02678 0.73540 0.02763
 C265 C 0.03957 0.73635 0.04347
 C266 C 0.03954 0.75270 0.05568
 C267 C 0.02625 0.76792 0.05229
 C268 C 0.01338 0.76697 0.03641
 C269 C -0.04241 0.76901 0.02668
 C270 C -0.05413 0.76978 0.04332
 C271 C -0.05290 0.75503 0.05740
 C272 C -0.03971 0.73956 0.05483
 C273 C -0.02796 0.73879 0.03814
 C274 C -0.02520 0.76760 -0.02708
 C275 C -0.03610 0.76824 -0.04436
 C276 C -0.05108 0.75471 -0.04754
 C277 C -0.05514 0.74059 -0.03335
 C278 C -0.04426 0.73995 -0.01611
 H279 H -0.00156 0.72230 -0.02262
 H280 H 0.01886 0.71808 -0.05188
 H281 H 0.05200 0.76913 -0.03593
 H282 H 0.03154 0.77341 -0.00690
 H283 H 0.02735 0.72286 0.01804
 H284 H 0.04986 0.72455 0.04588
 H285 H 0.00367 0.77913 0.03352
 H286 H -0.04370 0.78045 0.01584
 H287 H -0.06432 0.78179 0.04506
 H288 H -0.03870 0.72796 0.06553
 H289 H -0.01818 0.72652 0.03612
 H290 H -0.01380 0.77827 -0.02471
 H291 H -0.03286 0.77931 -0.05516
 H292 H -0.06673 0.73008 -0.03557
 H293 H -0.04754 0.72890 -0.00530
 H294 H 0.02622 0.78072 0.06155
 C295 C 0.50170 0.24964 0.50643
 C296 C 0.48193 0.25175 0.50623
 C297 C 0.47076 0.25263 0.48763
 C298 C 0.47032 0.25307 0.52448
 C299 C 0.51325 0.25002 0.52478
 C300 C 0.51313 0.24710 0.48820
 C301 C 0.47495 0.26676 0.47338
 C302 C 0.46425 0.26736 0.45598
 C303 C 0.44917 0.25397 0.45276
 C304 C 0.44479 0.24003 0.46701
 C305 C 0.45548 0.23940 0.48437
 C306 C 0.45717 0.26863 0.52700
 C307 C 0.44535 0.26958 0.54356
 C308 C 0.44642 0.25493 0.55775
 C309 C 0.45953 0.23939 0.55540
 C310 C 0.47139 0.23842 0.53881
 C311 C 0.52623 0.23465 0.52881
 C312 C 0.53878 0.23561 0.54484
 C313 C 0.53859 0.25199 0.55700
 C314 C 0.52543 0.26726 0.55332
 C315 C 0.51281 0.26630 0.53725
 C316 C 0.50951 0.23144 0.47545
 C317 C 0.52118 0.22873 0.45891
 C318 C 0.53659 0.24157 0.45506
 C319 C 0.54017 0.25721 0.46768
 C320 C 0.52855 0.25993 0.48417
 H321 H 0.48644 0.27732 0.47578
 H322 H 0.46767 0.27829 0.44510
 H323 H 0.43311 0.22965 0.46469
 H324 H 0.45195 0.22849 0.49523
 H325 H 0.45602 0.27999 0.51607
 H326 H 0.43520 0.28162 0.54518
 H327 H 0.48113 0.22609 0.53696
 H328 H 0.52689 0.22205 0.51928
 H329 H 0.54895 0.22376 0.54749
 H330 H 0.52527 0.28008 0.56256
 H331 H 0.50317 0.27847 0.53417
 H332 H 0.49791 0.22118 0.47850
 H333 H 0.51838 0.21650 0.44931
 H334 H 0.55211 0.26717 0.46490
 H335 H 0.53163 0.27200 0.49389
 H336 H 0.46037 0.22790 0.56622
 C337 C 1.00629 0.01636 0.24970
 C338 C 1.00654 -0.00338 0.25176
 C339 C 1.02492 -0.01489 0.25123
 C340 C 0.98830 -0.01482 0.25418
 C341 C 0.98766 0.02747 0.24872
 C342 C 1.02453 0.02799 0.24838
 C343 C 1.03724 -0.01442 0.23485
 C344 C 1.05322 -0.02714 0.23361
 C345 C 1.05695 -0.04046 0.24871
 C346 C 1.04497 -0.04062 0.26524
 C347 C 1.02903 -0.02796 0.26647
 C348 C 0.98433 -0.03018 0.24124
 C349 C 0.96787 -0.04185 0.24385
 C350 C 0.95520 -0.03839 0.25950
 C351 C 0.95899 -0.02300 0.27244
 C352 C 0.97551 -0.01129 0.26982
 C353 C 0.98432 0.04278 0.26192
 C354 C 0.96702 0.05358 0.26102
 C355 C 0.95293 0.04929 0.24685
 C356 C 0.95621 0.03415 0.23352
 C357 C 0.97354 0.02332 0.23440
 C358 C 1.03894 0.02696 0.26299
 C359 C 1.05544 0.03895 0.26206
 C360 C 1.05762 0.05212 0.24659
 C361 C 1.04337 0.05310 0.23196
 C362 C 1.02690 0.04116 0.23287
 H363 H 1.03408 -0.00471 0.22278
 H364 H 1.06228 -0.02696 0.22066
 H365 H 1.04761 -0.05090 0.27699
 H366 H 1.01961 -0.02864 0.27914
 H367 H 0.99407 -0.03319 0.22916
 H368 H 0.96518 -0.05373 0.23377
 H369 H 0.97851 0.00027 0.28015
 H370 H 0.99508 0.04627 0.27297
 H371 H 0.96466 0.06532 0.27135
 H372 H 0.94546 0.03080 0.22242
 H373 H 0.97602 0.01182 0.22385
 H374 H 1.03720 0.01720 0.27529
 H375 H 1.06631 0.03816 0.27354
 H376 H 1.04485 0.06330 0.21997
 H377 H 1.01591 0.04228 0.22153
 H378 H 0.94939 -0.02023 0.28469
 C379 C 0.50683 0.49813 0.75125
 C380 C 0.50653 0.51787 0.74924
 C381 C 0.48787 0.52897 0.74848
 C382 C 0.52474 0.52951 0.74778
 C383 C 0.52524 0.48664 0.75063
 C384 C 0.48865 0.48665 0.75385
 C385 C 0.47359 0.52482 0.73432
 C386 C 0.45624 0.53565 0.73365
 C387 C 0.45311 0.55079 0.74701
 C388 C 0.46736 0.55508 0.76102
 C389 C 0.48468 0.54428 0.76171
 C390 C 0.52702 0.54266 0.73225
 C391 C 0.54350 0.55455 0.73118
 C392 C 0.55788 0.55352 0.74569
 C393 C 0.55579 0.54039 0.76120
 C394 C 0.53926 0.52846 0.76229
 C395 C 0.52947 0.47360 0.76587
 C396 C 0.54552 0.46107 0.76463
 C397 C 0.55748 0.46135 0.74810
 C398 C 0.55361 0.47458 0.73299
 C399 C 0.53752 0.48718 0.73423
 C400 C 0.47603 0.49014 0.76963
 C401 C 0.45958 0.47839 0.77241
 C402 C 0.45570 0.46304 0.75950
 C403 C 0.46817 0.45961 0.74371
 C404 C 0.48457 0.47130 0.74093
 H405 H 0.47594 0.51332 0.72374
 H406 H 0.44536 0.53230 0.72267
 H407 H 0.46512 0.56681 0.77137
 H408 H 0.49557 0.54777 0.77264
 H409 H 0.51594 0.54378 0.72099
 H410 H 0.54493 0.56472 0.71917
 H411 H 0.53760 0.51871 0.77461
 H412 H 0.52009 0.47287 0.77856
 H413 H 0.54832 0.45084 0.77636
 H414 H 0.56269 0.47480 0.72006
 H415 H 0.53428 0.49686 0.72215
 H416 H 0.47913 0.50170 0.77995
 H417 H 0.45008 0.48109 0.78476
 H418 H 0.46534 0.44772 0.73368
 H419 H 0.49419 0.46832 0.72874
 H420 H 0.56676 0.53958 0.77259
 C421 C 1.01814 1.00717 0.74997
 C422 C 0.99827 1.00716 0.74993
 C423 C 0.98687 0.98878 0.74929
 C424 C 0.98660 1.02544 0.75038
 C425 C 1.02958 1.02545 0.75183
 C426 C 1.02960 0.98881 0.74837
 C427 C 0.97290 0.98614 0.73451
 C428 C 0.96117 0.96953 0.73430
 C429 C 0.96317 0.95542 0.74892
 C430 C 0.97715 0.95786 0.76366
 C431 C 0.98894 0.97451 0.76388
 C432 C 0.98854 1.03967 0.73575
 C433 C 0.97596 1.05580 0.73532
 C434 C 0.96131 1.05779 0.74947
 C435 C 0.95961 1.04383 0.76428
 C436 C 0.97213 1.02774 0.76470
 C437 C 1.02694 1.03807 0.76779
 C438 C 1.03867 1.05463 0.76986
 C439 C 1.05320 1.05864 0.75607
 C440 C 1.05584 1.04616 0.74014
 C441 C 1.04414 1.02964 0.73806
 C442 C 1.04354 0.98428 0.76274
 C443 C 1.05471 0.96726 0.76134
 C444 C 1.05218 0.95463 0.74548
 C445 C 1.03839 0.95912 0.73100
 C446 C 1.02720 0.97617 0.73240
 H447 H 0.97100 0.99705 0.72322
 H448 H 0.95032 0.96784 0.72290
 H449 H 0.97870 0.94710 0.77514
 H450 H 0.99939 0.97646 0.77560
 H451 H 0.99937 1.03797 0.72437
 H452 H 0.97736 1.06642 0.72369
 H453 H 0.97032 1.01686 0.77601
 H454 H 1.01607 1.03489 0.77880
 H455 H 1.03661 1.06413 0.78232
 H456 H 1.06709 1.04907 0.72944
 H457 H 1.04650 1.02002 0.72573
 H458 H 1.04568 0.99390 0.77509
 H459 H 1.06536 0.96402 0.77262
 H460 H 1.03636 0.94955 0.71858
 H461 H 1.01679 0.97960 0.72098
 H462 H 0.94831 1.04511 0.77527
 C463 C 0.51823 0.50622 0.24871
 C464 C 0.49836 0.50652 0.24873
 C465 C 0.48664 0.48835 0.24791
 C466 C 0.48701 0.52499 0.24933
 C467 C 0.52998 0.52431 0.25055
 C468 C 0.52937 0.48769 0.24691
 C469 C 0.47260 0.48612 0.23313
 C470 C 0.46055 0.46974 0.23277
 C471 C 0.46230 0.45544 0.24723
 C472 C 0.47637 0.45745 0.26196
 C473 C 0.48848 0.47387 0.26234
 C474 C 0.48911 0.53924 0.23473
 C475 C 0.47679 0.55558 0.23445
 C476 C 0.46230 0.55775 0.24871
 C477 C 0.46044 0.54378 0.26347
 C478 C 0.47268 0.52748 0.26375
 C479 C 0.52759 0.53697 0.26652
 C480 C 0.53951 0.55342 0.26846
 C481 C 0.55397 0.55728 0.25455
 C482 C 0.55636 0.54472 0.23863
 C483 C 0.54449 0.52831 0.23667
 C484 C 0.54329 0.48279 0.26118
 C485 C 0.55411 0.46558 0.25960
 C486 C 0.55126 0.45313 0.24367
 C487 C 0.53752 0.45798 0.22928
 C488 C 0.52667 0.47523 0.23084
 H489 H 0.47088 0.49718 0.22196
 H490 H 0.44965 0.46838 0.22136
 H491 H 0.47774 0.44653 0.27331
 H492 H 0.49898 0.47550 0.27406
 H493 H 0.49982 0.53739 0.22327
 H494 H 0.47825 0.56623 0.22287
 H495 H 0.47074 0.51658 0.27502
 H496 H 0.51676 0.53394 0.27760
 H497 H 0.53762 0.56297 0.28091
 H498 H 0.56755 0.54751 0.22783
 H499 H 0.54666 0.51866 0.22435
 H500 H 0.54567 0.49227 0.27360
 H501 H 0.56475 0.46200 0.27077
 H502 H 0.53528 0.44850 0.21683
 H503 H 0.51628 0.47894 0.21949
 H504 H 0.44922 0.54526 0.27450
 O505 O 0.26396 0.20084 0.20720
 O506 O 0.28564 0.19463 0.23396
 O507 O 0.21299 0.22326 0.23680
 O508 O 0.20595 0.24816 0.25653
 O509 O 0.23568 0.25237 0.18538
 O510 O 0.26272 0.27386 0.18022
 O511 O 0.26418 0.27631 0.28687
 O512 O 0.24165 0.24978 0.29135
 O513 O 0.31423 0.25097 0.26216
 O514 O 0.32004 0.22935 0.23399
 O515 O 0.29003 0.30106 0.23755
 O516 O 0.26179 0.30741 0.21552
 O517 O 0.26398 0.30030 0.26391
 O518 O 0.24138 0.30686 0.23652
 O519 O 0.31370 0.27771 0.23660
 O520 O 0.31940 0.25033 0.21338
 O521 O 0.29104 0.25099 0.28591
 O522 O 0.26790 0.22824 0.29185
 O523 O 0.26343 0.22495 0.18434
 O524 O 0.28445 0.25230 0.17934
 O525 O 0.21255 0.25123 0.20920
 O526 O 0.20814 0.27297 0.23725
 O527 O 0.23661 0.19991 0.23485
 O528 O 0.26521 0.19344 0.25548
 Zr529 Zr 0.26299 0.21565 0.23412
 O530 O 0.28126 0.23205 0.25262
 Zr531 Zr 0.22846 0.24970 0.23549
 O532 O 0.24528 0.26758 0.25402
 Zr533 Zr 0.26231 0.25085 0.20075
 O534 O 0.28065 0.26872 0.21774
 Zr535 Zr 0.26448 0.25033 0.27057
 O536 O 0.24591 0.23203 0.25386
 Zr537 Zr 0.29826 0.25125 0.23587
 O538 O 0.28154 0.23324 0.21713
 Zr539 Zr 0.26364 0.28537 0.23710
 O540 O 0.24510 0.26910 0.21847
 O541 O 0.24448 0.23219 0.21661
 O542 O 0.28235 0.26907 0.25473
 C543 C 0.26418 0.20698 0.18950
 C544 C 0.21875 0.20544 0.23634
 C545 C 0.21790 0.25248 0.19130
 C546 C 0.26414 0.29428 0.28163
 C547 C 0.30882 0.25111 0.28007
 C548 C 0.30794 0.29550 0.23734
 H549 H 0.28934 0.22309 0.26058
 H550 H 0.28855 0.27703 0.20902
 H551 H 0.23606 0.22402 0.20819
 H552 H 0.23652 0.27528 0.26253
 H553 H 0.23308 0.23869 0.28786
 H554 H 0.21093 0.25438 0.26855
 H555 H 0.31682 0.26139 0.20446
 H556 H 0.29501 0.24343 0.18371
 H557 H 0.26020 0.21697 0.28729
 H558 H 0.25408 0.19506 0.26454
 H559 H 0.27249 0.30524 0.20608
 H560 H 0.25384 0.28408 0.18530
 H561 H 0.29588 0.19966 0.22512
 H562 H 0.31730 0.21950 0.24417
 H563 H 0.21194 0.28265 0.22723
 H564 H 0.23198 0.30375 0.24701
 O565 O 0.74982 0.81472 0.23754
 O566 O 0.72865 0.81987 0.26475
 O567 O 0.80128 0.79141 0.26556
 O568 O 0.80880 0.76600 0.28440
 O569 O 0.77805 0.76405 0.21353
 O570 O 0.75112 0.74274 0.20776
 O571 O 0.75055 0.73663 0.31454
 O572 O 0.77310 0.76229 0.31999
 O573 O 0.70053 0.76239 0.29102
 O574 O 0.69424 0.78486 0.26327
 O575 O 0.72467 0.71322 0.26425
 O576 O 0.75278 0.70768 0.24230
 O577 O 0.75077 0.71340 0.29081
 O578 O 0.77337 0.70785 0.26313
 O579 O 0.70087 0.73645 0.26440
 O580 O 0.69456 0.76438 0.24244
 O581 O 0.72398 0.76221 0.31460
 O582 O 0.75044 0.78514 0.32078
 O583 O 0.75013 0.79142 0.21383
 O584 O 0.72917 0.76404 0.20802
 O585 O 0.80156 0.76438 0.23707
 O586 O 0.80630 0.74154 0.26408
 O587 O 0.77747 0.81469 0.26518
 O588 O 0.75017 0.81975 0.28644
 Zr589 Zr 0.75124 0.79882 0.26381
 O590 O 0.73313 0.78179 0.28180
 Zr591 Zr 0.78599 0.76489 0.26355
 O592 O 0.76945 0.74646 0.28176
 Zr593 Zr 0.75164 0.76489 0.22921
 O594 O 0.73366 0.74630 0.24574
 Zr595 Zr 0.75038 0.76310 0.29904
 O596 O 0.76869 0.78177 0.28264
 Zr597 Zr 0.71614 0.76302 0.26457
 O598 O 0.73253 0.78179 0.24637
 Zr599 Zr 0.75094 0.72913 0.26445
 O600 O 0.76912 0.74606 0.24610
 O601 O 0.76962 0.78304 0.24553
 O602 O 0.73237 0.74475 0.28278
 C603 C 0.74933 0.80921 0.21963
 C604 C 0.79539 0.80920 0.26603
 C605 C 0.79593 0.76375 0.21921
 C606 C 0.75060 0.71884 0.30871
 C607 C 0.70614 0.76203 0.30889
 C608 C 0.70673 0.71867 0.26429
 H609 H 0.72487 0.79048 0.28981
 H610 H 0.72574 0.73823 0.23679
 H611 H 0.77786 0.79157 0.23732
 H612 H 0.77829 0.73851 0.28997
 H613 H 0.78289 0.77209 0.31592
 H614 H 0.80464 0.75822 0.29580
 H615 H 0.69747 0.75404 0.23280
 H616 H 0.71873 0.77289 0.21269
 H617 H 0.74000 0.79464 0.31769
 H618 H 0.75911 0.81505 0.29681
 H619 H 0.74239 0.71044 0.23263
 H620 H 0.76006 0.73234 0.21238
 H621 H 0.71818 0.81509 0.25601
 H622 H 0.69672 0.79425 0.27394
 H623 H 0.80231 0.73225 0.25376
 H624 H 0.78275 0.71058 0.27377
 O625 O 0.74946 0.19894 0.77661
 O626 O 0.72877 0.19326 0.74947
 O627 O 0.80079 0.22268 0.74909
 O628 O 0.80856 0.24812 0.73093
 O629 O 0.77654 0.24975 0.80093
 O630 O 0.74970 0.27080 0.80647
 O631 O 0.74946 0.27619 0.69917
 O632 O 0.77201 0.25083 0.69385
 O633 O 0.69963 0.25067 0.72292
 O634 O 0.69303 0.22915 0.75038
 O635 O 0.72367 0.30035 0.74888
 O636 O 0.75106 0.30659 0.77063
 O637 O 0.74968 0.29982 0.72250
 O638 O 0.77263 0.30523 0.75081
 O639 O 0.69990 0.27721 0.74882
 O640 O 0.69416 0.24910 0.77180
 O641 O 0.72301 0.25064 0.69934
 O642 O 0.75009 0.22745 0.69379
 O643 O 0.74908 0.22224 0.80031
 O644 O 0.72745 0.24991 0.80541
 O645 O 0.80035 0.24959 0.77777
 O646 O 0.80478 0.27274 0.75018
 O647 O 0.77740 0.19911 0.74941
 O648 O 0.75006 0.19394 0.72762
 Zr649 Zr 0.75084 0.21474 0.75038
 O650 O 0.73242 0.23153 0.73234
 Zr651 Zr 0.78510 0.24897 0.75095
 O652 O 0.76850 0.26692 0.73217
 Zr653 Zr 0.75042 0.24882 0.78485
 O654 O 0.73262 0.26745 0.76800
 Zr655 Zr 0.74955 0.25002 0.71499
 O656 O 0.76821 0.23182 0.73170
 Zr657 Zr 0.71527 0.25052 0.74930
 O658 O 0.73173 0.23171 0.76755
 Zr659 Zr 0.74989 0.28442 0.74916
 O660 O 0.76787 0.26774 0.76809
 O661 O 0.76880 0.23076 0.76883
 O662 O 0.73143 0.26855 0.73095
 C663 C 0.74868 0.20443 0.79449
 C664 C 0.79524 0.20483 0.74870
 C665 C 0.79447 0.25008 0.79555
 C666 C 0.74945 0.29406 0.70468
 C667 C 0.70516 0.25082 0.70506
 C668 C 0.70575 0.29498 0.74866
 H669 H 0.72422 0.22273 0.72442
 H670 H 0.72464 0.27565 0.77678
 H671 H 0.77708 0.22230 0.77715
 H672 H 0.77733 0.27475 0.72390
 H673 H 0.78220 0.24151 0.69820
 H674 H 0.80395 0.25440 0.71877
 H675 H 0.69616 0.26042 0.78052
 H676 H 0.71752 0.24038 0.80103
 H677 H 0.73924 0.21837 0.69652
 H678 H 0.75952 0.19835 0.71765
 H679 H 0.74142 0.30332 0.78084
 H680 H 0.75805 0.28153 0.80164
 H681 H 0.71796 0.19817 0.75770
 H682 H 0.69632 0.21891 0.74077
 H683 H 0.80125 0.28152 0.76110
 H684 H 0.78139 0.30313 0.73953
 O685 O 0.23656 0.78721 0.77835
 O686 O 0.25821 0.79280 0.75169
 O687 O 0.18562 0.76443 0.74878
 O688 O 0.17872 0.73922 0.72949
 O689 O 0.20798 0.73641 0.80096
 O690 O 0.23496 0.71480 0.80690
 O691 O 0.23749 0.71003 0.70035
 O692 O 0.21465 0.73629 0.69506
 O693 O 0.28699 0.73588 0.72493
 O694 O 0.29262 0.75783 0.75293
 O695 O 0.26262 0.68615 0.75056
 O696 O 0.23399 0.68067 0.77244
 O697 O 0.23699 0.68654 0.72382
 O698 O 0.21409 0.68060 0.75083
 O699 O 0.28629 0.70939 0.75099
 O700 O 0.29207 0.73703 0.77364
 O701 O 0.26398 0.73566 0.70093
 O702 O 0.24063 0.75808 0.69440
 O703 O 0.23589 0.76362 0.80174
 O704 O 0.25671 0.73620 0.80755
 O705 O 0.18497 0.73707 0.77691
 O706 O 0.18082 0.71471 0.74932
 O707 O 0.20927 0.78766 0.75044
 O708 O 0.23809 0.79348 0.72989
 Zr709 Zr 0.23565 0.77181 0.75175
 O710 O 0.25402 0.75492 0.73381
 Zr711 Zr 0.20109 0.73795 0.75078
 O712 O 0.21804 0.71959 0.73279
 Zr713 Zr 0.23474 0.73737 0.78587
 O714 O 0.25317 0.71902 0.76945
 Zr715 Zr 0.23735 0.73637 0.71607
 O716 O 0.21867 0.75511 0.73220
 Zr717 Zr 0.27090 0.73598 0.75110
 O718 O 0.25409 0.75448 0.76929
 Zr719 Zr 0.23627 0.70206 0.75028
 O720 O 0.21762 0.71884 0.76837
 O721 O 0.21701 0.75578 0.76944
 O722 O 0.25512 0.71787 0.73247
 C723 C 0.23676 0.78147 0.79618
 C724 C 0.19141 0.78222 0.74891
 C725 C 0.19023 0.73624 0.79488
 C726 C 0.23746 0.69218 0.70599
 C727 C 0.28172 0.73567 0.70696
 C728 C 0.28053 0.69161 0.75071
 H729 H 0.26214 0.76370 0.72577
 H730 H 0.26099 0.71083 0.77842
 H731 H 0.20857 0.76419 0.77762
 H732 H 0.20937 0.71174 0.72434
 H733 H 0.20593 0.74740 0.69821
 H734 H 0.18368 0.73253 0.71771
 H735 H 0.28918 0.72640 0.78295
 H736 H 0.26735 0.74486 0.80308
 H737 H 0.23259 0.76930 0.69856
 H738 H 0.22693 0.79184 0.72085
 H739 H 0.24478 0.68279 0.78183
 H740 H 0.22595 0.70461 0.80205
 H741 H 0.26846 0.78789 0.76066
 H742 H 0.28998 0.76750 0.74254
 H743 H 0.18461 0.70521 0.75954
 H744 H 0.20472 0.68364 0.74025
 O745 O 0.24873 0.31637 0.73928
 O746 O 0.22780 0.32143 0.76669
 O747 O 0.30042 0.29262 0.76688
 O748 O 0.30778 0.26701 0.78559
 O749 O 0.27670 0.26574 0.71483
 O750 O 0.24952 0.24464 0.70906
 O751 O 0.25007 0.23751 0.81564
 O752 O 0.27276 0.26373 0.82088
 O753 O 0.19969 0.26364 0.79280
 O754 O 0.19333 0.28669 0.76576
 O755 O 0.22333 0.21487 0.76536
 O756 O 0.25133 0.20949 0.74297
 O757 O 0.24964 0.21455 0.79166
 O758 O 0.27194 0.20910 0.76382
 O759 O 0.19967 0.23824 0.76581
 O760 O 0.19347 0.26668 0.74424
 O761 O 0.22332 0.26280 0.81618
 O762 O 0.24658 0.28539 0.82261
 O763 O 0.24895 0.29326 0.71542
 O764 O 0.22779 0.26615 0.70955
 O765 O 0.30033 0.26574 0.73827
 O766 O 0.30521 0.24292 0.76533
 O767 O 0.27677 0.31604 0.76634
 O768 O 0.24866 0.32152 0.78793
 Zr769 Zr 0.25036 0.30035 0.76550
 O770 O 0.23243 0.28317 0.78355
 Zr771 Zr 0.28489 0.26627 0.76483
 O772 O 0.26841 0.24762 0.78286
 Zr773 Zr 0.25036 0.26666 0.73064
 O774 O 0.23236 0.24805 0.74711
 Zr775 Zr 0.24955 0.26414 0.80043
 O776 O 0.26783 0.28313 0.78423
 Zr777 Zr 0.21511 0.26471 0.76626
 O778 O 0.23146 0.28352 0.74807
 Zr779 Zr 0.24972 0.23058 0.76548
 O780 O 0.26790 0.24764 0.74727
 O781 O 0.26852 0.28460 0.74699
 O782 O 0.23136 0.24610 0.78409
 C783 C 0.24820 0.31099 0.72134
 C784 C 0.29465 0.31045 0.76722
 C785 C 0.29460 0.26527 0.72043
 C786 C 0.24984 0.21979 0.80963
 C787 C 0.20544 0.26278 0.81061
 C788 C 0.20542 0.22043 0.76553
 H789 H 0.22450 0.29176 0.79202
 H790 H 0.22432 0.24014 0.73814
 H791 H 0.27676 0.29310 0.73875
 H792 H 0.27731 0.23956 0.79091
 H793 H 0.28131 0.27491 0.81773
 H794 H 0.30307 0.26017 0.79738
 H795 H 0.19610 0.25630 0.73456
 H796 H 0.21742 0.27500 0.71437
 H797 H 0.25438 0.29675 0.81847
 H798 H 0.26011 0.31962 0.79656
 H799 H 0.24064 0.21218 0.73362
 H800 H 0.25852 0.23421 0.71347
 H801 H 0.21724 0.31669 0.75804
 H802 H 0.19613 0.29591 0.77650
 H803 H 0.30113 0.23361 0.75507
 H804 H 0.28142 0.21167 0.77441
 O805 O 0.76630 0.69982 0.70673
 O806 O 0.78731 0.69385 0.73415
 O807 O 0.71480 0.72307 0.73466
 O808 O 0.70741 0.74829 0.75381
 O809 O 0.73917 0.75128 0.68350
 O810 O 0.76655 0.77252 0.67885
 O811 O 0.76496 0.77636 0.78541
 O812 O 0.74211 0.75005 0.78960
 O813 O 0.81551 0.75019 0.76246
 O814 O 0.82191 0.72818 0.73478
 O815 O 0.79246 0.80017 0.73658
 O816 O 0.76499 0.80653 0.71366
 O817 O 0.76562 0.80003 0.76213
 O818 O 0.74387 0.80635 0.73398
 O819 O 0.81594 0.77660 0.73660
 O820 O 0.82205 0.74887 0.71387
 O821 O 0.79166 0.75081 0.78556
 O822 O 0.76813 0.72831 0.79114
 O823 O 0.76668 0.72364 0.68356
 O824 O 0.78808 0.75071 0.67880
 O825 O 0.71536 0.75064 0.70666
 O826 O 0.71036 0.77281 0.73425
 O827 O 0.73826 0.69948 0.73371
 O828 O 0.76624 0.69296 0.75504
 Zr829 Zr 0.76478 0.71499 0.73344
 O830 O 0.78264 0.73147 0.75225
 Zr831 Zr 0.73052 0.74935 0.73339
 O832 O 0.74697 0.76733 0.75216
 Zr833 Zr 0.76535 0.74975 0.69962
 O834 O 0.78337 0.76767 0.71689
 Zr835 Zr 0.76553 0.75015 0.76948
 O836 O 0.74730 0.73178 0.75248
 Zr837 Zr 0.80028 0.75028 0.73574
 O838 O 0.78395 0.73219 0.71675
 Zr839 Zr 0.76595 0.78472 0.73553
 O840 O 0.74780 0.76837 0.71660
 O841 O 0.74691 0.73145 0.71521
 O842 O 0.78401 0.76850 0.75390
 C843 C 0.76708 0.70573 0.68896
 C844 C 0.72042 0.70519 0.73463
 C845 C 0.72123 0.75161 0.68890
 C846 C 0.76520 0.79426 0.77992
 C847 C 0.80961 0.75066 0.78021
 C848 C 0.81032 0.79445 0.73697
 H849 H 0.79041 0.72255 0.76056
 H850 H 0.79159 0.77580 0.70830
 H851 H 0.73865 0.72324 0.70667
 H852 H 0.73803 0.77521 0.76031
 H853 H 0.73352 0.73903 0.78597
 H854 H 0.71207 0.75469 0.76586
 H855 H 0.81985 0.75985 0.70475
 H856 H 0.79846 0.74185 0.68361
 H857 H 0.76048 0.71705 0.78650
 H858 H 0.75499 0.69485 0.76388
 H859 H 0.77589 0.80408 0.70452
 H860 H 0.75754 0.78283 0.68350
 H861 H 0.79773 0.69861 0.72536
 H862 H 0.81873 0.71843 0.74492
 H863 H 0.71450 0.78230 0.72420
 H864 H 0.73417 0.80350 0.74426
 O865 O 0.24877 0.69815 0.27591
 O866 O 0.22877 0.69279 0.24817
 O867 O 0.30048 0.72293 0.25007
 O868 O 0.30847 0.74877 0.23266
 O869 O 0.27466 0.74887 0.30180
 O870 O 0.24741 0.76948 0.30702
 O871 O 0.24994 0.77681 0.19988
 O872 O 0.27278 0.75176 0.19463
 O873 O 0.19973 0.75044 0.22188
 O874 O 0.19268 0.72824 0.24871
 O875 O 0.22257 0.79978 0.24934
 O876 O 0.24930 0.80593 0.27186
 O877 O 0.24925 0.80000 0.22364
 O878 O 0.27145 0.80509 0.25263
 O879 O 0.19907 0.77640 0.24835
 O880 O 0.19304 0.74775 0.27056
 O881 O 0.22371 0.75111 0.19893
 O882 O 0.25117 0.72811 0.19371
 O883 O 0.24755 0.72101 0.30000
 O884 O 0.22549 0.74832 0.30507
 O885 O 0.29904 0.74936 0.27924
 O886 O 0.30389 0.77301 0.25215
 O887 O 0.27735 0.69912 0.24933
 O888 O 0.25056 0.69401 0.22690
 Zr889 Zr 0.25061 0.71445 0.25000
 O890 O 0.23248 0.73138 0.23179
 Zr891 Zr 0.28447 0.74901 0.25205
 O892 O 0.26817 0.76713 0.23318
 Zr893 Zr 0.24896 0.74788 0.28506
 O894 O 0.23139 0.76663 0.26809
 Zr895 Zr 0.24984 0.75035 0.21522
 O896 O 0.26825 0.73204 0.23208
 Zr897 Zr 0.21470 0.74986 0.24864
 O898 O 0.23089 0.73091 0.26698
 Zr899 Zr 0.24895 0.78412 0.25001
 O900 O 0.26662 0.76728 0.26909
 O901 O 0.26794 0.73030 0.26918
 O902 O 0.23113 0.76839 0.23105
 C903 C 0.24748 0.70331 0.29385
 C904 C 0.29514 0.70504 0.24916
 C905 C 0.29271 0.74952 0.29688
 C906 C 0.24958 0.79457 0.20571
 C907 C 0.20572 0.75104 0.20419
 C908 C 0.20473 0.79423 0.24863
 H909 H 0.22458 0.72265 0.22349
 H910 H 0.22310 0.77458 0.27681
 H911 H 0.27612 0.72179 0.27755
 H912 H 0.27712 0.77519 0.22528
 H913 H 0.28299 0.74252 0.19910
 H914 H 0.30408 0.75514 0.22046
 H915 H 0.19473 0.75888 0.27960
 H916 H 0.21577 0.73879 0.30024
 H917 H 0.24014 0.71908 0.19578
 H918 H 0.26010 0.69875 0.21716
 H919 H 0.23945 0.80237 0.28178
 H920 H 0.25574 0.78039 0.30259
 H921 H 0.21773 0.69741 0.25628
 H922 H 0.19632 0.71824 0.23897
 H923 H 0.30001 0.78156 0.26313
 H924 H 0.28041 0.80342 0.24145
 O925 O 0.73487 0.28470 0.27699
 O926 O 0.75629 0.29056 0.25032
 O927 O 0.68414 0.26116 0.24754
 O928 O 0.67751 0.23577 0.22842
 O929 O 0.70699 0.23368 0.29981
 O930 O 0.73422 0.21238 0.30577
 O931 O 0.73675 0.20732 0.19922
 O932 O 0.71348 0.23307 0.19384
 O933 O 0.78582 0.23386 0.22360
 O934 O 0.79126 0.25594 0.25156
 O935 O 0.76212 0.18390 0.24950
 O936 O 0.73363 0.17808 0.27137
 O937 O 0.73655 0.18390 0.22276
 O938 O 0.71367 0.17775 0.24985
 O939 O 0.78551 0.20742 0.24970
 O940 O 0.79096 0.23522 0.27235
 O941 O 0.76274 0.23330 0.19966
 O942 O 0.73900 0.25553 0.19325
 O943 O 0.73461 0.26116 0.30044
 O944 O 0.75575 0.23402 0.30626
 O945 O 0.68391 0.23396 0.27583
 O946 O 0.68001 0.21137 0.24836
 O947 O 0.70750 0.28469 0.24909
 O948 O 0.73630 0.29078 0.22845
 Zr949 Zr 0.73408 0.26920 0.25044
 O950 O 0.75264 0.25250 0.23251
 Zr951 Zr 0.69995 0.23489 0.24965
 O952 O 0.71709 0.21671 0.23167
 Zr953 Zr 0.73369 0.23486 0.28465
 O954 O 0.75232 0.21670 0.26825
 Zr955 Zr 0.73615 0.23369 0.21487
 O956 O 0.71726 0.25223 0.23098
 Zr957 Zr 0.76980 0.23383 0.24982
 O958 O 0.75278 0.25217 0.26798
 Zr959 Zr 0.73558 0.19947 0.24918
 O960 O 0.71677 0.21606 0.26727
 O961 O 0.71569 0.25300 0.26821
 O962 O 0.75419 0.21548 0.23129
 C963 C 0.73525 0.27901 0.29484
 C964 C 0.68972 0.27902 0.24760
 C965 C 0.68922 0.23329 0.29379
 C966 C 0.73700 0.18949 0.20491
 C967 C 0.78049 0.23353 0.20564
 C968 C 0.77996 0.18957 0.24953
 H969 H 0.76063 0.26136 0.22443
 H970 H 0.76026 0.20864 0.27723
 H971 H 0.70718 0.26135 0.27638
 H972 H 0.70853 0.20872 0.22325
 H973 H 0.70450 0.24396 0.19699
 H974 H 0.68251 0.22907 0.21667
 H975 H 0.78836 0.22444 0.28157
 H976 H 0.76630 0.24274 0.30168
 H977 H 0.73048 0.26644 0.19725
 H978 H 0.72507 0.28910 0.21951
 H979 H 0.74425 0.18052 0.28086
 H980 H 0.72527 0.20210 0.30103
 H981 H 0.76671 0.28575 0.25914
 H982 H 0.78849 0.26555 0.24114
 H983 H 0.68393 0.20199 0.25864
 H984 H 0.70432 0.18056 0.23918
 C985 C 0.25901 0.06274 0.04904
 C986 C 0.26059 0.07665 0.05969
 C987 C 0.26199 0.09285 0.07296
 C988 C 0.24520 0.10344 0.07785
 C989 C 0.24619 0.11837 0.09170
 C990 C 0.26401 0.12288 0.10089
 C991 C 0.28088 0.11233 0.09566
 C992 C 0.27985 0.09740 0.08179
 C993 C 0.26484 0.13813 0.11625
 C994 C 0.27598 0.13518 0.13328
 C995 C 0.27621 0.14924 0.14805
 C996 C 0.26534 0.16643 0.14600
 C997 C 0.25437 0.16959 0.12904
 C998 C 0.25411 0.15555 0.11426
 C999 C 0.26518 0.18069 0.16140
 C1000 C 0.26483 0.19265 0.17427
 H1001 H 0.23127 0.09993 0.07122
 H1002 H 0.23290 0.12602 0.09560
 H1003 H 0.29484 0.11561 0.10230
 H1004 H 0.29293 0.08925 0.07814
 H1005 H 0.28417 0.12181 0.13538
 H1006 H 0.28471 0.14661 0.16115
 H1007 H 0.24593 0.18288 0.12729
 H1008 H 0.24558 0.15836 0.10123
 C1009 C 0.76253 0.56127 0.54871
 C1010 C 0.76477 0.57477 0.55975
 C1011 C 0.76697 0.59046 0.57351
 C1012 C 0.76041 0.60924 0.56884
 C1013 C 0.76143 0.62416 0.58272
 C1014 C 0.76901 0.62045 0.60148
 C1015 C 0.77587 0.60160 0.60589
 C1016 C 0.77483 0.58671 0.59200
 C1017 C 0.76920 0.63599 0.61658
 C1018 C 0.78513 0.63789 0.62944
 C1019 C 0.78496 0.65213 0.64406
 C1020 C 0.76889 0.66463 0.64600
 C1021 C 0.75305 0.66295 0.63320
 C1022 C 0.75318 0.64874 0.61858
 C1023 C 0.76852 0.67907 0.66123
 C1024 C 0.76798 0.69120 0.67395
 H1025 H 0.75428 0.61229 0.55458
 H1026 H 0.75626 0.63858 0.57881
 H1027 H 0.78153 0.59821 0.62026
 H1028 H 0.77982 0.57219 0.59581
 H1029 H 0.79776 0.62844 0.62814
 H1030 H 0.79732 0.65334 0.65387
 H1031 H 0.74050 0.67251 0.63462
 H1032 H 0.74058 0.64746 0.60911
 C1033 C 0.74561 0.93696 0.06389
 C1034 C 0.74528 0.92720 0.07852
 C1035 C 0.74528 0.91526 0.09579
 C1036 C 0.72772 0.91081 0.10521
 C1037 C 0.72775 0.89863 0.12159
 C1038 C 0.74536 0.89073 0.12875
 C1039 C 0.76294 0.89549 0.11929
 C1040 C 0.76288 0.90765 0.10292
 C1041 C 0.74539 0.87719 0.14567
 C1042 C 0.76020 0.87818 0.15990
 C1043 C 0.76066 0.86488 0.17537
 C1044 C 0.74633 0.85044 0.17683
 C1045 C 0.73140 0.84948 0.16290
 C1046 C 0.73090 0.86277 0.14743
 C1047 C 0.74728 0.83620 0.19224
 C1048 C 0.74818 0.82402 0.20490
 H1049 H 0.71402 0.91664 0.09982
 H1050 H 0.71401 0.89543 0.12869
 H1051 H 0.77670 0.88944 0.12426
 H1052 H 0.77655 0.91093 0.09569
 H1053 H 0.77142 0.88926 0.15909
 H1054 H 0.77228 0.86575 0.18609
 H1055 H 0.72029 0.83830 0.16383
 H1056 H 0.71947 0.86145 0.13657
 C1057 C 0.24495 0.43890 0.56575
 C1058 C 0.24459 0.42925 0.58044
 C1059 C 0.24453 0.41736 0.59776
 C1060 C 0.22692 0.41275 0.60699
 C1061 C 0.22689 0.40053 0.62334
 C1062 C 0.24449 0.39276 0.63065
 C1063 C 0.26213 0.39769 0.62139
 C1064 C 0.26213 0.40990 0.60505
 C1065 C 0.24447 0.37916 0.64754
 C1066 C 0.25913 0.38023 0.66192
 C1067 C 0.25952 0.36691 0.67737
 C1068 C 0.24527 0.35238 0.67868
 C1069 C 0.23049 0.35133 0.66458
 C1070 C 0.23007 0.36464 0.64912
 C1071 C 0.24617 0.33812 0.69407
 C1072 C 0.24704 0.32590 0.70669
 H1073 H 0.21322 0.41847 0.60147
 H1074 H 0.21311 0.39719 0.63029
 H1075 H 0.27589 0.39174 0.62647
 H1076 H 0.27583 0.41330 0.59795
 H1077 H 0.27028 0.39138 0.66123
 H1078 H 0.27103 0.36784 0.68820
 H1079 H 0.21945 0.34007 0.66539
 H1080 H 0.21876 0.36325 0.63815
 C1081 C 0.74718 0.05295 0.92773
 C1082 C 0.74637 0.06562 0.91556
 C1083 C 0.74581 0.08142 0.90175
 C1084 C 0.75012 0.10036 0.90801
 C1085 C 0.74993 0.11583 0.89475
 C1086 C 0.74541 0.11257 0.87498
 C1087 C 0.74102 0.09348 0.86882
 C1088 C 0.74121 0.07801 0.88214
 C1089 C 0.74554 0.12901 0.86086
 C1090 C 0.75347 0.12653 0.84210
 C1091 C 0.75395 0.14211 0.82895
 C1092 C 0.74649 0.16035 0.83434
 C1093 C 0.73849 0.16296 0.85293
 C1094 C 0.73801 0.14740 0.86612
 C1095 C 0.74709 0.17632 0.82072
 C1096 C 0.74774 0.18938 0.80898
 H1097 H 0.75378 0.10315 0.92314
 H1098 H 0.75365 0.13028 0.89989
 H1099 H 0.73726 0.09055 0.85375
 H1100 H 0.73782 0.06341 0.87715
 H1101 H 0.75962 0.11265 0.83771
 H1102 H 0.76021 0.13994 0.81460
 H1103 H 0.73262 0.17701 0.85723
 H1104 H 0.73160 0.14971 0.88037
 C1105 C 0.24486 0.55191 0.42702
 C1106 C 0.24376 0.56403 0.41431
 C1107 C 0.24277 0.57914 0.39975
 C1108 C 0.22975 0.59473 0.40210
 C1109 C 0.22965 0.61013 0.38872
 C1110 C 0.24261 0.61014 0.37280
 C1111 C 0.25544 0.59425 0.37040
 C1112 C 0.25553 0.57887 0.38382
 C1113 C 0.24302 0.62685 0.35900
 C1114 C 0.24523 0.62369 0.33884
 C1115 C 0.24592 0.63945 0.32592
 C1116 C 0.24443 0.65857 0.33294
 C1117 C 0.24216 0.66187 0.35296
 C1118 C 0.24145 0.64613 0.36591
 C1119 C 0.24537 0.67473 0.31957
 C1120 C 0.24628 0.68799 0.30805
 H1121 H 0.21985 0.59511 0.41441
 H1122 H 0.21942 0.62201 0.39082
 H1123 H 0.26575 0.59394 0.35845
 H1124 H 0.26579 0.56695 0.38196
 H1125 H 0.24625 0.60903 0.33305
 H1126 H 0.24764 0.63673 0.31044
 H1127 H 0.24106 0.67661 0.35856
 H1128 H 0.24002 0.64905 0.38137
 C1129 C 0.24577 0.92651 0.93635
 C1130 C 0.24511 0.91316 0.92492
 C1131 C 0.24397 0.89770 0.91075
 C1132 C 0.25581 0.88112 0.91248
 C1133 C 0.25489 0.86638 0.89839
 C1134 C 0.24212 0.86808 0.88234
 C1135 C 0.23020 0.88476 0.88083
 C1136 C 0.23113 0.89945 0.89493
 C1137 C 0.24131 0.85263 0.86715
 C1138 C 0.23975 0.85764 0.84729
 C1139 C 0.23888 0.84314 0.83298
 C1140 C 0.23954 0.82344 0.83830
 C1141 C 0.24113 0.81830 0.85800
 C1142 C 0.24203 0.83278 0.87235
 C1143 C 0.23856 0.80856 0.82351
 C1144 C 0.23773 0.79617 0.81105
 H1145 H 0.26586 0.87965 0.92463
 H1146 H 0.26441 0.85382 0.89984
 H1147 H 0.22002 0.88638 0.86882
 H1148 H 0.22187 0.91221 0.89346
 H1149 H 0.23945 0.87278 0.84279
 H1150 H 0.23771 0.84729 0.81776
 H1151 H 0.24161 0.80309 0.86229
 H1152 H 0.24300 0.82846 0.88752
 C1153 C 0.74622 0.42411 0.43469
 C1154 C 0.74564 0.41050 0.42357
 C1155 C 0.74474 0.39462 0.40985
 C1156 C 0.72690 0.38547 0.40597
 C1157 C 0.72582 0.37066 0.39199
 C1158 C 0.74259 0.36484 0.38163
 C1159 C 0.76049 0.37400 0.38578
 C1160 C 0.76154 0.38880 0.39979
 C1161 C 0.74133 0.34952 0.36635
 C1162 C 0.75163 0.35151 0.34871
 C1163 C 0.75028 0.33722 0.33422
 C1164 C 0.73862 0.32074 0.33715
 C1165 C 0.72834 0.31859 0.35465
 C1166 C 0.72967 0.33288 0.36916
 C1167 C 0.73728 0.30604 0.32221
 C1168 C 0.73628 0.29372 0.30969
 H1169 H 0.71377 0.38997 0.41357
 H1170 H 0.71178 0.36408 0.38895
 H1171 H 0.77370 0.36968 0.37825
 H1172 H 0.77542 0.39581 0.40265
 H1173 H 0.76051 0.36427 0.34598
 H1174 H 0.75827 0.33905 0.32072
 H1175 H 0.71933 0.30586 0.35710
 H1176 H 0.72175 0.33080 0.38266
 C1177 C 0.06206 0.25408 0.06283
 C1178 C 0.07621 0.25504 0.07328
 C1179 C 0.09275 0.25579 0.08624
 C1180 C 0.09038 0.25097 0.10593
 C1181 C 0.10638 0.25133 0.11861
 C1182 C 0.12502 0.25652 0.11176
 C1183 C 0.12727 0.26137 0.09193
 C1184 C 0.11122 0.26102 0.07926
 C1185 C 0.14200 0.25667 0.12527
 C1186 C 0.16026 0.24932 0.11931
 C1187 C 0.17603 0.24885 0.13232
 C1188 C 0.17376 0.25576 0.15140
 C1189 C 0.15574 0.26332 0.15737
 C1190 C 0.13997 0.26379 0.14442
 C1191 C 0.18971 0.25469 0.16507
 C1192 C 0.20276 0.25371 0.17687
 H1193 H 0.07617 0.24681 0.11147
 H1194 H 0.10422 0.24723 0.13370
 H1195 H 0.14139 0.26562 0.08627
 H1196 H 0.11321 0.26479 0.06404
 H1197 H 0.16223 0.24353 0.10474
 H1198 H 0.18991 0.24290 0.12756
 H1199 H 0.15384 0.26875 0.17210
 H1200 H 0.12620 0.26980 0.14935
 C1201 C 0.56539 0.75550 0.56098
 C1202 C 0.58011 0.75645 0.57062
 C1203 C 0.59745 0.75719 0.58249
 C1204 C 0.59828 0.76973 0.59858
 C1205 C 0.61468 0.76969 0.61076
 C1206 C 0.63047 0.75705 0.60704
 C1207 C 0.62961 0.74471 0.59065
 C1208 C 0.61320 0.74478 0.57847
 C1209 C 0.64743 0.75629 0.62056
 C1210 C 0.65582 0.73826 0.62579
 C1211 C 0.67128 0.73744 0.63913
 C1212 C 0.67858 0.75461 0.64739
 C1213 C 0.67050 0.77263 0.64212
 C1214 C 0.65503 0.77348 0.62879
 C1215 C 0.69393 0.75365 0.66174
 C1216 C 0.70654 0.75276 0.67401
 H1217 H 0.58612 0.77931 0.60189
 H1218 H 0.61477 0.77917 0.62340
 H1219 H 0.64163 0.73499 0.58725
 H1220 H 0.61271 0.73501 0.56606
 H1221 H 0.65012 0.72475 0.61995
 H1222 H 0.67735 0.72341 0.64319
 H1223 H 0.67605 0.78601 0.64844
 H1224 H 0.64903 0.78759 0.62490
 C1225 C 0.04892 0.74062 0.93848
 C1226 C 0.06022 0.73856 0.92515
 C1227 C 0.07436 0.73653 0.90978
 C1228 C 0.09410 0.73397 0.91450
 C1229 C 0.10812 0.73290 0.89975
 C1230 C 0.10260 0.73441 0.88002
 C1231 C 0.08268 0.73678 0.87539
 C1232 C 0.06866 0.73783 0.89020
 C1233 C 0.11765 0.73403 0.86444
 C1234 C 0.11643 0.74690 0.84848
 C1235 C 0.13104 0.74708 0.83425
 C1236 C 0.14703 0.73441 0.83574
 C1237 C 0.14827 0.72140 0.85143
 C1238 C 0.13369 0.72119 0.86568
 C1239 C 0.16228 0.73494 0.82133
 C1240 C 0.17507 0.73549 0.80928
 H1241 H 0.09869 0.73308 0.92961
 H1242 H 0.12333 0.73138 0.90381
 H1243 H 0.07796 0.73776 0.86034
 H1244 H 0.05342 0.73983 0.88638
 H1245 H 0.10442 0.75713 0.84724
 H1246 H 0.12997 0.75725 0.82219
 H1247 H 0.16056 0.71148 0.85270
 H1248 H 0.13492 0.71094 0.87765
 C1249 C 0.54929 0.23849 0.43864
 C1250 C 0.56050 0.23632 0.42527
 C1251 C 0.57450 0.23419 0.40977
 C1252 C 0.59429 0.23180 0.41430
 C1253 C 0.60815 0.23063 0.39940
 C1254 C 0.60239 0.23187 0.37972
 C1255 C 0.58242 0.23407 0.37530
 C1256 C 0.56856 0.23523 0.39025
 C1257 C 0.61726 0.23135 0.36397
 C1258 C 0.61578 0.24400 0.34785
 C1259 C 0.63021 0.24406 0.33344
 C1260 C 0.64628 0.23148 0.33491
 C1261 C 0.64777 0.21868 0.35075
 C1262 C 0.63336 0.21860 0.36518
 C1263 C 0.66141 0.23196 0.32037
 C1264 C 0.67412 0.23250 0.30824
 H1265 H 0.59906 0.23112 0.42937
 H1266 H 0.62342 0.22924 0.40331
 H1267 H 0.57751 0.23485 0.36029
 H1268 H 0.55327 0.23710 0.38658
 H1269 H 0.60371 0.25416 0.34663
 H1270 H 0.62894 0.25407 0.32126
 H1271 H 0.66012 0.20885 0.35200
 H1272 H 0.63479 0.20852 0.37727
 C1273 C 0.93501 0.75550 0.07317
 C1274 C 0.92391 0.75616 0.08681
 C1275 C 0.91023 0.75721 0.10271
 C1276 C 0.89879 0.77397 0.10520
 C1277 C 0.88498 0.77485 0.12017
 C1278 C 0.88238 0.75894 0.13287
 C1279 C 0.89408 0.74220 0.13034
 C1280 C 0.90790 0.74136 0.11535
 C1281 C 0.86733 0.75970 0.14845
 C1282 C 0.85573 0.74328 0.15252
 C1283 C 0.84130 0.74412 0.16691
 C1284 C 0.83825 0.76135 0.17743
 C1285 C 0.84976 0.77774 0.17356
 C1286 C 0.86420 0.77693 0.15917
 C1287 C 0.82329 0.76224 0.19215
 C1288 C 0.81077 0.76296 0.20448
 H1289 H 0.90040 0.78628 0.09542
 H1290 H 0.87604 0.78782 0.12155
 H1291 H 0.89261 0.72981 0.14002
 H1292 H 0.91668 0.72831 0.11356
 H1293 H 0.85758 0.72989 0.14435
 H1294 H 0.83244 0.73136 0.16976
 H1295 H 0.84757 0.79114 0.18166
 H1296 H 0.87304 0.78974 0.15655
 C1297 C 0.43354 0.25563 0.57432
 C1298 C 0.42236 0.25645 0.58788
 C1299 C 0.40862 0.25765 0.60371
 C1300 C 0.39734 0.27453 0.60616
 C1301 C 0.38350 0.27556 0.62109
 C1302 C 0.38071 0.25968 0.63379
 C1303 C 0.39222 0.24282 0.63130
 C1304 C 0.40608 0.24183 0.61635
 C1305 C 0.36566 0.26062 0.64937
 C1306 C 0.35388 0.24433 0.65346
 C1307 C 0.33950 0.24533 0.66789
 C1308 C 0.33669 0.26259 0.67843
 C1309 C 0.34836 0.27884 0.67453
 C1310 C 0.36275 0.27789 0.66010
 C1311 C 0.32181 0.26361 0.69322
 C1312 C 0.30936 0.26441 0.70562
 H1313 H 0.39911 0.28682 0.59639
 H1314 H 0.37469 0.28863 0.62245
 H1315 H 0.39060 0.23045 0.64098
 H1316 H 0.41473 0.22869 0.61459
 H1317 H 0.35557 0.23093 0.64528
 H1318 H 0.33051 0.23266 0.67076
 H1319 H 0.34635 0.29226 0.68265
 H1320 H 0.37173 0.29059 0.65748
 C1321 C 0.92784 0.24913 0.94736
 C1322 C 0.91519 0.24963 0.93510
 C1323 C 0.90067 0.24984 0.91989
 C1324 C 0.89266 0.26751 0.91344
 C1325 C 0.87934 0.26772 0.89793
 C1326 C 0.87390 0.25023 0.88866
 C1327 C 0.88192 0.23254 0.89538
 C1328 C 0.89523 0.23237 0.91087
 C1329 C 0.86008 0.25041 0.87191
 C1330 C 0.84571 0.23589 0.87011
 C1331 C 0.83283 0.23594 0.85426
 C1332 C 0.83413 0.25048 0.83999
 C1333 C 0.84836 0.26501 0.84164
 C1334 C 0.86126 0.26499 0.85749
 C1335 C 0.82061 0.25059 0.82389
 C1336 C 0.80892 0.25048 0.81072
 H1337 H 0.89683 0.28113 0.92027
 H1338 H 0.87324 0.28153 0.89325
 H1339 H 0.87825 0.21887 0.88838
 H1340 H 0.90148 0.21863 0.91563
 H1341 H 0.84426 0.22462 0.88109
 H1342 H 0.82179 0.22469 0.85319
 H1343 H 0.84949 0.27634 0.83068
 H1344 H 0.87232 0.27621 0.85833
 C1345 C 0.42559 0.74981 0.44898
 C1346 C 0.41267 0.75036 0.43701
 C1347 C 0.39786 0.75072 0.42209
 C1348 C 0.38915 0.73332 0.41598
 C1349 C 0.37574 0.73342 0.40058
 C1350 C 0.37088 0.75097 0.39104
 C1351 C 0.37952 0.76843 0.39748
 C1352 C 0.39293 0.76829 0.41290
 C1353 C 0.35716 0.75096 0.37423
 C1354 C 0.36085 0.76259 0.35771
 C1355 C 0.34807 0.76236 0.34176
 C1356 C 0.33146 0.75052 0.34211
 C1357 C 0.32764 0.73895 0.35848
 C1358 C 0.34039 0.73915 0.37443
 C1359 C 0.31820 0.75032 0.32579
 C1360 C 0.30678 0.75003 0.31239
 H1361 H 0.39299 0.71961 0.42288
 H1362 H 0.36954 0.71971 0.39581
 H1363 H 0.37589 0.78220 0.39061
 H1364 H 0.39963 0.78184 0.41748
 H1365 H 0.37377 0.77163 0.35699
 H1366 H 0.35118 0.77137 0.32915
 H1367 H 0.31476 0.72980 0.35894
 H1368 H 0.33701 0.73022 0.38701
 C1369 C 0.07401 0.06521 0.24596
 C1370 C 0.08737 0.07662 0.24515
 C1371 C 0.10291 0.09067 0.24390
 C1372 C 0.11903 0.08948 0.25643
 C1373 C 0.13386 0.10344 0.25540
 C1374 C 0.13276 0.11879 0.24178
 C1375 C 0.11653 0.11977 0.22918
 C1376 C 0.10173 0.10582 0.23026
 C1377 C 0.14832 0.13384 0.24082
 C1378 C 0.15470 0.14107 0.22270
 C1379 C 0.16904 0.15553 0.22181
 C1380 C 0.17721 0.16295 0.23900
 C1381 C 0.17105 0.15579 0.25709
 C1382 C 0.15671 0.14132 0.25801
 C1383 C 0.19185 0.17797 0.23806
 C1384 C 0.20411 0.19053 0.23727
 H1385 H 0.12010 0.07780 0.26703
 H1386 H 0.14628 0.10214 0.26512
 H1387 H 0.11510 0.13154 0.21874
 H1388 H 0.08927 0.10694 0.22054
 H1389 H 0.14872 0.13544 0.20920
 H1390 H 0.17374 0.16092 0.20772
 H1391 H 0.17725 0.16146 0.27049
 H1392 H 0.15194 0.13625 0.27219
 C1393 C 0.57433 0.56652 0.74489
 C1394 C 0.58772 0.57786 0.74395
 C1395 C 0.60328 0.59186 0.74255
 C1396 C 0.62120 0.58846 0.75183
 C1397 C 0.63614 0.60228 0.75060
 C1398 C 0.63334 0.61970 0.74007
 C1399 C 0.61530 0.62293 0.73074
 C1400 C 0.60039 0.60910 0.73199
 C1401 C 0.64906 0.63456 0.73896
 C1402 C 0.65262 0.64467 0.72145
 C1403 C 0.66718 0.65890 0.72052
 C1404 C 0.67836 0.66324 0.73706
 C1405 C 0.67501 0.65321 0.75453
 C1406 C 0.66047 0.63896 0.75548
 C1407 C 0.69320 0.67804 0.73615
 C1408 C 0.70562 0.69045 0.73543
 H1409 H 0.62361 0.57514 0.76001
 H1410 H 0.64995 0.59926 0.75774
 H1411 H 0.61258 0.63629 0.72276
 H1412 H 0.58656 0.61192 0.72481
 H1413 H 0.64427 0.64144 0.70842
 H1414 H 0.66969 0.66654 0.70691
 H1415 H 0.68355 0.65650 0.76743
 H1416 H 0.65791 0.63164 0.76924
 C1417 C 0.94800 0.07256 0.74838
 C1418 C 0.93565 0.08511 0.74769
 C1419 C 0.92030 0.09949 0.74718
 C1420 C 0.91060 0.10361 0.72966
 C1421 C 0.89487 0.11666 0.72943
 C1422 C 0.88858 0.12570 0.74676
 C1423 C 0.89859 0.12163 0.76425
 C1424 C 0.91433 0.10860 0.76445
 C1425 C 0.87149 0.13911 0.74667
 C1426 C 0.85775 0.13858 0.76192
 C1427 C 0.84178 0.15133 0.76196
 C1428 C 0.83932 0.16477 0.74679
 C1429 C 0.85282 0.16533 0.73149
 C1430 C 0.86880 0.15258 0.73140
 C1431 C 0.82334 0.17845 0.74726
 C1432 C 0.81028 0.19026 0.74782
 H1433 H 0.91500 0.09651 0.71624
 H1434 H 0.88732 0.11931 0.71578
 H1435 H 0.89429 0.12857 0.77778
 H1436 H 0.92169 0.10546 0.77811
 H1437 H 0.85925 0.12819 0.77373
 H1438 H 0.83143 0.15079 0.77389
 H1439 H 0.85112 0.17577 0.71973
 H1440 H 0.87923 0.15350 0.71958
 C1441 C 0.44847 0.57355 0.24770
 C1442 C 0.43621 0.58619 0.24716
 C1443 C 0.42094 0.60065 0.24685
 C1444 C 0.41188 0.60571 0.22924
 C1445 C 0.39613 0.61875 0.22914
 C1446 C 0.38921 0.62683 0.24670
 C1447 C 0.39862 0.62186 0.26430
 C1448 C 0.41436 0.60884 0.26435
 C1449 C 0.37206 0.64015 0.24674
 C1450 C 0.35776 0.63868 0.26140
 C1451 C 0.34169 0.65130 0.26154
 C1452 C 0.33968 0.66553 0.24704
 C1453 C 0.35375 0.66704 0.23233
 C1454 C 0.36983 0.65442 0.23215
 C1455 C 0.32355 0.67901 0.24762
 C1456 C 0.31034 0.69065 0.24825
 H1457 H 0.41675 0.59932 0.21563
 H1458 H 0.38907 0.62212 0.21540
 H1459 H 0.39381 0.62806 0.27801
 H1460 H 0.42123 0.60497 0.27808
 H1461 H 0.35891 0.62765 0.27266
 H1462 H 0.33089 0.65001 0.27300
 H1463 H 0.35240 0.67810 0.22110
 H1464 H 0.38069 0.65606 0.22080
 C1465 C 0.06333 0.93820 0.74412
 C1466 C 0.07347 0.92382 0.74323
 C1467 C 0.08591 0.90688 0.74253
 C1468 C 0.07912 0.88885 0.74922
 C1469 C 0.09151 0.87259 0.74928
 C1470 C 0.11088 0.87417 0.74263
 C1471 C 0.11749 0.89234 0.73575
 C1472 C 0.10509 0.90856 0.73572
 C1473 C 0.12430 0.85712 0.74326
 C1474 C 0.13755 0.85366 0.72796
 C1475 C 0.15069 0.83805 0.72892
 C1476 C 0.15076 0.82566 0.74515
 C1477 C 0.13749 0.82881 0.76033
 C1478 C 0.12432 0.84442 0.75940
 C1479 C 0.16483 0.81007 0.74644
 C1480 C 0.17684 0.79723 0.74756
 H1481 H 0.06430 0.88739 0.75454
 H1482 H 0.08592 0.85877 0.75446
 H1483 H 0.13240 0.89411 0.73082
 H1484 H 0.11054 0.92248 0.73063
 H1485 H 0.13772 0.86301 0.71523
 H1486 H 0.16090 0.83573 0.71706
 H1487 H 0.13747 0.81936 0.77300
 H1488 H 0.11449 0.84683 0.77153
 C1489 C 0.56266 0.43554 0.24210
 C1490 C 0.57250 0.42097 0.24115
 C1491 C 0.58457 0.40377 0.24042
 C1492 C 0.60281 0.40445 0.23127
 C1493 C 0.61499 0.38805 0.23138
 C1494 C 0.60909 0.37076 0.24070
 C1495 C 0.59062 0.37016 0.24966
 C1496 C 0.57845 0.38657 0.24952
 C1497 C 0.62240 0.35363 0.24152
 C1498 C 0.62422 0.34264 0.25879
 C1499 C 0.63733 0.32701 0.25982
 C1500 C 0.64876 0.32211 0.24363
 C1501 C 0.64688 0.33278 0.22631
 C1502 C 0.63379 0.34843 0.22525
 C1503 C 0.66288 0.30659 0.24498
 C1504 C 0.67498 0.29385 0.24616
 H1505 H 0.60774 0.41773 0.22429
 H1506 H 0.62922 0.38908 0.22460
 H1507 H 0.58558 0.35699 0.25675
 H1508 H 0.56437 0.38590 0.25667
 H1509 H 0.61586 0.34644 0.27165
 H1510 H 0.63874 0.31891 0.27333
 H1511 H 0.65566 0.32911 0.21369
 H1512 H 0.63255 0.35645 0.21169
 C1513 C 0.93972 0.94952 0.26236
 C1514 C 0.92640 0.93826 0.26450
 C1515 C 0.91098 0.92419 0.26658
 C1516 C 0.89141 0.92989 0.26484
 C1517 C 0.87657 0.91594 0.26588
 C1518 C 0.88114 0.89609 0.26864
 C1519 C 0.90086 0.89058 0.27060
 C1520 C 0.91565 0.90453 0.26956
 C1521 C 0.86552 0.88110 0.26893
 C1522 C 0.86647 0.86531 0.28203
 C1523 C 0.85212 0.85083 0.28178
 C1524 C 0.83664 0.85194 0.26846
 C1525 C 0.83546 0.86769 0.25551
 C1526 C 0.84978 0.88218 0.25574
 C1527 C 0.82213 0.83681 0.26785
 C1528 C 0.80996 0.82416 0.26712
 H1529 H 0.88763 0.94507 0.26250
 H1530 H 0.86152 0.92066 0.26454
 H1531 H 0.90488 0.87541 0.27245
 H1532 H 0.93076 0.89995 0.27078
 H1533 H 0.87826 0.86419 0.29252
 H1534 H 0.85315 0.83873 0.29191
 H1535 H 0.82357 0.86865 0.24510
 H1536 H 0.84877 0.89399 0.24529
 C1537 C 0.43939 0.45024 0.76266
 C1538 C 0.42612 0.43895 0.76488
 C1539 C 0.41071 0.42490 0.76705
 C1540 C 0.39114 0.43068 0.76566
 C1541 C 0.37627 0.41677 0.76678
 C1542 C 0.38082 0.39689 0.76929
 C1543 C 0.40055 0.39129 0.77091
 C1544 C 0.41537 0.40521 0.76978
 C1545 C 0.36515 0.38196 0.76967
 C1546 C 0.36621 0.36608 0.78265
 C1547 C 0.35179 0.35167 0.78249
 C1548 C 0.33616 0.35294 0.76937
 C1549 C 0.33488 0.36877 0.75653
 C1550 C 0.34926 0.38320 0.75668
 C1551 C 0.32156 0.33788 0.76884
 C1552 C 0.30931 0.32531 0.76820
 H1553 H 0.38738 0.44589 0.76352
 H1554 H 0.36122 0.42156 0.76570
 H1555 H 0.40454 0.37609 0.77256
 H1556 H 0.43048 0.40057 0.77074
 H1557 H 0.37813 0.36484 0.79298
 H1558 H 0.35290 0.33950 0.79252
 H1559 H 0.32286 0.36986 0.74628
 H1560 H 0.34818 0.39508 0.74632
 C1561 C 0.06155 0.24889 0.95100
 C1562 C 0.07527 0.24916 0.94001
 C1563 C 0.09118 0.24984 0.92636
 C1564 C 0.09337 0.23506 0.91245
 C1565 C 0.10802 0.23636 0.89834
 C1566 C 0.12067 0.25250 0.89795
 C1567 C 0.11855 0.26713 0.91219
 C1568 C 0.10387 0.26581 0.92628
 C1569 C 0.13573 0.25428 0.88248
 C1570 C 0.15450 0.26133 0.88693
 C1571 C 0.16856 0.26323 0.87229
 C1572 C 0.16404 0.25816 0.85303
 C1573 C 0.14542 0.25113 0.84845
 C1574 C 0.13135 0.24920 0.86307
 C1575 C 0.17855 0.26002 0.83799
 C1576 C 0.19077 0.26141 0.82544
 H1577 H 0.08359 0.22266 0.91236
 H1578 H 0.10947 0.22473 0.88774
 H1579 H 0.12790 0.27984 0.91213
 H1580 H 0.10221 0.27740 0.93690
 H1581 H 0.15838 0.26515 0.90177
 H1582 H 0.18297 0.26861 0.87600
 H1583 H 0.14176 0.24719 0.83358
 H1584 H 0.11694 0.24401 0.85913
 C1585 C 0.56118 0.75149 0.44876
 C1586 C 0.57462 0.75229 0.43745
 C1587 C 0.59019 0.75368 0.42345
 C1588 C 0.60480 0.73939 0.42268
 C1589 C 0.61955 0.74058 0.40863
 C1590 C 0.61981 0.75606 0.39514
 C1591 C 0.60514 0.77042 0.39617
 C1592 C 0.59044 0.76922 0.41022
 C1593 C 0.63516 0.75715 0.37989
 C1594 C 0.63035 0.76282 0.36073
 C1595 C 0.64476 0.76388 0.34636
 C1596 C 0.66417 0.75931 0.35093
 C1597 C 0.66911 0.75364 0.36993
 C1598 C 0.65471 0.75255 0.38433
 C1599 C 0.67896 0.76037 0.33609
 C1600 C 0.69134 0.76119 0.32364
 H1601 H 0.60469 0.72725 0.43280
 H1602 H 0.63052 0.72919 0.40806
 H1603 H 0.60509 0.78267 0.38618
 H1604 H 0.57920 0.78037 0.41071
 H1605 H 0.61539 0.76617 0.35679
 H1606 H 0.64077 0.76821 0.33168
 H1607 H 0.68410 0.75010 0.37362
 H1608 H 0.65890 0.74836 0.39899
 C1609 C 0.93816 0.75527 0.93573
 C1610 C 0.92835 0.75549 0.92111
 C1611 C 0.91629 0.75540 0.90390
 C1612 C 0.91156 0.73771 0.89489
 C1613 C 0.89911 0.73746 0.87871
 C1614 C 0.89118 0.75493 0.87133
 C1615 C 0.89623 0.77267 0.88033
 C1616 C 0.90870 0.77289 0.89652
 C1617 C 0.87729 0.75456 0.85466
 C1618 C 0.86062 0.76661 0.85468
 C1619 C 0.84721 0.76585 0.83930
 C1620 C 0.85027 0.75306 0.82369
 C1621 C 0.86688 0.74114 0.82342
 C1622 C 0.88032 0.74186 0.83880
 C1623 C 0.83617 0.75204 0.80813
 C1624 C 0.82415 0.75130 0.79528
 H1625 H 0.91727 0.72408 0.90056
 H1626 H 0.89530 0.72355 0.87228
 H1627 H 0.89056 0.78637 0.87485
 H1628 H 0.91227 0.78667 0.90338
 H1629 H 0.85773 0.77633 0.86680
 H1630 H 0.83437 0.77511 0.83968
 H1631 H 0.86941 0.73122 0.81137
 H1632 H 0.89312 0.73258 0.83824
 C1633 C 0.43798 0.25455 0.43497
 C1634 C 0.42829 0.25474 0.42027
 C1635 C 0.41633 0.25467 0.40298
 C1636 C 0.41069 0.27225 0.39424
 C1637 C 0.39830 0.27215 0.37799
 C1638 C 0.39139 0.25442 0.37028
 C1639 C 0.39738 0.23682 0.37902
 C1640 C 0.40975 0.23696 0.39527
 C1641 C 0.37754 0.25428 0.35357
 C1642 C 0.37915 0.24014 0.33876
 C1643 C 0.36563 0.23961 0.32345
 C1644 C 0.35035 0.25319 0.32273
 C1645 C 0.34875 0.26743 0.33726
 C1646 C 0.36224 0.26799 0.35258
 C1647 C 0.33602 0.25229 0.30737
 C1648 C 0.32375 0.25165 0.29476
 H1649 H 0.41570 0.28604 0.40009
 H1650 H 0.39415 0.28592 0.37144
 H1651 H 0.39211 0.22296 0.37361
 H1652 H 0.41395 0.22327 0.40199
 H1653 H 0.39089 0.22953 0.33900
 H1654 H 0.36702 0.22853 0.31225
 H1655 H 0.33692 0.27796 0.33689
 H1656 H 0.36043 0.27887 0.36389
 C1657 C 0.05411 0.75424 0.07074
 C1658 C 0.06700 0.75509 0.08271
 C1659 C 0.08303 0.75563 0.09631
 C1660 C 0.07973 0.75898 0.11617
 C1661 C 0.09541 0.75893 0.12930
 C1662 C 0.11458 0.75546 0.12270
 C1663 C 0.11772 0.75227 0.10268
 C1664 C 0.10205 0.75235 0.08960
 C1665 C 0.13121 0.75494 0.13664
 C1666 C 0.14602 0.74079 0.13473
 C1667 C 0.16158 0.74015 0.14795
 C1668 C 0.16257 0.75365 0.16322
 C1669 C 0.14796 0.76784 0.16520
 C1670 C 0.13238 0.76849 0.15201
 C1671 C 0.17825 0.75266 0.17720
 C1672 C 0.19105 0.75186 0.18927
 H1673 H 0.06505 0.76145 0.12153
 H1674 H 0.09250 0.76121 0.14466
 H1675 H 0.13232 0.74983 0.09711
 H1676 H 0.10477 0.74977 0.07424
 H1677 H 0.14539 0.72999 0.12322
 H1678 H 0.17274 0.72903 0.14636
 H1679 H 0.14858 0.77835 0.17699
 H1680 H 0.12134 0.77970 0.15372
 C1681 C 0.55269 0.25341 0.57253
 C1682 C 0.56507 0.25416 0.58504
 C1683 C 0.58035 0.25459 0.59948
 C1684 C 0.58310 0.23864 0.61194
 C1685 C 0.59865 0.23847 0.62518
 C1686 C 0.61171 0.25427 0.62611
 C1687 C 0.60870 0.27033 0.61366
 C1688 C 0.59312 0.27047 0.60043
 C1689 C 0.62856 0.25382 0.63980
 C1690 C 0.64702 0.26065 0.63392
 C1691 C 0.66293 0.25995 0.64673
 C1692 C 0.66061 0.25243 0.66557
 C1693 C 0.64231 0.24567 0.67157
 C1694 C 0.62639 0.24634 0.65879
 C1695 C 0.67686 0.25183 0.67891
 C1696 C 0.69007 0.25134 0.69054
 H1697 H 0.57341 0.22619 0.61120
 H1698 H 0.60073 0.22579 0.63437
 H1699 H 0.61835 0.28280 0.61420
 H1700 H 0.59117 0.28286 0.59080
 H1701 H 0.64922 0.26625 0.61932
 H1702 H 0.67704 0.26523 0.64194
 H1703 H 0.64032 0.23992 0.68616
 H1704 H 0.61233 0.24122 0.66383
 C1705 C 0.92581 0.24023 0.06583
 C1706 C 0.91269 0.23863 0.07742
 C1707 C 0.89754 0.23716 0.09187
 C1708 C 0.87835 0.23268 0.08644
 C1709 C 0.86366 0.23177 0.10059
 C1710 C 0.86800 0.23539 0.12035
 C1711 C 0.88738 0.23972 0.12564
 C1712 C 0.90201 0.24060 0.11150
 C1713 C 0.85242 0.23490 0.13539
 C1714 C 0.85200 0.24892 0.15038
 C1715 C 0.83744 0.24845 0.16463
 C1716 C 0.82309 0.23397 0.16412
 C1717 C 0.82332 0.21997 0.14925
 C1718 C 0.83788 0.22043 0.13495
 C1719 C 0.80809 0.23361 0.17879
 C1720 C 0.79552 0.23350 0.19109
 H1721 H 0.87471 0.23006 0.07127
 H1722 H 0.84885 0.22861 0.09604
 H1723 H 0.89125 0.24229 0.14075
 H1724 H 0.91683 0.24404 0.11587
 H1725 H 0.86280 0.26042 0.15095
 H1726 H 0.83734 0.25941 0.17602
 H1727 H 0.81228 0.20868 0.14872
 H1728 H 0.83793 0.20932 0.12372
 C1729 C 0.42750 0.74088 0.56751
 C1730 C 0.41444 0.73940 0.57919
 C1731 C 0.39929 0.73811 0.59367
 C1732 C 0.38018 0.73326 0.58832
 C1733 C 0.36546 0.73253 0.60245
 C1734 C 0.36971 0.73671 0.62212
 C1735 C 0.38901 0.74143 0.62734
 C1736 C 0.40367 0.74213 0.61321
 C1737 C 0.35407 0.73637 0.63712
 C1738 C 0.35338 0.75074 0.65177
 C1739 C 0.33872 0.75042 0.66593
 C1740 C 0.32456 0.73575 0.66567
 C1741 C 0.32508 0.72140 0.65116
 C1742 C 0.33973 0.72170 0.63696
 C1743 C 0.30946 0.73554 0.68025
 C1744 C 0.29681 0.73552 0.69247
 H1745 H 0.37661 0.73019 0.57322
 H1746 H 0.35071 0.72907 0.59794
 H1747 H 0.39280 0.74445 0.64239
 H1748 H 0.41843 0.74587 0.61752
 H1749 H 0.36403 0.76239 0.65213
 H1750 H 0.33840 0.76166 0.67705
 H1751 H 0.31420 0.70996 0.65084
 H1752 H 0.34000 0.71031 0.62601
 C1753 C 0.24559 0.06454 0.93833
 C1754 C 0.24529 0.07872 0.92793
 C1755 C 0.24530 0.09527 0.91502
 C1756 C 0.24647 0.11423 0.92248
 C1757 C 0.24709 0.13020 0.90978
 C1758 C 0.24662 0.12736 0.88944
 C1759 C 0.24528 0.10824 0.88212
 C1760 C 0.24464 0.09232 0.89483
 C1761 C 0.24766 0.14421 0.87586
 C1762 C 0.25897 0.14303 0.85876
 C1763 C 0.25968 0.15870 0.84575
 C1764 C 0.24913 0.17577 0.84963
 C1765 C 0.23796 0.17717 0.86666
 C1766 C 0.23725 0.16150 0.87973
 C1767 C 0.24947 0.19161 0.83586
 C1768 C 0.24970 0.20462 0.82403
 H1769 H 0.24708 0.11667 0.93809
 H1770 H 0.24833 0.14473 0.91585
 H1771 H 0.24459 0.10559 0.86656
 H1772 H 0.24371 0.07770 0.88889
 H1773 H 0.26738 0.13004 0.85552
 H1774 H 0.26839 0.15748 0.83262
 H1775 H 0.22967 0.19028 0.86976
 H1776 H 0.22826 0.16277 0.89265
 C1777 C 0.74694 0.56285 0.43647
 C1778 C 0.74682 0.57713 0.42621
 C1779 C 0.74708 0.59382 0.41348
 C1780 C 0.74169 0.61228 0.42040
 C1781 C 0.74227 0.62845 0.40795
 C1782 C 0.74831 0.62635 0.38844
 C1783 C 0.75360 0.60771 0.38163
 C1784 C 0.75299 0.59158 0.39408
 C1785 C 0.74909 0.64345 0.37516
 C1786 C 0.76464 0.64556 0.36192
 C1787 C 0.76511 0.66131 0.34899
 C1788 C 0.75009 0.67518 0.34911
 C1789 C 0.73467 0.67336 0.36237
 C1790 C 0.73417 0.65761 0.37534
 C1791 C 0.75026 0.69092 0.33522
 C1792 C 0.75043 0.70382 0.32327
 H1793 H 0.73714 0.61418 0.43542
 H1794 H 0.73829 0.64264 0.41366
 H1795 H 0.75801 0.60555 0.36662
 H1796 H 0.75714 0.57736 0.38856
 H1797 H 0.77648 0.63506 0.36162
 H1798 H 0.77713 0.66259 0.33881
 H1799 H 0.72291 0.68397 0.36252
 H1800 H 0.72191 0.65627 0.38520
 C1801 C 0.74984 0.04873 0.06113
 C1802 C 0.74986 0.05995 0.07467
 C1803 C 0.74952 0.07390 0.09035
 C1804 C 0.75908 0.09178 0.08820
 C1805 C 0.75789 0.10586 0.10290
 C1806 C 0.74704 0.10226 0.11994
 C1807 C 0.73769 0.08413 0.12207
 C1808 C 0.73892 0.07005 0.10735
 C1809 C 0.74518 0.11752 0.13520
 C1810 C 0.72715 0.12085 0.14449
 C1811 C 0.72529 0.13550 0.15856
 C1812 C 0.74141 0.14699 0.16354
 C1813 C 0.75942 0.14374 0.15446
 C1814 C 0.76130 0.12912 0.14038
 C1815 C 0.73953 0.16206 0.17803
 C1816 C 0.73820 0.17464 0.19023
 H1817 H 0.76721 0.09496 0.07503
 H1818 H 0.76504 0.11976 0.10070
 H1819 H 0.72945 0.08082 0.13513
 H1820 H 0.73144 0.05626 0.10915
 H1821 H 0.71440 0.11237 0.14062
 H1822 H 0.71128 0.13791 0.16550
 H1823 H 0.77200 0.15251 0.15828
 H1824 H 0.77542 0.12676 0.13366
 C1825 C 0.24629 0.55103 0.56217
 C1826 C 0.24564 0.56234 0.57561
 C1827 C 0.24449 0.57634 0.59120
 C1828 C 0.25959 0.57784 0.60490
 C1829 C 0.25865 0.59195 0.61962
 C1830 C 0.24257 0.60474 0.62079
 C1831 C 0.22742 0.60300 0.60702
 C1832 C 0.22839 0.58891 0.59233
 C1833 C 0.24170 0.62003 0.63611
 C1834 C 0.22397 0.62435 0.64556
 C1835 C 0.22307 0.63903 0.65969
 C1836 C 0.23984 0.64959 0.66455
 C1837 C 0.25757 0.64534 0.65532
 C1838 C 0.25851 0.63066 0.64120
 C1839 C 0.23889 0.66473 0.67905
 C1840 C 0.23815 0.67734 0.69127
 H1841 H 0.27212 0.56818 0.60415
 H1842 H 0.27043 0.59278 0.63014
 H1843 H 0.21499 0.61280 0.60735
 H1844 H 0.21668 0.58795 0.58172
 H1845 H 0.21084 0.61625 0.64216
 H1846 H 0.20929 0.64213 0.66682
 H1847 H 0.27065 0.65344 0.65898
 H1848 H 0.27231 0.62786 0.63401
 C1849 C 0.75698 0.93410 0.92508
 C1850 C 0.75844 0.92304 0.91148
 C1851 C 0.75986 0.90941 0.89558
 C1852 C 0.74321 0.90467 0.88471
 C1853 C 0.74431 0.89073 0.86987
 C1854 C 0.76210 0.88128 0.86572
 C1855 C 0.77881 0.88630 0.87659
 C1856 C 0.77768 0.90027 0.89143
 C1857 C 0.76310 0.86600 0.85038
 C1858 C 0.77408 0.84887 0.85341
 C1859 C 0.77465 0.83429 0.83915
 C1860 C 0.76428 0.83662 0.82169
 C1861 C 0.75342 0.85365 0.81849
 C1862 C 0.75282 0.86824 0.83272
 C1863 C 0.76468 0.82154 0.80710
 C1864 C 0.76494 0.80899 0.79477
 H1865 H 0.72932 0.91156 0.88789
 H1866 H 0.73114 0.88701 0.86195
 H1867 H 0.79277 0.87948 0.87358
 H1868 H 0.79065 0.90380 0.89977
 H1869 H 0.78194 0.84659 0.86695
 H1870 H 0.78308 0.82115 0.84180
 H1871 H 0.74539 0.85563 0.80499
 H1872 H 0.74444 0.88135 0.82985
 C1873 C 0.25772 0.43350 0.42747
 C1874 C 0.25955 0.42206 0.41424
 C1875 C 0.26139 0.40792 0.39882
 C1876 C 0.26534 0.38841 0.40339
 C1877 C 0.26640 0.37443 0.38858
 C1878 C 0.26347 0.37978 0.36897
 C1879 C 0.25969 0.39948 0.36451
 C1880 C 0.25865 0.41345 0.37935
 C1881 C 0.26397 0.36480 0.35332
 C1882 C 0.25028 0.36532 0.33798
 C1883 C 0.25045 0.35097 0.32349
 C1884 C 0.26429 0.33592 0.32411
 C1885 C 0.27803 0.33532 0.33923
 C1886 C 0.27788 0.34965 0.35375
 C1887 C 0.26431 0.32111 0.30924
 C1888 C 0.26425 0.30878 0.29670
 H1889 H 0.26737 0.38395 0.41843
 H1890 H 0.26906 0.35936 0.39253
 H1891 H 0.25761 0.40410 0.34953
 H1892 H 0.25558 0.42851 0.37565
 H1893 H 0.23921 0.37661 0.33739
 H1894 H 0.23971 0.35155 0.31187
 H1895 H 0.28886 0.32377 0.33981
 H1896 H 0.28876 0.34898 0.36523
 C1897 C 0.24831 0.92895 0.05521
 C1898 C 0.24790 0.91637 0.06749
 C1899 C 0.24785 0.90188 0.08268
 C1900 C 0.23039 0.89679 0.09194
 C1901 C 0.23056 0.88350 0.10742
 C1902 C 0.24823 0.87513 0.11385
 C1903 C 0.26568 0.88022 0.10432
 C1904 C 0.26548 0.89352 0.08886
 C1905 C 0.24852 0.86126 0.13051
 C1906 C 0.26064 0.84467 0.13006
 C1907 C 0.26098 0.83165 0.14575
 C1908 C 0.24925 0.83503 0.16212
 C1909 C 0.23716 0.85150 0.16274
 C1910 C 0.23679 0.86455 0.14704
 C1911 C 0.24937 0.82129 0.17800
 C1912 C 0.24948 0.80936 0.19092
 H1913 H 0.21667 0.90323 0.08731
 H1914 H 0.21686 0.87968 0.11429
 H1915 H 0.27954 0.87425 0.10908
 H1916 H 0.27910 0.89748 0.08190
 H1917 H 0.26965 0.84159 0.11745
 H1918 H 0.27030 0.81887 0.14506
 H1919 H 0.22800 0.85425 0.17533
 H1920 H 0.22750 0.87733 0.14794
 C1921 C 0.74730 0.42701 0.55298
 C1922 C 0.74658 0.41449 0.56530
 C1923 C 0.74618 0.40005 0.58053
 C1924 C 0.73030 0.39915 0.59333
 C1925 C 0.73045 0.38592 0.60886
 C1926 C 0.74653 0.37342 0.61180
 C1927 C 0.76233 0.37431 0.59872
 C1928 C 0.76216 0.38756 0.58322
 C1929 C 0.74694 0.35966 0.62854
 C1930 C 0.75437 0.34065 0.62622
 C1931 C 0.75495 0.32776 0.64202
 C1932 C 0.74815 0.33368 0.66033
 C1933 C 0.74070 0.35254 0.66280
 C1934 C 0.74010 0.36546 0.64701
 C1935 C 0.74865 0.32024 0.67646
 C1936 C 0.74905 0.30856 0.68961
 H1937 H 0.71789 0.40882 0.59142
 H1938 H 0.71796 0.38541 0.61852
 H1939 H 0.77504 0.36509 0.60075
 H1940 H 0.77461 0.38827 0.57351
 H1941 H 0.75952 0.33566 0.61214
 H1942 H 0.76065 0.31315 0.63992
 H1943 H 0.73540 0.35727 0.67692
 H1944 H 0.73454 0.38008 0.64932
 C1945 C 0.06590 0.07516 0.75846
 C1946 C 0.07697 0.08871 0.76014
 C1947 C 0.09062 0.10455 0.76178
 C1948 C 0.10549 0.10385 0.77581
 C1949 C 0.11941 0.11871 0.77673
 C1950 C 0.11867 0.13446 0.76357
 C1951 C 0.10350 0.13515 0.74969
 C1952 C 0.08959 0.12029 0.74881
 C1953 C 0.13390 0.14985 0.76403
 C1954 C 0.14161 0.15734 0.74655
 C1955 C 0.15615 0.17160 0.74695
 C1956 C 0.16319 0.17859 0.76480
 C1957 C 0.15560 0.17128 0.78228
 C1958 C 0.14105 0.15700 0.78191
 C1959 C 0.17817 0.19327 0.76515
 C1960 C 0.19067 0.20562 0.76535
 H1961 H 0.10650 0.09167 0.78584
 H1962 H 0.13103 0.11763 0.78741
 H1963 H 0.10238 0.14721 0.73954
 H1964 H 0.07815 0.12096 0.73788
 H1965 H 0.13663 0.15193 0.73256
 H1966 H 0.16196 0.17712 0.73333
 H1967 H 0.16090 0.17664 0.79618
 H1968 H 0.13526 0.15169 0.79561
 C1969 C 0.56679 0.57373 0.25676
 C1970 C 0.57794 0.58723 0.25827
 C1971 C 0.59167 0.60304 0.25970
 C1972 C 0.60216 0.60603 0.27698
 C1973 C 0.61617 0.62080 0.27803
 C1974 C 0.61989 0.63277 0.26177
 C1975 C 0.60910 0.62977 0.24453
 C1976 C 0.59511 0.61499 0.24352
 C1977 C 0.63519 0.64808 0.26264
 C1978 C 0.63211 0.66638 0.25383
 C1979 C 0.64668 0.68063 0.25434
 C1980 C 0.66450 0.67680 0.26364
 C1981 C 0.66767 0.65869 0.27253
 C1982 C 0.65312 0.64442 0.27205
 C1983 C 0.67954 0.69144 0.26395
 C1984 C 0.69204 0.70379 0.26414
 H1985 H 0.59963 0.59684 0.28959
 H1986 H 0.62405 0.62290 0.29157
 H1987 H 0.61179 0.63856 0.23169
 H1988 H 0.58716 0.61271 0.23002
 H1989 H 0.61839 0.66973 0.24670
 H1990 H 0.64404 0.69463 0.24747
 H1991 H 0.68143 0.65556 0.27973
 H1992 H 0.65604 0.63040 0.27873
 C1993 C 0.07134 0.94590 0.24694
 C1994 C 0.08352 0.93323 0.24572
 C1995 C 0.09742 0.91749 0.24472
 C1996 C 0.09076 0.89828 0.24305
 C1997 C 0.10405 0.88278 0.24296
 C1998 C 0.12422 0.88629 0.24457
 C1999 C 0.13080 0.90568 0.24602
 C2000 C 0.11746 0.92118 0.24610
 C2001 C 0.13827 0.86976 0.24516
 C2002 C 0.15421 0.87005 0.25815
 C2003 C 0.16726 0.85436 0.25894
 C2004 C 0.16459 0.83819 0.24679
 C2005 C 0.14881 0.83776 0.23378
 C2006 C 0.13572 0.85343 0.23297
 C2007 C 0.17828 0.82225 0.24745
 C2008 C 0.19012 0.80922 0.24802
 H2009 H 0.07526 0.89526 0.24210
 H2010 H 0.09851 0.86803 0.24210
 H2011 H 0.14625 0.90887 0.24702
 H2012 H 0.12277 0.93600 0.24741
 H2013 H 0.15641 0.88226 0.26791
 H2014 H 0.17944 0.85484 0.26906
 H2015 H 0.14668 0.82536 0.22422
 H2016 H 0.12373 0.85288 0.22266
 C2017 C 0.57293 0.44719 0.74633
 C2018 C 0.58537 0.43476 0.74523
 C2019 C 0.59969 0.41938 0.74435
 C2020 C 0.59662 0.40330 0.73216
 C2021 C 0.60987 0.38775 0.73218
 C2022 C 0.62638 0.38807 0.74444
 C2023 C 0.62946 0.40443 0.75645
 C2024 C 0.61618 0.41996 0.75641
 C2025 C 0.64014 0.37128 0.74496
 C2026 C 0.66040 0.37438 0.74629
 C2027 C 0.67332 0.35858 0.74708
 C2028 C 0.66619 0.33948 0.74657
 C2029 C 0.64607 0.33621 0.74519
 C2030 C 0.63312 0.35200 0.74438
 C2031 C 0.67962 0.32332 0.74742
 C2032 C 0.69129 0.31013 0.74806
 H2033 H 0.58387 0.40268 0.72279
 H2034 H 0.60723 0.37549 0.72258
 H2035 H 0.64188 0.40502 0.76623
 H2036 H 0.61861 0.43227 0.76602
 H2037 H 0.66628 0.38903 0.74651
 H2038 H 0.68888 0.36127 0.74807
 H2039 H 0.64040 0.32148 0.74482
 H2040 H 0.61759 0.34913 0.74363
 C2041 C 0.93528 0.06069 0.24591
 C2042 C 0.92069 0.07057 0.24540
 C2043 C 0.90353 0.08272 0.24509
 C2044 C 0.90192 0.09782 0.23144
 C2045 C 0.88569 0.11023 0.23170
 C2046 C 0.87086 0.10772 0.24567
 C2047 C 0.87251 0.09235 0.25918
 C2048 C 0.88875 0.07994 0.25889
 C2049 C 0.85402 0.12140 0.24643
 C2050 C 0.84690 0.12813 0.26448
 C2051 C 0.83149 0.14153 0.26521
 C2052 C 0.82297 0.14836 0.24793
 C2053 C 0.82980 0.14160 0.22991
 C2054 C 0.84522 0.12821 0.22915
 C2055 C 0.80759 0.16268 0.24866
 C2056 C 0.79488 0.17487 0.24916
 H2057 H 0.91334 0.10017 0.22078
 H2058 H 0.88499 0.12209 0.22128
 H2059 H 0.86122 0.08989 0.26994
 H2060 H 0.88986 0.06830 0.26953
 H2061 H 0.85354 0.12338 0.27803
 H2062 H 0.82637 0.14672 0.27923
 H2063 H 0.82328 0.14678 0.21644
 H2064 H 0.85021 0.12313 0.21505
 C2065 C 0.43545 0.56221 0.74627
 C2066 C 0.42087 0.57211 0.74591
 C2067 C 0.40373 0.58430 0.74575
 C2068 C 0.40189 0.59920 0.73190
 C2069 C 0.38570 0.61166 0.73227
 C2070 C 0.37113 0.60941 0.74655
 C2071 C 0.37300 0.59423 0.76027
 C2072 C 0.38921 0.58178 0.75986
 C2073 C 0.35431 0.62312 0.74741
 C2074 C 0.34749 0.63011 0.76548
 C2075 C 0.33210 0.64353 0.76627
 C2076 C 0.32329 0.65011 0.74904
 C2077 C 0.32983 0.64311 0.73100
 C2078 C 0.34523 0.62970 0.73018
 C2079 C 0.30794 0.66448 0.74981
 C2080 C 0.29530 0.67674 0.75033
 H2081 H 0.41311 0.60136 0.72099
 H2082 H 0.38483 0.62335 0.72169
 H2083 H 0.36192 0.59197 0.77129
 H2084 H 0.39049 0.57030 0.77066
 H2085 H 0.35436 0.62556 0.77898
 H2086 H 0.32722 0.64894 0.78030
 H2087 H 0.32311 0.64811 0.71757
 H2088 H 0.34999 0.62442 0.71607
 C2089 C 0.95022 0.93894 0.74908
 C2090 C 0.93881 0.92559 0.74891
 C2091 C 0.92460 0.91019 0.74838
 C2092 C 0.90478 0.91469 0.75056
 C2093 C 0.89076 0.89996 0.74946
 C2094 C 0.89639 0.88050 0.74616
 C2095 C 0.91638 0.87609 0.74408
 C2096 C 0.93039 0.89087 0.74519
 C2097 C 0.88142 0.86495 0.74465
 C2098 C 0.88302 0.85025 0.73041
 C2099 C 0.86864 0.83590 0.72872
 C2100 C 0.85250 0.83606 0.74122
 C2101 C 0.85084 0.85054 0.75551
 C2102 C 0.86519 0.86490 0.75723
 C2103 C 0.83764 0.82138 0.73946
 C2104 C 0.82515 0.80911 0.73818
 H2105 H 0.90013 0.92962 0.75290
 H2106 H 0.87549 0.90387 0.75083
 H2107 H 0.92118 0.86121 0.74175
 H2108 H 0.94571 0.88724 0.74347
 H2109 H 0.89521 0.85004 0.72036
 H2110 H 0.87005 0.82476 0.71760
 H2111 H 0.83845 0.85074 0.76532
 H2112 H 0.86367 0.87587 0.76849
 C2113 C 0.44900 0.43924 0.24725
 C2114 C 0.43729 0.42614 0.24694
 C2115 C 0.42274 0.41105 0.24621
 C2116 C 0.40339 0.41591 0.24172
 C2117 C 0.38914 0.40140 0.24076
 C2118 C 0.39407 0.38178 0.24427
 C2119 C 0.41358 0.37702 0.24878
 C2120 C 0.42782 0.39159 0.24976
 C2121 C 0.37889 0.36638 0.24312
 C2122 C 0.38303 0.34828 0.23433
 C2123 C 0.36863 0.33392 0.23301
 C2124 C 0.34993 0.33744 0.24047
 C2125 C 0.34569 0.35535 0.24930
 C2126 C 0.36006 0.36973 0.25062
 C2127 C 0.33510 0.32267 0.23916
 C2128 C 0.32267 0.31029 0.23821
 H2129 H 0.39932 0.43093 0.23886
 H2130 H 0.37433 0.40550 0.23697
 H2131 H 0.41777 0.36208 0.25178
 H2132 H 0.44276 0.38767 0.25326
 H2133 H 0.39731 0.34536 0.22820
 H2134 H 0.37205 0.32011 0.22613
 H2135 H 0.33128 0.35819 0.25520
 H2136 H 0.35649 0.38340 0.25770
   
