data_POSCAR
  _audit_creation_date              2014-09-24
  _audit_creation_method            'ToBaCCo'
  _symmetry_space_group_name_H-M    'P1'
  _symmetry_Int_Tables_number       1
  _symmetry_cell_setting            triclinic
  loop_
  _symmetry_equiv_pos_as_xyz
 x,y,z
_cell_length_a 44.1566
_cell_length_b 43.5186
_cell_length_c 44.4330
_cell_angle_alpha 92.420200
_cell_angle_beta 91.745900
_cell_angle_gamma 93.066700
loop_
  _atom_site_label
  _atom_site_type_symbol
  _atom_site_fract_x
  _atom_site_fract_y
  _atom_site_fract_z
N1 N 0.15147 0.23097 0.23046
 N2 N 0.16324 0.20990 0.24691
 C3 C 0.14825 0.20817 0.27275
 C4 C 0.12623 0.22955 0.27258
 C5 C 0.12861 0.24332 0.24526
 H6 H 0.15249 0.19216 0.29016
 H7 H 0.11458 0.26086 0.23676
 Cu8 Cu 0.19641 0.18627 0.23263
 Cu9 Cu 0.16646 0.24077 0.19113
 Cu10 Cu 0.22647 0.19972 0.16571
 N11 N 0.23047 0.16400 0.21827
 N12 N 0.24189 0.16929 0.19190
 C13 C 0.26476 0.15070 0.18707
 C14 C 0.26752 0.13253 0.21158
 C15 C 0.24576 0.14178 0.23118
 H16 H 0.27835 0.15031 0.16724
 H17 H 0.24125 0.13266 0.25296
 N18 N 0.20784 0.23144 0.14247
 N19 N 0.18500 0.24718 0.15202
 C20 C 0.17927 0.26890 0.13221
 C21 C 0.19939 0.26647 0.10914
 C22 C 0.21724 0.24268 0.11644
 H23 H 0.16305 0.28645 0.13520
 H24 H 0.23668 0.23533 0.10440
 H25 H 0.18261 0.19814 0.18110
 H26 H 0.21002 0.22777 0.19970
 N27 N 0.64924 0.71734 0.72794
 N28 N 0.66179 0.69826 0.74615
 C29 C 0.64484 0.69533 0.77059
 C30 C 0.62041 0.71352 0.76736
 C31 C 0.62387 0.72732 0.74019
 H32 H 0.64967 0.68093 0.78921
 H33 H 0.60884 0.74298 0.72989
 Cu34 Cu 0.69835 0.67818 0.73562
 Cu35 Cu 0.66607 0.72629 0.68907
 Cu36 Cu 0.74240 0.71197 0.68545
 N37 N 0.73523 0.66016 0.72260
 N38 N 0.75251 0.67344 0.70277
 C39 C 0.77661 0.65646 0.69791
 C40 C 0.77395 0.63110 0.71547
 C41 C 0.74770 0.63426 0.73109
 H42 H 0.79470 0.66219 0.68290
 H43 H 0.73843 0.61880 0.74732
 N44 N 0.72217 0.73997 0.65894
 N45 N 0.69276 0.74393 0.65890
 C46 C 0.68554 0.76211 0.63629
 C47 C 0.71168 0.76954 0.62116
 C48 C 0.73454 0.75567 0.63659
 H49 H 0.66299 0.76940 0.63119
 H50 H 0.75840 0.75662 0.63169
 H51 H 0.69915 0.69382 0.68362
 H52 H 0.70650 0.72708 0.71129
 N53 N 0.32932 0.74202 0.75694
 N54 N 0.31699 0.76195 0.77526
 C55 C 0.33319 0.76441 0.80153
 C56 C 0.35687 0.74496 0.79942
 C57 C 0.35380 0.73125 0.77081
 H58 H 0.33001 0.78129 0.81956
 H59 H 0.36983 0.71683 0.75995
 Cu60 Cu 0.28511 0.78705 0.76034
 Cu61 Cu 0.31620 0.73609 0.71468
 Cu62 Cu 0.24301 0.75884 0.70068
 N63 N 0.25103 0.80883 0.74500
 N64 N 0.23414 0.79753 0.72187
 C65 C 0.21210 0.81692 0.71610
 C66 C 0.21528 0.84188 0.73682
 C67 C 0.24069 0.83597 0.75442
 H68 H 0.19612 0.81382 0.69713
 H69 H 0.25058 0.85014 0.77315
 N70 N 0.26298 0.72874 0.67442
 N71 N 0.29144 0.72173 0.67877
 C72 C 0.29966 0.70380 0.65532
 C73 C 0.27498 0.69855 0.63543
 C74 C 0.25221 0.71502 0.64825
 H75 H 0.32234 0.69620 0.65239
 H76 H 0.22983 0.71791 0.63855
 H77 H 0.28754 0.77215 0.70694
 H78 H 0.27414 0.73958 0.73000
 N79 N 0.82232 0.23924 0.26546
 N80 N 0.81489 0.26398 0.28072
 C81 C 0.83401 0.26882 0.30489
 C82 C 0.85423 0.24514 0.30553
 C83 C 0.84571 0.22696 0.27970
 H84 H 0.83455 0.28955 0.31913
 H85 H 0.85638 0.20696 0.27073
 Cu86 Cu 0.78197 0.28826 0.26599
 Cu87 Cu 0.80577 0.22888 0.22505
 Cu88 Cu 0.73365 0.25375 0.21266
 N89 N 0.74485 0.30690 0.25301
 N90 N 0.72596 0.29331 0.23250
 C91 C 0.70255 0.31134 0.22781
 C92 C 0.70686 0.33753 0.24658
 C93 C 0.73409 0.33404 0.26198
 H94 H 0.68434 0.30629 0.21120
 H95 H 0.74538 0.35038 0.27818
 N96 N 0.75104 0.22118 0.18716
 N97 N 0.77917 0.21310 0.19119
 C98 C 0.78605 0.19368 0.16846
 C99 C 0.76079 0.18834 0.14931
 C100 C 0.73908 0.20658 0.16178
 H101 H 0.80836 0.18522 0.16533
 H102 H 0.71672 0.21005 0.15234
 H103 H 0.77882 0.26578 0.21469
 H104 H 0.76575 0.23784 0.24304
 N105 N 0.81289 0.75395 0.25157
 N106 N 0.80276 0.73050 0.23381
 C107 C 0.82178 0.72726 0.21083
 C108 C 0.84494 0.75012 0.21430
 C109 C 0.83877 0.76614 0.24081
 H110 H 0.81923 0.70934 0.19318
 H111 H 0.85245 0.78496 0.25181
 Cu112 Cu 0.76684 0.70520 0.24356
 Cu113 Cu 0.79135 0.76772 0.28672
 Cu114 Cu 0.73661 0.71671 0.31197
 N115 N 0.74088 0.67384 0.26165
 N116 N 0.73087 0.67750 0.28905
 C117 C 0.71600 0.65121 0.29658
 C118 C 0.71686 0.62973 0.27268
 C119 C 0.73217 0.64537 0.25062
 H120 H 0.70544 0.64787 0.31792
 H121 H 0.73679 0.63672 0.22814
 N122 N 0.74583 0.75791 0.33139
 N123 N 0.76681 0.77745 0.32165
 C124 C 0.76784 0.80351 0.33920
 C125 C 0.74615 0.80041 0.36079
 C126 C 0.73291 0.77104 0.35543
 H127 H 0.78329 0.82328 0.33663
 H128 H 0.71555 0.75991 0.36848
 H129 H 0.77940 0.72198 0.29515
 H130 H 0.74895 0.74483 0.27759
 N131 N 0.33158 0.24919 -0.23611
 N132 N 0.33176 0.21935 -0.24180
 C133 C 0.35560 0.21330 -0.25882
 C134 C 0.37173 0.24086 -0.26370
 C135 C 0.35521 0.26318 -0.24942
 H136 H 0.36011 0.19061 -0.26789
 H137 H 0.36078 0.28770 -0.24763
 Cu138 Cu 0.30072 0.19110 -0.22692
 Cu139 Cu 0.30262 0.26727 -0.20939
 Cu140 Cu 0.24496 0.21805 -0.18533
 N141 N 0.26267 0.16730 -0.22264
 N142 N 0.24042 0.17815 -0.20714
 C143 C 0.21685 0.15707 -0.20836
 C144 C 0.22464 0.13182 -0.22598
 C145 C 0.25413 0.13897 -0.23414
 H146 H 0.19565 0.15985 -0.19725
 H147 H 0.26842 0.12452 -0.24732
 N148 N 0.24978 0.26192 -0.17210
 N149 N 0.27147 0.28078 -0.18167
 C150 C 0.27102 0.30801 -0.16614
 C151 C 0.24778 0.30636 -0.14600
 C152 C 0.23492 0.27672 -0.15034
 H153 H 0.28769 0.32694 -0.16775
 H154 H 0.21765 0.26601 -0.13689
 H155 H 0.29160 0.22873 -0.18604
 H156 H 0.26825 0.23411 -0.22101
 N157 N 0.67261 0.26332 -0.24491
 N158 N 0.67906 0.29069 -0.25507
 C159 C 0.66051 0.29541 -0.27871
 C160 C 0.64148 0.26924 -0.28466
 C161 C 0.64980 0.24946 -0.26220
 H162 H 0.65979 0.31729 -0.28922
 H163 H 0.63972 0.22689 -0.25819
 Cu164 Cu 0.71073 0.31838 -0.23688
 Cu165 Cu 0.69239 0.24980 -0.20801
 Cu166 Cu 0.75699 0.29313 -0.18299
 N167 N 0.75061 0.33769 -0.22795
 N168 N 0.76900 0.32773 -0.20714
 C169 C 0.79481 0.34581 -0.20559
 C170 C 0.79226 0.36790 -0.22679
 C171 C 0.76399 0.36227 -0.24044
 H172 H 0.81367 0.34350 -0.18989
 H173 H 0.75376 0.37538 -0.25783
 N174 N 0.74072 0.25739 -0.16181
 N175 N 0.71597 0.24084 -0.17104
 C176 C 0.71019 0.21894 -0.15104
 C177 C 0.73231 0.22215 -0.12817
 C178 C 0.75141 0.24645 -0.13594
 H179 H 0.69140 0.20191 -0.15291
 H180 H 0.77143 0.25567 -0.12334
 H181 H 0.70990 0.29179 -0.19001
 H182 H 0.73233 0.27207 -0.21964
 N183 N 0.16475 0.77687 0.25154
 N184 N 0.17747 0.79143 0.22945
 C185 C 0.15641 0.79442 0.20726
 C186 C 0.12920 0.78062 0.21593
 C187 C 0.13526 0.77050 0.24444
 H188 H 0.16070 0.80515 0.18617
 H189 H 0.11955 0.75824 0.25848
 Cu190 Cu 0.22020 0.80535 0.23222
 Cu191 Cu 0.18781 0.76216 0.28544
 Cu192 Cu 0.26284 0.78769 0.29243
 N193 N 0.25700 0.82988 0.24523
 N194 N 0.27190 0.82421 0.27028
 C195 C 0.29284 0.84719 0.27699
 C196 C 0.29107 0.86853 0.25493
 C197 C 0.26867 0.85640 0.23459
 H198 H 0.30793 0.84847 0.29671
 H199 H 0.25966 0.86744 0.21514
 N200 N 0.24455 0.75827 0.31949
 N201 N 0.21557 0.74917 0.31745
 C202 C 0.20992 0.72844 0.33850
 C203 C 0.23676 0.72414 0.35421
 C204 C 0.25816 0.74377 0.34191
 H205 H 0.18812 0.71674 0.34178
 H206 H 0.28198 0.74675 0.34840
 H207 H 0.21874 0.79920 0.28623
 H208 H 0.22876 0.76296 0.26556
 N209 N 0.49284 0.42728 0.50031
 N210 N 0.46514 0.42752 0.51042
 C211 C 0.46208 0.40715 0.53220
 C212 C 0.48924 0.39329 0.53594
 C213 C 0.50837 0.40650 0.51536
 H214 H 0.44168 0.40268 0.54452
 H215 H 0.53183 0.40172 0.51193
 Cu216 Cu 0.43553 0.45432 0.49420
 Cu217 Cu 0.50630 0.45543 0.46930
 Cu218 Cu 0.44687 0.48202 0.42643
 N219 N 0.40917 0.48439 0.47801
 N220 N 0.41343 0.49494 0.45108
 C221 C 0.39213 0.51501 0.44503
 C222 C 0.37342 0.51696 0.46939
 C223 C 0.38506 0.49743 0.49007
 H224 H 0.39057 0.52755 0.42458
 H225 H 0.37690 0.49344 0.51235
 N226 N 0.48863 0.48086 0.41217
 N227 N 0.51175 0.47380 0.42954
 C228 C 0.53748 0.47826 0.41438
 C229 C 0.53035 0.48840 0.38579
 C230 C 0.49886 0.48890 0.38524
 H231 H 0.55971 0.47351 0.42329
 H232 H 0.48408 0.49374 0.36642
 H233 H 0.47117 0.48559 0.46592
 H234 H 0.46525 0.44557 0.44937
 N235 N -0.00026 -0.07804 0.99196
 N236 N -0.02098 -0.06683 1.00932
 C237 C -0.02638 -0.08607 1.03170
 C238 C -0.00834 -0.11086 1.02802
 C239 C 0.00835 -0.10478 1.00285
 H240 H -0.04302 -0.08288 1.04876
 H241 H 0.02489 -0.11914 0.99277
 Cu242 Cu -0.04080 -0.02949 1.00003
 Cu243 Cu 0.01182 -0.05845 0.95514
 Cu244 Cu -0.03257 -0.00016 0.93184
 N245 N -0.06898 -0.00095 0.98435
 N246 N -0.06625 0.00970 0.95725
 C247 C -0.08949 0.02757 0.95141
 C248 C -0.10761 0.02808 0.97620
 C249 C -0.09387 0.01000 0.99683
 H250 H -0.09299 0.03937 0.93075
 H251 H -0.10174 0.00473 1.01894
 N252 N 0.00269 -0.01344 0.90951
 N253 N 0.01971 -0.03559 0.91847
 C254 C 0.04139 -0.03990 0.89827
 C255 C 0.03759 -0.01979 0.87536
 C256 C 0.01316 -0.00302 0.88344
 H257 H 0.05835 -0.05685 0.89968
 H258 H 0.00365 0.01525 0.87107
 H259 H -0.00240 -0.01452 0.96440
 H260 H -0.03144 -0.04401 0.94801
 N261 N 1.02075 0.60496 0.98872
 N262 N 1.04157 0.59553 1.00742
 C263 C 1.04494 0.61558 1.03133
 C264 C 1.02566 0.63926 1.02707
 C265 C 1.01040 0.63147 0.99993
 H266 H 1.05976 0.61278 1.05073
 H267 H 0.99250 0.64380 0.98955
 Cu268 Cu 1.06250 0.55810 0.99893
 Cu269 Cu 1.00609 0.58048 0.95316
 Cu270 Cu 1.04168 0.51280 0.93808
 N271 N 1.08910 0.52777 0.98245
 N272 N 1.08073 0.51026 0.95851
 C273 C 1.10174 0.48965 0.95333
 C274 C 1.12480 0.49466 0.97495
 C275 C 1.11596 0.51891 0.99328
 H276 H 1.09974 0.47141 0.93596
 H277 H 1.12734 0.52813 1.01387
 N278 N 1.00773 0.52596 0.91328
 N279 N 0.99441 0.55197 0.91873
 C280 C 0.97170 0.55413 0.89819
 C281 C 0.97072 0.52821 0.87910
 C282 C 0.99410 0.51104 0.88895
 H283 H 0.95674 0.57297 0.89723
 H284 H 1.00044 0.48916 0.87933
 H285 H 1.01733 0.53900 0.96867
 H286 H 1.04657 0.55949 0.94620
 N287 N 0.52714 0.11320 0.48470
 N288 N 0.54439 0.10185 0.50566
 C289 C 0.54302 0.11938 0.53129
 C290 C 0.52370 0.14283 0.52605
 C291 C 0.51483 0.13864 0.49595
 H292 H 0.55471 0.11512 0.55232
 H293 H 0.49997 0.15264 0.48324
 Cu294 Cu 0.56680 0.06528 0.49692
 Cu295 Cu 0.51985 0.09285 0.44512
 Cu296 Cu 0.54243 0.01789 0.43900
 N297 N 0.59048 0.03106 0.48330
 N298 N 0.58054 0.01250 0.46059
 C299 C 0.59969 -0.01022 0.45678
 C300 C 0.62325 -0.00545 0.47790
 C301 C 0.61654 0.02080 0.49463
 H302 H 0.59641 -0.02916 0.44024
 H303 H 0.62909 0.03092 0.51420
 N304 N 0.51226 0.03399 0.41145
 N305 N 0.50389 0.06263 0.41351
 C306 C 0.48182 0.06613 0.39257
 C307 C 0.47593 0.03828 0.37673
 C308 C 0.49621 0.01865 0.38884
 H309 H 0.47017 0.08710 0.38970
 H310 H 0.49894 -0.00513 0.38186
 H311 H 0.52164 0.05178 0.46523
 H312 H 0.55530 0.06276 0.44274
 N313 N -0.01195 0.08412 0.51611
 N314 N -0.03054 0.07026 0.49557
 C315 C -0.03241 0.08802 0.47155
 C316 C -0.01384 0.11444 0.47729
 C317 C -0.00192 0.11145 0.50618
 H318 H -0.04613 0.08210 0.45134
 H319 H 0.01311 0.12786 0.51905
 Cu320 Cu -0.05149 0.03102 0.50279
 Cu321 Cu 0.00044 0.06431 0.55264
 Cu322 Cu -0.04349 0.00065 0.57129
 N323 N -0.08067 0.00037 0.51696
 N324 N -0.07753 -0.01121 0.54367
 C325 C -0.10186 -0.03004 0.54847
 C326 C -0.12151 -0.02982 0.52369
 C327 C -0.10720 -0.01067 0.50388
 H328 H -0.10557 -0.04216 0.56891
 H329 H -0.11607 -0.00414 0.48224
 N330 N -0.00786 0.01671 0.59595
 N331 N 0.00930 0.04073 0.58843
 C332 C 0.03290 0.04498 0.60832
 C333 C 0.03003 0.02317 0.63005
 C334 C 0.00407 0.00539 0.62118
 H335 H 0.05142 0.06201 0.60654
 H336 H -0.00507 -0.01471 0.63201
 H337 H -0.01364 0.01890 0.54081
 H338 H -0.04307 0.04464 0.55585
 N339 N 0.48374 0.58972 0.02498
 N340 N 0.46823 0.57581 0.00213
 C341 C 0.46839 0.59417 -0.02141
 C342 C 0.48497 0.62119 -0.01306
 C343 C 0.49387 0.61784 0.01683
 H344 H 0.45727 0.58835 -0.04308
 H345 H 0.50677 0.63449 0.03154
 Cu346 Cu 0.44780 0.53580 0.00541
 Cu347 Cu 0.49023 0.56944 0.06300
 Cu348 Cu 0.46635 0.49218 0.06235
 N349 N 0.42119 0.50157 0.01647
 N350 N 0.42825 0.48449 0.03909
 C351 C 0.40524 0.46358 0.04284
 C352 C 0.38261 0.46810 0.02149
 C353 C 0.39354 0.49217 0.00497
 H354 H 0.40460 0.44700 0.06031
 H355 H 0.38178 0.50284 -0.01322
 N356 N 0.49639 0.51102 0.09203
 N357 N 0.50444 0.54071 0.09331
 C358 C 0.52531 0.54643 0.11593
 C359 C 0.53120 0.51884 0.12896
 C360 C 0.51201 0.49703 0.11349
 H361 H 0.53588 0.56890 0.12205
 H362 H 0.51003 0.47261 0.11720
 H363 H 0.49014 0.52783 0.04016
 H364 H 0.45468 0.53607 0.06015
 N365 N 0.52340 -0.09798 0.02247
 N366 N 0.54978 -0.09282 0.01017
 C367 C 0.55194 -0.11244 -0.01375
 C368 C 0.52537 -0.13071 -0.01678
 C369 C 0.50790 -0.12124 0.00685
 H370 H 0.57129 -0.11328 -0.02806
 H371 H 0.48567 -0.13065 0.01230
 Cu372 Cu 0.57888 -0.06110 0.02630
 Cu373 Cu 0.51123 -0.07371 0.05740
 Cu374 Cu 0.55826 -0.00980 0.07947
 N375 N 0.60211 -0.02263 0.03491
 N376 N 0.59415 -0.00237 0.05556
 C377 C 0.61456 0.02188 0.05680
 C378 C 0.63661 0.01611 0.03609
 C379 C 0.62769 -0.01209 0.02230
 H380 H 0.61370 0.04200 0.07183
 H381 H 0.63899 -0.02398 0.00435
 N382 N 0.52093 -0.02176 0.10054
 N383 N 0.50311 -0.04615 0.09212
 C384 C 0.47983 -0.04840 0.11092
 C385 C 0.48339 -0.02459 0.13246
 C386 C 0.50943 -0.00790 0.12500
 H387 H 0.46166 -0.06612 0.10929
 H388 H 0.51909 0.01291 0.13650
 H389 H 0.53551 -0.03468 0.04435
 H390 H 0.55369 -0.05725 0.07423
 N391 N 1.02556 0.40998 0.52206
 N392 N 1.03410 0.42542 0.49879
 C393 C 1.02733 0.40817 0.47346
 C394 C 1.01422 0.37977 0.48106
 C395 C 1.01458 0.38174 0.51248
 H396 H 1.03294 0.41552 0.45131
 H397 H 1.00876 0.36392 0.52778
 Cu398 Cu 1.05802 0.46418 0.50442
 Cu399 Cu 1.02857 0.42858 0.56275
 Cu400 Cu 1.04786 0.50696 0.56707
 N401 N 1.08701 0.49770 0.51757
 N402 N 1.08224 0.51532 0.54151
 C403 C 1.10477 0.53732 0.54500
 C404 C 1.12548 0.53262 0.52265
 C405 C 1.11310 0.50753 0.50531
 H406 H 1.10586 0.55545 0.56249
 H407 H 1.12238 0.49719 0.48528
 N408 N 1.02418 0.48642 0.59772
 N409 N 1.01800 0.45636 0.59682
 C410 C 0.99865 0.44967 0.61876
 C411 C 0.99224 0.47688 0.63383
 C412 C 1.00908 0.49967 0.62020
 H413 H 0.98773 0.42719 0.62163
 H414 H 1.00840 0.52425 0.62465
 H415 H 1.02203 0.46987 0.54424
 H416 H 1.06102 0.46411 0.55962
 C417 C 0.35472 0.03996 0.23815
 C418 C 0.33716 0.00894 0.24015
 C419 C 0.35449 -0.01491 0.24589
 C420 C 0.38862 -0.00592 0.24989
 C421 C 0.37263 0.04372 0.26868
 C422 C 0.39036 0.01985 0.27491
 C423 C 0.37957 0.03470 0.21537
 C424 C 0.39696 0.01067 0.22115
 H425 H 0.31260 0.00630 0.23842
 H426 H 0.40303 -0.02551 0.25414
 H427 H 0.37329 0.06386 0.28369
 H428 H 0.38280 0.04867 0.19599
 C429 C 0.15455 -0.04255 0.74452
 C430 C 0.17519 -0.01332 0.75237
 C431 C 0.15988 0.01278 0.75658
 C432 C 0.12519 0.00768 0.75272
 C433 C 0.13209 -0.04351 0.77010
 C434 C 0.11667 -0.01774 0.77423
 C435 C 0.13633 -0.03327 0.71653
 C436 C 0.12040 -0.00742 0.72071
 H437 H 0.19954 -0.01172 0.75057
 H438 H 0.11248 0.02865 0.75704
 H439 H 0.12908 -0.06303 0.78428
 H440 H 0.13595 -0.04642 0.69527
 C441 C 0.64409 0.45315 0.25311
 C442 C 0.66594 0.48163 0.25997
 C443 C 0.65255 0.50905 0.26093
 C444 C 0.61769 0.50550 0.25822
 C445 C 0.62237 0.45516 0.27921
 C446 C 0.60819 0.48221 0.28227
 C447 C 0.62530 0.46095 0.22510
 C448 C 0.61135 0.48793 0.22776
 H449 H 0.68981 0.48076 0.26570
 H450 H 0.60693 0.52792 0.25998
 H451 H 0.61916 0.43664 0.29453
 H452 H 0.62300 0.44605 0.20491
 C453 C 0.85809 0.53422 0.73587
 C454 C 0.84100 0.50288 0.73847
 C455 C 0.85887 0.47925 0.74454
 C456 C 0.89278 0.48890 0.74739
 C457 C 0.87725 0.53882 0.76551
 C458 C 0.89450 0.51485 0.77183
 C459 C 0.88226 0.52895 0.71241
 C460 C 0.89981 0.50494 0.71800
 H461 H 0.81645 0.50015 0.73754
 H462 H 0.90760 0.46981 0.75244
 H463 H 0.87898 0.55959 0.77978
 H464 H 0.88510 0.54279 0.69290
 C465 C 0.23022 0.35917 0.02202
 C466 C 0.23050 0.34643 -0.01055
 C467 C 0.23703 0.36780 -0.03102
 C468 C 0.24332 0.40057 -0.01735
 C469 C 0.26170 0.37600 0.02731
 C470 C 0.26837 0.39770 0.00701
 C471 C 0.20874 0.38578 0.02171
 C472 C 0.21500 0.40701 0.00080
 H473 H 0.22595 0.32226 -0.01688
 H474 H 0.24877 0.41791 -0.03430
 H475 H 0.27630 0.37418 0.04699
 H476 H 0.18948 0.38712 0.03616
 C477 C 0.75577 0.14158 -0.02840
 C478 C 0.76081 0.15744 0.00302
 C479 C 0.76561 0.13813 0.02594
 C480 C 0.76608 0.10410 0.01477
 C481 C 0.78401 0.12285 -0.03267
 C482 C 0.78960 0.10354 -0.01030
 C483 C 0.73039 0.11640 -0.02488
 C484 C 0.73535 0.09725 -0.00197
 H485 H 0.75929 0.18205 0.00673
 H486 H 0.76972 0.08781 0.03283
 H487 H 0.79664 0.12150 -0.05308
 H488 H 0.70977 0.11449 -0.03883
 C489 C 0.25434 0.64878 0.45894
 C490 C 0.26676 0.66598 0.48824
 C491 C 0.26986 0.64770 0.51225
 C492 C 0.26037 0.61353 0.50470
 C493 C 0.27624 0.62308 0.45408
 C494 C 0.27934 0.60450 0.47759
 C495 C 0.22453 0.63296 0.46873
 C496 C 0.22749 0.61410 0.49216
 H497 H 0.26943 0.69068 0.49141
 H498 H 0.26292 0.59814 0.52378
 H499 H 0.28927 0.62068 0.43392
 H500 H 0.20284 0.63614 0.45755
 C501 C 0.72862 0.85874 0.52729
 C502 C 0.72662 0.84519 0.49489
 C503 C 0.73361 0.86569 0.47371
 C504 C 0.74057 0.89880 0.48636
 C505 C 0.75993 0.87550 0.53118
 C506 C 0.76610 0.89654 0.51027
 C507 C 0.70634 0.88496 0.52613
 C508 C 0.71261 0.90595 0.50482
 H509 H 0.72042 0.82118 0.48916
 H510 H 0.74576 0.91548 0.46874
 H511 H 0.77512 0.87249 0.55033
 H512 H 0.68561 0.88559 0.53835
 C513 C 0.02743 0.24145 0.35704
 C514 C -0.00441 0.24447 0.34249
 C515 C -0.02731 0.24556 0.36227
 C516 C -0.01640 0.24435 0.39537
 C517 C 0.03060 0.26935 0.37936
 C518 C 0.00821 0.27099 0.39984
 C519 C 0.02366 0.21341 0.37653
 C520 C 0.00138 0.21506 0.39686
 H521 H -0.00922 0.24701 0.31884
 H522 H -0.03530 0.24483 0.41120
 H523 H 0.04915 0.28657 0.37859
 H524 H 0.03851 0.19440 0.37531
 C525 C -0.04238 0.76059 0.14707
 C526 C -0.01461 0.76946 0.16776
 C527 C 0.01195 0.77252 0.15332
 C528 C 0.00860 0.76716 0.11892
 C529 C -0.04241 0.78467 0.12280
 C530 C -0.01577 0.78865 0.10878
 C531 C -0.03337 0.73122 0.12927
 C532 C -0.00664 0.73449 0.11453
 H533 H -0.01548 0.76991 0.19212
 H534 H 0.03000 0.77094 0.10680
 H535 H -0.06190 0.79771 0.11729
 H536 H -0.04767 0.71037 0.12625
 C537 C 0.47136 0.26246 0.65592
 C538 C 0.50273 0.26518 0.67174
 C539 C 0.52647 0.26808 0.65314
 C540 C 0.51668 0.26920 0.61966
 C541 C 0.47080 0.29167 0.63728
 C542 C 0.49468 0.29536 0.61876
 C543 C 0.47286 0.23649 0.63165
 C544 C 0.49639 0.23987 0.61280
 H545 H 0.50582 0.26423 0.69597
 H546 H 0.53576 0.27165 0.60407
 H547 H 0.45279 0.30745 0.63683
 H548 H 0.45671 0.21681 0.62985
 C549 C 0.52681 0.73377 0.85510
 C550 C 0.49509 0.73354 0.84053
 C551 C 0.47262 0.73806 0.86002
 C552 C 0.48361 0.74206 0.89321
 C553 C 0.53019 0.76465 0.87383
 C554 C 0.50756 0.76901 0.89362
 C555 C 0.52489 0.70997 0.87949
 C556 C 0.50247 0.71415 0.89935
 H557 H 0.49104 0.73227 0.81631
 H558 H 0.46522 0.74525 0.90937
 H559 H 0.55024 0.78003 0.87472
 H560 H 0.54072 0.69192 0.88148
 C561 C 0.10955 0.23807 0.32638
 C562 C 0.10277 0.23412 0.29510
 C563 C 0.07264 0.23268 0.28472
 C564 C 0.04910 0.23464 0.30455
 C565 C 0.05449 0.23884 0.33595
 C566 C 0.08543 0.23953 0.34706
 C567 C 0.13994 0.24108 0.33754
 C568 C 0.14666 0.24359 0.36837
 C569 C 0.12338 0.24333 0.38864
 C570 C 0.09324 0.24141 0.37823
 H571 H 0.15883 0.24188 0.32265
 H572 H 0.17005 0.24564 0.37656
 H573 H 0.12867 0.24492 0.41263
 H574 H 0.07647 0.24134 0.39511
 H575 H 0.06711 0.22903 0.26085
 H576 H 0.02667 0.23177 0.29442
 C577 C 0.57480 0.69280 0.79466
 C578 C 0.59572 0.71726 0.78846
 C579 C 0.59291 0.74631 0.80207
 C580 C 0.57080 0.75128 0.82300
 C581 C 0.55046 0.72727 0.83131
 C582 C 0.55147 0.69787 0.81558
 C583 C 0.57597 0.66366 0.77958
 C584 C 0.55454 0.63998 0.78464
 C585 C 0.53130 0.64494 0.80432
 C586 C 0.52952 0.67348 0.81943
 H587 H 0.59308 0.65900 0.76335
 H588 H 0.55568 0.61782 0.77284
 H589 H 0.51434 0.62663 0.80773
 H590 H 0.51031 0.67594 0.83353
 H591 H 0.60828 0.76540 0.79667
 H592 H 0.56970 0.77456 0.83195
 C593 C 0.40795 0.77042 0.81460
 C594 C 0.38509 0.74687 0.81812
 C595 C 0.39031 0.72320 0.83771
 C596 C 0.41828 0.72183 0.85293
 C597 C 0.44177 0.74389 0.84860
 C598 C 0.43649 0.76900 0.83004
 C599 C 0.40338 0.79497 0.79540
 C600 C 0.42615 0.81789 0.79206
 C601 C 0.45388 0.81679 0.80754
 C602 C 0.45914 0.79262 0.82626
 H603 H 0.38226 0.79678 0.78281
 H604 H 0.42223 0.83662 0.77740
 H605 H 0.47144 0.83473 0.80499
 H606 H 0.48095 0.79292 0.83803
 H607 H 0.37296 0.70505 0.84038
 H608 H 0.42216 0.70250 0.86686
 C609 C -0.11240 0.26092 0.35146
 C610 C -0.11934 0.24250 0.32444
 C611 C -0.09728 0.22242 0.31468
 C612 C -0.06847 0.22332 0.32809
 C613 C -0.05967 0.24482 0.35143
 C614 C -0.08181 0.26395 0.36343
 C615 C -0.13503 0.27529 0.36786
 C616 C -0.12736 0.29579 0.39220
 C617 C -0.09709 0.30202 0.40101
 C618 C -0.07447 0.28621 0.38687
 H619 H -0.15885 0.26979 0.36299
 H620 H -0.14499 0.30695 0.40423
 H621 H -0.09115 0.31857 0.41940
 H622 H -0.05135 0.29171 0.39449
 H623 H -0.10125 0.20649 0.29553
 H624 H -0.05240 0.20754 0.31928
 C625 C -0.11372 0.78388 0.19084
 C626 C -0.12778 0.75447 0.19567
 C627 C -0.11409 0.72821 0.18473
 C628 C -0.08695 0.73040 0.16962
 C629 C -0.07186 0.75907 0.16492
 C630 C -0.08468 0.78615 0.17747
 C631 C -0.12810 0.81123 0.19859
 C632 C -0.11307 0.83996 0.19653
 C633 C -0.08356 0.84209 0.18662
 C634 C -0.06945 0.81565 0.17720
 H635 H -0.15126 0.81083 0.20577
 H636 H -0.12428 0.86065 0.20293
 H637 H -0.07166 0.86443 0.18578
 H638 H -0.04647 0.81893 0.16995
 H639 H -0.12408 0.70549 0.18859
 H640 H -0.07756 0.70898 0.16272
 C641 C 0.42102 0.22402 0.71658
 C642 C 0.39810 0.24572 0.71940
 C643 C 0.40158 0.27322 0.70427
 C644 C 0.42488 0.27827 0.68448
 C645 C 0.44621 0.25609 0.67859
 C646 C 0.44473 0.22877 0.69565
 C647 C 0.42251 0.19907 0.73594
 C648 C 0.44463 0.17767 0.73296
 C649 C 0.46646 0.18109 0.71145
 C650 C 0.46691 0.20642 0.69335
 H651 H 0.40764 0.19645 0.75457
 H652 H 0.44517 0.15864 0.74786
 H653 H 0.48378 0.16450 0.70938
 H654 H 0.48545 0.20816 0.67824
 H655 H 0.38520 0.29077 0.70647
 H656 H 0.42556 0.30008 0.67395
 C657 C 0.61192 0.28560 0.67016
 C658 C 0.61627 0.26571 0.69454
 C659 C 0.59275 0.24380 0.69998
 C660 C 0.56459 0.24436 0.68525
 C661 C 0.55830 0.26723 0.66500
 C662 C 0.58220 0.28814 0.65717
 C663 C 0.63639 0.30222 0.65748
 C664 C 0.63130 0.32416 0.63619
 C665 C 0.60184 0.32969 0.62683
 C666 C 0.57746 0.31185 0.63711
 H667 H 0.65967 0.29778 0.66321
 H668 H 0.65029 0.33710 0.62712
 H669 H 0.59788 0.34739 0.61098
 H670 H 0.55507 0.31699 0.62924
 H671 H 0.59507 0.22711 0.71712
 H672 H 0.54699 0.22740 0.69079
 C673 C 0.08163 0.74859 0.19810
 C674 C 0.09996 0.77649 0.19846
 C675 C 0.08953 0.80151 0.18300
 C676 C 0.06097 0.79982 0.16852
 C677 C 0.04163 0.77343 0.16983
 C678 C 0.05178 0.74748 0.18486
 C679 C 0.09276 0.72128 0.20934
 C680 C 0.07435 0.69428 0.20945
 C681 C 0.04475 0.69362 0.19787
 C682 C 0.03357 0.71975 0.18544
 H683 H 0.11601 0.72006 0.21724
 H684 H 0.08324 0.67364 0.21827
 H685 H 0.03059 0.67253 0.19786
 H686 H 0.01085 0.71756 0.17568
 H687 H 0.10340 0.82278 0.18260
 H688 H 0.05364 0.81949 0.15663
 C689 C 0.29278 0.08372 0.19560
 C690 C 0.28960 0.10883 0.21634
 C691 C 0.30778 0.11172 0.24256
 C692 C 0.32910 0.09039 0.24875
 C693 C 0.33312 0.06483 0.22901
 C694 C 0.31482 0.06170 0.20163
 C695 C 0.27364 0.07939 0.16948
 C696 C 0.27672 0.05472 0.14908
 C697 C 0.29851 0.03362 0.15438
 C698 C 0.31718 0.03681 0.18028
 H699 H 0.25577 0.09463 0.16470
 H700 H 0.26195 0.05183 0.12915
 H701 H 0.30073 0.01438 0.13849
 H702 H 0.33306 0.01914 0.18304
 H703 H 0.30549 0.13090 0.25855
 H704 H 0.34185 0.09444 0.26964
 C705 C 0.80095 0.58526 0.69476
 C706 C 0.79535 0.60658 0.71857
 C707 C 0.80850 0.60325 0.74700
 C708 C 0.82820 0.58016 0.75206
 C709 C 0.83592 0.55927 0.72876
 C710 C 0.82044 0.56073 0.70006
 C711 C 0.78634 0.58694 0.66619
 C712 C 0.79027 0.56472 0.64338
 C713 C 0.80815 0.54011 0.64877
 C714 C 0.82274 0.53786 0.67677
 H715 H 0.77136 0.60507 0.66131
 H716 H 0.77884 0.56625 0.62164
 H717 H 0.81044 0.52240 0.63125
 H718 H 0.83498 0.51751 0.67991
 H719 H 0.80334 0.61874 0.76568
 H720 H 0.83630 0.57851 0.77501
 C721 C 0.83618 0.39292 0.74657
 C722 C 0.81329 0.39431 0.76809
 C723 C 0.80778 0.42236 0.78272
 C724 C 0.82373 0.44924 0.77549
 C725 C 0.84562 0.44900 0.75325
 C726 C 0.85263 0.42050 0.73908
 C727 C 0.84253 0.36476 0.73179
 C728 C 0.86464 0.36375 0.71009
 C729 C 0.88064 0.39065 0.70265
 C730 C 0.87471 0.41875 0.71690
 H731 H 0.83051 0.34338 0.73693
 H732 H 0.86933 0.34201 0.69892
 H733 H 0.89770 0.38977 0.68569
 H734 H 0.88759 0.43889 0.71033
 H735 H 0.79019 0.42362 0.79915
 H736 H 0.81827 0.47068 0.78682
 C737 C 0.30863 -0.08117 0.27973
 C738 C 0.30663 -0.10254 0.25441
 C739 C 0.32020 -0.09432 0.22753
 C740 C 0.33739 -0.06670 0.22593
 C741 C 0.34013 -0.04563 0.25059
 C742 C 0.32494 -0.05224 0.27742
 C743 C 0.29254 -0.08650 0.30629
 C744 C 0.29354 -0.06461 0.33017
 C745 C 0.30968 -0.03658 0.32791
 C746 C 0.32483 -0.03017 0.30171
 H747 H 0.27811 -0.10697 0.30873
 H748 H 0.28118 -0.06920 0.35032
 H749 H 0.31010 -0.01952 0.34639
 H750 H 0.33659 -0.00782 0.30079
 H751 H 0.31846 -0.10996 0.20783
 H752 H 0.34785 -0.06124 0.20492
 C753 C 0.16678 -0.13077 0.73157
 C754 C 0.19848 -0.13127 0.73865
 C755 C 0.21412 -0.10358 0.74836
 C756 C 0.20010 -0.07583 0.74939
 C757 C 0.16937 -0.07382 0.74084
 C758 C 0.15221 -0.10200 0.73240
 C759 C 0.14852 -0.15838 0.72658
 C760 C 0.11754 -0.15793 0.72010
 C761 C 0.10364 -0.13016 0.71965
 C762 C 0.12047 -0.10263 0.72623
 H763 H 0.15737 -0.18076 0.72904
 H764 H 0.10410 -0.17934 0.71617
 H765 H 0.07942 -0.12998 0.71510
 H766 H 0.10769 -0.08227 0.72716
 H767 H 0.23809 -0.10291 0.75445
 H768 H 0.21403 -0.05611 0.75780
 C769 C 0.65697 0.36476 0.24919
 C770 C 0.68899 0.36548 0.24715
 C771 C 0.70494 0.39374 0.24458
 C772 C 0.69021 0.42112 0.24506
 C773 C 0.65871 0.42182 0.24910
 C774 C 0.64158 0.39292 0.24893
 C775 C 0.63988 0.33672 0.25200
 C776 C 0.60833 0.33596 0.25243
 C777 C 0.59318 0.36297 0.25009
 C778 C 0.60947 0.39112 0.24832
 H779 H 0.65059 0.31516 0.25413
 H780 H 0.59554 0.31424 0.25432
 H781 H 0.56863 0.36214 0.24984
 H782 H 0.59638 0.41118 0.24611
 H783 H 0.72927 0.39467 0.24178
 H784 H 0.70417 0.44167 0.24164
 C785 C 0.71506 0.57344 0.25315
 C786 C 0.70287 0.59764 0.27064
 C787 C 0.67548 0.59169 0.28510
 C788 C 0.65984 0.56297 0.28188
 C789 C 0.67027 0.53939 0.26309
 C790 C 0.69756 0.54515 0.24733
 C791 C 0.74450 0.57637 0.24161
 C792 C 0.75477 0.55405 0.22158
 C793 C 0.73607 0.52838 0.21276
 C794 C 0.70778 0.52388 0.22541
 H795 H 0.76017 0.59547 0.24838
 H796 H 0.77720 0.55690 0.21256
 H797 H 0.74370 0.51160 0.19640
 H798 H 0.69404 0.50382 0.21728
 H799 H 0.66576 0.60958 0.29880
 H800 H 0.63925 0.55925 0.29416
 C801 C 0.20609 0.08653 0.73864
 C802 C 0.20633 0.10253 0.76722
 C803 C 0.18970 0.08966 0.79045
 C804 C 0.17437 0.06085 0.78638
 C805 C 0.17571 0.04371 0.75919
 C806 C 0.19148 0.05652 0.73489
 C807 C 0.21897 0.10011 0.71331
 C808 C 0.21899 0.08397 0.68555
 C809 C 0.20576 0.05427 0.68221
 C810 C 0.19192 0.04068 0.70647
 H811 H 0.22833 0.12357 0.71431
 H812 H 0.22903 0.09470 0.66642
 H813 H 0.20566 0.04192 0.66054
 H814 H 0.18097 0.01803 0.70241
 H815 H 0.18921 0.10164 0.81229
 H816 H 0.16203 0.05146 0.80492
 C817 C 0.18306 0.29736 0.06479
 C818 C 0.20549 0.28878 0.08572
 C819 C 0.23515 0.30112 0.08420
 C820 C 0.24274 0.32291 0.06352
 C821 C 0.22087 0.33381 0.04349
 C822 C 0.19081 0.31949 0.04302
 C823 C 0.15340 0.28344 0.06427
 C824 C 0.13169 0.29096 0.04283
 C825 C 0.13918 0.31197 0.02123
 C826 C 0.16833 0.32589 0.02106
 H827 H 0.14681 0.26622 0.08000
 H828 H 0.10908 0.28004 0.04268
 H829 H 0.12238 0.31731 0.00426
 H830 H 0.17280 0.34115 0.00308
 H831 H 0.25277 0.29407 0.09954
 H832 H 0.26634 0.33047 0.06339
 C833 C 0.73495 0.78387 0.57169
 C834 C 0.71496 0.78975 0.59534
 C835 C 0.69952 0.81691 0.59599
 C836 C 0.70399 0.83859 0.57427
 C837 C 0.72438 0.83422 0.55091
 C838 C 0.74128 0.80697 0.55055
 C839 C 0.74855 0.75530 0.56831
 C840 C 0.77020 0.75059 0.54673
 C841 C 0.77867 0.77409 0.52805
 C842 C 0.76452 0.80193 0.52983
 H843 H 0.74228 0.73611 0.58191
 H844 H 0.78065 0.72869 0.54469
 H845 H 0.79605 0.77061 0.51176
 H846 H 0.77239 0.81919 0.51479
 H847 H 0.68444 0.82196 0.61412
 H848 H 0.69197 0.85936 0.57701
 C849 C 0.71167 0.82792 0.39676
 C850 C 0.74106 0.82213 0.38653
 C851 C 0.76659 0.83556 0.40261
 C852 C 0.76357 0.85198 0.42984
 C853 C 0.73497 0.85551 0.44173
 C854 C 0.70867 0.84440 0.42481
 C855 C 0.68518 0.81801 0.37970
 C856 C 0.65650 0.82330 0.39050
 C857 C 0.65362 0.83872 0.41827
 C858 C 0.67940 0.84929 0.43531
 H859 H 0.68632 0.80668 0.35768
 H860 H 0.63639 0.81554 0.37717
 H861 H 0.63130 0.84280 0.42651
 H862 H 0.67627 0.86165 0.45651
 H863 H 0.78921 0.83168 0.39503
 H864 H 0.78384 0.86008 0.44273
 C865 C 0.21397 0.33319 -0.10899
 C866 C 0.24315 0.32795 -0.12000
 C867 C 0.26892 0.34088 -0.10389
 C868 C 0.26634 0.35612 -0.07596
 C869 C 0.23797 0.35892 -0.06337
 C870 C 0.21141 0.34847 -0.08027
 C871 C 0.18724 0.32368 -0.12586
 C872 C 0.15874 0.32828 -0.11428
 C873 C 0.15629 0.34257 -0.08590
 C874 C 0.18232 0.35269 -0.06903
 H875 H 0.18810 0.31314 -0.14827
 H876 H 0.13845 0.32084 -0.12746
 H877 H 0.13412 0.34612 -0.07704
 H878 H 0.17953 0.36416 -0.04735
 H879 H 0.29144 0.33730 -0.11189
 H880 H 0.28680 0.36375 -0.06315
 C881 C 0.71418 0.19775 -0.08019
 C882 C 0.73656 0.20280 -0.10190
 C883 C 0.76499 0.19092 -0.09759
 C884 C 0.77105 0.17254 -0.07361
 C885 C 0.74873 0.16461 -0.05285
 C886 C 0.72050 0.17926 -0.05505
 C887 C 0.68617 0.21186 -0.08217
 C888 C 0.66480 0.20812 -0.06002
 C889 C 0.67109 0.19087 -0.03521
 C890 C 0.69863 0.17686 -0.03249
 H891 H 0.68068 0.22642 -0.10044
 H892 H 0.64347 0.21916 -0.06183
 H893 H 0.65466 0.18861 -0.01774
 H894 H 0.70257 0.16485 -0.01213
 H895 H 0.78284 0.19576 -0.11321
 H896 H 0.79390 0.16519 -0.07154
 C897 C 0.23253 0.67161 0.37725
 C898 C 0.24172 0.70334 0.37913
 C899 C 0.25652 0.71588 0.40532
 C900 C 0.26088 0.69826 0.43023
 C901 C 0.25027 0.66714 0.43032
 C902 C 0.23679 0.65327 0.40286
 C903 C 0.22026 0.65744 0.35002
 C904 C 0.21151 0.62622 0.34806
 C905 C 0.21526 0.60833 0.37288
 C906 C 0.22792 0.62145 0.39982
 H907 H 0.21789 0.67004 0.32974
 H908 H 0.20211 0.61576 0.32704
 H909 H 0.20868 0.58397 0.37114
 H910 H 0.23091 0.60591 0.41777
 H911 H 0.26450 0.73991 0.40671
 H912 H 0.27304 0.70974 0.44919
 C913 C 0.29088 0.65727 0.59690
 C914 C 0.27446 0.68359 0.60463
 C915 C 0.25800 0.69740 0.58192
 C916 C 0.25762 0.68600 0.55227
 C917 C 0.27449 0.66083 0.54370
 C918 C 0.29211 0.64686 0.56602
 C919 C 0.30545 0.64041 0.61905
 C920 C 0.32300 0.61586 0.61092
 C921 C 0.32632 0.60755 0.58067
 C922 C 0.31109 0.62285 0.55838
 H923 H 0.30294 0.64544 0.64282
 H924 H 0.33423 0.60335 0.62818
 H925 H 0.34049 0.58890 0.57446
 H926 H 0.31454 0.61589 0.53516
 H927 H 0.24524 0.71742 0.58703
 H928 H 0.24328 0.69669 0.53599
 C929 C 0.77785 0.14625 0.11281
 C930 C 0.75965 0.17148 0.11931
 C931 C 0.74252 0.18313 0.09578
 C932 C 0.74449 0.17157 0.06624
 C933 C 0.76485 0.14893 0.05853
 C934 C 0.78225 0.13653 0.08222
 C935 C 0.79168 0.13022 0.13608
 C936 C 0.81218 0.10782 0.12956
 C937 C 0.81926 0.10102 0.09986
 C938 C 0.80457 0.11528 0.07649
 H939 H 0.78643 0.13443 0.15944
 H940 H 0.82292 0.09603 0.14765
 H941 H 0.83595 0.08436 0.09486
 H942 H 0.81120 0.10978 0.05407
 H943 H 0.72796 0.20198 0.10001
 H944 H 0.73004 0.18092 0.04918
 C945 C 0.49645 0.37692 0.58948
 C946 C 0.49575 0.36985 0.55804
 C947 C 0.49826 0.33933 0.54755
 C948 C 0.49932 0.31556 0.56765
 C949 C 0.49799 0.32172 0.59877
 C950 C 0.49799 0.35273 0.61002
 C951 C 0.49593 0.40764 0.60096
 C952 C 0.49726 0.41439 0.63194
 C953 C 0.49937 0.39083 0.65200
 C954 C 0.49987 0.36030 0.64127
 H955 H 0.49496 0.42668 0.58613
 H956 H 0.49699 0.43806 0.64042
 H957 H 0.50081 0.39627 0.67602
 H958 H 0.50224 0.34283 0.65766
 H959 H 0.49784 0.33366 0.52355
 H960 H 0.49970 0.29201 0.55876
 C961 C -0.01185 0.83107 0.03508
 C962 C -0.00811 0.86194 0.04701
 C963 C -0.00582 0.86746 0.07832
 C964 C -0.00725 0.84329 0.09783
 C965 C -0.01100 0.81276 0.08670
 C966 C -0.01302 0.80631 0.05518
 C967 C -0.01598 0.82414 0.00381
 C968 C -0.01991 0.79372 -0.00738
 C969 C -0.02044 0.76964 0.01224
 C970 C -0.01734 0.77581 0.04322
 H971 H -0.01682 0.84193 -0.01233
 H972 H -0.02290 0.78881 -0.03141
 H973 H -0.02371 0.74608 0.00344
 H974 H -0.01868 0.75657 0.05768
 H975 H -0.00321 0.89084 0.08782
 H976 H -0.00603 0.84848 0.12192
 C977 C 0.04272 0.68159 0.06640
 C978 C 0.01956 0.66510 0.04857
 C979 C -0.01065 0.67229 0.05224
 C980 C -0.01833 0.69453 0.07362
 C981 C 0.00376 0.71019 0.09282
 C982 C 0.03472 0.70322 0.08953
 C983 C 0.07375 0.67755 0.06143
 C984 C 0.09627 0.69217 0.08039
 C985 C 0.08839 0.71118 0.10445
 C986 C 0.05804 0.71666 0.10892
 H987 H 0.08104 0.66359 0.04262
 H988 H 0.11993 0.68859 0.07648
 H989 H 0.10588 0.72203 0.11956
 H990 H 0.05319 0.73123 0.12784
 H991 H -0.02872 0.66024 0.03870
 H992 H -0.04199 0.69971 0.07485
 C993 C 0.48508 0.17814 0.54874
 C994 C 0.51493 0.16737 0.54788
 C995 C 0.53756 0.18112 0.56765
 C996 C 0.53129 0.20512 0.58785
 C997 C 0.50231 0.21660 0.58864
 C998 C 0.47924 0.20402 0.56806
 C999 C 0.46057 0.16339 0.53159
 C1000 C 0.43204 0.17565 0.53105
 C1001 C 0.42721 0.20260 0.54770
 C1002 C 0.45049 0.21670 0.56611
 H1003 H 0.46282 0.14195 0.51897
 H1004 H 0.41362 0.16425 0.51750
 H1005 H 0.40519 0.21239 0.54671
 H1006 H 0.44576 0.23771 0.57854
 H1007 H 0.56042 0.17327 0.56743
 H1008 H 0.54916 0.21447 0.60340
 C1009 C 0.01969 0.15765 0.45633
 C1010 C -0.00861 0.14053 0.45712
 C1011 C -0.03314 0.14936 0.43912
 C1012 C -0.03002 0.17431 0.42050
 C1013 C -0.00261 0.19184 0.42009
 C1014 C 0.02180 0.18477 0.43958
 C1015 C 0.04632 0.14821 0.47094
 C1016 C 0.07296 0.16702 0.47227
 C1017 C 0.07369 0.19540 0.45899
 C1018 C 0.04836 0.20424 0.44277
 H1019 H 0.04725 0.12603 0.48077
 H1020 H 0.09303 0.15967 0.48392
 H1021 H 0.09409 0.21040 0.46084
 H1022 H 0.04937 0.22665 0.43327
 H1023 H -0.05494 0.13674 0.43931
 H1024 H -0.04897 0.17963 0.40590
 C1025 C 0.51941 0.66359 0.96552
 C1026 C 0.49061 0.64768 0.96746
 C1027 C 0.46625 0.65625 0.94916
 C1028 C 0.47010 0.67909 0.92840
 C1029 C 0.49838 0.69439 0.92542
 C1030 C 0.52288 0.68799 0.94522
 C1031 C 0.54522 0.65524 0.98223
 C1032 C 0.57287 0.67211 0.98100
 C1033 C 0.57555 0.69735 0.96292
 C1034 C 0.55091 0.70523 0.94509
 H1035 H 0.54472 0.63542 0.99599
 H1036 H 0.59232 0.66559 0.99420
 H1037 H 0.59694 0.71065 0.96239
 H1038 H 0.55398 0.72503 0.93138
 H1039 H 0.44406 0.64456 0.95039
 H1040 H 0.45113 0.68392 0.91364
 C1041 C 0.49092 0.84046 0.94313
 C1042 C 0.51852 0.84388 0.96049
 C1043 C 0.54096 0.82286 0.95575
 C1044 C 0.53661 0.79867 0.93444
 C1045 C 0.50960 0.79449 0.91702
 C1046 C 0.48623 0.81524 0.92157
 C1047 C 0.46838 0.86221 0.94571
 C1048 C 0.44145 0.85860 0.92844
 C1049 C 0.43657 0.83362 0.90802
 C1050 C 0.45873 0.81227 0.90446
 H1051 H 0.47143 0.88251 0.96053
 H1052 H 0.42438 0.87542 0.93074
 H1053 H 0.41565 0.83095 0.89458
 H1054 H 0.45407 0.79366 0.88811
 H1055 H 0.56218 0.82515 0.96878
 H1056 H 0.55465 0.78301 0.93149
 C1057 C -0.00713 0.32393 0.46918
 C1058 C 0.00681 0.35218 0.46008
 C1059 C 0.01694 0.35324 0.43049
 C1060 C 0.01597 0.32708 0.41148
 C1061 C 0.00696 0.29801 0.42165
 C1062 C -0.00400 0.29624 0.45132
 C1063 C -0.02470 0.32231 0.49510
 C1064 C -0.03418 0.29394 0.50604
 C1065 C -0.02651 0.26678 0.49125
 C1066 C -0.01156 0.26785 0.46412
 H1067 H -0.03236 0.34280 0.50636
 H1068 H -0.04720 0.29304 0.52627
 H1069 H -0.03280 0.24478 0.50044
 H1070 H -0.00567 0.24633 0.45367
 H1071 H 0.02629 0.37429 0.42164
 H1072 H 0.02314 0.32975 0.38861
 C1073 C 0.31852 0.52766 0.48076
 C1074 C 0.34834 0.53792 0.47332
 C1075 C 0.35459 0.56913 0.46847
 C1076 C 0.33211 0.59017 0.47085
 C1077 C 0.30235 0.58079 0.47774
 C1078 C 0.29530 0.54927 0.48285
 C1079 C 0.31085 0.49622 0.48483
 C1080 C 0.28128 0.48633 0.49124
 C1081 C 0.25869 0.50734 0.49313
 C1082 C 0.26546 0.53842 0.48869
 H1083 H 0.32737 0.47890 0.48266
 H1084 H 0.27578 0.46216 0.49434
 H1085 H 0.23568 0.49945 0.49769
 H1086 H 0.24702 0.55361 0.48943
 H1087 H 0.37722 0.57736 0.46283
 H1088 H 0.33799 0.61415 0.46698
 C1089 C 0.83791 0.03803 -0.03794
 C1090 C 0.86465 0.04505 -0.01999
 C1091 C 0.86576 0.06996 0.00099
 C1092 C 0.84113 0.08838 0.00401
 C1093 C 0.81415 0.08173 -0.01292
 C1094 C 0.81254 0.05667 -0.03459
 C1095 C 0.83579 0.01277 -0.05905
 C1096 C 0.80949 0.00636 -0.07687
 C1097 C 0.78490 0.02485 -0.07402
 C1098 C 0.78632 0.04979 -0.05319
 H1099 H 0.85429 -0.00230 -0.06186
 H1100 H 0.80818 -0.01308 -0.09296
 H1101 H 0.76455 0.01975 -0.08793
 H1102 H 0.76653 0.06329 -0.05153
 H1103 H 0.88638 0.07598 0.01427
 H1104 H 0.84388 0.10886 0.01865
 C1105 C 0.69269 0.02476 0.02609
 C1106 C 0.66335 0.03615 0.02891
 C1107 C 0.65882 0.06684 0.02271
 C1108 C 0.68238 0.08591 0.01264
 C1109 C 0.71136 0.07501 0.00832
 C1110 C 0.71668 0.04404 0.01507
 C1111 C 0.69888 -0.00531 0.03449
 C1112 C 0.72740 -0.01678 0.03048
 C1113 C 0.75030 0.00141 0.01824
 C1114 C 0.74506 0.03144 0.01067
 H1115 H 0.68199 -0.02010 0.04464
 H1116 H 0.73172 -0.03992 0.03684
 H1117 H 0.77235 -0.00768 0.01482
 H1118 H 0.76346 0.04447 0.00132
 H1119 H 0.63660 0.07594 0.02494
 H1120 H 0.67788 0.10955 0.00819
 C1121 C 0.17245 0.56642 0.54004
 C1122 C 0.15330 0.55193 0.51673
 C1123 C 0.15963 0.55746 0.48668
 C1124 C 0.18357 0.57759 0.47948
 C1125 C 0.20165 0.59380 0.50200
 C1126 C 0.19556 0.58882 0.53269
 C1127 C 0.16963 0.55888 0.57048
 C1128 C 0.18686 0.57513 0.59333
 C1129 C 0.20711 0.59913 0.58635
 C1130 C 0.21134 0.60600 0.55638
 H1131 H 0.15466 0.54003 0.57695
 H1132 H 0.18421 0.56928 0.61658
 H1133 H 0.21981 0.61233 0.60418
 H1134 H 0.22657 0.62520 0.55206
 H1135 H 0.14559 0.54650 0.46845
 H1136 H 0.18797 0.58051 0.45588
 C1137 C 0.18015 0.48456 -0.01320
 C1138 C 0.14954 0.47393 -0.01913
 C1139 C 0.14169 0.44237 -0.01885
 C1140 C 0.16326 0.42143 -0.01227
 C1141 C 0.19366 0.43113 -0.00608
 C1142 C 0.20237 0.46300 -0.00635
 C1143 C 0.18931 0.51606 -0.01435
 C1144 C 0.21935 0.52626 -0.00778
 C1145 C 0.24077 0.50539 -0.00004
 C1146 C 0.23243 0.47409 0.00070
 H1147 H 0.17351 0.53303 -0.02054
 H1148 H 0.22603 0.55050 -0.00862
 H1149 H 0.26400 0.51347 0.00533
 H1150 H 0.24967 0.45885 0.00702
 H1151 H 0.11840 0.43382 -0.02318
 H1152 H 0.15603 0.39728 -0.01192
 C1153 C 0.67860 0.98352 0.48836
 C1154 C 0.64768 0.97338 0.48378
 C1155 C 0.63935 0.94201 0.48522
 C1156 C 0.66073 0.92084 0.49196
 C1157 C 0.69136 0.93013 0.49735
 C1158 C 0.70056 0.96180 0.49558
 C1159 C 0.68836 1.01466 0.48537
 C1160 C 0.71868 1.02448 0.49073
 C1161 C 0.73983 1.00357 0.49897
 C1162 C 0.73092 0.97259 0.50133
 H1163 H 0.67287 1.03165 0.47854
 H1164 H 0.72580 1.04844 0.48850
 H1165 H 0.76331 1.01133 0.50338
 H1166 H 0.74801 0.95735 0.50777
 H1167 H 0.61586 0.93381 0.48167
 H1168 H 0.65317 0.89683 0.49303
 C1169 C 0.82590 0.95702 0.54238
 C1170 C 0.84800 0.95452 0.52002
 C1171 C 0.84137 0.93583 0.49396
 C1172 C 0.81423 0.91798 0.49072
 C1173 C 0.79309 0.91818 0.51351
 C1174 C 0.79834 0.93849 0.53926
 C1175 C 0.83013 0.97827 0.56730
 C1176 C 0.80815 0.98059 0.58901
 C1177 C 0.78138 0.96225 0.58616
 C1178 C 0.77632 0.94156 0.56151
 H1179 H 0.85000 0.99386 0.56995
 H1180 H 0.81174 0.99700 0.60794
 H1181 H 0.76422 0.96441 0.60289
 H1182 H 0.75466 0.92873 0.55975
 H1183 H 0.85784 0.93418 0.47646
 H1184 H 0.81020 0.90304 0.47074
 C1185 C 0.33100 0.45370 0.04164
 C1186 C 0.35219 0.45236 0.01837
 C1187 C 0.34416 0.43609 -0.00880
 C1188 C 0.31635 0.41947 -0.01251
 C1189 C 0.29577 0.41881 0.01078
 C1190 C 0.30242 0.43703 0.03772
 C1191 C 0.33721 0.47200 0.06837
 C1192 C 0.31579 0.47380 0.09069
 C1193 C 0.28773 0.45785 0.08671
 C1194 C 0.28092 0.43979 0.06049
 H1195 H 0.35835 0.48552 0.07209
 H1196 H 0.32085 0.48800 0.11100
 H1197 H 0.27100 0.45973 0.10391
 H1198 H 0.25844 0.42869 0.05801
 H1199 H 0.35995 0.43550 -0.02698
 H1200 H 0.31132 0.40618 -0.03337
 C1201 C 0.54389 0.50844 0.33364
 C1202 C 0.55144 0.49279 0.36017
 C1203 C 0.57905 0.47835 0.36125
 C1204 C 0.59746 0.47707 0.33646
 C1205 C 0.58837 0.48825 0.30855
 C1206 C 0.56092 0.50392 0.30701
 C1207 C 0.52016 0.52888 0.33290
 C1208 C 0.51054 0.54096 0.30590
 C1209 C 0.52445 0.53305 0.27923
 C1210 C 0.54938 0.51473 0.27971
 H1211 H 0.50948 0.53652 0.35323
 H1212 H 0.49199 0.55624 0.30563
 H1213 H 0.51624 0.54161 0.25813
 H1214 H 0.55904 0.50891 0.25848
 H1215 H 0.58640 0.46699 0.38115
 H1216 H 0.61875 0.46606 0.33901
 C1217 C 0.04353 -0.01813 0.81844
 C1218 C 0.05620 -0.01706 0.84830
 C1219 C 0.08780 -0.01466 0.85276
 C1220 C 0.10688 -0.01351 0.82845
 C1221 C 0.09506 -0.01472 0.79883
 C1222 C 0.06319 -0.01671 0.79355
 C1223 C 0.01190 -0.02217 0.81255
 C1224 C -0.00007 -0.02363 0.78309
 C1225 C 0.01912 -0.02174 0.75891
 C1226 C 0.05043 -0.01862 0.76401
 H1227 H -0.00394 -0.02483 0.83039
 H1228 H -0.02436 -0.02661 0.77898
 H1229 H 0.00972 -0.02314 0.73607
 H1230 H 0.06446 -0.01804 0.74463
 H1231 H 0.09784 -0.01398 0.87535
 H1232 H 0.13122 -0.01236 0.83275
 C1233 C 0.06917 0.04134 0.67154
 C1234 C 0.05210 0.01737 0.65492
 C1235 C 0.05747 -0.01326 0.66077
 C1236 C 0.07966 -0.02046 0.68181
 C1237 C 0.09816 0.00260 0.69740
 C1238 C 0.09340 0.03396 0.69159
 C1239 C 0.06243 0.07255 0.66918
 C1240 C 0.08088 0.09603 0.68356
 C1241 C 0.10624 0.08893 0.70062
 C1242 C 0.11242 0.05829 0.70460
 H1243 H 0.04260 0.07918 0.65676
 H1244 H 0.07562 0.11984 0.68123
 H1245 H 0.12101 0.10722 0.71114
 H1246 H 0.13243 0.05404 0.71757
 H1247 H 0.04465 -0.03202 0.64863
 H1248 H 0.08219 -0.04453 0.68605
 C1249 C 0.58320 0.52612 0.15658
 C1250 C 0.55293 0.51302 0.15413
 C1251 C 0.54302 0.49263 0.17588
 C1252 C 0.56210 0.48526 0.19973
 C1253 C 0.59158 0.49858 0.20318
 C1254 C 0.60232 0.51936 0.18172
 C1255 C 0.59558 0.54452 0.13404
 C1256 C 0.62518 0.55742 0.13706
 C1257 C 0.64328 0.55181 0.16217
 C1258 C 0.63212 0.53275 0.18415
 H1259 H 0.58309 0.54856 0.11349
 H1260 H 0.63422 0.57161 0.11965
 H1261 H 0.66626 0.56181 0.16438
 H1262 H 0.64709 0.52838 0.20287
 H1263 H 0.52020 0.48209 0.17434
 H1264 H 0.55380 0.46886 0.21564
 C1265 C 0.47265 -0.00991 0.18698
 C1266 C 0.46245 -0.01737 0.15684
 C1267 C 0.43147 -0.01691 0.14923
 C1268 C 0.41079 -0.00805 0.17050
 C1269 C 0.42034 0.00063 0.20013
 C1270 C 0.45154 -0.00014 0.20860
 C1271 C 0.50327 -0.01238 0.19631
 C1272 C 0.51318 -0.00381 0.22571
 C1273 C 0.49290 0.00732 0.24631
 C1274 C 0.46244 0.00920 0.23786
 H1275 H 0.51976 -0.02131 0.18125
 H1276 H 0.53674 -0.00568 0.23250
 H1277 H 0.50076 0.01440 0.26899
 H1278 H 0.44767 0.01832 0.25430
 H1279 H 0.42327 -0.02274 0.12636
 H1280 H 0.38703 -0.00771 0.16369
 C1281 C 0.93663 0.47483 0.64670
 C1282 C 0.96763 0.48178 0.65494
 C1283 C 0.97547 0.49504 0.68355
 C1284 C 0.95322 0.50142 0.70410
 C1285 C 0.92253 0.49480 0.69659
 C1286 C 0.91395 0.48099 0.66791
 C1287 C 0.92748 0.46278 0.61760
 C1288 C 0.89693 0.45575 0.61009
 C1289 C 0.87492 0.46070 0.63121
 C1290 C 0.88323 0.47325 0.65981
 H1291 H 0.94361 0.45896 0.60023
 H1292 H 0.89032 0.44637 0.58776
 H1293 H 0.85126 0.45493 0.62537
 H1294 H 0.86546 0.47634 0.67565
 H1295 H 0.99904 0.50082 0.68989
 H1296 H 0.95998 0.51251 0.72568
 C1297 C 0.91779 0.52135 0.85540
 C1298 C 0.94971 0.52099 0.85305
 C1299 C 0.96214 0.51470 0.82499
 C1300 C 0.94370 0.51129 0.79899
 C1301 C 0.91238 0.51405 0.80037
 C1302 C 0.89893 0.51772 0.82881
 C1303 C 0.90413 0.52442 0.88364
 C1304 C 0.87267 0.52429 0.88556
 C1305 C 0.85422 0.52067 0.85958
 C1306 C 0.86709 0.51721 0.83147
 H1307 H 0.91747 0.52628 0.90450
 H1308 H 0.86253 0.52661 0.90736
 H1309 H 0.82980 0.52020 0.86124
 H1310 H 0.85182 0.51356 0.81203
 H1311 H 0.98648 0.51381 0.82302
 H1312 H 0.95416 0.50780 0.77751
 C1313 C 0.43476 0.00387 0.34839
 C1314 C 0.45328 0.03162 0.35165
 C1315 C 0.45055 0.05399 0.33021
 C1316 C 0.43031 0.04935 0.30574
 C1317 C 0.41235 0.02186 0.30122
 C1318 C 0.41510 -0.00161 0.32232
 C1319 C 0.43431 -0.01808 0.37096
 C1320 C 0.41677 -0.04561 0.36709
 C1321 C 0.39907 -0.05172 0.34093
 C1322 C 0.39812 -0.02996 0.31888
 H1323 H 0.44671 -0.01402 0.39217
 H1324 H 0.41682 -0.06224 0.38453
 H1325 H 0.38560 -0.07321 0.33791
 H1326 H 0.38390 -0.03577 0.29932
 H1327 H 0.46443 0.07532 0.33225
 H1328 H 0.42906 0.06740 0.28975
   
