data_POSCAR
  _audit_creation_date              2014-09-24
  _audit_creation_method            'ToBaCCo'
  _symmetry_space_group_name_H-M    'P1'
  _symmetry_Int_Tables_number       1
  _symmetry_cell_setting            triclinic
  loop_
  _symmetry_equiv_pos_as_xyz
 x,y,z
_cell_length_a 50.7847
_cell_length_b 50.6722
_cell_length_c 45.0321
_cell_angle_alpha 89.433700
_cell_angle_beta 90.308400
_cell_angle_gamma 91.117100
loop_
  _atom_site_label
  _atom_site_type_symbol
  _atom_site_fract_x
  _atom_site_fract_y
  _atom_site_fract_z
C1 C 0.37183 0.02457 0.29304
 C2 C 0.35448 0.04624 0.28025
 C3 C 0.33882 0.03802 0.25732
 C4 C 0.34193 0.00878 0.24917
 C5 C 0.35276 0.00193 0.30150
 C6 C 0.33714 -0.00635 0.27855
 C7 C 0.38728 0.01430 0.26658
 C8 C 0.37166 0.00596 0.24369
 H9 H 0.35463 0.06633 0.28850
 H10 H 0.32914 0.00214 0.23047
 H11 H 0.35320 -0.00814 0.32291
 H12 H 0.40866 0.01396 0.26584
 C13 C 0.12555 -0.01948 0.77177
 C14 C 0.14050 -0.04225 0.75815
 C15 C 0.15659 -0.03456 0.73534
 C16 C 0.15601 -0.00475 0.72814
 C17 C 0.14701 0.00067 0.78088
 C18 C 0.16300 0.00836 0.75799
 C19 C 0.11146 -0.00720 0.74736
 C20 C 0.12821 0.00098 0.72346
 H21 H 0.13992 -0.06225 0.76711
 H22 H 0.16906 0.00145 0.70947
 H23 H 0.14799 0.00971 0.80265
 H24 H 0.09020 -0.00504 0.74682
 C25 C 0.62824 0.48047 0.27480
 C26 C 0.64319 0.45775 0.26124
 C27 C 0.65906 0.46531 0.23825
 C28 C 0.65844 0.49499 0.23073
 C29 C 0.64947 0.50095 0.28336
 C30 C 0.66526 0.50853 0.26030
 C31 C 0.61320 0.49307 0.24894
 C32 C 0.62901 0.50075 0.22593
 H33 H 0.64251 0.43773 0.27015
 H34 H 0.67132 0.50109 0.21190
 H35 H 0.65038 0.51037 0.30493
 H36 H 0.59196 0.49530 0.24861
 C37 C 0.86722 0.52519 0.79225
 C38 C 0.85035 0.54704 0.77902
 C39 C 0.83481 0.53886 0.75596
 C40 C 0.83755 0.50952 0.74815
 C41 C 0.84773 0.50292 0.80067
 C42 C 0.83223 0.49470 0.77760
 C43 C 0.88278 0.51448 0.76611
 C44 C 0.86728 0.50620 0.74311
 H45 H 0.85073 0.56720 0.78706
 H46 H 0.82487 0.50292 0.72935
 H47 H 0.84791 0.49289 0.82212
 H48 H 0.90416 0.51398 0.76559
 C49 C 0.28054 0.41778 1.00127
 C50 C 0.26923 0.40158 1.02736
 C51 C 0.24883 0.38515 1.01937
 C52 C 0.24173 0.38623 0.98618
 C53 C 0.28799 0.39739 0.97806
 C54 C 0.26778 0.38086 0.97026
 C55 C 0.25691 0.43223 0.98796
 C56 C 0.23653 0.41565 0.98018
 H57 H 0.27626 0.40338 1.05009
 H58 H 0.22523 0.37273 0.97965
 H59 H 0.30750 0.39630 0.96840
 H60 H 0.25522 0.45357 0.98802
 C61 C 0.76844 0.07677 0.99006
 C62 C 0.75790 0.09460 0.96516
 C63 C 0.73884 0.11127 0.97446
 C64 C 0.73217 0.10848 1.00771
 C65 C 0.77788 0.09586 1.01427
 C66 C 0.75895 0.11251 1.02346
 C67 C 0.74557 0.06303 1.00226
 C68 C 0.72561 0.08050 1.01197
 H69 H 0.76554 0.09483 0.94267
 H70 H 0.71671 0.12208 1.01532
 H71 H 0.79758 0.09576 1.02385
 H72 H 0.74261 0.04175 1.00123
 C73 C 0.26968 0.57710 0.48914
 C74 C 0.25965 0.59509 0.46420
 C75 C 0.24057 0.61180 0.47313
 C76 C 0.23325 0.60906 0.50613
 C77 C 0.27862 0.59585 0.51383
 C78 C 0.25966 0.61258 0.52263
 C79 C 0.24513 0.56275 0.50125
 C80 C 0.22605 0.57953 0.51013
 H81 H 0.26751 0.59522 0.44180
 H82 H 0.21771 0.62268 0.51341
 H83 H 0.29814 0.59562 0.52385
 H84 H 0.24230 0.54145 0.50078
 C85 C 0.78174 0.91645 0.50233
 C86 C 0.77057 0.89980 0.52816
 C87 C 0.74997 0.88363 0.52002
 C88 C 0.74256 0.88545 0.48695
 C89 C 0.78881 0.89648 0.47853
 C90 C 0.76843 0.88024 0.47057
 C91 C 0.75809 0.93129 0.48970
 C92 C 0.73751 0.91503 0.48177
 H93 H 0.77772 0.90124 0.55088
 H94 H 0.72592 0.87219 0.48026
 H95 H 0.80826 0.89536 0.46870
 H96 H 0.75657 0.95264 0.49027
 C97 C -0.00616 0.28617 0.40030
 C98 C 0.01709 0.28889 0.37869
 C99 C 0.01902 0.26800 0.35988
 C100 C -0.00243 0.24634 0.36453
 C101 C -0.02931 0.28208 0.38172
 C102 C -0.02724 0.26027 0.36203
 C103 C -0.00198 0.25984 0.41649
 C104 C 0.00002 0.23895 0.39782
 H105 H 0.03100 0.30545 0.37868
 H106 H -0.00082 0.22929 0.34933
 H107 H -0.04651 0.29450 0.38239
 H108 H -0.00046 0.25791 0.44049
 C109 C 0.00551 0.76906 0.10499
 C110 C -0.01806 0.76845 0.12607
 C111 C -0.01874 0.74700 0.14460
 C112 C 0.00411 0.72792 0.14029
 C113 C 0.02971 0.76700 0.12528
 C114 C 0.02893 0.74551 0.14378
 C115 C 0.00393 0.74286 0.08849
 C116 C 0.00323 0.72137 0.10691
 H117 H -0.03270 0.78381 0.12661
 H118 H 0.00349 0.71034 0.15525
 H119 H 0.04573 0.78153 0.12548
 H120 H 0.00390 0.74140 0.06443
 C121 C 0.50603 0.27198 0.60923
 C122 C 0.48171 0.27031 0.62918
 C123 C 0.48151 0.24905 0.64802
 C124 C 0.50552 0.23122 0.64508
 C125 C 0.52953 0.27147 0.63068
 C126 C 0.52919 0.25023 0.64951
 C127 C 0.50649 0.24560 0.59311
 C128 C 0.50623 0.22429 0.61179
 H129 H 0.46642 0.28502 0.62904
 H130 H 0.50530 0.21380 0.66028
 H131 H 0.54490 0.28670 0.63117
 H132 H 0.50683 0.24390 0.56908
 C133 C 0.49573 0.78237 0.90146
 C134 C 0.51914 0.78388 0.87994
 C135 C 0.52050 0.76248 0.86175
 C136 C 0.49845 0.74159 0.86691
 C137 C 0.47144 0.77863 0.88137
 C138 C 0.47290 0.75731 0.86316
 C139 C 0.49841 0.75763 0.91749
 C140 C 0.49993 0.73528 0.89859
 H141 H 0.53338 0.80016 0.87934
 H142 H 0.49956 0.72415 0.85219
 H143 H 0.45482 0.79181 0.88125
 H144 H 0.49999 0.75617 0.94154
 C145 C -0.22429 0.62001 0.95801
 C146 C -0.20264 0.60256 0.97067
 C147 C -0.21076 0.58697 0.99388
 C148 C -0.23984 0.59029 1.00242
 C149 C -0.24700 0.60095 0.95010
 C150 C -0.25512 0.58541 0.97331
 C151 C -0.23426 0.63566 0.98447
 C152 C -0.24247 0.62013 1.00765
 H153 H -0.18272 0.60241 0.96197
 H154 H -0.24640 0.57759 1.02135
 H155 H -0.25712 0.60121 0.92877
 H156 H -0.23446 0.65709 0.98500
 C157 C -0.26824 0.37667 0.47655
 C158 C -0.29114 0.39148 0.49012
 C159 C -0.28372 0.40735 0.51313
 C160 C -0.25406 0.40675 0.52055
 C161 C -0.24809 0.39831 0.46778
 C162 C -0.24070 0.41411 0.49087
 C163 C -0.25623 0.36231 0.50095
 C164 C -0.24835 0.37886 0.52506
 H165 H -0.31104 0.39087 0.48109
 H166 H -0.24808 0.41964 0.53936
 H167 H -0.23890 0.39962 0.44605
 H168 H -0.25432 0.34098 0.50149
 C169 C 0.23249 -0.12450 -0.02180
 C170 C 0.20938 -0.10961 -0.00887
 C171 C 0.21637 -0.09368 0.01424
 C172 C 0.24590 -0.09431 0.02240
 C173 C 0.25285 -0.10294 -0.03017
 C174 C 0.25987 -0.08709 -0.00699
 C175 C 0.24401 -0.13882 0.00293
 C176 C 0.25147 -0.12222 0.02716
 H177 H 0.18965 -0.11026 -0.01835
 H178 H 0.25153 -0.08138 0.04130
 H179 H 0.26251 -0.10179 -0.05164
 H180 H 0.24621 -0.16012 0.00342
 C181 C 0.27637 1.12259 0.45718
 C182 C 0.29823 1.10509 0.46929
 C183 C 0.29033 1.08899 0.49217
 C184 C 0.26125 1.09187 0.50093
 C185 C 0.25377 1.10349 0.44892
 C186 C 0.24584 1.08744 0.47180
 C187 C 0.26637 1.13760 0.48409
 C188 C 0.25838 1.12156 0.50692
 H189 H 0.31819 1.10550 0.46070
 H190 H 0.25487 1.07875 0.51957
 H191 H 0.24347 1.10420 0.42772
 H192 H 0.26593 1.15901 0.48514
 C193 C 0.15874 0.53140 0.24474
 C194 C 0.14137 0.52066 0.21942
 C195 C 0.12593 0.49947 0.22768
 C196 C 0.12905 0.49111 0.26036
 C197 C 0.13966 0.53733 0.26979
 C198 C 0.12410 0.51644 0.27787
 C199 C 0.17441 0.50751 0.25572
 C200 C 0.15878 0.48633 0.26372
 H201 H 0.14235 0.52809 0.19673
 H202 H 0.11629 0.47406 0.26717
 H203 H 0.13841 0.55655 0.28017
 H204 H 0.19569 0.50638 0.25393
 C205 C -0.17056 1.01779 0.26253
 C206 C -0.15299 1.00658 0.28722
 C207 C -0.13671 0.98730 0.27763
 C208 C -0.13961 0.98108 0.24431
 C209 C -0.15132 1.02722 0.23834
 C210 C -0.13507 1.00805 0.22886
 C211 C -0.18468 0.99529 0.25012
 C212 C -0.16762 0.97511 0.24008
 H213 H -0.15243 1.01414 0.30972
 H214 H -0.12633 0.96543 0.23647
 H215 H -0.15112 1.04705 0.22889
 H216 H -0.20596 0.99274 0.25112
 C217 C 0.32979 0.51882 -0.23685
 C218 C 0.34761 0.50798 -0.21225
 C219 C 0.36397 0.48876 -0.22169
 C220 C 0.36107 0.48215 -0.25483
 C221 C 0.34860 0.52798 -0.26148
 C222 C 0.36497 0.50890 -0.27080
 C223 C 0.31510 0.49470 -0.24937
 C224 C 0.33150 0.47550 -0.25876
 H225 H 0.34798 0.51551 -0.18973
 H226 H 0.37439 0.46652 -0.26255
 H227 H 0.34856 0.54771 -0.27120
 H228 H 0.29381 0.49215 -0.24870
 C229 C 0.66387 0.02995 -0.25343
 C230 C 0.64753 0.01802 -0.27890
 C231 C 0.63148 -0.00252 -0.27008
 C232 C 0.63312 -0.00915 -0.23675
 C233 C 0.64374 0.03748 -0.22999
 C234 C 0.62762 0.01714 -0.22135
 C235 C 0.67876 0.00669 -0.23986
 C236 C 0.66264 -0.01384 -0.23126
 H237 H 0.64894 0.02477 -0.30182
 H238 H 0.61996 -0.02576 -0.22953
 H239 H 0.64253 0.05716 -0.22074
 H240 H 0.70008 0.00530 -0.24036
 C241 C 0.03074 0.24266 0.84498
 C242 C 0.03224 0.26608 0.86642
 C243 C 0.01087 0.26743 0.88467
 C244 C -0.01000 0.24539 0.87964
 C245 C 0.02695 0.21829 0.86516
 C246 C 0.00565 0.21976 0.88343
 C247 C 0.00608 0.24541 0.82901
 C248 C -0.01624 0.24694 0.84798
 H249 H 0.04851 0.28032 0.86696
 H250 H -0.02741 0.24649 0.89442
 H251 H 0.04014 0.20166 0.86539
 H252 H 0.00469 0.24719 0.80497
 C253 C 0.52252 0.25593 0.14536
 C254 C 0.52110 0.23187 0.12504
 C255 C 0.50012 0.23193 0.10599
 C256 C 0.48229 0.25595 0.10907
 C257 C 0.52225 0.27981 0.12424
 C258 C 0.50129 0.27976 0.10519
 C259 C 0.49596 0.25612 0.16122
 C260 C 0.47492 0.25613 0.14228
 H261 H 0.53566 0.21644 0.12527
 H262 H 0.46512 0.25596 0.09366
 H263 H 0.53743 0.29524 0.12413
 H264 H 0.49396 0.25603 0.18523
 C265 C 0.02310 0.75839 0.64459
 C266 C 0.02155 0.73420 0.62447
 C267 C 0.00053 0.73422 0.60549
 C268 C -0.01721 0.75832 0.60843
 C269 C 0.02288 0.78214 0.62328
 C270 C 0.00187 0.78204 0.60430
 C271 C -0.00339 0.75877 0.66052
 C272 C -0.02447 0.75873 0.64167
 H273 H 0.03608 0.71874 0.62475
 H274 H -0.03443 0.75830 0.59309
 H275 H 0.03816 0.79746 0.62294
 H276 H -0.00533 0.75872 0.68455
 C277 C 0.53249 0.74572 0.34782
 C278 C 0.53386 0.76922 0.36906
 C279 C 0.51266 0.77048 0.38751
 C280 C 0.49196 0.74826 0.38298
 C281 C 0.52885 0.72139 0.36797
 C282 C 0.50772 0.72274 0.38643
 C283 C 0.50627 0.74842 0.33128
 C284 C 0.48510 0.74977 0.34961
 H285 H 0.54998 0.78363 0.36932
 H286 H 0.47466 0.74931 0.39790
 H287 H 0.54196 0.70469 0.36788
 H288 H 0.50463 0.74957 0.30723
 B289 B -0.02055 0.01146 1.02518
 B290 B -0.03299 0.00502 0.99132
 B291 B -0.00943 0.02852 0.99524
 B292 B 0.01199 0.01865 1.02184
 B293 B 0.00136 -0.01164 1.03411
 B294 B -0.02671 -0.02009 1.01512
 B295 B 0.01326 -0.01539 0.97512
 B296 B 0.02577 -0.00897 1.00894
 B297 B 0.00216 -0.03237 1.00502
 B298 B -0.01921 -0.02253 0.97846
 B299 B -0.00858 0.00772 0.96615
 B300 B 0.01953 0.01617 0.98515
 B301 B 0.48043 0.51355 0.52634
 B302 B 0.46841 0.50697 0.49232
 B303 B 0.49199 0.53041 0.49648
 B304 B 0.51306 0.52058 0.52346
 B305 B 0.50215 0.49041 0.53576
 B306 B 0.47428 0.48198 0.51640
 B307 B 0.51473 0.48629 0.47700
 B308 B 0.52686 0.49283 0.51095
 B309 B 0.50319 0.46952 0.50684
 B310 B 0.48222 0.47931 0.47989
 B311 B 0.49312 0.50946 0.46753
 B312 B 0.52102 0.51788 0.48690
 B313 B 0.52141 0.97281 0.53553
 B314 B 0.53356 0.98140 0.50202
 B315 B 0.50770 0.96031 0.50434
 B316 B 0.48819 0.96960 0.53260
 B317 B 0.50242 0.99715 0.54765
 B318 B 0.53079 1.00443 0.52867
 B319 B 0.48950 1.00843 0.48993
 B320 B 0.47727 0.99987 0.52328
 B321 B 0.50332 1.02089 0.52108
 B322 B 0.52262 1.01162 0.49278
 B323 B 0.50839 0.98413 0.47770
 B324 B 0.48014 0.97675 0.49666
 B325 B 0.01965 0.46975 1.03220
 B326 B 0.03154 0.47835 0.99858
 B327 B 0.00581 0.45712 1.00117
 B328 B -0.01357 0.46636 1.02956
 B329 B 0.00062 0.49401 1.04443
 B330 B 0.02881 0.50140 1.02519
 B331 B -0.01276 0.50507 0.98680
 B332 B -0.02470 0.49653 1.02028
 B333 B 0.00121 0.51767 1.01778
 B334 B 0.02036 0.50846 0.98935
 B335 B 0.00617 0.48087 0.97445
 B336 B -0.02191 0.47338 0.99369
 B337 B 0.00419 0.52067 0.47935
 B338 B 0.01721 0.51760 0.51357
 B339 B -0.00615 0.53999 0.50712
 B340 B -0.02819 0.52734 0.48255
 B341 B -0.01819 0.49643 0.47414
 B342 B 0.01015 0.49038 0.49346
 B343 B -0.02900 0.49756 0.53362
 B344 B -0.04205 0.50072 0.49949
 B345 B -0.01869 0.47829 0.50579
 B346 B 0.00334 0.49093 0.53044
 B347 B -0.00667 0.52186 0.53889
 B348 B -0.03498 0.52792 0.51956
 B349 B 0.50550 0.01906 -0.02167
 B350 B 0.51865 0.01602 0.01249
 B351 B 0.49499 0.03814 0.00625
 B352 B 0.47303 0.02531 -0.01832
 B353 B 0.48339 -0.00543 -0.02692
 B354 B 0.51186 -0.01120 -0.00773
 B355 B 0.47274 -0.00468 0.03263
 B356 B 0.45954 -0.00156 -0.00144
 B357 B 0.48322 -0.02372 0.00465
 B358 B 0.50516 -0.01089 0.02928
 B359 B 0.49479 0.01987 0.03792
 B360 B 0.46635 0.02565 0.01873
 B361 B 0.49369 0.48943 -0.03389
 B362 B 0.48153 0.49538 -0.00004
 B363 B 0.50471 0.47251 -0.00402
 B364 B 0.52614 0.48301 -0.03050
 B365 B 0.51589 0.51312 -0.04260
 B366 B 0.48805 0.52076 -0.02359
 B367 B 0.52828 0.51681 0.01655
 B368 B 0.54042 0.51094 -0.01731
 B369 B 0.51715 0.53376 -0.01330
 B370 B 0.49582 0.52319 0.01316
 B371 B 0.50607 0.49314 0.02523
 B372 B 0.53390 0.48546 0.00625
 B373 B -0.00546 0.99104 0.46419
 B374 B -0.01773 0.99680 0.49804
 B375 B 0.00558 0.97406 0.49402
 B376 B 0.02702 0.98475 0.46763
 B377 B 0.01665 1.01487 0.45566
 B378 B -0.01127 1.02230 0.47464
 B379 B 0.02892 1.01838 0.51486
 B380 B 0.04115 1.01270 0.48099
 B381 B 0.01777 1.03540 0.48506
 B382 B -0.00358 1.02463 0.51142
 B383 B 0.00679 0.99458 0.52335
 B384 B 0.03469 0.98710 0.50441
 B385 B 0.76481 0.22871 0.22533
 B386 B 0.75845 0.21677 0.25954
 B387 B 0.78158 0.24063 0.25494
 B388 B 0.77149 0.26149 0.22779
 B389 B 0.74147 0.25019 0.21584
 B390 B 0.73338 0.22227 0.23559
 B391 B 0.73734 0.26307 0.27448
 B392 B 0.74368 0.27511 0.24034
 B393 B 0.72065 0.25118 0.24490
 B394 B 0.73070 0.23039 0.27203
 B395 B 0.76071 0.24168 0.28403
 B396 B 0.76878 0.26963 0.26427
 B397 B 0.72356 0.77185 0.71491
 B398 B 0.73169 0.78345 0.74869
 B399 B 0.71055 0.75769 0.74576
 B400 B 0.72011 0.73856 0.71734
 B401 B 0.74792 0.75287 0.70284
 B402 B 0.75506 0.78096 0.72232
 B403 B 0.75825 0.73896 0.76052
 B404 B 0.75009 0.72729 0.72689
 B405 B 0.77121 0.75320 0.72974
 B406 B 0.76165 0.77220 0.75818
 B407 B 0.73394 0.75784 0.77270
 B408 B 0.72669 0.72986 0.75325
 B409 B 0.26785 0.25456 0.77354
 B410 B 0.26554 0.26766 0.73923
 B411 B 0.28767 0.24415 0.74621
 B412 B 0.27446 0.22207 0.77060
 B413 B 0.24348 0.23218 0.77832
 B414 B 0.23794 0.26064 0.75876
 B415 B 0.24582 0.22146 0.71887
 B416 B 0.24821 0.20829 0.75311
 B417 B 0.22604 0.23181 0.74626
 B418 B 0.23924 0.25389 0.72184
 B419 B 0.27023 0.24376 0.71408
 B420 B 0.27578 0.21533 0.73362
 B421 B 0.23484 0.74368 0.28627
 B422 B 0.24078 0.73151 0.25203
 B423 B 0.21883 0.75581 0.25646
 B424 B 0.23020 0.77658 0.28297
 B425 B 0.25963 0.76480 0.29510
 B426 B 0.26593 0.73666 0.27620
 B427 B 0.26439 0.77751 0.23614
 B428 B 0.25891 0.78965 0.27007
 B429 B 0.28047 0.76526 0.26599
 B430 B 0.26912 0.74469 0.23935
 B431 B 0.23967 0.75654 0.22722
 B432 B 0.23355 0.78460 0.24647
 B433 B 0.26419 0.72970 0.72430
 B434 B 0.25795 0.71748 0.75841
 B435 B 0.28134 0.74109 0.75390
 B436 B 0.27132 0.76237 0.72713
 B437 B 0.24107 0.75159 0.71535
 B438 B 0.23277 0.72355 0.73480
 B439 B 0.23758 0.76386 0.77422
 B440 B 0.24380 0.77622 0.74019
 B441 B 0.22052 0.75253 0.74465
 B442 B 0.23050 0.73131 0.77137
 B443 B 0.26073 0.74210 0.78322
 B444 B 0.26901 0.77016 0.76376
 B445 B 0.22091 0.26835 0.20980
 B446 B 0.22895 0.28223 0.24281
 B447 B 0.20812 0.25584 0.24154
 B448 B 0.21830 0.23525 0.21474
 B449 B 0.24596 0.24921 0.19943
 B450 B 0.25228 0.27851 0.21657
 B451 B 0.25624 0.23900 0.25799
 B452 B 0.24860 0.22524 0.22520
 B453 B 0.26909 0.25170 0.22634
 B454 B 0.25894 0.27210 0.25319
 B455 B 0.23136 0.25805 0.26858
 B456 B 0.22508 0.22879 0.25104
 B457 B 0.76879 0.75560 0.27265
 B458 B 0.76625 0.76861 0.23831
 B459 B 0.78829 0.74498 0.24512
 B460 B 0.77517 0.72307 0.26975
 B461 B 0.74433 0.73340 0.27779
 B462 B 0.73879 0.76182 0.25819
 B463 B 0.74604 0.72245 0.21836
 B464 B 0.74868 0.70939 0.25264
 B465 B 0.72658 0.73302 0.24594
 B466 B 0.73970 0.75495 0.22127
 B467 B 0.77055 0.74460 0.21320
 B468 B 0.77609 0.71620 0.23278
 B469 B 0.73876 0.24219 0.78564
 B470 B 0.74405 0.23016 0.75160
 B471 B 0.72118 0.25320 0.75631
 B472 B 0.73205 0.27467 0.78243
 B473 B 0.76242 0.26458 0.79356
 B474 B 0.76982 0.23679 0.77432
 B475 B 0.76475 0.27721 0.73429
 B476 B 0.75951 0.28923 0.76833
 B477 B 0.78236 0.26609 0.76359
 B478 B 0.77140 0.24472 0.73749
 B479 B 0.74111 0.25482 0.72640
 B480 B 0.73365 0.28258 0.74560
 C481 C 0.47125 1.04840 0.41829
 C482 C 0.44479 1.04075 0.41449
 C483 C 0.43204 1.02597 0.43655
 C484 C 0.44589 1.01728 0.46130
 C485 C 0.38879 1.03310 0.31773
 C486 C 0.48516 1.04016 0.44366
 C487 C 0.43134 1.04367 0.38653
 C488 C 0.41862 1.04281 0.36390
 C489 C 0.40273 1.03866 0.33856
 C490 C 0.47279 1.02386 0.46522
 H491 H 0.48146 1.05948 0.40103
 H492 H 0.41173 1.01948 0.43361
 H493 H 0.43565 1.00389 0.47627
 H494 H 0.50593 1.04509 0.44533
 C495 C -0.03205 0.54624 0.91632
 C496 C -0.05856 0.53866 0.91284
 C497 C -0.07090 0.52314 0.93456
 C498 C -0.05664 0.51384 0.95873
 C499 C -0.11586 0.53356 0.81701
 C500 C -0.01772 0.53734 0.94110
 C501 C -0.07249 0.54247 0.88535
 C502 C -0.08556 0.54230 0.86299
 C503 C -0.10178 0.53877 0.83782
 C504 C -0.02974 0.52053 0.96239
 H505 H -0.02214 0.55784 0.89925
 H506 H -0.09123 0.51667 0.93181
 H507 H -0.06661 0.50008 0.97353
 H508 H 0.00306 0.54231 0.94251
 C509 C 0.03225 -0.04944 0.90108
 C510 C 0.05715 -0.03806 0.89588
 C511 C 0.06905 -0.02212 0.91738
 C512 C 0.05566 -0.01629 0.94325
 C513 C 0.10871 -0.02761 0.79665
 C514 C 0.01884 -0.04390 0.92735
 C515 C 0.06955 -0.03943 0.86741
 C516 C 0.08105 -0.03778 0.84416
 C517 C 0.09555 -0.03318 0.81803
 C518 C 0.03017 -0.02671 0.94849
 H519 H 0.02274 -0.06158 0.88435
 H520 H 0.08820 -0.01297 0.91343
 H521 H 0.06499 -0.00257 0.95848
 H522 H -0.00089 -0.05192 0.93023
 C523 C 0.53450 0.45145 0.40373
 C524 C 0.55948 0.46273 0.39875
 C525 C 0.57116 0.47889 0.42019
 C526 C 0.55748 0.48504 0.44576
 C527 C 0.61156 0.47246 0.29982
 C528 C 0.52079 0.45731 0.42970
 C529 C 0.57215 0.46110 0.37046
 C530 C 0.58381 0.46257 0.34732
 C531 C 0.59841 0.46700 0.32123
 C532 C 0.53190 0.47471 0.45075
 H533 H 0.52515 0.43915 0.38702
 H534 H 0.59037 0.48797 0.41640
 H535 H 0.56666 0.49889 0.46094
 H536 H 0.50103 0.44935 0.43239
 C537 C 0.58523 0.52164 0.07420
 C538 C 0.57360 0.53505 0.09743
 C539 C 0.54882 0.54628 0.09327
 C540 C 0.53517 0.54280 0.06633
 C541 C 0.61832 0.51198 0.19903
 C542 C 0.57156 0.51771 0.04775
 C543 C 0.58564 0.53304 0.12635
 C544 C 0.59617 0.52843 0.14984
 C545 C 0.60843 0.52039 0.17655
 C546 C 0.54603 0.52766 0.04351
 H547 H 0.60420 0.51252 0.07725
 H548 H 0.53945 0.55644 0.11131
 H549 H 0.51548 0.55043 0.06420
 H550 H 0.58055 0.50525 0.03147
 C551 C 0.04909 1.04682 0.59218
 C552 C 0.07393 1.03566 0.59621
 C553 C 0.08573 1.02277 0.57272
 C554 C 0.07219 1.01923 0.54613
 C555 C 0.11823 1.01154 0.69786
 C556 C 0.03556 1.04374 0.56510
 C557 C 0.08588 1.03322 0.62516
 C558 C 0.09633 1.02831 0.64863
 C559 C 0.10847 1.02004 0.67534
 C560 C 0.04659 1.02907 0.54200
 H561 H 0.03959 1.05659 0.61041
 H562 H 0.10475 1.01372 0.57565
 H563 H 0.08131 1.00709 0.52964
 H564 H 0.01582 1.05126 0.56307
 C565 C -0.08467 0.49583 0.59256
 C566 C -0.07394 0.48052 0.61528
 C567 C -0.04978 0.46817 0.61099
 C568 C -0.03602 0.47202 0.58425
 C569 C -0.12145 0.49674 0.71602
 C570 C -0.07093 0.50001 0.56630
 C571 C -0.08660 0.48078 0.64377
 C572 C -0.09781 0.48379 0.66699
 C573 C -0.11090 0.48992 0.69353
 C574 C -0.04618 0.48854 0.56180
 H575 H -0.10319 0.50569 0.59569
 H576 H -0.04114 0.45647 0.62864
 H577 H -0.01700 0.46306 0.58176
 H578 H -0.07951 0.51309 0.54994
 C579 C 0.41748 -0.00673 0.09206
 C580 C 0.42884 -0.02118 0.11511
 C581 C 0.45320 -0.03312 0.11080
 C582 C 0.46656 -0.02964 0.08376
 C583 C 0.38274 -0.00357 0.21651
 C584 C 0.43083 -0.00290 0.06548
 C585 C 0.41662 -0.02035 0.14385
 C586 C 0.40577 -0.01696 0.16722
 C587 C 0.39305 -0.01054 0.19392
 C588 C 0.45581 -0.01388 0.06097
 H589 H 0.39880 0.00283 0.09518
 H590 H 0.46234 -0.04415 0.12868
 H591 H 0.48580 -0.03818 0.08129
 H592 H 0.42182 0.00970 0.04893
 C593 C 0.41398 0.45735 0.00195
 C594 C 0.39788 0.47470 0.01692
 C595 C 0.40853 0.49836 0.02800
 C596 C 0.43529 0.50470 0.02357
 C597 C 0.30306 0.43488 0.00923
 C598 C 0.44038 0.46365 -0.00263
 C599 C 0.37031 0.46794 0.01887
 C600 C 0.34793 0.45966 0.01794
 C601 C 0.32303 0.44731 0.01424
 C602 C 0.45157 0.48748 0.00787
 H603 H 0.40593 0.43910 -0.00698
 H604 H 0.39615 0.51204 0.03951
 H605 H 0.44298 0.52330 0.03184
 H606 H 0.45163 0.45003 -0.01550
 C607 C -0.08492 0.95797 0.49990
 C608 C -0.10105 0.97470 0.51572
 C609 C -0.09057 0.99832 0.52713
 C610 C -0.06398 1.00519 0.52228
 C611 C -0.19555 0.93337 0.51026
 C612 C -0.05869 0.96479 0.49495
 C613 C -0.12844 0.96727 0.51840
 C614 C -0.15069 0.95854 0.51806
 C615 C -0.17553 0.94587 0.51494
 C616 C -0.04766 0.98855 0.50586
 H617 H -0.09281 0.93974 0.49074
 H618 H -0.10296 1.01153 0.53932
 H619 H -0.05641 1.02371 0.53093
 H620 H -0.04738 0.95152 0.48168
 C621 C -0.10569 -0.00043 0.96195
 C622 C -0.11622 0.02292 0.97269
 C623 C -0.10010 0.04091 0.98786
 C624 C -0.07377 0.03549 0.99301
 C625 C -0.21023 0.05966 0.98083
 C626 C -0.07904 -0.00586 0.96694
 C627 C -0.14374 0.02857 0.97037
 C628 C -0.16609 0.03598 0.97120
 C629 C -0.19076 0.04756 0.97518
 C630 C -0.06276 0.01195 0.98289
 H631 H -0.11810 -0.01458 0.95031
 H632 H -0.10811 0.05893 0.99653
 H633 H -0.06241 0.04950 1.00599
 H634 H -0.07145 -0.02427 0.95892
 C635 C 0.39610 0.50094 0.46212
 C636 C 0.38538 0.52435 0.47238
 C637 C 0.40130 0.54266 0.48735
 C638 C 0.42763 0.53746 0.49285
 C639 C 0.29105 0.56002 0.48019
 C640 C 0.42272 0.49573 0.46744
 C641 C 0.35782 0.52965 0.46997
 C642 C 0.33539 0.53675 0.47074
 C643 C 0.31060 0.54805 0.47465
 C644 C 0.43879 0.51382 0.48328
 H645 H 0.38383 0.48654 0.45066
 H646 H 0.39311 0.56074 0.49568
 H647 H 0.43881 0.55164 0.50577
 H648 H 0.43043 0.47723 0.45983
 C649 C 0.09059 0.51779 0.54141
 C650 C 0.10098 0.54028 0.52701
 C651 C 0.08459 0.55596 0.50964
 C652 C 0.05814 0.54908 0.50606
 C653 C 0.19992 0.57020 0.51762
 C654 C 0.06386 0.51088 0.53797
 C655 C 0.12865 0.54691 0.52799
 C656 C 0.15150 0.55363 0.52654
 C657 C 0.17780 0.56239 0.52258
 C658 C 0.04727 0.52633 0.51994
 H659 H 0.10320 0.50537 0.55479
 H660 H 0.09243 0.57326 0.49813
 H661 H 0.04650 0.56133 0.49150
 H662 H 0.05641 0.49316 0.54890
 C663 C 0.59204 0.01727 0.04038
 C664 C 0.60210 0.03995 0.02606
 C665 C 0.58549 0.05537 0.00865
 C666 C 0.55916 0.04807 0.00499
 C667 C 0.70074 0.07148 0.01822
 C668 C 0.56542 0.00992 0.03684
 C669 C 0.62964 0.04710 0.02728
 C670 C 0.65239 0.05423 0.02613
 C671 C 0.67862 0.06340 0.02265
 C672 C 0.54862 0.02513 0.01881
 H673 H 0.60481 0.00505 0.05380
 H674 H 0.59308 0.07282 -0.00277
 H675 H 0.54734 0.06018 -0.00953
 H676 H 0.55823 -0.00791 0.04774
 C677 C 0.59614 0.93882 0.49088
 C678 C 0.61375 0.95683 0.47772
 C679 C 0.60542 0.98229 0.47047
 C680 C 0.57970 0.98984 0.47708
 C681 C 0.71144 0.92504 0.47683
 C682 C 0.57063 0.94631 0.49762
 C683 C 0.64081 0.94948 0.47429
 C684 C 0.66331 0.94236 0.47335
 C685 C 0.68940 0.93322 0.47433
 C686 C 0.56201 0.97206 0.49124
 H687 H 0.60244 0.91918 0.49699
 H688 H 0.61897 0.99651 0.46047
 H689 H 0.57404 1.00984 0.47188
 H690 H 0.55827 0.93216 0.50936
 C691 C 0.09463 0.43658 0.98733
 C692 C 0.11202 0.45489 0.97429
 C693 C 0.10333 0.48020 0.96701
 C694 C 0.07749 0.48735 0.97353
 C695 C 0.21040 0.42528 0.97475
 C696 C 0.06897 0.44368 0.99398
 C697 C 0.13925 0.44808 0.97117
 C698 C 0.16192 0.44150 0.97051
 C699 C 0.18822 0.43300 0.97188
 C700 C 0.06002 0.46931 0.98765
 H701 H 0.10121 0.41705 0.99346
 H702 H 0.11671 0.49464 0.95711
 H703 H 0.07158 0.50728 0.96835
 H704 H 0.05677 0.42936 1.00566
 C705 C -0.00698 0.40236 0.50826
 C706 C -0.02096 0.39420 0.48292
 C707 C -0.03712 0.41193 0.46801
 C708 C -0.03801 0.43807 0.47692
 C709 C -0.00843 0.30845 0.42072
 C710 C -0.00816 0.42867 0.51761
 C711 C -0.01676 0.36897 0.46947
 C712 C -0.01370 0.34905 0.45557
 C713 C -0.01064 0.32686 0.43725
 C714 C -0.02307 0.44713 0.50144
 H715 H 0.00577 0.38879 0.51989
 H716 H -0.04787 0.40594 0.44826
 H717 H -0.04926 0.45149 0.46326
 H718 H 0.00389 0.43486 0.53628
 C719 C 0.49569 -0.09956 0.00706
 C720 C 0.48186 -0.10785 -0.01833
 C721 C 0.46563 -0.09024 -0.03334
 C722 C 0.46448 -0.06410 -0.02443
 C723 C 0.49394 -0.19478 -0.07880
 C724 C 0.49428 -0.07324 0.01638
 C725 C 0.48605 -0.13322 -0.03151
 C726 C 0.48905 -0.15336 -0.04505
 C727 C 0.49196 -0.17595 -0.06281
 C728 C 0.47924 -0.05491 0.00016
 H729 H 0.50847 -0.11303 0.01880
 H730 H 0.45495 -0.09634 -0.05310
 H731 H 0.45309 -0.05079 -0.03807
 H732 H 0.50619 -0.06696 0.03512
 C733 C -0.00284 -0.10953 1.00312
 C734 C 0.00921 -0.11625 1.03013
 C735 C 0.02064 -0.09656 1.04769
 C736 C 0.01927 -0.07021 1.03900
 C737 C 0.00626 -0.20767 1.08537
 C738 C -0.00405 -0.08299 0.99416
 C739 C 0.00826 -0.14281 1.04169
 C740 C 0.00757 -0.16412 1.05378
 C741 C 0.00685 -0.18800 1.07012
 C742 C 0.00668 -0.06292 1.01225
 H743 H -0.01196 -0.12467 0.98946
 H744 H 0.02989 -0.10150 1.06871
 H745 H 0.02765 -0.05552 1.05376
 H746 H -0.01423 -0.07822 0.97370
 C747 C 0.49763 0.39237 0.50563
 C748 C 0.50938 0.38579 0.53286
 C749 C 0.52076 0.40553 0.55036
 C750 C 0.51966 0.43182 0.54140
 C751 C 0.50636 0.29500 0.58926
 C752 C 0.49670 0.41886 0.49640
 C753 C 0.50822 0.35933 0.54466
 C754 C 0.50745 0.33815 0.55702
 C755 C 0.50677 0.31448 0.57371
 C756 C 0.50740 0.43899 0.51441
 H757 H 0.48855 0.37719 0.49201
 H758 H 0.52978 0.40069 0.57155
 H759 H 0.52800 0.44656 0.55613
 H760 H 0.48676 0.42355 0.47577
 C761 C 0.49538 1.08222 0.57174
 C762 C 0.50416 1.10299 0.55356
 C763 C 0.51205 1.09790 0.52442
 C764 C 0.51142 1.07198 0.51368
 C765 C 0.50622 1.19778 0.60044
 C766 C 0.49478 1.05648 0.56119
 C767 C 0.50521 1.12929 0.56543
 C768 C 0.50576 1.15091 0.57642
 C769 C 0.50610 1.17608 0.58967
 C770 C 0.50286 1.05088 0.53201
 H771 H 0.48914 1.08590 0.59428
 H772 H 0.51890 1.11388 0.51011
 H773 H 0.51794 1.06850 0.49126
 H774 H 0.48783 1.04101 0.57609
 C775 C -0.00717 0.57924 1.06790
 C776 C 0.00126 0.59994 1.04942
 C777 C 0.00921 0.59470 1.02035
 C778 C 0.00891 0.56871 1.00993
 C779 C 0.00287 0.69497 1.09534
 C780 C -0.00744 0.55340 1.05765
 C781 C 0.00200 0.62633 1.06092
 C782 C 0.00238 0.64804 1.07163
 C783 C 0.00265 0.67327 1.08462
 C784 C 0.00062 0.54768 1.02850
 H785 H -0.01341 0.58304 1.09040
 H786 H 0.01584 0.61064 1.00585
 H787 H 0.01549 0.56513 0.98756
 H788 H -0.01415 0.53797 1.07274
 C789 C 0.50853 0.61020 -0.01334
 C790 C 0.51936 0.61737 -0.04089
 C791 C 0.53229 0.59856 -0.05757
 C792 C 0.53319 0.57244 -0.04767
 C793 C 0.50413 0.71062 -0.09002
 C794 C 0.50954 0.58397 -0.00323
 C795 C 0.51559 0.64332 -0.05342
 C796 C 0.51213 0.66458 -0.06494
 C797 C 0.50786 0.68930 -0.07877
 C798 C 0.52125 0.56455 -0.02070
 H799 H 0.49845 0.62464 -0.00021
 H800 H 0.54078 0.60384 -0.07890
 H801 H 0.54239 0.55824 -0.06189
 H802 H 0.50004 0.57874 0.01753
 C803 C 0.03278 1.10037 0.44100
 C804 C 0.01972 1.11910 0.45766
 C805 C 0.00881 1.11182 0.48515
 C806 C 0.00989 1.08558 0.49521
 C807 C 0.00453 1.21268 0.40920
 C808 C 0.03376 1.07424 0.45085
 C809 C 0.01596 1.14509 0.44521
 C810 C 0.01252 1.16641 0.43379
 C811 C 0.00827 1.19124 0.42016
 C812 C 0.02176 1.06624 0.47776
 H813 H 0.04134 1.10573 0.41973
 H814 H -0.00137 1.12619 0.49827
 H815 H 0.00034 1.08026 0.51591
 H816 H 0.04307 1.06011 0.43663
 C817 C 0.77505 0.68068 0.81354
 C818 C 0.78998 0.69310 0.83559
 C819 C 0.79782 0.71960 0.83192
 C820 C 0.78967 0.73387 0.80674
 C821 C 0.78395 0.63685 0.93292
 C822 C 0.76652 0.69488 0.78889
 C823 C 0.79312 0.67932 0.86341
 C824 C 0.79266 0.66654 0.88610
 C825 C 0.78907 0.65069 0.91174
 C826 C 0.77332 0.72183 0.78516
 H827 H 0.76845 0.66034 0.81636
 H828 H 0.80903 0.72956 0.84916
 H829 H 0.79478 0.75466 0.80521
 H830 H 0.75318 0.68488 0.77378
 C831 C 0.29574 0.22320 0.33078
 C832 C 0.28863 0.19661 0.33546
 C833 C 0.27394 0.18318 0.31399
 C834 C 0.26507 0.19636 0.28882
 C835 C 0.28433 0.14006 0.43251
 C836 C 0.28727 0.23646 0.30498
 C837 C 0.29239 0.18345 0.36356
 C838 C 0.29236 0.17065 0.38626
 C839 C 0.28917 0.15440 0.41165
 C840 C 0.27135 0.22329 0.28384
 H841 H 0.30673 0.23396 0.34758
 H842 H 0.26785 0.16278 0.31758
 H843 H 0.25195 0.18552 0.27421
 H844 H 0.29188 0.25730 0.30254
 C845 C 0.70303 0.28274 0.34815
 C846 C 0.71402 0.30794 0.35269
 C847 C 0.72969 0.31980 0.33080
 C848 C 0.73569 0.30609 0.30521
 C849 C 0.72393 0.36000 0.45150
 C850 C 0.70874 0.26901 0.32218
 C851 C 0.71260 0.32066 0.38095
 C852 C 0.71414 0.33231 0.40405
 C853 C 0.71856 0.34689 0.43010
 C854 C 0.72570 0.28030 0.30067
 H855 H 0.69111 0.27326 0.36520
 H856 H 0.73854 0.33918 0.33424
 H857 H 0.74924 0.31541 0.28969
 H858 H 0.70107 0.24907 0.31985
 C859 C 0.20380 0.78298 0.84839
 C860 C 0.21530 0.80787 0.85344
 C861 C 0.23120 0.81978 0.83179
 C862 C 0.23688 0.80638 0.80589
 C863 C 0.22503 0.85884 0.95302
 C864 C 0.20922 0.76956 0.82213
 C865 C 0.21399 0.82022 0.88191
 C866 C 0.21554 0.83158 0.90519
 C867 C 0.21985 0.84587 0.93145
 C868 C 0.22638 0.78087 0.80083
 H869 H 0.19168 0.77347 0.86524
 H870 H 0.24040 0.83893 0.83561
 H871 H 0.25054 0.81570 0.79049
 H872 H 0.20112 0.74983 0.81938
 C873 C 0.27151 0.83475 0.17862
 C874 C 0.28364 0.82244 0.15494
 C875 C 0.29362 0.79701 0.15881
 C876 C 0.29003 0.78344 0.18589
 C877 C 0.26136 0.86757 0.05298
 C878 C 0.26747 0.82118 0.20524
 C879 C 0.28154 0.83459 0.12600
 C880 C 0.27703 0.84523 0.10249
 C881 C 0.26932 0.85761 0.07566
 C882 C 0.27604 0.79503 0.20919
 H883 H 0.26336 0.85423 0.17583
 H884 H 0.30279 0.78713 0.14045
 H885 H 0.29654 0.76327 0.18774
 H886 H 0.25584 0.83078 0.22184
 C887 C 0.76835 0.33441 0.67632
 C888 C 0.78207 0.32312 0.65310
 C889 C 0.79366 0.29844 0.65725
 C890 C 0.79030 0.28459 0.68418
 C891 C 0.76127 0.36854 0.55095
 C892 C 0.76460 0.32055 0.70280
 C893 C 0.78039 0.33544 0.62423
 C894 C 0.77624 0.34614 0.60068
 C895 C 0.76894 0.35854 0.57373
 C896 C 0.77499 0.29515 0.70703
 H897 H 0.75900 0.35330 0.67329
 H898 H 0.80409 0.28935 0.63923
 H899 H 0.79829 0.26501 0.68632
 H900 H 0.75210 0.32932 0.71921
 C901 C 0.24556 0.16628 0.65946
 C902 C 0.23118 0.17748 0.63626
 C903 C 0.21880 0.20166 0.64042
 C904 C 0.22176 0.21504 0.66745
 C905 C 0.24908 0.13221 0.53443
 C906 C 0.24883 0.17964 0.68607
 C907 C 0.23234 0.16529 0.60756
 C908 C 0.23583 0.15461 0.58413
 C909 C 0.24223 0.14219 0.55725
 C910 C 0.23741 0.20446 0.69041
 H911 H 0.25542 0.14772 0.65647
 H912 H 0.20780 0.21066 0.62244
 H913 H 0.21287 0.23414 0.66979
 H914 H 0.26129 0.17076 0.70281
 C915 C 0.74511 0.66687 0.15938
 C916 C 0.73090 0.67810 0.13607
 C917 C 0.71879 0.70246 0.14004
 C918 C 0.72185 0.71596 0.16700
 C919 C 0.74835 0.63141 0.03491
 C920 C 0.74850 0.68035 0.18590
 C921 C 0.73194 0.66568 0.10747
 C922 C 0.73534 0.65471 0.08419
 C923 C 0.74161 0.64184 0.05752
 C924 C 0.73735 0.70534 0.19006
 H925 H 0.75477 0.64818 0.15655
 H926 H 0.70791 0.71148 0.12198
 H927 H 0.71319 0.73518 0.16919
 H928 H 0.76088 0.67144 0.20269
 C929 C 0.20435 0.67041 0.21696
 C930 C 0.21841 0.64943 0.22925
 C931 C 0.24131 0.65467 0.24569
 C932 C 0.24920 0.68069 0.25142
 C933 C 0.17463 0.55497 0.23681
 C934 C 0.21229 0.69652 0.22257
 C935 C 0.20792 0.62280 0.22793
 C936 C 0.19843 0.60078 0.22886
 C937 C 0.18623 0.57560 0.23216
 C938 C 0.23386 0.70201 0.24145
 H939 H 0.18674 0.66663 0.20387
 H940 H 0.25247 0.63862 0.25518
 H941 H 0.26650 0.68391 0.26513
 H942 H 0.20101 0.71231 0.21283
 C943 C 0.70597 0.16254 0.75007
 C944 C 0.72224 0.14693 0.73302
 C945 C 0.74540 0.15785 0.72090
 C946 C 0.75224 0.18439 0.72619
 C947 C 0.68072 0.05256 0.73800
 C948 C 0.71275 0.18872 0.75546
 C949 C 0.71481 0.11959 0.72977
 C950 C 0.70602 0.09734 0.72988
 C951 C 0.69327 0.07252 0.73303
 C952 C 0.73602 0.20020 0.74377
 H953 H 0.68809 0.15428 0.75977
 H954 H 0.75824 0.14585 0.70775
 H955 H 0.77036 0.19234 0.71687
 H956 H 0.69978 0.19967 0.76947
 C957 C 0.79500 0.15002 0.26500
 C958 C 0.77695 0.13386 0.28019
 C959 C 0.75343 0.14433 0.29047
 C960 C 0.74786 0.17092 0.28494
 C961 C 0.81277 0.03935 0.27205
 C962 C 0.78944 0.17631 0.25928
 C963 C 0.78253 0.10628 0.28268
 C964 C 0.78975 0.08384 0.28190
 C965 C 0.80099 0.05899 0.27786
 C966 C 0.76569 0.18721 0.26886
 H967 H 0.81314 0.14204 0.25663
 H968 H 0.73922 0.13187 0.30209
 H969 H 0.72930 0.17842 0.29256
 H970 H 0.80343 0.18766 0.24616
 C971 C 0.25299 0.64514 0.78977
 C972 C 0.27623 0.63448 0.77898
 C973 C 0.29396 0.65038 0.76300
 C974 C 0.28840 0.67665 0.75715
 C975 C 0.31297 0.54029 0.77250
 C976 C 0.24741 0.67171 0.78407
 C977 C 0.28199 0.60698 0.78202
 C978 C 0.28943 0.58461 0.78167
 C979 C 0.30097 0.55985 0.77805
 C980 C 0.26496 0.68777 0.76735
 H981 H 0.23903 0.63287 0.80201
 H982 H 0.31189 0.64225 0.75428
 H983 H 0.30222 0.68786 0.74366
 H984 H 0.22910 0.67940 0.79221
 C985 C 0.30428 0.33485 0.74345
 C986 C 0.28944 0.35125 0.72516
 C987 C 0.26726 0.34100 0.71028
 C988 C 0.25988 0.31435 0.71408
 C989 C 0.32171 0.44959 0.73357
 C990 C 0.29694 0.30849 0.74737
 C991 C 0.29667 0.37880 0.72364
 C992 C 0.30396 0.40154 0.72479
 C993 C 0.31339 0.42765 0.72859
 C994 C 0.27454 0.29773 0.73293
 H995 H 0.32134 0.34259 0.75530
 H996 H 0.25549 0.35363 0.69618
 H997 H 0.24247 0.30696 0.70267
 H998 H 0.30866 0.29680 0.76243
 C999 C 0.80543 0.83557 0.24232
 C1000 C 0.79034 0.85221 0.22458
 C1001 C 0.76792 0.84215 0.20999
 C1002 C 0.76052 0.81548 0.21358
 C1003 C 0.82292 0.95050 0.23335
 C1004 C 0.79807 0.80920 0.24604
 C1005 C 0.79760 0.87977 0.22336
 C1006 C 0.80495 0.90248 0.22468
 C1007 C 0.81448 0.92856 0.22853
 C1008 C 0.77540 0.79864 0.23193
 H1009 H 0.82268 0.84315 0.25396
 H1010 H 0.75596 0.85497 0.19632
 H1011 H 0.74289 0.80826 0.20246
 H1012 H 0.80993 0.79736 0.26080
 C1013 C 0.68882 0.84577 0.76000
 C1014 C 0.70637 0.86316 0.77405
 C1015 C 0.73165 0.85479 0.78173
 C1016 C 0.73947 0.82921 0.77471
 C1017 C 0.67290 0.96028 0.77445
 C1018 C 0.69659 0.82045 0.75283
 C1019 C 0.69872 0.89012 0.77779
 C1020 C 0.69118 0.91250 0.77872
 C1021 C 0.68149 0.93840 0.77743
 C1022 C 0.72215 0.81176 0.75969
 H1023 H 0.66934 0.85213 0.75354
 H1024 H 0.74552 0.86821 0.79239
 H1025 H 0.75932 0.82347 0.78030
 H1026 H 0.68280 0.80830 0.74046
 C1027 C 0.19174 0.34155 0.27768
 C1028 C 0.20499 0.36327 0.26485
 C1029 C 0.22714 0.35920 0.24732
 C1030 C 0.23532 0.33361 0.24151
 C1031 C 0.16915 0.46010 0.26726
 C1032 C 0.19996 0.31585 0.27196
 C1033 C 0.19519 0.38966 0.26801
 C1034 C 0.18706 0.41188 0.26914
 C1035 C 0.17749 0.43795 0.26884
 C1036 C 0.22113 0.31144 0.25265
 H1037 H 0.17476 0.34443 0.29166
 H1038 H 0.23772 0.37583 0.23743
 H1039 H 0.25218 0.33134 0.22723
 H1040 H 0.18944 0.29955 0.28240
 C1041 C 0.15030 0.24336 0.74139
 C1042 C 0.14147 0.22940 0.76658
 C1043 C 0.15882 0.21339 0.78227
 C1044 C 0.18518 0.21259 0.77422
 C1045 C 0.05360 0.24089 0.82527
 C1046 C 0.17684 0.24229 0.73293
 C1047 C 0.11580 0.23337 0.77901
 C1048 C 0.09539 0.23622 0.79206
 C1049 C 0.07256 0.23898 0.80945
 C1050 C 0.19485 0.22749 0.74984
 H1051 H 0.13704 0.25600 0.72915
 H1052 H 0.15231 0.20263 0.80190
 H1053 H 0.19822 0.20138 0.78837
 H1054 H 0.18350 0.25430 0.71432
 C1055 C 0.65094 0.74548 0.24246
 C1056 C 0.64231 0.73163 0.26782
 C1057 C 0.65967 0.71535 0.28313
 C1058 C 0.68587 0.71416 0.27454
 C1059 C 0.55520 0.74399 0.32785
 C1060 C 0.67732 0.74403 0.23346
 C1061 C 0.61686 0.73594 0.28074
 C1062 C 0.59664 0.73902 0.29412
 C1063 C 0.57400 0.74200 0.31181
 C1064 C 0.69539 0.72896 0.24999
 H1065 H 0.63768 0.75831 0.23050
 H1066 H 0.65331 0.70466 0.30288
 H1067 H 0.69897 0.70278 0.28844
 H1068 H 0.68386 0.75597 0.21475
 C1069 C 0.65646 0.26827 0.20179
 C1070 C 0.63681 0.25735 0.21991
 C1071 C 0.64357 0.24587 0.24727
 C1072 C 0.67009 0.24481 0.25607
 C1073 C 0.54542 0.25592 0.16539
 C1074 C 0.68277 0.26706 0.21034
 C1075 C 0.61019 0.25660 0.20875
 C1076 C 0.58885 0.25621 0.19691
 C1077 C 0.56497 0.25598 0.18071
 C1078 C 0.69010 0.25515 0.23751
 H1079 H 0.65150 0.27709 0.18052
 H1080 H 0.62849 0.23716 0.26140
 H1081 H 0.67490 0.23515 0.27687
 H1082 H 0.69739 0.27515 0.19522
 C1083 C 0.15642 0.77107 0.70233
 C1084 C 0.13677 0.75972 0.72011
 C1085 C 0.14349 0.74760 0.74713
 C1086 C 0.16999 0.74629 0.75589
 C1087 C 0.04594 0.75840 0.66466
 C1088 C 0.18271 0.76959 0.71081
 C1089 C 0.11025 0.75901 0.70876
 C1090 C 0.08903 0.75866 0.69667
 C1091 C 0.06535 0.75846 0.68017
 C1092 C 0.19001 0.75700 0.73759
 H1093 H 0.15148 0.78036 0.68130
 H1094 H 0.12839 0.73853 0.76096
 H1095 H 0.17478 0.73610 0.77637
 H1096 H 0.19735 0.77794 0.69587
 C1097 C 0.84805 0.76230 0.72736
 C1098 C 0.85361 0.75438 0.69835
 C1099 C 0.83322 0.74531 0.68001
 C1100 C 0.80738 0.74449 0.69026
 C1101 C 0.94893 0.75825 0.65278
 C1102 C 0.82206 0.76144 0.73778
 C1103 C 0.88002 0.75585 0.68677
 C1104 C 0.90176 0.75682 0.67610
 C1105 C 0.92710 0.75769 0.66325
 C1106 C 0.80131 0.75263 0.71929
 H1107 H 0.86374 0.76939 0.74178
 H1108 H 0.83724 0.73906 0.65757
 H1109 H 0.79218 0.73741 0.67524
 H1110 H 0.81823 0.76807 0.76007
 C1111 C 0.34588 0.26162 0.22496
 C1112 C 0.35200 0.25268 0.19650
 C1113 C 0.33197 0.24275 0.17818
 C1114 C 0.30595 0.24206 0.18791
 C1115 C 0.44822 0.25580 0.15315
 C1116 C 0.31972 0.26090 0.23485
 C1117 C 0.37863 0.25394 0.18551
 C1118 C 0.40061 0.25473 0.17540
 C1119 C 0.42622 0.25539 0.16320
 C1120 C 0.29934 0.25121 0.21638
 H1121 H 0.36126 0.26938 0.23937
 H1122 H 0.33642 0.23571 0.15616
 H1123 H 0.29104 0.23428 0.17294
 H1124 H 0.31548 0.26829 0.25672
 C1125 C 0.34574 0.77805 0.30977
 C1126 C 0.36431 0.76590 0.29202
 C1127 C 0.35671 0.75579 0.26434
 C1128 C 0.33036 0.75696 0.25500
 C1129 C 0.45886 0.75322 0.33796
 C1130 C 0.31952 0.77911 0.30064
 C1131 C 0.39062 0.76255 0.30342
 C1132 C 0.41222 0.75963 0.31412
 C1133 C 0.43731 0.75617 0.32717
 C1134 C 0.31127 0.76812 0.27337
 H1135 H 0.35135 0.78599 0.33119
 H1136 H 0.37096 0.74632 0.25039
 H1137 H 0.32483 0.74822 0.23399
 H1138 H 0.30559 0.78794 0.31549
 C1139 C 0.85853 0.25735 0.76166
 C1140 C 0.86615 0.26832 0.78890
 C1141 C 0.84774 0.28155 0.80584
 C1142 C 0.82155 0.28254 0.79657
 C1143 C 0.95924 0.25157 0.83673
 C1144 C 0.83223 0.25845 0.75217
 C1145 C 0.89210 0.26422 0.80097
 C1146 C 0.91335 0.26042 0.81216
 C1147 C 0.93801 0.25569 0.82568
 C1148 C 0.81319 0.27039 0.76998
 H1149 H 0.87265 0.24702 0.74834
 H1150 H 0.85338 0.29014 0.82694
 H1151 H 0.80764 0.29188 0.81104
 H1152 H 0.82664 0.24877 0.73171
 C1153 C 0.57824 0.95975 0.59082
 C1154 C 0.56455 0.95001 0.61546
 C1155 C 0.53813 0.94195 0.61239
 C1156 C 0.52499 0.94567 0.58518
 C1157 C 0.61534 0.98285 0.70913
 C1158 C 0.56509 0.96420 0.56416
 C1159 C 0.57654 0.95402 0.64414
 C1160 C 0.58793 0.96080 0.66644
 C1161 C 0.60236 0.97175 0.69037
 C1162 C 0.53797 0.95823 0.56110
 H1163 H 0.59855 0.96647 0.59301
 H1164 H 0.52721 0.93466 0.63146
 H1165 H 0.50410 0.94110 0.58402
 H1166 H 0.57585 0.97501 0.54723
 C1167 C 0.07640 0.45766 1.08767
 C1168 C 0.06261 0.44831 1.11243
 C1169 C 0.03635 0.43981 1.10929
 C1170 C 0.02335 0.44287 1.08191
 C1171 C 0.11060 0.48453 1.20644
 C1172 C 0.06339 0.46147 1.06080
 C1173 C 0.07410 0.45340 1.14113
 C1174 C 0.08484 0.46104 1.16346
 C1175 C 0.09838 0.47287 1.18748
 C1176 C 0.03631 0.45528 1.05773
 H1177 H 0.09661 0.46469 1.08990
 H1178 H 0.02535 0.43278 1.12844
 H1179 H 0.00251 0.43808 1.08073
 H1180 H 0.07413 0.47210 1.04371
 C1181 C -0.03924 0.03982 1.10223
 C1182 C -0.06407 0.02789 1.10650
 C1183 C -0.07638 0.01449 1.08321
 C1184 C -0.06334 0.01130 1.05650
 C1185 C -0.11711 0.01280 1.20469
 C1186 C -0.02618 0.03700 1.07508
 C1187 C -0.07630 0.02639 1.13519
 C1188 C -0.08798 0.02297 1.15816
 C1189 C -0.10309 0.01755 1.18375
 C1190 C -0.03774 0.02190 1.05216
 H1191 H -0.02948 0.05018 1.12025
 H1192 H -0.09552 0.00505 1.08630
 H1193 H -0.07286 -0.00110 1.04008
 H1194 H -0.00642 0.04515 1.07283
 C1195 C 0.46116 0.54158 0.60329
 C1196 C 0.43619 0.52981 0.60713
 C1197 C 0.42396 0.51684 0.58350
 C1198 C 0.43721 0.51380 0.55689
 C1199 C 0.38290 0.51371 0.70502
 C1200 C 0.47443 0.53893 0.57625
 C1201 C 0.42380 0.52796 0.63572
 C1202 C 0.41206 0.52427 0.65859
 C1203 C 0.39691 0.51860 0.68410
 C1204 C 0.46296 0.52416 0.55301
 H1205 H 0.47086 0.55162 0.62157
 H1206 H 0.40472 0.50752 0.58625
 H1207 H 0.42776 0.50160 0.54024
 H1208 H 0.49430 0.54688 0.57437
 C1209 C 0.43590 0.48233 -0.09025
 C1210 C 0.44622 0.46609 -0.11192
 C1211 C 0.47103 0.45497 -0.10760
 C1212 C 0.48573 0.46088 -0.08187
 C1213 C 0.38384 0.47804 -0.20232
 C1214 C 0.45054 0.48857 -0.06511
 C1215 C 0.43178 0.46398 -0.13939
 C1216 C 0.41782 0.46564 -0.16103
 C1217 C 0.39994 0.47103 -0.18429
 C1218 C 0.47581 0.47817 -0.06049
 H1219 H 0.41686 0.49129 -0.09346
 H1220 H 0.47936 0.44258 -0.12446
 H1221 H 0.50523 0.45288 -0.07943
 H1222 H 0.44220 0.50242 -0.04983
 C1223 C -0.02821 0.95585 0.39090
 C1224 C -0.05300 0.96697 0.38643
 C1225 C -0.06318 0.98366 0.40774
 C1226 C -0.04847 0.99023 0.43273
 C1227 C -0.11650 0.97686 0.29675
 C1228 C -0.01343 0.96211 0.41647
 C1229 C -0.06767 0.96424 0.35917
 C1230 C -0.08188 0.96537 0.33770
 C1231 C -0.10009 0.97022 0.31460
 C1232 C -0.02326 0.97976 0.43754
 H1233 H -0.01999 0.94310 0.37431
 H1234 H -0.08221 0.99261 0.40443
 H1235 H -0.05677 1.00426 0.44783
 H1236 H 0.00602 0.95403 0.41907
 C1237 C 0.02324 0.54394 0.39914
 C1238 C 0.04780 0.53212 0.39602
 C1239 C 0.05960 0.51999 0.42044
 C1240 C 0.04647 0.51819 0.44736
 C1241 C 0.10482 0.51888 0.30098
 C1242 C 0.01005 0.54246 0.42648
 C1243 C 0.06075 0.53025 0.36781
 C1244 C 0.07331 0.52699 0.34556
 C1245 C 0.08967 0.52237 0.32100
 C1246 C 0.02125 0.52894 0.45080
 H1247 H 0.01390 0.55339 0.38027
 H1248 H 0.07855 0.51072 0.41831
 H1249 H 0.05574 0.50701 0.46496
 H1250 H -0.00942 0.55064 0.42806
 C1251 C 0.56119 0.01978 -0.08040
 C1252 C 0.54954 0.03242 -0.10458
 C1253 C 0.52480 0.04389 -0.10139
 C1254 C 0.51137 0.04164 -0.07422
 C1255 C 0.60806 0.02050 -0.19869
 C1256 C 0.54783 0.01722 -0.05369
 C1257 C 0.56286 0.03138 -0.13266
 C1258 C 0.57580 0.02861 -0.15474
 C1259 C 0.59260 0.02421 -0.17901
 C1260 C 0.52251 0.02772 -0.05015
 H1261 H 0.58025 0.01075 -0.08258
 H1262 H 0.51554 0.05370 -0.12007
 H1263 H 0.49183 0.04964 -0.07257
 H1264 H 0.55710 0.00578 -0.03629
 C1265 C 0.61424 0.50790 -0.04221
 C1266 C 0.62435 0.53194 -0.03152
 C1267 C 0.60755 0.54972 -0.01829
 C1268 C 0.58098 0.54343 -0.01491
 C1269 C 0.72080 0.56995 -0.02836
 C1270 C 0.58735 0.50155 -0.03896
 C1271 C 0.65197 0.53876 -0.03262
 C1272 C 0.67447 0.54676 -0.03198
 C1273 C 0.69989 0.55840 -0.03014
 C1274 C 0.57036 0.51915 -0.02489
 H1275 H 0.62714 0.49392 -0.05248
 H1276 H 0.61515 0.56830 -0.00972
 H1277 H 0.56922 0.55727 -0.00297
 H1278 H 0.58010 0.48258 -0.04669
 C1279 C 0.11503 1.01017 0.45608
 C1280 C 0.12506 1.03419 0.46693
 C1281 C 0.10816 1.05181 0.48031
 C1282 C 0.08161 1.04536 0.48365
 C1283 C 0.22167 1.07212 0.47002
 C1284 C 0.08817 1.00366 0.45930
 C1285 C 0.15267 1.04114 0.46582
 C1286 C 0.17519 1.04914 0.46643
 C1287 C 0.20067 1.06069 0.46824
 C1288 C 0.07109 1.02110 0.47350
 H1289 H 0.12800 0.99631 0.44570
 H1290 H 0.11567 1.07036 0.48901
 H1291 H 0.06977 1.05907 0.49568
 H1292 H 0.08101 0.98471 0.45143
 C1293 C 0.09179 -0.04690 1.01354
 C1294 C 0.10770 -0.03047 1.03098
 C1295 C 0.09760 -0.00701 1.04205
 C1296 C 0.07152 -0.00012 1.03543
 C1297 C 0.19764 -0.07550 1.02582
 C1298 C 0.06610 -0.04007 1.00684
 C1299 C 0.13455 -0.03815 1.03551
 C1300 C 0.15613 -0.04761 1.03588
 C1301 C 0.17959 -0.06162 1.03228
 C1302 C 0.05541 -0.01658 1.01756
 H1303 H 0.09942 -0.06500 1.00462
 H1304 H 0.10985 0.00599 1.05545
 H1305 H 0.06414 0.01815 1.04408
 H1306 H 0.05485 -0.05328 0.99277
 C1307 C 0.59254 0.45450 0.51619
 C1308 C 0.60866 0.47114 0.53311
 C1309 C 0.59877 0.49482 0.54383
 C1310 C 0.57267 0.50174 0.53732
 C1311 C 0.69791 0.42556 0.52531
 C1312 C 0.56688 0.46137 0.50954
 C1313 C 0.63555 0.46347 0.53715
 C1314 C 0.65704 0.45385 0.53689
 C1315 C 0.68020 0.43959 0.53244
 C1316 C 0.55638 0.48509 0.51987
 H1317 H 0.60003 0.43624 0.50750
 H1318 H 0.61121 0.50800 0.55679
 H1319 H 0.56544 0.52021 0.54560
 H1320 H 0.55556 0.44805 0.49568
 C1321 C -0.10908 0.46218 0.50450
 C1322 C -0.12569 0.47752 0.48707
 C1323 C -0.11571 0.50010 0.47250
 C1324 C -0.08903 0.50737 0.47579
 C1325 C -0.21850 0.43205 0.48856
 C1326 C -0.08273 0.46932 0.50780
 C1327 C -0.15280 0.46917 0.48483
 C1328 C -0.17464 0.45953 0.48491
 C1329 C -0.19890 0.44566 0.48658
 C1330 C -0.07217 0.49206 0.49365
 H1331 H -0.11657 0.44466 0.51589
 H1332 H -0.12849 0.51211 0.45886
 H1333 H -0.08178 0.52506 0.46467
 H1334 H -0.07086 0.45703 0.52207
 C1335 C 0.39287 -0.04070 0.00424
 C1336 C 0.37579 -0.02508 -0.01227
 C1337 C 0.38541 -0.00226 -0.02669
 C1338 C 0.41215 0.00500 -0.02410
 C1339 C 0.28234 -0.06943 -0.00892
 C1340 C 0.41928 -0.03355 0.00687
 C1341 C 0.34857 -0.03324 -0.01360
 C1342 C 0.32661 -0.04262 -0.01295
 C1343 C 0.30216 -0.05612 -0.01092
 C1344 C 0.42946 -0.01053 -0.00707
 H1345 H 0.38567 -0.05838 0.01553
 H1346 H 0.37228 0.00999 -0.03960
 H1347 H 0.41909 0.02294 -0.03498
 H1348 H 0.43147 -0.04593 0.02068
 C1349 C 0.40203 0.99935 0.54281
 C1350 C 0.39554 1.02561 0.53663
 C1351 C 0.41543 1.04395 0.52984
 C1352 C 0.44136 1.03609 0.52743
 C1353 C 0.30855 1.07143 0.50662
 C1354 C 0.42839 0.99144 0.54102
 C1355 C 0.36876 1.03402 0.53281
 C1356 C 0.34793 1.04385 0.52679
 C1357 C 0.32567 1.05789 0.51697
 C1358 C 0.44843 1.00963 0.53246
 H1359 H 0.38671 0.98481 0.54771
 H1360 H 0.41067 1.06419 0.52433
 H1361 H 0.45512 1.05063 0.51887
 H1362 H 0.43276 0.97083 0.54459
 C1363 C -0.09950 0.49599 1.04204
 C1364 C -0.10617 0.52220 1.03582
 C1365 C -0.08652 0.54047 1.02798
 C1366 C -0.06069 0.53260 1.02467
 C1367 C -0.19293 0.56902 1.00829
 C1368 C -0.07321 0.48808 1.03934
 C1369 C -0.13300 0.53065 1.03305
 C1370 C -0.15385 0.54070 1.02770
 C1371 C -0.17602 0.55512 1.01842
 C1372 C -0.05345 0.50621 1.02986
 H1373 H -0.11465 0.48151 1.04773
 H1374 H -0.09146 0.56065 1.02240
 H1375 H -0.04720 0.54706 1.01545
 H1376 H -0.06869 0.46753 1.04308
 C1377 C 0.01257 0.60718 0.54298
 C1378 C -0.00183 0.62503 0.52597
 C1379 C -0.01517 0.61634 0.50044
 C1380 C -0.01494 0.58953 0.49278
 C1381 C -0.00337 0.71358 0.58400
 C1382 C 0.01254 0.58060 0.53569
 C1383 C -0.00430 0.65140 0.53712
 C1384 C -0.00530 0.67227 0.54966
 C1385 C -0.00503 0.69521 0.56724
 C1386 C -0.00159 0.57116 0.51081
 H1387 H 0.02289 0.61361 0.56284
 H1388 H -0.02651 0.63001 0.48715
 H1389 H -0.02627 0.58305 0.47367
 H1390 H 0.02276 0.56730 0.55053
 C1391 C 0.51306 0.10533 0.04253
 C1392 C 0.49838 0.12311 0.02575
 C1393 C 0.48501 0.11441 0.00023
 C1394 C 0.48552 0.08765 -0.00764
 C1395 C 0.49632 0.21136 0.08438
 C1396 C 0.51331 0.07880 0.03504
 C1397 C 0.49571 0.14940 0.03710
 C1398 C 0.49458 0.17019 0.04979
 C1399 C 0.49474 0.19305 0.06751
 C1400 C 0.49918 0.06934 0.01015
 H1401 H 0.52340 0.11176 0.06238
 H1402 H 0.47346 0.12802 -0.01289
 H1403 H 0.47417 0.08115 -0.02672
 H1404 H 0.52374 0.06554 0.04972
 C1405 C -0.02718 0.09217 0.95098
 C1406 C -0.01431 0.11197 0.96713
 C1407 C -0.00214 0.10564 0.99425
 C1408 C -0.00204 0.07936 1.00450
 C1409 C -0.00058 0.19911 0.90474
 C1410 C -0.02685 0.06608 0.96090
 C1411 C -0.01138 0.13781 0.95365
 C1412 C -0.00859 0.15825 0.93991
 C1413 C -0.00471 0.18086 0.92164
 C1414 C -0.01387 0.05909 0.98755
 H1415 H -0.03651 0.09672 0.92989
 H1416 H 0.00811 0.12080 1.00687
 H1417 H 0.00832 0.07482 1.02493
 H1418 H -0.03605 0.05124 0.94694
 C1419 C 0.49905 0.60756 0.49586
 C1420 C 0.48746 0.61393 0.46843
 C1421 C 0.47509 0.59412 0.45182
 C1422 C 0.47533 0.56798 0.46165
 C1423 C 0.50146 0.70180 0.40737
 C1424 C 0.49907 0.58125 0.50600
 C1425 C 0.49043 0.63988 0.45524
 C1426 C 0.49328 0.66047 0.44181
 C1427 C 0.49726 0.68332 0.42393
 C1428 C 0.48773 0.56098 0.48863
 H1429 H 0.50889 0.62272 0.50885
 H1430 H 0.46621 0.59870 0.43049
 H1431 H 0.46648 0.55315 0.44741
 H1432 H 0.50895 0.57669 0.52672
 C1433 C 0.51790 0.89967 0.45338
 C1434 C 0.50851 0.87857 0.47068
 C1435 C 0.49980 0.88313 0.49967
 C1436 C 0.50012 0.90892 0.51100
 C1437 C 0.50996 0.79149 0.40869
 C1438 C 0.51812 0.92519 0.46445
 C1439 C 0.50756 0.85273 0.45746
 C1440 C 0.50756 0.83234 0.44379
 C1441 C 0.50846 0.80979 0.42554
 C1442 C 0.50906 0.93036 0.49335
 H1443 H 0.52478 0.89645 0.43099
 H1444 H 0.49250 0.86690 0.51333
 H1445 H 0.49301 0.91210 0.53327
 H1446 H 0.52540 0.94088 0.45004
 C1447 C 0.01614 0.39637 0.95051
 C1448 C 0.00682 0.37532 0.96791
 C1449 C -0.00185 0.37995 0.99690
 C1450 C -0.00156 0.40577 1.00811
 C1451 C 0.00816 0.28832 0.90596
 C1452 C 0.01632 0.42193 0.96145
 C1453 C 0.00583 0.34946 0.95480
 C1454 C 0.00580 0.32907 0.94116
 C1455 C 0.00666 0.30656 0.92288
 C1456 C 0.00729 0.42716 0.99034
 H1457 H 0.02299 0.39308 0.92811
 H1458 H -0.00911 0.36375 1.01064
 H1459 H -0.00866 0.40901 1.03038
 H1460 H 0.02353 0.43759 0.94697
 C1461 C 0.48420 0.40849 0.03913
 C1462 C 0.49509 0.38865 0.02214
 C1463 C 0.50758 0.39517 -0.00473
 C1464 C 0.50967 0.42168 -0.01408
 C1465 C 0.49807 0.30044 0.08330
 C1466 C 0.48651 0.43474 0.03013
 C1467 C 0.49536 0.36234 0.03455
 C1468 C 0.49568 0.34158 0.04787
 C1469 C 0.49653 0.31876 0.06612
 C1470 C 0.49948 0.44188 0.00351
 H1471 H 0.47469 0.40376 0.06007
 H1472 H 0.51636 0.37995 -0.01794
 H1473 H 0.52004 0.42636 -0.03445
 H1474 H 0.47849 0.44948 0.04456
 C1475 C -0.01504 0.90996 0.53694
 C1476 C -0.00390 0.89017 0.52011
 C1477 C 0.00883 0.89673 0.49339
 C1478 C 0.01089 0.92324 0.48403
 C1479 C -0.00121 0.80246 0.58209
 C1480 C -0.01275 0.93621 0.52795
 C1481 C -0.00362 0.86390 0.53261
 C1482 C -0.00336 0.84323 0.54611
 C1483 C -0.00263 0.82060 0.56464
 C1484 C 0.00042 0.94340 0.50147
 H1485 H -0.02473 0.90521 0.55776
 H1486 H 0.01782 0.88155 0.48032
 H1487 H 0.02145 0.92797 0.46380
 H1488 H -0.02095 0.95091 0.54230
 C1489 C 0.20169 0.28402 0.12849
 C1490 C 0.19931 0.31141 0.12941
 C1491 C 0.19667 0.32381 0.15678
 C1492 C 0.19959 0.30937 0.18314
 C1493 C 0.23472 0.36904 0.04074
 C1494 C 0.20454 0.26955 0.15485
 C1495 C 0.20511 0.32707 0.10336
 C1496 C 0.21262 0.34026 0.08255
 C1497 C 0.22379 0.35574 0.05946
 C1498 C 0.20586 0.28243 0.18253
 H1499 H 0.20359 0.27411 0.10742
 H1500 H 0.19438 0.34500 0.15781
 H1501 H 0.19833 0.31989 0.20361
 H1502 H 0.20843 0.24869 0.15317
 C1503 C 0.71193 0.82957 0.65999
 C1504 C 0.70241 0.81624 0.63511
 C1505 C 0.69402 0.78982 0.63786
 C1506 C 0.69719 0.77630 0.66499
 C1507 C 0.73568 0.86753 0.54130
 C1508 C 0.71581 0.81606 0.68661
 C1509 C 0.70680 0.82854 0.60657
 C1510 C 0.71374 0.84006 0.58431
 C1511 C 0.72471 0.85455 0.56029
 C1512 C 0.70952 0.78890 0.68934
 H1513 H 0.71887 0.84989 0.65808
 H1514 H 0.68686 0.77917 0.61861
 H1515 H 0.69238 0.75541 0.66590
 H1516 H 0.72640 0.82654 0.70382
 C1517 C 0.26685 0.67314 0.66722
 C1518 C 0.27984 0.68529 0.64342
 C1519 C 0.29165 0.71030 0.64699
 C1520 C 0.28910 0.72367 0.67396
 C1521 C 0.26434 0.63084 0.54648
 C1522 C 0.26393 0.68648 0.69375
 C1523 C 0.27813 0.67267 0.61500
 C1524 C 0.27458 0.66065 0.59233
 C1525 C 0.26909 0.64514 0.56711
 C1526 C 0.27441 0.71224 0.69743
 H1527 H 0.25751 0.65387 0.66469
 H1528 H 0.30170 0.71995 0.62858
 H1529 H 0.29713 0.74355 0.67568
 H1530 H 0.25181 0.67705 0.71059
 C1531 C 0.76827 0.17191 0.16870
 C1532 C 0.78070 0.18428 0.14467
 C1533 C 0.79218 0.20946 0.14805
 C1534 C 0.78974 0.22280 0.17505
 C1535 C 0.76385 0.13061 0.04740
 C1536 C 0.76544 0.18523 0.19528
 C1537 C 0.77856 0.17181 0.11619
 C1538 C 0.77469 0.15998 0.09345
 C1539 C 0.76885 0.14473 0.06813
 C1540 C 0.77545 0.21119 0.19872
 H1541 H 0.75917 0.15251 0.16632
 H1542 H 0.80180 0.21927 0.12947
 H1543 H 0.79742 0.24282 0.17658
 H1544 H 0.75358 0.17566 0.21226
 C1545 C 0.70551 0.21894 0.86012
 C1546 C 0.71697 0.19422 0.86433
 C1547 C 0.73319 0.18417 0.84245
 C1548 C 0.73898 0.19898 0.81715
 C1549 C 0.72848 0.13129 0.95492
 C1550 C 0.71101 0.23381 0.83428
 C1551 C 0.71500 0.17955 0.89178
 C1552 C 0.71659 0.16547 0.91343
 C1553 C 0.72175 0.14749 0.93678
 C1554 C 0.72821 0.22415 0.81264
 H1555 H 0.69312 0.22705 0.87712
 H1556 H 0.74238 0.16520 0.84554
 H1557 H 0.75269 0.19081 0.80158
 H1558 H 0.70270 0.25323 0.83190
 C1559 C 0.21641 0.72470 0.36780
 C1560 C 0.21231 0.69742 0.36589
 C1561 C 0.21097 0.68558 0.33806
 C1562 C 0.21575 0.70050 0.31240
 C1563 C 0.23029 0.63164 0.45335
 C1564 C 0.22097 0.73974 0.34204
 C1565 C 0.21368 0.68091 0.39199
 C1566 C 0.21702 0.66608 0.41269
 C1567 C 0.22324 0.64782 0.43537
 C1568 C 0.22208 0.72763 0.31393
 H1569 H 0.21757 0.73413 0.38927
 H1570 H 0.20766 0.66446 0.33625
 H1571 H 0.21505 0.69024 0.29174
 H1572 H 0.22537 0.76059 0.34451
 C1573 C 0.76878 0.81178 0.33071
 C1574 C 0.78184 0.80057 0.35486
 C1575 C 0.79356 0.77589 0.35193
 C1576 C 0.79125 0.76211 0.32504
 C1577 C 0.77144 0.86048 0.44807
 C1578 C 0.76619 0.79810 0.30428
 C1579 C 0.78117 0.81435 0.38265
 C1580 C 0.77876 0.82765 0.40450
 C1581 C 0.77480 0.84480 0.42855
 C1582 C 0.77702 0.77286 0.30100
 H1583 H 0.75958 0.83081 0.33268
 H1584 H 0.80371 0.76697 0.37059
 H1585 H 0.79954 0.74265 0.32358
 H1586 H 0.75460 0.80710 0.28683
 C1587 C 0.26731 0.31082 0.83156
 C1588 C 0.28077 0.29992 0.85560
 C1589 C 0.29273 0.27534 0.85269
 C1590 C 0.29032 0.26139 0.82592
 C1591 C 0.27098 0.36086 0.94806
 C1592 C 0.26464 0.29697 0.80524
 C1593 C 0.28039 0.31397 0.88324
 C1594 C 0.27817 0.32752 0.90493
 C1595 C 0.27434 0.34495 0.92876
 C1596 C 0.27579 0.27186 0.80197
 H1597 H 0.25793 0.32975 0.83350
 H1598 H 0.30320 0.26667 0.87127
 H1599 H 0.29887 0.24205 0.82445
 H1600 H 0.25287 0.30578 0.78783
 C1601 C 0.79754 0.35689 0.76816
 C1602 C 0.78004 0.37340 0.78231
 C1603 C 0.75644 0.36293 0.79383
 C1604 C 0.75025 0.33598 0.79056
 C1605 C 0.81701 0.47045 0.77950
 C1606 C 0.79141 0.33024 0.76478
 C1607 C 0.78666 0.40111 0.78360
 C1608 C 0.79441 0.42374 0.78309
 C1609 C 0.80572 0.44936 0.78133
 C1610 C 0.76757 0.31927 0.77564
 H1611 H 0.81578 0.36477 0.75897
 H1612 H 0.74268 0.37560 0.80482
 H1613 H 0.73162 0.32845 0.79900
 H1614 H 0.80503 0.31867 0.75229
 C1615 C 0.25860 0.86358 0.29513
 C1616 C 0.28300 0.87289 0.28457
 C1617 C 0.30027 0.85540 0.27157
 C1618 C 0.29306 0.82899 0.26820
 C1619 C 0.32191 0.96938 0.28056
 C1620 C 0.25132 0.83688 0.29191
 C1621 C 0.29054 0.90042 0.28539
 C1622 C 0.29882 0.92288 0.28457
 C1623 C 0.31049 0.94836 0.28254
 C1624 C 0.26835 0.81923 0.27795
 H1625 H 0.24501 0.87701 0.30520
 H1626 H 0.31911 0.86238 0.26308
 H1627 H 0.30649 0.81672 0.25633
 H1628 H 0.23207 0.83033 0.29947
 C1629 C 0.20562 0.84216 0.73570
 C1630 C 0.22175 0.85815 0.71785
 C1631 C 0.24511 0.84814 0.70645
 C1632 C 0.25219 0.82205 0.71315
 C1633 C 0.17515 0.94720 0.72354
 C1634 C 0.21265 0.81648 0.74248
 C1635 C 0.21377 0.88496 0.71325
 C1636 C 0.20393 0.90639 0.71299
 C1637 C 0.18942 0.92954 0.71685
 C1638 C 0.23603 0.80587 0.73143
 H1639 H 0.18760 0.84971 0.74487
 H1640 H 0.25786 0.86046 0.69271
 H1641 H 0.27037 0.81471 0.70425
 H1642 H 0.19963 0.80519 0.75685
 C1643 C 0.70509 0.34073 0.23463
 C1644 C 0.72177 0.35698 0.21773
 C1645 C 0.74548 0.34715 0.20708
 C1646 C 0.75241 0.32100 0.21365
 C1647 C 0.67707 0.44685 0.22588
 C1648 C 0.71198 0.31500 0.24135
 C1649 C 0.71423 0.38399 0.21379
 C1650 C 0.70483 0.40561 0.21411
 C1651 C 0.69087 0.42899 0.21864
 C1652 C 0.73576 0.30459 0.23113
 H1653 H 0.68683 0.34818 0.24330
 H1654 H 0.75869 0.35969 0.19416
 H1655 H 0.77092 0.31385 0.20546
 H1656 H 0.69870 0.30361 0.25530
 C1657 C 0.71016 0.64230 0.24747
 C1658 C 0.72553 0.62550 0.26467
 C1659 C 0.74796 0.63544 0.27931
 C1660 C 0.75510 0.66223 0.27628
 C1661 C 0.68245 0.53133 0.26244
 C1662 C 0.71719 0.66878 0.24441
 C1663 C 0.71757 0.59819 0.26647
 C1664 C 0.70847 0.57608 0.26616
 C1665 C 0.69538 0.55139 0.26439
 C1666 C 0.73983 0.67927 0.25858
 H1667 H 0.69277 0.63483 0.23601
 H1668 H 0.76001 0.62252 0.29275
 H1669 H 0.77274 0.66942 0.28739
 H1670 H 0.70501 0.68078 0.23016
 C1671 C 0.20984 0.14118 0.74692
 C1672 C 0.22495 0.12430 0.76430
 C1673 C 0.24720 0.13416 0.77936
 C1674 C 0.25440 0.16097 0.77657
 C1675 C 0.18062 0.03080 0.76062
 C1676 C 0.21693 0.16766 0.74409
 C1677 C 0.21680 0.09703 0.76588
 C1678 C 0.20742 0.07504 0.76525
 C1679 C 0.19392 0.05059 0.76301
 C1680 C 0.23937 0.17810 0.75871
 H1681 H 0.19259 0.13378 0.73514
 H1682 H 0.25904 0.12118 0.79296
 H1683 H 0.27189 0.16812 0.78801
 H1684 H 0.20492 0.17970 0.72971
 C1685 C 0.29343 0.16363 0.22154
 C1686 C 0.27570 0.14357 0.21355
 C1687 C 0.24967 0.14980 0.20625
 C1688 C 0.24136 0.17605 0.20794
 C1689 C 0.32138 0.05611 0.24251
 C1690 C 0.28516 0.18950 0.22372
 C1691 C 0.28432 0.11677 0.21689
 C1692 C 0.29411 0.09580 0.22255
 C1693 C 0.30798 0.07333 0.23213
 C1694 C 0.25890 0.19626 0.21741
 H1695 H 0.31346 0.15904 0.22788
 H1696 H 0.23562 0.13434 0.20039
 H1697 H 0.22092 0.18023 0.20328
 H1698 H 0.29914 0.20355 0.23275
 C1699 C 0.79317 0.66484 0.71940
 C1700 C 0.77471 0.64548 0.71132
 C1701 C 0.74879 0.65263 0.70475
 C1702 C 0.74130 0.67906 0.70743
 C1703 C 0.81786 0.55708 0.74068
 C1704 C 0.78570 0.69086 0.72265
 C1705 C 0.78244 0.61841 0.71438
 C1706 C 0.79162 0.59717 0.72007
 C1707 C 0.80489 0.57446 0.72993
 C1708 C 0.75955 0.69850 0.71723
 H1709 H 0.81314 0.65951 0.72522
 H1710 H 0.73417 0.63771 0.69888
 H1711 H 0.72091 0.68391 0.70346
 H1712 H 0.80021 0.70421 0.73195
 C1713 C 0.85576 0.76278 0.20932
 C1714 C 0.87318 0.74764 0.22602
 C1715 C 0.86419 0.73421 0.25149
 C1716 C 0.83747 0.73507 0.25934
 C1717 C 0.96084 0.74362 0.16653
 C1718 C 0.82926 0.76335 0.21677
 C1719 C 0.89931 0.74442 0.21451
 C1720 C 0.91998 0.74282 0.20164
 C1721 C 0.94267 0.74245 0.18365
 C1722 C 0.81948 0.74911 0.24155
 H1723 H 0.86241 0.77316 0.18949
 H1724 H 0.87751 0.72229 0.26454
 H1725 H 0.83073 0.72360 0.27833
 H1726 H 0.81626 0.77404 0.20205
 C1727 C 0.35532 0.26273 0.71133
 C1728 C 0.37273 0.24774 0.72821
 C1729 C 0.36362 0.23411 0.75350
 C1730 C 0.33681 0.23465 0.76100
 C1731 C 0.46093 0.24523 0.66967
 C1732 C 0.32873 0.26298 0.71843
 C1733 C 0.39902 0.24488 0.71703
 C1734 C 0.41981 0.24363 0.70437
 C1735 C 0.44264 0.24369 0.68660
 C1736 C 0.31886 0.24857 0.74303
 H1737 H 0.36207 0.27325 0.69163
 H1738 H 0.37694 0.22230 0.76668
 H1739 H 0.32999 0.22305 0.77985
 H1740 H 0.31577 0.27357 0.70357
 C1741 C 0.35830 0.74855 0.75389
 C1742 C 0.36478 0.73663 0.78115
 C1743 C 0.34514 0.72384 0.79774
 C1744 C 0.31904 0.72401 0.78810
 C1745 C 0.45216 0.75094 0.84218
 C1746 C 0.33202 0.74849 0.74394
 C1747 C 0.39064 0.73972 0.79427
 C1748 C 0.41113 0.74264 0.80770
 C1749 C 0.43383 0.74669 0.82559
 C1750 C 0.31191 0.73675 0.76132
 H1751 H 0.37333 0.75873 0.74093
 H1752 H 0.34980 0.71470 0.81893
 H1753 H 0.30434 0.71489 0.80239
 H1754 H 0.32736 0.75866 0.72338
 C1755 C 0.84549 0.22501 0.29952
 C1756 C 0.86506 0.23768 0.28268
 C1757 C 0.85850 0.24899 0.25513
 C1758 C 0.83224 0.24846 0.24509
 C1759 C 0.95290 0.25378 0.34260
 C1760 C 0.81940 0.22470 0.28978
 C1761 C 0.89095 0.24118 0.29569
 C1762 C 0.91153 0.24450 0.30886
 C1763 C 0.93441 0.24906 0.32636
 C1764 C 0.81220 0.23684 0.26266
 H1765 H 0.85020 0.21632 0.32094
 H1766 H 0.87346 0.25904 0.24194
 H1767 H 0.82754 0.25816 0.22426
 H1768 H 0.80474 0.21565 0.30418
 C1769 C 0.14447 0.24210 0.28779
 C1770 C 0.12642 0.25943 0.27529
 C1771 C 0.13368 0.27476 0.25045
 C1772 C 0.15916 0.27307 0.23864
 C1773 C 0.04027 0.26614 0.33882
 C1774 C 0.16977 0.24053 0.27628
 C1775 C 0.10128 0.26215 0.28965
 C1776 C 0.08119 0.26367 0.30373
 C1777 C 0.05870 0.26499 0.32206
 C1778 C 0.17780 0.25626 0.25176
 H1779 H 0.13920 0.23021 0.30708
 H1780 H 0.11990 0.28840 0.24062
 H1781 H 0.16434 0.28558 0.22002
 H1782 H 0.18323 0.22738 0.28744
 C1783 C 0.64949 0.76750 0.79623
 C1784 C 0.62861 0.75837 0.77866
 C1785 C 0.63346 0.74996 0.74963
 C1786 C 0.65932 0.75033 0.73853
 C1787 C 0.54143 0.75974 0.84045
 C1788 C 0.67508 0.76776 0.78540
 C1789 C 0.60269 0.75737 0.79167
 C1790 C 0.58226 0.75734 0.80527
 C1791 C 0.55970 0.75822 0.82354
 C1792 C 0.68053 0.75901 0.75646
 H1793 H 0.64605 0.77415 0.81866
 H1794 H 0.61739 0.74285 0.73576
 H1795 H 0.66273 0.74344 0.71623
 H1796 H 0.69058 0.77484 0.80002
 C1797 C 0.64407 0.25585 0.75902
 C1798 C 0.63718 0.24312 0.73249
 C1799 C 0.65670 0.23206 0.71521
 C1800 C 0.68301 0.23449 0.72352
 C1801 C 0.54946 0.24675 0.67165
 C1802 C 0.67064 0.25802 0.76771
 C1803 C 0.61085 0.24353 0.72050
 C1804 C 0.59015 0.24398 0.70730
 C1805 C 0.56753 0.24502 0.68899
 C1806 C 0.69053 0.24770 0.74976
 H1807 H 0.62909 0.26480 0.77243
 H1808 H 0.65168 0.22240 0.69450
 H1809 H 0.69749 0.22642 0.70878
 H1810 H 0.67562 0.26861 0.78778
 C1811 C 0.14997 0.76789 0.22067
 C1812 C 0.13546 0.74547 0.22922
 C1813 C 0.14649 0.72728 0.24906
 C1814 C 0.17240 0.73115 0.25936
 C1815 C 0.04942 0.74107 0.16542
 C1816 C 0.17575 0.77161 0.23059
 C1817 C 0.11023 0.74087 0.21529
 C1818 C 0.09002 0.73903 0.20123
 C1819 C 0.06756 0.73913 0.18262
 C1820 C 0.18779 0.75292 0.24946
 H1821 H 0.14166 0.78214 0.20534
 H1822 H 0.13544 0.70975 0.25580
 H1823 H 0.18062 0.71631 0.27366
 H1824 H 0.18637 0.78882 0.22228
   
