data_POSCAR
  _audit_creation_date              2014-09-24
  _audit_creation_method            'ToBaCCo'
  _symmetry_space_group_name_H-M    'P1'
  _symmetry_Int_Tables_number       1
  _symmetry_cell_setting            triclinic
  loop_
  _symmetry_equiv_pos_as_xyz
 x,y,z
_cell_length_a 72.3590
_cell_length_b 72.3628
_cell_length_c 72.4164
_cell_angle_alpha 89.970000
_cell_angle_beta 89.970200
_cell_angle_gamma 90.030900
loop_
  _atom_site_label
  _atom_site_type_symbol
  _atom_site_fract_x
  _atom_site_fract_y
  _atom_site_fract_z
C1 C 0.36006 0.33628 0.33653
 C2 C 0.35216 0.35210 0.32864
 C3 C 0.33637 0.36002 0.33655
 C4 C 0.32849 0.35214 0.35238
 C5 C 0.33637 0.33632 0.36028
 C6 C 0.35216 0.32841 0.35236
 H7 H 0.35816 0.35809 0.31628
 H8 H 0.31616 0.35816 0.35840
 H9 H 0.35816 0.31606 0.35836
 C10 C 0.36037 0.83650 -0.16417
 C11 C 0.35248 0.82859 -0.14834
 C12 C 0.33665 0.83644 -0.14043
 C13 C 0.32872 0.85224 -0.14832
 C14 C 0.33658 0.86018 -0.16415
 C15 C 0.35242 0.85231 -0.17205
 H16 H 0.35848 0.81625 -0.14230
 H17 H 0.31636 0.85818 -0.14226
 H18 H 0.35842 0.85835 -0.18441
 C19 C 0.85970 0.33678 -0.16400
 C20 C 0.85183 0.35261 -0.17188
 C21 C 0.83604 0.36057 -0.16396
 C22 C 0.82816 0.35267 -0.14812
 C23 C 0.83603 0.33684 -0.14023
 C24 C 0.85181 0.32891 -0.14817
 H25 H 0.85787 0.35857 -0.18424
 H26 H 0.81583 0.35867 -0.14205
 H27 H 0.85779 0.31655 -0.14217
 C28 C 0.85973 0.83661 0.33611
 C29 C 0.85188 0.82877 0.35198
 C30 C 0.83609 0.83668 0.35990
 C31 C 0.82817 0.85246 0.35198
 C32 C 0.83600 0.86034 0.33610
 C33 C 0.85181 0.85240 0.32819
 H34 H 0.85791 0.81645 0.35800
 H35 H 0.81583 0.85845 0.35805
 H36 H 0.85782 0.85834 0.31580
 C37 C 0.64002 0.66376 0.33667
 C38 C 0.64789 0.67163 0.35249
 C39 C 0.66367 0.66371 0.36043
 C40 C 0.67154 0.64788 0.35255
 C41 C 0.66368 0.64000 0.33673
 C42 C 0.64791 0.64794 0.32880
 H43 H 0.64189 0.68399 0.35848
 H44 H 0.68386 0.64185 0.35859
 H45 H 0.64193 0.64195 0.31645
 C46 C 0.64014 0.16338 -0.16387
 C47 C 0.64810 0.14761 -0.17179
 C48 C 0.66394 0.13972 -0.16391
 C49 C 0.67178 0.14763 -0.14807
 C50 C 0.66383 0.16340 -0.14015
 C51 C 0.64800 0.17125 -0.14805
 H52 H 0.64208 0.14164 -0.18415
 H53 H 0.68415 0.14168 -0.14203
 H54 H 0.64195 0.18356 -0.14202
 C55 C 0.14005 0.66323 -0.16388
 C56 C 0.14797 0.67112 -0.14809
 C57 C 0.16376 0.66321 -0.14017
 C58 C 0.17163 0.64738 -0.14805
 C59 C 0.16374 0.63946 -0.16386
 C60 C 0.14793 0.64740 -0.17175
 H61 H 0.14198 0.68348 -0.14210
 H62 H 0.18397 0.64139 -0.14200
 H63 H 0.14187 0.64143 -0.18409
 C64 C 0.13995 0.16350 0.33650
 C65 C 0.14786 0.14770 0.32861
 C66 C 0.16365 0.13977 0.33652
 C67 C 0.17150 0.14764 0.35236
 C68 C 0.16360 0.16345 0.36026
 C69 C 0.14781 0.17136 0.35234
 H70 H 0.14188 0.14172 0.31625
 H71 H 0.18382 0.14162 0.35838
 H72 H 0.14180 0.18370 0.35834
 C73 C 0.64009 0.33643 0.66345
 C74 C 0.64800 0.35224 0.67134
 C75 C 0.66384 0.36014 0.66348
 C76 C 0.67175 0.35224 0.64768
 C77 C 0.66385 0.33643 0.63977
 C78 C 0.64801 0.32855 0.64765
 H79 H 0.64198 0.35824 0.68368
 H80 H 0.68412 0.35824 0.64169
 H81 H 0.64200 0.31621 0.64164
 C82 C 0.63987 0.83658 1.16407
 C83 C 0.64777 0.82875 1.14822
 C84 C 0.66359 0.83667 1.14034
 C85 C 0.67151 0.85245 1.14827
 C86 C 0.66364 0.86032 1.16412
 C87 C 0.64780 0.85238 1.17200
 H88 H 0.64178 0.81643 1.14214
 H89 H 0.68386 0.85844 1.14223
 H90 H 0.64180 0.85836 1.18438
 C91 C 0.13949 0.33617 1.16385
 C92 C 0.14741 0.32830 1.14802
 C93 C 0.16322 0.33622 1.14011
 C94 C 0.17111 0.35203 1.14801
 C95 C 0.16323 0.35992 1.16382
 C96 C 0.14741 0.35200 1.17173
 H97 H 0.14143 0.31595 1.14197
 H98 H 0.18345 0.35805 1.14200
 H99 H 0.14144 0.35804 1.18408
 C100 C 0.13966 0.83592 0.66370
 C101 C 0.14763 0.85171 0.67160
 C102 C 0.16345 0.85961 0.66370
 C103 C 0.17130 0.85173 0.64787
 C104 C 0.16336 0.83595 0.63995
 C105 C 0.14754 0.82806 0.64785
 H106 H 0.14168 0.85774 0.68397
 H107 H 0.18365 0.85773 0.64185
 H108 H 0.14152 0.81574 0.64179
 C109 C 0.36002 0.66377 0.66370
 C110 C 0.35216 0.67162 0.64786
 C111 C 0.33636 0.66370 0.63995
 C112 C 0.32845 0.64789 0.64788
 C113 C 0.33631 0.64003 0.66372
 C114 C 0.35210 0.64797 0.67162
 H115 H 0.35818 0.68396 0.64184
 H116 H 0.31612 0.64186 0.64187
 H117 H 0.35808 0.64199 0.68398
 C118 C 0.36055 0.16396 1.16375
 C119 C 0.35263 0.17185 1.14793
 C120 C 0.33682 0.16394 1.14004
 C121 C 0.32895 0.14810 1.14793
 C122 C 0.33684 0.14019 1.16373
 C123 C 0.35265 0.14811 1.17162
 H124 H 0.35860 0.18422 1.14189
 H125 H 0.31661 0.14208 1.14193
 H126 H 0.35862 0.14205 1.18396
 C127 C 0.86029 0.66400 1.16371
 C128 C 0.85236 0.67189 1.14789
 C129 C 0.83654 0.66398 1.14002
 C130 C 0.82866 0.64816 1.14793
 C131 C 0.83656 0.64025 1.16372
 C132 C 0.85238 0.64816 1.17160
 H133 H 0.85833 0.68425 1.14184
 H134 H 0.81631 0.64214 1.14194
 H135 H 0.85836 0.64211 1.18393
 C136 C 0.86028 0.16359 0.66391
 C137 C 0.85233 0.14779 0.67184
 C138 C 0.83651 0.13986 0.66395
 C139 C 0.82867 0.14774 0.64809
 C140 C 0.83660 0.16353 0.64015
 C141 C 0.85241 0.17144 0.64805
 H142 H 0.85832 0.14181 0.68422
 H143 H 0.81633 0.14175 0.64204
 H144 H 0.85841 0.18377 0.64197
 C145 C 0.33617 0.36021 0.66389
 C146 C 0.35200 0.35232 0.67177
 C147 C 0.35992 0.33653 0.66388
 C148 C 0.35203 0.32863 0.64808
 C149 C 0.33620 0.33649 0.64019
 C150 C 0.32829 0.35229 0.64809
 H151 H 0.35800 0.35834 0.68410
 H152 H 0.35805 0.31629 0.64207
 H153 H 0.31593 0.35828 0.64209
 C154 C 0.33670 0.86026 0.16307
 C155 C 0.35254 0.85238 0.17093
 C156 C 0.36047 0.83659 0.16303
 C157 C 0.35256 0.82869 0.14724
 C158 C 0.33672 0.83655 0.13936
 C159 C 0.32881 0.85235 0.14727
 H160 H 0.35855 0.85839 0.18326
 H161 H 0.35858 0.81636 0.14122
 H162 H 0.31644 0.85833 0.14129
 C163 C 0.83650 0.36026 0.16339
 C164 C 0.82859 0.35237 0.14760
 C165 C 0.83647 0.33657 0.13967
 C166 C 0.85229 0.32867 0.14755
 C167 C 0.86021 0.33654 0.16334
 C168 C 0.85232 0.35235 0.17125
 H169 H 0.81624 0.35838 0.14162
 H170 H 0.85829 0.31633 0.14153
 H171 H 0.85834 0.35834 0.18358
 C172 C 0.83666 0.86074 0.66367
 C173 C 0.85247 0.85283 0.67153
 C174 C 0.86035 0.83700 0.66365
 C175 C 0.85242 0.82912 0.64786
 C176 C 0.83661 0.83702 0.63998
 C177 C 0.82875 0.85284 0.64788
 H178 H 0.85850 0.85883 0.68386
 H179 H 0.85841 0.81677 0.64185
 H180 H 0.81640 0.85886 0.64189
 C181 C 0.66362 0.64011 0.66412
 C182 C 0.64781 0.64802 0.67201
 C183 C 0.63991 0.66383 0.66412
 C184 C 0.64782 0.67172 0.64831
 C185 C 0.66363 0.66383 0.64040
 C186 C 0.67151 0.64801 0.64830
 H187 H 0.64180 0.64201 0.68436
 H188 H 0.64181 0.68407 0.64230
 H189 H 0.68385 0.64200 0.64229
 C190 C 0.66354 0.13941 0.16346
 C191 C 0.67145 0.14732 0.14766
 C192 C 0.66358 0.16313 0.13975
 C193 C 0.64776 0.17102 0.14763
 C194 C 0.63983 0.16313 0.16343
 C195 C 0.64771 0.14731 0.17133
 H196 H 0.68381 0.14131 0.14167
 H197 H 0.64177 0.18337 0.14162
 H198 H 0.64169 0.14130 0.18367
 C199 C 0.16342 0.63982 0.16332
 C200 C 0.14759 0.64772 0.17117
 C201 C 0.13969 0.66352 0.16326
 C202 C 0.14761 0.67140 0.14745
 C203 C 0.16345 0.66352 0.13958
 C204 C 0.17134 0.64772 0.14751
 H205 H 0.14156 0.64171 0.18351
 H206 H 0.14161 0.68374 0.14143
 H207 H 0.18370 0.64172 0.14153
 C208 C 0.16345 0.13931 0.66395
 C209 C 0.14761 0.14718 0.67181
 C210 C 0.13968 0.16298 0.66391
 C211 C 0.14760 0.17088 0.64811
 C212 C 0.16344 0.16303 0.64023
 C213 C 0.17135 0.14724 0.64815
 H214 H 0.14159 0.14116 0.68415
 H215 H 0.14158 0.18321 0.64209
 H216 H 0.18372 0.14126 0.64216
 C217 C 0.33660 0.64003 0.33613
 C218 C 0.35241 0.64796 0.32823
 C219 C 0.36032 0.66377 0.33611
 C220 C 0.35242 0.67165 0.35193
 C221 C 0.33661 0.66374 0.35984
 C222 C 0.32872 0.64792 0.35195
 H223 H 0.35842 0.64196 0.31589
 H224 H 0.35843 0.68399 0.35793
 H225 H 0.31638 0.64190 0.35797
 C226 C 0.33643 0.13953 0.83672
 C227 C 0.35224 0.14745 0.82882
 C228 C 0.36012 0.16330 0.83667
 C229 C 0.35219 0.17120 0.85246
 C230 C 0.33638 0.16329 0.86037
 C231 C 0.32851 0.14745 0.85251
 H232 H 0.35826 0.14144 0.81650
 H233 H 0.35818 0.18357 0.85844
 H234 H 0.31617 0.14143 0.85852
 C235 C 0.83648 0.64012 0.83671
 C236 C 0.85229 0.64802 0.82879
 C237 C 0.86019 0.66387 0.83661
 C238 C 0.85229 0.67179 0.85240
 C239 C 0.83648 0.66390 0.86034
 C240 C 0.82859 0.64806 0.85249
 H241 H 0.85830 0.64199 0.81646
 H242 H 0.85830 0.68416 0.85836
 H243 H 0.81625 0.64205 0.85853
 C244 C 0.83651 0.13948 0.33623
 C245 C 0.82864 0.14736 0.35205
 C246 C 0.83652 0.16318 0.35995
 C247 C 0.85232 0.17110 0.35202
 C248 C 0.86021 0.16324 0.33619
 C249 C 0.85231 0.14742 0.32832
 H250 H 0.81631 0.14132 0.35808
 H251 H 0.85833 0.18345 0.35802
 H252 H 0.85831 0.14143 0.31596
 C253 C 0.66361 0.35979 0.33637
 C254 C 0.67150 0.35188 0.35217
 C255 C 0.66363 0.33604 0.36006
 C256 C 0.64782 0.32813 0.35216
 C257 C 0.63991 0.33603 0.33636
 C258 C 0.64780 0.35187 0.32848
 H259 H 0.68384 0.35790 0.35817
 H260 H 0.64183 0.31577 0.35815
 H261 H 0.64178 0.35789 0.31615
 C262 C 0.66354 0.86081 0.83660
 C263 C 0.67142 0.85290 0.85240
 C264 C 0.66351 0.83709 0.86032
 C265 C 0.64768 0.82921 0.85243
 C266 C 0.63979 0.83710 0.83662
 C267 C 0.64771 0.85291 0.82873
 H268 H 0.68378 0.85890 0.85840
 H269 H 0.64166 0.81687 0.85844
 H270 H 0.64171 0.85893 0.81639
 C271 C 0.16303 0.35991 0.83659
 C272 C 0.14724 0.35199 0.82867
 C273 C 0.13934 0.33614 0.83651
 C274 C 0.14723 0.32823 0.85231
 C275 C 0.16302 0.33613 0.86025
 C276 C 0.17090 0.35198 0.85239
 H277 H 0.14125 0.35802 0.81633
 H278 H 0.14123 0.31586 0.85829
 H279 H 0.18323 0.35800 0.85842
 C280 C 0.16339 0.85991 0.33617
 C281 C 0.17125 0.85200 0.35198
 C282 C 0.16334 0.83619 0.35988
 C283 C 0.14752 0.82831 0.35198
 C284 C 0.13964 0.83621 0.33617
 C285 C 0.14757 0.85202 0.32828
 H286 H 0.18360 0.85800 0.35799
 H287 H 0.14149 0.81597 0.35798
 H288 H 0.14158 0.85803 0.31593
 O289 O 0.24824 1.01792 0.27337
 O290 O 0.27363 0.98195 0.24790
 O291 O 0.27367 1.01798 0.24799
 O292 O 0.24821 0.98190 0.27329
 O293 O 0.22667 0.98197 0.25175
 O294 O 0.25214 1.01805 0.22645
 O295 O 0.25210 0.98203 0.22636
 O296 O 0.22670 1.01799 0.25183
 Cu297 Cu 0.26310 0.99993 0.26279
 Cu298 Cu 0.23724 1.00001 0.23694
 C299 C 0.23316 1.02417 0.26693
 C300 C 0.26718 0.97578 0.23280
 C301 C 0.26723 1.02425 0.23292
 C302 C 0.23311 0.97570 0.26682
 O303 O 0.24766 0.51813 0.77378
 O304 O 0.27306 0.48210 0.74841
 O305 O 0.27308 0.51813 0.74839
 O306 O 0.24762 0.48210 0.77379
 O307 O 0.22609 0.48211 0.75225
 O308 O 0.25155 0.51814 0.72685
 O309 O 0.25152 0.48211 0.72687
 O310 O 0.22612 0.51814 0.75224
 Cu311 Cu 0.26251 0.50012 0.76325
 Cu312 Cu 0.23666 0.50013 0.73740
 C313 C 0.23257 0.52437 0.76732
 C314 C 0.26661 0.47588 0.73332
 C315 C 0.26664 0.52436 0.73331
 C316 C 0.23253 0.47588 0.76734
 O317 O 0.77342 0.01741 0.25189
 O318 O 0.74796 -0.01862 0.22657
 O319 O 0.74799 0.01740 0.22652
 O320 O 0.77339 -0.01862 0.25193
 O321 O 0.75184 -0.01859 0.27349
 O322 O 0.72645 0.01742 0.24808
 O323 O 0.72641 -0.01860 0.24813
 O324 O 0.75187 0.01743 0.27345
 Cu325 Cu 0.76285 -0.00061 0.23707
 Cu326 Cu 0.73699 -0.00058 0.26294
 C327 C 0.76697 0.02365 0.26697
 C328 C 0.73286 -0.02484 0.23304
 C329 C 0.73291 0.02364 0.23298
 C330 C 0.76693 -0.02483 0.26703
 O331 O 0.74829 0.48205 0.72679
 O332 O 0.77365 0.51803 0.75228
 O333 O 0.77367 0.48200 0.75221
 O334 O 0.74826 0.51807 0.72689
 O335 O 0.72668 0.51798 0.74841
 O336 O 0.75209 0.48192 0.77373
 O337 O 0.75208 0.51795 0.77380
 O338 O 0.72672 0.48195 0.74832
 Cu339 Cu 0.76313 0.50005 0.73739
 Cu340 Cu 0.73723 0.49994 0.76322
 C341 C 0.73320 0.47578 0.73322
 C342 C 0.76717 0.52421 0.76737
 C343 C 0.76720 0.47572 0.76727
 C344 C 0.73315 0.52426 0.73335
 O345 O 0.24796 0.48192 0.22656
 O346 O 0.27342 0.51797 0.25185
 O347 O 0.27339 0.48195 0.25192
 O348 O 0.24799 0.51795 0.22649
 O349 O 0.22645 0.51799 0.24805
 O350 O 0.25185 0.48199 0.27348
 O351 O 0.25189 0.51801 0.27341
 O352 O 0.22642 0.48196 0.24812
 Cu353 Cu 0.26285 0.49994 0.23704
 Cu354 Cu 0.23700 0.49999 0.26293
 C355 C 0.23286 0.47571 0.23304
 C356 C 0.26698 0.52423 0.26693
 C357 C 0.26694 0.47575 0.26702
 C358 C 0.23290 0.52419 0.23295
 O359 O 0.75219 1.01879 0.72658
 O360 O 0.72674 0.98276 0.75198
 O361 O 0.72675 1.01878 0.75197
 O362 O 0.75217 0.98277 0.72660
 O363 O 0.77370 0.98276 0.74814
 O364 O 0.74828 1.01878 0.77351
 O365 O 0.74827 0.98276 0.77352
 O366 O 0.77372 1.01879 0.74813
 Cu367 Cu 0.73730 1.00077 0.73712
 Cu368 Cu 0.76315 1.00078 0.76298
 C369 C 0.76728 1.02502 0.73304
 C370 C 0.73318 0.97653 0.76707
 C371 C 0.73319 1.02501 0.76705
 C372 C 0.76726 0.97654 0.73306
 O373 O 0.72657 0.48206 0.25204
 O374 O 0.75198 0.51814 0.22668
 O375 O 0.75197 0.48212 0.22662
 O376 O 0.72658 0.51808 0.25210
 O377 O 0.74815 0.51804 0.27361
 O378 O 0.77354 0.48208 0.24814
 O379 O 0.77354 0.51810 0.24819
 O380 O 0.74813 0.48201 0.27355
 Cu381 Cu 0.73712 0.50010 0.23720
 Cu382 Cu 0.76300 0.50005 0.26303
 C383 C 0.73303 0.47580 0.26710
 C384 C 0.76708 0.52436 0.23312
 C385 C 0.76707 0.47588 0.23305
 C386 C 0.73305 0.52428 0.26719
 O387 O 0.25217 -0.01868 0.77370
 O388 O 0.22668 0.01736 0.74841
 O389 O 0.22672 -0.01866 0.74836
 O390 O 0.25211 0.01735 0.77378
 O391 O 0.27364 0.01744 0.75221
 O392 O 0.24825 -0.01858 0.72679
 O393 O 0.24821 0.01744 0.72684
 O394 O 0.27370 -0.01859 0.75213
 Cu395 Cu 0.23726 -0.00067 0.76323
 Cu396 Cu 0.26311 -0.00056 0.73734
 C397 C 0.26727 -0.02486 0.76722
 C398 C 0.23312 0.02363 0.73333
 C399 C 0.23316 -0.02485 0.73326
 C400 C 0.26718 0.02362 0.76731
 O401 O 0.24778 0.27337 0.98210
 O402 O 0.27333 0.24812 1.01809
 O403 O 0.27326 0.24804 0.98210
 O404 O 0.24783 0.27342 1.01810
 O405 O 0.22634 0.25180 1.01819
 O406 O 0.25177 0.22641 0.98220
 O407 O 0.25185 0.22649 1.01820
 O408 O 0.22629 0.25174 0.98219
 Cu409 Cu 0.26270 0.26291 1.00009
 Cu410 Cu 0.23691 0.23694 1.00021
 C411 C 0.23270 0.26685 0.97592
 C412 C 0.26694 0.23302 1.02437
 C413 C 0.26683 0.23290 0.97593
 C414 C 0.23276 0.26692 1.02437
 O415 O 0.24792 0.77335 0.48184
 O416 O 0.27339 0.74800 0.51783
 O417 O 0.27341 0.74803 0.48183
 O418 O 0.24791 0.77333 0.51784
 O419 O 0.22642 0.75171 0.51784
 O420 O 0.25191 0.72641 0.48183
 O421 O 0.25190 0.72638 0.51783
 O422 O 0.22643 0.75173 0.48184
 Cu423 Cu 0.26281 0.76284 0.49984
 Cu424 Cu 0.23701 0.73689 0.49984
 C425 C 0.23285 0.76685 0.47562
 C426 C 0.26697 0.73289 0.52406
 C427 C 0.26699 0.73292 0.47561
 C428 C 0.23283 0.76682 0.52406
 O429 O 0.27367 0.75183 -0.01839
 O430 O 0.24823 0.72645 0.01765
 O431 O 0.24826 0.72640 -0.01835
 O432 O 0.27366 0.75186 0.01761
 O433 O 0.25211 0.77341 0.01757
 O434 O 0.22672 0.74795 -0.01839
 O435 O 0.22668 0.74800 0.01761
 O436 O 0.25212 0.77338 -0.01842
 Cu437 Cu 0.26311 0.73698 -0.00037
 Cu438 Cu 0.23725 0.76284 -0.00041
 C439 C 0.26722 0.76692 -0.02464
 C440 C 0.23313 0.73291 0.02386
 C441 C 0.23317 0.73285 -0.02458
 C442 C 0.26720 0.76696 0.02381
 O443 O 0.22641 0.24786 0.48233
 O444 O 0.25178 0.27329 0.51832
 O445 O 0.25181 0.27329 0.48232
 O446 O 0.22641 0.24783 0.51833
 O447 O 0.24798 0.22631 0.51832
 O448 O 0.27338 0.25178 0.48233
 O449 O 0.27335 0.25178 0.51832
 O450 O 0.24799 0.22634 0.48233
 Cu451 Cu 0.23694 0.26272 0.50032
 Cu452 Cu 0.26284 0.23690 0.50033
 C453 C 0.23289 0.23278 0.47610
 C454 C 0.26687 0.26686 0.52454
 C455 C 0.26691 0.26686 0.47610
 C456 C 0.23288 0.23274 0.52455
 O457 O 0.74804 0.77399 0.98218
 O458 O 0.77346 0.74856 1.01816
 O459 O 0.77345 0.74858 0.98216
 O460 O 0.74805 0.77396 1.01818
 O461 O 0.72649 0.75240 1.01819
 O462 O 0.75189 0.72702 0.98217
 O463 O 0.75190 0.72700 1.01817
 O464 O 0.72649 0.75243 0.98219
 Cu465 Cu 0.76291 0.76343 1.00017
 Cu466 Cu 0.73703 0.73756 1.00018
 C467 C 0.73295 0.76753 0.97597
 C468 C 0.76700 0.73346 1.02438
 C469 C 0.76698 0.73349 0.97594
 C470 C 0.73295 0.76749 1.02442
 O471 O 0.74832 0.27314 0.48192
 O472 O 0.77375 0.24779 0.51794
 O473 O 0.77372 0.24773 0.48194
 O474 O 0.74836 0.27321 0.51791
 O475 O 0.72680 0.25166 0.51799
 O476 O 0.75216 0.22618 0.48201
 O477 O 0.75219 0.22624 0.51802
 O478 O 0.72676 0.25159 0.48200
 Cu479 Cu 0.76320 0.26262 0.49992
 Cu480 Cu 0.73731 0.23676 0.50001
 C481 C 0.73322 0.26667 0.47573
 C482 C 0.76729 0.23271 0.52421
 C483 C 0.76725 0.23263 0.47575
 C484 C 0.73327 0.26676 0.52417
 O485 O 0.77341 0.25205 -0.01817
 O486 O 0.74811 0.22650 0.01785
 O487 O 0.74809 0.22653 -0.01815
 O488 O 0.77345 0.25200 0.01783
 O489 O 0.75183 0.27347 0.01787
 O490 O 0.72647 0.24800 -0.01812
 O491 O 0.72649 0.24797 0.01788
 O492 O 0.75179 0.27352 -0.01813
 Cu493 Cu 0.76293 0.23712 -0.00017
 Cu494 Cu 0.73698 0.26289 -0.00012
 C495 C 0.76690 0.26713 -0.02438
 C496 C 0.73300 0.23289 0.02409
 C497 C 0.73298 0.23294 -0.02435
 C498 C 0.76695 0.26706 0.02407
 O499 O 0.77347 0.75229 0.48225
 O500 O 0.74812 0.72688 0.51833
 O501 O 0.74810 0.72683 0.48233
 O502 O 0.77351 0.75233 0.51825
 O503 O 0.75193 0.77384 0.51825
 O504 O 0.72652 0.74835 0.48233
 O505 O 0.72655 0.74839 0.51832
 O506 O 0.75189 0.77381 0.48225
 Cu507 Cu 0.76296 0.73743 0.50029
 Cu508 Cu 0.73706 0.76325 0.50029
 C509 C 0.76699 0.76737 0.47601
 C510 C 0.73303 0.73332 0.52456
 C511 C 0.73299 0.73326 0.47612
 C512 C 0.76704 0.76742 0.52446
 O513 O 0.98214 0.24809 0.27320
 O514 O 1.01820 0.27354 0.24785
 O515 O 0.98217 0.27352 0.24782
 O516 O 1.01816 0.24812 0.27325
 O517 O 1.01820 0.22658 0.25172
 O518 O 0.98221 0.25198 0.22628
 O519 O 1.01824 0.25200 0.22631
 O520 O 0.98218 0.22655 0.25167
 Cu521 Cu 1.00017 0.26298 0.26269
 Cu522 Cu 1.00021 0.23712 0.23684
 C523 C 0.97593 0.23299 0.26675
 C524 C 1.02445 0.26709 0.23277
 C525 C 0.97597 0.26707 0.23273
 C526 C 1.02440 0.23304 0.26681
 O527 O 0.48197 0.25191 0.72658
 O528 O 0.51802 0.22645 0.75186
 O529 O 0.48200 0.22646 0.75194
 O530 O 0.51800 0.25189 0.72649
 O531 O 0.51806 0.27341 0.74805
 O532 O 0.48205 0.24798 0.77350
 O533 O 0.51808 0.24797 0.77342
 O534 O 0.48203 0.27343 0.74813
 Cu535 Cu 0.49999 0.23702 0.73706
 Cu536 Cu 0.50006 0.26285 0.76293
 C537 C 0.47577 0.26699 0.73306
 C538 C 0.52428 0.23288 0.76694
 C539 C 0.47580 0.23289 0.76705
 C540 C 0.52425 0.26697 0.73295
 O541 O -0.01847 0.27317 0.75165
 O542 O 0.01755 0.24763 0.72641
 O543 O -0.01848 0.24769 0.72634
 O544 O 0.01755 0.27309 0.75174
 O545 O 0.01743 0.25159 0.77333
 O546 O -0.01859 0.22619 0.74794
 O547 O 0.01744 0.22612 0.74801
 O548 O -0.01859 0.25167 0.77325
 Cu549 Cu -0.00045 0.26255 0.73687
 Cu550 Cu -0.00059 0.23674 0.76279
 C551 C -0.02476 0.26676 0.76674
 C552 C 0.02373 0.23254 0.73292
 C553 C -0.02476 0.23263 0.73282
 C554 C 0.02372 0.26665 0.76686
 O555 O 0.48178 0.22624 0.24788
 O556 O 0.51786 0.25155 0.27330
 O557 O 0.48183 0.25160 0.27331
 O558 O 0.51781 0.22618 0.24789
 O559 O 0.51787 0.24777 0.22638
 O560 O 0.48188 0.27319 0.25181
 O561 O 0.51791 0.27314 0.25180
 O562 O 0.48184 0.24783 0.22637
 Cu563 Cu 0.49982 0.23673 0.26275
 Cu564 Cu 0.49988 0.26265 0.23693
 C565 C 0.47558 0.23274 0.23280
 C566 C 0.52412 0.26665 0.26687
 C567 C 0.47564 0.26671 0.26688
 C568 C 0.52406 0.23265 0.23281
 O569 O 0.98223 0.75216 0.72640
 O570 O 1.01820 0.72663 0.75172
 O571 O 0.98217 0.72673 0.75179
 O572 O 1.01825 0.75206 0.72634
 O573 O 1.01835 0.77360 0.74788
 O574 O 0.98227 0.74827 0.77333
 O575 O 1.01830 0.74817 0.77326
 O576 O 0.98232 0.77370 0.74794
 Cu577 Cu 1.00020 0.73724 0.73690
 Cu578 Cu 1.00032 0.76309 0.76276
 C579 C 0.97606 0.76727 0.73287
 C580 C 1.02447 0.73306 0.76680
 C581 C 0.97599 0.73320 0.76689
 C582 C 1.02454 0.76713 0.73278
 O583 O 0.51845 0.77389 0.24783
 O584 O 0.48235 0.74846 0.27315
 O585 O 0.51838 0.74848 0.27324
 O586 O 0.48242 0.77385 0.24772
 O587 O 0.48250 0.75229 0.22621
 O588 O 0.51845 0.72692 0.25172
 O589 O 0.48243 0.72690 0.25163
 O590 O 0.51853 0.75233 0.22631
 Cu591 Cu 0.50040 0.76333 0.26264
 Cu592 Cu 0.50049 0.73745 0.23681
 C593 C 0.52473 0.76743 0.23277
 C594 C 0.47615 0.73336 0.26669
 C595 C 0.52462 0.73339 0.26682
 C596 C 0.47625 0.76738 0.23263
 O597 O 0.01757 0.75181 0.27308
 O598 O -0.01847 0.72646 0.24767
 O599 O 0.01756 0.72643 0.24767
 O600 O -0.01845 0.75185 0.27306
 O601 O -0.01840 0.77342 0.25153
 O602 O 0.01761 0.74800 0.22614
 O603 O -0.01842 0.74803 0.22614
 O604 O 0.01763 0.77338 0.25155
 Cu605 Cu -0.00045 0.73697 0.26253
 Cu606 Cu -0.00039 0.76287 0.23669
 C607 C 0.02383 0.76690 0.26663
 C608 C -0.02468 0.73293 0.23259
 C609 C 0.02381 0.73290 0.23259
 C610 C -0.02465 0.76696 0.26661
 O611 O 0.51777 0.75250 0.77373
 O612 O 0.48180 0.72703 0.74833
 O613 O 0.51782 0.72703 0.74841
 O614 O 0.48174 0.75249 0.77366
 O615 O 0.48180 0.77400 0.75208
 O616 O 0.51788 0.74854 0.72682
 O617 O 0.48186 0.74854 0.72674
 O618 O 0.51783 0.77401 0.75214
 Cu619 Cu 0.49978 0.73761 0.76320
 Cu620 Cu 0.49985 0.76343 0.73728
 C621 C 0.52402 0.76758 0.76725
 C622 C 0.47561 0.73345 0.73322
 C623 C 0.52409 0.73346 0.73332
 C624 C 0.47553 0.76757 0.76716
 C625 C 0.43939 0.30254 0.27907
 C626 C 0.43214 0.29525 0.29545
 C627 C 0.43934 0.27883 0.30268
 C628 C 0.45363 0.26963 0.29350
 C629 C 0.37591 0.32779 0.32804
 C630 C 0.45368 0.29336 0.26986
 C631 C 0.41703 0.30439 0.30460
 C632 C 0.40422 0.31190 0.31213
 C633 C 0.38903 0.32054 0.32078
 C634 C 0.46090 0.27674 0.27692
 H635 H 0.43389 0.31523 0.27334
 H636 H 0.43381 0.27306 0.31534
 H637 H 0.45887 0.25688 0.29931
 H638 H 0.45895 0.29921 0.25713
 C639 C 0.43916 0.80334 0.77911
 C640 C 0.43188 0.79610 0.79549
 C641 C 0.43911 0.77973 0.80281
 C642 C 0.45345 0.77053 0.79371
 C643 C 0.37542 0.82852 0.82781
 C644 C 0.45350 0.79417 0.76997
 C645 C 0.41671 0.80522 0.80456
 C646 C 0.40384 0.81271 0.81202
 C647 C 0.38860 0.82132 0.82060
 C648 C 0.46074 0.77760 0.77712
 H649 H 0.43364 0.81599 0.77330
 H650 H 0.43356 0.77399 0.81548
 H651 H 0.45871 0.75781 0.79958
 H652 H 0.45879 0.79998 0.75724
 C653 C -0.06110 0.27909 0.80242
 C654 C -0.06826 0.29550 0.79511
 C655 C -0.06097 0.30269 0.77871
 C656 C -0.04668 0.29346 0.76956
 C657 C -0.12446 0.32826 0.82752
 C658 C -0.04681 0.26982 0.79330
 C659 C -0.08336 0.30470 0.80419
 C660 C -0.09617 0.31227 0.81167
 C661 C -0.11134 0.32097 0.82029
 C662 C -0.03950 0.27685 0.77671
 H663 H -0.06667 0.27338 0.81509
 H664 H -0.06643 0.31537 0.77291
 H665 H -0.04137 0.29924 0.75682
 H666 H -0.04161 0.25708 0.79917
 C667 C -0.06090 0.80279 0.27874
 C668 C -0.06816 0.79553 0.29512
 C669 C -0.06097 0.77911 0.30238
 C670 C -0.04668 0.76990 0.29321
 C671 C -0.12441 0.82812 0.32763
 C672 C -0.04661 0.79361 0.26955
 C673 C -0.08328 0.80467 0.30425
 C674 C -0.09610 0.81220 0.31176
 C675 C -0.11128 0.82086 0.32039
 C676 C -0.03940 0.77700 0.27663
 H677 H -0.06639 0.81548 0.27299
 H678 H -0.06651 0.77335 0.31503
 H679 H -0.04144 0.75715 0.29903
 H680 H -0.04132 0.79944 0.25683
 C681 C 0.56087 0.69759 0.27909
 C682 C 0.56805 0.70486 0.29549
 C683 C 0.56081 0.72126 0.30270
 C684 C 0.54654 0.73047 0.29349
 C685 C 0.62419 0.67227 0.32816
 C686 C 0.54660 0.70676 0.26984
 C687 C 0.58313 0.69572 0.30467
 C688 C 0.59592 0.68819 0.31221
 C689 C 0.61108 0.67953 0.32089
 C690 C 0.53934 0.72336 0.27689
 H691 H 0.56639 0.68491 0.27336
 H692 H 0.56629 0.72703 0.31538
 H693 H 0.54127 0.74321 0.29928
 H694 H 0.54138 0.70093 0.25710
 C695 C 0.56060 0.19707 0.77894
 C696 C 0.56787 0.20431 0.79532
 C697 C 0.56065 0.22070 0.80261
 C698 C 0.54633 0.22991 0.79349
 C699 C 0.62425 0.17182 0.82768
 C700 C 0.54628 0.20625 0.76979
 C701 C 0.58302 0.19518 0.80440
 C702 C 0.59586 0.18767 0.81187
 C703 C 0.61109 0.17904 0.82046
 C704 C 0.53905 0.22284 0.77692
 H705 H 0.56611 0.18441 0.77316
 H706 H 0.56620 0.22644 0.81526
 H707 H 0.54108 0.24263 0.79934
 H708 H 0.54099 0.20044 0.75707
 C709 C 1.06068 0.69716 0.77885
 C710 C 1.06796 0.70439 0.79523
 C711 C 1.06079 0.72080 0.80250
 C712 C 1.04650 0.73005 0.79336
 C713 C 1.12420 0.67173 0.82765
 C714 C 1.04639 0.70637 0.76969
 C715 C 1.08307 0.69521 0.80432
 C716 C 1.09588 0.68767 0.81181
 C717 C 1.11107 0.67899 0.82042
 C718 C 1.03920 0.72298 0.77679
 H719 H 1.06615 0.68448 0.77309
 H720 H 1.06634 0.72654 0.81515
 H721 H 1.04128 0.74279 0.79920
 H722 H 1.04109 0.70057 0.75697
 C723 C 1.06070 0.19726 0.27899
 C724 C 1.06789 0.20452 0.29539
 C725 C 1.06064 0.22091 0.30264
 C726 C 1.04635 0.23010 0.29345
 C727 C 1.12410 0.17199 0.32801
 C728 C 1.04641 0.20643 0.26977
 C729 C 1.08299 0.19539 0.30455
 C730 C 1.09580 0.18788 0.31208
 C731 C 1.11098 0.17924 0.32075
 C732 C 1.03914 0.22301 0.27685
 H733 H 1.06623 0.18460 0.27325
 H734 H 1.06613 0.22667 0.31531
 H735 H 1.04107 0.24284 0.29926
 H736 H 1.04118 0.20060 0.25704
 C737 C 0.56061 0.30274 0.72079
 C738 C 0.56781 0.29550 0.70439
 C739 C 0.56055 0.27912 0.69713
 C740 C 0.54623 0.26992 0.70631
 C741 C 0.62419 0.32797 0.67190
 C742 C 0.54629 0.29358 0.73000
 C743 C 0.58296 0.30461 0.69526
 C744 C 0.59581 0.31211 0.68775
 C745 C 0.61103 0.32074 0.67913
 C746 C 0.53901 0.27700 0.72291
 H747 H 0.56616 0.31540 0.72655
 H748 H 0.56605 0.27337 0.68446
 H749 H 0.54094 0.25720 0.70048
 H750 H 0.54105 0.29940 0.74274
 C751 C 0.56119 0.77958 0.19711
 C752 C 0.56839 0.79599 0.20438
 C753 C 0.56109 0.80325 0.22073
 C754 C 0.54675 0.79407 0.22988
 C755 C 0.62483 0.82854 0.17206
 C756 C 0.54685 0.77037 0.20624
 C757 C 0.58355 0.80513 0.19530
 C758 C 0.59642 0.81265 0.18784
 C759 C 0.61166 0.82129 0.17926
 C760 C 0.53953 0.77747 0.22279
 H761 H 0.56676 0.77382 0.18448
 H762 H 0.56658 0.81593 0.22649
 H763 H 0.54143 0.79991 0.24259
 H764 H 0.54161 0.75763 0.20041
 C765 C 1.06081 0.30289 0.22069
 C766 C 1.06807 0.29564 0.20431
 C767 C 1.06083 0.27924 0.19704
 C768 C 1.04651 0.27004 0.20619
 C769 C 1.12446 0.32814 0.17187
 C770 C 1.04648 0.29372 0.22986
 C771 C 1.08322 0.30477 0.19520
 C772 C 1.09607 0.31228 0.18771
 C773 C 1.11130 0.32091 0.17909
 C774 C 1.03923 0.27713 0.22277
 H775 H 1.06633 0.31556 0.22645
 H776 H 1.06637 0.27349 0.18439
 H777 H 1.04124 0.25731 0.20036
 H778 H 1.04120 0.29954 0.24258
 C779 C 1.06088 0.77917 0.69697
 C780 C 1.06818 0.79554 0.70423
 C781 C 1.06098 0.80282 0.72062
 C782 C 1.04664 0.79369 0.72982
 C783 C 1.12461 0.82791 0.67172
 C784 C 1.04654 0.77001 0.70615
 C785 C 1.08334 0.80463 0.69509
 C786 C 1.09620 0.81210 0.68758
 C787 C 1.11144 0.82070 0.67895
 C788 C 1.03933 0.77712 0.72274
 H789 H 1.06637 0.77340 0.68431
 H790 H 1.06655 0.81547 0.72637
 H791 H 1.04141 0.79953 0.74256
 H792 H 1.04123 0.75729 0.70033
 C793 C 0.43931 0.69763 0.72111
 C794 C 0.43212 0.70486 0.70470
 C795 C 0.43938 0.72125 0.69741
 C796 C 0.45367 0.73047 0.70658
 C797 C 0.37588 0.67227 0.67218
 C798 C 0.45360 0.70682 0.73031
 C799 C 0.41701 0.69571 0.69557
 C800 C 0.40419 0.68819 0.68805
 C801 C 0.38900 0.67953 0.67942
 C802 C 0.46087 0.72341 0.72320
 H803 H 0.43377 0.68497 0.72689
 H804 H 0.43389 0.72698 0.68473
 H805 H 0.45895 0.74319 0.70074
 H806 H 0.45883 0.70102 0.74307
 C807 C 0.43925 0.22075 0.19702
 C808 C 0.43197 0.20435 0.20426
 C809 C 0.43917 0.19704 0.22063
 C810 C 0.45350 0.20616 0.22984
 C811 C 0.37558 0.17198 0.17176
 C812 C 0.45357 0.22990 0.20620
 C813 C 0.41681 0.19527 0.19513
 C814 C 0.40396 0.18780 0.18762
 C815 C 0.38874 0.17920 0.17899
 C816 C 0.46080 0.22276 0.22277
 H817 H 0.43375 0.22654 0.18437
 H818 H 0.43362 0.18437 0.22637
 H819 H 0.45875 0.20030 0.24256
 H820 H 0.45887 0.24264 0.20039
 C821 C -0.06102 0.72087 0.19684
 C822 C -0.06828 0.70447 0.20410
 C823 C -0.06105 0.69719 0.22047
 C824 C -0.04672 0.70633 0.22965
 C825 C -0.12468 0.67203 0.17170
 C826 C -0.04669 0.73005 0.20599
 C827 C -0.08343 0.69537 0.19499
 C828 C -0.09628 0.68788 0.18750
 C829 C -0.11151 0.67926 0.17891
 C830 C -0.03945 0.72293 0.22257
 H831 H -0.06654 0.72665 0.18419
 H832 H -0.06659 0.68452 0.22622
 H833 H -0.04146 0.70048 0.24237
 H834 H -0.04141 0.74279 0.20017
 C835 C -0.06104 0.22049 0.69704
 C836 C -0.06833 0.20412 0.70433
 C837 C -0.06115 0.19688 0.72075
 C838 C -0.04683 0.20604 0.72993
 C839 C -0.12469 0.17163 0.67191
 C840 C -0.04673 0.22968 0.70619
 C841 C -0.08347 0.19500 0.69522
 C842 C -0.09632 0.18750 0.68773
 C843 C -0.11154 0.17887 0.67912
 C844 C -0.03952 0.22261 0.72281
 H845 H -0.06653 0.22623 0.68435
 H846 H -0.06671 0.18423 0.72653
 H847 H -0.04161 0.20023 0.74268
 H848 H -0.04142 0.24239 0.70034
 C849 C 0.27906 0.43947 0.30283
 C850 C 0.29544 0.43222 0.29557
 C851 C 0.30270 0.43943 0.27916
 C852 C 0.29354 0.45373 0.26996
 C853 C 0.32791 0.37590 0.32808
 C854 C 0.26987 0.45377 0.29366
 C855 C 0.30456 0.41709 0.30470
 C856 C 0.31206 0.40425 0.31221
 C857 C 0.32068 0.38905 0.32084
 C858 C 0.27696 0.46100 0.27706
 H859 H 0.27330 0.43396 0.31551
 H860 H 0.31536 0.43389 0.27340
 H861 H 0.29937 0.45898 0.25721
 H862 H 0.25714 0.45905 0.29949
 C863 C 0.27949 -0.06127 0.80287
 C864 C 0.29589 -0.06844 0.79557
 C865 C 0.30313 -0.06114 0.77920
 C866 C 0.29393 -0.04682 0.77006
 C867 C 0.32852 -0.12480 0.82786
 C868 C 0.27026 -0.04695 0.79376
 C869 C 0.30505 -0.08358 0.80464
 C870 C 0.31259 -0.09643 0.81209
 C871 C 0.32126 -0.11164 0.82067
 C872 C 0.27733 -0.03963 0.77719
 H873 H 0.27375 -0.06684 0.81553
 H874 H 0.31580 -0.06662 0.77341
 H875 H 0.29974 -0.04151 0.75733
 H876 H 0.25752 -0.04173 0.79962
 C877 C 0.77927 0.43930 0.80295
 C878 C 0.79567 0.43208 0.79568
 C879 C 0.80296 0.43936 0.77931
 C880 C 0.79381 0.45371 0.77016
 C881 C 0.82804 0.37562 0.82803
 C882 C 0.77010 0.45364 0.79382
 C883 C 0.80477 0.41691 0.80476
 C884 C 0.81225 0.40404 0.81223
 C885 C 0.82084 0.38879 0.82083
 C886 C 0.77721 0.46094 0.77726
 H887 H 0.77350 0.43374 0.81559
 H888 H 0.81563 0.43386 0.77355
 H889 H 0.79965 0.45901 0.75745
 H890 H 0.75736 0.45888 0.79966
 C891 C 0.77905 -0.06113 0.30282
 C892 C 0.79544 -0.06837 0.29555
 C893 C 0.80270 -0.06115 0.27915
 C894 C 0.79354 -0.04685 0.26996
 C895 C 0.82796 -0.12466 0.32806
 C896 C 0.76986 -0.04683 0.29365
 C897 C 0.80457 -0.08350 0.30468
 C898 C 0.81208 -0.09632 0.31219
 C899 C 0.82072 -0.11152 0.32083
 C900 C 0.77695 -0.03959 0.27705
 H901 H 0.77330 -0.06664 0.31549
 H902 H 0.81537 -0.06667 0.27339
 H903 H 0.79937 -0.04159 0.25722
 H904 H 0.75713 -0.04156 0.29948
 C905 C 0.27883 0.56066 0.69752
 C906 C 0.29523 0.56789 0.70477
 C907 C 0.30248 0.56066 0.72117
 C908 C 0.29329 0.54636 0.73037
 C909 C 0.32781 0.62417 0.67222
 C910 C 0.26961 0.54636 0.70669
 C911 C 0.30438 0.58301 0.69563
 C912 C 0.31191 0.59584 0.68812
 C913 C 0.32056 0.61103 0.67947
 C914 C 0.27669 0.53911 0.72328
 H915 H 0.27309 0.56618 0.68485
 H916 H 0.31515 0.56618 0.72692
 H917 H 0.29910 0.54110 0.74310
 H918 H 0.25688 0.54110 0.70086
 C919 C 0.30307 1.06059 0.22090
 C920 C 0.29583 1.06788 0.20453
 C921 C 0.27943 1.06067 0.19725
 C922 C 0.27021 1.04634 0.20637
 C923 C 0.32837 1.12429 0.17218
 C924 C 0.29388 1.04626 0.23005
 C925 C 0.30497 1.08304 0.19545
 C926 C 0.31249 1.09589 0.18798
 C927 C 0.32114 1.11113 0.17939
 C928 C 0.27728 1.03903 0.22294
 H929 H 0.31574 1.06609 0.22667
 H930 H 0.27368 1.06624 0.18460
 H931 H 0.25747 1.04110 0.20053
 H932 H 0.29970 1.04095 0.24276
 C933 C 0.80287 0.56072 0.22102
 C934 C 0.79560 0.56798 0.20465
 C935 C 0.77920 0.56075 0.19740
 C936 C 0.77000 0.54642 0.20655
 C937 C 0.82809 0.62436 0.17219
 C938 C 0.79371 0.54639 0.23020
 C939 C 0.80473 0.58313 0.19554
 C940 C 0.81224 0.59598 0.18804
 C941 C 0.82086 0.61120 0.17942
 C942 C 0.77711 0.53914 0.22312
 H943 H 0.81555 0.56623 0.22677
 H944 H 0.77344 0.56629 0.18475
 H945 H 0.75726 0.54116 0.20073
 H946 H 0.79954 0.54110 0.24292
 C947 C 0.77946 1.06134 0.69726
 C948 C 0.79586 1.06857 0.70452
 C949 C 0.80310 1.06133 0.72091
 C950 C 0.79392 1.04703 0.73011
 C951 C 0.82846 1.12486 0.67199
 C952 C 0.77025 1.04703 0.70642
 C953 C 0.80501 1.08369 0.69538
 C954 C 0.81254 1.09652 0.68787
 C955 C 0.82120 1.11172 0.67923
 C956 C 0.77732 1.03978 0.72301
 H957 H 0.77372 1.06685 0.68459
 H958 H 0.81578 1.06685 0.72666
 H959 H 0.79973 1.04176 0.74284
 H960 H 0.75751 1.04177 0.70060
 C961 C 0.72097 0.56054 0.30300
 C962 C 0.70457 0.56779 0.29577
 C963 C 0.69729 0.56059 0.27938
 C964 C 0.70644 0.54629 0.27017
 C965 C 0.67215 0.62412 0.32828
 C966 C 0.73015 0.54624 0.29382
 C967 C 0.69547 0.58292 0.30491
 C968 C 0.68798 0.59576 0.31242
 C969 C 0.67937 0.61097 0.32105
 C970 C 0.72304 0.53902 0.27723
 H971 H 0.72674 0.56604 0.31566
 H972 H 0.68463 0.56612 0.27365
 H973 H 0.70060 0.54104 0.25744
 H974 H 0.74289 0.54097 0.29962
 C975 C 0.72102 1.06130 0.80281
 C976 C 0.70462 1.06851 0.79555
 C977 C 0.69738 1.06128 0.77916
 C978 C 0.70656 1.04699 0.76997
 C979 C 0.67201 1.12474 0.82805
 C980 C 0.73024 1.04700 0.79365
 C981 C 0.69547 1.08362 0.80468
 C982 C 0.68794 1.09644 0.81218
 C983 C 0.67928 1.11162 0.82082
 C984 C 0.72316 1.03975 0.77706
 H985 H 0.72677 1.06681 0.81548
 H986 H 0.68471 1.06679 0.77341
 H987 H 0.70075 1.04173 0.75724
 H988 H 0.74297 1.04175 0.79948
 C989 C 0.22048 0.56072 0.80305
 C990 C 0.20410 0.56797 0.79578
 C991 C 0.19684 0.56074 0.77940
 C992 C 0.20598 0.54641 0.77023
 C993 C 0.17173 0.62441 0.82814
 C994 C 0.22965 0.54639 0.79391
 C995 C 0.19501 0.58313 0.80487
 C996 C 0.18753 0.59600 0.81235
 C997 C 0.17893 0.61124 0.82094
 C998 C 0.22256 0.53914 0.77733
 H999 H 0.22624 0.56624 0.81570
 H1000 H 0.18418 0.56627 0.77363
 H1001 H 0.20015 0.54114 0.75751
 H1002 H 0.24238 0.54111 0.79974
 C1003 C 0.19738 1.06047 0.27911
 C1004 C 0.20464 1.06766 0.29551
 C1005 C 0.22103 1.06040 0.30276
 C1006 C 0.23022 1.04612 0.29357
 C1007 C 0.17213 1.12391 0.32805
 C1008 C 0.20655 1.04618 0.26990
 C1009 C 0.19552 1.08277 0.30466
 C1010 C 0.18801 1.09559 0.31218
 C1011 C 0.17937 1.11078 0.32082
 C1012 C 0.22313 1.03891 0.27697
 H1013 H 0.18472 1.06600 0.27337
 H1014 H 0.22679 1.06589 0.31543
 H1015 H 0.24295 1.04083 0.29939
 H1016 H 0.20072 1.04095 0.25716
 C1017 C 0.72115 0.43956 0.69736
 C1018 C 0.70475 0.43227 0.70458
 C1019 C 0.69746 0.43944 0.72098
 C1020 C 0.70660 0.45374 0.73022
 C1021 C 0.67232 0.37600 0.67196
 C1022 C 0.73032 0.45385 0.70656
 C1023 C 0.69565 0.41715 0.69542
 C1024 C 0.68816 0.40433 0.68788
 C1025 C 0.67955 0.38914 0.67921
 C1026 C 0.72320 0.46104 0.72316
 H1027 H 0.72693 0.43409 0.68468
 H1028 H 0.68479 0.43388 0.72672
 H1029 H 0.70075 0.45895 0.74296
 H1030 H 0.74306 0.45915 0.70076
 C1031 C 0.72067 -0.06117 0.19733
 C1032 C 0.70426 -0.06839 0.20461
 C1033 C 0.69702 -0.06115 0.22100
 C1034 C 0.70621 -0.04684 0.23016
 C1035 C 0.67168 -0.12468 0.17216
 C1036 C 0.72989 -0.04686 0.20647
 C1037 C 0.69511 -0.08352 0.19551
 C1038 C 0.68758 -0.09635 0.18802
 C1039 C 0.67893 -0.11154 0.17940
 C1040 C 0.72281 -0.03960 0.22305
 H1041 H 0.72641 -0.06670 0.18467
 H1042 H 0.68434 -0.06666 0.22677
 H1043 H 0.70039 -0.04157 0.24289
 H1044 H 0.74263 -0.04161 0.20062
 C1045 C 0.22067 0.43935 0.19736
 C1046 C 0.20427 0.43213 0.20465
 C1047 C 0.19703 0.43939 0.22104
 C1048 C 0.20622 0.45370 0.23019
 C1049 C 0.17170 0.37580 0.17228
 C1050 C 0.22989 0.45367 0.20648
 C1051 C 0.19512 0.41700 0.19557
 C1052 C 0.18760 0.40416 0.18809
 C1053 C 0.17895 0.38895 0.17949
 C1054 C 0.22281 0.46094 0.22306
 H1055 H 0.22641 0.43382 0.18470
 H1056 H 0.18436 0.43388 0.22682
 H1057 H 0.20040 0.45899 0.24292
 H1058 H 0.24262 0.45892 0.20063
 C1059 C 0.22101 -0.06109 0.69745
 C1060 C 0.20461 -0.06835 0.70471
 C1061 C 0.19736 -0.06116 0.72112
 C1062 C 0.20654 -0.04687 0.73033
 C1063 C 0.17198 -0.12455 0.67218
 C1064 C 0.23022 -0.04680 0.70662
 C1065 C 0.19546 -0.08345 0.69557
 C1066 C 0.18793 -0.09626 0.68806
 C1067 C 0.17925 -0.11144 0.67942
 C1068 C 0.22314 -0.03959 0.72323
 H1069 H 0.22675 -0.06658 0.68477
 H1070 H 0.18470 -0.06669 0.72688
 H1071 H 0.20072 -0.04164 0.74307
 H1072 H 0.24295 -0.04152 0.70079
 C1073 C 0.27901 0.30265 0.43976
 C1074 C 0.29542 0.29541 0.43254
 C1075 C 0.30270 0.27903 0.43979
 C1076 C 0.29354 0.26983 0.45410
 C1077 C 0.32790 0.32786 0.37617
 C1078 C 0.26982 0.29348 0.45407
 C1079 C 0.30454 0.30453 0.41740
 C1080 C 0.31204 0.31203 0.40455
 C1081 C 0.32067 0.32064 0.38933
 C1082 C 0.27693 0.27690 0.46134
 H1083 H 0.27324 0.31530 0.43422
 H1084 H 0.31539 0.27329 0.43428
 H1085 H 0.29939 0.25711 0.45938
 H1086 H 0.25707 0.29929 0.45933
 C1087 C 0.27936 0.80269 -0.06098
 C1088 C 0.29575 0.79542 -0.06821
 C1089 C 0.30301 0.77903 -0.06097
 C1090 C 0.29384 0.76984 -0.04665
 C1091 C 0.32821 0.82795 -0.12455
 C1092 C 0.27016 0.79353 -0.04666
 C1093 C 0.30488 0.80454 -0.08335
 C1094 C 0.31238 0.81205 -0.09619
 C1095 C 0.32099 0.82070 -0.11140
 C1096 C 0.27725 0.77694 -0.03940
 H1097 H 0.27360 0.81535 -0.06650
 H1098 H 0.31568 0.77327 -0.06649
 H1099 H 0.29967 0.75711 -0.04138
 H1100 H 0.25743 0.79936 -0.04140
 C1101 C 0.77886 0.30299 -0.06068
 C1102 C 0.79526 0.29579 -0.06795
 C1103 C 0.80259 0.27942 -0.06074
 C1104 C 0.79348 0.27018 -0.04642
 C1105 C 0.82758 0.32838 -0.12434
 C1106 C 0.76972 0.29378 -0.04637
 C1107 C 0.80433 0.30496 -0.08310
 C1108 C 0.81179 0.31249 -0.09595
 C1109 C 0.82037 0.32114 -0.11118
 C1110 C 0.77688 0.27720 -0.03914
 H1111 H 0.77305 0.31564 -0.06619
 H1112 H 0.81527 0.27371 -0.06629
 H1113 H 0.79936 0.25746 -0.04118
 H1114 H 0.75697 0.29956 -0.04107
 C1115 C 0.77900 0.80311 0.43960
 C1116 C 0.79539 0.79586 0.43234
 C1117 C 0.80269 0.77949 0.43960
 C1118 C 0.79356 0.77031 0.45395
 C1119 C 0.82768 0.82825 0.37584
 C1120 C 0.76985 0.79396 0.45395
 C1121 C 0.80446 0.80496 0.41716
 C1122 C 0.81192 0.81244 0.40428
 C1123 C 0.82049 0.82104 0.38902
 C1124 C 0.77698 0.77739 0.46122
 H1125 H 0.77321 0.81576 0.43407
 H1126 H 0.81535 0.77374 0.43406
 H1127 H 0.79942 0.75759 0.45922
 H1128 H 0.75711 0.79977 0.45923
 C1129 C 0.72120 0.30262 0.56040
 C1130 C 0.70480 0.29538 0.56767
 C1131 C 0.69752 0.27897 0.56049
 C1132 C 0.70667 0.26974 0.54620
 C1133 C 0.67233 0.32796 0.62391
 C1134 C 0.73038 0.29343 0.54611
 C1135 C 0.69569 0.30453 0.58278
 C1136 C 0.68820 0.31206 0.59560
 C1137 C 0.67957 0.32071 0.61078
 C1138 C 0.72326 0.27682 0.53891
 H1139 H 0.72697 0.31530 0.56588
 H1140 H 0.68485 0.27322 0.56603
 H1141 H 0.70082 0.25700 0.54097
 H1142 H 0.74311 0.29924 0.54082
 C1143 C 0.72086 0.80321 1.06077
 C1144 C 0.70447 0.79593 1.06801
 C1145 C 0.69719 0.77955 1.06077
 C1146 C 0.70634 0.77038 1.04644
 C1147 C 0.67204 0.82825 1.12443
 C1148 C 0.73004 0.79408 1.04644
 C1149 C 0.69537 0.80502 1.08317
 C1150 C 0.68788 0.81248 1.09603
 C1151 C 0.67926 0.82107 1.11126
 C1152 C 0.72294 0.77749 1.03918
 H1153 H 0.72663 0.81587 1.06630
 H1154 H 0.68453 0.77377 1.06630
 H1155 H 0.70050 0.75766 1.04117
 H1156 H 0.74278 0.79992 1.04117
 C1157 C 0.22059 0.30270 1.06064
 C1158 C 0.20422 0.29539 1.06791
 C1159 C 0.19699 0.27896 1.06072
 C1160 C 0.20617 0.26979 1.04641
 C1161 C 0.17170 0.32778 1.12423
 C1162 C 0.22979 0.29356 1.04633
 C1163 C 0.19509 0.30449 1.08304
 C1164 C 0.18758 0.31197 1.09588
 C1165 C 0.17894 0.32057 1.11109
 C1166 C 0.22273 0.27693 1.03912
 H1167 H 0.22632 0.31540 1.06613
 H1168 H 0.18435 0.27316 1.06627
 H1169 H 0.20037 0.25702 1.04118
 H1170 H 0.24250 0.29943 1.04104
 C1171 C 0.22063 0.80253 0.56039
 C1172 C 0.20426 0.79520 0.56764
 C1173 C 0.19703 0.77879 0.56041
 C1174 C 0.20621 0.76964 0.54609
 C1175 C 0.17180 0.82752 0.62404
 C1176 C 0.22984 0.79341 0.54607
 C1177 C 0.19513 0.80427 0.58279
 C1178 C 0.18763 0.81173 0.59565
 C1179 C 0.17901 0.82031 0.61088
 C1180 C 0.22278 0.77680 0.53882
 H1181 H 0.22636 0.81521 0.56591
 H1182 H 0.18439 0.77297 0.56594
 H1183 H 0.20042 0.75689 0.54083
 H1184 H 0.24255 0.79929 0.54080
 C1185 C 0.27914 0.69715 0.56039
 C1186 C 0.29550 0.70447 0.56763
 C1187 C 0.30274 0.72088 0.56040
 C1188 C 0.29357 0.73004 0.54608
 C1189 C 0.32793 0.67213 0.62404
 C1190 C 0.26994 0.70628 0.54607
 C1191 C 0.30462 0.69539 0.58279
 C1192 C 0.31211 0.68792 0.59564
 C1193 C 0.32072 0.67933 0.61088
 C1194 C 0.27701 0.72289 0.53882
 H1195 H 0.27340 0.68446 0.56591
 H1196 H 0.31538 0.72669 0.56593
 H1197 H 0.29937 0.74280 0.54081
 H1198 H 0.25723 0.70040 0.54080
 C1199 C 0.27925 0.19736 1.06073
 C1200 C 0.29565 0.20470 1.06790
 C1201 C 0.30284 0.22111 1.06060
 C1202 C 0.29361 0.23023 1.04630
 C1203 C 0.32834 0.17240 1.12418
 C1204 C 0.27000 0.20646 1.04644
 C1205 C 0.30484 0.19564 1.08302
 C1206 C 0.31239 0.18819 1.09585
 C1207 C 0.32107 0.17960 1.11104
 C1208 C 0.27702 0.22306 1.03912
 H1209 H 0.27355 0.18468 1.06630
 H1210 H 0.31551 0.22692 1.06607
 H1211 H 0.29939 0.24298 1.04099
 H1212 H 0.25727 0.20057 1.04123
 C1213 C 0.77912 0.69766 1.06068
 C1214 C 0.79552 0.70493 1.06789
 C1215 C 0.80279 0.72133 1.06065
 C1216 C 0.79362 0.73053 1.04636
 C1217 C 0.82805 0.67245 1.12415
 C1218 C 0.76992 0.70683 1.04638
 C1219 C 0.80465 0.69580 1.08301
 C1220 C 0.81217 0.68830 1.09583
 C1221 C 0.82081 0.67967 1.11102
 C1222 C 0.77702 0.72343 1.03912
 H1223 H 0.77336 0.68499 1.06620
 H1224 H 0.81547 0.72709 1.06615
 H1225 H 0.79946 0.74327 1.04109
 H1226 H 0.75718 0.70100 1.04113
 C1227 C 0.77939 0.19701 0.56060
 C1228 C 0.79579 0.20429 0.56781
 C1229 C 0.80306 0.22067 0.56052
 C1230 C 0.79391 0.22982 0.54620
 C1231 C 0.82818 0.17196 0.62424
 C1232 C 0.77021 0.20613 0.54627
 C1233 C 0.80489 0.19521 0.58297
 C1234 C 0.81238 0.18774 0.59583
 C1235 C 0.82097 0.17915 0.61107
 C1236 C 0.77731 0.22271 0.53897
 H1237 H 0.77362 0.18435 0.56616
 H1238 H 0.81574 0.22644 0.56602
 H1239 H 0.79975 0.24255 0.54090
 H1240 H 0.75747 0.20029 0.54103
 C1241 C 0.69722 0.72105 0.43985
 C1242 C 0.70451 0.70467 0.43263
 C1243 C 0.72091 0.69743 0.43986
 C1244 C 0.73009 0.70662 0.45416
 C1245 C 0.67211 0.67216 0.37632
 C1246 C 0.70637 0.73027 0.45414
 C1247 C 0.69541 0.69553 0.41751
 C1248 C 0.68792 0.68802 0.40467
 C1249 C 0.67932 0.67939 0.38946
 C1250 C 0.72297 0.72321 0.46139
 H1251 H 0.68454 0.72679 0.43433
 H1252 H 0.72669 0.68477 0.43435
 H1253 H 0.74283 0.70082 0.45942
 H1254 H 0.70052 0.74300 0.45939
 C1255 C 0.69724 0.22073 -0.06065
 C1256 C 0.70456 0.20438 -0.06790
 C1257 C 0.72097 0.19716 -0.06068
 C1258 C 0.73013 0.20634 -0.04637
 C1259 C 0.67225 0.17186 -0.12426
 C1260 C 0.70637 0.22994 -0.04634
 C1261 C 0.69548 0.19524 -0.08304
 C1262 C 0.68801 0.18773 -0.09588
 C1263 C 0.67944 0.17910 -0.11110
 C1264 C 0.72298 0.22290 -0.03910
 H1265 H 0.68455 0.22646 -0.06617
 H1266 H 0.72678 0.18452 -0.06621
 H1267 H 0.74289 0.20055 -0.04111
 H1268 H 0.70050 0.24265 -0.04107
 C1269 C 0.19742 0.72066 -0.06087
 C1270 C 0.20468 0.70426 -0.06807
 C1271 C 0.22107 0.69701 -0.06082
 C1272 C 0.23026 0.70620 -0.04653
 C1273 C 0.17223 0.67169 -0.12432
 C1274 C 0.20657 0.72988 -0.04659
 C1275 C 0.19557 0.69511 -0.08318
 C1276 C 0.18808 0.68758 -0.09600
 C1277 C 0.17946 0.67894 -0.11119
 C1278 C 0.22316 0.72280 -0.03932
 H1279 H 0.18475 0.72641 -0.06641
 H1280 H 0.22684 0.68433 -0.06631
 H1281 H 0.24299 0.70038 -0.04125
 H1282 H 0.20074 0.74262 -0.04135
 C1283 C 0.22083 0.19703 0.43977
 C1284 C 0.20443 0.20428 0.43254
 C1285 C 0.19714 0.22064 0.43979
 C1286 C 0.20628 0.22983 0.45411
 C1287 C 0.17203 0.17189 0.37616
 C1288 C 0.23001 0.20618 0.45408
 C1289 C 0.19533 0.19517 0.41739
 C1290 C 0.18785 0.18769 0.40455
 C1291 C 0.17924 0.17909 0.38932
 C1292 C 0.22288 0.22275 0.46135
 H1293 H 0.22661 0.18438 0.43423
 H1294 H 0.18447 0.22639 0.43428
 H1295 H 0.20043 0.24255 0.45938
 H1296 H 0.24275 0.20037 0.45934
 C1297 C 0.30239 0.43957 0.72122
 C1298 C 0.29514 0.43234 0.70483
 C1299 C 0.27874 0.43957 0.69757
 C1300 C 0.26955 0.45388 0.70673
 C1301 C 0.32768 0.37607 0.67235
 C1302 C 0.29322 0.45388 0.73040
 C1303 C 0.30427 0.41722 0.69571
 C1304 C 0.31179 0.40439 0.68821
 C1305 C 0.32043 0.38920 0.67959
 C1306 C 0.27663 0.46113 0.72331
 H1307 H 0.31506 0.43406 0.72697
 H1308 H 0.27299 0.43406 0.68491
 H1309 H 0.25681 0.45914 0.70090
 H1310 H 0.29905 0.45914 0.74313
 C1311 C 0.27930 0.93957 0.19694
 C1312 C 0.29569 0.93231 0.20417
 C1313 C 0.30295 0.93949 0.22058
 C1314 C 0.29379 0.95377 0.22981
 C1315 C 0.32821 0.87611 0.17155
 C1316 C 0.27011 0.95385 0.20614
 C1317 C 0.30482 0.91721 0.19501
 C1318 C 0.31233 0.90441 0.18747
 C1319 C 0.32097 0.88923 0.17881
 C1320 C 0.27720 0.96105 0.22274
 H1321 H 0.27355 0.93410 0.18426
 H1322 H 0.31562 0.93395 0.22632
 H1323 H 0.29961 0.95899 0.24255
 H1324 H 0.25738 0.95914 0.20033
 C1325 C 0.77917 0.43963 0.19722
 C1326 C 0.79557 0.43239 0.20446
 C1327 C 0.80284 0.43959 0.22084
 C1328 C 0.79369 0.45388 0.23006
 C1329 C 0.82804 0.37613 0.17188
 C1330 C 0.76998 0.45392 0.20641
 C1331 C 0.80469 0.41727 0.19531
 C1332 C 0.81219 0.40445 0.18778
 C1333 C 0.82081 0.38926 0.17913
 C1334 C 0.77709 0.46115 0.22300
 H1335 H 0.77340 0.43414 0.18456
 H1336 H 0.81552 0.43407 0.22658
 H1337 H 0.79952 0.45913 0.24279
 H1338 H 0.75724 0.45920 0.20061
 C1339 C 0.80303 0.94021 0.72097
 C1340 C 0.79577 0.93297 0.70459
 C1341 C 0.77939 0.94022 0.69732
 C1342 C 0.77020 0.95453 0.70647
 C1343 C 0.82822 0.87663 0.67213
 C1344 C 0.79386 0.95452 0.73015
 C1345 C 0.80489 0.91784 0.69548
 C1346 C 0.81239 0.90499 0.68798
 C1347 C 0.82100 0.88978 0.67936
 C1348 C 0.77728 0.96178 0.72305
 H1349 H 0.81569 0.93468 0.72673
 H1350 H 0.77363 0.93470 0.68466
 H1351 H 0.75747 0.95980 0.70063
 H1352 H 0.79969 0.95978 0.74288
 C1353 C 0.72102 0.56068 0.69768
 C1354 C 0.70461 0.56786 0.70494
 C1355 C 0.69733 0.56056 0.72130
 C1356 C 0.70651 0.54624 0.73046
 C1357 C 0.67208 0.62422 0.67257
 C1358 C 0.73022 0.54635 0.70680
 C1359 C 0.69547 0.58301 0.69586
 C1360 C 0.68796 0.59585 0.68838
 C1361 C 0.67932 0.61107 0.67979
 C1362 C 0.72312 0.53903 0.72336
 H1363 H 0.72679 0.56625 0.68503
 H1364 H 0.68465 0.56604 0.72707
 H1365 H 0.70067 0.54092 0.74317
 H1366 H 0.74297 0.54113 0.70097
 C1367 C 0.72081 0.05995 0.19719
 C1368 C 0.70442 0.06720 0.20446
 C1369 C 0.69716 0.05998 0.22086
 C1370 C 0.70631 0.04567 0.23006
 C1371 C 0.67199 0.12353 0.17194
 C1372 C 0.72999 0.04564 0.20636
 C1373 C 0.69531 0.08233 0.19533
 C1374 C 0.68782 0.09517 0.18782
 C1375 C 0.67921 0.11038 0.17918
 C1376 C 0.72289 0.03840 0.22296
 H1377 H 0.72657 0.06546 0.18452
 H1378 H 0.68450 0.06551 0.22662
 H1379 H 0.70048 0.04042 0.24279
 H1380 H 0.74272 0.04036 0.20053
 C1381 C 0.22077 0.56045 0.19712
 C1382 C 0.20439 0.56770 0.20439
 C1383 C 0.19713 0.56050 0.22080
 C1384 C 0.20630 0.54620 0.23001
 C1385 C 0.17189 0.62396 0.17182
 C1386 C 0.22997 0.54616 0.20630
 C1387 C 0.19526 0.58282 0.19524
 C1388 C 0.18775 0.59564 0.18772
 C1389 C 0.17912 0.61083 0.17907
 C1390 C 0.22288 0.53893 0.22291
 H1391 H 0.22653 0.56595 0.18444
 H1392 H 0.18447 0.56603 0.22656
 H1393 H 0.20047 0.54096 0.24276
 H1394 H 0.24270 0.54088 0.20047
 C1395 C 0.22091 0.05998 0.69761
 C1396 C 0.20451 0.06718 0.70490
 C1397 C 0.19728 0.05991 0.72130
 C1398 C 0.20647 0.04561 0.73046
 C1399 C 0.17194 0.12345 0.67243
 C1400 C 0.23013 0.04567 0.70675
 C1401 C 0.19536 0.08230 0.69580
 C1402 C 0.18783 0.09513 0.68830
 C1403 C 0.17918 0.11032 0.67967
 C1404 C 0.22306 0.03839 0.72334
 H1405 H 0.22665 0.06552 0.68495
 H1406 H 0.18461 0.06541 0.72708
 H1407 H 0.20066 0.04032 0.74320
 H1408 H 0.24287 0.04043 0.70090
 C1409 C 0.27917 0.56059 0.30260
 C1410 C 0.29557 0.56781 0.29531
 C1411 C 0.30282 0.56055 0.27893
 C1412 C 0.29363 0.54623 0.26978
 C1413 C 0.32813 0.62415 0.32768
 C1414 C 0.26996 0.54627 0.29348
 C1415 C 0.30472 0.58295 0.30439
 C1416 C 0.31224 0.59579 0.31187
 C1417 C 0.32089 0.61100 0.32047
 C1418 C 0.27703 0.53900 0.27690
 H1419 H 0.27343 0.56613 0.31526
 H1420 H 0.31549 0.56606 0.27315
 H1421 H 0.29944 0.54095 0.25705
 H1422 H 0.25722 0.54102 0.29933
 C1423 C 0.27926 0.05991 0.80310
 C1424 C 0.29563 0.06721 0.79583
 C1425 C 0.30289 0.06003 0.77942
 C1426 C 0.29376 0.04571 0.77023
 C1427 C 0.32798 0.12363 0.82828
 C1428 C 0.27009 0.04559 0.79394
 C1429 C 0.30471 0.08237 0.80495
 C1430 C 0.31219 0.09523 0.81245
 C1431 C 0.32078 0.11046 0.82106
 C1432 C 0.27719 0.03839 0.77734
 H1433 H 0.27349 0.06539 0.81578
 H1434 H 0.31554 0.06560 0.77365
 H1435 H 0.29959 0.04048 0.75749
 H1436 H 0.25737 0.04027 0.79978
 C1437 C 0.77921 0.56052 0.80316
 C1438 C 0.79561 0.56779 0.79591
 C1439 C 0.80290 0.56058 0.77953
 C1440 C 0.79377 0.54626 0.77034
 C1441 C 0.82802 0.62421 0.82830
 C1442 C 0.77005 0.54620 0.79399
 C1443 C 0.80470 0.58295 0.80503
 C1444 C 0.81218 0.59580 0.81251
 C1445 C 0.82079 0.61104 0.82110
 C1446 C 0.77717 0.53897 0.77741
 H1447 H 0.77343 0.56602 0.81581
 H1448 H 0.81557 0.56613 0.77379
 H1449 H 0.79962 0.54101 0.75761
 H1450 H 0.75731 0.54090 0.79980
 C1451 C 0.77914 0.06000 0.30267
 C1452 C 0.79553 0.06723 0.29538
 C1453 C 0.80278 0.05999 0.27900
 C1454 C 0.79360 0.04567 0.26984
 C1455 C 0.82805 0.12359 0.32777
 C1456 C 0.76993 0.04568 0.29354
 C1457 C 0.80467 0.08238 0.30447
 C1458 C 0.81218 0.09522 0.31195
 C1459 C 0.82081 0.11044 0.32056
 C1460 C 0.77701 0.03842 0.27696
 H1461 H 0.77339 0.06553 0.31533
 H1462 H 0.81545 0.06551 0.27322
 H1463 H 0.79942 0.04039 0.25711
 H1464 H 0.75719 0.04042 0.29939
 C1465 C 0.72092 0.43937 0.30279
 C1466 C 0.70452 0.43214 0.29554
 C1467 C 0.69725 0.43942 0.27918
 C1468 C 0.70641 0.45376 0.27001
 C1469 C 0.67206 0.37570 0.32792
 C1470 C 0.73011 0.45371 0.29366
 C1471 C 0.69540 0.41698 0.30463
 C1472 C 0.68790 0.40411 0.31211
 C1473 C 0.67928 0.38887 0.32071
 C1474 C 0.72301 0.46101 0.27710
 H1475 H 0.72669 0.43382 0.31544
 H1476 H 0.68458 0.43391 0.27342
 H1477 H 0.70057 0.45906 0.25730
 H1478 H 0.74286 0.45897 0.29948
 C1479 C 0.72100 0.94021 0.80285
 C1480 C 0.70461 0.93298 0.79559
 C1481 C 0.69736 0.94021 0.77920
 C1482 C 0.70654 0.95452 0.77000
 C1483 C 0.67203 0.87668 0.82812
 C1484 C 0.73021 0.95452 0.79368
 C1485 C 0.69546 0.91785 0.80472
 C1486 C 0.68794 0.90502 0.81224
 C1487 C 0.67928 0.88982 0.82088
 C1488 C 0.72314 0.96177 0.77709
 H1489 H 0.72675 0.93470 0.81552
 H1490 H 0.68469 0.93469 0.77344
 H1491 H 0.70073 0.95978 0.75727
 H1492 H 0.74295 0.95979 0.79951
 C1493 C 0.22038 0.43951 0.80307
 C1494 C 0.20399 0.43227 0.79580
 C1495 C 0.19673 0.43952 0.77942
 C1496 C 0.20590 0.45386 0.77025
 C1497 C 0.17150 0.37583 0.82816
 C1498 C 0.22958 0.45384 0.79392
 C1499 C 0.19486 0.41711 0.80489
 C1500 C 0.18736 0.40424 0.81237
 C1501 C 0.17873 0.38900 0.82096
 C1502 C 0.22249 0.46111 0.77735
 H1503 H 0.22613 0.43397 0.81572
 H1504 H 0.18407 0.43400 0.77366
 H1505 H 0.20008 0.45913 0.75752
 H1506 H 0.24231 0.45910 0.79976
 C1507 C 0.22090 0.93931 0.30253
 C1508 C 0.20450 0.93211 0.29526
 C1509 C 0.19726 0.93938 0.27888
 C1510 C 0.20646 0.95370 0.26971
 C1511 C 0.17189 0.87579 0.32770
 C1512 C 0.23013 0.95363 0.29339
 C1513 C 0.19534 0.91697 0.30436
 C1514 C 0.18781 0.90414 0.31185
 C1515 C 0.17915 0.88893 0.32047
 C1516 C 0.22306 0.96092 0.27681
 H1517 H 0.22665 0.93377 0.31518
 H1518 H 0.18459 0.93388 0.27311
 H1519 H 0.20065 0.95899 0.25699
 H1520 H 0.24287 0.95887 0.29922
 C1521 C 0.43939 0.27918 0.69739
 C1522 C 0.43218 0.29557 0.70468
 C1523 C 0.43945 0.30281 0.72106
 C1524 C 0.45377 0.29362 0.73020
 C1525 C 0.37581 0.32808 0.67233
 C1526 C 0.45371 0.26997 0.70651
 C1527 C 0.41704 0.30471 0.69561
 C1528 C 0.40419 0.31222 0.68814
 C1529 C 0.38897 0.32085 0.67954
 C1530 C 0.46100 0.27704 0.72308
 H1531 H 0.43384 0.27344 0.68474
 H1532 H 0.43395 0.31547 0.72684
 H1533 H 0.45907 0.29943 0.74292
 H1534 H 0.45896 0.25724 0.70066
 C1535 C 0.44000 0.77942 0.19678
 C1536 C 0.43272 0.79581 0.20401
 C1537 C 0.43991 0.80309 0.22040
 C1538 C 0.45421 0.79396 0.22963
 C1539 C 0.37636 0.82815 0.17148
 C1540 C 0.45430 0.77026 0.20598
 C1541 C 0.41758 0.80489 0.19486
 C1542 C 0.40474 0.81236 0.18734
 C1543 C 0.38952 0.82094 0.17871
 C1544 C 0.46151 0.77738 0.22257
 H1545 H 0.43452 0.77364 0.18412
 H1546 H 0.43435 0.81575 0.22614
 H1547 H 0.45944 0.79981 0.24236
 H1548 H 0.45960 0.75753 0.20017
 C1549 C 0.93965 0.30283 0.22059
 C1550 C 0.93243 0.29557 0.20421
 C1551 C 0.93967 0.27918 0.19696
 C1552 C 0.95398 0.26999 0.20612
 C1553 C 0.87610 0.32807 0.17178
 C1554 C 0.95396 0.29367 0.22979
 C1555 C 0.91729 0.30469 0.19509
 C1556 C 0.90446 0.31219 0.18760
 C1557 C 0.88924 0.32083 0.17899
 C1558 C 0.96122 0.27709 0.22270
 H1559 H 0.93412 0.31550 0.22635
 H1560 H 0.93416 0.27342 0.18430
 H1561 H 0.95925 0.25726 0.20030
 H1562 H 0.95921 0.29950 0.24251
 C1563 C 0.93971 0.77950 0.69718
 C1564 C 0.93254 0.79591 0.70446
 C1565 C 0.93982 0.80315 0.72083
 C1566 C 0.95412 0.79394 0.72998
 C1567 C 0.87623 0.82852 0.67209
 C1568 C 0.95401 0.77027 0.70631
 C1569 C 0.91741 0.80507 0.69537
 C1570 C 0.90458 0.81261 0.68790
 C1571 C 0.88937 0.82126 0.67930
 C1572 C 0.96131 0.77734 0.72288
 H1573 H 0.93416 0.77377 0.68453
 H1574 H 0.93434 0.81583 0.72660
 H1575 H 0.95942 0.79975 0.74270
 H1576 H 0.95923 0.75753 0.70047
 C1577 C 0.56045 0.27867 0.30264
 C1578 C 0.56771 0.29508 0.29540
 C1579 C 0.56049 0.30238 0.27903
 C1580 C 0.54617 0.29324 0.26983
 C1581 C 0.62404 0.32755 0.32790
 C1582 C 0.54613 0.26951 0.29347
 C1583 C 0.58285 0.30419 0.30453
 C1584 C 0.59568 0.31168 0.31204
 C1585 C 0.61089 0.32031 0.32067
 C1586 C 0.53889 0.27664 0.27690
 H1587 H 0.56596 0.27288 0.31529
 H1588 H 0.56602 0.31506 0.27329
 H1589 H 0.54091 0.29910 0.25712
 H1590 H 0.54085 0.25676 0.29927
 C1591 C 0.56029 0.77976 0.80303
 C1592 C 0.56755 0.79614 0.79574
 C1593 C 0.56035 0.80338 0.77933
 C1594 C 0.54605 0.79420 0.77015
 C1595 C 0.62390 0.82864 0.82817
 C1596 C 0.54598 0.77056 0.79388
 C1597 C 0.58269 0.80527 0.80485
 C1598 C 0.59553 0.81278 0.81234
 C1599 C 0.61075 0.82141 0.82095
 C1600 C 0.53877 0.77762 0.77727
 H1601 H 0.56578 0.77402 0.81571
 H1602 H 0.56590 0.81603 0.77355
 H1603 H 0.54081 0.80001 0.75740
 H1604 H 0.54070 0.75783 0.79973
 C1605 C 0.06009 0.30240 0.77898
 C1606 C 0.06724 0.29516 0.79541
 C1607 C 0.05994 0.27880 0.80269
 C1608 C 0.04565 0.26960 0.79351
 C1609 C 0.12349 0.32766 0.82801
 C1610 C 0.04579 0.29324 0.76977
 C1611 C 0.08236 0.30429 0.80456
 C1612 C 0.09518 0.31180 0.81209
 C1613 C 0.11036 0.32043 0.82075
 C1614 C 0.03847 0.27667 0.77689
 H1615 H 0.06566 0.31505 0.77320
 H1616 H 0.06540 0.27306 0.81539
 H1617 H 0.04033 0.25689 0.79936
 H1618 H 0.04058 0.29905 0.75701
 C1619 C 0.06014 0.77895 0.30242
 C1620 C 0.06741 0.79534 0.29517
 C1621 C 0.06021 0.80263 0.27879
 C1622 C 0.04589 0.79349 0.26958
 C1623 C 0.12376 0.82775 0.32769
 C1624 C 0.04582 0.76978 0.29325
 C1625 C 0.08255 0.80444 0.30430
 C1626 C 0.09539 0.81193 0.31182
 C1627 C 0.11061 0.82053 0.32046
 C1628 C 0.03860 0.77690 0.27666
 H1629 H 0.06563 0.77317 0.31508
 H1630 H 0.06576 0.81530 0.27304
 H1631 H 0.04065 0.79934 0.25686
 H1632 H 0.04053 0.75705 0.29907
 C1633 C 0.56042 0.69765 0.72135
 C1634 C 0.56769 0.70488 0.70496
 C1635 C 0.56049 0.72126 0.69765
 C1636 C 0.54616 0.73048 0.70676
 C1637 C 0.62403 0.67231 0.67259
 C1638 C 0.54610 0.70683 0.73050
 C1639 C 0.58284 0.69572 0.69588
 C1640 C 0.59568 0.68820 0.68841
 C1641 C 0.61089 0.67955 0.67981
 C1642 C 0.53887 0.72342 0.72335
 H1643 H 0.56592 0.68499 0.72715
 H1644 H 0.56604 0.72699 0.68498
 H1645 H 0.54092 0.74320 0.70090
 H1646 H 0.54080 0.70103 0.74323
 C1647 C 0.56033 0.19683 0.22068
 C1648 C 0.56760 0.20412 0.20431
 C1649 C 0.56041 0.22054 0.19707
 C1650 C 0.54611 0.22974 0.20623
 C1651 C 0.62394 0.17160 0.17188
 C1652 C 0.54602 0.20600 0.22986
 C1653 C 0.58274 0.19499 0.19520
 C1654 C 0.59558 0.18748 0.18771
 C1655 C 0.61079 0.17884 0.17910
 C1656 C 0.53881 0.22262 0.22279
 H1657 H 0.56582 0.18414 0.22642
 H1658 H 0.56597 0.22632 0.18442
 H1659 H 0.54088 0.24250 0.20042
 H1660 H 0.54073 0.20016 0.24258
 C1661 C 0.06017 0.72080 0.19685
 C1662 C 0.06739 0.70440 0.20411
 C1663 C 0.06013 0.69712 0.22048
 C1664 C 0.04581 0.70628 0.22966
 C1665 C 0.12379 0.67197 0.17170
 C1666 C 0.04585 0.72999 0.20600
 C1667 C 0.08254 0.69530 0.19500
 C1668 C 0.09540 0.68781 0.18751
 C1669 C 0.11062 0.67919 0.17891
 C1670 C 0.03857 0.72288 0.22258
 H1671 H 0.06571 0.72658 0.18420
 H1672 H 0.06564 0.68445 0.22624
 H1673 H 0.04053 0.70044 0.24239
 H1674 H 0.04060 0.74273 0.20018
 C1675 C 0.06014 0.22029 0.69729
 C1676 C 0.06734 0.20391 0.70462
 C1677 C 0.06004 0.19669 0.72100
 C1678 C 0.04571 0.20589 0.73013
 C1679 C 0.12377 0.17141 0.67235
 C1680 C 0.04581 0.22952 0.70638
 C1681 C 0.08250 0.19476 0.69557
 C1682 C 0.09536 0.18725 0.68812
 C1683 C 0.11060 0.17863 0.67954
 C1684 C 0.03850 0.22247 0.72297
 H1685 H 0.06571 0.22602 0.68463
 H1686 H 0.06553 0.18403 0.72682
 H1687 H 0.04040 0.20009 0.74286
 H1688 H 0.04058 0.24224 0.70050
 C1689 C 0.43975 0.72121 0.30240
 C1690 C 0.43254 0.70481 0.29515
 C1691 C 0.43981 0.69755 0.27878
 C1692 C 0.45413 0.70672 0.26960
 C1693 C 0.37620 0.67226 0.32763
 C1694 C 0.45407 0.73042 0.29325
 C1695 C 0.41739 0.69567 0.30426
 C1696 C 0.40455 0.68815 0.31176
 C1697 C 0.38934 0.67950 0.32039
 C1698 C 0.46137 0.72333 0.27669
 H1699 H 0.43420 0.72697 0.31505
 H1700 H 0.43430 0.68487 0.27303
 H1701 H 0.45943 0.70090 0.25689
 H1702 H 0.45932 0.74316 0.29908
 C1703 C 0.43948 0.19709 0.77922
 C1704 C 0.43228 0.20434 0.79563
 C1705 C 0.43953 0.22072 0.80288
 C1706 C 0.45383 0.22993 0.79370
 C1707 C 0.37599 0.17178 0.82819
 C1708 C 0.45378 0.20627 0.77000
 C1709 C 0.41715 0.19520 0.80477
 C1710 C 0.40433 0.18768 0.81230
 C1711 C 0.38913 0.17903 0.82094
 C1712 C 0.46105 0.22286 0.77709
 H1713 H 0.43394 0.18443 0.77347
 H1714 H 0.43404 0.22647 0.81556
 H1715 H 0.45912 0.24266 0.79952
 H1716 H 0.45902 0.20046 0.75726
 C1717 C 0.93969 0.72114 0.80273
 C1718 C 0.93240 0.70476 0.79549
 C1719 C 0.93958 0.69749 0.77908
 C1720 C 0.95390 0.70663 0.76986
 C1721 C 0.87607 0.67233 0.82811
 C1722 C 0.95401 0.73031 0.79353
 C1723 C 0.91726 0.69566 0.80464
 C1724 C 0.90442 0.68817 0.81218
 C1725 C 0.88921 0.67955 0.82085
 C1726 C 0.96121 0.72320 0.77693
 H1727 H 0.93421 0.72690 0.81540
 H1728 H 0.93401 0.68484 0.77334
 H1729 H 0.95912 0.70080 0.75712
 H1730 H 0.95932 0.74303 0.79935
 C1731 C 0.93962 0.19714 0.27884
 C1732 C 0.93236 0.20439 0.29522
 C1733 C 0.93957 0.22079 0.30248
 C1734 C 0.95388 0.23002 0.29333
 C1735 C 0.87607 0.17175 0.32771
 C1736 C 0.95393 0.20634 0.26966
 C1737 C 0.91723 0.19522 0.30434
 C1738 C 0.90440 0.18768 0.31184
 C1739 C 0.88921 0.17901 0.32047
 C1740 C 0.96116 0.22294 0.27675
 H1741 H 0.93412 0.18447 0.27308
 H1742 H 0.93402 0.22654 0.31514
 H1743 H 0.95912 0.24276 0.29916
 H1744 H 0.95922 0.20052 0.25694
 C1745 C 0.27893 0.30267 0.56082
 C1746 C 0.29533 0.29544 0.56806
 C1747 C 0.30262 0.27905 0.56084
 C1748 C 0.29348 0.26984 0.54655
 C1749 C 0.32774 0.32801 0.62432
 C1750 C 0.26976 0.29349 0.54652
 C1751 C 0.30443 0.30459 0.58317
 C1752 C 0.31192 0.31211 0.59600
 C1753 C 0.32053 0.32076 0.61119
 C1754 C 0.27688 0.27691 0.53929
 H1755 H 0.27315 0.31534 0.56632
 H1756 H 0.31529 0.27332 0.56637
 H1757 H 0.29932 0.25711 0.54129
 H1758 H 0.25702 0.29930 0.54125
 C1759 C 0.27933 0.80278 0.06005
 C1760 C 0.29572 0.79553 0.06728
 C1761 C 0.30299 0.77913 0.06007
 C1762 C 0.29382 0.76992 0.04579
 C1763 C 0.32824 0.82807 0.12351
 C1764 C 0.27013 0.79360 0.04577
 C1765 C 0.30485 0.80467 0.08239
 C1766 C 0.31236 0.81219 0.09520
 C1767 C 0.32100 0.82083 0.11038
 C1768 C 0.27723 0.77700 0.03854
 H1769 H 0.27357 0.81545 0.06556
 H1770 H 0.31566 0.77338 0.06559
 H1771 H 0.29965 0.75718 0.04054
 H1772 H 0.25739 0.79942 0.04050
 C1773 C 0.77901 0.30284 0.06038
 C1774 C 0.79545 0.29562 0.06757
 C1775 C 0.80275 0.27927 0.06031
 C1776 C 0.79359 0.27006 0.04602
 C1777 C 0.82797 0.32811 0.12382
 C1778 C 0.76983 0.29366 0.04609
 C1779 C 0.80457 0.30476 0.08268
 C1780 C 0.81208 0.31226 0.09550
 C1781 C 0.82073 0.32089 0.11069
 C1782 C 0.77697 0.27710 0.03881
 H1783 H 0.77322 0.31547 0.06592
 H1784 H 0.81545 0.27355 0.06579
 H1785 H 0.79946 0.25735 0.04073
 H1786 H 0.75706 0.29944 0.04086
 C1787 C 0.77916 0.80325 0.56070
 C1788 C 0.79557 0.79602 0.56791
 C1789 C 0.80285 0.77963 0.56069
 C1790 C 0.79368 0.77041 0.54641
 C1791 C 0.82811 0.82855 0.62412
 C1792 C 0.76996 0.79406 0.54642
 C1793 C 0.80470 0.80516 0.58301
 C1794 C 0.81222 0.81268 0.59582
 C1795 C 0.82086 0.82132 0.61100
 C1796 C 0.77707 0.77747 0.53918
 H1797 H 0.77339 0.81591 0.56621
 H1798 H 0.81554 0.77390 0.56619
 H1799 H 0.79952 0.75768 0.54115
 H1800 H 0.75721 0.79986 0.54117
 C1801 C 0.30282 0.72095 0.43929
 C1802 C 0.29560 0.70454 0.43206
 C1803 C 0.27922 0.69721 0.43929
 C1804 C 0.27000 0.70633 0.45360
 C1805 C 0.32815 0.67219 0.37572
 C1806 C 0.29363 0.73010 0.45360
 C1807 C 0.30475 0.69546 0.41692
 C1808 C 0.31227 0.68799 0.40408
 C1809 C 0.32091 0.67940 0.38887
 C1810 C 0.27705 0.72294 0.46085
 H1811 H 0.31547 0.72676 0.43377
 H1812 H 0.27350 0.68453 0.43377
 H1813 H 0.25728 0.70045 0.45886
 H1814 H 0.29942 0.74285 0.45887
 C1815 C 0.27901 0.19706 0.93973
 C1816 C 0.29537 0.20436 0.93244
 C1817 C 0.30259 0.22080 0.93959
 C1818 C 0.29342 0.23001 0.95388
 C1819 C 0.32789 0.17178 0.87622
 C1820 C 0.26981 0.20624 0.95402
 C1821 C 0.30450 0.19521 0.91733
 C1822 C 0.31201 0.18769 0.90452
 C1823 C 0.32064 0.17903 0.88934
 C1824 C 0.27686 0.22288 0.96119
 H1825 H 0.27328 0.18435 0.93427
 H1826 H 0.31524 0.22659 0.93402
 H1827 H 0.29922 0.24279 0.95908
 H1828 H 0.25710 0.20037 0.95933
 C1829 C 0.80277 0.72137 0.93964
 C1830 C 0.79551 0.70497 0.93242
 C1831 C 0.77911 0.69770 0.93967
 C1832 C 0.76991 0.70687 0.95396
 C1833 C 0.82801 0.67240 0.87619
 C1834 C 0.79360 0.73057 0.95393
 C1835 C 0.80464 0.69583 0.91731
 C1836 C 0.81215 0.68831 0.90450
 C1837 C 0.82078 0.67966 0.88931
 C1838 C 0.77701 0.72347 0.96119
 H1839 H 0.81544 0.72713 0.93411
 H1840 H 0.77335 0.68502 0.93416
 H1841 H 0.75717 0.70103 0.95923
 H1842 H 0.79943 0.74331 0.95918
 C1843 C 0.77929 0.19681 0.43947
 C1844 C 0.79568 0.20407 0.43220
 C1845 C 0.80297 0.22047 0.43940
 C1846 C 0.79384 0.22967 0.45371
 C1847 C 0.82807 0.17162 0.37584
 C1848 C 0.77013 0.20599 0.45379
 C1849 C 0.80477 0.19495 0.41706
 C1850 C 0.81225 0.18745 0.40421
 C1851 C 0.82085 0.17883 0.38899
 C1852 C 0.77725 0.22258 0.46100
 H1853 H 0.77351 0.18414 0.43398
 H1854 H 0.81564 0.22622 0.43385
 H1855 H 0.79968 0.24241 0.45895
 H1856 H 0.75739 0.20016 0.45908
 C1857 C 0.72107 0.30240 0.43938
 C1858 C 0.70466 0.29512 0.43219
 C1859 C 0.69739 0.27874 0.43947
 C1860 C 0.70657 0.26957 0.45377
 C1861 C 0.67211 0.32757 0.37592
 C1862 C 0.73028 0.29325 0.45368
 C1863 C 0.69552 0.30423 0.41707
 C1864 C 0.68800 0.31172 0.40424
 C1865 C 0.67935 0.32034 0.38905
 C1866 C 0.72318 0.27667 0.46098
 H1867 H 0.72683 0.31506 0.43382
 H1868 H 0.68471 0.27297 0.43399
 H1869 H 0.70074 0.25684 0.45908
 H1870 H 0.74303 0.29909 0.45890
 C1871 C 0.72084 0.80334 0.93968
 C1872 C 0.70444 0.79608 0.93246
 C1873 C 0.69717 0.77967 0.93969
 C1874 C 0.70633 0.77047 0.95398
 C1875 C 0.67197 0.82861 0.87618
 C1876 C 0.73003 0.79417 0.95398
 C1877 C 0.69532 0.80521 0.91734
 C1878 C 0.68782 0.81273 0.90451
 C1879 C 0.67920 0.82137 0.88931
 C1880 C 0.72292 0.77757 0.96123
 H1881 H 0.72660 0.81602 0.93417
 H1882 H 0.68450 0.77391 0.93417
 H1883 H 0.70049 0.75773 0.95924
 H1884 H 0.74276 0.80000 0.95924
 C1885 C 0.22041 0.30255 0.93959
 C1886 C 0.20404 0.29522 0.93239
 C1887 C 0.19683 0.27880 0.93965
 C1888 C 0.20604 0.26965 0.95395
 C1889 C 0.17148 0.32765 0.87611
 C1890 C 0.22965 0.29344 0.95389
 C1891 C 0.19487 0.30430 0.91727
 C1892 C 0.18735 0.31179 0.90444
 C1893 C 0.17871 0.32041 0.88924
 C1894 C 0.22262 0.27682 0.96117
 H1895 H 0.22613 0.31524 0.93405
 H1896 H 0.18418 0.27298 0.93416
 H1897 H 0.20026 0.25690 0.95924
 H1898 H 0.24237 0.29932 0.95913
 C1899 C 0.22065 0.80261 0.43931
 C1900 C 0.20428 0.79529 0.43208
 C1901 C 0.19705 0.77887 0.43931
 C1902 C 0.20623 0.76970 0.45362
 C1903 C 0.17179 0.82772 0.37576
 C1904 C 0.22986 0.79347 0.45362
 C1905 C 0.19514 0.80439 0.41695
 C1906 C 0.18763 0.81187 0.40411
 C1907 C 0.17901 0.82049 0.38890
 C1908 C 0.22280 0.77685 0.46087
 H1909 H 0.22638 0.81530 0.43379
 H1910 H 0.18440 0.77307 0.43379
 H1911 H 0.20044 0.75694 0.45888
 H1912 H 0.24257 0.79934 0.45888
 C1913 C 0.72096 0.69755 0.56093
 C1914 C 0.70456 0.70479 0.56816
 C1915 C 0.69727 0.72116 0.56091
 C1916 C 0.70642 0.73036 0.54659
 C1917 C 0.67210 0.67230 0.62452
 C1918 C 0.73014 0.70672 0.54661
 C1919 C 0.69545 0.69566 0.58331
 C1920 C 0.68795 0.68816 0.59615
 C1921 C 0.67933 0.67953 0.61137
 C1922 C 0.72302 0.72329 0.53934
 H1923 H 0.72674 0.68490 0.56646
 H1924 H 0.68459 0.72691 0.56643
 H1925 H 0.70057 0.74308 0.54131
 H1926 H 0.74289 0.70090 0.54134
 C1927 C 0.69725 0.22060 0.06040
 C1928 C 0.70457 0.20422 0.06762
 C1929 C 0.72099 0.19703 0.06038
 C1930 C 0.73016 0.20625 0.04608
 C1931 C 0.67208 0.17161 0.12389
 C1932 C 0.70639 0.22984 0.04610
 C1933 C 0.69546 0.19505 0.08274
 C1934 C 0.68796 0.18751 0.09556
 C1935 C 0.67933 0.17886 0.11076
 C1936 C 0.72301 0.22282 0.03884
 H1937 H 0.68455 0.22630 0.06592
 H1938 H 0.72679 0.18438 0.06590
 H1939 H 0.74292 0.20047 0.04082
 H1940 H 0.70051 0.24256 0.04084
 C1941 C 0.19730 0.72082 0.06015
 C1942 C 0.20455 0.70443 0.06741
 C1943 C 0.22096 0.69717 0.06021
 C1944 C 0.23017 0.70632 0.04590
 C1945 C 0.17195 0.67199 0.12371
 C1946 C 0.20649 0.73000 0.04584
 C1947 C 0.19540 0.69532 0.08254
 C1948 C 0.18787 0.68783 0.09537
 C1949 C 0.17921 0.67921 0.11058
 C1950 C 0.22309 0.72290 0.03862
 H1951 H 0.18462 0.72658 0.06565
 H1952 H 0.22671 0.68451 0.06576
 H1953 H 0.24292 0.70049 0.04066
 H1954 H 0.20066 0.74273 0.04055
 C1955 C 0.19710 0.22052 0.56086
 C1956 C 0.20439 0.20413 0.56808
 C1957 C 0.22079 0.19690 0.56084
 C1958 C 0.22997 0.20610 0.54654
 C1959 C 0.17192 0.17152 0.62437
 C1960 C 0.20626 0.22975 0.54656
 C1961 C 0.19527 0.19498 0.58321
 C1962 C 0.18777 0.18744 0.59603
 C1963 C 0.17915 0.17878 0.61123
 C1964 C 0.22286 0.22269 0.53930
 H1965 H 0.18443 0.22626 0.56639
 H1966 H 0.22656 0.18424 0.56635
 H1967 H 0.24272 0.20029 0.54127
 H1968 H 0.20042 0.24248 0.54131
   
