data_POSCAR
  _audit_creation_date              2014-09-24
  _audit_creation_method            'ToBaCCo'
  _symmetry_space_group_name_H-M    'P1'
  _symmetry_Int_Tables_number       1
  _symmetry_cell_setting            triclinic
  loop_
  _symmetry_equiv_pos_as_xyz
 x,y,z
_cell_length_a 66.1683
_cell_length_b 66.4229
_cell_length_c 66.7605
_cell_angle_alpha 90.002500
_cell_angle_beta 90.003300
_cell_angle_gamma 90.009400
loop_
  _atom_site_label
  _atom_site_type_symbol
  _atom_site_fract_x
  _atom_site_fract_y
  _atom_site_fract_z
O1 O 0.34632 0.31896 -0.01975
 O2 O 0.31895 0.34642 0.01931
 O3 O 0.34633 0.31874 0.01913
 O4 O 0.31906 0.34676 -0.01955
 O5 O 0.29488 0.32383 -0.01978
 O6 O 0.32280 0.29514 0.01901
 O7 O 0.29489 0.32335 0.01925
 O8 O 0.32270 0.29544 -0.02007
 Cu9 Cu 0.33503 0.33502 -0.00020
 Cu10 Cu 0.30640 0.30706 -0.00043
 C11 C 0.33931 0.30253 -0.02652
 C12 C 0.30227 0.33971 0.02589
 C13 C 0.33937 0.30219 0.02563
 C14 C 0.30230 0.34028 -0.02620
 O15 O 0.68085 0.65352 0.01895
 O16 O 0.65347 0.68093 -0.02014
 O17 O 0.68069 0.65308 -0.01992
 O18 O 0.65353 0.68125 0.01874
 O19 O 0.67710 0.70482 0.01851
 O20 O 0.70490 0.67597 -0.02024
 O21 O 0.67713 0.70440 -0.02056
 O22 O 0.70495 0.67655 0.01879
 Cu23 Cu 0.66477 0.66490 -0.00057
 Cu24 Cu 0.69344 0.69281 -0.00091
 C25 C 0.69755 0.66023 0.02549
 C26 C 0.66049 0.69732 -0.02696
 C27 C 0.69744 0.65952 -0.02661
 C28 C 0.66053 0.69781 0.02518
 O29 O 0.68074 0.34637 0.98065
 O30 O 0.65337 0.31896 1.01975
 O31 O 0.68061 0.34678 1.01951
 O32 O 0.65338 0.31867 0.98087
 O33 O 0.67692 0.29508 0.98105
 O34 O 0.70480 0.32388 1.01979
 O35 O 0.67701 0.29547 1.02013
 O36 O 0.70481 0.32332 0.98077
 Cu37 Cu 0.66466 0.33500 1.00018
 Cu38 Cu 0.69331 0.30706 1.00047
 C39 C 0.69742 0.33966 0.97409
 C40 C 0.66039 0.30256 1.02656
 C41 C 0.69737 0.34033 1.02618
 C42 C 0.66036 0.30212 0.97440
 O43 O 0.31896 0.65333 0.98083
 O44 O 0.34639 0.68087 1.01980
 O45 O 0.31914 0.65304 1.01969
 O46 O 0.34631 0.68105 0.98092
 O47 O 0.32276 0.70463 0.98108
 O48 O 0.29495 0.67593 1.01993
 O49 O 0.32275 0.70436 1.02015
 O50 O 0.29488 0.67638 0.98091
 Cu51 Cu 0.33506 0.66477 1.00029
 Cu52 Cu 0.30641 0.69270 1.00055
 C53 C 0.30226 0.66002 0.97427
 C54 C 0.33938 0.69729 1.02657
 C55 C 0.30239 0.65950 1.02636
 C56 C 0.33932 0.69759 0.97443
 O57 O -0.02014 0.34689 0.31935
 O58 O 0.01931 0.31969 0.34668
 O59 O 0.01909 0.34696 0.31911
 O60 O -0.01990 0.31975 0.34703
 O61 O -0.02011 0.29566 0.32424
 O62 O 0.01896 0.32351 0.29565
 O63 O 0.01926 0.29571 0.32374
 O64 O -0.02045 0.32334 0.29598
 Cu65 Cu -0.00040 0.33568 0.33533
 Cu66 Cu -0.00061 0.30714 0.30754
 C67 C -0.02698 0.33988 0.30302
 C68 C 0.02596 0.30308 0.34001
 C69 C 0.02563 0.34003 0.30264
 C70 C -0.02660 0.30305 0.34060
 O71 O 0.01964 0.67991 0.65302
 O72 O -0.01989 0.65275 0.68030
 O73 O -0.01957 0.67985 0.65258
 O74 O 0.01935 0.65268 0.68062
 O75 O 0.01918 0.67616 0.70406
 O76 O -0.01982 0.70397 0.67535
 O77 O -0.02024 0.67633 0.70364
 O78 O 0.01954 0.70392 0.67593
 Cu79 Cu -0.00010 0.66394 0.66435
 Cu80 Cu -0.00036 0.69251 0.69211
 C81 C 0.02627 0.69654 0.65969
 C82 C -0.02676 0.65978 0.69660
 C83 C -0.02627 0.69656 0.65898
 C84 C 0.02586 0.65963 0.69710
 O85 O 1.01954 0.65290 0.31952
 O86 O 0.98007 0.68007 0.34686
 O87 O 0.98031 0.65285 0.31925
 O88 O 1.01927 0.67999 0.34725
 O89 O 1.01951 0.70412 0.32450
 O90 O 0.98046 0.67634 0.29582
 O91 O 0.98014 0.70408 0.32397
 O92 O 1.01988 0.67649 0.29619
 Cu93 Cu 0.99978 0.66409 0.33550
 Cu94 Cu 1.00003 0.69268 0.30776
 C95 C 1.02639 0.65993 0.30321
 C96 C 0.97343 0.69669 0.34022
 C97 C 0.97378 0.65982 0.30278
 C98 C 1.02597 0.69671 0.34086
 O99 O 0.98018 0.31985 0.65267
 O100 O 1.01959 0.34701 0.68012
 O101 O 1.01938 0.31993 0.65237
 O102 O 0.98035 0.34705 0.68031
 O103 O 0.98046 0.32355 0.70372
 O104 O 1.01956 0.29579 0.67510
 O105 O 1.01988 0.32340 0.70343
 O106 O 0.98020 0.29582 0.67555
 Cu107 Cu 0.99986 0.33583 0.66409
 Cu108 Cu 1.00005 0.30722 0.69181
 C109 C 0.97353 0.30321 0.65929
 C110 C 1.02641 0.33997 0.69644
 C111 C 1.02606 0.30321 0.65876
 C112 C 0.97380 0.34008 0.69676
 O113 O 0.34600 0.01952 0.31897
 O114 O 0.31880 -0.01985 0.34629
 O115 O 0.34621 -0.01955 0.31876
 O116 O 0.31865 0.01922 0.34655
 O117 O 0.29460 0.01936 0.32359
 O118 O 0.32269 -0.01962 0.29527
 O119 O 0.29475 -0.01990 0.32332
 O120 O 0.32248 0.01962 0.29547
 Cu121 Cu 0.33477 -0.00017 0.33495
 Cu122 Cu 0.30621 -0.00013 0.30705
 C123 C 0.33903 0.02622 0.30257
 C124 C 0.30215 -0.02654 0.33960
 C125 C 0.33931 -0.02615 0.30230
 C126 C 0.30195 0.02586 0.33996
 O127 O 0.68096 -0.01966 0.65356
 O128 O 0.65375 0.01966 0.68094
 O129 O 0.68111 0.01942 0.65335
 O130 O 0.65353 -0.01941 0.68107
 O131 O 0.67704 -0.01951 0.70457
 O132 O 0.70516 0.01951 0.67632
 O133 O 0.67726 0.01973 0.70444
 O134 O 0.70500 -0.01975 0.67654
 Cu135 Cu 0.66498 0.00000 0.66493
 Cu136 Cu 0.69354 -0.00000 0.69283
 C137 C 0.69759 -0.02637 0.66025
 C138 C 0.66071 0.02633 0.69735
 C139 C 0.69781 0.02604 0.65996
 C140 C 0.66044 -0.02604 0.69752
 O141 O 0.34587 0.98034 0.68087
 O142 O 0.31863 1.01959 0.65343
 O143 O 0.34602 1.01941 0.68097
 O144 O 0.31856 0.98052 0.65324
 O145 O 0.29448 0.98040 0.67617
 O146 O 0.32248 1.01949 0.70444
 O147 O 0.29457 1.01966 0.67637
 O148 O 0.32232 0.98025 0.70433
 Cu149 Cu 0.33463 0.99997 0.66483
 Cu150 Cu 0.30604 0.99995 0.69269
 C151 C 0.33889 0.97366 0.69727
 C152 C 0.30198 1.02627 0.66008
 C153 C 0.33909 1.02604 0.69741
 C154 C 0.30186 0.97388 0.65983
 O155 O 0.65337 0.98043 0.31942
 O156 O 0.68029 1.01955 0.34734
 O157 O 0.65313 1.01951 0.31958
 O158 O 0.68051 0.98049 0.34722
 O159 O 0.70471 0.98056 0.32442
 O160 O 0.67689 1.01988 0.29633
 O161 O 0.70459 1.01979 0.32467
 O162 O 0.67705 0.98062 0.29609
 Cu163 Cu 0.66445 0.99997 0.33567
 Cu164 Cu 0.69325 1.00024 0.30803
 C165 C 0.66047 0.97391 0.30301
 C166 C 0.69705 1.02628 0.34096
 C167 C 0.66020 1.02631 0.30326
 C168 C 0.69726 0.97391 0.34068
 C169 C 0.85679 0.79577 0.51852
 C170 C 0.86359 0.78828 0.50015
 C171 C 0.85673 0.79596 0.48190
 C172 C 0.84229 0.81167 0.48184
 C173 C 0.83506 0.81945 0.50035
 C174 C 0.84231 0.81146 0.51877
 C175 C 0.83413 0.81866 0.53682
 C176 C 0.81932 0.83352 0.53690
 C177 C 0.81205 0.84182 0.51893
 C178 C 0.81991 0.83465 0.50043
 C179 C 0.83413 0.81909 0.46386
 C180 C 0.81933 0.83396 0.46395
 C181 C 0.81205 0.84204 0.48201
 C182 C 0.79640 0.85656 0.48225
 C183 C 0.78881 0.86330 0.50059
 C184 C 0.79640 0.85633 0.51885
 H185 H 0.83865 0.81252 0.55112
 H186 H 0.81328 0.83802 0.55126
 H187 H 0.83868 0.81314 0.44949
 H188 H 0.81330 0.83863 0.44964
 H189 H 0.87470 0.77626 0.50005
 H190 H 0.77682 0.87444 0.50066
 C191 C 0.20291 0.14313 0.51844
 C192 C 0.21045 0.13614 0.50017
 C193 C 0.20285 0.14290 0.48184
 C194 C 0.18722 0.15745 0.48162
 C195 C 0.17941 0.16485 0.50006
 C196 C 0.18729 0.15768 0.51854
 C197 C 0.18007 0.16599 0.53652
 C198 C 0.16531 0.18089 0.53647
 C199 C 0.15711 0.18810 0.51843
 C200 C 0.16430 0.18009 0.50000
 C201 C 0.17993 0.16555 0.46358
 C202 C 0.16517 0.18045 0.46352
 C203 C 0.15706 0.18789 0.48151
 C204 C 0.14266 0.20364 0.48159
 C205 C 0.13585 0.21134 0.49986
 C206 C 0.14267 0.20384 0.51821
 H207 H 0.18613 0.16148 0.55087
 H208 H 0.16083 0.18704 0.55078
 H209 H 0.18592 0.16086 0.44925
 H210 H 0.16061 0.18642 0.44915
 H211 H 0.22242 0.12497 0.50022
 H212 H 0.12477 0.22339 0.49978
 C213 C 0.14280 0.79588 0.48142
 C214 C 0.13599 0.78836 0.49977
 C215 C 0.14282 0.79605 0.51803
 C216 C 0.15722 0.81180 0.51812
 C217 C 0.16445 0.81961 0.49963
 C218 C 0.15724 0.81160 0.48119
 C219 C 0.16544 0.81882 0.46316
 C220 C 0.18022 0.83372 0.46310
 C221 C 0.18744 0.84203 0.48109
 C222 C 0.17957 0.83485 0.49957
 C223 C 0.16534 0.81924 0.53611
 C224 C 0.18010 0.83414 0.53605
 C225 C 0.18738 0.84225 0.51800
 C226 C 0.20300 0.85681 0.51779
 C227 C 0.21060 0.86357 0.49946
 C228 C 0.20307 0.85658 0.48119
 H229 H 0.16096 0.81267 0.44884
 H230 H 0.18627 0.83823 0.44875
 H231 H 0.16078 0.81326 0.55047
 H232 H 0.18609 0.83882 0.55037
 H233 H 0.12491 0.77631 0.49985
 H234 H 0.22258 0.87474 0.49941
 C235 C 0.85681 0.20365 0.51760
 C236 C 0.86350 0.21134 0.49929
 C237 C 0.85655 0.20383 0.48099
 C238 C 0.84210 0.18811 0.48086
 C239 C 0.83503 0.18010 0.49934
 C240 C 0.84241 0.18790 0.51779
 C241 C 0.83442 0.18046 0.53583
 C242 C 0.81967 0.16555 0.53588
 C243 C 0.81225 0.15745 0.51789
 C244 C 0.81992 0.16485 0.49939
 C245 C 0.83376 0.18091 0.46289
 C246 C 0.81896 0.16602 0.46293
 C247 C 0.81189 0.15768 0.48096
 C248 C 0.79627 0.14312 0.48118
 C249 C 0.78891 0.13612 0.49952
 C250 C 0.79663 0.14289 0.51779
 H251 H 0.83908 0.18644 0.55017
 H252 H 0.81379 0.16086 0.55024
 H253 H 0.83814 0.18707 0.44855
 H254 H 0.81278 0.16155 0.44863
 H255 H 0.87460 0.22338 0.49929
 H256 H 0.77694 0.12493 0.49959
 C257 C 0.51801 0.79762 0.85770
 C258 C 0.49955 0.79010 0.86458
 C259 C 0.48108 0.79772 0.85784
 C260 C 0.48091 0.81335 0.84343
 C261 C 0.49954 0.82115 0.83615
 C262 C 0.51817 0.81327 0.84332
 C263 C 0.53634 0.82052 0.83516
 C264 C 0.53633 0.83529 0.82039
 C265 C 0.51815 0.84343 0.81314
 C266 C 0.49953 0.83624 0.82102
 C267 C 0.46273 0.82065 0.83536
 C268 C 0.46272 0.83538 0.82055
 C269 C 0.48090 0.84345 0.81320
 C270 C 0.48105 0.85779 0.79752
 C271 C 0.49951 0.86458 0.78993
 C272 C 0.51798 0.85781 0.79750
 H273 H 0.55081 0.81449 0.83969
 H274 H 0.55079 0.83983 0.81437
 H275 H 0.44827 0.81469 0.83999
 H276 H 0.44825 0.83995 0.81458
 H277 H 0.49956 0.77810 0.87561
 H278 H 0.49950 0.87559 0.77791
 C279 C 0.51822 0.20246 0.14244
 C280 C 0.49975 0.20994 0.13553
 C281 C 0.48129 0.20232 0.14227
 C282 C 0.48112 0.18674 0.15673
 C283 C 0.49975 0.17899 0.16406
 C284 C 0.51837 0.18687 0.15688
 C285 C 0.53654 0.17967 0.16509
 C286 C 0.53654 0.16495 0.17991
 C287 C 0.51836 0.15681 0.18716
 C288 C 0.49974 0.16395 0.17923
 C289 C 0.46294 0.17944 0.16480
 C290 C 0.46293 0.16475 0.17965
 C291 C 0.48110 0.15672 0.18704
 C292 C 0.48125 0.14243 0.20276
 C293 C 0.49971 0.13570 0.21041
 C294 C 0.51818 0.14249 0.20286
 H295 H 0.55101 0.18570 0.16055
 H296 H 0.55099 0.16046 0.18597
 H297 H 0.44847 0.18536 0.16014
 H298 H 0.44845 0.16018 0.18561
 H299 H 0.49976 0.22191 0.12446
 H300 H 0.49969 0.12472 0.22245
 C301 C 0.51839 0.14207 0.79755
 C302 C 0.49993 0.13531 0.78995
 C303 C 0.48146 0.14209 0.79754
 C304 C 0.48131 0.15644 0.81321
 C305 C 0.49994 0.16361 0.82110
 C306 C 0.51856 0.15639 0.81325
 C307 C 0.53675 0.16444 0.82060
 C308 C 0.53676 0.17915 0.83544
 C309 C 0.51858 0.18644 0.84353
 C310 C 0.49995 0.17867 0.83625
 C311 C 0.46314 0.16457 0.82048
 C312 C 0.46315 0.17932 0.83527
 C313 C 0.48133 0.18655 0.84344
 C314 C 0.48151 0.20218 0.85785
 C315 C 0.49998 0.20968 0.86472
 C316 C 0.51843 0.20205 0.85796
 H317 H 0.55121 0.15988 0.81462
 H318 H 0.55123 0.18509 0.84007
 H319 H 0.44867 0.16005 0.81446
 H320 H 0.44869 0.18535 0.83982
 H321 H 0.49993 0.12432 0.77792
 H322 H 0.49998 0.22166 0.87577
 C323 C 0.51878 0.79827 0.14144
 C324 C 0.50031 0.79062 0.13472
 C325 C 0.48185 0.79812 0.14159
 C326 C 0.48168 0.81377 0.15597
 C327 C 0.50030 0.82168 0.16314
 C328 C 0.51893 0.81390 0.15584
 C329 C 0.53711 0.82124 0.16390
 C330 C 0.53711 0.83597 0.17871
 C331 C 0.51893 0.84400 0.18608
 C332 C 0.50030 0.83676 0.17827
 C333 C 0.46350 0.82099 0.16415
 C334 C 0.46350 0.83576 0.17892
 C335 C 0.48168 0.84392 0.18617
 C336 C 0.48184 0.85828 0.20183
 C337 C 0.50031 0.86507 0.20940
 C338 C 0.51877 0.85831 0.20179
 H339 H 0.55158 0.81531 0.15925
 H340 H 0.55158 0.84057 0.18467
 H341 H 0.44904 0.81495 0.15962
 H342 H 0.44904 0.84027 0.18495
 H343 H 0.50032 0.77861 0.12369
 H344 H 0.50032 0.87605 0.22143
 C345 C 0.79678 0.48145 0.85739
 C346 C 0.78912 0.49982 0.86418
 C347 C 0.79655 0.51825 0.85727
 C348 C 0.81215 0.51844 0.84275
 C349 C 0.82011 0.49990 0.83557
 C350 C 0.81240 0.48133 0.84292
 C351 C 0.81978 0.46323 0.83485
 C352 C 0.83453 0.46325 0.82001
 C353 C 0.84252 0.48138 0.81259
 C354 C 0.83518 0.49992 0.82038
 C355 C 0.81926 0.53655 0.83447
 C356 C 0.83400 0.53657 0.81962
 C357 C 0.84225 0.51848 0.81240
 C358 C 0.85662 0.51834 0.79669
 C359 C 0.86353 0.49995 0.78918
 C360 C 0.85687 0.48155 0.79688
 H361 H 0.81388 0.44880 0.83953
 H362 H 0.83918 0.44884 0.81407
 H363 H 0.81315 0.55095 0.83896
 H364 H 0.83843 0.55098 0.81350
 H365 H 0.77716 0.49977 0.87531
 H366 H 0.87455 0.49996 0.77714
 C367 C 0.14285 0.51849 0.20295
 C368 C 0.13591 0.50010 0.21044
 C369 C 0.14257 0.48170 0.20274
 C370 C 0.15696 0.48154 0.18705
 C371 C 0.16432 0.50009 0.17929
 C372 C 0.15724 0.51864 0.18727
 C373 C 0.16551 0.53674 0.18007
 C374 C 0.18028 0.53672 0.16524
 C375 C 0.18740 0.51862 0.15697
 C376 C 0.17942 0.50007 0.16413
 C377 C 0.16496 0.46342 0.17964
 C378 C 0.17974 0.46340 0.16483
 C379 C 0.18714 0.48150 0.15679
 C380 C 0.20280 0.48163 0.14235
 C381 C 0.21047 0.50000 0.13558
 C382 C 0.20303 0.51843 0.14249
 H383 H 0.16108 0.55114 0.18618
 H384 H 0.18641 0.55112 0.16077
 H385 H 0.16029 0.44900 0.18557
 H386 H 0.18564 0.44897 0.16017
 H387 H 0.12487 0.50012 0.22246
 H388 H 0.22245 0.49995 0.12448
 C389 C 0.79665 0.48156 0.14221
 C390 C 0.78923 0.49999 0.13529
 C391 C 0.79690 0.51835 0.14208
 C392 C 0.81252 0.51848 0.15655
 C393 C 0.82022 0.49990 0.16390
 C394 C 0.81225 0.48136 0.15672
 C395 C 0.81935 0.46325 0.16501
 C396 C 0.83409 0.46323 0.17987
 C397 C 0.84235 0.48132 0.18708
 C398 C 0.83529 0.49988 0.17910
 C399 C 0.81991 0.53658 0.16461
 C400 C 0.83466 0.53655 0.17946
 C401 C 0.84264 0.51843 0.18688
 C402 C 0.85699 0.51826 0.20260
 C403 C 0.86363 0.49985 0.21030
 C404 C 0.85672 0.48147 0.20279
 H405 H 0.81323 0.44886 0.16052
 H406 H 0.83851 0.44883 0.18598
 H407 H 0.81402 0.55101 0.15993
 H408 H 0.83931 0.55096 0.18540
 H409 H 0.77727 0.50004 0.12416
 H410 H 0.87465 0.49984 0.22235
 C411 C 0.14279 0.48125 0.79711
 C412 C 0.13589 0.49964 0.78962
 C413 C 0.14254 0.51804 0.79734
 C414 C 0.15689 0.51819 0.81305
 C415 C 0.16422 0.49964 0.82082
 C416 C 0.15715 0.48109 0.81283
 C417 C 0.16539 0.46299 0.82003
 C418 C 0.18013 0.46299 0.83489
 C419 C 0.18726 0.48110 0.84318
 C420 C 0.17930 0.49965 0.83602
 C421 C 0.16488 0.53631 0.82049
 C422 C 0.17964 0.53632 0.83533
 C423 C 0.18702 0.51821 0.84337
 C424 C 0.20265 0.51807 0.85784
 C425 C 0.21030 0.49970 0.86461
 C426 C 0.20287 0.48128 0.85768
 H427 H 0.16096 0.44859 0.81391
 H428 H 0.18624 0.44860 0.83938
 H429 H 0.16024 0.55073 0.81456
 H430 H 0.18554 0.55074 0.84001
 H431 H 0.12487 0.49964 0.77757
 H432 H 0.22227 0.49974 0.87573
 C433 C 0.27162 0.37476 0.06806
 N434 N 0.29130 0.37835 0.06361
 N435 N 0.30104 0.36694 0.05040
 C436 C 0.29153 0.35139 0.04120
 N437 N 0.27189 0.34758 0.04579
 N438 N 0.26207 0.35912 0.05895
 C439 C 0.26087 0.38837 0.08172
 N440 N 0.24045 0.38758 0.08381
 N441 N 0.23081 0.40107 0.09513
 C442 C 0.24128 0.41575 0.10481
 N443 N 0.26168 0.41631 0.10291
 N444 N 0.27128 0.40292 0.09157
 C445 C 0.23091 0.43171 0.11604
 N446 N 0.24192 0.44641 0.12497
 N447 N 0.23285 0.46187 0.13388
 C448 C 0.21239 0.46320 0.13432
 N449 N 0.20131 0.44846 0.12545
 N450 N 0.21041 0.43294 0.11651
 C451 C 0.72818 0.62523 0.06772
 N452 N 0.73775 0.64082 0.05855
 N453 N 0.72795 0.65235 0.04537
 C454 C 0.70829 0.64857 0.04082
 N455 N 0.69876 0.63306 0.05006
 N456 N 0.70850 0.62167 0.06330
 C457 C 0.73892 0.61163 0.08139
 N458 N 0.72850 0.59712 0.09127
 N459 N 0.73808 0.58372 0.10262
 C460 C 0.75849 0.58425 0.10451
 N461 N 0.76897 0.59890 0.09480
 N462 N 0.75934 0.61239 0.08346
 C463 C 0.76884 0.56829 0.11574
 N464 N 0.78933 0.56704 0.11622
 N465 N 0.79842 0.55152 0.12517
 C466 C 0.78732 0.53678 0.13404
 N467 N 0.76687 0.53814 0.13359
 N468 N 0.75782 0.55360 0.12467
 C469 C 0.72804 0.37463 0.93183
 N470 N 0.70837 0.37822 0.93628
 N471 N 0.69864 0.36683 0.94953
 C472 C 0.70816 0.35131 0.95875
 N473 N 0.72780 0.34751 0.95417
 N474 N 0.73761 0.35903 0.94098
 C475 C 0.73878 0.38823 0.91814
 N476 N 0.75920 0.38745 0.91605
 N477 N 0.76883 0.40093 0.90470
 C478 C 0.75835 0.41558 0.89500
 N479 N 0.73795 0.41613 0.89690
 N480 N 0.72836 0.40274 0.90827
 C481 C 0.76870 0.43153 0.88374
 N482 N 0.75768 0.44622 0.87482
 N483 N 0.76674 0.46168 0.86589
 C484 C 0.78719 0.46303 0.86543
 N485 N 0.79829 0.44829 0.87430
 N486 N 0.78920 0.43278 0.88326
 C487 C 0.27156 0.62492 0.93217
 N488 N 0.29123 0.62132 0.93661
 N489 N 0.30099 0.63275 0.94980
 C490 C 0.29150 0.64831 0.95899
 N491 N 0.27185 0.65212 0.95441
 N492 N 0.26202 0.64056 0.94127
 C493 C 0.26079 0.61129 0.91852
 N494 N 0.24038 0.61209 0.91643
 N495 N 0.23072 0.59860 0.90510
 C496 C 0.24118 0.58392 0.89543
 N497 N 0.26158 0.58334 0.89734
 N498 N 0.27119 0.59673 0.90868
 C499 C 0.23080 0.56797 0.88419
 N500 N 0.24179 0.55326 0.87527
 N501 N 0.23271 0.53781 0.86634
 C502 C 0.21226 0.53649 0.86588
 N503 N 0.20119 0.55125 0.87475
 N504 N 0.21030 0.56675 0.88371
 C505 C 0.06839 0.27250 0.37497
 N506 N 0.05922 0.26300 0.35941
 N507 N 0.04599 0.27280 0.34789
 C508 C 0.04139 0.29237 0.35166
 N509 N 0.05065 0.30183 0.36714
 N510 N 0.06394 0.29211 0.37853
 C511 C 0.08210 0.26175 0.38857
 N512 N 0.09201 0.27209 0.40309
 N513 N 0.10336 0.26249 0.41646
 C514 C 0.10521 0.24216 0.41591
 N515 N 0.09547 0.23176 0.40127
 N516 N 0.08413 0.24141 0.38780
 C517 C 0.11643 0.23178 0.43183
 N518 N 0.11680 0.21136 0.43306
 N519 N 0.12572 0.20225 0.44853
 C520 C 0.13467 0.21324 0.46324
 N521 N 0.13432 0.23362 0.46191
 N522 N 0.12543 0.24270 0.44650
 C523 C 0.06871 0.72713 0.62473
 N524 N 0.06427 0.70751 0.62119
 N525 N 0.05099 0.69778 0.63258
 C526 C 0.04171 0.70724 0.64805
 N527 N 0.04629 0.72683 0.65180
 N528 N 0.05951 0.73663 0.64028
 C529 C 0.08239 0.73788 0.61111
 N530 N 0.08440 0.75823 0.61188
 N531 N 0.09572 0.76788 0.59839
 C532 C 0.10545 0.75750 0.58375
 N533 N 0.10363 0.73716 0.58321
 N534 N 0.09229 0.72755 0.59660
 C535 C 0.11664 0.76788 0.56781
 N536 N 0.12563 0.75697 0.55313
 N537 N 0.13450 0.76606 0.53771
 C538 C 0.13484 0.78644 0.53639
 N539 N 0.12590 0.79742 0.55111
 N540 N 0.11700 0.78830 0.56658
 C541 C 0.93098 0.72722 0.37520
 N542 N 0.94016 0.73675 0.35965
 N543 N 0.95339 0.72696 0.34812
 C544 C 0.95799 0.70738 0.35186
 N545 N 0.94872 0.69790 0.36733
 N546 N 0.93543 0.70761 0.37873
 C547 C 0.91727 0.73795 0.38881
 N548 N 0.90737 0.72760 0.40331
 N549 N 0.89601 0.73718 0.41670
 C550 C 0.89416 0.75751 0.41616
 N551 N 0.90388 0.76792 0.40153
 N552 N 0.91522 0.75830 0.38805
 C553 C 0.88293 0.76787 0.43210
 N554 N 0.88254 0.78829 0.43334
 N555 N 0.87362 0.79738 0.44882
 C556 C 0.86470 0.78637 0.46353
 N557 N 0.86508 0.76599 0.46219
 N558 N 0.87396 0.75693 0.44677
 C559 C 0.93124 0.27261 0.62415
 N560 N 0.93570 0.29222 0.62062
 N561 N 0.94894 0.30195 0.63206
 C562 C 0.95814 0.29250 0.64758
 N563 N 0.95354 0.27292 0.65133
 N564 N 0.94036 0.26311 0.63975
 C565 C 0.91759 0.26185 0.61050
 N566 N 0.91552 0.24151 0.61130
 N567 N 0.90421 0.23186 0.59782
 C568 C 0.89452 0.24224 0.58314
 N569 N 0.89640 0.26256 0.58256
 N570 N 0.90773 0.27217 0.59595
 C571 C 0.88328 0.23184 0.56723
 N572 N 0.87426 0.24275 0.55257
 N573 N 0.86531 0.23366 0.53720
 C574 C 0.86492 0.21328 0.53591
 N575 N 0.87390 0.20230 0.55060
 N576 N 0.88288 0.21143 0.56603
 C577 C 0.37400 0.06854 0.27186
 N578 N 0.37774 0.06411 0.29134
 N579 N 0.36634 0.05086 0.30110
 C580 C 0.35065 0.04161 0.29182
 N581 N 0.34669 0.04619 0.27237
 N582 N 0.35822 0.05938 0.26253
 C583 C 0.38763 0.08220 0.26107
 N584 N 0.38677 0.08416 0.24082
 N585 N 0.40031 0.09545 0.23114
 C586 C 0.41511 0.10520 0.24140
 N587 N 0.41574 0.10343 0.26163
 N588 N 0.40230 0.09213 0.27126
 C589 C 0.43114 0.11636 0.23098
 N590 N 0.44595 0.12539 0.24178
 N591 N 0.46147 0.13422 0.23267
 C592 C 0.46276 0.13448 0.21239
 N593 N 0.44790 0.12551 0.20153
 N594 N 0.43233 0.11664 0.21067
 C595 C 0.62569 0.06852 0.72817
 N596 N 0.62194 0.06412 0.70868
 N597 N 0.63336 0.05092 0.69888
 C598 C 0.64908 0.04169 0.70814
 N599 N 0.65304 0.04623 0.72759
 N600 N 0.64149 0.05938 0.73747
 C601 C 0.61203 0.08212 0.73900
 N602 N 0.61292 0.08406 0.75925
 N603 N 0.59936 0.09528 0.76897
 C604 C 0.58452 0.10501 0.75875
 N605 N 0.58386 0.10326 0.73852
 N606 N 0.59732 0.09201 0.72884
 C607 C 0.56849 0.11611 0.76920
 N608 N 0.55363 0.12511 0.75845
 N609 N 0.53811 0.13390 0.76759
 C610 C 0.53687 0.13416 0.78787
 N611 N 0.55177 0.12521 0.79870
 N612 N 0.56734 0.11639 0.78952
 C613 C 0.37386 0.93145 0.72811
 N614 N 0.35805 0.94059 0.73740
 N615 N 0.34652 0.95375 0.72752
 C616 C 0.35052 0.95831 0.70807
 N617 N 0.36624 0.94908 0.69883
 N618 N 0.37764 0.93587 0.70864
 C619 C 0.38749 0.91783 0.73895
 N620 N 0.40219 0.90791 0.72880
 N621 N 0.41563 0.89664 0.73848
 C622 C 0.41495 0.89488 0.75871
 N623 N 0.40011 0.90462 0.76892
 N624 N 0.38658 0.91588 0.75920
 C625 C 0.43096 0.88375 0.76917
 N626 N 0.43210 0.88347 0.78949
 N627 N 0.44767 0.87464 0.79867
 C628 C 0.46257 0.86569 0.78784
 N629 N 0.46133 0.86595 0.76756
 N630 N 0.44582 0.87475 0.75841
 C631 C 0.62575 0.93180 0.27172
 N632 N 0.62193 0.93601 0.29124
 N633 N 0.63326 0.94920 0.30117
 C634 C 0.64894 0.95860 0.29203
 N635 N 0.65297 0.95425 0.27255
 N636 N 0.64151 0.94112 0.26253
 C637 C 0.61218 0.91820 0.26076
 N638 N 0.61308 0.91645 0.24049
 N639 N 0.59959 0.90522 0.23068
 C640 C 0.58481 0.89530 0.24082
 N641 N 0.58416 0.89686 0.26106
 N642 N 0.59755 0.90811 0.27083
 C643 C 0.56883 0.88420 0.23028
 N644 N 0.55401 0.87507 0.24098
 N645 N 0.53851 0.86630 0.23178
 C646 C 0.53725 0.86618 0.21150
 N647 N 0.55212 0.87525 0.20072
 N648 N 0.56767 0.88406 0.20996
 C649 C 0.37434 0.27172 0.93139
 N650 N 0.37817 0.29125 0.93594
 N651 N 0.36676 0.30104 0.94912
 C652 C 0.35096 0.29174 0.95818
 N653 N 0.34692 0.27224 0.95348
 N654 N 0.35847 0.26237 0.94036
 C655 C 0.38798 0.26088 0.91780
 N656 N 0.38700 0.24055 0.91569
 N657 N 0.40053 0.23083 0.90445
 C658 C 0.41544 0.24112 0.89490
 N659 N 0.41620 0.26143 0.89682
 N660 N 0.40276 0.27111 0.90807
 C661 C 0.43145 0.23064 0.88379
 N662 N 0.44638 0.24147 0.87498
 N663 N 0.46188 0.23229 0.86619
 C664 C 0.46304 0.21191 0.86574
 N665 N 0.44806 0.20100 0.87450
 N666 N 0.43251 0.21021 0.88332
 C667 C 0.62538 0.72811 0.93099
 N668 N 0.64127 0.73746 0.93993
 N669 N 0.65285 0.72759 0.95303
 C670 C 0.64882 0.70810 0.95774
 N671 N 0.63301 0.69879 0.94872
 N672 N 0.62156 0.70858 0.93556
 C673 C 0.61170 0.73894 0.91744
 N674 N 0.59690 0.72870 0.90774
 N675 N 0.58343 0.73838 0.89653
 C676 C 0.58416 0.75870 0.89462
 N677 N 0.59909 0.76899 0.90414
 N678 N 0.61266 0.75927 0.91533
 C679 C 0.56812 0.76917 0.88355
 N680 N 0.56705 0.78960 0.88311
 N681 N 0.55147 0.79880 0.87432
 C682 C 0.53649 0.78790 0.86558
 N683 N 0.53766 0.76751 0.86600
 N684 N 0.55318 0.75834 0.87476
 C685 C 0.37454 0.72825 0.06847
 N686 N 0.37837 0.70871 0.06395
 N687 N 0.36691 0.69887 0.05084
 C688 C 0.35108 0.70813 0.04182
 N689 N 0.34703 0.72764 0.04648
 N690 N 0.35862 0.73756 0.05954
 C691 C 0.38822 0.73914 0.08199
 N692 N 0.38723 0.75947 0.08406
 N693 N 0.40079 0.76924 0.09522
 C694 C 0.41574 0.75900 0.10475
 N695 N 0.41651 0.73868 0.10287
 N696 N 0.40305 0.72895 0.09168
 C697 C 0.43177 0.76952 0.11580
 N698 N 0.44674 0.75873 0.12460
 N699 N 0.46225 0.76795 0.13334
 C700 C 0.46338 0.78834 0.13374
 N701 N 0.44837 0.79920 0.12500
 N702 N 0.43280 0.78995 0.11622
 C703 C 0.62538 0.27184 0.06874
 N704 N 0.64125 0.26247 0.05978
 N705 N 0.65279 0.27232 0.04663
 C706 C 0.64874 0.29180 0.04189
 N707 N 0.63295 0.30112 0.05093
 N708 N 0.62154 0.29135 0.06414
 C709 C 0.61175 0.26103 0.08237
 N710 N 0.59698 0.27129 0.09208
 N711 N 0.58355 0.26163 0.10336
 C712 C 0.58430 0.24132 0.10533
 N713 N 0.59920 0.23101 0.09580
 N714 N 0.61273 0.24071 0.08453
 C715 C 0.56829 0.23087 0.11647
 N716 N 0.56723 0.21044 0.11698
 N717 N 0.55167 0.20125 0.12582
 C718 C 0.53669 0.21218 0.13454
 N719 N 0.53785 0.23256 0.13406
 N720 N 0.55336 0.24172 0.12525
 C721 C 0.27152 0.06867 0.62506
 N722 N 0.26193 0.05962 0.64065
 N723 N 0.27168 0.04639 0.65218
 C724 C 0.29129 0.04166 0.64840
 N725 N 0.30084 0.05080 0.63289
 N726 N 0.29117 0.06408 0.62149
 C727 C 0.26084 0.08240 0.61145
 N728 N 0.27128 0.09213 0.59690
 N729 N 0.26174 0.10351 0.58352
 C730 C 0.24135 0.10557 0.58412
 N731 N 0.23085 0.09602 0.59880
 N732 N 0.24044 0.08465 0.61227
 C733 C 0.23102 0.11683 0.56819
 N734 N 0.21053 0.11749 0.56705
 N735 N 0.20144 0.12644 0.55159
 C736 C 0.21253 0.13512 0.53679
 N737 N 0.23299 0.13449 0.53803
 N738 N 0.24205 0.12558 0.55344
 C739 C 0.72688 0.06778 0.37566
 N740 N 0.73572 0.06042 0.35882
 N741 N 0.72599 0.04718 0.34727
 C742 C 0.70715 0.04071 0.35229
 N743 N 0.69837 0.04818 0.36909
 N744 N 0.70800 0.06149 0.38050
 C745 C 0.73755 0.08167 0.38912
 N746 N 0.72737 0.09046 0.40442
 N747 N 0.73696 0.10201 0.41762
 C748 C 0.75716 0.10517 0.41611
 N749 N 0.76740 0.09653 0.40069
 N750 N 0.75774 0.08501 0.38738
 C751 C 0.76763 0.11661 0.43182
 N752 N 0.78813 0.11772 0.43249
 N753 N 0.79738 0.12675 0.44782
 C754 C 0.78644 0.13511 0.46293
 N755 N 0.76598 0.13404 0.46212
 N756 N 0.75677 0.12502 0.44687
 C757 C 0.72798 0.93108 0.62535
 N758 N 0.70834 0.93570 0.62176
 N759 N 0.69869 0.94904 0.63312
 C760 C 0.70825 0.95820 0.64861
 N761 N 0.72786 0.95344 0.65241
 N762 N 0.73758 0.94016 0.64092
 C763 C 0.73864 0.91729 0.61179
 N764 N 0.75903 0.91503 0.61260
 N765 N 0.76860 0.90360 0.59916
 C766 C 0.75807 0.89400 0.58452
 N767 N 0.73769 0.89607 0.58393
 N768 N 0.72817 0.90751 0.59728
 C769 C 0.76838 0.88269 0.56861
 N770 N 0.75733 0.87390 0.55390
 N771 N 0.76636 0.86496 0.53849
 C772 C 0.78681 0.86434 0.53721
 N773 N 0.79793 0.87307 0.55197
 N774 N 0.78887 0.88204 0.56743
 C775 C 0.27170 0.93100 0.37456
 N776 N 0.26211 0.94007 0.35899
 N777 N 0.27186 0.95332 0.34747
 C778 C 0.29148 0.95804 0.35125
 N779 N 0.30103 0.94888 0.36674
 N780 N 0.29135 0.93558 0.37813
 C781 C 0.26101 0.91727 0.38816
 N782 N 0.27145 0.90753 0.40271
 N783 N 0.26190 0.89615 0.41609
 C784 C 0.24152 0.89411 0.41550
 N785 N 0.23102 0.90367 0.40082
 N786 N 0.24061 0.91504 0.38735
 C787 C 0.23118 0.88286 0.43143
 N788 N 0.21069 0.88221 0.43258
 N789 N 0.20160 0.87327 0.44804
 C790 C 0.21269 0.86458 0.46284
 N791 N 0.23315 0.86521 0.46160
 N792 N 0.24220 0.87411 0.44618
 C793 C 0.06887 0.37471 0.72730
 N794 N 0.06431 0.37861 0.70787
 N795 N 0.05101 0.36729 0.69806
 C796 C 0.04185 0.35153 0.70724
 N797 N 0.04655 0.34741 0.72663
 N798 N 0.05979 0.35887 0.73652
 C799 C 0.08258 0.38825 0.73816
 N800 N 0.08466 0.38719 0.75838
 N801 N 0.09598 0.40062 0.76814
 C802 C 0.10567 0.41551 0.75799
 N803 N 0.10378 0.41633 0.73778
 N804 N 0.09244 0.40300 0.72806
 C805 C 0.11685 0.43142 0.76851
 N806 N 0.12579 0.44632 0.75783
 N807 N 0.13460 0.46175 0.76704
 C808 C 0.13494 0.46285 0.78733
 N809 N 0.12606 0.44789 0.79809
 N810 N 0.11722 0.43241 0.78884
 C811 C 0.06891 0.62516 0.27249
 N812 N 0.05985 0.64099 0.26323
 N813 N 0.04660 0.65246 0.27308
 C814 C 0.04185 0.64837 0.29246
 N815 N 0.05100 0.63262 0.30168
 N816 N 0.06431 0.62129 0.29191
 C817 C 0.08263 0.61161 0.26167
 N818 N 0.09246 0.59687 0.27181
 N819 N 0.10380 0.58351 0.26213
 C820 C 0.10572 0.58430 0.24192
 N821 N 0.09607 0.59918 0.23173
 N822 N 0.08474 0.61263 0.24145
 C823 C 0.11690 0.56837 0.23144
 N824 N 0.11731 0.56735 0.21112
 N825 N 0.12615 0.55186 0.20190
 C826 C 0.13499 0.53690 0.21269
 N827 N 0.13461 0.53802 0.23298
 N828 N 0.12580 0.55347 0.24217
 C829 C 0.93053 0.37470 0.27231
 N830 N 0.93511 0.37855 0.29174
 N831 N 0.94842 0.36720 0.30151
 C832 C 0.95757 0.35147 0.29227
 N833 N 0.95284 0.34740 0.27288
 N834 N 0.93960 0.35888 0.26303
 C835 C 0.91683 0.38827 0.26149
 N836 N 0.91474 0.38727 0.24127
 N837 N 0.90343 0.40074 0.23155
 C838 C 0.89378 0.41561 0.24175
 N839 N 0.89568 0.41638 0.26196
 N840 N 0.90700 0.40301 0.27164
 C841 C 0.88262 0.43156 0.23127
 N842 N 0.87372 0.44646 0.24200
 N843 N 0.86493 0.46192 0.23282
 C844 C 0.86457 0.46305 0.21253
 N845 N 0.87341 0.44810 0.20173
 N846 N 0.88224 0.43259 0.21094
 C847 C 0.93066 0.62501 0.72726
 N848 N 0.93528 0.62115 0.70784
 N849 N 0.94861 0.63248 0.69809
 C850 C 0.95776 0.64821 0.70733
 N851 N 0.95300 0.65229 0.72671
 N852 N 0.93972 0.64083 0.73654
 C853 C 0.91692 0.61146 0.73806
 N854 N 0.91479 0.61248 0.75828
 N855 N 0.90345 0.59902 0.76798
 C856 C 0.89379 0.58416 0.75778
 N857 N 0.89572 0.58338 0.73756
 N858 N 0.90708 0.59674 0.72790
 C859 C 0.88260 0.56822 0.76824
 N860 N 0.87369 0.55333 0.75750
 N861 N 0.86487 0.53789 0.76667
 C862 C 0.86449 0.53675 0.78696
 N863 N 0.87334 0.55169 0.79777
 N864 N 0.88220 0.56719 0.78857
 C865 C 0.72740 0.62443 0.93235
 N866 N 0.73621 0.64143 0.93959
 N867 N 0.72644 0.65310 0.95268
 C868 C 0.70761 0.64806 0.95913
 N869 N 0.69887 0.63110 0.95180
 N870 N 0.70854 0.61958 0.93863
 C871 C 0.73808 0.61086 0.91858
 N872 N 0.72788 0.59546 0.90988
 N873 N 0.73745 0.58218 0.89839
 C874 C 0.75764 0.58368 0.89522
 N875 N 0.76790 0.59919 0.90377
 N876 N 0.75827 0.61259 0.91522
 C877 C 0.76807 0.56789 0.88380
 N878 N 0.78857 0.56718 0.88264
 N879 N 0.79776 0.55177 0.87360
 C880 C 0.78678 0.53662 0.86529
 N881 N 0.76632 0.53746 0.86640
 N882 N 0.75716 0.55279 0.87542
 C883 C 0.27222 0.37522 0.93272
 N884 N 0.26344 0.35823 0.94002
 N885 N 0.27325 0.34660 0.95312
 C886 C 0.29210 0.35169 0.95952
 N887 N 0.30080 0.36863 0.95213
 N888 N 0.29110 0.38011 0.93895
 C889 C 0.26151 0.38875 0.91893
 N890 N 0.27168 0.40412 0.91016
 N891 N 0.26208 0.41738 0.89867
 C892 C 0.24188 0.41586 0.89556
 N893 N 0.23164 0.40038 0.90418
 N894 N 0.24131 0.38700 0.91563
 C895 C 0.23141 0.43164 0.88414
 N896 N 0.21092 0.43236 0.88305
 N897 N 0.20170 0.44776 0.87402
 C898 C 0.21266 0.46291 0.86567
 N899 N 0.23312 0.46206 0.86672
 N900 N 0.24230 0.44673 0.87573
 C901 C 0.27237 0.62453 0.06746
 N902 N 0.29125 0.61966 0.06122
 N903 N 0.30094 0.63115 0.04804
 C904 C 0.29221 0.64809 0.04066
 N905 N 0.27338 0.65315 0.04707
 N906 N 0.26358 0.64151 0.06017
 C907 C 0.26167 0.61098 0.08124
 N908 N 0.24147 0.61272 0.08455
 N909 N 0.23181 0.59934 0.09600
 C910 C 0.24205 0.58385 0.10460
 N911 N 0.26225 0.58234 0.10148
 N912 N 0.27185 0.59560 0.08999
 C913 C 0.23159 0.56806 0.11601
 N914 N 0.24248 0.55297 0.12442
 N915 N 0.23329 0.53764 0.13343
 C916 C 0.21283 0.53679 0.13449
 N917 N 0.20187 0.55194 0.12614
 N918 N 0.21109 0.56735 0.11712
 C919 C 0.72739 0.37537 0.06723
 N920 N 0.70852 0.38023 0.06097
 N921 N 0.69883 0.36872 0.04781
 C922 C 0.70756 0.35177 0.04045
 N923 N 0.72639 0.34672 0.04687
 N924 N 0.73619 0.35837 0.05997
 C925 C 0.73809 0.38893 0.08100
 N926 N 0.75828 0.38721 0.08432
 N927 N 0.76793 0.40061 0.09576
 C928 C 0.75768 0.41611 0.10434
 N929 N 0.73748 0.41760 0.10120
 N930 N 0.72789 0.40432 0.08973
 C931 C 0.76813 0.43191 0.11574
 N932 N 0.75723 0.44701 0.12412
 N933 N 0.76640 0.46235 0.13312
 C934 C 0.78686 0.46319 0.13420
 N935 N 0.79783 0.44804 0.12588
 N936 N 0.78862 0.43263 0.11686
 C937 C 0.93245 0.72656 0.62405
 N938 N 0.93978 0.73531 0.64097
 N939 N 0.95294 0.72552 0.65259
 C940 C 0.95938 0.70674 0.64757
 N941 N 0.95196 0.69806 0.63070
 N942 N 0.93872 0.70774 0.61922
 C943 C 0.91860 0.73725 0.61054
 N944 N 0.90977 0.72712 0.59523
 N945 N 0.89821 0.73671 0.58202
 C946 C 0.89509 0.75683 0.58352
 N947 N 0.90378 0.76702 0.59894
 N948 N 0.91530 0.75737 0.61227
 C949 C 0.88359 0.76727 0.56782
 N950 N 0.88254 0.78769 0.56710
 N951 N 0.87342 0.79690 0.55180
 C952 C 0.86491 0.78599 0.53676
 N953 N 0.86592 0.76561 0.53761
 N954 N 0.87503 0.75644 0.55284
 C955 C 0.93199 0.27305 0.37537
 N956 N 0.93825 0.29186 0.38023
 N957 N 0.95154 0.30154 0.36881
 C958 C 0.95901 0.29287 0.35196
 N959 N 0.95258 0.27409 0.34691
 N960 N 0.93937 0.26431 0.35848
 C961 C 0.91809 0.26235 0.38884
 N962 N 0.91481 0.24223 0.38712
 N963 N 0.90328 0.23258 0.40043
 C964 C 0.89454 0.24277 0.41582
 N965 N 0.89763 0.26290 0.41731
 N966 N 0.90921 0.27248 0.40412
 C967 C 0.88306 0.23232 0.43153
 N968 N 0.87452 0.24315 0.44653
 N969 N 0.86548 0.23398 0.46180
 C970 C 0.86452 0.21359 0.46268
 N971 N 0.87299 0.20269 0.44762
 N972 N 0.88204 0.21190 0.43228
 C973 C 0.06735 0.27320 0.62387
 N974 N 0.05998 0.26444 0.64076
 N975 N 0.04682 0.27424 0.65237
 C976 C 0.04043 0.29304 0.64738
 N977 N 0.04790 0.30172 0.63053
 N978 N 0.06113 0.29204 0.61906
 C979 C 0.08117 0.26248 0.61035
 N980 N 0.09002 0.27260 0.59504
 N981 N 0.10154 0.26299 0.58182
 C982 C 0.10459 0.24285 0.58329
 N983 N 0.09589 0.23268 0.59871
 N984 N 0.08441 0.24235 0.61205
 C985 C 0.11604 0.23239 0.56757
 N986 N 0.11703 0.21196 0.56684
 N987 N 0.12609 0.20274 0.55151
 C988 C 0.13461 0.21363 0.53647
 N989 N 0.13366 0.23401 0.53733
 N990 N 0.12461 0.24320 0.55258
 C991 C 0.06729 0.72668 0.37577
 N992 N 0.05995 0.73544 0.35887
 N993 N 0.04677 0.72566 0.34725
 C994 C 0.04034 0.70687 0.35226
 N995 N 0.04778 0.69818 0.36911
 N996 N 0.06104 0.70785 0.38058
 C997 C 0.08114 0.73737 0.38928
 N998 N 0.08999 0.72723 0.40458
 N999 N 0.10154 0.73682 0.41780
 C1000 C 0.10462 0.75695 0.41633
 N1001 N 0.09592 0.76714 0.40092
 N1002 N 0.08442 0.75750 0.38758
 C1003 C 0.11610 0.76739 0.43205
 N1004 N 0.11711 0.78781 0.43280
 N1005 N 0.12620 0.79701 0.44813
 C1006 C 0.13471 0.78611 0.46316
 N1007 N 0.13374 0.76572 0.46228
 N1008 N 0.12466 0.75656 0.44703
 C1009 C 0.62514 0.93201 0.72841
 N1010 N 0.62139 0.93646 0.70893
 N1011 N 0.63288 0.94960 0.69913
 C1012 C 0.64867 0.95873 0.70837
 N1013 N 0.65263 0.95415 0.72782
 N1014 N 0.64100 0.94106 0.73770
 C1015 C 0.61145 0.91839 0.73921
 N1016 N 0.61239 0.91631 0.75945
 N1017 N 0.59886 0.90501 0.76912
 C1018 C 0.58399 0.89534 0.75887
 N1019 N 0.58328 0.89724 0.73865
 N1020 N 0.59672 0.90856 0.72902
 C1021 C 0.56800 0.88411 0.76927
 N1022 N 0.55313 0.87518 0.75847
 N1023 N 0.53766 0.86626 0.76757
 C1024 C 0.53646 0.86581 0.78785
 N1025 N 0.55137 0.87468 0.79872
 N1026 N 0.56691 0.88363 0.78959
 C1027 C 0.37462 0.93203 0.27127
 N1028 N 0.35874 0.94108 0.26201
 N1029 N 0.34711 0.95413 0.27194
 C1030 C 0.35108 0.95866 0.29140
 N1031 N 0.36688 0.94952 0.30060
 N1032 N 0.37838 0.93643 0.29075
 C1033 C 0.38832 0.91848 0.26041
 N1034 N 0.40309 0.90865 0.27055
 N1035 N 0.41654 0.89739 0.26087
 C1036 C 0.41581 0.89555 0.24065
 N1037 N 0.40091 0.90521 0.23045
 N1038 N 0.38737 0.91646 0.24017
 C1039 C 0.43181 0.88439 0.23020
 N1040 N 0.43288 0.88397 0.20987
 N1041 N 0.44842 0.87508 0.20069
 C1042 C 0.46337 0.86621 0.21153
 N1043 N 0.46219 0.86660 0.23181
 N1044 N 0.44671 0.87545 0.24095
 C1045 C 0.62512 0.06841 0.27234
 N1046 N 0.62124 0.06386 0.29177
 N1047 N 0.63266 0.05068 0.30159
 C1048 C 0.64852 0.04161 0.29242
 N1049 N 0.65262 0.04629 0.27302
 N1050 N 0.64106 0.05943 0.26312
 C1051 C 0.61150 0.08205 0.26150
 N1052 N 0.61253 0.08416 0.24127
 N1053 N 0.59904 0.09547 0.23155
 C1054 C 0.58412 0.10510 0.24175
 N1055 N 0.58331 0.10318 0.26196
 N1056 N 0.59671 0.09186 0.27163
 C1057 C 0.56816 0.11632 0.23128
 N1058 N 0.55325 0.12526 0.24202
 N1059 N 0.53779 0.13414 0.23286
 C1060 C 0.53665 0.13455 0.21257
 N1061 N 0.55161 0.12568 0.20176
 N1062 N 0.56712 0.11677 0.21095
 C1063 C 0.37429 0.06804 0.72834
 N1064 N 0.35844 0.05895 0.73762
 N1065 N 0.34685 0.04585 0.72773
 C1066 C 0.35081 0.04129 0.70827
 N1067 N 0.36658 0.05046 0.69904
 N1068 N 0.37804 0.06362 0.70886
 C1069 C 0.38796 0.08166 0.73916
 N1070 N 0.40268 0.09152 0.72899
 N1071 N 0.41611 0.10283 0.73863
 C1072 C 0.41542 0.10468 0.75885
 N1073 N 0.40057 0.09498 0.76909
 N1074 N 0.38704 0.08369 0.75940
 C1075 C 0.43142 0.11589 0.76927
 N1076 N 0.43252 0.11632 0.78959
 N1077 N 0.44807 0.12523 0.79874
 C1078 C 0.46298 0.13413 0.78788
 N1079 N 0.46177 0.13373 0.76760
 N1080 N 0.44628 0.12484 0.75848
 C1081 C 0.62564 0.72903 0.06712
 N1082 N 0.64137 0.73836 0.05787
 N1083 N 0.65287 0.72839 0.04478
 C1084 C 0.64892 0.70880 0.04039
 N1085 N 0.63327 0.69952 0.04971
 N1086 N 0.62191 0.70941 0.06286
 C1087 C 0.61207 0.73991 0.08076
 N1088 N 0.59751 0.72965 0.09077
 N1089 N 0.58414 0.73932 0.10211
 C1090 C 0.58474 0.75965 0.10385
 N1091 N 0.59944 0.76998 0.09401
 N1092 N 0.61290 0.76027 0.08268
 C1093 C 0.56878 0.77008 0.11510
 N1094 N 0.56759 0.79050 0.11550
 N1095 N 0.55206 0.79963 0.12447
 C1096 C 0.53726 0.78865 0.13343
 N1097 N 0.53857 0.76827 0.13305
 N1098 N 0.55404 0.75918 0.12413
 C1099 C 0.37436 0.27116 0.06763
 N1100 N 0.35863 0.26178 0.05844
 N1101 N 0.34710 0.27169 0.04533
 C1102 C 0.35102 0.29127 0.04085
 N1103 N 0.36668 0.30060 0.05011
 N1104 N 0.37808 0.29076 0.06328
 C1105 C 0.38797 0.26035 0.08129
 N1106 N 0.40254 0.27067 0.09123
 N1107 N 0.41592 0.26106 0.10261
 C1108 C 0.41532 0.24074 0.10446
 N1109 N 0.40062 0.23036 0.09468
 N1110 N 0.38714 0.24001 0.08332
 C1111 C 0.43129 0.23037 0.11576
 N1112 N 0.43248 0.20995 0.11628
 N1113 N 0.44801 0.20087 0.12529
 C1114 C 0.46281 0.21190 0.13420
 N1115 N 0.46150 0.23228 0.13371
 N1116 N 0.44603 0.24132 0.12473
 C1117 C 0.62541 0.27102 0.93241
 N1118 N 0.62170 0.29063 0.93671
 N1119 N 0.63308 0.30048 0.94988
 C1120 C 0.64872 0.29117 0.95918
 N1121 N 0.65265 0.27158 0.95475
 N1122 N 0.64113 0.26165 0.94163
 C1123 C 0.61182 0.26018 0.91875
 N1124 N 0.61263 0.23983 0.91678
 N1125 N 0.59915 0.23016 0.90543
 C1126 C 0.58445 0.24053 0.89563
 N1127 N 0.58388 0.26086 0.89742
 N1128 N 0.59726 0.27048 0.90878
 C1129 C 0.56848 0.23014 0.88436
 N1130 N 0.55373 0.24108 0.87538
 N1131 N 0.53824 0.23202 0.86644
 C1132 C 0.53692 0.21164 0.86600
 N1133 N 0.55172 0.20063 0.87491
 N1134 N 0.56727 0.20972 0.88389
 C1135 C 0.37423 0.72866 0.93239
 N1136 N 0.37796 0.70907 0.93672
 N1137 N 0.36659 0.69922 0.94990
 C1138 C 0.35094 0.70852 0.95918
 N1139 N 0.34699 0.72810 0.95472
 N1140 N 0.35850 0.73803 0.94160
 C1141 C 0.38781 0.73950 0.91872
 N1142 N 0.38696 0.75985 0.91672
 N1143 N 0.40043 0.76953 0.90536
 C1144 C 0.41513 0.75918 0.89557
 N1145 N 0.41575 0.73885 0.89739
 N1146 N 0.40238 0.72922 0.90876
 C1147 C 0.43109 0.76958 0.88428
 N1148 N 0.44584 0.75866 0.87529
 N1149 N 0.46131 0.76773 0.86634
 C1150 C 0.46260 0.78811 0.86588
 N1151 N 0.44779 0.79911 0.87480
 N1152 N 0.43227 0.79000 0.88380
 C1153 C 0.72782 0.93178 0.37597
 N1154 N 0.70815 0.93632 0.37947
 N1155 N 0.69845 0.94952 0.36799
 C1156 C 0.70799 0.95862 0.35246
 N1157 N 0.72763 0.95396 0.34875
 N1158 N 0.73741 0.94081 0.36036
 C1159 C 0.73852 0.91809 0.38961
 N1160 N 0.75892 0.91581 0.38878
 N1161 N 0.76850 0.90440 0.40222
 C1162 C 0.75800 0.89484 0.41690
 N1163 N 0.73762 0.89695 0.41753
 N1164 N 0.72808 0.90837 0.40417
 C1165 C 0.76832 0.88345 0.43276
 N1166 N 0.75728 0.87460 0.44744
 N1167 N 0.76633 0.86550 0.46276
 C1168 C 0.78678 0.86478 0.46397
 N1169 N 0.79789 0.87359 0.44925
 N1170 N 0.78881 0.88271 0.43388
 C1171 C 0.27130 0.93185 0.62440
 N1172 N 0.29096 0.93642 0.62091
 N1173 N 0.30066 0.94959 0.63243
 C1174 C 0.29112 0.95863 0.64800
 N1175 N 0.27148 0.95393 0.65170
 N1176 N 0.26171 0.94081 0.64005
 C1177 C 0.26062 0.91819 0.61070
 N1178 N 0.24023 0.91590 0.61149
 N1179 N 0.23068 0.90453 0.59798
 C1180 C 0.24122 0.89502 0.58329
 N1181 N 0.26160 0.89714 0.58272
 N1182 N 0.27110 0.90852 0.59613
 C1183 C 0.23094 0.88367 0.56738
 N1184 N 0.24202 0.87487 0.55270
 N1185 N 0.23302 0.86580 0.53735
 C1186 C 0.21256 0.86505 0.53609
 N1187 N 0.20142 0.87381 0.55081
 N1188 N 0.21045 0.88291 0.56622
 C1189 C 0.27131 0.06782 0.37537
 N1190 N 0.26175 0.05888 0.35970
 N1191 N 0.27155 0.04577 0.34805
 C1192 C 0.29118 0.04108 0.35179
 N1193 N 0.30068 0.05010 0.36739
 N1194 N 0.29096 0.06325 0.37891
 C1195 C 0.26060 0.08148 0.38905
 N1196 N 0.27106 0.09116 0.40364
 N1197 N 0.26153 0.10256 0.41702
 C1198 C 0.24115 0.10467 0.41641
 N1199 N 0.23064 0.09515 0.40170
 N1200 N 0.24021 0.08377 0.38823
 C1201 C 0.23084 0.11604 0.43229
 N1202 N 0.21035 0.11678 0.43343
 N1203 N 0.20130 0.12589 0.44882
 C1204 C 0.21243 0.13467 0.46355
 N1205 N 0.23288 0.13394 0.46231
 N1206 N 0.24190 0.12487 0.44697
 C1207 C 0.72846 0.06802 0.62456
 N1208 N 0.70878 0.06352 0.62109
 N1209 N 0.69906 0.05036 0.63260
 C1210 C 0.70859 0.04127 0.64814
 N1211 N 0.72825 0.04590 0.65183
 N1212 N 0.73805 0.05900 0.64018
 C1213 C 0.73916 0.08167 0.61087
 N1214 N 0.75957 0.08386 0.61158
 N1215 N 0.76912 0.09522 0.59807
 C1216 C 0.75857 0.10483 0.58345
 N1217 N 0.73818 0.10282 0.58296
 N1218 N 0.72867 0.09144 0.59637
 C1219 C 0.76884 0.11617 0.56752
 N1220 N 0.75773 0.12506 0.55292
 N1221 N 0.76669 0.13410 0.53753
 C1222 C 0.78714 0.13472 0.53615
 N1223 N 0.79832 0.12588 0.55080
 N1224 N 0.78932 0.11681 0.56625
 C1225 C 0.93163 0.62491 0.27166
 N1226 N 0.94092 0.64060 0.26239
 N1227 N 0.95407 0.65211 0.27234
 C1228 C 0.95848 0.64820 0.29184
 N1229 N 0.94911 0.63258 0.30105
 N1230 N 0.93590 0.62121 0.29119
 C1231 C 0.91794 0.61133 0.26081
 N1232 N 0.90786 0.59680 0.27100
 N1233 N 0.89648 0.58344 0.26135
 C1234 C 0.89479 0.58401 0.24111
 N1235 N 0.90471 0.59867 0.23086
 N1236 N 0.91607 0.61213 0.24055
 C1237 C 0.88350 0.56809 0.23071
 N1238 N 0.88320 0.56686 0.21040
 N1239 N 0.87419 0.55138 0.20129
 C1240 C 0.86508 0.53666 0.21219
 N1241 N 0.86536 0.53799 0.23246
 N1242 N 0.87433 0.55342 0.24154
 C1243 C 0.93161 0.37497 0.72783
 N1244 N 0.94087 0.35926 0.73711
 N1245 N 0.95404 0.34776 0.72717
 C1246 C 0.95848 0.35169 0.70768
 N1247 N 0.94913 0.36732 0.69846
 N1248 N 0.93591 0.37868 0.70832
 C1249 C 0.91791 0.38854 0.73868
 N1250 N 0.90784 0.40308 0.72849
 N1251 N 0.89645 0.41643 0.73813
 C1252 C 0.89472 0.41583 0.75836
 N1253 N 0.90462 0.40116 0.76862
 N1254 N 0.91600 0.38771 0.75893
 C1255 C 0.88341 0.43174 0.76876
 N1256 N 0.88308 0.43295 0.78908
 N1257 N 0.87406 0.44842 0.79818
 C1258 C 0.86496 0.46314 0.78729
 N1259 N 0.86527 0.46182 0.76701
 N1260 N 0.87425 0.44641 0.75794
 C1261 C 0.06795 0.62469 0.72825
 N1262 N 0.06369 0.62100 0.70872
 N1263 N 0.05050 0.63238 0.69885
 C1264 C 0.04114 0.64800 0.70806
 N1265 N 0.04553 0.65191 0.72757
 N1266 N 0.05866 0.64039 0.73752
 C1267 C 0.08162 0.61111 0.73912
 N1268 N 0.08349 0.61192 0.75938
 N1269 N 0.09484 0.59846 0.76907
 C1270 C 0.10476 0.58380 0.75882
 N1271 N 0.10307 0.58322 0.73858
 N1272 N 0.09171 0.59658 0.72893
 C1273 C 0.11605 0.56787 0.76922
 N1274 N 0.12522 0.55321 0.75840
 N1275 N 0.13419 0.53779 0.76747
 C1276 C 0.13447 0.53645 0.78775
 N1277 N 0.12536 0.55117 0.79865
 N1278 N 0.11635 0.56664 0.78954
 C1279 C 0.06778 0.37502 0.27161
 N1280 N 0.05852 0.35932 0.26231
 N1281 N 0.04537 0.34778 0.27223
 C1282 C 0.04093 0.35168 0.29173
 N1283 N 0.05026 0.36730 0.30097
 N1284 N 0.06347 0.37869 0.29113
 C1285 C 0.08147 0.38862 0.26079
 N1286 N 0.09152 0.40316 0.27100
 N1287 N 0.10291 0.41653 0.26139
 C1288 C 0.10465 0.41595 0.24115
 N1289 N 0.09477 0.40128 0.23087
 N1290 N 0.08340 0.38781 0.24053
 C1291 C 0.11597 0.43188 0.23078
 N1292 N 0.11634 0.43310 0.21046
 N1293 N 0.12538 0.44858 0.20138
 C1294 C 0.13446 0.46330 0.21231
 N1295 N 0.13412 0.46197 0.23258
 N1296 N 0.12511 0.44655 0.24163
   
