data_POSCAR
  _audit_creation_date              2014-09-24
  _audit_creation_method            'ToBaCCo'
  _symmetry_space_group_name_H-M    'P1'
  _symmetry_Int_Tables_number       1
  _symmetry_cell_setting            triclinic
  loop_
  _symmetry_equiv_pos_as_xyz
 x,y,z
_cell_length_a 48.9465
_cell_length_b 49.1537
_cell_length_c 48.9449
_cell_angle_alpha 90.409600
_cell_angle_beta 90.556500
_cell_angle_gamma 89.832100
loop_
  _atom_site_label
  _atom_site_type_symbol
  _atom_site_fract_x
  _atom_site_fract_y
  _atom_site_fract_z
C1 C 0.20419 0.18513 0.22628
 C2 C 0.18220 0.18979 0.24387
 C3 C 0.16448 0.21186 0.23956
 C4 C 0.16905 0.22973 0.21787
 C5 C 0.19093 0.22533 0.20007
 C6 C 0.20859 0.20293 0.20424
 C7 C 0.22159 0.16276 0.23009
 C8 C 0.24305 0.15769 0.21191
 C9 C 0.24766 0.17563 0.19026
 C10 C 0.23051 0.19818 0.18623
 C11 C 0.23459 0.21581 0.16424
 C12 C 0.21683 0.23784 0.15988
 C13 C 0.19521 0.24266 0.17791
 H14 H 0.17857 0.17611 0.26073
 H15 H 0.15527 0.24674 0.21467
 H16 H 0.21832 0.14901 0.24697
 H17 H 0.26436 0.17172 0.17636
 H18 H 0.25122 0.21220 0.15018
 H19 H 0.18159 0.25976 0.17440
 C20 C 0.70821 0.68902 0.72941
 C21 C 0.68739 0.69404 0.74827
 C22 C 0.67200 0.71817 0.74707
 C23 C 0.67694 0.73700 0.72626
 C24 C 0.69751 0.73214 0.70706
 C25 C 0.71334 0.70813 0.70870
 C26 C 0.72407 0.66528 0.73097
 C27 C 0.74479 0.66024 0.71193
 C28 C 0.74994 0.67934 0.69144
 C29 C 0.73430 0.70323 0.68963
 C30 C 0.73926 0.72233 0.66913
 C31 C 0.72351 0.74617 0.66748
 C32 C 0.70262 0.75095 0.68633
 H33 H 0.68316 0.67927 0.76402
 H34 H 0.66485 0.75548 0.72519
 H35 H 0.72044 0.65068 0.74704
 H36 H 0.76610 0.67549 0.67689
 H37 H 0.75532 0.71875 0.65441
 H38 H 0.69054 0.76942 0.68491
 C39 C 0.29429 0.80573 0.73662
 C40 C 0.31644 0.80080 0.75434
 C41 C 0.33487 0.77958 0.74889
 C42 C 0.33164 0.76372 0.72513
 C43 C 0.30963 0.76840 0.70722
 C44 C 0.29072 0.78935 0.71309
 C45 C 0.27549 0.82656 0.74226
 C46 C 0.25251 0.83082 0.72517
 C47 C 0.24944 0.81457 0.70149
 C48 C 0.26827 0.79390 0.69540
 C49 C 0.26505 0.77774 0.67186
 C50 C 0.28404 0.75718 0.66579
 C51 C 0.30614 0.75242 0.68362
 H52 H 0.31917 0.81314 0.77261
 H53 H 0.34619 0.74761 0.72079
 H54 H 0.27820 0.83882 0.76059
 H55 H 0.23267 0.81844 0.68739
 H56 H 0.24790 0.78117 0.65811
 H57 H 0.32055 0.73626 0.67901
 C58 C 0.80220 0.31723 0.22916
 C59 C 0.82515 0.31238 0.24580
 C60 C 0.84268 0.29019 0.24057
 C61 C 0.83596 0.27197 0.21919
 C62 C 0.81335 0.27685 0.20207
 C63 C 0.79647 0.29966 0.20695
 C64 C 0.78508 0.33960 0.23417
 C65 C 0.76301 0.34536 0.21654
 C66 C 0.75737 0.32778 0.19445
 C67 C 0.77390 0.30494 0.18958
 C68 C 0.76847 0.28749 0.16740
 C69 C 0.78558 0.26511 0.16214
 C70 C 0.80771 0.25966 0.17974
 H71 H 0.82935 0.32584 0.26298
 H72 H 0.84914 0.25469 0.21500
 H73 H 0.78911 0.35283 0.25155
 H74 H 0.74023 0.33208 0.18095
 H75 H 0.75118 0.29142 0.15397
 H76 H 0.82079 0.24228 0.17567
 C77 C 0.78675 0.70383 0.26246
 C78 C 0.80714 0.70955 0.24344
 C79 C 0.82566 0.73113 0.24783
 C80 C 0.82396 0.74626 0.27238
 C81 C 0.80369 0.74076 0.29160
 C82 C 0.78494 0.71953 0.28661
 C83 C 0.76808 0.68268 0.25769
 C84 C 0.74756 0.67718 0.27669
 C85 C 0.74598 0.69266 0.30083
 C86 C 0.76444 0.71389 0.30585
 C87 C 0.76280 0.72952 0.32983
 C88 C 0.78167 0.75041 0.33506
 C89 C 0.80194 0.75607 0.31583
 H90 H 0.80800 0.69766 0.22471
 H91 H 0.83892 0.76192 0.27690
 H92 H 0.76936 0.67052 0.23917
 H93 H 0.73039 0.68804 0.31567
 H94 H 0.74690 0.72549 0.34452
 H95 H 0.81634 0.77238 0.31983
 C96 C 0.28780 0.19982 -0.23431
 C97 C 0.30897 0.20480 -0.25265
 C98 C 0.32568 0.22800 -0.24981
 C99 C 0.32166 0.24542 -0.22714
 C100 C 0.30057 0.24066 -0.20859
 C101 C 0.28346 0.21785 -0.21223
 C102 C 0.27074 0.17719 -0.23784
 C103 C 0.24916 0.17262 -0.21980
 C104 C 0.24500 0.19040 -0.19768
 C105 C 0.26196 0.21308 -0.19383
 C106 C 0.25761 0.23127 -0.17211
 C107 C 0.27441 0.25413 -0.16864
 C108 C 0.29601 0.25860 -0.18667
 H109 H 0.31273 0.19026 -0.26897
 H110 H 0.33426 0.26337 -0.22451
 H111 H 0.27391 0.16326 -0.25480
 H112 H 0.22833 0.18671 -0.18377
 H113 H 0.24105 0.22786 -0.15798
 H114 H 0.30893 0.27630 -0.18381
 C115 C 0.70309 0.30674 -0.23277
 C116 C 0.67902 0.30420 -0.24835
 C117 C 0.65966 0.28385 -0.24254
 C118 C 0.66558 0.26531 -0.22140
 C119 C 0.68947 0.26770 -0.20557
 C120 C 0.70829 0.28855 -0.21118
 C121 C 0.72203 0.32727 -0.23840
 C122 C 0.74608 0.32981 -0.22274
 C123 C 0.75094 0.31196 -0.20093
 C124 C 0.73234 0.29117 -0.19521
 C125 C 0.73743 0.27288 -0.17389
 C126 C 0.71894 0.25186 -0.16854
 C127 C 0.69491 0.24949 -0.18426
 H128 H 0.67497 0.31870 -0.26448
 H129 H 0.65186 0.24849 -0.21764
 H130 H 0.71821 0.34125 -0.25506
 H131 H 0.76931 0.31425 -0.18858
 H132 H 0.75588 0.27474 -0.16158
 H133 H 0.68051 0.23344 -0.17979
 C134 C 0.20890 0.80436 0.26331
 C135 C 0.18651 0.79972 0.24579
 C136 C 0.16781 0.77895 0.25134
 C137 C 0.17103 0.76323 0.27497
 C138 C 0.19325 0.76766 0.29271
 C139 C 0.21242 0.78815 0.28675
 C140 C 0.22797 0.82471 0.25756
 C141 C 0.25115 0.82868 0.27445
 C142 C 0.25419 0.81262 0.29806
 C143 C 0.23510 0.79243 0.30425
 C144 C 0.23828 0.77645 0.32770
 C145 C 0.21897 0.75642 0.33395
 C146 C 0.19668 0.75191 0.31627
 H147 H 0.18379 0.81192 0.22759
 H148 H 0.15630 0.74744 0.27933
 H149 H 0.22527 0.83682 0.23929
 H150 H 0.27113 0.81631 0.31204
 H151 H 0.25572 0.77954 0.34119
 H152 H 0.18198 0.73622 0.32101
 C153 C 0.44142 0.45506 0.47937
 C154 C 0.44594 0.43264 0.49644
 C155 C 0.46843 0.41536 0.49223
 C156 C 0.48708 0.42120 0.47147
 C157 C 0.48259 0.44322 0.45397
 C158 C 0.45965 0.46023 0.45785
 C159 C 0.41869 0.47207 0.48311
 C160 C 0.41366 0.49381 0.46526
 C161 C 0.43187 0.49895 0.44394
 C162 C 0.45478 0.48222 0.44001
 C163 C 0.47259 0.48674 0.41822
 C164 C 0.49503 0.46943 0.41400
 C165 C 0.50028 0.44810 0.43223
 H166 H 0.43172 0.42826 0.51266
 H167 H 0.50470 0.40810 0.46858
 H168 H 0.40469 0.46831 0.49968
 H169 H 0.42792 0.51576 0.43022
 H170 H 0.46873 0.50328 0.40415
 H171 H 0.51778 0.43493 0.42897
 C172 C -0.05442 -0.03896 0.98588
 C173 C -0.04964 -0.06097 1.00336
 C174 C -0.02841 -0.07947 0.99808
 C175 C -0.01244 -0.07647 0.97465
 C176 C -0.01709 -0.05466 0.95687
 C177 C -0.03801 -0.03566 0.96262
 C178 C -0.07512 -0.02004 0.99149
 C179 C -0.07926 0.00279 0.97465
 C180 C -0.06306 0.00558 0.95117
 C181 C -0.04250 -0.01339 0.94511
 C182 C -0.02633 -0.01044 0.92182
 C183 C -0.00584 -0.02954 0.91582
 C184 C -0.00110 -0.05142 0.93352
 H185 H -0.06216 -0.06362 1.02130
 H186 H 0.00376 -0.09097 0.97051
 H187 H -0.08735 -0.02254 1.00966
 H188 H -0.06688 0.02223 0.93721
 H189 H -0.02960 0.00667 0.90830
 H190 H 0.01495 -0.06596 0.92894
 C191 C 1.04567 0.54034 0.99000
 C192 C 1.04002 0.56185 1.00806
 C193 C 1.01840 0.58020 1.00281
 C194 C 1.00341 0.57734 0.97820
 C195 C 1.00883 0.55591 0.95995
 C196 C 1.02986 0.53716 0.96600
 C197 C 1.06670 0.52176 0.99581
 C198 C 1.07174 0.49939 0.97836
 C199 C 1.05601 0.49665 0.95422
 C200 C 1.03519 0.51531 0.94797
 C201 C 1.01967 0.51254 0.92388
 C202 C 0.99911 0.53150 0.91749
 C203 C 0.99359 0.55297 0.93569
 H204 H 1.05187 0.56364 1.02682
 H205 H 0.98781 0.59217 0.97294
 H206 H 1.07855 0.52419 1.01450
 H207 H 1.06049 0.48037 0.93986
 H208 H 1.02355 0.49571 0.90999
 H209 H 0.97750 0.56740 0.93082
 C210 C 0.55809 0.04463 0.48477
 C211 C 0.55200 0.06520 0.50380
 C212 C 0.52849 0.08133 0.50056
 C213 C 0.51124 0.07718 0.47783
 C214 C 0.51696 0.05662 0.45872
 C215 C 0.54038 0.04013 0.46229
 C216 C 0.58169 0.02864 0.48777
 C217 C 0.58806 0.00816 0.46851
 C218 C 0.56959 0.00313 0.44678
 C219 C 0.54615 0.01924 0.44329
 C220 C 0.52868 0.01517 0.42076
 C221 C 0.50587 0.03210 0.41667
 C222 C 0.49986 0.05250 0.43592
 H223 H 0.56550 0.06876 0.52115
 H224 H 0.49342 0.09008 0.47508
 H225 H 0.59494 0.03185 0.50537
 H226 H 0.57412 -0.01255 0.43178
 H227 H 0.53303 -0.00082 0.40603
 H228 H 0.48207 0.06537 0.43285
 C229 C -0.05472 0.04630 0.51811
 C230 C -0.05110 0.06859 0.50082
 C231 C -0.02995 0.08723 0.50583
 C232 C -0.01199 0.08333 0.52798
 C233 C -0.01541 0.06122 0.54556
 C234 C -0.03689 0.04263 0.54066
 C235 C -0.07594 0.02771 0.51335
 C236 C -0.07950 0.00548 0.53078
 C237 C -0.06201 0.00210 0.55341
 C238 C -0.04064 0.02044 0.55838
 C239 C -0.02306 0.01708 0.58089
 C240 C -0.00189 0.03567 0.58598
 C241 C 0.00208 0.05750 0.56811
 H242 H -0.06478 0.07163 0.48354
 H243 H 0.00435 0.09779 0.53169
 H244 H -0.08967 0.03039 0.49605
 H245 H -0.06514 -0.01486 0.56708
 H246 H -0.02595 0.00018 0.59468
 H247 H 0.01862 0.07167 0.57202
 C248 C 0.44071 0.54245 0.01452
 C249 C 0.44589 0.56347 -0.00396
 C250 C 0.47009 0.57896 -0.00204
 C251 C 0.48843 0.57375 0.01973
 C252 C 0.48352 0.55282 0.03833
 C253 C 0.45970 0.53696 0.03564
 C254 C 0.41678 0.52690 0.01232
 C255 C 0.41158 0.50608 0.03108
 C256 C 0.43078 0.50037 0.05175
 C257 C 0.45478 0.51571 0.05422
 C258 C 0.47389 0.51025 0.07502
 C259 C 0.49774 0.52590 0.07764
 C260 C 0.50218 0.54744 0.05953
 H261 H 0.43070 0.56819 -0.01950
 H262 H 0.50717 0.58535 0.02166
 H263 H 0.40211 0.53092 -0.00391
 H264 H 0.42681 0.48413 0.06604
 H265 H 0.47026 0.49386 0.08924
 H266 H 0.52027 0.55995 0.06198
 C267 C 0.56823 -0.05036 0.02457
 C268 C 0.56395 -0.07327 0.00779
 C269 C 0.54192 -0.09086 0.01251
 C270 C 0.52366 -0.08494 0.03372
 C271 C 0.52797 -0.06249 0.05100
 C272 C 0.55029 -0.04505 0.04641
 C273 C 0.59027 -0.03281 0.02008
 C274 C 0.59482 -0.01033 0.03741
 C275 C 0.57686 -0.00507 0.05901
 C276 C 0.55468 -0.02233 0.06370
 C277 C 0.53700 -0.01744 0.08559
 C278 C 0.51525 -0.03521 0.09063
 C279 C 0.51054 -0.05739 0.07303
 H280 H 0.57787 -0.07764 -0.00878
 H281 H 0.50629 -0.09814 0.03697
 H282 H 0.60404 -0.03664 0.00325
 H283 H 0.58040 0.01234 0.07229
 H284 H 0.54030 -0.00007 0.09898
 H285 H 0.49357 -0.07094 0.07685
 C286 C 1.06441 0.45266 0.51973
 C287 C 1.06181 0.42949 0.50305
 C288 C 1.04289 0.40889 0.50924
 C289 C 1.02560 0.41264 0.53186
 C290 C 1.02785 0.43579 0.54862
 C291 C 1.04744 0.45583 0.54266
 C292 C 1.08392 0.47260 0.51400
 C293 C 1.08665 0.49567 0.53086
 C294 C 1.06980 0.49872 0.55374
 C295 C 1.05005 0.47906 0.55964
 C296 C 1.03294 0.48215 0.58227
 C297 C 1.01346 0.46221 0.58827
 C298 C 1.01085 0.43921 0.57130
 H299 H 1.07530 0.42703 0.48575
 H300 H 1.00994 0.39774 0.53611
 H301 H 1.09710 0.47023 0.49646
 H302 H 1.07222 0.51637 0.56695
 H303 H 1.03469 0.50003 0.59527
 H304 H 0.99572 0.42391 0.57598
 C305 C 0.42055 0.01033 0.21530
 H306 H 0.42058 0.02865 0.22769
 C307 C 0.43987 0.00694 0.19474
 H308 H 0.45478 0.02271 0.19113
 C309 C 0.40150 -0.03294 0.20518
 H310 H 0.38696 -0.04871 0.20964
 C311 C 0.42037 -0.03710 0.18437
 H312 H 0.42007 -0.05591 0.17271
 N313 N 0.40173 -0.00939 0.21999
 C314 C 0.33310 0.03099 0.25971
 H315 H 0.33133 0.01867 0.27783
 C316 C 0.31441 0.05195 0.25484
 H317 H 0.29824 0.05593 0.26930
 C318 C 0.35605 0.04064 0.21844
 H319 H 0.37199 0.03589 0.20408
 C320 C 0.33784 0.06184 0.21283
 H321 H 0.33997 0.07349 0.19427
 Zn322 Zn 0.37710 -0.00378 0.24914
 N323 N 0.35348 0.02583 0.24167
 C324 C 0.39529 0.02631 0.29582
 N325 N 0.39847 0.00312 0.28081
 C326 C 0.41833 -0.01532 0.28699
 C327 C 0.43607 -0.01076 0.30903
 C328 C 0.41252 0.03160 0.31814
 C329 C 0.33795 -0.04221 0.23313
 C330 C 0.32165 -0.06533 0.23524
 C331 C 0.33964 -0.07217 0.28084
 C332 C 0.35585 -0.04908 0.27775
 N333 N 0.35507 -0.03492 0.25397
 H334 H 0.37976 0.04095 0.29028
 H335 H 0.42060 -0.03340 0.27448
 H336 H 0.45203 -0.02538 0.31363
 H337 H 0.41009 0.05022 0.32985
 H338 H 0.33730 -0.03022 0.21469
 H339 H 0.30849 -0.07124 0.21831
 H340 H 0.34038 -0.08332 0.29985
 H341 H 0.36898 -0.04250 0.29437
 C342 C 0.31665 0.06745 0.23105
 C343 C 0.43987 -0.01707 0.17917
 C344 C 0.32276 -0.08083 0.25916
 C345 C 0.43332 0.01306 0.32464
 C346 C 0.08450 -0.01100 0.71614
 H347 H 0.08108 -0.02813 0.72942
 C348 C 0.06679 -0.00620 0.69415
 H349 H 0.04970 -0.01970 0.69040
 C350 C 0.11061 0.02792 0.70511
 H351 H 0.12772 0.04116 0.70949
 C352 C 0.09342 0.03346 0.68290
 H353 H 0.09729 0.05097 0.67021
 N354 N 0.10570 0.00615 0.72134
 C355 C 0.16722 -0.03867 0.76810
 H356 H 0.16818 -0.02680 0.78678
 C357 C 0.18336 -0.06196 0.76538
 H358 H 0.19662 -0.06811 0.78208
 C359 C 0.14884 -0.04511 0.72354
 H360 H 0.13544 -0.03841 0.70724
 C361 C 0.16491 -0.06836 0.71983
 H362 H 0.16387 -0.07945 0.70065
 Zn363 Zn 0.12733 0.00005 0.75289
 N364 N 0.14996 -0.03101 0.74756
 C365 C 0.10565 -0.02817 0.79864
 N366 N 0.10306 -0.00584 0.78247
 C367 C 0.08210 0.01208 0.78605
 C368 C 0.06333 0.00839 0.80700
 C369 C 0.08734 -0.03262 0.81982
 C370 C 0.17712 0.02934 0.75697
 C371 C 0.19352 0.05235 0.76037
 C372 C 0.15293 0.07889 0.76930
 C373 C 0.13731 0.05539 0.76582
 N374 N 0.14950 0.03119 0.75971
 H375 H 0.12164 -0.04283 0.79509
 H376 H 0.07949 0.02893 0.77224
 H377 H 0.04684 0.02286 0.80974
 H378 H 0.08967 -0.05041 0.83258
 H379 H 0.18650 0.01020 0.75145
 H380 H 0.21542 0.05073 0.75780
 H381 H 0.14299 0.09809 0.77383
 H382 H 0.11541 0.05673 0.76734
 C383 C 0.18193 -0.07733 0.74118
 C384 C 0.07097 0.01652 0.67760
 C385 C 0.18130 0.07747 0.76624
 C386 C 0.06587 -0.01426 0.82404
 C387 C 0.60322 0.48750 0.19806
 H388 H 0.61589 0.46972 0.20105
 C389 C 0.58697 0.48949 0.17454
 H390 H 0.58722 0.47322 0.15951
 C391 C 0.58619 0.52970 0.21445
 H392 H 0.58568 0.54509 0.23035
 C393 C 0.57000 0.53272 0.19104
 H394 H 0.55721 0.55060 0.18886
 N395 N 0.60283 0.50764 0.21729
 C396 C 0.64977 0.45364 0.26188
 H397 H 0.63479 0.45209 0.27784
 C398 C 0.66916 0.43298 0.25861
 H399 H 0.66915 0.41574 0.27226
 C400 C 0.66810 0.47771 0.22451
 H401 H 0.66751 0.49530 0.21134
 C402 C 0.68742 0.45727 0.22015
 H403 H 0.70152 0.45899 0.20334
 Zn404 Zn 0.62495 0.50481 0.24933
 N405 N 0.64979 0.47559 0.24509
 C406 C 0.57422 0.49748 0.27548
 N407 N 0.60171 0.49888 0.27993
 C408 C 0.61243 0.49525 0.30545
 C409 C 0.59541 0.49011 0.32757
 C410 C 0.55650 0.49244 0.29700
 C411 C 0.64563 0.55677 0.23455
 C412 C 0.66107 0.58042 0.23788
 C413 C 0.67826 0.56292 0.28068
 C414 C 0.66259 0.53955 0.27648
 N415 N 0.64604 0.53714 0.25408
 H416 H 0.56586 0.49983 0.25516
 H417 H 0.63424 0.49539 0.30867
 H418 H 0.60421 0.48691 0.34768
 H419 H 0.53471 0.49127 0.29313
 H420 H 0.63380 0.55403 0.21605
 H421 H 0.66057 0.59585 0.22220
 H422 H 0.69113 0.56467 0.29873
 H423 H 0.66405 0.52323 0.29098
 C424 C 0.68851 0.43487 0.23774
 C425 C 0.57061 0.51264 0.17058
 C426 C 0.67717 0.58385 0.26145
 C427 C 0.56716 0.48838 0.32329
 C428 C 0.91875 0.50796 0.71219
 H429 H 0.91923 0.52645 0.72431
 C430 C 0.93808 0.50372 0.69180
 H431 H 0.95338 0.51907 0.68800
 C432 C 0.89850 0.46513 0.70258
 H433 H 0.88333 0.44995 0.70713
 C434 C 0.91743 0.46008 0.68199
 H435 H 0.91663 0.44112 0.67059
 N436 N 0.89941 0.48882 0.71711
 C437 C 0.83113 0.53027 0.75626
 H438 H 0.82908 0.51798 0.77437
 C439 C 0.81277 0.55150 0.75129
 H440 H 0.79661 0.55572 0.76569
 C441 C 0.85458 0.53971 0.71524
 H442 H 0.87066 0.53485 0.70106
 C443 C 0.83672 0.56119 0.70953
 H444 H 0.83925 0.57294 0.69110
 Zn445 Zn 0.87514 0.49529 0.74633
 N446 N 0.85164 0.52492 0.73843
 C447 C 0.89323 0.52619 0.79244
 N448 N 0.89680 0.50289 0.77769
 C449 C 0.91697 0.48487 0.78411
 C450 C 0.93440 0.48983 0.80632
 C451 C 0.91017 0.53191 0.81487
 C452 C 0.83389 0.45827 0.73261
 C453 C 0.81674 0.43588 0.73574
 C454 C 0.83897 0.42661 0.77902
 C455 C 0.85558 0.44929 0.77516
 N456 N 0.85300 0.46438 0.75206
 H457 H 0.87746 0.54052 0.78673
 H458 H 0.91958 0.46669 0.77180
 H459 H 0.95038 0.47535 0.81130
 H460 H 0.90724 0.55051 0.82649
 H461 H 0.83204 0.47084 0.71463
 H462 H 0.80166 0.43108 0.72012
 H463 H 0.84123 0.41459 0.79736
 H464 H 0.87046 0.45478 0.79065
 C465 C 0.81547 0.56709 0.72762
 C466 C 0.93764 0.47941 0.67668
 C467 C 0.81945 0.41972 0.75905
 C468 C 0.93115 0.51370 0.82178
 C469 C 0.20478 0.41581 0.01950
 H470 H 0.21698 0.41626 0.03805
 C471 C 0.18103 0.43151 0.01760
 H472 H 0.17486 0.44401 0.03480
 C473 C 0.19793 0.39897 -0.02555
 H474 H 0.20474 0.38653 -0.04245
 C475 C 0.17425 0.41463 -0.02845
 H476 H 0.16291 0.41412 -0.04755
 N477 N 0.21234 0.39941 -0.00163
 C478 C 0.25955 0.33406 0.03640
 H479 H 0.27791 0.33449 0.02428
 C480 C 0.25647 0.31424 0.05646
 H481 H 0.27256 0.29945 0.05991
 C482 C 0.21579 0.35226 0.04620
 H483 H 0.19966 0.36662 0.04180
 C484 C 0.21193 0.33289 0.06649
 H485 H 0.19310 0.33283 0.07793
 Zn486 Zn 0.24403 0.37762 0.00279
 N487 N 0.23939 0.35263 0.03173
 C488 C 0.29002 0.39837 0.03234
 N489 N 0.27378 0.40124 0.00981
 C490 C 0.27792 0.42164 -0.00832
 C491 C 0.29945 0.43987 -0.00444
 C492 C 0.31186 0.41612 0.03695
 C493 C 0.23141 0.33746 -0.03578
 C494 C 0.23459 0.32137 -0.05913
 C495 C 0.27666 0.34505 -0.06842
 C496 C 0.27275 0.36065 -0.04480
 N497 N 0.25017 0.35688 -0.02928
 H498 H 0.28612 0.38237 0.04677
 H499 H 0.26452 0.42361 -0.02590
 H500 H 0.30277 0.45586 -0.01914
 H501 H 0.32482 0.41359 0.05482
 H502 H 0.21391 0.33459 -0.02279
 H503 H 0.21953 0.30596 -0.06414
 H504 H 0.29456 0.34834 -0.08079
 H505 H 0.28776 0.37569 -0.03894
 C506 C 0.23227 0.31338 0.07149
 C507 C 0.16522 0.43058 -0.00643
 C508 C 0.25722 0.32543 -0.07594
 C509 C 0.31661 0.43717 0.01846
 C510 C 0.71774 0.08398 -0.01059
 H511 H 0.73025 0.08262 -0.02865
 C512 C 0.69740 0.06469 -0.00620
 H513 H 0.69407 0.04850 -0.02097
 C514 C 0.70719 0.10634 0.03112
 H515 H 0.71141 0.12226 0.04586
 C516 C 0.68656 0.08752 0.03626
 H517 H 0.67479 0.08916 0.05483
 N518 N 0.72222 0.10429 0.00794
 C519 C 0.76374 0.16843 -0.03647
 H520 H 0.78164 0.17094 -0.02358
 C521 C 0.76022 0.18468 -0.05951
 H522 H 0.77549 0.19972 -0.06445
 C523 C 0.72185 0.14586 -0.04569
 H524 H 0.70680 0.13094 -0.04004
 C525 C 0.71753 0.16169 -0.06894
 H526 H 0.69922 0.15884 -0.08121
 Zn527 Zn 0.75167 0.12811 0.00126
 N528 N 0.74487 0.14924 -0.03024
 C529 C 0.79716 0.10676 -0.02766
 N530 N 0.78309 0.10619 -0.00382
 C531 C 0.79062 0.08929 0.01683
 C532 C 0.81394 0.07307 0.01451
 C533 C 0.82043 0.09062 -0.03096
 C534 C 0.73713 0.17105 0.03645
 C535 C 0.74066 0.19019 0.05744
 C536 C 0.78536 0.17113 0.06657
 C537 C 0.78106 0.15247 0.04537
 N538 N 0.75713 0.15256 0.03096
 H539 H 0.79035 0.11961 -0.04419
 H540 H 0.77867 0.08876 0.03529
 H541 H 0.82005 0.06010 0.03130
 H542 H 0.83151 0.09120 -0.05000
 H543 H 0.71851 0.17100 0.02437
 H544 H 0.72470 0.20489 0.06165
 H545 H 0.80450 0.17097 0.07787
 H546 H 0.79707 0.13825 0.04026
 C547 C 0.73707 0.18108 -0.07618
 C548 C 0.68178 0.06629 0.01759
 C549 C 0.76507 0.19030 0.07261
 C550 C 0.82937 0.07403 -0.00945
 C551 C 0.21402 0.58513 0.48641
 H552 H 0.22692 0.58298 0.46869
 C553 C 0.19167 0.56792 0.48962
 H554 H 0.18726 0.55247 0.47433
 C555 C 0.20421 0.60762 0.52823
 H556 H 0.20938 0.62284 0.54341
 C557 C 0.18159 0.59090 0.53219
 H558 H 0.16932 0.59338 0.55034
 N559 N 0.21968 0.60468 0.50543
 C560 C 0.26344 0.66909 0.46387
 H561 H 0.28171 0.67033 0.47643
 C562 C 0.25947 0.68732 0.44245
 H563 H 0.27480 0.70256 0.43832
 C564 C 0.22090 0.64798 0.45410
 H565 H 0.20571 0.63293 0.45895
 C566 C 0.21614 0.66578 0.43245
 H567 H 0.19743 0.66421 0.42057
 Zn568 Zn 0.25056 0.62688 0.49949
 N569 N 0.24433 0.64983 0.46918
 C570 C 0.29557 0.60563 0.46980
 N571 N 0.28068 0.60354 0.49303
 C572 C 0.28604 0.58379 0.51169
 C573 C 0.30725 0.56522 0.50741
 C574 C 0.31703 0.58755 0.46478
 C575 C 0.23879 0.66964 0.53538
 C576 C 0.24319 0.68799 0.55685
 C577 C 0.28579 0.66504 0.56703
 C578 C 0.28062 0.64714 0.54531
 N579 N 0.25735 0.64967 0.53008
 H580 H 0.29068 0.62108 0.45496
 H581 H 0.27365 0.58237 0.52980
 H582 H 0.31134 0.54950 0.52232
 H583 H 0.32872 0.58928 0.44620
 H584 H 0.22065 0.67140 0.52270
 H585 H 0.22834 0.70388 0.56083
 H586 H 0.30431 0.66284 0.57912
 H587 H 0.29534 0.63146 0.54051
 C588 C 0.23548 0.68582 0.42667
 C589 C 0.17507 0.57098 0.51259
 C590 C 0.26707 0.68592 0.57272
 C591 C 0.32281 0.56697 0.48362
 C592 C 0.71468 0.91919 0.51676
 H593 H 0.72586 0.91970 0.53593
 C594 C 0.69326 0.93747 0.51221
 H595 H 0.68765 0.95184 0.52809
 C596 C 0.70850 0.90004 0.47254
 H597 H 0.71478 0.88573 0.45696
 C598 C 0.68722 0.91822 0.46700
 H599 H 0.67707 0.91764 0.44724
 N600 N 0.72172 0.90081 0.49712
 C601 C 0.76567 0.83592 0.53959
 H602 H 0.78330 0.83412 0.52652
 C603 C 0.76290 0.81856 0.56182
 H604 H 0.77837 0.80327 0.56585
 C605 C 0.72361 0.85753 0.54986
 H606 H 0.70808 0.87237 0.54489
 C607 C 0.72011 0.84070 0.57243
 H608 H 0.70206 0.84290 0.58489
 Zn609 Zn 0.75217 0.87787 0.50375
 N610 N 0.74639 0.85521 0.53429
 C611 C 0.79888 0.89803 0.53252
 N612 N 0.78276 0.90060 0.50987
 C613 C 0.78788 0.91983 0.49074
 C614 C 0.81055 0.93681 0.49349
 C615 C 0.82183 0.91455 0.53603
 C616 C 0.73935 0.83574 0.46704
 C617 C 0.74331 0.81779 0.44519
 C618 C 0.78660 0.83949 0.43656
 C619 C 0.78190 0.85693 0.45866
 N620 N 0.75846 0.85492 0.47324
 H621 H 0.79413 0.88309 0.54781
 H622 H 0.77449 0.92167 0.47313
 H623 H 0.81471 0.95178 0.47796
 H624 H 0.83478 0.91218 0.55393
 H625 H 0.72105 0.83439 0.47918
 H626 H 0.72799 0.80260 0.44033
 H627 H 0.80528 0.84124 0.42503
 H628 H 0.79711 0.87188 0.46420
 C629 C 0.74014 0.82125 0.57881
 C630 C 0.67964 0.93742 0.48686
 C631 C 0.76722 0.81960 0.42982
 C632 C 0.82799 0.93388 0.51613
 C633 C 0.01550 0.21368 0.41662
 H634 H 0.03356 0.22616 0.41887
 C635 C 0.01086 0.19254 0.43486
 H636 H 0.02543 0.18865 0.45117
 C637 C -0.02590 0.20392 0.39297
 H638 H -0.04027 0.20866 0.37677
 C639 C -0.03127 0.18248 0.41070
 H640 H -0.04969 0.17056 0.40799
 N641 N -0.00282 0.21899 0.39626
 C642 C 0.03984 0.26097 0.33143
 H643 H 0.02787 0.27946 0.33017
 C644 C 0.06067 0.25610 0.31272
 H645 H 0.06485 0.27093 0.29705
 C646 C 0.04855 0.21869 0.35293
 H647 H 0.04350 0.20398 0.36835
 C648 C 0.06963 0.21307 0.33470
 H649 H 0.08096 0.19418 0.33636
 Zn650 Zn 0.00407 0.24938 0.37402
 N651 N 0.03416 0.24234 0.35099
 C652 C 0.03575 0.29281 0.39591
 N653 N 0.01171 0.27911 0.39767
 C654 C -0.00660 0.28505 0.41760
 C655 C -0.00123 0.30576 0.43655
 C656 C 0.04203 0.31353 0.41459
 C657 C -0.02977 0.24080 0.32859
 C658 C -0.05046 0.24637 0.30959
 C659 C -0.06497 0.28399 0.33802
 C660 C -0.04362 0.27809 0.35619
 N661 N -0.02650 0.25681 0.35117
 H662 H 0.05032 0.28742 0.38035
 H663 H -0.02528 0.27344 0.41893
 H664 H -0.01601 0.31041 0.45225
 H665 H 0.06131 0.32415 0.41315
 H666 H -0.01585 0.22404 0.32505
 H667 H -0.05241 0.23386 0.29138
 H668 H -0.07856 0.30088 0.34231
 H669 H -0.04066 0.29073 0.37407
 C670 C 0.07552 0.23173 0.31406
 C671 C -0.01294 0.17695 0.43218
 C672 C -0.06804 0.26852 0.31399
 C673 C 0.02354 0.31993 0.43537
 C674 C -0.01054 0.72066 0.07742
 H675 H -0.01992 0.73888 0.06935
 C676 C -0.00878 0.69742 0.06095
 H677 H -0.01644 0.69790 0.04012
 C678 C 0.01041 0.69742 0.11439
 H679 H 0.01776 0.69735 0.13521
 C680 C 0.01258 0.67375 0.09863
 H681 H 0.02164 0.65565 0.10741
 N682 N -0.00083 0.72036 0.10359
 C683 C -0.03511 0.75980 0.17328
 H684 H -0.01701 0.76964 0.18137
 C685 C -0.05847 0.75808 0.18933
 H686 H -0.05822 0.76625 0.20994
 C687 C -0.05785 0.73747 0.13648
 H688 H -0.05744 0.72965 0.11578
 C689 C -0.08164 0.73535 0.15181
 H690 H -0.09958 0.72578 0.14293
 Zn691 Zn -0.00397 0.75242 0.12530
 N692 N -0.03520 0.74945 0.14742
 C693 C -0.02903 0.80076 0.10660
 N694 N -0.00825 0.78287 0.10213
 C695 C 0.00972 0.78652 0.08144
 C696 C 0.00740 0.80913 0.06446
 C697 C -0.03203 0.82368 0.09016
 C698 C 0.03165 0.73998 0.16926
 C699 C 0.05480 0.74255 0.18596
 C700 C 0.06906 0.78067 0.15875
 C701 C 0.04561 0.77743 0.14260
 N702 N 0.02766 0.75703 0.14777
 H703 H -0.04310 0.79746 0.12312
 H704 H 0.02598 0.77191 0.07828
 H705 H 0.02192 0.81201 0.04818
 H706 H -0.04849 0.83796 0.09396
 H707 H 0.01664 0.72457 0.17369
 H708 H 0.05776 0.72888 0.20300
 H709 H 0.08334 0.79678 0.15427
 H710 H 0.04191 0.79123 0.12593
 C711 C -0.08210 0.74593 0.17846
 C712 C 0.00277 0.67362 0.07167
 C713 C 0.07399 0.76282 0.18043
 C714 C -0.01347 0.82812 0.06905
 C715 C 0.50280 0.19482 0.61613
 H716 H 0.50194 0.19316 0.63804
 C717 C 0.50661 0.17132 0.60038
 H718 H 0.50835 0.15173 0.61026
 C719 C 0.50304 0.22207 0.57642
 H720 H 0.50231 0.24184 0.56703
 C721 C 0.50674 0.19910 0.55993
 H722 H 0.50841 0.20137 0.53801
 N723 N 0.50068 0.21961 0.60401
 C724 C 0.44177 0.26532 0.64455
 H725 H 0.44242 0.28155 0.62991
 C726 C 0.41850 0.26238 0.66050
 H727 H 0.40133 0.27605 0.65765
 C728 C 0.46351 0.22883 0.66754
 H729 H 0.48146 0.21651 0.67101
 C730 C 0.44061 0.22515 0.68390
 H731 H 0.44078 0.20950 0.69937
 Zn732 Zn 0.49507 0.25170 0.62557
 N733 N 0.46345 0.24814 0.64772
 C734 C 0.46933 0.28194 0.58398
 N735 N 0.49092 0.28186 0.60173
 C736 C 0.50969 0.30224 0.60177
 C737 C 0.50715 0.32374 0.58338
 C738 C 0.46583 0.30319 0.56556
 C739 C 0.54798 0.24153 0.64767
 C740 C 0.56965 0.24548 0.66605
 C741 C 0.54435 0.28241 0.68680
 C742 C 0.52311 0.27766 0.66816
 N743 N 0.52525 0.25744 0.64919
 H744 H 0.45489 0.26533 0.58408
 H745 H 0.52691 0.30165 0.61574
 H746 H 0.52234 0.33972 0.58339
 H747 H 0.44840 0.30313 0.55176
 H748 H 0.54933 0.22573 0.63227
 H749 H 0.58761 0.23263 0.66482
 H750 H 0.54251 0.29864 0.70176
 H751 H 0.50481 0.29003 0.66882
 C752 C 0.41760 0.24170 0.68000
 C753 C 0.50818 0.17337 0.57191
 C754 C 0.56773 0.26588 0.68610
 C755 C 0.48518 0.32413 0.56479
 C756 C 0.51422 0.69328 0.89354
 H757 H 0.53013 0.69264 0.87850
 C758 C 0.50915 0.67006 0.90895
 H759 H 0.52099 0.65174 0.90540
 C760 C 0.48045 0.71785 0.91780
 H761 H 0.47002 0.73680 0.92192
 C762 C 0.47471 0.69509 0.93366
 H763 H 0.45941 0.69644 0.94945
 N764 N 0.49937 0.71641 0.89762
 C765 C 0.55724 0.76112 0.85486
 H766 H 0.55650 0.77824 0.86878
 C767 C 0.58012 0.75746 0.83840
 H768 H 0.59690 0.77172 0.83981
 C769 C 0.53600 0.72243 0.83492
 H770 H 0.51849 0.70911 0.83337
 C771 C 0.55860 0.71783 0.81832
 H772 H 0.55857 0.70079 0.80417
 Zn773 Zn 0.50499 0.74812 0.87615
 N774 N 0.53595 0.74340 0.85325
 C775 C 0.53207 0.77518 0.91877
 N776 N 0.51101 0.77752 0.90061
 C777 C 0.49450 0.79984 0.90049
 C778 C 0.49874 0.82082 0.91947
 C779 C 0.53737 0.79591 0.93768
 C780 C 0.44830 0.75589 0.86509
 C781 C 0.42511 0.75958 0.84868
 C782 C 0.45423 0.76214 0.80927
 C783 C 0.47689 0.75846 0.82641
 N784 N 0.47360 0.75491 0.85377
 H785 H 0.54487 0.75720 0.91839
 H786 H 0.47795 0.80134 0.88581
 H787 H 0.48530 0.83837 0.91939
 H788 H 0.55453 0.79401 0.95168
 H789 H 0.44597 0.75381 0.88683
 H790 H 0.40508 0.76012 0.85789
 H791 H 0.45710 0.76457 0.78750
 H792 H 0.49708 0.75843 0.81774
 C793 C 0.58119 0.73520 0.82035
 C794 C 0.48878 0.67071 0.92884
 C795 C 0.42800 0.76221 0.82038
 C796 C 0.52020 0.81881 0.93857
 C797 C 0.11804 0.19837 0.25748
 C798 C 0.14082 0.21613 0.25767
 C799 C 0.14115 0.23866 0.27531
 C800 C 0.11972 0.24343 0.29321
 C801 C 0.09725 0.22588 0.29396
 C802 C 0.09599 0.20336 0.27567
 C803 C 0.11640 0.17613 0.23911
 C804 C 0.09363 0.15916 0.23874
 C805 C 0.07199 0.16416 0.25632
 C806 C 0.07298 0.18609 0.27451
 H807 H 0.13249 0.17183 0.22470
 H808 H 0.09265 0.14220 0.22453
 H809 H 0.05423 0.15108 0.25570
 H810 H 0.05541 0.18954 0.28731
 H811 H 0.15836 0.25247 0.27545
 H812 H 0.12082 0.26082 0.30691
 C813 C 0.65466 0.72402 0.79569
 C814 C 0.64991 0.72330 0.76703
 C815 C 0.62327 0.72665 0.75689
 C816 C 0.60141 0.73033 0.77450
 C817 C 0.60539 0.73061 0.80287
 C818 C 0.63215 0.72698 0.81377
 C819 C 0.68134 0.72219 0.80681
 C820 C 0.68560 0.72178 0.83501
 C821 C 0.66351 0.72322 0.85263
 C822 C 0.63702 0.72576 0.84223
 H823 H 0.69913 0.72126 0.79392
 H824 H 0.70615 0.72019 0.84323
 H825 H 0.66693 0.72250 0.87450
 H826 H 0.62049 0.72653 0.85671
 H827 H 0.61931 0.72614 0.73507
 H828 H 0.58113 0.73309 0.76586
 C829 C 0.36034 0.74925 0.78242
 C830 C 0.35782 0.77410 0.76802
 C831 C 0.37792 0.79410 0.77129
 C832 C 0.40052 0.78976 0.78820
 C833 C 0.40368 0.76533 0.80243
 C834 C 0.38367 0.74466 0.79944
 C835 C 0.34003 0.72896 0.78051
 C836 C 0.34312 0.70435 0.79421
 C837 C 0.36638 0.69947 0.81002
 C838 C 0.38652 0.71934 0.81265
 H839 H 0.32154 0.73193 0.76861
 H840 H 0.32744 0.68894 0.79245
 H841 H 0.36879 0.68022 0.82037
 H842 H 0.40433 0.71457 0.82498
 H843 H 0.37622 0.81315 0.76040
 H844 H 0.41567 0.80569 0.79030
 C845 C -0.11447 0.30675 0.26319
 C846 C -0.13376 0.28582 0.25693
 C847 C -0.12932 0.25971 0.26764
 C848 C -0.10797 0.25464 0.28586
 C849 C -0.08972 0.27522 0.29362
 C850 C -0.09229 0.30132 0.28157
 C851 C -0.11538 0.33226 0.24993
 C852 C -0.09593 0.35220 0.25557
 C853 C -0.07464 0.34701 0.27377
 C854 C -0.07251 0.32176 0.28636
 H855 H -0.13051 0.33685 0.23441
 H856 H -0.09706 0.37161 0.24530
 H857 H -0.05930 0.36241 0.27768
 H858 H -0.05481 0.31831 0.29924
 H859 H -0.14342 0.24329 0.26310
 H860 H -0.10605 0.23448 0.29452
 C861 C -0.14552 0.76311 0.22085
 C862 C -0.15341 0.73633 0.22874
 C863 C -0.13905 0.71399 0.21776
 C864 C -0.11636 0.71764 0.20135
 C865 C -0.10709 0.74369 0.19509
 C866 C -0.12194 0.76673 0.20430
 C867 C -0.16162 0.78624 0.22720
 C868 C -0.15368 0.81220 0.21928
 C869 C -0.13008 0.81572 0.20417
 C870 C -0.11449 0.79326 0.19641
 H871 H -0.18092 0.78453 0.23756
 H872 H -0.16618 0.82964 0.22452
 H873 H -0.12417 0.83591 0.19786
 H874 H -0.09697 0.79690 0.18367
 H875 H -0.14434 0.69334 0.22315
 H876 H -0.10539 0.69986 0.19411
 C877 C 0.34384 0.22952 0.70257
 C878 C 0.34698 0.23298 0.73145
 C879 C 0.37282 0.24040 0.74192
 C880 C 0.39531 0.24277 0.72498
 C881 C 0.39296 0.23802 0.69688
 C882 C 0.36719 0.23110 0.68541
 C883 C 0.31786 0.22625 0.69003
 C884 C 0.31530 0.22182 0.66196
 C885 C 0.33839 0.22108 0.64565
 C886 C 0.36410 0.22582 0.65713
 H887 H 0.29920 0.22768 0.70158
 H888 H 0.29528 0.21901 0.65281
 H889 H 0.33631 0.21734 0.62391
 H890 H 0.38145 0.22540 0.64362
 H891 H 0.37613 0.24315 0.76368
 H892 H 0.41488 0.24828 0.73394
 C893 C 0.60949 0.27474 0.75236
 C894 C 0.63559 0.28112 0.74126
 C895 C 0.63783 0.28342 0.71271
 C896 C 0.61577 0.27815 0.69541
 C897 C 0.59049 0.27043 0.70579
 C898 C 0.58718 0.26836 0.73445
 C899 C 0.60444 0.27620 0.78076
 C900 C 0.57921 0.26876 0.79131
 C901 C 0.55829 0.26022 0.77388
 C902 C 0.56208 0.26012 0.74572
 H903 H 0.61963 0.28367 0.79509
 H904 H 0.57586 0.26967 0.81312
 H905 H 0.53885 0.25413 0.78221
 H906 H 0.54515 0.25361 0.73293
 H907 H 0.65723 0.28806 0.70337
 H908 H 0.61851 0.27997 0.67355
 C909 C 0.14230 0.74931 0.21697
 C910 C 0.14466 0.77376 0.23236
 C911 C 0.12464 0.79397 0.22965
 C912 C 0.10207 0.79008 0.21259
 C913 C 0.09883 0.76586 0.19768
 C914 C 0.11920 0.74534 0.19943
 C915 C 0.16275 0.72900 0.21806
 C916 C 0.16038 0.70527 0.20247
 C917 C 0.13789 0.70142 0.18529
 C918 C 0.11754 0.72126 0.18358
 H919 H 0.18088 0.73139 0.23065
 H920 H 0.17622 0.68988 0.20352
 H921 H 0.13631 0.68306 0.17303
 H922 H 0.10077 0.71767 0.16948
 H923 H 0.12634 0.81282 0.24116
 H924 H 0.08675 0.80599 0.21128
 C925 C 0.25090 0.10659 0.21410
 C926 C 0.26095 0.13362 0.21568
 C927 C 0.28872 0.13806 0.22113
 C928 C 0.30643 0.11635 0.22579
 C929 C 0.29689 0.08953 0.22523
 C930 C 0.26902 0.08436 0.21904
 C931 C 0.22341 0.10110 0.20702
 C932 C 0.21390 0.07442 0.20536
 C933 C 0.23156 0.05274 0.21035
 C934 C 0.25890 0.05754 0.21696
 H935 H 0.20911 0.11725 0.20234
 H936 H 0.19277 0.07054 0.19994
 H937 H 0.22409 0.03207 0.20882
 H938 H 0.27201 0.04007 0.22009
 H939 H 0.29669 0.15859 0.22220
 H940 H 0.32774 0.12051 0.23029
 C941 C 0.75088 0.60879 0.71234
 C942 C 0.76192 0.63542 0.71418
 C943 C 0.78998 0.63874 0.71891
 C944 C 0.80699 0.61634 0.72275
 C945 C 0.79647 0.58990 0.72208
 C946 C 0.76829 0.58584 0.71644
 C947 C 0.72305 0.60441 0.70585
 C948 C 0.71254 0.57812 0.70396
 C949 C 0.72951 0.55574 0.70814
 C950 C 0.75715 0.55944 0.71417
 H951 H 0.70926 0.62116 0.70180
 H952 H 0.69116 0.57510 0.69900
 H953 H 0.72126 0.53538 0.70645
 H954 H 0.76971 0.54147 0.71667
 H955 H 0.79872 0.65894 0.72022
 H956 H 0.82852 0.61967 0.72686
 C957 C 0.79340 0.34658 0.76439
 C958 C 0.76577 0.35182 0.77133
 C959 C 0.75647 0.37876 0.77300
 C960 C 0.77412 0.40042 0.76867
 C961 C 0.80164 0.39582 0.76271
 C962 C 0.81153 0.36880 0.76028
 C963 C 0.80328 0.31978 0.76075
 C964 C 0.83048 0.31500 0.75392
 C965 C 0.84825 0.33670 0.75028
 C966 C 0.83893 0.36338 0.75326
 H967 H 0.79009 0.30232 0.76274
 H968 H 0.83776 0.29435 0.75125
 H969 H 0.86930 0.33284 0.74486
 H970 H 0.85329 0.37965 0.74975
 H971 H 0.73540 0.38308 0.77812
 H972 H 0.76633 0.42101 0.77039
 C973 C 0.29909 -0.15440 0.27019
 C974 C 0.27018 -0.15056 0.26857
 C975 C 0.26003 -0.12471 0.26154
 C976 C 0.27740 -0.10267 0.25839
 C977 C 0.30566 -0.10554 0.26172
 C978 C 0.31686 -0.13167 0.26693
 C979 C 0.31088 -0.18061 0.27283
 C980 C 0.33912 -0.18410 0.27392
 C981 C 0.35633 -0.16183 0.27155
 C982 C 0.34543 -0.13591 0.26771
 H983 H 0.29854 -0.19878 0.27319
 H984 H 0.34772 -0.20429 0.27610
 H985 H 0.37826 -0.16473 0.27204
 H986 H 0.35966 -0.11946 0.26469
 H987 H 0.23824 -0.12100 0.25999
 H988 H 0.26858 -0.08291 0.25402
 C989 C 0.20477 -0.15135 0.72928
 C990 C 0.23372 -0.14801 0.73099
 C991 C 0.24417 -0.12226 0.73814
 C992 C 0.22706 -0.09990 0.74141
 C993 C 0.19876 -0.10231 0.73811
 C994 C 0.18726 -0.12828 0.73270
 C995 C 0.19268 -0.17737 0.72645
 C996 C 0.16440 -0.18038 0.72532
 C997 C 0.14745 -0.15780 0.72786
 C998 C 0.15864 -0.13205 0.73190
 H999 H 0.20480 -0.19576 0.72596
 H1000 H 0.15557 -0.20044 0.72299
 H1001 H 0.12549 -0.16034 0.72736
 H1002 H 0.14459 -0.11535 0.73505
 H1003 H 0.26600 -0.11893 0.73974
 H1004 H 0.23611 -0.08026 0.74594
 C1005 C 0.75551 0.39621 0.22449
 C1006 C 0.74518 0.36934 0.22167
 C1007 C 0.71711 0.36484 0.22456
 C1008 C 0.69930 0.38621 0.23014
 C1009 C 0.70894 0.41285 0.23349
 C1010 C 0.73741 0.41793 0.23146
 C1011 C 0.78336 0.40212 0.22011
 C1012 C 0.79347 0.42830 0.22440
 C1013 C 0.77616 0.44907 0.23301
 C1014 C 0.74841 0.44404 0.23656
 H1015 H 0.79753 0.38674 0.21313
 H1016 H 0.81491 0.43245 0.22120
 H1017 H 0.78423 0.46925 0.23678
 H1018 H 0.73581 0.46074 0.24356
 H1019 H 0.70886 0.34448 0.22253
 H1020 H 0.67766 0.38194 0.23157
 C1021 C 0.69966 0.65816 0.26999
 C1022 C 0.72837 0.65436 0.27184
 C1023 C 0.73928 0.62806 0.27004
 C1024 C 0.72233 0.60558 0.26686
 C1025 C 0.69390 0.60866 0.26538
 C1026 C 0.68225 0.63508 0.26723
 C1027 C 0.68787 0.68441 0.27052
 C1028 C 0.65959 0.68778 0.26953
 C1029 C 0.64255 0.66520 0.26797
 C1030 C 0.65366 0.63907 0.26686
 H1031 H 0.70032 0.70254 0.27151
 H1032 H 0.65084 0.70803 0.27009
 H1033 H 0.62060 0.66795 0.26751
 H1034 H 0.63964 0.62213 0.26589
 H1035 H 0.76116 0.62487 0.27146
 H1036 H 0.73149 0.58553 0.26544
 C1037 C 0.21290 0.14723 0.75294
 C1038 C 0.23082 0.14911 0.77582
 C1039 C 0.23190 0.12788 0.79472
 C1040 C 0.21586 0.10477 0.79113
 C1041 C 0.19813 0.10230 0.76865
 C1042 C 0.19662 0.12349 0.74917
 C1043 C 0.21062 0.16854 0.73384
 C1044 C 0.19329 0.16617 0.71117
 C1045 C 0.17795 0.14267 0.70709
 C1046 C 0.17954 0.12148 0.72583
 H1047 H 0.22203 0.18722 0.73630
 H1048 H 0.19182 0.18263 0.69665
 H1049 H 0.16470 0.14088 0.68934
 H1050 H 0.16738 0.10353 0.72176
 H1051 H 0.24553 0.12912 0.81226
 H1052 H 0.21717 0.08869 0.80612
 C1053 C 0.20243 0.25504 0.11325
 C1054 C 0.22053 0.25566 0.13602
 C1055 C 0.24257 0.27373 0.13631
 C1056 C 0.24634 0.29183 0.11493
 C1057 C 0.22825 0.29232 0.09258
 C1058 C 0.20643 0.27338 0.09124
 C1059 C 0.18071 0.23623 0.11167
 C1060 C 0.16337 0.23547 0.08891
 C1061 C 0.16746 0.25314 0.06726
 C1062 C 0.18883 0.27184 0.06824
 H1063 H 0.17711 0.22178 0.12781
 H1064 H 0.14684 0.22091 0.08796
 H1065 H 0.15412 0.25223 0.04951
 H1066 H 0.19159 0.28473 0.05068
 H1067 H 0.25664 0.27419 0.15353
 H1068 H 0.26320 0.30605 0.11613
 C1069 C 0.75209 0.78315 0.64608
 C1070 C 0.72874 0.76617 0.64576
 C1071 C 0.70962 0.76831 0.62446
 C1072 C 0.71360 0.78645 0.60318
 C1073 C 0.73675 0.80313 0.60262
 C1074 C 0.75603 0.80197 0.62445
 C1075 C 0.77128 0.78226 0.66778
 C1076 C 0.79381 0.79955 0.66820
 C1077 C 0.79748 0.81820 0.64730
 C1078 C 0.77876 0.81959 0.62569
 H1079 H 0.76894 0.76844 0.68469
 H1080 H 0.80835 0.79867 0.68498
 H1081 H 0.81484 0.83180 0.64793
 H1082 H 0.78211 0.83483 0.61028
 H1083 H 0.69161 0.75554 0.62414
 H1084 H 0.69863 0.78721 0.58674
 C1085 C 0.78147 0.75581 0.38682
 C1086 C 0.77950 0.76713 0.36027
 C1087 C 0.77471 0.79508 0.35741
 C1088 C 0.77106 0.81171 0.38020
 C1089 C 0.77193 0.80090 0.40655
 C1090 C 0.77746 0.77283 0.41016
 C1091 C 0.78801 0.72810 0.39076
 C1092 C 0.78994 0.71732 0.41698
 C1093 C 0.78574 0.73389 0.43974
 C1094 C 0.77972 0.76142 0.43648
 H1095 H 0.79207 0.71461 0.37372
 H1096 H 0.79492 0.69603 0.41967
 H1097 H 0.78743 0.72542 0.46004
 H1098 H 0.77715 0.77367 0.45473
 H1099 H 0.77328 0.80402 0.33727
 H1100 H 0.76706 0.83319 0.37724
 C1101 C 0.24595 0.29066 -0.14552
 C1102 C 0.26931 0.27355 -0.14604
 C1103 C 0.28839 0.27481 -0.12460
 C1104 C 0.28427 0.29203 -0.10232
 C1105 C 0.26099 0.30861 -0.10086
 C1106 C 0.24182 0.30846 -0.12281
 C1107 C 0.22692 0.29091 -0.16739
 C1108 C 0.20432 0.30822 -0.16686
 C1109 C 0.20040 0.32578 -0.14481
 C1110 C 0.21898 0.32610 -0.12304
 H1111 H 0.22947 0.27800 -0.18518
 H1112 H 0.18991 0.30820 -0.18378
 H1113 H 0.18297 0.33939 -0.14467
 H1114 H 0.21545 0.34053 -0.10667
 H1115 H 0.30642 0.26196 -0.12491
 H1116 H 0.29916 0.29207 -0.08579
 C1117 C 0.72848 0.20439 -0.15039
 C1118 C 0.72444 0.23267 -0.14594
 C1119 C 0.72553 0.24317 -0.11928
 C1120 C 0.72981 0.22613 -0.09706
 C1121 C 0.73310 0.19805 -0.10077
 C1122 C 0.73282 0.18693 -0.12760
 C1123 C 0.72904 0.19317 -0.17702
 C1124 C 0.73338 0.16540 -0.18109
 C1125 C 0.73759 0.14836 -0.15886
 C1126 C 0.73750 0.15893 -0.13235
 H1127 H 0.72650 0.20573 -0.19492
 H1128 H 0.73374 0.15710 -0.20163
 H1129 H 0.74119 0.12685 -0.16218
 H1130 H 0.74147 0.14503 -0.11575
 H1131 H 0.72265 0.26475 -0.11563
 H1132 H 0.73020 0.23490 -0.07668
 C1133 C 0.22221 0.75064 0.38549
 C1134 C 0.22248 0.73950 0.35866
 C1135 C 0.22610 0.71144 0.35502
 C1136 C 0.23009 0.69445 0.37732
 C1137 C 0.23067 0.70498 0.40395
 C1138 C 0.22643 0.73323 0.40833
 C1139 C 0.21710 0.77857 0.39018
 C1140 C 0.21663 0.78916 0.41668
 C1141 C 0.22087 0.77218 0.43896
 C1142 C 0.22556 0.74446 0.43495
 H1143 H 0.21306 0.79241 0.37355
 H1144 H 0.21272 0.81061 0.41996
 H1145 H 0.22026 0.78050 0.45949
 H1146 H 0.22815 0.73194 0.45288
 H1147 H 0.22617 0.70265 0.33466
 H1148 H 0.23311 0.67287 0.37375
 C1149 C 0.29908 0.74076 0.61897
 C1150 C 0.28044 0.74018 0.64096
 C1151 C 0.25777 0.72292 0.63952
 C1152 C 0.25372 0.70575 0.61714
 C1153 C 0.27218 0.70533 0.59546
 C1154 C 0.29487 0.72325 0.59597
 C1155 C 0.32143 0.75886 0.61901
 C1156 C 0.33931 0.75956 0.59703
 C1157 C 0.33513 0.74258 0.57452
 C1158 C 0.31308 0.72469 0.57382
 H1159 H 0.32511 0.77284 0.63580
 H1160 H 0.35635 0.77355 0.59735
 H1161 H 0.34893 0.74343 0.55740
 H1162 H 0.31028 0.71235 0.55564
 H1163 H 0.24330 0.72244 0.65613
 H1164 H 0.23619 0.69233 0.61690
 C1165 C 0.78122 0.25660 0.11091
 C1166 C 0.78028 0.24713 0.13824
 C1167 C 0.77454 0.21970 0.14313
 C1168 C 0.76944 0.20171 0.12161
 C1169 C 0.76975 0.21062 0.09453
 C1170 C 0.77570 0.23821 0.08890
 C1171 C 0.78836 0.28372 0.10490
 C1172 C 0.78935 0.29263 0.07794
 C1173 C 0.78362 0.27475 0.05649
 C1174 C 0.77701 0.24774 0.06180
 H1175 H 0.79360 0.29818 0.12083
 H1176 H 0.79480 0.31349 0.07367
 H1177 H 0.78457 0.28177 0.03561
 H1178 H 0.77319 0.23442 0.04450
 H1179 H 0.77394 0.21216 0.16386
 H1180 H 0.76517 0.18060 0.12610
 C1181 C 0.47420 0.36431 0.49866
 C1182 C 0.47250 0.39108 0.50964
 C1183 C 0.47539 0.39508 0.53788
 C1184 C 0.47998 0.37322 0.55526
 C1185 C 0.48206 0.34664 0.54497
 C1186 C 0.47986 0.34204 0.51636
 C1187 C 0.46997 0.35906 0.47051
 C1188 C 0.47291 0.33286 0.45984
 C1189 C 0.48001 0.31141 0.47689
 C1190 C 0.48349 0.31584 0.50487
 H1191 H 0.46415 0.37501 0.45650
 H1192 H 0.46981 0.32921 0.43820
 H1193 H 0.48267 0.29118 0.46843
 H1194 H 0.48927 0.29861 0.51727
 H1195 H 0.47416 0.41538 0.54656
 H1196 H 0.48160 0.37705 0.57704
 C1197 C -0.01490 0.90195 0.04462
 C1198 C -0.02309 0.89772 0.01702
 C1199 C -0.02663 0.87116 0.00711
 C1200 C -0.02307 0.84891 0.02420
 C1201 C -0.01593 0.85254 0.05174
 C1202 C -0.01138 0.87916 0.06215
 C1203 C -0.00947 0.92829 0.05502
 C1204 C -0.00123 0.93209 0.08212
 C1205 C 0.00208 0.90984 0.09927
 C1206 C -0.00276 0.88358 0.08944
 H1207 H -0.01116 0.94612 0.04229
 H1208 H 0.00283 0.95240 0.08980
 H1209 H 0.00868 0.91291 0.12023
 H1210 H 0.00063 0.86685 0.10331
 H1211 H -0.03269 0.86766 -0.01398
 H1212 H -0.02639 0.82864 0.01599
 C1213 C -0.01405 0.61004 0.02880
 C1214 C 0.01294 0.60188 0.02127
 C1215 C 0.03525 0.61649 0.03223
 C1216 C 0.03140 0.63941 0.04852
 C1217 C 0.00518 0.64875 0.05462
 C1218 C -0.01786 0.63393 0.04514
 C1219 C -0.03721 0.59394 0.02238
 C1220 C -0.06336 0.60217 0.02992
 C1221 C -0.06706 0.62610 0.04474
 C1222 C -0.04458 0.64169 0.05264
 H1223 H -0.03541 0.57442 0.01227
 H1224 H -0.08082 0.58967 0.02461
 H1225 H -0.08740 0.63226 0.05074
 H1226 H -0.04836 0.65951 0.06513
 H1227 H 0.05604 0.61104 0.02706
 H1228 H 0.04917 0.65041 0.05594
 C1229 C 0.49826 0.10450 0.53579
 C1230 C 0.52260 0.10353 0.52030
 C1231 C 0.54147 0.12478 0.52264
 C1232 C 0.53640 0.14709 0.53951
 C1233 C 0.51230 0.14887 0.55462
 C1234 C 0.49286 0.12756 0.55277
 C1235 C 0.47925 0.08294 0.53498
 C1236 C 0.45504 0.08452 0.54968
 C1237 C 0.44929 0.10747 0.56543
 C1238 C 0.46792 0.12885 0.56700
 H1239 H 0.48297 0.06465 0.52316
 H1240 H 0.44060 0.06789 0.54876
 H1241 H 0.43032 0.10869 0.57657
 H1242 H 0.46249 0.14635 0.57932
 H1243 H 0.56013 0.12431 0.51091
 H1244 H 0.55141 0.16322 0.54074
 C1245 C -0.04558 0.13281 0.48728
 C1246 C -0.02661 0.11097 0.48779
 C1247 C -0.00374 0.11163 0.47088
 C1248 C 0.00028 0.13319 0.45310
 C1249 C -0.01839 0.15480 0.45174
 C1250 C -0.04138 0.15500 0.46921
 C1251 C -0.06828 0.13342 0.50488
 C1252 C -0.08645 0.15532 0.50461
 C1253 C -0.08223 0.17709 0.48716
 C1254 C -0.05986 0.17712 0.46972
 H1255 H -0.07203 0.11721 0.51918
 H1256 H -0.10375 0.15551 0.51823
 H1257 H -0.09624 0.19417 0.48728
 H1258 H -0.05708 0.19476 0.45700
 H1259 H 0.01098 0.09512 0.47124
 H1260 H 0.01804 0.13290 0.44005
 C1261 C 0.47076 0.59809 0.95059
 C1262 C 0.47533 0.60034 0.97941
 C1263 C 0.48474 0.62533 0.99010
 C1264 C 0.48848 0.64778 0.97347
 C1265 C 0.48310 0.64631 0.94543
 C1266 C 0.47379 0.62150 0.93375
 C1267 C 0.46508 0.57283 0.93770
 C1268 C 0.45974 0.57123 0.90971
 C1269 C 0.46046 0.59453 0.89380
 C1270 C 0.46758 0.61943 0.90557
 H1271 H 0.46535 0.55395 0.94885
 H1272 H 0.45509 0.55177 0.90029
 H1273 H 0.45601 0.59320 0.87213
 H1274 H 0.46824 0.63696 0.89237
 H1275 H 0.48826 0.62803 1.01184
 H1276 H 0.49572 0.66659 0.98263
 C1277 C 0.53452 0.85824 1.00527
 C1278 C 0.53743 0.88491 0.99469
 C1279 C 0.53471 0.88900 0.96650
 C1280 C 0.52892 0.86742 0.94884
 C1281 C 0.52524 0.84102 0.95875
 C1282 C 0.52739 0.83634 0.98731
 C1283 C 0.53888 0.85273 1.03327
 C1284 C 0.53448 0.82679 1.04364
 C1285 C 0.52574 0.80587 1.02642
 C1286 C 0.52216 0.81049 0.99855
 H1287 H 0.54593 0.86827 1.04738
 H1288 H 0.53768 0.82295 1.06518
 H1289 H 0.52188 0.78589 1.03467
 H1290 H 0.51503 0.79369 0.98606
 H1291 H 0.53682 0.90920 0.95808
 H1292 H 0.52741 0.87136 0.92713
 C1293 C 0.03773 0.35862 0.50249
 C1294 C 0.04039 0.38560 0.49218
 C1295 C 0.03981 0.38936 0.46370
 C1296 C 0.03460 0.36784 0.44585
 C1297 C 0.03004 0.34161 0.45560
 C1298 C 0.03224 0.33659 0.48404
 C1299 C 0.04251 0.35259 0.53037
 C1300 C 0.04018 0.32612 0.54006
 C1301 C 0.03391 0.30490 0.52219
 C1302 C 0.03034 0.30991 0.49442
 H1303 H 0.04897 0.36800 0.54488
 H1304 H 0.04375 0.32198 0.56150
 H1305 H 0.03247 0.28433 0.52979
 H1306 H 0.02676 0.29257 0.48118
 H1307 H 0.04184 0.40947 0.45505
 H1308 H 0.03337 0.37187 0.42413
 C1309 C 0.36228 0.50152 0.46723
 C1310 C 0.38942 0.51152 0.46909
 C1311 C 0.39382 0.53914 0.47476
 C1312 C 0.37198 0.55675 0.47925
 C1313 C 0.34506 0.54726 0.47833
 C1314 C 0.33992 0.51953 0.47205
 C1315 C 0.35680 0.47421 0.45995
 C1316 C 0.33001 0.46474 0.45804
 C1317 C 0.30821 0.48227 0.46299
 C1318 C 0.31300 0.50945 0.46976
 H1319 H 0.37304 0.46001 0.45529
 H1320 H 0.32615 0.44374 0.45248
 H1321 H 0.28747 0.47483 0.46129
 H1322 H 0.29544 0.52248 0.47288
 H1323 H 0.41442 0.54708 0.47605
 H1324 H 0.37611 0.57795 0.48381
 C1325 C 0.90337 0.05053 -0.02080
 C1326 C 0.89972 0.02175 -0.01948
 C1327 C 0.87385 0.01163 -0.01260
 C1328 C 0.85160 0.02891 -0.00926
 C1329 C 0.85428 0.05703 -0.01224
 C1330 C 0.88041 0.06820 -0.01735
 C1331 C 0.92959 0.06230 -0.02331
 C1332 C 0.93288 0.09043 -0.02411
 C1333 C 0.91038 0.10753 -0.02157
 C1334 C 0.88445 0.09665 -0.01784
 H1335 H 0.94794 0.05005 -0.02378
 H1336 H 0.95308 0.09902 -0.02620
 H1337 H 0.91313 0.12937 -0.02182
 H1338 H 0.86783 0.11081 -0.01468
 H1339 H 0.87028 -0.01006 -0.01130
 H1340 H 0.83183 0.02012 -0.00499
 C1341 C 0.64575 -0.00055 0.03450
 C1342 C 0.61813 0.00820 0.03275
 C1343 C 0.61231 0.03547 0.02683
 C1344 C 0.63321 0.05394 0.02212
 C1345 C 0.66058 0.04570 0.02306
 C1346 C 0.66715 0.01835 0.02947
 C1347 C 0.65265 -0.02744 0.04192
 C1348 C 0.67989 -0.03566 0.04377
 C1349 C 0.70075 -0.01727 0.03864
 C1350 C 0.69456 0.00953 0.03172
 H1351 H 0.63717 -0.04226 0.04671
 H1352 H 0.68484 -0.05635 0.04943
 H1353 H 0.72186 -0.02374 0.04029
 H1354 H 0.71143 0.02326 0.02847
 H1355 H 0.59133 0.04247 0.02564
 H1356 H 0.62797 0.07483 0.01743
 C1357 C 0.10220 0.54371 0.51973
 C1358 C 0.10815 0.51599 0.52519
 C1359 C 0.13538 0.50711 0.52546
 C1360 C 0.15666 0.52520 0.52110
 C1361 C 0.15142 0.55279 0.51646
 C1362 C 0.12405 0.56230 0.51547
 C1363 C 0.07503 0.55326 0.51767
 C1364 C 0.06953 0.58052 0.51210
 C1365 C 0.09086 0.59869 0.50815
 C1366 C 0.11788 0.58974 0.50963
 H1367 H 0.05781 0.53977 0.51995
 H1368 H 0.04859 0.58755 0.51062
 H1369 H 0.08643 0.61978 0.50364
 H1370 H 0.13380 0.60442 0.50585
 H1371 H 0.14022 0.48597 0.52946
 H1372 H 0.17748 0.51768 0.52174
 C1373 C 0.09049 0.45211 -0.01823
 C1374 C 0.09324 0.48094 -0.01572
 C1375 C 0.11874 0.49164 -0.00773
 C1376 C 0.14151 0.47497 -0.00455
 C1377 C 0.13974 0.44687 -0.00877
 C1378 C 0.11395 0.43505 -0.01486
 C1379 C 0.06466 0.43964 -0.02189
 C1380 C 0.06221 0.41145 -0.02379
 C1381 C 0.08519 0.39497 -0.02124
 C1382 C 0.11075 0.40651 -0.01645
 H1383 H 0.04596 0.45137 -0.02244
 H1384 H 0.04229 0.40233 -0.02674
 H1385 H 0.08309 0.37307 -0.02234
 H1386 H 0.12776 0.39277 -0.01332
 H1387 H 0.12162 0.51340 -0.00549
 H1388 H 0.16099 0.48426 0.00049
 C1389 C 0.63829 1.00338 0.47732
 C1390 C 0.61198 0.99212 0.47146
 C1391 C 0.60957 0.96372 0.46880
 C1392 C 0.63167 0.94659 0.47376
 C1393 C 0.65724 0.95706 0.48115
 C1394 C 0.66098 0.98567 0.48231
 C1395 C 0.64314 1.03173 0.47614
 C1396 C 0.66904 1.04238 0.48133
 C1397 C 0.69089 1.02513 0.48690
 C1398 C 0.68710 0.99707 0.48702
 H1399 H 0.62731 1.04598 0.47034
 H1400 H 0.67228 1.06414 0.48048
 H1401 H 0.71105 1.03352 0.49050
 H1402 H 0.70499 0.98450 0.49015
 H1403 H 0.58998 0.95444 0.46424
 H1404 H 0.62860 0.92480 0.47241
 C1405 C 0.90222 0.95810 0.52045
 C1406 C 0.89779 0.98617 0.52583
 C1407 C 0.87104 0.99629 0.52687
 C1408 C 0.84876 0.97905 0.52347
 C1409 C 0.85253 0.95115 0.51901
 C1410 C 0.87938 0.94042 0.51712
 C1411 C 0.92883 0.94732 0.51761
 C1412 C 0.93283 0.91973 0.51211
 C1413 C 0.91053 0.90245 0.50901
 C1414 C 0.88403 0.91262 0.51130
 H1415 H 0.94673 0.96008 0.51921
 H1416 H 0.95335 0.91175 0.51001
 H1417 H 0.91378 0.88109 0.50454
 H1418 H 0.86730 0.89856 0.50817
 H1419 H 0.86738 1.01771 0.53080
 H1420 H 0.82833 0.98749 0.52471
 C1421 C 0.35983 0.50102 0.03138
 C1422 C 0.38635 0.48960 0.02870
 C1423 C 0.38917 0.46162 0.02383
 C1424 C 0.36634 0.44502 0.02091
 C1425 C 0.33994 0.45587 0.02267
 C1426 C 0.33643 0.48401 0.02823
 C1427 C 0.35603 0.52881 0.03787
 C1428 C 0.32985 0.53967 0.04067
 C1429 C 0.30702 0.52310 0.03744
 C1430 C 0.31017 0.49551 0.03145
 H1431 H 0.37315 0.54231 0.04120
 H1432 H 0.32726 0.56102 0.04561
 H1433 H 0.28677 0.53163 0.03986
 H1434 H 0.29189 0.48328 0.02972
 H1435 H 0.40929 0.45259 0.02193
 H1436 H 0.36928 0.42352 0.01681
 C1437 C 0.51466 0.45363 0.36879
 C1438 C 0.51284 0.47327 0.39009
 C1439 C 0.52871 0.49687 0.38901
 C1440 C 0.54645 0.50119 0.36741
 C1441 C 0.54876 0.48209 0.34620
 C1442 C 0.53308 0.45788 0.34688
 C1443 C 0.49832 0.42998 0.36860
 C1444 C 0.50082 0.41054 0.34789
 C1445 C 0.51952 0.41423 0.32703
 C1446 C 0.53555 0.43761 0.32644
 H1447 H 0.48338 0.42635 0.38428
 H1448 H 0.48825 0.39246 0.34809
 H1449 H 0.52156 0.39893 0.31115
 H1450 H 0.54995 0.43953 0.30994
 H1451 H 0.52748 0.51200 0.40516
 H1452 H 0.55832 0.51976 0.36709
 C1453 C 0.00057 -0.02781 0.86438
 C1454 C 0.01135 -0.02623 0.89135
 C1455 C 0.03930 -0.02156 0.89539
 C1456 C 0.05653 -0.01786 0.87331
 C1457 C 0.04637 -0.01869 0.84649
 C1458 C 0.01824 -0.02401 0.84173
 C1459 C -0.02723 -0.03384 0.85936
 C1460 C -0.03744 -0.03574 0.83273
 C1461 C -0.02019 -0.03204 0.81063
 C1462 C 0.00742 -0.02641 0.81498
 H1463 H -0.04125 -0.03748 0.87588
 H1464 H -0.05880 -0.04036 0.82920
 H1465 H -0.02820 -0.03380 0.79001
 H1466 H 0.02016 -0.02431 0.79720
 H1467 H 0.04780 -0.02048 0.91589
 H1468 H 0.07801 -0.01401 0.87719
 C1469 C 0.01694 0.05083 0.63217
 C1470 C 0.01624 0.03202 0.61006
 C1471 C 0.03276 0.00873 0.61099
 C1472 C 0.05025 0.00408 0.63305
 C1473 C 0.05179 0.02258 0.65488
 C1474 C 0.03487 0.04608 0.65478
 C1475 C -0.00038 0.07387 0.63270
 C1476 C 0.00022 0.09195 0.65477
 C1477 C 0.01772 0.08731 0.67683
 C1478 C 0.03478 0.06455 0.67702
 H1479 H -0.01474 0.07797 0.61631
 H1480 H -0.01315 0.10953 0.65487
 H1481 H 0.01790 0.10130 0.69401
 H1482 H 0.04757 0.06145 0.69487
 H1483 H 0.03223 -0.00591 0.59433
 H1484 H 0.06291 -0.01404 0.63301
 C1485 C 0.54570 0.51625 0.09599
 C1486 C 0.51738 0.52070 0.10032
 C1487 C 0.50750 0.52172 0.12706
 C1488 C 0.52507 0.51898 0.14936
 C1489 C 0.55321 0.51544 0.14576
 C1490 C 0.56387 0.51445 0.11887
 C1491 C 0.55636 0.51330 0.06941
 C1492 C 0.58437 0.51030 0.06540
 C1493 C 0.60225 0.51017 0.08765
 C1494 C 0.59223 0.51225 0.11415
 H1495 H 0.54322 0.51305 0.05153
 H1496 H 0.59225 0.50826 0.04490
 H1497 H 0.62402 0.50828 0.08438
 H1498 H 0.60694 0.51236 0.13075
 H1499 H 0.48596 0.52513 0.13074
 H1500 H 0.51659 0.51973 0.16972
 C1501 C 0.50679 -0.03139 0.14173
 C1502 C 0.49713 -0.03058 0.11430
 C1503 C 0.46937 -0.02573 0.10905
 C1504 C 0.45122 -0.02131 0.13034
 C1505 C 0.46030 -0.02146 0.15753
 C1506 C 0.48822 -0.02660 0.16352
 C1507 C 0.53430 -0.03768 0.14807
 C1508 C 0.54340 -0.03859 0.17513
 C1509 C 0.52532 -0.03363 0.19637
 C1510 C 0.49795 -0.02786 0.19075
 H1511 H 0.54895 -0.04230 0.13230
 H1512 H 0.56456 -0.04337 0.17966
 H1513 H 0.53249 -0.03453 0.21734
 H1514 H 0.48451 -0.02468 0.20789
 H1515 H 0.46169 -0.02525 0.08822
 H1516 H 0.42987 -0.01761 0.12557
 C1517 C 1.00505 0.46683 0.63931
 C1518 C 0.99516 0.46575 0.61198
 C1519 C 0.96707 0.46814 0.60682
 C1520 C 0.94882 0.47230 0.62808
 C1521 C 0.95809 0.47425 0.65516
 C1522 C 0.98636 0.47116 0.66109
 C1523 C 1.03302 0.46297 0.64556
 C1524 C 1.04239 0.46378 0.67255
 C1525 C 1.02415 0.46807 0.69379
 C1526 C 0.99638 0.47156 0.68825
 H1527 H 1.04783 0.45894 0.62978
 H1528 H 1.06389 0.46081 0.67702
 H1529 H 1.03154 0.46844 0.71471
 H1530 H 0.98288 0.47422 0.70543
 H1531 H 0.95923 0.46717 0.58606
 H1532 H 0.92726 0.47442 0.62332
 C1533 C 0.99453 0.52925 0.86570
 C1534 C 0.98272 0.52836 0.89205
 C1535 C 0.95459 0.52402 0.89448
 C1536 C 0.93823 0.51970 0.87146
 C1537 C 0.94950 0.51950 0.84529
 C1538 C 0.97778 0.52468 0.84212
 C1539 C 1.02248 0.53524 0.86220
 C1540 C 1.03373 0.53623 0.83617
 C1541 C 1.01741 0.53164 0.81317
 C1542 C 0.98967 0.52608 0.81600
 H1543 H 1.03579 0.53958 0.87943
 H1544 H 1.05519 0.54082 0.83382
 H1545 H 1.02624 0.53264 0.79301
 H1546 H 0.97765 0.52325 0.79754
 H1547 H 0.94528 0.52347 0.91446
 H1548 H 0.91661 0.51596 0.87410
 C1549 C 0.49800 0.03139 0.36523
 C1550 C 0.48813 0.02840 0.39223
 C1551 C 0.46068 0.02159 0.39622
 C1552 C 0.44320 0.01698 0.37408
 C1553 C 0.45266 0.01890 0.34729
 C1554 C 0.48015 0.02639 0.34258
 C1555 C 0.52502 0.03992 0.36021
 C1556 C 0.53438 0.04278 0.33357
 C1557 C 0.51703 0.03756 0.31147
 C1558 C 0.49012 0.02960 0.31582
 H1559 H 0.53904 0.04481 0.37671
 H1560 H 0.55515 0.04928 0.33006
 H1561 H 0.52439 0.03997 0.29085
 H1562 H 0.47720 0.02627 0.29806
 H1563 H 0.45283 0.01945 0.41671
 H1564 H 0.42216 0.01146 0.37786
   
