data_POSCAR
  _audit_creation_date              2014-09-24
  _audit_creation_method            'ToBaCCo'
  _symmetry_space_group_name_H-M    'P1'
  _symmetry_Int_Tables_number       1
  _symmetry_cell_setting            triclinic
  loop_
  _symmetry_equiv_pos_as_xyz
 x,y,z
_cell_length_a 56.0810
_cell_length_b 55.2263
_cell_length_c 57.3332
_cell_angle_alpha 90.579700
_cell_angle_beta 89.296000
_cell_angle_gamma 88.653000
loop_
  _atom_site_label
  _atom_site_type_symbol
  _atom_site_fract_x
  _atom_site_fract_y
  _atom_site_fract_z
C1 C 0.73300 0.66603 0.97257
 H2 H 0.74980 0.66577 0.96309
 C3 C 0.71340 0.67902 0.96389
 H4 H 0.71544 0.68916 0.94796
 C5 C 0.70964 0.65208 1.00420
 H6 H 0.70794 0.64082 1.01938
 C7 C 0.68963 0.66481 0.99617
 H8 H 0.67279 0.66318 1.00539
 N9 N 0.73068 0.65257 0.99215
 C10 C 0.80170 0.63264 1.01686
 H11 H 0.79958 0.61324 1.01765
 C12 C 0.82269 0.64284 1.02462
 H13 H 0.83680 0.63109 1.03107
 C14 C 0.78570 0.67137 1.00744
 H15 H 0.77105 0.68239 1.00106
 C16 C 0.80648 0.68239 1.01507
 H17 H 0.80760 0.70192 1.01459
 Zn18 Zn 0.75582 0.63071 0.99982
 N19 N 0.78378 0.64689 1.00842
 C20 C 0.78409 0.60853 0.96373
 N21 N 0.76176 0.61095 0.97312
 C22 C 0.74268 0.60101 0.96254
 C23 C 0.74561 0.58834 0.94146
 C24 C 0.78786 0.59572 0.94286
 C25 C 0.74481 0.62351 1.04648
 C26 C 0.73756 0.61123 1.06637
 C27 C 0.73448 0.57493 1.04291
 C28 C 0.74199 0.58798 1.02351
 N29 N 0.74654 0.61191 1.02557
 H30 H 0.79895 0.61703 0.97202
 H31 H 0.72506 0.60352 0.97021
 H32 H 0.73020 0.58086 0.93304
 H33 H 0.80567 0.59446 0.93534
 H34 H 0.74860 0.64260 1.04759
 H35 H 0.73520 0.62202 1.08207
 H36 H 0.73189 0.55578 1.04029
 H37 H 0.74412 0.57893 1.00679
 C38 C 0.82524 0.66806 1.02398
 C39 C 0.69119 0.67800 0.97542
 C40 C 0.73174 0.58640 1.06508
 C41 C 0.76843 0.58573 0.93131
 C42 C 0.71983 0.33727 0.51573
 H43 H 0.73627 0.33698 0.52541
 C44 C 0.70049 0.32387 0.52347
 H45 H 0.70220 0.31340 0.53924
 C46 C 0.69728 0.35249 0.48418
 H47 H 0.69588 0.36402 0.46915
 C48 C 0.67757 0.33932 0.49123
 H49 H 0.66139 0.34052 0.48116
 N50 N 0.71787 0.35131 0.49647
 C51 C 0.79009 0.36517 0.47195
 H52 H 0.78919 0.38477 0.47207
 C53 C 0.81093 0.35303 0.46455
 H54 H 0.82613 0.36352 0.45934
 C55 C 0.77130 0.32795 0.47913
 H56 H 0.75567 0.31830 0.48457
 C57 C 0.79179 0.31502 0.47165
 H58 H 0.79164 0.29542 0.47129
 Zn59 Zn 0.74362 0.37129 0.48843
 N60 N 0.77091 0.35259 0.47927
 C61 C 0.77214 0.38717 0.52546
 N62 N 0.75060 0.39030 0.51510
 C63 C 0.73350 0.40542 0.52458
 C64 C 0.73799 0.41855 0.54499
 C65 C 0.77727 0.39972 0.54592
 C66 C 0.73353 0.37823 0.44202
 C67 C 0.72607 0.39006 0.42197
 C68 C 0.72285 0.42742 0.44418
 C69 C 0.73062 0.41484 0.46387
 N70 N 0.73517 0.39055 0.46254
 H71 H 0.78527 0.37455 0.51818
 H72 H 0.71624 0.40703 0.51643
 H73 H 0.72418 0.43040 0.55242
 H74 H 0.79457 0.39704 0.55381
 H75 H 0.73760 0.35899 0.44138
 H76 H 0.72482 0.37977 0.40587
 H77 H 0.71838 0.44655 0.44574
 H78 H 0.73248 0.42443 0.48022
 C79 C 0.81199 0.32758 0.46420
 C80 C 0.67888 0.32501 0.51130
 C81 C 0.72003 0.41488 0.42296
 C82 C 0.76008 0.41559 0.55598
 C83 C 0.22801 -0.15908 0.02343
 H84 H 0.24470 -0.16000 0.03268
 C85 C 0.20789 -0.17030 0.03260
 H86 H 0.20927 -0.17983 0.04896
 C87 C 0.20554 -0.14405 -0.00825
 H88 H 0.20442 -0.13328 -0.02382
 C89 C 0.18507 -0.15495 0.00027
 H90 H 0.16857 -0.15285 -0.00920
 N91 N 0.22643 -0.14607 0.00347
 C92 C 0.29817 -0.13550 -0.02449
 H93 H 0.29700 -0.11605 -0.02652
 C94 C 0.31859 -0.14829 -0.03205
 H95 H 0.33297 -0.13851 -0.04013
 C96 C 0.28024 -0.17177 -0.01232
 H97 H 0.26513 -0.18081 -0.00482
 C98 C 0.30040 -0.18533 -0.01969
 H99 H 0.30073 -0.20478 -0.01748
 Zn100 Zn 0.25274 -0.12756 -0.00623
 N101 N 0.27959 -0.14728 -0.01473
 C102 C 0.28267 -0.10858 0.02831
 N103 N 0.26053 -0.10686 0.01898
 C104 C 0.24340 -0.09181 0.02851
 C105 C 0.24839 -0.07746 0.04802
 C106 C 0.28843 -0.09457 0.04769
 C107 C 0.24178 -0.12327 -0.05282
 C108 C 0.23527 -0.11232 -0.07364
 C109 C 0.23474 -0.07359 -0.05374
 C110 C 0.24145 -0.08541 -0.03328
 N111 N 0.24442 -0.10986 -0.03313
 H112 H 0.29584 -0.12118 0.02106
 H113 H 0.22576 -0.09116 0.02106
 H114 H 0.23462 -0.06546 0.05530
 H115 H 0.30606 -0.09657 0.05503
 H116 H 0.24427 -0.14274 -0.05218
 H117 H 0.23208 -0.12437 -0.08815
 H118 H 0.23342 -0.05406 -0.05294
 H119 H 0.24428 -0.07498 -0.01756
 C120 C 0.31994 -0.17356 -0.02972
 C121 C 0.18594 -0.16788 0.02120
 C122 C 0.23126 -0.08690 -0.07470
 C123 C 0.27122 -0.07872 0.05782
 C124 C 0.23591 0.15344 0.47168
 H125 H 0.25390 0.15405 0.46472
 C126 C 0.21798 0.16822 0.46234
 H127 H 0.22252 0.18054 0.44850
 C128 C 0.20829 0.13631 0.49800
 H129 H 0.20443 0.12333 0.51142
 C130 C 0.18975 0.15057 0.48900
 H131 H 0.17181 0.14832 0.49568
 N132 N 0.23082 0.13792 0.48920
 C133 C 0.30094 0.11995 0.51705
 H134 H 0.30020 0.10041 0.51612
 C135 C 0.32124 0.13094 0.52558
 H136 H 0.33621 0.11965 0.53090
 C137 C 0.28226 0.15825 0.51091
 H138 H 0.26685 0.16880 0.50560
 C139 C 0.30224 0.17002 0.51940
 H140 H 0.30196 0.18960 0.52053
 Zn141 Zn 0.25542 0.11648 0.49896
 N142 N 0.28207 0.13363 0.50971
 C143 C 0.28566 0.10087 0.46198
 N144 N 0.26422 0.09721 0.47255
 C145 C 0.24789 0.08247 0.46274
 C146 C 0.25284 0.07086 0.44135
 C147 C 0.29115 0.08996 0.44049
 C148 C 0.23869 0.11075 0.54390
 C149 C 0.23027 0.09913 0.56370
 C150 C 0.23458 0.06089 0.54304
 C151 C 0.24300 0.07331 0.52356
 N152 N 0.24455 0.09785 0.52427
 H153 H 0.29809 0.11323 0.46957
 H154 H 0.23068 0.08044 0.47113
 H155 H 0.23947 0.05974 0.43338
 H156 H 0.30801 0.09366 0.43196
 H157 H 0.24030 0.13024 0.54402
 H158 H 0.22509 0.10989 0.57890
 H159 H 0.23341 0.04136 0.54224
 H160 H 0.24829 0.06334 0.50796
 C161 C 0.32209 0.15631 0.52690
 C162 C 0.19441 0.16665 0.47074
 C163 C 0.22801 0.07386 0.56344
 C164 C 0.27449 0.07509 0.42977
 C165 C 0.17488 0.47138 0.23040
 H166 H 0.18002 0.46349 0.24684
 C167 C 0.18435 0.46183 0.20946
 H168 H 0.19690 0.44664 0.20987
 C169 C 0.15085 0.49951 0.20968
 H170 H 0.13720 0.51361 0.20967
 C171 C 0.15963 0.49037 0.18844
 H172 H 0.15298 0.49790 0.17233
 N173 N 0.15825 0.48971 0.23011
 C174 C 0.15087 0.51855 0.30112
 H175 H 0.13160 0.51840 0.30224
 C176 C 0.16387 0.52714 0.31987
 H177 H 0.15444 0.53384 0.33530
 C178 C 0.18636 0.51052 0.27925
 H179 H 0.19497 0.50415 0.26329
 C180 C 0.20015 0.51918 0.29762
 H181 H 0.21938 0.51920 0.29577
 Zn182 Zn 0.14171 0.49887 0.25796
 N183 N 0.16219 0.51012 0.28148
 C184 C 0.13126 0.46170 0.28965
 N185 N 0.12569 0.47113 0.26853
 C186 C 0.11028 0.45985 0.25408
 C187 C 0.09967 0.43829 0.26083
 C188 C 0.12113 0.44026 0.29704
 C189 C 0.13061 0.54602 0.24607
 C190 C 0.11673 0.56594 0.23937
 C191 C 0.08151 0.54213 0.24476
 C192 C 0.09613 0.52262 0.25152
 N193 N 0.12024 0.52477 0.25150
 H194 H 0.14400 0.47044 0.30067
 H195 H 0.10660 0.46738 0.23712
 H196 H 0.08775 0.42934 0.24898
 H197 H 0.12574 0.43320 0.31399
 H198 H 0.14984 0.54721 0.24628
 H199 H 0.12547 0.58235 0.23420
 H200 H 0.06237 0.54005 0.24437
 H201 H 0.08822 0.50569 0.25628
 C202 C 0.18885 0.52740 0.31835
 C203 C 0.17619 0.47097 0.18816
 C204 C 0.09186 0.56404 0.23826
 C205 C 0.10528 0.42811 0.28249
 C206 C -0.16786 0.02164 0.23831
 H207 H -0.17266 0.02866 0.25545
 C208 C -0.17910 0.03104 0.21859
 H209 H -0.19245 0.04533 0.22111
 C210 C -0.14305 -0.00389 0.21458
 H211 H -0.12865 -0.01716 0.21296
 C212 C -0.15323 0.00547 0.19445
 H213 H -0.14701 -0.00175 0.17778
 N214 N -0.15018 0.00448 0.23596
 C215 C -0.13794 -0.02405 0.30585
 H216 H -0.11865 -0.02390 0.30526
 C217 C -0.14964 -0.03287 0.32546
 H218 H -0.13918 -0.03968 0.33982
 C219 C -0.17479 -0.01627 0.28724
 H220 H -0.18447 -0.01020 0.27214
 C221 C -0.18727 -0.02506 0.30655
 H222 H -0.20657 -0.02525 0.30629
 Zn223 Zn -0.13178 -0.00514 0.26191
 N224 N -0.15054 -0.01571 0.28737
 C225 C -0.11666 0.03174 0.29264
 N226 N -0.11382 0.02193 0.27091
 C227 C -0.09954 0.03230 0.25467
 C228 C -0.08711 0.05321 0.26017
 C229 C -0.10455 0.05255 0.29889
 C230 C -0.12371 -0.05255 0.24836
 C231 C -0.11135 -0.07319 0.24030
 C232 C -0.07472 -0.05110 0.24209
 C233 C -0.08783 -0.03084 0.25039
 N234 N -0.11194 -0.03183 0.25286
 H235 H -0.12873 0.02382 0.30506
 H236 H -0.09800 0.02444 0.23734
 H237 H -0.07568 0.06112 0.24709
 H238 H -0.10739 0.06028 0.31616
 H239 H -0.14286 -0.05286 0.25073
 H240 H -0.12118 -0.08946 0.23689
 H241 H -0.05567 -0.04975 0.23939
 H242 H -0.07879 -0.01426 0.25434
 C243 C -0.17465 -0.03342 0.32604
 C244 C -0.17131 0.02360 0.19607
 C245 C -0.08658 -0.07254 0.23656
 C246 C -0.08955 0.06358 0.28257
 C247 C 0.33637 0.51786 0.72669
 H248 H 0.33656 0.52749 0.74322
 C249 C 0.32363 0.52755 0.70800
 H250 H 0.31405 0.54467 0.71029
 C251 C 0.35009 0.48477 0.70315
 H252 H 0.36093 0.46848 0.70102
 C253 C 0.33762 0.49374 0.68409
 H254 H 0.33859 0.48384 0.66770
 N255 N 0.34946 0.49696 0.72390
 C256 C 0.36595 0.46677 0.79190
 H257 H 0.38482 0.46342 0.78881
 C258 C 0.35562 0.46024 0.81304
 H259 H 0.36663 0.45147 0.82601
 C260 C 0.32879 0.48194 0.77838
 H261 H 0.31848 0.49045 0.76479
 C262 C 0.31765 0.47566 0.79939
 H263 H 0.29878 0.47958 0.80189
 Zn264 Zn 0.36980 0.48664 0.74820
 N265 N 0.35261 0.47774 0.77524
 C266 C 0.38891 0.52195 0.77784
 N267 N 0.38969 0.51282 0.75572
 C268 C 0.40279 0.52348 0.73870
 C269 C 0.41557 0.54438 0.74364
 C270 C 0.40139 0.54263 0.78352
 C271 C 0.37495 0.43843 0.73538
 C272 C 0.38630 0.41685 0.72825
 C273 C 0.42386 0.43742 0.72804
 C274 C 0.41173 0.45871 0.73517
 N275 N 0.38766 0.45884 0.73842
 H276 H 0.37810 0.51364 0.79108
 H277 H 0.40277 0.51614 0.72113
 H278 H 0.42538 0.55303 0.72978
 H279 H 0.40047 0.54950 0.80128
 H280 H 0.35585 0.43904 0.73828
 H281 H 0.37567 0.40102 0.72534
 H282 H 0.44303 0.43755 0.72559
 H283 H 0.42153 0.47505 0.73812
 C284 C 0.33122 0.46492 0.81716
 C285 C 0.32457 0.51566 0.68620
 C286 C 0.41108 0.41612 0.72443
 C287 C 0.41461 0.55441 0.76627
 C288 C 0.67632 0.95823 0.74150
 H289 H 0.67436 0.94654 0.75640
 C290 C 0.68980 0.95029 0.72207
 H291 H 0.69811 0.93240 0.72218
 C292 C 0.66610 0.99485 0.72250
 H293 H 0.65632 1.01189 0.72228
 C294 C 0.67956 0.98779 0.70291
 H295 H 0.68037 0.99986 0.68818
 N296 N 0.66435 0.97993 0.74115
 C297 C 0.64140 1.00304 0.81086
 H298 H 0.62243 1.00408 0.80765
 C299 C 0.65003 1.00971 0.83257
 H300 H 0.63720 1.01656 0.84538
 C301 C 0.68052 0.99438 0.79674
 H302 H 0.69223 0.98833 0.78262
 C303 C 0.69006 1.00115 0.81824
 H304 H 0.70917 0.99947 0.82030
 Zn305 Zn 0.64178 0.98748 0.76517
 N306 N 0.65656 0.99537 0.79357
 C307 C 0.62430 0.94805 0.79013
 N308 N 0.62281 0.95979 0.76943
 C309 C 0.61006 0.95059 0.75146
 C310 C 0.59798 0.92885 0.75408
 C311 C 0.61286 0.92621 0.79335
 C312 C 0.63544 1.03641 0.75747
 C313 C 0.62515 1.05756 0.74871
 C314 C 0.58988 1.03524 0.73951
 C315 C 0.60089 1.01441 0.74853
 N316 N 0.62361 1.01522 0.75651
 H317 H 0.63508 0.95506 0.80399
 H318 H 0.60982 0.95976 0.73488
 H319 H 0.58822 0.92146 0.73957
 H320 H 0.61458 0.91694 0.80983
 H321 H 0.65340 1.03659 0.76415
 H322 H 0.63519 1.07407 0.74902
 H323 H 0.57228 1.03406 0.73210
 H324 H 0.59160 0.99752 0.74830
 C325 C 0.67479 1.00891 0.83682
 C326 C 0.69098 0.96490 0.70215
 C327 C 0.60238 1.05700 0.73890
 C328 C 0.59971 0.91626 0.77514
 C329 C 0.01801 0.23879 -0.15991
 H330 H 0.02501 0.25686 -0.15903
 C331 C 0.02980 0.22092 -0.17340
 H332 H 0.04559 0.22557 -0.18327
 C333 C -0.01075 0.21074 -0.14756
 H334 H -0.02612 0.20663 -0.13692
 C335 C 0.00054 0.19230 -0.16071
 H336 H -0.00638 0.17418 -0.15997
 N337 N -0.00182 0.23342 -0.14730
 C338 C -0.03852 0.30190 -0.13003
 H339 H -0.04114 0.29923 -0.11152
 C340 C -0.04741 0.32291 -0.14042
 H341 H -0.05712 0.33620 -0.12978
 C342 C -0.02321 0.28734 -0.16637
 H343 H -0.01393 0.27335 -0.17644
 C344 C -0.03182 0.30814 -0.17751
 H345 H -0.02871 0.31009 -0.19606
 Zn346 Zn -0.01479 0.25739 -0.12667
 N347 N -0.02638 0.28481 -0.14296
 C348 C 0.01632 0.28999 -0.10473
 N349 N 0.01010 0.26641 -0.10657
 C350 C 0.02293 0.24858 -0.09592
 C351 C 0.04328 0.25413 -0.08326
 C352 C 0.03633 0.29636 -0.09208
 C353 C -0.06068 0.24023 -0.12203
 C354 C -0.08101 0.23172 -0.11088
 C355 C -0.06007 0.23315 -0.07438
 C356 C -0.04017 0.24176 -0.08634
 N357 N -0.04080 0.24496 -0.10975
 H358 H 0.00620 0.30391 -0.11357
 H359 H 0.01782 0.22992 -0.09798
 H360 H 0.05377 0.23957 -0.07569
 H361 H 0.04090 0.31527 -0.09089
 H362 H -0.06066 0.24295 -0.14070
 H363 H -0.09569 0.22716 -0.12196
 H364 H -0.05873 0.23206 -0.05565
 H365 H -0.02432 0.24620 -0.07681
 C366 C -0.04393 0.32636 -0.16444
 C367 C 0.02129 0.19718 -0.17364
 C368 C -0.08134 0.22791 -0.08644
 C369 C 0.05046 0.27829 -0.08156
 C370 C 0.47117 0.24816 0.14867
 H371 H 0.46077 0.26492 0.14879
 C372 C 0.46287 0.22812 0.16069
 H373 H 0.44620 0.22969 0.17039
 C374 C 0.50503 0.22550 0.13503
 H375 H 0.52103 0.22425 0.12438
 C376 C 0.49744 0.20504 0.14687
 H377 H 0.50776 0.18828 0.14519
 N378 N 0.49176 0.24644 0.13594
 C379 C 0.51432 0.32002 0.12227
 H380 H 0.51599 0.31884 0.10347
 C381 C 0.52003 0.34136 0.13388
 H382 H 0.52639 0.35649 0.12390
 C383 C 0.50468 0.30127 0.15807
 H384 H 0.49884 0.28553 0.16739
 C385 C 0.51033 0.32228 0.17044
 H386 H 0.50855 0.32261 0.18926
 Zn387 Zn 0.49950 0.27274 0.11661
 N388 N 0.50658 0.30063 0.13440
 C389 C 0.46088 0.30103 0.10014
 N390 N 0.47241 0.27916 0.09800
 C391 C 0.46307 0.26086 0.08520
 C392 C 0.44099 0.26406 0.07438
 C393 C 0.43886 0.30497 0.08968
 C394 C 0.54766 0.26291 0.11077
 C395 C 0.56892 0.25581 0.09961
 C396 C 0.54758 0.25281 0.06337
 C397 C 0.52664 0.26014 0.07526
 N398 N 0.52703 0.26455 0.09864
 H399 H 0.46817 0.31519 0.11080
 H400 H 0.47228 0.24344 0.08426
 H401 H 0.43338 0.24906 0.06498
 H402 H 0.42982 0.32240 0.09195
 H403 H 0.54742 0.26660 0.12934
 H404 H 0.58495 0.25381 0.10982
 H405 H 0.54699 0.24900 0.04483
 H406 H 0.51010 0.26189 0.06590
 C407 C 0.51805 0.34271 0.15829
 C408 C 0.47584 0.20605 0.15950
 C409 C 0.56904 0.25034 0.07566
 C410 C 0.42837 0.28620 0.07707
 C411 C 0.97176 0.72792 0.67008
 H412 H 0.96390 0.74598 0.67118
 C413 C 0.96097 0.70887 0.68168
 H414 H 0.94503 0.71252 0.69209
 C415 C 1.00169 0.70118 0.65451
 H416 H 1.01706 0.69808 0.64325
 C417 C 0.99148 0.68161 0.66578
 H418 H 0.99924 0.66365 0.66308
 N419 N 0.99164 0.72376 0.65670
 C420 C 1.02139 0.79484 0.64493
 H421 H 1.02250 0.79400 0.62608
 C422 C 1.02954 0.81509 0.65680
 H423 H 1.03711 0.82973 0.64694
 C424 C 1.01100 0.77617 0.68056
 H425 H 1.00404 0.76080 0.68971
 C426 C 1.01909 0.79611 0.69321
 H427 H 1.01797 0.79607 0.71207
 Zn428 Zn 1.00281 0.74947 0.63834
 N429 N 1.01217 0.77602 0.65685
 C430 C 0.96712 0.78144 0.62126
 N431 N 0.97737 0.75898 0.61881
 C432 C 0.96831 0.74226 0.60397
 C433 C 0.94821 0.74794 0.59074
 C434 C 0.94696 0.78782 0.60851
 C435 C 1.04969 0.73319 0.63342
 C436 C 1.07096 0.72619 0.62217
 C437 C 1.05172 0.73229 0.58514
 C438 C 1.03075 0.73919 0.59714
 N439 N 1.03009 0.73931 0.62086
 H440 H 0.97413 0.79427 0.63358
 H441 H 0.97646 0.72433 0.60277
 H442 H 0.94097 0.73431 0.57930
 H443 H 0.93903 0.80577 0.61075
 H444 H 1.04871 0.73374 0.65228
 H445 H 1.08620 0.72097 0.63255
 H446 H 1.05203 0.73253 0.56625
 H447 H 1.01516 0.74473 0.58748
 C448 C 1.02845 0.81594 0.68127
 C449 C 0.97061 0.68524 0.67928
 C450 C 1.07220 0.72569 0.59770
 C451 C 0.93712 0.77091 0.59316
 C452 C 0.51852 0.74782 0.33919
 H453 H 0.52781 0.76469 0.33765
 C454 C 0.52741 0.72702 0.32763
 H455 H 0.54355 0.72809 0.31719
 C456 C 0.48736 0.72554 0.35627
 H457 H 0.47223 0.72471 0.36801
 C458 C 0.49552 0.70442 0.34497
 H459 H 0.48608 0.68778 0.34772
 N460 N 0.49905 0.74665 0.35348
 C461 C 0.47061 0.81951 0.36854
 H462 H 0.46975 0.81816 0.38734
 C463 C 0.46263 0.84065 0.35778
 H464 H 0.45494 0.85481 0.36885
 C465 C 0.48053 0.80147 0.33201
 H466 H 0.48770 0.78616 0.32210
 C467 C 0.47264 0.82231 0.32042
 H468 H 0.47463 0.82256 0.30165
 Zn469 Zn 0.49085 0.77368 0.37286
 N470 N 0.47967 0.80063 0.35567
 C471 C 0.52756 0.80467 0.38666
 N472 N 0.51883 0.78204 0.38896
 C473 C 0.53093 0.76466 0.40100
 C474 C 0.55276 0.76978 0.41129
 C475 C 0.54922 0.81055 0.39663
 C476 C 0.44446 0.76139 0.38419
 C477 C 0.42574 0.75292 0.39783
 C478 C 0.45151 0.75373 0.43128
 C479 C 0.46980 0.76217 0.41695
 N480 N 0.46614 0.76517 0.39374
 H481 H 0.51805 0.81812 0.37664
 H482 H 0.52386 0.74665 0.40214
 H483 H 0.56240 0.75561 0.42038
 H484 H 0.55575 0.82872 0.39464
 H485 H 0.44202 0.76408 0.36570
 H486 H 0.40902 0.74888 0.38957
 H487 H 0.45484 0.75098 0.44964
 H488 H 0.48702 0.76576 0.42428
 C489 C 0.46371 0.84267 0.33325
 C490 C 0.51616 0.70480 0.33091
 C491 C 0.42926 0.74851 0.42164
 C492 C 0.56229 0.79294 0.40890
 Si493 Si 0.36598 0.02093 0.23237
 Si494 Si 0.12883 1.00633 0.75216
 Si495 Si 0.62718 0.51862 0.24731
 Si496 Si 0.84897 0.50304 0.73928
 Si497 Si 0.23969 0.36923 -0.00371
 Si498 Si 0.74887 0.12087 1.01384
 Si499 Si 0.25825 0.62766 0.50405
 Si500 Si 0.74933 0.86356 0.50906
 Si501 Si 0.00671 0.24714 0.37404
 Si502 Si 1.00731 0.74413 0.12870
 Si503 Si 0.50959 0.23142 0.62502
 Si504 Si 0.50349 0.73717 0.86488
 C505 C 0.45553 -0.11314 0.33408
 C506 C 0.44712 -0.09201 0.32348
 C507 C 0.43901 -0.09240 0.30050
 C508 C 0.43963 -0.11458 0.28818
 C509 C 0.44811 -0.13579 0.29873
 C510 C 0.45597 -0.13564 0.32207
 C511 C 0.42879 -0.06964 0.29075
 C512 C 0.42529 -0.06591 0.26794
 C513 C 0.41281 -0.04403 0.25892
 C514 C 0.40015 -0.04607 0.23807
 C515 C 0.38676 -0.02645 0.22969
 C516 C 0.38614 -0.00425 0.24179
 C517 C 0.39949 -0.00178 0.26213
 C518 C 0.41279 -0.02148 0.27065
 H519 H 0.46232 -0.11136 0.35156
 H520 H 0.44698 -0.07518 0.33338
 H521 H 0.43282 -0.11599 0.27068
 H522 H 0.44714 -0.15244 0.28875
 H523 H 0.42340 -0.05563 0.30319
 H524 H 0.43038 -0.07983 0.25534
 H525 H 0.39999 -0.06315 0.22862
 H526 H 0.37652 -0.02897 0.21404
 H527 H 0.39923 0.01524 0.27169
 H528 H 0.42294 -0.01896 0.28637
 C529 C 0.94817 0.37128 0.83591
 C530 C 0.93859 0.39225 0.82591
 C531 C 0.92776 0.39135 0.80401
 C532 C 0.92673 0.36890 0.79222
 C533 C 0.93629 0.34789 0.80227
 C534 C 0.94693 0.34881 0.82432
 C535 C 0.91642 0.41384 0.79494
 C536 C 0.91162 0.41746 0.77235
 C537 C 0.89833 0.43912 0.76385
 C538 C 0.88589 0.43725 0.74283
 C539 C 0.87178 0.45661 0.73494
 C540 C 0.87004 0.47826 0.74786
 C541 C 0.88326 0.48066 0.76828
 C542 C 0.89738 0.46132 0.77621
 H543 H 0.95655 0.37267 0.85277
 H544 H 0.93954 0.40925 0.83541
 H545 H 0.91786 0.36722 0.77567
 H546 H 0.93467 0.33079 0.79308
 H547 H 0.91152 0.42767 0.80772
 H548 H 0.91647 0.40361 0.75957
 H549 H 0.88655 0.42051 0.73281
 H550 H 0.86197 0.45439 0.71896
 H551 H 0.88229 0.49736 0.77836
 H552 H 0.90741 0.46389 0.79198
 C553 C 0.05975 1.17645 0.81384
 C554 C 0.07236 1.15707 0.80332
 C555 C 0.06026 1.13795 0.79286
 C556 C 0.03518 1.13908 0.79224
 C557 C 0.02255 1.15856 0.80265
 C558 C 0.03467 1.17731 0.81386
 C559 C 0.07439 1.11728 0.78282
 C560 C 0.06610 1.09473 0.78128
 C561 C 0.08102 1.07370 0.77320
 C562 C 0.07560 1.05054 0.78131
 C563 C 0.08978 1.03039 0.77477
 C564 C 0.10941 1.03305 0.75975
 C565 C 0.11456 1.05600 0.75110
 C566 C 0.10044 1.07618 0.75768
 H567 H 0.06967 1.19039 0.82255
 H568 H 0.09167 1.15670 0.80390
 H569 H 0.02527 1.12510 0.78359
 H570 H 0.00326 1.15895 0.80189
 H571 H 0.09286 1.12048 0.77841
 H572 H 0.04840 1.09106 0.78790
 H573 H 0.06065 1.04810 0.79313
 H574 H 0.08557 1.01278 0.78162
 H575 H 0.12964 1.05848 0.73949
 H576 H 0.10474 1.09359 0.75047
 C577 C 0.52689 0.66068 0.33448
 C578 C 0.53747 0.63925 0.32582
 C579 C 0.54817 0.63833 0.30357
 C580 C 0.54795 0.65956 0.29007
 C581 C 0.53730 0.68104 0.29877
 C582 C 0.52670 0.68186 0.32110
 C583 C 0.56003 0.61517 0.29587
 C584 C 0.56860 0.61064 0.27427
 C585 C 0.58178 0.58794 0.26775
 C586 C 0.59886 0.58866 0.24970
 C587 C 0.61227 0.56795 0.24341
 C588 C 0.60851 0.54596 0.25474
 C589 C 0.59119 0.54497 0.27249
 C590 C 0.57782 0.56575 0.27892
 H591 H 0.51934 0.66077 0.35196
 H592 H 0.53750 0.62333 0.33672
 H593 H 0.55624 0.66004 0.27300
 H594 H 0.53736 0.69703 0.28800
 H595 H 0.56227 0.60140 0.30903
 H596 H 0.56715 0.62428 0.26097
 H597 H 0.60221 0.60546 0.24078
 H598 H 0.62576 0.56938 0.22991
 H599 H 0.58809 0.52814 0.28146
 H600 H 0.56433 0.56428 0.29244
 C601 C 0.51867 0.38801 0.16206
 C602 C 0.52674 0.40905 0.17286
 C603 C 0.54138 0.40757 0.19246
 C604 C 0.54664 0.38467 0.20195
 C605 C 0.53848 0.36365 0.19123
 C606 C 0.52485 0.36506 0.17088
 C607 C 0.55144 0.43005 0.20217
 C608 C 0.57306 0.43023 0.21187
 C609 C 0.58501 0.45245 0.21974
 C610 C 0.60995 0.45167 0.22127
 C611 C 0.62218 0.47180 0.22907
 C612 C 0.60971 0.49301 0.23590
 C613 C 0.58480 0.49412 0.23427
 C614 C 0.57246 0.47392 0.22629
 H615 H 0.50780 0.38967 0.14665
 H616 H 0.52218 0.42648 0.16542
 H617 H 0.55722 0.38292 0.21752
 H618 H 0.54351 0.34625 0.19844
 H619 H 0.54183 0.44694 0.19922
 H620 H 0.58343 0.41347 0.21258
 H621 H 0.62005 0.43540 0.21638
 H622 H 0.64145 0.47066 0.23015
 H623 H 0.57486 0.51038 0.23936
 H624 H 0.55320 0.47505 0.22578
 C625 C 0.05204 0.83395 0.71380
 C626 C 0.06254 0.85383 0.72453
 C627 C 0.05881 0.87732 0.71595
 C628 C 0.04408 0.88056 0.69646
 C629 C 0.03365 0.86069 0.68572
 C630 C 0.03778 0.83714 0.69404
 C631 C 0.07208 0.89753 0.72652
 C632 C 0.06555 0.92097 0.72454
 C633 C 0.08023 0.94131 0.73277
 C634 C 0.07624 0.96432 0.72316
 C635 C 0.09047 0.98373 0.72936
 C636 C 0.10910 0.98053 0.74518
 C637 C 0.11230 0.95794 0.75580
 C638 C 0.09807 0.93849 0.74967
 H639 H 0.05580 0.81600 0.72044
 H640 H 0.07397 0.85079 0.73936
 H641 H 0.04123 0.89819 0.68882
 H642 H 0.02262 0.86372 0.67060
 H643 H 0.08819 0.89260 0.73565
 H644 H 0.04930 0.92575 0.71553
 H645 H 0.06228 0.96720 0.71053
 H646 H 0.08674 1.00126 0.72184
 H647 H 0.12576 0.95506 0.76883
 H648 H 0.10108 0.92146 0.75839
 C649 C 0.97119 0.64477 0.69902
 C650 C 0.95948 0.62441 0.70724
 C651 C 0.93458 0.62299 0.70593
 C652 C 0.92150 0.64287 0.69709
 C653 C 0.93320 0.66320 0.68888
 C654 C 0.95820 0.66428 0.68949
 C655 C 0.92295 0.60072 0.71416
 C656 C 0.90162 0.59365 0.70660
 C657 C 0.88976 0.57147 0.71465
 C658 C 0.86489 0.57032 0.71279
 C659 C 0.85288 0.54983 0.72009
 C660 C 0.86552 0.52999 0.72924
 C661 C 0.89043 0.53074 0.73059
 C662 C 0.90250 0.55131 0.72339
 H663 H 0.99044 0.64522 0.70008
 H664 H 0.96995 0.60953 0.71429
 H665 H 0.90223 0.64295 0.69656
 H666 H 0.92265 0.67785 0.68154
 H667 H 0.93266 0.58969 0.72649
 H668 H 0.89200 0.60463 0.69417
 H669 H 0.85467 0.58545 0.70585
 H670 H 0.83366 0.54948 0.71862
 H671 H 0.90067 0.51549 0.73716
 H672 H 0.92174 0.55109 0.72431
 C673 C 0.48082 0.16684 0.18112
 C674 C 0.47151 0.14532 0.18968
 C675 C 0.44723 0.14035 0.18719
 C676 C 0.43250 0.15727 0.17563
 C677 C 0.44176 0.17876 0.16721
 C678 C 0.46601 0.18379 0.16980
 C679 C 0.43808 0.11700 0.19580
 C680 C 0.41500 0.11390 0.20113
 C681 C 0.40464 0.09059 0.20813
 C682 C 0.37996 0.08810 0.20570
 C683 C 0.36891 0.06696 0.21254
 C684 C 0.38223 0.04795 0.22231
 C685 C 0.40695 0.05002 0.22456
 C686 C 0.41814 0.07126 0.21757
 H687 H 0.49960 0.17024 0.18336
 H688 H 0.48330 0.13252 0.19828
 H689 H 0.41395 0.15377 0.17234
 H690 H 0.43005 0.19111 0.15796
 H691 H 0.45080 0.10213 0.19755
 H692 H 0.40258 0.12909 0.19978
 H693 H 0.36912 0.10263 0.19849
 H694 H 0.34980 0.06563 0.21060
 H695 H 0.41755 0.03549 0.23199
 H696 H 0.43713 0.07260 0.22012
 C697 C 0.33278 0.46189 -0.13929
 C698 C 0.32344 0.45414 -0.11804
 C699 C 0.30125 0.44300 -0.11699
 C700 C 0.28839 0.44001 -0.13775
 C701 C 0.29779 0.44775 -0.15906
 C702 C 0.32025 0.45844 -0.16010
 C703 C 0.29318 0.43312 -0.09434
 C704 C 0.27036 0.42844 -0.08919
 C705 C 0.26276 0.41602 -0.06759
 C706 C 0.24124 0.40360 -0.06782
 C707 C 0.23405 0.39020 -0.04858
 C708 C 0.24805 0.38924 -0.02849
 C709 C 0.26922 0.40223 -0.02788
 C710 C 0.27649 0.41563 -0.04716
 H711 H 0.34997 0.47042 -0.13945
 H712 H 0.33374 0.45660 -0.10236
 H713 H 0.27157 0.43085 -0.13786
 H714 H 0.28789 0.44451 -0.17483
 H715 H 0.30691 0.42907 -0.08179
 H716 H 0.25667 0.43258 -0.10176
 H717 H 0.23029 0.40364 -0.08326
 H718 H 0.21781 0.38016 -0.04985
 H719 H 0.28052 0.40145 -0.01271
 H720 H 0.29285 0.42549 -0.04593
 C721 C 0.79362 0.94094 0.34375
 C722 C 0.78324 0.92984 0.36306
 C723 C 0.79162 0.93423 0.38566
 C724 C 0.81048 0.95032 0.38858
 C725 C 0.82086 0.96139 0.36928
 C726 C 0.81281 0.95655 0.34662
 C727 C 0.78157 0.92029 0.40531
 C728 C 0.78362 0.92661 0.42786
 C729 C 0.77513 0.91129 0.44722
 C730 C 0.76906 0.92217 0.46881
 C731 C 0.76145 0.90811 0.48754
 C732 C 0.76024 0.88291 0.48504
 C733 C 0.76652 0.87196 0.46364
 C734 C 0.77402 0.88595 0.44491
 H735 H 0.78721 0.93661 0.32651
 H736 H 0.76888 0.91738 0.36028
 H737 H 0.81791 0.95380 0.40556
 H738 H 0.83550 0.97349 0.37207
 H739 H 0.77187 0.90420 0.40083
 H740 H 0.79117 0.94382 0.43250
 H741 H 0.76998 0.94162 0.47110
 H742 H 0.75646 0.91698 0.50384
 H743 H 0.76567 0.85249 0.46142
 H744 H 0.77933 0.87677 0.42885
 C745 C 0.83433 0.03733 1.15575
 C746 C 0.82602 0.04946 1.13613
 C747 C 0.80258 0.05856 1.13547
 C748 C 0.78754 0.05574 1.15493
 C749 C 0.79606 0.04433 1.17498
 C750 C 0.81963 0.03476 1.17573
 C751 C 0.79470 0.07203 1.11478
 C752 C 0.77385 0.06814 1.10450
 C753 C 0.76719 0.08093 1.08297
 C754 C 0.75769 0.06800 1.06421
 C755 C 0.75244 0.07974 1.04330
 C756 C 0.75613 0.10464 1.04116
 C757 C 0.76451 0.11778 1.06029
 C758 C 0.77037 0.10598 1.08093
 H759 H 0.85281 0.03122 1.15556
 H760 H 0.83797 0.05177 1.12137
 H761 H 0.76938 0.06287 1.15482
 H762 H 0.78384 0.04241 1.18957
 H763 H 0.80725 0.08416 1.10676
 H764 H 0.76239 0.05407 1.11090
 H765 H 0.75487 0.04872 1.06557
 H766 H 0.74537 0.06937 1.02896
 H767 H 0.76687 0.13714 1.05913
 H768 H 0.77719 0.11642 1.09538
 C769 C 0.29094 0.53857 0.66689
 C770 C 0.28099 0.54957 0.64725
 C771 C 0.29343 0.54930 0.62584
 C772 C 0.31565 0.53701 0.62422
 C773 C 0.32554 0.52600 0.64377
 C774 C 0.31340 0.52676 0.66538
 C775 C 0.28282 0.56176 0.60551
 C776 C 0.29625 0.57138 0.58860
 C777 C 0.28641 0.58465 0.56842
 C778 C 0.30083 0.60155 0.55728
 C779 C 0.29254 0.61433 0.53802
 C780 C 0.26982 0.61008 0.52919
 C781 C 0.25533 0.59313 0.54014
 C782 C 0.26354 0.58042 0.55958
 H783 H 0.28103 0.53919 0.68322
 H784 H 0.26372 0.55866 0.64888
 H785 H 0.32543 0.53572 0.60786
 H786 H 0.34295 0.51723 0.64203
 H787 H 0.26363 0.56434 0.60533
 H788 H 0.31547 0.57084 0.59018
 H789 H 0.31851 0.60511 0.56370
 H790 H 0.30395 0.62762 0.53027
 H791 H 0.23765 0.58973 0.53364
 H792 H 0.25213 0.56711 0.56735
 C793 C 0.22129 0.55291 0.33469
 C794 C 0.23252 0.56363 0.35373
 C795 C 0.22563 0.55813 0.37668
 C796 C 0.20753 0.54129 0.38021
 C797 C 0.19626 0.53068 0.36122
 C798 C 0.20269 0.53671 0.33827
 C799 C 0.23592 0.57197 0.39629
 C800 C 0.23568 0.56443 0.41848
 C801 C 0.24279 0.57988 0.43840
 C802 C 0.25001 0.56887 0.45923
 C803 C 0.25515 0.58294 0.47890
 C804 C 0.25270 0.60822 0.47812
 C805 C 0.24574 0.61930 0.45734
 C806 C 0.24074 0.60531 0.43767
 H807 H 0.22645 0.55807 0.31721
 H808 H 0.24625 0.57670 0.35051
 H809 H 0.20122 0.53698 0.39754
 H810 H 0.18210 0.51811 0.36449
 H811 H 0.24377 0.58916 0.39217
 H812 H 0.23008 0.54629 0.42240
 H813 H 0.25154 0.54933 0.46031
 H814 H 0.26073 0.57400 0.49468
 H815 H 0.24374 0.63882 0.45646
 H816 H 0.23450 0.61448 0.42224
 C817 C 0.66935 0.01556 0.87918
 C818 C 0.67710 0.02503 0.90033
 C819 C 0.69953 0.03542 0.90206
 C820 C 0.71454 0.03536 0.88223
 C821 C 0.70685 0.02579 0.86097
 C822 C 0.68375 0.01637 0.85880
 C823 C 0.70539 0.04799 0.92416
 C824 C 0.72736 0.05452 0.93020
 C825 C 0.73170 0.06957 0.95121
 C826 C 0.75380 0.06778 0.96237
 C827 C 0.75861 0.08266 0.98158
 C828 C 0.74145 0.09966 0.98977
 C829 C 0.71949 0.10168 0.97851
 C830 C 0.71462 0.08679 0.95944
 H831 H 0.65205 0.00733 0.87913
 H832 H 0.66525 0.02457 0.91538
 H833 H 0.73179 0.04369 0.88266
 H834 H 0.71860 0.02746 0.84601
 H835 H 0.69062 0.05215 0.93600
 H836 H 0.74268 0.04857 0.91981
 H837 H 0.76739 0.05494 0.95615
 H838 H 0.77584 0.08115 0.98983
 H839 H 0.70622 0.11516 0.98392
 H840 H 0.69778 0.08945 0.95071
 C841 C 0.72302 0.94098 0.68009
 C842 C 0.73252 0.93133 0.65918
 C843 C 0.72122 0.93588 0.63789
 C844 C 0.70084 0.95120 0.63779
 C845 C 0.69136 0.96077 0.65860
 C846 C 0.70217 0.95563 0.68005
 C847 C 0.73087 0.92436 0.61615
 C848 C 0.71690 0.91895 0.59808
 C849 C 0.72540 0.90622 0.57658
 C850 C 0.70875 0.89361 0.56337
 C851 C 0.71576 0.88118 0.54303
 C852 C 0.73951 0.88152 0.53522
 C853 C 0.75622 0.89435 0.54813
 C854 C 0.74925 0.90669 0.56865
 H855 H 0.73197 0.93696 0.69627
 H856 H 0.74842 0.91984 0.65969
 H857 H 0.69209 0.95586 0.62168
 H858 H 0.67515 0.97175 0.65788
 H859 H 0.74949 0.91872 0.61581
 H860 H 0.69787 0.92249 0.59959
 H861 H 0.69027 0.89302 0.56903
 H862 H 0.70255 0.87112 0.53370
 H863 H 0.77469 0.89468 0.54242
 H864 H 0.76248 0.91671 0.57804
 C865 C 0.16544 0.45284 0.14981
 C866 C 0.17151 0.44095 0.12892
 C867 C 0.19543 0.43544 0.12328
 C868 C 0.21325 0.44171 0.13917
 C869 C 0.20711 0.45329 0.16034
 C870 C 0.18314 0.45906 0.16576
 C871 C 0.20085 0.42206 0.10131
 C872 C 0.22108 0.42448 0.08896
 C873 C 0.22559 0.41114 0.06675
 C874 C 0.23871 0.42200 0.04885
 C875 C 0.24284 0.40985 0.02758
 C876 C 0.23444 0.38637 0.02414
 C877 C 0.22152 0.37543 0.04211
 C878 C 0.21716 0.38763 0.06321
 H879 H 0.14679 0.45674 0.15374
 H880 H 0.15746 0.43607 0.11708
 H881 H 0.23182 0.43716 0.13556
 H882 H 0.22105 0.45781 0.17244
 H883 H 0.18694 0.41085 0.09440
 H884 H 0.23400 0.43758 0.09445
 H885 H 0.24541 0.44009 0.05119
 H886 H 0.25255 0.41891 0.01400
 H887 H 0.21457 0.35746 0.03980
 H888 H 0.20744 0.37849 0.07683
 C889 C -0.15821 0.29280 0.46645
 C890 C -0.13714 0.28091 0.45886
 C891 C -0.12325 0.29061 0.44088
 C892 C -0.13127 0.31193 0.42998
 C893 C -0.15238 0.32366 0.43738
 C894 C -0.16599 0.31443 0.45590
 C895 C -0.10099 0.27780 0.43314
 C896 C -0.08216 0.28967 0.42481
 C897 C -0.06024 0.27764 0.41519
 C898 C -0.03933 0.29104 0.41370
 C899 C -0.01895 0.28139 0.40248
 C900 C -0.01920 0.25831 0.39215
 C901 C -0.03974 0.24444 0.39440
 C902 C -0.06013 0.25402 0.40573
 H903 H -0.16815 0.28526 0.48084
 H904 H -0.13146 0.26435 0.46733
 H905 H -0.12149 0.31937 0.41544
 H906 H -0.15818 0.33985 0.42837
 H907 H -0.09996 0.25833 0.43509
 H908 H -0.08264 0.30929 0.42519
 H909 H -0.03892 0.30927 0.42084
 H910 H -0.00331 0.29237 0.40134
 H911 H -0.04032 0.22640 0.38697
 H912 H -0.07597 0.24323 0.40615
 C913 C 0.33898 0.79040 0.94970
 C914 C 0.35899 0.77822 0.94014
 C915 C 0.38179 0.78799 0.94200
 C916 C 0.38431 0.80977 0.95459
 C917 C 0.36429 0.82192 0.96420
 C918 C 0.34135 0.81259 0.96155
 C919 C 0.40224 0.77493 0.93049
 C920 C 0.42249 0.78560 0.92385
 C921 C 0.44191 0.77291 0.91038
 C922 C 0.46494 0.78244 0.91048
 C923 C 0.48342 0.77154 0.89718
 C924 C 0.47921 0.75090 0.88357
 C925 C 0.45617 0.74162 0.88307
 C926 C 0.43771 0.75245 0.89631
 H927 H 0.32157 0.78279 0.94719
 H928 H 0.35655 0.76139 0.93069
 H929 H 0.40163 0.81746 0.95724
 H930 H 0.36679 0.83867 0.97374
 H931 H 0.39987 0.75596 0.92650
 H932 H 0.42502 0.80452 0.92795
 H933 H 0.46859 0.79843 0.92081
 H934 H 0.50095 0.77935 0.89735
 H935 H 0.45209 0.72630 0.87207
 H936 H 0.42009 0.74514 0.89478
 C937 C 1.14256 0.83680 0.03158
 C938 C 1.12179 0.82856 0.04220
 C939 C 1.12155 0.80594 0.05308
 C940 C 1.14271 0.79169 0.05325
 C941 C 1.16359 0.80001 0.04268
 C942 C 1.16373 0.82267 0.03175
 C943 C 1.09936 0.79874 0.06523
 C944 C 1.09414 0.77578 0.07030
 C945 C 1.07231 0.76918 0.08343
 C946 C 1.06339 0.74580 0.08076
 C947 C 1.04351 0.73864 0.09373
 C948 C 1.03248 0.75456 0.10998
 C949 C 1.04098 0.77813 0.11224
 C950 C 1.06079 0.78533 0.09929
 H951 H 1.14218 0.85455 0.02373
 H952 H 1.10585 0.84003 0.04206
 H953 H 1.14346 0.77445 0.06201
 H954 H 1.17963 0.78873 0.04308
 H955 H 1.08650 0.81307 0.06949
 H956 H 1.10580 0.76114 0.06410
 H957 H 1.07182 0.73303 0.06860
 H958 H 1.03680 0.72067 0.09096
 H959 H 1.03270 0.79105 0.12422
 H960 H 1.06737 0.80333 0.10232
 C961 C 0.63475 0.32335 0.51897
 C962 C 0.61480 0.31191 0.52813
 C963 C 0.61716 0.28930 0.53886
 C964 C 0.63982 0.27781 0.53939
 C965 C 0.65979 0.28922 0.53014
 C966 C 0.65754 0.31225 0.52008
 C967 C 0.59571 0.27850 0.54954
 C968 C 0.59683 0.26374 0.56794
 C969 C 0.57547 0.25528 0.58064
 C970 C 0.57764 0.24960 0.60430
 C971 C 0.55788 0.24237 0.61725
 C972 C 0.53556 0.24041 0.60675
 C973 C 0.53340 0.24524 0.58291
 C974 C 0.55318 0.25270 0.56992
 H975 H 0.63239 0.34120 0.51160
 H976 H 0.59754 0.32109 0.52739
 H977 H 0.64220 0.25999 0.54679
 H978 H 0.67699 0.27994 0.53079
 H979 H 0.57848 0.28478 0.54342
 H980 H 0.61401 0.25942 0.57545
 H981 H 0.59462 0.25118 0.61294
 H982 H 0.56009 0.23838 0.63556
 H983 H 0.51652 0.24342 0.57427
 H984 H 0.55101 0.25617 0.55152
 C985 C 0.35204 0.18961 0.52647
 C986 C 0.37247 0.20041 0.53523
 C987 C 0.38488 0.18995 0.55385
 C988 C 0.37594 0.16893 0.56412
 C989 C 0.35553 0.15821 0.55545
 C990 C 0.34345 0.16825 0.53638
 C991 C 0.40650 0.20172 0.56277
 C992 C 0.42431 0.18907 0.57275
 C993 C 0.44542 0.19986 0.58382
 C994 C 0.45894 0.18523 0.59881
 C995 C 0.47835 0.19449 0.61064
 C996 C 0.48495 0.21856 0.60750
 C997 C 0.47189 0.23319 0.59214
 C998 C 0.45230 0.22396 0.58032
 H999 H 0.34321 0.19775 0.51170
 H1000 H 0.37882 0.21676 0.52721
 H1001 H 0.38437 0.16093 0.57917
 H1002 H 0.34900 0.14219 0.56392
 H1003 H 0.40749 0.22112 0.56094
 H1004 H 0.42310 0.16956 0.57366
 H1005 H 0.45414 0.16662 0.60184
 H1006 H 0.48780 0.18276 0.62253
 H1007 H 0.47650 0.25193 0.58969
 H1008 H 0.44274 0.23580 0.56861
 C1009 C 0.85780 0.69868 0.02189
 C1010 C 0.87871 0.70861 0.03057
 C1011 C 0.88946 0.69910 0.05060
 C1012 C 0.87840 0.67998 0.06224
 C1013 C 0.85757 0.67011 0.05361
 C1014 C 0.84713 0.67916 0.03322
 C1015 C 0.91143 0.71014 0.05963
 C1016 C 0.92734 0.69768 0.07239
 C1017 C 0.94779 0.70868 0.08431
 C1018 C 0.95665 0.69719 0.10423
 C1019 C 0.97486 0.70743 0.11708
 C1020 C 0.98495 0.72917 0.11000
 C1021 C 0.97686 0.74031 0.08960
 C1022 C 0.95836 0.73019 0.07682
 H1023 H 0.85020 0.70602 0.00612
 H1024 H 0.88668 0.72356 0.02148
 H1025 H 0.88542 0.67289 0.07835
 H1026 H 0.84941 0.65559 0.06315
 H1027 H 0.91413 0.72906 0.05596
 H1028 H 0.92458 0.67865 0.07556
 H1029 H 0.94889 0.68059 0.11033
 H1030 H 0.98049 0.69859 0.13290
 H1031 H 0.98447 0.75712 0.08389
 H1032 H 0.95246 0.73925 0.06120
 C1033 C 0.65129 0.69972 0.97885
 C1034 C 0.62985 0.70777 0.96898
 C1035 C 0.62585 0.70464 0.94504
 C1036 C 0.64425 0.69443 0.93092
 C1037 C 0.66566 0.68645 0.94074
 C1038 C 0.66931 0.68866 0.96487
 C1039 C 0.60258 0.71248 0.93526
 C1040 C 0.59339 0.70204 0.91625
 C1041 C 0.57086 0.71009 0.90517
 C1042 C 0.56771 0.70431 0.88154
 C1043 C 0.54724 0.71208 0.86996
 C1044 C 0.52939 0.72562 0.88180
 C1045 C 0.53188 0.73063 0.90565
 C1046 C 0.55252 0.72301 0.91728
 H1047 H 0.65370 0.70199 0.99744
 H1048 H 0.61613 0.71596 0.98017
 H1049 H 0.64226 0.69258 0.91224
 H1050 H 0.67909 0.67790 0.92949
 H1051 H 0.59284 0.72701 0.94423
 H1052 H 0.60317 0.68725 0.90770
 H1053 H 0.58139 0.69418 0.87184
 H1054 H 0.54556 0.70788 0.85156
 H1055 H 0.51811 0.74062 0.91527
 H1056 H 0.55389 0.72708 0.93569
 C1057 C 0.17482 0.18428 0.43541
 C1058 C 0.15582 0.19634 0.42472
 C1059 C 0.13596 0.20465 0.43785
 C1060 C 0.13587 0.20150 0.46216
 C1061 C 0.15504 0.18962 0.47293
 C1062 C 0.17463 0.18059 0.45965
 C1063 C 0.11584 0.21627 0.42536
 C1064 C 0.09306 0.21578 0.43279
 C1065 C 0.07271 0.22454 0.41858
 C1066 C 0.05076 0.23029 0.42967
 C1067 C 0.03088 0.23738 0.41662
 C1068 C 0.03266 0.23859 0.39228
 C1069 C 0.05447 0.23298 0.38115
 C1070 C 0.07426 0.22585 0.39408
 H1071 H 0.18936 0.17727 0.42454
 H1072 H 0.15634 0.19859 0.40597
 H1073 H 0.12121 0.20836 0.47294
 H1074 H 0.15455 0.18757 0.49169
 H1075 H 0.12005 0.22419 0.40868
 H1076 H 0.08888 0.20804 0.44957
 H1077 H 0.04899 0.22916 0.44846
 H1078 H 0.01414 0.24161 0.42552
 H1079 H 0.05607 0.23366 0.36232
 H1080 H 0.09041 0.22071 0.38463
 C1081 C 0.60776 0.09167 0.71185
 C1082 C 0.59881 0.11123 0.69922
 C1083 C 0.57467 0.11824 0.70103
 C1084 C 0.55951 0.10513 0.71577
 C1085 C 0.56849 0.08540 0.72837
 C1086 C 0.59271 0.07846 0.72650
 C1087 C 0.56593 0.13821 0.68612
 C1088 C 0.54602 0.15147 0.69050
 C1089 C 0.53771 0.17087 0.67468
 C1090 C 0.52414 0.19055 0.68380
 C1091 C 0.51591 0.20899 0.66915
 C1092 C 0.52090 0.20778 0.64516
 C1093 C 0.53420 0.18808 0.63595
 C1094 C 0.54245 0.16973 0.65052
 H1095 H 0.62640 0.08648 0.70964
 H1096 H 0.61079 0.12082 0.68779
 H1097 H 0.54066 0.10958 0.71715
 H1098 H 0.55649 0.07551 0.73951
 H1099 H 0.57702 0.14266 0.67124
 H1100 H 0.53603 0.14886 0.70651
 H1101 H 0.52003 0.19171 0.70229
 H1102 H 0.50548 0.22396 0.67656
 H1103 H 0.53794 0.18674 0.61740
 H1104 H 0.55209 0.15444 0.64270
 C1105 C 1.05945 0.57969 0.21237
 C1106 C 1.04789 0.59879 0.20098
 C1107 C 1.05366 0.62290 0.20585
 C1108 C 1.07078 0.62757 0.22296
 C1109 C 1.08239 0.60845 0.23431
 C1110 C 1.07723 0.58430 0.22876
 C1111 C 1.04328 0.64226 0.19112
 C1112 C 1.04277 0.66588 0.19687
 C1113 C 1.03448 0.68474 0.18047
 C1114 C 1.02350 0.70613 0.18916
 C1115 C 1.01551 0.72412 0.17389
 C1116 C 1.01894 0.72124 0.14971
 C1117 C 1.03031 0.70006 0.14110
 C1118 C 1.03807 0.68203 0.15627
 H1119 H 1.05530 0.56128 0.20749
 H1120 H 1.03490 0.59467 0.18777
 H1121 H 1.07613 0.64583 0.22692
 H1122 H 1.09591 0.61254 0.24699
 H1123 H 1.03577 0.63667 0.17466
 H1124 H 1.04795 0.67168 0.21413
 H1125 H 1.02067 0.70869 0.20775
 H1126 H 1.00636 0.73997 0.18108
 H1127 H 1.03281 0.69709 0.12259
 H1128 H 1.04709 0.66609 0.14899
 C1129 C 0.94952 0.89943 0.23341
 C1130 C 0.96143 0.87915 0.22355
 C1131 C 0.95062 0.86520 0.20618
 C1132 C 0.92740 0.87178 0.19918
 C1133 C 0.91563 0.89207 0.20887
 C1134 C 0.92645 0.90611 0.22618
 C1135 C 0.96373 0.84365 0.19633
 C1136 C 0.95821 0.83326 0.17588
 C1137 C 0.97033 0.81125 0.16605
 C1138 C 0.95793 0.79730 0.14985
 C1139 C 0.96874 0.77696 0.13923
 C1140 C 0.99237 0.77034 0.14429
 C1141 C 1.00478 0.78403 0.16072
 C1142 C 0.99392 0.80436 0.17152
 H1143 H 0.95825 0.90965 0.24694
 H1144 H 0.97917 0.87437 0.22950
 H1145 H 0.91790 0.86122 0.18652
 H1146 H 0.89800 0.89681 0.20266
 H1147 H 0.97833 0.83624 0.20639
 H1148 H 0.94379 0.84076 0.16570
 H1149 H 0.93975 0.80219 0.14533
 H1150 H 0.95853 0.76671 0.12688
 H1151 H 1.02306 0.77921 0.16490
 H1152 H 1.00427 0.81492 0.18352
 C1153 C 0.41591 0.37082 0.72465
 C1154 C 0.42595 0.34927 0.71564
 C1155 C 0.44374 0.34967 0.69826
 C1156 C 0.45147 0.37219 0.69015
 C1157 C 0.44134 0.39377 0.69910
 C1158 C 0.42322 0.39333 0.71624
 C1159 C 0.45252 0.32638 0.68795
 C1160 C 0.47384 0.32348 0.67733
 C1161 C 0.48185 0.30046 0.66591
 C1162 C 0.50638 0.29529 0.66363
 C1163 C 0.51459 0.27433 0.65195
 C1164 C 0.49843 0.25842 0.64192
 C1165 C 0.47390 0.26334 0.64439
 C1166 C 0.46564 0.28421 0.65620
 H1167 H 0.40225 0.36984 0.73810
 H1168 H 0.41964 0.33218 0.72215
 H1169 H 0.46463 0.37325 0.67628
 H1170 H 0.44706 0.41079 0.69196
 H1171 H 0.44112 0.31094 0.68976
 H1172 H 0.48628 0.33817 0.67752
 H1173 H 0.51922 0.30755 0.67087
 H1174 H 0.53360 0.27083 0.65052
 H1175 H 0.46102 0.25121 0.63710
 H1176 H 0.44661 0.28785 0.65709
 C1177 C 0.44954 0.58223 0.76345
 C1178 C 0.46115 0.60325 0.77047
 C1179 C 0.45007 0.61960 0.78631
 C1180 C 0.42663 0.61536 0.79390
 C1181 C 0.41503 0.59454 0.78684
 C1182 C 0.42654 0.57741 0.77201
 C1183 C 0.46316 0.64073 0.79512
 C1184 C 0.46035 0.64854 0.81722
 C1185 C 0.47270 0.66942 0.82745
 C1186 C 0.47519 0.67035 0.85176
 C1187 C 0.48502 0.69044 0.86254
 C1188 C 0.49209 0.71024 0.84930
 C1189 C 0.49019 0.70930 0.82495
 C1190 C 0.48051 0.68901 0.81404
 H1191 H 0.45883 0.56940 0.75196
 H1192 H 0.47911 0.60631 0.76418
 H1193 H 0.41722 0.62812 0.80537
 H1194 H 0.39702 0.59178 0.79310
 H1195 H 0.47623 0.64886 0.78376
 H1196 H 0.44900 0.63851 0.82891
 H1197 H 0.46928 0.65555 0.86248
 H1198 H 0.48656 0.69078 0.88136
 H1199 H 0.49576 0.72433 0.81440
 H1200 H 0.47846 0.68907 0.79531
 C1201 C -0.07560 0.10535 0.27319
 C1202 C -0.06476 0.12691 0.27972
 C1203 C -0.05480 0.12949 0.30192
 C1204 C -0.05612 0.11009 0.31759
 C1205 C -0.06697 0.08860 0.31109
 C1206 C -0.07696 0.08602 0.28889
 C1207 C -0.04447 0.15298 0.30874
 C1208 C -0.02781 0.15479 0.32522
 C1209 C -0.01857 0.17796 0.33435
 C1210 C 0.00146 0.17689 0.34876
 C1211 C 0.00955 0.19767 0.35986
 C1212 C -0.00212 0.22009 0.35668
 C1213 C -0.02181 0.22145 0.34188
 C1214 C -0.03006 0.20058 0.33083
 H1215 H -0.08347 0.10404 0.25608
 H1216 H -0.06426 0.14168 0.26744
 H1217 H -0.04942 0.11158 0.33514
 H1218 H -0.06764 0.07400 0.32353
 H1219 H -0.05061 0.16892 0.29960
 H1220 H -0.02035 0.13837 0.33262
 H1221 H 0.01054 0.15974 0.35199
 H1222 H 0.02450 0.19584 0.37146
 H1223 H -0.03142 0.23848 0.33962
 H1224 H -0.04591 0.20225 0.32039
 C1225 C 0.10959 0.38769 0.30149
 C1226 C 0.09990 0.36656 0.31023
 C1227 C 0.07563 0.36182 0.30748
 C1228 C 0.06126 0.37851 0.29523
 C1229 C 0.07100 0.39976 0.28647
 C1230 C 0.09517 0.40477 0.28993
 C1231 C 0.06588 0.34051 0.31947
 C1232 C 0.04499 0.33040 0.31455
 C1233 C 0.03551 0.31042 0.32873
 C1234 C 0.02158 0.29260 0.31830
 C1235 C 0.01276 0.27350 0.33155
 C1236 C 0.01732 0.27233 0.35552
 C1237 C 0.03094 0.29031 0.36596
 C1238 C 0.03982 0.30922 0.35280
 H1239 H 0.12837 0.39080 0.30404
 H1240 H 0.11136 0.35404 0.31958
 H1241 H 0.04237 0.37579 0.29320
 H1242 H 0.05943 0.41270 0.27781
 H1243 H 0.07673 0.33266 0.33309
 H1244 H 0.03488 0.33628 0.29959
 H1245 H 0.01787 0.29324 0.29981
 H1246 H 0.00252 0.25975 0.32300
 H1247 H 0.03499 0.28966 0.38436
 H1248 H 0.04986 0.32301 0.36161
 C1249 C 0.60327 0.87292 0.78626
 C1250 C 0.59323 0.85065 0.79107
 C1251 C 0.56873 0.84726 0.78823
 C1252 C 0.55461 0.86628 0.77911
 C1253 C 0.56480 0.88857 0.77393
 C1254 C 0.58910 0.89221 0.77807
 C1255 C 0.55888 0.82402 0.79607
 C1256 C 0.53640 0.82143 0.80377
 C1257 C 0.52901 0.79977 0.81688
 C1258 C 0.50503 0.79295 0.81692
 C1259 C 0.49750 0.77366 0.83068
 C1260 C 0.51379 0.76113 0.84477
 C1261 C 0.53766 0.76802 0.84485
 C1262 C 0.54522 0.78708 0.83108
 H1263 H 0.62211 0.87523 0.78928
 H1264 H 0.60454 0.83628 0.79789
 H1265 H 0.53577 0.86411 0.77612
 H1266 H 0.55360 0.90321 0.76748
 H1267 H 0.57149 0.80900 0.79774
 H1268 H 0.52333 0.83598 0.80185
 H1269 H 0.49211 0.80272 0.80649
 H1270 H 0.47889 0.76885 0.83070
 H1271 H 0.55054 0.75924 0.85601
 H1272 H 0.56359 0.79243 0.83243
 C1273 C 0.70998 0.55292 0.08188
 C1274 C 0.69957 0.54198 0.10124
 C1275 C 0.70233 0.55156 0.12370
 C1276 C 0.71622 0.57214 0.12653
 C1277 C 0.72655 0.58326 0.10724
 C1278 C 0.72324 0.57436 0.08421
 C1279 C 0.68861 0.54112 0.14326
 C1280 C 0.69409 0.54412 0.16581
 C1281 C 0.67813 0.53656 0.18503
 C1282 C 0.68778 0.53097 0.20687
 C1283 C 0.67287 0.52514 0.22567
 C1284 C 0.64807 0.52542 0.22296
 C1285 C 0.63840 0.53080 0.20116
 C1286 C 0.65322 0.53643 0.18239
 H1287 H 0.70579 0.54520 0.06509
 H1288 H 0.68869 0.52626 0.09855
 H1289 H 0.71860 0.58030 0.14354
 H1290 H 0.73760 0.59855 0.11093
 H1291 H 0.67315 0.53073 0.13877
 H1292 H 0.71073 0.55231 0.17050
 H1293 H 0.70690 0.53110 0.20937
 H1294 H 0.68078 0.52062 0.24220
 H1295 H 0.61927 0.53106 0.19875
 H1296 H 0.64504 0.54139 0.16608
 C1297 C 0.20165 1.04295 0.58168
 C1298 C 0.19086 1.03282 0.60129
 C1299 C 0.19651 1.04077 0.62386
 C1300 C 0.21355 1.05890 0.62640
 C1301 C 0.22433 1.06900 0.60680
 C1302 C 0.21823 1.06144 0.58421
 C1303 C 0.18291 1.03118 0.64400
 C1304 C 0.18988 1.03302 0.66626
 C1305 C 0.17498 1.02551 0.68636
 C1306 C 0.18598 1.02054 0.70771
 C1307 C 0.17236 1.01456 0.72734
 C1308 C 0.14745 1.01348 0.72600
 C1309 C 0.13640 1.01887 0.70482
 C1310 C 0.14995 1.02482 0.68520
 H1311 H 0.19634 1.03694 0.56451
 H1312 H 0.17766 1.01905 0.59880
 H1313 H 0.21806 1.06605 0.64336
 H1314 H 0.23722 1.08306 0.60934
 H1315 H 0.16648 1.02214 0.64012
 H1316 H 0.20730 1.03991 0.67013
 H1317 H 0.20517 1.02144 0.70923
 H1318 H 0.18141 1.01127 0.74357
 H1319 H 0.11722 1.01910 0.70346
 H1320 H 0.14064 1.02960 0.66943
 C1321 C 0.22672 0.91231 0.88306
 C1322 C 0.21782 0.92267 0.86276
 C1323 C 0.20595 0.94521 0.86335
 C1324 C 0.20359 0.95755 0.88483
 C1325 C 0.21253 0.94728 0.90526
 C1326 C 0.22390 0.92404 0.90509
 C1327 C 0.19516 0.95420 0.84145
 C1328 C 0.18750 0.97709 0.83807
 C1329 C 0.17491 0.98479 0.81666
 C1330 C 0.15883 1.00462 0.81807
 C1331 C 0.14546 1.01150 0.79871
 C1332 C 0.14803 0.99871 0.77754
 C1333 C 0.16489 0.97963 0.77574
 C1334 C 0.17828 0.97274 0.79506
 H1335 H 0.23654 0.89537 0.88085
 H1336 H 0.22021 0.91286 0.84639
 H1337 H 0.19400 0.97470 0.88631
 H1338 H 0.20877 0.95724 0.92124
 H1339 H 0.19295 0.94088 0.82773
 H1340 H 0.18925 0.99053 0.85173
 H1341 H 0.15614 1.01444 0.83438
 H1342 H 0.13287 1.02655 0.80054
 H1343 H 0.16745 0.96981 0.75942
 H1344 H 0.19121 0.95802 0.79292
 C1345 C 0.69425 0.41463 0.38766
 C1346 C 0.68493 0.42556 0.36786
 C1347 C 0.69066 0.44937 0.36216
 C1348 C 0.70616 0.46210 0.37672
 C1349 C 0.71569 0.45103 0.39656
 C1350 C 0.70992 0.42710 0.40217
 C1351 C 0.68030 0.45958 0.34064
 C1352 C 0.67754 0.48330 0.33622
 C1353 C 0.66498 0.49207 0.31515
 C1354 C 0.67051 0.51464 0.30564
 C1355 C 0.65911 0.52285 0.28547
 C1356 C 0.64219 0.50849 0.27446
 C1357 C 0.63582 0.48657 0.28462
 C1358 C 0.64698 0.47848 0.30474
 H1359 H 0.68895 0.39641 0.39170
 H1360 H 0.67296 0.41536 0.35702
 H1361 H 0.71140 0.48031 0.37264
 H1362 H 0.72794 0.46103 0.40724
 H1363 H 0.67389 0.44654 0.32811
 H1364 H 0.68442 0.49667 0.34812
 H1365 H 0.68386 0.52576 0.31366
 H1366 H 0.66367 0.54024 0.27833
 H1367 H 0.62198 0.47565 0.27730
 H1368 H 0.64110 0.46172 0.31226
 C1369 C 0.76004 0.45354 0.58046
 C1370 C 0.76675 0.46610 0.60056
 C1371 C 0.77844 0.45396 0.61871
 C1372 C 0.78321 0.42892 0.61640
 C1373 C 0.77670 0.41644 0.59626
 C1374 C 0.76532 0.42866 0.57797
 C1375 C 0.78731 0.46812 0.63877
 C1376 C 0.79134 0.45842 0.65975
 C1377 C 0.80343 0.47136 0.67886
 C1378 C 0.80011 0.46363 0.70189
 C1379 C 0.81303 0.47382 0.72008
 C1380 C 0.82965 0.49178 0.71551
 C1381 C 0.83293 0.49966 0.69255
 C1382 C 0.81991 0.48962 0.67438
 H1383 H 0.75148 0.46342 0.56652
 H1384 H 0.76312 0.48543 0.60181
 H1385 H 0.79279 0.41903 0.62967
 H1386 H 0.78084 0.39722 0.59484
 H1387 H 0.79068 0.48710 0.63600
 H1388 H 0.78572 0.44016 0.66320
 H1389 H 0.78780 0.44935 0.70576
 H1390 H 0.81049 0.46714 0.73757
 H1391 H 0.84617 0.51289 0.68837
 H1392 H 0.82366 0.49543 0.65678
 C1393 C 0.26118 -0.06137 0.09763
 C1394 C 0.26781 -0.04904 0.11794
 C1395 C 0.29045 -0.03886 0.11961
 C1396 C 0.30633 -0.04128 0.10045
 C1397 C 0.29972 -0.05354 0.08025
 C1398 C 0.27722 -0.06401 0.07868
 C1399 C 0.29771 -0.02759 0.14200
 C1400 C 0.31536 -0.01168 0.14329
 C1401 C 0.32616 -0.00363 0.16538
 C1402 C 0.35032 0.00228 0.16478
 C1403 C 0.36180 0.00933 0.18503
 C1404 C 0.34927 0.01114 0.20627
 C1405 C 0.32495 0.00583 0.20705
 C1406 C 0.31344 -0.00171 0.18670
 H1407 H 0.24382 -0.06951 0.09706
 H1408 H 0.25535 -0.04774 0.13251
 H1409 H 0.32426 -0.03457 0.10115
 H1410 H 0.31242 -0.05512 0.06590
 H1411 H 0.28897 -0.03350 0.15782
 H1412 H 0.32377 -0.00554 0.12741
 H1413 H 0.36050 0.00100 0.14861
 H1414 H 0.38059 0.01339 0.18408
 H1415 H 0.31494 0.00738 0.22326
 H1416 H 0.29465 -0.00566 0.18764
 C1417 C 0.27741 0.04121 0.40011
 C1418 C 0.28341 0.03280 0.37757
 C1419 C 0.29104 0.04896 0.36038
 C1420 C 0.29122 0.07389 0.36586
 C1421 C 0.28564 0.08216 0.38835
 C1422 C 0.27910 0.06590 0.40578
 C1423 C 0.29903 0.03951 0.33710
 C1424 C 0.31497 0.05126 0.32403
 C1425 C 0.32444 0.04336 0.30083
 C1426 C 0.33750 0.06024 0.28817
 C1427 C 0.34880 0.05375 0.26723
 C1428 C 0.34725 0.03017 0.25822
 C1429 C 0.33373 0.01325 0.27040
 C1430 C 0.32233 0.01975 0.29158
 H1431 H 0.27217 0.02839 0.41328
 H1432 H 0.28271 0.01359 0.37373
 H1433 H 0.29565 0.08717 0.35288
 H1434 H 0.28638 0.10138 0.39217
 H1435 H 0.29229 0.02233 0.33126
 H1436 H 0.32215 0.06789 0.33080
 H1437 H 0.33953 0.07850 0.29483
 H1438 H 0.35943 0.06718 0.25873
 H1439 H 0.33271 -0.00519 0.26395
 H1440 H 0.31274 0.00606 0.30092
 C1441 C 0.75703 0.58031 0.88955
 C1442 C 0.76179 0.57118 0.86710
 C1443 C 0.78121 0.55519 0.86292
 C1444 C 0.79571 0.54828 0.88170
 C1445 C 0.79112 0.55765 0.90407
 C1446 C 0.77192 0.57398 0.90815
 C1447 C 0.78734 0.54802 0.83859
 C1448 C 0.79927 0.52744 0.83298
 C1449 C 0.80848 0.52208 0.80913
 C1450 C 0.81219 0.49789 0.80202
 C1451 C 0.82312 0.49234 0.78051
 C1452 C 0.83089 0.51089 0.76591
 C1453 C 0.82700 0.53507 0.77290
 C1454 C 0.81580 0.54065 0.79423
 H1455 H 0.74229 0.59312 0.89218
 H1456 H 0.75055 0.57698 0.85288
 H1457 H 0.81121 0.53650 0.87901
 H1458 H 0.80284 0.55249 0.91814
 H1459 H 0.78190 0.56028 0.82491
 H1460 H 0.80262 0.51402 0.84626
 H1461 H 0.80705 0.48327 0.81334
 H1462 H 0.82641 0.47353 0.77578
 H1463 H 0.83319 0.54979 0.76238
 H1464 H 0.81397 0.55949 0.79947
 C1465 C 0.11685 0.72545 0.59411
 C1466 C 0.13812 0.71751 0.58332
 C1467 C 0.13785 0.70200 0.56380
 C1468 C 0.11569 0.69537 0.55468
 C1469 C 0.09439 0.70333 0.56549
 C1470 C 0.09474 0.71820 0.58550
 C1471 C 0.16099 0.69328 0.55361
 C1472 C 0.16352 0.67302 0.54063
 C1473 C 0.18679 0.66352 0.53151
 C1474 C 0.18691 0.64775 0.51215
 C1475 C 0.20827 0.63744 0.50356
 C1476 C 0.22993 0.64265 0.51423
 C1477 C 0.22994 0.65816 0.53371
 C1478 C 0.20859 0.66858 0.54230
 H1479 H 0.11771 0.73732 0.60921
 H1480 H 0.15490 0.72318 0.59052
 H1481 H 0.11458 0.68416 0.53919
 H1482 H 0.07765 0.69743 0.55843
 H1483 H 0.17655 0.70365 0.55775
 H1484 H 0.14802 0.66262 0.53642
 H1485 H 0.17038 0.64327 0.50373
 H1486 H 0.20764 0.62509 0.48885
 H1487 H 0.24646 0.66193 0.54248
 H1488 H 0.20922 0.67990 0.55776
 C1489 C 0.61347 0.25029 1.06974
 C1490 C 0.63456 0.23945 1.06102
 C1491 C 0.63385 0.21873 1.04673
 C1492 C 0.61154 0.21001 1.04002
 C1493 C 0.59045 0.22090 1.04868
 C1494 C 0.59120 0.24078 1.06411
 C1495 C 0.65659 0.20632 1.03971
 C1496 C 0.65826 0.18228 1.03616
 C1497 C 0.68090 0.16866 1.03121
 C1498 C 0.68136 0.14354 1.03476
 C1499 C 0.70196 0.12967 1.02995
 C1500 C 0.72246 0.14055 1.02119
 C1501 C 0.72234 0.16565 1.01786
 C1502 C 0.70167 0.17964 1.02269
 H1503 H 0.61459 0.26588 1.08126
 H1504 H 0.65150 0.24675 1.06613
 H1505 H 0.61029 0.19460 1.02833
 H1506 H 0.57357 0.21316 1.04401
 H1507 H 0.67253 0.21698 1.03964
 H1508 H 0.64245 0.17163 1.03845
 H1509 H 0.66568 0.13458 1.04127
 H1510 H 0.70175 0.11030 1.03272
 H1511 H 0.73804 0.17447 1.01132
 H1512 H 0.70199 0.19884 1.01928
 C1513 C 0.87585 0.22103 0.91465
 C1514 C 0.85576 0.21197 0.92587
 C1515 C 0.85758 0.20081 0.94756
 C1516 C 0.87992 0.19968 0.95833
 C1517 C 0.90010 0.20882 0.94724
 C1518 C 0.89878 0.21950 0.92486
 C1519 C 0.83576 0.19091 0.95837
 C1520 C 0.83615 0.17271 0.97371
 C1521 C 0.81444 0.16166 0.98366
 C1522 C 0.81674 0.14765 1.00384
 C1523 C 0.79711 0.13591 1.01328
 C1524 C 0.77475 0.13803 1.00278
 C1525 C 0.77236 0.15176 0.98249
 C1526 C 0.79197 0.16352 0.97299
 H1527 H 0.87269 0.23019 0.89839
 H1528 H 0.83863 0.21359 0.91741
 H1529 H 0.88199 0.19182 0.97540
 H1530 H 0.91679 0.20613 0.95614
 H1531 H 0.81887 0.19846 0.95268
 H1532 H 0.85312 0.16517 0.97923
 H1533 H 0.83387 0.14555 1.01220
 H1534 H 0.79973 0.12474 1.02845
 H1535 H 0.75537 0.15302 0.97375
 H1536 H 0.78947 0.17331 0.95695
 C1537 C 0.41632 0.71853 0.45152
 C1538 C 0.39850 0.70569 0.46285
 C1539 C 0.37430 0.71095 0.45878
 C1540 C 0.36829 0.72991 0.44354
 C1541 C 0.38614 0.74281 0.43225
 C1542 C 0.41035 0.73695 0.43575
 C1543 C 0.35626 0.69492 0.46922
 C1544 C 0.33273 0.69994 0.47006
 C1545 C 0.31512 0.68240 0.47865
 C1546 C 0.29305 0.69102 0.48758
 C1547 C 0.27589 0.67486 0.49534
 C1548 C 0.28056 0.64984 0.49419
 C1549 C 0.30226 0.64114 0.48470
 C1550 C 0.31942 0.65722 0.47699
 H1551 H 0.43477 0.71329 0.45436
 H1552 H 0.40368 0.69110 0.47436
 H1553 H 0.34995 0.73436 0.43949
 H1554 H 0.38096 0.75706 0.42037
 H1555 H 0.36287 0.67810 0.47655
 H1556 H 0.32595 0.71753 0.46485
 H1557 H 0.28912 0.71030 0.48861
 H1558 H 0.25904 0.68200 0.50207
 H1559 H 0.30594 0.62184 0.48320
 H1560 H 0.33574 0.64980 0.46929
 C1561 C 0.60169 0.81311 0.40586
 C1562 C 0.62326 0.82006 0.41540
 C1563 C 0.62975 0.81269 0.43782
 C1564 C 0.61430 0.79777 0.45045
 C1565 C 0.59262 0.79082 0.44087
 C1566 C 0.58592 0.79877 0.41862
 C1567 C 0.65167 0.82267 0.44791
 C1568 C 0.66331 0.81320 0.46610
 C1569 C 0.68412 0.82520 0.47643
 C1570 C 0.70226 0.81121 0.48681
 C1571 C 0.72202 0.82235 0.49663
 C1572 C 0.72357 0.84764 0.49657
 C1573 C 0.70536 0.86163 0.48650
 C1574 C 0.68576 0.85058 0.47664
 H1575 H 0.59727 0.81914 0.38849
 H1576 H 0.63479 0.83156 0.40531
 H1577 H 0.61839 0.79219 0.46800
 H1578 H 0.58071 0.77997 0.45120
 H1579 H 0.65870 0.83857 0.43961
 H1580 H 0.65808 0.79603 0.47323
 H1581 H 0.70128 0.79165 0.48704
 H1582 H 0.73597 0.81122 0.50420
 H1583 H 0.70623 0.88120 0.48640
 H1584 H 0.67175 0.86201 0.46955
 C1585 C 0.08079 0.27261 -0.04976
 C1586 C 0.10208 0.27897 -0.03900
 C1587 C 0.11585 0.29767 -0.04800
 C1588 C 0.10849 0.30925 -0.06849
 C1589 C 0.08742 0.30279 -0.07933
 C1590 C 0.07310 0.28464 -0.06995
 C1591 C 0.13802 0.30468 -0.03618
 C1592 C 0.14488 0.32775 -0.03560
 C1593 C 0.16739 0.33601 -0.02530
 C1594 C 0.16886 0.36051 -0.01892
 C1595 C 0.19037 0.36990 -0.01152
 C1596 C 0.21091 0.35505 -0.01068
 C1597 C 0.20952 0.33039 -0.01634
 C1598 C 0.18786 0.32087 -0.02363
 H1599 H 0.07017 0.25858 -0.04206
 H1600 H 0.10756 0.26963 -0.02336
 H1601 H 0.11919 0.32310 -0.07640
 H1602 H 0.08252 0.31185 -0.09529
 H1603 H 0.14817 0.29084 -0.02713
 H1604 H 0.13316 0.34162 -0.04273
 H1605 H 0.15342 0.37256 -0.02014
 H1606 H 0.19116 0.38900 -0.00720
 H1607 H 0.22526 0.31869 -0.01589
 H1608 H 0.18750 0.30202 -0.02888
 C1609 C 0.38618 0.30100 0.08219
 C1610 C 0.36321 0.30502 0.07385
 C1611 C 0.35724 0.29780 0.05118
 C1612 C 0.37461 0.28548 0.03727
 C1613 C 0.39768 0.28132 0.04573
 C1614 C 0.40379 0.28946 0.06813
 C1615 C 0.33295 0.30413 0.04288
 C1616 C 0.32729 0.30646 0.02032
 C1617 C 0.30444 0.31788 0.01290
 C1618 C 0.30400 0.33076 -0.00807
 C1619 C 0.28399 0.34486 -0.01393
 C1620 C 0.26406 0.34632 0.00108
 C1621 C 0.26359 0.33174 0.02093
 C1622 C 0.28358 0.31759 0.02682
 H1623 H 0.39019 0.30695 0.09974
 H1624 H 0.35015 0.31430 0.08504
 H1625 H 0.37053 0.27901 0.01995
 H1626 H 0.41088 0.27222 0.03459
 H1627 H 0.31999 0.30976 0.05611
 H1628 H 0.34077 0.30294 0.00697
 H1629 H 0.31961 0.33087 -0.01938
 H1630 H 0.28456 0.35517 -0.02984
 H1631 H 0.24815 0.33188 0.03239
 H1632 H 0.28280 0.30695 0.04253
 C1633 C 0.91289 0.77099 0.55659
 C1634 C 0.89238 0.77779 0.54439
 C1635 C 0.87349 0.79044 0.55573
 C1636 C 0.87558 0.79629 0.57955
 C1637 C 0.89611 0.78964 0.59168
 C1638 C 0.91505 0.77709 0.58031
 C1639 C 0.85281 0.79899 0.54195
 C1640 C 0.83121 0.80380 0.55146
 C1641 C 0.81135 0.81573 0.53878
 C1642 C 0.78804 0.81415 0.54780
 C1643 C 0.76926 0.82750 0.53801
 C1644 C 0.77349 0.84273 0.51910
 C1645 C 0.79660 0.84401 0.50971
 C1646 C 0.81539 0.83064 0.51941
 H1647 H 0.92732 0.76153 0.54735
 H1648 H 0.89134 0.77336 0.52599
 H1649 H 0.86177 0.80667 0.58876
 H1650 H 0.89720 0.79442 0.60999
 H1651 H 0.85566 0.80136 0.52342
 H1652 H 0.82785 0.79910 0.56947
 H1653 H 0.78448 0.80306 0.56287
 H1654 H 0.75158 0.82658 0.54573
 H1655 H 0.80049 0.85606 0.49549
 H1656 H 0.83314 0.83305 0.51240
   
