data_POSCAR
  _audit_creation_date              2014-09-24
  _audit_creation_method            'ToBaCCo'
  _symmetry_space_group_name_H-M    'P1'
  _symmetry_Int_Tables_number       1
  _symmetry_cell_setting            triclinic
  loop_
  _symmetry_equiv_pos_as_xyz
 x,y,z
_cell_length_a 32.1635
_cell_length_b 32.0868
_cell_length_c 30.3742
_cell_angle_alpha 89.208900
_cell_angle_beta 90.465800
_cell_angle_gamma 90.630100
loop_
  _atom_site_label
  _atom_site_type_symbol
  _atom_site_fract_x
  _atom_site_fract_y
  _atom_site_fract_z
C1 C 0.38992 0.01226 0.30404
 C2 C 0.36260 0.04833 0.29243
 C3 C 0.34164 0.04612 0.25275
 C4 C 0.34534 0.00191 0.23213
 C5 C 0.35947 -0.02449 0.30582
 C6 C 0.33358 -0.02882 0.27042
 C7 C 0.41563 0.00444 0.26312
 C8 C 0.39311 -0.00485 0.22628
 H9 H 0.35795 0.07256 0.31642
 H10 H 0.32657 -0.00218 0.20164
 H11 H 0.36300 -0.04943 0.33010
 H12 H 0.44902 0.00912 0.26277
 C13 C 0.10166 -0.00796 0.79058
 C14 C 0.13547 -0.03966 0.78696
 C15 C 0.15777 -0.03928 0.74880
 C16 C 0.14953 0.00169 0.72187
 C17 C 0.12527 0.03303 0.78979
 C18 C 0.15393 0.03710 0.75718
 C19 C 0.07902 -0.00731 0.74939
 C20 C 0.10428 0.00006 0.71087
 H21 H 0.14263 -0.05996 0.81487
 H22 H 0.17072 0.00638 0.69358
 H23 H 0.11751 0.05786 0.81208
 H24 H 0.04538 -0.00695 0.74843
 C25 C 0.60588 0.49390 0.29200
 C26 C 0.63589 0.45945 0.28502
 C27 C 0.65790 0.46034 0.24667
 C28 C 0.65274 0.50325 0.22232
 C29 C 0.63318 0.53242 0.29282
 C30 C 0.66079 0.53639 0.25928
 C31 C 0.58109 0.49949 0.24939
 C32 C 0.60463 0.50621 0.21241
 H33 H 0.64226 0.43790 0.31206
 H34 H 0.67325 0.50755 0.19341
 H35 H 0.62729 0.55695 0.31612
 H36 H 0.54754 0.50135 0.24954
 C37 C 0.88987 0.51148 0.79766
 C38 C 0.86100 0.54629 0.78663
 C39 C 0.83994 0.54356 0.74714
 C40 C 0.84474 0.49965 0.72638
 C41 C 0.86087 0.47359 0.79981
 C42 C 0.83453 0.46864 0.76492
 C43 C 0.91539 0.50458 0.75626
 C44 C 0.89262 0.49458 0.71970
 H45 H 0.85543 0.57014 0.81085
 H46 H 0.82566 0.49500 0.69621
 H47 H 0.86509 0.44896 0.82432
 H48 H 0.94865 0.51005 0.75543
 C49 C 0.28690 0.42434 0.99368
 C50 C 0.27632 0.39633 1.03292
 C51 C 0.24119 0.37180 1.02862
 C52 C 0.22260 0.37450 0.98188
 C53 C 0.29028 0.39488 0.95499
 C54 C 0.26020 0.36560 0.95133
 C55 C 0.24711 0.44787 0.98325
 C56 C 0.21279 0.42231 0.97650
 H57 H 0.29639 0.39564 1.06184
 H58 H 0.19545 0.35347 0.97649
 H59 H 0.31494 0.39828 0.93086
 H60 H 0.24606 0.48133 0.98659
 C61 C 0.78584 0.08880 0.99555
 C62 C 0.76394 0.09902 0.95250
 C63 C 0.73076 0.12613 0.95556
 C64 C 0.72004 0.13429 1.00490
 C65 C 0.79442 0.13280 1.01344
 C66 C 0.76054 0.15405 1.02507
 C67 C 0.75347 0.06944 1.02295
 C68 C 0.71491 0.09215 1.02500
 H69 H 0.77903 0.09119 0.92234
 H70 H 0.69229 0.15420 1.00790
 H71 H 0.82516 0.14454 1.02214
 H72 H 0.75709 0.03827 1.03630
 C73 C 0.28960 0.57775 0.49707
 C74 C 0.28128 0.60802 0.45968
 C75 C 0.24741 0.63315 0.46385
 C76 C 0.22702 0.62756 0.50988
 C77 C 0.29402 0.60532 0.53707
 C78 C 0.26346 0.63243 0.54414
 C79 C 0.24872 0.55424 0.50509
 C80 C 0.21520 0.57975 0.51189
 H81 H 0.30265 0.61018 0.43221
 H82 H 0.20149 0.64965 0.51549
 H83 H 0.32181 0.60411 0.55722
 H84 H 0.24653 0.52049 0.50443
 C85 C 0.78673 0.92349 0.49478
 C86 C 0.77789 0.89097 0.53077
 C87 C 0.74211 0.86745 0.52520
 C88 C 0.72146 0.87557 0.48057
 C89 C 0.78797 0.89875 0.45242
 C90 C 0.75762 0.86999 0.44741
 C91 C 0.74679 0.94811 0.49006
 C92 C 0.71211 0.92355 0.48209
 H93 H 0.79826 0.88794 0.55932
 H94 H 0.69387 0.85548 0.47392
 H95 H 0.81271 0.90293 0.42850
 H96 H 0.74600 0.98089 0.49783
 C97 C -0.00191 0.29095 0.40479
 C98 C 0.02897 0.29570 0.36578
 C99 C 0.03152 0.26205 0.33802
 C100 C 0.00118 0.22630 0.35247
 C101 C -0.04128 0.27931 0.38439
 C102 C -0.03961 0.24718 0.35180
 C103 C 0.01141 0.25129 0.42848
 C104 C 0.01248 0.21642 0.40308
 H105 H 0.05013 0.32215 0.36279
 H106 H 0.00208 0.19853 0.33120
 H107 H -0.07027 0.29441 0.39240
 H108 H 0.01479 0.25021 0.46396
 C109 C 0.00691 0.78618 0.09622
 C110 C -0.02627 0.78762 0.13193
 C111 C -0.02915 0.75343 0.15930
 C112 C 0.00311 0.71965 0.14776
 C113 C 0.04679 0.77733 0.12192
 C114 C 0.04473 0.74485 0.15162
 C115 C -0.00167 0.74643 0.07135
 C116 C -0.00333 0.71076 0.09657
 H117 H -0.04825 0.81302 0.13348
 H118 H 0.00179 0.69143 0.16922
 H119 H 0.07422 0.79723 0.11895
 H120 H -0.00193 0.74696 0.03580
 C121 C 0.50448 0.28602 0.59515
 C122 C 0.47275 0.28875 0.63251
 C123 C 0.46997 0.25486 0.66035
 C124 C 0.50140 0.22058 0.64801
 C125 C 0.54543 0.27601 0.61831
 C126 C 0.54361 0.24502 0.64952
 C127 C 0.49369 0.24627 0.57131
 C128 C 0.49291 0.21096 0.59732
 H129 H 0.45076 0.31414 0.63396
 H130 H 0.50058 0.19267 0.66996
 H131 H 0.57352 0.29425 0.61223
 H132 H 0.49213 0.24644 0.53580
 C133 C 0.50101 0.79137 0.90997
 C134 C 0.53125 0.79586 0.87020
 C135 C 0.53268 0.76211 0.84226
 C136 C 0.50277 0.72653 0.85783
 C137 C 0.45904 0.78006 0.88842
 C138 C 0.46002 0.74916 0.85769
 C139 C 0.51331 0.75354 0.93203
 C140 C 0.51408 0.71707 0.90526
 H141 H 0.55246 0.82220 0.86663
 H142 H 0.50273 0.69894 0.83629
 H143 H 0.43088 0.79715 0.89497
 H144 H 0.51671 0.75220 0.96749
 C145 C -0.24075 0.64640 0.94772
 C146 C -0.20611 0.61658 0.95782
 C147 C -0.20881 0.59443 0.99686
 C148 C -0.25222 0.59979 1.01833
 C149 C -0.27920 0.61888 0.94607
 C150 C -0.28398 0.59124 0.97992
 C151 C -0.24735 0.67138 0.98924
 C152 C -0.25524 0.64810 1.02648
 H153 H -0.18205 0.61196 0.93356
 H154 H -0.25745 0.57957 1.04773
 H155 H -0.30369 0.62555 0.92235
 H156 H -0.24767 0.70499 0.98812
 C157 C -0.25338 0.35522 0.45822
 C158 C -0.29056 0.38052 0.46813
 C159 C -0.28962 0.40261 0.50651
 C160 C -0.24506 0.40153 0.52798
 C161 C -0.21892 0.38795 0.45474
 C162 C -0.21554 0.41456 0.48928
 C163 C -0.24383 0.33178 0.49790
 C164 C -0.23572 0.35673 0.53606
 H165 H -0.31314 0.38555 0.44190
 H166 H -0.24189 0.42142 0.55746
 H167 H -0.19484 0.38580 0.42999
 H168 H -0.24716 0.29810 0.49952
 C169 C 0.24631 -0.13874 -0.03907
 C170 C 0.21124 -0.10974 -0.03205
 C171 C 0.21122 -0.08847 0.00668
 C172 C 0.25463 -0.09275 0.03100
 C173 C 0.28358 -0.10914 -0.04075
 C174 C 0.28732 -0.08256 -0.00606
 C175 C 0.25155 -0.16249 0.00140
 C176 C 0.26028 -0.13807 0.03970
 H177 H 0.18973 -0.10348 -0.05905
 H178 H 0.25775 -0.07296 0.06055
 H179 H 0.30813 -0.11269 -0.06475
 H180 H 0.24633 -0.19594 0.00302
 C181 C 0.25954 1.14510 0.44972
 C182 C 0.29350 1.11427 0.45944
 C183 C 0.29034 1.09194 0.49837
 C184 C 0.24714 1.09802 0.51986
 C185 C 0.22046 1.11841 0.44776
 C186 C 0.21518 1.09062 0.48144
 C187 C 0.25353 1.16969 0.49156
 C188 C 0.24526 1.14620 0.52848
 H189 H 0.31760 1.10946 0.43528
 H190 H 0.24144 1.07753 0.54893
 H191 H 0.19614 1.12554 0.42399
 H192 H 0.25369 1.20334 0.49109
 C193 C 0.16072 0.54080 0.24841
 C194 C 0.14432 0.52126 0.20672
 C195 C 0.11906 0.48635 0.21271
 C196 C 0.11555 0.47301 0.26155
 C197 C 0.11961 0.54709 0.27293
 C198 C 0.09893 0.51225 0.28518
 C199 C 0.18389 0.50430 0.27194
 C200 C 0.16174 0.46738 0.27504
 H201 H 0.14799 0.53693 0.17550
 H202 H 0.09615 0.44452 0.26605
 H203 H 0.10741 0.57719 0.28191
 H204 H 0.21718 0.50533 0.27646
 C205 C -0.17202 1.03433 0.25495
 C206 C -0.14628 1.02121 0.29505
 C207 C -0.11902 0.98906 0.28834
 C208 C -0.12253 0.97155 0.24137
 C209 C -0.14155 1.03975 0.21679
 C210 C -0.11279 1.01025 0.21260
 C211 C -0.19452 0.99710 0.24321
 C212 C -0.16779 0.96187 0.23425
 H213 H -0.14865 1.03719 0.32622
 H214 H -0.10158 0.94497 0.23542
 H215 H -0.14574 1.06381 0.19156
 H216 H -0.22787 0.99510 0.24749
 C217 C 0.32658 0.53444 -0.24047
 C218 C 0.35188 0.51873 -0.20153
 C219 C 0.37982 0.48789 -0.21068
 C220 C 0.37632 0.47295 -0.25877
 C221 C 0.35820 0.54310 -0.27751
 C222 C 0.38471 0.51260 -0.28710
 C223 C 0.30329 0.49591 -0.25611
 C224 C 0.32871 0.46305 -0.26617
 H225 H 0.34958 0.53295 -0.16938
 H226 H 0.39706 0.44635 -0.26488
 H227 H 0.35847 0.57239 -0.29554
 H228 H 0.26988 0.49375 -0.25308
 C229 C 0.66506 0.03980 -0.24846
 C230 C 0.62626 0.03378 -0.27720
 C231 C 0.60535 -0.00355 -0.27112
 C232 C 0.62044 -0.02695 -0.22983
 C233 C 0.64894 0.03750 -0.20123
 C234 C 0.62123 0.00659 -0.19317
 C235 C 0.68937 -0.00055 -0.25217
 C236 C 0.66700 -0.03553 -0.23997
 H237 H 0.61949 0.05477 -0.30463
 H238 H 0.60171 -0.05518 -0.22155
 H239 H 0.65708 0.06026 -0.17631
 H240 H 0.72050 -0.00126 -0.26543
 C241 C 0.04194 0.24765 0.84304
 C242 C 0.04337 0.28210 0.87823
 C243 C 0.00862 0.28442 0.90459
 C244 C -0.02553 0.25213 0.89112
 C245 C 0.03188 0.20808 0.86995
 C246 C -0.00172 0.21033 0.89743
 C247 C 0.00504 0.25555 0.81772
 C248 C -0.03265 0.25825 0.84231
 H249 H 0.06921 0.30401 0.88080
 H250 H -0.05430 0.25365 0.91089
 H251 H 0.05151 0.18076 0.86928
 H252 H 0.00598 0.25483 0.78216
 C253 C 0.53859 0.25637 0.15859
 C254 C 0.54131 0.22392 0.12207
 C255 C 0.50711 0.21960 0.09534
 C256 C 0.47317 0.25195 0.10631
 C257 C 0.52873 0.29683 0.13403
 C258 C 0.49780 0.29416 0.10290
 C259 C 0.49871 0.24644 0.18307
 C260 C 0.46343 0.24540 0.15731
 H261 H 0.56746 0.20291 0.11991
 H262 H 0.44538 0.25061 0.08450
 H263 H 0.54686 0.32509 0.13935
 H264 H 0.49864 0.24618 0.21862
 C265 C 0.03642 0.75496 0.65985
 C266 C 0.04025 0.72181 0.62417
 C267 C 0.00642 0.71579 0.59711
 C268 C -0.02768 0.74874 0.60587
 C269 C 0.02709 0.79465 0.63380
 C270 C -0.00312 0.79109 0.60194
 C271 C -0.00411 0.74555 0.68337
 C272 C -0.03870 0.74337 0.65663
 H273 H 0.06912 0.70519 0.62013
 H274 H -0.05489 0.74680 0.58330
 H275 H 0.04488 0.82316 0.63897
 H276 H -0.00524 0.74643 0.71890
 C277 C 0.54562 0.74995 0.34473
 C278 C 0.54807 0.78232 0.38237
 C279 C 0.51380 0.78364 0.40964
 C280 C 0.47954 0.75207 0.39510
 C281 C 0.53479 0.70872 0.36805
 C282 C 0.50335 0.71003 0.39803
 C283 C 0.50657 0.76070 0.31965
 C284 C 0.47111 0.76138 0.34391
 H285 H 0.57367 0.80448 0.38508
 H286 H 0.45108 0.75240 0.41545
 H287 H 0.55280 0.68081 0.36289
 H288 H 0.50738 0.76324 0.28422
 B289 B -0.02180 0.02040 1.04821
 B290 B -0.04862 0.01424 0.99964
 B291 B -0.01045 0.05157 1.00122
 B292 B 0.02852 0.03239 1.03505
 B293 B 0.01427 -0.01604 1.05096
 B294 B -0.03356 -0.02746 1.02959
 B295 B 0.02001 -0.01815 0.96182
 B296 B 0.04750 -0.01095 1.01037
 B297 B 0.00861 -0.04829 1.00776
 B298 B -0.03027 -0.02925 0.97478
 B299 B -0.01581 0.01856 0.95912
 B300 B 0.03223 0.03037 0.97991
 B301 B 0.48229 0.52149 0.55040
 B302 B 0.45681 0.51570 0.50115
 B303 B 0.49628 0.55298 0.50493
 B304 B 0.53365 0.53183 0.53913
 B305 B 0.51717 0.48381 0.55389
 B306 B 0.47001 0.47409 0.52963
 B307 B 0.52519 0.48361 0.46396
 B308 B 0.55172 0.48830 0.51372
 B309 B 0.51190 0.45253 0.50911
 B310 B 0.47495 0.47328 0.47528
 B311 B 0.49074 0.52149 0.46159
 B312 B 0.53873 0.53048 0.48400
 B313 B 0.51616 0.96775 0.56290
 B314 B 0.54225 0.97429 0.51401
 B315 B 0.50189 0.93889 0.51572
 B316 B 0.46450 0.96002 0.54952
 B317 B 0.48179 1.00752 0.56533
 B318 B 0.53003 1.01583 0.54413
 B319 B 0.47546 1.01148 0.47589
 B320 B 0.44799 1.00540 0.52409
 B321 B 0.48935 1.04006 0.52234
 B322 B 0.52596 1.01942 0.48929
 B323 B 0.50880 0.97265 0.47343
 B324 B 0.46033 0.96343 0.49446
 B325 B 0.01772 0.46880 1.05433
 B326 B 0.04255 0.47538 1.00481
 B327 B 0.00187 0.44063 1.00766
 B328 B -0.03432 0.46165 1.04273
 B329 B -0.01611 0.50866 1.05880
 B330 B 0.03154 0.51689 1.03597
 B331 B -0.02466 0.51382 0.96937
 B332 B -0.05102 0.50737 1.01827
 B333 B -0.00947 0.54175 1.01599
 B334 B 0.02617 0.52113 0.98143
 B335 B 0.00821 0.47458 0.96558
 B336 B -0.03978 0.46565 0.98779
 B337 B 0.01837 0.52232 0.45917
 B338 B 0.04327 0.51865 0.50951
 B339 B 0.00358 0.55365 0.50338
 B340 B -0.03307 0.53118 0.46966
 B341 B -0.01656 0.48363 0.45745
 B342 B 0.03106 0.47617 0.48199
 B343 B -0.02683 0.48351 0.54672
 B344 B -0.05124 0.48761 0.49737
 B345 B -0.01123 0.45240 0.50263
 B346 B 0.02490 0.47504 0.53672
 B347 B 0.00780 0.52262 0.54934
 B348 B -0.03890 0.53034 0.52398
 B349 B 0.52461 0.02080 -0.03039
 B350 B 0.54859 0.01807 0.02068
 B351 B 0.50907 0.05245 0.01346
 B352 B 0.47316 0.03000 -0.02139
 B353 B 0.48979 -0.01776 -0.03270
 B354 B 0.53672 -0.02525 -0.00741
 B355 B 0.47749 -0.01740 0.05579
 B356 B 0.45402 -0.01324 0.00604
 B357 B 0.49372 -0.04883 0.01212
 B358 B 0.52959 -0.02621 0.04705
 B359 B 0.51254 0.02123 0.05912
 B360 B 0.46614 0.02973 0.03278
 B361 B 0.48416 0.47821 -0.05242
 B362 B 0.45722 0.48671 -0.00448
 B363 B 0.49563 0.44915 -0.00491
 B364 B 0.53475 0.46843 -0.03773
 B365 B 0.52056 0.51596 -0.05558
 B366 B 0.47270 0.52696 -0.03476
 B367 B 0.52657 0.51992 0.03499
 B368 B 0.55342 0.51270 -0.01276
 B369 B 0.51513 0.54938 -0.01301
 B370 B 0.47647 0.53033 0.02024
 B371 B 0.49011 0.48244 0.03728
 B372 B 0.53796 0.47186 0.01744
 B373 B -0.01631 0.97676 0.44805
 B374 B -0.04285 0.98440 0.49628
 B375 B -0.00466 0.94672 0.49485
 B376 B 0.03441 0.96655 0.46221
 B377 B 0.02028 1.01442 0.44550
 B378 B -0.02742 1.02519 0.46677
 B379 B 0.02678 1.01659 0.53622
 B380 B 0.05332 1.01036 0.48806
 B381 B 0.01519 1.04705 0.48869
 B382 B -0.02337 1.02754 0.52179
 B383 B -0.00992 0.97926 0.53759
 B384 B 0.03790 0.96889 0.51739
 B385 B 0.77419 0.23107 0.19976
 B386 B 0.76788 0.20395 0.24840
 B387 B 0.80580 0.24300 0.24597
 B388 B 0.78537 0.28196 0.21286
 B389 B 0.73725 0.26698 0.19789
 B390 B 0.72671 0.21864 0.22004
 B391 B 0.73681 0.27219 0.28764
 B392 B 0.74205 0.30006 0.23862
 B393 B 0.70574 0.26053 0.24228
 B394 B 0.72565 0.22210 0.27485
 B395 B 0.77371 0.23671 0.28918
 B396 B 0.78376 0.28541 0.26801
 B397 B 0.71704 0.76994 0.68704
 B398 B 0.72282 0.79566 0.73587
 B399 B 0.68775 0.75501 0.73414
 B400 B 0.70932 0.71809 0.70021
 B401 B 0.75678 0.73578 0.68441
 B402 B 0.76488 0.78390 0.70587
 B403 B 0.76017 0.72899 0.77405
 B404 B 0.75438 0.70163 0.72565
 B405 B 0.78888 0.74308 0.72779
 B406 B 0.76783 0.77968 0.76065
 B407 B 0.72109 0.76209 0.77630
 B408 B 0.71246 0.71346 0.75537
 B409 B 0.27389 0.26550 0.79104
 B410 B 0.27007 0.29152 0.74159
 B411 B 0.30510 0.25205 0.74592
 B412 B 0.28331 0.21404 0.77877
 B413 B 0.23606 0.22985 0.79231
 B414 B 0.22719 0.27773 0.76976
 B415 B 0.23493 0.22353 0.70276
 B416 B 0.23969 0.19644 0.75126
 B417 B 0.20429 0.23595 0.74825
 B418 B 0.22606 0.27405 0.71507
 B419 B 0.27381 0.25858 0.70158
 B420 B 0.28231 0.21014 0.72352
 B421 B 0.23394 0.73260 0.29921
 B422 B 0.23932 0.70788 0.24913
 B423 B 0.20338 0.74579 0.25270
 B424 B 0.22368 0.78348 0.28748
 B425 B 0.27203 0.76857 0.30230
 B426 B 0.28091 0.72123 0.27933
 B427 B 0.27286 0.77955 0.21248
 B428 B 0.26708 0.80347 0.26142
 B429 B 0.30342 0.76439 0.25853
 B430 B 0.28312 0.72770 0.22419
 B431 B 0.23596 0.74327 0.20916
 B432 B 0.22505 0.78974 0.23312
 B433 B 0.27047 0.72813 0.70754
 B434 B 0.26420 0.70300 0.75736
 B435 B 0.30213 0.74205 0.75269
 B436 B 0.28177 0.77944 0.71772
 B437 B 0.23359 0.76368 0.70342
 B438 B 0.22290 0.71681 0.72854
 B439 B 0.23352 0.77317 0.79308
 B440 B 0.23869 0.79879 0.74272
 B441 B 0.20212 0.75978 0.74820
 B442 B 0.22204 0.72263 0.78291
 B443 B 0.27043 0.73757 0.79626
 B444 B 0.28045 0.78520 0.77259
 B445 B 0.22055 0.27523 0.19224
 B446 B 0.22610 0.30004 0.24198
 B447 B 0.19127 0.25919 0.23848
 B448 B 0.21297 0.22306 0.20392
 B449 B 0.26036 0.24124 0.18883
 B450 B 0.26825 0.28912 0.21153
 B451 B 0.26337 0.23216 0.27822
 B452 B 0.25785 0.20592 0.22924
 B453 B 0.29231 0.24740 0.23225
 B454 B 0.27116 0.28330 0.26623
 B455 B 0.22428 0.26522 0.28123
 B456 B 0.21568 0.21727 0.25894
 B457 B 0.77514 0.76750 0.28935
 B458 B 0.77186 0.79309 0.23951
 B459 B 0.80653 0.75347 0.24445
 B460 B 0.78462 0.71598 0.27767
 B461 B 0.73738 0.73194 0.29079
 B462 B 0.72881 0.77959 0.26755
 B463 B 0.73636 0.72464 0.20146
 B464 B 0.74125 0.69812 0.25015
 B465 B 0.70574 0.73767 0.24658
 B466 B 0.72771 0.77543 0.21304
 B467 B 0.77538 0.75964 0.19982
 B468 B 0.78375 0.71153 0.22247
 B469 B 0.73121 0.23088 0.79520
 B470 B 0.73801 0.20644 0.74520
 B471 B 0.70221 0.24516 0.74896
 B472 B 0.72249 0.28216 0.78406
 B473 B 0.77006 0.26612 0.80008
 B474 B 0.77878 0.21903 0.77676
 B475 B 0.77288 0.27747 0.70992
 B476 B 0.76674 0.30142 0.75896
 B477 B 0.80245 0.26181 0.75676
 B478 B 0.78213 0.22575 0.72155
 B479 B 0.73489 0.24212 0.70542
 B480 B 0.72510 0.28869 0.72969
 C481 C 0.41528 1.01800 0.34753
 C482 C 0.43365 1.06120 0.36003
 C483 C 0.45402 1.06149 0.40030
 C484 C 0.45517 1.01853 0.42410
 C485 C 0.40963 1.00322 0.42422
 C486 C 0.38842 1.00670 0.38684
 C487 C 0.45299 0.98893 0.34999
 C488 C 0.47468 0.99106 0.38805
 H489 H 0.43271 1.08836 0.33838
 H490 H 0.47122 1.08851 0.41142
 H491 H 0.39849 0.97824 0.44458
 H492 H 0.35654 0.99535 0.38520
 H493 H 0.46427 0.97054 0.32299
 H494 H 0.50529 0.97730 0.38963
 C495 C -0.08507 0.51875 0.84103
 C496 C -0.06854 0.56278 0.85361
 C497 C -0.04842 0.56397 0.89410
 C498 C -0.04551 0.52105 0.91776
 C499 C -0.09062 0.50437 0.91788
 C500 C -0.11161 0.50653 0.88030
 C501 C -0.04634 0.49138 0.84351
 C502 C -0.02480 0.49463 0.88143
 H503 H -0.07109 0.59001 0.83222
 H504 H -0.03337 0.59198 0.90603
 H505 H -0.10187 0.48016 0.93910
 H506 H -0.14328 0.49457 0.87869
 H507 H -0.03397 0.47390 0.81639
 H508 H 0.00667 0.48287 0.88253
 C509 C 0.07685 -0.01602 0.83347
 C510 C 0.03681 0.00883 0.83595
 C511 C 0.01671 0.00360 0.87440
 C512 C 0.03991 -0.02263 0.91056
 C513 C 0.04454 -0.06470 0.88725
 C514 C 0.06340 -0.06135 0.84659
 C515 C 0.10352 -0.00231 0.87228
 C516 C 0.08422 -0.00395 0.91051
 H517 H 0.02224 0.02468 0.80821
 H518 H -0.01592 0.01146 0.87529
 H519 H 0.03230 -0.09394 0.90024
 H520 H 0.06737 -0.08797 0.82544
 H521 H 0.13449 0.01137 0.87000
 H522 H 0.09750 0.01483 0.93550
 C523 C 0.58166 0.48646 0.33522
 C524 C 0.54495 0.51554 0.33912
 C525 C 0.52488 0.51163 0.37757
 C526 C 0.54479 0.48080 0.41233
 C527 C 0.54470 0.43952 0.38697
 C528 C 0.56342 0.44247 0.34629
 C529 C 0.60996 0.49566 0.37449
 C530 C 0.59062 0.49480 0.41297
 H531 H 0.53327 0.53544 0.31275
 H532 H 0.49497 0.52660 0.37987
 H533 H 0.52995 0.41108 0.39904
 H534 H 0.56470 0.41635 0.32405
 H535 H 0.64174 0.50725 0.37229
 H536 H 0.60463 0.51303 0.43802
 C537 C 0.58392 0.51399 0.16713
 C538 C 0.57561 0.55972 0.15227
 C539 C 0.55714 0.56399 0.11120
 C540 C 0.54832 0.52247 0.08770
 C541 C 0.59098 0.49970 0.09039
 C542 C 0.60890 0.49585 0.13038
 C543 C 0.54105 0.49275 0.16278
 C544 C 0.52225 0.49853 0.12331
 H545 H 0.57942 0.58609 0.17377
 H546 H 0.54651 0.59385 0.09860
 H547 H 0.60327 0.48048 0.06539
 H548 H 0.63606 0.47668 0.13553
 H549 H 0.52528 0.47534 0.18862
 H550 H 0.48992 0.48914 0.12000
 C551 C 0.08516 1.00748 0.66757
 C552 C 0.07406 1.05099 0.65663
 C553 C 0.05450 1.05640 0.61340
 C554 C 0.04916 1.01749 0.58926
 C555 C 0.09128 0.99917 0.58979
 C556 C 0.11065 0.99436 0.63161
 C557 C 0.04637 0.98397 0.66222
 C558 C 0.02610 0.99100 0.62140
 H559 H 0.07480 1.07584 0.68042
 H560 H 0.04111 1.08570 0.60249
 H561 H 0.10257 0.97858 0.56542
 H562 H 0.13754 0.97460 0.63554
 H563 H 0.03261 0.96282 0.68630
 H564 H -0.00654 0.98242 0.61950
 C565 C -0.08644 0.48684 0.67593
 C566 C -0.03943 0.47597 0.67721
 C567 C -0.02140 0.47321 0.63665
 C568 C -0.05112 0.48108 0.59746
 C569 C -0.08655 0.44896 0.60686
 C570 C -0.10550 0.45272 0.64692
 C571 C -0.08919 0.52621 0.64923
 C572 C -0.07139 0.52406 0.60990
 H573 H -0.02238 0.46759 0.70691
 H574 H 0.01060 0.46357 0.63293
 H575 H -0.09153 0.42064 0.58919
 H576 H -0.12776 0.42975 0.65910
 H577 H -0.10276 0.55486 0.66096
 H578 H -0.07116 0.55302 0.59146
 C579 C 0.41476 -0.01306 0.18308
 C580 C 0.41434 0.02673 0.15694
 C581 C 0.43326 0.02438 0.11828
 C582 C 0.45210 -0.01931 0.10583
 C583 C 0.48038 -0.02885 0.14573
 C584 C 0.46128 -0.02589 0.18570
 C585 C 0.39520 -0.04602 0.15303
 C586 C 0.41524 -0.05013 0.11364
 H587 H 0.40172 0.05581 0.16872
 H588 H 0.43560 0.05371 0.10055
 H589 H 0.51204 -0.03976 0.14285
 H590 H 0.47707 -0.03547 0.21579
 H591 H 0.37175 -0.06826 0.16416
 H592 H 0.40992 -0.07814 0.09554
 C593 C 0.32914 0.44789 0.00022
 C594 C 0.36256 0.41460 -0.00098
 C595 C 0.40083 0.42922 -0.00280
 C596 C 0.40650 0.47601 0.00055
 C597 C 0.37848 0.49489 -0.03585
 C598 C 0.33904 0.47923 -0.03708
 C599 C 0.34100 0.47190 0.04255
 C600 C 0.38191 0.48630 0.04290
 H601 H 0.35683 0.38118 -0.00261
 H602 H 0.42359 0.40828 -0.01268
 H603 H 0.38816 0.51997 -0.05791
 H604 H 0.31596 0.49070 -0.06039
 H605 H 0.31964 0.47707 0.06933
 H606 H 0.39509 0.50376 0.07007
 C607 C -0.17077 0.94608 0.50158
 C608 C -0.13782 0.91263 0.49715
 C609 C -0.09937 0.92697 0.49579
 C610 C -0.09332 0.97350 0.50168
 C611 C -0.12177 0.99436 0.46691
 C612 C -0.16143 0.97933 0.46598
 C613 C -0.15785 0.96753 0.54504
 C614 C -0.11692 0.98171 0.54519
 H615 H -0.14411 0.87956 0.49280
 H616 H -0.07671 0.90638 0.48460
 H617 H -0.11217 1.02012 0.44571
 H618 H -0.18488 0.99208 0.44388
 H619 H -0.17857 0.97126 0.57267
 H620 H -0.10302 0.99755 0.57308
 C621 C -0.17222 0.06402 0.99267
 C622 C -0.17259 0.01588 0.99107
 C623 C -0.13348 -0.00134 0.99184
 C624 C -0.09728 0.03098 0.99296
 C625 C -0.10671 0.05853 0.95248
 C626 C -0.14452 0.07715 0.95306
 C627 C -0.14570 0.07286 1.03343
 C628 C -0.10702 0.05970 1.03103
 H629 H -0.20071 -0.00292 0.98848
 H630 H -0.12871 -0.03469 0.98992
 H631 H -0.08857 0.05907 0.92287
 H632 H -0.15434 0.09673 0.92568
 H633 H -0.15477 0.09086 1.06142
 H634 H -0.08445 0.07406 1.05189
 C635 C 0.33094 0.55432 0.49111
 C636 C 0.36522 0.58773 0.49300
 C637 C 0.40279 0.57308 0.49793
 C638 C 0.40714 0.52639 0.49444
 C639 C 0.37817 0.50770 0.52978
 C640 C 0.33916 0.52313 0.52901
 C641 C 0.34283 0.53018 0.44946
 C642 C 0.38337 0.51585 0.45096
 H643 H 0.36025 0.62119 0.49411
 H644 H 0.42529 0.59381 0.51057
 H645 H 0.38614 0.48178 0.55128
 H646 H 0.31509 0.51106 0.55070
 H647 H 0.32194 0.52507 0.42180
 H648 H 0.39681 0.49834 0.42440
 C649 C 0.17070 0.56224 0.51425
 C650 C 0.13862 0.59393 0.49928
 C651 C 0.09922 0.57951 0.50002
 C652 C 0.09323 0.53377 0.51446
 C653 C 0.12322 0.50936 0.48516
 C654 C 0.16279 0.52462 0.48418
 C655 C 0.15538 0.54709 0.55992
 C656 C 0.11504 0.53207 0.55997
 H657 H 0.14576 0.62346 0.48354
 H658 H 0.07605 0.59707 0.48295
 H659 H 0.11435 0.48224 0.46620
 H660 H 0.18615 0.51087 0.46350
 H661 H 0.17460 0.54783 0.58943
 H662 H 0.10021 0.51998 0.58953
 C663 C 0.67360 0.07115 0.02781
 C664 C 0.64845 0.08133 -0.01077
 C665 C 0.60806 0.06456 -0.00997
 C666 C 0.59773 0.03791 0.02758
 C667 C 0.63106 0.00725 0.02996
 C668 C 0.67248 0.02511 0.02979
 C669 C 0.64813 0.08340 0.06534
 C670 C 0.60662 0.06484 0.06541
 H671 H 0.65673 0.10243 -0.03731
 H672 H 0.58628 0.07628 -0.03338
 H673 H 0.62554 -0.02608 0.03321
 H674 H 0.69922 0.00508 0.03233
 H675 H 0.66001 0.10185 0.09248
 H676 H 0.58627 0.06737 0.09343
 C677 C 0.66822 0.93924 0.48850
 C678 C 0.63768 0.92601 0.45213
 C679 C 0.59764 0.93754 0.45935
 C680 C 0.59087 0.96048 0.50326
 C681 C 0.61010 0.93115 0.53806
 C682 C 0.65013 0.92137 0.53113
 C683 C 0.66195 0.98665 0.49200
 C684 C 0.62191 0.99756 0.49990
 H685 H 0.64698 0.91030 0.42242
 H686 H 0.57342 0.93147 0.43520
 H687 H 0.59372 0.91837 0.56619
 H688 H 0.66792 0.90423 0.55544
 H689 H 0.68578 1.01018 0.48640
 H690 H 0.61308 1.03000 0.50205
 C691 C 0.16846 0.43829 0.98003
 C692 C 0.13837 0.42497 0.94292
 C693 C 0.09799 0.43693 0.94919
 C694 C 0.09076 0.46021 0.99279
 C695 C 0.10908 0.43022 1.02742
 C696 C 0.14921 0.42087 1.02207
 C697 C 0.16230 0.48574 0.98293
 C698 C 0.12221 0.49695 0.98954
 H699 H 0.14816 0.40876 0.91370
 H700 H 0.07385 0.43075 0.92497
 H701 H 0.09214 0.41670 1.05466
 H702 H 0.16618 0.40422 1.04730
 H703 H 0.18607 0.50924 0.97704
 H704 H 0.11353 0.52951 0.99037
 C705 C -0.00451 0.33073 0.43552
 C706 C 0.03745 0.35171 0.44546
 C707 C 0.03498 0.38712 0.46953
 C708 C -0.00975 0.40113 0.48226
 C709 C -0.03489 0.39901 0.43809
 C710 C -0.03035 0.36482 0.41382
 C711 C -0.02380 0.32520 0.48227
 C712 C -0.02500 0.36124 0.50685
 H713 H 0.06711 0.33756 0.43843
 H714 H 0.06321 0.40091 0.48297
 H715 H -0.05745 0.42166 0.42695
 H716 H -0.04631 0.36179 0.38239
 H717 H -0.03336 0.29524 0.49594
 H718 H -0.03383 0.36061 0.54126
 C719 C 0.49901 -0.16922 -0.05853
 C720 C 0.54116 -0.14866 -0.04865
 C721 C 0.53917 -0.11368 -0.02377
 C722 C 0.49467 -0.09961 -0.01009
 C723 C 0.46920 -0.10082 -0.05426
 C724 C 0.47328 -0.13463 -0.07929
 C725 C 0.47993 -0.17530 -0.01163
 C726 C 0.47922 -0.13974 0.01372
 H727 H 0.57064 -0.16277 -0.05657
 H728 H 0.56769 -0.10041 -0.01042
 H729 H 0.44709 -0.07760 -0.06506
 H730 H 0.45747 -0.13679 -0.11088
 H731 H 0.46953 -0.20525 0.00137
 H732 H 0.47000 -0.14076 0.04802
 C733 C 0.00825 -0.17295 1.06768
 C734 C -0.03441 -0.15762 1.05151
 C735 C -0.03324 -0.12001 1.03016
 C736 C 0.01062 -0.09943 1.02606
 C737 C 0.02832 -0.10125 1.07406
 C738 C 0.02564 -0.13776 1.09517
 C739 C 0.03468 -0.17218 1.02531
 C740 C 0.03469 -0.13450 1.00295
 H741 H -0.06277 -0.17613 1.05382
 H742 H -0.06096 -0.10780 1.01425
 H743 H 0.04332 -0.07645 1.09179
 H744 H 0.03616 -0.14108 1.12911
 H745 H 0.04775 -0.19996 1.01120
 H746 H 0.04485 -0.13310 0.96912
 C747 C 0.50653 0.32694 0.56674
 C748 C 0.46437 0.34424 0.55164
 C749 C 0.46688 0.38207 0.53076
 C750 C 0.51156 0.40092 0.52628
 C751 C 0.52975 0.39766 0.57391
 C752 C 0.52578 0.36107 0.59445
 C753 C 0.53229 0.32716 0.52391
 C754 C 0.53372 0.36517 0.50219
 H755 H 0.43532 0.32688 0.55422
 H756 H 0.43950 0.39558 0.51539
 H757 H 0.54529 0.42173 0.59222
 H758 H 0.53622 0.35700 0.62833
 H759 H 0.54379 0.29899 0.50911
 H760 H 0.54362 0.36680 0.46825
 C761 C 0.49147 1.16726 0.57602
 C762 C 0.53388 1.14588 0.57622
 C763 C 0.53374 1.10719 0.55783
 C764 C 0.49059 1.09117 0.54079
 C765 C 0.46235 1.09770 0.58171
 C766 C 0.46272 1.13647 0.59927
 C767 C 0.47732 1.16528 0.52698
 C768 C 0.47834 1.12658 0.50888
 H769 H 0.56226 1.16080 0.58783
 H770 H 0.56278 1.09099 0.55345
 H771 H 0.44668 1.07300 0.59942
 H772 H 0.44595 1.14362 0.62907
 H773 H 0.46821 1.19170 0.50678
 H774 H 0.47431 1.12298 0.47386
 C775 C -0.00545 0.66752 1.07397
 C776 C 0.03675 0.64582 1.07264
 C777 C 0.03598 0.60773 1.05287
 C778 C -0.00755 0.59247 1.03604
 C779 C -0.03512 0.59808 1.07772
 C780 C -0.03409 0.63625 1.09665
 C781 C -0.02047 0.66703 1.02506
 C782 C -0.02009 0.62886 1.00556
 H783 H 0.06541 0.66015 1.08441
 H784 H 0.06482 0.59146 1.04746
 H785 H -0.05110 0.57310 1.09466
 H786 H -0.05052 0.64267 1.12686
 H787 H -0.03007 0.69410 1.00612
 H788 H -0.02507 0.62617 0.97050
 C789 C 0.51600 0.67558 -0.07310
 C790 C 0.53975 0.67340 -0.03108
 C791 C 0.53897 0.63296 -0.00937
 C792 C 0.51683 0.60072 -0.03394
 C793 C 0.47525 0.61917 -0.04023
 C794 C 0.47485 0.65930 -0.06185
 C795 C 0.53467 0.64393 -0.09958
 C796 C 0.53537 0.60380 -0.07871
 H797 H 0.55627 0.69936 -0.01629
 H798 H 0.54757 0.63010 0.02498
 H799 H 0.44699 0.60648 -0.02581
 H800 H 0.44648 0.67706 -0.06584
 H801 H 0.54923 0.64991 -0.13122
 H802 H 0.54982 0.57902 -0.09627
 C803 C 0.01502 1.17312 0.42672
 C804 C 0.04012 1.17135 0.47087
 C805 C 0.03999 1.13325 0.49224
 C806 C 0.01685 1.09825 0.46762
 C807 C -0.02697 1.11777 0.46087
 C808 C -0.02779 1.15554 0.43949
 C809 C 0.03447 1.13950 0.39956
 C810 C 0.03573 1.10161 0.41998
 H811 H 0.05550 1.19810 0.48544
 H812 H 0.05161 1.13045 0.52560
 H813 H -0.05536 1.10420 0.47405
 H814 H -0.05646 1.17247 0.43414
 H815 H 0.04675 1.14482 0.36676
 H816 H 0.04880 1.07638 0.40188
 C817 C 0.76581 0.67126 0.90394
 C818 C 0.80903 0.68956 0.89140
 C819 C 0.80979 0.70919 0.85054
 C820 C 0.76725 0.70953 0.82625
 C821 C 0.75271 0.66372 0.82702
 C822 C 0.75520 0.64346 0.86521
 C823 C 0.73673 0.70868 0.90027
 C824 C 0.73931 0.72962 0.86171
 H825 H 0.83569 0.68942 0.91353
 H826 H 0.83660 0.72691 0.83963
 H827 H 0.72973 0.65122 0.80543
 H828 H 0.74383 0.61153 0.86785
 H829 H 0.71817 0.72051 0.92686
 H830 H 0.72582 0.76041 0.85956
 C831 C 0.26684 0.17078 0.40657
 C832 C 0.31069 0.18781 0.39447
 C833 C 0.31220 0.20839 0.35415
 C834 C 0.26973 0.21099 0.32993
 C835 C 0.25340 0.16567 0.32958
 C836 C 0.25525 0.14435 0.36717
 C837 C 0.23909 0.20934 0.40386
 C838 C 0.24253 0.23120 0.36593
 H839 H 0.33745 0.18570 0.41633
 H840 H 0.33991 0.22459 0.34319
 H841 H 0.22940 0.15464 0.30821
 H842 H 0.24261 0.11285 0.36896
 H843 H 0.22058 0.22102 0.43057
 H844 H 0.23012 0.26247 0.36455
 C845 C 0.73987 0.33006 0.41547
 C846 C 0.69730 0.30820 0.40646
 C847 C 0.69462 0.28897 0.36619
 C848 C 0.73493 0.29190 0.33920
 C849 C 0.74580 0.33855 0.33746
 C850 C 0.74549 0.35859 0.37538
 C851 C 0.77168 0.29555 0.41080
 C852 C 0.76842 0.27490 0.37268
 H853 H 0.67181 0.30771 0.42965
 H854 H 0.66704 0.27215 0.35533
 H855 H 0.76481 0.35249 0.31292
 H856 H 0.75492 0.39115 0.37637
 H857 H 0.79362 0.28617 0.43631
 H858 H 0.78703 0.24725 0.36928
 C859 C 0.23894 0.83552 0.91870
 C860 C 0.26761 0.79810 0.91617
 C861 C 0.26304 0.77632 0.87888
 C862 C 0.23209 0.79515 0.84379
 C863 C 0.19124 0.79671 0.86973
 C864 C 0.19480 0.81717 0.90921
 C865 C 0.24816 0.86207 0.87804
 C866 C 0.24698 0.84090 0.84072
 H867 H 0.28779 0.78747 0.94274
 H868 H 0.27809 0.74635 0.87752
 H869 H 0.16260 0.78173 0.85895
 H870 H 0.16896 0.81955 0.93174
 H871 H 0.26089 0.89353 0.87846
 H872 H 0.26704 0.85282 0.81585
 C873 C 0.26764 0.84195 0.08242
 C874 C 0.29647 0.86297 0.11239
 C875 C 0.30081 0.84188 0.15464
 C876 C 0.27412 0.80460 0.16053
 C877 C 0.23180 0.81892 0.14616
 C878 C 0.22896 0.83924 0.10516
 C879 C 0.28347 0.79873 0.08125
 C880 C 0.28663 0.77847 0.12401
 H881 H 0.31893 0.88630 0.10137
 H882 H 0.32978 0.84623 0.17183
 H883 H 0.20204 0.80826 0.15849
 H884 H 0.19894 0.84647 0.09026
 H885 H 0.29724 0.78489 0.05248
 H886 H 0.30125 0.74837 0.12853
 C887 C 0.77077 0.33735 0.57900
 C888 C 0.78721 0.29438 0.57908
 C889 C 0.78944 0.27496 0.62229
 C890 C 0.77555 0.30163 0.65782
 C891 C 0.80194 0.33910 0.65202
 C892 C 0.79847 0.35935 0.60931
 C893 C 0.73146 0.33452 0.60050
 C894 C 0.73343 0.31515 0.64192
 H895 H 0.80206 0.28032 0.55106
 H896 H 0.80448 0.24522 0.62790
 H897 H 0.83070 0.34381 0.66946
 H898 H 0.82111 0.38256 0.59838
 H899 H 0.70172 0.34069 0.58443
 H900 H 0.70348 0.30410 0.65343
 C901 C 0.23820 0.16703 0.57282
 C902 C 0.19285 0.17661 0.58622
 C903 C 0.18921 0.19524 0.62675
 C904 C 0.23102 0.20255 0.65094
 C905 C 0.25229 0.15920 0.64981
 C906 C 0.25532 0.14125 0.61041
 C907 C 0.26080 0.20935 0.57681
 C908 C 0.25536 0.22828 0.61557
 H909 H 0.16641 0.17298 0.56425
 H910 H 0.15979 0.20678 0.63851
 H911 H 0.27037 0.14573 0.67581
 H912 H 0.27236 0.11283 0.60652
 H913 H 0.27908 0.22468 0.55144
 H914 H 0.26530 0.26052 0.61852
 C915 C 0.73809 0.66898 0.07107
 C916 C 0.69284 0.67485 0.08712
 C917 C 0.68973 0.69286 0.12801
 C918 C 0.73191 0.70339 0.14994
 C919 C 0.75645 0.66190 0.14724
 C920 C 0.75911 0.64465 0.10746
 C921 C 0.75733 0.71304 0.07424
 C922 C 0.75253 0.73115 0.11366
 H923 H 0.66578 0.67071 0.06622
 H924 H 0.66016 0.70304 0.14074
 H925 H 0.77695 0.64968 0.17193
 H926 H 0.77878 0.61825 0.10210
 H927 H 0.77299 0.73007 0.04813
 H928 H 0.76070 0.76385 0.11694
 C929 C 0.18633 0.58342 0.24340
 C930 C 0.17509 0.61122 0.20253
 C931 C 0.19484 0.64913 0.20121
 C932 C 0.22119 0.65893 0.24210
 C933 C 0.19104 0.64919 0.27951
 C934 C 0.17757 0.61037 0.28308
 C935 C 0.23449 0.58327 0.24262
 C936 C 0.25254 0.62251 0.24248
 H937 H 0.15767 0.60121 0.17398
 H938 H 0.19739 0.66601 0.17041
 H939 H 0.17939 0.67110 0.30220
 H940 H 0.16280 0.60033 0.31336
 H941 H 0.25296 0.55542 0.23973
 H942 H 0.28591 0.62724 0.24011
 C943 C 0.68787 0.08199 0.74173
 C944 C 0.69298 0.09923 0.69408
 C945 C 0.71089 0.13870 0.69218
 C946 C 0.72208 0.15699 0.73797
 C947 C 0.68170 0.15264 0.76392
 C948 C 0.66319 0.11599 0.76356
 C949 C 0.73245 0.08445 0.76060
 C950 C 0.75088 0.12260 0.75569
 H951 H 0.68662 0.08107 0.66488
 H952 H 0.72090 0.15273 0.66129
 H953 H 0.66884 0.17572 0.78453
 H954 H 0.63257 0.11214 0.77797
 H955 H 0.75009 0.05745 0.77120
 H956 H 0.78419 0.12688 0.76006
 C957 C 0.80554 0.07705 0.25992
 C958 C 0.78252 0.09035 0.30169
 C959 C 0.76878 0.13111 0.29933
 C960 C 0.77832 0.15396 0.25475
 C961 C 0.82472 0.14911 0.24901
 C962 C 0.83919 0.11136 0.25598
 C963 C 0.77362 0.08513 0.22252
 C964 C 0.75849 0.12449 0.22098
 H965 H 0.77758 0.07015 0.33014
 H966 H 0.75196 0.14527 0.32598
 H967 H 0.84441 0.17085 0.23229
 H968 H 0.87251 0.10617 0.25456
 H969 H 0.76155 0.06099 0.20109
 H970 H 0.73338 0.13313 0.19871
 C971 C 0.30268 0.57575 0.76769
 C972 C 0.27588 0.58632 0.80807
 C973 C 0.26156 0.62722 0.80690
 C974 C 0.27454 0.65256 0.76475
 C975 C 0.32136 0.64797 0.76391
 C976 C 0.33578 0.61017 0.76987
 C977 C 0.27368 0.58561 0.72834
 C978 C 0.25786 0.62446 0.72811
 H979 H 0.26919 0.56453 0.83475
 H980 H 0.24243 0.63984 0.83265
 H981 H 0.34257 0.67011 0.75125
 H982 H 0.36916 0.60515 0.77175
 H983 H 0.26254 0.56234 0.70535
 H984 H 0.23255 0.63269 0.70609
 C985 C 0.31196 0.41865 0.73065
 C986 C 0.32626 0.39484 0.77135
 C987 C 0.31402 0.35491 0.77258
 C988 C 0.28649 0.34048 0.73419
 C989 C 0.25123 0.37241 0.73078
 C990 C 0.26420 0.41284 0.72910
 C991 C 0.32705 0.39235 0.69185
 C992 C 0.31349 0.35151 0.69352
 H993 H 0.34839 0.40672 0.79517
 H994 H 0.32758 0.33459 0.79665
 H995 H 0.21865 0.36393 0.72691
 H996 H 0.24212 0.43735 0.72218
 H997 H 0.34528 0.40489 0.66479
 H998 H 0.32066 0.32962 0.66784
 C999 C 0.81616 0.91958 0.23113
 C1000 C 0.82773 0.89664 0.27053
 C1001 C 0.81429 0.85492 0.27059
 C1002 C 0.78942 0.84220 0.23267
 C1003 C 0.75632 0.87284 0.22821
 C1004 C 0.77073 0.91515 0.22725
 C1005 C 0.83191 0.89490 0.19456
 C1006 C 0.81675 0.85209 0.19522
 H1007 H 0.85083 0.90691 0.29423
 H1008 H 0.82896 0.83383 0.29315
 H1009 H 0.72432 0.86488 0.21997
 H1010 H 0.75011 0.93930 0.21517
 H1011 H 0.85164 0.90742 0.16863
 H1012 H 0.82409 0.83032 0.16949
 C1013 C 0.68365 0.92095 0.75637
 C1014 C 0.66625 0.90078 0.71513
 C1015 C 0.67736 0.86088 0.71035
 C1016 C 0.70756 0.84393 0.74567
 C1017 C 0.74348 0.87633 0.74772
 C1018 C 0.73112 0.91633 0.75311
 C1019 C 0.67155 0.89138 0.79458
 C1020 C 0.68444 0.85134 0.78931
 H1021 H 0.64738 0.91677 0.69079
 H1022 H 0.66423 0.84276 0.68386
 H1023 H 0.77617 0.86837 0.74677
 H1024 H 0.75353 0.94139 0.75774
 H1025 H 0.65574 0.90137 0.82400
 H1026 H 0.67940 0.82769 0.81459
 C1027 C 0.18222 0.42418 0.26929
 C1028 C 0.16763 0.40439 0.22602
 C1029 C 0.18019 0.36533 0.21963
 C1030 C 0.20978 0.34798 0.25458
 C1031 C 0.24424 0.38181 0.25893
 C1032 C 0.23010 0.42121 0.26668
 C1033 C 0.17043 0.39193 0.30506
 C1034 C 0.18511 0.35270 0.29790
 H1035 H 0.15209 0.42008 0.19939
 H1036 H 0.16944 0.34864 0.19106
 H1037 H 0.27718 0.37526 0.25677
 H1038 H 0.25157 0.44703 0.27121
 H1039 H 0.15329 0.39965 0.33443
 H1040 H 0.18036 0.32780 0.32182
 C1041 C 0.08227 0.24390 0.81395
 C1042 C 0.11787 0.22767 0.84162
 C1043 C 0.15301 0.22210 0.81940
 C1044 C 0.15359 0.23628 0.76955
 C1045 C 0.11655 0.21105 0.75047
 C1046 C 0.08011 0.21405 0.77394
 C1047 C 0.09883 0.28482 0.79366
 C1048 C 0.13494 0.28094 0.77065
 H1049 H 0.11533 0.21863 0.87610
 H1050 H 0.17688 0.20559 0.83717
 H1051 H 0.11632 0.19633 0.71873
 H1052 H 0.05146 0.19934 0.76276
 H1053 H 0.08232 0.31408 0.79513
 H1054 H 0.14779 0.30730 0.75237
 C1055 C 0.58512 0.74648 0.31455
 C1056 C 0.58093 0.71933 0.27244
 C1057 C 0.61689 0.71606 0.24805
 C1058 C 0.65518 0.73843 0.26820
 C1059 C 0.63827 0.78371 0.27269
 C1060 C 0.60295 0.78774 0.29684
 C1061 C 0.62042 0.72699 0.34028
 C1062 C 0.65468 0.72091 0.31678
 H1063 H 0.55150 0.70651 0.26096
 H1064 H 0.61598 0.70276 0.21555
 H1065 H 0.65125 0.81050 0.25522
 H1066 H 0.58748 0.81740 0.30025
 H1067 H 0.61802 0.71571 0.37406
 H1068 H 0.67787 0.70162 0.33225
 C1069 C 0.57970 0.25815 0.18658
 C1070 C 0.59645 0.21548 0.20147
 C1071 C 0.63447 0.21712 0.22156
 C1072 C 0.65409 0.26148 0.22582
 C1073 C 0.65074 0.28004 0.17826
 C1074 C 0.61386 0.27709 0.15840
 C1075 C 0.58081 0.28365 0.22943
 C1076 C 0.61898 0.28416 0.25054
 H1077 H 0.57859 0.18666 0.19929
 H1078 H 0.64765 0.18932 0.23657
 H1079 H 0.67512 0.29440 0.15922
 H1080 H 0.60975 0.28759 0.12450
 H1081 H 0.55306 0.29544 0.24479
 H1082 H 0.62098 0.29347 0.28460
 C1083 C 0.07691 0.75729 0.68911
 C1084 C 0.09310 0.71482 0.70540
 C1085 C 0.13064 0.71661 0.72658
 C1086 C 0.15056 0.76087 0.73035
 C1087 C 0.14830 0.77845 0.68224
 C1088 C 0.11182 0.77549 0.66152
 C1089 C 0.07727 0.78368 0.73139
 C1090 C 0.11503 0.78445 0.75347
 H1091 H 0.07521 0.68604 0.70314
 H1092 H 0.14327 0.68900 0.74252
 H1093 H 0.17306 0.79246 0.66351
 H1094 H 0.10849 0.78565 0.62741
 H1095 H 0.04930 0.79625 0.74558
 H1096 H 0.11650 0.79504 0.78712
 C1097 C 0.91704 0.74316 0.67687
 C1098 C 0.91368 0.72852 0.72564
 C1099 C 0.87471 0.73031 0.74300
 C1100 C 0.84029 0.74376 0.71052
 C1101 C 0.85749 0.78678 0.69406
 C1102 C 0.89664 0.78624 0.67659
 C1103 C 0.88605 0.71540 0.65293
 C1104 C 0.84703 0.71585 0.66960
 H1105 H 0.93956 0.71859 0.74607
 H1106 H 0.87031 0.72583 0.77784
 H1107 H 0.84157 0.81608 0.69809
 H1108 H 0.91249 0.81446 0.66567
 H1109 H 0.89301 0.69902 0.62310
 H1110 H 0.82245 0.70124 0.65100
 C1111 C 0.41969 0.24581 0.17876
 C1112 C 0.41703 0.23219 0.22796
 C1113 C 0.37833 0.23455 0.24597
 C1114 C 0.34349 0.24753 0.21382
 C1115 C 0.36062 0.29011 0.19613
 C1116 C 0.39947 0.28901 0.17793
 C1117 C 0.38830 0.21774 0.15592
 C1118 C 0.34953 0.21885 0.17323
 H1119 H 0.44313 0.22271 0.24826
 H1120 H 0.37429 0.23087 0.28101
 H1121 H 0.34495 0.31959 0.19979
 H1122 H 0.41526 0.31694 0.16616
 H1123 H 0.39494 0.20092 0.12604
 H1124 H 0.32453 0.20485 0.15478
 C1125 C 0.42846 0.76350 0.31966
 C1126 C 0.39772 0.79287 0.34023
 C1127 C 0.35992 0.79354 0.31981
 C1128 C 0.35406 0.76405 0.27942
 C1129 C 0.39037 0.77588 0.24920
 C1130 C 0.42843 0.77715 0.26988
 C1131 C 0.40646 0.72119 0.31938
 C1132 C 0.36898 0.72098 0.29832
 H1133 H 0.40518 0.81235 0.36822
 H1134 H 0.33625 0.81417 0.33171
 H1135 H 0.38656 0.78354 0.21449
 H1136 H 0.45516 0.78880 0.25197
 H1137 H 0.42076 0.69275 0.33150
 H1138 H 0.35388 0.69127 0.29199
 C1139 C 0.92686 0.26012 0.81913
 C1140 C 0.89796 0.28891 0.83815
 C1141 C 0.85835 0.28959 0.81637
 C1142 C 0.85318 0.26092 0.77862
 C1143 C 0.88779 0.27140 0.74970
 C1144 C 0.92775 0.27259 0.77177
 C1145 C 0.90559 0.21993 0.81962
 C1146 C 0.86623 0.21999 0.79723
 H1147 H 0.90566 0.30947 0.86523
 H1148 H 0.83506 0.31109 0.82732
 H1149 H 0.88417 0.27865 0.71486
 H1150 H 0.95404 0.28677 0.75504
 H1151 H 0.92008 0.19116 0.83074
 H1152 H 0.85233 0.19024 0.78859
 C1153 C 0.58047 0.97890 0.68995
 C1154 C 0.53948 1.00159 0.68620
 C1155 C 0.51783 0.99347 0.64908
 C1156 C 0.53974 0.96534 0.61461
 C1157 C 0.58414 0.98452 0.61135
 C1158 C 0.60497 0.98923 0.64861
 C1159 C 0.56777 0.93239 0.68280
 C1160 C 0.54703 0.92531 0.64290
 H1161 H 0.52551 1.01756 0.71361
 H1162 H 0.48510 1.00123 0.64845
 H1163 H 0.59946 0.99529 0.58201
 H1164 H 0.63738 0.99924 0.64816
 H1165 H 0.57366 0.90772 0.70675
 H1166 H 0.53584 0.89471 0.63331
 C1167 C 0.09055 0.47210 1.17549
 C1168 C 0.05089 0.49770 1.17635
 C1169 C 0.02606 0.49287 1.14071
 C1170 C 0.04364 0.46472 1.10390
 C1171 C 0.08842 0.48231 1.09807
 C1172 C 0.11265 0.48203 1.13291
 C1173 C 0.07436 0.42692 1.16769
 C1174 C 0.05021 0.42304 1.12961
 H1175 H 0.04048 0.51401 1.20530
 H1176 H -0.00555 0.50412 1.14210
 H1177 H 0.10171 0.49610 1.06909
 H1178 H 0.14592 0.48717 1.12930
 H1179 H 0.08041 0.40086 1.18987
 H1180 H 0.03615 0.39372 1.11970
 C1181 C -0.08495 0.01354 1.17352
 C1182 C -0.07112 0.05871 1.16046
 C1183 C -0.04972 0.06180 1.12193
 C1184 C -0.04408 0.02005 1.09911
 C1185 C -0.02250 -0.00658 1.13669
 C1186 C -0.04438 -0.01046 1.17489
 C1187 C -0.10904 -0.00299 1.13485
 C1188 C -0.08846 -0.00035 1.09721
 H1189 H -0.07509 0.08548 1.18143
 H1190 H -0.03606 0.09092 1.11015
 H1191 H 0.00896 -0.01825 1.13566
 H1192 H -0.03211 -0.02586 1.20417
 H1193 H -0.13931 -0.01827 1.13711
 H1194 H -0.10254 -0.01535 1.06922
 C1195 C 0.41271 0.51718 0.67269
 C1196 C 0.45771 0.53415 0.68053
 C1197 C 0.48157 0.53724 0.64277
 C1198 C 0.45855 0.52304 0.60068
 C1199 C 0.44272 0.47818 0.61591
 C1200 C 0.41834 0.47597 0.65105
 C1201 C 0.39532 0.54593 0.63577
 C1202 C 0.42028 0.55063 0.60060
 H1203 H 0.46954 0.54290 0.71270
 H1204 H 0.51344 0.54866 0.64299
 H1205 H 0.45454 0.44853 0.60515
 H1206 H 0.40845 0.44606 0.66437
 H1207 H 0.36706 0.56379 0.63715
 H1208 H 0.41557 0.57654 0.57858
 C1209 C 0.41310 0.47766 -0.17583
 C1210 C 0.39324 0.45518 -0.13671
 C1211 C 0.41890 0.44998 -0.10172
 C1212 C 0.46119 0.47216 -0.10411
 C1213 C 0.47952 0.45040 -0.14511
 C1214 C 0.45413 0.45296 -0.18294
 C1215 C 0.42941 0.51903 -0.15971
 C1216 C 0.45339 0.51666 -0.12426
 H1217 H 0.36482 0.43687 -0.13955
 H1218 H 0.41349 0.42307 -0.08128
 H1219 H 0.50902 0.43434 -0.14451
 H1220 H 0.46247 0.43922 -0.21403
 H1221 H 0.42755 0.54793 -0.17879
 H1222 H 0.47154 0.54451 -0.11742
 C1223 C -0.08680 0.97883 0.32417
 C1224 C -0.07023 1.01988 0.34091
 C1225 C -0.04672 1.01686 0.37672
 C1226 C -0.03966 0.97201 0.39641
 C1227 C -0.08253 0.95073 0.39811
 C1228 C -0.10766 0.95663 0.36281
 C1229 C -0.04612 0.95350 0.31748
 C1230 C -0.02126 0.95027 0.35553
 H1231 H -0.07165 1.04901 0.32220
 H1232 H -0.02866 1.04453 0.38446
 H1233 H -0.08853 0.92327 0.41741
 H1234 H -0.13631 0.93879 0.35934
 H1235 H -0.03764 0.93978 0.28643
 H1236 H 0.00794 0.93368 0.35637
 C1237 C 0.07552 0.51463 0.32869
 C1238 C 0.03436 0.53950 0.32806
 C1239 C 0.01594 0.54327 0.36871
 C1240 C 0.03995 0.52221 0.40701
 C1241 C 0.04617 0.47646 0.38864
 C1242 C 0.06427 0.47317 0.34909
 C1243 C 0.10232 0.53637 0.36399
 C1244 C 0.08328 0.54193 0.40280
 H1245 H 0.02086 0.55272 0.29821
 H1246 H -0.01287 0.55991 0.37311
 H1247 H 0.03520 0.44768 0.40357
 H1248 H 0.06834 0.44325 0.33367
 H1249 H 0.13264 0.55021 0.35786
 H1250 H 0.09628 0.56481 0.42379
 C1251 C 0.59287 0.01107 -0.15387
 C1252 C 0.55179 -0.01299 -0.15457
 C1253 C 0.52892 -0.00801 -0.11737
 C1254 C 0.54962 0.01982 -0.08066
 C1255 C 0.59385 0.00025 -0.07605
 C1256 C 0.61548 -0.00388 -0.11315
 C1257 C 0.57954 0.05656 -0.14376
 C1258 C 0.55696 0.06080 -0.10607
 H1259 H 0.53971 -0.02915 -0.18318
 H1260 H 0.49713 -0.01957 -0.11688
 H1261 H 0.60701 -0.01292 -0.04642
 H1262 H 0.64564 -0.01882 -0.11352
 H1263 H 0.58485 0.08278 -0.16601
 H1264 H 0.54369 0.09027 -0.09657
 C1265 C 0.67634 0.56509 -0.01878
 C1266 C 0.65397 0.56076 -0.06413
 C1267 C 0.61589 0.54234 -0.06238
 C1268 C 0.60269 0.52884 -0.01605
 C1269 C 0.63928 0.50019 -0.00188
 C1270 C 0.67778 0.51963 -0.00200
 C1271 C 0.64603 0.58628 0.01070
 C1272 C 0.60876 0.56775 0.01242
 H1273 H 0.66941 0.56460 -0.09559
 H1274 H 0.60073 0.53134 -0.09213
 H1275 H 0.63593 0.46681 0.00337
 H1276 H 0.70646 0.50311 0.00470
 H1277 H 0.65411 0.61203 0.03169
 H1278 H 0.58700 0.57842 0.03582
 C1279 C 0.17558 1.06440 0.48253
 C1280 C 0.15302 1.06070 0.43727
 C1281 C 0.11524 1.04166 0.43888
 C1282 C 0.10240 1.02721 0.48502
 C1283 C 0.13934 0.99879 0.49846
 C1284 C 0.17760 1.01867 0.49842
 C1285 C 0.14524 1.08478 0.51272
 C1286 C 0.10815 1.06576 0.51431
 H1287 H 0.16827 1.06516 0.40579
 H1288 H 0.10036 1.03060 0.40902
 H1289 H 0.13635 0.96535 0.50353
 H1290 H 0.20649 1.00244 0.50486
 H1291 H 0.15325 1.11016 0.53437
 H1292 H 0.08641 1.07556 0.53838
 C1293 C 0.17074 -0.06452 1.01729
 C1294 C 0.17142 -0.01895 1.00024
 C1295 C 0.13388 0.00084 1.00209
 C1296 C 0.09732 -0.02701 1.01751
 C1297 C 0.10028 -0.06559 0.98952
 C1298 C 0.13500 -0.08651 0.99273
 C1299 C 0.15215 -0.06116 1.06370
 C1300 C 0.11373 -0.04158 1.06389
 H1301 H 0.19997 -0.00232 0.99212
 H1302 H 0.13128 0.03422 0.99661
 H1303 H 0.07745 -0.07609 0.96646
 H1304 H 0.13541 -0.11802 0.98006
 H1305 H 0.16840 -0.07066 1.09356
 H1306 H 0.09888 -0.03327 1.09440
 C1307 C 0.67156 0.42842 0.51775
 C1308 C 0.63473 0.40902 0.49300
 C1309 C 0.60138 0.43188 0.49063
 C1310 C 0.60059 0.46982 0.52002
 C1311 C 0.61651 0.45319 0.56576
 C1312 C 0.65370 0.43152 0.56451
 C1313 C 0.67472 0.47437 0.50214
 C1314 C 0.63840 0.49616 0.50517
 H1315 H 0.63281 0.37748 0.48048
 H1316 H 0.57813 0.42304 0.46717
 H1317 H 0.60263 0.46177 0.59671
 H1318 H 0.66978 0.42052 0.59390
 H1319 H 0.70407 0.48960 0.49420
 H1320 H 0.63752 0.52977 0.50078
 C1321 C -0.17531 0.43894 0.49229
 C1322 C -0.16044 0.45811 0.44780
 C1323 C -0.12125 0.47474 0.44897
 C1324 C -0.10038 0.47183 0.49442
 C1325 C -0.13226 0.49291 0.52506
 C1326 C -0.17134 0.47522 0.52441
 C1327 C -0.14183 0.40871 0.50627
 C1328 C -0.10381 0.42562 0.50713
 H1329 H -0.17980 0.45992 0.41840
 H1330 H -0.10731 0.49019 0.42062
 H1331 H -0.12588 0.52117 0.54303
 H1332 H -0.19722 0.48775 0.54248
 H1333 H -0.14781 0.37721 0.51843
 H1334 H -0.07979 0.40855 0.52255
 C1335 C 0.32854 -0.05957 -0.00189
 C1336 C 0.36112 -0.09077 0.01235
 C1337 C 0.39971 -0.07484 0.01398
 C1338 C 0.40446 -0.02851 0.00189
 C1339 C 0.38428 -0.02476 -0.04387
 C1340 C 0.34471 -0.04050 -0.04591
 C1341 C 0.33302 -0.02365 0.03059
 C1342 C 0.37250 -0.00696 0.03210
 H1343 H 0.35410 -0.12229 0.02380
 H1344 H 0.42335 -0.09284 0.02912
 H1345 H 0.39909 -0.00960 -0.07189
 H1346 H 0.32597 -0.03821 -0.07573
 H1347 H 0.30724 -0.01068 0.04848
 H1348 H 0.37931 0.02084 0.05071
 C1349 C 0.32818 1.06639 0.51491
 C1350 C 0.32683 1.02086 0.49960
 C1351 C 0.36260 0.99922 0.50780
 C1352 C 0.39902 1.02530 0.52651
 C1353 C 0.40066 1.06475 0.49784
 C1354 C 0.36657 1.08655 0.49446
 C1355 C 0.34196 1.06216 0.56386
 C1356 C 0.37899 1.04060 0.56986
 H1357 H 0.29835 1.00543 0.48895
 H1358 H 0.36341 0.96550 0.50546
 H1359 H 0.42669 1.07617 0.48000
 H1360 H 0.36873 1.11813 0.48119
 H1361 H 0.32322 1.07121 0.59134
 H1362 H 0.38994 1.03118 0.60232
 C1363 C -0.17078 0.56859 1.01245
 C1364 C -0.13258 0.58930 0.99204
 C1365 C -0.09848 0.56734 0.99407
 C1366 C -0.09981 0.52732 1.02186
 C1367 C -0.11930 0.54153 1.06592
 C1368 C -0.15647 0.56310 1.06108
 C1369 C -0.17232 0.52349 0.99587
 C1370 C -0.13646 0.50170 1.00296
 H1371 H -0.13071 0.62113 0.97941
 H1372 H -0.07268 0.57902 0.97591
 H1373 H -0.10804 0.53114 1.09794
 H1374 H -0.17517 0.57078 1.08910
 H1375 H -0.20097 0.50823 0.98549
 H1376 H -0.13588 0.46801 1.00020
 C1377 C 0.00362 0.67652 0.56751
 C1378 C 0.02970 0.64168 0.58793
 C1379 C 0.03154 0.60705 0.56453
 C1380 C 0.00385 0.60500 0.52247
 C1381 C -0.03952 0.62027 0.53858
 C1382 C -0.03935 0.65638 0.56206
 C1383 C 0.01933 0.68071 0.51937
 C1384 C 0.01851 0.64392 0.49582
 H1385 H 0.04461 0.64233 0.62007
 H1386 H 0.05179 0.58287 0.57679
 H1387 H -0.06891 0.60675 0.52792
 H1388 H -0.06790 0.67136 0.57106
 H1389 H 0.02778 0.71044 0.50432
 H1390 H 0.02572 0.64317 0.46100
 C1391 C 0.50378 0.17916 0.06857
 C1392 C 0.46480 0.16729 0.04149
 C1393 C 0.46698 0.12843 0.02231
 C1394 C 0.50791 0.10393 0.03167
 C1395 C 0.54135 0.13558 0.01625
 C1396 C 0.53969 0.17383 0.03573
 C1397 C 0.50797 0.14348 0.10119
 C1398 C 0.51113 0.10605 0.08334
 H1399 H 0.43825 0.18752 0.03710
 H1400 H 0.44203 0.11647 0.00165
 H1401 H 0.56024 0.13205 -0.01246
 H1402 H 0.55907 0.19978 0.02469
 H1403 H 0.50773 0.14713 0.13675
 H1404 H 0.51432 0.08085 0.10697
 C1405 C -0.00874 0.17398 0.93062
 C1406 C -0.01747 0.13635 0.90317
 C1407 C -0.01894 0.10050 0.92558
 C1408 C -0.01294 0.10207 0.97717
 C1409 C 0.02837 0.12680 0.98171
 C1410 C 0.03067 0.16325 0.95783
 C1411 C -0.04356 0.17255 0.96548
 C1412 C -0.04543 0.13552 0.98990
 H1413 H -0.02273 0.13753 0.86774
 H1414 H -0.02495 0.07405 0.90523
 H1415 H 0.05354 0.11725 1.00347
 H1416 H 0.05763 0.18383 0.95969
 H1417 H -0.06331 0.19885 0.97222
 H1418 H -0.06627 0.13229 1.01742
 C1419 C 0.49938 0.67403 0.43239
 C1420 C 0.47314 0.63974 0.41277
 C1421 C 0.47069 0.60490 0.43758
 C1422 C 0.49605 0.60410 0.48202
 C1423 C 0.54016 0.61927 0.46857
 C1424 C 0.54181 0.65431 0.44328
 C1425 C 0.48100 0.68015 0.47895
 C1426 C 0.48026 0.64409 0.50509
 H1427 H 0.45512 0.64342 0.38262
 H1428 H 0.44906 0.58091 0.42692
 H1429 H 0.56862 0.60729 0.48313
 H1430 H 0.57137 0.66990 0.43709
 H1431 H 0.47158 0.71021 0.49109
 H1432 H 0.47043 0.64427 0.53919
 C1433 C 0.50825 0.81975 0.44262
 C1434 C 0.49756 0.85808 0.41620
 C1435 C 0.49345 0.89243 0.44019
 C1436 C 0.50277 0.88904 0.49121
 C1437 C 0.47151 0.85385 0.50409
 C1438 C 0.47419 0.81787 0.47896
 C1439 C 0.54773 0.83122 0.46876
 C1440 C 0.54444 0.86579 0.49431
 H1441 H 0.48730 0.85717 0.38202
 H1442 H 0.47624 0.91708 0.42431
 H1443 H 0.44954 0.85669 0.53075
 H1444 H 0.45447 0.79078 0.48489
 H1445 H 0.57380 0.81020 0.47237
 H1446 H 0.56627 0.87008 0.52076
 C1447 C 0.00386 0.32096 0.93666
 C1448 C -0.00425 0.35934 0.90928
 C1449 C -0.00676 0.39427 0.93250
 C1450 C 0.00122 0.39098 0.98373
 C1451 C -0.03213 0.35772 0.99648
 C1452 C -0.03093 0.32129 0.97205
 C1453 C 0.04339 0.33065 0.96352
 C1454 C 0.04155 0.36578 0.98825
 H1455 H -0.01379 0.35843 0.87487
 H1456 H -0.02193 0.41970 0.91563
 H1457 H -0.05439 0.36214 1.02260
 H1458 H -0.05209 0.29530 0.97795
 H1459 H 0.06803 0.30813 0.96835
 H1460 H 0.06279 0.36889 1.01539
 C1461 C 0.49480 0.32938 0.06800
 C1462 C 0.46943 0.36408 0.08663
 C1463 C 0.46810 0.39861 0.06139
 C1464 C 0.49380 0.39855 0.01780
 C1465 C 0.53742 0.38329 0.03231
 C1466 C 0.53790 0.34852 0.05787
 C1467 C 0.47652 0.32272 0.02117
 C1468 C 0.47708 0.35848 -0.00538
 H1469 H 0.45104 0.36088 0.11629
 H1470 H 0.44685 0.42278 0.07088
 H1471 H 0.56628 0.39490 0.01823
 H1472 H 0.56694 0.33267 0.06478
 H1473 H 0.46642 0.29255 0.00918
 H1474 H 0.46768 0.35800 -0.03977
 C1475 C -0.00622 0.82628 0.56692
 C1476 C -0.03162 0.86093 0.58560
 C1477 C -0.03284 0.89557 0.56051
 C1478 C -0.00695 0.89578 0.51705
 C1479 C 0.03658 0.88027 0.53161
 C1480 C 0.03691 0.84538 0.55698
 C1481 C -0.02439 0.81989 0.51999
 C1482 C -0.02374 0.85583 0.49363
 H1483 H -0.05021 0.85756 0.61511
 H1484 H -0.05416 0.91966 0.57002
 H1485 H 0.06551 0.89182 0.51763
 H1486 H 0.06590 0.82945 0.56399
 H1487 H -0.03444 0.78978 0.50777
 H1488 H -0.03295 0.85550 0.45918
 C1489 C 0.22695 0.34446 0.06751
 C1490 C 0.18162 0.32870 0.07564
 C1491 C 0.17673 0.30617 0.11485
 C1492 C 0.21758 0.30029 0.14161
 C1493 C 0.24644 0.28132 0.10587
 C1494 C 0.25217 0.30472 0.06908
 C1495 C 0.23701 0.36800 0.10942
 C1496 C 0.23477 0.34538 0.14606
 H1497 H 0.15629 0.33289 0.05227
 H1498 H 0.14727 0.29226 0.12461
 H1499 H 0.25717 0.24941 0.10575
 H1500 H 0.26877 0.29303 0.04088
 H1501 H 0.24461 0.40105 0.11090
 H1502 H 0.24572 0.35985 0.17576
 C1503 C 0.72639 0.83954 0.56268
 C1504 C 0.73568 0.86266 0.60472
 C1505 C 0.73264 0.83979 0.64080
 C1506 C 0.71491 0.79489 0.63606
 C1507 C 0.67466 0.80154 0.60836
 C1508 C 0.68066 0.82444 0.56951
 C1509 C 0.75104 0.79936 0.56443
 C1510 C 0.74417 0.77570 0.60087
 H1511 H 0.74429 0.89546 0.60673
 H1512 H 0.74495 0.85379 0.66988
 H1513 H 0.64473 0.78832 0.61753
 H1514 H 0.65577 0.83011 0.54594
 H1515 H 0.76806 0.78769 0.53651
 H1516 H 0.75446 0.74364 0.60091
 C1517 C 0.26666 0.65997 0.58481
 C1518 C 0.22518 0.66548 0.60572
 C1519 C 0.22699 0.68915 0.64162
 C1520 C 0.27176 0.70484 0.65730
 C1521 C 0.29911 0.66658 0.65755
 C1522 C 0.29447 0.64191 0.62240
 C1523 C 0.28396 0.70502 0.57761
 C1524 C 0.28662 0.72838 0.61556
 H1525 H 0.19577 0.65533 0.59147
 H1526 H 0.19734 0.70014 0.65321
 H1527 H 0.32261 0.66001 0.68190
 H1528 H 0.30935 0.61184 0.62306
 H1529 H 0.29318 0.71731 0.54564
 H1530 H 0.29818 0.76027 0.61570
 C1531 C 0.76486 0.17674 0.06886
 C1532 C 0.78548 0.14910 0.10476
 C1533 C 0.79230 0.16793 0.14370
 C1534 C 0.77385 0.21133 0.14736
 C1535 C 0.79588 0.23552 0.10984
 C1536 C 0.79139 0.21753 0.06896
 C1537 C 0.72405 0.18871 0.08811
 C1538 C 0.72798 0.20622 0.12766
 H1539 H 0.79567 0.11758 0.09968
 H1540 H 0.81334 0.15420 0.16716
 H1541 H 0.81363 0.26402 0.11490
 H1542 H 0.80515 0.23106 0.03949
 H1543 H 0.69411 0.18623 0.07172
 H1544 H 0.69959 0.21806 0.14135
 C1545 C 0.72206 0.15633 0.91650
 C1546 C 0.67934 0.17528 0.90454
 C1547 C 0.68007 0.20050 0.86681
 C1548 C 0.72365 0.20540 0.84499
 C1549 C 0.75090 0.22066 0.88400
 C1550 C 0.75076 0.19505 0.92010
 C1551 C 0.73299 0.13487 0.87395
 C1552 C 0.73898 0.16071 0.84037
 H1553 H 0.65149 0.17012 0.92384
 H1554 H 0.65285 0.21697 0.85499
 H1555 H 0.76708 0.25044 0.88503
 H1556 H 0.76724 0.20349 0.95003
 H1557 H 0.73911 0.10198 0.87006
 H1558 H 0.76691 0.15360 0.82335
 C1559 C 0.23632 0.66242 0.42476
 C1560 C 0.24709 0.63970 0.38263
 C1561 C 0.24848 0.66345 0.34676
 C1562 C 0.23162 0.70810 0.35067
 C1563 C 0.18982 0.70254 0.37576
 C1564 C 0.19223 0.67880 0.41429
 C1565 C 0.26336 0.70210 0.42495
 C1566 C 0.26046 0.72602 0.38759
 H1567 H 0.25385 0.60668 0.38049
 H1568 H 0.26292 0.65055 0.31839
 H1569 H 0.16122 0.71725 0.36493
 H1570 H 0.16579 0.67402 0.43560
 H1571 H 0.28084 0.71230 0.45365
 H1572 H 0.27522 0.75653 0.38669
 C1573 C 0.76245 0.83889 0.41068
 C1574 C 0.80810 0.82572 0.40131
 C1575 C 0.81300 0.80200 0.36463
 C1576 C 0.77254 0.79333 0.33930
 C1577 C 0.74466 0.77317 0.37647
 C1578 C 0.73895 0.79724 0.41295
 C1579 C 0.74740 0.85994 0.36936
 C1580 C 0.75186 0.83728 0.33346
 H1581 H 0.83395 0.83187 0.42357
 H1582 H 0.84266 0.78875 0.35587
 H1583 H 0.73296 0.74137 0.37629
 H1584 H 0.72213 0.78619 0.44173
 H1585 H 0.73115 0.88951 0.36852
 H1586 H 0.73712 0.84937 0.30420
 C1587 C 0.26399 0.33506 0.91378
 C1588 C 0.24852 0.35686 0.87295
 C1589 C 0.25220 0.33466 0.83654
 C1590 C 0.27244 0.29052 0.84137
 C1591 C 0.31337 0.29837 0.86612
 C1592 C 0.30931 0.32153 0.90335
 C1593 C 0.24007 0.29365 0.91571
 C1594 C 0.24494 0.27009 0.87869
 H1595 H 0.23264 0.38662 0.87288
 H1596 H 0.23732 0.34722 0.80761
 H1597 H 0.34277 0.28512 0.85644
 H1598 H 0.33558 0.32720 0.92520
 H1599 H 0.22369 0.28229 0.94465
 H1600 H 0.23320 0.23834 0.87828
 C1601 C 0.81180 0.42735 0.76237
 C1602 C 0.84320 0.39484 0.75029
 C1603 C 0.82772 0.35610 0.75007
 C1604 C 0.78150 0.35111 0.76138
 C1605 C 0.77762 0.37210 0.80614
 C1606 C 0.79298 0.41192 0.80673
 C1607 C 0.77596 0.42197 0.72930
 C1608 C 0.75966 0.38226 0.72920
 H1609 H 0.87472 0.40189 0.73963
 H1610 H 0.84634 0.33239 0.73698
 H1611 H 0.76271 0.35761 0.83448
 H1612 H 0.79066 0.43127 0.83563
 H1613 H 0.76320 0.44721 0.70946
 H1614 H 0.73267 0.37442 0.70926
 C1615 C 0.31107 0.92974 0.26686
 C1616 C 0.34273 0.89765 0.25420
 C1617 C 0.32750 0.85883 0.25301
 C1618 C 0.28133 0.85328 0.26426
 C1619 C 0.27720 0.87349 0.30942
 C1620 C 0.29219 0.91339 0.31082
 C1621 C 0.27532 0.92463 0.23356
 C1622 C 0.25929 0.88477 0.23266
 H1623 H 0.37425 0.90508 0.24386
 H1624 H 0.34626 0.83551 0.23935
 H1625 H 0.26223 0.85849 0.33743
 H1626 H 0.28944 0.93223 0.34004
 H1627 H 0.26238 0.95012 0.21424
 H1628 H 0.23230 0.87703 0.21270
 C1629 C 0.18219 0.92075 0.73770
 C1630 C 0.22843 0.92276 0.75157
 C1631 C 0.24896 0.88564 0.74860
 C1632 C 0.22126 0.84820 0.73564
 C1633 C 0.18402 0.85048 0.76603
 C1634 C 0.16257 0.88482 0.76422
 C1635 C 0.18354 0.90179 0.69130
 C1636 C 0.20406 0.86391 0.69018
 H1637 H 0.24470 0.95185 0.75819
 H1638 H 0.28256 0.88389 0.75163
 H1639 H 0.17409 0.82709 0.78908
 H1640 H 0.13155 0.88411 0.77814
 H1641 H 0.17284 0.91770 0.66177
 H1642 H 0.21198 0.84970 0.65923
 C1643 C 0.68329 0.42107 0.23523
 C1644 C 0.66420 0.38438 0.26101
 C1645 C 0.68648 0.35053 0.26263
 C1646 C 0.72395 0.34941 0.23250
 C1647 C 0.70671 0.36541 0.18710
 C1648 C 0.68540 0.40283 0.18858
 C1649 C 0.72942 0.42386 0.24955
 C1650 C 0.75079 0.38724 0.24622
 H1651 H 0.63310 0.38284 0.27469
 H1652 H 0.67752 0.32695 0.28597
 H1653 H 0.71492 0.35161 0.15603
 H1654 H 0.67442 0.41889 0.15922
 H1655 H 0.74494 0.45313 0.25711
 H1656 H 0.78433 0.38596 0.25026
 C1657 C 0.68714 0.57589 0.25719
 C1658 C 0.66484 0.60753 0.22882
 C1659 C 0.68374 0.64476 0.22695
 C1660 C 0.72409 0.64925 0.25401
 C1661 C 0.71276 0.63496 0.30064
 C1662 C 0.69401 0.59692 0.30261
 C1663 C 0.73148 0.57430 0.23886
 C1664 C 0.75133 0.61260 0.23846
 H1665 H 0.63724 0.60076 0.20968
 H1666 H 0.67162 0.66825 0.20544
 H1667 H 0.72482 0.64964 0.33014
 H1668 H 0.69073 0.58072 0.33402
 H1669 H 0.74744 0.54549 0.23213
 H1670 H 0.78464 0.61522 0.23363
 C1671 C 0.18158 0.07573 0.75642
 C1672 C 0.16287 0.10704 0.72499
 C1673 C 0.18295 0.14364 0.72408
 C1674 C 0.22111 0.14786 0.75472
 C1675 C 0.20537 0.13519 0.80037
 C1676 C 0.18516 0.09790 0.80159
 C1677 C 0.22735 0.07227 0.74265
 C1678 C 0.24841 0.10996 0.74298
 H1679 H 0.13680 0.10066 0.70332
 H1680 H 0.17268 0.16708 0.70152
 H1681 H 0.21624 0.14956 0.83050
 H1682 H 0.17935 0.08254 0.83304
 H1683 H 0.24268 0.04284 0.73729
 H1684 H 0.28192 0.11190 0.73933
 C1685 C 0.31702 0.08470 0.23656
 C1686 C 0.33765 0.12264 0.25736
 C1687 C 0.31628 0.15714 0.25461
 C1688 C 0.27719 0.15653 0.22579
 C1689 C 0.29242 0.13659 0.18215
 C1690 C 0.31345 0.09904 0.18780
 C1691 C 0.27150 0.08386 0.25188
 C1692 C 0.25055 0.12018 0.24415
 H1693 H 0.36900 0.12400 0.27094
 H1694 H 0.32753 0.18263 0.27335
 H1695 H 0.28360 0.14823 0.14975
 H1696 H 0.32352 0.08041 0.16042
 H1697 H 0.25557 0.05539 0.26215
 H1698 H 0.21692 0.12144 0.24644
 C1699 C 0.81456 0.58157 0.73137
 C1700 C 0.76938 0.57996 0.74783
 C1701 C 0.74781 0.61601 0.74098
 C1702 C 0.77368 0.65265 0.72216
 C1703 C 0.81312 0.65369 0.75029
 C1704 C 0.83524 0.61975 0.75176
 C1705 C 0.80984 0.59600 0.68282
 C1706 C 0.78831 0.63330 0.67797
 H1707 H 0.75412 0.55125 0.75848
 H1708 H 0.71427 0.61701 0.74455
 H1709 H 0.82342 0.67855 0.77052
 H1710 H 0.86672 0.62147 0.76498
 H1711 H 0.81978 0.57777 0.65508
 H1712 H 0.77909 0.64538 0.64587
 C1713 C 0.93166 0.74954 0.18737
 C1714 C 0.89580 0.74542 0.15554
 C1715 C 0.85851 0.74664 0.17404
 C1716 C 0.85737 0.75205 0.22556
 C1717 C 0.88551 0.71542 0.24129
 C1718 C 0.92416 0.71399 0.22133
 C1719 C 0.92336 0.78920 0.21378
 C1720 C 0.88556 0.79027 0.23360
 H1721 H 0.89934 0.73804 0.12091
 H1722 H 0.83300 0.73815 0.15250
 H1723 H 0.87604 0.69282 0.26624
 H1724 H 0.94695 0.69037 0.22942
 H1725 H 0.94727 0.81248 0.22043
 H1726 H 0.88041 0.81338 0.25796
 C1727 C 0.43052 0.25066 0.68836
 C1728 C 0.42377 0.21508 0.72256
 C1729 C 0.38511 0.21566 0.74262
 C1730 C 0.35610 0.25153 0.72687
 C1731 C 0.38353 0.29039 0.73462
 C1732 C 0.42133 0.29020 0.71457
 C1733 C 0.39460 0.24569 0.65669
 C1734 C 0.35728 0.24595 0.67543
 H1735 H 0.44710 0.19202 0.73074
 H1736 H 0.37619 0.19293 0.76767
 H1737 H 0.37817 0.31301 0.75941
 H1738 H 0.44478 0.31393 0.72125
 H1739 H 0.39821 0.23830 0.62210
 H1740 H 0.33188 0.23653 0.65426
 C1741 C 0.42344 0.74530 0.82423
 C1742 C 0.40416 0.78791 0.81294
 C1743 C 0.36898 0.78635 0.78804
 C1744 C 0.35318 0.74207 0.77560
 C1745 C 0.39268 0.72543 0.75240
 C1746 C 0.42884 0.72615 0.77797
 C1747 C 0.38901 0.71972 0.84493
 C1748 C 0.35391 0.71749 0.82073
 H1749 H 0.41983 0.81743 0.81908
 H1750 H 0.35702 0.81490 0.77345
 H1751 H 0.39242 0.71487 0.71860
 H1752 H 0.45857 0.71607 0.76558
 H1753 H 0.39268 0.70218 0.87554
 H1754 H 0.32956 0.69668 0.83246
 C1755 C 0.92610 0.24372 0.31920
 C1756 C 0.90813 0.28450 0.30880
 C1757 C 0.87166 0.28312 0.28200
 C1758 C 0.85714 0.24122 0.26942
 C1759 C 0.89465 0.22549 0.24741
 C1760 C 0.93255 0.22602 0.27512
 C1761 C 0.89301 0.21888 0.33792
 C1762 C 0.85681 0.21673 0.31138
 H1763 H 0.92499 0.31377 0.31280
 H1764 H 0.86205 0.31143 0.26496
 H1765 H 0.89536 0.21789 0.21272
 H1766 H 0.96287 0.21804 0.26252
 H1767 H 0.89672 0.19903 0.36696
 H1768 H 0.83378 0.19334 0.32034
 C1769 C 0.06923 0.25859 0.30663
 C1770 C 0.10715 0.25161 0.33492
 C1771 C 0.14281 0.25025 0.31266
 C1772 C 0.14083 0.25794 0.26132
 C1773 C 0.10884 0.22359 0.24812
 C1774 C 0.07174 0.22378 0.27156
 C1775 C 0.07868 0.29850 0.27969
 C1776 C 0.11462 0.29768 0.25588
 H1777 H 0.10563 0.24232 0.36945
 H1778 H 0.16828 0.23636 0.33052
 H1779 H 0.11462 0.20134 0.22238
 H1780 H 0.04666 0.20175 0.26523
 H1781 H 0.05581 0.32273 0.27439
 H1782 H 0.11831 0.31941 0.22898
 C1783 C 0.56866 0.75785 0.80871
 C1784 C 0.60728 0.74784 0.83462
 C1785 C 0.64156 0.74494 0.81025
 C1786 C 0.63786 0.75474 0.75928
 C1787 C 0.60344 0.72267 0.74660
 C1788 C 0.56756 0.72412 0.77214
 C1789 C 0.57901 0.79799 0.78275
 C1790 C 0.61350 0.79592 0.75682
 H1791 H 0.60677 0.73703 0.86871
 H1792 H 0.66647 0.72794 0.82578
 H1793 H 0.60673 0.70104 0.71976
 H1794 H 0.54103 0.70372 0.76637
 H1795 H 0.55729 0.82353 0.77945
 H1796 H 0.61667 0.81814 0.73040
 C1797 C 0.58007 0.24203 0.68246
 C1798 C 0.57665 0.22020 0.72796
 C1799 C 0.61341 0.22103 0.75235
 C1800 C 0.65135 0.24188 0.72845
 C1801 C 0.65069 0.21975 0.68287
 C1802 C 0.61499 0.22020 0.66005
 C1803 C 0.59741 0.28558 0.69452
 C1804 C 0.63355 0.28545 0.71784
 H1805 H 0.54739 0.20926 0.74165
 H1806 H 0.61336 0.21246 0.78695
 H1807 H 0.67635 0.20511 0.66732
 H1808 H 0.61210 0.20582 0.62798
 H1809 H 0.58028 0.31423 0.68924
 H1810 H 0.64554 0.31411 0.73190
 C1811 C 0.08103 0.74088 0.18460
 C1812 C 0.08251 0.70898 0.22294
 C1813 C 0.11946 0.70995 0.24690
 C1814 C 0.15298 0.74177 0.22985
 C1815 C 0.15413 0.73240 0.17896
 C1816 C 0.11815 0.73075 0.15742
 C1817 C 0.09201 0.78265 0.20731
 C1818 C 0.12870 0.78295 0.23051
 H1819 H 0.05569 0.69072 0.23339
 H1820 H 0.12119 0.69400 0.27833
 H1821 H 0.18054 0.73003 0.15757
 H1822 H 0.11681 0.72478 0.12223
 H1823 H 0.07145 0.80927 0.20682
 H1824 H 0.13856 0.80985 0.24934
   
