data_POSCAR
  _audit_creation_date              2014-09-24
  _audit_creation_method            'ToBaCCo'
  _symmetry_space_group_name_H-M    'P1'
  _symmetry_Int_Tables_number       1
  _symmetry_cell_setting            triclinic
  loop_
  _symmetry_equiv_pos_as_xyz
 x,y,z
_cell_length_a 47.6543
_cell_length_b 48.0631
_cell_length_c 49.6139
_cell_angle_alpha 90.199500
_cell_angle_beta 90.622100
_cell_angle_gamma 91.423800
loop_
  _atom_site_label
  _atom_site_type_symbol
  _atom_site_fract_x
  _atom_site_fract_y
  _atom_site_fract_z
C1 C 0.40906 0.01524 0.27876
 C2 C 0.38675 0.03777 0.27646
 C3 C 0.36903 0.03472 0.25498
 C4 C 0.37459 0.00888 0.23775
 C5 C 0.39154 -0.01198 0.27916
 C6 C 0.37329 -0.01569 0.25800
 C7 C 0.42360 0.01521 0.25140
 C8 C 0.40587 0.01201 0.22977
 H9 H 0.38366 0.05388 0.29130
 H10 H 0.35961 0.00703 0.22059
 H11 H 0.39387 -0.02712 0.29503
 H12 H 0.44620 0.01683 0.24962
 C13 C 0.09350 0.00083 0.77347
 C14 C 0.11343 -0.02390 0.77431
 C15 C 0.13219 -0.02445 0.75386
 C16 C 0.12970 0.00033 0.73441
 C17 C 0.11376 0.02617 0.77327
 C18 C 0.13287 0.02617 0.75307
 C19 C 0.08074 -0.00007 0.74680
 C20 C 0.10026 -0.00035 0.72484
 H21 H 0.11384 -0.03893 0.79049
 H22 H 0.14604 -0.00052 0.71883
 H23 H 0.11346 0.04246 0.78832
 H24 H 0.05829 0.00152 0.74417
 C25 C 0.59453 0.50073 0.28539
 C26 C 0.61515 0.47657 0.28563
 C27 C 0.63286 0.47611 0.26436
 C28 C 0.62922 0.50059 0.24493
 C29 C 0.61395 0.52662 0.28397
 C30 C 0.63230 0.52686 0.26311
 C31 C 0.57999 0.49894 0.25771
 C32 C 0.59784 0.49870 0.23636
 H33 H 0.61596 0.46112 0.30143
 H34 H 0.64438 0.50000 0.22817
 H35 H 0.61369 0.54317 0.29873
 H36 H 0.55737 0.49831 0.25546
 C37 C 0.91055 0.50078 0.78043
 C38 C 0.89280 0.52718 0.78013
 C39 C 0.87407 0.52847 0.75916
 C40 C 0.87451 0.50284 0.74038
 C41 C 0.88854 0.47710 0.78011
 C42 C 0.86959 0.47765 0.75945
 C43 C 0.92397 0.49986 0.75270
 C44 C 0.90557 0.50129 0.73158
 H45 H 0.89372 0.54298 0.79567
 H46 H 0.85903 0.50403 0.72360
 H47 H 0.88864 0.46068 0.79495
 H48 H 0.94638 0.49797 0.75026
 C49 C 0.26969 0.37721 1.00283
 C50 C 0.26534 0.35235 1.02184
 C51 C 0.24105 0.33738 1.01738
 C52 C 0.22309 0.34838 0.99387
 C53 C 0.26710 0.36457 0.97452
 C54 C 0.24303 0.34958 0.96970
 C55 C 0.24277 0.39392 1.00616
 C56 C 0.21838 0.37905 1.00138
 H57 H 0.27765 0.34916 1.03992
 H58 H 0.20342 0.33604 0.99004
 H59 H 0.28301 0.36763 0.95930
 H60 H 0.24307 0.41554 1.01241
 C61 C 0.77736 0.12974 1.00127
 C62 C 0.77339 0.15119 0.97886
 C63 C 0.74756 0.16256 0.97815
 C64 C 0.72788 0.15190 1.00063
 C65 C 0.77049 0.14602 1.02707
 C66 C 0.74465 0.15749 1.02675
 C67 C 0.75417 0.10975 0.99766
 C68 C 0.72679 0.12156 0.99795
 H69 H 0.78905 0.15676 0.96417
 H70 H 0.70720 0.16202 1.00007
 H71 H 0.78421 0.14719 1.04460
 H72 H 0.75737 0.08752 0.99793
 C73 C 0.27874 0.62616 0.50269
 C74 C 0.27578 0.64284 0.47647
 C75 C 0.25266 0.65878 0.47505
 C76 C 0.23346 0.65578 0.49973
 C77 C 0.27636 0.64786 0.52518
 C78 C 0.25274 0.66320 0.52385
 C79 C 0.25107 0.60886 0.50402
 C80 C 0.22749 0.62431 0.50263
 H81 H 0.28961 0.64109 0.45946
 H82 H 0.21427 0.66840 0.49856
 H83 H 0.29141 0.64980 0.54165
 H84 H 0.25021 0.58635 0.50490
 C85 C 0.77435 0.88135 0.50463
 C86 C 0.77169 0.85722 0.52480
 C87 C 0.74787 0.84115 0.52167
 C88 C 0.72864 0.85048 0.49835
 C89 C 0.77135 0.86720 0.47701
 C90 C 0.74769 0.85127 0.47360
 C91 C 0.74697 0.89720 0.50804
 C92 C 0.72309 0.88127 0.50459
 H93 H 0.78534 0.85460 0.54204
 H94 H 0.70929 0.83737 0.49555
 H95 H 0.78655 0.87011 0.46110
 H96 H 0.74660 0.91917 0.51293
 C97 C -0.00922 0.27116 0.40411
 C98 C 0.01645 0.27263 0.38585
 C99 C 0.01880 0.25035 0.36914
 C100 C -0.00503 0.22852 0.37206
 C101 C -0.03295 0.26689 0.38619
 C102 C -0.03065 0.24392 0.36823
 C103 C -0.00664 0.24339 0.41900
 C104 C -0.00372 0.22110 0.40220
 H105 H 0.03150 0.28991 0.38637
 H106 H -0.00294 0.21062 0.35816
 H107 H -0.05157 0.27938 0.38710
 H108 H -0.00674 0.24120 0.44062
 C109 C 0.00916 0.77874 0.09063
 C110 C -0.01979 0.77373 0.10347
 C111 C -0.02072 0.75214 0.12120
 C112 C 0.00710 0.73743 0.12435
 C113 C 0.02873 0.78243 0.11517
 C114 C 0.02767 0.76078 0.13250
 C115 C 0.01663 0.75082 0.07813
 C116 C 0.01525 0.72921 0.09572
 H117 H -0.03643 0.78859 0.10255
 H118 H 0.00671 0.71979 0.13873
 H119 H 0.04262 0.80035 0.11839
 H120 H 0.02054 0.74815 0.05682
 C121 C 0.51522 0.26786 0.59481
 C122 C 0.49737 0.27304 0.61953
 C123 C 0.48981 0.24977 0.63333
 C124 C 0.50248 0.22322 0.62196
 C125 C 0.54079 0.25266 0.60559
 C126 C 0.53394 0.22959 0.62005
 C127 C 0.49886 0.24568 0.57843
 C128 C 0.49269 0.22192 0.59232
 H129 H 0.49031 0.29359 0.62476
 H130 H 0.49789 0.20430 0.63395
 H131 H 0.56229 0.26008 0.60398
 H132 H 0.49500 0.24798 0.55705
 C133 C 0.49914 0.77044 0.91144
 C134 C 0.52175 0.77648 0.89051
 C135 C 0.52570 0.75540 0.87280
 C136 C 0.50653 0.72975 0.87785
 C137 C 0.47283 0.76193 0.89518
 C138 C 0.47690 0.74101 0.87750
 C139 C 0.50787 0.74495 0.92437
 C140 C 0.51151 0.72200 0.90599
 H141 H 0.53492 0.79518 0.89120
 H142 H 0.50832 0.71321 0.86249
 H143 H 0.45306 0.77250 0.89649
 H144 H 0.51256 0.74365 0.94557
 C145 C -0.25185 0.66362 0.97151
 C146 C -0.22511 0.64620 0.97145
 C147 C -0.22291 0.62813 0.99252
 C148 C -0.24808 0.62878 1.01172
 C149 C -0.27558 0.64159 0.97246
 C150 C -0.27412 0.62324 0.99323
 C151 C -0.25189 0.67754 0.99923
 C152 C -0.24966 0.65971 1.02041
 H153 H -0.20972 0.64692 0.95562
 H154 H -0.24605 0.61383 1.02855
 H155 H -0.29262 0.64115 0.95789
 H156 H -0.25386 0.69980 1.00166
 C157 C -0.25602 0.33878 0.47370
 C158 C -0.27992 0.35972 0.47484
 C159 C -0.27832 0.37738 0.49623
 C160 C -0.25234 0.37323 0.51432
 C161 C -0.22950 0.35758 0.47365
 C162 C -0.22722 0.37580 0.49469
 C163 C -0.25597 0.32522 0.49975
 C164 C -0.25410 0.34378 0.52252
 H165 H -0.29617 0.36150 0.45959
 H166 H -0.25161 0.38893 0.53064
 H167 H -0.21395 0.35664 0.45800
 H168 H -0.25576 0.30279 0.50137
 C169 C 0.24376 -0.15790 -0.02802
 C170 C 0.21945 -0.13741 -0.02810
 C171 C 0.22001 -0.11916 -0.00717
 C172 C 0.24545 -0.12241 0.01188
 C173 C 0.26991 -0.13857 -0.02767
 C174 C 0.27112 -0.11980 -0.00703
 C175 C 0.24322 -0.17083 -0.00165
 C176 C 0.24412 -0.15170 0.02076
 H177 H 0.20392 -0.13603 -0.04407
 H178 H 0.24537 -0.10632 0.02782
 H179 H 0.28599 -0.13952 -0.04282
 H180 H 0.24402 -0.19318 0.00046
 C181 C 0.25368 1.16447 0.46659
 C182 C 0.27966 1.14590 0.46614
 C183 C 0.28064 1.12674 0.48638
 C184 C 0.25526 1.12769 0.50529
 C185 C 0.22902 1.14343 0.46626
 C186 C 0.22943 1.12402 0.48612
 C187 C 0.25380 1.17713 0.49488
 C188 C 0.25502 1.15832 0.51534
 H189 H 0.29538 1.14667 0.45064
 H190 H 0.25630 1.11189 0.52145
 H191 H 0.21241 1.14416 0.45126
 H192 H 0.25305 1.19937 0.49817
 C193 C 0.13027 0.52681 0.25002
 C194 C 0.10566 0.52365 0.22988
 C195 C 0.09010 0.49966 0.23248
 C196 C 0.10021 0.48077 0.25552
 C197 C 0.11635 0.52347 0.27761
 C198 C 0.10083 0.49958 0.28064
 C199 C 0.14683 0.50000 0.24631
 C200 C 0.13133 0.47595 0.24932
 H201 H 0.10191 0.53757 0.21330
 H202 H 0.08745 0.46129 0.25791
 H203 H 0.11916 0.53853 0.29378
 H204 H 0.16895 0.50015 0.24149
 C205 C -0.12512 1.03138 0.24520
 C206 C -0.10053 1.03145 0.26542
 C207 C -0.08562 1.00762 0.26566
 C208 C -0.09655 0.98555 0.24476
 C209 C -0.11109 1.02515 0.21817
 C210 C -0.09641 1.00120 0.21768
 C211 C -0.14158 1.00642 0.25141
 C212 C -0.12643 0.98095 0.25055
 H213 H -0.09516 1.04852 0.27884
 H214 H -0.08400 0.96640 0.24470
 H215 H -0.11356 1.03801 0.20045
 H216 H -0.16421 1.00684 0.25311
 C217 C 0.37445 0.53196 -0.24761
 C218 C 0.39167 0.52759 -0.22171
 C219 C 0.40654 0.50383 -0.22130
 C220 C 0.40239 0.48566 -0.24689
 C221 C 0.39568 0.52936 -0.27029
 C222 C 0.41034 0.50544 -0.27008
 C223 C 0.35588 0.50541 -0.24976
 C224 C 0.37028 0.48118 -0.24958
 H225 H 0.39057 0.54056 -0.20395
 H226 H 0.41435 0.46611 -0.24652
 H227 H 0.39891 0.54540 -0.28533
 H228 H 0.33317 0.50579 -0.25060
 C229 C 0.62666 0.02058 -0.25266
 C230 C 0.60234 0.01746 -0.27317
 C231 C 0.58666 -0.00650 -0.27082
 C232 C 0.59650 -0.02551 -0.24768
 C233 C 0.61246 0.01706 -0.22524
 C234 C 0.59691 -0.00683 -0.22244
 C235 C 0.64325 -0.00629 -0.25632
 C236 C 0.62771 -0.03041 -0.25354
 H237 H 0.59929 0.03107 -0.29013
 H238 H 0.58365 -0.04496 -0.24549
 H239 H 0.61551 0.03182 -0.20885
 H240 H 0.66546 -0.00611 -0.26073
 C241 C 0.02993 0.24785 0.84775
 C242 C 0.02761 0.27764 0.85823
 C243 C 0.00428 0.28208 0.87298
 C244 C -0.01478 0.25604 0.87596
 C245 C 0.02771 0.22953 0.87292
 C246 C 0.00442 0.23386 0.88775
 C247 C 0.00390 0.24189 0.83314
 C248 C -0.02093 0.24687 0.84834
 H249 H 0.04376 0.29351 0.85500
 H250 H -0.03333 0.25906 0.88880
 H251 H 0.04037 0.21148 0.87637
 H252 H 0.00352 0.23591 0.81211
 C253 C 0.51039 0.25007 0.15845
 C254 C 0.52109 0.23445 0.13384
 C255 C 0.50185 0.23027 0.11374
 C256 C 0.47366 0.24339 0.11971
 C257 C 0.49931 0.27738 0.14723
 C258 C 0.48067 0.27376 0.12663
 C259 C 0.48377 0.23383 0.16695
 C260 C 0.46438 0.23076 0.14664
 H261 H 0.54217 0.22662 0.13324
 H262 H 0.45764 0.24086 0.10346
 H263 H 0.50686 0.29781 0.15368
 H264 H 0.47855 0.22984 0.18778
 C265 C 0.02711 0.75948 0.65242
 C266 C 0.02451 0.73084 0.63905
 C267 C 0.00114 0.72705 0.62339
 C268 C -0.01782 0.75215 0.62268
 C269 C 0.02453 0.78026 0.62926
 C270 C 0.00140 0.77591 0.61365
 C271 C -0.00026 0.76264 0.66800
 C272 C -0.02370 0.75870 0.65235
 H273 H 0.04094 0.71570 0.64041
 H274 H -0.03690 0.74954 0.60981
 H275 H 0.03888 0.79781 0.62628
 H276 H -0.00128 0.76830 0.68906
 C277 C 0.53066 0.73761 0.35459
 C278 C 0.52677 0.76586 0.36811
 C279 C 0.50286 0.76752 0.38264
 C280 C 0.48478 0.74090 0.38222
 C281 C 0.52832 0.71640 0.37751
 C282 C 0.50446 0.71849 0.39202
 C283 C 0.50384 0.73225 0.33785
 C284 C 0.47994 0.73444 0.35228
 H285 H 0.54252 0.78248 0.36741
 H286 H 0.46515 0.74205 0.39397
 H287 H 0.54281 0.69970 0.38069
 H288 H 0.50364 0.72817 0.31638
 Zr289 Zr 0.02291 -0.01532 1.03199
 O290 O 0.05071 -0.00769 1.06496
 O291 O 0.01376 -0.05803 1.03597
 O292 O 0.00308 -0.01973 1.06989
 O293 O 0.07577 -0.02110 0.98511
 O294 O -0.03694 0.00486 1.06476
 O295 O 0.06214 -0.03427 1.02717
 O296 O -0.01954 -0.06718 1.00347
 O297 O -0.01994 -0.01807 1.02219
 O298 O 0.02002 -0.02912 0.99202
 O299 O 0.00787 0.02503 1.03782
 O300 O 0.04651 0.01397 1.00934
 Zr301 Zr -0.01626 0.03852 0.96328
 Zr302 Zr -0.03443 0.02240 1.02614
 Zr303 Zr 0.04143 0.00064 0.96926
 Zr304 Zr -0.02247 -0.03014 0.98176
 O305 O 0.07877 0.02354 0.96080
 O306 O -0.06358 -0.04291 0.99315
 O307 O -0.00092 -0.00180 0.95711
 O308 O -0.03932 0.00926 0.98606
 O309 O -0.01343 0.05269 1.00320
 O310 O 0.02660 0.04099 0.97298
 C311 C -0.00382 -0.07424 1.02329
 C312 C 0.07987 -0.03366 1.00769
 C313 C -0.02035 -0.01042 1.07857
 O314 O -0.07430 0.00262 1.03053
 O315 O -0.06593 0.04878 1.01267
 O316 O -0.05436 0.05940 0.96940
 C317 C -0.07062 0.06076 0.99000
 O318 O 0.05872 0.05283 1.04556
 Zr319 Zr 0.02923 0.05360 1.01314
 O320 O -0.00791 0.08123 0.95903
 O321 O -0.03818 0.05481 1.05475
 O322 O 0.01586 0.08217 1.04275
 O323 O 0.06875 0.06904 0.99978
 O324 O 0.02207 0.09186 0.99391
 C325 C 0.00707 0.09848 0.97329
 O326 O -0.04572 0.03150 0.93155
 O327 O 0.04881 -0.03441 0.94456
 O328 O 0.00186 0.03979 0.92435
 O329 O 0.03880 0.01061 0.92823
 O330 O -0.00869 -0.06097 0.95458
 O331 O -0.04774 -0.02998 0.94620
 C332 C 0.02233 0.02604 0.91447
 H333 H 0.02836 -0.04757 0.98930
 H334 H -0.05930 0.00843 0.98037
 H335 H 0.03705 0.05396 0.96106
 H336 H 0.01006 0.03090 1.05689
 H337 H -0.06680 -0.06226 0.98665
 H338 H -0.08425 0.01291 1.04474
 H339 H -0.05715 0.05272 1.06261
 H340 H 0.02834 0.09893 1.04177
 H341 H -0.02202 -0.07708 0.95569
 H342 H 0.06754 -0.03147 0.93641
 H343 H 0.08882 0.01280 0.94700
 H344 H 0.07106 0.08844 1.00641
 H345 H -0.05770 -0.04820 0.94417
 H346 H -0.04789 0.04944 0.92197
 H347 H 0.05324 -0.02565 1.07439
 H348 H 0.06586 0.07198 1.04937
 Zr349 Zr 0.52438 0.47784 0.54430
 O350 O 0.55219 0.48588 0.57716
 O351 O 0.51607 0.43519 0.54827
 O352 O 0.50455 0.47243 0.58200
 O353 O 0.57671 0.47283 0.49682
 O354 O 0.46521 0.49848 0.57825
 O355 O 0.56389 0.45922 0.53899
 O356 O 0.48305 0.42550 0.51570
 O357 O 0.48138 0.47476 0.53493
 O358 O 0.52125 0.46422 0.50430
 O359 O 0.50877 0.51788 0.55059
 O360 O 0.54756 0.50735 0.52167
 Zr361 Zr 0.48420 0.53147 0.47640
 Zr362 Zr 0.46630 0.51508 0.53916
 Zr363 Zr 0.54212 0.49428 0.48153
 Zr364 Zr 0.47866 0.46275 0.49452
 O365 O 0.57927 0.51745 0.47294
 O366 O 0.43806 0.44930 0.50680
 O367 O 0.49973 0.49137 0.46973
 O368 O 0.46142 0.50197 0.49907
 O369 O 0.48714 0.54552 0.51633
 O370 O 0.52705 0.53436 0.48585
 C371 C 0.49907 0.41862 0.53540
 C372 C 0.58131 0.46017 0.51921
 C373 C 0.48182 0.48260 0.59134
 O374 O 0.42713 0.49420 0.54439
 O375 O 0.43374 0.54064 0.52556
 O376 O 0.44645 0.55256 0.48287
 C377 C 0.42969 0.55336 0.50309
 O378 O 0.55953 0.54548 0.55839
 Zr379 Zr 0.52989 0.54666 0.52611
 O380 O 0.49246 0.57410 0.47264
 O381 O 0.46207 0.54797 0.56716
 O382 O 0.51658 0.57495 0.55600
 O383 O 0.56922 0.56257 0.51271
 O384 O 0.52260 0.58495 0.50735
 C385 C 0.50747 0.59136 0.48684
 O386 O 0.45454 0.52439 0.44486
 O387 O 0.54942 0.45950 0.45645
 O388 O 0.50212 0.53380 0.43746
 O389 O 0.53929 0.50487 0.44067
 O390 O 0.49211 0.43236 0.46672
 O391 O 0.45267 0.46274 0.45943
 C392 C 0.52273 0.52052 0.42727
 H393 H 0.52980 0.44592 0.50133
 H394 H 0.44142 0.50100 0.49344
 H395 H 0.53736 0.54751 0.47398
 H396 H 0.51113 0.52370 0.56966
 H397 H 0.43510 0.42986 0.50044
 H398 H 0.41708 0.50451 0.55851
 H399 H 0.44331 0.54549 0.57537
 H400 H 0.52914 0.59167 0.55524
 H401 H 0.47897 0.41611 0.46794
 H402 H 0.56804 0.46263 0.44812
 H403 H 0.58929 0.50689 0.45900
 H404 H 0.57159 0.58178 0.51984
 H405 H 0.44249 0.44459 0.45778
 H406 H 0.45213 0.54235 0.43539
 H407 H 0.55513 0.46791 0.58644
 H408 H 0.56660 0.56459 0.56246
 Zr409 Zr 0.46539 1.00414 0.54170
 O410 O 0.43387 0.98619 0.56631
 O411 O 0.46980 1.04419 0.55811
 O412 O 0.48097 1.00055 0.58184
 O413 O 0.42156 1.02397 0.48938
 O414 O 0.52033 0.97479 0.57754
 O415 O 0.42655 1.02437 0.53515
 O416 O 0.50614 1.06276 0.53392
 O417 O 0.50918 1.00949 0.54025
 O418 O 0.47405 1.02830 0.50762
 O419 O 0.48155 0.96376 0.53944
 O420 O 0.44730 0.98207 0.50863
 Zr421 Zr 0.51775 0.97184 0.46912
 Zr422 Zr 0.52511 0.96945 0.53586
 Zr423 Zr 0.45816 1.00602 0.47480
 Zr424 Zr 0.51745 1.03252 0.50565
 O425 O 0.42259 0.98666 0.45612
 O426 O 0.55399 1.04199 0.52899
 O427 O 0.50167 1.01226 0.47091
 O428 O 0.53549 0.99355 0.50220
 O429 O 0.50952 0.94670 0.50269
 O430 O 0.47410 0.96643 0.47086
 C431 C 0.48668 1.06422 0.55164
 C432 C 0.41303 1.03013 0.51313
 C433 C 0.50260 0.98815 0.59166
 O434 O 0.56251 0.98747 0.55233
 O435 O 0.56022 0.94853 0.52113
 O436 O 0.55488 0.94920 0.47539
 C437 C 0.56835 0.94269 0.49712
 O438 O 0.43236 0.93350 0.53168
 Zr439 Zr 0.46590 0.94293 0.50506
 O440 O 0.51143 0.93299 0.45131
 O441 O 0.52604 0.93003 0.55465
 O442 O 0.47719 0.90713 0.52713
 O443 O 0.42904 0.93163 0.48287
 O444 O 0.47703 0.91242 0.47654
 C445 C 0.49466 0.91265 0.45701
 O446 O 0.55130 0.98876 0.44627
 O447 O 0.45472 1.04621 0.45791
 O448 O 0.50520 0.97916 0.42870
 O449 O 0.46607 1.00515 0.43328
 O450 O 0.50830 1.06941 0.48431
 O451 O 0.54955 1.04253 0.47761
 C452 C 0.48470 0.99321 0.41902
 H453 H 0.46532 1.04676 0.50784
 H454 H 0.55607 0.99600 0.50037
 H455 H 0.46577 0.95726 0.45466
 H456 H 0.47675 0.95291 0.55575
 H457 H 0.55665 1.06250 0.52910
 H458 H 0.57070 0.97345 0.56451
 H459 H 0.54347 0.92980 0.56571
 H460 H 0.46640 0.89106 0.51939
 H461 H 0.52044 1.08458 0.49194
 H462 H 0.43747 1.04594 0.44655
 H463 H 0.41451 1.00057 0.44375
 H464 H 0.42693 0.91108 0.48344
 H465 H 0.55973 1.05974 0.48350
 H466 H 0.55618 0.97454 0.43268
 H467 H 0.42882 1.00066 0.57957
 H468 H 0.42655 0.91368 0.52959
 Zr469 Zr -0.03149 0.51328 1.04655
 O470 O -0.06303 0.50018 1.07374
 O471 O -0.02106 0.55325 1.06134
 O472 O -0.01489 0.50911 1.08608
 O473 O -0.07686 0.53291 0.99553
 O474 O 0.02183 0.47995 1.08108
 O475 O -0.06931 0.53574 1.04088
 O476 O 0.01632 0.56649 1.03573
 O477 O 0.01235 0.51426 1.04277
 O478 O -0.02253 0.53531 1.01132
 O479 O -0.01928 0.47139 1.04519
 O480 O -0.05315 0.49144 1.01537
 Zr481 Zr 0.01352 0.47261 0.97285
 Zr482 Zr 0.02425 0.47273 1.03938
 Zr483 Zr -0.04197 0.51283 0.98021
 Zr484 Zr 0.02083 0.53501 1.00689
 O485 O -0.07910 0.49560 0.96244
 O486 O 0.06035 0.54163 1.02625
 O487 O 0.00149 0.51457 0.97404
 O488 O 0.03480 0.49428 1.00417
 O489 O 0.00488 0.44999 1.00798
 O490 O -0.03016 0.47154 0.97678
 C491 C -0.00130 0.57055 1.05468
 C492 C -0.08398 0.54053 1.01929
 C493 C 0.00584 0.49512 1.09544
 O494 O 0.06355 0.48830 1.05386
 O495 O 0.05708 0.44882 1.02404
 O496 O 0.04932 0.44775 0.97859
 C497 C 0.06364 0.44156 0.99992
 O498 O -0.07183 0.44633 1.04063
 Zr499 Zr -0.03864 0.45058 1.01255
 O500 O 0.00227 0.43315 0.95763
 O501 O 0.02275 0.43383 1.05918
 O502 O -0.03063 0.41517 1.03657
 O503 O -0.07690 0.44175 0.99163
 O504 O -0.03136 0.41700 0.98638
 C505 C -0.01509 0.41428 0.96608
 O506 O 0.04719 0.48388 0.94724
 O507 O -0.04376 0.55308 0.96310
 O508 O 0.00055 0.48164 0.93273
 O509 O -0.03512 0.51177 0.93879
 O510 O 0.01261 0.57211 0.98550
 O511 O 0.05091 0.54116 0.97602
 C512 C -0.01804 0.49858 0.92391
 H513 H -0.02952 0.55453 1.01168
 H514 H 0.05532 0.49491 1.00124
 H515 H -0.03984 0.46252 0.96117
 H516 H -0.02423 0.46166 1.06210
 H517 H 0.06521 0.56175 1.02504
 H518 H 0.07108 0.47411 1.06626
 H519 H 0.04046 0.43257 1.06971
 H520 H -0.04362 0.39996 1.03044
 H521 H 0.02607 0.58667 0.99219
 H522 H -0.06137 0.55375 0.95233
 H523 H -0.08653 0.50987 0.95009
 H524 H -0.08110 0.42155 0.99345
 H525 H 0.06192 0.55854 0.97962
 H526 H 0.04935 0.46844 0.93414
 H527 H -0.06586 0.51587 1.08639
 H528 H -0.08036 0.42738 1.03922
 Zr529 Zr -0.02596 0.48729 0.46410
 O530 O -0.05257 0.50482 0.43463
 O531 O -0.02306 0.44634 0.45048
 O532 O -0.00641 0.48747 0.42576
 O533 O -0.07774 0.47427 0.51140
 O534 O 0.03700 0.50650 0.43486
 O535 O -0.06751 0.47013 0.46682
 O536 O 0.00734 0.42709 0.48060
 O537 O 0.01628 0.47888 0.47206
 O538 O -0.02449 0.46528 0.50038
 O539 O -0.00500 0.52636 0.46584
 O540 O -0.04476 0.51321 0.49283
 Zr541 Zr 0.02167 0.52160 0.54104
 Zr542 Zr 0.03667 0.51768 0.47573
 Zr543 Zr -0.04111 0.49135 0.52917
 Zr544 Zr 0.01754 0.45835 0.50893
 O545 O -0.07635 0.51433 0.54081
 O546 O 0.05581 0.44466 0.49268
 O547 O 0.00052 0.48251 0.53971
 O548 O 0.04014 0.49606 0.51212
 O549 O 0.02057 0.54419 0.50498
 O550 O -0.02055 0.52979 0.53280
 C551 C -0.00884 0.42604 0.45968
 C552 C -0.08409 0.46683 0.48716
 C553 C 0.01869 0.49511 0.41880
 O554 O 0.07419 0.49670 0.46749
 O555 O 0.07093 0.53972 0.49281
 O556 O 0.06210 0.54144 0.53785
 C557 C 0.07754 0.54689 0.51708
 O558 O -0.04982 0.56108 0.46470
 Zr559 Zr -0.02160 0.55101 0.49646
 O560 O 0.01824 0.56192 0.55535
 O561 O 0.04426 0.55392 0.45255
 O562 O -0.00227 0.58388 0.47449
 O563 O -0.05943 0.56649 0.51210
 O564 O -0.01069 0.58258 0.52489
 C565 C 0.00438 0.58263 0.54665
 O566 O 0.05018 0.50481 0.56925
 O567 O -0.05096 0.45321 0.54855
 O568 O 0.00318 0.51799 0.57984
 O569 O -0.03906 0.49639 0.57094
 O570 O 0.00034 0.42391 0.53029
 O571 O 0.04373 0.44851 0.54233
 C572 C -0.02083 0.50747 0.58719
 H573 H -0.03527 0.44741 0.49985
 H574 H 0.05998 0.49259 0.51687
 H575 H -0.02966 0.54076 0.54701
 H576 H -0.00632 0.53602 0.44830
 H577 H 0.05595 0.42413 0.49449
 H578 H 0.08527 0.50868 0.45511
 H579 H 0.06286 0.55188 0.44411
 H580 H -0.01153 0.60130 0.47968
 H581 H 0.01110 0.40733 0.52525
 H582 H -0.06935 0.45539 0.55737
 H583 H -0.08764 0.50223 0.55292
 H584 H -0.05874 0.58701 0.51008
 H585 H 0.05159 0.42984 0.53962
 H586 H 0.05496 0.51983 0.58240
 H587 H -0.05794 0.48966 0.42182
 H588 H -0.05261 0.58143 0.46459
 Zr589 Zr 0.47251 -0.01216 -0.03761
 O590 O 0.44743 0.00361 -0.06926
 O591 O 0.47342 -0.05453 -0.04723
 O592 O 0.49258 -0.01588 -0.07548
 O593 O 0.41852 -0.01721 0.00877
 O594 O 0.53701 0.00079 -0.06689
 O595 O 0.43018 -0.02679 -0.03468
 O596 O 0.50126 -0.07256 -0.01427
 O597 O 0.51378 -0.02262 -0.02756
 O598 O 0.47136 -0.03024 0.00066
 O599 O 0.49603 0.02548 -0.03879
 O600 O 0.45454 0.01785 -0.01225
 Zr601 Zr 0.51972 0.02686 0.03715
 Zr602 Zr 0.53670 0.01499 -0.02683
 Zr603 Zr 0.45552 -0.00021 0.02617
 Zr604 Zr 0.51245 -0.03909 0.01125
 O605 O 0.42198 0.02653 0.03415
 O606 O 0.55026 -0.05686 -0.00185
 O607 O 0.49608 -0.01073 0.03880
 O608 O 0.53748 -0.00276 0.01165
 O609 O 0.52129 0.04529 -0.00097
 O610 O 0.47855 0.03721 0.02699
 C611 C 0.48601 -0.07472 -0.03574
 C612 C 0.41279 -0.02714 -0.01482
 C613 C 0.51808 -0.01011 -0.08261
 O614 O 0.57231 -0.00983 -0.03209
 O615 O 0.57224 0.03575 -0.01036
 O616 O 0.56049 0.04523 0.03315
 C617 C 0.57741 0.04658 0.01296
 O618 O 0.45190 0.06169 -0.04394
 Zr619 Zr 0.48011 0.05430 -0.01142
 O620 O 0.51938 0.06882 0.04683
 O621 O 0.54796 0.04859 -0.05231
 O622 O 0.50035 0.08293 -0.03769
 O623 O 0.44443 0.07489 0.00314
 O624 O 0.49536 0.08848 0.01209
 C625 C 0.51006 0.08987 0.03406
 O626 O 0.54686 0.01154 0.06738
 O627 O 0.44193 -0.03530 0.04868
 O628 O 0.50058 0.02751 0.07576
 O629 O 0.45716 0.00817 0.06754
 O630 O 0.49228 -0.07008 0.03502
 O631 O 0.53655 -0.04685 0.04661
 C632 C 0.47606 0.01869 0.08345
 H633 H 0.45956 -0.04745 0.00143
 H634 H 0.55685 -0.00691 0.01752
 H635 H 0.47037 0.05040 0.03992
 H636 H 0.49578 0.03346 -0.05716
 H637 H 0.54894 -0.07707 0.00199
 H638 H 0.58470 0.00007 -0.04502
 H639 H 0.56648 0.04433 -0.06000
 H640 H 0.49182 0.10130 -0.03489
 H641 H 0.50217 -0.08773 0.03213
 H642 H 0.42359 -0.03077 0.05663
 H643 H 0.40951 0.01662 0.04699
 H644 H 0.44687 0.09489 -0.00130
 H645 H 0.54333 -0.06615 0.04609
 H646 H 0.55234 0.02758 0.07910
 H647 H 0.44154 -0.01246 -0.08077
 H648 H 0.44931 0.08197 -0.04584
 Zr649 Zr 0.52485 0.51242 -0.03085
 O650 O 0.54997 0.50004 -0.06352
 O651 O 0.52106 0.55528 -0.03853
 O652 O 0.50348 0.51476 -0.06852
 O653 O 0.58020 0.51935 0.01519
 O654 O 0.46226 0.49073 -0.06180
 O655 O 0.56650 0.52879 -0.02792
 O656 O 0.49282 0.56982 -0.00473
 O657 O 0.48304 0.51938 -0.02058
 O658 O 0.52584 0.52943 0.00798
 O659 O 0.50454 0.47302 -0.03283
 O660 O 0.54570 0.48320 -0.00643
 Zr661 Zr 0.48256 0.46822 0.04310
 Zr662 Zr 0.46333 0.47994 -0.02080
 Zr663 Zr 0.54457 0.50010 0.03252
 Zr664 Zr 0.48433 0.53480 0.01888
 O665 O 0.57999 0.47545 0.03994
 O666 O 0.44515 0.55032 0.00602
 O667 O 0.50355 0.50728 0.04554
 O668 O 0.46219 0.49687 0.01817
 O669 O 0.48144 0.45047 0.00444
 O670 O 0.52425 0.46114 0.03261
 C671 C 0.50781 0.57416 -0.02569
 C672 C 0.58469 0.52950 -0.00838
 C673 C 0.47972 0.50417 -0.07681
 O674 O 0.42710 0.50361 -0.02757
 O675 O 0.42873 0.45862 -0.00416
 O676 O 0.44182 0.44926 0.03920
 C677 C 0.42413 0.44810 0.01922
 O678 O 0.55164 0.44047 -0.03857
 Zr679 Zr 0.52310 0.44498 -0.00631
 O680 O 0.48566 0.42591 0.05095
 O681 O 0.45307 0.44455 -0.04478
 O682 O 0.50510 0.41568 -0.03395
 O683 O 0.56034 0.42673 0.00832
 O684 O 0.51016 0.40927 0.01542
 C685 C 0.49593 0.40603 0.03717
 O686 O 0.45575 0.48054 0.07449
 O687 O 0.55652 0.53568 0.05562
 O688 O 0.50288 0.46879 0.08171
 O689 O 0.54461 0.49127 0.07368
 O690 O 0.50263 0.56616 0.04413
 O691 O 0.46016 0.53959 0.05429
 C692 C 0.52691 0.47940 0.08952
 H693 H 0.53661 0.54726 0.00931
 H694 H 0.44271 0.49987 0.02407
 H695 H 0.53358 0.44830 0.04523
 H696 H 0.50526 0.46514 -0.05126
 H697 H 0.44499 0.57036 0.01078
 H698 H 0.41481 0.49264 -0.04011
 H699 H 0.43421 0.44751 -0.05274
 H700 H 0.51510 0.39799 -0.03165
 H701 H 0.49117 0.58299 0.04229
 H702 H 0.57544 0.53231 0.06327
 H703 H 0.59217 0.48597 0.05292
 H704 H 0.55924 0.40671 0.00348
 H705 H 0.45178 0.55824 0.05436
 H706 H 0.45186 0.46383 0.08566
 H707 H 0.55417 0.51692 -0.07438
 H708 H 0.55613 0.42058 -0.04074
 Zr709 Zr 0.03184 1.00540 0.45325
 O710 O 0.05837 0.98566 0.42556
 O711 O 0.02847 1.04488 0.43607
 O712 O 0.01171 1.00037 0.41466
 O713 O 0.08517 1.01979 0.50026
 O714 O -0.03136 0.98159 0.42488
 O715 O 0.07366 1.02263 0.45559
 O716 O 0.00085 1.06736 0.46612
 O717 O -0.00989 1.01588 0.46074
 O718 O 0.03224 1.02959 0.48852
 O719 O 0.00950 0.96732 0.45757
 O720 O 0.05054 0.98084 0.48358
 Zr721 Zr -0.01454 0.97802 0.53228
 Zr722 Zr -0.03163 0.97816 0.46693
 Zr723 Zr 0.04872 1.00481 0.51898
 Zr724 Zr -0.00910 1.03879 0.49660
 O725 O 0.08340 0.98106 0.53120
 O726 O -0.04755 1.05298 0.48048
 O727 O 0.00785 1.01616 0.52882
 O728 O -0.03297 1.00232 0.50206
 O729 O -0.01538 0.95335 0.49739
 O730 O 0.02690 0.96726 0.52470
 C731 C 0.01532 1.06614 0.44447
 C732 C 0.09086 1.02647 0.47584
 C733 C -0.01284 0.99011 0.40797
 O734 O -0.06671 1.00150 0.45509
 O735 O -0.06739 0.96137 0.48606
 O736 O -0.05560 0.96019 0.53076
 C737 C -0.07273 0.95555 0.51082
 O738 O 0.05575 0.93298 0.45957
 Zr739 Zr 0.02619 0.94425 0.48921
 O740 O -0.01474 0.93765 0.54722
 O741 O -0.04278 0.93934 0.44904
 O742 O 0.00823 0.91085 0.46628
 O743 O 0.06166 0.92701 0.50850
 O744 O 0.01011 0.91402 0.51595
 C745 C -0.00520 0.91523 0.53714
 O746 O -0.04085 0.99828 0.55986
 O747 O 0.06046 1.04363 0.53658
 O748 O 0.00511 0.98256 0.57078
 O749 O 0.04796 1.00202 0.56127
 O750 O 0.01034 1.07413 0.51535
 O751 O -0.03337 1.05207 0.52973
 C752 C 0.02956 0.99253 0.57791
 H753 H 0.04335 1.04717 0.48687
 H754 H -0.05241 1.00714 0.50671
 H755 H 0.03527 0.95631 0.53947
 H756 H 0.01027 0.95597 0.44093
 H757 H -0.04671 1.07360 0.48096
 H758 H -0.07926 0.98878 0.44447
 H759 H -0.06131 0.94152 0.44013
 H760 H 0.01742 0.89357 0.47214
 H761 H 0.00015 1.09074 0.50924
 H762 H 0.07896 1.04125 0.54548
 H763 H 0.09554 0.99334 0.54271
 H764 H 0.05947 0.90650 0.50713
 H765 H -0.04024 1.07101 0.52623
 H766 H -0.04626 0.98439 0.57372
 H767 H 0.06346 0.99975 0.41176
 H768 H 0.05957 0.91288 0.46105
 Zr769 Zr 0.72762 0.27770 0.21163
 O770 O 0.74045 0.30521 0.18062
 O771 O 0.68458 0.27391 0.20420
 O772 O 0.72307 0.25927 0.17287
 O773 O 0.72369 0.32859 0.26096
 O774 O 0.74271 0.21672 0.17811
 O775 O 0.71191 0.31833 0.21733
 O776 O 0.66891 0.24298 0.23570
 O777 O 0.71993 0.23527 0.21921
 O778 O 0.71120 0.27504 0.25048
 O779 O 0.76650 0.25844 0.20751
 O780 O 0.75772 0.29745 0.23714
 Zr781 Zr 0.77361 0.23163 0.28153
 Zr782 Zr 0.75915 0.21651 0.21744
 Zr783 Zr 0.74170 0.29230 0.27611
 Zr784 Zr 0.70499 0.23292 0.25844
 O785 O 0.76748 0.32699 0.28738
 O786 O 0.68839 0.19501 0.24226
 O787 O 0.73430 0.25038 0.28595
 O788 O 0.74316 0.21226 0.25629
 O789 O 0.79025 0.23401 0.24276
 O790 O 0.78067 0.27396 0.27379
 C791 C 0.66505 0.25969 0.21583
 C792 C 0.71269 0.33481 0.23802
 C793 C 0.73003 0.23511 0.16407
 O794 O 0.73614 0.17883 0.21081
 O795 O 0.78273 0.18257 0.23119
 O796 O 0.79273 0.19312 0.27510
 C797 C 0.79414 0.17722 0.25422
 O798 O 0.79933 0.30570 0.20276
 Zr799 Zr 0.79563 0.27635 0.23456
 O800 O 0.81687 0.23636 0.28929
 O801 O 0.79223 0.21034 0.19012
 O802 O 0.82487 0.26032 0.20696
 O803 O 0.81397 0.31408 0.24948
 O804 O 0.83177 0.26643 0.25660
 C805 C 0.83586 0.25103 0.27729
 O806 O 0.76139 0.20197 0.31091
 O807 O 0.70620 0.30189 0.29941
 O808 O 0.77533 0.24809 0.32109
 O809 O 0.74992 0.28758 0.31744
 O810 O 0.67500 0.24814 0.28574
 O811 O 0.69962 0.20529 0.29145
 C812 C 0.76335 0.26945 0.33113
 H813 H 0.69357 0.28521 0.25268
 H814 H 0.74028 0.19242 0.26111
 H815 H 0.79389 0.28294 0.28687
 H816 H 0.77361 0.26041 0.18892
 H817 H 0.66814 0.19400 0.24657
 H818 H 0.74606 0.16848 0.19663
 H819 H 0.78866 0.19192 0.18155
 H820 H 0.84272 0.27110 0.20939
 H821 H 0.65718 0.23749 0.28256
 H822 H 0.71046 0.31984 0.30865
 H823 H 0.75709 0.33736 0.30120
 H824 H 0.83382 0.31486 0.24369
 H825 H 0.68037 0.19704 0.29085
 H826 H 0.77837 0.19762 0.32170
 H827 H 0.72337 0.30999 0.17017
 H828 H 0.81941 0.31039 0.19980
 Zr829 Zr 0.75964 0.71859 0.70526
 O830 O 0.74533 0.68724 0.67800
 O831 O 0.79988 0.72753 0.69078
 O832 O 0.75596 0.73477 0.66572
 O833 O 0.77925 0.67413 0.75647
 O834 O 0.72716 0.77172 0.67046
 O835 O 0.78160 0.68078 0.71110
 O836 O 0.81448 0.76469 0.71642
 O837 O 0.76160 0.76209 0.70901
 O838 O 0.78231 0.72759 0.74066
 O839 O 0.71774 0.73159 0.70615
 O840 O 0.73762 0.69794 0.73630
 Zr841 Zr 0.71999 0.76529 0.77851
 Zr842 Zr 0.72003 0.77483 0.71204
 Zr843 Zr 0.75955 0.70930 0.77166
 Zr844 Zr 0.78298 0.77065 0.74501
 O845 O 0.74173 0.67297 0.78921
 O846 O 0.79037 0.80925 0.72541
 O847 O 0.76209 0.75251 0.77775
 O848 O 0.74219 0.78541 0.74742
 O849 O 0.69690 0.75643 0.74317
 O850 O 0.71820 0.72189 0.77458
 C851 C 0.81788 0.74673 0.69753
 C852 C 0.78650 0.66654 0.73272
 C853 C 0.74228 0.75553 0.65627
 O854 O 0.73641 0.81327 0.69768
 O855 O 0.69674 0.80821 0.72698
 O856 O 0.69589 0.80151 0.77246
 C857 C 0.68977 0.81543 0.75099
 O858 O 0.69144 0.68042 0.70994
 Zr859 Zr 0.69680 0.71314 0.73861
 O860 O 0.67954 0.75577 0.79245
 O861 O 0.68066 0.77378 0.69191
 O862 O 0.66067 0.72194 0.71511
 O863 O 0.68799 0.67509 0.75872
 O864 O 0.66390 0.71996 0.76539
 C865 C 0.66103 0.73744 0.78471
 O866 O 0.73229 0.79858 0.80447
 O867 O 0.80016 0.70738 0.78926
 O868 O 0.72845 0.75237 0.81880
 O869 O 0.75846 0.71657 0.81313
 O870 O 0.82025 0.76213 0.76688
 O871 O 0.79017 0.80109 0.77566
 C872 C 0.74519 0.73372 0.82787
 H873 H 0.80154 0.72026 0.74049
 H874 H 0.74330 0.80579 0.75031
 H875 H 0.70902 0.71264 0.79008
 H876 H 0.70774 0.72666 0.68914
 H877 H 0.81079 0.81356 0.72659
 H878 H 0.72225 0.82080 0.68507
 H879 H 0.67975 0.79112 0.68122
 H880 H 0.64525 0.70927 0.72110
 H881 H 0.83526 0.77484 0.76011
 H882 H 0.80067 0.69001 0.79996
 H883 H 0.75611 0.66551 0.80162
 H884 H 0.66761 0.67089 0.75667
 H885 H 0.80791 0.81152 0.77206
 H886 H 0.71676 0.80130 0.81731
 H887 H 0.76096 0.68385 0.66545
 H888 H 0.67207 0.67257 0.71097
 Zr889 Zr 0.24603 0.22314 0.78519
 O890 O 0.26339 0.19846 0.81610
 O891 O 0.20397 0.22436 0.79618
 O892 O 0.24312 0.24336 0.82317
 O893 O 0.23833 0.16978 0.73827
 O894 O 0.26037 0.28711 0.81477
 O895 O 0.23077 0.18135 0.78215
 O896 O 0.18459 0.25293 0.76485
 O897 O 0.23559 0.26415 0.77599
 O898 O 0.22591 0.22222 0.74750
 O899 O 0.28424 0.24600 0.78580
 O900 O 0.27476 0.20494 0.75871
 Zr901 Zr 0.28273 0.26962 0.70998
 Zr902 Zr 0.27370 0.28639 0.77457
 Zr903 Zr 0.25483 0.20629 0.72085
 Zr904 Zr 0.21705 0.26307 0.73779
 O905 O 0.28085 0.17265 0.71139
 O906 O 0.20040 0.30102 0.75155
 O907 O 0.24433 0.24671 0.70917
 O908 O 0.25408 0.28734 0.73662
 O909 O 0.30300 0.27086 0.74766
 O910 O 0.29282 0.22860 0.71937
 C911 C 0.18334 0.23767 0.78611
 C912 C 0.22939 0.16415 0.76204
 C913 C 0.24911 0.26871 0.83033
 O914 O 0.24962 0.32221 0.78094
 O915 O 0.29405 0.32144 0.75819
 O916 O 0.30090 0.31051 0.71400
 C917 C 0.30317 0.32719 0.73453
 O918 O 0.32037 0.20225 0.78965
 Zr919 Zr 0.31173 0.22979 0.75735
 O920 O 0.32484 0.26848 0.69937
 O921 O 0.30874 0.29691 0.79946
 O922 O 0.34220 0.25003 0.78253
 O923 O 0.33084 0.19357 0.74234
 O924 O 0.34528 0.24310 0.73266
 C925 C 0.34619 0.25778 0.71100
 O926 O 0.26672 0.29652 0.68017
 O927 O 0.21813 0.19351 0.69926
 O928 O 0.28105 0.25031 0.67110
 O929 O 0.26137 0.20751 0.67930
 O930 O 0.18437 0.24313 0.71504
 O931 O 0.20763 0.28681 0.70293
 C932 C 0.27151 0.22604 0.66332
 H933 H 0.20838 0.21073 0.74717
 H934 H 0.24978 0.30659 0.73118
 H935 H 0.30534 0.22017 0.70598
 H936 H 0.29299 0.24572 0.80399
 H937 H 0.17982 0.29994 0.74846
 H938 H 0.26023 0.33424 0.79397
 H939 H 0.30501 0.31528 0.80761
 H940 H 0.36044 0.24124 0.77921
 H941 H 0.16679 0.25289 0.71896
 H942 H 0.22187 0.17514 0.69108
 H943 H 0.26996 0.16033 0.69885
 H944 H 0.35123 0.19539 0.74635
 H945 H 0.18812 0.29332 0.70397
 H946 H 0.28254 0.30148 0.66813
 H947 H 0.24772 0.19273 0.82803
 H948 H 0.34089 0.19970 0.79114
 Zr949 Zr 0.26803 0.78045 0.28861
 O950 O 0.25301 0.80716 0.31894
 O951 O 0.30980 0.77594 0.30086
 O952 O 0.26840 0.76083 0.32693
 O953 O 0.27856 0.83262 0.24130
 O954 O 0.24499 0.71942 0.31952
 O955 O 0.28567 0.82137 0.28542
 O956 O 0.32627 0.74505 0.27027
 O957 O 0.27543 0.73854 0.28003
 O958 O 0.28794 0.77948 0.25126
 O959 O 0.22835 0.76020 0.28856
 O960 O 0.24051 0.79999 0.26134
 Zr961 Zr 0.22819 0.73497 0.21308
 Zr962 Zr 0.23591 0.71882 0.27805
 Zr963 Zr 0.25999 0.79673 0.22379
 Zr964 Zr 0.29383 0.73788 0.24206
 O965 O 0.23632 0.83195 0.21363
 O966 O 0.30814 0.69872 0.25528
 O967 O 0.26784 0.75550 0.21264
 O968 O 0.25551 0.71596 0.24057
 O969 O 0.20795 0.73578 0.25036
 O970 O 0.22064 0.77675 0.22190
 C971 C 0.32887 0.76022 0.29157
 C972 C 0.28759 0.83832 0.26526
 C973 C 0.25779 0.73729 0.33490
 O974 O 0.25912 0.68309 0.28738
 O975 O 0.21522 0.68384 0.26098
 O976 O 0.20944 0.69450 0.21652
 C977 C 0.20658 0.67799 0.23692
 O978 O 0.19611 0.80749 0.29051
 Zr979 Zr 0.20207 0.77759 0.25956
 O980 O 0.18575 0.73656 0.20303
 O981 O 0.19887 0.70994 0.29989
 O982 O 0.17073 0.76130 0.28557
 O983 O 0.18455 0.81378 0.24258
 O984 O 0.16755 0.76393 0.23586
 C985 C 0.16528 0.74808 0.21497
 O986 O 0.24301 0.70776 0.18308
 O987 O 0.29730 0.80655 0.20270
 O988 O 0.22926 0.75405 0.17428
 O989 O 0.25236 0.79545 0.18216
 O990 O 0.32812 0.75567 0.22070
 O991 O 0.30135 0.71370 0.20704
 C992 C 0.23996 0.77767 0.16639
 H993 H 0.30618 0.78979 0.25134
 H994 H 0.25887 0.69642 0.23542
 H995 H 0.20830 0.78547 0.20834
 H996 H 0.21936 0.76169 0.30638
 H997 H 0.32865 0.69841 0.25221
 H998 H 0.24728 0.67146 0.29943
 H999 H 0.20137 0.69167 0.30871
 H1000 H 0.15320 0.77132 0.28178
 H1001 H 0.34483 0.74456 0.22498
 H1002 H 0.29472 0.82498 0.19425
 H1003 H 0.24796 0.84340 0.20126
 H1004 H 0.16416 0.81306 0.24636
 H1005 H 0.32059 0.70641 0.20791
 H1006 H 0.22688 0.70311 0.17093
 H1007 H 0.26910 0.81173 0.33116
 H1008 H 0.17600 0.81208 0.29136
 Zr1009 Zr 0.24664 0.78662 0.70780
 O1010 O 0.26227 0.81602 0.67968
 O1011 O 0.20503 0.78098 0.69500
 O1012 O 0.24671 0.76993 0.66824
 O1013 O 0.23566 0.83550 0.75778
 O1014 O 0.26818 0.72824 0.67340
 O1015 O 0.22837 0.82605 0.71313
 O1016 O 0.18717 0.74902 0.72456
 O1017 O 0.23905 0.74386 0.71340
 O1018 O 0.22633 0.78231 0.74477
 O1019 O 0.28625 0.76832 0.70685
 O1020 O 0.27369 0.80602 0.73656
 Zr1021 Zr 0.28591 0.73890 0.78017
 Zr1022 Zr 0.27861 0.72593 0.71453
 Zr1023 Zr 0.25377 0.79938 0.77360
 Zr1024 Zr 0.22030 0.73990 0.75103
 O1025 O 0.27771 0.83428 0.78754
 O1026 O 0.20605 0.70171 0.73354
 O1027 O 0.24611 0.75704 0.78161
 O1028 O 0.25875 0.71995 0.75155
 O1029 O 0.30648 0.74288 0.74332
 O1030 O 0.29324 0.78155 0.77453
 C1031 C 0.18513 0.76539 0.70424
 C1032 C 0.22635 0.84183 0.73414
 C1033 C 0.25625 0.74691 0.65911
 O1034 O 0.25615 0.68908 0.70333
 O1035 O 0.29964 0.69109 0.72967
 O1036 O 0.30546 0.70042 0.77451
 C1037 C 0.30846 0.68496 0.75350
 O1038 O 0.31806 0.81733 0.70787
 Zr1039 Zr 0.31219 0.78556 0.73712
 O1040 O 0.32818 0.74291 0.79141
 O1041 O 0.31540 0.72073 0.69176
 O1042 O 0.34399 0.77266 0.71057
 O1043 O 0.32927 0.82170 0.75642
 O1044 O 0.34668 0.77274 0.76036
 C1045 C 0.34884 0.75623 0.78057
 O1046 O 0.27097 0.70862 0.80779
 O1047 O 0.21604 0.80740 0.79409
 O1048 O 0.28410 0.75440 0.82004
 O1049 O 0.25844 0.79364 0.81537
 O1050 O 0.18663 0.75395 0.77469
 O1051 O 0.21252 0.71208 0.78346
 C1052 C 0.27109 0.77538 0.82963
 H1053 H 0.20814 0.79176 0.74536
 H1054 H 0.25552 0.69996 0.75549
 H1055 H 0.30523 0.78997 0.78896
 H1056 H 0.29532 0.77127 0.68920
 H1057 H 0.18548 0.70021 0.73619
 H1058 H 0.26797 0.67911 0.69033
 H1059 H 0.31299 0.70281 0.68196
 H1060 H 0.36133 0.78358 0.71510
 H1061 H 0.16974 0.74253 0.76974
 H1062 H 0.21904 0.82511 0.80414
 H1063 H 0.26581 0.84414 0.80054
 H1064 H 0.34965 0.82249 0.75263
 H1065 H 0.19359 0.70334 0.78123
 H1066 H 0.28693 0.70389 0.81981
 H1067 H 0.24643 0.82077 0.66754
 H1068 H 0.33806 0.82340 0.70768
 Zr1069 Zr 0.24875 0.21854 0.20199
 O1070 O 0.22791 0.18784 0.17794
 O1071 O 0.28761 0.22230 0.18317
 O1072 O 0.24285 0.23394 0.16255
 O1073 O 0.27062 0.17391 0.25191
 O1074 O 0.21897 0.27407 0.16860
 O1075 O 0.26854 0.17961 0.20634
 O1076 O 0.30826 0.25956 0.20503
 O1077 O 0.25536 0.26181 0.20389
 O1078 O 0.27615 0.22638 0.23445
 O1079 O 0.20881 0.23563 0.20663
 O1080 O 0.22870 0.20089 0.23578
 Zr1081 Zr 0.22307 0.27086 0.27725
 Zr1082 Zr 0.21597 0.27866 0.21071
 Zr1083 Zr 0.25570 0.21101 0.26819
 Zr1084 Zr 0.28151 0.26935 0.23706
 O1085 O 0.23671 0.17667 0.28817
 O1086 O 0.28991 0.30671 0.21569
 O1087 O 0.26324 0.25401 0.27254
 O1088 O 0.24296 0.28808 0.24327
 O1089 O 0.19525 0.26348 0.24483
 O1090 O 0.21651 0.22771 0.27493
 C1091 C 0.30762 0.24024 0.18699
 C1092 C 0.27490 0.16560 0.22766
 C1093 C 0.23095 0.25598 0.15367
 O1094 O 0.23371 0.31556 0.19421
 O1095 O 0.19686 0.31388 0.22722
 O1096 O 0.20075 0.30831 0.27276
 C1097 C 0.19293 0.32195 0.25166
 O1098 O 0.17848 0.18703 0.21538
 Zr1099 Zr 0.19019 0.22033 0.24181
 O1100 O 0.18479 0.26532 0.29684
 O1101 O 0.17506 0.28046 0.19395
 O1102 O 0.15288 0.23178 0.22145
 O1103 O 0.17935 0.18440 0.26451
 O1104 O 0.16145 0.23252 0.27128
 C1105 C 0.16319 0.24979 0.29114
 O1106 O 0.24203 0.30382 0.29989
 O1107 O 0.29749 0.20588 0.28191
 O1108 O 0.23443 0.25820 0.31690
 O1109 O 0.25946 0.21906 0.30950
 O1110 O 0.32037 0.25803 0.25457
 O1111 O 0.29513 0.29965 0.26597
 C1112 C 0.24960 0.23784 0.32495
 H1113 H 0.29446 0.21734 0.23256
 H1114 H 0.24608 0.30841 0.24543
 H1115 H 0.20833 0.21976 0.29155
 H1116 H 0.19661 0.23121 0.19083
 H1117 H 0.31058 0.30899 0.21433
 H1118 H 0.21901 0.32392 0.18275
 H1119 H 0.17456 0.29769 0.18306
 H1120 H 0.13707 0.22116 0.22963
 H1121 H 0.33532 0.26929 0.24572
 H1122 H 0.29761 0.18873 0.29295
 H1123 H 0.25160 0.16805 0.29919
 H1124 H 0.15859 0.18271 0.26473
 H1125 H 0.31299 0.30851 0.26004
 H1126 H 0.22876 0.30863 0.31436
 H1127 H 0.24123 0.18246 0.16373
 H1128 H 0.15870 0.18128 0.21861
 Zr1129 Zr 0.74696 0.72562 0.28954
 O1130 O 0.76637 0.69957 0.31815
 O1131 O 0.70619 0.72778 0.30413
 O1132 O 0.74767 0.74475 0.32807
 O1133 O 0.73229 0.67407 0.24194
 O1134 O 0.76569 0.78822 0.31958
 O1135 O 0.73005 0.68437 0.28671
 O1136 O 0.68552 0.75833 0.27543
 O1137 O 0.73766 0.76738 0.28251
 O1138 O 0.72328 0.72686 0.25384
 O1139 O 0.78600 0.74695 0.28754
 O1140 O 0.77220 0.70724 0.26007
 Zr1141 Zr 0.77830 0.77327 0.21302
 Zr1142 Zr 0.77634 0.78818 0.27858
 Zr1143 Zr 0.74865 0.71063 0.22430
 Zr1144 Zr 0.71559 0.76848 0.24616
 O1145 O 0.77167 0.67595 0.21154
 O1146 O 0.70202 0.80642 0.26293
 O1147 O 0.73910 0.75191 0.21470
 O1148 O 0.75329 0.79132 0.24260
 O1149 O 0.80231 0.77247 0.24862
 O1150 O 0.78708 0.73144 0.22034
 C1151 C 0.68534 0.74205 0.29598
 C1152 C 0.72594 0.66782 0.26635
 C1153 C 0.75472 0.76979 0.33531
 O1154 O 0.75503 0.82507 0.28794
 O1155 O 0.79674 0.82297 0.26162
 O1156 O 0.79958 0.81280 0.21676
 C1157 C 0.80429 0.82884 0.23746
 O1158 O 0.82157 0.70319 0.28760
 Zr1159 Zr 0.80993 0.73070 0.25618
 O1160 O 0.81808 0.76961 0.19719
 O1161 O 0.81364 0.79607 0.30115
 O1162 O 0.84381 0.75052 0.27730
 O1163 O 0.82539 0.69318 0.24013
 O1164 O 0.84040 0.74124 0.22683
 C1165 C 0.83926 0.75576 0.20503
 O1166 O 0.76027 0.80207 0.18617
 O1167 O 0.70959 0.70053 0.20553
 O1168 O 0.77298 0.75537 0.17391
 O1169 O 0.75215 0.71312 0.18243
 O1170 O 0.68009 0.75098 0.22557
 O1171 O 0.70408 0.79406 0.21318
 C1172 C 0.76231 0.73153 0.16629
 H1173 H 0.70538 0.71602 0.25465
 H1174 H 0.74946 0.81094 0.23815
 H1175 H 0.79756 0.72242 0.20573
 H1176 H 0.79632 0.74574 0.30491
 H1177 H 0.68125 0.80628 0.26165
 H1178 H 0.76724 0.83602 0.30057
 H1179 H 0.81149 0.81433 0.31012
 H1180 H 0.86124 0.74146 0.27160
 H1181 H 0.66348 0.76140 0.23134
 H1182 H 0.71167 0.68237 0.19633
 H1183 H 0.75910 0.66476 0.19944
 H1184 H 0.84613 0.69405 0.24188
 H1185 H 0.68524 0.80159 0.21633
 H1186 H 0.77487 0.80694 0.17277
 H1187 H 0.75172 0.69389 0.33122
 H1188 H 0.84216 0.70089 0.28746
 Zr1189 Zr 0.76182 0.27685 0.78954
 O1190 O 0.74586 0.30379 0.81922
 O1191 O 0.80362 0.27343 0.80268
 O1192 O 0.76108 0.25830 0.82818
 O1193 O 0.77180 0.32868 0.74162
 O1194 O 0.73936 0.21599 0.82095
 O1195 O 0.77832 0.31822 0.78598
 O1196 O 0.82157 0.24288 0.77260
 O1197 O 0.77037 0.23496 0.78185
 O1198 O 0.78252 0.27578 0.75268
 O1199 O 0.72258 0.25563 0.78893
 O1200 O 0.73427 0.29531 0.76159
 Zr1201 Zr 0.72451 0.22954 0.71391
 Zr1202 Zr 0.73129 0.21425 0.77926
 Zr1203 Zr 0.75465 0.29199 0.72455
 Zr1204 Zr 0.78954 0.23418 0.74425
 O1205 O 0.73018 0.32632 0.71333
 O1206 O 0.80435 0.19568 0.75870
 O1207 O 0.76374 0.25085 0.71410
 O1208 O 0.75168 0.21141 0.74217
 O1209 O 0.70358 0.23027 0.75082
 O1210 O 0.71575 0.27117 0.72200
 C1211 C 0.82351 0.25846 0.79369
 C1212 C 0.78015 0.33496 0.76564
 C1213 C 0.75081 0.23474 0.83636
 O1214 O 0.75511 0.17919 0.78947
 O1215 O 0.71139 0.17861 0.76220
 O1216 O 0.70587 0.18909 0.71764
 C1217 C 0.70282 0.17270 0.73809
 O1218 O 0.68943 0.30266 0.78927
 Zr1219 Zr 0.69637 0.27196 0.75929
 O1220 O 0.68224 0.23034 0.70282
 O1221 O 0.69404 0.20478 0.80057
 O1222 O 0.66509 0.25612 0.78562
 O1223 O 0.67774 0.30677 0.74078
 O1224 O 0.66244 0.25575 0.73614
 C1225 C 0.66099 0.24015 0.71501
 O1226 O 0.74056 0.20205 0.68479
 O1227 O 0.79221 0.30264 0.70418
 O1228 O 0.72620 0.24804 0.67482
 O1229 O 0.74839 0.28981 0.68292
 O1230 O 0.82371 0.25226 0.72293
 O1231 O 0.79840 0.20944 0.70992
 C1232 C 0.73680 0.27173 0.66700
 H1233 H 0.80049 0.28656 0.75292
 H1234 H 0.75548 0.19187 0.73733
 H1235 H 0.70349 0.27934 0.70804
 H1236 H 0.71309 0.25723 0.80650
 H1237 H 0.82495 0.19576 0.75617
 H1238 H 0.74330 0.16756 0.80154
 H1239 H 0.69684 0.18673 0.80971
 H1240 H 0.64743 0.26575 0.78139
 H1241 H 0.84064 0.24165 0.72763
 H1242 H 0.78929 0.32079 0.69529
 H1243 H 0.74168 0.33782 0.70088
 H1244 H 0.65731 0.30532 0.74423
 H1245 H 0.81769 0.20237 0.71150
 H1246 H 0.72480 0.19692 0.67236
 H1247 H 0.76169 0.30900 0.83153
 H1248 H 0.66932 0.30736 0.78932
 C1249 C 0.43288 1.04323 0.31731
 C1250 C 0.42956 1.01811 0.30270
 C1251 C 0.44478 0.99490 0.31153
 C1252 C 0.45919 0.99552 0.33644
 C1253 C 0.45939 1.02004 0.35219
 C1254 C 0.44735 1.04408 0.34190
 C1255 C 0.47026 1.01973 0.37854
 C1256 C 0.48076 0.99515 0.38955
 C1257 C 0.48262 0.97145 0.37311
 C1258 C 0.47190 0.97163 0.34668
 H1259 H 0.44393 0.97580 0.29984
 H1260 H 0.44823 1.06334 0.35334
 H1261 H 0.46897 1.03817 0.39109
 H1262 H 0.47220 0.95268 0.33481
 H1263 H 0.42390 1.06232 0.31029
 H1264 H 0.49051 0.95226 0.38129
 C1265 C -0.05706 0.47102 0.80862
 C1266 C -0.06799 0.49752 0.80328
 C1267 C -0.05931 0.51987 0.81999
 C1268 C -0.04377 0.51511 0.84363
 C1269 C -0.03591 0.48778 0.85044
 C1270 C -0.04157 0.46610 0.83213
 C1271 C -0.02420 0.48243 0.87604
 C1272 C -0.02100 0.50415 0.89487
 C1273 C -0.02648 0.53156 0.88691
 C1274 C -0.03760 0.53704 0.86148
 H1275 H -0.06537 0.54087 0.81542
 H1276 H -0.03506 0.44513 0.83651
 H1277 H -0.02008 0.46125 0.88209
 H1278 H -0.04303 0.55818 0.85647
 H1279 H -0.06182 0.45365 0.79524
 H1280 H -0.02386 0.54862 0.90113
 C1281 C 0.06280 -0.02393 0.80837
 C1282 C 0.07224 0.00116 0.79653
 C1283 C 0.06296 0.02645 0.80768
 C1284 C 0.04887 0.02673 0.83246
 C1285 C 0.04274 0.00134 0.84558
 C1286 C 0.04853 -0.02385 0.83279
 C1287 C 0.03212 0.00153 0.87179
 C1288 C 0.02756 0.02677 0.88524
 C1289 C 0.03165 0.05194 0.87146
 C1290 C 0.04227 0.05193 0.84517
 H1291 H 0.06789 0.04604 0.79790
 H1292 H 0.04303 -0.04353 0.84218
 H1293 H 0.02868 -0.01799 0.88232
 H1294 H 0.04656 0.07163 0.83532
 H1295 H 0.06743 -0.04381 0.79940
 H1296 H 0.02824 0.07157 0.88155
 C1297 C 0.56453 0.47483 0.31987
 C1298 C 0.57401 0.50038 0.30900
 C1299 C 0.56484 0.52521 0.32114
 C1300 C 0.55048 0.52446 0.34578
 C1301 C 0.54419 0.49855 0.35787
 C1302 C 0.55016 0.47390 0.34421
 C1303 C 0.53314 0.49767 0.38390
 C1304 C 0.52823 0.52234 0.39816
 C1305 C 0.53251 0.54806 0.38538
 C1306 C 0.54360 0.54912 0.35931
 H1307 H 0.56967 0.54520 0.31212
 H1308 H 0.54458 0.45385 0.35281
 H1309 H 0.52960 0.47774 0.39367
 H1310 H 0.54800 0.56922 0.35025
 H1311 H 0.56916 0.45533 0.31011
 H1312 H 0.52889 0.56726 0.39614
 C1313 C 0.60454 0.50774 0.18708
 C1314 C 0.58796 0.49633 0.20771
 C1315 C 0.56216 0.48278 0.20059
 C1316 C 0.55321 0.48103 0.17339
 C1317 C 0.57033 0.49272 0.15319
 C1318 C 0.59591 0.50591 0.16020
 C1319 C 0.56163 0.49141 0.12618
 C1320 C 0.53567 0.47880 0.11851
 C1321 C 0.51872 0.46697 0.13870
 C1322 C 0.52746 0.46799 0.16590
 H1323 H 0.54918 0.47338 0.21602
 H1324 H 0.60920 0.51510 0.14486
 H1325 H 0.57521 0.50072 0.11113
 H1326 H 0.51397 0.45884 0.18109
 H1327 H 0.62409 0.51862 0.19156
 H1328 H 0.49867 0.45715 0.13354
 C1329 C 0.11059 1.00610 0.67633
 C1330 C 0.09158 0.99931 0.69712
 C1331 C 0.06347 0.99228 0.68935
 C1332 C 0.05483 0.99231 0.66206
 C1333 C 0.07429 0.99951 0.64194
 C1334 C 0.10205 1.00628 0.64929
 C1335 C 0.06578 0.99974 0.61473
 C1336 C 0.03791 0.99260 0.60702
 C1337 C 0.01869 0.98521 0.62726
 C1338 C 0.02704 0.98514 0.65448
 H1339 H 0.04818 0.98593 0.70418
 H1340 H 0.11728 1.01192 0.63406
 H1341 H 0.08108 1.00529 0.59954
 H1342 H 0.01174 0.97944 0.66962
 H1343 H 0.13209 1.01229 0.68042
 H1344 H -0.00283 0.97954 0.62207
 C1345 C -0.10191 0.49004 0.68259
 C1346 C -0.08479 0.50161 0.70312
 C1347 C -0.05803 0.51276 0.69635
 C1348 C -0.04835 0.51158 0.66970
 C1349 C -0.06571 0.49935 0.64954
 C1350 C -0.09248 0.48886 0.65610
 C1351 C -0.05617 0.49782 0.62304
 C1352 C -0.02941 0.50854 0.61592
 C1353 C -0.01225 0.52081 0.63611
 C1354 C -0.02162 0.52227 0.66280
 H1355 H -0.04473 0.52249 0.71170
 H1356 H -0.10607 0.47950 0.64075
 H1357 H -0.06995 0.48835 0.60790
 H1358 H -0.00801 0.53180 0.67803
 H1359 H -0.12240 0.48124 0.68697
 H1360 H 0.00830 0.52940 0.63126
 C1361 C 0.40062 -0.00440 0.18194
 C1362 C 0.41597 0.01106 0.20139
 C1363 C 0.44097 0.02516 0.19347
 C1364 C 0.45031 0.02363 0.16663
 C1365 C 0.43439 0.00802 0.14755
 C1366 C 0.40965 -0.00588 0.15537
 C1367 C 0.44330 0.00649 0.12082
 C1368 C 0.46808 0.02038 0.11237
 C1369 C 0.48406 0.03570 0.13152
 C1370 C 0.47521 0.03737 0.15842
 H1371 H 0.45300 0.03755 0.20798
 H1372 H 0.39729 -0.01806 0.14092
 H1373 H 0.43068 -0.00568 0.10655
 H1374 H 0.48779 0.04945 0.17276
 H1375 H 0.38177 -0.01589 0.18718
 H1376 H 0.50317 0.04662 0.12566
 C1377 C 0.30046 0.41839 -0.01040
 C1378 C 0.29685 0.39483 0.00613
 C1379 C 0.31927 0.38774 0.02363
 C1380 C 0.34460 0.40360 0.02417
 C1381 C 0.34783 0.42663 0.00684
 C1382 C 0.32554 0.43405 -0.01008
 C1383 C 0.37355 0.44149 0.00615
 C1384 C 0.39635 0.43384 0.02262
 C1385 C 0.39266 0.41156 0.04060
 C1386 C 0.36705 0.39648 0.04127
 H1387 H 0.31782 0.36963 0.03635
 H1388 H 0.32766 0.45172 -0.02347
 H1389 H 0.37595 0.45883 -0.00763
 H1390 H 0.36498 0.37895 0.05483
 H1391 H 0.28388 0.42433 -0.02417
 H1392 H 0.40986 0.40518 0.05342
 C1393 C -0.19649 0.92163 0.48680
 C1394 C -0.19927 0.90023 0.50600
 C1395 C -0.17676 0.89624 0.52431
 C1396 C -0.15178 0.91238 0.52254
 C1397 C -0.14903 0.93269 0.50219
 C1398 C -0.17169 0.93753 0.48480
 C1399 C -0.12343 0.94733 0.49909
 C1400 C -0.10045 0.94222 0.51626
 C1401 C -0.10374 0.92295 0.53727
 C1402 C -0.12914 0.90803 0.54030
 H1403 H -0.17787 0.88032 0.53954
 H1404 H -0.17005 0.95323 0.46924
 H1405 H -0.12122 0.96240 0.48298
 H1406 H -0.13086 0.89268 0.55617
 H1407 H -0.21338 0.92541 0.47260
 H1408 H -0.08633 0.91861 0.55070
 C1409 C -0.18701 0.10058 1.02587
 C1410 C -0.19413 0.11569 1.00260
 C1411 C -0.17501 0.11617 0.98095
 C1412 C -0.14898 0.10320 0.98316
 C1413 C -0.14205 0.08893 1.00700
 C1414 C -0.16125 0.08759 1.02815
 C1415 C -0.11625 0.07574 1.00917
 C1416 C -0.09708 0.07630 0.98771
 C1417 C -0.10410 0.09073 0.96408
 C1418 C -0.12982 0.10406 0.96183
 H1419 H -0.18013 0.12593 0.96206
 H1420 H -0.15640 0.07635 1.04645
 H1421 H -0.11138 0.06463 1.02755
 H1422 H -0.13477 0.11493 0.94335
 H1423 H -0.20153 0.09882 1.04245
 H1424 H -0.08985 0.09152 0.94724
 C1425 C 0.30730 0.58851 0.52534
 C1426 C 0.30560 0.60945 0.50562
 C1427 C 0.32987 0.61579 0.49046
 C1428 C 0.35443 0.60053 0.49370
 C1429 C 0.35555 0.57928 0.51320
 C1430 C 0.33190 0.57356 0.52904
 C1431 C 0.38031 0.56422 0.51655
 C1432 C 0.40380 0.56974 0.50018
 C1433 C 0.40222 0.59079 0.48067
 C1434 C 0.37793 0.60621 0.47765
 H1435 H 0.33026 0.63287 0.47639
 H1436 H 0.33241 0.55752 0.54431
 H1437 H 0.38110 0.54791 0.53156
 H1438 H 0.37743 0.62243 0.46254
 H1439 H 0.28954 0.58381 0.53812
 H1440 H 0.41988 0.59548 0.46778
 C1441 C 0.18387 0.61078 0.47753
 C1442 C 0.19882 0.61174 0.50197
 C1443 C 0.18637 0.60052 0.52533
 C1444 C 0.15908 0.58834 0.52409
 C1445 C 0.14447 0.58723 0.49917
 C1446 C 0.15698 0.59862 0.47609
 C1447 C 0.11775 0.57437 0.49751
 C1448 C 0.10496 0.56235 0.52036
 C1449 C 0.11926 0.56424 0.54527
 C1450 C 0.14611 0.57703 0.54709
 H1451 H 0.19788 0.60134 0.54429
 H1452 H 0.14604 0.59789 0.45682
 H1453 H 0.10701 0.57350 0.47814
 H1454 H 0.15687 0.57779 0.56644
 H1455 H 0.19328 0.61898 0.45937
 H1456 H 0.11002 0.55522 0.56317
 C1457 C 0.70076 0.07830 -0.01328
 C1458 C 0.70181 0.10493 -0.00119
 C1459 C 0.67774 0.11392 0.01250
 C1460 C 0.65352 0.09660 0.01429
 C1461 C 0.65272 0.07044 0.00124
 C1462 C 0.67644 0.06151 -0.01243
 C1463 C 0.62812 0.05373 0.00180
 C1464 C 0.60436 0.06243 0.01584
 C1465 C 0.60577 0.08786 0.02986
 C1466 C 0.63005 0.10491 0.02893
 H1467 H 0.67809 0.13374 0.02296
 H1468 H 0.67620 0.04146 -0.02251
 H1469 H 0.62728 0.03407 -0.00901
 H1470 H 0.63031 0.12479 0.03932
 H1471 H 0.71842 0.07068 -0.02441
 H1472 H 0.58765 0.09515 0.04048
 C1473 C 0.68855 0.90860 0.53055
 C1474 C 0.69466 0.89273 0.50764
 C1475 C 0.67393 0.88884 0.48746
 C1476 C 0.64763 0.90148 0.48982
 C1477 C 0.64177 0.91731 0.51307
 C1478 C 0.66229 0.92053 0.53339
 C1479 C 0.61569 0.93012 0.51546
 C1480 C 0.59541 0.92807 0.49461
 C1481 C 0.60155 0.91251 0.47144
 C1482 C 0.62727 0.89911 0.46918
 H1483 H 0.67862 0.87682 0.46960
 H1484 H 0.65819 0.93263 0.55132
 H1485 H 0.61148 0.94230 0.53333
 H1486 H 0.63136 0.88718 0.45114
 H1487 H 0.70418 0.91171 0.54637
 H1488 H 0.58634 0.91052 0.45511
 C1489 C 0.18511 0.40708 1.02839
 C1490 C 0.19018 0.39100 1.00532
 C1491 C 0.16840 0.38685 0.98617
 C1492 C 0.14217 0.39941 0.98968
 C1493 C 0.13746 0.41548 1.01304
 C1494 C 0.15899 0.41897 1.03233
 C1495 C 0.11151 0.42830 1.01654
 C1496 C 0.09018 0.42608 0.99666
 C1497 C 0.09513 0.41016 0.97341
 C1498 C 0.12073 0.39673 0.97009
 H1499 H 0.17217 0.37461 0.96823
 H1500 H 0.15577 0.43123 1.05035
 H1501 H 0.10828 0.44078 1.03443
 H1502 H 0.12390 0.38460 0.95198
 H1503 H 0.20139 0.41027 1.04356
 H1504 H 0.07918 0.40808 0.95777
 C1505 C -0.00535 0.29902 0.44827
 C1506 C -0.01103 0.29766 0.42039
 C1507 C -0.01609 0.32242 0.40626
 C1508 C -0.01546 0.34796 0.41947
 C1509 C -0.00933 0.34908 0.44733
 C1510 C -0.00463 0.32456 0.46163
 C1511 C -0.00739 0.37477 0.46032
 C1512 C -0.01167 0.39931 0.44581
 C1513 C -0.01852 0.39805 0.41827
 C1514 C -0.02027 0.37245 0.40510
 H1515 H -0.01983 0.32178 0.38465
 H1516 H 0.00019 0.32520 0.48302
 H1517 H -0.00253 0.37566 0.48171
 H1518 H -0.02509 0.37182 0.38371
 H1519 H -0.00053 0.28083 0.45991
 H1520 H -0.02191 0.41686 0.40685
 C1521 C 0.50111 -0.20123 -0.04417
 C1522 C 0.49430 -0.20376 -0.07179
 C1523 C 0.48448 -0.18035 -0.08563
 C1524 C 0.48252 -0.15476 -0.07278
 C1525 C 0.49039 -0.15219 -0.04540
 C1526 C 0.49906 -0.17560 -0.03110
 C1527 C 0.49046 -0.12604 -0.03311
 C1528 C 0.48303 -0.10245 -0.04799
 C1529 C 0.47410 -0.10544 -0.07491
 C1530 C 0.47385 -0.13148 -0.08725
 H1531 H 0.47943 -0.18186 -0.10697
 H1532 H 0.50505 -0.17392 -0.01001
 H1533 H 0.49701 -0.12399 -0.01219
 H1534 H 0.46762 -0.13327 -0.10827
 H1535 H 0.50881 -0.21840 -0.03255
 H1536 H 0.46820 -0.08755 -0.08671
 C1537 C 0.03834 -0.18536 1.06576
 C1538 C 0.01168 -0.19722 1.07116
 C1539 C -0.01221 -0.18478 1.06020
 C1540 C -0.01000 -0.15840 1.04870
 C1541 C 0.01664 -0.14500 1.04670
 C1542 C 0.04081 -0.15922 1.05392
 C1543 C 0.01855 -0.11737 1.03827
 C1544 C -0.00583 -0.10324 1.03152
 C1545 C -0.03206 -0.11711 1.03194
 C1546 C -0.03417 -0.14458 1.04060
 H1547 H -0.03274 -0.19471 1.06176
 H1548 H 0.06146 -0.14963 1.05161
 H1549 H 0.03888 -0.10678 1.03715
 H1550 H -0.05470 -0.15468 1.04176
 H1551 H 0.05725 -0.19547 1.07241
 H1552 H -0.05099 -0.10642 1.02632
 C1553 C 0.54486 0.31104 0.58301
 C1554 C 0.52006 0.29474 0.57984
 C1555 C 0.49685 0.30610 0.56655
 C1556 C 0.49780 0.33342 0.55755
 C1557 C 0.52246 0.34985 0.56155
 C1558 C 0.54612 0.33830 0.57361
 C1559 C 0.52269 0.37781 0.55430
 C1560 C 0.49858 0.38941 0.54307
 C1561 C 0.47439 0.37278 0.53843
 C1562 C 0.47397 0.34490 0.54572
 H1563 H 0.47727 0.29421 0.56481
 H1564 H 0.56516 0.35073 0.57684
 H1565 H 0.54158 0.39054 0.55743
 H1566 H 0.45493 0.33247 0.54252
 H1567 H 0.56289 0.30367 0.59392
 H1568 H 0.45567 0.38147 0.52959
 C1569 C 0.49356 1.19087 0.55190
 C1570 C 0.48535 1.19528 0.57873
 C1571 C 0.47446 1.17270 0.59368
 C1572 C 0.47509 1.14569 0.58314
 C1573 C 0.48513 1.14164 0.55680
 C1574 C 0.49307 1.16433 0.54095
 C1575 C 0.48836 1.11489 0.54699
 C1576 C 0.48217 1.09178 0.56311
 C1577 C 0.47087 1.09557 0.58883
 C1578 C 0.46737 1.12251 0.59885
 H1579 H 0.46700 1.17580 0.61397
 H1580 H 0.50059 1.16138 0.52061
 H1581 H 0.49613 1.11211 0.52672
 H1582 H 0.45944 1.12522 0.61905
 H1583 H 0.50236 1.20739 0.53967
 H1584 H 0.46541 1.07783 0.60128
 C1585 C 0.03816 0.69252 1.06864
 C1586 C 0.01798 0.70005 1.08750
 C1587 C -0.00037 0.67968 1.09811
 C1588 C 0.00078 0.65210 1.08934
 C1589 C 0.02082 0.64477 1.06998
 C1590 C 0.03969 0.66498 1.06005
 C1591 C 0.02095 0.61762 1.06003
 C1592 C 0.00080 0.59772 1.06851
 C1593 C -0.01845 0.60492 1.08846
 C1594 C -0.01836 0.63193 1.09891
 H1595 H -0.01634 0.68546 1.11233
 H1596 H 0.05521 0.65961 1.04522
 H1597 H 0.03607 0.61242 1.04476
 H1598 H -0.03377 0.63724 1.11385
 H1599 H 0.05266 0.70796 1.06053
 H1600 H -0.03408 0.58995 1.09544
 C1601 C 0.52419 0.67329 -0.10346
 C1602 C 0.51598 0.69438 -0.08541
 C1603 C 0.51053 0.68680 -0.05854
 C1604 C 0.51168 0.65916 -0.05032
 C1605 C 0.51895 0.63823 -0.06881
 C1606 C 0.52572 0.64561 -0.09521
 C1607 C 0.51851 0.61028 -0.06072
 C1608 C 0.51029 0.60327 -0.03449
 C1609 C 0.50382 0.62449 -0.01613
 C1610 C 0.50459 0.65215 -0.02394
 H1611 H 0.50338 0.70174 -0.04401
 H1612 H 0.53171 0.62991 -0.10964
 H1613 H 0.52362 0.59407 -0.07498
 H1614 H 0.49910 0.66799 -0.00945
 H1615 H 0.52976 0.67764 -0.12402
 H1616 H 0.49793 0.61975 0.00440
 C1617 C 0.02101 1.19159 0.43568
 C1618 C 0.00468 1.19362 0.41201
 C1619 C -0.00246 1.16944 0.39726
 C1620 C 0.00566 1.14342 0.40662
 C1621 C 0.02087 1.14166 0.43116
 C1622 C 0.02889 1.16580 0.44526
 C1623 C 0.02649 1.11572 0.44202
 C1624 C 0.01678 1.09157 0.42891
 C1625 C 0.00338 1.09305 0.40372
 C1626 C -0.00214 1.11900 0.39253
 H1627 H -0.01508 1.17063 0.37905
 H1628 H 0.04088 1.16472 0.46391
 H1629 H 0.03668 1.11427 0.46162
 H1630 H -0.01362 1.11997 0.37360
 H1631 H 0.02790 1.20994 0.44685
 H1632 H -0.00450 1.07432 0.39372
 C1633 C 0.71721 0.69424 0.94237
 C1634 C 0.74422 0.68432 0.94839
 C1635 C 0.76665 0.69339 0.93212
 C1636 C 0.76162 0.70840 0.90837
 C1637 C 0.73390 0.71532 0.90096
 C1638 C 0.71201 0.70915 0.91873
 C1639 C 0.72846 0.72679 0.87534
 C1640 C 0.75050 0.73076 0.85708
 C1641 C 0.77819 0.72597 0.86564
 C1642 C 0.78374 0.71507 0.89107
 H1643 H 0.78798 0.68813 0.93721
 H1644 H 0.69072 0.71494 0.91391
 H1645 H 0.70704 0.73027 0.86883
 H1646 H 0.80517 0.71031 0.89653
 H1647 H 0.69969 0.68928 0.95536
 H1648 H 0.79549 0.72904 0.85187
 C1649 C 0.22452 0.19857 0.43980
 C1650 C 0.25078 0.18633 0.44434
 C1651 C 0.27306 0.19395 0.42721
 C1652 C 0.26820 0.20999 0.40407
 C1653 C 0.24094 0.21949 0.39821
 C1654 C 0.21954 0.21465 0.41686
 C1655 C 0.23525 0.23202 0.37313
 C1656 C 0.25648 0.23439 0.35379
 C1657 C 0.28395 0.22695 0.36078
 C1658 C 0.28984 0.21510 0.38575
 H1659 H 0.29401 0.18676 0.43105
 H1660 H 0.19865 0.22229 0.41317
 H1661 H 0.21396 0.23744 0.36778
 H1662 H 0.31094 0.20830 0.38999
 H1663 H 0.20727 0.19444 0.45336
 H1664 H 0.30059 0.22863 0.34610
 C1665 C 0.71614 0.31176 0.43734
 C1666 C 0.74212 0.31840 0.44992
 C1667 C 0.76660 0.30693 0.43908
 C1668 C 0.76572 0.29352 0.41387
 C1669 C 0.73981 0.29028 0.40002
 C1670 C 0.71504 0.29816 0.41248
 C1671 C 0.73922 0.28046 0.37345
 C1672 C 0.76419 0.27389 0.36043
 C1673 C 0.78967 0.27504 0.37484
 C1674 C 0.79044 0.28484 0.40148
 H1675 H 0.78660 0.30986 0.44940
 H1676 H 0.69488 0.29481 0.40251
 H1677 H 0.71947 0.27924 0.36238
 H1678 H 0.81049 0.28691 0.41190
 H1679 H 0.69656 0.31787 0.44613
 H1680 H 0.80908 0.26998 0.36500
 C1681 C 0.21785 0.81462 0.93455
 C1682 C 0.24312 0.82136 0.94839
 C1683 C 0.26824 0.81033 0.93845
 C1684 C 0.26875 0.79751 0.91295
 C1685 C 0.24360 0.79443 0.89782
 C1686 C 0.21813 0.80166 0.90936
 C1687 C 0.24447 0.78543 0.87097
 C1688 C 0.27016 0.77932 0.85902
 C1689 C 0.29484 0.78024 0.87470
 C1690 C 0.29416 0.78936 0.90154
 H1691 H 0.28771 0.81336 0.94966
 H1692 H 0.19850 0.79836 0.89843
 H1693 H 0.22533 0.78439 0.85894
 H1694 H 0.31364 0.79129 0.91293
 H1695 H 0.19777 0.82032 0.94255
 H1696 H 0.31480 0.77551 0.86573
 C1697 C 0.25199 0.85794 0.06935
 C1698 C 0.24398 0.83945 0.04827
 C1699 C 0.23597 0.81178 0.05555
 C1700 C 0.23626 0.80307 0.08271
 C1701 C 0.24471 0.82204 0.10306
 C1702 C 0.25240 0.84935 0.09619
 C1703 C 0.24553 0.81349 0.13006
 C1704 C 0.23794 0.78600 0.13745
 C1705 C 0.22904 0.76727 0.11708
 C1706 C 0.22826 0.77571 0.08996
 H1707 H 0.22873 0.79693 0.04046
 H1708 H 0.25904 0.86416 0.11166
 H1709 H 0.25220 0.82848 0.14535
 H1710 H 0.22155 0.76078 0.07465
 H1711 H 0.25905 0.87902 0.06563
 H1712 H 0.22301 0.74605 0.12204
 C1713 C 0.75431 0.35209 0.57113
 C1714 C 0.74551 0.33433 0.54977
 C1715 C 0.73623 0.30686 0.55651
 C1716 C 0.73582 0.29772 0.58351
 C1717 C 0.74486 0.31607 0.60416
 C1718 C 0.75400 0.34309 0.59780
 C1719 C 0.74478 0.30723 0.63099
 C1720 C 0.73577 0.28003 0.63805
 C1721 C 0.72644 0.26185 0.61740
 C1722 C 0.72648 0.27062 0.59036
 H1723 H 0.72844 0.29259 0.54114
 H1724 H 0.76118 0.35735 0.61353
 H1725 H 0.75189 0.32186 0.64644
 H1726 H 0.71933 0.25616 0.57479
 H1727 H 0.76249 0.37286 0.56775
 H1728 H 0.71934 0.24087 0.62210
 C1729 C 0.24604 0.14961 0.56446
 C1730 C 0.25702 0.16701 0.54428
 C1731 C 0.26961 0.19288 0.55200
 C1732 C 0.27064 0.20131 0.57925
 C1733 C 0.25925 0.18356 0.59908
 C1734 C 0.24716 0.15775 0.59153
 C1735 C 0.25993 0.19189 0.62620
 C1736 C 0.27176 0.21794 0.63422
 C1737 C 0.28317 0.23546 0.61430
 C1738 C 0.28268 0.22719 0.58708
 H1739 H 0.27881 0.20644 0.53694
 H1740 H 0.23828 0.14392 0.60657
 H1741 H 0.25094 0.17792 0.64107
 H1742 H 0.29156 0.24111 0.57213
 H1743 H 0.23599 0.12985 0.55940
 H1744 H 0.29243 0.25553 0.61972
 C1745 C 0.74000 0.65260 0.06932
 C1746 C 0.75119 0.66955 0.04892
 C1747 C 0.76270 0.69604 0.05597
 C1748 C 0.76257 0.70543 0.08289
 C1749 C 0.75087 0.68811 0.10292
 C1750 C 0.73976 0.66177 0.09599
 C1751 C 0.75053 0.69722 0.12970
 C1752 C 0.76200 0.72348 0.13728
 C1753 C 0.77368 0.74066 0.11724
 C1754 C 0.77391 0.73173 0.09024
 H1755 H 0.77200 0.70925 0.04067
 H1756 H 0.73075 0.64824 0.11122
 H1757 H 0.74144 0.68347 0.14471
 H1758 H 0.78305 0.74532 0.07515
 H1759 H 0.73083 0.63239 0.06473
 H1760 H 0.78280 0.76086 0.12242
 C1761 C 0.16919 0.55820 0.26890
 C1762 C 0.14879 0.55342 0.24852
 C1763 C 0.14609 0.57383 0.22815
 C1764 C 0.16218 0.59885 0.22914
 C1765 C 0.18131 0.60369 0.25062
 C1766 C 0.18502 0.58304 0.27010
 C1767 C 0.19616 0.62924 0.25253
 C1768 C 0.19242 0.65025 0.23311
 C1769 C 0.17426 0.64475 0.21113
 C1770 C 0.15915 0.61937 0.20924
 H1771 H 0.13158 0.57088 0.21153
 H1772 H 0.19993 0.58624 0.28653
 H1773 H 0.21044 0.63287 0.26941
 H1774 H 0.14478 0.61597 0.19241
 H1775 H 0.17235 0.54282 0.28448
 H1776 H 0.17118 0.66032 0.19576
 C1777 C 0.66646 0.05112 0.76606
 C1778 C 0.64512 0.04736 0.74639
 C1779 C 0.64112 0.06913 0.72761
 C1780 C 0.65732 0.09411 0.72916
 C1781 C 0.67772 0.09771 0.74977
 C1782 C 0.68238 0.07594 0.76786
 C1783 C 0.69286 0.12317 0.75221
 C1784 C 0.68820 0.14517 0.73407
 C1785 C 0.66852 0.14099 0.71304
 C1786 C 0.65313 0.11580 0.71070
 H1787 H 0.62535 0.06736 0.71194
 H1788 H 0.69813 0.07820 0.78369
 H1789 H 0.70815 0.12591 0.76840
 H1790 H 0.63766 0.11345 0.69463
 H1791 H 0.67035 0.03490 0.78064
 H1792 H 0.66439 0.15752 0.69886
 C1793 C 0.83827 0.06106 0.22220
 C1794 C 0.85694 0.05754 0.24413
 C1795 C 0.85774 0.07815 0.26455
 C1796 C 0.84173 0.10227 0.26221
 C1797 C 0.82415 0.10591 0.23947
 C1798 C 0.82234 0.08499 0.21975
 C1799 C 0.80860 0.13031 0.23690
 C1800 C 0.81019 0.15116 0.25694
 C1801 C 0.82752 0.14704 0.27968
 C1802 C 0.84312 0.12291 0.28226
 H1803 H 0.87038 0.07571 0.28251
 H1804 H 0.80863 0.08714 0.20236
 H1805 H 0.79521 0.13298 0.21934
 H1806 H 0.85643 0.12050 0.29990
 H1807 H 0.83621 0.04526 0.20665
 H1808 H 0.82930 0.16264 0.29544
 C1809 C 0.33903 0.56259 0.72908
 C1810 C 0.35854 0.55921 0.75029
 C1811 C 0.36436 0.58219 0.76751
 C1812 C 0.35041 0.60737 0.76419
 C1813 C 0.33089 0.61029 0.74286
 C1814 C 0.32534 0.58775 0.72542
 C1815 C 0.31744 0.63576 0.73923
 C1816 C 0.32287 0.65821 0.75704
 C1817 C 0.34208 0.65487 0.77840
 C1818 C 0.35589 0.62980 0.78181
 H1819 H 0.38018 0.58123 0.78316
 H1820 H 0.31054 0.58962 0.70884
 H1821 H 0.30251 0.63799 0.72278
 H1822 H 0.37081 0.62794 0.79830
 H1823 H 0.33465 0.54573 0.71499
 H1824 H 0.34672 0.67183 0.79231
 C1825 C 0.33341 0.44857 0.76817
 C1826 C 0.35565 0.45347 0.75033
 C1827 C 0.36286 0.43226 0.73215
 C1828 C 0.34760 0.40665 0.73151
 C1829 C 0.32551 0.40208 0.74984
 C1830 C 0.31864 0.42312 0.76809
 C1831 C 0.31071 0.37647 0.74987
 C1832 C 0.31732 0.35503 0.73172
 C1833 C 0.33873 0.36000 0.71294
 C1834 C 0.35384 0.38553 0.71293
 H1835 H 0.37979 0.43586 0.71816
 H1836 H 0.30173 0.41992 0.78227
 H1837 H 0.29408 0.37313 0.76435
 H1838 H 0.37059 0.38865 0.69858
 H1839 H 0.32757 0.46449 0.78242
 H1840 H 0.34439 0.34385 0.69888
 C1841 C 0.83448 0.95142 0.26619
 C1842 C 0.85939 0.95458 0.25128
 C1843 C 0.86838 0.93146 0.23607
 C1844 C 0.85210 0.90639 0.23502
 C1845 C 0.82749 0.90385 0.25049
 C1846 C 0.81904 0.92636 0.26612
 C1847 C 0.81166 0.87878 0.25028
 C1848 C 0.81950 0.85606 0.23430
 C1849 C 0.84335 0.85901 0.21804
 C1850 C 0.85965 0.88387 0.21857
 H1851 H 0.88697 0.93336 0.22378
 H1852 H 0.80025 0.92471 0.27817
 H1853 H 0.79322 0.87684 0.26283
 H1854 H 0.87829 0.88538 0.20630
 H1855 H 0.82710 0.96818 0.27868
 H1856 H 0.85000 0.84174 0.20579
 C1857 C 0.65729 0.93614 0.72120
 C1858 C 0.63989 0.94149 0.74321
 C1859 C 0.63485 0.92013 0.76214
 C1860 C 0.64772 0.89405 0.75941
 C1861 C 0.66499 0.88903 0.73701
 C1862 C 0.66945 0.91016 0.71798
 C1863 C 0.67793 0.86315 0.73419
 C1864 C 0.67466 0.84218 0.75383
 C1865 C 0.65770 0.84751 0.77622
 C1866 C 0.64414 0.87303 0.77883
 H1867 H 0.62167 0.92411 0.77933
 H1868 H 0.68267 0.90672 0.70071
 H1869 H 0.69122 0.85963 0.71697
 H1870 H 0.63112 0.87645 0.79623
 H1871 H 0.66131 0.95212 0.70629
 H1872 H 0.65478 0.83186 0.79165
 C1873 C 0.15906 0.44230 0.22258
 C1874 C 0.14339 0.44796 0.24568
 C1875 C 0.13993 0.42707 0.26530
 C1876 C 0.15268 0.40103 0.26213
 C1877 C 0.16814 0.39558 0.23861
 C1878 C 0.17105 0.41631 0.21893
 C1879 C 0.18076 0.36964 0.23526
 C1880 C 0.17893 0.34909 0.25542
 C1881 C 0.16390 0.35489 0.27895
 C1882 C 0.15066 0.38046 0.28215
 H1883 H 0.12807 0.43138 0.28330
 H1884 H 0.18290 0.41254 0.20082
 H1885 H 0.19255 0.36568 0.21714
 H1886 H 0.13905 0.38424 0.30039
 H1887 H 0.16184 0.45802 0.20718
 H1888 H 0.16209 0.33948 0.29475
 C1889 C 0.05767 0.25655 0.80526
 C1890 C 0.05630 0.24490 0.83125
 C1891 C 0.08076 0.23386 0.84267
 C1892 C 0.10569 0.23360 0.82823
 C1893 C 0.10665 0.24507 0.80210
 C1894 C 0.08251 0.25635 0.79070
 C1895 C 0.13197 0.24586 0.78816
 C1896 C 0.15637 0.23540 0.80010
 C1897 C 0.15503 0.22353 0.82593
 C1898 C 0.12989 0.22268 0.83990
 H1899 H 0.08115 0.22647 0.86320
 H1900 H 0.08298 0.26556 0.77080
 H1901 H 0.13271 0.25497 0.76821
 H1902 H 0.12946 0.21381 0.85994
 H1903 H 0.03962 0.26643 0.79639
 H1904 H 0.17355 0.21537 0.83562
 C1905 C 0.55841 0.74938 0.31297
 C1906 C 0.55755 0.73761 0.33890
 C1907 C 0.58278 0.72988 0.35144
 C1908 C 0.60815 0.73256 0.33787
 C1909 C 0.60853 0.74375 0.31161
 C1910 C 0.58362 0.75206 0.29930
 C1911 C 0.63390 0.74696 0.29822
 C1912 C 0.65899 0.73901 0.31065
 C1913 C 0.65852 0.72774 0.33672
 C1914 C 0.63323 0.72464 0.35031
 H1915 H 0.58304 0.72264 0.37206
 H1916 H 0.58370 0.76114 0.27933
 H1917 H 0.63401 0.75548 0.27801
 H1918 H 0.63326 0.71607 0.37049
 H1919 H 0.53971 0.75727 0.30344
 H1920 H 0.67770 0.72152 0.34667
 C1921 C 0.53825 0.23422 0.19951
 C1922 C 0.53405 0.25367 0.17878
 C1923 C 0.55597 0.27254 0.17245
 C1924 C 0.58207 0.27093 0.18504
 C1925 C 0.58657 0.25060 0.20498
 C1926 C 0.56423 0.23300 0.21279
 C1927 C 0.61365 0.24727 0.21558
 C1928 C 0.63620 0.26373 0.20599
 C1929 C 0.63108 0.28456 0.18683
 C1930 C 0.60425 0.28819 0.17654
 H1931 H 0.55366 0.28683 0.15578
 H1932 H 0.56730 0.21723 0.22803
 H1933 H 0.61727 0.23131 0.23052
 H1934 H 0.60101 0.30395 0.16132
 H1935 H 0.52227 0.21873 0.20433
 H1936 H 0.64790 0.29795 0.17946
 C1937 C 0.05650 0.75834 0.69571
 C1938 C 0.05451 0.76257 0.66771
 C1939 C 0.07922 0.76649 0.65282
 C1940 C 0.10533 0.76721 0.66554
 C1941 C 0.10712 0.76299 0.69363
 C1942 C 0.08265 0.75872 0.70858
 C1943 C 0.13341 0.76251 0.70616
 C1944 C 0.15779 0.76659 0.69097
 C1945 C 0.15586 0.77151 0.66319
 C1946 C 0.12972 0.77161 0.65047
 H1947 H 0.07818 0.76840 0.63106
 H1948 H 0.08378 0.75516 0.73012
 H1949 H 0.13492 0.75905 0.72771
 H1950 H 0.12857 0.77495 0.62890
 H1951 H 0.03817 0.75381 0.70767
 H1952 H 0.17459 0.77463 0.65127
 C1953 C 0.94148 0.78168 0.68161
 C1954 C 0.94771 0.76120 0.66251
 C1955 C 0.92640 0.74313 0.65271
 C1956 C 0.89908 0.74514 0.66220
 C1957 C 0.89302 0.76553 0.68172
 C1958 C 0.91426 0.78386 0.69114
 C1959 C 0.86603 0.76677 0.69210
 C1960 C 0.84503 0.74752 0.68371
 C1961 C 0.85099 0.72785 0.66366
 C1962 C 0.87784 0.72673 0.65293
 H1963 H 0.93120 0.72703 0.63824
 H1964 H 0.90987 0.79968 0.70602
 H1965 H 0.86176 0.78215 0.70747
 H1966 H 0.88216 0.71108 0.63785
 H1967 H 0.95759 0.79615 0.68898
 H1968 H 0.83513 0.71287 0.65676
 C1969 C 0.42677 0.20248 0.16923
 C1970 C 0.43470 0.22426 0.15197
 C1971 C 0.41431 0.24190 0.14150
 C1972 C 0.38649 0.23913 0.14957
 C1973 C 0.37866 0.21766 0.16762
 C1974 C 0.39876 0.19893 0.17673
 C1975 C 0.35142 0.21662 0.17775
 C1976 C 0.33269 0.23753 0.17104
 C1977 C 0.34015 0.25823 0.15254
 C1978 C 0.36684 0.25873 0.14140
 H1979 H 0.42035 0.25916 0.12863
 H1980 H 0.39307 0.18241 0.19059
 H1981 H 0.34551 0.20099 0.19251
 H1982 H 0.37263 0.27532 0.12764
 H1983 H 0.44235 0.18868 0.17735
 H1984 H 0.32569 0.27453 0.14757
 C1985 C 0.44532 0.71523 0.31885
 C1986 C 0.45208 0.73409 0.33967
 C1987 C 0.43267 0.75388 0.34759
 C1988 C 0.40681 0.75535 0.33432
 C1989 C 0.40029 0.73657 0.31307
 C1990 C 0.41948 0.71639 0.30566
 C1991 C 0.37483 0.73846 0.29930
 C1992 C 0.35564 0.75888 0.30636
 C1993 C 0.36209 0.77730 0.32772
 C1994 C 0.38758 0.77556 0.34160
 H1995 H 0.43806 0.76881 0.36336
 H1996 H 0.41466 0.70180 0.28946
 H1997 H 0.37004 0.72390 0.28305
 H1998 H 0.39231 0.79008 0.35788
 H1999 H 0.46009 0.69971 0.31272
 H2000 H 0.34754 0.79313 0.33358
 C2001 C 0.94654 0.22771 0.81422
 C2002 C 0.95188 0.24481 0.83695
 C2003 C 0.92969 0.26045 0.84732
 C2004 C 0.90321 0.25965 0.83477
 C2005 C 0.89856 0.24270 0.81183
 C2006 C 0.92018 0.22660 0.80190
 C2007 C 0.87246 0.24234 0.79883
 C2008 C 0.85071 0.25893 0.80821
 C2009 C 0.85535 0.27562 0.83122
 C2010 C 0.88143 0.27597 0.84442
 H2011 H 0.93309 0.27463 0.86408
 H2012 H 0.91679 0.21326 0.78445
 H2013 H 0.86930 0.22924 0.78117
 H2014 H 0.88462 0.28913 0.86202
 H2015 H 0.96244 0.21449 0.80610
 H2016 H 0.83892 0.28851 0.83895
 C2017 C 0.56749 0.95888 0.69558
 C2018 C 0.56599 0.98515 0.70784
 C2019 C 0.54765 1.00484 0.69689
 C2020 C 0.53273 0.99917 0.67279
 C2021 C 0.53608 0.97343 0.65955
 C2022 C 0.55270 0.95308 0.67159
 C2023 C 0.52417 0.96913 0.63377
 C2024 C 0.50899 0.99024 0.62095
 C2025 C 0.50401 1.01492 0.63515
 C2026 C 0.51585 1.01939 0.66084
 H2027 H 0.54621 1.02510 0.70637
 H2028 H 0.55532 0.93314 0.66180
 H2029 H 0.52799 0.94990 0.62308
 H2030 H 0.51286 1.03917 0.67082
 H2031 H 0.58155 0.94350 0.70355
 H2032 H 0.49253 1.03151 0.62569
 C2033 C 0.07073 0.46506 1.19912
 C2034 C 0.06920 0.49125 1.21151
 C2035 C 0.05087 0.51099 1.20076
 C2036 C 0.03618 0.50560 1.17654
 C2037 C 0.03959 0.47997 1.16310
 C2038 C 0.05604 0.45944 1.17507
 C2039 C 0.02791 0.47595 1.13723
 C2040 C 0.01297 0.49727 1.12453
 C2041 C 0.00801 0.52188 1.13887
 C2042 C 0.01957 0.52604 1.16466
 H2043 H 0.04941 0.53119 1.21039
 H2044 H 0.05867 0.43958 1.16514
 H2045 H 0.03160 0.45674 1.12647
 H2046 H 0.01657 0.54573 1.17480
 H2047 H 0.08483 0.44965 1.20698
 H2048 H -0.00340 0.53858 1.12953
 C2049 C -0.10520 -0.01408 1.17061
 C2050 C -0.08596 -0.00984 1.19193
 C2051 C -0.05705 -0.01194 1.18709
 C2052 C -0.04746 -0.01593 1.16056
 C2053 C -0.06713 -0.01834 1.13906
 C2054 C -0.09591 -0.01845 1.14444
 C2055 C -0.05783 -0.01876 1.11236
 C2056 C -0.02907 -0.01651 1.10655
 C2057 C -0.00950 -0.01613 1.12795
 C2058 C -0.01863 -0.01581 1.15478
 H2059 H -0.04215 -0.00849 1.20350
 H2060 H -0.11124 -0.02051 1.12822
 H2061 H -0.07309 -0.01932 1.09597
 H2062 H -0.00317 -0.01418 1.17092
 H2063 H -0.12753 -0.01261 1.17408
 H2064 H 0.01276 -0.01433 1.12394
 C2065 C 0.45206 0.52156 0.70410
 C2066 C 0.43210 0.50039 0.70956
 C2067 C 0.43056 0.47668 0.69291
 C2068 C 0.44699 0.47539 0.66953
 C2069 C 0.46580 0.49769 0.66344
 C2070 C 0.46895 0.52012 0.68139
 C2071 C 0.47951 0.49826 0.63858
 C2072 C 0.47426 0.47720 0.61946
 C2073 C 0.45676 0.45439 0.62601
 C2074 C 0.44343 0.45332 0.65105
 H2075 H 0.41507 0.46043 0.69686
 H2076 H 0.48338 0.53728 0.67711
 H2077 H 0.49259 0.51615 0.63323
 H2078 H 0.42911 0.43606 0.65531
 H2079 H 0.45367 0.53989 0.71685
 H2080 H 0.45216 0.43827 0.61119
 C2081 C 0.41880 0.47137 -0.18385
 C2082 C 0.42343 0.49672 -0.19716
 C2083 C 0.44116 0.51722 -0.18510
 C2084 C 0.45270 0.51322 -0.15928
 C2085 C 0.44645 0.48835 -0.14528
 C2086 C 0.43015 0.46724 -0.15803
 C2087 C 0.45584 0.48542 -0.11850
 C2088 C 0.47176 0.50684 -0.10563
 C2089 C 0.47907 0.53086 -0.12023
 C2090 C 0.46943 0.53412 -0.14678
 H2091 H 0.44490 0.53681 -0.19539
 H2092 H 0.42537 0.44792 -0.14765
 H2093 H 0.45048 0.46658 -0.10754
 H2094 H 0.47457 0.55325 -0.15733
 H2095 H 0.40505 0.45548 -0.19272
 H2096 H 0.49139 0.54752 -0.11079
 C2097 C -0.04377 1.02617 0.29169
 C2098 C -0.06294 1.00402 0.28619
 C2099 C -0.06376 0.98121 0.30377
 C2100 C -0.04768 0.98179 0.32785
 C2101 C -0.02983 1.00502 0.33406
 C2102 C -0.02728 1.02660 0.31524
 C2103 C -0.01632 1.00705 0.35959
 C2104 C -0.02119 0.98640 0.37914
 C2105 C -0.03775 0.96276 0.37201
 C2106 C -0.05067 0.96037 0.34669
 H2107 H -0.07868 0.96422 0.29993
 H2108 H -0.01364 1.04451 0.31938
 H2109 H -0.00377 1.02543 0.36483
 H2110 H -0.06405 0.94232 0.34232
 H2111 H -0.04266 1.04395 0.27835
 H2112 H -0.04158 0.94637 0.38656
 C2113 C 0.10692 0.48978 0.32924
 C2114 C 0.08873 0.49209 0.30701
 C2115 C 0.05949 0.49082 0.31096
 C2116 C 0.04865 0.48904 0.33731
 C2117 C 0.06739 0.48792 0.35954
 C2118 C 0.09638 0.48750 0.35525
 C2119 C 0.05705 0.48853 0.38584
 C2120 C 0.02813 0.49066 0.39068
 C2121 C 0.00941 0.49037 0.36859
 C2122 C 0.01960 0.48961 0.34209
 H2123 H 0.04541 0.49286 0.29381
 H2124 H 0.11098 0.48650 0.37210
 H2125 H 0.07176 0.48822 0.40266
 H2126 H 0.00484 0.49033 0.32537
 H2127 H 0.12945 0.49074 0.32649
 H2128 H -0.01295 0.49185 0.37177
 C2129 C 0.60398 -0.01790 -0.17416
 C2130 C 0.58531 -0.01478 -0.19593
 C2131 C 0.55621 -0.01544 -0.19127
 C2132 C 0.54601 -0.01737 -0.16467
 C2133 C 0.56524 -0.01920 -0.14289
 C2134 C 0.59407 -0.02030 -0.14791
 C2135 C 0.55557 -0.01850 -0.11630
 C2136 C 0.52687 -0.01556 -0.11080
 C2137 C 0.50766 -0.01526 -0.13250
 C2138 C 0.51715 -0.01613 -0.15922
 H2139 H 0.54175 -0.01276 -0.20803
 H2140 H 0.60905 -0.02184 -0.13143
 H2141 H 0.57064 -0.01914 -0.09980
 H2142 H 0.50202 -0.01485 -0.17560
 H2143 H 0.62643 -0.01739 -0.17744
 H2144 H 0.48546 -0.01306 -0.12886
 C2145 C 0.69641 0.59177 0.02308
 C2146 C 0.70344 0.60126 -0.00281
 C2147 C 0.68712 0.59131 -0.02495
 C2148 C 0.66294 0.57454 -0.02112
 C2149 C 0.65541 0.56630 0.00513
 C2150 C 0.67271 0.57444 0.02702
 C2151 C 0.63036 0.55075 0.00907
 C2152 C 0.61235 0.54379 -0.01289
 C2153 C 0.62050 0.55171 -0.03897
 C2154 C 0.64562 0.56672 -0.04306
 H2155 H 0.69267 0.59717 -0.04529
 H2156 H 0.66742 0.56812 0.04732
 H2157 H 0.62447 0.54491 0.02936
 H2158 H 0.65113 0.57284 -0.06336
 H2159 H 0.70851 0.59850 0.04050
 H2160 H 0.60729 0.54658 -0.05626
 C2161 C 0.19925 1.09068 0.51309
 C2162 C 0.20692 1.10178 0.48801
 C2163 C 0.19165 1.09272 0.46478
 C2164 C 0.16809 1.07461 0.46684
 C2165 C 0.16017 1.06448 0.49232
 C2166 C 0.17622 1.07215 0.51521
 C2167 C 0.13583 1.04760 0.49465
 C2168 C 0.11858 1.04112 0.47195
 C2169 C 0.12712 1.05079 0.44656
 C2170 C 0.15175 1.06718 0.44400
 H2171 H 0.19765 1.10010 0.44502
 H2172 H 0.17043 1.06447 0.53495
 H2173 H 0.12981 1.04044 0.51451
 H2174 H 0.15757 1.07475 0.42424
 H2175 H 0.21033 1.09704 0.53128
 H2176 H 0.11445 1.04625 0.42877
 C2177 C 0.19490 -0.07901 0.97347
 C2178 C 0.19867 -0.09745 0.99501
 C2179 C 0.17952 -0.09762 1.01638
 C2180 C 0.15586 -0.08055 1.01539
 C2181 C 0.15187 -0.06270 0.99315
 C2182 C 0.17188 -0.06161 0.97265
 C2183 C 0.12749 -0.04694 0.99121
 C2184 C 0.10659 -0.04887 1.01104
 C2185 C 0.11111 -0.06618 1.03344
 C2186 C 0.13550 -0.08180 1.03562
 H2187 H 0.18216 -0.11214 1.03284
 H2188 H 0.16921 -0.04801 0.95549
 H2189 H 0.12454 -0.03366 0.97384
 H2190 H 0.13812 -0.09533 1.05284
 H2191 H 0.20939 -0.07876 0.95680
 H2192 H 0.09551 -0.06811 1.04908
 C2193 C 0.69593 0.41857 0.48020
 C2194 C 0.70028 0.39869 0.50034
 C2195 C 0.68165 0.39687 0.52212
 C2196 C 0.65790 0.41383 0.52287
 C2197 C 0.65339 0.43321 0.50200
 C2198 C 0.67288 0.43589 0.48115
 C2199 C 0.62892 0.44886 0.50164
 C2200 C 0.60833 0.44530 0.52161
 C2201 C 0.61337 0.42655 0.54274
 C2202 C 0.63794 0.41102 0.54340
 H2203 H 0.68474 0.38123 0.53748
 H2204 H 0.66974 0.45066 0.46501
 H2205 H 0.62561 0.46332 0.48525
 H2206 H 0.64098 0.39629 0.55959
 H2207 H 0.70999 0.42006 0.46322
 H2208 H 0.59799 0.42333 0.55842
 C2209 C -0.19316 0.40451 0.52309
 C2210 C -0.20284 0.39588 0.49750
 C2211 C -0.18800 0.40534 0.47458
 C2212 C -0.16322 0.42169 0.47728
 C2213 C -0.15347 0.42955 0.50319
 C2214 C -0.16883 0.42126 0.52592
 C2215 C -0.12819 0.44502 0.50602
 C2216 C -0.11198 0.45244 0.48331
 C2217 C -0.12215 0.44478 0.45757
 C2218 C -0.14761 0.42973 0.45458
 H2219 H -0.19542 0.39975 0.45453
 H2220 H -0.16162 0.42714 0.54598
 H2221 H -0.12081 0.45057 0.52611
 H2222 H -0.15480 0.42388 0.43451
 H2223 H -0.20379 0.39759 0.54108
 H2224 H -0.11029 0.45015 0.43976
 C2225 C 0.30396 -0.08965 0.02136
 C2226 C 0.29481 -0.09897 -0.00420
 C2227 C 0.30961 -0.08950 -0.02710
 C2228 C 0.33400 -0.07262 -0.02441
 C2229 C 0.34336 -0.06412 0.00145
 C2230 C 0.32790 -0.07231 0.02416
 C2231 C 0.36843 -0.04826 0.00424
 C2232 C 0.38479 -0.04125 -0.01847
 C2233 C 0.37493 -0.04950 -0.04415
 C2234 C 0.34967 -0.06480 -0.04711
 H2235 H 0.30252 -0.09561 -0.04712
 H2236 H 0.33477 -0.06595 0.04419
 H2237 H 0.37569 -0.04230 0.02426
 H2238 H 0.34276 -0.07114 -0.06714
 H2239 H 0.29326 -0.09653 0.03933
 H2240 H 0.38694 -0.04444 -0.06196
 C2241 C 0.31236 1.09282 0.46463
 C2242 C 0.30314 1.10578 0.48826
 C2243 C 0.31617 1.09922 0.51307
 C2244 C 0.33895 1.08086 0.51391
 C2245 C 0.34815 1.06853 0.48980
 C2246 C 0.33446 1.07433 0.46540
 C2247 C 0.37138 1.05113 0.49018
 C2248 C 0.38641 1.04602 0.51427
 C2249 C 0.37680 1.05793 0.53833
 C2250 C 0.35325 1.07506 0.53816
 H2251 H 0.30931 1.10914 0.53142
 H2252 H 0.34119 1.06493 0.44674
 H2253 H 0.37820 1.04220 0.47134
 H2254 H 0.34660 1.08428 0.55693
 H2255 H 0.30242 1.09705 0.44540
 H2256 H 0.38785 1.05454 0.55717
 C2257 C -0.19051 0.59427 0.97190
 C2258 C -0.19922 0.60857 0.99496
 C2259 C -0.18435 0.60498 1.01947
 C2260 C -0.16031 0.58820 1.02042
 C2261 C -0.15174 0.57449 0.99680
 C2262 C -0.16719 0.57734 0.97282
 C2263 C -0.12747 0.55856 0.99717
 C2264 C -0.11080 0.55612 1.02071
 C2265 C -0.11968 0.56944 1.04434
 C2266 C -0.14422 0.58525 1.04421
 H2267 H -0.19082 0.61599 1.03737
 H2268 H -0.16093 0.56683 0.95457
 H2269 H -0.12136 0.54841 0.97867
 H2270 H -0.15036 0.59556 1.06260
 H2271 H -0.20177 0.59633 0.95296
 H2272 H -0.10743 0.56802 1.06277
 C2273 C -0.01451 0.70456 0.58018
 C2274 C -0.00338 0.70229 0.60639
 C2275 C 0.00545 0.67650 0.61574
 C2276 C 0.00473 0.65345 0.59871
 C2277 C -0.00591 0.65581 0.57211
 C2278 C -0.01594 0.68137 0.56316
 C2279 C -0.00593 0.63268 0.55490
 C2280 C 0.00491 0.60746 0.56397
 C2281 C 0.01536 0.60548 0.59054
 C2282 C 0.01513 0.62823 0.60778
 H2283 H 0.01355 0.67452 0.63614
 H2284 H -0.02415 0.68359 0.54285
 H2285 H -0.01412 0.63438 0.53451
 H2286 H 0.02331 0.62616 0.62812
 H2287 H -0.02111 0.72442 0.57245
 H2288 H 0.02345 0.58617 0.59825
 C2289 C 0.48879 0.21089 0.06797
 C2290 C 0.50581 0.21035 0.09132
 C2291 C 0.52420 0.18826 0.09485
 C2292 C 0.52363 0.16583 0.07705
 C2293 C 0.50469 0.16526 0.05495
 C2294 C 0.48817 0.18845 0.04993
 C2295 C 0.50143 0.14090 0.03944
 C2296 C 0.51653 0.11718 0.04641
 C2297 C 0.53677 0.11891 0.06725
 C2298 C 0.54037 0.14305 0.08234
 H2299 H 0.53735 0.18697 0.11267
 H2300 H 0.47391 0.18870 0.03277
 H2301 H 0.48598 0.13986 0.02324
 H2302 H 0.55527 0.14337 0.09902
 H2303 H 0.47521 0.22813 0.06402
 H2304 H 0.54913 0.10116 0.07275
 C2305 C -0.02952 0.19934 0.90683
 C2306 C -0.00378 0.21402 0.90888
 C2307 C 0.01647 0.20572 0.92771
 C2308 C 0.01247 0.18109 0.94221
 C2309 C -0.01247 0.16496 0.93829
 C2310 C -0.03389 0.17491 0.92155
 C2311 C -0.01473 0.13842 0.94972
 C2312 C 0.00768 0.12780 0.96483
 C2313 C 0.03148 0.14481 0.97023
 C2314 C 0.03388 0.17128 0.95896
 H2315 H 0.03630 0.21721 0.92934
 H2316 H -0.05325 0.16295 0.91856
 H2317 H -0.03341 0.12558 0.94591
 H2318 H 0.05300 0.18354 0.96233
 H2319 H -0.04529 0.20547 0.89227
 H2320 H 0.04888 0.13711 0.98203
 C2321 C 0.47122 0.68578 0.41424
 C2322 C 0.49755 0.69938 0.41384
 C2323 C 0.51830 0.69267 0.43273
 C2324 C 0.51389 0.67040 0.45019
 C2325 C 0.48814 0.65515 0.44898
 C2326 C 0.46648 0.66371 0.43185
 C2327 C 0.48534 0.63034 0.46319
 C2328 C 0.50813 0.62029 0.47798
 C2329 C 0.53269 0.63673 0.48114
 C2330 C 0.53554 0.66179 0.46730
 H2331 H 0.53845 0.70369 0.43263
 H2332 H 0.44655 0.65236 0.43094
 H2333 H 0.46617 0.61786 0.46118
 H2334 H 0.55525 0.67349 0.46867
 H2335 H 0.45501 0.69100 0.39978
 H2336 H 0.55038 0.62931 0.49272
 C2337 C 0.48370 0.78910 0.42410
 C2338 C 0.49615 0.79209 0.39872
 C2339 C 0.50350 0.81862 0.38922
 C2340 C 0.49989 0.84194 0.40543
 C2341 C 0.48799 0.83886 0.43128
 C2342 C 0.47949 0.81240 0.44026
 C2343 C 0.48556 0.86217 0.44795
 C2344 C 0.49551 0.88828 0.43924
 C2345 C 0.50683 0.89114 0.41331
 C2346 C 0.50882 0.86817 0.39646
 H2347 H 0.51261 0.82108 0.36941
 H2348 H 0.47036 0.80965 0.46001
 H2349 H 0.47681 0.85984 0.46793
 H2350 H 0.51787 0.87083 0.37666
 H2351 H 0.47814 0.76872 0.43191
 H2352 H 0.51428 0.91118 0.40603
 C2353 C 0.00670 0.33394 0.87220
 C2354 C -0.00120 0.30922 0.88546
 C2355 C -0.01279 0.31054 0.91128
 C2356 C -0.01516 0.33625 0.92431
 C2357 C -0.00604 0.36089 0.91121
 C2358 C 0.00430 0.35959 0.88497
 C2359 C -0.00670 0.38637 0.92479
 C2360 C -0.01635 0.38765 0.95136
 C2361 C -0.02634 0.36325 0.96394
 C2362 C -0.02567 0.33770 0.95053
 H2363 H -0.01872 0.29157 0.92175
 H2364 H 0.01107 0.37832 0.87455
 H2365 H 0.00067 0.40515 0.91477
 H2366 H -0.03287 0.31905 0.96083
 H2367 H 0.01511 0.33342 0.85202
 H2368 H -0.03395 0.36379 0.98442
 C2369 C 0.45824 0.31906 0.12020
 C2370 C 0.47310 0.29693 0.10948
 C2371 C 0.48551 0.29921 0.08413
 C2372 C 0.48550 0.32464 0.07059
 C2373 C 0.47159 0.34739 0.08204
 C2374 C 0.45702 0.34410 0.10626
 C2375 C 0.47403 0.37353 0.07012
 C2376 C 0.49105 0.37763 0.04744
 C2377 C 0.50379 0.35468 0.03546
 C2378 C 0.50085 0.32829 0.04687
 H2379 H 0.49736 0.28206 0.07623
 H2380 H 0.44622 0.36136 0.11522
 H2381 H 0.46367 0.39093 0.07936
 H2382 H 0.51155 0.31101 0.03783
 H2383 H 0.44881 0.31734 0.13992
 H2384 H 0.51665 0.35724 0.01774
 C2385 C 0.00980 0.79335 0.56789
 C2386 C -0.00530 0.79462 0.59187
 C2387 C -0.02201 0.81728 0.59750
 C2388 C -0.02115 0.84034 0.58059
 C2389 C -0.00445 0.83989 0.55717
 C2390 C 0.00984 0.81581 0.55027
 C2391 C -0.00053 0.86415 0.54224
 C2392 C -0.01224 0.88907 0.55093
 C2393 C -0.03009 0.88894 0.57333
 C2394 C -0.03469 0.86465 0.58794
 H2395 H -0.03325 0.81805 0.61639
 H2396 H 0.02261 0.81512 0.53235
 H2397 H 0.01295 0.86390 0.52478
 H2398 H -0.04768 0.86523 0.60572
 H2399 H 0.02291 0.77578 0.56374
 H2400 H -0.03989 0.90779 0.58007
 C2401 C 0.20482 0.32174 0.05028
 C2402 C 0.23071 0.31752 0.03791
 C2403 C 0.24885 0.29760 0.04854
 C2404 C 0.24231 0.28375 0.07262
 C2405 C 0.21724 0.28984 0.08617
 C2406 C 0.19813 0.30803 0.07430
 C2407 C 0.21259 0.27905 0.11206
 C2408 C 0.23265 0.26220 0.12454
 C2409 C 0.25643 0.25458 0.11001
 C2410 C 0.26127 0.26534 0.08429
 H2411 H 0.26884 0.29426 0.03897
 H2412 H 0.17869 0.31274 0.08427
 H2413 H 0.19406 0.28488 0.12304
 H2414 H 0.28048 0.26028 0.07407
 H2415 H 0.19067 0.33714 0.04249
 H2416 H 0.27222 0.24174 0.11922
 C2417 C 0.71292 0.82077 0.55360
 C2418 C 0.73973 0.82029 0.54222
 C2419 C 0.75994 0.80258 0.55322
 C2420 C 0.75420 0.78723 0.57665
 C2421 C 0.72783 0.78949 0.58910
 C2422 C 0.70701 0.80551 0.57690
 C2423 C 0.72332 0.77714 0.61432
 C2424 C 0.74487 0.76265 0.62739
 C2425 C 0.77026 0.75876 0.61394
 C2426 C 0.77491 0.77101 0.58876
 H2427 H 0.78061 0.80193 0.54435
 H2428 H 0.68660 0.80727 0.58607
 H2429 H 0.70355 0.78005 0.62444
 H2430 H 0.79517 0.76886 0.57937
 H2431 H 0.69712 0.83435 0.54552
 H2432 H 0.78717 0.74777 0.62363
 C2433 C 0.21971 0.68021 0.55860
 C2434 C 0.24558 0.68285 0.54549
 C2435 C 0.26590 0.70212 0.55519
 C2436 C 0.26131 0.71719 0.57891
 C2437 C 0.23601 0.71298 0.59317
 C2438 C 0.21497 0.69511 0.58236
 C2439 C 0.23305 0.72521 0.61876
 C2440 C 0.25514 0.74141 0.63005
 C2441 C 0.27936 0.74689 0.61501
 C2442 C 0.28239 0.73503 0.58953
 H2443 H 0.28582 0.70433 0.54494
 H2444 H 0.19538 0.69175 0.59288
 H2445 H 0.21456 0.72056 0.63064
 H2446 H 0.30183 0.73858 0.57881
 H2447 H 0.20384 0.66539 0.55137
 H2448 H 0.29671 0.75896 0.62375
 C2449 C 0.72314 0.15124 0.07141
 C2450 C 0.73271 0.16937 0.05127
 C2451 C 0.73437 0.19814 0.05624
 C2452 C 0.72843 0.20856 0.08205
 C2453 C 0.72047 0.18985 0.10271
 C2454 C 0.71689 0.16141 0.09694
 C2455 C 0.71827 0.19949 0.12923
 C2456 C 0.72441 0.22748 0.13566
 C2457 C 0.73010 0.24642 0.11483
 C2458 C 0.73208 0.23701 0.08814
 H2459 H 0.74194 0.21206 0.04062
 H2460 H 0.71064 0.14686 0.11252
 H2461 H 0.71368 0.18480 0.14524
 H2462 H 0.73796 0.25171 0.07256
 H2463 H 0.72182 0.12901 0.06770
 H2464 H 0.73501 0.26806 0.11942
 C2465 C 0.71512 0.17373 0.94023
 C2466 C 0.73938 0.18045 0.95536
 C2467 C 0.75862 0.20058 0.94555
 C2468 C 0.75521 0.21170 0.91967
 C2469 C 0.73187 0.20309 0.90368
 C2470 C 0.71136 0.18501 0.91453
 C2471 C 0.73019 0.21156 0.87672
 C2472 C 0.75150 0.22856 0.86549
 C2473 C 0.77372 0.23839 0.88199
 C2474 C 0.77563 0.22993 0.90889
 H2475 H 0.77728 0.20603 0.95731
 H2476 H 0.69319 0.17844 0.90260
 H2477 H 0.71266 0.20430 0.86423
 H2478 H 0.79356 0.23687 0.92097
 H2479 H 0.70019 0.15816 0.94739
 H2480 H 0.79022 0.25165 0.87378
 C2481 C 0.22087 0.67734 0.43908
 C2482 C 0.24743 0.67694 0.45147
 C2483 C 0.26985 0.69226 0.43992
 C2484 C 0.26623 0.70628 0.41537
 C2485 C 0.23990 0.70478 0.40207
 C2486 C 0.21717 0.69092 0.41442
 C2487 C 0.23704 0.71626 0.37622
 C2488 C 0.26003 0.72958 0.36363
 C2489 C 0.28561 0.73258 0.37771
 C2490 C 0.28876 0.72084 0.40334
 H2491 H 0.29032 0.69258 0.44968
 H2492 H 0.19672 0.68994 0.40466
 H2493 H 0.21714 0.71411 0.36551
 H2494 H 0.30903 0.72240 0.41340
 H2495 H 0.20327 0.66609 0.44779
 H2496 H 0.30354 0.74269 0.36830
 C2497 C 0.73654 0.85602 0.42514
 C2498 C 0.74090 0.83848 0.44723
 C2499 C 0.74360 0.80973 0.44302
 C2500 C 0.74379 0.79888 0.41657
 C2501 C 0.74080 0.81709 0.39446
 C2502 C 0.73630 0.84541 0.39897
 C2503 C 0.74359 0.80702 0.36814
 C2504 C 0.74938 0.77892 0.36329
 C2505 C 0.75086 0.76056 0.38519
 C2506 C 0.74823 0.77050 0.41168
 H2507 H 0.74735 0.79625 0.46009
 H2508 H 0.73381 0.85957 0.38221
 H2509 H 0.74183 0.82129 0.35135
 H2510 H 0.75039 0.75615 0.42832
 H2511 H 0.73464 0.87823 0.42816
 H2512 H 0.75506 0.73877 0.38189
 C2513 C 0.23587 0.35584 0.92062
 C2514 C 0.23691 0.33772 0.94268
 C2515 C 0.23651 0.30877 0.93814
 C2516 C 0.23688 0.29818 0.91156
 C2517 C 0.23707 0.31684 0.88960
 C2518 C 0.23571 0.34553 0.89433
 C2519 C 0.23988 0.30673 0.86326
 C2520 C 0.24284 0.27812 0.85818
 C2521 C 0.24129 0.25949 0.87993
 C2522 C 0.23839 0.26944 0.90641
 H2523 H 0.23768 0.29475 0.95516
 H2524 H 0.23570 0.36008 0.87769
 H2525 H 0.24054 0.32137 0.84668
 H2526 H 0.23814 0.25474 0.92291
 H2527 H 0.23630 0.37817 0.92382
 H2528 H 0.24334 0.23737 0.87658
 C2529 C 0.83886 0.44582 0.73046
 C2530 C 0.84783 0.45484 0.75615
 C2531 C 0.83814 0.43987 0.77888
 C2532 C 0.82225 0.41502 0.77590
 C2533 C 0.81456 0.40551 0.74989
 C2534 C 0.82229 0.42147 0.72735
 C2535 C 0.80004 0.37984 0.74683
 C2536 C 0.79354 0.36310 0.76944
 C2537 C 0.80089 0.37316 0.79526
 C2538 C 0.81489 0.39895 0.79847
 H2539 H 0.84375 0.44695 0.79901
 H2540 H 0.81639 0.41458 0.70721
 H2541 H 0.79461 0.37254 0.72670
 H2542 H 0.82063 0.40598 0.81860
 H2543 H 0.84561 0.45679 0.71263
 H2544 H 0.79609 0.36095 0.81300
 C2545 C 0.34390 0.95023 0.23004
 C2546 C 0.35438 0.95894 0.25538
 C2547 C 0.34739 0.94256 0.27815
 C2548 C 0.33174 0.91746 0.27539
 C2549 C 0.32213 0.90879 0.24968
 C2550 C 0.32797 0.92552 0.22722
 C2551 C 0.30720 0.88336 0.24673
 C2552 C 0.30194 0.86602 0.26915
 C2553 C 0.31137 0.87507 0.29475
 C2554 C 0.32598 0.90059 0.29785
 H2555 H 0.35410 0.94908 0.29814
 H2556 H 0.32062 0.91923 0.20731
 H2557 H 0.30020 0.87687 0.22677
 H2558 H 0.33318 0.90692 0.31779
 H2559 H 0.34842 0.96201 0.21211
 H2560 H 0.30767 0.86233 0.31237
 C2561 C 0.16917 0.94760 0.77621
 C2562 C 0.15419 0.95421 0.75263
 C2563 C 0.15890 0.93895 0.72889
 C2564 C 0.17719 0.91624 0.72924
 C2565 C 0.19141 0.90940 0.75339
 C2566 C 0.18770 0.92558 0.77656
 C2567 C 0.20837 0.88593 0.75435
 C2568 C 0.21111 0.86852 0.73165
 C2569 C 0.19749 0.87593 0.70748
 C2570 C 0.18081 0.89959 0.70626
 H2571 H 0.14733 0.94385 0.71065
 H2572 H 0.19855 0.92072 0.79520
 H2573 H 0.21867 0.88074 0.77320
 H2574 H 0.17015 0.90444 0.68752
 H2575 H 0.16616 0.95929 0.79462
 H2576 H 0.19914 0.86305 0.68964
 C2577 C 0.67070 0.44654 0.28270
 C2578 C 0.65323 0.45357 0.26095
 C2579 C 0.65326 0.43714 0.23737
 C2580 C 0.66948 0.41296 0.23624
 C2581 C 0.68639 0.40584 0.25862
 C2582 C 0.68733 0.42309 0.28147
 C2583 C 0.70130 0.38103 0.25834
 C2584 C 0.69928 0.36252 0.23625
 C2585 C 0.68298 0.37011 0.21374
 C2586 C 0.66833 0.39514 0.21369
 H2587 H 0.63956 0.44231 0.22063
 H2588 H 0.70024 0.41795 0.29877
 H2589 H 0.71380 0.37576 0.27590
 H2590 H 0.65551 0.40018 0.19630
 H2591 H 0.67099 0.45895 0.30097
 H2592 H 0.68096 0.35638 0.19643
 C2593 C 0.66190 0.55828 0.23355
 C2594 C 0.65326 0.55025 0.25942
 C2595 C 0.66353 0.56587 0.28181
 C2596 C 0.68044 0.58996 0.27830
 C2597 C 0.68805 0.59830 0.25211
 C2598 C 0.67913 0.58201 0.22992
 C2599 C 0.70380 0.62314 0.24849
 C2600 C 0.71176 0.64017 0.27071
 C2601 C 0.70455 0.63122 0.29675
 C2602 C 0.68920 0.60632 0.30051
 H2603 H 0.65808 0.55963 0.30208
 H2604 H 0.68488 0.58801 0.20965
 H2605 H 0.70908 0.62957 0.22821
 H2606 H 0.68360 0.60019 0.32078
 H2607 H 0.65462 0.54688 0.21596
 H2608 H 0.71034 0.64371 0.31424
 C2609 C 0.16409 0.05729 0.72507
 C2610 C 0.15469 0.04877 0.75052
 C2611 C 0.16493 0.06325 0.77359
 C2612 C 0.18260 0.08690 0.77114
 C2613 C 0.19112 0.09574 0.74536
 C2614 C 0.18224 0.08046 0.72250
 C2615 C 0.20756 0.12022 0.74278
 C2616 C 0.21510 0.13654 0.76560
 C2617 C 0.20697 0.12715 0.79121
 C2618 C 0.19109 0.10244 0.79398
 H2619 H 0.15871 0.05655 0.79351
 H2620 H 0.18862 0.08696 0.70255
 H2621 H 0.21347 0.12710 0.72280
 H2622 H 0.18474 0.09591 0.81393
 H2623 H 0.15660 0.04677 0.70700
 H2624 H 0.21245 0.13916 0.80910
 C2625 C 0.32710 0.05880 0.27188
 C2626 C 0.34554 0.05390 0.25061
 C2627 C 0.34334 0.06971 0.22686
 C2628 C 0.32410 0.09157 0.22524
 C2629 C 0.30650 0.09689 0.24733
 C2630 C 0.30761 0.07990 0.27018
 C2631 C 0.28910 0.11999 0.24692
 C2632 C 0.28927 0.13857 0.22503
 C2633 C 0.30579 0.13246 0.20254
 C2634 C 0.32300 0.10911 0.20262
 H2635 H 0.35770 0.06614 0.21047
 H2636 H 0.29417 0.08365 0.28723
 H2637 H 0.27632 0.12422 0.26434
 H2638 H 0.33625 0.10540 0.18543
 H2639 H 0.32843 0.04675 0.29025
 H2640 H 0.30644 0.14643 0.18547
 C2641 C 0.83969 0.56044 0.77956
 C2642 C 0.85408 0.55171 0.75659
 C2643 C 0.85049 0.56639 0.73221
 C2644 C 0.83369 0.59031 0.73133
 C2645 C 0.81994 0.59896 0.75488
 C2646 C 0.82271 0.58364 0.77869
 C2647 C 0.80411 0.62320 0.75461
 C2648 C 0.80183 0.63971 0.73124
 C2649 C 0.81513 0.63072 0.70768
 C2650 C 0.83085 0.60624 0.70771
 H2651 H 0.86161 0.55991 0.71441
 H2652 H 0.81218 0.58996 0.79689
 H2653 H 0.79395 0.62943 0.77304
 H2654 H 0.84118 0.60005 0.68938
 H2655 H 0.84182 0.54935 0.79841
 H2656 H 0.81383 0.64285 0.68938
 C2657 C 0.96072 0.74067 0.16684
 C2658 C 0.95579 0.74781 0.13977
 C2659 C 0.92849 0.75319 0.13098
 C2660 C 0.90654 0.75314 0.14925
 C2661 C 0.91160 0.74651 0.17662
 C2662 C 0.93869 0.73977 0.18511
 C2663 C 0.88961 0.74732 0.19504
 C2664 C 0.86289 0.75526 0.18640
 C2665 C 0.85816 0.76167 0.15908
 C2666 C 0.87976 0.76045 0.14065
 H2667 H 0.92448 0.75829 0.11003
 H2668 H 0.94299 0.73470 0.20599
 H2669 H 0.89335 0.74223 0.21603
 H2670 H 0.87558 0.76553 0.11974
 H2671 H 0.98171 0.73690 0.17425
 H2672 H 0.83757 0.76729 0.15178
 C2673 C 0.46567 0.22984 0.67400
 C2674 C 0.46714 0.24977 0.65339
 C2675 C 0.44542 0.26878 0.65051
 C2676 C 0.42226 0.26758 0.66731
 C2677 C 0.42035 0.24696 0.68746
 C2678 C 0.44242 0.22847 0.69099
 C2679 C 0.39591 0.24457 0.70286
 C2680 C 0.37339 0.26227 0.69781
 C2681 C 0.37622 0.28344 0.67850
 C2682 C 0.40046 0.28610 0.66341
 H2683 H 0.44560 0.28374 0.63424
 H2684 H 0.44141 0.21260 0.70643
 H2685 H 0.39392 0.22820 0.71774
 H2686 H 0.40183 0.30216 0.64817
 H2687 H 0.48230 0.21516 0.67684
 H2688 H 0.35936 0.29761 0.67454
 C2689 C 0.43431 0.71420 0.86355
 C2690 C 0.45561 0.73360 0.85738
 C2691 C 0.45356 0.75025 0.83445
 C2692 C 0.42898 0.74942 0.81892
 C2693 C 0.40672 0.73095 0.82600
 C2694 C 0.41001 0.71259 0.84765
 C2695 C 0.38096 0.73243 0.81248
 C2696 C 0.37693 0.75257 0.79244
 C2697 C 0.39964 0.76981 0.78459
 C2698 C 0.42554 0.76816 0.79768
 H2699 H 0.47009 0.76548 0.83016
 H2700 H 0.39318 0.69825 0.85325
 H2701 H 0.36374 0.71871 0.81843
 H2702 H 0.44248 0.78232 0.79197
 H2703 H 0.43582 0.70153 0.88151
 H2704 H 0.39718 0.78524 0.76894
 C2705 C 0.94009 0.21210 0.34053
 C2706 C 0.94949 0.23910 0.34774
 C2707 C 0.93711 0.26208 0.33550
 C2708 C 0.91405 0.25859 0.31840
 C2709 C 0.90251 0.23164 0.31357
 C2710 C 0.91627 0.20841 0.32395
 C2711 C 0.87701 0.22876 0.29931
 C2712 C 0.86392 0.25252 0.28930
 C2713 C 0.87685 0.27885 0.29247
 C2714 C 0.90164 0.28192 0.30713
 H2715 H 0.94523 0.28298 0.33962
 H2716 H 0.90808 0.18754 0.32000
 H2717 H 0.86713 0.20838 0.29646
 H2718 H 0.91059 0.30263 0.31043
 H2719 H 0.94950 0.19400 0.34945
 H2720 H 0.86694 0.29732 0.28481
 C2721 C 0.03981 0.23447 0.32600
 C2722 C 0.04304 0.24702 0.35145
 C2723 C 0.06965 0.25679 0.36006
 C2724 C 0.09270 0.25487 0.34319
 C2725 C 0.08936 0.24243 0.31747
 C2726 C 0.06288 0.23212 0.30911
 C2727 C 0.11251 0.24071 0.30055
 C2728 C 0.13885 0.25156 0.30893
 C2729 C 0.14188 0.26392 0.33453
 C2730 C 0.11899 0.26544 0.35159
 H2731 H 0.07250 0.26586 0.37996
 H2732 H 0.05996 0.22256 0.28943
 H2733 H 0.10993 0.23123 0.28079
 H2734 H 0.12182 0.27502 0.37127
 H2735 H 0.01940 0.22702 0.31892
 H2736 H 0.16202 0.27222 0.34152
 C2737 C 0.55800 0.78206 0.84230
 C2738 C 0.54837 0.75643 0.85282
 C2739 C 0.56186 0.73197 0.84564
 C2740 C 0.58548 0.73310 0.82928
 C2741 C 0.59601 0.75913 0.82016
 C2742 C 0.58180 0.78342 0.82627
 C2743 C 0.62084 0.76044 0.80549
 C2744 C 0.63474 0.73598 0.79932
 C2745 C 0.62360 0.71008 0.80735
 C2746 C 0.59922 0.70865 0.82253
 H2747 H 0.55497 0.71215 0.85371
 H2748 H 0.58931 0.80348 0.81902
 H2749 H 0.62936 0.78037 0.79884
 H2750 H 0.59129 0.68853 0.82922
 H2751 H 0.54746 0.80118 0.84686
 H2752 H 0.63425 0.69107 0.80254
 C2753 C 0.57803 0.20453 0.62614
 C2754 C 0.55477 0.21714 0.63752
 C2755 C 0.55524 0.22527 0.66459
 C2756 C 0.58040 0.22485 0.67916
 C2757 C 0.60457 0.21409 0.66700
 C2758 C 0.60275 0.20239 0.64111
 C2759 C 0.63061 0.21764 0.67976
 C2760 C 0.63305 0.23301 0.70384
 C2761 C 0.60871 0.24211 0.71660
 C2762 C 0.58248 0.23776 0.70446
 H2763 H 0.53723 0.23544 0.67302
 H2764 H 0.62108 0.19396 0.63160
 H2765 H 0.64916 0.21008 0.66993
 H2766 H 0.56410 0.24597 0.71406
 H2767 H 0.57772 0.19848 0.60508
 H2768 H 0.60999 0.25338 0.73552
 C2769 C 0.05070 0.78207 0.17283
 C2770 C 0.04656 0.75912 0.15560
 C2771 C 0.06345 0.73593 0.15789
 C2772 C 0.08666 0.73692 0.17516
 C2773 C 0.09184 0.76075 0.19151
 C2774 C 0.07304 0.78267 0.19113
 C2775 C 0.11686 0.76328 0.20621
 C2776 C 0.13729 0.74305 0.20353
 C2777 C 0.13148 0.71887 0.18832
 C2778 C 0.10607 0.71561 0.17453
 H2779 H 0.06022 0.71839 0.14429
 H2780 H 0.07666 0.80099 0.20360
 H2781 H 0.12134 0.78198 0.21795
 H2782 H 0.10233 0.69722 0.16217
 H2783 H 0.03741 0.79997 0.17121
 H2784 H 0.14693 0.70288 0.18646
   
