data_POSCAR
  _audit_creation_date              2014-09-24
  _audit_creation_method            'ToBaCCo'
  _symmetry_space_group_name_H-M    'P1'
  _symmetry_Int_Tables_number       1
  _symmetry_cell_setting            triclinic
  loop_
  _symmetry_equiv_pos_as_xyz
 x,y,z
_cell_length_a 62.0829
_cell_length_b 62.0829
_cell_length_c 62.0829
_cell_angle_alpha 90.000000
_cell_angle_beta 90.000000
_cell_angle_gamma 90.000000
loop_
  _atom_site_label
  _atom_site_type_symbol
  _atom_site_fract_x
  _atom_site_fract_y
  _atom_site_fract_z
C1 C 0.19225 0.21054 0.22503
 C2 C 0.19438 0.22432 0.20620
 C3 C 0.21123 0.22146 0.19026
 C4 C 0.22624 0.20427 0.19419
 C5 C 0.22554 0.18994 0.21232
 C6 C 0.20805 0.19330 0.22709
 H7 H 0.18285 0.23717 0.20387
 H8 H 0.23887 0.20188 0.18245
 H9 H 0.20700 0.18236 0.24058
 C10 C 0.69226 0.71281 0.72483
 C11 C 0.70784 0.69555 0.72711
 C12 C 0.72530 0.69214 0.71189
 C13 C 0.72603 0.70667 0.69352
 C14 C 0.71097 0.72387 0.69004
 C15 C 0.69456 0.72633 0.70616
 H16 H 0.70702 0.68546 0.74130
 H17 H 0.73821 0.70429 0.68131
 H18 H 0.68325 0.73946 0.70432
 C19 C 0.30923 0.78870 0.72757
 C20 C 0.30579 0.77389 0.71014
 C21 C 0.28849 0.77589 0.69443
 C22 C 0.27468 0.79470 0.69652
 C23 C 0.27755 0.81071 0.71329
 C24 C 0.29482 0.80682 0.72828
 H25 H 0.31671 0.76037 0.70907
 H26 H 0.26176 0.79693 0.68504
 H27 H 0.29719 0.81853 0.74093
 C28 C 0.80629 0.28937 0.22555
 C29 C 0.80455 0.27538 0.20672
 C30 C 0.78759 0.27756 0.19071
 C31 C 0.77219 0.29447 0.19430
 C32 C 0.77259 0.30917 0.21212
 C33 C 0.79003 0.30637 0.22700
 H34 H 0.81634 0.26277 0.20443
 H35 H 0.75961 0.29642 0.18244
 H36 H 0.79075 0.31817 0.23969
 C37 C 0.80979 0.71579 0.27526
 C38 C 0.79672 0.69721 0.27006
 C39 C 0.77786 0.69064 0.28230
 C40 C 0.77294 0.70325 0.30106
 C41 C 0.78547 0.72159 0.30807
 C42 C 0.80350 0.72731 0.29470
 H43 H 0.80095 0.68800 0.25593
 H44 H 0.75862 0.69897 0.30996
 H45 H 0.81331 0.74042 0.30048
 C46 C 0.30888 0.21502 -0.22330
 C47 C 0.30171 0.22699 -0.20452
 C48 C 0.28311 0.22157 -0.19191
 C49 C 0.27137 0.20247 -0.19846
 C50 C 0.27747 0.18889 -0.21637
 C51 C 0.29644 0.19603 -0.22832
 H52 H 0.31067 0.24086 -0.19918
 H53 H 0.25766 0.19772 -0.18890
 H54 H 0.30101 0.18761 -0.24275
 C55 C 0.69198 0.29029 -0.22328
 C56 C 0.70830 0.30700 -0.22406
 C57 C 0.72553 0.30901 -0.20867
 C58 C 0.72633 0.29267 -0.19197
 C59 C 0.71088 0.27549 -0.18990
 C60 C 0.69409 0.27479 -0.20615
 H61 H 0.70742 0.31899 -0.23665
 H62 H 0.73899 0.29350 -0.18004
 H63 H 0.68212 0.26218 -0.20530
 C64 C 0.19230 0.78634 0.27636
 C65 C 0.20696 0.80450 0.27332
 C66 C 0.22554 0.80828 0.28716
 C67 C 0.22754 0.79376 0.30523
 C68 C 0.21415 0.77551 0.30933
 C69 C 0.19654 0.77244 0.29473
 H70 H 0.20473 0.81468 0.25935
 H71 H 0.23981 0.79682 0.31718
 H72 H 0.18631 0.75859 0.29738
 C73 C 0.45991 0.44078 0.47564
 C74 C 0.47516 0.44491 0.45876
 C75 C 0.47362 0.46293 0.44384
 C76 C 0.45507 0.47702 0.44647
 C77 C 0.43901 0.47384 0.46317
 C78 C 0.44252 0.45589 0.47740
 H79 H 0.48805 0.43337 0.45682
 H80 H 0.45306 0.49036 0.43544
 H81 H 0.43112 0.45354 0.49036
 C82 C -0.03298 -0.05944 0.97096
 C83 C -0.05188 -0.04681 0.97586
 C84 C -0.05907 -0.02847 0.96328
 C85 C -0.04611 -0.02304 0.94485
 C86 C -0.02728 -0.03510 0.93812
 C87 C -0.02131 -0.05295 0.95166
 H88 H -0.06065 -0.05078 0.99032
 H89 H -0.05105 -0.00925 0.93551
 H90 H -0.00787 -0.06246 0.94617
 C91 C 1.03761 0.55924 0.97615
 C92 C 1.02368 0.55514 0.95773
 C93 C 1.02706 0.53713 0.94300
 C94 C 1.04599 0.52390 0.94677
 C95 C 1.06109 0.52766 0.96380
 C96 C 1.05615 0.54525 0.97788
 H97 H 1.00944 0.56497 0.95566
 H98 H 1.04932 0.51070 0.93588
 H99 H 1.06777 0.54838 0.99040
 C100 C 0.53882 0.06053 0.47482
 C101 C 0.52472 0.05667 0.45696
 C102 C 0.52735 0.03894 0.44189
 C103 C 0.54532 0.02432 0.44588
 C104 C 0.56065 0.02750 0.46334
 C105 C 0.55591 0.04533 0.47757
 H106 H 0.51179 0.06807 0.45442
 H107 H 0.54815 0.01141 0.43452
 H108 H 0.56552 0.04744 0.49190
 C109 C -0.03986 0.06021 0.52511
 C110 C -0.05742 0.04593 0.52053
 C111 C -0.06331 0.02727 0.53312
 C112 C -0.04896 0.02258 0.55080
 C113 C -0.03073 0.03610 0.55698
 C114 C -0.02662 0.05477 0.54350
 H115 H -0.06635 0.04967 0.50612
 H116 H -0.05240 0.00842 0.56028
 H117 H -0.01373 0.06564 0.54792
 C118 C 0.45936 0.55620 0.02377
 C119 C 0.44276 0.53958 0.02362
 C120 C 0.44124 0.52235 0.03904
 C121 C 0.45734 0.52233 0.05594
 C122 C 0.47438 0.53794 0.05761
 C123 C 0.47449 0.55482 0.04141
 H124 H 0.43041 0.53973 0.01148
 H125 H 0.45683 0.50986 0.06804
 H126 H 0.48681 0.56700 0.04244
 C127 C 0.53572 -0.06143 0.02841
 C128 C 0.55445 -0.04848 0.02347
 C129 C 0.56072 -0.02935 0.03544
 C130 C 0.54755 -0.02397 0.05373
 C131 C 0.52870 -0.03607 0.06019
 C132 C 0.52362 -0.05464 0.04734
 H133 H 0.56403 -0.05303 0.00970
 H134 H 0.55198 -0.00985 0.06290
 H135 H 0.50992 -0.06388 0.05263
 C136 C 1.03730 0.44016 0.52698
 C137 C 1.02356 0.44577 0.54498
 C138 C 1.02714 0.46472 0.55824
 C139 C 1.04571 0.47799 0.55271
 C140 C 1.05962 0.47398 0.53454
 C141 C 1.05477 0.45465 0.52254
 H142 H 1.01015 0.43530 0.54876
 H143 H 1.04897 0.49212 0.56235
 H144 H 1.06541 0.44989 0.50964
 C145 C 0.41243 0.00950 0.21959
 H146 H 0.41343 0.02331 0.23017
 C147 C 0.42736 0.00793 0.20201
 H148 H 0.43913 0.02065 0.20049
 C149 C 0.39679 -0.02329 0.20985
 H150 H 0.38503 -0.03587 0.21251
 C151 C 0.41153 -0.02541 0.19186
 H152 H 0.41013 -0.03938 0.18154
 N153 N 0.39702 -0.00582 0.22363
 C154 C 0.33920 0.03206 0.25882
 H155 H 0.33644 0.02259 0.27318
 C156 C 0.32546 0.05045 0.25479
 H157 H 0.31304 0.05434 0.26639
 C158 C 0.35835 0.03858 0.22709
 H159 H 0.37092 0.03439 0.21577
 C160 C 0.34519 0.05708 0.22265
 H161 H 0.34843 0.06598 0.20803
 Zn162 Zn 0.37602 -0.00125 0.25071
 N163 N 0.35571 0.02611 0.24516
 C164 C 0.39480 0.02344 0.28952
 N165 N 0.39617 0.00435 0.27842
 C166 C 0.41156 -0.00999 0.28569
 C167 C 0.42578 -0.00539 0.30363
 C168 C 0.40863 0.02860 0.30737
 C169 C 0.33994 -0.03501 0.24095
 C170 C 0.32586 -0.05325 0.24459
 C171 C 0.34321 -0.05880 0.27826
 C172 C 0.35679 -0.04052 0.27414
 N173 N 0.35549 -0.02864 0.25553
 H174 H 0.38296 0.03519 0.28449
 H175 H 0.41330 -0.02523 0.27741
 H176 H 0.43773 -0.01727 0.30809
 H177 H 0.40619 0.04399 0.31515
 H178 H 0.33821 -0.02599 0.22614
 H179 H 0.31429 -0.05751 0.23226
 H180 H 0.34535 -0.06716 0.29340
 H181 H 0.36852 -0.03595 0.28619
 C182 C 0.32817 0.06392 0.23647
 C183 C 0.42740 -0.00955 0.18707
 C184 C 0.32718 -0.06611 0.26350
 C185 C 0.42506 0.01447 0.31508
 C186 C 0.08758 -0.01000 0.71469
 H187 H 0.08675 -0.02419 0.72478
 C188 C 0.07224 -0.00772 0.69749
 H189 H 0.06068 -0.02056 0.69528
 C190 C 0.10328 0.02295 0.70566
 H191 H 0.11509 0.03543 0.70854
 C192 C 0.08820 0.02575 0.68805
 H193 H 0.08914 0.04027 0.67845
 N194 N 0.10300 0.00523 0.71912
 C195 C 0.16134 -0.03001 0.75570
 H196 H 0.16356 -0.01884 0.76890
 C197 C 0.17662 -0.04719 0.75303
 H198 H 0.18970 -0.04830 0.76449
 C199 C 0.14235 -0.04156 0.72534
 H200 H 0.12927 -0.03966 0.71399
 C201 C 0.15723 -0.05929 0.72232
 H202 H 0.15491 -0.06997 0.70874
 Zn203 Zn 0.12386 0.00071 0.74648
 N204 N 0.14434 -0.02683 0.74189
 C205 C 0.10379 -0.02144 0.78745
 N206 N 0.10351 -0.00364 0.77410
 C207 C 0.08836 0.01177 0.77882
 C208 C 0.07326 0.00959 0.79621
 C209 C 0.08893 -0.02415 0.80524
 C210 C 0.15874 0.03368 0.73484
 C211 C 0.17397 0.05097 0.73698
 C212 C 0.16074 0.05796 0.77220
 C213 C 0.14559 0.04041 0.76942
 N214 N 0.14462 0.02810 0.75091
 H215 H 0.11542 -0.03403 0.78431
 H216 H 0.08758 0.02602 0.76882
 H217 H 0.06189 0.02255 0.79867
 H218 H 0.08983 -0.03873 0.81475
 H219 H 0.15852 0.02454 0.72000
 H220 H 0.18427 0.05424 0.72333
 H221 H 0.16085 0.06658 0.78734
 H222 H 0.13482 0.03656 0.78257
 C223 C 0.17529 -0.06257 0.73604
 C224 C 0.07171 0.01048 0.68348
 C225 C 0.17591 0.06375 0.75600
 C226 C 0.07271 -0.00870 0.81010
 C227 C 0.58673 0.49291 0.21680
 H228 H 0.58418 0.47821 0.22581
 C229 C 0.57327 0.49706 0.19820
 H230 H 0.56127 0.48523 0.19374
 C231 C 0.60512 0.52530 0.21153
 H232 H 0.61728 0.53683 0.21627
 C233 C 0.59219 0.52992 0.19290
 H234 H 0.59518 0.54492 0.18457
 N235 N 0.60274 0.50683 0.22347
 C236 C 0.65944 0.46735 0.25887
 H237 H 0.66231 0.47671 0.27329
 C238 C 0.67304 0.44887 0.25471
 H239 H 0.68543 0.44481 0.26628
 C240 C 0.64025 0.46123 0.22709
 H241 H 0.62775 0.46563 0.21579
 C242 C 0.65329 0.44266 0.22250
 H243 H 0.65000 0.43395 0.20778
 Zn244 Zn 0.62308 0.50122 0.25089
 N245 N 0.64299 0.47354 0.24526
 C246 C 0.60567 0.47813 0.29131
 N247 N 0.60295 0.49611 0.27870
 C248 C 0.58644 0.50977 0.28471
 C249 C 0.57276 0.50579 0.30321
 C250 C 0.59260 0.47376 0.30993
 C251 C 0.65961 0.53188 0.23955
 C252 C 0.67474 0.54931 0.24075
 C253 C 0.65935 0.56005 0.27410
 C254 C 0.64440 0.54219 0.27236
 N255 N 0.64431 0.52819 0.25507
 H256 H 0.61822 0.46680 0.28711
 H257 H 0.58356 0.52406 0.27516
 H258 H 0.56033 0.51738 0.30708
 H259 H 0.59595 0.45922 0.31892
 H260 H 0.66036 0.52111 0.22587
 H261 H 0.68640 0.55052 0.22789
 H262 H 0.65820 0.57057 0.28794
 H263 H 0.63274 0.53981 0.28509
 C264 C 0.67025 0.43556 0.23628
 C265 C 0.57574 0.51581 0.18526
 C266 C 0.67511 0.56448 0.25802
 C267 C 0.57554 0.48754 0.31680
 C268 C 0.91151 0.51116 0.71817
 H269 H 0.91232 0.52546 0.72810
 C270 C 0.92602 0.50931 0.70023
 H271 H 0.93727 0.52237 0.69775
 C272 C 0.89674 0.47751 0.71028
 H273 H 0.88548 0.46468 0.71378
 C274 C 0.91113 0.47505 0.69201
 H275 H 0.90996 0.46060 0.68235
 N276 N 0.89669 0.49556 0.72331
 C277 C 0.83951 0.53440 0.75941
 H278 H 0.83712 0.52533 0.77409
 C279 C 0.82572 0.55278 0.75530
 H280 H 0.81368 0.55704 0.76717
 C281 C 0.85771 0.53999 0.72697
 H282 H 0.86989 0.53544 0.71538
 C283 C 0.84449 0.55845 0.72244
 H284 H 0.84735 0.56693 0.70749
 Zn285 Zn 0.87607 0.50053 0.75088
 N286 N 0.85559 0.52797 0.74543
 C287 C 0.89657 0.52390 0.79123
 N288 N 0.89668 0.50576 0.77832
 C289 C 0.91157 0.49028 0.78359
 C290 C 0.92597 0.49230 0.80160
 C291 C 0.91088 0.52655 0.80952
 C292 C 0.83977 0.46601 0.74307
 C293 C 0.82584 0.44793 0.74801
 C294 C 0.84503 0.44321 0.78076
 C295 C 0.85841 0.46130 0.77537
 N296 N 0.85593 0.47292 0.75672
 H297 H 0.88524 0.53663 0.78762
 H298 H 0.91249 0.47591 0.77376
 H299 H 0.93725 0.47931 0.80428
 H300 H 0.90959 0.54105 0.81910
 H301 H 0.83718 0.47468 0.72818
 H302 H 0.81325 0.44377 0.73670
 H303 H 0.84860 0.43494 0.79565
 H304 H 0.87091 0.46599 0.78656
 C305 C 0.82792 0.56578 0.73656
 C306 C 0.92634 0.49118 0.68607
 C307 C 0.82777 0.43587 0.76743
 C308 C 0.92612 0.51052 0.81562
 C309 C 0.21863 0.41064 0.00924
 H310 H 0.22942 0.41239 0.02281
 C311 C 0.20165 0.42610 0.00648
 H312 H 0.20028 0.43886 0.01826
 C313 C 0.20778 0.39251 -0.02193
 H314 H 0.20989 0.37967 -0.03352
 C315 C 0.19029 0.40759 -0.02508
 H316 H 0.17997 0.40569 -0.03900
 N317 N 0.22202 0.39400 -0.00493
 C318 C 0.25645 0.33487 0.03010
 H319 H 0.26937 0.33201 0.01875
 C320 C 0.25327 0.31975 0.04732
 H321 H 0.26406 0.30609 0.04826
 C322 C 0.22728 0.35539 0.04211
 H323 H 0.21663 0.36907 0.04040
 C324 C 0.22377 0.34069 0.05988
 H325 H 0.21050 0.34370 0.07077
 Zn326 Zn 0.24888 0.37297 -0.00018
 N327 N 0.24348 0.35255 0.02715
 C328 C 0.28860 0.39018 0.02388
 N329 N 0.27681 0.39264 0.00532
 C330 C 0.28359 0.40873 -0.00846
 C331 C 0.30210 0.42223 -0.00405
 C332 C 0.30715 0.40314 0.02874
 C333 C 0.23741 0.33725 -0.03191
 C334 C 0.23885 0.32241 -0.04958
 C335 C 0.27251 0.33773 -0.05941
 C336 C 0.27053 0.35237 -0.04132
 N337 N 0.25299 0.35234 -0.02764
 H338 H 0.28372 0.37799 0.03533
 H339 H 0.27465 0.41141 -0.02318
 H340 H 0.30661 0.43434 -0.01575
 H341 H 0.31533 0.40011 0.04382
 H342 H 0.22355 0.33638 -0.02139
 H343 H 0.22594 0.31085 -0.05121
 H344 H 0.28658 0.33895 -0.06962
 H345 H 0.28332 0.36385 -0.03846
 C346 C 0.23660 0.32196 0.06294
 C347 C 0.18680 0.42529 -0.01099
 C348 C 0.25642 0.32215 -0.06442
 C349 C 0.31485 0.41974 0.01484
 C350 C 0.72016 0.08746 -0.00951
 H351 H 0.73094 0.08630 -0.02315
 C352 C 0.70265 0.07244 -0.00794
 H353 H 0.70140 0.06046 -0.02050
 C354 C 0.70989 0.10353 0.02290
 H355 H 0.71232 0.11548 0.03534
 C356 C 0.69195 0.08870 0.02499
 H357 H 0.68143 0.09023 0.03881
 N358 N 0.72391 0.10314 0.00562
 C359 C 0.75899 0.16062 -0.03325
 H360 H 0.77374 0.16334 -0.02437
 C361 C 0.75410 0.17462 -0.05129
 H362 H 0.76530 0.18739 -0.05522
 C363 C 0.72698 0.14162 -0.03849
 H364 H 0.71589 0.12896 -0.03401
 C365 C 0.72163 0.15509 -0.05653
 H366 H 0.70687 0.15144 -0.06500
 Zn367 Zn 0.75111 0.12411 0.00102
 N368 N 0.74546 0.14424 -0.02663
 C369 C 0.79158 0.10370 -0.02171
 N370 N 0.77853 0.10365 -0.00370
 C371 C 0.78334 0.08857 0.01174
 C372 C 0.80057 0.07334 0.00942
 C373 C 0.80920 0.08868 -0.02459
 C374 C 0.74305 0.16257 0.03112
 C375 C 0.74615 0.17786 0.04824
 C376 C 0.77541 0.15691 0.06128
 C377 C 0.77201 0.14206 0.04360
 N378 N 0.75596 0.14479 0.02843
 H379 H 0.78833 0.11525 -0.03434
 H380 H 0.77353 0.08795 0.02614
 H381 H 0.80315 0.06207 0.02245
 H382 H 0.81848 0.08938 -0.03932
 H383 H 0.73028 0.16542 0.01961
 H384 H 0.73543 0.19158 0.04894
 H385 H 0.78858 0.15393 0.07231
 H386 H 0.78266 0.12835 0.04211
 C387 C 0.73484 0.17257 -0.06358
 C388 C 0.68745 0.07254 0.00932
 C389 C 0.76265 0.17573 0.06407
 C390 C 0.81416 0.07254 -0.00908
 C391 C 0.21879 0.58944 0.49190
 H392 H 0.23021 0.58755 0.47887
 C393 C 0.20132 0.57442 0.49358
 H394 H 0.20082 0.56169 0.48174
 C395 C 0.20709 0.60721 0.52290
 H396 H 0.20898 0.61982 0.53478
 C397 C 0.18905 0.59251 0.52499
 H398 H 0.17793 0.59478 0.53821
 N399 N 0.22185 0.60591 0.50630
 C400 C 0.26042 0.66134 0.46907
 H401 H 0.27487 0.66205 0.47878
 C402 C 0.25853 0.67555 0.45094
 H403 H 0.27173 0.68652 0.44796
 C404 C 0.22640 0.64694 0.46187
 H405 H 0.21349 0.63590 0.46573
 C406 C 0.22387 0.66107 0.44349
 H407 H 0.20927 0.65997 0.43403
 Zn408 Zn 0.24929 0.62643 0.50190
 N409 N 0.24465 0.64687 0.47457
 C410 C 0.29141 0.60846 0.48026
 N411 N 0.27662 0.60585 0.49667
 C412 C 0.27971 0.58830 0.50979
 C413 C 0.29688 0.57311 0.50657
 C414 C 0.30913 0.59371 0.47671
 C415 C 0.24136 0.66346 0.53531
 C416 C 0.24545 0.67712 0.55378
 C417 C 0.27679 0.65641 0.56111
 C418 C 0.27233 0.64336 0.54250
 N419 N 0.25462 0.64653 0.52962
 H420 H 0.28959 0.62199 0.46944
 H421 H 0.26850 0.58557 0.52285
 H422 H 0.29793 0.55956 0.51748
 H423 H 0.31986 0.59657 0.46328
 H424 H 0.22730 0.66668 0.52553
 H425 H 0.23416 0.68990 0.55741
 H426 H 0.29109 0.65270 0.57035
 H427 H 0.28335 0.63045 0.53855
 C428 C 0.24017 0.67586 0.43714
 C429 C 0.18531 0.57547 0.51009
 C430 C 0.26339 0.67390 0.56766
 C431 C 0.31233 0.57513 0.48971
 C432 C 0.71638 0.90929 0.50823
 H433 H 0.72605 0.91003 0.52271
 C434 C 0.69902 0.92435 0.50572
 H435 H 0.69627 0.93566 0.51868
 C436 C 0.70845 0.89391 0.47482
 H437 H 0.71182 0.88228 0.46229
 C438 C 0.69074 0.90880 0.47173
 H439 H 0.68156 0.90797 0.45693
 N440 N 0.72141 0.89417 0.49290
 C441 C 0.75741 0.83800 0.53276
 H442 H 0.77246 0.83596 0.52421
 C443 C 0.75285 0.82395 0.55081
 H444 H 0.76457 0.81178 0.55510
 C445 C 0.72438 0.85545 0.53714
 H446 H 0.71278 0.86751 0.53228
 C447 C 0.71930 0.84186 0.55515
 H448 H 0.70416 0.84474 0.56325
 Zn449 Zn 0.74870 0.87357 0.49809
 N450 N 0.74322 0.85362 0.52573
 C451 C 0.78847 0.89475 0.52127
 N452 N 0.77614 0.89398 0.50277
 C453 C 0.78179 0.90809 0.48672
 C454 C 0.79916 0.92318 0.48890
 C455 C 0.80614 0.90972 0.52406
 C456 C 0.73784 0.83776 0.46625
 C457 C 0.74010 0.82254 0.44900
 C458 C 0.77408 0.83790 0.44025
 C459 C 0.77129 0.85288 0.45789
 N460 N 0.75333 0.85281 0.47100
 H461 H 0.78455 0.88394 0.53437
 H462 H 0.77261 0.90800 0.47191
 H463 H 0.80247 0.93360 0.47534
 H464 H 0.81479 0.90975 0.53920
 H465 H 0.72346 0.83720 0.47607
 H466 H 0.72708 0.81125 0.44645
 H467 H 0.78877 0.83862 0.43089
 H468 H 0.78392 0.86444 0.46107
 C469 C 0.73324 0.82517 0.56260
 C470 C 0.68554 0.92497 0.48712
 C471 C 0.75854 0.82180 0.43534
 C472 C 0.81196 0.92490 0.50791
 C473 C 0.00827 0.21569 0.40873
 H474 H 0.02385 0.22345 0.40954
 C475 C 0.00397 0.19787 0.42315
 H476 H 0.01640 0.19298 0.43436
 C477 C -0.02626 0.21300 0.39402
 H478 H -0.03852 0.21845 0.38292
 C479 C -0.03119 0.19539 0.40822
 H480 H -0.04701 0.18820 0.40695
 N481 N -0.00673 0.22340 0.39423
 C482 C 0.03277 0.25834 0.33692
 H483 H 0.02341 0.27275 0.33404
 C484 C 0.05126 0.25418 0.32329
 H485 H 0.05529 0.26573 0.31088
 C486 C 0.03901 0.22665 0.35618
 H487 H 0.03471 0.21537 0.36872
 C488 C 0.05764 0.22211 0.34317
 H489 H 0.06653 0.20751 0.34657
 Zn490 Zn -0.00100 0.25063 0.37369
 N491 N 0.02659 0.24476 0.35343
 C492 C 0.02435 0.28801 0.39466
 N493 N 0.00466 0.27791 0.39437
 C494 C -0.01053 0.28583 0.40856
 C495 C -0.00627 0.30353 0.42317
 C496 C 0.02925 0.30549 0.40906
 C497 C -0.03577 0.24186 0.33797
 C498 C -0.05424 0.24598 0.32428
 C499 C -0.05814 0.28002 0.34129
 C500 C -0.03970 0.27538 0.35452
 N501 N -0.02848 0.25635 0.35321
 H502 H 0.03678 0.28240 0.38382
 H503 H -0.02625 0.27833 0.40898
 H504 H -0.01887 0.30857 0.43410
 H505 H 0.04521 0.31241 0.40818
 H506 H -0.02737 0.22669 0.33623
 H507 H -0.05919 0.23368 0.31297
 H508 H -0.06582 0.29551 0.34343
 H509 H -0.03446 0.28740 0.36599
 C510 C 0.06468 0.23583 0.32613
 C511 C -0.01627 0.18717 0.42364
 C512 C -0.06643 0.26535 0.32564
 C513 C 0.01413 0.31391 0.42420
 C514 C -0.00937 0.71741 0.08832
 H515 H -0.02413 0.72646 0.08633
 C516 C -0.00568 0.69895 0.07453
 H517 H -0.01792 0.69457 0.06292
 C518 C 0.02365 0.71203 0.10551
 H519 H 0.03564 0.71673 0.11724
 C520 C 0.02783 0.69356 0.09222
 H521 H 0.04295 0.68523 0.09459
 N522 N 0.00509 0.72396 0.10392
 C523 C -0.03013 0.76153 0.16144
 H524 H -0.01865 0.77448 0.16352
 C525 C -0.04758 0.75968 0.17650
 H526 H -0.04794 0.77132 0.18941
 C527 C -0.04202 0.73087 0.14324
 H528 H -0.04020 0.71916 0.13046
 C529 C -0.06003 0.72862 0.15796
 H530 H -0.07118 0.71546 0.15551
 Zn531 Zn 0.00037 0.75165 0.12416
 N532 N -0.02716 0.74738 0.14474
 C533 C -0.02007 0.79391 0.10451
 N534 N -0.00371 0.77889 0.10329
 C535 C 0.01063 0.78152 0.08670
 C536 C 0.00910 0.79880 0.07144
 C537 C -0.02201 0.81176 0.08956
 C538 C 0.03336 0.74051 0.15941
 C539 C 0.05135 0.74238 0.17388
 C540 C 0.05907 0.77695 0.15946
 C541 C 0.04083 0.77443 0.14505
 N542 N 0.02800 0.75624 0.14480
 H543 H -0.03190 0.79237 0.11721
 H544 H 0.02349 0.76990 0.08488
 H545 H 0.02086 0.79892 0.05863
 H546 H -0.03507 0.82309 0.09177
 H547 H 0.02361 0.72609 0.16006
 H548 H 0.05412 0.72919 0.18491
 H549 H 0.06855 0.79154 0.15847
 H550 H 0.03715 0.78738 0.13398
 C551 C -0.06367 0.74324 0.17528
 C552 C 0.01318 0.68604 0.07618
 C553 C 0.06524 0.76070 0.17443
 C554 C -0.00719 0.81505 0.07235
 C555 C 0.49099 0.21583 0.59125
 H556 H 0.47570 0.22406 0.58974
 C557 C 0.49550 0.19799 0.57694
 H558 H 0.48352 0.19352 0.56510
 C559 C 0.52465 0.21208 0.60764
 H560 H 0.53649 0.21713 0.61938
 C561 C 0.52972 0.19432 0.59373
 H562 H 0.54515 0.18657 0.59599
 N563 N 0.50551 0.22307 0.60646
 C564 C 0.46988 0.25976 0.66421
 H565 H 0.48132 0.27275 0.66626
 C566 C 0.45236 0.25797 0.67917
 H567 H 0.45189 0.26965 0.69204
 C568 C 0.45805 0.22909 0.64597
 H569 H 0.45985 0.21743 0.63315
 C570 C 0.43998 0.22689 0.66061
 H571 H 0.42878 0.21377 0.65810
 Zn572 Zn 0.50003 0.25047 0.62669
 N573 N 0.47290 0.24559 0.64754
 C574 C 0.47510 0.28882 0.60793
 N575 N 0.49408 0.27761 0.60624
 C576 C 0.50825 0.28467 0.59061
 C577 C 0.50355 0.30257 0.57644
 C578 C 0.46985 0.30663 0.59416
 C579 C 0.53452 0.24294 0.66288
 C580 C 0.55266 0.24781 0.67675
 C581 C 0.55754 0.28046 0.65742
 C582 C 0.53940 0.27512 0.64407
 N583 N 0.52769 0.25655 0.64666
 H584 H 0.46356 0.28394 0.62004
 H585 H 0.52341 0.27629 0.58870
 H586 H 0.51526 0.30691 0.56428
 H587 H 0.45459 0.31457 0.59684
 H588 H 0.52577 0.22811 0.66554
 H589 H 0.55677 0.23653 0.68938
 H590 H 0.56589 0.29529 0.65379
 H591 H 0.53476 0.28625 0.63150
 C592 C 0.43626 0.24158 0.67784
 C593 C 0.51542 0.18667 0.57744
 C594 C 0.56482 0.26714 0.67471
 C595 C 0.48381 0.31414 0.57751
 C596 C 0.50978 0.71218 0.91116
 H597 H 0.52531 0.71990 0.91288
 C598 C 0.50500 0.69368 0.92456
 H599 H 0.51720 0.68799 0.93562
 C600 C 0.47588 0.71009 0.89501
 H601 H 0.46395 0.71615 0.88385
 C602 C 0.47053 0.69172 0.90802
 H603 H 0.45460 0.68498 0.90607
 N604 N 0.49541 0.72036 0.89629
 C605 C 0.53530 0.75973 0.84271
 H606 H 0.52627 0.77463 0.84278
 C607 C 0.55341 0.75780 0.82844
 H608 H 0.55708 0.77146 0.81827
 C609 C 0.54083 0.72467 0.85517
 H610 H 0.53631 0.71132 0.86543
 C611 C 0.55913 0.72207 0.84092
 H612 H 0.56787 0.70699 0.84118
 Zn613 Zn 0.50145 0.74818 0.87668
 N614 N 0.52896 0.74345 0.85627
 C615 C 0.52261 0.79014 0.89643
 N616 N 0.50621 0.77515 0.89790
 C617 C 0.49208 0.77794 0.91465
 C618 C 0.49381 0.79534 0.92976
 C619 C 0.52474 0.80810 0.91122
 C620 C 0.46787 0.74071 0.83984
 C621 C 0.44939 0.74500 0.82626
 C622 C 0.44320 0.77705 0.84625
 C623 C 0.46176 0.77235 0.85927
 N624 N 0.47407 0.75420 0.85640
 H625 H 0.53426 0.78854 0.88358
 H626 H 0.47916 0.76640 0.91664
 H627 H 0.48217 0.79560 0.94268
 H628 H 0.53778 0.81940 0.90877
 H629 H 0.47718 0.72628 0.83691
 H630 H 0.44531 0.73351 0.81380
 H631 H 0.43447 0.79173 0.84967
 H632 H 0.46612 0.78352 0.87191
 C633 C 0.56632 0.73885 0.82705
 C634 C 0.48503 0.68249 0.92330
 C635 C 0.43608 0.76340 0.82919
 C636 C 0.51009 0.81158 0.92854
 C637 C 0.13831 0.22473 0.25920
 C638 C 0.14468 0.21775 0.27918
 C639 C 0.16531 0.20937 0.28251
 C640 C 0.17996 0.20778 0.26498
 C641 C 0.17469 0.21408 0.24343
 C642 C 0.15307 0.22313 0.24091
 O643 O 0.11778 0.23239 0.25990
 C644 C 0.11121 0.23010 0.28069
 C645 C 0.12722 0.22111 0.29299
 C646 C 0.12410 0.21695 0.31493
 C647 C 0.10401 0.22196 0.32476
 C648 C 0.08639 0.23134 0.31333
 C649 C 0.09055 0.23563 0.29053
 H650 H 0.17020 0.20423 0.29844
 H651 H 0.19587 0.20175 0.26862
 H652 H 0.14776 0.22845 0.22519
 H653 H 0.13692 0.20989 0.32441
 H654 H 0.10241 0.21866 0.34180
 H655 H 0.07802 0.24268 0.28070
 C656 C 0.64232 0.71474 0.76664
 C657 C 0.64277 0.73627 0.77165
 C658 C 0.65852 0.74991 0.76308
 C659 C 0.67425 0.74150 0.74873
 C660 C 0.67498 0.71940 0.74241
 C661 C 0.65843 0.70573 0.75204
 O662 O 0.62553 0.70482 0.77663
 C663 C 0.61531 0.72045 0.78809
 C664 C 0.62537 0.73995 0.78543
 C665 C 0.61765 0.75852 0.79556
 C666 C 0.59898 0.75738 0.80877
 C667 C 0.58726 0.73789 0.81238
 C668 C 0.59617 0.71888 0.80169
 H669 H 0.65864 0.76685 0.76720
 H670 H 0.68609 0.75259 0.74232
 H671 H 0.65775 0.68882 0.74787
 H672 H 0.62586 0.77375 0.79339
 H673 H 0.59386 0.77210 0.81655
 H674 H 0.58828 0.70346 0.80358
 C675 C 0.36269 0.77418 0.76213
 C676 C 0.35659 0.78216 0.78182
 C677 C 0.33627 0.79139 0.78485
 C678 C 0.32166 0.79279 0.76728
 C679 C 0.32667 0.78537 0.74604
 C680 C 0.34794 0.77549 0.74383
 O681 O 0.38296 0.76593 0.76307
 C682 C 0.38965 0.76884 0.78373
 C683 C 0.37396 0.77879 0.79571
 C684 C 0.37723 0.78364 0.81747
 C685 C 0.39715 0.77835 0.82746
 C686 C 0.41449 0.76809 0.81632
 C687 C 0.41016 0.76309 0.79372
 H688 H 0.33162 0.79737 0.80055
 H689 H 0.30598 0.79960 0.77060
 H690 H 0.35301 0.76935 0.72834
 H691 H 0.36464 0.79140 0.82670
 H692 H 0.39883 0.78214 0.84438
 H693 H 0.42244 0.75532 0.78412
 C694 C -0.14106 0.27444 0.25923
 C695 C -0.14561 0.28518 0.27797
 C696 C -0.16488 0.29641 0.28053
 C697 C -0.18006 0.29709 0.26344
 C698 C -0.17679 0.28698 0.24285
 C699 C -0.15648 0.27489 0.24134
 O700 O -0.12150 0.26460 0.26064
 C701 C -0.11378 0.26932 0.28065
 C702 C -0.12813 0.28192 0.29172
 C703 C -0.12380 0.28891 0.31269
 C704 C -0.10411 0.28310 0.32283
 C705 C -0.08798 0.27024 0.31262
 C706 C -0.09345 0.26304 0.29082
 H707 H -0.16840 0.30440 0.29562
 H708 H -0.19495 0.30512 0.26727
 H709 H -0.15246 0.26651 0.22662
 H710 H -0.13541 0.29872 0.32123
 H711 H -0.10171 0.28861 0.33917
 H712 H -0.08216 0.25318 0.28194
 C713 C -0.14198 0.71937 0.23324
 C714 C -0.13591 0.74035 0.23639
 C715 C -0.14660 0.75343 0.25123
 C716 C -0.16400 0.74500 0.26348
 C717 C -0.17164 0.72325 0.26155
 C718 C -0.16005 0.71041 0.24541
 O719 O -0.12916 0.70981 0.21822
 C720 C -0.11488 0.72518 0.21185
 C721 C -0.11860 0.74414 0.22255
 C722 C -0.10621 0.76245 0.21844
 C723 C -0.08925 0.76155 0.20309
 C724 C -0.08360 0.74241 0.19151
 C725 C -0.09736 0.72381 0.19615
 H726 H -0.14173 0.77004 0.25333
 H727 H -0.17196 0.75636 0.27394
 H728 H -0.16446 0.69379 0.24269
 H729 H -0.10962 0.77738 0.22677
 H730 H -0.08076 0.77643 0.20016
 H731 H -0.09444 0.70869 0.18801
 C732 C 0.35768 0.21828 0.73542
 C733 C 0.36336 0.23944 0.73804
 C734 C 0.35225 0.25278 0.75233
 C735 C 0.33481 0.24441 0.76457
 C736 C 0.32756 0.22248 0.76315
 C737 C 0.33964 0.20937 0.74761
 O738 O 0.37083 0.20849 0.72088
 C739 C 0.38493 0.22389 0.71423
 C740 C 0.38079 0.24309 0.72432
 C741 C 0.39298 0.26147 0.71984
 C742 C 0.41015 0.26035 0.70475
 C743 C 0.41618 0.24096 0.69381
 C744 C 0.40264 0.22231 0.69880
 H745 H 0.35682 0.26952 0.75401
 H746 H 0.32652 0.25593 0.77458
 H747 H 0.33562 0.19259 0.74533
 H748 H 0.38925 0.27658 0.72769
 H749 H 0.41851 0.27523 0.70148
 H750 H 0.40589 0.20700 0.69114
 C751 C 0.64205 0.27382 0.73809
 C752 C 0.63589 0.29388 0.73117
 C753 C 0.64666 0.31241 0.73816
 C754 C 0.66438 0.31058 0.75260
 C755 C 0.67207 0.29040 0.76059
 C756 C 0.66009 0.27158 0.75301
 O757 O 0.62938 0.25831 0.72921
 C758 C 0.61500 0.26887 0.71651
 C759 C 0.61844 0.29069 0.71731
 C760 C 0.60546 0.30492 0.70564
 C761 C 0.58851 0.29679 0.69255
 C762 C 0.58389 0.27431 0.69031
 C763 C 0.59771 0.26016 0.70312
 H764 H 0.64150 0.32813 0.73267
 H765 H 0.67185 0.32539 0.75789
 H766 H 0.66479 0.25567 0.75832
 H767 H 0.60821 0.32210 0.70666
 H768 H 0.57866 0.30856 0.68436
 H769 H 0.59530 0.24292 0.70252
 C770 C 0.14196 0.78440 0.23457
 C771 C 0.14096 0.76257 0.23124
 C772 C 0.15569 0.74862 0.24104
 C773 C 0.17189 0.75702 0.25489
 C774 C 0.17412 0.77945 0.25963
 C775 C 0.15859 0.79341 0.24868
 O776 O 0.12602 0.79461 0.22350
 C777 C 0.11487 0.77886 0.21306
 C778 C 0.12354 0.75901 0.21742
 C779 C 0.11473 0.74027 0.20852
 C780 C 0.09640 0.74162 0.19484
 C781 C 0.08602 0.76149 0.18950
 C782 C 0.09606 0.78063 0.19895
 H783 H 0.15477 0.73146 0.23814
 H784 H 0.18304 0.74563 0.26193
 H785 H 0.15911 0.81061 0.25139
 H786 H 0.12187 0.72475 0.21200
 H787 H 0.09049 0.72670 0.18808
 H788 H 0.08928 0.79635 0.19573
 C789 C 0.26049 0.13671 0.22644
 C790 C 0.28019 0.14315 0.21874
 C791 C 0.28310 0.16365 0.20989
 C792 C 0.26538 0.17807 0.20856
 C793 C 0.24414 0.17269 0.21567
 C794 C 0.24205 0.15126 0.22519
 O795 O 0.26158 0.11631 0.23434
 C796 C 0.28233 0.10990 0.23150
 C797 C 0.29422 0.12589 0.22194
 C798 C 0.31605 0.12294 0.21720
 C799 C 0.32620 0.10303 0.22220
 C800 C 0.31514 0.08543 0.23208
 C801 C 0.29247 0.08942 0.23698
 H802 H 0.29880 0.16856 0.20414
 H803 H 0.26857 0.19389 0.20202
 H804 H 0.22654 0.14592 0.23107
 H805 H 0.32521 0.13576 0.20973
 H806 H 0.34316 0.10157 0.21850
 H807 H 0.28295 0.07689 0.24446
 C808 C 0.76034 0.63891 0.72643
 C809 C 0.77981 0.64492 0.71787
 C810 C 0.78256 0.66510 0.70827
 C811 C 0.76493 0.67966 0.70708
 C812 C 0.74388 0.67475 0.71508
 C813 C 0.74197 0.65362 0.72534
 O814 O 0.76155 0.61876 0.73496
 C815 C 0.78215 0.61206 0.73164
 C816 C 0.79383 0.62763 0.72116
 C817 C 0.81547 0.62433 0.71581
 C818 C 0.82565 0.60450 0.72112
 C819 C 0.81484 0.58729 0.73193
 C820 C 0.79235 0.59165 0.73745
 H821 H 0.79810 0.66969 0.70183
 H822 H 0.76807 0.69524 0.69995
 H823 H 0.72664 0.64862 0.73194
 H824 H 0.82447 0.63681 0.70762
 H825 H 0.84246 0.60279 0.71691
 H826 H 0.78299 0.57946 0.74565
 C827 C 0.76423 0.35878 0.77457
 C828 C 0.77123 0.36499 0.79458
 C829 C 0.76429 0.35429 0.81317
 C830 C 0.74982 0.33659 0.81145
 C831 C 0.74173 0.32886 0.79132
 C832 C 0.74927 0.34077 0.77244
 O833 O 0.77309 0.37138 0.75898
 C834 C 0.78586 0.38577 0.76945
 C835 C 0.78511 0.38242 0.79129
 C836 C 0.79682 0.39544 0.80543
 C837 C 0.80990 0.41235 0.79721
 C838 C 0.81212 0.41687 0.77470
 C839 C 0.79926 0.40301 0.76064
 H840 H 0.76986 0.35949 0.82886
 H841 H 0.74459 0.32915 0.82630
 H842 H 0.74389 0.33603 0.75656
 H843 H 0.79583 0.39277 0.82263
 H844 H 0.81811 0.42224 0.80893
 H845 H 0.79983 0.40535 0.74338
 C846 C 0.25941 -0.13942 0.27168
 C847 C 0.27863 -0.14498 0.28105
 C848 C 0.28143 -0.16483 0.29104
 C849 C 0.26404 -0.17953 0.29206
 C850 C 0.24291 -0.17518 0.28361
 C851 C 0.24115 -0.15443 0.27243
 O852 O 0.26079 -0.11935 0.26290
 C853 C 0.28123 -0.11240 0.26692
 C854 C 0.29260 -0.12771 0.27802
 C855 C 0.31400 -0.12433 0.28416
 C856 C 0.32432 -0.10459 0.27903
 C857 C 0.31387 -0.08753 0.26769
 C858 C 0.29160 -0.09200 0.26132
 H859 H 0.29689 -0.16913 0.29785
 H860 H 0.26785 -0.19502 0.29901
 H861 H 0.22597 -0.14974 0.26527
 H862 H 0.32271 -0.13671 0.29282
 H863 H 0.34097 -0.10285 0.28384
 H864 H 0.28255 -0.07991 0.25264
 C865 C 0.23117 -0.14353 0.71789
 C866 C 0.24380 -0.12628 0.72353
 C867 C 0.26619 -0.12821 0.72494
 C868 C 0.27614 -0.14840 0.72081
 C869 C 0.26437 -0.16744 0.71538
 C870 C 0.24107 -0.16448 0.71363
 O871 O 0.21002 -0.13779 0.71751
 C872 C 0.20945 -0.11659 0.72306
 C873 C 0.22983 -0.10898 0.72698
 C874 C 0.23330 -0.08764 0.73336
 C875 C 0.21547 -0.07349 0.73597
 C876 C 0.19370 -0.07987 0.73220
 C877 C 0.19095 -0.10222 0.72532
 H878 H 0.27593 -0.11440 0.72921
 H879 H 0.29352 -0.14909 0.72194
 H880 H 0.23095 -0.17810 0.70965
 H881 H 0.24948 -0.08192 0.73640
 H882 H 0.21888 -0.05708 0.74079
 H883 H 0.17493 -0.10835 0.72223
 C884 C 0.73763 0.36247 0.22606
 C885 C 0.71807 0.35632 0.21782
 C886 C 0.71524 0.33600 0.20852
 C887 C 0.73288 0.32146 0.20733
 C888 C 0.75399 0.32655 0.21504
 C889 C 0.75599 0.34782 0.22496
 O890 O 0.73652 0.38271 0.23435
 C891 C 0.71588 0.38933 0.23121
 C892 C 0.70408 0.37362 0.22108
 C893 C 0.68236 0.37682 0.21600
 C894 C 0.67225 0.39669 0.22123
 C895 C 0.68321 0.41403 0.23167
 C896 C 0.70576 0.40977 0.23690
 H897 H 0.69963 0.33130 0.20233
 H898 H 0.72970 0.30577 0.20048
 H899 H 0.77137 0.35296 0.23132
 H900 H 0.67326 0.36422 0.20810
 H901 H 0.65536 0.39832 0.21726
 H902 H 0.71523 0.42207 0.24482
 C903 C 0.73599 0.64081 0.27983
 C904 C 0.73545 0.63733 0.25802
 C905 C 0.74773 0.64995 0.24392
 C906 C 0.76108 0.66667 0.25220
 C907 C 0.76273 0.67145 0.27466
 C908 C 0.74944 0.65792 0.28863
 O909 O 0.72294 0.62670 0.29031
 C910 C 0.71402 0.61414 0.27477
 C911 C 0.72124 0.62017 0.25476
 C912 C 0.71407 0.60964 0.23619
 C913 C 0.69923 0.59227 0.23794
 C914 C 0.69113 0.58451 0.25808
 C915 C 0.69884 0.59631 0.27695
 H916 H 0.74703 0.64708 0.22674
 H917 H 0.76989 0.67627 0.24065
 H918 H 0.74969 0.66045 0.30587
 H919 H 0.71969 0.61476 0.22050
 H920 H 0.69382 0.58511 0.22303
 H921 H 0.69345 0.59162 0.29283
 C922 C 0.23322 0.14285 0.77817
 C923 C 0.24351 0.12937 0.76405
 C924 C 0.26410 0.13416 0.75639
 C925 C 0.27466 0.15335 0.76311
 C926 C 0.26525 0.16877 0.77758
 C927 C 0.24374 0.16264 0.78534
 O928 O 0.21347 0.13490 0.78342
 C929 C 0.21143 0.11609 0.77237
 C930 C 0.22952 0.11214 0.76032
 C931 C 0.23122 0.09364 0.74759
 C932 C 0.21391 0.07865 0.74687
 C933 C 0.19427 0.08145 0.75859
 C934 C 0.19346 0.10088 0.77192
 H935 H 0.27213 0.12318 0.74549
 H936 H 0.29084 0.15533 0.75715
 H937 H 0.23508 0.17303 0.79629
 H938 H 0.24570 0.09067 0.73834
 H939 H 0.21625 0.06441 0.73714
 H940 H 0.17923 0.10422 0.78139
 C941 C 0.21700 0.26733 0.14428
 C942 C 0.22170 0.25437 0.12698
 C943 C 0.22207 0.23195 0.12898
 C944 C 0.21785 0.22229 0.14929
 C945 C 0.21331 0.23441 0.16833
 C946 C 0.21264 0.25774 0.16533
 O947 O 0.21760 0.28845 0.13848
 C948 C 0.22280 0.28866 0.11719
 C949 C 0.22554 0.26809 0.10959
 C950 C 0.23139 0.26424 0.08817
 C951 C 0.23467 0.28187 0.07392
 C952 C 0.23212 0.30381 0.08031
 C953 C 0.22576 0.30698 0.10275
 H954 H 0.22566 0.22196 0.11515
 H955 H 0.21827 0.20488 0.15012
 H956 H 0.20945 0.26808 0.17898
 H957 H 0.23351 0.24791 0.08245
 H958 H 0.23904 0.27819 0.05745
 H959 H 0.22360 0.32315 0.10887
 C960 C 0.72741 0.76201 0.63989
 C961 C 0.70724 0.76726 0.63253
 C962 C 0.68873 0.75900 0.64236
 C963 C 0.69069 0.74507 0.66042
 C964 C 0.71096 0.73885 0.66935
 C965 C 0.72980 0.74761 0.65830
 O966 O 0.74285 0.77199 0.62798
 C967 C 0.73213 0.78367 0.61289
 C968 C 0.71028 0.78118 0.61513
 C969 C 0.69589 0.79164 0.60133
 C970 C 0.70388 0.80526 0.58476
 C971 C 0.72633 0.80917 0.58134
 C972 C 0.74069 0.79758 0.59597
 H973 H 0.67294 0.76322 0.63627
 H974 H 0.67596 0.73887 0.66738
 H975 H 0.74577 0.74369 0.66409
 H976 H 0.67871 0.78932 0.60319
 H977 H 0.69209 0.81256 0.57423
 H978 H 0.75793 0.79954 0.59446
 C979 C 0.77908 0.76622 0.35504
 C980 C 0.76796 0.75441 0.37004
 C981 C 0.76260 0.73286 0.36623
 C982 C 0.76859 0.72295 0.34646
 C983 C 0.77986 0.73406 0.32971
 C984 C 0.78530 0.75642 0.33465
 O985 O 0.78261 0.78659 0.36223
 C986 C 0.77351 0.78754 0.38210
 C987 C 0.76432 0.76816 0.38747
 C988 C 0.75385 0.76530 0.40720
 C989 C 0.75250 0.78275 0.42198
 C990 C 0.76146 0.80353 0.41777
 C991 C 0.77248 0.80558 0.39710
 H992 H 0.75404 0.72369 0.37834
 H993 H 0.76457 0.70612 0.34458
 H994 H 0.79387 0.76604 0.32292
 H995 H 0.74678 0.74989 0.41124
 H996 H 0.74452 0.77971 0.43717
 H997 H 0.77972 0.82080 0.39267
 C998 C 0.27970 0.26266 -0.14145
 C999 C 0.25785 0.26288 -0.13817
 C1000 C 0.24403 0.25061 -0.15111
 C1001 C 0.25264 0.23761 -0.16794
 C1002 C 0.27516 0.23632 -0.17255
 C1003 C 0.28883 0.24959 -0.15869
 O1004 O 0.28988 0.27561 -0.12703
 C1005 C 0.27411 0.28416 -0.11449
 C1006 C 0.25425 0.27679 -0.12083
 C1007 C 0.23550 0.28359 -0.11039
 C1008 C 0.23689 0.29820 -0.09279
 C1009 C 0.25686 0.30641 -0.08468
 C1010 C 0.27593 0.29908 -0.09640
 H1011 H 0.22681 0.25105 -0.14839
 H1012 H 0.24130 0.22878 -0.17778
 H1013 H 0.30609 0.24959 -0.16104
 H1014 H 0.21993 0.27788 -0.11576
 H1015 H 0.22184 0.30333 -0.08573
 H1016 H 0.29171 0.30458 -0.09147
 C1017 C 0.72768 0.23656 -0.14030
 C1018 C 0.70768 0.22950 -0.13412
 C1019 C 0.68908 0.23650 -0.14478
 C1020 C 0.69079 0.25108 -0.16239
 C1021 C 0.71091 0.25922 -0.17010
 C1022 C 0.72980 0.25162 -0.15824
 O1023 O 0.74327 0.22764 -0.12774
 C1024 C 0.73281 0.21478 -0.11342
 C1025 C 0.71098 0.21552 -0.11678
 C1026 C 0.69684 0.20370 -0.10385
 C1027 C 0.70508 0.19051 -0.08702
 C1028 C 0.72758 0.18832 -0.08250
 C1029 C 0.74163 0.20129 -0.09626
 H1030 H 0.67340 0.23091 -0.13960
 H1031 H 0.67593 0.25636 -0.16977
 H1032 H 0.74568 0.25703 -0.16295
 H1033 H 0.67964 0.20467 -0.10653
 H1034 H 0.69337 0.18219 -0.07720
 H1035 H 0.75888 0.20074 -0.09390
 C1036 C 0.21622 0.73458 0.35997
 C1037 C 0.23804 0.73107 0.36075
 C1038 C 0.25193 0.74049 0.34575
 C1039 C 0.24346 0.75416 0.32949
 C1040 C 0.22105 0.75900 0.32753
 C1041 C 0.20715 0.74847 0.34331
 O1042 O 0.20609 0.72391 0.37620
 C1043 C 0.22188 0.71355 0.38729
 C1044 C 0.24168 0.71755 0.37831
 C1045 C 0.26045 0.70867 0.38699
 C1046 C 0.25919 0.69536 0.40556
 C1047 C 0.23938 0.69046 0.41621
 C1048 C 0.22020 0.69986 0.40631
 H1049 H 0.26908 0.73747 0.34655
 H1050 H 0.25476 0.76105 0.31814
 H1051 H 0.18997 0.75136 0.34294
 H1052 H 0.27591 0.71188 0.37960
 H1053 H 0.27410 0.68854 0.41143
 H1054 H 0.20454 0.69691 0.41335
 C1055 C 0.27446 0.74139 0.64071
 C1056 C 0.28106 0.72138 0.64739
 C1057 C 0.28912 0.71814 0.66816
 C1058 C 0.29080 0.73581 0.68263
 C1059 C 0.28487 0.75737 0.67704
 C1060 C 0.27612 0.75981 0.65529
 O1061 O 0.26708 0.74059 0.62009
 C1062 C 0.26915 0.71970 0.61377
 C1063 C 0.27772 0.70744 0.63004
 C1064 C 0.28157 0.68541 0.62722
 C1065 C 0.27668 0.67544 0.60718
 C1066 C 0.26777 0.68684 0.58929
 C1067 C 0.26378 0.70973 0.59314
 H1068 H 0.29398 0.70219 0.67327
 H1069 H 0.29662 0.73228 0.69865
 H1070 H 0.27111 0.77554 0.64976
 H1071 H 0.28828 0.67595 0.64024
 H1072 H 0.27970 0.65833 0.60582
 H1073 H 0.25707 0.71955 0.58040
 C1074 C 0.78203 0.23115 0.14511
 C1075 C 0.77760 0.24396 0.12763
 C1076 C 0.77741 0.26640 0.12940
 C1077 C 0.78154 0.27625 0.14965
 C1078 C 0.78581 0.26433 0.16888
 C1079 C 0.78628 0.24095 0.16612
 O1080 O 0.78129 0.20997 0.13951
 C1081 C 0.77626 0.20955 0.11818
 C1082 C 0.77376 0.23007 0.11034
 C1083 C 0.76809 0.23371 0.08882
 C1084 C 0.76477 0.21595 0.07473
 C1085 C 0.76710 0.19405 0.08134
 C1086 C 0.77327 0.19109 0.10389
 H1087 H 0.77402 0.27628 0.11544
 H1088 H 0.78121 0.29367 0.15030
 H1089 H 0.78922 0.23073 0.17991
 H1090 H 0.76614 0.25000 0.08291
 H1091 H 0.76054 0.21949 0.05819
 H1092 H 0.77527 0.17498 0.11020
 C1093 C 0.47716 0.39122 0.51426
 C1094 C 0.45712 0.38308 0.51885
 C1095 C 0.43852 0.39217 0.50998
 C1096 C 0.44024 0.41029 0.49611
 C1097 C 0.46033 0.42008 0.49060
 C1098 C 0.47930 0.40977 0.49996
 O1099 O 0.49271 0.37988 0.52470
 C1100 C 0.48219 0.36437 0.53602
 C1101 C 0.46036 0.36580 0.53285
 C1102 C 0.44616 0.35151 0.54289
 C1103 C 0.45431 0.33524 0.55678
 C1104 C 0.47674 0.33262 0.56131
 C1105 C 0.49092 0.34774 0.55017
 H1106 H 0.42286 0.38545 0.51366
 H1107 H 0.42545 0.41661 0.48939
 H1108 H 0.49514 0.41618 0.49657
 H1109 H 0.42900 0.35276 0.54007
 H1110 H 0.44271 0.32432 0.56380
 H1111 H 0.50814 0.34684 0.55265
 C1112 C -0.02987 0.89272 0.01330
 C1113 C -0.00884 0.88664 0.01053
 C1114 C 0.00447 0.89721 -0.00423
 C1115 C -0.00380 0.91450 -0.01676
 C1116 C -0.02557 0.92213 -0.01516
 C1117 C -0.03865 0.91063 0.00084
 O1118 O -0.03968 0.88007 0.02825
 C1119 C -0.02444 0.86586 0.03501
 C1120 C -0.00530 0.86946 0.02459
 C1121 C 0.01293 0.85707 0.02913
 C1122 C 0.01171 0.84027 0.04462
 C1123 C -0.00764 0.83479 0.05593
 C1124 C -0.02612 0.84852 0.05085
 H1125 H 0.02110 0.89231 -0.00605
 H1126 H 0.00765 0.92235 -0.02720
 H1127 H -0.05533 0.91498 0.00326
 H1128 H 0.02800 0.86037 0.02102
 H1129 H 0.02651 0.83176 0.04790
 H1130 H -0.04139 0.84570 0.05875
 C1131 C 0.02169 0.61174 0.00947
 C1132 C 0.03116 0.60653 0.02874
 C1133 C 0.04136 0.58680 0.03175
 C1134 C 0.04248 0.57188 0.01454
 C1135 C 0.03389 0.57587 -0.00659
 C1136 C 0.02251 0.59649 -0.00858
 O1137 O 0.01277 0.63177 0.01059
 C1138 C 0.01679 0.63905 0.03092
 C1139 C 0.02804 0.62398 0.04248
 C1140 C 0.03419 0.62772 0.06381
 C1141 C 0.02893 0.64757 0.07385
 C1142 C 0.01747 0.66442 0.06319
 C1143 C 0.01108 0.65957 0.04099
 H1144 H 0.04828 0.58277 0.04724
 H1145 H 0.04964 0.55652 0.01847
 H1146 H 0.01527 0.60092 -0.02380
 H1147 H 0.04296 0.61553 0.07268
 H1148 H 0.03375 0.64957 0.09047
 H1149 H 0.00231 0.67147 0.03177
 C1150 C 0.52149 0.10992 0.51366
 C1151 C 0.54152 0.11827 0.51789
 C1152 C 0.56005 0.10941 0.50867
 C1153 C 0.55827 0.09129 0.49482
 C1154 C 0.53819 0.08131 0.48964
 C1155 C 0.51927 0.09139 0.49935
 O1156 O 0.50603 0.12105 0.52449
 C1157 C 0.51662 0.13664 0.53566
 C1158 C 0.53839 0.13545 0.53202
 C1159 C 0.55266 0.14985 0.54182
 C1160 C 0.54464 0.16597 0.55595
 C1161 C 0.52229 0.16833 0.56099
 C1162 C 0.50803 0.15310 0.55008
 H1163 H 0.57571 0.11627 0.51210
 H1164 H 0.57300 0.08502 0.48792
 H1165 H 0.50345 0.08477 0.49625
 H1166 H 0.56976 0.14879 0.53861
 H1167 H 0.55628 0.17699 0.56274
 H1168 H 0.49086 0.15381 0.55295
 C1169 C -0.02204 0.10967 0.48656
 C1170 C -0.04155 0.11996 0.48491
 C1171 C -0.05963 0.11255 0.49611
 C1172 C -0.05799 0.09389 0.50924
 C1173 C -0.03850 0.08192 0.51175
 C1174 C -0.01997 0.09048 0.50005
 O1175 O -0.00698 0.11964 0.47417
 C1176 C -0.01728 0.13645 0.46460
 C1177 C -0.03850 0.13715 0.47073
 C1178 C -0.05244 0.15294 0.46273
 C1179 C -0.04465 0.16855 0.44789
 C1180 C -0.02287 0.16911 0.44049
 C1181 C -0.00889 0.15245 0.44954
 H1182 H -0.07488 0.12087 0.49465
 H1183 H -0.07239 0.08854 0.51750
 H1184 H -0.00468 0.08218 0.50090
 H1185 H -0.06912 0.15328 0.46779
 H1186 H -0.05594 0.18062 0.44238
 H1187 H 0.00784 0.15174 0.44475
 C1188 C 0.47459 0.60805 0.98934
 C1189 C 0.46200 0.60461 0.97155
 C1190 C 0.44894 0.58640 0.96994
 C1191 C 0.44846 0.57111 0.98698
 C1192 C 0.46081 0.57320 1.00646
 C1193 C 0.47443 0.59256 1.00703
 O1194 O 0.48590 0.62671 0.98731
 C1195 C 0.48027 0.63504 0.96784
 C1196 C 0.46566 0.62194 0.95769
 C1197 C 0.45755 0.62710 0.93733
 C1198 C 0.46432 0.64634 0.92692
 C1199 C 0.47919 0.66122 0.93631
 C1200 C 0.48746 0.65488 0.95744
 H1201 H 0.43930 0.58381 0.95565
 H1202 H 0.43860 0.55717 0.98398
 H1203 H 0.48442 0.59589 1.02088
 H1204 H 0.44622 0.61646 0.92946
 H1205 H 0.45793 0.64932 0.91101
 H1206 H 0.49886 0.66517 0.96567
 C1207 C 0.53293 0.89006 0.98664
 C1208 C 0.51190 0.88400 0.98943
 C1209 C 0.49854 0.89475 1.00396
 C1210 C 0.50673 0.91222 1.01627
 C1211 C 0.52852 0.91986 1.01474
 C1212 C 0.54167 0.90817 0.99891
 O1213 O 0.54276 0.87719 0.97185
 C1214 C 0.52751 0.86289 0.96524
 C1215 C 0.50836 0.86664 0.97559
 C1216 C 0.49013 0.85422 0.97121
 C1217 C 0.49131 0.83721 0.95595
 C1218 C 0.51064 0.83155 0.94471
 C1219 C 0.52916 0.84533 0.94962
 H1220 H 0.48189 0.88989 1.00576
 H1221 H 0.49513 0.92020 1.02642
 H1222 H 0.55833 0.91256 0.99647
 H1223 H 0.47505 0.85765 0.97927
 H1224 H 0.47650 0.82868 0.95278
 H1225 H 0.54442 0.84238 0.94174
 C1226 C 0.01974 0.39104 0.48780
 C1227 C 0.03914 0.38051 0.48646
 C1228 C 0.05708 0.38764 0.49809
 C1229 C 0.05540 0.40626 0.51133
 C1230 C 0.03603 0.41846 0.51353
 C1231 C 0.01765 0.41018 0.50137
 O1232 O 0.00480 0.38133 0.47503
 C1233 C 0.01505 0.36444 0.46555
 C1234 C 0.03614 0.36343 0.47209
 C1235 C 0.05001 0.34750 0.46423
 C1236 C 0.04230 0.33207 0.44913
 C1237 C 0.02066 0.33182 0.44131
 C1238 C 0.00674 0.34863 0.45021
 H1239 H 0.07225 0.37914 0.49689
 H1240 H 0.06969 0.41137 0.51992
 H1241 H 0.00244 0.41867 0.50194
 H1242 H 0.06659 0.34690 0.46960
 H1243 H 0.05354 0.31990 0.44376
 H1244 H -0.00989 0.34960 0.44512
 C1245 C 0.39335 0.52010 0.46954
 C1246 C 0.37605 0.50724 0.47448
 C1247 C 0.37793 0.48482 0.47487
 C1248 C 0.39813 0.47505 0.47041
 C1249 C 0.41722 0.48702 0.46567
 C1250 C 0.41432 0.51038 0.46497
 O1251 O 0.38763 0.54125 0.47010
 C1252 C 0.36639 0.54158 0.47554
 C1253 C 0.35875 0.52105 0.47847
 C1254 C 0.33737 0.51730 0.48457
 C1255 C 0.32321 0.53499 0.48792
 C1256 C 0.32964 0.55690 0.48518
 C1257 C 0.35203 0.55996 0.47856
 H1258 H 0.36408 0.47491 0.47861
 H1259 H 0.39879 0.45763 0.47076
 H1260 H 0.42798 0.52064 0.46155
 H1261 H 0.33163 0.50100 0.48683
 H1262 H 0.30678 0.53139 0.49249
 H1263 H 0.35817 0.57610 0.47623
 C1264 C 0.89417 0.01649 -0.03007
 C1265 C 0.87932 0.00487 -0.01856
 C1266 C 0.88319 -0.01662 -0.01296
 C1267 C 0.90285 -0.02667 -0.01912
 C1268 C 0.91945 -0.01578 -0.03081
 C1269 C 0.91445 0.00653 -0.03649
 O1270 O 0.88696 0.03683 -0.03378
 C1271 C 0.86722 0.03796 -0.02439
 C1272 C 0.86196 0.01871 -0.01486
 C1273 C 0.84236 0.01603 -0.00409
 C1274 C 0.82761 0.03351 -0.00278
 C1275 C 0.83171 0.05419 -0.01204
 C1276 C 0.85225 0.05605 -0.02338
 H1277 H 0.87119 -0.02564 -0.00409
 H1278 H 0.90473 -0.04345 -0.01490
 H1279 H 0.92604 0.01599 -0.04540
 H1280 H 0.83839 0.00071 0.00322
 H1281 H 0.81252 0.03057 0.00542
 H1282 H 0.85660 0.07117 -0.03088
 C1283 C 0.61074 0.01242 0.03239
 C1284 C 0.61432 0.01246 0.01059
 C1285 C 0.60170 -0.00008 -0.00328
 C1286 C 0.58491 -0.01319 0.00522
 C1287 C 0.58002 -0.01437 0.02769
 C1288 C 0.59352 -0.00079 0.04143
 O1289 O 0.62488 0.02567 0.04262
 C1290 C 0.63753 0.03420 0.02691
 C1291 C 0.63154 0.02654 0.00706
 C1292 C 0.64215 0.03323 -0.01164
 C1293 C 0.65958 0.04804 -0.01020
 C1294 C 0.66733 0.05660 0.00976
 C1295 C 0.65544 0.04937 0.02877
 H1296 H 0.60464 0.00024 -0.02046
 H1297 H 0.57533 -0.02218 -0.00620
 H1298 H 0.59089 -0.00065 0.05865
 H1299 H 0.63705 0.02727 -0.02721
 H1300 H 0.66679 0.05306 -0.02521
 H1301 H 0.66010 0.05512 0.04454
 C1302 C 0.10726 0.51673 0.53256
 C1303 C 0.11284 0.51484 0.51128
 C1304 C 0.10187 0.50087 0.49755
 C1305 C 0.08474 0.48809 0.50563
 C1306 C 0.07768 0.48857 0.52765
 C1307 C 0.08939 0.50400 0.54119
 O1308 O 0.12036 0.53112 0.54267
 C1309 C 0.13430 0.53836 0.52735
 C1310 C 0.13008 0.52881 0.50790
 C1311 C 0.14204 0.53388 0.48954
 C1312 C 0.15910 0.54904 0.49091
 C1313 C 0.16527 0.55944 0.51054
 C1314 C 0.15195 0.55386 0.52920
 H1315 H 0.10633 0.49983 0.48072
 H1316 H 0.07644 0.47839 0.49382
 H1317 H 0.08527 0.50562 0.55804
 H1318 H 0.13821 0.52643 0.47425
 H1319 H 0.16728 0.55280 0.47604
 H1320 H 0.15532 0.56110 0.54467
 C1321 C 0.10673 0.48154 -0.03051
 C1322 C 0.12363 0.49403 -0.02364
 C1323 C 0.12156 0.51634 -0.02155
 C1324 C 0.10155 0.52637 -0.02631
 C1325 C 0.08287 0.51468 -0.03299
 C1326 C 0.08600 0.49150 -0.03540
 O1327 O 0.11254 0.46045 -0.03141
 C1328 C 0.13344 0.45976 -0.02494
 C1329 C 0.14080 0.48000 -0.01995
 C1330 C 0.16182 0.48330 -0.01254
 C1331 C 0.17590 0.46543 -0.01000
 C1332 C 0.16972 0.44381 -0.01482
 C1333 C 0.14772 0.44124 -0.02274
 H1334 H 0.13513 0.52597 -0.01636
 H1335 H 0.10081 0.54371 -0.02481
 H1336 H 0.07266 0.48148 -0.04045
 H1337 H 0.16735 0.49938 -0.00869
 H1338 H 0.19208 0.46868 -0.00439
 H1339 H 0.14179 0.42534 -0.02669
 C1340 C 0.60577 0.98195 0.46642
 C1341 C 0.62113 0.99317 0.47765
 C1342 C 0.61806 1.01461 0.48336
 C1343 C 0.59856 1.02510 0.47794
 C1344 C 0.58099 1.01480 0.46691
 C1345 C 0.58546 0.99249 0.46049
 O1346 O 0.61258 0.96142 0.46270
 C1347 C 0.63252 0.95994 0.47179
 C1348 C 0.63826 0.97912 0.48109
 C1349 C 0.65802 0.98167 0.49155
 C1350 C 0.67255 0.96408 0.49285
 C1351 C 0.66805 0.94336 0.48393
 C1352 C 0.64731 0.94162 0.47282
 H1353 H 0.63061 1.02334 0.49176
 H1354 H 0.59793 1.04203 0.48189
 H1355 H 0.57335 0.98340 0.45188
 H1356 H 0.66227 0.99702 0.49865
 H1357 H 0.68778 0.96695 0.50080
 H1358 H 0.64267 0.92647 0.46557
 C1359 C 0.89128 0.98221 0.52887
 C1360 C 0.87696 0.99277 0.51581
 C1361 C 0.88091 1.01369 0.50873
 C1362 C 0.90016 1.02433 0.51485
 C1363 C 0.91660 1.01465 0.52801
 C1364 C 0.91127 0.99284 0.53544
 O1365 O 0.88385 0.96216 0.53375
 C1366 C 0.86454 0.96027 0.52351
 C1367 C 0.85980 0.97873 0.51236
 C1368 C 0.84076 0.98072 0.50053
 C1369 C 0.82598 0.96328 0.49976
 C1370 C 0.82954 0.94328 0.51057
 C1371 C 0.84952 0.94215 0.52303
 H1372 H 0.86918 1.02192 0.49880
 H1373 H 0.90131 1.04086 0.50968
 H1374 H 0.92243 0.98414 0.54559
 H1375 H 0.83723 0.99550 0.49199
 H1376 H 0.81130 0.96575 0.49072
 H1377 H 0.85341 0.92759 0.53176
 C1378 C 0.38808 0.48699 0.02545
 C1379 C 0.39365 0.46786 0.03499
 C1380 C 0.41350 0.46543 0.04540
 C1381 C 0.42818 0.48302 0.04628
 C1382 C 0.42371 0.50369 0.03711
 C1383 C 0.40285 0.50524 0.02622
 O1384 O 0.36827 0.48560 0.01622
 C1385 C 0.36130 0.46520 0.02008
 C1386 C 0.37637 0.45382 0.03156
 C1387 C 0.37271 0.43239 0.03749
 C1388 C 0.35302 0.42216 0.03172
 C1389 C 0.33630 0.43274 0.01992
 C1390 C 0.34105 0.45498 0.01385
 H1391 H 0.41776 0.45015 0.05263
 H1392 H 0.44350 0.48003 0.05396
 H1393 H 0.39808 0.52023 0.01875
 H1394 H 0.38481 0.42358 0.04642
 H1395 H 0.35108 0.40549 0.03636
 H1396 H 0.32927 0.46415 0.00488
 C1397 C 0.50819 0.47718 0.39017
 C1398 C 0.52804 0.46989 0.39659
 C1399 C 0.53117 0.46133 0.41718
 C1400 C 0.51354 0.45986 0.43173
 C1401 C 0.49213 0.46653 0.42642
 C1402 C 0.48981 0.47577 0.40485
 O1403 O 0.50907 0.48490 0.36967
 C1404 C 0.52985 0.48234 0.36317
 C1405 C 0.54196 0.47313 0.37919
 C1406 C 0.56385 0.46869 0.37615
 C1407 C 0.57384 0.47363 0.35612
 C1408 C 0.56260 0.48319 0.33846
 C1409 C 0.53984 0.48778 0.34255
 H1410 H 0.54699 0.45589 0.42209
 H1411 H 0.51695 0.45356 0.44760
 H1412 H 0.47418 0.48131 0.39951
 H1413 H 0.57319 0.46147 0.38898
 H1414 H 0.59084 0.47014 0.35460
 H1415 H 0.53015 0.49499 0.33000
 C1416 C 0.01737 -0.02876 0.89093
 C1417 C 0.00549 -0.01781 0.87587
 C1418 C -0.01608 -0.01252 0.87970
 C1419 C -0.02594 -0.01840 0.89954
 C1420 C -0.01480 -0.02949 0.91640
 C1421 C 0.00761 -0.03486 0.91143
 O1422 O 0.03774 -0.03229 0.88370
 C1423 C 0.03863 -0.02335 0.86373
 C1424 C 0.01920 -0.01428 0.85836
 C1425 C 0.01627 -0.00399 0.83852
 C1426 C 0.03366 -0.00271 0.82366
 C1427 C 0.05450 -0.01155 0.82785
 C1428 C 0.05664 -0.02240 0.84863
 H1429 H -0.02531 -0.00411 0.86754
 H1430 H -0.04279 -0.01446 0.90135
 H1431 H 0.01728 -0.04332 0.92318
 H1432 H 0.00081 0.00299 0.83448
 H1433 H 0.03053 0.00513 0.80842
 H1434 H 0.07189 -0.02955 0.85307
 C1435 C 0.01506 0.03050 0.60334
 C1436 C 0.00337 0.01990 0.61881
 C1437 C -0.01832 0.01482 0.61553
 C1438 C -0.02854 0.02050 0.59583
 C1439 C -0.01765 0.03114 0.57852
 C1440 C 0.00490 0.03643 0.58293
 O1441 O 0.03563 0.03383 0.61014
 C1442 C 0.03682 0.02512 0.63022
 C1443 C 0.01738 0.01638 0.63609
 C1444 C 0.01470 0.00635 0.65609
 C1445 C 0.03235 0.00498 0.67064
 C1446 C 0.05324 0.01346 0.66598
 C1447 C 0.05512 0.02406 0.64501
 H1448 H -0.02739 0.00671 0.62802
 H1449 H -0.04547 0.01673 0.59444
 H1450 H 0.01434 0.04463 0.57080
 H1451 H -0.00077 -0.00036 0.66051
 H1452 H 0.02939 -0.00265 0.68602
 H1453 H 0.07038 0.03095 0.64020
 C1454 C 0.50918 0.52514 0.11129
 C1455 C 0.52835 0.53463 0.10576
 C1456 C 0.53097 0.54473 0.08579
 C1457 C 0.51354 0.54537 0.07092
 C1458 C 0.49283 0.53626 0.07535
 C1459 C 0.49107 0.52566 0.09633
 O1460 O 0.51039 0.51622 0.13125
 C1461 C 0.53071 0.52022 0.13835
 C1462 C 0.54221 0.53150 0.12321
 C1463 C 0.56360 0.53752 0.12698
 C1464 C 0.57364 0.53208 0.14684
 C1465 C 0.56293 0.52053 0.16364
 C1466 C 0.54075 0.51434 0.15878
 H1467 H 0.54629 0.55191 0.08156
 H1468 H 0.51668 0.55279 0.05551
 H1469 H 0.47604 0.51823 0.10102
 H1470 H 0.57250 0.54629 0.11482
 H1471 H 0.59029 0.53679 0.14886
 H1472 H 0.53149 0.50552 0.17062
 C1473 C 0.48729 -0.03287 0.11041
 C1474 C 0.48681 -0.01100 0.11352
 C1475 C 0.49893 0.00287 0.10052
 C1476 C 0.51208 -0.00570 0.08381
 C1477 C 0.51370 -0.02824 0.07940
 C1478 C 0.50055 -0.04199 0.09329
 O1479 O 0.47440 -0.04308 0.12486
 C1480 C 0.46564 -0.02730 0.13725
 C1481 C 0.47281 -0.00741 0.13078
 C1482 C 0.46582 0.01136 0.14107
 C1483 C 0.45121 0.00996 0.15865
 C1484 C 0.44316 -0.01003 0.16686
 C1485 C 0.45068 -0.02912 0.15531
 H1486 H 0.49825 0.02010 0.10310
 H1487 H 0.52075 0.00569 0.07390
 H1488 H 0.50078 -0.05926 0.09105
 H1489 H 0.47141 0.02694 0.13560
 H1490 H 0.44593 0.02499 0.16563
 H1491 H 0.44531 -0.04491 0.16035
 C1492 C 0.98583 0.46734 0.60889
 C1493 C 0.98367 0.48927 0.61070
 C1494 C 0.99431 0.50320 0.59653
 C1495 C 1.00776 0.49467 0.58004
 C1496 C 1.01123 0.47211 0.57697
 C1497 C 0.99948 0.45822 0.59197
 O1498 O 0.97413 0.45713 0.62438
 C1499 C 0.96446 0.47297 0.63606
 C1500 C 0.96990 0.49288 0.62816
 C1501 C 0.96183 0.51170 0.63755
 C1502 C 0.94790 0.51037 0.65570
 C1503 C 0.94154 0.49044 0.66536
 C1504 C 0.95014 0.47122 0.65471
 H1505 H 0.99231 0.52044 0.59807
 H1506 H 1.01533 0.50608 0.56928
 H1507 H 1.00115 0.44092 0.59077
 H1508 H 0.96611 0.52728 0.63099
 H1509 H 0.94178 0.52539 0.66200
 H1510 H 0.94609 0.45544 0.66088
 C1511 C 0.98539 0.53474 0.89272
 C1512 C 0.98265 0.51284 0.89142
 C1513 C 0.99283 0.49896 0.90595
 C1514 C 1.00645 0.50751 0.92226
 C1515 C 1.01052 0.53002 0.92479
 C1516 C 0.99922 0.54390 0.90946
 O1517 O 0.97409 0.54487 0.87689
 C1518 C 0.96410 0.52901 0.86552
 C1519 C 0.96896 0.50916 0.87394
 C1520 C 0.96056 0.49032 0.86490
 C1521 C 0.94687 0.49155 0.84657
 C1522 C 0.94108 0.51141 0.83643
 C1523 C 0.95001 0.53066 0.84671
 H1524 H 0.99042 0.48173 0.90477
 H1525 H 1.01388 0.49617 0.93322
 H1526 H 1.00147 0.56116 0.91022
 H1527 H 0.96441 0.47480 0.87186
 H1528 H 0.94048 0.47654 0.84049
 H1529 H 0.94641 0.54638 0.84011
 C1530 C 0.48863 0.02122 0.39228
 C1531 C 0.48424 0.04119 0.38388
 C1532 C 0.49334 0.05979 0.39275
 C1533 C 0.50719 0.05817 0.41091
 C1534 C 0.51251 0.03818 0.42102
 C1535 C 0.50293 0.01917 0.41091
 O1536 O 0.47797 0.00565 0.38110
 C1537 C 0.46673 0.01610 0.36544
 C1538 C 0.47017 0.03790 0.36663
 C1539 C 0.46026 0.05205 0.35216
 C1540 C 0.44624 0.04388 0.33598
 C1541 C 0.44141 0.02149 0.33356
 C1542 C 0.45244 0.00735 0.34888
 H1543 H 0.48983 0.07541 0.38584
 H1544 H 0.51402 0.07298 0.41705
 H1545 H 0.50613 0.00338 0.41755
 H1546 H 0.46328 0.06918 0.35322
 H1547 H 0.43935 0.05546 0.32496
 H1548 H 0.44976 -0.00985 0.34817
   
