data_POSCAR
  _audit_creation_date              2014-09-24
  _audit_creation_method            'ToBaCCo'
  _symmetry_space_group_name_H-M    'P1'
  _symmetry_Int_Tables_number       1
  _symmetry_cell_setting            triclinic
  loop_
  _symmetry_equiv_pos_as_xyz
 x,y,z
_cell_length_a 58.7157
_cell_length_b 58.7258
_cell_length_c 58.7226
_cell_angle_alpha 89.994000
_cell_angle_beta 89.991900
_cell_angle_gamma 89.991000
loop_
  _atom_site_label
  _atom_site_type_symbol
  _atom_site_fract_x
  _atom_site_fract_y
  _atom_site_fract_z
C1 C 0.20474 0.19387 0.22704
 C2 C 0.18630 0.19760 0.24176
 C3 C 0.17140 0.21602 0.23827
 C4 C 0.17515 0.23079 0.21978
 C5 C 0.19352 0.22727 0.20491
 C6 C 0.20840 0.20877 0.20855
 C7 C 0.21962 0.17552 0.23056
 C8 C 0.23814 0.17179 0.21582
 C9 C 0.24166 0.18672 0.19742
 C10 C 0.22695 0.20516 0.19371
 C11 C 0.23044 0.22001 0.17532
 C12 C 0.21566 0.23848 0.17155
 C13 C 0.19723 0.24197 0.18645
 H14 H 0.18371 0.18631 0.25613
 H15 H 0.16357 0.24485 0.21677
 H16 H 0.21695 0.16427 0.24495
 H17 H 0.25571 0.18380 0.18581
 H18 H 0.24451 0.21702 0.16376
 H19 H 0.18593 0.25634 0.18385
 C20 C 0.70476 0.69364 0.72682
 C21 C 0.68634 0.69737 0.74156
 C22 C 0.67144 0.71580 0.73810
 C23 C 0.67519 0.73057 0.71961
 C24 C 0.69354 0.72706 0.70473
 C25 C 0.70842 0.70855 0.70834
 C26 C 0.71964 0.67528 0.73032
 C27 C 0.73814 0.67155 0.71557
 C28 C 0.74165 0.68649 0.69717
 C29 C 0.72695 0.70494 0.69348
 C30 C 0.73043 0.71980 0.67510
 C31 C 0.71565 0.73828 0.67136
 C32 C 0.69724 0.74178 0.68628
 H33 H 0.68376 0.68607 0.75593
 H34 H 0.66361 0.74464 0.71663
 H35 H 0.71697 0.66403 0.74471
 H36 H 0.75569 0.68357 0.68554
 H37 H 0.74449 0.71681 0.66352
 H38 H 0.68595 0.75615 0.68370
 C39 C 0.29489 0.80629 0.72709
 C40 C 0.31335 0.80258 0.74181
 C41 C 0.32827 0.78416 0.73835
 C42 C 0.32453 0.76939 0.71987
 C43 C 0.30617 0.77291 0.70500
 C44 C 0.29133 0.79147 0.70859
 C45 C 0.28004 0.82467 0.73061
 C46 C 0.26143 0.82874 0.71585
 C47 C 0.25820 0.81364 0.69734
 C48 C 0.27294 0.79519 0.69366
 C49 C 0.26942 0.78029 0.67531
 C50 C 0.28412 0.76175 0.67160
 C51 C 0.30249 0.75821 0.68655
 H52 H 0.31594 0.81385 0.75620
 H53 H 0.33609 0.75532 0.71689
 H54 H 0.28378 0.83627 0.74443
 H55 H 0.24369 0.81547 0.68613
 H56 H 0.25505 0.78297 0.66403
 H57 H 0.31409 0.74415 0.68365
 C58 C 0.79523 0.30641 0.22700
 C59 C 0.81363 0.30273 0.24178
 C60 C 0.82874 0.28422 0.23860
 C61 C 0.82472 0.26944 0.21999
 C62 C 0.80637 0.27295 0.20510
 C63 C 0.79154 0.29147 0.20862
 C64 C 0.78032 0.32477 0.23047
 C65 C 0.76181 0.32848 0.21573
 C66 C 0.75831 0.31351 0.19737
 C67 C 0.77302 0.29505 0.19373
 C68 C 0.76954 0.28017 0.17539
 C69 C 0.78431 0.26168 0.17169
 C70 C 0.80270 0.25822 0.18664
 H71 H 0.81543 0.31395 0.25629
 H72 H 0.83632 0.25561 0.21629
 H73 H 0.78297 0.33605 0.24484
 H74 H 0.74428 0.31641 0.18573
 H75 H 0.75549 0.28315 0.16379
 H76 H 0.81397 0.24383 0.18410
 C77 C 0.79528 0.69376 0.27266
 C78 C 0.81373 0.69744 0.25794
 C79 C 0.82885 0.71593 0.26119
 C80 C 0.82478 0.73069 0.27981
 C81 C 0.80636 0.72720 0.29462
 C82 C 0.79155 0.70868 0.29106
 C83 C 0.78036 0.67542 0.26912
 C84 C 0.76181 0.67172 0.28381
 C85 C 0.75828 0.68665 0.30219
 C86 C 0.77301 0.70507 0.30592
 C87 C 0.76950 0.71992 0.32428
 C88 C 0.78425 0.73840 0.32803
 C89 C 0.80265 0.74190 0.31309
 H90 H 0.81557 0.68624 0.24342
 H91 H 0.83638 0.74450 0.28356
 H92 H 0.78304 0.66416 0.25474
 H93 H 0.74421 0.68375 0.31379
 H94 H 0.75508 0.71727 0.33551
 H95 H 0.81426 0.75594 0.31603
 C96 C 0.29518 0.19374 -0.22711
 C97 C 0.31365 0.19741 -0.24181
 C98 C 0.32874 0.21592 -0.23856
 C99 C 0.32464 0.23070 -0.21997
 C100 C 0.30622 0.22719 -0.20515
 C101 C 0.29145 0.20864 -0.20869
 C102 C 0.28030 0.17537 -0.23063
 C103 C 0.26178 0.17162 -0.21591
 C104 C 0.25824 0.18653 -0.19751
 C105 C 0.27294 0.20498 -0.19380
 C106 C 0.26938 0.21987 -0.17548
 C107 C 0.28409 0.23839 -0.17176
 C108 C 0.30248 0.24190 -0.18669
 H109 H 0.31550 0.18621 -0.25632
 H110 H 0.33622 0.24453 -0.21622
 H111 H 0.28332 0.16377 -0.24467
 H112 H 0.24386 0.18394 -0.18624
 H113 H 0.25497 0.21720 -0.16424
 H114 H 0.31407 0.25597 -0.18378
 C115 C 0.70487 0.30608 -0.22697
 C116 C 0.68641 0.30238 -0.24168
 C117 C 0.67133 0.28387 -0.23843
 C118 C 0.67542 0.26910 -0.21983
 C119 C 0.69382 0.27263 -0.20500
 C120 C 0.70858 0.29119 -0.20855
 C121 C 0.71974 0.32445 -0.23050
 C122 C 0.73825 0.32822 -0.21577
 C123 C 0.74178 0.31331 -0.19736
 C124 C 0.72708 0.29486 -0.19365
 C125 C 0.73064 0.27998 -0.17531
 C126 C 0.71593 0.26146 -0.17159
 C127 C 0.69755 0.25793 -0.18653
 H128 H 0.68457 0.31358 -0.25620
 H129 H 0.66385 0.25527 -0.21608
 H130 H 0.71672 0.33604 -0.24455
 H131 H 0.75615 0.31591 -0.18608
 H132 H 0.74503 0.28266 -0.16407
 H133 H 0.68596 0.24385 -0.18361
 C134 C 0.20521 0.80637 0.27278
 C135 C 0.18679 0.80259 0.25802
 C136 C 0.17193 0.78413 0.26147
 C137 C 0.17570 0.76937 0.27994
 C138 C 0.19405 0.77291 0.29481
 C139 C 0.20891 0.79145 0.29118
 C140 C 0.22003 0.82477 0.26925
 C141 C 0.23876 0.82874 0.28390
 C142 C 0.24213 0.81352 0.30228
 C143 C 0.22744 0.79505 0.30596
 C144 C 0.23093 0.78022 0.32437
 C145 C 0.21618 0.76173 0.32816
 C146 C 0.19777 0.75820 0.31325
 H147 H 0.18417 0.81388 0.24365
 H148 H 0.16415 0.75528 0.28293
 H149 H 0.21729 0.83535 0.25442
 H150 H 0.25563 0.81638 0.31449
 H151 H 0.24499 0.78322 0.33595
 H152 H 0.18650 0.74382 0.31585
 C153 C 0.44398 0.45489 0.47737
 C154 C 0.44772 0.43646 0.49210
 C155 C 0.46613 0.42154 0.48859
 C156 C 0.48087 0.42527 0.47008
 C157 C 0.47735 0.44363 0.45520
 C158 C 0.45885 0.45852 0.45886
 C159 C 0.42559 0.46973 0.48086
 C160 C 0.42184 0.48823 0.46611
 C161 C 0.43677 0.49175 0.44771
 C162 C 0.45523 0.47705 0.44400
 C163 C 0.47008 0.48054 0.42562
 C164 C 0.48857 0.46578 0.42186
 C165 C 0.49207 0.44736 0.43676
 H166 H 0.43610 0.43354 0.50615
 H167 H 0.49527 0.41403 0.46741
 H168 H 0.41435 0.46706 0.49526
 H169 H 0.43384 0.50578 0.43608
 H170 H 0.46708 0.49461 0.41405
 H171 H 0.50645 0.43607 0.43417
 C172 C -0.05605 -0.04494 0.97723
 C173 C -0.05237 -0.06343 0.99192
 C174 C -0.03398 -0.07837 0.98842
 C175 C -0.01921 -0.07462 0.96995
 C176 C -0.02270 -0.05624 0.95510
 C177 C -0.04123 -0.04137 0.95872
 C178 C -0.07441 -0.03006 0.98078
 C179 C -0.07845 -0.01143 0.96603
 C180 C -0.06335 -0.00820 0.94752
 C181 C -0.04493 -0.02296 0.94381
 C182 C -0.03003 -0.01944 0.92545
 C183 C -0.01152 -0.03417 0.92171
 C184 C -0.00800 -0.05256 0.93664
 H185 H -0.06365 -0.06601 1.00631
 H186 H -0.00515 -0.08621 0.96695
 H187 H -0.08601 -0.03380 0.99460
 H188 H -0.06517 0.00632 0.93633
 H189 H -0.03270 -0.00506 0.91419
 H190 H 0.00604 -0.06419 0.93372
 C191 C 1.05613 0.54501 0.97716
 C192 C 1.05245 0.56347 0.99189
 C193 C 1.03396 0.57859 0.98868
 C194 C 1.01920 0.57455 0.97008
 C195 C 1.02273 0.55619 0.95522
 C196 C 1.04129 0.54140 0.95873
 C197 C 1.07451 0.53013 0.98068
 C198 C 1.07856 0.51150 0.96594
 C199 C 1.06345 0.50827 0.94745
 C200 C 1.04500 0.52300 0.94380
 C201 C 1.03009 0.51947 0.92546
 C202 C 1.01155 0.53416 0.92177
 C203 C 1.00802 0.55251 0.93675
 H204 H 1.06363 0.56528 1.00643
 H205 H 1.00537 0.58614 0.96635
 H206 H 1.08614 0.53387 0.99447
 H207 H 1.06527 0.49375 0.93625
 H208 H 1.03276 0.50510 0.91418
 H209 H 0.99395 0.56411 0.93385
 C210 C 0.55634 0.04493 0.47714
 C211 C 0.55261 0.06334 0.49192
 C212 C 0.53416 0.07823 0.48852
 C213 C 0.51936 0.07450 0.47007
 C214 C 0.52285 0.05616 0.45519
 C215 C 0.54138 0.04127 0.45877
 C216 C 0.57473 0.03008 0.48062
 C217 C 0.57865 0.01136 0.46596
 C218 C 0.56339 0.00802 0.44760
 C219 C 0.54493 0.02275 0.44396
 C220 C 0.53005 0.01930 0.42558
 C221 C 0.51157 0.03407 0.42185
 C222 C 0.50810 0.05247 0.43677
 H223 H 0.56393 0.06594 0.50627
 H224 H 0.50528 0.08607 0.46712
 H225 H 0.58534 0.03280 0.49544
 H226 H 0.56621 -0.00547 0.43537
 H227 H 0.53301 0.00524 0.41399
 H228 H 0.49372 0.06377 0.43422
 C229 C -0.05629 0.04508 0.52282
 C230 C -0.05260 0.06356 0.50815
 C231 C -0.03421 0.07850 0.51169
 C232 C -0.01946 0.07473 0.53018
 C233 C -0.02293 0.05632 0.54500
 C234 C -0.04143 0.04144 0.54134
 C235 C -0.07466 0.03023 0.51931
 C236 C -0.07841 0.01172 0.53405
 C237 C -0.06350 0.00820 0.55246
 C238 C -0.04508 0.02293 0.55621
 C239 C -0.03020 0.01939 0.57456
 C240 C -0.01169 0.03413 0.57831
 C241 C -0.00819 0.05256 0.56342
 H242 H -0.06422 0.06650 0.49411
 H243 H -0.00506 0.08597 0.53286
 H244 H -0.08624 0.03324 0.50525
 H245 H -0.06609 -0.00619 0.56373
 H246 H -0.03285 0.00497 0.58577
 H247 H 0.00584 0.06418 0.56635
 C248 C 0.44363 0.54524 0.02280
 C249 C 0.44736 0.56366 0.00806
 C250 C 0.46576 0.57887 0.01143
 C251 C 0.48036 0.57493 0.03020
 C252 C 0.47680 0.55656 0.04505
 C253 C 0.45840 0.54164 0.04134
 C254 C 0.42523 0.53040 0.01930
 C255 C 0.42144 0.51190 0.03404
 C256 C 0.43633 0.50838 0.05246
 C257 C 0.45477 0.52310 0.05619
 C258 C 0.46958 0.51960 0.07460
 C259 C 0.48804 0.53437 0.07839
 C260 C 0.49152 0.55281 0.06350
 H261 H 0.43518 0.56650 -0.00547
 H262 H 0.49519 0.58551 0.03295
 H263 H 0.41401 0.53304 0.00488
 H264 H 0.43339 0.49434 0.06408
 H265 H 0.46657 0.50552 0.08616
 H266 H 0.50588 0.56410 0.06613
 C267 C 0.55644 -0.04518 0.02315
 C268 C 0.55271 -0.06363 0.00844
 C269 C 0.53430 -0.07853 0.01196
 C270 C 0.51957 -0.07479 0.03048
 C271 C 0.52310 -0.05644 0.04535
 C272 C 0.54160 -0.04156 0.04168
 C273 C 0.57484 -0.03035 0.01965
 C274 C 0.57862 -0.01188 0.03442
 C275 C 0.56372 -0.00837 0.05284
 C276 C 0.54525 -0.02306 0.05656
 C277 C 0.53038 -0.01953 0.07492
 C278 C 0.51187 -0.03427 0.07867
 C279 C 0.50837 -0.05269 0.06378
 H280 H 0.56433 -0.06655 -0.00561
 H281 H 0.50516 -0.08602 0.03315
 H282 H 0.58640 -0.03336 0.00558
 H283 H 0.56632 0.00600 0.06413
 H284 H 0.53338 -0.00546 0.08648
 H285 H 0.49399 -0.06397 0.06637
 C286 C 1.05608 0.45508 0.52270
 C287 C 1.05238 0.43665 0.50796
 C288 C 1.03401 0.42142 0.51134
 C289 C 1.01940 0.42533 0.53012
 C290 C 1.02295 0.44369 0.54498
 C291 C 1.04134 0.45863 0.54127
 C292 C 1.07448 0.46994 0.51920
 C293 C 1.07829 0.48839 0.53399
 C294 C 1.06342 0.49186 0.55244
 C295 C 1.04499 0.47713 0.55617
 C296 C 1.03016 0.48062 0.57456
 C297 C 1.01170 0.46584 0.57834
 C298 C 1.00823 0.44742 0.56344
 H299 H 1.06456 0.43384 0.49442
 H300 H 1.00458 0.41474 0.53287
 H301 H 1.08603 0.46698 0.50510
 H302 H 1.06602 0.50621 0.56374
 H303 H 1.03316 0.49468 0.58614
 H304 H 0.99388 0.43611 0.56607
 C305 C 0.40972 0.01075 0.21948
 H306 H 0.41061 0.02621 0.22946
 C307 C 0.42462 0.00753 0.20122
 H308 H 0.43699 0.02056 0.19704
 C309 C 0.39277 -0.02531 0.21290
 H310 H 0.38060 -0.03823 0.21770
 C311 C 0.40736 -0.02922 0.19452
 H312 H 0.40622 -0.04504 0.18509
 N313 N 0.39403 -0.00545 0.22479
 C314 C 0.34003 0.03080 0.26076
 H315 H 0.33909 0.02081 0.27622
 C316 C 0.32517 0.04909 0.25752
 H317 H 0.31279 0.05330 0.27054
 C318 C 0.35706 0.03736 0.22472
 H319 H 0.36923 0.03253 0.21181
 C320 C 0.34252 0.05578 0.22080
 H321 H 0.34370 0.06522 0.20499
 Zn322 Zn 0.37485 0.00008 0.25013
 N323 N 0.35574 0.02546 0.24457
 C324 C 0.39266 0.02544 0.28743
 N325 N 0.39395 0.00559 0.27552
 C326 C 0.40962 -0.01063 0.28086
 C327 C 0.42446 -0.00744 0.29916
 C328 C 0.40720 0.02932 0.30586
 C329 C 0.34004 -0.03060 0.23939
 C330 C 0.32519 -0.04890 0.24256
 C331 C 0.34242 -0.05563 0.27932
 C332 C 0.35697 -0.03720 0.27547
 N333 N 0.35570 -0.02528 0.25562
 H334 H 0.38051 0.03837 0.28261
 H335 H 0.41053 -0.02608 0.27087
 H336 H 0.43681 -0.02049 0.30337
 H337 H 0.40604 0.04512 0.31530
 H338 H 0.33916 -0.02059 0.22394
 H339 H 0.31285 -0.05309 0.22950
 H340 H 0.34357 -0.06509 0.29512
 H341 H 0.36910 -0.03239 0.28841
 C342 C 0.32648 0.06172 0.23738
 C343 C 0.42338 -0.01262 0.18861
 C344 C 0.32645 -0.06155 0.26269
 C345 C 0.42319 0.01270 0.31180
 C346 C 0.09030 -0.01080 0.71924
 H347 H 0.08940 -0.02625 0.72924
 C348 C 0.07543 -0.00759 0.70096
 H349 H 0.06307 -0.02063 0.69677
 C350 C 0.10727 0.02526 0.71264
 H351 H 0.11943 0.03818 0.71744
 C352 C 0.09271 0.02915 0.69423
 H353 H 0.09386 0.04495 0.68478
 N354 N 0.10599 0.00541 0.72455
 C355 C 0.15996 -0.03081 0.76057
 H356 H 0.16087 -0.02083 0.77603
 C357 C 0.17483 -0.04909 0.75734
 H358 H 0.18719 -0.05330 0.77037
 C359 C 0.14299 -0.03736 0.72451
 H360 H 0.13082 -0.03254 0.71159
 C361 C 0.15755 -0.05577 0.72060
 H362 H 0.15639 -0.06520 0.70478
 Zn363 Zn 0.12513 -0.00011 0.74991
 N364 N 0.14427 -0.02547 0.74437
 C365 C 0.10732 -0.02549 0.78720
 N366 N 0.10601 -0.00564 0.77528
 C367 C 0.09032 0.01056 0.78062
 C368 C 0.07547 0.00735 0.79891
 C369 C 0.09277 -0.02939 0.80562
 C370 C 0.15994 0.03059 0.73920
 C371 C 0.17479 0.04888 0.74241
 C372 C 0.15753 0.05557 0.77917
 C373 C 0.14298 0.03715 0.77528
 N374 N 0.14426 0.02525 0.75542
 H375 H 0.11948 -0.03841 0.78238
 H376 H 0.08940 0.02601 0.77062
 H377 H 0.06310 0.02038 0.80312
 H378 H 0.09395 -0.04519 0.81507
 H379 H 0.16084 0.02060 0.72375
 H380 H 0.18714 0.05309 0.72936
 H381 H 0.15638 0.06500 0.79498
 H382 H 0.13083 0.03233 0.78821
 C383 C 0.17356 -0.06171 0.73719
 C384 C 0.07670 0.01255 0.68832
 C385 C 0.17352 0.06151 0.76255
 C386 C 0.07676 -0.01279 0.81155
 C387 C 0.59009 0.48941 0.21927
 H388 H 0.58922 0.47394 0.22924
 C389 C 0.57519 0.49263 0.20101
 H390 H 0.56284 0.47959 0.19682
 C391 C 0.60701 0.52550 0.21270
 H392 H 0.61916 0.53843 0.21751
 C393 C 0.59242 0.52941 0.19432
 H394 H 0.59354 0.54523 0.18490
 N395 N 0.60577 0.50563 0.22459
 C396 C 0.65984 0.46944 0.26050
 H397 H 0.66077 0.47944 0.27594
 C398 C 0.67471 0.45116 0.25726
 H399 H 0.68711 0.44698 0.27026
 C400 C 0.64278 0.46282 0.22448
 H401 H 0.63058 0.46762 0.21159
 C402 C 0.65734 0.44442 0.22056
 H403 H 0.65615 0.43496 0.20477
 Zn404 Zn 0.62497 0.50010 0.24990
 N405 N 0.64410 0.47474 0.24432
 C406 C 0.60722 0.47468 0.28719
 N407 N 0.60590 0.49455 0.27532
 C408 C 0.59023 0.51075 0.28072
 C409 C 0.57542 0.50752 0.29905
 C410 C 0.59272 0.47076 0.30564
 C411 C 0.65975 0.53078 0.23912
 C412 C 0.67462 0.54907 0.24229
 C413 C 0.65743 0.55579 0.27908
 C414 C 0.64287 0.53738 0.27523
 N415 N 0.64410 0.52546 0.25538
 H416 H 0.61936 0.46176 0.28232
 H417 H 0.58930 0.52622 0.27075
 H418 H 0.56308 0.52055 0.30331
 H419 H 0.59391 0.45493 0.31505
 H420 H 0.66062 0.52078 0.22367
 H421 H 0.68695 0.55326 0.22922
 H422 H 0.65631 0.56524 0.29488
 H423 H 0.63074 0.53257 0.28818
 C424 C 0.67339 0.43852 0.23713
 C425 C 0.57642 0.51279 0.18840
 C426 C 0.67340 0.56171 0.26243
 C427 C 0.57673 0.48735 0.31164
 C428 C 0.90979 0.51060 0.71938
 H429 H 0.91066 0.52607 0.72936
 C430 C 0.92467 0.50739 0.70111
 H431 H 0.93702 0.52043 0.69691
 C432 C 0.89285 0.47452 0.71282
 H433 H 0.88070 0.46160 0.71764
 C434 C 0.90743 0.47062 0.69443
 H435 H 0.90629 0.45481 0.68500
 N436 N 0.89410 0.49439 0.72471
 C437 C 0.84006 0.53063 0.76061
 H438 H 0.83913 0.52066 0.77607
 C439 C 0.82520 0.54891 0.75734
 H440 H 0.81281 0.55312 0.77035
 C441 C 0.85711 0.53717 0.72457
 H442 H 0.86930 0.53234 0.71168
 C443 C 0.84255 0.55557 0.72062
 H444 H 0.84374 0.56499 0.70480
 Zn445 Zn 0.87492 0.49994 0.75003
 N446 N 0.85579 0.52529 0.74444
 C447 C 0.89268 0.52535 0.78732
 N448 N 0.89400 0.50549 0.77543
 C449 C 0.90969 0.48929 0.78079
 C450 C 0.92452 0.49252 0.79910
 C451 C 0.90720 0.52926 0.80575
 C452 C 0.84014 0.46922 0.73931
 C453 C 0.82528 0.45093 0.74251
 C454 C 0.84247 0.44428 0.77931
 C455 C 0.85703 0.46270 0.77542
 N456 N 0.85578 0.47458 0.75555
 H457 H 0.88052 0.53826 0.78248
 H458 H 0.91062 0.47383 0.77081
 H459 H 0.93688 0.47949 0.80332
 H460 H 0.90602 0.54507 0.81518
 H461 H 0.83927 0.47919 0.72384
 H462 H 0.81296 0.44670 0.72945
 H463 H 0.84360 0.43487 0.79514
 H464 H 0.86915 0.46754 0.78837
 C465 C 0.82651 0.56152 0.73718
 C466 C 0.92342 0.48724 0.68850
 C467 C 0.82651 0.43832 0.76268
 C468 C 0.92321 0.51267 0.81171
 C469 C 0.21905 0.41000 0.01054
 H470 H 0.22905 0.41090 0.02599
 C471 C 0.20076 0.42486 0.00735
 H472 H 0.19656 0.43721 0.02039
 C473 C 0.21246 0.39306 -0.02553
 H474 H 0.21728 0.38091 -0.03846
 C475 C 0.19404 0.40761 -0.02941
 H476 H 0.18460 0.40646 -0.04521
 N477 N 0.22438 0.39433 -0.00568
 C478 C 0.26046 0.34039 0.03051
 H479 H 0.27592 0.33950 0.02053
 C480 C 0.25726 0.32552 0.04880
 H481 H 0.27031 0.31317 0.05300
 C482 C 0.22437 0.35732 0.03709
 H483 H 0.21144 0.36947 0.03227
 C484 C 0.22049 0.34276 0.05550
 H485 H 0.20467 0.34391 0.06493
 Zn486 Zn 0.24975 0.37520 -0.00017
 N487 N 0.24424 0.35606 0.02519
 C488 C 0.28704 0.39304 0.02519
 N489 N 0.27511 0.39434 0.00534
 C490 C 0.28042 0.41003 -0.01086
 C491 C 0.29871 0.42490 -0.00766
 C492 C 0.30545 0.40760 0.02907
 C493 C 0.23907 0.34039 -0.03087
 C494 C 0.24229 0.32553 -0.04916
 C495 C 0.27903 0.34283 -0.05588
 C496 C 0.27513 0.35738 -0.03746
 N497 N 0.25528 0.35608 -0.02555
 H498 H 0.28224 0.38088 0.03811
 H499 H 0.27042 0.41094 -0.02631
 H500 H 0.30289 0.43727 -0.02069
 H501 H 0.31490 0.40643 0.04487
 H502 H 0.22362 0.33948 -0.02087
 H503 H 0.22926 0.31317 -0.05335
 H504 H 0.29484 0.34400 -0.06532
 H505 H 0.28805 0.36954 -0.03265
 C506 C 0.23711 0.32677 0.06143
 C507 C 0.18812 0.42360 -0.01279
 C508 C 0.26244 0.32682 -0.06180
 C509 C 0.31136 0.42362 0.01247
 C510 C 0.71966 0.08995 -0.01053
 H511 H 0.72964 0.08905 -0.02599
 C512 C 0.70138 0.07508 -0.00730
 H513 H 0.69717 0.06273 -0.02034
 C514 C 0.71310 0.10691 0.02554
 H515 H 0.71792 0.11907 0.03846
 C516 C 0.69469 0.09235 0.02945
 H517 H 0.68526 0.09351 0.04527
 N518 N 0.72499 0.10564 0.00568
 C519 C 0.76095 0.15959 -0.03062
 H520 H 0.77642 0.16052 -0.02064
 C521 C 0.75771 0.17443 -0.04892
 H522 H 0.77073 0.18680 -0.05314
 C523 C 0.72490 0.14258 -0.03715
 H524 H 0.71199 0.13042 -0.03231
 C525 C 0.72097 0.15712 -0.05557
 H526 H 0.70516 0.15593 -0.06500
 Zn527 Zn 0.75033 0.12479 0.00012
 N528 N 0.74476 0.14390 -0.02526
 C529 C 0.78760 0.10696 -0.02528
 N530 N 0.77572 0.10569 -0.00541
 C531 C 0.78109 0.09003 0.01082
 C532 C 0.79940 0.07519 0.00761
 C533 C 0.80604 0.09243 -0.02918
 C534 C 0.73960 0.15960 0.03080
 C535 C 0.74280 0.17447 0.04908
 C536 C 0.77960 0.15728 0.05575
 C537 C 0.77572 0.14271 0.03734
 N538 N 0.75585 0.14395 0.02546
 H539 H 0.78275 0.11909 -0.03822
 H540 H 0.77111 0.08914 0.02628
 H541 H 0.80363 0.06286 0.02066
 H542 H 0.81546 0.09358 -0.04500
 H543 H 0.72413 0.16047 0.02083
 H544 H 0.72973 0.18680 0.05330
 H545 H 0.79542 0.15616 0.06517
 H546 H 0.78867 0.13058 0.03252
 C547 C 0.73756 0.17313 -0.06153
 C548 C 0.68876 0.07635 0.01285
 C549 C 0.76296 0.17324 0.06169
 C550 C 0.81201 0.07646 -0.01255
 C551 C 0.21936 0.59024 0.48918
 H552 H 0.22938 0.58933 0.47374
 C553 C 0.20105 0.57540 0.49236
 H554 H 0.19686 0.56305 0.47931
 C555 C 0.21274 0.60721 0.52524
 H556 H 0.21755 0.61936 0.53817
 C557 C 0.19431 0.59268 0.52910
 H558 H 0.18484 0.59384 0.54490
 N559 N 0.22468 0.60592 0.50540
 C560 C 0.26088 0.65981 0.46924
 H561 H 0.27632 0.66068 0.47925
 C562 C 0.25772 0.67468 0.45095
 H563 H 0.27078 0.68701 0.44676
 C564 C 0.22479 0.64291 0.46261
 H565 H 0.21184 0.63077 0.46742
 C566 C 0.22094 0.65747 0.44420
 H567 H 0.20514 0.65634 0.43474
 Zn568 Zn 0.25008 0.62501 0.49992
 N569 N 0.24463 0.64415 0.47455
 C570 C 0.28740 0.60712 0.47463
 N571 N 0.27544 0.60585 0.49445
 C572 C 0.28071 0.59015 0.51067
 C573 C 0.29899 0.57527 0.50751
 C574 C 0.30582 0.59255 0.47078
 C575 C 0.23937 0.65985 0.53058
 C576 C 0.24256 0.67471 0.54887
 C577 C 0.27926 0.65737 0.55567
 C578 C 0.27540 0.64282 0.53726
 N579 N 0.25557 0.64413 0.52530
 H580 H 0.28263 0.61929 0.46170
 H581 H 0.27067 0.58926 0.52610
 H582 H 0.30314 0.56291 0.52055
 H583 H 0.31531 0.59371 0.45500
 H584 H 0.22394 0.66078 0.52055
 H585 H 0.22953 0.68709 0.55303
 H586 H 0.29505 0.65618 0.56516
 H587 H 0.28831 0.63063 0.53248
 C588 C 0.23759 0.67344 0.43829
 C589 C 0.18839 0.57668 0.51249
 C590 C 0.26267 0.67340 0.56155
 C591 C 0.31168 0.57654 0.48740
 C592 C 0.71919 0.90989 0.51040
 H593 H 0.72918 0.91079 0.52585
 C594 C 0.70089 0.92475 0.50720
 H595 H 0.69669 0.93710 0.52024
 C596 C 0.71260 0.89293 0.47434
 H597 H 0.71741 0.88077 0.46141
 C598 C 0.69418 0.90748 0.47046
 H599 H 0.68473 0.90632 0.45466
 N600 N 0.72451 0.89421 0.49419
 C601 C 0.76054 0.84025 0.53041
 H602 H 0.77602 0.83935 0.52044
 C603 C 0.75731 0.82538 0.54869
 H604 H 0.77035 0.81303 0.55291
 C605 C 0.72446 0.85721 0.53695
 H606 H 0.71154 0.86936 0.53212
 C607 C 0.72054 0.84264 0.55535
 H608 H 0.70471 0.84379 0.56477
 Zn609 Zn 0.74988 0.87507 0.49972
 N610 N 0.74433 0.85593 0.52507
 C611 C 0.78713 0.89291 0.52513
 N612 N 0.77524 0.89420 0.50527
 C613 C 0.78059 0.90989 0.48906
 C614 C 0.79888 0.92474 0.49228
 C615 C 0.80555 0.90745 0.52904
 C616 C 0.73923 0.84028 0.46900
 C617 C 0.74246 0.82543 0.45070
 C618 C 0.77922 0.84271 0.44404
 C619 C 0.77530 0.85725 0.46245
 N620 N 0.75543 0.85596 0.47434
 H621 H 0.78230 0.88075 0.53805
 H622 H 0.77061 0.91079 0.47360
 H623 H 0.80310 0.93709 0.47925
 H624 H 0.81498 0.90629 0.54485
 H625 H 0.72376 0.83937 0.47897
 H626 H 0.72943 0.81307 0.44649
 H627 H 0.79503 0.84388 0.43461
 H628 H 0.78822 0.86941 0.46729
 C629 C 0.73714 0.82664 0.56130
 C630 C 0.68825 0.92348 0.48707
 C631 C 0.76262 0.82671 0.43809
 C632 C 0.81150 0.92345 0.51243
 C633 C 0.01047 0.21967 0.40992
 H634 H 0.02592 0.22966 0.41081
 C635 C 0.00727 0.20138 0.42479
 H636 H 0.02032 0.19718 0.43714
 C637 C -0.02561 0.21307 0.39297
 H638 H -0.03854 0.21788 0.38082
 C639 C -0.02948 0.19465 0.40753
 H640 H -0.04529 0.18520 0.40638
 N641 N -0.00576 0.22498 0.39424
 C642 C 0.03045 0.26097 0.34024
 H643 H 0.02047 0.27643 0.33933
 C644 C 0.04872 0.25773 0.32536
 H645 H 0.05292 0.27076 0.31299
 C646 C 0.03701 0.22491 0.35723
 H647 H 0.03219 0.21200 0.36940
 C648 C 0.05541 0.22099 0.34266
 H649 H 0.06484 0.20517 0.34382
 Zn650 Zn -0.00024 0.25033 0.37508
 N651 N 0.02512 0.24478 0.35594
 C652 C 0.02516 0.28760 0.39288
 N653 N 0.00530 0.27571 0.39418
 C654 C -0.01090 0.28106 0.40987
 C655 C -0.00768 0.29935 0.42472
 C656 C 0.02907 0.30602 0.40741
 C657 C -0.03093 0.23960 0.34029
 C658 C -0.04922 0.24279 0.32543
 C659 C -0.05595 0.27956 0.34266
 C660 C -0.03753 0.27568 0.35722
 N661 N -0.02561 0.25583 0.35596
 H662 H 0.03808 0.28277 0.38071
 H663 H -0.02636 0.27108 0.41079
 H664 H -0.02071 0.30357 0.43708
 H665 H 0.04488 0.31545 0.40624
 H666 H -0.02093 0.22415 0.33941
 H667 H -0.05342 0.22974 0.31308
 H668 H -0.06540 0.29536 0.34380
 H669 H -0.03272 0.28862 0.36936
 C670 C 0.06134 0.23758 0.32664
 C671 C -0.01286 0.18873 0.42352
 C672 C -0.06186 0.26293 0.32668
 C673 C 0.01247 0.31197 0.42342
 C674 C -0.01063 0.71906 0.09018
 H675 H -0.02609 0.72905 0.08931
 C676 C -0.00745 0.70076 0.07533
 H677 H -0.02051 0.69655 0.06300
 C678 C 0.02548 0.71250 0.10707
 H679 H 0.03843 0.71733 0.11919
 C680 C 0.02935 0.69408 0.09252
 H681 H 0.04516 0.68464 0.09364
 N682 N 0.00561 0.72440 0.10582
 C683 C -0.03055 0.76047 0.15980
 H684 H -0.02056 0.77593 0.16068
 C685 C -0.04884 0.75728 0.17467
 H686 H -0.05304 0.77033 0.18702
 C687 C -0.03714 0.72439 0.14287
 H688 H -0.03233 0.71146 0.13073
 C689 C -0.05555 0.72052 0.15744
 H690 H -0.06500 0.70471 0.15630
 Zn691 Zn 0.00011 0.74977 0.12496
 N692 N -0.02523 0.74425 0.14413
 C693 C -0.02531 0.78702 0.10713
 N694 N -0.00545 0.77513 0.10583
 C695 C 0.01075 0.78047 0.09014
 C696 C 0.00753 0.79877 0.07529
 C697 C -0.02922 0.80545 0.09260
 C698 C 0.03089 0.73909 0.15971
 C699 C 0.04921 0.74231 0.17453
 C700 C 0.05581 0.77909 0.15727
 C701 C 0.03738 0.77518 0.14276
 N702 N 0.02550 0.75530 0.14405
 H703 H -0.03823 0.78220 0.11929
 H704 H 0.02621 0.77048 0.08922
 H705 H 0.02056 0.80299 0.06294
 H706 H -0.04503 0.81489 0.09377
 H707 H 0.02093 0.72362 0.16062
 H708 H 0.05346 0.72927 0.18687
 H709 H 0.06522 0.79491 0.15611
 H710 H 0.03251 0.78811 0.13062
 C711 C -0.06148 0.73714 0.17343
 C712 C 0.01270 0.68814 0.07656
 C713 C 0.06180 0.76247 0.17325
 C714 C -0.01262 0.81140 0.07659
 C715 C 0.48942 0.21916 0.59056
 H716 H 0.47397 0.22916 0.58966
 C717 C 0.49261 0.20087 0.57570
 H718 H 0.47957 0.19668 0.56335
 C719 C 0.52549 0.21256 0.60752
 H720 H 0.53842 0.21736 0.61967
 C721 C 0.52937 0.19414 0.59297
 H722 H 0.54517 0.18469 0.59412
 N723 N 0.50564 0.22448 0.60624
 C724 C 0.46940 0.26055 0.66017
 H725 H 0.47939 0.27600 0.66107
 C726 C 0.45109 0.25735 0.67501
 H727 H 0.44688 0.27040 0.68736
 C728 C 0.46283 0.22448 0.64321
 H729 H 0.46766 0.21155 0.63107
 C730 C 0.44440 0.22060 0.65775
 H731 H 0.43496 0.20479 0.65659
 Zn732 Zn 0.50012 0.24984 0.62537
 N733 N 0.47474 0.24433 0.64449
 C734 C 0.47477 0.28714 0.60752
 N735 N 0.49462 0.27521 0.60623
 C736 C 0.51084 0.28052 0.59055
 C737 C 0.50765 0.29881 0.57568
 C738 C 0.47090 0.30556 0.59296
 C739 C 0.53081 0.23913 0.66018
 C740 C 0.54910 0.24233 0.67504
 C741 C 0.55581 0.27909 0.65778
 C742 C 0.53739 0.27520 0.64322
 N743 N 0.52548 0.25535 0.64451
 H744 H 0.46184 0.28234 0.61967
 H745 H 0.52628 0.27051 0.58965
 H746 H 0.52069 0.30299 0.56332
 H747 H 0.45510 0.31502 0.59412
 H748 H 0.52082 0.22368 0.66108
 H749 H 0.55331 0.22929 0.68739
 H750 H 0.56525 0.29489 0.65662
 H751 H 0.53258 0.28813 0.63107
 C752 C 0.43845 0.23721 0.67374
 C753 C 0.51275 0.18822 0.57697
 C754 C 0.56174 0.26247 0.67377
 C755 C 0.48751 0.31146 0.57696
 C756 C 0.51063 0.71924 0.90990
 H757 H 0.52609 0.72922 0.91080
 C758 C 0.50742 0.70095 0.92476
 H759 H 0.52046 0.69674 0.93712
 C760 C 0.47455 0.71268 0.89295
 H761 H 0.46162 0.71751 0.88080
 C762 C 0.47065 0.69427 0.90750
 H763 H 0.45484 0.68484 0.90636
 N764 N 0.49441 0.72458 0.89423
 C765 C 0.53061 0.76065 0.84028
 H766 H 0.52063 0.77611 0.83940
 C767 C 0.54888 0.75744 0.82539
 H768 H 0.55308 0.77049 0.81304
 C769 C 0.53719 0.72457 0.85721
 H770 H 0.53237 0.71164 0.86936
 C771 C 0.55558 0.72067 0.84263
 H772 H 0.56501 0.70486 0.84376
 Zn773 Zn 0.49993 0.74995 0.87511
 N774 N 0.52529 0.74443 0.85595
 C775 C 0.52533 0.78720 0.89296
 N776 N 0.50547 0.77530 0.89425
 C777 C 0.48927 0.78062 0.90995
 C778 C 0.49249 0.79889 0.92482
 C779 C 0.52924 0.80559 0.90753
 C780 C 0.46923 0.73929 0.84031
 C781 C 0.45093 0.74250 0.82545
 C782 C 0.44423 0.77925 0.84274
 C783 C 0.46265 0.77535 0.85728
 N784 N 0.47456 0.75549 0.85599
 H785 H 0.53825 0.78239 0.88079
 H786 H 0.47381 0.77063 0.91085
 H787 H 0.47946 0.80308 0.93719
 H788 H 0.54505 0.81503 0.90637
 H789 H 0.47922 0.72383 0.83940
 H790 H 0.44673 0.72947 0.81310
 H791 H 0.43479 0.79505 0.84390
 H792 H 0.46747 0.78826 0.86944
 C793 C 0.56150 0.73729 0.82663
 C794 C 0.48727 0.68833 0.92350
 C795 C 0.43830 0.76265 0.82673
 C796 C 0.51264 0.81151 0.92355
 C797 C 0.11493 0.22707 0.28358
 C798 C 0.12788 0.24555 0.27590
 C799 C 0.14624 0.24198 0.26116
 C800 C 0.15190 0.21984 0.25392
 C801 C 0.13876 0.20138 0.26174
 C802 C 0.12041 0.20500 0.27647
 C803 C 0.09604 0.23077 0.29875
 C804 C 0.08022 0.23387 0.31146
 H805 H 0.12383 0.26270 0.28135
 H806 H 0.15620 0.25649 0.25567
 H807 H 0.14251 0.18419 0.25624
 H808 H 0.11045 0.19058 0.28226
 C809 C 0.61505 0.72684 0.78350
 C810 C 0.62050 0.70477 0.77636
 C811 C 0.63883 0.70116 0.76160
 C812 C 0.65196 0.71962 0.75377
 C813 C 0.64633 0.74175 0.76105
 C814 C 0.62799 0.74531 0.77582
 C815 C 0.59618 0.73053 0.79870
 C816 C 0.58037 0.73360 0.81144
 H817 H 0.61054 0.69035 0.78215
 H818 H 0.64256 0.68397 0.75607
 H819 H 0.65629 0.75626 0.75555
 H820 H 0.62396 0.76246 0.78129
 C821 C 0.38469 0.77312 0.78371
 C822 C 0.37174 0.75465 0.77603
 C823 C 0.35339 0.75822 0.76128
 C824 C 0.34775 0.78035 0.75402
 C825 C 0.36088 0.79881 0.76185
 C826 C 0.37922 0.79519 0.77659
 C827 C 0.40357 0.76942 0.79888
 C828 C 0.41940 0.76633 0.81158
 H829 H 0.37579 0.73749 0.78149
 H830 H 0.34344 0.74370 0.75578
 H831 H 0.35714 0.81600 0.75633
 H832 H 0.38917 0.80961 0.78238
 C833 C -0.11545 0.27334 0.28359
 C834 C -0.12435 0.29519 0.28067
 C835 C -0.14269 0.29882 0.26593
 C836 C -0.15259 0.28057 0.25366
 C837 C -0.14324 0.25858 0.25690
 C838 C -0.12492 0.25507 0.27169
 C839 C -0.09657 0.26966 0.29878
 C840 C -0.08075 0.26659 0.31150
 H841 H -0.11699 0.30952 0.28967
 H842 H -0.14830 0.31620 0.26362
 H843 H -0.15049 0.24371 0.24883
 H844 H -0.11827 0.23801 0.27398
 C845 C -0.11515 0.72676 0.21642
 C846 C -0.12465 0.74504 0.22829
 C847 C -0.14302 0.74154 0.24302
 C848 C -0.15241 0.71955 0.24621
 C849 C -0.14249 0.70131 0.23395
 C850 C -0.12409 0.70492 0.21928
 C851 C -0.09623 0.73042 0.20128
 C852 C -0.08038 0.73349 0.18858
 H853 H -0.11797 0.76209 0.22604
 H854 H -0.15029 0.75641 0.25107
 H855 H -0.14813 0.68393 0.23623
 H856 H -0.11672 0.69059 0.21029
 C857 C 0.38475 0.22680 0.71668
 C858 C 0.37522 0.24507 0.72854
 C859 C 0.35684 0.24156 0.74326
 C860 C 0.34748 0.21957 0.74646
 C861 C 0.35743 0.20132 0.73422
 C862 C 0.37583 0.20495 0.71956
 C863 C 0.40368 0.23047 0.70156
 C864 C 0.41954 0.23355 0.68888
 H865 H 0.38188 0.26213 0.72628
 H866 H 0.34954 0.25643 0.75129
 H867 H 0.35181 0.18394 0.73651
 H868 H 0.38323 0.19062 0.71059
 C869 C 0.61538 0.27293 0.71676
 C870 C 0.62427 0.29478 0.71964
 C871 C 0.64265 0.29843 0.73431
 C872 C 0.65261 0.28020 0.74657
 C873 C 0.64327 0.25820 0.74338
 C874 C 0.62491 0.25467 0.72864
 C875 C 0.59648 0.26923 0.70162
 C876 C 0.58064 0.26614 0.68893
 H877 H 0.61687 0.30910 0.71065
 H878 H 0.64826 0.31582 0.73659
 H879 H 0.65057 0.24334 0.75143
 H880 H 0.61827 0.23760 0.72639
 C881 C 0.11548 0.77301 0.21618
 C882 C 0.12848 0.75456 0.22383
 C883 C 0.14684 0.75815 0.23855
 C884 C 0.15245 0.78029 0.24581
 C885 C 0.13927 0.79873 0.23801
 C886 C 0.12091 0.79509 0.22330
 C887 C 0.09657 0.76928 0.20105
 C888 C 0.08072 0.76617 0.18838
 H889 H 0.12446 0.73740 0.21837
 H890 H 0.15684 0.74366 0.24402
 H891 H 0.14297 0.81593 0.24353
 H892 H 0.11091 0.80949 0.21753
 C893 C 0.28346 0.11534 0.22688
 C894 C 0.25995 0.11248 0.22951
 C895 C 0.24520 0.13082 0.22593
 C896 C 0.25379 0.15229 0.21965
 C897 C 0.27747 0.15498 0.21704
 C898 C 0.29219 0.13662 0.22064
 C899 C 0.29863 0.09644 0.23057
 C900 C 0.31133 0.08061 0.23366
 H901 H 0.25301 0.09606 0.23428
 H902 H 0.22705 0.12815 0.22779
 H903 H 0.28462 0.17136 0.21250
 H904 H 0.31037 0.13903 0.21861
 C905 C 0.78347 0.61511 0.72661
 C906 C 0.79219 0.63638 0.72037
 C907 C 0.77747 0.65475 0.71676
 C908 C 0.75380 0.65205 0.71937
 C909 C 0.74520 0.63059 0.72566
 C910 C 0.75996 0.61225 0.72925
 C911 C 0.79864 0.59622 0.73032
 C912 C 0.81135 0.58040 0.73345
 H913 H 0.81037 0.63880 0.71834
 H914 H 0.78462 0.67113 0.71222
 H915 H 0.72705 0.62791 0.72752
 H916 H 0.75302 0.59583 0.73402
 C917 C 0.78350 0.38470 0.77314
 C918 C 0.77583 0.37175 0.75468
 C919 C 0.76111 0.35338 0.75826
 C920 C 0.75388 0.34773 0.78040
 C921 C 0.76169 0.36086 0.79885
 C922 C 0.77641 0.37923 0.79523
 C923 C 0.79866 0.40360 0.76944
 C924 C 0.81136 0.41943 0.76635
 H925 H 0.78127 0.37580 0.73752
 H926 H 0.75562 0.34342 0.74375
 H927 H 0.75620 0.35712 0.81605
 H928 H 0.78219 0.38919 0.80964
 C929 C 0.28351 -0.11526 0.27303
 C930 C 0.29124 -0.13470 0.28432
 C931 C 0.27659 -0.15311 0.28793
 C932 C 0.25374 -0.15253 0.28025
 C933 C 0.24631 -0.13262 0.26883
 C934 C 0.26105 -0.11426 0.26531
 C935 C 0.29863 -0.09633 0.26938
 C936 C 0.31131 -0.08047 0.26633
 H937 H 0.30870 -0.13573 0.29021
 H938 H 0.28372 -0.16808 0.29594
 H939 H 0.22887 -0.13058 0.26332
 H940 H 0.25482 -0.09917 0.25671
 C941 C 0.21658 -0.11534 0.72673
 C942 C 0.21946 -0.12425 0.70488
 C943 C 0.23415 -0.14262 0.70125
 C944 C 0.24642 -0.15255 0.71949
 C945 C 0.24321 -0.14319 0.74148
 C946 C 0.22846 -0.12484 0.74500
 C947 C 0.20142 -0.09643 0.73041
 C948 C 0.18872 -0.08060 0.73350
 H949 H 0.21046 -0.11687 0.69056
 H950 H 0.23644 -0.14825 0.68387
 H951 H 0.25127 -0.15047 0.75635
 H952 H 0.22619 -0.11818 0.76206
 C953 C 0.71646 0.38492 0.22666
 C954 C 0.70775 0.36363 0.22046
 C955 C 0.72248 0.34527 0.21689
 C956 C 0.74615 0.34797 0.21950
 C957 C 0.75473 0.36945 0.22575
 C958 C 0.73997 0.38780 0.22930
 C959 C 0.70128 0.40381 0.23034
 C960 C 0.68856 0.41963 0.23343
 H961 H 0.68957 0.36121 0.21843
 H962 H 0.71534 0.32888 0.21238
 H963 H 0.77288 0.37214 0.22761
 H964 H 0.74689 0.40423 0.23404
 C965 C 0.71646 0.61531 0.27277
 C966 C 0.73997 0.61242 0.27016
 C967 C 0.75473 0.63076 0.27373
 C968 C 0.74614 0.65224 0.27997
 C969 C 0.72247 0.65496 0.28255
 C970 C 0.70774 0.63661 0.27896
 C971 C 0.70128 0.59642 0.26911
 C972 C 0.68857 0.58060 0.26606
 H973 H 0.74690 0.59599 0.26543
 H974 H 0.77289 0.62806 0.27190
 H975 H 0.71533 0.67135 0.28706
 H976 H 0.68956 0.63904 0.28096
 C977 C 0.21652 0.11514 0.77302
 C978 C 0.22421 0.12809 0.75455
 C979 C 0.23893 0.14645 0.75812
 C980 C 0.24615 0.15211 0.78026
 C981 C 0.23831 0.13898 0.79872
 C982 C 0.22360 0.12062 0.79510
 C983 C 0.20137 0.09624 0.76932
 C984 C 0.18868 0.08040 0.76623
 H985 H 0.21878 0.12402 0.73739
 H986 H 0.24444 0.15640 0.74361
 H987 H 0.24379 0.14274 0.81592
 H988 H 0.21779 0.11067 0.80951
 C989 C 0.22667 0.28375 0.11505
 C990 C 0.20459 0.27663 0.12053
 C991 C 0.20099 0.26192 0.13890
 C992 C 0.21946 0.25412 0.15204
 C993 C 0.24159 0.26138 0.14638
 C994 C 0.24515 0.27610 0.12801
 C995 C 0.23034 0.29890 0.09615
 C996 C 0.23343 0.31160 0.08031
 H997 H 0.19017 0.28240 0.11057
 H998 H 0.18380 0.25640 0.14265
 H999 H 0.25611 0.25590 0.15634
 H1000 H 0.26230 0.28156 0.12395
 C1001 C 0.72666 0.78360 0.61490
 C1002 C 0.74514 0.77593 0.62784
 C1003 C 0.74159 0.76119 0.64620
 C1004 C 0.71946 0.75394 0.65186
 C1005 C 0.70098 0.76176 0.63874
 C1006 C 0.70459 0.77649 0.62038
 C1007 C 0.73034 0.79877 0.59600
 C1008 C 0.73344 0.81147 0.58018
 H1009 H 0.76230 0.78138 0.62378
 H1010 H 0.75611 0.75570 0.65614
 H1011 H 0.68379 0.75625 0.64250
 H1012 H 0.69016 0.78228 0.61044
 C1013 C 0.77316 0.78371 0.38447
 C1014 C 0.77943 0.79243 0.36320
 C1015 C 0.78306 0.77772 0.34484
 C1016 C 0.78043 0.75405 0.34752
 C1017 C 0.77412 0.74545 0.36898
 C1018 C 0.77052 0.76020 0.38733
 C1019 C 0.76944 0.79887 0.40336
 C1020 C 0.76632 0.81156 0.41919
 H1021 H 0.78147 0.81061 0.36079
 H1022 H 0.78761 0.78487 0.32846
 H1023 H 0.77225 0.72731 0.37166
 H1024 H 0.76573 0.75326 0.40374
 C1025 C 0.27295 0.28376 -0.11537
 C1026 C 0.27035 0.26025 -0.11249
 C1027 C 0.27395 0.24548 -0.13081
 C1028 C 0.28024 0.25406 -0.15229
 C1029 C 0.28282 0.27773 -0.15501
 C1030 C 0.27920 0.29246 -0.13666
 C1031 C 0.26924 0.29894 -0.09650
 C1032 C 0.26613 0.31165 -0.08068
 H1033 H 0.26558 0.25332 -0.09606
 H1034 H 0.27212 0.22734 -0.12811
 H1035 H 0.28736 0.28487 -0.17139
 H1036 H 0.28120 0.31064 -0.13910
 C1037 C 0.72703 0.21613 -0.11516
 C1038 C 0.72963 0.23964 -0.11229
 C1039 C 0.72603 0.25440 -0.13063
 C1040 C 0.71977 0.24580 -0.15210
 C1041 C 0.71720 0.22213 -0.15480
 C1042 C 0.72081 0.20741 -0.13644
 C1043 C 0.73073 0.20097 -0.09626
 C1044 C 0.73384 0.18827 -0.08043
 H1045 H 0.73437 0.24658 -0.09586
 H1046 H 0.72786 0.27254 -0.12794
 H1047 H 0.71267 0.21498 -0.17119
 H1048 H 0.71882 0.18923 -0.13886
 C1049 C 0.22721 0.71648 0.38467
 C1050 C 0.20513 0.72358 0.37918
 C1051 C 0.20152 0.73829 0.36081
 C1052 C 0.21999 0.74611 0.34768
 C1053 C 0.24213 0.73887 0.35335
 C1054 C 0.24569 0.72415 0.37172
 C1055 C 0.23089 0.70132 0.40357
 C1056 C 0.23395 0.68861 0.41940
 H1057 H 0.19071 0.71780 0.38913
 H1058 H 0.18433 0.74379 0.35705
 H1059 H 0.25665 0.74436 0.34340
 H1060 H 0.26285 0.71870 0.37579
 C1061 C 0.27308 0.71643 0.61516
 C1062 C 0.27049 0.73995 0.61229
 C1063 C 0.27406 0.75470 0.63063
 C1064 C 0.28030 0.74610 0.65211
 C1065 C 0.28287 0.72243 0.65482
 C1066 C 0.27927 0.70771 0.63646
 C1067 C 0.26940 0.70127 0.59627
 C1068 C 0.26632 0.68857 0.58044
 H1069 H 0.26576 0.74688 0.59585
 H1070 H 0.27224 0.77285 0.62793
 H1071 H 0.28737 0.71528 0.67121
 H1072 H 0.28127 0.68953 0.63888
 C1073 C 0.77336 0.21629 0.11529
 C1074 C 0.75486 0.22399 0.12820
 C1075 C 0.75840 0.23875 0.14654
 C1076 C 0.78053 0.24599 0.15222
 C1077 C 0.79902 0.23814 0.13914
 C1078 C 0.79543 0.22339 0.12079
 C1079 C 0.76969 0.20111 0.09641
 C1080 C 0.76661 0.18841 0.08058
 H1081 H 0.73771 0.21855 0.12413
 H1082 H 0.74387 0.24426 0.15646
 H1083 H 0.81621 0.24364 0.14290
 H1084 H 0.80986 0.21758 0.11087
 C1085 C 0.47715 0.36510 0.53393
 C1086 C 0.47981 0.36224 0.51042
 C1087 C 0.47625 0.38058 0.49566
 C1088 C 0.46996 0.40205 0.50425
 C1089 C 0.46733 0.40475 0.52792
 C1090 C 0.47091 0.38638 0.54264
 C1091 C 0.48079 0.34620 0.54909
 C1092 C 0.48385 0.33036 0.56179
 H1093 H 0.48457 0.34582 0.50349
 H1094 H 0.47812 0.37790 0.47752
 H1095 H 0.46279 0.42113 0.53506
 H1096 H 0.46886 0.38880 0.56082
 C1097 C -0.02304 0.86509 0.03366
 C1098 C -0.00455 0.87803 0.02602
 C1099 C -0.00808 0.89642 0.01131
 C1100 C -0.03020 0.90211 0.00406
 C1101 C -0.04869 0.88900 0.01185
 C1102 C -0.04511 0.87061 0.02655
 C1103 C -0.01938 0.84617 0.04878
 C1104 C -0.01630 0.83031 0.06146
 H1105 H 0.01260 0.87394 0.03147
 H1106 H 0.00645 0.90636 0.00584
 H1107 H -0.06588 0.89278 0.00634
 H1108 H -0.05955 0.86067 0.03231
 C1109 C 0.02309 0.63449 0.03356
 C1110 C 0.00482 0.62500 0.02167
 C1111 C 0.00833 0.60666 0.00692
 C1112 C 0.03032 0.59729 0.00370
 C1113 C 0.04857 0.60720 0.01597
 C1114 C 0.04494 0.62556 0.03067
 C1115 C 0.01942 0.65339 0.04872
 C1116 C 0.01635 0.66923 0.06141
 H1117 H -0.01224 0.63167 0.02394
 H1118 H -0.00655 0.59940 -0.00114
 H1119 H 0.06595 0.60156 0.01368
 H1120 H 0.05927 0.63293 0.03967
 C1121 C 0.52317 0.13462 0.53393
 C1122 C 0.50469 0.12166 0.52629
 C1123 C 0.50824 0.10332 0.51153
 C1124 C 0.53037 0.09770 0.50421
 C1125 C 0.54883 0.11084 0.51200
 C1126 C 0.54524 0.12917 0.52675
 C1127 C 0.51949 0.15350 0.54910
 C1128 C 0.51641 0.16933 0.56181
 H1129 H 0.48754 0.12569 0.53179
 H1130 H 0.49372 0.09336 0.50606
 H1131 H 0.56602 0.10712 0.50644
 H1132 H 0.55966 0.13914 0.53251
 C1133 C -0.02324 0.13505 0.46649
 C1134 C -0.02946 0.11379 0.45772
 C1135 C -0.03304 0.09539 0.47240
 C1136 C -0.03042 0.09803 0.49608
 C1137 C -0.02415 0.11948 0.50472
 C1138 C -0.02060 0.13786 0.49000
 C1139 C -0.01958 0.15398 0.45136
 C1140 C -0.01652 0.16983 0.43867
 H1141 H -0.03150 0.11141 0.43954
 H1142 H -0.03756 0.07902 0.46522
 H1143 H -0.02228 0.12212 0.52287
 H1144 H -0.01585 0.15427 0.49697
 C1145 C 0.47678 0.63472 0.96653
 C1146 C 0.46549 0.61527 0.95884
 C1147 C 0.46183 0.59691 0.97353
 C1148 C 0.46945 0.59755 0.99640
 C1149 C 0.48088 0.61746 1.00379
 C1150 C 0.48445 0.63578 0.98901
 C1151 C 0.48048 0.65361 0.95137
 C1152 C 0.48358 0.66944 0.93867
 H1153 H 0.45964 0.61420 0.94137
 H1154 H 0.45382 0.58193 0.96644
 H1155 H 0.48635 0.61955 1.02124
 H1156 H 0.49306 0.65088 0.99521
 C1157 C 0.52316 0.86507 0.96662
 C1158 C 0.52054 0.86219 0.99013
 C1159 C 0.52415 0.88052 1.00489
 C1160 C 0.53045 0.90199 0.99630
 C1161 C 0.53305 0.90469 0.97263
 C1162 C 0.52942 0.88635 0.95790
 C1163 C 0.51944 0.84619 0.95144
 C1164 C 0.51633 0.83038 0.93873
 H1165 H 0.51576 0.84577 0.99706
 H1166 H 0.52230 0.87783 1.02304
 H1167 H 0.53760 0.92107 0.96549
 H1168 H 0.53144 0.88877 0.93972
 C1169 C 0.02301 0.36556 0.46645
 C1170 C 0.01536 0.36449 0.48893
 C1171 C 0.01892 0.38281 0.50371
 C1172 C 0.03033 0.40273 0.49632
 C1173 C 0.03794 0.40339 0.47344
 C1174 C 0.03428 0.38503 0.45875
 C1175 C 0.01929 0.34668 0.45128
 C1176 C 0.01618 0.33086 0.43858
 H1177 H 0.00676 0.34939 0.49514
 H1178 H 0.01347 0.38070 0.52117
 H1179 H 0.04594 0.41837 0.46634
 H1180 H 0.04012 0.38611 0.44127
 C1181 C 0.36534 0.53351 0.47708
 C1182 C 0.36250 0.51000 0.47975
 C1183 C 0.38086 0.49526 0.47621
 C1184 C 0.40233 0.50387 0.46991
 C1185 C 0.40500 0.52753 0.46727
 C1186 C 0.38661 0.54224 0.47084
 C1187 C 0.34642 0.54866 0.48072
 C1188 C 0.33058 0.56136 0.48377
 H1189 H 0.34608 0.50306 0.48452
 H1190 H 0.37820 0.47711 0.47809
 H1191 H 0.42137 0.53469 0.46273
 H1192 H 0.38901 0.56042 0.46878
 C1193 C 0.86566 0.03346 -0.02302
 C1194 C 0.87516 0.02155 -0.00477
 C1195 C 0.89350 0.00679 -0.00830
 C1196 C 0.90285 0.00360 -0.03030
 C1197 C 0.89293 0.01589 -0.04853
 C1198 C 0.87457 0.03060 -0.04488
 C1199 C 0.84676 0.04862 -0.01933
 C1200 C 0.83092 0.06131 -0.01624
 H1201 H 0.86850 0.02381 0.01229
 H1202 H 0.90077 -0.00128 0.00656
 H1203 H 0.89855 0.01362 -0.06591
 H1204 H 0.86719 0.03961 -0.05920
 C1205 C 0.63512 0.03337 0.02334
 C1206 C 0.62215 0.02571 0.00488
 C1207 C 0.60378 0.01100 0.00846
 C1208 C 0.59813 0.00375 0.03059
 C1209 C 0.61128 0.01156 0.04905
 C1210 C 0.62965 0.02626 0.04542
 C1211 C 0.65403 0.04850 0.01964
 C1212 C 0.66986 0.06120 0.01654
 H1213 H 0.62620 0.03116 -0.01228
 H1214 H 0.59381 0.00552 -0.00605
 H1215 H 0.60753 0.00605 0.06624
 H1216 H 0.63962 0.03204 0.05983
 C1217 C 0.13475 0.53368 0.52292
 C1218 C 0.12177 0.52605 0.50446
 C1219 C 0.10341 0.51132 0.50803
 C1220 C 0.09779 0.50403 0.53016
 C1221 C 0.11095 0.51181 0.54861
 C1222 C 0.12931 0.52653 0.54500
 C1223 C 0.15365 0.54884 0.51923
 C1224 C 0.16948 0.56153 0.51615
 H1225 H 0.12580 0.53153 0.48731
 H1226 H 0.09342 0.50586 0.49352
 H1227 H 0.10723 0.50628 0.56581
 H1228 H 0.13929 0.53229 0.55941
 C1229 C 0.13448 0.46664 -0.02319
 C1230 C 0.12556 0.46951 -0.04503
 C1231 C 0.10719 0.48421 -0.04866
 C1232 C 0.09727 0.49649 -0.03042
 C1233 C 0.10665 0.49330 -0.00843
 C1234 C 0.12500 0.47854 -0.00492
 C1235 C 0.15339 0.45147 -0.01952
 C1236 C 0.16922 0.43877 -0.01646
 H1237 H 0.13292 0.46051 -0.05936
 H1238 H 0.10155 0.48649 -0.06604
 H1239 H 0.09939 0.50137 0.00644
 H1240 H 0.13167 0.47628 0.01214
 C1241 C 0.63459 0.96649 0.47671
 C1242 C 0.63564 0.98895 0.48444
 C1243 C 0.61730 1.00372 0.48096
 C1244 C 0.59736 0.99634 0.46956
 C1245 C 0.59673 0.97349 0.46188
 C1246 C 0.61512 0.95881 0.46545
 C1247 C 0.65350 0.95133 0.48035
 C1248 C 0.66934 0.93863 0.48341
 H1249 H 0.65075 0.99514 0.49303
 H1250 H 0.61939 1.02116 0.48647
 H1251 H 0.58173 0.96640 0.45388
 H1252 H 0.61405 0.94135 0.45956
 C1253 C 0.86513 0.96643 0.52294
 C1254 C 0.87060 0.97351 0.54503
 C1255 C 0.88896 0.98823 0.54866
 C1256 C 0.90210 0.99607 0.53021
 C1257 C 0.89645 0.98885 0.50807
 C1258 C 0.87809 0.97413 0.50448
 C1259 C 0.84623 0.95129 0.51922
 C1260 C 0.83040 0.93860 0.51612
 H1261 H 0.86064 0.96771 0.55943
 H1262 H 0.89270 0.99371 0.56586
 H1263 H 0.90642 0.99436 0.49356
 H1264 H 0.87404 0.96870 0.48732
 C1265 C 0.36498 0.46663 0.02293
 C1266 C 0.38624 0.45789 0.02921
 C1267 C 0.40461 0.47260 0.03283
 C1268 C 0.40194 0.49627 0.03019
 C1269 C 0.38049 0.50487 0.02386
 C1270 C 0.36214 0.49014 0.02027
 C1271 C 0.34608 0.45148 0.01923
 C1272 C 0.33025 0.43878 0.01614
 H1273 H 0.38864 0.43971 0.03126
 H1274 H 0.42098 0.46544 0.03740
 H1275 H 0.37782 0.52302 0.02199
 H1276 H 0.34573 0.49708 0.01547
 C1277 C 0.53383 0.47683 0.36535
 C1278 C 0.52674 0.45476 0.37084
 C1279 C 0.51203 0.45114 0.38922
 C1280 C 0.50422 0.46960 0.40235
 C1281 C 0.51145 0.49173 0.39669
 C1282 C 0.52616 0.49530 0.37832
 C1283 C 0.54896 0.48053 0.34643
 C1284 C 0.56162 0.48364 0.33058
 H1285 H 0.53252 0.44034 0.36088
 H1286 H 0.50654 0.43394 0.39297
 H1287 H 0.50596 0.50624 0.40666
 H1288 H 0.53160 0.51246 0.37425
 C1289 C 0.03377 -0.02319 0.86522
 C1290 C 0.04250 -0.02942 0.88650
 C1291 C 0.02780 -0.03299 0.90488
 C1292 C 0.00412 -0.03037 0.90220
 C1293 C -0.00449 -0.02410 0.88074
 C1294 C 0.01025 -0.02054 0.86238
 C1295 C 0.04892 -0.01954 0.84630
 C1296 C 0.06161 -0.01647 0.83046
 H1297 H 0.06069 -0.03145 0.88890
 H1298 H 0.03496 -0.03752 0.92126
 H1299 H -0.02264 -0.02223 0.87807
 H1300 H 0.00330 -0.01579 0.84596
 C1301 C 0.03365 0.02301 0.63472
 C1302 C 0.04237 0.02930 0.61345
 C1303 C 0.02764 0.03292 0.59509
 C1304 C 0.00397 0.03028 0.59779
 C1305 C -0.00462 0.02394 0.61925
 C1306 C 0.01014 0.02034 0.63758
 C1307 C 0.04882 0.01931 0.65360
 C1308 C 0.06153 0.01622 0.66943
 H1309 H 0.06055 0.03135 0.61103
 H1310 H 0.03478 0.03750 0.57872
 H1311 H -0.02276 0.02206 0.62193
 H1312 H 0.00321 0.01554 0.65399
 C1313 C 0.53334 0.52329 0.13484
 C1314 C 0.52569 0.50483 0.12186
 C1315 C 0.51095 0.50841 0.10351
 C1316 C 0.50368 0.53054 0.09789
 C1317 C 0.51148 0.54899 0.11105
 C1318 C 0.52620 0.54537 0.12940
 C1319 C 0.54851 0.51958 0.15372
 C1320 C 0.56123 0.51648 0.16954
 H1321 H 0.53116 0.48767 0.12589
 H1322 H 0.50548 0.49391 0.09353
 H1323 H 0.50595 0.56619 0.10732
 H1324 H 0.53197 0.55977 0.13938
 C1325 C 0.46651 -0.02314 0.13508
 C1326 C 0.47361 -0.04523 0.12963
 C1327 C 0.48836 -0.04887 0.11129
 C1328 C 0.49621 -0.03042 0.09816
 C1329 C 0.48897 -0.00828 0.10379
 C1330 C 0.47421 -0.00469 0.12212
 C1331 C 0.45132 -0.01943 0.15395
 C1332 C 0.43859 -0.01633 0.16975
 H1333 H 0.46780 -0.05963 0.13959
 H1334 H 0.49385 -0.06607 0.10757
 H1335 H 0.49449 0.00622 0.09382
 H1336 H 0.46877 0.01247 0.12616
 C1337 C 0.96645 0.47681 0.63486
 C1338 C 0.97407 0.49529 0.62189
 C1339 C 0.98879 0.49175 0.60352
 C1340 C 0.99607 0.46963 0.59786
 C1341 C 0.98830 0.45116 0.61100
 C1342 C 0.97359 0.45475 0.62938
 C1343 C 0.95129 0.48048 0.65377
 C1344 C 0.93859 0.48356 0.66960
 H1345 H 0.96859 0.51244 0.62595
 H1346 H 0.99425 0.50627 0.59355
 H1347 H 0.99383 0.43397 0.60725
 H1348 H 0.96783 0.44032 0.63935
 C1349 C 0.96621 0.52315 0.86534
 C1350 C 0.98973 0.52057 0.86246
 C1351 C 1.00449 0.52414 0.88080
 C1352 C 0.99589 0.53036 0.90228
 C1353 C 0.97221 0.53293 0.90500
 C1354 C 0.95749 0.52934 0.88664
 C1355 C 0.95105 0.51946 0.84645
 C1356 C 0.93835 0.51637 0.83062
 H1357 H 0.99667 0.51585 0.84602
 H1358 H 1.02264 0.52232 0.87810
 H1359 H 0.96506 0.53742 0.92139
 H1360 H 0.93930 0.53132 0.88907
 C1361 C 0.46621 0.02310 0.36542
 C1362 C 0.47333 0.04517 0.37091
 C1363 C 0.48807 0.04876 0.38926
 C1364 C 0.49590 0.03028 0.40236
 C1365 C 0.48864 0.00816 0.39670
 C1366 C 0.47389 0.00461 0.37836
 C1367 C 0.45104 0.01943 0.34653
 C1368 C 0.43834 0.01636 0.33070
 H1369 H 0.46754 0.05959 0.36097
 H1370 H 0.49359 0.06594 0.39301
 H1371 H 0.49413 -0.00637 0.40665
 H1372 H 0.46843 -0.01253 0.37429
   
