data_POSCAR
  _audit_creation_date              2014-09-24
  _audit_creation_method            'ToBaCCo'
  _symmetry_space_group_name_H-M    'P1'
  _symmetry_Int_Tables_number       1
  _symmetry_cell_setting            triclinic
  loop_
  _symmetry_equiv_pos_as_xyz
 x,y,z
_cell_length_a 49.9015
_cell_length_b 49.7344
_cell_length_c 49.2739
_cell_angle_alpha 90.523400
_cell_angle_beta 90.057200
_cell_angle_gamma 90.322800
loop_
  _atom_site_label
  _atom_site_type_symbol
  _atom_site_fract_x
  _atom_site_fract_y
  _atom_site_fract_z
N1 N 0.34432 0.34671 0.35890
 N2 N 0.35848 0.82771 -0.15214
 N3 N 0.84478 0.32366 -0.16082
 N4 N 0.83309 0.83049 0.33372
 N5 N 0.65742 0.67155 0.33671
 N6 N 0.64837 0.14991 -0.15329
 N7 N 0.14845 0.66374 -0.14495
 N8 N 0.14501 0.16459 0.35314
 N9 N 0.64183 0.32134 0.65439
 N10 N 0.65379 0.85192 1.13215
 N11 N 0.15683 0.35678 1.16153
 N12 N 0.15427 0.83245 0.66568
 N13 N 0.32811 0.64633 0.65751
 N14 N 0.34320 0.16308 1.16360
 N15 N 0.84596 0.66300 1.14045
 N16 N 0.84880 0.14592 0.63769
 N17 N 0.33572 0.34661 0.67171
 N18 N 0.35181 0.87155 0.15137
 N19 N 0.83506 0.34707 0.15948
 N20 N 0.85412 0.85370 0.64739
 N21 N 0.66137 0.63945 0.65257
 N22 N 0.65543 0.15679 0.16747
 N23 N 0.15763 0.65015 0.16019
 N24 N 0.16794 0.14252 0.66752
 N25 N 0.35176 0.67362 0.33913
 N26 N 0.34302 0.13972 0.86763
 N27 N 0.84588 0.62831 0.84366
 N28 N 0.84280 0.15770 0.33488
 N29 N 0.66155 0.35592 0.33940
 N30 N 0.66134 0.82996 0.81394
 N31 N 0.14744 0.33241 0.84862
 N32 N 0.15428 0.84621 0.34528
 O33 O 0.21905 0.98495 0.27291
 O34 O 0.25735 1.03793 0.23696
 O35 O 0.24829 0.98535 0.23053
 O36 O 0.21743 1.03731 0.27232
 O37 O 0.25040 1.03507 0.30212
 O38 O 0.28231 0.98260 0.25911
 O39 O 0.29054 1.03317 0.26615
 O40 O 0.25241 0.98175 0.30220
 Cu41 Cu 0.23280 1.01220 0.25030
 Cu42 Cu 0.27164 1.00827 0.28545
 C43 C 0.22957 0.97418 0.29374
 C44 C 0.28072 1.04431 0.24541
 C45 C 0.27031 0.97494 0.23747
 C46 C 0.22831 1.04515 0.29421
 O47 O 0.19446 0.47036 0.76562
 O48 O 0.22425 0.52129 0.72067
 O49 O 0.22545 0.46941 0.72453
 O50 O 0.18976 0.52276 0.76114
 O51 O 0.22404 0.52822 0.78905
 O52 O 0.25980 0.47382 0.75257
 O53 O 0.25794 0.52619 0.74944
 O54 O 0.22790 0.47601 0.79458
 Cu55 Cu 0.20491 0.49578 0.74027
 Cu56 Cu 0.24580 0.50154 0.77428
 C57 C 0.20643 0.46414 0.78744
 C58 C 0.24638 0.53226 0.72743
 C59 C 0.24844 0.46214 0.73250
 C60 C 0.20074 0.53474 0.78114
 O61 O 0.79545 0.01924 0.23894
 O62 O 0.75192 -0.03105 0.20479
 O63 O 0.75764 0.02147 0.20334
 O64 O 0.79170 -0.03256 0.23966
 O65 O 0.76258 -0.02922 0.27325
 O66 O 0.72682 0.02332 0.23546
 O67 O 0.72352 -0.02886 0.23909
 O68 O 0.76485 0.02341 0.27109
 Cu69 Cu 0.77705 -0.00624 0.21820
 Cu70 Cu 0.74150 -0.00250 0.25808
 C71 C 0.78704 0.03031 0.26063
 C72 C 0.73059 -0.03889 0.21651
 C73 C 0.73668 0.03189 0.21337
 C74 C 0.78318 -0.03992 0.26269
 O75 O 0.70264 0.50131 0.74773
 O76 O 0.73721 0.44927 0.78668
 O77 O 0.73757 0.50234 0.78708
 O78 O 0.70590 0.44925 0.74488
 O79 O 0.73908 0.45287 0.71548
 O80 O 0.77247 0.50267 0.75957
 O81 O 0.77103 0.45022 0.75785
 O82 O 0.73756 0.50525 0.72053
 Cu83 Cu 0.71752 0.47540 0.76954
 Cu84 Cu 0.75844 0.47785 0.73553
 C85 C 0.71413 0.51238 0.72774
 C86 C 0.75962 0.44033 0.77863
 C87 C 0.76045 0.51160 0.78038
 C88 C 0.71704 0.44233 0.72273
 O89 O 0.29581 0.53432 0.26502
 O90 O 0.26791 0.47835 0.22340
 O91 O 0.26654 0.53101 0.22182
 O92 O 0.30106 0.48242 0.26434
 O93 O 0.26553 0.47927 0.29084
 O94 O 0.23092 0.52932 0.24836
 O95 O 0.23228 0.47748 0.24993
 O96 O 0.26030 0.53218 0.29165
 Cu97 Cu 0.28635 0.50659 0.24097
 Cu98 Cu 0.24382 0.50427 0.27305
 C99 C 0.28237 0.54311 0.28512
 C100 C 0.24506 0.46864 0.22956
 C101 C 0.24318 0.53887 0.22795
 C102 C 0.28932 0.47242 0.28469
 O103 O 0.77354 0.97744 0.73028
 O104 O 0.73486 1.02991 0.76633
 O105 O 0.73817 0.97769 0.76905
 O106 O 0.76979 1.02986 0.72729
 O107 O 0.73743 1.02540 0.69694
 O108 O 0.70623 0.97265 0.73828
 O109 O 0.70191 1.02471 0.73676
 O110 O 0.74076 0.97337 0.70035
 Cu111 Cu 0.75737 1.00428 0.75124
 Cu112 Cu 0.71826 0.99897 0.71500
 C113 C 0.76338 0.96607 0.70944
 C114 C 0.71163 1.03589 0.75789
 C115 C 0.71714 0.96588 0.76044
 C116 C 0.75911 1.03637 0.70493
 O117 O 0.76255 0.53867 0.21144
 O118 O 0.71837 0.48777 0.24216
 O119 O 0.71853 0.53966 0.24033
 O120 O 0.76175 0.48631 0.21283
 O121 O 0.78677 0.48823 0.24980
 O122 O 0.74342 0.54117 0.27744
 O123 O 0.74389 0.48851 0.27886
 O124 O 0.78675 0.54067 0.24898
 Cu125 Cu 0.73790 0.51302 0.22284
 Cu126 Cu 0.76766 0.51482 0.26755
 C127 C 0.78190 0.54858 0.22508
 C128 C 0.72395 0.47926 0.26570
 C129 C 0.72368 0.54946 0.26363
 C130 C 0.78137 0.47793 0.22676
 O131 O 0.25694 -0.03645 0.71799
 O132 O 0.29738 0.01038 0.75968
 O133 O 0.29725 -0.04154 0.75079
 O134 O 0.25654 0.01520 0.72711
 O135 O 0.22662 0.00696 0.75902
 O136 O 0.27147 -0.04456 0.78705
 O137 O 0.26722 0.00781 0.79234
 O138 O 0.23116 -0.04476 0.75336
 Cu139 Cu 0.27988 -0.01248 0.73549
 Cu140 Cu 0.24641 -0.01921 0.77650
 C141 C 0.23753 -0.04907 0.72875
 C142 C 0.28871 0.01771 0.78280
 C143 C 0.29142 -0.05252 0.77321
 C144 C 0.23430 0.02024 0.73853
 O145 O 0.23060 0.27511 1.03439
 O146 O 0.26554 0.23406 0.98333
 O147 O 0.26683 0.23814 1.03560
 O148 O 0.22904 0.27137 0.98133
 O149 O 0.26118 0.30180 0.97746
 O150 O 0.29731 0.27048 1.03408
 O151 O 0.29724 0.26514 0.98085
 O152 O 0.26083 0.30741 1.03007
 Cu153 Cu 0.24474 0.25161 1.00891
 Cu154 Cu 0.28238 0.28931 1.00540
 C155 C 0.23970 0.29815 1.04097
 C156 C 0.28735 0.24266 0.97336
 C157 C 0.28825 0.24896 1.04443
 C158 C 0.23894 0.29185 0.96971
 O159 O 0.25735 0.79529 0.47658
 O160 O 0.29071 0.75109 0.52529
 O161 O 0.28728 0.75341 0.47288
 O162 O 0.25833 0.79176 0.53015
 O163 O 0.22210 0.76613 0.52821
 O164 O 0.25322 0.72490 0.47453
 O165 O 0.25452 0.72543 0.52741
 O166 O 0.22262 0.76760 0.47519
 Cu167 Cu 0.27685 0.77576 0.50134
 Cu168 Cu 0.23452 0.74340 0.50127
 C169 C 0.23474 0.78851 0.46682
 C170 C 0.27834 0.73094 0.53487
 C171 C 0.27535 0.73236 0.46428
 C172 C 0.23525 0.78534 0.53899
 O173 O 0.21775 0.75099 -0.01518
 O174 O 0.25888 0.79071 0.03380
 O175 O 0.25471 0.78709 -0.01925
 O176 O 0.21861 0.75742 0.03773
 O177 O 0.24698 0.72349 0.03828
 O178 O 0.28497 0.75491 -0.01781
 O179 O 0.28730 0.75693 0.03562
 O180 O 0.24765 0.71843 -0.01372
 Cu181 Cu 0.23462 0.77489 0.00921
 Cu182 Cu 0.26985 0.73532 0.01081
 C183 C 0.22593 0.72791 -0.02279
 C184 C 0.27992 0.78007 0.04349
 C185 C 0.27556 0.77599 -0.02866
 C186 C 0.22631 0.73528 0.04753
 O187 O 0.29345 0.23911 0.48685
 O188 O 0.24846 0.20718 0.53655
 O189 O 0.25331 0.20663 0.48372
 O190 O 0.28925 0.23948 0.54005
 O191 O 0.26278 0.27478 0.53718
 O192 O 0.22491 0.24050 0.48240
 O193 O 0.22206 0.24265 0.53550
 O194 O 0.26577 0.27353 0.48461
 Cu195 Cu 0.27388 0.21962 0.51207
 Cu196 Cu 0.24107 0.26132 0.50958
 C197 C 0.28691 0.26163 0.47693
 C198 C 0.22801 0.21983 0.54502
 C199 C 0.23312 0.21801 0.47332
 C200 C 0.28207 0.26258 0.54839
 O201 O 0.74802 0.78532 0.95154
 O202 O 0.79244 0.75466 1.00237
 O203 O 0.78636 0.75123 0.95025
 O204 O 0.75528 0.79104 1.00427
 O205 O 0.72390 0.75997 1.00940
 O206 O 0.75765 0.71809 0.95749
 O207 O 0.76125 0.72397 1.01008
 O208 O 0.71846 0.75267 0.95754
 Cu209 Cu 0.77343 0.77395 0.97656
 Cu210 Cu 0.73731 0.73540 0.98425
 C211 C 0.72595 0.77384 0.94552
 C212 C 0.78408 0.73417 1.01513
 C213 C 0.77752 0.72789 0.94470
 C214 C 0.73440 0.78241 1.01607
 O215 O 0.74506 0.29093 0.46836
 O216 O 0.79011 0.25880 0.51813
 O217 O 0.78819 0.26194 0.46486
 O218 O 0.75030 0.29126 0.52132
 O219 O 0.72285 0.25625 0.52107
 O220 O 0.76294 0.22535 0.46603
 O221 O 0.76327 0.22332 0.51850
 O222 O 0.71986 0.25429 0.46782
 Cu223 Cu 0.77103 0.27931 0.49304
 Cu224 Cu 0.73950 0.23631 0.49340
 C225 C 0.72512 0.27763 0.45913
 C226 C 0.78397 0.23562 0.52703
 C227 C 0.78220 0.23872 0.45583
 C228 C 0.73041 0.27874 0.53108
 O229 O 0.71920 0.23086 -0.02129
 O230 O 0.75689 0.26949 0.03101
 O231 O 0.75218 0.27223 -0.02198
 O232 O 0.72037 0.23258 0.03183
 O233 O 0.75347 0.20333 0.03008
 O234 O 0.78409 0.24191 -0.02614
 O235 O 0.79044 0.24100 0.02688
 O236 O 0.75183 0.20110 -0.02246
 Cu237 Cu 0.73394 0.25428 0.00502
 Cu238 Cu 0.77330 0.21904 0.00192
 C239 C 0.72916 0.20911 -0.03057
 C240 C 0.78014 0.26164 0.03786
 C241 C 0.77324 0.26377 -0.03355
 C242 C 0.73152 0.21146 0.04040
 O243 O 0.77317 0.75664 0.47320
 O244 O 0.73613 0.72083 0.52666
 O245 O 0.73123 0.72584 0.47445
 O246 O 0.77844 0.75157 0.52593
 O247 O 0.75334 0.78767 0.53140
 O248 O 0.70619 0.76200 0.47977
 O249 O 0.71091 0.75667 0.53303
 O250 O 0.74804 0.79252 0.47986
 Cu251 Cu 0.75731 0.73513 0.49951
 Cu252 Cu 0.72682 0.77815 0.50684
 C253 C 0.76679 0.78060 0.46731
 C254 C 0.71735 0.73278 0.53914
 C255 C 0.71112 0.73984 0.46781
 C256 C 0.77395 0.77410 0.53733
 O257 O 1.02146 0.30639 0.25845
 O258 O 0.97104 0.26559 0.29291
 O259 O 1.02124 0.27081 0.29374
 O260 O 0.96785 0.29889 0.25046
 O261 O 0.97565 0.26797 0.21909
 O262 O 1.02490 0.23710 0.26446
 O263 O 0.97280 0.23508 0.26010
 O264 O 1.02691 0.27444 0.22752
 Cu265 Cu 0.99392 0.28911 0.27599
 Cu266 Cu 1.00057 0.25043 0.23971
 C267 C 1.03371 0.29697 0.23796
 C268 C 0.96325 0.24346 0.28257
 C269 C 1.03199 0.24881 0.28633
 C270 C 0.96281 0.28831 0.22739
 O271 O 0.51480 0.20248 0.75729
 O272 O 0.46114 0.23576 0.71833
 O273 O 0.51275 0.23828 0.72015
 O274 O 0.46207 0.19714 0.75422
 O275 O 0.46110 0.22632 0.78824
 O276 O 0.50667 0.27096 0.75021
 O277 O 0.45536 0.26432 0.75238
 O278 O 0.51317 0.23579 0.78724
 Cu279 Cu 0.48777 0.21502 0.73444
 Cu280 Cu 0.48348 0.25224 0.77300
 C281 C 0.52418 0.21472 0.77801
 C282 C 0.44919 0.25584 0.72885
 C283 C 0.51810 0.26171 0.72906
 C284 C 0.45310 0.20453 0.77714
 O285 O -0.02334 0.21319 0.72176
 O286 O 0.02411 0.24890 0.76731
 O287 O -0.02769 0.24770 0.76180
 O288 O 0.02878 0.21280 0.72934
 O289 O 0.03208 0.24541 0.69939
 O290 O -0.02563 0.27967 0.73100
 O291 O 0.02590 0.28208 0.73786
 O292 O -0.01963 0.24595 0.69202
 Cu293 Cu 0.00016 0.22727 0.74796
 Cu294 Cu 0.00382 0.26654 0.71205
 C295 C -0.02995 0.22386 0.69937
 C296 C 0.03264 0.27193 0.76036
 C297 C -0.03649 0.26938 0.75182
 C298 C 0.04017 0.22320 0.70896
 O299 O 0.47273 0.27994 0.27423
 O300 O 0.52230 0.24659 0.23063
 O301 O 0.47100 0.24280 0.23688
 O302 O 0.52532 0.28224 0.26969
 O303 O 0.52900 0.25105 0.30107
 O304 O 0.47538 0.21157 0.26813
 O305 O 0.52800 0.21549 0.26179
 O306 O 0.47746 0.24867 0.30539
 Cu307 Cu 0.49742 0.26614 0.24987
 Cu308 Cu 0.50302 0.22838 0.28704
 C309 C 0.46636 0.26998 0.29698
 C310 C 0.53369 0.22542 0.23878
 C311 C 0.46374 0.22061 0.24721
 C312 C 0.53630 0.27334 0.29110
 O313 O 0.96703 0.75196 0.71700
 O314 O 1.01800 0.70775 0.74770
 O315 O 0.96526 0.70627 0.74334
 O316 O 1.01917 0.75024 0.71879
 O317 O 1.01612 0.77539 0.75585
 O318 O 0.96440 0.72869 0.78220
 O319 O 1.01620 0.73229 0.78524
 O320 O 0.96366 0.77409 0.75588
 Cu321 Cu 0.99230 0.72658 0.72794
 Cu322 Cu 0.98975 0.75500 0.77355
 C323 C 0.95660 0.77051 0.73139
 C324 C 1.02632 0.71318 0.77156
 C325 C 0.95589 0.70964 0.76705
 C326 C 1.02698 0.77014 0.73304
 O327 O 0.53089 0.81679 0.25139
 O328 O 0.48108 0.77966 0.29229
 O329 O 0.53252 0.78039 0.28977
 O330 O 0.47852 0.81693 0.25619
 O331 O 0.47739 0.78669 0.22309
 O332 O 0.53016 0.74846 0.25836
 O333 O 0.47787 0.74925 0.25945
 O334 O 0.52962 0.78428 0.22057
 Cu335 Cu 0.50613 0.80179 0.27547
 Cu336 Cu 0.50358 0.76406 0.23713
 C337 C 0.53899 0.80651 0.22914
 C338 C 0.47083 0.75820 0.28254
 C339 C 0.54013 0.75794 0.28021
 C340 C 0.46850 0.80801 0.23420
 O341 O 0.02854 0.75683 0.27777
 O342 O -0.02141 0.71389 0.24274
 O343 O 0.03039 0.72037 0.24045
 O344 O -0.02310 0.74954 0.28204
 O345 O -0.02988 0.78049 0.25092
 O346 O 0.02459 0.75158 0.20940
 O347 O -0.02719 0.74568 0.21230
 O348 O 0.02181 0.78873 0.24765
 Cu349 Cu 0.00415 0.73199 0.26385
 Cu350 Cu -0.00310 0.76987 0.22700
 C351 C 0.03366 0.78008 0.26861
 C352 C -0.03293 0.72267 0.22158
 C353 C 0.03673 0.73092 0.21801
 C354 C -0.03586 0.76975 0.27344
 O355 O 0.47424 0.77817 0.72623
 O356 O 0.52332 0.73820 0.68685
 O357 O 0.47039 0.74189 0.68837
 O358 O 0.52530 0.77691 0.72306
 O359 O 0.52549 0.74622 0.75521
 O360 O 0.47078 0.70990 0.71912
 O361 O 0.52378 0.70786 0.71927
 O362 O 0.47332 0.74626 0.75714
 Cu363 Cu 0.49839 0.76162 0.70263
 Cu364 Cu 0.49835 0.72428 0.74068
 C365 C 0.46551 0.76888 0.74853
 C366 C 0.53255 0.71664 0.69689
 C367 C 0.46058 0.72050 0.69813
 C368 C 0.53436 0.76804 0.74527
 C369 C 0.40468 0.30691 0.34254
 C370 C 0.40728 0.31131 0.31459
 N371 N 0.38915 0.32684 0.30166
 C372 C 0.36857 0.33839 0.31541
 C373 C 0.36603 0.33461 0.34366
 N374 N 0.38431 0.31875 0.35642
 N375 N 0.42235 0.29057 0.35523
 C376 C 0.44249 0.27840 0.34119
 C377 C 0.44530 0.28305 0.31322
 N378 N 0.42754 0.29949 0.30067
 H379 H 0.35419 0.35008 0.30419
 H380 H 0.45623 0.26538 0.35178
 C381 C 0.41081 0.81257 0.79702
 C382 C 0.41254 0.78451 0.79875
 N383 N 0.39627 0.77109 0.81605
 C384 C 0.37847 0.78446 0.83198
 C385 C 0.37715 0.81278 0.83109
 N386 N 0.39340 0.82603 0.81331
 N387 N 0.42646 0.82586 0.77896
 C388 C 0.44390 0.81233 0.76264
 C389 C 0.44611 0.78425 0.76481
 N390 N 0.43028 0.77107 0.78289
 H391 H 0.36534 0.77297 0.84497
 H392 H 0.45626 0.82342 0.74854
 C393 C -0.10455 0.30488 0.78791
 C394 C -0.08580 0.29107 0.80371
 N395 N -0.08959 0.28913 0.83089
 C396 C -0.11151 0.30008 0.84298
 C397 C -0.13098 0.31303 0.82710
 N398 N -0.12679 0.31520 0.79986
 N399 N -0.10027 0.30766 0.76088
 C400 C -0.07814 0.29705 0.74886
 C401 C -0.05975 0.28246 0.76446
 N402 N -0.06407 0.27986 0.79161
 H403 H -0.11388 0.29848 0.86473
 H404 H -0.07529 0.29938 0.72722
 C405 C -0.10181 0.79910 0.31814
 C406 C -0.10061 0.80185 0.28984
 N407 N -0.12140 0.81313 0.27646
 C408 C -0.14326 0.82211 0.29011
 C409 C -0.14428 0.82022 0.31862
 N410 N -0.12345 0.80851 0.33189
 N411 N -0.08141 0.78688 0.33137
 C412 C -0.05984 0.77727 0.31755
 C413 C -0.05841 0.78042 0.28925
 N414 N -0.07891 0.79270 0.27612
 H415 H -0.15973 0.83058 0.27881
 H416 H -0.04390 0.76748 0.32854
 C417 C 0.59922 0.71465 0.32248
 C418 C 0.59723 0.71270 0.29413
 N419 N 0.61514 0.69756 0.28018
 C420 C 0.63489 0.68410 0.29327
 C421 C 0.63664 0.68539 0.32188
 N422 N 0.61859 0.70084 0.33561
 N423 N 0.58207 0.73070 0.33641
 C424 C 0.56298 0.74496 0.32322
 C425 C 0.56064 0.74274 0.29485
 N426 N 0.57784 0.72653 0.28096
 H427 H 0.64921 0.67295 0.28128
 H428 H 0.54955 0.75764 0.33481
 C429 C 0.59693 0.19070 0.81343
 C430 C 0.57557 0.17229 0.81095
 N431 N 0.57841 0.14704 0.82080
 C432 C 0.60165 0.13939 0.83292
 C433 C 0.62319 0.15766 0.83494
 N434 N 0.62027 0.18286 0.82491
 N435 N 0.59390 0.21626 0.80467
 C436 C 0.57044 0.22430 0.79352
 C437 C 0.54922 0.20586 0.79046
 N438 N 0.55226 0.18013 0.79916
 H439 H 0.60338 0.11926 0.84085
 H440 H 0.56847 0.24483 0.78667
 C441 C 1.09436 0.67667 0.80581
 C442 C 1.07562 0.69008 0.82216
 N443 N 1.08030 0.69304 0.84913
 C444 C 1.10322 0.68373 0.86048
 C445 C 1.12280 0.67148 0.84400
 N446 N 1.11757 0.66791 0.81701
 N447 N 1.08946 0.67353 0.77884
 C448 C 1.06689 0.68372 0.76737
 C449 C 1.04869 0.69823 0.78353
 N450 N 1.05349 0.70080 0.81063
 H451 H 1.10638 0.68635 0.88207
 H452 H 1.06379 0.68149 0.74572
 C453 C 1.09598 0.21468 0.32992
 C454 C 1.07720 0.19828 0.31637
 N455 N 1.08009 0.17117 0.31667
 C456 C 1.10124 0.15971 0.32947
 C457 C 1.12092 0.17610 0.34188
 N458 N 1.11754 0.20330 0.34198
 N459 N 1.09264 0.24175 0.33028
 C460 C 1.07154 0.25322 0.31736
 C461 C 1.05336 0.23692 0.30279
 N462 N 1.05662 0.20975 0.30276
 H463 H 1.10311 0.13805 0.32939
 H464 H 1.06954 0.27488 0.31762
 C465 C 0.57869 0.30630 0.68998
 C466 C 0.57774 0.27815 0.68807
 N467 N 0.59745 0.26479 0.67478
 C468 C 0.61820 0.27831 0.66331
 C469 C 0.61914 0.30657 0.66484
 N470 N 0.59920 0.31986 0.67819
 N471 N 0.55960 0.31952 0.70442
 C472 C 0.53964 0.30581 0.71715
 C473 C 0.53858 0.27762 0.71506
 N474 N 0.55766 0.26454 0.70042
 H475 H 0.63406 0.26710 0.65354
 H476 H 0.52476 0.31676 0.72869
 C477 C 0.59814 0.84371 0.18081
 C478 C 0.59394 0.81583 0.17986
 N479 N 0.60943 0.80029 0.16356
 C480 C 0.62888 0.81136 0.14790
 C481 C 0.63277 0.83948 0.14802
 N482 N 0.61724 0.85489 0.16478
 N483 N 0.58331 0.85906 0.19806
 C484 C 0.56436 0.84773 0.21432
 C485 C 0.55976 0.81984 0.21290
 N486 N 0.57475 0.80464 0.19563
 H487 H 0.64141 0.79821 0.13587
 H488 H 0.55273 0.86038 0.22780
 C489 C 1.10243 0.33651 0.20788
 C490 C 1.08495 0.32280 0.19012
 N491 N 1.09055 0.32198 0.16319
 C492 C 1.11309 0.33381 0.15326
 C493 C 1.13141 0.34642 0.17116
 N494 N 1.12535 0.34759 0.19811
 N495 N 1.09643 0.33814 0.23468
 C496 C 1.07387 0.32639 0.24462
 C497 C 1.05686 0.31174 0.22709
 N498 N 1.06282 0.31034 0.20015
 H499 H 1.11702 0.33290 0.13168
 H500 H 1.06973 0.32772 0.26615
 C501 C 1.09203 0.81572 0.70280
 C502 C 1.08949 0.78814 0.69712
 N503 N 1.10845 0.77555 0.68208
 C504 C 1.12978 0.78933 0.67210
 C505 C 1.13205 0.81724 0.67678
 N506 N 1.11305 0.82971 0.69229
 N507 N 1.07350 0.82796 0.71885
 C508 C 1.05247 0.81386 0.72934
 C509 C 1.04954 0.78638 0.72300
 N510 N 1.06825 0.77427 0.70703
 H511 H 1.14482 0.77861 0.66058
 H512 H 1.03796 0.82405 0.74202
 C513 C 0.38752 0.68994 0.66706
 C514 C 0.40482 0.67318 0.68156
 N515 N 0.39734 0.64738 0.68640
 C516 C 0.37312 0.63778 0.67789
 C517 C 0.35504 0.65499 0.66462
 N518 N 0.36307 0.68063 0.65930
 N519 N 0.39514 0.71550 0.66151
 C520 C 0.41915 0.72527 0.67020
 C521 C 0.43613 0.70897 0.68578
 N522 N 0.42855 0.68314 0.69099
 H523 H 0.36784 0.61706 0.68188
 H524 H 0.42444 0.74592 0.66585
 C525 C 0.39619 0.18143 0.21302
 C526 C 0.41443 0.19534 0.19658
 N527 N 0.40998 0.19672 0.16949
 C528 C 0.38774 0.18543 0.15812
 C529 C 0.36839 0.17286 0.17470
 N530 N 0.37351 0.17084 0.20182
 N531 N 0.40116 0.17927 0.24001
 C532 C 0.42338 0.19074 0.25136
 C533 C 0.44108 0.20569 0.23511
 N534 N 0.43617 0.20750 0.20800
 H535 H 0.38510 0.18659 0.13638
 H536 H 0.42667 0.18904 0.27299
 C537 C -0.09401 0.67820 0.18185
 C538 C -0.09158 0.70608 0.17865
 N539 N -0.10964 0.71935 0.16331
 C540 C -0.13003 0.70601 0.15075
 C541 C -0.13237 0.67784 0.15326
 N542 N -0.11417 0.66473 0.16900
 N543 N -0.07641 0.66516 0.19810
 C544 C -0.05647 0.67881 0.21130
 C545 C -0.05384 0.70672 0.20779
 N546 N -0.07153 0.71959 0.19146
 H547 H -0.14447 0.71748 0.13940
 H548 H -0.04275 0.66798 0.22418
 C549 C -0.09429 0.19058 0.65467
 C550 C -0.07936 0.17444 0.67227
 N551 N -0.08681 0.14846 0.67598
 C552 C -0.10908 0.13819 0.66364
 C553 C -0.12535 0.15497 0.64771
 N554 N -0.11693 0.18061 0.64311
 N555 N -0.08667 0.21640 0.65045
 C556 C -0.06510 0.22706 0.66353
 C557 C -0.05088 0.21143 0.68231
 N558 N -0.05825 0.18530 0.68603
 H559 H -0.11458 0.11742 0.66703
 H560 H -0.05984 0.24791 0.66016
 C561 C 0.33073 0.41130 0.32575
 C562 C 0.30257 0.41139 0.32503
 N563 N 0.28873 0.39047 0.33574
 C564 C 0.30176 0.36940 0.34705
 C565 C 0.32997 0.36925 0.34785
 N566 N 0.34373 0.39037 0.33720
 N567 N 0.34463 0.43169 0.31419
 C568 C 0.33168 0.45204 0.30159
 C569 C 0.30351 0.45213 0.30062
 N570 N 0.28959 0.43183 0.31260
 H571 H 0.29028 0.35273 0.35502
 H572 H 0.34329 0.46785 0.29216
 C573 C 0.33435 -0.11964 0.80153
 C574 C 0.32264 -0.10138 0.81981
 N575 N 0.32462 -0.10570 0.84686
 C576 C 0.33720 -0.12782 0.85651
 C577 C 0.34767 -0.14711 0.83826
 N578 N 0.34624 -0.14216 0.81111
 N579 N 0.33304 -0.11487 0.77448
 C580 C 0.32022 -0.09284 0.76485
 C581 C 0.30751 -0.07511 0.78307
 N582 N 0.30917 -0.07981 0.81020
 H583 H 0.33858 -0.13055 0.87822
 H584 H 0.31918 -0.08970 0.74317
 C585 C 0.79468 0.37411 0.81859
 C586 C 0.81070 0.39278 0.80473
 N587 N 0.83763 0.38937 0.80402
 C588 C 0.84925 0.36782 0.81597
 C589 C 0.83320 0.34816 0.82870
 N590 N 0.80619 0.35218 0.82999
 N591 N 0.76781 0.37796 0.81997
 C592 C 0.75620 0.39947 0.80791
 C593 C 0.77206 0.41776 0.79322
 N594 N 0.79906 0.41394 0.79209
 H595 H 0.87082 0.36595 0.81525
 H596 H 0.73469 0.40187 0.80917
 C597 C 0.82255 -0.10444 0.30032
 C598 C 0.79494 -0.10063 0.30391
 N599 N 0.78046 -0.11911 0.31783
 C600 C 0.79231 -0.14134 0.32821
 C601 C 0.82006 -0.14527 0.32471
 N602 N 0.83441 -0.12643 0.31091
 N603 N 0.83686 -0.08674 0.28529
 C604 C 0.82474 -0.06548 0.27339
 C605 C 0.79708 -0.06158 0.27689
 N606 N 0.78284 -0.07921 0.29230
 H607 H 0.78004 -0.15613 0.33838
 H608 H 0.83654 -0.05182 0.26122
 C609 C 0.28476 0.58959 0.67787
 C610 C 0.28817 0.58993 0.70614
 N611 N 0.30393 0.60903 0.71791
 C612 C 0.31674 0.62770 0.70266
 C613 C 0.31425 0.62695 0.67419
 N614 N 0.29805 0.60789 0.66252
 N615 N 0.26816 0.57101 0.66629
 C616 C 0.25497 0.55262 0.68173
 C617 C 0.25899 0.55248 0.70997
 N618 N 0.27553 0.57124 0.72143
 H619 H 0.32879 0.64300 0.71265
 H620 H 0.24198 0.53791 0.67201
 C621 C 0.32616 1.10404 0.20533
 C622 C 0.29804 1.10405 0.20415
 N623 N 0.28533 1.12389 0.19064
 C624 C 0.29942 1.14354 0.17790
 C625 C 0.32769 1.14315 0.17813
 N626 N 0.34031 1.12339 0.19219
 N627 N 0.33885 1.08467 0.21960
 C628 C 0.32470 1.06528 0.23272
 C629 C 0.29654 1.06494 0.23119
 N630 N 0.28390 1.08443 0.21686
 H631 H 0.28862 1.15927 0.16764
 H632 H 0.33535 1.05011 0.24399
 C633 C 0.82548 0.61271 0.19081
 C634 C 0.81294 0.59329 0.17421
 N635 N 0.81376 0.59588 0.14686
 C636 C 0.82588 0.61747 0.13533
 C637 C 0.83700 0.63790 0.15192
 N638 N 0.83690 0.63466 0.17936
 N639 N 0.82498 0.60988 0.21818
 C640 C 0.81206 0.58875 0.22973
 C641 C 0.79842 0.56996 0.21319
 N642 N 0.79940 0.57262 0.18575
 H643 H 0.82598 0.61922 0.11346
 H644 H 0.81160 0.58720 0.25162
 C645 C 0.80051 1.09281 0.65699
 C646 C 0.80260 1.09343 0.68537
 N647 N 0.81850 1.11212 0.69759
 C648 C 0.83297 1.12985 0.68267
 C649 C 0.83227 1.12835 0.65406
 N650 N 0.81549 1.11007 0.64206
 N651 N 0.78389 1.07465 0.64482
 C652 C 0.76953 1.05680 0.65979
 C653 C 0.77241 1.05672 0.68818
 N654 N 0.78884 1.07520 0.70026
 H655 H 0.84508 1.14482 0.69307
 H656 H 0.75667 1.04230 0.64960
 C657 C 0.67631 0.61145 0.29685
 C658 C 0.70405 0.61060 0.30151
 N659 N 0.71600 0.63019 0.31660
 C660 C 0.70141 0.65049 0.32756
 C661 C 0.67343 0.65098 0.32383
 N662 N 0.66157 0.63137 0.30839
 N663 N 0.66460 0.59234 0.28085
 C664 C 0.67941 0.57232 0.26944
 C665 C 0.70704 0.57104 0.27478
 N666 N 0.71866 0.59029 0.29071
 H667 H 0.71147 0.66600 0.33935
 H668 H 0.66965 0.55726 0.25681
 C669 C 0.66608 1.09254 0.80225
 C670 C 0.69415 1.09378 0.80235
 N671 N 0.70674 1.11376 0.81638
 C672 C 0.69255 1.13231 0.83075
 C673 C 0.66433 1.13046 0.83187
 N674 N 0.65194 1.11070 0.81702
 N675 N 0.65340 1.07332 0.78721
 C676 C 0.66757 1.05514 0.77236
 C677 C 0.69574 1.05589 0.77293
 N678 N 0.70835 1.07529 0.78798
 H679 H 0.70328 1.14861 0.84062
 H680 H 0.65696 1.03994 0.76065
 C681 C 0.16042 0.59960 0.81885
 C682 C 0.18833 0.59710 0.82098
 N683 N 0.20266 0.61645 0.83417
 C684 C 0.19037 0.63818 0.84544
 C685 C 0.16226 0.64068 0.84376
 N686 N 0.14809 0.62112 0.83034
 N687 N 0.14616 0.58074 0.80485
 C688 C 0.15857 0.55952 0.79273
 C689 C 0.18654 0.55686 0.79491
 N690 N 0.20073 0.57577 0.80914
 H691 H 0.20256 0.65352 0.85515
 H692 H 0.14672 0.54488 0.78154
 C693 C 0.18824 1.10604 0.33835
 C694 C 0.18598 1.10398 0.31006
 N695 N 0.17093 1.12198 0.29639
 C696 C 0.15772 1.14189 0.30975
 C697 C 0.15904 1.14364 0.33831
 N698 N 0.17456 1.12558 0.35183
 N699 N 0.20425 1.08860 0.35182
 C700 C 0.21796 1.06905 0.33822
 C701 C 0.21509 1.06654 0.30993
 N702 N 0.19912 1.08418 0.29661
 H703 H 0.14647 1.15629 0.29810
 H704 H 0.23047 1.05531 0.34940
 C705 C 0.68081 0.38189 0.67409
 C706 C 0.67719 0.38248 0.70232
 N707 N 0.66263 0.36285 0.71435
 C708 C 0.65124 0.34273 0.69943
 C709 C 0.65402 0.34237 0.67090
 N710 N 0.66900 0.36208 0.65906
 N711 N 0.69635 0.40095 0.66224
 C712 C 0.70841 0.42060 0.67738
 C713 C 0.70438 0.42150 0.70562
 N714 N 0.68878 0.40235 0.71737
 H715 H 0.64042 0.32706 0.70989
 H716 H 0.72074 0.43554 0.66745
 C717 C 0.68338 -0.10101 0.18211
 C718 C 0.69789 -0.08345 0.16541
 N719 N 0.69644 -0.08650 0.13805
 C720 C 0.68153 -0.10662 0.12665
 C721 C 0.66789 -0.12505 0.14337
 N722 N 0.66906 -0.12143 0.17078
 N723 N 0.68411 -0.09759 0.20942
 C724 C 0.69883 -0.07744 0.22086
 C725 C 0.71398 -0.06023 0.20429
 N726 N 0.71312 -0.06365 0.17684
 H727 H 0.68060 -0.10840 0.10477
 H728 H 0.69915 -0.07524 0.24274
 C729 C 0.20870 0.40466 0.18579
 C730 C 0.19328 0.42328 0.20036
 N731 N 0.16623 0.42058 0.20085
 C732 C 0.15383 0.39974 0.18785
 C733 C 0.16921 0.38015 0.17419
 N734 N 0.19640 0.38346 0.17329
 N735 N 0.23576 0.40788 0.18471
 C736 C 0.24810 0.42878 0.19784
 C737 C 0.23272 0.44693 0.21324
 N738 N 0.20561 0.44370 0.21396
 H739 H 0.13220 0.39852 0.18828
 H740 H 0.26969 0.43073 0.19691
 C741 C 0.19488 -0.10752 0.68294
 C742 C 0.19379 -0.10732 0.71138
 N743 N 0.17970 -0.12675 0.72434
 C744 C 0.16656 -0.14638 0.71017
 C745 C 0.16724 -0.14654 0.68154
 N746 N 0.18155 -0.12693 0.66876
 N747 N 0.20970 -0.08864 0.66996
 C748 C 0.22358 -0.06955 0.68417
 C749 C 0.22241 -0.06916 0.71270
 N750 N 0.20740 -0.08810 0.72559
 H751 H 0.15621 -0.16195 0.72125
 H752 H 0.23529 -0.05478 0.67329
 C753 C 0.32796 0.29688 0.41147
 C754 C 0.31389 0.31276 0.43027
 N755 N 0.31200 0.33963 0.42643
 C756 C 0.32292 0.35131 0.40421
 C757 C 0.33564 0.33530 0.38434
 N758 N 0.33821 0.30841 0.38882
 N759 N 0.33018 0.27003 0.41565
 C760 C 0.31846 0.25826 0.43750
 C761 C 0.30321 0.27397 0.45557
 N762 N 0.30153 0.30093 0.45156
 H763 H 0.32106 0.37281 0.40172
 H764 H 0.32001 0.23673 0.44003
 C765 C 0.30978 0.80831 -0.09967
 C766 C 0.32589 0.79452 -0.08109
 N767 N 0.35257 0.79217 -0.08601
 C768 C 0.36379 0.80287 -0.10871
 C769 C 0.34751 0.81612 -0.12770
 N770 N 0.32085 0.81849 -0.12248
 N771 N 0.28334 0.81159 -0.09454
 C772 C 0.27214 0.80166 -0.07162
 C773 C 0.28799 0.78738 -0.05310
 N774 N 0.31461 0.78404 -0.05833
 H775 H 0.38514 0.80106 -0.11198
 H776 H 0.25092 0.80449 -0.06814
 C777 C 0.80655 0.30802 -0.09855
 C778 C 0.80875 0.27990 -0.09768
 N779 N 0.82120 0.26669 -0.11823
 C780 C 0.83208 0.28030 -0.13935
 C781 C 0.83118 0.30865 -0.13978
 N782 N 0.81797 0.32177 -0.11938
 N783 N 0.79325 0.32110 -0.07839
 C784 C 0.78218 0.30736 -0.05736
 C785 C 0.78497 0.27926 -0.05607
 N786 N 0.79821 0.26623 -0.07641
 H787 H 0.84168 0.26909 -0.15552
 H788 H 0.77166 0.31830 -0.04159
 C789 C 0.80293 0.81993 0.40106
 C790 C 0.80435 0.79188 0.40351
 N791 N 0.81579 0.77712 0.38338
 C792 C 0.82574 0.78910 0.36079
 C793 C 0.82424 0.81724 0.35813
 N794 N 0.81294 0.83190 0.37859
 N795 N 0.79068 0.83465 0.42070
 C796 C 0.77946 0.82256 0.44259
 C797 C 0.78062 0.79444 0.44504
 N798 N 0.79328 0.77979 0.42544
 H799 H 0.83408 0.77671 0.34478
 H800 H 0.76953 0.83478 0.45779
 C801 C 0.69257 0.30943 0.60128
 C802 C 0.67765 0.29538 0.58151
 N803 N 0.65097 0.29163 0.58524
 C804 C 0.63862 0.30078 0.60809
 C805 C 0.65377 0.31364 0.62870
 N806 N 0.68042 0.31788 0.62442
 N807 N 0.71906 0.31404 0.59723
 C808 C 0.73142 0.30499 0.57439
 C809 C 0.71679 0.29007 0.55497
 N810 N 0.69013 0.28564 0.55899
 H811 H 0.61728 0.29766 0.61033
 H812 H 0.75265 0.30874 0.57179
 C813 C 0.70181 0.82597 1.08179
 C814 C 0.68497 0.81176 1.06384
 N815 N 0.65805 0.81208 1.06787
 C816 C 0.64727 0.82564 1.08931
 C817 C 0.66422 0.83885 1.10809
 N818 N 0.69114 0.83879 1.10356
 N819 N 0.72861 0.82656 1.07733
 C820 C 0.73944 0.81332 1.05580
 C821 C 0.72278 0.79826 1.03831
 N822 N 0.69583 0.79786 1.04274
 H823 H 0.62575 0.82575 1.09197
 H824 H 0.76092 0.81391 1.05282
 C825 C 0.19973 0.34202 1.10235
 C826 C 0.19780 0.31389 1.10077
 N827 N 0.18339 0.30037 1.11959
 C828 C 0.17044 0.31373 1.13977
 C829 C 0.17139 0.34204 1.14094
 N830 N 0.18637 0.35547 1.12223
 N831 N 0.21494 0.35540 1.08397
 C832 C 0.22823 0.34187 1.06400
 C833 C 0.22582 0.31373 1.06208
 N834 N 0.21063 0.30048 1.08061
 H835 H 0.15942 0.30234 1.15472
 H836 H 0.24025 0.35298 1.04962
 C837 C 0.20252 0.81950 0.61031
 C838 C 0.18586 0.80814 0.59029
 N839 N 0.15904 0.80674 0.59457
 C840 C 0.14814 0.81560 0.61828
 C841 C 0.16490 0.82556 0.63917
 N842 N 0.19176 0.82764 0.63432
 N843 N 0.22930 0.82139 0.60575
 C844 C 0.24025 0.81192 0.58227
 C845 C 0.22376 0.79933 0.56272
 N846 N 0.19685 0.79796 0.56722
 H847 H 0.12668 0.81431 0.62106
 H848 H 0.26173 0.81316 0.57943
 C849 C 0.31692 0.68487 0.59485
 C850 C 0.28888 0.68637 0.59391
 N851 N 0.27416 0.67430 0.61352
 C852 C 0.28617 0.66085 0.63410
 C853 C 0.31439 0.65910 0.63514
 N854 N 0.32892 0.67122 0.61520
 N855 N 0.33176 0.69790 0.57597
 C856 C 0.31981 0.71258 0.55626
 C857 C 0.29170 0.71412 0.55518
 N858 N 0.27688 0.70077 0.57403
 H859 H 0.27375 0.65230 0.64981
 H860 H 0.33215 0.72295 0.54158
 C861 C 0.32501 0.21346 1.11232
 C862 C 0.31037 0.19779 1.09365
 N863 N 0.30761 0.17096 1.09771
 C864 C 0.31857 0.15911 1.11982
 C865 C 0.33242 0.17488 1.13920
 N866 N 0.33537 0.20177 1.13476
 N867 N 0.32848 0.24014 1.10782
 C868 C 0.31769 0.25195 1.08557
 C869 C 0.30221 0.23649 1.06732
 N870 N 0.29900 0.20968 1.07184
 H871 H 0.31629 0.13765 1.12244
 H872 H 0.32047 0.27333 1.08262
 C873 C 0.82979 0.69927 1.07755
 C874 C 0.80176 0.69694 1.07698
 N875 N 0.78885 0.68390 1.09718
 C876 C 0.80270 0.67290 1.11797
 C877 C 0.83088 0.67456 1.11843
 N878 N 0.84375 0.68783 1.09808
 N879 N 0.84252 0.71328 1.05777
 C880 C 0.82842 0.72502 1.03742
 C881 C 0.80038 0.72223 1.03661
 N882 N 0.78781 0.70818 1.05648
 H883 H 0.79181 0.66307 1.13410
 H884 H 0.83898 0.73609 1.02189
 C885 C 0.82631 0.19830 0.59039
 C886 C 0.81294 0.18293 0.57056
 N887 N 0.81283 0.15572 0.57228
 C888 C 0.82502 0.14314 0.59331
 C889 C 0.83730 0.15848 0.61407
 N890 N 0.83784 0.18580 0.61176
 N891 N 0.82711 0.22550 0.58821
 C892 C 0.81475 0.23807 0.56725
 C893 C 0.80037 0.22277 0.54798
 N894 N 0.79996 0.19548 0.55010
 H895 H 0.82517 0.12143 0.59367
 H896 H 0.81527 0.25980 0.56624
 C897 C 0.67134 0.71420 0.39676
 C898 C 0.68266 0.69548 0.41449
 N899 N 0.68298 0.66907 0.40747
 C900 C 0.67328 0.66059 0.38309
 C901 C 0.66369 0.67949 0.36432
 N902 N 0.66249 0.70588 0.37198
 N903 N 0.67075 0.74060 0.40402
 C904 C 0.68165 0.74921 0.42791
 C905 C 0.69449 0.73070 0.44489
 N906 N 0.69438 0.70419 0.43783
 H907 H 0.67399 0.63942 0.37794
 H908 H 0.68163 0.77047 0.43283
 C909 C 0.69073 0.16507 -0.09342
 C910 C 0.68001 0.18943 -0.08406
 N911 N 0.65798 0.19952 -0.09637
 C912 C 0.64664 0.18680 -0.11813
 C913 C 0.65821 0.16299 -0.12867
 N914 N 0.67958 0.15249 -0.11524
 N915 N 0.71284 0.15494 -0.08132
 C916 C 0.72504 0.16833 -0.06054
 C917 C 0.71483 0.19319 -0.05149
 N918 N 0.69227 0.20300 -0.06338
 H919 H 0.62911 0.19566 -0.12711
 H920 H 0.74284 0.15984 -0.05153
 C921 C 0.18544 0.68170 -0.08246
 C922 C 0.18406 0.70990 -0.08257
 N923 N 0.17111 0.72236 -0.10311
 C924 C 0.15944 0.70791 -0.12354
 C925 C 0.16050 0.67960 -0.12338
 N926 N 0.17354 0.66724 -0.10267
 N927 N 0.19922 0.66923 -0.06250
 C928 C 0.21192 0.68369 -0.04275
 C929 C 0.21060 0.71193 -0.04275
 N930 N 0.19651 0.72438 -0.06267
 H931 H 0.14961 0.71838 -0.13989
 H932 H 0.22304 0.67323 -0.02725
 C933 C 0.19572 0.18272 0.40480
 C934 C 0.18089 0.19851 0.42303
 N935 N 0.15432 0.20217 0.41855
 C936 C 0.14198 0.19104 0.39647
 C937 C 0.15701 0.17596 0.37750
 N938 N 0.18359 0.17216 0.38249
 N939 N 0.22204 0.17815 0.40966
 C940 C 0.23431 0.18882 0.43192
 C941 C 0.21974 0.20526 0.44991
 N942 N 0.19326 0.20974 0.44500
 H943 H 0.12068 0.19391 0.39390
 H944 H 0.25540 0.18501 0.43521
 C945 C 0.28497 0.39565 0.69378
 C946 C 0.30061 0.41465 0.70801
 N947 N 0.32759 0.41145 0.70922
 C948 C 0.33959 0.38996 0.69710
 C949 C 0.32386 0.37042 0.68356
 N950 N 0.29686 0.37397 0.68218
 N951 N 0.25811 0.39907 0.69192
 C952 C 0.24607 0.42057 0.70378
 C953 C 0.26151 0.43939 0.71861
 N954 N 0.28854 0.43594 0.72037
 H955 H 0.36114 0.38792 0.69825
 H956 H 0.22455 0.42265 0.70209
 C957 C 0.30276 0.91467 0.18658
 C958 C 0.31958 0.93346 0.19966
 N959 N 0.34640 0.93258 0.19527
 C960 C 0.35722 0.91346 0.17877
 C961 C 0.34057 0.89384 0.16650
 N962 N 0.31360 0.89519 0.17062
 N963 N 0.27587 0.91602 0.19027
 C964 C 0.26501 0.93530 0.20651
 C965 C 0.28181 0.95376 0.22017
 N966 N 0.30880 0.95239 0.21638
 H967 H 0.37867 0.91321 0.17564
 H968 H 0.24347 0.93600 0.20904
 C969 C 0.82183 0.40872 0.19934
 C970 C 0.80495 0.42289 0.18187
 N971 N 0.80017 0.41315 0.15651
 C972 C 0.81074 0.38932 0.14818
 C973 C 0.82609 0.37396 0.16637
 N974 N 0.83185 0.38471 0.19125
 N975 N 0.82683 0.41850 0.22464
 C976 C 0.81516 0.44156 0.23353
 C977 C 0.79721 0.45518 0.21652
 N978 N 0.79281 0.44561 0.19090
 H979 H 0.80667 0.38223 0.12777
 H980 H 0.81907 0.44857 0.25402
 C981 C 0.80214 0.90062 0.67118
 C982 C 0.81667 0.91810 0.68823
 N983 N 0.84334 0.91395 0.69191
 C984 C 0.85609 0.89315 0.67923
 C985 C 0.84147 0.87548 0.66220
 N986 N 0.81475 0.87982 0.65887
 N987 N 0.77574 0.90495 0.66671
 C988 C 0.76306 0.92606 0.67853
 C989 C 0.77733 0.94360 0.69591
 N990 N 0.80393 0.93911 0.70045
 H991 H 0.87744 0.89073 0.68206
 H992 H 0.74191 0.92888 0.67465
 C993 C 0.67369 0.57540 0.68789
 C994 C 0.70181 0.57476 0.68870
 N995 N 0.71605 0.59531 0.67780
 C996 C 0.70348 0.61646 0.66606
 C997 C 0.67526 0.61705 0.66477
 N998 N 0.66111 0.59632 0.67582
 N999 N 0.65942 0.55538 0.69972
 C1000 C 0.67196 0.53480 0.71244
 C1001 C 0.70014 0.53393 0.71312
 N1002 N 0.71440 0.55399 0.70106
 H1003 H 0.71540 0.63278 0.65804
 H1004 H 0.66006 0.51921 0.72186
 C1005 C 0.70268 0.10120 0.17910
 C1006 C 0.68686 0.08332 0.19414
 N1007 N 0.66067 0.08898 0.19855
 C1008 C 0.64970 0.11203 0.18910
 C1009 C 0.66582 0.13082 0.17523
 N1010 N 0.69196 0.12458 0.17036
 N1011 N 0.72871 0.09523 0.17407
 C1012 C 0.73979 0.07235 0.18381
 C1013 C 0.72432 0.05497 0.19991
 N1014 N 0.69810 0.06086 0.20457
 H1015 H 0.62871 0.11592 0.19286
 H1016 H 0.76073 0.06832 0.17990
 C1017 C 0.20777 0.60184 0.18414
 C1018 C 0.19172 0.58323 0.19804
 N1019 N 0.16468 0.58603 0.19784
 C1020 C 0.15299 0.60691 0.18478
 C1021 C 0.16911 0.62633 0.17193
 N1022 N 0.19618 0.62302 0.17177
 N1023 N 0.23474 0.59879 0.18374
 C1024 C 0.24650 0.57811 0.19693
 C1025 C 0.23062 0.55997 0.21172
 N1026 N 0.20350 0.56293 0.21183
 H1027 H 0.13140 0.60876 0.18495
 H1028 H 0.26811 0.57635 0.19654
 C1029 C 0.18640 0.08165 0.70552
 C1030 C 0.21449 0.08356 0.70532
 N1031 N 0.22652 0.10534 0.69426
 C1032 C 0.21177 0.12516 0.68293
 C1033 C 0.18364 0.12288 0.68193
 N1034 N 0.17161 0.10111 0.69350
 N1035 N 0.17444 0.06016 0.71741
 C1036 C 0.18933 0.04040 0.72888
 C1037 C 0.21746 0.04184 0.72781
 N1038 N 0.22931 0.06351 0.71608
 H1039 H 0.22190 0.14234 0.67424
 H1040 H 0.17933 0.02339 0.73807
 C1041 C 0.30882 0.61477 0.32355
 C1042 C 0.32717 0.59737 0.31098
 N1043 N 0.35346 0.60432 0.31004
 C1044 C 0.36215 0.62824 0.32039
 C1045 C 0.34360 0.64662 0.33146
 N1046 N 0.31735 0.63905 0.33318
 N1047 N 0.28261 0.60753 0.32499
 C1048 C 0.27382 0.58390 0.31397
 C1049 C 0.29193 0.56701 0.30022
 N1050 N 0.31830 0.57415 0.29925
 H1051 H 0.38325 0.63320 0.31929
 H1052 H 0.25271 0.57889 0.31498
 C1053 C 0.33013 0.07877 0.82614
 C1054 C 0.30223 0.07599 0.82828
 N1055 N 0.28819 0.09411 0.84319
 C1056 C 0.30076 0.11485 0.85622
 C1057 C 0.32891 0.11745 0.85475
 N1058 N 0.34277 0.09920 0.83951
 N1059 N 0.34404 0.06143 0.81011
 C1060 C 0.33126 0.04148 0.79604
 C1061 C 0.30333 0.03844 0.79841
 N1062 N 0.28951 0.05580 0.81463
 H1063 H 0.28874 0.12938 0.86708
 H1064 H 0.34278 0.02804 0.78324
 C1065 C 0.79614 0.57720 0.82205
 C1066 C 0.81147 0.56047 0.80522
 N1067 N 0.83795 0.56584 0.80175
 C1068 C 0.84978 0.58740 0.81417
 C1069 C 0.83432 0.60480 0.83050
 N1070 N 0.80780 0.59897 0.83400
 N1071 N 0.76981 0.57152 0.82608
 C1072 C 0.75798 0.54994 0.81374
 C1073 C 0.77307 0.53353 0.79619
 N1074 N 0.79956 0.53924 0.79244
 H1075 H 0.87101 0.59080 0.81135
 H1076 H 0.73686 0.54611 0.81701
 C1077 C 0.82968 0.09452 0.29721
 C1078 C 0.80169 0.09256 0.29921
 N1079 N 0.78778 0.11209 0.31225
 C1080 C 0.80061 0.13351 0.32364
 C1081 C 0.82876 0.13530 0.32244
 N1082 N 0.84262 0.11566 0.30909
 N1083 N 0.84338 0.07543 0.28313
 C1084 C 0.83030 0.05444 0.27097
 C1085 C 0.80232 0.05223 0.27346
 N1086 N 0.78876 0.07141 0.28758
 H1087 H 0.78896 0.14903 0.33354
 H1088 H 0.84161 0.03952 0.25976
 C1089 C 0.67817 0.41709 0.30077
 C1090 C 0.70621 0.41770 0.30308
 N1091 N 0.71900 0.39767 0.31618
 C1092 C 0.70501 0.37713 0.32743
 C1093 C 0.67680 0.37687 0.32619
 N1094 N 0.66407 0.39694 0.31267
 N1095 N 0.66556 0.43661 0.28656
 C1096 C 0.67977 0.45677 0.27467
 C1097 C 0.70776 0.45779 0.27771
 N1098 N 0.72027 0.43816 0.29187
 H1099 H 0.71579 0.36124 0.33748
 H1100 H 0.66933 0.47210 0.26342
 C1101 C 0.68798 0.89812 0.80208
 C1102 C 0.68413 0.90076 0.77404
 N1103 N 0.67268 0.88035 0.75966
 C1104 C 0.66485 0.85731 0.77205
 C1105 C 0.66833 0.85461 0.80027
 N1106 N 0.67985 0.87528 0.81453
 N1107 N 0.70065 0.91801 0.81623
 C1108 C 0.70986 0.94039 0.80351
 C1109 C 0.70594 0.94311 0.77543
 N1110 N 0.69300 0.92321 0.76142
 H1111 H 0.65657 0.84108 0.75987
 H1112 H 0.72021 0.95582 0.81515
 C1113 C 0.17809 0.39830 0.83289
 C1114 C 0.17553 0.39884 0.80454
 N1115 N 0.16500 0.37734 0.79118
 C1116 C 0.15644 0.35538 0.80490
 C1117 C 0.15782 0.35502 0.83350
 N1118 N 0.16897 0.37657 0.84675
 N1119 N 0.18981 0.41945 0.84602
 C1120 C 0.19906 0.44110 0.83203
 C1121 C 0.19594 0.44186 0.80368
 N1122 N 0.18422 0.42061 0.79068
 H1123 H 0.14863 0.33838 0.79350
 H1124 H 0.20854 0.45761 0.84289
 C1125 C 0.19186 0.90941 0.33386
 C1126 C 0.18841 0.91308 0.30587
 N1127 N 0.17421 0.89467 0.29128
 C1128 C 0.16309 0.87283 0.30338
 C1129 C 0.16587 0.86925 0.33166
 N1130 N 0.18041 0.88782 0.34608
 N1131 N 0.20709 0.92719 0.34826
 C1132 C 0.21915 0.94840 0.33589
 C1133 C 0.21555 0.95228 0.30788
 N1134 N 0.20011 0.93448 0.29356
 H1135 H 0.15260 0.85828 0.29082
 H1136 H 0.23141 0.96212 0.34781
 C1137 C 0.39146 0.30029 0.68592
 C1138 C 0.39272 0.30138 0.71432
 N1139 N 0.37533 0.31713 0.72827
 C1140 C 0.35674 0.33204 0.71509
 C1141 C 0.35573 0.33162 0.68647
 N1142 N 0.37325 0.31554 0.67271
 N1143 N 0.40831 0.28382 0.67203
 C1144 C 0.42656 0.26852 0.68531
 C1145 C 0.42832 0.27011 0.71375
 N1146 N 0.41125 0.28656 0.72753
 H1147 H 0.34269 0.34375 0.72690
 H1148 H 0.43999 0.25582 0.67374
 C1149 C 0.40204 0.84772 0.20033
 C1150 C 0.41945 0.83294 0.18365
 N1151 N 0.41482 0.83172 0.15650
 C1152 C 0.39339 0.84438 0.14532
 C1153 C 0.37535 0.85850 0.16214
 N1154 N 0.38042 0.85980 0.18930
 N1155 N 0.40700 0.84982 0.22732
 C1156 C 0.42859 0.83766 0.23850
 C1157 C 0.44578 0.82226 0.22204
 N1158 N 0.44077 0.82024 0.19489
 H1159 H 0.39050 0.84345 0.12358
 H1160 H 0.43195 0.83953 0.26014
 C1161 C 0.89979 0.31739 0.17861
 C1162 C 0.89708 0.31582 0.20694
 N1163 N 0.87354 0.32276 0.21873
 C1164 C 0.85278 0.33181 0.20357
 C1165 C 0.85584 0.33482 0.17537
 N1166 N 0.87924 0.32709 0.16347
 N1167 N 0.92303 0.30941 0.16678
 C1168 C 0.94368 0.30001 0.18201
 C1169 C 0.94125 0.29913 0.21042
 N1170 N 0.91789 0.30703 0.22218
 H1171 H 0.83415 0.33706 0.21346
 H1172 H 0.96193 0.29357 0.17209
 C1173 C 0.89749 0.82092 0.69776
 C1174 C 0.91538 0.80684 0.68095
 N1175 N 0.91371 0.80956 0.65364
 C1176 C 0.89467 0.82540 0.64233
 C1177 C 0.87607 0.83887 0.65903
 N1178 N 0.87817 0.83637 0.68647
 N1179 N 0.89946 0.81860 0.72510
 C1180 C 0.91846 0.80273 0.73642
 C1181 C 0.93608 0.78813 0.71964
 N1182 N 0.93409 0.79062 0.69221
 H1183 H 0.89379 0.82718 0.62048
 H1184 H 0.91952 0.80122 0.75829
 C1185 C 0.59995 0.31547 0.32940
 C1186 C 0.59555 0.31787 0.30140
 N1187 N 0.61285 0.33263 0.28633
 C1188 C 0.63431 0.34522 0.29796
 C1189 C 0.63864 0.34333 0.32622
 N1190 N 0.62114 0.32832 0.34109
 N1191 N 0.58335 0.29980 0.34434
 C1192 C 0.56259 0.28627 0.33252
 C1193 C 0.55797 0.28873 0.30449
 N1194 N 0.57458 0.30465 0.28959
 H1195 H 0.64804 0.35606 0.28505
 H1196 H 0.54977 0.27376 0.34491
 C1197 C 0.59643 0.81302 0.78237
 C1198 C 0.59553 0.78494 0.78494
 N1199 N 0.61589 0.77222 0.79772
 C1200 C 0.63721 0.78626 0.80786
 C1201 C 0.63824 0.81446 0.80522
 N1202 N 0.61752 0.82702 0.79266
 N1203 N 0.57677 0.82578 0.76862
 C1204 C 0.55635 0.81168 0.75698
 C1205 C 0.55538 0.78355 0.75935
 N1206 N 0.57495 0.77080 0.77353
 H1207 H 0.65349 0.77544 0.81718
 H1208 H 0.54106 0.82234 0.74587
 C1209 C 0.08670 0.31597 0.80946
 C1210 C 0.08709 0.28775 0.80922
 N1211 N 0.10649 0.27470 0.82315
 C1212 C 0.12574 0.28860 0.83703
 C1213 C 0.12552 0.31692 0.83718
 N1214 N 0.10572 0.32979 0.82349
 N1215 N 0.06829 0.32913 0.79440
 C1216 C 0.05037 0.31535 0.77878
 C1217 C 0.05073 0.28710 0.77836
 N1218 N 0.06897 0.27392 0.79386
 H1219 H 0.14157 0.27769 0.84704
 H1220 H 0.03605 0.32634 0.76671
 C1221 C 0.09311 0.82768 0.30711
 C1222 C 0.09402 0.79950 0.30797
 N1223 N 0.11477 0.78726 0.32052
 C1224 C 0.13465 0.80194 0.33244
 C1225 C 0.13357 0.83024 0.33226
 N1226 N 0.11270 0.84240 0.31948
 N1227 N 0.07283 0.83984 0.29362
 C1228 C 0.05341 0.82506 0.28094
 C1229 C 0.05405 0.79684 0.28219
 N1230 N 0.07439 0.78477 0.29578
 H1231 H 0.15116 0.79166 0.34199
 H1232 H 0.03751 0.83523 0.27024
 C1233 C 0.59795 0.67691 0.65990
 C1234 C 0.59213 0.67340 0.68744
 N1235 N 0.60874 0.65846 0.70298
 C1236 C 0.63103 0.64686 0.69226
 C1237 C 0.63701 0.65009 0.66450
 N1238 N 0.62003 0.66511 0.64910
 N1239 N 0.58197 0.69285 0.64463
 C1240 C 0.56048 0.70562 0.65576
 C1241 C 0.55455 0.70209 0.68339
 N1242 N 0.57056 0.68588 0.69848
 H1243 H 0.64423 0.63593 0.70555
 H1244 H 0.54825 0.71843 0.64322
 C1245 C 0.59327 0.19099 0.18867
 C1246 C 0.59559 0.19035 0.21708
 N1247 N 0.61778 0.17963 0.22850
 C1248 C 0.63768 0.16928 0.21284
 C1249 C 0.63517 0.16917 0.18436
 N1250 N 0.61291 0.18015 0.17298
 N1251 N 0.57151 0.20261 0.17725
 C1252 C 0.55198 0.21368 0.19294
 C1253 C 0.55402 0.21269 0.22139
 N1254 N 0.57585 0.20095 0.23277
 H1255 H 0.65523 0.16095 0.22247
 H1256 H 0.53492 0.22300 0.18332
 C1257 C 0.09918 0.69333 0.17436
 C1258 C 0.09742 0.69153 0.20269
 N1259 N 0.11590 0.67730 0.21655
 C1260 C 0.13590 0.66428 0.20335
 C1261 C 0.13720 0.66488 0.17477
 N1262 N 0.11887 0.67983 0.16101
 N1263 N 0.08100 0.70835 0.16071
 C1264 C 0.06097 0.72140 0.17415
 C1265 C 0.05875 0.71883 0.20246
 N1266 N 0.07719 0.70399 0.21595
 H1267 H 0.15060 0.65353 0.21512
 H1268 H 0.04660 0.73304 0.16282
 C1269 C 0.10651 0.18321 0.67423
 C1270 C 0.09967 0.17939 0.70148
 N1271 N 0.11513 0.16339 0.71716
 C1272 C 0.13719 0.15100 0.70684
 C1273 C 0.14408 0.15442 0.67929
 N1274 N 0.12824 0.17053 0.66381
 N1275 N 0.09175 0.20010 0.65879
 C1276 C 0.07038 0.21339 0.66943
 C1277 C 0.06321 0.20933 0.69667
 N1278 N 0.07808 0.19228 0.71201
 H1279 H 0.14936 0.13913 0.72029
 H1280 H 0.05896 0.22676 0.65669
 C1281 C 0.41125 0.71571 0.32555
 C1282 C 0.41340 0.71333 0.29725
 N1283 N 0.39554 0.69787 0.28329
 C1284 C 0.37554 0.68464 0.29637
 C1285 C 0.37347 0.68660 0.32481
 N1286 N 0.39154 0.70216 0.33868
 N1287 N 0.42850 0.73204 0.33935
 C1288 C 0.44783 0.74614 0.32609
 C1289 C 0.45024 0.74350 0.29777
 N1290 N 0.43293 0.72703 0.28408
 H1291 H 0.36118 0.67297 0.28468
 H1292 H 0.46133 0.75903 0.33756
 C1293 C 0.39144 0.16052 0.81529
 C1294 C 0.40997 0.17550 0.83075
 N1295 N 0.40745 0.17649 0.85814
 C1296 C 0.38679 0.16379 0.87074
 C1297 C 0.36715 0.15013 0.85521
 N1298 N 0.37035 0.14853 0.82777
 N1299 N 0.39432 0.15898 0.78795
 C1300 C 0.41468 0.17210 0.77530
 C1301 C 0.43258 0.18809 0.79061
 N1302 N 0.42985 0.18926 0.81808
 H1303 H 0.38530 0.16496 0.89262
 H1304 H 0.41629 0.17083 0.75342
 C1305 C 0.89426 0.65871 0.79614
 C1306 C 0.91151 0.67236 0.81419
 N1307 N 0.90808 0.66954 0.84131
 C1308 C 0.88784 0.65414 0.85126
 C1309 C 0.86972 0.64133 0.83334
 N1310 N 0.87360 0.64382 0.80607
 N1311 N 0.89801 0.66124 0.76900
 C1312 C 0.91806 0.67699 0.75907
 C1313 C 0.93483 0.69137 0.77710
 N1314 N 0.93114 0.68855 0.80430
 H1315 H 0.88535 0.65251 0.87300
 H1316 H 0.92047 0.67877 0.73733
 C1317 C 0.90266 0.19984 0.32299
 C1318 C 0.90597 0.19733 0.29481
 N1319 N 0.88856 0.18189 0.28026
 C1320 C 0.86801 0.16875 0.29260
 C1321 C 0.86477 0.17082 0.32101
 N1322 N 0.88236 0.18649 0.33537
 N1323 N 0.91938 0.21612 0.33744
 C1324 C 0.93922 0.23016 0.32495
 C1325 C 0.94270 0.22760 0.29672
 N1326 N 0.92599 0.21107 0.28233
 H1327 H 0.85411 0.15732 0.28017
 H1328 H 0.95216 0.24315 0.33694
 C1329 C 0.31754 0.29733 0.61825
 C1330 C 0.30392 0.31337 0.59956
 N1331 N 0.30173 0.34018 0.60435
 C1332 C 0.31226 0.35165 0.62720
 C1333 C 0.32515 0.33548 0.64658
 N1334 N 0.32751 0.30864 0.64127
 N1335 N 0.32042 0.27065 0.61321
 C1336 C 0.31001 0.25915 0.59038
 C1337 C 0.29559 0.27497 0.57196
 N1338 N 0.29296 0.30182 0.57702
 H1339 H 0.31055 0.37315 0.63015
 H1340 H 0.31231 0.23774 0.58707
 C1341 C 0.32473 0.81919 0.10529
 C1342 C 0.30726 0.83393 0.08888
 N1343 N 0.30505 0.86088 0.09297
 C1344 C 0.31941 0.87369 0.11281
 C1345 C 0.33660 0.85885 0.12968
 N1346 N 0.33869 0.83186 0.12530
 N1347 N 0.32758 0.79242 0.10096
 C1348 C 0.31367 0.77960 0.08095
 C1349 C 0.29576 0.79411 0.06463
 N1350 N 0.29296 0.82107 0.06906
 H1351 H 0.31749 0.89522 0.11533
 H1352 H 0.31629 0.75817 0.07812
 C1353 C 0.82220 0.30297 0.10023
 C1354 C 0.79408 0.30346 0.09894
 N1355 N 0.78010 0.31687 0.11830
 C1356 C 0.79296 0.33033 0.13862
 C1357 C 0.82117 0.33108 0.13930
 N1358 N 0.83514 0.31688 0.12026
 N1359 N 0.83607 0.28883 0.08123
 C1360 C 0.82309 0.27527 0.06095
 C1361 C 0.79496 0.27626 0.05927
 N1362 N 0.78117 0.29035 0.07845
 H1363 H 0.78132 0.34078 0.15388
 H1364 H 0.83463 0.26410 0.04610
 C1365 C 0.82445 0.80524 0.59877
 C1366 C 0.81100 0.82244 0.58099
 N1367 N 0.81366 0.84945 0.58406
 C1368 C 0.82864 0.86011 0.60457
 C1369 C 0.84089 0.84300 0.62348
 N1370 N 0.83876 0.81587 0.61974
 N1371 N 0.82234 0.77821 0.59524
 C1372 C 0.80701 0.76757 0.57493
 C1373 C 0.79258 0.78475 0.55786
 N1374 N 0.79509 0.81184 0.56125
 H1375 H 0.83044 0.88173 0.60655
 H1376 H 0.80537 0.74594 0.57273
 C1377 C 0.31120 0.68847 0.40023
 C1378 C 0.31270 0.71664 0.40136
 N1379 N 0.32557 0.73013 0.38146
 C1380 C 0.33758 0.71676 0.36070
 C1381 C 0.33748 0.68836 0.36004
 N1382 N 0.32383 0.67497 0.37983
 N1383 N 0.29729 0.67512 0.41966
 C1384 C 0.28500 0.68871 0.44026
 C1385 C 0.28729 0.71688 0.44187
 N1386 N 0.30108 0.73012 0.42225
 H1387 H 0.34714 0.72833 0.34492
 H1388 H 0.27412 0.67764 0.45556
 C1389 C 0.32341 0.19701 0.91098
 C1390 C 0.30900 0.18429 0.93169
 N1391 N 0.30660 0.15707 0.93145
 C1392 C 0.31773 0.14200 0.91124
 C1393 C 0.33129 0.15479 0.88983
 N1394 N 0.33386 0.18208 0.89051
 N1395 N 0.32675 0.22410 0.91166
 C1396 C 0.31608 0.23916 0.93204
 C1397 C 0.30087 0.22663 0.95235
 N1398 N 0.29771 0.19939 0.95168
 H1399 H 0.31591 0.12033 0.91174
 H1400 H 0.31879 0.26077 0.93195
 C1401 C 0.81698 0.68413 0.88310
 C1402 C 0.80326 0.67057 0.90377
 N1403 N 0.80384 0.64328 0.90443
 C1404 C 0.81745 0.62895 0.88527
 C1405 C 0.83087 0.64252 0.86426
 N1406 N 0.83025 0.66987 0.86391
 N1407 N 0.81725 0.71136 0.88275
 C1408 C 0.80450 0.72578 0.90228
 C1409 C 0.79060 0.71238 0.92302
 N1410 N 0.79019 0.68497 0.92321
 H1411 H 0.81806 0.60726 0.88658
 H1412 H 0.80513 0.74752 0.90156
 C1413 C 0.82257 0.20630 0.38786
 C1414 C 0.81019 0.18938 0.40681
 N1415 N 0.81057 0.16237 0.40281
 C1416 C 0.82220 0.15152 0.38035
 C1417 C 0.83335 0.16845 0.36049
 N1418 N 0.83356 0.19552 0.36507
 N1419 N 0.82267 0.23329 0.39216
 C1420 C 0.81062 0.24418 0.41439
 C1421 C 0.79729 0.22736 0.43287
 N1422 N 0.79755 0.20027 0.42865
 H1423 H 0.82214 0.12990 0.37764
 H1424 H 0.81073 0.26580 0.41714
 C1425 C 0.68166 0.30891 0.39305
 C1426 C 0.69505 0.32622 0.41127
 N1427 N 0.69501 0.35309 0.40681
 C1428 C 0.68285 0.36338 0.38452
 C1429 C 0.67086 0.34596 0.36524
 N1430 N 0.67021 0.31908 0.37036
 N1431 N 0.68127 0.28209 0.39775
 C1432 C 0.69408 0.27171 0.41961
 C1433 C 0.70857 0.28883 0.43724
 N1434 N 0.70853 0.31581 0.43269
 H1435 H 0.68333 0.38487 0.38135
 H1436 H 0.69379 0.25017 0.42258
 C1437 C 0.67920 0.80130 0.88021
 C1438 C 0.70693 0.80613 0.88112
 N1439 N 0.71918 0.81826 0.85993
 C1440 C 0.70493 0.82597 0.83786
 C1441 C 0.67701 0.82166 0.83700
 N1442 N 0.66488 0.80931 0.85833
 N1443 N 0.66713 0.78822 0.90098
 C1444 C 0.68161 0.77958 0.92256
 C1445 C 0.70937 0.78451 0.92358
 N1446 N 0.72133 0.79780 0.90280
 H1447 H 0.71534 0.83516 0.82104
 H1448 H 0.67158 0.76891 0.93872
 C1449 C 0.19911 0.32269 0.90112
 C1450 C 0.18519 0.30730 0.92029
 N1451 N 0.15883 0.30171 0.91634
 C1452 C 0.14585 0.31036 0.89379
 C1453 C 0.16001 0.32473 0.87381
 N1454 N 0.18633 0.33081 0.87832
 N1455 N 0.22533 0.32878 0.90533
 C1456 C 0.23840 0.31988 0.92772
 C1457 C 0.22477 0.30368 0.94653
 N1458 N 0.19836 0.29789 0.94235
 H1459 H 0.12477 0.30576 0.89136
 H1460 H 0.25941 0.32476 0.93038
 C1461 C 0.20184 0.82959 0.40000
 C1462 C 0.18526 0.81523 0.41781
 N1463 N 0.15860 0.81345 0.41272
 C1464 C 0.14785 0.82472 0.39020
 C1465 C 0.16461 0.83769 0.37129
 N1466 N 0.19126 0.84017 0.37704
 N1467 N 0.22844 0.83178 0.40540
 C1468 C 0.23930 0.81984 0.42754
 C1469 C 0.22296 0.80437 0.44474
 N1470 N 0.19620 0.80263 0.43948
 H1471 H 0.12653 0.82281 0.38660
 H1472 H 0.26066 0.82153 0.43105
 C1473 C 0.68026 0.69287 0.60461
 C1474 C 0.69490 0.67846 0.58510
 N1475 N 0.69757 0.65145 0.58758
 C1476 C 0.68653 0.63820 0.60890
 C1477 C 0.67253 0.65267 0.62906
 N1478 N 0.66966 0.67975 0.62614
 N1479 N 0.67708 0.71980 0.60186
 C1480 C 0.68813 0.73306 0.58056
 C1481 C 0.70344 0.71882 0.56133
 N1482 N 0.70636 0.69175 0.56410
 H1483 H 0.68874 0.61663 0.61019
 H1484 H 0.68551 0.75458 0.57904
 C1485 C 0.69475 0.16997 0.10523
 C1486 C 0.68990 0.19733 0.10105
 N1487 N 0.67385 0.21095 0.11855
 C1488 C 0.66234 0.19847 0.14009
 C1489 C 0.66671 0.17079 0.14432
 N1490 N 0.68292 0.15738 0.12648
 N1491 N 0.71167 0.15659 0.08835
 C1492 C 0.72399 0.16937 0.06741
 C1493 C 0.71885 0.19674 0.06289
 N1494 N 0.70180 0.21000 0.07990
 H1495 H 0.65035 0.21032 0.15392
 H1496 H 0.73738 0.15824 0.05427
 C1497 C 0.18281 0.70052 0.11188
 C1498 C 0.19712 0.68436 0.09350
 N1499 N 0.19678 0.65727 0.09634
 C1500 C 0.18323 0.64559 0.11709
 C1501 C 0.16987 0.66175 0.13640
 N1502 N 0.16978 0.68893 0.13296
 N1503 N 0.18254 0.72757 0.10861
 C1504 C 0.19609 0.73924 0.08784
 C1505 C 0.21105 0.72318 0.06983
 N1506 N 0.21113 0.69603 0.07310
 H1507 H 0.18323 0.62392 0.11870
 H1508 H 0.19560 0.76088 0.08573
 C1509 C 0.18626 0.18847 0.61212
 C1510 C 0.20115 0.17149 0.59504
 N1511 N 0.20325 0.14503 0.60104
 C1512 C 0.19162 0.13487 0.62371
 C1513 C 0.17782 0.15209 0.64171
 N1514 N 0.17530 0.17851 0.63513
 N1515 N 0.18375 0.21485 0.60590
 C1516 C 0.19588 0.22516 0.58359
 C1517 C 0.21182 0.20847 0.56708
 N1518 N 0.21391 0.18191 0.57317
 H1519 H 0.19366 0.11368 0.62801
 H1520 H 0.19395 0.24639 0.57942
   
