data_POSCAR
  _audit_creation_date              2014-09-24
  _audit_creation_method            'ToBaCCo'
  _symmetry_space_group_name_H-M    'P1'
  _symmetry_Int_Tables_number       1
  _symmetry_cell_setting            triclinic
  loop_
  _symmetry_equiv_pos_as_xyz
 x,y,z
_cell_length_a 38.2453
_cell_length_b 38.2763
_cell_length_c 37.7882
_cell_angle_alpha 91.150200
_cell_angle_beta 87.315200
_cell_angle_gamma 89.874100
loop_
  _atom_site_label
  _atom_site_type_symbol
  _atom_site_fract_x
  _atom_site_fract_y
  _atom_site_fract_z
C1 C 0.12062 -0.01007 0.21313
 C2 C 0.12911 0.02816 0.21948
 C3 C 0.13768 0.03623 0.25305
 C4 C 0.13736 0.00438 0.27794
 C5 C 0.15254 -0.03001 0.22473
 C6 C 0.16130 -0.02315 0.25855
 C7 C 0.09179 -0.01873 0.24124
 C8 C 0.10050 -0.01177 0.27544
 H9 H 0.12734 0.04756 0.19913
 H10 H 0.14499 0.01069 0.30531
 H11 H 0.16391 -0.05191 0.20970
 H12 H 0.06765 -0.03126 0.23437
 C13 C 0.40972 -0.00042 0.73199
 C14 C 0.38965 -0.03485 0.72877
 C15 C 0.36137 -0.03682 0.75142
 C16 C 0.35598 -0.00482 0.77578
 C17 C 0.38221 0.02849 0.72774
 C18 C 0.35396 0.02593 0.75077
 C19 C 0.41869 0.00249 0.76899
 C20 C 0.38882 0.00029 0.79344
 H21 H 0.39542 -0.05440 0.70815
 H22 H 0.33237 -0.00747 0.79334
 H23 H 0.38577 0.04994 0.70969
 H24 H 0.44499 0.00762 0.77707
 C25 C 0.89598 0.50598 0.22516
 C26 C 0.87044 0.47613 0.21887
 C27 C 0.84356 0.47482 0.24315
 C28 C 0.84444 0.50299 0.27215
 C29 C 0.87344 0.53944 0.22782
 C30 C 0.84655 0.53793 0.25289
 C31 C 0.90764 0.50101 0.26315
 C32 C 0.88050 0.49930 0.28777
 H33 H 0.87350 0.45743 0.19700
 H34 H 0.82237 0.50073 0.29183
 H35 H 0.87988 0.56280 0.21324
 H36 H 0.93469 0.50082 0.27021
 C37 C 0.62138 0.49525 0.70516
 C38 C 0.63806 0.53015 0.71388
 C39 C 0.64541 0.53461 0.74845
 C40 C 0.63644 0.50256 0.77146
 C41 C 0.64665 0.46780 0.71744
 C42 C 0.65475 0.47120 0.75189
 C43 C 0.58946 0.49255 0.73118
 C44 C 0.59717 0.49603 0.76612
 H45 H 0.64033 0.55098 0.69491
 H46 H 0.64343 0.50571 0.79951
 H47 H 0.65606 0.44629 0.70051
 H48 H 0.56356 0.48693 0.72241
 C49 C 0.22009 0.09013 0.99964
 C50 C 0.20907 0.11530 1.03017
 C51 C 0.23121 0.14238 1.03430
 C52 C 0.26318 0.14169 1.00837
 C53 C 0.22521 0.11318 0.96699
 C54 C 0.24797 0.14017 0.97136
 C55 C 0.25726 0.07850 1.00795
 C56 C 0.27980 0.10546 1.01277
 H57 H 0.18516 0.11256 1.04642
 H58 H 0.28129 0.16363 1.01289
 H59 H 0.21232 0.10798 0.94255
 H60 H 0.26509 0.05163 1.01083
 C61 C 0.70531 0.38787 0.99920
 C62 C 0.71542 0.36603 0.96874
 C63 C 0.75086 0.35478 0.96727
 C64 C 0.77020 0.36775 0.99747
 C65 C 0.71436 0.36802 1.03006
 C66 C 0.75004 0.35648 1.02933
 C67 C 0.72983 0.41704 0.99854
 C68 C 0.76614 0.40601 0.99825
 H69 H 0.69794 0.36089 0.94748
 H70 H 0.79775 0.35897 0.99651
 H71 H 0.69599 0.36363 1.05220
 H72 H 0.72149 0.44402 1.00121
 C73 C 0.21777 0.88610 0.50620
 C74 C 0.22943 0.86738 0.47197
 C75 C 0.26315 0.85692 0.47023
 C76 C 0.28314 0.86681 0.50336
 C77 C 0.22707 0.86123 0.53563
 C78 C 0.26123 0.85095 0.53419
 C79 C 0.24315 0.91670 0.50990
 C80 C 0.27756 0.90661 0.50903
 H81 H 0.21219 0.86367 0.45023
 H82 H 0.31096 0.85842 0.50192
 H83 H 0.20819 0.85296 0.55600
 H84 H 0.23452 0.94325 0.51553
 C85 C 0.72394 0.59466 0.49530
 C86 C 0.71326 0.61262 0.53070
 C87 C 0.73427 0.63946 0.53948
 C88 C 0.76468 0.64587 0.51268
 C89 C 0.72585 0.62424 0.46845
 C90 C 0.74731 0.65112 0.47750
 C91 C 0.76237 0.58367 0.49878
 C92 C 0.78389 0.61058 0.50766
 H93 H 0.68902 0.60708 0.54552
 H94 H 0.78128 0.66787 0.52097
 H95 H 0.71200 0.62327 0.44413
 H96 H 0.77218 0.55777 0.49218
 C97 C 0.00900 0.21419 0.11376
 C98 C 0.03837 0.22743 0.13615
 C99 C 0.03497 0.26085 0.14775
 C100 C 0.00267 0.27941 0.13431
 C101 C -0.02487 0.22230 0.13602
 C102 C -0.02826 0.25645 0.14672
 C103 C 0.00818 0.23964 0.08289
 C104 C 0.00435 0.27400 0.09367
 H105 H 0.06031 0.21108 0.14242
 H106 H 0.00028 0.30715 0.14310
 H107 H -0.04458 0.20276 0.14208
 H108 H 0.00744 0.23101 0.05550
 C109 C 0.00371 0.71139 0.37786
 C110 C -0.02337 0.72050 0.35432
 C111 C -0.02561 0.75673 0.34728
 C112 C 0.00173 0.77740 0.36385
 C113 C 0.03774 0.72483 0.36023
 C114 C 0.03719 0.75955 0.35301
 C115 C -0.00221 0.73523 0.41102
 C116 C -0.00267 0.77011 0.40376
 H117 H -0.04360 0.70212 0.34747
 H118 H 0.00125 0.80549 0.35745
 H119 H 0.06066 0.70844 0.35562
 H120 H -0.00326 0.72553 0.43768
 C121 C 0.49656 0.21570 0.90068
 C122 C 0.46968 0.20665 0.87312
 C123 C 0.46826 0.23014 0.84696
 C124 C 0.49345 0.26083 0.85056
 C125 C 0.53150 0.22059 0.87957
 C126 C 0.53016 0.24500 0.85386
 C127 C 0.48618 0.25268 0.91396
 C128 C 0.48455 0.27612 0.88761
 H129 H 0.45190 0.18471 0.87524
 H130 H 0.49137 0.27967 0.82890
 H131 H 0.55581 0.20927 0.88753
 H132 H 0.47981 0.25988 0.94130
 C133 C 0.52331 0.71960 0.60211
 C134 C 0.55248 0.73152 0.62560
 C135 C 0.54590 0.76201 0.64345
 C136 C 0.51093 0.77890 0.63524
 C137 C 0.49008 0.71920 0.62701
 C138 C 0.48387 0.75052 0.64445
 C139 C 0.51737 0.75000 0.57758
 C140 C 0.51064 0.78099 0.59464
 H141 H 0.57403 0.71453 0.63172
 H142 H 0.50618 0.80454 0.64887
 H143 H 0.47367 0.69650 0.63104
 H144 H 0.51545 0.74649 0.54921
 C145 C 0.87856 1.01216 0.79510
 C146 C 0.85401 1.03802 0.78380
 C147 C 0.84359 1.03326 0.74826
 C148 C 0.86026 1.00304 0.73010
 C149 C 0.86168 0.97687 0.78814
 C150 C 0.85263 0.97150 0.75420
 C151 C 0.90942 1.01413 0.76769
 C152 C 0.89986 1.01004 0.73331
 H153 H 0.84583 1.06028 0.80027
 H154 H 0.85238 0.99887 0.70244
 H155 H 0.86052 0.95648 0.80766
 H156 H 0.93562 1.02089 0.77491
 C157 C 0.37380 0.50793 0.29111
 C158 C 0.34815 0.53561 0.27991
 C159 C 0.33815 0.53199 0.24602
 C160 C 0.35503 0.50001 0.22600
 C161 C 0.35617 0.47325 0.28380
 C162 C 0.34709 0.46833 0.24981
 C163 C 0.40436 0.50979 0.26342
 C164 C 0.39466 0.50587 0.22911
 H165 H 0.34007 0.55748 0.29703
 H166 H 0.34656 0.49656 0.19847
 H167 H 0.35545 0.45247 0.30290
 H168 H 0.43098 0.51446 0.27063
 C169 C 0.59398 1.00955 0.27030
 C170 C 0.62061 0.97958 0.27512
 C171 C 0.64750 0.97896 0.24999
 C172 C 0.64539 1.00819 0.22326
 C173 C 0.61413 1.04154 0.26900
 C174 C 0.64301 1.04040 0.24407
 C175 C 0.58214 1.00346 0.23235
 C176 C 0.60933 1.00217 0.20751
 H177 H 0.61665 0.95908 0.29421
 H178 H 0.66707 1.00884 0.20294
 H179 H 0.61078 1.06234 0.28880
 H180 H 0.55550 0.99690 0.22646
 C181 C 0.09644 0.49826 0.76806
 C182 C 0.11943 0.46513 0.76756
 C183 C 0.14767 0.46634 0.74413
 C184 C 0.15025 0.50063 0.72362
 C185 C 0.12134 0.52857 0.77505
 C186 C 0.14952 0.52956 0.75215
 C187 C 0.08679 0.50211 0.72934
 C188 C 0.11495 0.50348 0.70596
 H189 H 0.11331 0.44267 0.78364
 H190 H 0.17317 0.50250 0.70489
 H191 H 0.11770 0.54680 0.79726
 H192 H 0.06013 0.50222 0.72104
 C193 C 0.77269 0.90586 0.01043
 C194 C 0.76963 0.88208 0.04246
 C195 C 0.74779 0.85447 0.03839
 C196 C 0.73107 0.85308 0.00211
 C197 C 0.78342 0.88185 -0.02114
 C198 C 0.76187 0.85426 -0.02524
 C199 C 0.73490 0.91654 0.00388
 C200 C 0.71314 0.88886 -0.00090
 H201 H 0.78336 0.88726 0.06640
 H202 H 0.71352 0.83054 -0.00188
 H203 H 0.80623 0.88623 -0.03858
 H204 H 0.72637 0.94326 0.00143
 C205 C 0.27791 0.40590 0.50615
 C206 C 0.27381 0.38104 0.53768
 C207 C 0.25163 0.35366 0.53216
 C208 C 0.23619 0.35356 0.49538
 C209 C 0.28920 0.38242 0.47426
 C210 C 0.26761 0.35508 0.46902
 C211 C 0.24008 0.41676 0.49899
 C212 C 0.21827 0.38931 0.49321
 H213 H 0.28629 0.38570 0.56245
 H214 H 0.21900 0.33120 0.48986
 H215 H 0.31273 0.38661 0.45780
 H216 H 0.23106 0.44348 0.49877
 C217 C 0.27288 0.60058 0.00918
 C218 C 0.27367 0.62533 -0.02257
 C219 C 0.24185 0.64069 -0.02746
 C220 C 0.21269 0.62989 -0.00038
 C221 C 0.25871 0.62274 0.04046
 C222 C 0.22776 0.63856 0.03585
 C223 C 0.24383 0.57458 0.00152
 C224 C 0.21235 0.58959 -0.00410
 H225 H 0.29673 0.63002 -0.03947
 H226 H 0.18675 0.64198 -0.00402
 H227 H 0.27486 0.62983 0.06234
 H228 H 0.24873 0.54682 -0.00203
 C229 C 0.78104 0.09883 0.49304
 C230 C 0.78197 0.12642 0.46647
 C231 C 0.74930 0.14625 0.46671
 C232 C 0.72312 0.13427 0.49367
 C233 C 0.77195 0.11625 0.52664
 C234 C 0.74079 0.13649 0.52730
 C235 C 0.75085 0.07817 0.48436
 C236 C 0.71890 0.09703 0.48463
 H237 H 0.80347 0.12999 0.44723
 H238 H 0.69761 0.14804 0.49452
 H239 H 0.79028 0.11789 0.54764
 H240 H 0.75288 0.05094 0.47597
 C241 C 0.99517 0.77729 0.89779
 C242 C 1.02804 0.77965 0.87239
 C243 C 1.03146 0.75172 0.84916
 C244 C 1.00225 0.72469 0.85351
 C245 C 0.96454 0.77233 0.87376
 C246 C 0.96835 0.74516 0.85057
 C247 C 0.99921 0.74170 0.91575
 C248 C 1.00336 0.71428 0.89241
 H249 H 1.04724 0.80030 0.87377
 H250 H 1.00421 0.70208 0.83474
 H251 H 0.94254 0.79024 0.87373
 H252 H 1.00235 0.73906 0.94391
 C253 C 0.47842 0.28420 0.39115
 C254 C 0.51196 0.28398 0.36652
 C255 C 0.51893 0.25187 0.35082
 C256 C 0.49203 0.22356 0.36117
 C257 C 0.44967 0.27049 0.36809
 C258 C 0.45663 0.23911 0.35225
 C259 C 0.48475 0.25525 0.41727
 C260 C 0.49210 0.22365 0.40181
 H261 H 0.52854 0.30652 0.36225
 H262 H 0.49734 0.19739 0.34887
 H263 H 0.42702 0.28604 0.36215
 H264 H 0.48611 0.26013 0.44552
 C265 C 1.01165 0.28654 0.61045
 C266 C 0.97481 0.27765 0.62582
 C267 C 0.97218 0.24422 0.63823
 C268 C 1.00689 0.22331 0.63424
 C269 C 1.03572 0.27921 0.64010
 C270 C 1.03398 0.24655 0.65232
 C271 C 1.01970 0.25803 0.58227
 C272 C 1.01612 0.22478 0.59415
 H273 H 0.95291 0.29556 0.62572
 H274 H 1.00616 0.19644 0.64446
 H275 H 1.05277 0.29881 0.65119
 H276 H 1.02369 0.26410 0.55453
 C277 C 0.51375 0.77368 0.09687
 C278 C 0.47899 0.77285 0.11907
 C279 C 0.47755 0.74741 0.14386
 C280 C 0.51189 0.72640 0.14503
 C281 C 0.54226 0.77785 0.12333
 C282 C 0.54134 0.75333 0.14854
 C283 C 0.51802 0.73609 0.08200
 C284 C 0.51654 0.71111 0.10724
 H285 H 0.45601 0.78703 0.11166
 H286 H 0.51238 0.70637 0.16578
 H287 H 0.56126 0.79882 0.12248
 H288 H 0.51332 0.72932 0.05468
 O289 O -0.04058 0.98540 0.91069
 O290 O 0.01511 0.99454 0.89666
 O291 O -0.04112 0.90284 0.98760
 O292 O -0.02945 0.89446 1.04232
 O293 O -0.10586 1.00032 1.00543
 O294 O -0.09330 1.05623 1.02371
 O295 O 0.07394 0.97088 1.06537
 O296 O 0.06378 0.91927 1.03696
 O297 O 0.08323 1.04961 0.99489
 O298 O 0.05535 1.07048 0.94838
 O299 O 0.01413 1.06381 1.08209
 O300 O -0.04040 1.04421 1.10193
 O301 O 0.03512 1.00260 1.10048
 O302 O -0.03150 0.99392 1.11240
 O303 O 0.03252 1.08927 1.03074
 O304 O 0.01006 1.09323 0.96739
 O305 O 0.09844 0.99402 1.00801
 O306 O 0.08104 0.93841 0.97881
 O307 O -0.07754 1.02067 0.94426
 O308 O -0.06785 1.07475 0.97862
 O309 O -0.09204 0.94526 1.02139
 O310 O -0.05547 0.93071 1.07397
 O311 O -0.01418 0.92049 0.93615
 O312 O 0.04206 0.94924 0.91862
 Zr313 Zr -0.00124 0.97394 0.94630
 O314 O 0.04073 0.99776 0.97195
 Zr315 Zr -0.03681 0.94511 1.02270
 O316 O 0.00572 0.96416 1.05044
 Zr317 Zr -0.05736 1.02330 0.99479
 O318 O -0.01822 1.04666 1.02411
 Zr319 Zr 0.05060 0.96853 1.01671
 O320 O 0.00981 0.94389 0.99049
 Zr321 Zr 0.02821 1.04809 0.99232
 O322 O -0.01195 1.02656 0.96167
 Zr323 Zr -0.00574 1.01547 1.06708
 O324 O -0.04973 0.99560 1.04138
 O325 O -0.04765 0.97198 0.97732
 O326 O 0.04058 1.01926 1.03619
 C327 C -0.06774 1.00527 0.91501
 C328 C -0.02825 0.89690 0.95617
 C329 C -0.11410 0.96954 1.01511
 C330 C 0.06380 0.98526 1.09500
 C331 C 0.10592 1.02557 1.00004
 C332 C 0.02532 1.08999 1.06442
 H333 H 0.06150 0.99845 0.95536
 H334 H -0.02698 1.07008 1.03168
 H335 H -0.06664 0.96056 0.96445
 H336 H 0.01009 0.94872 1.07045
 H337 H 0.05099 0.90157 1.02320
 H338 H -0.00404 0.89191 1.04534
 H339 H -0.00607 1.10564 0.98464
 H340 H -0.05431 1.07831 0.95601
 H341 H 0.10437 0.93433 0.98840
 H342 H 0.03360 0.93520 0.89839
 H343 H -0.05200 1.06177 1.08759
 H344 H -0.09385 1.04826 1.04849
 H345 H 0.01608 1.02022 0.90004
 H346 H 0.05711 1.05214 0.92957
 H347 H -0.07261 0.94875 1.08253
 H348 H -0.01885 0.97240 1.11837
 O349 O 0.58857 0.55339 0.47604
 O350 O 0.55537 0.56537 0.42676
 O351 O 0.51636 0.57736 0.56469
 O352 O 0.46880 0.55626 0.59068
 O353 O 0.57861 0.47855 0.55595
 O354 O 0.56880 0.42444 0.52514
 O355 O 0.39814 0.50481 0.49735
 O356 O 0.41218 0.55961 0.51889
 O357 O 0.45990 0.48805 0.40361
 O358 O 0.51861 0.49226 0.38580
 O359 O 0.45764 0.41045 0.48017
 O360 O 0.48281 0.40331 0.53783
 O361 O 0.41348 0.45067 0.51526
 O362 O 0.44955 0.43441 0.56588
 O363 O 0.48231 0.42659 0.42706
 O364 O 0.54147 0.45071 0.40721
 O365 O 0.42208 0.52156 0.43802
 O366 O 0.43919 0.57872 0.46408
 O367 O 0.60349 0.49901 0.49363
 O368 O 0.58888 0.44029 0.47589
 O369 O 0.54133 0.51343 0.58953
 O370 O 0.47728 0.50453 0.60238
 O371 O 0.54302 0.59295 0.51226
 O372 O 0.51326 0.59832 0.45628
 Zr373 Zr 0.53329 0.55156 0.47701
 O374 O 0.49090 0.52973 0.45079
 Zr375 Zr 0.50092 0.52518 0.55555
 O376 O 0.45703 0.50289 0.53246
 Zr377 Zr 0.55569 0.47441 0.50679
 O378 O 0.51424 0.44933 0.48212
 Zr379 Zr 0.44661 0.52863 0.48578
 O380 O 0.48787 0.55388 0.51107
 Zr381 Zr 0.50114 0.47724 0.43720
 O382 O 0.54550 0.50022 0.45975
 Zr383 Zr 0.46873 0.45139 0.51566
 O384 O 0.51173 0.47245 0.54236
 O385 O 0.54594 0.52595 0.52270
 O386 O 0.45565 0.47668 0.46987
 C387 C 0.61121 0.52978 0.48290
 C388 C 0.53270 0.59920 0.54453
 C389 C 0.56904 0.49452 0.58495
 C390 C 0.39067 0.47388 0.50791
 C391 C 0.43137 0.50568 0.40896
 C392 C 0.46639 0.40471 0.44736
 H393 H 0.48629 0.54360 0.42968
 H394 H 0.52184 0.42514 0.47618
 H395 H 0.56557 0.53744 0.53449
 H396 H 0.43667 0.50424 0.54955
 H397 H 0.42623 0.57920 0.52811
 H398 H 0.44617 0.55888 0.57940
 H399 H 0.54595 0.42844 0.41910
 H400 H 0.59204 0.45070 0.45219
 H401 H 0.41419 0.58099 0.45858
 H402 H 0.53171 0.61652 0.45660
 H403 H 0.50239 0.39332 0.52283
 H404 H 0.55249 0.41976 0.54561
 H405 H 0.56586 0.54389 0.41571
 H406 H 0.52002 0.51805 0.38608
 H407 H 0.48644 0.48048 0.60446
 H408 H 0.43466 0.45324 0.57680
 O409 O 0.41492 -0.05502 0.50409
 O410 O 0.43237 -0.05934 0.44566
 O411 O 0.50842 -0.08024 0.55867
 O412 O 0.56815 -0.05667 0.55395
 O413 O 0.44941 0.00938 0.59372
 O414 O 0.44034 0.06630 0.57157
 O415 O 0.59239 0.01805 0.45637
 O416 O 0.59557 -0.03880 0.46980
 O417 O 0.50168 0.03289 0.40140
 O418 O 0.43932 0.02350 0.41431
 O419 O 0.52759 0.10095 0.48662
 O420 O 0.52046 0.09639 0.55278
 O421 O 0.58206 0.06422 0.49437
 O422 O 0.56466 0.06868 0.55685
 O423 O 0.49111 0.08755 0.44259
 O424 O 0.42999 0.06432 0.44693
 O425 O 0.55046 0.00018 0.40845
 O426 O 0.55198 -0.06049 0.43184
 O427 O 0.40366 -0.00750 0.54013
 O428 O 0.40646 0.05344 0.53361
 O429 O 0.49872 -0.02264 0.60065
 O430 O 0.55856 -0.01481 0.58731
 O431 O 0.47136 -0.09347 0.51506
 O432 O 0.48372 -0.08811 0.45017
 Zr433 Zr 0.46714 -0.04740 0.48619
 O434 O 0.49477 -0.01635 0.44906
 Zr435 Zr 0.52157 -0.02752 0.54928
 O436 O 0.55164 0.00415 0.51473
 Zr437 Zr 0.45074 0.02130 0.53942
 O438 O 0.47793 0.05519 0.50460
 Zr439 Zr 0.54743 -0.01326 0.46216
 O440 O 0.52068 -0.04793 0.49723
 Zr441 Zr 0.47666 0.03542 0.45233
 O442 O 0.44617 0.00357 0.48684
 Zr443 Zr 0.53123 0.05513 0.51566
 O444 O 0.50333 0.02448 0.55327
 O445 O 0.46870 -0.02992 0.53865
 O446 O 0.52952 0.03822 0.46293
 C447 C 0.39433 -0.03562 0.52387
 C448 C 0.48904 -0.10161 0.54177
 C449 C 0.47115 -0.00657 0.61281
 C450 C 0.60142 0.04680 0.47167
 C451 C 0.52983 0.01749 0.38946
 C452 C 0.51084 0.10871 0.45924
 H453 H 0.49238 -0.02702 0.42525
 H454 H 0.46753 0.07881 0.50709
 H455 H 0.45478 -0.04440 0.55554
 H456 H 0.57632 0.00362 0.52145
 H457 H 0.58989 -0.06015 0.48315
 H458 H 0.56795 -0.07603 0.53620
 H459 H 0.42951 0.08377 0.46459
 H460 H 0.39931 0.04966 0.50900
 H461 H 0.57186 -0.05815 0.41424
 H462 H 0.46893 -0.10900 0.45454
 H463 H 0.49904 0.10854 0.54588
 H464 H 0.46244 0.07216 0.58293
 H465 H 0.41911 -0.03770 0.44148
 H466 H 0.44610 0.00090 0.40277
 H467 H 0.55443 0.00999 0.59425
 H468 H 0.58278 0.05027 0.55768
 O469 O -0.00293 0.41306 1.05572
 O470 O 0.05280 0.43380 1.05344
 O471 O -0.06431 0.50762 1.08428
 O472 O -0.07624 0.55786 1.06206
 O473 O -0.09599 0.43743 0.99711
 O474 O -0.07338 0.42954 0.93748
 O475 O 0.02289 0.59124 0.97642
 O476 O 0.00677 0.59328 1.03642
 O477 O 0.08701 0.50556 0.95779
 O478 O 0.08228 0.44164 0.96968
 O479 O -0.00242 0.51782 0.89374
 O480 O -0.06480 0.51139 0.90408
 O481 O -0.01040 0.57398 0.93078
 O482 O -0.07358 0.55456 0.93384
 O483 O 0.04669 0.48730 0.90511
 O484 O 0.05336 0.42962 0.92926
 O485 O 0.07452 0.55430 0.99148
 O486 O 0.05300 0.55417 1.05337
 O487 O -0.03676 0.39765 1.00998
 O488 O -0.03146 0.39886 0.94799
 O489 O -0.10804 0.48756 1.02849
 O490 O -0.10048 0.54947 1.01485
 O491 O -0.01764 0.47306 1.09484
 O492 O 0.04408 0.48499 1.08311
 Zr493 Zr 0.00883 0.46599 1.04539
 O494 O 0.04163 0.49551 1.01113
 Zr495 Zr -0.06044 0.51489 1.02911
 O496 O -0.03019 0.54653 0.99452
 Zr497 Zr -0.04262 0.44334 0.98066
 O498 O -0.01171 0.47173 0.94358
 Zr499 Zr 0.02218 0.54680 1.00850
 O500 O -0.00879 0.51839 1.04569
 Zr501 Zr 0.04034 0.47553 0.95922
 O502 O 0.01017 0.44355 0.99407
 Zr503 Zr -0.02896 0.52387 0.94338
 O504 O -0.06257 0.49432 0.97729
 O505 O -0.04360 0.46326 1.03230
 O506 O 0.02332 0.52694 0.95653
 C507 C -0.01951 0.39038 1.03731
 C508 C -0.04432 0.49157 1.10507
 C509 C -0.11740 0.45881 1.01363
 C510 C 0.00910 0.59608 0.94650
 C511 C 0.09561 0.53477 0.97259
 C512 C 0.02666 0.50295 0.88412
 H513 H 0.06552 0.49526 1.02005
 H514 H -0.01322 0.46013 0.92010
 H515 H -0.05824 0.44936 1.04912
 H516 H -0.03969 0.57059 0.99501
 H517 H -0.00160 0.58630 1.06043
 H518 H -0.05899 0.57659 1.05739
 H519 H 0.03356 0.42428 0.91414
 H520 H -0.00630 0.39363 0.95015
 H521 H 0.06556 0.57670 1.05093
 H522 H 0.04247 0.47020 1.10441
 H523 H -0.05931 0.48741 0.89525
 H524 H -0.08866 0.44985 0.93345
 H525 H 0.05776 0.42031 1.03114
 H526 H 0.09406 0.45125 0.99049
 H527 H -0.10914 0.54059 0.99209
 H528 H -0.07295 0.57594 0.94895
 O529 O 0.09913 0.46765 0.49559
 O530 O 0.10410 0.51986 0.46562
 O531 O 0.03675 0.49435 0.58983
 O532 O -0.01694 0.51336 0.60488
 O533 O 0.01331 0.40250 0.52461
 O534 O -0.01663 0.39401 0.47231
 O535 O -0.06204 0.58040 0.50440
 O536 O -0.02614 0.59003 0.54983
 O537 O 0.00190 0.55995 0.41283
 O538 O 0.04733 0.52133 0.39527
 O539 O -0.08295 0.49320 0.43905
 O540 O -0.09393 0.44775 0.47854
 O541 O -0.09583 0.53257 0.49466
 O542 O -0.09954 0.47354 0.52552
 O543 O -0.03746 0.50658 0.40088
 O544 O 0.02154 0.47618 0.38927
 O545 O -0.01014 0.59473 0.46139
 O546 O 0.02614 0.59931 0.51435
 O547 O 0.06611 0.42033 0.48138
 O548 O 0.02307 0.40932 0.43622
 O549 O 0.00138 0.43519 0.57477
 O550 O -0.05126 0.47514 0.58688
 O551 O 0.08322 0.50663 0.55236
 O552 O 0.08730 0.55654 0.51150
 Zr553 Zr 0.06204 0.50816 0.50190
 O554 O 0.03037 0.53965 0.47156
 Zr555 Zr -0.00501 0.48659 0.55639
 O556 O -0.03881 0.51933 0.52957
 Zr557 Zr 0.01386 0.43842 0.48393
 O558 O -0.02097 0.46732 0.45464
 Zr559 Zr -0.01113 0.55980 0.50406
 O560 O 0.02202 0.53026 0.53560
 Zr561 Zr 0.00624 0.50966 0.43256
 O562 O 0.04200 0.47896 0.45946
 Zr563 Zr -0.06031 0.49032 0.48831
 O564 O -0.02859 0.45647 0.51697
 O565 O 0.03625 0.46609 0.52494
 O566 O -0.03476 0.53198 0.46364
 C567 C 0.09554 0.43526 0.48687
 C568 C 0.06915 0.50174 0.58340
 C569 C 0.00868 0.40622 0.55820
 C570 C -0.09176 0.56545 0.50079
 C571 C -0.00374 0.58979 0.42794
 C572 C -0.06979 0.49953 0.40804
 H573 H 0.04499 0.55852 0.46126
 H574 H -0.03082 0.45183 0.43640
 H575 H 0.05233 0.45192 0.53862
 H576 H -0.05697 0.52888 0.54661
 H577 H -0.00896 0.58482 0.56782
 H578 H -0.02437 0.53713 0.59873
 H579 H 0.00324 0.45816 0.38689
 H580 H 0.04160 0.42170 0.42230
 H581 H 0.01471 0.62236 0.51185
 H582 H 0.11098 0.55185 0.52003
 H583 H -0.08061 0.43088 0.46299
 H584 H -0.03854 0.39627 0.48721
 H585 H 0.10014 0.50646 0.44350
 H586 H 0.06392 0.53673 0.40739
 H587 H -0.06074 0.45314 0.57705
 H588 H -0.10292 0.49212 0.54394
 O589 O 0.42986 1.07059 0.03186
 O590 O 0.46429 1.06548 0.08098
 O591 O 0.49649 1.07948 -0.05750
 O592 O 0.54440 1.04801 -0.08427
 O593 O 0.41505 1.00246 -0.05667
 O594 O 0.40710 0.94702 -0.03107
 O595 O 0.59506 0.96632 -0.00024
 O596 O 0.60054 1.02240 -0.01805
 O597 O 0.53171 0.96517 0.09182
 O598 O 0.47469 0.97944 0.10969
 O599 O 0.51280 0.89524 0.00144
 O600 O 0.48462 0.90283 -0.05406
 O601 O 0.56456 0.92338 -0.02754
 O602 O 0.52504 0.92683 -0.07971
 O603 O 0.50077 0.91177 0.05886
 O604 O 0.44535 0.94514 0.08314
 O605 O 0.57783 0.98836 0.06015
 O606 O 0.57851 1.04938 0.03691
 O607 O 0.39842 1.02636 0.00784
 O608 O 0.39537 0.96404 0.02109
 O609 O 0.46142 1.02302 -0.08975
 O610 O 0.52091 1.00729 -0.10543
 O611 O 0.48609 1.09714 -0.00011
 O612 O 0.51454 1.08646 0.05496
 Zr613 Zr 0.48134 1.05108 0.02850
 O614 O 0.51519 1.01460 0.04968
 Zr615 Zr 0.50274 1.02488 -0.05443
 O616 O 0.53876 0.98840 -0.03649
 Zr617 Zr 0.43615 0.98831 -0.00901
 O618 O 0.46896 0.94892 0.00930
 Zr619 Zr 0.55687 1.00432 0.01280
 O620 O 0.52472 1.04343 -0.00748
 Zr621 Zr 0.49038 0.96616 0.05673
 O622 O 0.45468 1.00433 0.04005
 Zr623 Zr 0.51246 0.94155 -0.02628
 O624 O 0.47690 0.97698 -0.04715
 O625 O 0.46060 1.03566 -0.01934
 O626 O 0.53303 0.95624 0.02189
 C627 C 0.40100 1.05684 0.02253
 C628 C 0.49221 1.10313 -0.03302
 C629 C 0.42936 1.01310 -0.08583
 C630 C 0.59277 0.93619 -0.01550
 C631 C 0.56370 0.97529 0.08830
 C632 C 0.50855 0.88875 0.03437
 H633 H 0.52331 1.02469 0.07215
 H634 H 0.45536 0.92719 0.01243
 H635 H 0.44491 1.05314 -0.02935
 H636 H 0.55852 0.98533 -0.05413
 H637 H 0.59400 1.04554 -0.02687
 H638 H 0.55773 1.06231 -0.06752
 H639 H 0.43781 0.92451 0.06931
 H640 H 0.39677 0.97295 0.04575
 H641 H 0.60270 1.04362 0.04323
 H642 H 0.50256 1.10943 0.05810
 H643 H 0.46367 0.89673 -0.03914
 H644 H 0.42129 0.93789 -0.05182
 H645 H 0.44733 1.04760 0.08933
 H646 H 0.48094 1.00427 0.11343
 H647 H 0.51036 0.98402 -0.10934
 H648 H 0.54752 0.93792 -0.08698
 O649 O 0.55701 0.41710 -0.01504
 O650 O 0.53670 0.41012 0.04196
 O651 O 0.46869 0.42613 -0.07715
 O652 O 0.41979 0.46036 -0.07650
 O653 O 0.55399 0.49523 -0.09104
 O654 O 0.57195 0.54517 -0.06418
 O655 O 0.39952 0.52228 0.03622
 O656 O 0.38662 0.46688 0.02063
 O657 O 0.48701 0.51452 0.09812
 O658 O 0.54507 0.49259 0.08945
 O659 O 0.47578 0.59196 0.02711
 O660 O 0.49161 0.60123 -0.03070
 O661 O 0.41831 0.56753 0.00232
 O662 O 0.45140 0.57622 -0.05774
 O663 O 0.51140 0.56808 0.06667
 O664 O 0.56718 0.53066 0.06046
 O665 O 0.43367 0.49329 0.08489
 O666 O 0.41976 0.43544 0.04754
 O667 O 0.58717 0.46611 -0.02962
 O668 O 0.59270 0.53061 -0.02038
 O669 O 0.49919 0.48068 -0.10688
 O670 O 0.44005 0.50667 -0.09524
 O671 O 0.49522 0.39683 -0.03408
 O672 O 0.48098 0.39700 0.03160
 Zr673 Zr 0.50882 0.43621 0.00315
 O674 O 0.48715 0.46832 0.04443
 Zr675 Zr 0.46869 0.47767 -0.05921
 O676 O 0.44135 0.50851 -0.02072
 Zr677 Zr 0.54688 0.50461 -0.03572
 O678 O 0.52248 0.54044 0.00125
 Zr679 Zr 0.43802 0.48428 0.02906
 O680 O 0.45888 0.45050 -0.01166
 Zr681 Zr 0.51558 0.51514 0.04973
 O682 O 0.54100 0.47995 0.01323
 Zr683 Zr 0.47109 0.55342 -0.01212
 O684 O 0.49812 0.52326 -0.05250
 O685 O 0.51761 0.46011 -0.04536
 O686 O 0.46536 0.53040 0.03733
 C687 C 0.58562 0.43346 -0.02123
 C688 C 0.47967 0.39818 -0.06354
 C689 C 0.53148 0.48781 -0.11432
 C690 C 0.39504 0.55183 0.02198
 C691 C 0.45574 0.50517 0.10688
 C692 C 0.49320 0.59335 0.05519
 H693 H 0.48566 0.45505 0.06663
 H694 H 0.53690 0.56172 0.00339
 H695 H 0.52937 0.44423 -0.06323
 H696 H 0.41804 0.51345 -0.02977
 H697 H 0.38305 0.46932 -0.00495
 H698 H 0.40874 0.44724 -0.05665
 H699 H 0.57155 0.55361 0.04952
 H700 H 0.59975 0.51985 0.00179
 H701 H 0.43013 0.43139 0.07062
 H702 H 0.48975 0.37370 0.02325
 H703 H 0.51501 0.59581 -0.04170
 H704 H 0.55305 0.55940 -0.07375
 H705 H 0.55305 0.42742 0.05172
 H706 H 0.53526 0.46914 0.09404
 H707 H 0.45530 0.52592 -0.10376
 H708 H 0.42796 0.56618 -0.06118
 O709 O -0.09637 0.02049 0.53221
 O710 O -0.10228 -0.03708 0.52477
 O711 O -0.01120 0.03284 0.60175
 O712 O 0.04806 0.01704 0.59851
 O713 O -0.01686 0.09659 0.50919
 O714 O -0.00472 0.08723 0.44823
 O715 O 0.07107 -0.07600 0.51345
 O716 O 0.04949 -0.07584 0.56922
 O717 O -0.01006 -0.09177 0.44829
 O718 O -0.06474 -0.06355 0.43927
 O719 O 0.06390 -0.01329 0.41946
 O720 O 0.07943 0.04012 0.43963
 O721 O 0.09603 -0.03452 0.47827
 O722 O 0.09878 0.03286 0.48740
 O723 O 0.01367 -0.04165 0.40707
 O724 O -0.04975 -0.02226 0.41176
 O725 O 0.01368 -0.10595 0.50009
 O726 O -0.00259 -0.08812 0.56693
 O727 O -0.07810 0.06083 0.49217
 O728 O -0.04772 0.05995 0.43501
 O729 O 0.01247 0.08366 0.55825
 O730 O 0.06774 0.05291 0.56273
 O731 O -0.06147 0.00388 0.59062
 O732 O -0.06974 -0.05650 0.56814
 Zr733 Zr -0.05440 -0.01301 0.53702
 O734 O -0.02838 -0.05254 0.50660
 Zr735 Zr 0.01901 0.02895 0.55404
 O736 O 0.04880 -0.01021 0.52664
 Zr737 Zr -0.02404 0.04832 0.48287
 O738 O 0.00587 0.01165 0.45177
 Zr739 Zr 0.02131 -0.05774 0.52636
 O740 O -0.00552 -0.02006 0.55865
 Zr741 Zr -0.01870 -0.03739 0.45381
 O742 O -0.04992 -0.00005 0.48297
 Zr743 Zr 0.05512 0.00273 0.47297
 O744 O 0.02719 0.04365 0.50093
 O745 O -0.03107 0.03609 0.53607
 O746 O 0.03071 -0.04605 0.47287
 C747 C -0.10205 0.04575 0.51152
 C748 C -0.04115 0.02029 0.61142
 C749 C -0.00121 0.10538 0.53738
 C750 C 0.09670 -0.06348 0.49515
 C751 C 0.00176 -0.11402 0.46982
 C752 C 0.04411 -0.02959 0.39813
 H753 H -0.04209 -0.07436 0.50831
 H754 H 0.00821 0.02061 0.42743
 H755 H -0.04494 0.05385 0.55008
 H756 H 0.07148 -0.01265 0.53787
 H757 H 0.06212 -0.05553 0.57886
 H758 H 0.04006 -0.00622 0.60646
 H759 H -0.03664 -0.00433 0.39811
 H760 H -0.06515 0.04139 0.43097
 H761 H -0.01983 -0.10368 0.55593
 H762 H -0.08999 -0.04983 0.58429
 H763 H 0.06040 0.05291 0.42861
 H764 H 0.02005 0.09105 0.45373
 H765 H -0.10337 -0.03698 0.49866
 H766 H -0.07390 -0.07642 0.46014
 H767 H 0.07357 0.06729 0.54180
 H768 H 0.10960 0.02128 0.50737
 O769 O 0.74104 0.15461 0.26951
 O770 O 0.80241 0.16257 0.26394
 O771 O 0.71887 0.23985 0.34872
 O772 O 0.72277 0.29817 0.34940
 O773 O 0.64900 0.22392 0.26098
 O774 O 0.65596 0.23203 0.19818
 O775 O 0.80155 0.34017 0.25362
 O776 O 0.80280 0.31958 0.31127
 O777 O 0.83267 0.25256 0.18784
 O778 O 0.80678 0.19094 0.18195
 O779 O 0.74267 0.31350 0.16591
 O780 O 0.68064 0.31385 0.19209
 O781 O 0.75289 0.35199 0.22337
 O782 O 0.69147 0.34553 0.23223
 O783 O 0.78073 0.26944 0.15060
 O784 O 0.77115 0.20992 0.14796
 O785 O 0.84184 0.29057 0.23341
 O786 O 0.83970 0.27075 0.29421
 O787 O 0.68907 0.16898 0.24685
 O788 O 0.68745 0.18848 0.18718
 O789 O 0.66035 0.25551 0.31064
 O790 O 0.68288 0.31407 0.31586
 O791 O 0.75409 0.19391 0.33181
 O792 O 0.81127 0.19232 0.30631
 Zr793 Zr 0.76628 0.20301 0.27788
 O794 O 0.79889 0.23547 0.24644
 Zr795 Zr 0.71359 0.26919 0.30253
 O796 O 0.74370 0.30412 0.27149
 Zr797 Zr 0.69704 0.22075 0.23175
 O798 O 0.72682 0.25320 0.19755
 Zr799 Zr 0.79597 0.28715 0.26607
 O800 O 0.76666 0.25396 0.30044
 Zr801 Zr 0.77975 0.23798 0.19550
 O802 O 0.74905 0.20239 0.22578
 Zr803 Zr 0.72675 0.30405 0.21926
 O804 O 0.69367 0.27230 0.25158
 O805 O 0.71383 0.21802 0.28327
 O806 O 0.77935 0.28952 0.21442
 C807 C 0.71079 0.14674 0.25815
 C808 C 0.73613 0.21193 0.35523
 C809 C 0.63954 0.23887 0.29062
 C810 C 0.78125 0.36098 0.23785
 C811 C 0.85193 0.27378 0.20501
 C812 C 0.76405 0.29744 0.14382
 H813 H 0.82310 0.22627 0.24627
 H814 H 0.71721 0.25246 0.17371
 H815 H 0.69933 0.20256 0.29868
 H816 H 0.74192 0.32755 0.28294
 H817 H 0.79862 0.30474 0.33222
 H818 H 0.74089 0.31568 0.34325
 H819 H 0.74566 0.20608 0.14723
 H820 H 0.70823 0.17319 0.18313
 H821 H 0.85703 0.29000 0.29414
 H822 H 0.81643 0.21392 0.31990
 H823 H 0.68064 0.29804 0.17106
 H824 H 0.64757 0.25585 0.20483
 H825 H 0.79871 0.15595 0.23895
 H826 H 0.82784 0.19016 0.19618
 H827 H 0.66694 0.31737 0.29630
 H828 H 0.69579 0.35349 0.25670
 O829 O 0.78727 0.84633 0.77293
 O830 O 0.73020 0.85722 0.76923
 O831 O 0.78253 0.75905 0.85012
 O832 O 0.77071 0.70336 0.85028
 O833 O 0.85468 0.75680 0.75310
 O834 O 0.84587 0.74241 0.69403
 O835 O 0.67467 0.68567 0.77438
 O836 O 0.67872 0.71209 0.82655
 O837 O 0.66929 0.77107 0.70049
 O838 O 0.70444 0.82135 0.68788
 O839 O 0.73526 0.68656 0.67454
 O840 O 0.78795 0.66599 0.69000
 O841 O 0.71409 0.65816 0.73619
 O842 O 0.78054 0.64934 0.74005
 O843 O 0.71514 0.73982 0.65937
 O844 O 0.74292 0.79924 0.65836
 O845 O 0.64933 0.74571 0.75141
 O846 O 0.66229 0.76894 0.81194
 O847 O 0.82500 0.81992 0.73225
 O848 O 0.82413 0.78685 0.67798
 O849 O 0.83616 0.73376 0.80566
 O850 O 0.79978 0.67893 0.81094
 O851 O 0.76607 0.81379 0.83558
 O852 O 0.70685 0.82843 0.81525
 Zr853 Zr 0.74930 0.80762 0.78312
 O854 O 0.70782 0.78463 0.75626
 Zr855 Zr 0.78159 0.73031 0.80278
 O856 O 0.74025 0.70449 0.77899
 Zr857 Zr 0.80803 0.76767 0.72825
 O858 O 0.76908 0.74174 0.70044
 Zr859 Zr 0.69535 0.73631 0.77879
 O860 O 0.73530 0.76034 0.80751
 Zr861 Zr 0.72349 0.77230 0.70353
 O862 O 0.76334 0.79958 0.72888
 Zr863 Zr 0.75408 0.69506 0.72532
 O864 O 0.79724 0.71841 0.74990
 O865 O 0.79533 0.77845 0.78161
 O866 O 0.70824 0.72468 0.72548
 C867 C 0.81315 0.84680 0.74994
 C868 C 0.77545 0.79102 0.85792
 C869 C 0.86018 0.74342 0.78316
 C870 C 0.68655 0.65853 0.75715
 C871 C 0.64472 0.76017 0.72153
 C872 C 0.72209 0.70754 0.65267
 H873 H 0.68741 0.80059 0.75781
 H874 H 0.77794 0.73746 0.67573
 H875 H 0.81382 0.79104 0.79418
 H876 H 0.73582 0.68279 0.79220
 H877 H 0.69141 0.72379 0.84569
 H878 H 0.74506 0.70007 0.85212
 H879 H 0.75893 0.78331 0.64442
 H880 H 0.80760 0.80574 0.67263
 H881 H 0.63853 0.75858 0.81312
 H882 H 0.71545 0.84777 0.83039
 H883 H 0.80328 0.68302 0.67758
 H884 H 0.84607 0.71755 0.70078
 H885 H 0.73133 0.85773 0.74303
 H886 H 0.69043 0.83170 0.70813
 H887 H 0.81795 0.67359 0.79206
 H888 H 0.76874 0.64084 0.76208
 O889 O 0.30738 0.15938 0.74097
 O890 O 0.31030 0.17949 0.68398
 O891 O 0.33394 0.24841 0.80525
 O892 O 0.31379 0.30363 0.81382
 O893 O 0.24364 0.18598 0.83480
 O894 O 0.18547 0.18283 0.81376
 O895 O 0.23957 0.34121 0.72088
 O896 O 0.29701 0.33863 0.73378
 O897 O 0.21959 0.25738 0.65305
 O898 O 0.23044 0.19384 0.65404
 O899 O 0.15010 0.26962 0.74430
 O900 O 0.16011 0.26383 0.81046
 O901 O 0.19035 0.32844 0.75438
 O902 O 0.18189 0.31137 0.81142
 O903 O 0.16498 0.23830 0.69410
 O904 O 0.19065 0.18039 0.68556
 O905 O 0.25387 0.30385 0.66635
 O906 O 0.31416 0.29924 0.68562
 O907 O 0.25883 0.14679 0.77559
 O908 O 0.19776 0.15136 0.77023
 O909 O 0.27761 0.23273 0.84772
 O910 O 0.26519 0.29478 0.84438
 O911 O 0.34710 0.21507 0.75583
 O912 O 0.34106 0.22925 0.69363
 Zr913 Zr 0.30021 0.21223 0.72920
 O914 O 0.27006 0.24344 0.69708
 Zr915 Zr 0.28061 0.26157 0.80091
 O916 O 0.24951 0.29482 0.77152
 Zr917 Zr 0.23089 0.19383 0.78185
 O918 O 0.19792 0.22392 0.75156
 Zr919 Zr 0.26776 0.29443 0.71831
 O920 O 0.30135 0.26425 0.74846
 Zr921 Zr 0.21806 0.22643 0.69885
 O922 O 0.24886 0.19268 0.72832
 Zr923 Zr 0.19789 0.27612 0.76996
 O924 O 0.22808 0.24498 0.80329
 O925 O 0.28255 0.21027 0.78214
 O926 O 0.21551 0.27821 0.71697
 C927 C 0.28744 0.13825 0.75849
 C928 C 0.35541 0.23081 0.78450
 C929 C 0.26153 0.20447 0.85614
 C930 C 0.21002 0.34952 0.73625
 C931 C 0.23539 0.28605 0.64510
 C932 C 0.14247 0.25318 0.71562
 H933 H 0.28064 0.24306 0.67269
 H934 H 0.17460 0.21288 0.75361
 H935 H 0.29738 0.19514 0.79626
 H936 H 0.25004 0.31870 0.78192
 H937 H 0.31926 0.32967 0.74252
 H938 H 0.30567 0.32432 0.80125
 H939 H 0.17327 0.17594 0.70516
 H940 H 0.20334 0.14434 0.74525
 H941 H 0.31314 0.32174 0.67311
 H942 H 0.36128 0.21302 0.69451
 H943 H 0.14732 0.24294 0.80232
 H944 H 0.18216 0.20257 0.83093
 H945 H 0.28815 0.16732 0.67922
 H946 H 0.25288 0.20188 0.64299
 H947 H 0.24175 0.28689 0.85310
 H948 H 0.20342 0.32053 0.82172
 O949 O 0.25105 0.65759 0.21627
 O950 O 0.19628 0.66756 0.24495
 O951 O 0.26169 0.74106 0.14262
 O952 O 0.27078 0.79621 0.14049
 O953 O 0.34560 0.71564 0.21781
 O954 O 0.35231 0.72871 0.27799
 O955 O 0.20277 0.84646 0.25262
 O956 O 0.19318 0.82729 0.19487
 O957 O 0.18032 0.76701 0.32032
 O958 O 0.19740 0.71142 0.32995
 O959 O 0.28508 0.81848 0.32279
 O960 O 0.33381 0.82082 0.28463
 O961 O 0.25554 0.85641 0.27629
 O962 O 0.31584 0.84574 0.24308
 O963 O 0.24575 0.78036 0.34721
 O964 O 0.24746 0.71317 0.34306
 O965 O 0.16381 0.79976 0.27434
 O966 O 0.15842 0.77750 0.21317
 O967 O 0.30254 0.66720 0.24253
 O968 O 0.31776 0.69259 0.29916
 O969 O 0.33127 0.75001 0.17226
 O970 O 0.30966 0.81277 0.17079
 O971 O 0.22784 0.69768 0.16606
 O972 O 0.17482 0.70430 0.20402
 Zr973 Zr 0.22694 0.70746 0.22095
 O974 O 0.20313 0.74344 0.25760
 Zr975 Zr 0.28007 0.76874 0.18707
 O976 O 0.25670 0.80744 0.22115
 Zr977 Zr 0.30369 0.72106 0.25454
 O978 O 0.28372 0.75862 0.29126
 Zr979 Zr 0.20529 0.79375 0.23651
 O980 O 0.22677 0.75758 0.19843
 Zr981 Zr 0.23083 0.74778 0.30417
 O982 O 0.25203 0.70786 0.26944
 Zr983 Zr 0.28300 0.80846 0.26858
 O984 O 0.30823 0.77153 0.23350
 O985 O 0.27901 0.71842 0.20668
 O986 O 0.23101 0.79789 0.28397
 C987 C 0.28050 0.64716 0.22752
 C988 C 0.24110 0.71465 0.13981
 C989 C 0.35269 0.73045 0.18836
 C990 C 0.22472 0.86616 0.26823
 C991 C 0.15814 0.78616 0.30475
 C992 C 0.26881 0.80481 0.34934
 H993 H 0.17870 0.73586 0.26253
 H994 H 0.29859 0.75767 0.31192
 H995 H 0.28958 0.70152 0.18906
 H996 H 0.25707 0.83042 0.20964
 H997 H 0.19511 0.81295 0.17278
 H998 H 0.24865 0.80923 0.14536
 H999 H 0.27070 0.72109 0.35037
 H1000 H 0.29696 0.67892 0.30699
 H1001 H 0.14107 0.79675 0.21626
 H1002 H 0.17210 0.68226 0.19014
 H1003 H 0.34259 0.80009 0.29669
 H1004 H 0.36201 0.75088 0.26877
 H1005 H 0.20726 0.66157 0.26726
 H1006 H 0.18427 0.69962 0.31123
 H1007 H 0.33099 0.81311 0.18467
 H1008 H 0.30105 0.86187 0.23009
 O1009 O 0.25879 0.80347 0.66747
 O1010 O 0.20010 0.80375 0.68753
 O1011 O 0.31685 0.82865 0.75769
 O1012 O 0.31938 0.80588 0.81563
 O1013 O 0.34710 0.73871 0.69233
 O1014 O 0.32352 0.68150 0.68544
 O1015 O 0.22334 0.73214 0.84894
 O1016 O 0.23246 0.79120 0.85064
 O1017 O 0.16137 0.71631 0.76237
 O1018 O 0.17102 0.72494 0.69657
 O1019 O 0.24810 0.64644 0.77833
 O1020 O 0.30955 0.65022 0.77105
 O1021 O 0.25922 0.68583 0.83554
 O1022 O 0.32119 0.68232 0.81048
 O1023 O 0.20049 0.66072 0.74776
 O1024 O 0.19698 0.68018 0.68935
 O1025 O 0.17174 0.75142 0.80990
 O1026 O 0.20193 0.81173 0.81393
 O1027 O 0.29376 0.75667 0.65247
 O1028 O 0.28149 0.69473 0.65489
 O1029 O 0.35751 0.77315 0.74043
 O1030 O 0.35045 0.76234 0.80277
 O1031 O 0.26978 0.84206 0.72581
 O1032 O 0.20776 0.83588 0.73745
 Zr1033 Zr 0.24258 0.79492 0.72038
 O1034 O 0.20782 0.76463 0.75146
 Zr1035 Zr 0.30954 0.77565 0.76974
 O1036 O 0.27754 0.74474 0.80317
 Zr1037 Zr 0.29352 0.72669 0.69893
 O1038 O 0.26102 0.69333 0.72946
 Zr1039 Zr 0.22548 0.76232 0.80319
 O1040 O 0.25836 0.79592 0.77309
 Zr1041 Zr 0.20943 0.71264 0.73294
 O1042 O 0.24126 0.74381 0.69888
 Zr1043 Zr 0.27607 0.69352 0.78228
 O1044 O 0.31147 0.72359 0.75068
 O1045 O 0.29438 0.77796 0.71782
 O1046 O 0.22385 0.71030 0.78539
 C1047 C 0.27818 0.78535 0.64527
 C1048 C 0.29763 0.85019 0.74161
 C1049 C 0.36730 0.75700 0.71154
 C1050 C 0.23883 0.70380 0.85694
 C1051 C 0.15139 0.73346 0.79066
 C1052 C 0.21931 0.63889 0.76386
 H1053 H 0.18434 0.77530 0.75050
 H1054 H 0.26233 0.66965 0.71856
 H1055 H 0.31004 0.79313 0.70328
 H1056 H 0.28657 0.74554 0.82725
 H1057 H 0.25765 0.79027 0.85534
 H1058 H 0.29824 0.82041 0.82086
 H1059 H 0.21860 0.66763 0.68125
 H1060 H 0.25808 0.70213 0.64769
 H1061 H 0.18192 0.81378 0.79843
 H1062 H 0.21030 0.85558 0.72081
 H1063 H 0.30648 0.64289 0.74614
 H1064 H 0.33761 0.67661 0.70610
 H1065 H 0.19796 0.78283 0.67197
 H1066 H 0.15864 0.74627 0.70557
 H1067 H 0.35829 0.73851 0.79538
 H1068 H 0.32218 0.69936 0.83044
 O1069 O 0.28698 0.34301 0.26947
 O1070 O 0.22780 0.35718 0.26887
 O1071 O 0.27754 0.25641 0.34619
 O1072 O 0.25749 0.20215 0.34644
 O1073 O 0.34912 0.24950 0.25179
 O1074 O 0.33991 0.23545 0.19180
 O1075 O 0.16480 0.18985 0.26829
 O1076 O 0.16870 0.21683 0.32030
 O1077 O 0.16668 0.28198 0.19630
 O1078 O 0.20414 0.32473 0.18178
 O1079 O 0.22689 0.18955 0.16856
 O1080 O 0.27758 0.16505 0.18475
 O1081 O 0.20297 0.16044 0.23035
 O1082 O 0.26817 0.14773 0.23389
 O1083 O 0.21168 0.24459 0.15374
 O1084 O 0.24499 0.30280 0.15656
 O1085 O 0.14376 0.25154 0.24289
 O1086 O 0.15409 0.27356 0.30346
 O1087 O 0.32385 0.31525 0.22913
 O1088 O 0.32462 0.28172 0.17626
 O1089 O 0.32749 0.22522 0.30261
 O1090 O 0.28652 0.17493 0.30823
 O1091 O 0.26407 0.31202 0.33181
 O1092 O 0.20871 0.33289 0.31293
 Zr1093 Zr 0.24686 0.30679 0.27972
 O1094 O 0.20460 0.28743 0.25176
 Zr1095 Zr 0.27290 0.22753 0.29911
 O1096 O 0.23066 0.20502 0.27360
 Zr1097 Zr 0.30401 0.26389 0.22557
 O1098 O 0.26385 0.24156 0.19646
 Zr1099 Zr 0.18787 0.23956 0.27260
 O1100 O 0.22853 0.26044 0.30308
 Zr1101 Zr 0.22058 0.27536 0.19905
 O1102 O 0.26167 0.29918 0.22566
 Zr1103 Zr 0.24493 0.19549 0.22004
 O1104 O 0.28889 0.21527 0.24633
 O1105 O 0.29089 0.27474 0.27882
 O1106 O 0.20122 0.22821 0.21927
 C1107 C 0.31282 0.34261 0.24656
 C1108 C 0.27309 0.28890 0.35387
 C1109 C 0.35281 0.23407 0.28124
 C1110 C 0.17560 0.16198 0.25157
 C1111 C 0.14092 0.27046 0.21534
 C1112 C 0.21691 0.21210 0.14642
 H1113 H 0.18559 0.30505 0.25337
 H1114 H 0.27308 0.23730 0.17188
 H1115 H 0.31013 0.28574 0.29170
 H1116 H 0.22473 0.18350 0.28656
 H1117 H 0.18026 0.22914 0.33985
 H1118 H 0.23165 0.20117 0.34712
 H1119 H 0.25769 0.28563 0.14078
 H1120 H 0.30897 0.30059 0.16893
 H1121 H 0.13023 0.26341 0.30430
 H1122 H 0.19877 0.31529 0.32938
 H1123 H 0.29431 0.18128 0.17304
 H1124 H 0.33898 0.21089 0.19955
 H1125 H 0.23280 0.36089 0.24328
 H1126 H 0.19715 0.33878 0.20321
 H1127 H 0.30348 0.16752 0.28891
 H1128 H 0.25641 0.14014 0.25631
 O1129 O 0.81386 0.67898 0.26069
 O1130 O 0.83448 0.70054 0.21212
 O1131 O 0.83029 0.78625 0.31935
 O1132 O 0.79893 0.83018 0.33653
 O1133 O 0.74370 0.70753 0.35051
 O1134 O 0.68942 0.69693 0.32684
 O1135 O 0.73859 0.85451 0.22683
 O1136 O 0.79542 0.85632 0.24265
 O1137 O 0.72797 0.76276 0.16353
 O1138 O 0.74450 0.70600 0.16806
 O1139 O 0.65322 0.78182 0.24754
 O1140 O 0.65003 0.78121 0.30706
 O1141 O 0.68914 0.84171 0.25992
 O1142 O 0.68151 0.81928 0.32389
 O1143 O 0.67312 0.74702 0.20136
 O1144 O 0.70236 0.68774 0.20327
 O1145 O 0.75641 0.81341 0.17539
 O1146 O 0.81616 0.81651 0.19782
 O1147 O 0.76604 0.66611 0.29591
 O1148 O 0.70503 0.66660 0.28390
 O1149 O 0.77503 0.75603 0.36377
 O1150 O 0.75095 0.81788 0.35463
 O1151 O 0.84996 0.74115 0.28403
 O1152 O 0.84828 0.75144 0.21642
 Zr1153 Zr 0.80725 0.73257 0.25039
 O1154 O 0.77691 0.75747 0.21277
 Zr1155 Zr 0.77601 0.78429 0.31607
 O1156 O 0.74687 0.81308 0.28094
 Zr1157 Zr 0.73497 0.71112 0.29669
 O1158 O 0.70211 0.73713 0.26296
 Zr1159 Zr 0.76916 0.80967 0.22900
 O1160 O 0.80141 0.78551 0.26535
 Zr1161 Zr 0.72597 0.73706 0.21187
 O1162 O 0.75800 0.70831 0.24508
 Zr1163 Zr 0.69735 0.79029 0.27756
 O1164 O 0.72566 0.76266 0.31501
 O1165 O 0.78493 0.73207 0.30152
 O1166 O 0.71867 0.78968 0.22573
 C1167 C 0.79449 0.65762 0.27860
 C1168 C 0.85482 0.76627 0.30662
 C1169 C 0.75975 0.72722 0.37213
 C1170 C 0.70866 0.86253 0.24141
 C1171 C 0.74077 0.79233 0.15447
 C1172 C 0.64876 0.76382 0.21912
 H1173 H 0.78889 0.75564 0.18900
 H1174 H 0.67917 0.72526 0.26384
 H1175 H 0.79997 0.71894 0.31730
 H1176 H 0.74568 0.83755 0.28982
 H1177 H 0.81572 0.84931 0.25624
 H1178 H 0.80063 0.84681 0.31678
 H1179 H 0.68057 0.68667 0.21838
 H1180 H 0.71473 0.65727 0.26086
 H1181 H 0.81338 0.83740 0.18306
 H1182 H 0.85724 0.77298 0.22772
 H1183 H 0.64791 0.75561 0.30939
 H1184 H 0.68123 0.71820 0.34011
 H1185 H 0.81818 0.69628 0.19295
 H1186 H 0.76298 0.69077 0.17687
 H1187 H 0.73214 0.80425 0.36678
 H1188 H 0.69486 0.84139 0.32390
 O1189 O 0.69639 0.33786 0.75001
 O1190 O 0.68654 0.31570 0.69320
 O1191 O 0.67342 0.25027 0.81671
 O1192 O 0.69642 0.20042 0.83053
 O1193 O 0.78087 0.30683 0.82558
 O1194 O 0.82299 0.32291 0.79044
 O1195 O 0.75462 0.15190 0.71305
 O1196 O 0.69979 0.15636 0.74159
 O1197 O 0.76487 0.23323 0.64289
 O1198 O 0.76434 0.29261 0.64350
 O1199 O 0.84336 0.21117 0.71790
 O1200 O 0.85117 0.22835 0.77614
 O1201 O 0.80290 0.16286 0.74427
 O1202 O 0.81821 0.18987 0.80067
 O1203 O 0.82830 0.24576 0.67275
 O1204 O 0.80485 0.30858 0.67101
 O1205 O 0.73114 0.18893 0.66469
 O1206 O 0.67567 0.19592 0.70008
 O1207 O 0.74710 0.34976 0.77701
 O1208 O 0.80714 0.34016 0.74346
 O1209 O 0.73773 0.27149 0.84748
 O1210 O 0.74692 0.20580 0.84223
 O1211 O 0.65786 0.28612 0.77285
 O1212 O 0.65482 0.26813 0.71056
 Zr1213 Zr 0.70049 0.28452 0.73612
 O1214 O 0.72474 0.25000 0.69859
 Zr1215 Zr 0.72667 0.23850 0.80353
 O1216 O 0.75047 0.20106 0.76847
 Zr1217 Zr 0.77620 0.30259 0.77075
 O1218 O 0.80356 0.26750 0.73573
 Zr1219 Zr 0.72678 0.19958 0.71947
 O1220 O 0.69951 0.23351 0.75639
 Zr1221 Zr 0.77726 0.26361 0.68811
 O1222 O 0.75150 0.30128 0.72229
 Zr1223 Zr 0.80193 0.21672 0.75570
 O1224 O 0.77929 0.25270 0.79317
 O1225 O 0.72472 0.28874 0.78430
 O1226 O 0.77877 0.21279 0.70688
 C1227 C 0.71700 0.35865 0.76613
 C1228 C 0.65120 0.26948 0.80142
 C1229 C 0.76211 0.29430 0.85120
 C1230 C 0.78329 0.14236 0.72664
 C1231 C 0.74589 0.20577 0.63912
 C1232 C 0.84975 0.22570 0.68805
 H1233 H 0.71101 0.25053 0.67707
 H1234 H 0.82797 0.27565 0.73212
 H1235 H 0.71249 0.30438 0.80206
 H1236 H 0.74930 0.17788 0.77956
 H1237 H 0.68012 0.16613 0.75664
 H1238 H 0.69107 0.18231 0.81258
 H1239 H 0.82735 0.30915 0.68289
 H1240 H 0.79167 0.35242 0.72743
 H1241 H 0.67374 0.17323 0.68718
 H1242 H 0.63591 0.28558 0.71561
 H1243 H 0.84700 0.24698 0.79440
 H1244 H 0.84099 0.30443 0.78666
 H1245 H 0.70754 0.32918 0.68559
 H1246 H 0.73852 0.29462 0.64428
 H1247 H 0.76994 0.21548 0.84820
 H1248 H 0.79938 0.17359 0.80821
 N1249 N 0.11954 0.96732 1.11973
 N1250 N 0.13452 0.96812 1.15041
 C1251 C 0.11190 0.98224 1.17526
 C1252 C 0.08135 0.99155 1.15931
 C1253 C 0.08733 0.98137 1.12414
 H1254 H 0.05842 1.00436 1.17144
 H1255 H 0.13167 0.95798 1.09605
 H1256 H 0.16030 0.96019 1.15343
 N1257 N 0.62607 0.48178 0.61023
 N1258 N 0.63976 0.48206 0.64159
 C1259 C 0.61474 0.49128 0.66639
 C1260 C 0.58392 0.49820 0.64989
 C1261 C 0.59229 0.49154 0.61436
 H1262 H 0.55908 0.50693 0.66185
 H1263 H 0.63991 0.47558 0.58643
 H1264 H 0.66596 0.47636 0.64571
 N1265 N 0.48526 -0.02019 0.67496
 N1266 N 0.47000 -0.01668 0.70698
 C1267 C 0.43935 0.00037 0.70447
 C1268 C 0.43483 0.00741 0.66910
 C1269 C 0.46426 -0.00609 0.65137
 H1270 H 0.41186 0.01801 0.65745
 H1271 H 0.50893 -0.03328 0.66937
 H1272 H 0.47941 -0.02782 0.72968
 N1273 N -0.02955 0.48370 1.16763
 N1274 N -0.04406 0.48945 1.19957
 C1275 C -0.07537 0.50516 1.19649
 C1276 C -0.08084 0.50955 1.16075
 C1277 C -0.05140 0.49516 1.14346
 H1278 H -0.10430 0.51888 1.14901
 H1279 H -0.00559 0.47096 1.16260
 H1280 H -0.03349 0.48037 1.22264
 N1281 N -0.12767 0.49044 0.38218
 N1282 N -0.14072 0.48988 0.35046
 C1283 C -0.11484 0.49689 0.32616
 C1284 C -0.08398 0.50214 0.34325
 C1285 C -0.09334 0.49788 0.37866
 H1286 H -0.05834 0.50828 0.33176
 H1287 H -0.14211 0.48549 0.40569
 H1288 H -0.16684 0.48427 0.34595
 N1289 N 0.37403 1.00513 -0.11243
 N1290 N 0.36245 1.00081 -0.14653
 C1291 C 0.39020 1.00486 -0.16958
 C1292 C 0.41971 1.01283 -0.15058
 C1293 C 0.40847 1.01220 -0.11502
 H1294 H 0.44628 1.01637 -0.16096
 H1295 H 0.35847 1.00159 -0.08932
 H1296 H 0.33686 0.99373 -0.15161
 N1297 N 0.52040 0.47904 -0.17805
 N1298 N 0.53712 0.48157 -0.20922
 C1299 C 0.57050 0.49126 -0.20442
 C1300 C 0.57506 0.49497 -0.16810
 C1301 C 0.54249 0.48697 -0.15238
 H1302 H 0.59844 0.50264 -0.15493
 H1303 H 0.49408 0.47209 -0.17461
 H1304 H 0.52544 0.47648 -0.23317
 N1305 N 0.03797 -0.05192 0.33643
 N1306 N 0.05183 -0.04647 0.30435
 C1307 C 0.07879 -0.02395 0.30662
 C1308 C 0.08237 -0.01506 0.34226
 C1309 C 0.05570 -0.03328 0.36025
 H1310 H 0.10061 0.00321 0.35338
 H1311 H 0.01614 -0.06765 0.34170
 H1312 H 0.04262 -0.05818 0.28144
 N1313 N 0.16918 1.01051 0.99839
 N1314 N 0.19948 1.02699 0.99759
 C1315 C 0.19340 1.06160 0.99539
 C1316 C 0.15760 1.06716 0.99405
 C1317 C 0.14326 1.03420 0.99668
 H1318 H 0.14390 1.09193 0.99384
 H1319 H 0.16642 0.98353 1.00105
 H1320 H 0.22347 1.01436 0.99960
 N1321 N 0.67465 0.51503 0.48247
 N1322 N 0.70456 0.53172 0.48578
 C1323 C 0.69825 0.56641 0.48589
 C1324 C 0.66270 0.57184 0.48198
 C1325 C 0.64866 0.53862 0.48031
 H1326 H 0.64870 0.59647 0.48357
 H1327 H 0.67197 0.48791 0.48347
 H1328 H 0.72826 0.51922 0.48985
 N1329 N 0.61269 0.38010 -0.00522
 N1330 N 0.64533 0.36852 0.00369
 C1331 C 0.66836 0.39478 -0.00117
 C1332 C 0.65061 0.42395 -0.01383
 C1333 C 0.61558 0.41357 -0.01546
 H1334 H 0.66157 0.44901 -0.02097
 H1335 H 0.59005 0.36490 -0.00304
 H1336 H 0.65084 0.34280 0.01041
 N1337 N 0.12516 -0.12033 0.49867
 N1338 N 0.15614 -0.13308 0.50482
 C1339 C 0.17935 -0.10673 0.50530
 C1340 C 0.16237 -0.07552 0.49842
 C1341 C 0.12787 -0.08557 0.49461
 H1342 H 0.17320 -0.04947 0.49717
 H1343 H 0.10235 -0.13528 0.49807
 H1344 H 0.16134 -0.15961 0.50800
 N1345 N 0.33191 -0.02503 0.54282
 N1346 N 0.30113 -0.03943 0.53777
 C1347 C 0.30601 -0.06939 0.51875
 C1348 C 0.34163 -0.07430 0.51155
 C1349 C 0.35711 -0.04545 0.52718
 H1350 H 0.35443 -0.09527 0.49627
 H1351 H 0.33538 -0.00122 0.55617
 H1352 H 0.27735 -0.02885 0.54758
 N1353 N -0.17796 0.47569 1.02488
 N1354 N -0.21077 0.46183 1.01836
 C1355 C -0.20609 0.42910 1.00509
 C1356 C -0.17010 0.42182 1.00215
 C1357 C -0.15346 0.45173 1.01459
 H1358 H -0.15745 0.39825 0.99168
 H1359 H -0.17377 0.50106 1.03445
 H1360 H -0.23438 0.47469 1.02475
 N1361 N -0.12282 0.62229 0.51089
 N1362 N -0.15534 0.63409 0.51316
 C1363 C -0.17744 0.60714 0.50828
 C1364 C -0.15778 0.57676 0.50257
 C1365 C -0.12331 0.58760 0.50442
 H1366 H -0.16702 0.55050 0.49765
 H1367 H -0.10072 0.63791 0.51370
 H1368 H -0.16177 0.66034 0.51766
 N1369 N 0.36850 1.11160 0.03973
 N1370 N 0.33682 1.12469 0.03655
 C1371 C 0.31660 1.10012 0.02178
 C1372 C 0.33634 1.06996 0.01548
 C1373 C 0.36914 1.07843 0.02707
 H1374 H 0.32850 1.04584 0.00273
 H1375 H 0.38947 1.12556 0.04965
 H1376 H 0.32949 1.15009 0.04432
 N1377 N 0.02589 1.12216 1.12114
 N1378 N 0.01849 1.15368 1.13381
 C1379 C 0.01476 1.17554 1.10675
 C1380 C 0.02015 1.15671 1.07489
 C1381 C 0.02695 1.12267 1.08549
 H1382 H 0.01771 1.16588 1.04823
 H1383 H 0.02861 1.10031 1.13693
 H1384 H 0.01603 1.16010 1.16082
 N1385 N 0.56534 0.65469 0.54426
 N1386 N 0.56212 0.68623 0.55861
 C1387 C 0.53421 0.68688 0.58176
 C1388 C 0.51925 0.65385 0.58272
 C1389 C 0.53986 0.63435 0.55829
 H1390 H 0.49597 0.64556 0.59757
 H1391 H 0.58427 0.64756 0.52459
 H1392 H 0.57851 0.70718 0.55216
 N1393 N 0.00699 0.61744 0.36980
 N1394 N 0.01013 0.64914 0.35708
 C1395 C 0.00434 0.67264 0.38373
 C1396 C -0.00300 0.65499 0.41499
 C1397 C -0.00102 0.62005 0.40484
 H1398 H -0.00889 0.66567 0.44130
 H1399 H 0.01065 0.59450 0.35463
 H1400 H 0.01592 0.65455 0.33046
 N1401 N 0.49584 1.16634 -0.01871
 N1402 N 0.49795 1.19602 -0.03576
 C1403 C 0.49803 1.18891 -0.07088
 C1404 C 0.49669 1.15302 -0.07635
 C1405 C 0.49477 1.13984 -0.04259
 H1406 H 0.49592 1.13870 -0.10129
 H1407 H 0.49517 1.16444 0.00885
 H1408 H 0.49932 1.22041 -0.02310
 N1409 N 0.46088 0.36591 -0.11668
 N1410 N 0.46215 0.33374 -0.12976
 C1411 C 0.47643 0.31307 -0.10593
 C1412 C 0.48464 0.33277 -0.07632
 C1413 C 0.47458 0.36620 -0.08444
 H1414 H 0.49757 0.32432 -0.05307
 H1415 H 0.45146 0.38732 -0.13010
 H1416 H 0.45356 0.32636 -0.15464
 N1417 N 0.00688 -0.17727 0.48268
 N1418 N 0.00491 -0.20767 0.46575
 C1419 C -0.00194 -0.20204 0.43162
 C1420 C -0.00466 -0.16618 0.42683
 C1421 C 0.00121 -0.15148 0.45990
 H1422 H -0.00942 -0.15254 0.40272
 H1423 H 0.01228 -0.17438 0.50942
 H1424 H 0.00926 -0.23165 0.47747
 N1425 N 0.46825 -0.16254 0.53565
 N1426 N 0.47422 -0.19333 0.54919
 C1427 C 0.49639 -0.18933 0.57562
 C1428 C 0.50484 -0.15421 0.57930
 C1429 C 0.48664 -0.13818 0.55297
 H1430 H 0.52307 -0.14243 0.59703
 H1431 H 0.45260 -0.15861 0.51414
 H1432 H 0.46353 -0.21673 0.54005
 N1433 N -0.02810 0.32700 1.02479
 N1434 N -0.02044 0.29659 1.03847
 C1435 C -0.00503 0.30224 1.06940
 C1436 C -0.00283 0.33822 1.07560
 C1437 C -0.01777 0.35297 1.04650
 H1438 H 0.00829 0.35172 1.09784
 H1439 H -0.03983 0.32976 1.00058
 H1440 H -0.02647 0.27246 1.02695
 N1441 N 0.79899 0.30633 0.08719
 N1442 N 0.79547 0.32231 0.05683
 C1443 C 0.76374 0.33796 0.05748
 C1444 C 0.74673 0.33193 0.09023
 C1445 C 0.76996 0.31187 0.10815
 H1446 H 0.72098 0.34045 0.09988
 H1447 H 0.82099 0.29185 0.09335
 H1448 H 0.81435 0.32142 0.03599
 N1449 N 0.30777 0.78900 0.58483
 N1450 N 0.30356 0.80680 0.55563
 C1451 C 0.27551 0.82799 0.56092
 C1452 C 0.26160 0.82381 0.59501
 C1453 C 0.28271 0.79892 0.60925
 H1454 H 0.23907 0.83685 0.60772
 H1455 H 0.32746 0.77050 0.58784
 H1456 H 0.31922 0.80382 0.53238
 N1457 N 0.70706 0.71497 0.59011
 N1458 N 0.71136 0.69720 0.55993
 C1459 C 0.72352 0.66520 0.56687
 C1460 C 0.72714 0.66215 0.60284
 C1461 C 0.71667 0.69452 0.61664
 H1462 H 0.73832 0.64055 0.61655
 H1463 H 0.69942 0.74118 0.59213
 H1464 H 0.70709 0.70723 0.53499
 N1465 N 0.21737 0.22300 0.08199
 N1466 N 0.22325 0.20467 0.05232
 C1467 C 0.22382 0.17061 0.06023
 C1468 C 0.21811 0.16687 0.09635
 C1469 C 0.21452 0.20085 0.10929
 H1470 H 0.21925 0.14306 0.11125
 H1471 H 0.21760 0.25028 0.08362
 H1472 H 0.22758 0.21540 0.02730
 N1473 N 0.28235 0.20975 0.91737
 N1474 N 0.27863 0.19320 0.94762
 C1475 C 0.25787 0.16515 0.94309
 C1476 C 0.24800 0.16395 0.90811
 C1477 C 0.26415 0.19272 0.89279
 H1478 H 0.23138 0.14505 0.89552
 H1479 H 0.29700 0.23253 0.91385
 H1480 H 0.29010 0.20156 0.97080
 N1481 N 0.77717 0.72992 0.43527
 N1482 N 0.77361 0.70972 0.46323
 C1483 C 0.75500 0.68112 0.45442
 C1484 C 0.74634 0.68339 0.41954
 C1485 C 0.76095 0.71445 0.40832
 H1486 H 0.73234 0.66456 0.40387
 H1487 H 0.79081 0.75353 0.43470
 H1488 H 0.78407 0.71562 0.48764
 N1489 N 0.31006 0.83279 0.39015
 N1490 N 0.30927 0.84548 0.42297
 C1491 C 0.27764 0.83876 0.43827
 C1492 C 0.25782 0.82005 0.41450
 C1493 C 0.27904 0.81752 0.38421
 H1494 H 0.23058 0.81260 0.41753
 H1495 H 0.33096 0.83601 0.37171
 H1496 H 0.32894 0.86085 0.43350
 N1497 N 0.80181 0.31462 0.89784
 N1498 N 0.79889 0.33064 0.92921
 C1499 C 0.76458 0.33470 0.93832
 C1500 C 0.74504 0.31928 0.91200
 C1501 C 0.76955 0.30727 0.88687
 H1502 H 0.71694 0.31862 0.90994
 H1503 H 0.82552 0.30989 0.88369
 H1504 H 0.82011 0.34043 0.94265
 N1505 N 0.76580 0.42393 0.24022
 N1506 N 0.78218 0.45411 0.24311
 C1507 C 0.81680 0.44779 0.24204
 C1508 C 0.82296 0.41227 0.23882
 C1509 C 0.78987 0.39811 0.23784
 H1510 H 0.84787 0.39872 0.23785
 H1511 H 0.73862 0.42110 0.24087
 H1512 H 0.76984 0.47847 0.24545
 N1513 N 0.28404 0.91332 0.74027
 N1514 N 0.30068 0.94319 0.74421
 C1515 C 0.33476 0.93623 0.74802
 C1516 C 0.34029 0.90055 0.74676
 C1517 C 0.30732 0.88703 0.74197
 H1518 H 0.36462 0.88652 0.74935
 H1519 H 0.25712 0.91110 0.73725
 H1520 H 0.28890 0.96780 0.74376
 N1521 N 0.23364 0.92856 0.28819
 N1522 N 0.21586 0.95830 0.28711
 C1523 C 0.18364 0.95139 0.27583
 C1524 C 0.18085 0.91567 0.27001
 C1525 C 0.21315 0.90221 0.27726
 H1526 H 0.15973 0.90200 0.25762
 H1527 H 0.26007 0.92683 0.29377
 H1528 H 0.22674 0.98303 0.29080
 N1529 N 0.71953 0.41955 0.79269
 N1530 N 0.70204 0.44928 0.78993
 C1531 C 0.67567 0.44383 0.76807
 C1532 C 0.67611 0.40914 0.75704
 C1533 C 0.70439 0.39472 0.77273
 H1534 H 0.65946 0.39656 0.73824
 H1535 H 0.74199 0.41672 0.80706
 H1536 H 0.70935 0.47318 0.80114
 N1537 N 0.64953 0.61763 0.79339
 N1538 N 0.64081 0.58419 0.79240
 C1539 C 0.65457 0.56956 0.76216
 C1540 C 0.67303 0.59478 0.74322
 C1541 C 0.66904 0.62491 0.76380
 H1542 H 0.68687 0.59177 0.71768
 H1543 H 0.64249 0.63499 0.81420
 H1544 H 0.62464 0.57205 0.81148
 N1545 N 0.13979 0.12288 0.29109
 N1546 N 0.13214 0.08920 0.29292
 C1547 C 0.14489 0.07292 0.26316
 C1548 C 0.16148 0.09739 0.24150
 C1549 C 0.15765 0.12880 0.26012
 H1550 H 0.17481 0.09285 0.21591
 H1551 H 0.13370 0.14126 0.31125
 H1552 H 0.11780 0.07783 0.31387
 N1553 N 0.27748 0.07652 0.77419
 N1554 N 0.29464 0.04663 0.77144
 C1555 C 0.32598 0.05219 0.75470
 C1556 C 0.32882 0.08708 0.74616
 C1557 C 0.29763 0.10154 0.75935
 H1558 H 0.35099 0.10040 0.73381
 H1559 H 0.25255 0.07961 0.78640
 H1560 H 0.28486 0.02314 0.78127
 N1561 N 0.78303 0.59636 0.29448
 N1562 N 0.79548 0.56496 0.28644
 C1563 C 0.82441 0.56801 0.26493
 C1564 C 0.83049 0.60330 0.25888
 C1565 C 0.80358 0.62031 0.27834
 H1566 H 0.85124 0.61490 0.24263
 H1567 H 0.76020 0.60107 0.31013
 H1568 H 0.78357 0.54206 0.29531
 N1569 N 0.90936 0.30447 0.20276
 N1570 N 0.94092 0.29978 0.18762
 C1571 C 0.94080 0.27051 0.16719
 C1572 C 0.90750 0.25614 0.16912
 C1573 C 0.88840 0.27853 0.19196
 H1574 H 0.89856 0.23247 0.15633
 H1575 H 0.90255 0.32491 0.22050
 H1576 H 0.96223 0.31601 0.19209
 N1577 N 0.42612 0.78335 0.71466
 N1578 N 0.45670 0.78158 0.69713
 C1579 C 0.45500 0.75741 0.67084
 C1580 C 0.42166 0.74315 0.67155
 C1581 C 0.40415 0.76063 0.69969
 H1582 H 0.41132 0.72387 0.65352
 H1583 H 0.42037 0.80040 0.73608
 H1584 H 0.47815 0.79703 0.70319
 N1585 N 0.41889 0.22276 0.76925
 N1586 N 0.44873 0.22318 0.78550
 C1587 C 0.44163 0.22865 0.82034
 C1588 C 0.40580 0.23242 0.82669
 C1589 C 0.39234 0.22851 0.79345
 H1590 H 0.39168 0.23730 0.85180
 H1591 H 0.41690 0.21906 0.74196
 H1592 H 0.47341 0.21950 0.77294
 N1593 N 0.89670 0.80463 0.33343
 N1594 N 0.93145 0.80300 0.34288
 C1595 C 0.94353 0.77071 0.33429
 C1596 C 0.91742 0.75195 0.31726
 C1597 C 0.88842 0.77385 0.31795
 H1598 H 0.91838 0.72501 0.30798
 H1599 H 0.88025 0.82618 0.33838
 H1600 H 0.94354 0.82217 0.35804
 N1601 N 0.10120 0.81768 0.31370
 N1602 N 0.06900 0.81026 0.32546
 C1603 C 0.06902 0.77841 0.34002
 C1604 C 0.10314 0.76550 0.33816
 C1605 C 0.12268 0.79109 0.32111
 H1606 H 0.11216 0.73994 0.34546
 H1607 H 0.10795 0.83986 0.29926
 H1608 H 0.04727 0.82611 0.32177
 N1609 N 0.59357 0.29881 0.80796
 N1610 N 0.56164 0.29193 0.82049
 C1611 C 0.56182 0.26093 0.83682
 C1612 C 0.59590 0.24783 0.83514
 C1613 C 0.61509 0.27268 0.81631
 H1614 H 0.60503 0.22304 0.84449
 H1615 H 0.60025 0.32082 0.79322
 H1616 H 0.54035 0.30856 0.81767
 N1617 N 0.57932 0.76145 0.72930
 N1618 N 0.55275 0.76456 0.70836
 C1619 C 0.56539 0.77016 0.67502
 C1620 C 0.60141 0.77073 0.67481
 C1621 C 0.60922 0.76481 0.70948
 H1622 H 0.61947 0.77139 0.65189
 H1623 H 0.57691 0.75544 0.75614
 H1624 H 0.52674 0.75958 0.71621
 N1625 N 0.09856 0.31180 0.19131
 N1626 N 0.07017 0.30936 0.17275
 C1627 C 0.05975 0.27584 0.17251
 C1628 C 0.08171 0.25647 0.19298
 C1629 C 0.10622 0.28006 0.20386
 H1630 H 0.08262 0.22839 0.19568
 H1631 H 0.11394 0.33424 0.19296
 H1632 H 0.06025 0.32957 0.15796
 N1633 N -0.12278 1.02473 0.89007
 N1634 N -0.13654 1.02749 0.85897
 C1635 C -0.11294 1.01642 0.83352
 C1636 C -0.08306 1.00488 0.84950
 C1637 C -0.09043 1.01101 0.88540
 H1638 H -0.05966 0.99337 0.83693
 H1639 H -0.13579 1.03160 0.91415
 H1640 H -0.16213 1.03592 0.85560
 N1641 N 0.37347 0.51892 0.38608
 N1642 N 0.35865 0.52031 0.35538
 C1643 C 0.38259 0.51162 0.32937
 C1644 C 0.41394 0.50323 0.34439
 C1645 C 0.40696 0.50855 0.38041
 H1646 H 0.43821 0.49450 0.33118
 H1647 H 0.36061 0.52470 0.41051
 H1648 H 0.33238 0.52665 0.35251
 N1649 N 0.51877 0.03348 0.32710
 N1650 N 0.53482 0.02980 0.29546
 C1651 C 0.56499 0.01205 0.29869
 C1652 C 0.56847 0.00478 0.33415
 C1653 C 0.53869 0.01871 0.35120
 H1654 H 0.59048 -0.00730 0.34618
 H1655 H 0.49498 0.04655 0.33203
 H1656 H 0.52591 0.04060 0.27236
 N1657 N 0.01731 0.51646 0.82116
 N1658 N 0.03487 0.51397 0.79028
 C1659 C 0.06612 0.49871 0.79499
 C1660 C 0.06855 0.49159 0.83066
 C1661 C 0.03713 0.50332 0.84625
 H1662 H 0.09090 0.48135 0.84367
 H1663 H -0.00741 0.52796 0.82497
 H1664 H 0.02607 0.52439 0.76698
 N1665 N 0.12631 0.51122 0.61131
 N1666 N 0.13838 0.51178 0.64353
 C1667 C 0.11168 0.50548 0.66715
 C1668 C 0.08131 0.50071 0.64899
 C1669 C 0.09175 0.50450 0.61373
 H1670 H 0.05527 0.49494 0.65968
 H1671 H 0.14161 0.51539 0.58816
 H1672 H 0.16445 0.51670 0.64885
 N1673 N 0.62055 0.97258 0.11675
 N1674 N 0.63277 0.98105 0.14784
 C1675 C 0.60563 0.98939 0.17061
 C1676 C 0.57467 0.98504 0.15327
 C1677 C 0.58541 0.97462 0.11914
 H1678 H 0.54835 0.99142 0.16307
 H1679 H 0.63619 0.96690 0.09394
 H1680 H 0.65939 0.98163 0.15265
 N1681 N 0.46858 0.51999 0.16897
 N1682 N 0.45305 0.52007 0.20083
 C1683 C 0.41993 0.50866 0.19829
 C1684 C 0.41419 0.50100 0.16274
 C1685 C 0.44594 0.50854 0.14509
 H1686 H 0.39060 0.49126 0.15134
 H1687 H 0.49446 0.52777 0.16383
 H1688 H 0.46523 0.52831 0.22367
 N1689 N -0.03151 0.03994 0.67318
 N1690 N -0.04614 0.03624 0.70519
 C1691 C -0.07612 0.01806 0.70265
 C1692 C -0.08082 0.01004 0.66709
 C1693 C -0.05174 0.02432 0.64933
 H1694 H -0.10175 -0.00483 0.65582
 H1695 H -0.00767 0.05253 0.66797
 H1696 H -0.03564 0.04647 0.72819
 N1697 N -0.17696 0.98548 1.01378
 N1698 N -0.20720 0.96906 1.01240
 C1699 C -0.20125 0.93453 1.01524
 C1700 C -0.16592 0.92885 1.01918
 C1701 C -0.15146 0.96168 1.01762
 H1702 H -0.15242 0.90402 1.02027
 H1703 H -0.17383 1.01238 1.01077
 H1704 H -0.23087 0.98156 1.00827
 N1705 N 0.32682 0.48716 0.50834
 N1706 N 0.29701 0.46975 0.50843
 C1707 C 0.30384 0.43531 0.51132
 C1708 C 0.33975 0.43093 0.51375
 C1709 C 0.35334 0.46438 0.51124
 H1710 H 0.35412 0.40657 0.51431
 H1711 H 0.32891 0.51412 0.50509
 H1712 H 0.27287 0.48163 0.50509
 N1713 N 0.33824 0.55395 0.05448
 N1714 N 0.30608 0.56409 0.04937
 C1715 C 0.30594 0.58315 0.01983
 C1716 C 0.34004 0.58535 0.00528
 C1717 C 0.35964 0.56607 0.02823
 H1718 H 0.34894 0.59754 -0.01909
 H1719 H 0.34505 0.53772 0.07499
 H1720 H 0.28448 0.55801 0.06605
 N1721 N -0.16198 0.03539 0.52697
 N1722 N -0.19434 0.04838 0.51934
 C1723 C -0.18974 0.07603 0.49797
 C1724 C -0.15365 0.08119 0.49136
 C1725 C -0.13735 0.05483 0.51013
 H1726 H -0.14110 0.10187 0.47640
 H1727 H -0.15848 0.01384 0.54299
 H1728 H -0.21781 0.03970 0.53139
 N1729 N 0.66028 0.04128 0.44267
 N1730 N 0.69171 0.05423 0.44680
 C1731 C 0.68942 0.08137 0.47025
 C1732 C 0.65448 0.08637 0.48099
 C1733 C 0.63711 0.05944 0.46361
 H1734 H 0.64396 0.10386 0.50172
 H1735 H 0.65529 0.01905 0.42725
 H1736 H 0.71430 0.04400 0.43386
 N1737 N 0.15821 0.52633 0.95303
 N1738 N 0.18878 0.54026 0.95991
 C1739 C 0.18356 0.56894 0.98086
 C1740 C 0.14780 0.57367 0.98727
 C1741 C 0.13264 0.54569 0.96942
 H1742 H 0.13483 0.59314 1.00445
 H1743 H 0.15514 0.50314 0.93847
 H1744 H 0.21284 0.52981 0.95071
 N1745 N 0.12758 0.37945 0.47388
 N1746 N 0.15982 0.36734 0.47548
 C1747 C 0.18065 0.39336 0.48660
 C1748 C 0.16066 0.42344 0.49209
 C1749 C 0.12719 0.41340 0.48387
 H1750 H 0.16890 0.44878 0.50174
 H1751 H 0.10625 0.36450 0.46634
 H1752 H 0.16699 0.34162 0.46894
 N1753 N 0.62543 0.88093 -0.03005
 N1754 N 0.65697 0.86813 -0.02542
 C1755 C 0.67642 0.89314 -0.01028
 C1756 C 0.65642 0.92316 -0.00520
 C1757 C 0.62431 0.91429 -0.01799
 H1758 H 0.66373 0.94767 0.00713
 H1759 H 0.60496 0.86676 -0.04068
 H1760 H 0.66478 0.84275 -0.03273
 N1761 N -0.04388 0.83498 0.96484
 N1762 N -0.03521 0.80384 0.95174
 C1763 C -0.01300 0.80742 0.92333
 C1764 C -0.00809 0.84312 0.91759
 C1765 C -0.02805 0.85966 0.94489
 H1766 H 0.00749 0.85520 0.89659
 H1767 H -0.06033 0.83907 0.98740
 H1768 H -0.04551 0.78051 0.96155
 N1769 N 0.43366 0.34930 0.44673
 N1770 N 0.43767 0.31771 0.43267
 C1771 C 0.46615 0.31723 0.41020
 C1772 C 0.48061 0.35042 0.40932
 C1773 C 0.45915 0.36983 0.43313
 H1774 H 0.50437 0.35875 0.39531
 H1775 H 0.41440 0.35626 0.46613
 H1776 H 0.42159 0.29652 0.43910
 N1777 N 0.05160 0.36502 0.57756
 N1778 N 0.05226 0.33277 0.58873
 C1779 C 0.01924 0.32245 0.59689
 C1780 C -0.00372 0.34948 0.59029
 C1781 C 0.01822 0.37603 0.57825
 H1782 H -0.03203 0.34910 0.59164
 H1783 H 0.07355 0.37848 0.56758
 H1784 H 0.07503 0.31778 0.58989
 N1785 N 0.52462 0.82741 0.01965
 N1786 N 0.52593 0.79711 0.03547
 C1787 C 0.51518 0.80182 0.06971
 C1788 C 0.50717 0.83689 0.07604
 C1789 C 0.51332 0.85207 0.04347
 H1790 H 0.49809 0.84938 0.10074
 H1791 H 0.53171 0.83101 -0.00707
 H1792 H 0.53471 0.77404 0.02281
 N1793 N 0.45963 0.64372 0.07942
 N1794 N 0.46578 0.67487 0.09309
 C1795 C 0.50022 0.67759 0.09842
 C1796 C 0.51695 0.64670 0.08768
 C1797 C 0.49001 0.62598 0.07575
 H1798 H 0.54479 0.64141 0.08563
 H1799 H 0.43527 0.63553 0.07101
 H1800 H 0.44699 0.69463 0.09634
 N1801 N -0.00405 0.16770 0.52125
 N1802 N 0.00169 0.19877 0.53549
 C1803 C 0.01110 0.19493 0.56918
 C1804 C 0.01134 0.15943 0.57661
 C1805 C 0.00159 0.14313 0.54531
 H1806 H 0.01732 0.14724 0.60120
 H1807 H -0.01165 0.16354 0.49531
 H1808 H -0.00197 0.22211 0.52232
 N1809 N 0.53187 0.16958 0.46457
 N1810 N 0.52661 0.19988 0.44974
 C1811 C 0.50562 0.19494 0.42246
 C1812 C 0.49723 0.15985 0.41951
 C1813 C 0.51414 0.14477 0.44716
 H1814 H 0.47973 0.14753 0.40137
 H1815 H 0.54648 0.16631 0.48695
 H1816 H 0.53689 0.22358 0.45861
 N1817 N 0.03529 0.62644 0.89514
 N1818 N 0.03315 0.65725 0.88042
 C1819 C 0.01393 0.67878 0.90230
 C1820 C 0.00384 0.66092 0.93280
 C1821 C 0.01792 0.62770 0.92691
 H1822 H -0.01360 0.66981 0.95451
 H1823 H 0.04727 0.60450 0.88292
 H1824 H 0.04417 0.66297 0.85540
 N1825 N 0.20812 0.70562 0.91621
 N1826 N 0.20922 0.68942 0.94661
 C1827 C 0.23477 0.66509 0.94401
 C1828 C 0.25064 0.66570 0.91020
 C1829 C 0.23269 0.69174 0.89340
 H1830 H 0.27166 0.64923 0.89925
 H1831 H 0.19059 0.72571 0.91126
 H1832 H 0.19268 0.69526 0.96871
 N1833 N 0.70998 0.21101 0.41648
 N1834 N 0.71353 0.19376 0.44596
 C1835 C 0.74064 0.17113 0.44145
 C1836 C 0.75515 0.17452 0.40715
 C1837 C 0.73431 0.19970 0.39208
 H1838 H 0.77631 0.15949 0.39431
 H1839 H 0.69057 0.22971 0.41304
 H1840 H 0.69750 0.19812 0.46871
 N1841 N 0.27909 0.27662 0.41748
 N1842 N 0.27694 0.29403 0.44800
 C1843 C 0.27438 0.32828 0.44142
 C1844 C 0.27459 0.33313 0.40521
 C1845 C 0.27734 0.29953 0.39096
 H1846 H 0.27070 0.35726 0.39145
 H1847 H 0.27994 0.24939 0.41508
 H1848 H 0.27622 0.28250 0.47285
 N1849 N 0.77394 0.77693 0.92158
 N1850 N 0.76883 0.79338 0.95240
 C1851 C 0.76788 0.82787 0.94667
 C1852 C 0.77233 0.83388 0.91069
 C1853 C 0.77585 0.80071 0.89567
 H1854 H 0.77129 0.85861 0.89737
 H1855 H 0.77452 0.74976 0.91837
 H1856 H 0.76570 0.78112 0.97679
 N1857 N 0.72059 0.78295 0.09330
 N1858 N 0.72246 0.79911 0.06271
 C1859 C 0.74030 0.82915 0.06678
 C1860 C 0.75013 0.83216 0.10165
 C1861 C 0.73712 0.80235 0.11748
 H1862 H 0.76463 0.85299 0.11396
 H1863 H 0.70826 0.75893 0.09735
 H1864 H 0.71191 0.78925 0.03960
 N1865 N 0.21535 0.28274 0.58339
 N1866 N 0.22015 0.30002 0.55366
 C1867 C 0.24109 0.32776 0.55944
 C1868 C 0.24988 0.32797 0.59470
 C1869 C 0.23297 0.29899 0.60887
 H1870 H 0.26641 0.34633 0.60818
 H1871 H 0.20054 0.25995 0.58589
 H1872 H 0.20926 0.29230 0.52997
 N1873 N 0.71534 0.20860 0.58245
 N1874 N 0.71224 0.18902 0.55347
 C1875 C 0.73375 0.16113 0.55497
 C1876 C 0.75058 0.16297 0.58694
 C1877 C 0.73865 0.19359 0.60309
 H1878 H 0.76890 0.14473 0.59742
 H1879 H 0.70129 0.23161 0.58817
 H1880 H 0.69630 0.19545 0.53290
 N1881 N 0.23364 0.72232 0.07491
 N1882 N 0.22636 0.70228 0.04728
 C1883 C 0.21934 0.66961 0.05832
 C1884 C 0.22149 0.66938 0.09491
 C1885 C 0.23143 0.70290 0.10422
 H1886 H 0.22127 0.64673 0.11163
 H1887 H 0.24193 0.74825 0.07331
 H1888 H 0.23022 0.70988 0.02100
 N1889 N 0.23013 0.57485 0.76259
 N1890 N 0.21189 0.54602 0.75764
 C1891 C 0.17789 0.55474 0.75630
 C1892 C 0.17417 0.59056 0.76025
 C1893 C 0.20800 0.60235 0.76400
 H1894 H 0.15041 0.60589 0.75940
 H1895 H 0.25736 0.57569 0.76359
 H1896 H 0.22259 0.52090 0.75534
 N1897 N 0.72397 0.08515 0.25167
 N1898 N 0.70469 0.05527 0.24392
 C1899 C 0.67052 0.06417 0.24618
 C1900 C 0.66720 0.09953 0.25410
 C1901 C 0.70113 0.11181 0.25662
 H1902 H 0.64318 0.11460 0.25668
 H1903 H 0.75128 0.08659 0.25035
 H1904 H 0.71536 0.03034 0.23981
 N1905 N 0.78364 0.08355 0.69950
 N1906 N 0.80242 0.05267 0.70459
 C1907 C 0.82281 0.05828 0.73235
 C1908 C 0.81871 0.09261 0.74419
 C1909 C 0.79433 0.10757 0.72322
 H1910 H 0.83184 0.10549 0.76558
 H1911 H 0.76551 0.08707 0.68004
 H1912 H 0.79905 0.02920 0.69062
 N1913 N 0.27610 0.58558 0.20249
 N1914 N 0.29223 0.55525 0.20658
 C1915 C 0.31714 0.55981 0.23033
 C1916 C 0.31711 0.59455 0.24126
 C1917 C 0.29073 0.60999 0.22335
 H1918 H 0.33345 0.60686 0.26051
 H1919 H 0.25531 0.58928 0.18599
 H1920 H 0.28537 0.53172 0.19430
 N1921 N 0.34738 0.38364 0.20793
 N1922 N 0.35382 0.41762 0.20731
 C1923 C 0.33941 0.43268 0.23706
 C1924 C 0.32311 0.40719 0.25738
 C1925 C 0.32895 0.37648 0.23821
 H1926 H 0.30942 0.41046 0.28297
 H1927 H 0.35517 0.36586 0.18774
 H1928 H 0.36898 0.42990 0.18752
 N1929 N 0.84660 0.88794 0.71086
 N1930 N 0.85491 0.92147 0.71086
 C1931 C 0.84301 0.93626 0.74173
 C1932 C 0.82614 0.91107 0.76216
 C1933 C 0.82919 0.88078 0.74172
 H1934 H 0.81405 0.91419 0.78851
 H1935 H 0.85258 0.87041 0.68991
 H1936 H 0.86965 0.93355 0.69062
 N1937 N 0.71723 0.92214 0.21940
 N1938 N 0.70225 0.95304 0.22303
 C1939 C 0.67287 0.95021 0.24391
 C1940 C 0.66900 0.91572 0.25411
 C1941 C 0.69773 0.89886 0.23770
 H1942 H 0.64817 0.90444 0.27050
 H1943 H 0.74069 0.91735 0.20479
 H1944 H 0.71240 0.97541 0.21113
 N1945 N 0.21928 0.41001 0.71605
 N1946 N 0.20353 0.44066 0.71863
 C1947 C 0.17285 0.43725 0.73731
 C1948 C 0.16909 0.40255 0.74725
 C1949 C 0.19918 0.38621 0.73300
 H1950 H 0.14762 0.39083 0.76239
 H1951 H 0.24369 0.40573 0.70310
 H1952 H 0.21430 0.46338 0.70801
 N1953 N 0.08998 0.71803 0.78011
 N1954 N 0.05849 0.72431 0.79446
 C1955 C 0.06127 0.74459 0.82378
 C1956 C 0.09642 0.75164 0.82828
 C1957 C 0.11369 0.73392 0.80002
 H1958 H 0.10782 0.76631 0.84961
 H1959 H 0.09495 0.70301 0.75702
 H1960 H 0.03563 0.71427 0.78427
 N1961 N 0.58004 0.21423 0.28598
 N1962 N 0.54849 0.21815 0.30115
 C1963 C 0.54941 0.24324 0.32661
 C1964 C 0.58351 0.25577 0.32789
 C1965 C 0.60212 0.23635 0.30165
 H1966 H 0.59343 0.27545 0.34574
 H1967 H 0.58626 0.19633 0.26540
 H1968 H 0.52681 0.20354 0.29407
 N1969 N 0.58472 0.75674 0.23023
 N1970 N 0.55658 0.75223 0.21170
 C1971 C 0.56613 0.75361 0.17706
 C1972 C 0.60201 0.75876 0.17322
 C1973 C 0.61274 0.76059 0.20767
 H1974 H 0.61788 0.76121 0.14892
 H1975 H 0.58473 0.75667 0.25787
 H1976 H 0.53122 0.74918 0.22268
 N1977 N 0.07815 0.25349 0.73118
 N1978 N 0.04887 0.24711 0.71489
 C1979 C 0.05674 0.23742 0.68090
 C1980 C 0.09290 0.23756 0.67568
 C1981 C 0.10540 0.24852 0.70780
 H1982 H 0.10781 0.23460 0.65072
 H1983 H 0.07921 0.26245 0.75739
 H1984 H 0.02389 0.25281 0.72589
 N1985 N 0.90400 0.19097 0.67751
 N1986 N 0.93646 0.19611 0.66541
 C1987 C 0.93894 0.22844 0.65191
 C1988 C 0.90609 0.24425 0.65503
 C1989 C 0.88482 0.21958 0.67160
 H1990 H 0.89916 0.27074 0.64870
 H1991 H 0.89556 0.16867 0.69090
 H1992 H 0.95650 0.17791 0.66777
 N1993 N 0.40741 0.69640 0.18231
 N1994 N 0.44059 0.70173 0.17312
 C1995 C 0.44391 0.73361 0.15882
 C1996 C 0.41085 0.74902 0.15844
 C1997 C 0.38852 0.72447 0.17381
 H1998 H 0.40429 0.77505 0.15021
 H1999 H 0.39811 0.67426 0.19541
 H2000 H 0.46029 0.68344 0.17674
 N2001 N 0.41714 0.22504 0.27040
 N2002 N 0.44500 0.22419 0.28984
 C2003 C 0.43440 0.22602 0.32434
 C2004 C 0.39822 0.22744 0.32691
 C2005 C 0.38837 0.22726 0.29226
 H2006 H 0.38170 0.23270 0.35049
 H2007 H 0.41805 0.22618 0.24278
 H2008 H 0.47071 0.22604 0.27953
 N2009 N 0.92394 0.73450 0.77017
 N2010 N 0.95260 0.73363 0.78835
 C2011 C 0.94350 0.73873 0.82293
 C2012 C 0.90766 0.74254 0.82713
 C2013 C 0.89634 0.73975 0.79309
 H2014 H 0.89220 0.74825 0.85130
 H2015 H 0.92348 0.73205 0.74262
 H2016 H 0.97790 0.73143 0.77697
   
