data_POSCAR
  _audit_creation_date              2014-09-24
  _audit_creation_method            'ToBaCCo'
  _symmetry_space_group_name_H-M    'P1'
  _symmetry_Int_Tables_number       1
  _symmetry_cell_setting            triclinic
  loop_
  _symmetry_equiv_pos_as_xyz
 x,y,z
_cell_length_a 44.6166
_cell_length_b 35.5520
_cell_length_c 33.4069
_cell_angle_alpha 89.832500
_cell_angle_beta 90.002300
_cell_angle_gamma 89.961600
loop_
  _atom_site_label
  _atom_site_type_symbol
  _atom_site_fract_x
  _atom_site_fract_y
  _atom_site_fract_z
C1 C -0.00017 0.00556 0.13009
 C2 C 0.00182 -0.00616 -0.13282
 C3 C -0.06935 -0.06071 0.06009
 C4 C -0.06885 0.06380 0.05634
 C5 C -0.06867 -0.06374 -0.05991
 C6 C 0.07009 -0.06124 -0.06261
 C7 C 0.07055 0.05654 -0.06590
 C8 C 0.06844 -0.05879 0.06571
 C9 C -0.06847 0.06027 -0.06325
 C10 C 0.06959 0.05929 0.06166
 O11 O -0.04118 -0.07221 -0.06857
 O12 O -0.07661 -0.03722 -0.03582
 O13 O -0.04094 0.06777 -0.07294
 O14 O -0.07644 0.03462 -0.03814
 O15 O 0.04210 0.06813 0.06988
 O16 O 0.07749 0.03433 0.03573
 O17 O 0.00150 0.02668 -0.11628
 O18 O 0.00114 -0.03716 -0.11269
 O19 O -0.00003 0.03660 0.11020
 O20 O -0.00051 -0.02737 0.11387
 O21 O 0.04252 -0.06938 -0.07142
 O22 O 0.07765 -0.03664 -0.03606
 O23 O -0.04198 -0.06814 0.07020
 O24 O -0.07712 -0.03518 0.03460
 O25 O 0.04091 -0.06559 0.07513
 O26 O 0.07683 -0.03528 0.03829
 O27 O 0.04305 0.06389 -0.07589
 O28 O 0.07795 0.03263 -0.03834
 O29 O 0.00200 0.10730 0.05352
 O30 O 0.00213 0.10205 -0.06921
 O31 O 0.00186 -0.10811 -0.05640
 O32 O 0.00046 -0.10301 0.06649
 O33 O -0.02548 -0.04979 0.00095
 O34 O -0.02508 0.04908 -0.00385
 O35 O 0.02545 -0.04981 0.00148
 O36 O -0.02733 0.00182 0.05216
 O37 O -0.07676 0.03722 0.03226
 O38 O -0.04137 0.07203 0.06523
 O39 O 0.02758 0.00142 0.05303
 O40 O 0.02828 -0.00273 -0.05465
 O41 O 0.02595 0.04841 -0.00325
 O42 O -0.02666 -0.00231 -0.05496
 Zr43 Zr 0.00030 0.04819 0.04862
 Zr44 Zr 0.00054 -0.04903 -0.05106
 Zr45 Zr -0.05065 -0.00022 -0.00156
 Zr46 Zr -0.00023 -0.04494 0.05334
 Zr47 Zr 0.00087 0.04408 -0.05569
 Zr48 Zr 0.05150 -0.00095 -0.00048
 H49 H 0.03738 -0.07328 0.00234
 H50 H -0.04104 0.00257 0.07544
 H51 H 0.03812 0.07167 -0.00383
 H52 H -0.04003 -0.00288 -0.07860
 H53 H -0.00345 0.11699 0.02670
 H54 H 0.00290 0.11491 -0.04301
 H55 H 0.00084 -0.11575 0.04021
 H56 H -0.00375 -0.11792 -0.02969
 C57 C 0.24866 0.23960 0.11864
 C58 C 0.25330 0.25929 0.38059
 C59 C 0.17887 0.30649 0.18876
 C60 C 0.18102 0.18195 0.19585
 C61 C 0.18066 0.31267 0.30811
 C62 C 0.31937 0.31369 0.30716
 C63 C 0.32200 0.19556 0.31416
 C64 C 0.31749 0.30653 0.18062
 C65 C 0.18492 0.18885 0.31917
 C66 C 0.31949 0.18839 0.18825
 O67 O 0.20816 0.32225 0.31533
 O68 O 0.17274 0.28481 0.28574
 O69 O 0.21280 0.18348 0.32733
 O70 O 0.17491 0.21172 0.29193
 O71 O 0.29202 0.17884 0.18084
 O72 O 0.32731 0.21471 0.21262
 O73 O 0.25394 0.22607 0.36520
 O74 O 0.25162 0.28987 0.35998
 O75 O 0.24915 0.20911 0.13961
 O76 O 0.24802 0.27281 0.13425
 O77 O 0.29189 0.32180 0.31625
 O78 O 0.32727 0.28813 0.28190
 O79 O 0.20609 0.31399 0.17792
 O80 O 0.17156 0.28131 0.21505
 O81 O 0.28974 0.31327 0.17151
 O82 O 0.32610 0.28352 0.20816
 O83 O 0.29490 0.18837 0.32543
 O84 O 0.32907 0.21870 0.28588
 O85 O 0.25226 0.14000 0.19817
 O86 O 0.25486 0.14909 0.32006
 O87 O 0.25028 0.35876 0.30057
 O88 O 0.24788 0.34957 0.17837
 O89 O 0.22344 0.29741 0.24672
 O90 O 0.22560 0.19906 0.25493
 O91 O 0.27460 0.29904 0.24503
 O92 O 0.22180 0.24483 0.19764
 O93 O 0.17291 0.20859 0.21973
 O94 O 0.20853 0.17426 0.18652
 O95 O 0.27684 0.24627 0.19512
 O96 O 0.27895 0.25413 0.30261
 O97 O 0.27662 0.20102 0.25274
 O98 O 0.22393 0.25218 0.30411
 Zr99 Zr 0.25013 0.19919 0.20163
 Zr100 Zr 0.25012 0.29949 0.29792
 Zr101 Zr 0.19878 0.24736 0.25196
 Zr102 Zr 0.24847 0.29205 0.19406
 Zr103 Zr 0.25257 0.20681 0.30549
 Zr104 Zr 0.30136 0.25071 0.24808
 H105 H 0.28613 0.32274 0.24307
 H106 H 0.20794 0.24320 0.17457
 H107 H 0.28901 0.17795 0.25397
 H108 H 0.21103 0.25331 0.32817
 H109 H 0.24717 0.13083 0.22531
 H110 H 0.25458 0.13573 0.29414
 H111 H 0.24936 0.36334 0.20398
 H112 H 0.24393 0.36732 0.27367
 C113 C 0.50336 0.00743 0.13113
 C114 C 0.49805 -0.00987 -0.13008
 C115 C 0.57015 0.06534 0.05551
 C116 C 0.57346 -0.05810 0.06198
 C117 C 0.56850 0.05972 -0.06513
 C118 C 0.42938 0.05259 -0.06266
 C119 C 0.43201 -0.06601 -0.05675
 C120 C 0.43175 0.05779 0.06352
 C121 C 0.57089 -0.06366 -0.05960
 C122 C 0.43640 -0.06182 0.07209
 O123 O 0.54056 0.06622 -0.07406
 O124 O 0.57699 0.03484 -0.03935
 O125 O 0.54330 -0.07292 -0.06697
 O126 O 0.57855 -0.03680 -0.03566
 O127 O 0.46443 -0.06519 0.08064
 O128 O 0.42632 -0.04027 0.04349
 O129 O 0.49934 -0.04066 -0.10981
 O130 O 0.49804 0.02324 -0.11443
 O131 O 0.50451 -0.02571 0.11560
 O132 O 0.50231 0.03813 0.11081
 O133 O 0.45653 0.06028 -0.07370
 O134 O 0.42239 0.02876 -0.03476
 O135 O 0.54263 0.07310 0.06470
 O136 O 0.57829 0.03889 0.03137
 O137 O 0.45920 0.06786 0.07038
 O138 O 0.42394 0.03119 0.03947
 O139 O 0.45952 -0.07362 -0.06632
 O140 O 0.42408 -0.04100 -0.03096
 O141 O 0.50477 -0.10241 0.06977
 O142 O 0.50145 -0.11042 -0.05176
 O143 O 0.49680 0.09950 -0.06912
 O144 O 0.49856 0.10737 0.05219
 O145 O 0.52601 0.04873 -0.00381
 O146 O 0.52849 -0.05012 0.00299
 O147 O 0.47466 0.04606 -0.00171
 O148 O 0.52993 0.00287 0.05293
 O149 O 0.58035 -0.03331 0.03513
 O150 O 0.54625 -0.06555 0.07276
 O151 O 0.47499 0.00064 0.05555
 O152 O 0.47266 -0.00578 -0.05156
 O153 O 0.47738 -0.05170 0.00523
 O154 O 0.52763 -0.00375 -0.05367
 Zr155 Zr 0.50401 -0.04452 0.05574
 Zr156 Zr 0.49929 0.04182 -0.05453
 Zr157 Zr 0.55254 0.00012 -0.00120
 Zr158 Zr 0.50117 0.04820 0.04911
 Zr159 Zr 0.50140 -0.05119 -0.04803
 Zr160 Zr 0.44991 -0.00404 0.00321
 H161 H 0.46215 0.06903 -0.00246
 H162 H 0.54385 0.00440 0.07593
 H163 H 0.46619 -0.07565 0.00724
 H164 H 0.54059 -0.00430 -0.07770
 H165 H 0.50435 -0.11555 0.04372
 H166 H 0.50915 -0.11937 -0.02565
 H167 H 0.50479 0.11653 0.02547
 H168 H 0.49562 0.11277 -0.04318
 C169 C 0.75153 0.24171 0.12012
 C170 C 0.75067 0.25644 0.38163
 C171 C 0.68146 0.30925 0.18781
 C172 C 0.68121 0.18572 0.19212
 C173 C 0.68119 0.31345 0.30850
 C174 C 0.81964 0.30916 0.31285
 C175 C 0.81882 0.19043 0.31793
 C176 C 0.82023 0.30522 0.18538
 C177 C 0.68066 0.18987 0.31311
 C178 C 0.81964 0.18736 0.18998
 O179 O 0.70869 0.32175 0.31722
 O180 O 0.67325 0.28697 0.28431
 O181 O 0.70803 0.18244 0.32327
 O182 O 0.67287 0.21493 0.28714
 O183 O 0.79215 0.17896 0.18137
 O184 O 0.82756 0.21232 0.21589
 O185 O 0.75027 0.22336 0.36583
 O186 O 0.75042 0.28731 0.36154
 O187 O 0.75105 0.21080 0.14017
 O188 O 0.75125 0.27476 0.13596
 O189 O 0.79217 0.31819 0.32091
 O190 O 0.82756 0.28388 0.28729
 O191 O 0.70901 0.31642 0.17798
 O192 O 0.67344 0.28415 0.21358
 O193 O 0.79281 0.31259 0.17529
 O194 O 0.82794 0.28169 0.21310
 O195 O 0.79116 0.18397 0.32738
 O196 O 0.82694 0.21410 0.29040
 O197 O 0.75140 0.14062 0.19781
 O198 O 0.75017 0.14707 0.31983
 O199 O 0.75202 0.35730 0.30376
 O200 O 0.75202 0.35089 0.18202
 O201 O 0.72479 0.29866 0.24771
 O202 O 0.72435 0.19970 0.25366
 O203 O 0.77602 0.29772 0.24820
 O204 O 0.72326 0.24665 0.19732
 O205 O 0.67324 0.21221 0.21629
 O206 O 0.70869 0.17698 0.18384
 O207 O 0.77810 0.24611 0.19750
 O208 O 0.77767 0.25133 0.30485
 O209 O 0.77551 0.19952 0.25401
 O210 O 0.72281 0.25175 0.30408
 Zr211 Zr 0.75037 0.19982 0.20175
 Zr212 Zr 0.75036 0.29811 0.29998
 Zr213 Zr 0.69924 0.24937 0.25052
 Zr214 Zr 0.75076 0.29302 0.19604
 Zr215 Zr 0.74990 0.20495 0.30576
 Zr216 Zr 0.80158 0.24833 0.25141
 H217 H 0.78817 0.32098 0.24734
 H218 H 0.70988 0.24596 0.17371
 H219 H 0.78736 0.17600 0.25505
 H220 H 0.70926 0.25272 0.32751
 H221 H 0.74462 0.13139 0.22427
 H222 H 0.75121 0.13396 0.29379
 H223 H 0.75323 0.36393 0.20808
 H224 H 0.74526 0.36659 0.27731
 C225 C -0.00008 0.50714 0.13034
 C226 C 0.00068 0.49315 -0.13226
 C227 C -0.06969 0.44013 0.06145
 C228 C -0.06927 0.56484 0.05647
 C229 C -0.06960 0.43643 -0.05832
 C230 C 0.06898 0.43871 -0.06143
 C231 C 0.06965 0.55639 -0.06625
 C232 C 0.06864 0.44231 0.06575
 C233 C -0.06871 0.56140 -0.06344
 C234 C 0.06919 0.56021 0.06161
 O235 O -0.04212 0.42774 -0.06680
 O236 O -0.07749 0.46344 -0.03483
 O237 O -0.04117 0.56820 -0.07332
 O238 O -0.07693 0.53605 -0.03792
 O239 O 0.04172 0.56913 0.06983
 O240 O 0.07702 0.53523 0.03566
 O241 O 0.00056 0.52615 -0.11605
 O242 O 0.00008 0.46235 -0.11182
 O243 O -0.00028 0.53808 0.11028
 O244 O -0.00039 0.47412 0.11439
 O245 O 0.04151 0.43029 -0.07014
 O246 O 0.07688 0.46376 -0.03566
 O247 O -0.04225 0.43287 0.07146
 O248 O -0.07758 0.46555 0.03579
 O249 O 0.04111 0.43538 0.07551
 O250 O 0.07669 0.46583 0.03822
 O251 O 0.04226 0.56371 -0.07641
 O252 O 0.07735 0.53297 -0.03847
 O253 O 0.00165 0.60830 0.05290
 O254 O 0.00166 0.60208 -0.06954
 O255 O 0.00082 0.39204 -0.05496
 O256 O 0.00019 0.39807 0.06800
 O257 O -0.02611 0.45097 0.00204
 O258 O -0.02560 0.54968 -0.00376
 O259 O 0.02491 0.45083 0.00223
 O260 O -0.02770 0.50278 0.05261
 O261 O -0.07730 0.53811 0.03271
 O262 O -0.04176 0.57308 0.06520
 O263 O 0.02722 0.50242 0.05332
 O264 O 0.02755 0.49736 -0.05431
 O265 O 0.02543 0.54904 -0.00336
 O266 O -0.02746 0.49793 -0.05439
 Zr267 Zr -0.00011 0.54915 0.04862
 Zr268 Zr -0.00032 0.45117 -0.05008
 Zr269 Zr -0.05135 0.50055 -0.00097
 Zr270 Zr -0.00050 0.45600 0.05417
 Zr271 Zr 0.00024 0.54418 -0.05565
 Zr272 Zr 0.05095 0.49972 -0.00029
 H273 H 0.03680 0.42735 0.00326
 H274 H -0.04131 0.50370 0.07599
 H275 H 0.03760 0.57228 -0.00416
 H276 H -0.04092 0.49721 -0.07793
 H277 H -0.00418 0.61777 0.02613
 H278 H 0.00259 0.61509 -0.04344
 H279 H 0.00059 0.38507 0.04186
 H280 H -0.00428 0.38246 -0.02798
 C281 C 0.24551 0.74069 0.11915
 C282 C 0.25535 0.76096 0.37981
 C283 C 0.17554 0.80466 0.19125
 C284 C 0.18099 0.68063 0.19781
 C285 C 0.17996 0.81156 0.31008
 C286 C 0.31875 0.81783 0.30401
 C287 C 0.32426 0.69951 0.31074
 C288 C 0.31194 0.81254 0.17560
 C289 C 0.18776 0.68716 0.32141
 C290 C 0.31910 0.69290 0.18468
 O291 O 0.20739 0.82223 0.31603
 O292 O 0.17215 0.78300 0.28866
 O293 O 0.21598 0.68329 0.32859
 O294 O 0.17648 0.70964 0.29469
 O295 O 0.29171 0.68203 0.17888
 O296 O 0.32700 0.71992 0.20813
 O297 O 0.25663 0.72781 0.36437
 O298 O 0.25251 0.79145 0.35935
 O299 O 0.24731 0.71008 0.13961
 O300 O 0.24399 0.77380 0.13464
 O301 O 0.29125 0.82465 0.31423
 O302 O 0.32686 0.79303 0.27803
 O303 O 0.20233 0.81269 0.17954
 O304 O 0.16908 0.77949 0.21802
 O305 O 0.28371 0.81620 0.16847
 O306 O 0.32309 0.79065 0.20304
 O307 O 0.29751 0.69210 0.32311
 O308 O 0.33049 0.72279 0.28194
 O309 O 0.25361 0.64137 0.19891
 O310 O 0.25883 0.65094 0.31882
 O311 O 0.24856 0.86015 0.30036
 O312 O 0.24231 0.85048 0.17940
 O313 O 0.22140 0.79751 0.24777
 O314 O 0.22645 0.69943 0.25565
 O315 O 0.27269 0.80152 0.24355
 O316 O 0.22000 0.74468 0.19871
 O317 O 0.17270 0.70668 0.22236
 O318 O 0.20851 0.67406 0.18749
 O319 O 0.27504 0.74874 0.19370
 O320 O 0.27973 0.75689 0.30051
 O321 O 0.27764 0.70410 0.25110
 O322 O 0.22460 0.75259 0.30476
 Zr323 Zr 0.24982 0.70048 0.20148
 Zr324 Zr 0.24954 0.80089 0.29745
 Zr325 Zr 0.19817 0.74649 0.25383
 Zr326 Zr 0.24515 0.79288 0.19432
 Zr327 Zr 0.25448 0.70859 0.30476
 Zr328 Zr 0.30128 0.75477 0.24500
 H329 H 0.28330 0.82584 0.24099
 H330 H 0.20573 0.74255 0.17614
 H331 H 0.29060 0.68151 0.25181
 H332 H 0.21224 0.75318 0.32935
 H333 H 0.24721 0.63215 0.22553
 H334 H 0.25933 0.63777 0.29279
 H335 H 0.24370 0.86410 0.20510
 H336 H 0.24075 0.86860 0.27412
 C337 C 0.49851 0.50863 0.13056
 C338 C 0.49939 0.49179 -0.13091
 C339 C 0.56900 0.56409 0.05764
 C340 C 0.56866 0.44033 0.06360
 C341 C 0.56968 0.55862 -0.06234
 C342 C 0.43076 0.55696 -0.06675
 C343 C 0.43049 0.43860 -0.06045
 C344 C 0.43056 0.56259 0.05932
 C345 C 0.56879 0.43530 -0.05693
 C346 C 0.42981 0.44427 0.06544
 O347 O 0.54230 0.56620 -0.07266
 O348 O 0.57730 0.53356 -0.03637
 O349 O 0.54133 0.42685 -0.06554
 O350 O 0.57676 0.46192 -0.03300
 O351 O 0.45718 0.43666 0.07564
 O352 O 0.42225 0.46799 0.03797
 O353 O 0.49957 0.46104 -0.11056
 O354 O 0.49983 0.52496 -0.11535
 O355 O 0.49874 0.47543 0.11508
 O356 O 0.49908 0.53936 0.11022
 O357 O 0.45827 0.56425 -0.07656
 O358 O 0.42288 0.53341 -0.03928
 O359 O 0.54153 0.57296 0.06584
 O360 O 0.57688 0.53715 0.03402
 O361 O 0.45802 0.57119 0.06791
 O362 O 0.42275 0.53688 0.03427
 O363 O 0.45793 0.42969 -0.06875
 O364 O 0.42269 0.46439 -0.03546
 O365 O 0.49829 0.39882 0.07041
 O366 O 0.49845 0.39139 -0.05269
 O367 O 0.49969 0.60140 -0.07060
 O368 O 0.49898 0.60892 0.05237
 O369 O 0.52571 0.54937 -0.00341
 O370 O 0.52527 0.45040 0.00358
 O371 O 0.47467 0.54946 -0.00369
 O372 O 0.52687 0.50288 0.05357
 O373 O 0.57663 0.46524 0.03759
 O374 O 0.54113 0.43322 0.07354
 O375 O 0.47210 0.50339 0.05350
 O376 O 0.47243 0.49726 -0.05410
 O377 O 0.47427 0.45116 0.00315
 O378 O 0.52723 0.49696 -0.05327
 Zr379 Zr 0.49938 0.45646 0.05531
 Zr380 Zr 0.50012 0.54376 -0.05548
 Zr381 Zr 0.55076 0.49968 0.00036
 Zr382 Zr 0.49982 0.54971 0.04855
 Zr383 Zr 0.49974 0.45057 -0.04879
 Zr384 Zr 0.44881 0.50049 -0.00045
 H385 H 0.46278 0.57294 -0.00502
 H386 H 0.54030 0.50386 0.07713
 H387 H 0.46219 0.42785 0.00428
 H388 H 0.54080 0.49581 -0.07667
 H389 H 0.49770 0.38534 0.04456
 H390 H 0.50341 0.38217 -0.02551
 H391 H 0.50430 0.61803 0.02527
 H392 H 0.49895 0.61490 -0.04476
 C393 C 0.75153 0.74330 0.11869
 C394 C 0.74998 0.75778 0.38033
 C395 C 0.68180 0.81108 0.18584
 C396 C 0.68077 0.68717 0.19090
 C397 C 0.68079 0.81488 0.30706
 C398 C 0.81918 0.81053 0.31205
 C399 C 0.81857 0.69315 0.31638
 C400 C 0.82006 0.80634 0.18413
 C401 C 0.68024 0.69130 0.31162
 C402 C 0.81928 0.68893 0.18898
 O403 O 0.70827 0.82317 0.31586
 O404 O 0.67285 0.78853 0.28272
 O405 O 0.70763 0.68386 0.32175
 O406 O 0.67247 0.71641 0.28563
 O407 O 0.79182 0.68047 0.18027
 O408 O 0.82713 0.71396 0.21483
 O409 O 0.74959 0.72474 0.36445
 O410 O 0.74987 0.78871 0.36030
 O411 O 0.75078 0.71238 0.13873
 O412 O 0.75133 0.77633 0.13457
 O413 O 0.79171 0.81953 0.32013
 O414 O 0.82708 0.78556 0.28613
 O415 O 0.70936 0.81807 0.17626
 O416 O 0.67350 0.78609 0.21165
 O417 O 0.79271 0.81382 0.17395
 O418 O 0.82767 0.78301 0.21200
 O419 O 0.79103 0.68612 0.32600
 O420 O 0.82672 0.71650 0.28882
 O421 O 0.75103 0.64216 0.19622
 O422 O 0.75001 0.64860 0.31839
 O423 O 0.75163 0.85886 0.30245
 O424 O 0.75206 0.85240 0.18082
 O425 O 0.72455 0.80019 0.24629
 O426 O 0.72397 0.70130 0.25222
 O427 O 0.77572 0.79944 0.24696
 O428 O 0.72301 0.74822 0.19585
 O429 O 0.67284 0.71388 0.21480
 O430 O 0.70826 0.67839 0.18264
 O431 O 0.77784 0.74758 0.19614
 O432 O 0.77721 0.75289 0.30354
 O433 O 0.77512 0.70112 0.25266
 O434 O 0.72241 0.75329 0.30260
 Zr435 Zr 0.75000 0.70135 0.20035
 Zr436 Zr 0.74996 0.79967 0.29871
 Zr437 Zr 0.69888 0.75098 0.24898
 Zr438 Zr 0.75067 0.79451 0.19470
 Zr439 Zr 0.74950 0.70649 0.30436
 Zr440 Zr 0.80111 0.75004 0.25011
 H441 H 0.78793 0.82266 0.24614
 H442 H 0.70968 0.74750 0.17218
 H443 H 0.78701 0.67764 0.25380
 H444 H 0.70880 0.75421 0.32597
 H445 H 0.74454 0.63287 0.22278
 H446 H 0.75101 0.63552 0.29233
 H447 H 0.75324 0.86540 0.20691
 H448 H 0.74472 0.86813 0.27606
 C449 C -0.00477 -0.00976 0.36953
 C450 C 0.00424 0.01121 0.63085
 C451 C -0.07460 0.05538 0.44111
 C452 C -0.06960 -0.06903 0.44853
 C453 C -0.07033 0.06202 0.56042
 C454 C 0.06841 0.06728 0.55514
 C455 C 0.07350 -0.04979 0.56247
 C456 C 0.06205 0.05988 0.42535
 C457 C -0.06316 -0.06203 0.57168
 C458 C 0.06854 -0.05788 0.43585
 O459 O -0.04289 0.07252 0.56659
 O460 O -0.07822 0.03372 0.53869
 O461 O -0.03501 -0.06616 0.57909
 O462 O -0.07425 -0.03951 0.54488
 O463 O 0.04112 -0.06849 0.42983
 O464 O 0.07646 -0.03101 0.45952
 O465 O 0.00545 -0.02198 0.61542
 O466 O 0.00173 0.04169 0.61018
 O467 O -0.00301 -0.04026 0.39024
 O468 O -0.00636 0.02344 0.38484
 O469 O 0.04094 0.07429 0.56529
 O470 O 0.07640 0.04266 0.52888
 O471 O -0.04775 0.06309 0.42927
 O472 O -0.08110 0.03033 0.46804
 O473 O 0.03392 0.06416 0.41794
 O474 O 0.07292 0.03904 0.45375
 O475 O 0.04672 -0.05740 0.57461
 O476 O 0.07977 -0.02702 0.53332
 O477 O 0.00280 -0.10882 0.44987
 O478 O 0.00795 -0.09883 0.56989
 O479 O -0.00142 0.11038 0.55037
 O480 O -0.00700 0.10047 0.42986
 O481 O -0.02880 0.04782 0.49802
 O482 O -0.02421 -0.05024 0.50635
 O483 O 0.02244 0.05136 0.49402
 O484 O -0.03038 -0.00526 0.44906
 O485 O -0.07787 -0.04272 0.47275
 O486 O -0.04209 -0.07589 0.43844
 O487 O 0.02463 -0.00164 0.44453
 O488 O 0.02912 0.00689 0.55137
 O489 O 0.02696 -0.04618 0.50213
 O490 O -0.02599 0.00300 0.55520
 Zr491 Zr -0.00073 -0.04968 0.45227
 Zr492 Zr -0.00082 0.05108 0.54799
 Zr493 Zr -0.05228 -0.00297 0.50407
 Zr494 Zr -0.00504 0.04276 0.44456
 Zr495 Zr 0.00370 -0.04121 0.55567
 Zr496 Zr 0.05070 0.00434 0.49596
 H497 H 0.03333 0.07547 0.49125
 H498 H -0.04463 -0.00737 0.42647
 H499 H 0.03990 -0.06878 0.50309
 H500 H -0.03843 0.00370 0.57970
 H501 H -0.00350 -0.11792 0.47659
 H502 H 0.00824 -0.11208 0.54391
 H503 H -0.00541 0.11395 0.45562
 H504 H -0.00995 0.11868 0.52449
 C505 C 0.24946 0.25521 0.88237
 C506 C 0.25124 0.24292 0.61989
 C507 C 0.18005 0.18872 0.81247
 C508 C 0.18050 0.31344 0.80790
 C509 C 0.18056 0.18613 0.69188
 C510 C 0.31907 0.18774 0.69042
 C511 C 0.31969 0.30652 0.68640
 C512 C 0.31851 0.19033 0.81701
 C513 C 0.18132 0.31060 0.68831
 C514 C 0.31901 0.30951 0.81281
 O515 O 0.20806 0.17748 0.68350
 O516 O 0.17259 0.21258 0.71604
 O517 O 0.20888 0.31749 0.67862
 O518 O 0.17307 0.28512 0.71369
 O519 O 0.29152 0.31829 0.82111
 O520 O 0.32690 0.28405 0.78749
 O521 O 0.25098 0.27586 0.63604
 O522 O 0.25059 0.21189 0.63980
 O523 O 0.24938 0.28619 0.86237
 O524 O 0.24930 0.22224 0.86624
 O525 O 0.29161 0.17936 0.68161
 O526 O 0.32694 0.21288 0.71610
 O527 O 0.20746 0.18137 0.82264
 O528 O 0.17228 0.21423 0.78686
 O529 O 0.29096 0.18342 0.82676
 O530 O 0.32658 0.21430 0.78989
 O531 O 0.29229 0.31378 0.67623
 O532 O 0.32737 0.28253 0.71372
 O533 O 0.25114 0.35672 0.80636
 O534 O 0.25155 0.35153 0.68310
 O535 O 0.25068 0.14125 0.69644
 O536 O 0.24990 0.14654 0.81924
 O537 O 0.22386 0.19980 0.75340
 O538 O 0.22433 0.29858 0.74825
 O539 O 0.27483 0.19978 0.75379
 O540 O 0.22210 0.25130 0.80429
 O541 O 0.17253 0.28668 0.78418
 O542 O 0.20798 0.32169 0.81677
 O543 O 0.27713 0.25099 0.80529
 O544 O 0.27764 0.24665 0.69749
 O545 O 0.27531 0.29793 0.74884
 O546 O 0.22267 0.24720 0.69725
 Zr547 Zr 0.24970 0.29767 0.80074
 Zr548 Zr 0.24977 0.20038 0.70139
 Zr549 Zr 0.19862 0.24939 0.75051
 Zr550 Zr 0.24935 0.20455 0.80576
 Zr551 Zr 0.25031 0.29352 0.69645
 Zr552 Zr 0.30093 0.24865 0.75158
 H553 H 0.28668 0.17626 0.75466
 H554 H 0.20843 0.25214 0.82761
 H555 H 0.28736 0.32127 0.74816
 H556 H 0.20932 0.24670 0.67360
 H557 H 0.24699 0.36665 0.77922
 H558 H 0.25169 0.36435 0.70934
 H559 H 0.25055 0.13368 0.79304
 H560 H 0.24491 0.13167 0.72318
 C561 C 0.49971 -0.00786 0.36943
 C562 C 0.49824 0.00733 0.63105
 C563 C 0.56889 -0.06464 0.44282
 C564 C 0.56954 0.05883 0.43800
 C565 C 0.56795 -0.06046 0.56342
 C566 C 0.42976 -0.05605 0.56519
 C567 C 0.43047 0.06202 0.55995
 C568 C 0.43046 -0.06052 0.43844
 C569 C 0.56891 0.06335 0.55855
 C570 C 0.43133 0.05762 0.43354
 O571 O 0.54043 -0.06744 0.57313
 O572 O 0.57626 -0.03542 0.53776
 O573 O 0.54143 0.07218 0.56676
 O574 O 0.57685 0.03662 0.53470
 O575 O 0.45884 0.06451 0.42381
 O576 O 0.42313 0.03405 0.46086
 O577 O 0.49891 0.03824 0.61095
 O578 O 0.49846 -0.02570 0.61518
 O579 O 0.50013 0.02524 0.38515
 O580 O 0.49975 -0.03870 0.38956
 O581 O 0.45708 -0.06347 0.57547
 O582 O 0.42213 -0.03244 0.53762
 O583 O 0.54141 -0.07299 0.43409
 O584 O 0.57683 -0.03818 0.46702
 O585 O 0.45792 -0.06952 0.43025
 O586 O 0.42263 -0.03519 0.46395
 O587 O 0.45792 0.07043 0.56876
 O588 O 0.42263 0.03669 0.53447
 O589 O 0.49992 0.10156 0.43065
 O590 O 0.49889 0.10836 0.55355
 O591 O 0.49778 -0.10168 0.56946
 O592 O 0.49818 -0.10858 0.44744
 O593 O 0.52516 -0.04974 0.50350
 O594 O 0.52575 0.04916 0.49731
 O595 O 0.47405 -0.04895 0.50285
 O596 O 0.52732 -0.00304 0.44702
 O597 O 0.57727 0.03377 0.46400
 O598 O 0.54218 0.06631 0.42781
 O599 O 0.47251 -0.00259 0.44606
 O600 O 0.47187 0.00301 0.55361
 O601 O 0.47473 0.04932 0.49687
 O602 O 0.52674 0.00235 0.55383
 Zr603 Zr 0.50029 0.04377 0.44515
 Zr604 Zr 0.49908 -0.04388 0.55507
 Zr605 Zr 0.55078 -0.00053 0.50063
 Zr606 Zr 0.49974 -0.04939 0.45113
 Zr607 Zr 0.49974 0.04918 0.54924
 Zr608 Zr 0.44870 0.00047 0.49955
 H609 H 0.46191 -0.07221 0.50375
 H610 H 0.54093 -0.00404 0.42365
 H611 H 0.46292 0.07286 0.49567
 H612 H 0.54008 0.00310 0.57749
 H613 H 0.49933 0.11483 0.45663
 H614 H 0.50443 0.11768 0.52662
 H615 H 0.50457 -0.11779 0.47408
 H616 H 0.49668 -0.11489 0.54348
 C617 C 0.74946 0.25808 0.88164
 C618 C 0.75016 0.24099 0.62019
 C619 C 0.67916 0.19087 0.81363
 C620 C 0.67996 0.31429 0.80779
 C621 C 0.67997 0.18549 0.69324
 C622 C 0.81828 0.18775 0.69090
 C623 C 0.81909 0.30522 0.68496
 C624 C 0.81827 0.19388 0.81778
 C625 C 0.68020 0.30916 0.68732
 C626 C 0.81826 0.31102 0.81165
 O627 O 0.70745 0.17671 0.68502
 O628 O 0.67201 0.21233 0.71693
 O629 O 0.70770 0.31632 0.67737
 O630 O 0.67220 0.28426 0.71332
 O631 O 0.79081 0.31991 0.81998
 O632 O 0.82604 0.28556 0.78626
 O633 O 0.74996 0.27421 0.63564
 O634 O 0.74960 0.21029 0.64059
 O635 O 0.74920 0.28883 0.86129
 O636 O 0.74905 0.22489 0.86613
 O637 O 0.79085 0.17903 0.68241
 O638 O 0.82607 0.21318 0.71631
 O639 O 0.70661 0.18338 0.82383
 O640 O 0.67153 0.21588 0.78754
 O641 O 0.79081 0.18634 0.82766
 O642 O 0.82601 0.21704 0.78995
 O643 O 0.79170 0.31275 0.67469
 O644 O 0.82657 0.28191 0.71283
 O645 O 0.75033 0.35845 0.80313
 O646 O 0.75053 0.35089 0.68036
 O647 O 0.75022 0.14080 0.69880
 O648 O 0.74953 0.14833 0.82133
 O649 O 0.72317 0.20025 0.75430
 O650 O 0.72352 0.29919 0.74719
 O651 O 0.77427 0.20037 0.75452
 O652 O 0.72162 0.25276 0.80414
 O653 O 0.67200 0.28762 0.78392
 O654 O 0.70741 0.32283 0.81634
 O655 O 0.77634 0.25260 0.80477
 O656 O 0.77672 0.24639 0.69726
 O657 O 0.77454 0.29878 0.74758
 O658 O 0.72197 0.24677 0.69736
 Zr659 Zr 0.74903 0.29924 0.79954
 Zr660 Zr 0.74907 0.20002 0.70232
 Zr661 Zr 0.69804 0.24986 0.75060
 Zr662 Zr 0.74877 0.20600 0.80633
 Zr663 Zr 0.74945 0.29324 0.69544
 Zr664 Zr 0.79997 0.24948 0.75115
 H665 H 0.78629 0.17700 0.75585
 H666 H 0.70804 0.25387 0.82754
 H667 H 0.78665 0.32206 0.74641
 H668 H 0.70854 0.24575 0.67381
 H669 H 0.74481 0.36755 0.77610
 H670 H 0.75132 0.36435 0.70621
 H671 H 0.75051 0.13489 0.79548
 H672 H 0.74426 0.13175 0.72568
 C673 C -0.00200 0.49104 0.36938
 C674 C 0.00169 0.50889 0.63127
 C675 C -0.07164 0.55765 0.43880
 C676 C -0.06933 0.43319 0.44566
 C677 C -0.06972 0.56372 0.55793
 C678 C 0.06892 0.56390 0.55823
 C679 C 0.07095 0.44598 0.56490
 C680 C 0.06554 0.55717 0.42835
 C681 C -0.06792 0.43925 0.56502
 C682 C 0.06905 0.43982 0.43790
 O683 O -0.04225 0.57293 0.56572
 O684 O -0.07761 0.53618 0.53518
 O685 O -0.04018 0.43244 0.57434
 O686 O -0.07643 0.46433 0.53955
 O687 O 0.04157 0.43028 0.43053
 O688 O 0.07694 0.46585 0.46261
 O689 O 0.00177 0.47568 0.61573
 O690 O 0.00074 0.53956 0.61071
 O691 O -0.00124 0.46034 0.38984
 O692 O -0.00301 0.52420 0.38490
 O693 O 0.04143 0.57173 0.56748
 O694 O 0.07689 0.53890 0.53238
 O695 O -0.04445 0.56509 0.42801
 O696 O -0.07894 0.53252 0.46500
 O697 O 0.03771 0.56281 0.42012
 O698 O 0.07525 0.53582 0.45714
 O699 O 0.04372 0.43847 0.57569
 O700 O 0.07817 0.46927 0.53667
 O701 O 0.00208 0.39102 0.44848
 O702 O 0.00353 0.39928 0.57068
 O703 O 0.00029 0.60903 0.55275
 O704 O -0.00229 0.60088 0.43056
 O705 O -0.02708 0.54878 0.49735
 O706 O -0.02525 0.45008 0.50460
 O707 O 0.02404 0.54989 0.49562
 O708 O -0.02875 0.49584 0.44750
 O709 O -0.07741 0.46011 0.46920
 O710 O -0.04183 0.42526 0.43655
 O711 O 0.02619 0.49741 0.44563
 O712 O 0.02805 0.50417 0.55281
 O713 O 0.02591 0.45200 0.50301
 O714 O -0.02699 0.50272 0.55433
 Zr715 Zr -0.00031 0.45020 0.45174
 Zr716 Zr -0.00038 0.54983 0.54869
 Zr717 Zr -0.05154 0.49882 0.50153
 Zr718 Zr -0.00239 0.54303 0.44479
 Zr719 Zr 0.00115 0.45689 0.55571
 Zr720 Zr 0.05099 0.50176 0.49826
 H721 H 0.03561 0.57356 0.49353
 H722 H -0.04265 0.49434 0.42447
 H723 H 0.03833 0.42895 0.50402
 H724 H -0.04020 0.50361 0.57812
 H725 H -0.00320 0.38189 0.47558
 H726 H 0.00430 0.38585 0.54481
 H727 H -0.00242 0.61408 0.45658
 H728 H -0.00558 0.61826 0.52591
 C729 C 0.24921 0.75781 0.88051
 C730 C 0.25115 0.74468 0.61856
 C731 C 0.17984 0.69130 0.81079
 C732 C 0.18023 0.81580 0.80694
 C733 C 0.18013 0.68828 0.69090
 C734 C 0.31865 0.68943 0.68906
 C735 C 0.31952 0.80768 0.68477
 C736 C 0.31846 0.69355 0.81549
 C737 C 0.18167 0.81347 0.68651
 C738 C 0.31893 0.81151 0.81126
 O739 O 0.20761 0.67946 0.68268
 O740 O 0.17219 0.71516 0.71457
 O741 O 0.20923 0.81982 0.67670
 O742 O 0.17314 0.78819 0.71200
 O743 O 0.29148 0.82040 0.81974
 O744 O 0.32666 0.78625 0.78562
 O745 O 0.25097 0.77765 0.63459
 O746 O 0.25024 0.71370 0.63849
 O747 O 0.24927 0.78883 0.86063
 O748 O 0.24893 0.72486 0.86444
 O749 O 0.29117 0.68109 0.68029
 O750 O 0.32651 0.71468 0.71465
 O751 O 0.20725 0.68389 0.82086
 O752 O 0.17200 0.71689 0.78531
 O753 O 0.29093 0.68631 0.82521
 O754 O 0.32641 0.71729 0.78826
 O755 O 0.29221 0.81519 0.67458
 O756 O 0.32714 0.78388 0.71215
 O757 O 0.25112 0.85935 0.80392
 O758 O 0.25174 0.85346 0.68117
 O759 O 0.25012 0.64328 0.69529
 O760 O 0.24969 0.64914 0.81821
 O761 O 0.22350 0.70230 0.75200
 O762 O 0.22417 0.80104 0.74656
 O763 O 0.27455 0.70187 0.75235
 O764 O 0.22192 0.75386 0.80261
 O765 O 0.17230 0.78920 0.78295
 O766 O 0.20775 0.82413 0.81565
 O767 O 0.27683 0.75344 0.80364
 O768 O 0.27735 0.74857 0.69594
 O769 O 0.27517 0.80019 0.74719
 O770 O 0.22240 0.74937 0.69571
 Zr771 Zr 0.24951 0.80024 0.79905
 Zr772 Zr 0.24940 0.70242 0.70005
 Zr773 Zr 0.19832 0.75199 0.74892
 Zr774 Zr 0.24911 0.70703 0.80418
 Zr775 Zr 0.25021 0.79552 0.69487
 Zr776 Zr 0.30054 0.75077 0.74997
 H777 H 0.28640 0.67836 0.75337
 H778 H 0.20826 0.75469 0.82594
 H779 H 0.28732 0.82345 0.74641
 H780 H 0.20904 0.74887 0.67206
 H781 H 0.24582 0.86900 0.77704
 H782 H 0.25244 0.86641 0.70732
 H783 H 0.25054 0.63606 0.79214
 H784 H 0.24477 0.63380 0.72223
 C785 C 0.49932 0.49293 0.36887
 C786 C 0.49829 0.50796 0.63036
 C787 C 0.56895 0.43613 0.44212
 C788 C 0.56942 0.55975 0.43708
 C789 C 0.56846 0.44052 0.56268
 C790 C 0.42978 0.44368 0.56465
 C791 C 0.43023 0.56251 0.55956
 C792 C 0.43046 0.43985 0.43792
 C793 C 0.56875 0.56399 0.55824
 C794 C 0.43150 0.55937 0.43283
 O795 O 0.54091 0.43334 0.57244
 O796 O 0.57655 0.46561 0.53694
 O797 O 0.54125 0.57271 0.56650
 O798 O 0.57674 0.53749 0.53412
 O799 O 0.45906 0.56580 0.42313
 O800 O 0.42311 0.53561 0.46007
 O801 O 0.49879 0.53884 0.61025
 O802 O 0.49859 0.47490 0.61454
 O803 O 0.49971 0.52601 0.38461
 O804 O 0.49962 0.46208 0.38897
 O805 O 0.45720 0.43651 0.57486
 O806 O 0.42205 0.46747 0.53714
 O807 O 0.54146 0.42775 0.43342
 O808 O 0.57686 0.46268 0.46623
 O809 O 0.45796 0.43087 0.42992
 O810 O 0.42251 0.46543 0.46310
 O811 O 0.45771 0.57093 0.56828
 O812 O 0.42236 0.53715 0.53410
 O813 O 0.49999 0.60239 0.43047
 O814 O 0.49863 0.60894 0.55283
 O815 O 0.49814 0.39880 0.56870
 O816 O 0.49833 0.39217 0.44666
 O817 O 0.52525 0.45099 0.50282
 O818 O 0.52567 0.54992 0.49674
 O819 O 0.47406 0.45178 0.50223
 O820 O 0.52729 0.49775 0.44633
 O821 O 0.57720 0.53479 0.46320
 O822 O 0.54203 0.56705 0.42690
 O823 O 0.47240 0.49811 0.44549
 O824 O 0.47179 0.50348 0.55295
 O825 O 0.47457 0.54989 0.49631
 O826 O 0.52671 0.50299 0.55311
 Zr827 Zr 0.50020 0.54451 0.44460
 Zr828 Zr 0.49919 0.45663 0.55444
 Zr829 Zr 0.55081 0.50030 0.49990
 Zr830 Zr 0.49975 0.45136 0.45051
 Zr831 Zr 0.49959 0.54976 0.54863
 Zr832 Zr 0.44842 0.50109 0.49892
 H833 H 0.46200 0.42845 0.50309
 H834 H 0.54085 0.49677 0.42291
 H835 H 0.46280 0.57346 0.49522
 H836 H 0.54006 0.50374 0.57676
 H837 H 0.49935 0.61552 0.45652
 H838 H 0.50489 0.61825 0.52618
 H839 H 0.50461 0.38292 0.47333
 H840 H 0.49715 0.38565 0.54268
 C841 C 0.75225 0.75967 0.87996
 C842 C 0.74745 0.74137 0.61879
 C843 C 0.68214 0.68999 0.81478
 C844 C 0.68009 0.81344 0.80879
 C845 C 0.68021 0.68407 0.69452
 C846 C 0.81855 0.69051 0.68694
 C847 C 0.81482 0.80759 0.67712
 C848 C 0.82087 0.69677 0.81367
 C849 C 0.67776 0.80729 0.68814
 C850 C 0.81876 0.81454 0.80685
 O851 O 0.70768 0.67606 0.68536
 O852 O 0.67222 0.71063 0.71861
 O853 O 0.70487 0.81488 0.67718
 O854 O 0.67058 0.78259 0.71477
 O855 O 0.79130 0.82241 0.81631
 O856 O 0.82661 0.78956 0.78096
 O857 O 0.74640 0.77454 0.63426
 O858 O 0.74830 0.71067 0.63921
 O859 O 0.75111 0.79036 0.85952
 O860 O 0.75218 0.72646 0.86451
 O861 O 0.79109 0.68087 0.67965
 O862 O 0.82647 0.71658 0.71154
 O863 O 0.70990 0.68331 0.82406
 O864 O 0.67350 0.71478 0.78913
 O865 O 0.79370 0.68915 0.82456
 O866 O 0.82797 0.72008 0.78542
 O867 O 0.78698 0.81325 0.66898
 O868 O 0.82463 0.78631 0.70586
 O869 O 0.74987 0.85978 0.80103
 O870 O 0.74684 0.85131 0.67972
 O871 O 0.75156 0.64142 0.69820
 O872 O 0.75347 0.64989 0.81983
 O873 O 0.72444 0.70048 0.75397
 O874 O 0.72243 0.79935 0.74664
 O875 O 0.77568 0.70253 0.75204
 O876 O 0.72298 0.75326 0.80358
 O877 O 0.67220 0.78626 0.78550
 O878 O 0.70759 0.82298 0.81605
 O879 O 0.77785 0.75486 0.80173
 O880 O 0.77563 0.74790 0.69472
 O881 O 0.77367 0.80052 0.74458
 O882 O 0.72082 0.74626 0.69698
 Zr883 Zr 0.74940 0.80053 0.79770
 Zr884 Zr 0.74924 0.70063 0.70103
 Zr885 Zr 0.69817 0.74925 0.75109
 Zr886 Zr 0.75110 0.70747 0.80476
 Zr887 Zr 0.74705 0.79348 0.69403
 Zr888 Zr 0.80058 0.75238 0.74715
 H889 H 0.78812 0.67949 0.75304
 H890 H 0.70995 0.75402 0.82754
 H891 H 0.78520 0.82421 0.74238
 H892 H 0.70692 0.74475 0.67396
 H893 H 0.74226 0.86868 0.77485
 H894 H 0.74752 0.86455 0.70571
 H895 H 0.75447 0.63642 0.79399
 H896 H 0.74546 0.63244 0.72505
 C897 C 0.00167 0.04396 0.19290
 C898 C -0.00042 0.00844 0.17451
 C899 C -0.00305 -0.02377 0.19891
 C900 C -0.00373 -0.02045 0.24088
 C901 C -0.00172 0.01544 0.25878
 C902 C 0.00103 0.04741 0.23451
 C903 C -0.00239 0.01884 0.30066
 C904 C -0.00492 -0.01325 0.32519
 C905 C -0.00693 -0.04885 0.30699
 C906 C -0.00639 -0.05240 0.26530
 H907 H -0.00471 -0.05135 0.18535
 H908 H 0.00268 0.07515 0.24769
 H909 H -0.00064 0.04647 0.31409
 H910 H -0.00798 -0.08017 0.25219
 H911 H 0.00380 0.06934 0.17513
 H912 H -0.00892 -0.07412 0.32497
 C913 C 0.24920 0.20068 1.05951
 C914 C 0.24869 0.23643 1.07808
 C915 C 0.24840 0.26864 1.05310
 C916 C 0.24869 0.26520 1.01118
 C917 C 0.24920 0.22924 0.99335
 C918 C 0.24942 0.19721 1.01782
 C919 C 0.24949 0.22589 0.95135
 C920 C 0.24930 0.25818 0.92682
 C921 C 0.24884 0.29383 0.94514
 C922 C 0.24852 0.29729 0.98676
 H923 H 0.24803 0.29659 1.06602
 H924 H 0.24981 0.16936 1.00473
 H925 H 0.24986 0.19820 0.93789
 H926 H 0.24815 0.32514 0.99985
 H927 H 0.24944 0.17500 1.07706
 H928 H 0.24867 0.31931 0.92729
 C929 C 0.12386 0.07525 0.07101
 C930 C 0.09386 0.07916 0.08336
 C931 C 0.08738 0.10192 0.11668
 C932 C 0.11046 0.12064 0.13713
 C933 C 0.14045 0.11666 0.12417
 C934 C 0.14690 0.09383 0.09117
 C935 C 0.16347 0.13592 0.14408
 C936 C 0.15696 0.15952 0.17670
 C937 C 0.12706 0.16282 0.18967
 C938 C 0.10406 0.14351 0.17015
 H939 H 0.06443 0.10506 0.12680
 H940 H 0.16976 0.09047 0.08080
 H941 H 0.18635 0.13315 0.13354
 H942 H 0.08123 0.14678 0.18063
 H943 H 0.12961 0.05799 0.04547
 H944 H 0.12134 0.18062 0.21480
 C945 C 0.37149 0.31586 0.16341
 C946 C 0.34143 0.32737 0.15932
 C947 C 0.33494 0.35991 0.13689
 C948 C 0.35821 0.38108 0.11964
 C949 C 0.38830 0.36942 0.12455
 C950 C 0.39465 0.33663 0.14619
 C951 C 0.41160 0.39064 0.10766
 C952 C 0.40531 0.42333 0.08545
 C953 C 0.37528 0.43474 0.08080
 C954 C 0.35198 0.41388 0.09782
 H955 H 0.31193 0.36925 0.13363
 H956 H 0.41757 0.32717 0.15008
 H957 H 0.43457 0.38125 0.11125
 H958 H 0.32908 0.42333 0.09377
 H959 H 0.37724 0.29083 0.18032
 H960 H 0.36974 0.45981 0.06384
 C961 C 0.37409 0.17667 0.17522
 C962 C 0.34388 0.16751 0.16781
 C963 C 0.33733 0.13814 0.14106
 C964 C 0.36052 0.11822 0.12216
 C965 C 0.39072 0.12770 0.12994
 C966 C 0.39724 0.15698 0.15650
 C967 C 0.41391 0.10781 0.11099
 C968 C 0.40736 0.07848 0.08419
 C969 C 0.37715 0.06930 0.07681
 C970 C 0.35400 0.08895 0.09558
 H971 H 0.31423 0.13066 0.13494
 H972 H 0.42025 0.16466 0.16283
 H973 H 0.43701 0.11532 0.11708
 H974 H 0.33099 0.08128 0.08924
 H975 H 0.37995 0.19910 0.19563
 H976 H 0.37129 0.04693 0.05632
 C977 C 0.12427 0.32261 0.17981
 C978 C 0.15449 0.32871 0.16960
 C979 C 0.16139 0.35683 0.14126
 C980 C 0.13863 0.37836 0.12339
 C981 C 0.10839 0.37187 0.13375
 C982 C 0.10146 0.34395 0.16205
 C983 C 0.08561 0.39322 0.11546
 C984 C 0.09267 0.42096 0.08671
 C985 C 0.12296 0.42727 0.07704
 C986 C 0.14567 0.40624 0.09519
 H987 H 0.18451 0.36213 0.13302
 H988 H 0.07840 0.33858 0.17043
 H989 H 0.06243 0.38788 0.12331
 H990 H 0.16877 0.41162 0.08694
 H991 H 0.11820 0.30135 0.20162
 H992 H 0.12921 0.44833 0.05509
 C993 C 0.37660 0.18196 0.32556
 C994 C 0.34634 0.17439 0.33415
 C995 C 0.33925 0.14495 0.36072
 C996 C 0.36188 0.12306 0.37802
 C997 C 0.39220 0.13075 0.36911
 C998 C 0.39935 0.16037 0.34298
 C999 C 0.41483 0.10878 0.38659
 C1000 C 0.40750 0.07930 0.41307
 C1001 C 0.37717 0.07180 0.42134
 C1002 C 0.35459 0.09346 0.40396
 H1003 H 0.31605 0.13852 0.36755
 H1004 H 0.42250 0.16669 0.33584
 H1005 H 0.43808 0.11505 0.37999
 H1006 H 0.33141 0.08717 0.41100
 H1007 H 0.38273 0.20439 0.30515
 H1008 H 0.37080 0.04934 0.44158
 C1009 C 0.12626 0.32886 0.31672
 C1010 C 0.15640 0.33463 0.32756
 C1011 C 0.16304 0.36088 0.35775
 C1012 C 0.13997 0.38057 0.37718
 C1013 C 0.10980 0.37425 0.36624
 C1014 C 0.10322 0.34850 0.33581
 C1015 C 0.08671 0.39363 0.38603
 C1016 C 0.09335 0.41936 0.41674
 C1017 C 0.12354 0.42548 0.42715
 C1018 C 0.14658 0.40629 0.40761
 H1019 H 0.18611 0.36564 0.36660
 H1020 H 0.08023 0.34336 0.32692
 H1021 H 0.06362 0.38864 0.37746
 H1022 H 0.16958 0.41149 0.41641
 H1023 H 0.12039 0.30903 0.29346
 H1024 H 0.12944 0.44502 0.45067
 C1025 C 0.17242 0.15694 0.38326
 C1026 C 0.16377 0.16707 0.34413
 C1027 C 0.13648 0.15377 0.32889
 C1028 C 0.11851 0.12962 0.35217
 C1029 C 0.12778 0.11916 0.39123
 C1030 C 0.15462 0.13333 0.40658
 C1031 C 0.10997 0.09500 0.41451
 C1032 C 0.08264 0.08164 0.39956
 C1033 C 0.07371 0.09189 0.36058
 C1034 C 0.09153 0.11548 0.33704
 H1035 H 0.12976 0.16118 0.29868
 H1036 H 0.16200 0.12589 0.43648
 H1037 H 0.11686 0.08764 0.44467
 H1038 H 0.08405 0.12296 0.30719
 H1039 H 0.19329 0.16707 0.39583
 H1040 H 0.05270 0.08185 0.34835
 C1041 C 0.37370 0.32976 0.31601
 C1042 C 0.34357 0.33512 0.32717
 C1043 C 0.33686 0.36063 0.35801
 C1044 C 0.35983 0.38026 0.37755
 C1045 C 0.38999 0.37451 0.36617
 C1046 C 0.39666 0.34929 0.33528
 C1047 C 0.41298 0.39397 0.38591
 C1048 C 0.40625 0.41924 0.41698
 C1049 C 0.37610 0.42477 0.42793
 C1050 C 0.35314 0.40546 0.40844
 H1051 H 0.31380 0.36504 0.36712
 H1052 H 0.41965 0.34456 0.32611
 H1053 H 0.43606 0.38946 0.37696
 H1054 H 0.33015 0.41020 0.41759
 H1055 H 0.37962 0.31038 0.29234
 H1056 H 0.37016 0.44396 0.45177
 C1057 C 0.50592 0.04630 0.19340
 C1058 C 0.50343 0.01075 0.17524
 C1059 C 0.50067 -0.02138 0.19954
 C1060 C 0.50026 -0.01806 0.24132
 C1061 C 0.50275 0.01780 0.25921
 C1062 C 0.50561 0.04978 0.23497
 C1063 C 0.50238 0.02111 0.30101
 C1064 C 0.49962 -0.01104 0.32529
 C1065 C 0.49705 -0.04658 0.30708
 C1066 C 0.49737 -0.05004 0.26552
 H1067 H 0.49860 -0.04895 0.18603
 H1068 H 0.50758 0.07749 0.24815
 H1069 H 0.50442 0.04867 0.31453
 H1070 H 0.49537 -0.07774 0.25233
 H1071 H 0.50816 0.07158 0.17549
 H1072 H 0.49480 -0.07189 0.32495
 C1073 C 0.75307 0.20314 1.05756
 C1074 C 0.75194 0.23872 1.07593
 C1075 C 0.75087 0.27112 1.05173
 C1076 C 0.75071 0.26802 1.00989
 C1077 C 0.75169 0.23211 0.99187
 C1078 C 0.75296 0.19988 1.01596
 C1079 C 0.75131 0.22897 0.95005
 C1080 C 0.74995 0.26131 0.92581
 C1081 C 0.74909 0.29693 0.94413
 C1082 C 0.74945 0.30023 0.98574
 H1083 H 0.74999 0.29874 1.06535
 H1084 H 0.75378 0.17213 1.00267
 H1085 H 0.75207 0.20132 0.93648
 H1086 H 0.74870 0.32799 0.99902
 H1087 H 0.75398 0.17763 1.07531
 H1088 H 0.74805 0.32239 0.92632
 C1089 C 0.62394 0.08486 0.06192
 C1090 C 0.59413 0.08720 0.07543
 C1091 C 0.58766 0.10902 0.10944
 C1092 C 0.61065 0.12766 0.13005
 C1093 C 0.64054 0.12480 0.11639
 C1094 C 0.64691 0.10356 0.08214
 C1095 C 0.66355 0.14324 0.13717
 C1096 C 0.65710 0.16480 0.17138
 C1097 C 0.62726 0.16736 0.18470
 C1098 C 0.60427 0.14889 0.16430
 H1099 H 0.56486 0.11088 0.12046
 H1100 H 0.66968 0.10117 0.07116
 H1101 H 0.68639 0.14123 0.12630
 H1102 H 0.58149 0.15131 0.17525
 H1103 H 0.62959 0.06836 0.03578
 H1104 H 0.62163 0.18368 0.21097
 C1105 C -0.12530 0.32008 0.17453
 C1106 C -0.15555 0.32617 0.16444
 C1107 C -0.16251 0.35342 0.13516
 C1108 C -0.13974 0.37457 0.11677
 C1109 C -0.10951 0.36839 0.12750
 C1110 C -0.10253 0.34094 0.15623
 C1111 C -0.08677 0.38987 0.10947
 C1112 C -0.09378 0.41761 0.08074
 C1113 C -0.12400 0.42332 0.07023
 C1114 C -0.14672 0.40203 0.08805
 H1115 H -0.18565 0.35859 0.12695
 H1116 H -0.07946 0.33577 0.16480
 H1117 H -0.06364 0.38495 0.11794
 H1118 H -0.16979 0.40712 0.07941
 H1119 H -0.11915 0.29938 0.19693
 H1120 H -0.13018 0.44426 0.04811
 C1121 C 0.87696 0.08165 0.06369
 C1122 C 0.90695 0.08563 0.07605
 C1123 C 0.91349 0.10971 0.10826
 C1124 C 0.89046 0.12898 0.12819
 C1125 C 0.86041 0.12446 0.11573
 C1126 C 0.85394 0.10092 0.08327
 C1127 C 0.83735 0.14343 0.13600
 C1128 C 0.84389 0.16698 0.16867
 C1129 C 0.87395 0.17130 0.18063
 C1130 C 0.89697 0.15248 0.16064
 H1131 H 0.93644 0.11302 0.11833
 H1132 H 0.83105 0.09720 0.07319
 H1133 H 0.81436 0.13992 0.12619
 H1134 H 0.91987 0.15625 0.17064
 H1135 H 0.87120 0.06348 0.03889
 H1136 H 0.87976 0.18916 0.20565
 C1137 C 0.62717 0.32632 0.18087
 C1138 C 0.65709 0.33113 0.16836
 C1139 C 0.66332 0.35694 0.13749
 C1140 C 0.64005 0.37748 0.11937
 C1141 C 0.61012 0.37232 0.13221
 C1142 C 0.60396 0.34669 0.16301
 C1143 C 0.58685 0.39283 0.11407
 C1144 C 0.59306 0.41861 0.08316
 C1145 C 0.62299 0.42345 0.07069
 C1146 C 0.64620 0.40312 0.08858
 H1147 H 0.68619 0.36101 0.12745
 H1148 H 0.58119 0.34237 0.17331
 H1149 H 0.56397 0.38873 0.12410
 H1150 H 0.66897 0.40744 0.07828
 H1151 H 0.62156 0.30682 0.20467
 H1152 H 0.62859 0.44293 0.04687
 C1153 C -0.12898 0.17564 0.32776
 C1154 C -0.15956 0.17054 0.33736
 C1155 C -0.16693 0.14335 0.36699
 C1156 C -0.14454 0.12155 0.38561
 C1157 C -0.11429 0.12695 0.37495
 C1158 C -0.10675 0.15415 0.34628
 C1159 C -0.09192 0.10506 0.39302
 C1160 C -0.09908 0.07755 0.42201
 C1161 C -0.12931 0.07245 0.43261
 C1162 C -0.15183 0.09423 0.41455
 H1163 H -0.19010 0.13859 0.37543
 H1164 H -0.08355 0.15867 0.33791
 H1165 H -0.06879 0.10968 0.38437
 H1166 H -0.17495 0.08969 0.42321
 H1167 H -0.12197 0.19605 0.30550
 H1168 H -0.13555 0.05172 0.45491
 C1169 C 0.62710 0.33178 0.31533
 C1170 C 0.65695 0.33494 0.32857
 C1171 C 0.66320 0.35767 0.36198
 C1172 C 0.64002 0.37657 0.38209
 C1173 C 0.61014 0.37299 0.36858
 C1174 C 0.60396 0.35066 0.33507
 C1175 C 0.58695 0.39188 0.38868
 C1176 C 0.59321 0.41463 0.42209
 C1177 C 0.62305 0.41779 0.43532
 C1178 C 0.64619 0.39890 0.41559
 H1179 H 0.68603 0.36024 0.37277
 H1180 H 0.58121 0.34767 0.32420
 H1181 H 0.56413 0.38931 0.37788
 H1182 H 0.66895 0.40190 0.42646
 H1183 H 0.62155 0.31461 0.28966
 H1184 H 0.62859 0.43498 0.46099
 C1185 C 0.62649 0.17272 0.32024
 C1186 C 0.65644 0.16820 0.33264
 C1187 C 0.66303 0.14264 0.36360
 C1188 C 0.64010 0.12192 0.38192
 C1189 C 0.61013 0.12671 0.36919
 C1190 C 0.60357 0.15216 0.33834
 C1191 C 0.58720 0.10601 0.38750
 C1192 C 0.59379 0.08046 0.41848
 C1193 C 0.62372 0.07593 0.43088
 C1194 C 0.64666 0.09648 0.41277
 H1195 H 0.68596 0.13883 0.37357
 H1196 H 0.58071 0.15614 0.32818
 H1197 H 0.56428 0.10982 0.37753
 H1198 H 0.66951 0.09249 0.42293
 H1199 H 0.62071 0.19207 0.29636
 H1200 H 0.62949 0.05658 0.45477
 C1201 C -0.12610 0.32498 0.32228
 C1202 C -0.15614 0.32921 0.33435
 C1203 C -0.16273 0.35249 0.36719
 C1204 C -0.13972 0.37143 0.38746
 C1205 C -0.10969 0.36713 0.37481
 C1206 C -0.10313 0.34377 0.34228
 C1207 C -0.08674 0.38660 0.39455
 C1208 C -0.09336 0.41070 0.42668
 C1209 C -0.12330 0.41435 0.43937
 C1210 C -0.14624 0.39484 0.42000
 H1211 H -0.18572 0.35587 0.37708
 H1212 H -0.08023 0.34017 0.33216
 H1213 H -0.06382 0.38357 0.38425
 H1214 H -0.16912 0.39836 0.43023
 H1215 H -0.12030 0.30729 0.29710
 H1216 H -0.12908 0.43254 0.46415
 C1217 C 0.00181 0.54566 0.19304
 C1218 C 0.00013 0.51011 0.17465
 C1219 C -0.00149 0.47778 0.19896
 C1220 C -0.00160 0.48095 0.24088
 C1221 C -0.00002 0.51684 0.25886
 C1222 C 0.00175 0.54897 0.23466
 C1223 C -0.00023 0.52004 0.30074
 C1224 C -0.00198 0.48777 0.32510
 C1225 C -0.00347 0.45219 0.30679
 C1226 C -0.00331 0.44882 0.26514
 H1227 H -0.00279 0.45018 0.18538
 H1228 H 0.00304 0.57671 0.24791
 H1229 H 0.00107 0.54767 0.31427
 H1230 H -0.00453 0.42107 0.25192
 H1231 H 0.00318 0.57112 0.17527
 H1232 H -0.00484 0.42678 0.32465
 C1233 C 0.24338 0.70204 1.05647
 C1234 C 0.24520 0.73752 1.07493
 C1235 C 0.24734 0.76987 1.05078
 C1236 C 0.24786 0.76686 1.00894
 C1237 C 0.24608 0.73109 0.99075
 C1238 C 0.24377 0.69887 1.01481
 C1239 C 0.24666 0.72813 0.94885
 C1240 C 0.24898 0.76056 0.92480
 C1241 C 0.25080 0.79598 0.94339
 C1242 C 0.25025 0.79909 0.98500
 H1243 H 0.24892 0.79742 1.06446
 H1244 H 0.24235 0.67120 1.00142
 H1245 H 0.24520 0.70062 0.93508
 H1246 H 0.25169 0.82674 0.99844
 H1247 H 0.24167 0.67660 1.07424
 H1248 H 0.25266 0.82150 0.92579
 C1249 C 0.12339 0.57702 0.07024
 C1250 C 0.09352 0.57988 0.08346
 C1251 C 0.08727 0.60120 0.11793
 C1252 C 0.11044 0.61950 0.13868
 C1253 C 0.14028 0.61663 0.12482
 C1254 C 0.14650 0.59525 0.09064
 C1255 C 0.16336 0.63561 0.14498
 C1256 C 0.15705 0.65786 0.17874
 C1257 C 0.12731 0.65994 0.19265
 C1258 C 0.10427 0.64088 0.17289
 H1259 H 0.06443 0.60344 0.12876
 H1260 H 0.16924 0.59275 0.07956
 H1261 H 0.18610 0.63382 0.13368
 H1262 H 0.08156 0.64327 0.18410
 H1263 H 0.12895 0.56087 0.04382
 H1264 H 0.12172 0.67668 0.21863
 C1265 C 0.42868 0.89567 0.12735
 C1266 C 0.41738 0.91665 0.09434
 C1267 C 0.38668 0.91274 0.08492
 C1268 C 0.36842 0.88745 0.10672
 C1269 C 0.38050 0.86667 0.13915
 C1270 C 0.41054 0.87139 0.14936
 C1271 C 0.36241 0.84152 0.16103
 C1272 C 0.33213 0.83666 0.15097
 C1273 C 0.32044 0.85710 0.11816
 C1274 C 0.33831 0.88218 0.09641
 H1275 H 0.37714 0.92817 0.05992
 H1276 H 0.42020 0.85595 0.17424
 H1277 H 0.37180 0.82626 0.18623
 H1278 H 0.32852 0.89752 0.07156
 H1279 H 0.45189 0.89774 0.13665
 H1280 H 0.29721 0.85404 0.10937
 C1281 C 0.37357 0.68145 0.17107
 C1282 C 0.34334 0.67257 0.16353
 C1283 C 0.33661 0.64370 0.13628
 C1284 C 0.35966 0.62386 0.11714
 C1285 C 0.38990 0.63292 0.12518
 C1286 C 0.39660 0.66183 0.15210
 C1287 C 0.41296 0.61289 0.10630
 C1288 C 0.40625 0.58381 0.07931
 C1289 C 0.37603 0.57513 0.07147
 C1290 C 0.35298 0.59496 0.09020
 H1291 H 0.31347 0.63650 0.13005
 H1292 H 0.41966 0.66917 0.15862
 H1293 H 0.43610 0.61999 0.11269
 H1294 H 0.32992 0.58762 0.08365
 H1295 H 0.37954 0.70346 0.19194
 H1296 H 0.37009 0.55290 0.05084
 C1297 C 0.12227 0.92485 0.07773
 C1298 C 0.09188 0.91956 0.08719
 C1299 C 0.08400 0.89245 0.11632
 C1300 C 0.10614 0.87063 0.13521
 C1301 C 0.13649 0.87610 0.12496
 C1302 C 0.14435 0.90334 0.09645
 C1303 C 0.15862 0.85422 0.14326
 C1304 C 0.15118 0.82669 0.17205
 C1305 C 0.12091 0.82148 0.18226
 C1306 C 0.09855 0.84326 0.16393
 H1307 H 0.06068 0.88796 0.12403
 H1308 H 0.16761 0.90784 0.08839
 H1309 H 0.18180 0.85889 0.13490
 H1310 H 0.07535 0.83872 0.17221
 H1311 H 0.12906 0.94538 0.05551
 H1312 H 0.11452 0.80068 0.20442
 C1313 C 0.37894 0.68219 0.31929
 C1314 C 0.34877 0.67793 0.33052
 C1315 C 0.34147 0.65082 0.35989
 C1316 C 0.36356 0.62803 0.37720
 C1317 C 0.39377 0.63237 0.36566
 C1318 C 0.40126 0.65968 0.33681
 C1319 C 0.41584 0.60937 0.38327
 C1320 C 0.40805 0.58209 0.41233
 C1321 C 0.37777 0.57803 0.42310
 C1322 C 0.35578 0.60075 0.40574
 H1323 H 0.31838 0.64684 0.36906
 H1324 H 0.42434 0.66343 0.32756
 H1325 H 0.43907 0.61303 0.37458
 H1326 H 0.33264 0.59707 0.41481
 H1327 H 0.38527 0.70258 0.29669
 H1328 H 0.37100 0.55753 0.44537
 C1329 C 0.12541 -0.17472 0.32111
 C1330 C 0.15565 -0.16667 0.32956
 C1331 C 0.16238 -0.13789 0.35694
 C1332 C 0.13933 -0.11780 0.37588
 C1333 C 0.10908 -0.12637 0.36735
 C1334 C 0.10237 -0.15476 0.33978
 C1335 C 0.08603 -0.10658 0.38667
 C1336 C 0.09279 -0.07827 0.41461
 C1337 C 0.12304 -0.06987 0.42260
 C1338 C 0.14605 -0.08943 0.40344
 H1339 H 0.18552 -0.13128 0.36385
 H1340 H 0.07931 -0.16166 0.33278
 H1341 H 0.06288 -0.11339 0.38004
 H1342 H 0.16912 -0.08247 0.41035
 H1343 H 0.11945 -0.19654 0.30000
 H1344 H 0.12905 -0.04830 0.44396
 C1345 C 0.17672 0.65348 0.38534
 C1346 C 0.16761 0.66392 0.34648
 C1347 C 0.14045 0.65000 0.33146
 C1348 C 0.12289 0.62542 0.35474
 C1349 C 0.13228 0.61512 0.39381
 C1350 C 0.15920 0.62951 0.40882
 C1351 C 0.11437 0.59112 0.41739
 C1352 C 0.08696 0.57778 0.40253
 C1353 C 0.07831 0.58746 0.36325
 C1354 C 0.09607 0.61092 0.33961
 H1355 H 0.13341 0.65749 0.30140
 H1356 H 0.16678 0.62212 0.43864
 H1357 H 0.12114 0.58411 0.44768
 H1358 H 0.08859 0.61817 0.30969
 H1359 H 0.19757 0.66393 0.39767
 H1360 H 0.05735 0.57733 0.35094
 C1361 C 0.37267 -0.16327 0.31042
 C1362 C 0.34284 -0.16037 0.32381
 C1363 C 0.33644 -0.13751 0.35703
 C1364 C 0.35950 -0.11834 0.37692
 C1365 C 0.38940 -0.12182 0.36342
 C1366 C 0.39570 -0.14416 0.33000
 C1367 C 0.41252 -0.10304 0.38364
 C1368 C 0.40616 -0.08063 0.41722
 C1369 C 0.37627 -0.07724 0.43022
 C1370 C 0.35319 -0.09596 0.41032
 H1371 H 0.31362 -0.13506 0.36787
 H1372 H 0.41847 -0.14705 0.31914
 H1373 H 0.43539 -0.10574 0.37306
 H1374 H 0.33041 -0.09299 0.42111
 H1375 H 0.37832 -0.18053 0.28484
 H1376 H 0.37067 -0.06027 0.45602
 C1377 C 0.49769 0.54766 0.19285
 C1378 C 0.49805 0.51196 0.17468
 C1379 C 0.49827 0.47966 0.19899
 C1380 C 0.49831 0.48291 0.24077
 C1381 C 0.49808 0.51890 0.25866
 C1382 C 0.49769 0.55108 0.23443
 C1383 C 0.49833 0.52213 0.30047
 C1384 C 0.49885 0.48978 0.32474
 C1385 C 0.49896 0.45410 0.30651
 C1386 C 0.49870 0.45072 0.26495
 H1387 H 0.49854 0.45195 0.18551
 H1388 H 0.49748 0.57889 0.24762
 H1389 H 0.49819 0.54981 0.31400
 H1390 H 0.49886 0.42291 0.25175
 H1391 H 0.49748 0.57310 0.17495
 H1392 H 0.49931 0.42862 0.32435
 C1393 C 0.75211 0.70473 1.05604
 C1394 C 0.75228 0.74032 1.07444
 C1395 C 0.75303 0.77274 1.05021
 C1396 C 0.75334 0.76964 1.00833
 C1397 C 0.75296 0.73371 0.99032
 C1398 C 0.75245 0.70147 1.01444
 C1399 C 0.75291 0.73058 0.94848
 C1400 C 0.75313 0.76294 0.92417
 C1401 C 0.75375 0.79856 0.94248
 C1402 C 0.75387 0.80187 0.98413
 H1403 H 0.75324 0.80038 1.06383
 H1404 H 0.75219 0.67370 1.00115
 H1405 H 0.75246 0.70290 0.93494
 H1406 H 0.75422 0.82965 0.99738
 H1407 H 0.75160 0.67919 1.07379
 H1408 H 0.75401 0.82404 0.92464
 C1409 C 0.62315 0.58176 0.06495
 C1410 C 0.59322 0.58552 0.07765
 C1411 C 0.58680 0.60889 0.11049
 C1412 C 0.60991 0.62783 0.13060
 C1413 C 0.63988 0.62365 0.11765
 C1414 C 0.64623 0.60069 0.08469
 C1415 C 0.66299 0.64257 0.13780
 C1416 C 0.65656 0.66588 0.17069
 C1417 C 0.62662 0.66965 0.18336
 C1418 C 0.60355 0.65077 0.16356
 H1419 H 0.56390 0.61193 0.12085
 H1420 H 0.66906 0.59724 0.07427
 H1421 H 0.68589 0.63951 0.12747
 H1422 H 0.58071 0.65422 0.17398
 H1423 H 0.62880 0.56407 0.03970
 H1424 H 0.62096 0.68728 0.20864
 C1425 C 0.87637 0.92266 0.06817
 C1426 C 0.90650 0.91693 0.07908
 C1427 C 0.91338 0.88944 0.10806
 C1428 C 0.89056 0.86825 0.12607
 C1429 C 0.86039 0.87445 0.11502
 C1430 C 0.85354 0.90161 0.08596
 C1431 C 0.83753 0.85366 0.13347
 C1432 C 0.84435 0.82680 0.16314
 C1433 C 0.87453 0.82060 0.17354
 C1434 C 0.89740 0.84110 0.15515
 H1435 H 0.93646 0.88457 0.11681
 H1436 H 0.83053 0.90669 0.07708
 H1437 H 0.81443 0.85882 0.12504
 H1438 H 0.92042 0.83594 0.16393
 H1439 H 0.87034 0.94345 0.04582
 H1440 H 0.88053 0.80013 0.19624
 C1441 C 0.87668 0.58309 0.06328
 C1442 C 0.90662 0.58687 0.07592
 C1443 C 0.91315 0.61091 0.10813
 C1444 C 0.89013 0.63034 0.12784
 C1445 C 0.86012 0.62600 0.11512
 C1446 C 0.85367 0.60252 0.08263
 C1447 C 0.83705 0.64506 0.13519
 C1448 C 0.84355 0.66853 0.16790
 C1449 C 0.87356 0.67272 0.18012
 C1450 C 0.89660 0.65380 0.16032
 H1451 H 0.93607 0.61405 0.11838
 H1452 H 0.83081 0.59896 0.07237
 H1453 H 0.81410 0.64168 0.12519
 H1454 H 0.91947 0.65743 0.17050
 H1455 H 0.87095 0.56495 0.03844
 H1456 H 0.87931 0.69055 0.20521
 C1457 C 0.62618 0.92837 0.06967
 C1458 C 0.59583 0.92250 0.08009
 C1459 C 0.58924 0.89543 0.10992
 C1460 C 0.61206 0.87485 0.12854
 C1461 C 0.64222 0.88096 0.11763
 C1462 C 0.64904 0.90780 0.08822
 C1463 C 0.66500 0.86008 0.13632
 C1464 C 0.65795 0.83315 0.16584
 C1465 C 0.62776 0.82751 0.17642
 C1466 C 0.60506 0.84814 0.15795
 H1467 H 0.56628 0.89005 0.11893
 H1468 H 0.67208 0.91287 0.07949
 H1469 H 0.68814 0.86483 0.12781
 H1470 H 0.58201 0.84317 0.16670
 H1471 H 0.63247 0.94874 0.04699
 H1472 H 0.62156 0.80714 0.19911
 C1473 C -0.12719 0.67903 0.32844
 C1474 C -0.15749 0.67213 0.33753
 C1475 C -0.16466 0.64408 0.36579
 C1476 C -0.14193 0.62283 0.38411
 C1477 C -0.11165 0.62981 0.37428
 C1478 C -0.10451 0.65811 0.34665
 C1479 C -0.08895 0.60833 0.39208
 C1480 C -0.09594 0.57978 0.41979
 C1481 C -0.12617 0.57318 0.42956
 C1482 C -0.14895 0.59450 0.41185
 H1483 H -0.18787 0.63834 0.37316
 H1484 H -0.08138 0.66386 0.33886
 H1485 H -0.06580 0.61397 0.38427
 H1486 H -0.17205 0.58878 0.41980
 H1487 H -0.12091 0.70042 0.30687
 H1488 H -0.13226 0.55154 0.45093
 C1489 C 0.62678 -0.16664 0.31398
 C1490 C 0.65660 -0.16386 0.32736
 C1491 C 0.66291 -0.14186 0.36129
 C1492 C 0.63977 -0.12333 0.38181
 C1493 C 0.60990 -0.12652 0.36816
 C1494 C 0.60368 -0.14809 0.33411
 C1495 C 0.58677 -0.10798 0.38866
 C1496 C 0.59307 -0.08595 0.42257
 C1497 C 0.62289 -0.08317 0.43596
 C1498 C 0.64599 -0.10174 0.41585
 H1499 H 0.68572 -0.13963 0.37221
 H1500 H 0.58093 -0.15076 0.32315
 H1501 H 0.56396 -0.11020 0.37774
 H1502 H 0.66875 -0.09907 0.42681
 H1503 H 0.62124 -0.18328 0.28790
 H1504 H 0.62844 -0.06651 0.46202
 C1505 C 0.62604 0.67409 0.31910
 C1506 C 0.65603 0.66955 0.33125
 C1507 C 0.66270 0.64386 0.36211
 C1508 C 0.63983 0.62308 0.38054
 C1509 C 0.60981 0.62791 0.36806
 C1510 C 0.60316 0.65347 0.33732
 C1511 C 0.58693 0.60714 0.38650
 C1512 C 0.59361 0.58147 0.41738
 C1513 C 0.62361 0.57692 0.42951
 C1514 C 0.64649 0.59753 0.41128
 H1515 H 0.68567 0.64001 0.37191
 H1516 H 0.58027 0.65750 0.32733
 H1517 H 0.56397 0.61100 0.37672
 H1518 H 0.66938 0.59350 0.42126
 H1519 H 0.62018 0.69352 0.29532
 H1520 H 0.62948 0.55750 0.45329
 C1521 C -0.12666 -0.17290 0.32109
 C1522 C -0.15658 -0.16988 0.33404
 C1523 C -0.16299 -0.14847 0.36838
 C1524 C -0.13992 -0.13019 0.38926
 C1525 C -0.11002 -0.13321 0.37568
 C1526 C -0.10363 -0.15471 0.34166
 C1527 C -0.08703 -0.11422 0.39594
 C1528 C -0.09349 -0.09180 0.42950
 C1529 C -0.12328 -0.08956 0.44316
 C1530 C -0.14625 -0.10865 0.42332
 H1531 H -0.18588 -0.14612 0.37899
 H1532 H -0.08084 -0.15731 0.33080
 H1533 H -0.06425 -0.11613 0.38484
 H1534 H -0.16901 -0.10616 0.43430
 H1535 H -0.12099 -0.18915 0.29478
 H1536 H -0.12895 -0.07266 0.46900
 C1537 C 0.00283 -0.04407 0.80741
 C1538 C 0.00268 -0.00855 0.82651
 C1539 C 0.00350 0.02399 0.80195
 C1540 C 0.00426 0.02100 0.75988
 C1541 C 0.00424 -0.01481 0.74170
 C1542 C 0.00359 -0.04707 0.76575
 C1543 C 0.00466 -0.01788 0.69973
 C1544 C 0.00498 0.01449 0.67532
 C1545 C 0.00522 0.05004 0.69382
 C1546 C 0.00490 0.05325 0.73559
 H1547 H 0.00349 0.05176 0.81529
 H1548 H 0.00358 -0.07478 0.75233
 H1549 H 0.00439 -0.04554 0.68616
 H1550 H 0.00499 0.08102 0.74888
 H1551 H 0.00230 -0.07000 0.82453
 H1552 H 0.00552 0.07554 0.67601
 C1553 C 0.25483 0.29823 0.44326
 C1554 C 0.25392 0.26262 0.42492
 C1555 C 0.25308 0.23031 0.44933
 C1556 C 0.25289 0.23349 0.49123
 C1557 C 0.25365 0.26940 0.50925
 C1558 C 0.25472 0.30157 0.48496
 C1559 C 0.25319 0.27251 0.55122
 C1560 C 0.25196 0.24010 0.57551
 C1561 C 0.25133 0.20454 0.55701
 C1562 C 0.25179 0.20128 0.51539
 H1563 H 0.25230 0.20264 0.43583
 H1564 H 0.25536 0.32936 0.49818
 H1565 H 0.25373 0.30013 0.56486
 H1566 H 0.25120 0.17352 0.50211
 H1567 H 0.25555 0.32367 0.42538
 H1568 H 0.25040 0.17900 0.57471
 C1569 C 0.12226 0.08657 0.56141
 C1570 C 0.09258 0.08844 0.57556
 C1571 C 0.08645 0.10944 0.61026
 C1572 C 0.10962 0.12790 0.63073
 C1573 C 0.13935 0.12559 0.61632
 C1574 C 0.14539 0.10500 0.58155
 C1575 C 0.16252 0.14400 0.63682
 C1576 C 0.15638 0.16508 0.67144
 C1577 C 0.12670 0.16705 0.68556
 C1578 C 0.10357 0.14856 0.66547
 H1579 H 0.06376 0.11097 0.62176
 H1580 H 0.16803 0.10302 0.56999
 H1581 H 0.18523 0.14245 0.62537
 H1582 H 0.08093 0.15056 0.67703
 H1583 H 0.12769 0.07071 0.53475
 H1584 H 0.12131 0.18295 0.71221
 C1585 C 0.37421 0.32124 0.67515
 C1586 C 0.34388 0.32822 0.66614
 C1587 C 0.33684 0.35711 0.63869
 C1588 C 0.35959 0.37879 0.62088
 C1589 C 0.38990 0.37154 0.63036
 C1590 C 0.39695 0.34262 0.65742
 C1591 C 0.41265 0.39320 0.61252
 C1592 C 0.40560 0.42206 0.58503
 C1593 C 0.37527 0.42905 0.57606
 C1594 C 0.35253 0.40769 0.59381
 H1595 H 0.31364 0.36308 0.63141
 H1596 H 0.42008 0.33662 0.66503
 H1597 H 0.43585 0.38722 0.61978
 H1598 H 0.32940 0.41369 0.58621
 H1599 H 0.38043 0.29933 0.69615
 H1600 H 0.36903 0.45094 0.55503
 C1601 C 0.37344 0.17245 0.68100
 C1602 C 0.34333 0.16697 0.66984
 C1603 C 0.33667 0.14164 0.63884
 C1604 C 0.35970 0.12211 0.61929
 C1605 C 0.38983 0.12788 0.63080
 C1606 C 0.39645 0.15308 0.66168
 C1607 C 0.41286 0.10833 0.61129
 C1608 C 0.40621 0.08294 0.58034
 C1609 C 0.37610 0.07748 0.56914
 C1610 C 0.35309 0.09690 0.58840
 H1611 H 0.31363 0.13715 0.62976
 H1612 H 0.41942 0.15781 0.67093
 H1613 H 0.43590 0.11280 0.62040
 H1614 H 0.33012 0.09217 0.57916
 H1615 H 0.37930 0.19169 0.70481
 H1616 H 0.37025 0.05819 0.54536
 C1617 C 0.12722 0.32852 0.68022
 C1618 C 0.15740 0.33358 0.66912
 C1619 C 0.16441 0.36101 0.64003
 C1620 C 0.14165 0.38276 0.62220
 C1621 C 0.11149 0.37716 0.63358
 C1622 C 0.10455 0.35007 0.66267
 C1623 C 0.08869 0.39845 0.61545
 C1624 C 0.09545 0.42527 0.58566
 C1625 C 0.12562 0.43087 0.57488
 C1626 C 0.14848 0.40988 0.59300
 H1627 H 0.18750 0.36542 0.63111
 H1628 H 0.08154 0.34544 0.67180
 H1629 H 0.06562 0.39363 0.62423
 H1630 H 0.17148 0.41463 0.58389
 H1631 H 0.12102 0.30787 0.70262
 H1632 H 0.13161 0.45122 0.55206
 C1633 C 0.37452 0.06680 0.92660
 C1634 C 0.40478 0.07395 0.91739
 C1635 C 0.41154 0.10301 0.89003
 C1636 C 0.38868 0.12472 0.87258
 C1637 C 0.35842 0.11736 0.88216
 C1638 C 0.35159 0.08821 0.90911
 C1639 C 0.33556 0.13919 0.86456
 C1640 C 0.34256 0.16832 0.83732
 C1641 C 0.37288 0.17535 0.82836
 C1642 C 0.39565 0.15383 0.84578
 H1643 H 0.43467 0.10918 0.88259
 H1644 H 0.32852 0.08210 0.91684
 H1645 H 0.31237 0.13320 0.87180
 H1646 H 0.41875 0.15990 0.83815
 H1647 H 0.36852 0.04477 0.94757
 H1648 H 0.37912 0.19741 0.80756
 C1649 C 0.12321 0.42236 0.93012
 C1650 C 0.09324 0.41818 0.91773
 C1651 C 0.08677 0.39451 0.88519
 C1652 C 0.10984 0.37520 0.86547
 C1653 C 0.13982 0.37952 0.87836
 C1654 C 0.14625 0.40320 0.91065
 C1655 C 0.16285 0.35985 0.85902
 C1656 C 0.15636 0.33559 0.82701
 C1657 C 0.12647 0.33181 0.81418
 C1658 C 0.10344 0.35148 0.83318
 H1659 H 0.06383 0.39114 0.87510
 H1660 H 0.16910 0.40681 0.92095
 H1661 H 0.18574 0.36299 0.86939
 H1662 H 0.08061 0.34792 0.82279
 H1663 H 0.12892 0.44033 0.95510
 H1664 H 0.12080 0.31349 0.78946
 C1665 C 0.12324 0.06939 0.92534
 C1666 C 0.09284 0.07559 0.91519
 C1667 C 0.08637 0.10287 0.88544
 C1668 C 0.10939 0.12372 0.86720
 C1669 C 0.13950 0.11737 0.87825
 C1670 C 0.14617 0.09000 0.90711
 C1671 C 0.16248 0.13860 0.86038
 C1672 C 0.15578 0.16630 0.83149
 C1673 C 0.12565 0.17216 0.82062
 C1674 C 0.10272 0.15111 0.83826
 H1675 H 0.06339 0.10844 0.87660
 H1676 H 0.16918 0.08466 0.91587
 H1677 H 0.18553 0.13355 0.86911
 H1678 H 0.07974 0.15635 0.82933
 H1679 H 0.12958 0.04878 0.94776
 H1680 H 0.11969 0.19308 0.79837
 C1681 C 0.37596 0.42506 0.92857
 C1682 C 0.40617 0.41762 0.91930
 C1683 C 0.41288 0.38996 0.89064
 C1684 C 0.38983 0.37005 0.87160
 C1685 C 0.35960 0.37778 0.88121
 C1686 C 0.35292 0.40533 0.90973
 C1687 C 0.33655 0.35790 0.86211
 C1688 C 0.34328 0.33031 0.83337
 C1689 C 0.37350 0.32286 0.82415
 C1690 C 0.39653 0.34253 0.84306
 H1691 H 0.43600 0.38387 0.88306
 H1692 H 0.32988 0.41163 0.91748
 H1693 H 0.31342 0.36401 0.86964
 H1694 H 0.41957 0.33624 0.83532
 H1695 H 0.37003 0.44615 0.95052
 H1696 H 0.37946 0.30184 0.80214
 C1697 C 0.49648 -0.04846 0.80716
 C1698 C 0.49709 -0.01292 0.82565
 C1699 C 0.49723 0.01954 0.80145
 C1700 C 0.49710 0.01656 0.75957
 C1701 C 0.49671 -0.01929 0.74141
 C1702 C 0.49628 -0.05161 0.76549
 C1703 C 0.49693 -0.02225 0.69950
 C1704 C 0.49758 0.01023 0.67535
 C1705 C 0.49779 0.04577 0.69388
 C1706 C 0.49755 0.04889 0.73552
 H1707 H 0.49770 0.04716 0.81511
 H1708 H 0.49593 -0.07934 0.75212
 H1709 H 0.49671 -0.04986 0.68580
 H1710 H 0.49782 0.07661 0.74891
 H1711 H 0.49629 -0.07401 0.82489
 H1712 H 0.49824 0.07134 0.67621
 C1713 C 0.75149 0.29526 0.44402
 C1714 C 0.75105 0.25958 0.42581
 C1715 C 0.75088 0.22726 0.45015
 C1716 C 0.75095 0.23054 0.49199
 C1717 C 0.75125 0.26655 0.50984
 C1718 C 0.75159 0.29870 0.48558
 C1719 C 0.75112 0.26987 0.55164
 C1720 C 0.75065 0.23760 0.57603
 C1721 C 0.75049 0.20189 0.55789
 C1722 C 0.75064 0.19840 0.51629
 H1723 H 0.75058 0.19957 0.43666
 H1724 H 0.75186 0.32652 0.49874
 H1725 H 0.75129 0.29759 0.56507
 H1726 H 0.75043 0.17057 0.50316
 H1727 H 0.75170 0.32073 0.42616
 H1728 H 0.75016 0.17647 0.57582
 C1729 C 0.62296 0.08112 0.56616
 C1730 C 0.59302 0.08457 0.57889
 C1731 C 0.58647 0.10743 0.61208
 C1732 C 0.60946 0.12622 0.63249
 C1733 C 0.63945 0.12240 0.61951
 C1734 C 0.64593 0.09992 0.58623
 C1735 C 0.66243 0.14122 0.63990
 C1736 C 0.65587 0.16412 0.67305
 C1737 C 0.62594 0.16754 0.68581
 C1738 C 0.60297 0.14870 0.66577
 H1739 H 0.56355 0.11019 0.62246
 H1740 H 0.66879 0.09675 0.57579
 H1741 H 0.68535 0.13849 0.62949
 H1742 H 0.58011 0.15187 0.67622
 H1743 H 0.62868 0.06382 0.54065
 H1744 H 0.62022 0.18487 0.71130
 C1745 C -0.12609 0.31745 0.67382
 C1746 C -0.15622 0.32553 0.66443
 C1747 C -0.16246 0.35417 0.63657
 C1748 C -0.13911 0.37482 0.61896
 C1749 C -0.10897 0.36674 0.62894
 C1750 C -0.10273 0.33780 0.65623
 C1751 C -0.08564 0.38783 0.61159
 C1752 C -0.09210 0.41695 0.58431
 C1753 C -0.12229 0.42448 0.57465
 C1754 C -0.14548 0.40369 0.59176
 H1755 H -0.18548 0.36087 0.62900
 H1756 H -0.07980 0.33108 0.66424
 H1757 H -0.06257 0.38152 0.61928
 H1758 H -0.16843 0.41027 0.58372
 H1759 H -0.12047 0.29554 0.69513
 H1760 H -0.12817 0.44657 0.55368
 C1761 C 0.87536 0.07785 0.56922
 C1762 C 0.90547 0.08349 0.58025
 C1763 C 0.91216 0.10924 0.61084
 C1764 C 0.88913 0.12869 0.63047
 C1765 C 0.85897 0.12260 0.61929
 C1766 C 0.85235 0.09727 0.58851
 C1767 C 0.83592 0.14184 0.63913
 C1768 C 0.84257 0.16720 0.67012
 C1769 C 0.87271 0.17306 0.68090
 C1770 C 0.89575 0.15399 0.66128
 H1771 H 0.93522 0.11381 0.61981
 H1772 H 0.82936 0.09233 0.57946
 H1773 H 0.81285 0.13710 0.63029
 H1774 H 0.91874 0.15898 0.67026
 H1775 H 0.86952 0.05839 0.54560
 H1776 H 0.87858 0.19238 0.70464
 C1777 C 0.62597 0.32621 0.68007
 C1778 C 0.65593 0.33088 0.66771
 C1779 C 0.66236 0.35656 0.63682
 C1780 C 0.63927 0.37720 0.61857
 C1781 C 0.60930 0.37224 0.63128
 C1782 C 0.60291 0.34668 0.66205
 C1783 C 0.58622 0.39291 0.61305
 C1784 C 0.59267 0.41863 0.58220
 C1785 C 0.62263 0.42326 0.56982
 C1786 C 0.64567 0.40276 0.58780
 H1787 H 0.68528 0.36051 0.62689
 H1788 H 0.58009 0.34252 0.67223
 H1789 H 0.56330 0.38900 0.62298
 H1790 H 0.66850 0.40690 0.57762
 H1791 H 0.62024 0.30678 0.70389
 H1792 H 0.62838 0.44271 0.54602
 C1793 C 0.87699 0.07417 0.92730
 C1794 C 0.90711 0.08244 0.91810
 C1795 C 0.91344 0.11217 0.89163
 C1796 C 0.89006 0.13311 0.87443
 C1797 C 0.85994 0.12431 0.88373
 C1798 C 0.85368 0.09487 0.91029
 C1799 C 0.83655 0.14477 0.86600
 C1800 C 0.84281 0.17386 0.83872
 C1801 C 0.87292 0.18273 0.83017
 C1802 C 0.89629 0.16259 0.84787
 H1803 H 0.93647 0.11904 0.88435
 H1804 H 0.83074 0.08774 0.91782
 H1805 H 0.81351 0.13753 0.87290
 H1806 H 0.91922 0.16985 0.84047
 H1807 H 0.87129 0.05156 0.94771
 H1808 H 0.87853 0.20507 0.80938
 C1809 C 0.62266 0.41654 0.93638
 C1810 C 0.59286 0.41389 0.92296
 C1811 C 0.58641 0.39191 0.88910
 C1812 C 0.60942 0.37325 0.86862
 C1813 C 0.63930 0.37629 0.88226
 C1814 C 0.64566 0.39784 0.91627
 C1815 C 0.66232 0.35764 0.86178
 C1816 C 0.65588 0.33567 0.82791
 C1817 C 0.62607 0.33300 0.81450
 C1818 C 0.60306 0.35170 0.83462
 H1819 H 0.56359 0.38983 0.87819
 H1820 H 0.66844 0.40037 0.92720
 H1821 H 0.68514 0.35973 0.87268
 H1822 H 0.58029 0.34916 0.82368
 H1823 H 0.62827 0.43319 0.96242
 H1824 H 0.62047 0.31635 0.78846
 C1825 C 0.62097 0.07328 0.92647
 C1826 C 0.59050 0.07981 0.91652
 C1827 C 0.58408 0.10773 0.88752
 C1828 C 0.60738 0.12832 0.86928
 C1829 C 0.63752 0.12122 0.87997
 C1830 C 0.64399 0.09367 0.90852
 C1831 C 0.66081 0.14170 0.86195
 C1832 C 0.65453 0.16941 0.83308
 C1833 C 0.62440 0.17626 0.82257
 C1834 C 0.60111 0.15597 0.84049
 H1835 H 0.56109 0.11360 0.87901
 H1836 H 0.66697 0.08782 0.91707
 H1837 H 0.68382 0.13595 0.87042
 H1838 H 0.57819 0.16190 0.83176
 H1839 H 0.62742 0.05233 0.94847
 H1840 H 0.61872 0.19733 0.80035
 C1841 C 0.87615 0.41928 0.93456
 C1842 C 0.90613 0.41452 0.92242
 C1843 C 0.91257 0.38945 0.89107
 C1844 C 0.88942 0.36991 0.87175
 C1845 C 0.85939 0.37522 0.88397
 C1846 C 0.85303 0.39978 0.91557
 C1847 C 0.83621 0.35602 0.86429
 C1848 C 0.84263 0.33146 0.83247
 C1849 C 0.87267 0.32631 0.82076
 C1850 C 0.89581 0.34536 0.84017
 H1851 H 0.93551 0.38552 0.88124
 H1852 H 0.83015 0.40411 0.92544
 H1853 H 0.81323 0.36018 0.87387
 H1854 H 0.91870 0.34096 0.83038
 H1855 H 0.87047 0.43821 0.95874
 H1856 H 0.87837 0.30764 0.79636
 C1857 C 0.00122 0.45470 0.80834
 C1858 C 0.00121 0.49038 0.82711
 C1859 C 0.00173 0.52270 0.80224
 C1860 C 0.00207 0.51936 0.76022
 C1861 C 0.00193 0.48341 0.74234
 C1862 C 0.00157 0.45135 0.76669
 C1863 C 0.00203 0.48004 0.70037
 C1864 C 0.00220 0.51225 0.67573
 C1865 C 0.00250 0.54793 0.69400
 C1866 C 0.00245 0.55144 0.73570
 H1867 H 0.00180 0.55059 0.81532
 H1868 H 0.00150 0.42353 0.75353
 H1869 H 0.00181 0.45231 0.68698
 H1870 H 0.00261 0.57930 0.74877
 H1871 H 0.00090 0.42892 0.82572
 H1872 H 0.00269 0.57334 0.67604
 C1873 C 0.25806 0.79981 0.44233
 C1874 C 0.25633 0.76425 0.42402
 C1875 C 0.25458 0.73197 0.44833
 C1876 C 0.25407 0.73514 0.49016
 C1877 C 0.25554 0.77100 0.50821
 C1878 C 0.25772 0.80314 0.48400
 C1879 C 0.25462 0.77413 0.55011
 C1880 C 0.25221 0.74178 0.57428
 C1881 C 0.25092 0.70625 0.55581
 C1882 C 0.25183 0.70298 0.51423
 H1883 H 0.25312 0.70436 0.43477
 H1884 H 0.25894 0.83087 0.49727
 H1885 H 0.25573 0.80171 0.56378
 H1886 H 0.25068 0.67526 0.50091
 H1887 H 0.25953 0.82520 0.42445
 H1888 H 0.24909 0.68078 0.57349
 C1889 C 0.12307 0.58123 0.56629
 C1890 C 0.09309 0.58495 0.57883
 C1891 C 0.08654 0.60836 0.61159
 C1892 C 0.10954 0.62764 0.63155
 C1893 C 0.13954 0.62361 0.61864
 C1894 C 0.14604 0.60039 0.58597
 C1895 C 0.16252 0.64299 0.63847
 C1896 C 0.15597 0.66667 0.67099
 C1897 C 0.12603 0.67030 0.68368
 C1898 C 0.10306 0.65092 0.66422
 H1899 H 0.06361 0.61142 0.62182
 H1900 H 0.16890 0.59702 0.57561
 H1901 H 0.18544 0.64001 0.62814
 H1902 H 0.08021 0.65427 0.67461
 H1903 H 0.12886 0.56350 0.54114
 H1904 H 0.12030 0.68818 0.70874
 C1905 C 0.37532 0.93084 0.57710
 C1906 C 0.40557 0.92283 0.58544
 C1907 C 0.41258 0.89330 0.61196
 C1908 C 0.38978 0.87179 0.62947
 C1909 C 0.35950 0.87995 0.62065
 C1910 C 0.35250 0.90962 0.59459
 C1911 C 0.33671 0.85843 0.63813
 C1912 C 0.34372 0.82888 0.66462
 C1913 C 0.37396 0.82088 0.67298
 C1914 C 0.39679 0.84212 0.65552
 H1915 H 0.43576 0.88662 0.61862
 H1916 H 0.32938 0.91629 0.58757
 H1917 H 0.31353 0.86510 0.63146
 H1918 H 0.41991 0.83545 0.66254
 H1919 H 0.36923 0.95337 0.55678
 H1920 H 0.38006 0.79833 0.69329
 C1921 C 0.37308 0.67432 0.67942
 C1922 C 0.34294 0.66848 0.66860
 C1923 C 0.33630 0.64262 0.63806
 C1924 C 0.35936 0.62294 0.61868
 C1925 C 0.38952 0.62907 0.62986
 C1926 C 0.39611 0.65480 0.66027
 C1927 C 0.41258 0.60938 0.61049
 C1928 C 0.40594 0.58350 0.57997
 C1929 C 0.37580 0.57769 0.56912
 C1930 C 0.35277 0.59722 0.58825
 H1931 H 0.31324 0.63782 0.62923
 H1932 H 0.41909 0.65984 0.66927
 H1933 H 0.43563 0.61416 0.61934
 H1934 H 0.32979 0.59219 0.57925
 H1935 H 0.37896 0.69398 0.70284
 H1936 H 0.36993 0.55804 0.54569
 C1937 C 0.12808 0.93285 0.57024
 C1938 C 0.09816 0.92976 0.58303
 C1939 C 0.09132 0.90491 0.61469
 C1940 C 0.11360 0.88278 0.63249
 C1941 C 0.14351 0.88567 0.61913
 C1942 C 0.15058 0.91106 0.58823
 C1943 C 0.16570 0.86291 0.63673
 C1944 C 0.15828 0.83715 0.66739
 C1945 C 0.12835 0.83477 0.68033
 C1946 C 0.10626 0.85739 0.66311
 H1947 H 0.06843 0.90206 0.62516
 H1948 H 0.17343 0.91369 0.57761
 H1949 H 0.18865 0.86520 0.62638
 H1950 H 0.08338 0.85492 0.67368
 H1951 H 0.13404 0.95161 0.54592
 H1952 H 0.12194 0.81553 0.70401
 C1953 C 0.37625 0.56783 0.91896
 C1954 C 0.40642 0.57791 0.91270
 C1955 C 0.41291 0.60914 0.88825
 C1956 C 0.38968 0.63025 0.87085
 C1957 C 0.35949 0.61997 0.87763
 C1958 C 0.35305 0.58859 0.90156
 C1959 C 0.33626 0.64113 0.86027
 C1960 C 0.34277 0.67240 0.83588
 C1961 C 0.37295 0.68244 0.82960
 C1962 C 0.39613 0.66163 0.84694
 H1963 H 0.43599 0.61745 0.88327
 H1964 H 0.33006 0.58021 0.90702
 H1965 H 0.31317 0.63285 0.86527
 H1966 H 0.41912 0.67000 0.84148
 H1967 H 0.37047 0.54392 0.93757
 H1968 H 0.37874 0.70637 0.81104
 C1969 C 0.12283 0.92771 0.92680
 C1970 C 0.09238 0.92054 0.91768
 C1971 C 0.08597 0.89415 0.88723
 C1972 C 0.10915 0.87561 0.86674
 C1973 C 0.13934 0.88303 0.87663
 C1974 C 0.14589 0.90915 0.90663
 C1975 C 0.16250 0.86402 0.85660
 C1976 C 0.15591 0.83746 0.82671
 C1977 C 0.12572 0.83074 0.81675
 C1978 C 0.10261 0.84960 0.83655
 H1979 H 0.06296 0.88794 0.87912
 H1980 H 0.16893 0.91523 0.91459
 H1981 H 0.18559 0.86958 0.86473
 H1982 H 0.07960 0.84363 0.82839
 H1983 H 0.12913 0.94766 0.94977
 H1984 H 0.11984 0.81060 0.79380
 C1985 C 0.12410 0.57100 0.92299
 C1986 C 0.09387 0.57722 0.91287
 C1987 C 0.08694 0.60452 0.88367
 C1988 C 0.10973 0.62566 0.86542
 C1989 C 0.13994 0.61939 0.87619
 C1990 C 0.14689 0.59184 0.90481
 C1991 C 0.16270 0.64089 0.85835
 C1992 C 0.15572 0.66875 0.82978
 C1993 C 0.12554 0.67456 0.81918
 C1994 C 0.10278 0.65324 0.83682
 H1995 H 0.06380 0.60976 0.87545
 H1996 H 0.16995 0.58661 0.91339
 H1997 H 0.18581 0.63591 0.86687
 H1998 H 0.07973 0.65839 0.82815
 H1999 H 0.13020 0.55023 0.94533
 H2000 H 0.11941 0.69563 0.79717
 C2001 C 0.37773 0.91717 0.93589
 C2002 C 0.40765 0.91277 0.92326
 C2003 C 0.41386 0.88863 0.89102
 C2004 C 0.39054 0.86953 0.87148
 C2005 C 0.36060 0.87444 0.88431
 C2006 C 0.35448 0.89819 0.91664
 C2007 C 0.33726 0.85559 0.86457
 C2008 C 0.34343 0.83171 0.83210
 C2009 C 0.37337 0.82699 0.81972
 C2010 C 0.39666 0.84573 0.83916
 H2011 H 0.43673 0.88497 0.88079
 H2012 H 0.33168 0.90223 0.92698
 H2013 H 0.31437 0.85941 0.87465
 H2014 H 0.41946 0.84164 0.82887
 H2015 H 0.37218 0.93542 0.96070
 H2016 H 0.37889 0.80888 0.79477
 C2017 C 0.49959 0.45292 0.80657
 C2018 C 0.49901 0.48856 0.82487
 C2019 C 0.49811 0.52089 0.80056
 C2020 C 0.49788 0.51771 0.75872
 C2021 C 0.49855 0.48178 0.74074
 C2022 C 0.49936 0.44958 0.76495
 C2023 C 0.49849 0.47862 0.69887
 C2024 C 0.49784 0.51100 0.67459
 C2025 C 0.49705 0.54661 0.69294
 C2026 C 0.49706 0.54992 0.73454
 H2027 H 0.49761 0.54857 0.81409
 H2028 H 0.49987 0.42179 0.75171
 H2029 H 0.49911 0.45097 0.68529
 H2030 H 0.49651 0.57770 0.74779
 H2031 H 0.50028 0.42745 0.82441
 H2032 H 0.49649 0.57212 0.67515
 C2033 C 0.75230 0.79622 0.44294
 C2034 C 0.75017 0.76073 0.42453
 C2035 C 0.74805 0.72839 0.44870
 C2036 C 0.74789 0.73147 0.49055
 C2037 C 0.74993 0.76729 0.50860
 C2038 C 0.75219 0.79945 0.48453
 C2039 C 0.74967 0.77041 0.55041
 C2040 C 0.74745 0.73813 0.57462
 C2041 C 0.74548 0.70260 0.55630
 C2042 C 0.74567 0.69932 0.51467
 H2043 H 0.74639 0.70085 0.43504
 H2044 H 0.75383 0.82713 0.49786
 H2045 H 0.75134 0.79799 0.56401
 H2046 H 0.74409 0.67163 0.50137
 H2047 H 0.75406 0.82167 0.42520
 H2048 H 0.74372 0.67721 0.57412
 C2049 C 0.62269 0.58233 0.56550
 C2050 C 0.59287 0.58496 0.57889
 C2051 C 0.58649 0.60657 0.61308
 C2052 C 0.60957 0.62496 0.63379
 C2053 C 0.63943 0.62199 0.62007
 C2054 C 0.64573 0.60074 0.58583
 C2055 C 0.66249 0.64053 0.64063
 C2056 C 0.65612 0.66237 0.67465
 C2057 C 0.62633 0.66486 0.68821
 C2058 C 0.60329 0.64625 0.66804
 H2059 H 0.56366 0.60864 0.62399
 H2060 H 0.66849 0.59825 0.57482
 H2061 H 0.68528 0.63856 0.62957
 H2062 H 0.58054 0.64874 0.67907
 H2063 H 0.62827 0.56597 0.53923
 H2064 H 0.62076 0.68140 0.71435
 C2065 C 0.92533 0.90493 0.63565
 C2066 C 0.91654 0.91497 0.59657
 C2067 C 0.88968 0.90069 0.58106
 C2068 C 0.87209 0.87603 0.60411
 C2069 C 0.88119 0.86603 0.64339
 C2070 C 0.90779 0.88085 0.65890
 C2071 C 0.86331 0.84190 0.66671
 C2072 C 0.83619 0.82817 0.65142
 C2073 C 0.82776 0.83756 0.61200
 C2074 C 0.84556 0.86113 0.58854
 H2075 H 0.88294 0.90791 0.55080
 H2076 H 0.91510 0.87370 0.68890
 H2077 H 0.86983 0.83512 0.69716
 H2078 H 0.83831 0.86817 0.55847
 H2079 H 0.94598 0.91569 0.64829
 H2080 H 0.80698 0.82711 0.59946
 C2081 C 0.87595 0.58025 0.56569
 C2082 C 0.90602 0.58572 0.57707
 C2083 C 0.91259 0.61166 0.60752
 C2084 C 0.88950 0.63137 0.62674
 C2085 C 0.85938 0.62537 0.61531
 C2086 C 0.85288 0.59993 0.58458
 C2087 C 0.83627 0.64474 0.63493
 C2088 C 0.84285 0.67012 0.66593
 C2089 C 0.87297 0.67596 0.67684
 C2090 C 0.89604 0.65678 0.65745
 H2091 H 0.93560 0.61615 0.61675
 H2092 H 0.82993 0.59505 0.57532
 H2093 H 0.81321 0.64002 0.62601
 H2094 H 0.91900 0.66171 0.66662
 H2095 H 0.87018 0.56063 0.54218
 H2096 H 0.87879 0.69524 0.70064
 C2097 C 0.62170 0.92120 0.57051
 C2098 C 0.59174 0.91729 0.58296
 C2099 C 0.58477 0.89177 0.61381
 C2100 C 0.60743 0.87055 0.63206
 C2101 C 0.63742 0.87483 0.61926
 C2102 C 0.64433 0.90014 0.58849
 C2103 C 0.66011 0.85384 0.63749
 C2104 C 0.65340 0.82855 0.66859
 C2105 C 0.62348 0.82432 0.68108
 C2106 C 0.60067 0.84516 0.66293
 H2107 H 0.56179 0.88845 0.62375
 H2108 H 0.66723 0.90367 0.57833
 H2109 H 0.68303 0.85740 0.62741
 H2110 H 0.57779 0.84154 0.67312
 H2111 H 0.62775 0.94047 0.54668
 H2112 H 0.61768 0.80511 0.70507
 C2113 C 0.87724 0.57950 0.92883
 C2114 C 0.90738 0.58438 0.91747
 C2115 C 0.91437 0.61170 0.88825
 C2116 C 0.89162 0.63352 0.87056
 C2117 C 0.86150 0.62810 0.88222
 C2118 C 0.85458 0.60112 0.91142
 C2119 C 0.83870 0.64944 0.86423
 C2120 C 0.84542 0.67612 0.83430
 C2121 C 0.87555 0.68158 0.82324
 C2122 C 0.89842 0.66053 0.84124
 H2123 H 0.93743 0.61597 0.87915
 H2124 H 0.83159 0.59664 0.92074
 H2125 H 0.81566 0.64475 0.87322
 H2126 H 0.92139 0.66513 0.83193
 H2127 H 0.87108 0.55894 0.95134
 H2128 H 0.88148 0.70183 0.80030
 C2129 C 0.62356 0.92594 0.92862
 C2130 C 0.59307 0.91746 0.92122
 C2131 C 0.58643 0.88948 0.89254
 C2132 C 0.60943 0.87118 0.87150
 C2133 C 0.63967 0.88020 0.87934
 C2134 C 0.64646 0.90747 0.90805
 C2135 C 0.66266 0.86176 0.85841
 C2136 C 0.65585 0.83427 0.82959
 C2137 C 0.62558 0.82581 0.82180
 C2138 C 0.60263 0.84405 0.84254
 H2139 H 0.56338 0.88214 0.88587
 H2140 H 0.66955 0.91470 0.91451
 H2141 H 0.68582 0.86861 0.86492
 H2142 H 0.57956 0.83683 0.83599
 H2143 H 0.63001 0.94699 0.95037
 H2144 H 0.61953 0.80484 0.79978
 C2145 C 0.62412 0.57497 0.93108
 C2146 C 0.59424 0.58009 0.91853
 C2147 C 0.58808 0.60606 0.88790
 C2148 C 0.61132 0.62659 0.87008
 C2149 C 0.64125 0.62127 0.88289
 C2150 C 0.64739 0.59536 0.91343
 C2151 C 0.66448 0.64196 0.86495
 C2152 C 0.65809 0.66796 0.83437
 C2153 C 0.62813 0.67286 0.82196
 C2154 C 0.60503 0.65242 0.83961
 H2155 H 0.56522 0.61035 0.87784
 H2156 H 0.67015 0.59089 0.92372
 H2157 H 0.68739 0.63783 0.87484
 H2158 H 0.58224 0.65681 0.82937
 H2159 H 0.62962 0.55525 0.95475
 H2160 H 0.62238 0.69251 0.79835
 C2161 C 0.87734 0.91771 0.93402
 C2162 C 0.90708 0.91479 0.92029
 C2163 C 0.91323 0.89219 0.88679
 C2164 C 0.89000 0.87323 0.86698
 C2165 C 0.86021 0.87658 0.88092
 C2166 C 0.85415 0.89872 0.91459
 C2167 C 0.83696 0.85773 0.86099
 C2168 C 0.84309 0.83540 0.82727
 C2169 C 0.87286 0.83237 0.81368
 C2170 C 0.89606 0.85113 0.83330
 H2171 H 0.93598 0.88981 0.87569
 H2172 H 0.83147 0.90153 0.92579
 H2173 H 0.81420 0.86020 0.87203
 H2174 H 0.91875 0.84831 0.82213
 H2175 H 0.87192 0.93475 0.95984
 H2176 H 0.87831 0.81548 0.78775
   
