data_POSCAR
  _audit_creation_date              2014-09-24
  _audit_creation_method            'ToBaCCo'
  _symmetry_space_group_name_H-M    'P1'
  _symmetry_Int_Tables_number       1
  _symmetry_cell_setting            triclinic
  loop_
  _symmetry_equiv_pos_as_xyz
 x,y,z
_cell_length_a 73.5694
_cell_length_b 73.5543
_cell_length_c 73.4886
_cell_angle_alpha 90.005300
_cell_angle_beta 89.992400
_cell_angle_gamma 89.975200
loop_
  _atom_site_label
  _atom_site_type_symbol
  _atom_site_fract_x
  _atom_site_fract_y
  _atom_site_fract_z
C1 C 0.34212 1.36640 0.34232
 C2 C 0.34997 1.37408 0.32671
 C3 C 0.36552 1.36627 0.31892
 C4 C 0.37338 1.35076 0.32674
 C5 C 0.36570 1.34291 0.34235
 C6 C 0.34999 1.35074 0.35019
 C7 C 0.32644 1.37399 0.35010
 C8 C 0.31858 1.36608 0.36557
 C9 C 0.32640 1.35057 0.37342
 C10 C 0.34208 1.34281 0.36581
 C11 C 0.34990 1.32717 0.37344
 C12 C 0.36544 1.31942 0.36563
 C13 C 0.37334 1.32727 0.35016
 H14 H 0.34392 1.38606 0.32056
 H15 H 0.38538 1.34474 0.32062
 H16 H 0.32029 1.38597 0.34406
 H17 H 0.32023 1.34447 0.38536
 H18 H 0.34386 1.32095 0.38538
 H19 H 0.38534 1.32113 0.34418
 C20 C 0.34165 0.86597 0.84259
 C21 C 0.34950 0.87368 0.82699
 C22 C 0.36506 0.86589 0.81922
 C23 C 0.37294 0.85040 0.82702
 C24 C 0.36527 0.84252 0.84261
 C25 C 0.34955 0.85031 0.85045
 C26 C 0.32595 0.87353 0.85037
 C27 C 0.31810 0.86558 0.86583
 C28 C 0.32594 0.85008 0.87366
 C29 C 0.34164 0.84235 0.86606
 C30 C 0.34947 0.82671 0.87367
 C31 C 0.36503 0.81899 0.86585
 C32 C 0.37293 0.82688 0.85041
 H33 H 0.34347 0.88563 0.82081
 H34 H 0.38495 0.84445 0.82087
 H35 H 0.31978 0.88550 0.84433
 H36 H 0.31977 0.84396 0.88560
 H37 H 0.34343 0.82046 0.88559
 H38 H 0.38495 0.82076 0.84443
 C39 C 0.84227 1.36603 0.84179
 C40 C 0.85005 1.37374 0.82616
 C41 C 0.86559 1.36596 0.81831
 C42 C 0.87350 1.35045 0.82610
 C43 C 0.86589 1.34258 0.84173
 C44 C 0.85020 1.35038 0.84962
 C45 C 0.82661 1.37359 0.84964
 C46 C 0.81884 1.36567 0.86513
 C47 C 0.82671 1.35018 0.87295
 C48 C 0.84236 1.34244 0.86528
 C49 C 0.85023 1.32682 0.87289
 C50 C 0.86575 1.31908 0.86500
 C51 C 0.87358 1.32694 0.84951
 H52 H 0.84396 1.38571 0.82004
 H53 H 0.88550 1.34446 0.81993
 H54 H 0.82038 1.38555 0.84366
 H55 H 0.82056 1.34412 0.88492
 H56 H 0.84425 1.32059 0.88485
 H57 H 0.88557 1.32082 0.84348
 C58 C 0.84255 0.86603 0.34203
 C59 C 0.85039 0.87372 0.32643
 C60 C 0.86594 0.86592 0.31864
 C61 C 0.87382 0.85042 0.32645
 C62 C 0.86615 0.84256 0.34206
 C63 C 0.85044 0.85037 0.34990
 C64 C 0.82686 0.87360 0.34982
 C65 C 0.81903 0.86568 0.36528
 C66 C 0.82685 0.85018 0.37313
 C67 C 0.84253 0.84243 0.36552
 C68 C 0.85036 0.82680 0.37315
 C69 C 0.86590 0.81905 0.36532
 C70 C 0.87380 0.82692 0.34986
 H71 H 0.84432 0.88569 0.32028
 H72 H 0.88583 0.84442 0.32033
 H73 H 0.82067 0.88556 0.34382
 H74 H 0.82065 0.84412 0.38507
 H75 H 0.84432 0.82057 0.38508
 H76 H 0.88580 0.82078 0.34388
 C77 C 0.65771 0.63414 0.34207
 C78 C 0.65001 0.62655 0.32635
 C79 C 0.63443 0.63431 0.31857
 C80 C 0.62639 0.64966 0.32652
 C81 C 0.63392 0.65742 0.34224
 C82 C 0.64966 0.64966 0.35007
 C83 C 0.67344 0.62664 0.34982
 C84 C 0.68116 0.63448 0.36538
 C85 C 0.67317 0.64982 0.37336
 C86 C 0.65745 0.65750 0.36579
 C87 C 0.64948 0.67301 0.37353
 C88 C 0.63391 0.68072 0.36572
 C89 C 0.62613 0.67294 0.35016
 H90 H 0.65621 0.61471 0.32010
 H91 H 0.61437 0.65564 0.32039
 H92 H 0.67977 0.61480 0.34371
 H93 H 0.67930 0.65583 0.38537
 H94 H 0.65544 0.67918 0.38554
 H95 H 0.61412 0.67905 0.34418
 C96 C 0.65832 0.13403 0.84228
 C97 C 0.65035 0.12631 0.82676
 C98 C 0.63475 0.13410 0.81909
 C99 C 0.62695 0.14962 0.82691
 C100 C 0.63474 0.15753 0.84242
 C101 C 0.65050 0.14972 0.85017
 C102 C 0.67408 0.12649 0.84994
 C103 C 0.68207 0.13446 0.86531
 C104 C 0.67429 0.14999 0.87318
 C105 C 0.65854 0.15771 0.86569
 C106 C 0.65080 0.17340 0.87331
 C107 C 0.63521 0.18114 0.86558
 C108 C 0.62718 0.17321 0.85022
 H109 H 0.65632 0.11433 0.82056
 H110 H 0.61491 0.15559 0.82082
 H111 H 0.68019 0.11450 0.84387
 H112 H 0.68058 0.15614 0.88504
 H113 H 0.65695 0.17968 0.88516
 H114 H 0.61515 0.17935 0.84429
 C115 C 1.15809 0.63384 0.84278
 C116 C 1.15026 0.62609 0.82721
 C117 C 1.13461 0.63374 0.81951
 C118 C 1.12661 0.64915 0.82736
 C119 C 1.13426 0.65708 0.84293
 C120 C 1.15008 0.64942 0.85070
 C121 C 1.17390 0.62643 0.85047
 C122 C 1.18175 0.63442 0.86590
 C123 C 1.17379 0.64984 0.87381
 C124 C 1.15798 0.65743 0.86629
 C125 C 1.15004 0.67299 0.87395
 C126 C 1.13438 0.68058 0.86620
 C127 C 1.12650 0.67264 0.85078
 H128 H 1.15638 0.61419 0.82098
 H129 H 1.11453 0.65500 0.82125
 H130 H 1.18015 0.61453 0.84438
 H131 H 1.17997 0.65601 0.88571
 H132 H 1.15607 0.67928 0.88586
 H133 H 1.11442 0.67866 0.84484
 C134 C 1.15803 0.13384 0.34187
 C135 C 1.15017 0.12615 0.32628
 C136 C 1.13451 0.13386 0.31860
 C137 C 1.12656 0.14927 0.32653
 C138 C 1.13425 0.15713 0.34213
 C139 C 1.15006 0.14941 0.34985
 C140 C 1.17383 0.12637 0.34953
 C141 C 1.18171 0.13430 0.36498
 C142 C 1.17378 0.14971 0.37294
 C143 C 1.15798 0.15734 0.36546
 C144 C 1.15008 0.17289 0.37319
 C145 C 1.13444 0.18055 0.36548
 C146 C 1.12652 0.17268 0.35004
 H147 H 1.15629 0.11426 0.32004
 H148 H 1.11447 0.15521 0.32050
 H149 H 1.18006 0.11448 0.34339
 H150 H 1.17998 0.15582 0.38487
 H151 H 1.15613 0.17913 0.38511
 H152 H 1.11445 0.17875 0.34413
 C153 C 0.65881 1.36541 0.65807
 C154 C 0.65088 1.37293 0.67372
 C155 C 0.63531 1.36504 0.68134
 C156 C 0.62750 1.34962 0.67334
 C157 C 0.63526 1.34192 0.65769
 C158 C 0.65099 1.34983 0.65000
 C159 C 0.67453 1.37308 0.65045
 C160 C 0.68247 1.36532 0.63494
 C161 C 0.67470 1.34989 0.62689
 C162 C 0.65898 1.34206 0.63434
 C163 C 0.65122 1.32649 0.62651
 C164 C 0.63564 1.31866 0.63418
 C165 C 0.62767 1.32636 0.64969
 H166 H 0.65685 1.38484 0.68005
 H167 H 0.61548 1.34358 0.67937
 H168 H 0.68064 1.38499 0.65665
 H169 H 0.68094 1.34392 0.61491
 H170 H 0.65732 1.32039 0.61454
 H171 H 0.61565 1.32016 0.65555
 C172 C 0.65714 0.86619 1.15798
 C173 C 0.64920 0.87372 1.17362
 C174 C 0.63371 0.86574 1.18133
 C175 C 0.62600 0.85021 1.17341
 C176 C 0.63377 0.84251 1.15777
 C177 C 0.64941 0.85051 1.15000
 C178 C 0.67276 0.87395 1.15026
 C179 C 0.68069 0.86620 1.13476
 C180 C 0.67303 0.85068 1.12680
 C181 C 0.65741 0.84275 1.13433
 C182 C 0.64974 0.82709 1.12659
 C183 C 0.63426 0.81917 1.13434
 C184 C 0.62628 0.82686 1.14984
 H185 H 0.65513 0.88571 1.17984
 H186 H 0.61404 0.84406 1.17948
 H187 H 0.67883 0.88593 1.15635
 H188 H 0.67931 0.84476 1.11483
 H189 H 0.65585 0.82100 1.11462
 H190 H 0.61432 0.82058 1.15577
 C191 C 1.15775 1.36631 1.15690
 C192 C 1.14985 1.37390 1.17254
 C193 C 1.13432 1.36602 1.18024
 C194 C 1.12650 1.35056 1.17235
 C195 C 1.13422 1.34278 1.15672
 C196 C 1.14992 1.35067 1.14894
 C197 C 1.17343 1.37395 1.14919
 C198 C 1.18133 1.36612 1.13370
 C199 C 1.17355 1.35063 1.12576
 C200 C 1.15788 1.34282 1.13330
 C201 C 1.15011 1.32720 1.12558
 C202 C 1.13458 1.31939 1.13335
 C203 C 1.12663 1.32717 1.14882
 H204 H 1.15583 1.38584 1.17879
 H205 H 1.11451 1.34453 1.17845
 H206 H 1.17955 1.38591 1.15531
 H207 H 1.17977 1.34460 1.11380
 H208 H 1.15620 1.32104 1.11364
 H209 H 1.11464 1.32098 1.15476
 C210 C 1.15832 0.86584 0.65756
 C211 C 1.15041 0.87331 0.67324
 C212 C 1.13491 0.86534 0.68092
 C213 C 1.12716 0.84988 0.67295
 C214 C 1.13489 0.84222 0.65727
 C215 C 1.15055 0.85021 0.64952
 C216 C 1.17395 0.87360 0.64987
 C217 C 1.18186 0.86590 0.63431
 C218 C 1.17414 0.85043 0.62629
 C219 C 1.15851 0.84250 0.63381
 C220 C 1.15079 0.82689 0.62601
 C221 C 1.13530 0.81897 0.63375
 C222 C 1.12735 0.82662 0.64929
 H223 H 1.15634 0.88525 0.67955
 H224 H 1.11519 0.84377 0.67903
 H225 H 1.18002 0.88554 0.65605
 H226 H 1.18036 0.84450 0.61428
 H227 H 1.15687 0.82083 0.61401
 H228 H 1.11539 0.82035 0.65521
 C229 C 0.34310 0.63334 0.65669
 C230 C 0.35082 0.62558 0.67231
 C231 C 0.36628 0.63336 0.68026
 C232 C 0.37419 0.64890 0.67261
 C233 C 0.36664 0.65684 0.65699
 C234 C 0.35102 0.64905 0.64897
 C235 C 0.32749 0.62580 0.64875
 C236 C 0.31976 0.63379 0.63328
 C237 C 0.32761 0.64934 0.62556
 C238 C 0.34322 0.65706 0.63333
 C239 C 0.35108 0.67275 0.62585
 C240 C 0.36654 0.68047 0.63385
 C241 C 0.37432 0.67253 0.64933
 H242 H 0.34477 0.61358 0.67838
 H243 H 0.38612 0.65485 0.67891
 H244 H 0.32127 0.61380 0.65465
 H245 H 0.32148 0.65546 0.61362
 H246 H 0.34513 0.67904 0.61391
 H247 H 0.38625 0.67866 0.65546
 C248 C 0.34244 0.13373 1.15777
 C249 C 0.35012 0.12600 1.17344
 C250 C 0.36561 0.13377 1.18138
 C251 C 0.37356 0.14927 1.17367
 C252 C 0.36605 0.15717 1.15800
 C253 C 0.35041 0.14939 1.15000
 C254 C 0.32682 0.12619 1.14983
 C255 C 0.31914 0.13415 1.13431
 C256 C 0.32704 0.14964 1.12655
 C257 C 0.34266 0.15735 1.13431
 C258 C 0.35057 0.17298 1.12678
 C259 C 0.36604 0.18069 1.13477
 C260 C 0.37378 0.17280 1.15029
 H261 H 0.34400 0.11403 1.17951
 H262 H 0.38552 0.15525 1.17991
 H263 H 0.32056 0.11423 1.15577
 H264 H 0.32096 0.15572 1.11457
 H265 H 0.34466 0.17923 1.11479
 H266 H 0.38572 0.17892 1.15640
 C267 C 0.84281 0.63343 1.15671
 C268 C 0.85055 0.62570 1.17234
 C269 C 0.86601 0.63349 1.18025
 C270 C 0.87391 0.64902 1.17257
 C271 C 0.86635 0.65694 1.15695
 C272 C 0.85072 0.64913 1.14896
 C273 C 0.82719 0.62588 1.14879
 C274 C 0.81945 0.63385 1.13331
 C275 C 0.82730 0.64938 1.12557
 C276 C 0.84291 0.65712 1.13331
 C277 C 0.85075 0.67280 1.12580
 C278 C 0.86621 0.68054 1.13378
 C279 C 0.87401 0.67262 1.14926
 H280 H 0.84450 0.61370 1.17843
 H281 H 0.88585 0.65499 1.17885
 H282 H 0.82097 0.61389 1.15471
 H283 H 0.82116 0.65548 1.11361
 H284 H 0.84478 0.67907 1.11385
 H285 H 0.88595 0.67876 1.15537
 C286 C 0.84061 0.13479 0.65901
 C287 C 0.84841 0.12705 0.67463
 C288 C 0.86389 0.13487 0.68253
 C289 C 0.87174 0.15043 0.67482
 C290 C 0.86412 0.15833 0.65921
 C291 C 0.84848 0.15050 0.65125
 C292 C 0.82499 0.12720 0.65112
 C293 C 0.81718 0.13516 0.63565
 C294 C 0.82501 0.15073 0.62791
 C295 C 0.84063 0.15848 0.63562
 C296 C 0.84843 0.17418 0.62810
 C297 C 0.86391 0.18194 0.63604
 C298 C 0.87174 0.17403 0.65151
 H299 H 0.84236 0.11504 0.68069
 H300 H 0.88368 0.15645 0.68103
 H301 H 0.81884 0.11518 0.65708
 H302 H 0.81887 0.15686 0.61596
 H303 H 0.84243 0.18044 0.61617
 H304 H 0.88369 0.18018 0.65759
 C305 C 1.36569 0.34119 0.65865
 C306 C 1.37321 0.34883 0.67443
 C307 C 1.36528 0.36424 0.68239
 C308 C 1.34981 0.37217 0.67455
 C309 C 1.34212 0.36469 0.65877
 C310 C 1.35006 0.34913 0.65077
 C311 C 1.37339 0.32564 0.65071
 C312 C 1.36564 0.31798 0.63505
 C313 C 1.35017 0.32587 0.62719
 C314 C 1.34230 0.34142 0.63496
 C315 C 1.32669 0.34929 0.62732
 C316 C 1.31881 0.36468 0.63531
 C317 C 1.32651 0.37239 0.65095
 H318 H 1.38515 0.34273 0.68059
 H319 H 1.34370 0.38406 0.68081
 H320 H 1.38533 0.31943 0.65676
 H321 H 1.34420 0.31985 0.61511
 H322 H 1.32059 0.34340 0.61525
 H323 H 1.32026 0.38427 0.65706
 C324 C 1.36669 0.84252 1.15665
 C325 C 1.37428 0.85042 1.17228
 C326 C 1.36636 0.86592 1.18002
 C327 C 1.35086 0.87371 1.17216
 C328 C 1.34310 0.86600 1.15653
 C329 C 1.35103 0.85032 1.14872
 C330 C 1.37438 0.82687 1.14891
 C331 C 1.36656 0.81896 1.13342
 C332 C 1.35105 0.82671 1.12550
 C333 C 1.34319 0.84237 1.13307
 C334 C 1.32754 0.85011 1.12539
 C335 C 1.31969 0.86561 1.13319
 C336 C 1.32745 0.87356 1.14867
 H337 H 1.38624 0.84446 1.17851
 H338 H 1.34480 0.88568 1.17829
 H339 H 1.38635 0.82077 1.15501
 H340 H 1.34502 0.82050 1.11354
 H341 H 1.32139 0.84403 1.11344
 H342 H 1.32123 0.88553 1.15463
 C343 C 0.86615 0.34198 1.15714
 C344 C 0.87380 0.34981 1.17277
 C345 C 0.86595 0.36532 1.18057
 C346 C 0.85044 0.37316 1.17278
 C347 C 0.84261 0.36551 1.15716
 C348 C 0.85048 0.34984 1.14928
 C349 C 0.87378 0.32633 1.14933
 C350 C 0.86590 0.31850 1.13383
 C351 C 0.85038 0.32631 1.12598
 C352 C 0.84258 0.34195 1.13363
 C353 C 0.82694 0.34976 1.12601
 C354 C 0.81914 0.36526 1.13387
 C355 C 0.82696 0.37313 1.14936
 H356 H 0.88578 0.34381 1.17894
 H357 H 0.84444 0.38513 1.17897
 H358 H 0.88576 0.32019 1.15537
 H359 H 0.84432 0.32016 1.11401
 H360 H 0.82074 0.34375 1.11404
 H361 H 0.82079 0.38510 1.15538
 C362 C 0.86648 0.84294 0.65690
 C363 C 0.87408 0.85077 0.67256
 C364 C 0.86616 0.86622 0.68039
 C365 C 0.85064 0.87403 0.67260
 C366 C 0.84285 0.86638 0.65694
 C367 C 0.85079 0.85076 0.64904
 C368 C 0.87418 0.82734 0.64907
 C369 C 0.86635 0.81952 0.63356
 C370 C 0.85082 0.82726 0.62571
 C371 C 0.84295 0.84286 0.63337
 C372 C 0.82727 0.85061 0.62575
 C373 C 0.81940 0.86607 0.63363
 C374 C 0.82718 0.87396 0.64914
 H375 H 0.88607 0.84479 0.67874
 H376 H 0.84458 0.88596 0.67880
 H377 H 0.88617 0.82121 0.65508
 H378 H 0.84483 0.82106 0.61374
 H379 H 0.82111 0.84458 0.61378
 H380 H 0.82095 0.88589 0.65517
 C381 C 0.63367 0.65715 0.65727
 C382 C 0.62589 0.64921 0.67277
 C383 C 0.63369 0.63366 0.68053
 C384 C 0.64927 0.62587 0.67281
 C385 C 0.65723 0.63363 0.65731
 C386 C 0.64942 0.64936 0.64948
 C387 C 0.62613 0.67288 0.64954
 C388 C 0.63417 0.68084 0.63421
 C389 C 0.64974 0.67311 0.62642
 C390 C 0.65746 0.65738 0.63398
 C391 C 0.67320 0.64967 0.62646
 C392 C 0.68095 0.63412 0.63427
 C393 C 0.67297 0.62610 0.64961
 H394 H 0.61387 0.65517 0.67890
 H395 H 0.65524 0.61387 0.67898
 H396 H 0.61412 0.67902 0.65550
 H397 H 0.65590 0.67943 0.61460
 H398 H 0.67953 0.65582 0.61463
 H399 H 0.67912 0.61410 0.65560
 C400 C 0.63355 1.15796 1.15723
 C401 C 0.62589 1.14990 1.17274
 C402 C 0.63389 1.13444 1.18047
 C403 C 0.64956 1.12686 1.17272
 C404 C 0.65739 1.13474 1.15721
 C405 C 0.64938 1.15037 1.14941
 C406 C 0.62578 1.17358 1.14951
 C407 C 0.63367 1.18164 1.13413
 C408 C 0.64934 1.17410 1.12633
 C409 C 0.65728 1.15849 1.13388
 C410 C 0.67309 1.15096 1.12632
 C411 C 0.68104 1.13550 1.13411
 C412 C 0.67320 1.12739 1.14947
 H413 H 0.61380 1.15570 1.17889
 H414 H 0.65568 1.11492 1.17885
 H415 H 0.61368 1.17951 1.15553
 H416 H 0.65541 1.18045 1.11446
 H417 H 0.67930 1.15716 1.11446
 H418 H 0.67950 1.11546 1.15544
 C419 C 0.13381 0.65833 1.15836
 C420 C 0.12616 0.65032 1.17390
 C421 C 0.13411 0.63481 1.18162
 C422 C 0.14971 0.62714 1.17379
 C423 C 0.15752 0.63498 1.15825
 C424 C 0.14956 0.65065 1.15048
 C425 C 0.12609 0.67399 1.15065
 C426 C 0.13396 0.68202 1.13525
 C427 C 0.14957 0.67439 1.12739
 C428 C 0.15745 0.65873 1.13492
 C429 C 0.17320 0.65111 1.12730
 C430 C 0.18108 0.63561 1.13506
 C431 C 0.17326 0.62754 1.15044
 H432 H 0.11412 0.65623 1.18006
 H433 H 0.15583 0.61516 1.17986
 H434 H 0.11404 0.67999 1.15671
 H435 H 0.15564 0.68069 1.11550
 H436 H 0.17940 0.65729 1.11542
 H437 H 0.17951 0.61557 1.15638
 C438 C 0.13319 1.15693 0.65769
 C439 C 0.12547 1.14911 0.67330
 C440 C 0.13338 1.13369 0.68125
 C441 C 0.14902 1.12593 0.67359
 C442 C 0.15691 1.13358 0.65799
 C443 C 0.14898 1.14915 0.64999
 C444 C 0.12552 1.17249 0.64977
 C445 C 0.13348 1.18032 0.63432
 C446 C 0.14910 1.17260 0.62662
 C447 C 0.15695 1.15704 0.63437
 C448 C 0.17273 1.14935 0.62692
 C449 C 0.18059 1.13395 0.63491
 C450 C 0.17270 1.12606 0.65036
 H451 H 0.11340 1.15510 0.67933
 H452 H 0.15512 1.11403 0.67985
 H453 H 0.11346 1.17862 0.65566
 H454 H 0.15519 1.17880 0.61470
 H455 H 0.17898 1.15539 0.61500
 H456 H 0.17893 1.11418 0.65648
 C457 C 1.36595 0.65845 0.34193
 C458 C 1.37356 0.65056 0.32631
 C459 C 1.36571 0.63500 0.31858
 C460 C 1.35022 0.62719 0.32648
 C461 C 1.34244 0.63491 0.34210
 C462 C 1.35031 0.65061 0.34988
 C463 C 1.37359 0.67413 0.34966
 C464 C 1.36576 0.68201 0.36516
 C465 C 1.35028 0.67424 0.37309
 C466 C 1.34247 0.65856 0.36554
 C467 C 1.32685 0.65078 0.37325
 C468 C 1.31906 0.63523 0.36548
 C469 C 1.32683 0.62731 0.34999
 H470 H 1.38552 0.65657 0.32010
 H471 H 1.34418 0.61518 0.32040
 H472 H 1.38555 0.68024 0.34356
 H473 H 1.34425 0.68043 0.38506
 H474 H 1.32069 0.65684 0.38521
 H475 H 1.32066 0.61530 0.34406
 C476 C 1.36567 1.15843 0.84239
 C477 C 1.37324 1.15056 0.82673
 C478 C 1.36539 1.13500 0.81904
 C479 C 1.34997 1.12714 0.82697
 C480 C 1.34221 1.13483 0.84263
 C481 C 1.35008 1.15055 0.85039
 C482 C 1.37329 1.17412 0.85009
 C483 C 1.36550 1.18199 0.86562
 C484 C 1.35006 1.17416 0.87361
 C485 C 1.34227 1.15847 0.86607
 C486 C 1.32669 1.15066 0.87383
 C487 C 1.31889 1.13511 0.86607
 C488 C 1.32664 1.12720 0.85056
 H489 H 1.38515 1.15657 0.82045
 H490 H 1.34396 1.11513 0.82088
 H491 H 1.38521 1.18027 0.84394
 H492 H 1.34406 1.18034 0.88560
 H493 H 1.32055 1.15671 0.88581
 H494 H 1.32047 1.11519 0.84463
 C495 C 0.86611 0.65735 0.84291
 C496 C 0.87380 0.64953 0.82729
 C497 C 0.86588 0.63412 0.81937
 C498 C 0.85028 0.62635 0.82704
 C499 C 0.84241 0.63400 0.84266
 C500 C 0.85033 0.64957 0.85065
 C501 C 0.87377 0.67292 0.85082
 C502 C 0.86584 0.68074 0.86629
 C503 C 0.85024 0.67302 0.87402
 C504 C 0.84239 0.65746 0.86628
 C505 C 0.82663 0.64976 0.87376
 C506 C 0.81877 0.63437 0.86577
 C507 C 0.82665 0.62648 0.85032
 H508 H 0.88584 0.65548 0.82120
 H509 H 0.84422 0.61446 0.82077
 H510 H 0.88581 0.67904 0.84491
 H511 H 0.84417 0.67922 0.88595
 H512 H 0.82038 0.65580 0.88569
 H513 H 0.82041 0.61459 0.84420
 C514 C 0.86614 1.15726 0.34224
 C515 C 0.87378 1.14943 0.32661
 C516 C 0.86592 1.13392 0.31880
 C517 C 0.85041 1.12608 0.32662
 C518 C 0.84260 1.13375 0.34226
 C519 C 0.85047 1.14941 0.35012
 C520 C 0.87376 1.17291 0.35005
 C521 C 0.86589 1.18074 0.36554
 C522 C 0.85039 1.17295 0.37340
 C523 C 0.84258 1.15731 0.36578
 C524 C 0.82694 1.14953 0.37341
 C525 C 0.81914 1.13403 0.36557
 C526 C 0.82695 1.12614 0.35008
 H527 H 0.88576 1.15546 0.32045
 H528 H 0.84436 1.11411 0.32048
 H529 H 0.88573 1.17908 0.34404
 H530 H 0.84436 1.17916 0.38536
 H531 H 0.82075 1.15557 0.38537
 H532 H 0.82077 1.11417 0.34407
 C533 C 0.63402 0.34254 0.34223
 C534 C 0.62634 0.35034 0.32659
 C535 C 0.63419 0.36582 0.31872
 C536 C 0.64972 0.37368 0.32649
 C537 C 0.65757 0.36605 0.34212
 C538 C 0.64971 0.35040 0.35004
 C539 C 0.62640 0.32692 0.35008
 C540 C 0.63431 0.31912 0.36556
 C541 C 0.64983 0.32691 0.37337
 C542 C 0.65762 0.34253 0.36569
 C543 C 0.67330 0.35031 0.37326
 C544 C 0.68109 0.36578 0.36536
 C545 C 0.67324 0.37365 0.34988
 H546 H 0.61435 0.34429 0.32048
 H547 H 0.65576 0.38563 0.32030
 H548 H 0.61442 0.32075 0.34411
 H549 H 0.65589 0.32072 0.38532
 H550 H 0.67952 0.34429 0.38521
 H551 H 0.67942 0.38560 0.34383
 C552 C 0.63383 0.84255 0.84280
 C553 C 0.62613 0.85036 0.82718
 C554 C 0.63392 0.86588 0.81937
 C555 C 0.64940 0.87379 0.82715
 C556 C 0.65727 0.86616 0.84277
 C557 C 0.64947 0.85046 0.85065
 C558 C 0.62627 0.82688 0.85061
 C559 C 0.63420 0.81908 0.86609
 C560 C 0.64968 0.82692 0.87392
 C561 C 0.65741 0.84259 0.86629
 C562 C 0.67303 0.85044 0.87390
 C563 C 0.68076 0.86598 0.86604
 C564 C 0.67289 0.87383 0.85057
 H565 H 0.61418 0.84431 0.82101
 H566 H 0.65535 0.88577 0.82096
 H567 H 0.61431 0.82067 0.84462
 H568 H 0.65575 0.82073 0.88587
 H569 H 0.67927 0.84443 0.88585
 H570 H 0.67902 0.88583 0.84455
 C571 C 0.13381 0.34162 0.84285
 C572 C 0.12605 0.34941 0.82726
 C573 C 0.13379 0.36494 0.81940
 C574 C 0.14930 0.37285 0.82710
 C575 C 0.15725 0.36524 0.84269
 C576 C 0.14949 0.34955 0.85063
 C577 C 0.12630 0.32595 0.85071
 C578 C 0.13429 0.31816 0.86618
 C579 C 0.14982 0.32604 0.87394
 C580 C 0.15750 0.34171 0.86624
 C581 C 0.17316 0.34958 0.87377
 C582 C 0.18084 0.36510 0.86586
 C583 C 0.17290 0.37292 0.85040
 H584 H 0.11407 0.34336 0.82115
 H585 H 0.15522 0.38483 0.82088
 H586 H 0.11431 0.31976 0.84474
 H587 H 0.15597 0.31991 0.88588
 H588 H 0.17944 0.34359 0.88571
 H589 H 0.17900 0.38491 0.84434
 C590 C 0.13440 0.84105 0.34157
 C591 C 0.12664 0.84880 0.32595
 C592 C 0.13436 0.86434 0.31807
 C593 C 0.14985 0.87229 0.32580
 C594 C 0.15778 0.86472 0.34142
 C595 C 0.15005 0.84902 0.34935
 C596 C 0.12690 0.82538 0.34945
 C597 C 0.13488 0.81763 0.36495
 C598 C 0.15038 0.82555 0.37271
 C599 C 0.15805 0.84122 0.36500
 C600 C 0.17367 0.84914 0.37256
 C601 C 0.18132 0.86468 0.36464
 C602 C 0.17340 0.87246 0.34915
 H603 H 0.11467 0.84268 0.31987
 H604 H 0.15579 0.88430 0.31961
 H605 H 0.11493 0.81916 0.34348
 H606 H 0.15653 0.81946 0.38467
 H607 H 0.17994 0.84319 0.38451
 H608 H 0.17947 0.88446 0.34310
 O609 O 0.98224 0.93437 0.90958
 O610 O 0.98215 0.91320 0.88832
 C611 C 0.97602 0.92802 0.89476
 C612 C 0.96125 0.93781 0.88518
 C613 C 0.95521 0.93198 0.86800
 H614 H 0.96169 0.92053 0.86134
 O615 O 1.01788 1.06546 0.90933
 O616 O 1.01800 1.08656 0.88802
 C617 C 1.02413 1.07176 0.89450
 C618 C 1.03892 1.06195 0.88498
 C619 C 1.04497 1.06772 0.86779
 H620 H 1.03849 1.07915 0.86109
 O621 O 0.90945 0.98256 0.93436
 O622 O 0.88819 0.98254 0.91321
 C623 C 0.89463 0.97638 0.92803
 C624 C 0.88506 0.96161 0.93781
 C625 C 0.86790 0.95558 0.93196
 H626 H 0.86126 0.96206 0.92050
 O627 O 1.09068 1.01739 0.93439
 O628 O 1.11196 1.01734 0.91326
 C629 C 1.10551 1.02355 0.92805
 C630 C 1.11506 1.03836 0.93779
 C631 C 1.13221 1.04440 0.93195
 H632 H 1.13887 1.03791 0.92050
 O633 O 0.93414 0.90972 0.98250
 O634 O 0.91298 0.88850 0.98249
 C635 C 0.92778 0.89491 0.97631
 C636 C 0.93751 0.88532 0.96150
 C637 C 0.93166 0.86816 0.95548
 H638 H 0.92022 0.86153 0.96199
 O639 O 1.06582 1.09033 0.98225
 O640 O 1.08699 1.11154 0.98224
 C641 C 1.07220 1.10512 0.97603
 C642 C 1.06252 1.11467 0.96117
 C643 C 1.06842 1.13180 0.95510
 H644 H 1.07986 1.13843 0.96161
 O645 O 0.93438 1.01792 0.90936
 O646 O 0.91325 1.01794 0.88808
 C647 C 0.92804 1.02411 0.89452
 C648 C 0.93777 1.03892 0.88495
 C649 C 0.93181 1.04508 0.86786
 H650 H 0.92030 1.03867 0.86127
 O651 O 1.06575 0.98196 0.90951
 O652 O 1.08690 0.98185 0.88824
 C653 C 1.07209 0.97572 0.89469
 C654 C 1.06233 0.96091 0.88516
 C655 C 1.06819 0.95479 0.86802
 H656 H 1.07966 0.96121 0.86136
 O657 O 1.01759 0.90936 0.93454
 O658 O 1.01754 0.88806 0.91342
 C659 C 1.02374 0.89451 0.92822
 C660 C 1.03851 0.88491 0.93799
 C661 C 1.04453 0.86774 0.93215
 H662 H 1.03804 0.86110 0.92069
 O663 O 0.98251 1.09055 0.93417
 O664 O 0.98258 1.11180 0.91300
 C665 C 0.97637 1.10538 0.92781
 C666 C 0.96158 1.11500 0.93754
 C667 C 0.95555 1.13214 0.93164
 H668 H 0.96203 1.13874 0.92016
 O669 O 0.90966 1.06601 0.98221
 O670 O 0.88846 1.08722 0.98217
 C671 C 0.89487 1.07240 0.97600
 C672 C 0.88531 1.06270 0.96115
 C673 C 0.86825 1.06871 0.95498
 H674 H 0.86168 1.08024 0.96139
 O675 O 1.09041 0.93403 0.98254
 O676 O 1.11162 0.91284 0.98255
 C677 C 1.10521 0.92763 0.97634
 C678 C 1.11478 0.93732 0.96149
 C679 C 1.13189 0.93137 0.95540
 H680 H 1.13849 0.91990 0.96189
 O681 O 0.98242 1.06568 0.90923
 O682 O 0.98249 1.08680 0.88793
 C683 C 0.97624 1.07205 0.89440
 C684 C 0.96136 1.06238 0.88488
 C685 C 0.95518 1.06834 0.86779
 H686 H 0.96163 1.07980 0.86114
 O687 O 1.01769 0.93420 0.90956
 O688 O 1.01765 0.91303 0.88831
 C689 C 1.02388 0.92780 0.89475
 C690 C 1.03874 0.93746 0.88519
 C691 C 1.04481 0.93154 0.86805
 H692 H 1.03831 0.92010 0.86141
 O693 O 1.09057 0.98193 0.93447
 O694 O 1.11186 0.98182 0.91334
 C695 C 1.10538 0.97567 0.92814
 C696 C 1.11487 0.96083 0.93791
 C697 C 1.13198 0.95467 0.93204
 H698 H 1.13865 0.96111 0.92058
 O699 O 0.90952 1.01802 0.93430
 O700 O 0.88826 1.01804 0.91314
 C701 C 0.89473 1.02425 0.92793
 C702 C 0.88523 1.03913 0.93763
 C703 C 0.86818 1.04535 0.93167
 H704 H 0.86154 1.03893 0.92017
 O705 O 0.93462 1.09082 0.98220
 O706 O 0.91356 1.11216 0.98216
 C707 C 0.92832 1.10564 0.97598
 C708 C 0.93807 1.11513 0.96112
 C709 C 0.93225 1.13227 0.95500
 H710 H 0.92083 1.13897 0.96147
 O711 O 1.06546 0.90922 0.98258
 O712 O 1.08653 0.88789 0.98260
 C713 C 1.07177 0.89438 0.97640
 C714 C 1.06201 0.88485 0.96157
 C715 C 1.06783 0.86769 0.95551
 H716 H 1.07924 0.86100 0.96200
 O717 O 1.06579 1.01741 0.90947
 O718 O 1.08694 1.01736 0.88820
 C719 C 1.07215 1.02357 0.89464
 C720 C 1.06243 1.03838 0.88504
 C721 C 1.06826 1.04437 0.86785
 H722 H 1.07968 1.03784 0.86119
 O723 O 0.93438 0.98247 0.90948
 O724 O 0.91325 0.98243 0.88819
 C725 C 0.92803 0.97624 0.89466
 C726 C 0.93776 0.96139 0.88514
 C727 C 0.93194 0.95535 0.86797
 H728 H 0.92053 0.96186 0.86128
 O729 O 1.01795 1.09044 0.93417
 O730 O 1.01808 1.11168 0.91299
 C731 C 1.02421 1.10522 0.92781
 C732 C 1.03904 1.11472 0.93757
 C733 C 1.04515 1.13185 0.93172
 H734 H 1.03871 1.13852 0.92025
 O735 O 0.98214 0.90951 0.93452
 O736 O 0.98205 0.88820 0.91340
 C737 C 0.97589 0.89471 0.92819
 C738 C 0.96105 0.88522 0.93796
 C739 C 0.95498 0.86807 0.93215
 H740 H 0.96147 0.86137 0.92073
 O741 O 1.09066 1.06537 0.98233
 O742 O 1.11196 1.08646 0.98231
 C743 C 1.10549 1.07168 0.97614
 C744 C 1.11505 1.06190 0.96133
 C745 C 1.13220 1.06773 0.95528
 H746 H 1.13885 1.07917 0.96177
 O747 O 0.90933 0.93470 0.98246
 O748 O 0.88803 0.91361 0.98245
 C749 C 0.89451 0.92838 0.97625
 C750 C 0.88499 0.93812 0.96141
 C751 C 0.86784 0.93231 0.95535
 H752 H 0.86115 0.92090 0.96186
 Cu753 Cu 0.99992 0.92398 0.92416
 Cu754 Cu 0.99984 0.89849 0.89873
 Cu755 Cu 1.00018 1.07591 0.92384
 Cu756 Cu 1.00030 1.10134 0.89835
 Cu757 Cu 0.92405 1.00024 0.92399
 Cu758 Cu 0.89861 1.00023 0.89852
 Cu759 Cu 1.07608 0.99968 0.92408
 Cu760 Cu 1.10155 0.99959 0.89863
 C761 C 0.95254 0.95264 0.89355
 H762 H 0.95696 0.95707 0.90689
 C763 C 0.94066 0.94075 0.85942
 C764 C 1.04763 1.04716 0.89341
 H765 H 1.04320 1.04278 0.90677
 C766 C 1.05953 1.05893 0.85925
 C767 C 0.89340 0.95289 0.95265
 H768 H 0.90673 0.95730 0.95709
 C769 C 0.85932 0.94104 0.94073
 C770 C 1.10668 1.04709 0.95261
 H771 H 1.09335 1.04267 0.95705
 C772 C 1.14075 1.05899 0.94069
 C773 C 0.95234 0.89366 0.95276
 H774 H 0.95678 0.90699 0.95716
 C775 C 0.94039 0.85956 0.94091
 C776 C 1.04770 1.10633 0.95242
 H777 H 1.04322 1.09303 0.95687
 C778 C 1.05974 1.14036 0.94048
 C779 C 0.95267 1.04755 0.89325
 H780 H 0.95719 1.04303 0.90653
 C781 C 0.94051 1.05968 0.85931
 C782 C 1.04748 0.95227 0.89354
 H783 H 1.04304 0.95675 0.90686
 C784 C 1.05944 0.94020 0.85950
 C785 C 1.04723 0.89326 0.95282
 H786 H 1.04282 0.90660 0.95726
 C787 C 1.05908 0.85916 0.94090
 C788 C 0.95287 1.10670 0.95241
 H789 H 0.95728 1.09338 0.95689
 C790 C 0.94099 1.14075 0.94036
 C791 C 0.89359 1.04779 0.95250
 H792 H 0.90684 1.04324 0.95703
 C793 C 0.85972 1.06004 0.94034
 C794 C 1.10647 0.95217 0.95276
 H795 H 1.09318 0.95668 0.95721
 C796 C 1.14046 0.94005 0.94079
 O797 O 1.01757 0.93445 1.09101
 O798 O 1.01750 0.91332 1.11230
 C799 C 1.02374 0.92808 1.10585
 C800 C 1.03860 0.93774 1.11539
 C801 C 1.04471 0.93181 1.13251
 H802 H 1.03823 0.92036 1.13915
 O803 O 0.98238 1.06581 1.09081
 O804 O 0.98240 1.08698 1.11206
 C805 C 0.97619 1.07220 1.10563
 C806 C 0.96135 1.06251 1.11519
 C807 C 0.95531 1.06837 1.13235
 H808 H 0.96183 1.07978 1.13902
 O809 O 0.90947 1.01813 1.06582
 O810 O 0.88819 1.01827 1.08695
 C811 C 0.89468 1.02441 1.07215
 C812 C 0.88521 1.03927 1.06239
 C813 C 0.86815 1.04550 1.06830
 H814 H 0.86149 1.03913 1.07981
 O815 O 1.09045 0.98209 1.06602
 O816 O 1.11174 0.98207 1.08714
 C817 C 1.10526 0.97588 1.07235
 C818 C 1.11478 0.96104 1.06260
 C819 C 1.13194 0.95499 1.06841
 H820 H 1.13863 0.96150 1.07983
 O821 O 1.06547 0.90927 1.01808
 O822 O 1.08655 0.88794 1.01815
 C823 C 1.07178 0.89445 1.02432
 C824 C 1.06202 0.88497 1.03919
 C825 C 1.06787 0.86785 1.04534
 H826 H 1.07931 0.86116 1.03890
 O827 O 0.93462 1.09083 1.01770
 O828 O 0.91355 1.11217 1.01770
 C829 C 0.92831 1.10567 1.02391
 C830 C 0.93804 1.11518 1.03877
 C831 C 0.93219 1.13232 1.04485
 H832 H 0.92078 1.13901 1.03834
 O833 O 0.93421 0.98260 1.09079
 O834 O 0.91305 0.98267 1.11206
 C835 C 0.92783 0.97643 1.10562
 C836 C 0.93752 0.96159 1.11520
 C837 C 0.93161 0.95554 1.13234
 H838 H 0.92015 0.96203 1.13896
 O839 O 1.06564 1.01764 1.09090
 O840 O 1.08679 1.01766 1.11216
 C841 C 1.07201 1.02386 1.10570
 C842 C 1.06232 1.03873 1.11523
 C843 C 1.06821 1.04483 1.13236
 H844 H 1.07964 1.03833 1.13902
 O845 O 0.98210 0.90969 1.06603
 O846 O 0.98197 0.88842 1.08718
 C847 C 0.97585 0.89489 1.07236
 C848 C 0.96104 0.88538 1.06258
 C849 C 0.95500 0.86822 1.06838
 H850 H 0.96149 0.86152 1.07980
 O851 O 1.01787 1.09055 1.06583
 O852 O 1.01794 1.11187 1.08694
 C853 C 1.02410 1.10536 1.07214
 C854 C 1.03890 1.11486 1.06234
 C855 C 1.04496 1.13203 1.06812
 H856 H 1.03849 1.13874 1.07955
 O857 O 0.90926 0.93470 1.01795
 O858 O 0.88797 0.91361 1.01798
 C859 C 0.89444 0.92839 1.02416
 C860 C 0.88490 0.93815 1.03898
 C861 C 0.86776 0.93231 1.04507
 H862 H 0.86111 0.92086 1.03861
 O863 O 1.09059 1.06541 1.01782
 O864 O 1.11189 1.08650 1.01784
 C865 C 1.10540 1.07174 1.02404
 C866 C 1.11491 1.06200 1.03890
 C867 C 1.13206 1.06784 1.04496
 H868 H 1.13873 1.07926 1.03846
 O869 O 1.01783 1.06574 1.09083
 O870 O 1.01791 1.08692 1.11207
 C871 C 1.02405 1.07210 1.10564
 C872 C 1.03886 1.06234 1.11520
 C873 C 1.04496 1.06823 1.13233
 H874 H 1.03852 1.07971 1.13897
 O875 O 0.98211 0.93458 1.09095
 O876 O 0.98199 0.91345 1.11224
 C877 C 0.97586 0.92825 1.10576
 C878 C 0.96103 0.93802 1.11527
 C879 C 0.95490 0.93218 1.13241
 H880 H 0.96135 0.92073 1.13909
 O881 O 1.09050 1.01755 1.06596
 O882 O 1.11179 1.01757 1.08709
 C883 C 1.10533 1.02373 1.07228
 C884 C 1.11488 1.03852 1.06250
 C885 C 1.13203 1.04457 1.06835
 H886 H 1.13868 1.03811 1.07981
 O887 O 0.90931 0.98267 1.06589
 O888 O 0.88802 0.98275 1.08702
 C889 C 0.89447 0.97653 1.07223
 C890 C 0.88491 0.96171 1.06250
 C891 C 0.86778 0.95566 1.06839
 H892 H 0.86113 0.96215 1.07984
 O893 O 1.06575 1.09037 1.01775
 O894 O 1.08692 1.11159 1.01777
 C895 C 1.07212 1.10518 1.02394
 C896 C 1.06239 1.11477 1.03875
 C897 C 1.06823 1.13194 1.04473
 H898 H 1.07965 1.13858 1.03819
 O899 O 0.93416 0.90980 1.01799
 O900 O 0.91300 0.88857 1.01801
 C901 C 0.92779 0.89500 1.02420
 C902 C 0.93752 0.88544 1.03902
 C903 C 0.93169 0.86827 1.04503
 H904 H 0.92027 0.86162 1.03852
 O905 O 1.06561 0.98218 1.09099
 O906 O 1.08676 0.98214 1.11225
 C907 C 1.07196 0.97598 1.10581
 C908 C 1.06221 0.96118 1.11538
 C909 C 1.06812 0.95503 1.13249
 H910 H 1.07961 0.96144 1.13912
 O911 O 0.93430 1.01805 1.09079
 O912 O 0.91315 1.01817 1.11206
 C913 C 0.92797 1.02429 1.10561
 C914 C 0.93775 1.03906 1.11518
 C915 C 0.93193 1.04513 1.13234
 H916 H 0.92048 1.03868 1.13901
 O917 O 0.98243 1.09066 1.06585
 O918 O 0.98245 1.11197 1.08697
 C919 C 0.97627 1.10551 1.07217
 C920 C 0.96149 1.11509 1.06240
 C921 C 0.95543 1.13224 1.06827
 H922 H 0.96187 1.13886 1.07975
 O923 O 1.01754 0.90956 1.06609
 O924 O 1.01746 0.88830 1.08725
 C925 C 1.02369 0.89472 1.07246
 C926 C 1.03849 0.88511 1.06274
 C927 C 1.04454 0.86799 1.06868
 H928 H 1.03806 0.86140 1.08016
 O929 O 1.09038 0.93411 1.01803
 O930 O 1.11161 0.91293 1.01809
 C931 C 1.10518 0.92774 1.02425
 C932 C 1.11474 0.93749 1.03906
 C933 C 1.13190 0.93165 1.04509
 H934 H 1.13856 0.92021 1.03859
 O935 O 0.90968 1.06601 1.01771
 O936 O 0.88848 1.08722 1.01771
 C937 C 0.89489 1.07241 1.02391
 C938 C 0.88532 1.06275 1.03877
 C939 C 0.86826 1.06876 1.04490
 H940 H 0.86168 1.08026 1.03843
 Cu941 Cu 0.99984 0.92419 1.07640
 Cu942 Cu 0.99972 0.89874 1.10188
 Cu943 Cu 1.00012 1.07606 1.07622
 Cu944 Cu 1.00018 1.10157 1.10164
 Cu945 Cu 0.92384 0.92435 1.00022
 Cu946 Cu 0.89836 0.89894 1.00024
 Cu947 Cu 1.07582 0.92378 1.00030
 Cu948 Cu 1.10120 0.89826 1.00035
 Cu949 Cu 0.92426 1.07629 0.99995
 Cu950 Cu 0.89889 1.10183 0.99994
 Cu951 Cu 1.07608 1.07576 1.00003
 Cu952 Cu 1.10158 1.10115 1.00004
 Cu953 Cu 0.92394 1.00035 1.07620
 Cu954 Cu 0.89847 1.00048 1.10165
 Cu955 Cu 1.07593 0.99986 1.07635
 Cu956 Cu 1.10140 0.99986 1.10179
 C957 C 1.04734 0.95255 1.10703
 H958 H 1.04286 0.95705 1.09373
 C959 C 1.05937 0.94044 1.14103
 C960 C 0.95259 1.04773 1.10680
 H961 H 0.95701 1.04329 1.09346
 C962 C 0.94071 1.05968 1.14091
 C963 C 0.89360 1.04787 1.04750
 H964 H 0.90686 1.04331 1.04301
 C965 C 0.85970 1.06015 1.05956
 C966 C 1.10638 0.95231 1.04780
 H967 H 1.09304 0.95674 1.04339
 C968 C 1.14048 0.94040 1.05966
 C969 C 1.04721 0.89341 1.04787
 H970 H 1.04278 0.90671 1.04336
 C971 C 1.05913 0.85939 1.05999
 C972 C 0.95281 1.10676 1.04752
 H973 H 0.95725 1.09344 1.04306
 C974 C 0.94088 1.14082 1.05950
 C975 C 0.95235 0.95285 1.10686
 H976 H 0.95684 0.95729 1.09354
 C977 C 0.94030 0.94094 1.14092
 C978 C 1.04752 1.04747 1.10685
 H979 H 1.04304 1.04300 1.09354
 C980 C 1.05954 1.05947 1.14089
 C981 C 0.95232 0.89380 1.04778
 H982 H 0.95674 0.90714 1.04338
 C983 C 0.94043 0.85968 1.05961
 C984 C 1.04760 1.10643 1.04754
 H985 H 1.04317 1.09308 1.04316
 C986 C 1.05952 1.14055 1.05931
 C987 C 0.89327 0.95298 1.04767
 H988 H 0.90658 0.95741 1.04321
 C989 C 0.85923 0.94106 1.05967
 C990 C 1.10652 1.04722 1.04765
 H991 H 1.09320 1.04279 1.04321
 C992 C 1.14059 1.05913 1.05958
 O993 O 1.06588 0.51758 0.59060
 O994 O 1.08699 0.51762 0.61190
 C995 C 1.07222 0.52380 0.60542
 C996 C 1.06248 0.53865 0.61495
 C997 C 1.06829 0.54469 0.63213
 H998 H 1.07969 0.53818 0.63883
 O999 O 0.93449 0.48229 0.59059
 O1000 O 0.91336 0.48236 0.61187
 C1001 C 0.92813 0.47613 0.60542
 C1002 C 0.93782 0.46129 0.61500
 C1003 C 0.93192 0.45522 0.63213
 H1004 H 0.92047 0.46171 0.63877
 O1005 O 1.01808 0.59050 0.56553
 O1006 O 1.01811 0.61180 0.58666
 C1007 C 1.02429 0.60532 0.57187
 C1008 C 1.03912 0.61484 0.56211
 C1009 C 1.04519 0.63199 0.56794
 H1010 H 1.03871 0.63867 0.57938
 O1011 O 0.98228 0.40931 0.56579
 O1012 O 0.98226 0.38808 0.58699
 C1013 C 0.97607 0.39452 0.57219
 C1014 C 0.96119 0.38500 0.56250
 C1015 C 0.95492 0.36800 0.56856
 H1016 H 0.96129 0.36142 0.58011
 O1017 O 1.09080 0.56541 0.51754
 O1018 O 1.11211 0.58650 0.51758
 C1019 C 1.10562 0.57173 0.52376
 C1020 C 1.11514 0.56197 0.53859
 C1021 C 1.13231 0.56776 0.54461
 H1022 H 1.13900 0.57916 0.53808
 O1023 O 0.90954 0.43428 0.51778
 O1024 O 0.88825 0.41318 0.51779
 C1025 C 0.89472 0.42796 0.52399
 C1026 C 0.88520 0.43771 0.53883
 C1027 C 0.86813 0.43179 0.54504
 H1028 H 0.86149 0.42029 0.53863
 O1029 O 0.98259 0.56568 0.59043
 O1030 O 0.98256 0.58684 0.61170
 C1031 C 0.97638 0.57205 0.60525
 C1032 C 0.96155 0.56233 0.61481
 C1033 C 0.95551 0.56819 0.63198
 H1034 H 0.96200 0.57962 0.63863
 O1035 O 1.01778 0.43423 0.59062
 O1036 O 1.01781 0.41312 0.61193
 C1037 C 1.02399 0.42790 0.60545
 C1038 C 1.03880 0.43764 0.61500
 C1039 C 1.04481 0.43183 0.63218
 H1040 H 1.03830 0.42042 0.63886
 O1041 O 1.09078 0.48206 0.56576
 O1042 O 1.11202 0.48205 0.58693
 C1043 C 1.10558 0.47586 0.57213
 C1044 C 1.11513 0.46102 0.56241
 C1045 C 1.13223 0.45489 0.56834
 H1046 H 1.13885 0.46134 0.57982
 O1047 O 0.90970 0.51776 0.56558
 O1048 O 0.88843 0.51789 0.58674
 C1049 C 0.89490 0.52402 0.57192
 C1050 C 0.88541 0.53886 0.56216
 C1051 C 0.86833 0.54505 0.56808
 H1052 H 0.86168 0.53865 0.57958
 O1053 O 0.93473 0.59053 0.51748
 O1054 O 0.91363 0.61183 0.51747
 C1055 C 0.92841 0.60537 0.52366
 C1056 C 0.93816 0.61493 0.53847
 C1057 C 0.93235 0.63211 0.54446
 H1058 H 0.92094 0.63879 0.53794
 O1059 O 1.06584 0.40931 0.51780
 O1060 O 1.08693 0.38800 0.51786
 C1061 C 1.07214 0.39448 0.52402
 C1062 C 1.06235 0.38495 0.53882
 C1063 C 1.06812 0.36776 0.54484
 H1064 H 1.07954 0.36107 0.53836
 O1065 O 0.93459 0.51775 0.59049
 O1066 O 0.91346 0.51787 0.61178
 C1067 C 0.92825 0.52400 0.60531
 C1068 C 0.93801 0.53881 0.61484
 C1069 C 0.93219 0.54489 0.63200
 H1070 H 0.92075 0.53842 0.63868
 O1071 O 1.06581 0.48212 0.59059
 O1072 O 1.08691 0.48211 0.61190
 C1073 C 1.07213 0.47593 0.60543
 C1074 C 1.06236 0.46114 0.61500
 C1075 C 1.06816 0.45512 0.63219
 H1076 H 1.07958 0.46160 0.63886
 O1077 O 1.01774 0.40934 0.56570
 O1078 O 1.01777 0.38809 0.58687
 C1079 C 1.02394 0.39453 0.57206
 C1080 C 1.03875 0.38496 0.56231
 C1081 C 1.04473 0.36778 0.56812
 H1082 H 1.03819 0.36110 0.57953
 O1083 O 0.98264 0.59055 0.56550
 O1084 O 0.98261 0.61185 0.58663
 C1085 C 0.97645 0.60538 0.57182
 C1086 C 0.96166 0.61494 0.56204
 C1087 C 0.95564 0.63212 0.56783
 H1088 H 0.96213 0.63880 0.57926
 O1089 O 0.90982 0.56567 0.51751
 O1090 O 0.88859 0.58684 0.51751
 C1091 C 0.89502 0.57205 0.52372
 C1092 C 0.88547 0.56236 0.53857
 C1093 C 0.86839 0.56834 0.54471
 H1094 H 0.86179 0.57983 0.53824
 O1095 O 1.09081 0.43412 0.51779
 O1096 O 1.11204 0.41294 0.51786
 C1097 C 1.10561 0.42775 0.52402
 C1098 C 1.11514 0.43747 0.53887
 C1099 C 1.13224 0.43156 0.54501
 H1100 H 1.13888 0.42008 0.53855
 O1101 O 0.98233 0.43427 0.59064
 O1102 O 0.98231 0.41317 0.61196
 C1103 C 0.97613 0.42795 0.60548
 C1104 C 0.96131 0.43771 0.61503
 C1105 C 0.95520 0.43185 0.63216
 H1106 H 0.96164 0.42039 0.63882
 O1107 O 1.01803 0.56564 0.59048
 O1108 O 1.01805 0.58680 0.61174
 C1109 C 1.02422 0.57200 0.60531
 C1110 C 1.03900 0.56224 0.61489
 C1111 C 1.04503 0.56807 0.63207
 H1112 H 1.03855 0.57952 0.63872
 O1113 O 0.90962 0.48229 0.56566
 O1114 O 0.88836 0.48237 0.58682
 C1115 C 0.89480 0.47613 0.57203
 C1116 C 0.88524 0.46129 0.56235
 C1117 C 0.86817 0.45515 0.56833
 H1118 H 0.86158 0.46161 0.57983
 O1119 O 1.09073 0.51751 0.56564
 O1120 O 1.11198 0.51755 0.58680
 C1121 C 1.10554 0.52371 0.57198
 C1122 C 1.11510 0.53849 0.56220
 C1123 C 1.13227 0.54450 0.56801
 H1124 H 1.13893 0.53802 0.57946
 O1125 O 0.93438 0.40933 0.51783
 O1126 O 0.91322 0.38811 0.51785
 C1127 C 0.92800 0.39454 0.52405
 C1128 C 0.93767 0.38502 0.53894
 C1129 C 0.93161 0.36802 0.54521
 H1130 H 0.92008 0.36144 0.53882
 O1131 O 1.06600 0.59040 0.51751
 O1132 O 1.08717 0.61163 0.51755
 C1133 C 1.07237 0.60520 0.52372
 C1134 C 1.06264 0.61478 0.53855
 C1135 C 1.06850 0.63192 0.54459
 H1136 H 1.07994 0.63856 0.53809
 Cu1137 Cu 1.07618 0.49982 0.57603
 Cu1138 Cu 1.10160 0.49983 0.60152
 Cu1139 Cu 0.92422 0.50001 0.57596
 Cu1140 Cu 0.89877 0.50014 0.60143
 Cu1141 Cu 1.00034 0.57597 0.57587
 Cu1142 Cu 1.00033 0.60146 0.60132
 Cu1143 Cu 1.00003 0.42390 0.57607
 Cu1144 Cu 1.00005 0.39848 0.60157
 C1145 C 1.04771 0.54740 0.60653
 H1146 H 1.04331 0.54297 0.59318
 C1147 C 1.05956 0.55930 0.64066
 C1148 C 0.95264 0.45255 0.60664
 H1149 H 0.95712 0.45699 0.59332
 C1150 C 0.94060 0.44060 0.64069
 C1151 C 1.04783 0.60643 0.54729
 H1152 H 1.04338 0.59311 0.54287
 C1153 C 1.05978 0.64050 0.55918
 C1154 C 0.95258 0.39330 0.54757
 H1155 H 0.95718 0.40652 0.54298
 C1156 C 0.94023 0.35954 0.55992
 C1157 C 1.10673 0.54720 0.54736
 H1158 H 1.09339 0.54280 0.54295
 C1159 C 1.14085 0.55903 0.55922
 C1160 C 0.89355 0.45258 0.54747
 H1161 H 0.90682 0.45707 0.54293
 C1162 C 0.85964 0.44051 0.55969
 C1163 C 0.95282 0.54751 0.60644
 H1164 H 0.95725 0.54306 0.59310
 C1165 C 0.94093 0.55947 0.64055
 C1166 C 1.04756 0.45242 0.60659
 H1167 H 1.04316 0.45683 0.59324
 C1168 C 1.05939 0.44056 0.64075
 C1169 C 1.10679 0.45233 0.54755
 H1170 H 1.09351 0.45683 0.54304
 C1171 C 1.14076 0.44026 0.55964
 C1172 C 0.89378 0.54750 0.54728
 H1173 H 0.90705 0.54296 0.54279
 C1174 C 0.85985 0.55969 0.55936
 C1175 C 0.95294 0.60654 0.54723
 H1176 H 0.95734 0.59318 0.54284
 C1177 C 0.94109 0.64068 0.55904
 C1178 C 1.04754 0.39335 0.54753
 H1179 H 1.04315 0.40670 0.54312
 C1180 C 1.05931 0.35920 0.55939
 O1181 O 1.06594 0.48200 0.40935
 O1182 O 1.08706 0.48188 0.38805
 C1183 C 1.07227 0.47575 0.39453
 C1184 C 1.06249 0.46095 0.38501
 C1185 C 1.06826 0.45491 0.36781
 H1186 H 1.07966 0.46140 0.36110
 O1187 O 0.93472 0.51751 0.40928
 O1188 O 0.91361 0.51753 0.38797
 C1189 C 0.92840 0.52370 0.39444
 C1190 C 0.93816 0.53848 0.38486
 C1191 C 0.93234 0.54449 0.36768
 H1192 H 0.92091 0.53800 0.36102
 O1193 O 0.98271 0.59041 0.43403
 O1194 O 0.98268 0.61163 0.41283
 C1195 C 0.97650 0.60521 0.42765
 C1196 C 0.96168 0.61478 0.43737
 C1197 C 0.95560 0.63190 0.43147
 H1198 H 0.96207 0.63853 0.41999
 O1199 O 1.01794 0.40916 0.43437
 O1200 O 1.01796 0.38786 0.41324
 C1201 C 1.02414 0.39433 0.42803
 C1202 C 1.03896 0.38480 0.43779
 C1203 C 1.04502 0.36764 0.43195
 H1204 H 1.03854 0.36097 0.42051
 O1205 O 1.09080 0.43411 0.48230
 O1206 O 1.11204 0.41294 0.48231
 C1207 C 1.10561 0.42773 0.47610
 C1208 C 1.11516 0.43743 0.46125
 C1209 C 1.13228 0.43152 0.45517
 H1210 H 1.13892 0.42007 0.46166
 O1211 O 0.90982 0.56563 0.48202
 O1212 O 0.88858 0.58680 0.48197
 C1213 C 0.89502 0.57200 0.47580
 C1214 C 0.88548 0.56227 0.46096
 C1215 C 0.86842 0.56824 0.45477
 H1216 H 0.86182 0.57977 0.46117
 O1217 O 1.01816 0.56545 0.40917
 O1218 O 1.01819 0.58654 0.38784
 C1219 C 1.02437 0.57177 0.39433
 C1220 C 1.03919 0.56201 0.38479
 C1221 C 1.04528 0.56786 0.36764
 H1222 H 1.03882 0.57931 0.36098
 O1223 O 0.98250 0.43404 0.40941
 O1224 O 0.98248 0.41287 0.38815
 C1225 C 0.97630 0.42767 0.39459
 C1226 C 0.96150 0.43740 0.38501
 C1227 C 0.95544 0.43152 0.36787
 H1228 H 0.96191 0.42006 0.36123
 O1229 O 1.09092 0.51745 0.43416
 O1230 O 1.11218 0.51739 0.41300
 C1231 C 1.10574 0.52362 0.42779
 C1232 C 1.11529 0.53845 0.43750
 C1233 C 1.13240 0.54454 0.43160
 H1234 H 1.13904 0.53807 0.42013
 O1235 O 0.90974 0.48214 0.43422
 O1236 O 0.88849 0.48213 0.41304
 C1237 C 0.89492 0.47596 0.42786
 C1238 C 0.88535 0.46117 0.43762
 C1239 C 0.86822 0.45511 0.43173
 H1240 H 0.86160 0.46157 0.42025
 O1241 O 1.06603 0.59038 0.48202
 O1242 O 1.08720 0.61160 0.48201
 C1243 C 1.07241 0.60517 0.47581
 C1244 C 1.06271 0.61472 0.46094
 C1245 C 1.06863 0.63181 0.45482
 H1246 H 1.08010 0.63844 0.46128
 O1247 O 0.93447 0.40934 0.48235
 O1248 O 0.91331 0.38810 0.48230
 C1249 C 0.92812 0.39453 0.47614
 C1250 C 0.93787 0.38496 0.46133
 C1251 C 0.93202 0.36781 0.45527
 H1252 H 0.92056 0.36118 0.46175
 O1253 O 0.93462 0.48205 0.40929
 O1254 O 0.91351 0.48203 0.38799
 C1255 C 0.92828 0.47583 0.39447
 C1256 C 0.93800 0.46097 0.38495
 C1257 C 0.93215 0.45488 0.36780
 H1258 H 0.92072 0.46136 0.36112
 O1259 O 1.06605 0.51746 0.40923
 O1260 O 1.08718 0.51739 0.38793
 C1261 C 1.07241 0.52362 0.39439
 C1262 C 1.06270 0.53845 0.38481
 C1263 C 1.06858 0.54451 0.36766
 H1264 H 1.08003 0.53802 0.36102
 O1265 O 0.98248 0.40922 0.43440
 O1266 O 0.98246 0.38792 0.41327
 C1267 C 0.97627 0.39440 0.42806
 C1268 C 0.96144 0.38489 0.43781
 C1269 C 0.95537 0.36775 0.43197
 H1270 H 0.96186 0.36107 0.42053
 O1271 O 1.01816 0.59040 0.43403
 O1272 O 1.01819 0.61162 0.41284
 C1273 C 1.02437 0.60519 0.42765
 C1274 C 1.03920 0.61473 0.43737
 C1275 C 1.04533 0.63183 0.43146
 H1276 H 1.03889 0.63847 0.41998
 O1277 O 0.90960 0.43426 0.48229
 O1278 O 0.88830 0.41316 0.48225
 C1279 C 0.89479 0.42794 0.47606
 C1280 C 0.88528 0.43767 0.46121
 C1281 C 0.86816 0.43183 0.45510
 H1282 H 0.86148 0.42040 0.46159
 O1283 O 1.09090 0.56545 0.48205
 O1284 O 1.11220 0.58654 0.48205
 C1285 C 1.10573 0.57177 0.47586
 C1286 C 1.11528 0.56201 0.46103
 C1287 C 1.13239 0.56788 0.45493
 H1288 H 1.13903 0.57935 0.46139
 O1289 O 1.01794 0.43406 0.40946
 O1290 O 1.01797 0.41290 0.38820
 C1291 C 1.02414 0.42770 0.39464
 C1292 C 1.03894 0.43744 0.38506
 C1293 C 1.04493 0.43162 0.36786
 H1294 H 1.03841 0.42020 0.36120
 O1295 O 0.98271 0.56545 0.40919
 O1296 O 0.98269 0.58653 0.38785
 C1297 C 0.97651 0.57176 0.39435
 C1298 C 0.96170 0.56200 0.38482
 C1299 C 0.95566 0.56779 0.36763
 H1300 H 0.96216 0.57921 0.36093
 O1301 O 0.90977 0.51759 0.43414
 O1302 O 0.88853 0.51763 0.41296
 C1303 C 0.89498 0.52382 0.42776
 C1304 C 0.88546 0.53869 0.43745
 C1305 C 0.86840 0.54487 0.43148
 H1306 H 0.86179 0.53844 0.41998
 O1307 O 1.09087 0.48200 0.43423
 O1308 O 1.11213 0.48188 0.41307
 C1309 C 1.10567 0.47575 0.42788
 C1310 C 1.11519 0.46093 0.43766
 C1311 C 1.13231 0.45481 0.43179
 H1312 H 1.13897 0.46126 0.42032
 O1313 O 1.06591 0.40923 0.48232
 O1314 O 1.08701 0.38793 0.48234
 C1315 C 1.07224 0.39439 0.47614
 C1316 C 1.06250 0.38483 0.46132
 C1317 C 1.06835 0.36767 0.45528
 H1318 H 1.07979 0.36102 0.46177
 O1319 O 0.93473 0.59049 0.48199
 O1320 O 0.91362 0.61179 0.48194
 C1321 C 0.92840 0.60531 0.47577
 C1322 C 0.93814 0.61483 0.46092
 C1323 C 0.93228 0.63195 0.45481
 H1324 H 0.92083 0.63862 0.46128
 Cu1325 Cu 1.07633 0.49974 0.42386
 Cu1326 Cu 1.10177 0.49962 0.39838
 Cu1327 Cu 0.92433 0.49982 0.42385
 Cu1328 Cu 0.89891 0.49983 0.39835
 Cu1329 Cu 1.07631 0.57580 0.49978
 Cu1330 Cu 1.10180 0.60120 0.49980
 Cu1331 Cu 1.07623 0.42382 0.50005
 Cu1332 Cu 1.10164 0.39832 0.50010
 Cu1333 Cu 0.92439 0.57596 0.49975
 Cu1334 Cu 0.89897 0.60145 0.49972
 Cu1335 Cu 0.92412 0.42392 0.50007
 Cu1336 Cu 0.89863 0.39851 0.50004
 Cu1337 Cu 1.00044 0.57582 0.42373
 Cu1338 Cu 1.00043 0.60121 0.39820
 Cu1339 Cu 1.00021 0.42374 0.42403
 Cu1340 Cu 1.00022 0.39825 0.39859
 C1341 C 1.04770 0.45223 0.39344
 H1342 H 1.04332 0.45664 0.40680
 C1343 C 1.05948 0.44035 0.35926
 C1344 C 0.95297 0.54721 0.39324
 H1345 H 0.95739 0.54282 0.40659
 C1346 C 0.94108 0.55905 0.35909
 C1347 C 0.95297 0.60644 0.45222
 H1348 H 0.95743 0.59314 0.45671
 C1349 C 0.94100 0.64046 0.44018
 C1350 C 1.04768 0.39319 0.45260
 H1351 H 1.04324 0.40652 0.45703
 C1352 C 1.05961 0.35910 0.44070
 C1353 C 1.10681 0.45226 0.45251
 H1354 H 1.09351 0.45674 0.45696
 C1355 C 1.14083 0.44021 0.44054
 C1356 C 0.89379 0.54737 0.45232
 H1357 H 0.90705 0.54284 0.45686
 C1358 C 0.85991 0.55955 0.44013
 C1359 C 1.04788 0.54718 0.39318
 H1360 H 1.04341 0.54274 0.40650
 C1361 C 1.05988 0.55912 0.35911
 C1362 C 0.95279 0.45225 0.39336
 H1363 H 0.95723 0.45671 0.40669
 C1364 C 0.94086 0.44025 0.35929
 C1365 C 1.10693 0.54717 0.45234
 H1366 H 1.09363 0.54271 0.45682
 C1367 C 1.14093 0.55916 0.44031
 C1368 C 0.89368 0.45247 0.45248
 H1369 H 0.90699 0.45691 0.45695
 C1370 C 0.85965 0.44054 0.44047
 C1371 C 1.04787 0.60638 0.45224
 H1372 H 1.04338 0.59309 0.45673
 C1373 C 1.05995 0.64035 0.44018
 C1374 C 0.95271 0.39330 0.45262
 H1375 H 0.95715 0.40662 0.45705
 C1376 C 0.94076 0.35924 0.44070
 O1377 O 0.56566 1.01788 0.59031
 O1378 O 0.58678 1.01786 0.61160
 C1379 C 0.57200 1.02406 0.60514
 C1380 C 0.56227 1.03889 0.61470
 C1381 C 0.56811 1.04492 0.63187
 H1382 H 0.57954 1.03841 0.63853
 O1383 O 0.43420 0.98252 0.59057
 O1384 O 0.41309 0.98256 0.61188
 C1385 C 0.42786 0.97635 0.60541
 C1386 C 0.43759 0.96152 0.61497
 C1387 C 0.43171 0.95545 0.63212
 H1388 H 0.42026 0.96193 0.63877
 O1389 O 0.51770 1.09075 0.56546
 O1390 O 0.51777 1.11203 0.58660
 C1391 C 0.52393 1.10556 0.57180
 C1392 C 0.53876 1.11506 0.56203
 C1393 C 0.54487 1.13219 0.56787
 H1394 H 0.53841 1.13888 0.57932
 O1395 O 0.48210 0.90972 0.56563
 O1396 O 0.48209 0.88846 0.58679
 C1397 C 0.47590 0.89491 0.57199
 C1398 C 0.46110 0.88535 0.56225
 C1399 C 0.45509 0.86819 0.56810
 H1400 H 0.46160 0.86153 0.57953
 O1401 O 0.59060 1.06568 0.51751
 O1402 O 0.61185 1.08681 0.51744
 C1403 C 0.60541 1.07204 0.52368
 C1404 C 0.61497 1.06236 0.53854
 C1405 C 0.63203 1.06833 0.54471
 H1406 H 0.63863 1.07983 0.53827
 O1407 O 0.40917 0.93452 0.51770
 O1408 O 0.38791 0.91340 0.51780
 C1409 C 0.39438 0.92819 0.52395
 C1410 C 0.38487 0.93795 0.53880
 C1411 C 0.36775 0.93212 0.54493
 H1412 H 0.36108 0.92067 0.53847
 O1413 O 0.48226 1.06590 0.59041
 O1414 O 0.48227 1.08704 0.61170
 C1415 C 0.47607 1.07226 0.60525
 C1416 C 0.46125 1.06254 0.61481
 C1417 C 0.45519 1.06843 0.63196
 H1418 H 0.46167 1.07987 0.63861
 O1419 O 0.51758 0.93459 0.59050
 O1420 O 0.51761 0.91348 0.61180
 C1421 C 0.52379 0.92825 0.60532
 C1422 C 0.53863 0.93799 0.61485
 C1423 C 0.54465 0.93218 0.63204
 H1424 H 0.53813 0.92078 0.63873
 O1425 O 0.59050 0.98237 0.56541
 O1426 O 0.61177 0.98230 0.58655
 C1427 C 0.60530 0.97613 0.57175
 C1428 C 0.61481 0.96129 0.56201
 C1429 C 0.63195 0.95520 0.56785
 H1430 H 0.63863 0.96168 0.57928
 O1431 O 0.40932 1.01798 0.56562
 O1432 O 0.38809 1.01806 0.58681
 C1433 C 0.39453 1.02421 0.57199
 C1434 C 0.38499 1.03905 0.56226
 C1435 C 0.36792 1.04521 0.56822
 H1436 H 0.36130 1.03878 0.57972
 O1437 O 0.43419 1.09081 0.51761
 O1438 O 0.41308 1.11211 0.51766
 C1439 C 0.42787 1.10564 0.52383
 C1440 C 0.43763 1.11517 0.53866
 C1441 C 0.43176 1.13230 0.54478
 H1442 H 0.42029 1.13895 0.53834
 O1443 O 0.56542 0.90951 0.51756
 O1444 O 0.58652 0.88820 0.51758
 C1445 C 0.57175 0.89470 0.52378
 C1446 C 0.56204 0.88520 0.53865
 C1447 C 0.56796 0.86811 0.54480
 H1448 H 0.57942 0.86146 0.53834
 O1449 O 0.43427 1.01798 0.59049
 O1450 O 0.41316 1.01806 0.61180
 C1451 C 0.42795 1.02421 0.60531
 C1452 C 0.43770 1.03904 0.61484
 C1453 C 0.43186 1.04513 0.63199
 H1454 H 0.42041 1.03868 0.63866
 O1455 O 0.56567 0.98242 0.59038
 O1456 O 0.58680 0.98236 0.61167
 C1457 C 0.57200 0.97622 0.60522
 C1458 C 0.56222 0.96144 0.61479
 C1459 C 0.56804 0.95542 0.63198
 H1460 H 0.57948 0.96188 0.63863
 O1461 O 0.51754 0.90963 0.56564
 O1462 O 0.51759 0.88839 0.58682
 C1463 C 0.52375 0.89482 0.57200
 C1464 C 0.53856 0.88526 0.56225
 C1465 C 0.54470 0.86817 0.56820
 H1466 H 0.53828 0.86156 0.57971
 O1467 O 0.48224 1.09079 0.56550
 O1468 O 0.48226 1.11206 0.58665
 C1469 C 0.47606 1.10561 0.57186
 C1470 C 0.46122 1.11516 0.56215
 C1471 C 0.45514 1.13228 0.56805
 H1472 H 0.46163 1.13893 0.57950
 O1473 O 0.40931 1.06593 0.51763
 O1474 O 0.38806 1.08710 0.51767
 C1475 C 0.39451 1.07230 0.52385
 C1476 C 0.38498 1.06258 0.53871
 C1477 C 0.36791 1.06853 0.54488
 H1478 H 0.36129 1.08003 0.53845
 O1479 O 0.59035 0.93434 0.51748
 O1480 O 0.61159 0.91317 0.51749
 C1481 C 0.60516 0.92798 0.52367
 C1482 C 0.61474 0.93772 0.53848
 C1483 C 0.63188 0.93184 0.54453
 H1484 H 0.63852 0.92038 0.53805
 O1485 O 0.48213 0.93457 0.59059
 O1486 O 0.48211 0.91345 0.61188
 C1487 C 0.47593 0.92823 0.60542
 C1488 C 0.46111 0.93798 0.61498
 C1489 C 0.45502 0.93211 0.63213
 H1490 H 0.46149 0.92066 0.63879
 O1491 O 0.51771 1.06587 0.59037
 O1492 O 0.51778 1.08700 0.61166
 C1493 C 0.52394 1.07221 0.60519
 C1494 C 0.53876 1.06245 0.61473
 C1495 C 0.54482 1.06827 0.63190
 H1496 H 0.53834 1.07970 0.63858
 O1497 O 0.40931 0.98252 0.56565
 O1498 O 0.38807 0.98256 0.58683
 C1499 C 0.39450 0.97635 0.57203
 C1500 C 0.38493 0.96152 0.56232
 C1501 C 0.36781 0.95547 0.56824
 H1502 H 0.36119 0.96197 0.57970
 O1503 O 0.59064 1.01783 0.56548
 O1504 O 0.61190 1.01782 0.58664
 C1505 C 0.60545 1.02402 0.57185
 C1506 C 0.61499 1.03885 0.56212
 C1507 C 0.63205 1.04504 0.56808
 H1508 H 0.63867 1.03863 0.57959
 O1509 O 0.43408 0.90964 0.51766
 O1510 O 0.41296 0.88837 0.51777
 C1511 C 0.42776 0.89484 0.52391
 C1512 C 0.43754 0.88531 0.53872
 C1513 C 0.43174 0.86815 0.54478
 H1514 H 0.42032 0.86146 0.53830
 O1515 O 0.56566 1.09054 0.51750
 O1516 O 0.58678 1.11180 0.51743
 C1517 C 0.57201 1.10537 0.52366
 C1518 C 0.56229 1.11496 0.53848
 C1519 C 0.56819 1.13209 0.54453
 H1520 H 0.57965 1.13869 0.53804
 Cu1521 Cu 0.57601 1.00013 0.57577
 Cu1522 Cu 0.60144 1.00008 0.60125
 Cu1523 Cu 0.42389 1.00024 0.57596
 Cu1524 Cu 0.39847 1.00032 0.60147
 Cu1525 Cu 0.49997 1.07621 0.57582
 Cu1526 Cu 0.50003 1.10167 0.60129
 Cu1527 Cu 0.49984 0.92425 0.57597
 Cu1528 Cu 0.49985 0.89881 0.60146
 C1529 C 0.54747 1.04764 0.60632
 H1530 H 0.54304 1.04322 0.59298
 C1531 C 0.55939 1.05950 0.64044
 C1532 C 0.45241 0.95281 0.60660
 H1533 H 0.45687 0.95726 0.59328
 C1534 C 0.44043 0.94085 0.64067
 C1535 C 0.54745 1.10664 0.54721
 H1536 H 0.54298 1.09333 0.54278
 C1537 C 0.55948 1.14068 0.55912
 C1538 C 0.45234 0.89371 0.54743
 H1539 H 0.45674 0.90705 0.54299
 C1540 C 0.44052 0.85961 0.55937
 C1541 C 0.60666 1.04749 0.54723
 H1542 H 0.59340 1.04296 0.54271
 C1543 C 0.64055 1.05968 0.55938
 C1544 C 0.39327 0.95278 0.54748
 H1545 H 0.40657 0.95722 0.54299
 C1546 C 0.35925 0.94087 0.55954
 C1547 C 0.45252 1.04773 0.60645
 H1548 H 0.45696 1.04326 0.59312
 C1549 C 0.44059 1.05973 0.64052
 C1550 C 0.54739 0.95274 0.60643
 H1551 H 0.54298 0.95715 0.59307
 C1552 C 0.55925 0.94089 0.64057
 C1553 C 0.60641 0.95257 0.54720
 H1554 H 0.59309 0.95703 0.54277
 C1555 C 0.64046 0.94058 0.55911
 C1556 C 0.39333 1.04772 0.54738
 H1557 H 0.40660 1.04320 0.54286
 C1558 C 0.35941 1.05985 0.55953
 C1559 C 0.45248 1.10680 0.54733
 H1560 H 0.45693 1.09349 0.54285
 C1561 C 0.44051 1.14083 0.55937
 C1562 C 0.54721 0.89357 0.54736
 H1563 H 0.54272 0.90686 0.54285
 C1564 C 0.55930 0.85962 0.55947
 O1565 O 0.56537 0.98218 0.40912
 O1566 O 0.58646 0.98212 0.38779
 C1567 C 0.57168 0.97596 0.39428
 C1568 C 0.56191 0.96115 0.38475
 C1569 C 0.56773 0.95506 0.36759
 H1570 H 0.57917 0.96152 0.36090
 O1571 O 0.43397 1.01782 0.40937
 O1572 O 0.41284 1.01787 0.38808
 C1573 C 0.42763 1.02403 0.39454
 C1574 C 0.43739 1.03882 0.38497
 C1575 C 0.43152 1.04488 0.36782
 H1576 H 0.42007 1.03842 0.36117
 O1577 O 0.48208 1.09064 0.43411
 O1578 O 0.48207 1.11189 0.41293
 C1579 C 0.47589 1.10546 0.42775
 C1580 C 0.46110 1.11505 0.43750
 C1581 C 0.45506 1.13220 0.43163
 H1582 H 0.46154 1.13883 0.42016
 O1583 O 0.51733 0.90947 0.43418
 O1584 O 0.51731 0.88819 0.41303
 C1585 C 0.52350 0.89464 0.42783
 C1586 C 0.53830 0.88508 0.43758
 C1587 C 0.54429 0.86789 0.43177
 H1588 H 0.53776 0.86122 0.42035
 O1589 O 0.59032 0.93427 0.48199
 O1590 O 0.61154 0.91309 0.48196
 C1591 C 0.60511 0.92788 0.47576
 C1592 C 0.61464 0.93758 0.46090
 C1593 C 0.63176 0.93169 0.45480
 H1594 H 0.63841 0.92024 0.46128
 O1595 O 0.40925 1.06595 0.48213
 O1596 O 0.38802 1.08713 0.48213
 C1597 C 0.39445 1.07233 0.47593
 C1598 C 0.38489 1.06263 0.46109
 C1599 C 0.36785 1.06865 0.45488
 H1600 H 0.36129 1.08020 0.46127
 O1601 O 0.51746 1.06564 0.40918
 O1602 O 0.51748 1.08675 0.38786
 C1603 C 0.52364 1.07195 0.39433
 C1604 C 0.53842 1.06217 0.38475
 C1605 C 0.54440 1.06794 0.36754
 H1606 H 0.53789 1.07936 0.36086
 O1607 O 0.48189 0.93441 0.40928
 O1608 O 0.48183 0.91328 0.38800
 C1609 C 0.47568 0.92808 0.39446
 C1610 C 0.46086 0.93783 0.38492
 C1611 C 0.45481 0.93201 0.36775
 H1612 H 0.46130 0.92058 0.36107
 O1613 O 0.59033 1.01761 0.43399
 O1614 O 0.61155 1.01760 0.41280
 C1615 C 0.60513 1.02379 0.42761
 C1616 C 0.61471 1.03859 0.43735
 C1617 C 0.63186 1.04461 0.43148
 H1618 H 0.63850 1.03812 0.42003
 O1619 O 0.40903 0.98241 0.43428
 O1620 O 0.38777 0.98240 0.41312
 C1621 C 0.39423 0.97622 0.42792
 C1622 C 0.38469 0.96138 0.43765
 C1623 C 0.36760 0.95525 0.43173
 H1624 H 0.36097 0.96169 0.42025
 O1625 O 0.56560 1.09048 0.48201
 O1626 O 0.58673 1.11174 0.48191
 C1627 C 0.57193 1.10529 0.47577
 C1628 C 0.56217 1.11483 0.46095
 C1629 C 0.56801 1.13197 0.45488
 H1630 H 0.57947 1.13861 0.46134
 O1631 O 0.43397 0.90957 0.48218
 O1632 O 0.41284 0.88830 0.48223
 C1633 C 0.42761 0.89475 0.47600
 C1634 C 0.43731 0.88519 0.46114
 C1635 C 0.43142 0.86808 0.45504
 H1636 H 0.41996 0.86144 0.46152
 O1637 O 0.43392 0.98237 0.40936
 O1638 O 0.41280 0.98237 0.38807
 C1639 C 0.42758 0.97618 0.39452
 C1640 C 0.43732 0.96137 0.38495
 C1641 C 0.43149 0.95534 0.36777
 H1642 H 0.42006 0.96184 0.36111
 O1643 O 0.56538 1.01763 0.40913
 O1644 O 0.58647 1.01762 0.38779
 C1645 C 0.57170 1.02381 0.39428
 C1646 C 0.56193 1.03861 0.38473
 C1647 C 0.56770 1.04460 0.36752
 H1648 H 0.57910 1.03808 0.36082
 O1649 O 0.48188 0.90950 0.43417
 O1650 O 0.48182 0.88823 0.41302
 C1651 C 0.47565 0.89469 0.42782
 C1652 C 0.46083 0.88517 0.43757
 C1653 C 0.45472 0.86805 0.43169
 H1654 H 0.46118 0.86140 0.42022
 O1655 O 0.51753 1.09054 0.43410
 O1656 O 0.51757 1.11178 0.41292
 C1657 C 0.52375 1.10533 0.42772
 C1658 C 0.53860 1.11485 0.43744
 C1659 C 0.54466 1.13199 0.43157
 H1660 H 0.53817 1.13866 0.42014
 O1661 O 0.40909 0.93448 0.48221
 O1662 O 0.38783 0.91335 0.48226
 C1663 C 0.39427 0.92813 0.47604
 C1664 C 0.38472 0.93784 0.46120
 C1665 C 0.36763 0.93192 0.45507
 H1666 H 0.36101 0.92044 0.46152
 O1667 O 0.59047 1.06555 0.48201
 O1668 O 0.61173 1.08668 0.48190
 C1669 C 0.60526 1.07188 0.47575
 C1670 C 0.61477 1.06212 0.46091
 C1671 C 0.63192 1.06793 0.45483
 H1672 H 0.63860 1.07936 0.46131
 O1673 O 0.51735 0.93433 0.40921
 O1674 O 0.51733 0.91318 0.38794
 C1675 C 0.52353 0.92796 0.39438
 C1676 C 0.53835 0.93766 0.38480
 C1677 C 0.54438 0.93179 0.36764
 H1678 H 0.53787 0.92036 0.36099
 O1679 O 0.48201 1.06568 0.40926
 O1680 O 0.48199 1.08679 0.38795
 C1681 C 0.47580 1.07202 0.39444
 C1682 C 0.46095 1.06230 0.38491
 C1683 C 0.45488 1.06815 0.36776
 H1684 H 0.46137 1.07957 0.36107
 O1685 O 0.40907 1.01788 0.43426
 O1686 O 0.38781 1.01793 0.41311
 C1687 C 0.39428 1.02412 0.42790
 C1688 C 0.38479 1.03902 0.43759
 C1689 C 0.36776 1.04526 0.43161
 H1690 H 0.36112 1.03884 0.42011
 O1691 O 0.59030 0.98215 0.43399
 O1692 O 0.61152 0.98210 0.41280
 C1693 C 0.60509 0.97593 0.42761
 C1694 C 0.61463 0.96110 0.43734
 C1695 C 0.63175 0.95499 0.43145
 H1696 H 0.63839 0.96146 0.41998
 O1697 O 0.56536 0.90945 0.48207
 O1698 O 0.58645 0.88813 0.48204
 C1699 C 0.57166 0.89461 0.47588
 C1700 C 0.56187 0.88506 0.46109
 C1701 C 0.56765 0.86787 0.45507
 H1702 H 0.57907 0.86119 0.46156
 O1703 O 0.43419 1.09079 0.48213
 O1704 O 0.41309 1.11210 0.48212
 C1705 C 0.42786 1.10561 0.47593
 C1706 C 0.43760 1.11513 0.46108
 C1707 C 0.43178 1.13228 0.45501
 H1708 H 0.42037 1.13897 0.46151
 Cu1709 Cu 0.57573 0.99989 0.42368
 Cu1710 Cu 0.60113 0.99986 0.39816
 Cu1711 Cu 0.42361 1.00012 0.42394
 Cu1712 Cu 0.39817 1.00014 0.39847
 Cu1713 Cu 0.57597 1.07594 0.49977
 Cu1714 Cu 0.60141 1.10139 0.49966
 Cu1715 Cu 0.57575 0.92402 0.49977
 Cu1716 Cu 0.60115 0.89851 0.49977
 Cu1717 Cu 0.42385 1.07625 0.49987
 Cu1718 Cu 0.39843 1.10174 0.49990
 Cu1719 Cu 0.42370 0.92417 0.49993
 Cu1720 Cu 0.39825 0.89872 0.50003
 Cu1721 Cu 0.49977 1.07601 0.42378
 Cu1722 Cu 0.49978 1.10143 0.39828
 Cu1723 Cu 0.49962 0.92405 0.42383
 Cu1724 Cu 0.49957 0.89859 0.39836
 C1725 C 0.54710 0.95247 0.39316
 H1726 H 0.54269 0.95693 0.40650
 C1727 C 0.55897 0.94049 0.35906
 C1728 C 0.45223 1.04751 0.39332
 H1729 H 0.45667 1.04307 0.40665
 C1730 C 0.44027 1.05944 0.35924
 C1731 C 0.45239 1.10671 0.45235
 H1732 H 0.45681 1.09338 0.45679
 C1733 C 0.44051 1.14079 0.44038
 C1734 C 0.54707 0.89346 0.45237
 H1735 H 0.54268 0.90681 0.45678
 C1736 C 0.55886 0.85931 0.44051
 C1737 C 0.60627 0.95241 0.45219
 H1738 H 0.59297 0.95688 0.45666
 C1739 C 0.64029 0.94039 0.44017
 C1740 C 0.39316 1.04769 0.45246
 H1741 H 0.40640 1.04312 0.45700
 C1742 C 0.35932 1.05998 0.44024
 C1743 C 0.54716 1.04738 0.39315
 H1744 H 0.54278 1.04299 0.40652
 C1745 C 0.55894 1.05916 0.35895
 C1746 C 0.45214 0.95264 0.39333
 H1747 H 0.45657 0.95706 0.40667
 C1748 C 0.44024 0.94076 0.35920
 C1749 C 0.60637 1.04732 0.45219
 H1750 H 0.59304 1.04291 0.45665
 C1751 C 0.64044 1.05918 0.44022
 C1752 C 0.39305 0.95270 0.45251
 H1753 H 0.40633 0.95719 0.45700
 C1754 C 0.35910 0.94062 0.44043
 C1755 C 0.54733 1.10647 0.45226
 H1756 H 0.54288 1.09316 0.45672
 C1757 C 0.55927 1.14052 0.44029
 C1758 C 0.45214 0.89354 0.45242
 H1759 H 0.45662 0.90684 0.45689
 C1760 C 0.44012 0.85953 0.44041
 O1761 O 0.48198 0.43403 0.90969
 O1762 O 0.48194 0.41282 0.88848
 C1763 C 0.47575 0.42762 0.89491
 C1764 C 0.46085 0.43728 0.88538
 C1765 C 0.45458 0.43120 0.86838
 H1766 H 0.46096 0.41965 0.86180
 O1767 O 0.51750 0.56536 0.90951
 O1768 O 0.51752 0.58644 0.88816
 C1769 C 0.52369 0.57166 0.89466
 C1770 C 0.53848 0.56187 0.88511
 C1771 C 0.54450 0.56764 0.86791
 H1772 H 0.53801 0.57905 0.86122
 O1773 O 0.40916 0.48208 0.93464
 O1774 O 0.38787 0.48206 0.91351
 C1775 C 0.39433 0.47590 0.92832
 C1776 C 0.38479 0.46110 0.93809
 C1777 C 0.36767 0.45501 0.93223
 H1778 H 0.36102 0.46146 0.92075
 O1779 O 0.59026 0.51739 0.93448
 O1780 O 0.61151 0.51739 0.91331
 C1781 C 0.60505 0.52360 0.92810
 C1782 C 0.61457 0.53847 0.93779
 C1783 C 0.63163 0.54462 0.93182
 H1784 H 0.63825 0.53817 0.92033
 O1785 O 0.43410 0.40936 0.98270
 O1786 O 0.41297 0.38810 0.98275
 C1787 C 0.42775 0.39453 0.97653
 C1788 C 0.43746 0.38495 0.96169
 C1789 C 0.43154 0.36785 0.95559
 H1790 H 0.42006 0.36124 0.96205
 O1791 O 0.56536 0.59040 0.98238
 O1792 O 0.58650 0.61165 0.98231
 C1793 C 0.57171 0.60520 0.97615
 C1794 C 0.56198 0.61473 0.96130
 C1795 C 0.56783 0.63186 0.95521
 H1796 H 0.57926 0.63852 0.96170
 O1797 O 0.43412 0.51741 0.90964
 O1798 O 0.41299 0.51741 0.88834
 C1799 C 0.42779 0.52358 0.89479
 C1800 C 0.43756 0.53834 0.88519
 C1801 C 0.43178 0.54429 0.86797
 H1802 H 0.42038 0.53776 0.86130
 O1803 O 0.56542 0.48187 0.90960
 O1804 O 0.58656 0.48181 0.88832
 C1805 C 0.57177 0.47564 0.89479
 C1806 C 0.56205 0.46081 0.88526
 C1807 C 0.56795 0.45466 0.86814
 H1808 H 0.57943 0.46109 0.86149
 O1809 O 0.51748 0.40921 0.93465
 O1810 O 0.51750 0.38789 0.91355
 C1811 C 0.52369 0.39438 0.92833
 C1812 C 0.53854 0.38488 0.93807
 C1813 C 0.54475 0.36781 0.93213
 H1814 H 0.53835 0.36117 0.92062
 O1815 O 0.48205 0.59034 0.93435
 O1816 O 0.48203 0.61155 0.91314
 C1817 C 0.47585 0.60514 0.92796
 C1818 C 0.46105 0.61473 0.93770
 C1819 C 0.45497 0.63185 0.93179
 H1820 H 0.46143 0.63846 0.92030
 O1821 O 0.40930 0.56562 0.98245
 O1822 O 0.38806 0.58679 0.98238
 C1823 C 0.39450 0.57199 0.97621
 C1824 C 0.38497 0.56227 0.96136
 C1825 C 0.36794 0.56829 0.95514
 H1826 H 0.36136 0.57983 0.96153
 O1827 O 0.59036 0.43416 0.98262
 O1828 O 0.61161 0.41300 0.98267
 C1829 C 0.60517 0.42778 0.97644
 C1830 C 0.61471 0.43746 0.96157
 C1831 C 0.63183 0.43156 0.95547
 H1832 H 0.63849 0.42012 0.96197
 O1833 O 0.48206 0.56536 0.90953
 O1834 O 0.48203 0.58643 0.88818
 C1835 C 0.47587 0.57165 0.89468
 C1836 C 0.46108 0.56187 0.88514
 C1837 C 0.45509 0.56761 0.86792
 H1838 H 0.46160 0.57901 0.86121
 O1839 O 0.51745 0.43402 0.90966
 O1840 O 0.51746 0.41283 0.88842
 C1841 C 0.52365 0.42763 0.89484
 C1842 C 0.53849 0.43732 0.88528
 C1843 C 0.54460 0.43138 0.86817
 H1844 H 0.53814 0.41991 0.86154
 O1845 O 0.59031 0.48193 0.93452
 O1846 O 0.61158 0.48188 0.91337
 C1847 C 0.60513 0.47572 0.92818
 C1848 C 0.61469 0.46093 0.93795
 C1849 C 0.63180 0.45482 0.93207
 H1850 H 0.63844 0.46125 0.92058
 O1851 O 0.40921 0.51754 0.93453
 O1852 O 0.38795 0.51758 0.91338
 C1853 C 0.39442 0.52378 0.92816
 C1854 C 0.38492 0.53869 0.93785
 C1855 C 0.36789 0.54492 0.93184
 H1856 H 0.36127 0.53851 0.92034
 O1857 O 0.43417 0.59052 0.98240
 O1858 O 0.41306 0.61182 0.98234
 C1859 C 0.42784 0.60533 0.97616
 C1860 C 0.43756 0.61482 0.96129
 C1861 C 0.43170 0.63195 0.95517
 H1862 H 0.42027 0.63863 0.96165
 O1863 O 0.56542 0.40933 0.98266
 O1864 O 0.58654 0.38804 0.98269
 C1865 C 0.57177 0.39450 0.97648
 C1866 C 0.56206 0.38494 0.96163
 C1867 C 0.56805 0.36788 0.95548
 H1868 H 0.57956 0.36129 0.96191
 O1869 O 0.56539 0.51733 0.90956
 O1870 O 0.58651 0.51731 0.88826
 C1871 C 0.57173 0.52350 0.89472
 C1872 C 0.56198 0.53830 0.88514
 C1873 C 0.56779 0.54428 0.86794
 H1874 H 0.57920 0.53776 0.86127
 O1875 O 0.43401 0.48195 0.90968
 O1876 O 0.41285 0.48191 0.88842
 C1877 C 0.42763 0.47570 0.89488
 C1878 C 0.43730 0.46080 0.88537
 C1879 C 0.43124 0.45450 0.86837
 H1880 H 0.41969 0.46087 0.86179
 O1881 O 0.51749 0.59032 0.93436
 O1882 O 0.51752 0.61154 0.91315
 C1883 C 0.52369 0.60512 0.92797
 C1884 C 0.53849 0.61469 0.93771
 C1885 C 0.54455 0.63182 0.93183
 H1886 H 0.53809 0.63846 0.92036
 O1887 O 0.48203 0.40922 0.93469
 O1888 O 0.48200 0.38788 0.91360
 C1889 C 0.47583 0.39439 0.92838
 C1890 C 0.46100 0.38488 0.93815
 C1891 C 0.45487 0.36778 0.93226
 H1892 H 0.46131 0.36112 0.92079
 O1893 O 0.59023 0.56548 0.98237
 O1894 O 0.61150 0.58660 0.98230
 C1895 C 0.60503 0.57181 0.97614
 C1896 C 0.61456 0.56206 0.96129
 C1897 C 0.63162 0.56800 0.95510
 H1898 H 0.63824 0.57951 0.96150
 O1899 O 0.40919 0.43425 0.98268
 O1900 O 0.38793 0.41312 0.98274
 C1901 C 0.39437 0.42789 0.97651
 C1902 C 0.38481 0.43760 0.96167
 C1903 C 0.36769 0.43171 0.95559
 H1904 H 0.36105 0.42027 0.96208
 Cu1905 Cu 0.49974 0.42375 0.92428
 Cu1906 Cu 0.49973 0.39822 0.89888
 Cu1907 Cu 0.49978 0.57574 0.92406
 Cu1908 Cu 0.49977 0.60111 0.89852
 Cu1909 Cu 0.42374 0.49974 0.92424
 Cu1910 Cu 0.39828 0.49974 0.89878
 Cu1911 Cu 0.57573 0.49963 0.92416
 Cu1912 Cu 0.60117 0.49960 0.89868
 C1913 C 0.45223 0.45220 0.89368
 H1914 H 0.45683 0.45682 0.90689
 C1915 C 0.43987 0.43980 0.85990
 C1916 C 0.54721 0.54708 0.89353
 H1917 H 0.54280 0.54270 0.90690
 C1918 C 0.55905 0.55885 0.85935
 C1919 C 0.39316 0.45242 0.95294
 H1920 H 0.40646 0.45688 0.95739
 C1921 C 0.35914 0.44042 0.94097
 C1922 C 0.60623 0.54717 0.95266
 H1923 H 0.59296 0.54266 0.95719
 C1924 C 0.64013 0.55929 0.94046
 C1925 C 0.45231 0.39327 0.95299
 H1926 H 0.45680 0.40657 0.95745
 C1927 C 0.44023 0.35929 0.94097
 C1928 C 0.54718 0.60634 0.95257
 H1929 H 0.54273 0.59303 0.95704
 C1930 C 0.55912 0.64038 0.94058
 C1931 C 0.45233 0.54711 0.89358
 H1932 H 0.45672 0.54275 0.90696
 C1933 C 0.44054 0.55882 0.85936
 C1934 C 0.54719 0.45216 0.89362
 H1935 H 0.54271 0.45666 0.90692
 C1936 C 0.55923 0.44004 0.85962
 C1937 C 0.54718 0.39325 0.95295
 H1938 H 0.54264 0.40651 0.95746
 C1939 C 0.55941 0.35934 0.94082
 C1940 C 0.45236 0.60641 0.95257
 H1941 H 0.45681 0.59311 0.95706
 C1942 C 0.44040 0.64044 0.94052
 C1943 C 0.39326 0.54734 0.95274
 H1944 H 0.40650 0.54277 0.95729
 C1945 C 0.35943 0.55963 0.94048
 C1946 C 0.60634 0.45227 0.95282
 H1947 H 0.59304 0.45674 0.95729
 C1948 C 0.64035 0.44024 0.94082
 O1949 O 0.51750 0.43451 1.09117
 O1950 O 0.51752 0.41339 1.11247
 C1951 C 0.52370 0.42816 1.10600
 C1952 C 0.53854 0.43788 1.11552
 C1953 C 0.54465 0.43201 1.13266
 H1954 H 0.53817 0.42058 1.13934
 O1955 O 0.48206 0.56579 1.09094
 O1956 O 0.48205 0.58698 1.11217
 C1957 C 0.47586 0.57218 1.10574
 C1958 C 0.46103 0.56249 1.11532
 C1959 C 0.45495 0.56841 1.13245
 H1960 H 0.46144 0.57985 1.13909
 O1961 O 0.40920 0.51791 1.06608
 O1962 O 0.38792 0.51799 1.08722
 C1963 C 0.39439 0.52414 1.07241
 C1964 C 0.38487 0.53898 1.06265
 C1965 C 0.36782 0.54521 1.06860
 H1966 H 0.36119 0.53884 1.08012
 O1967 O 0.59031 0.48226 1.06610
 O1968 O 0.61160 0.48227 1.08721
 C1969 C 0.60513 0.47606 1.07244
 C1970 C 0.61466 0.46122 1.06270
 C1971 C 0.63181 0.45516 1.06855
 H1972 H 0.63847 0.46166 1.07998
 O1973 O 0.56539 0.40941 1.01815
 O1974 O 0.58649 0.38810 1.01823
 C1975 C 0.57171 0.39460 1.02439
 C1976 C 0.56195 0.38510 1.03924
 C1977 C 0.56772 0.36792 1.04528
 H1978 H 0.57912 0.36121 1.03877
 O1979 O 0.43420 0.59057 1.01789
 O1980 O 0.41309 0.61187 1.01787
 C1981 C 0.42787 0.60541 1.02406
 C1982 C 0.43761 0.61498 1.03888
 C1983 C 0.43179 0.63216 1.04489
 H1984 H 0.42038 0.63882 1.03837
 O1985 O 0.43408 0.48249 1.09105
 O1986 O 0.41293 0.48250 1.11232
 C1987 C 0.42772 0.47630 1.10588
 C1988 C 0.43745 0.46149 1.11546
 C1989 C 0.43156 0.45542 1.13260
 H1990 H 0.42010 0.46190 1.13924
 O1991 O 0.56547 0.51780 1.09097
 O1992 O 0.58664 0.51787 1.11222
 C1993 C 0.57184 0.52404 1.10577
 C1994 C 0.56213 0.53890 1.11529
 C1995 C 0.56810 0.54511 1.13236
 H1996 H 0.57961 0.53871 1.13898
 O1997 O 0.48205 0.40962 1.06626
 O1998 O 0.48202 0.38837 1.08743
 C1999 C 0.47586 0.39481 1.07262
 C2000 C 0.46107 0.38523 1.06286
 C2001 C 0.45506 0.36808 1.06872
 H2002 H 0.46156 0.36144 1.08017
 O2003 O 0.51753 0.59057 1.06596
 O2004 O 0.51757 0.61191 1.08705
 C2005 C 0.52374 0.60540 1.07227
 C2006 C 0.53856 0.61491 1.06249
 C2007 C 0.54466 0.63205 1.06831
 H2008 H 0.53821 0.63873 1.07977
 O2009 O 0.40927 0.43437 1.01817
 O2010 O 0.38801 0.41324 1.01827
 C2011 C 0.39447 0.42805 1.02441
 C2012 C 0.38493 0.43784 1.03921
 C2013 C 0.36778 0.43202 1.04528
 H2014 H 0.36112 0.42057 1.03880
 O2015 O 0.59026 0.56552 1.01786
 O2016 O 0.61155 0.58663 1.01782
 C2017 C 0.60509 0.57186 1.02404
 C2018 C 0.61466 0.56213 1.03886
 C2019 C 0.63185 0.56792 1.04482
 H2020 H 0.63852 0.57931 1.03825
 O2021 O 0.51752 0.56574 1.09092
 O2022 O 0.51756 0.58694 1.11215
 C2023 C 0.52374 0.57213 1.10572
 C2024 C 0.53858 0.56243 1.11528
 C2025 C 0.54477 0.56842 1.13234
 H2026 H 0.53835 0.57993 1.13895
 O2027 O 0.48204 0.43454 1.09115
 O2028 O 0.48201 0.41343 1.11246
 C2029 C 0.47583 0.42821 1.10598
 C2030 C 0.46099 0.43796 1.11551
 C2031 C 0.45489 0.43211 1.13266
 H2032 H 0.46136 0.42067 1.13934
 O2033 O 0.59031 0.51771 1.06601
 O2034 O 0.61162 0.51777 1.08712
 C2035 C 0.60515 0.52391 1.07231
 C2036 C 0.61469 0.53867 1.06248
 C2037 C 0.63188 0.54468 1.06823
 H2038 H 0.63857 0.53820 1.07966
 O2039 O 0.40924 0.48246 1.06610
 O2040 O 0.38795 0.48247 1.08723
 C2041 C 0.39442 0.47627 1.07245
 C2042 C 0.38490 0.46143 1.06271
 C2043 C 0.36775 0.45539 1.06856
 H2044 H 0.36108 0.46190 1.07999
 O2045 O 0.56539 0.59044 1.01787
 O2046 O 0.58654 0.61168 1.01785
 C2047 C 0.57176 0.60525 1.02406
 C2048 C 0.56205 0.61483 1.03889
 C2049 C 0.56793 0.63197 1.04493
 H2050 H 0.57937 0.63860 1.03841
 O2051 O 0.43415 0.40946 1.01819
 O2052 O 0.41303 0.38819 1.01829
 C2053 C 0.42782 0.39466 1.02444
 C2054 C 0.43757 0.38515 1.03929
 C2055 C 0.43177 0.36799 1.04536
 H2056 H 0.42036 0.36130 1.03886
 O2057 O 0.56546 0.48235 1.09105
 O2058 O 0.58662 0.48236 1.11231
 C2059 C 0.57183 0.47617 1.10588
 C2060 C 0.56210 0.46137 1.11547
 C2061 C 0.56800 0.45529 1.13260
 H2062 H 0.57947 0.46175 1.13923
 O2063 O 0.43408 0.51795 1.09100
 O2064 O 0.41293 0.51801 1.11228
 C2065 C 0.42772 0.52417 1.10582
 C2066 C 0.43746 0.53900 1.11535
 C2067 C 0.43160 0.54513 1.13249
 H2068 H 0.42014 0.53869 1.13916
 O2069 O 0.48209 0.59060 1.06594
 O2070 O 0.48208 0.61193 1.08703
 C2071 C 0.47590 0.60544 1.07224
 C2072 C 0.46111 0.61499 1.06245
 C2073 C 0.45508 0.63217 1.06825
 H2074 H 0.46157 0.63885 1.07969
 O2075 O 0.51749 0.40962 1.06624
 O2076 O 0.51750 0.38837 1.08741
 C2077 C 0.52367 0.39480 1.07260
 C2078 C 0.53845 0.38521 1.06283
 C2079 C 0.54445 0.36803 1.06866
 H2080 H 0.53795 0.36139 1.08012
 O2081 O 0.59030 0.43426 1.01812
 O2082 O 0.61154 0.41310 1.01821
 C2083 C 0.60510 0.42791 1.02436
 C2084 C 0.61464 0.43766 1.03918
 C2085 C 0.63179 0.43181 1.04524
 H2086 H 0.63844 0.42036 1.03876
 O2087 O 0.40927 0.56572 1.01795
 O2088 O 0.38804 0.58689 1.01793
 C2089 C 0.39447 0.57211 1.02415
 C2090 C 0.38493 0.56245 1.03903
 C2091 C 0.36788 0.56847 1.04520
 H2092 H 0.36129 0.57997 1.03874
 Cu2093 Cu 0.49977 0.42419 1.07659
 Cu2094 Cu 0.49976 0.39876 1.10208
 Cu2095 Cu 0.49980 0.57605 1.07633
 Cu2096 Cu 0.49981 0.60157 1.10173
 Cu2097 Cu 0.42380 0.42397 1.00042
 Cu2098 Cu 0.39835 0.39853 1.00053
 Cu2099 Cu 0.57576 0.42391 1.00038
 Cu2100 Cu 0.60117 0.39842 1.00046
 Cu2101 Cu 0.42385 0.57599 1.00017
 Cu2102 Cu 0.39843 0.60147 1.00013
 Cu2103 Cu 0.57569 0.57584 1.00013
 Cu2104 Cu 0.60115 0.60127 1.00007
 Cu2105 Cu 0.42377 0.50020 1.07644
 Cu2106 Cu 0.39830 0.50025 1.10189
 Cu2107 Cu 0.57577 0.50003 1.07642
 Cu2108 Cu 0.60126 0.50007 1.10185
 C2109 C 0.54725 0.45269 1.10713
 H2110 H 0.54278 0.45714 1.09381
 C2111 C 0.55927 0.44072 1.14117
 C2112 C 0.45230 0.54767 1.10697
 H2113 H 0.45675 0.54319 1.09365
 C2114 C 0.44034 0.55973 1.14101
 C2115 C 0.39323 0.54758 1.04774
 H2116 H 0.40648 0.54302 1.04322
 C2117 C 0.35935 0.55986 1.05988
 C2118 C 0.60627 0.45249 1.04789
 H2119 H 0.59295 0.45692 1.04346
 C2120 C 0.64035 0.44056 1.05982
 C2121 C 0.54719 0.39355 1.04799
 H2122 H 0.54280 0.40689 1.04357
 C2123 C 0.55898 0.35941 1.05989
 C2124 C 0.45240 0.60659 1.04764
 H2125 H 0.45682 0.59325 1.04324
 C2126 C 0.44053 0.64073 1.05947
 C2127 C 0.45229 0.45277 1.10711
 H2128 H 0.45676 0.45722 1.09379
 C2129 C 0.44028 0.44084 1.14118
 C2130 C 0.54725 0.54754 1.10695
 H2131 H 0.54272 0.54300 1.09369
 C2132 C 0.55943 0.55977 1.14085
 C2133 C 0.45235 0.39357 1.04802
 H2134 H 0.45675 0.40690 1.04357
 C2135 C 0.44052 0.35948 1.05997
 C2136 C 0.54724 0.60649 1.04766
 H2137 H 0.54278 0.59317 1.04324
 C2138 C 0.55924 0.64055 1.05954
 C2139 C 0.39329 0.45267 1.04791
 H2140 H 0.40662 0.45709 1.04348
 C2141 C 0.35922 0.44079 1.05985
 C2142 C 0.60627 0.54738 1.04767
 H2143 H 0.59291 0.54298 1.04331
 C2144 C 0.64044 0.55920 1.05940
 C2145 C 1.12720 1.12658 1.30321
 C2146 C 1.12079 1.12026 1.28950
 C2147 C 1.11324 1.11286 1.27303
 C2148 C 1.11713 1.09496 1.26792
 C2149 C 1.11006 1.08789 1.25173
 C2150 C 1.09899 1.09867 1.24044
 C2151 C 1.09507 1.11663 1.24577
 C2152 C 1.10217 1.12367 1.26195
 C2153 C 1.09173 1.09132 1.22308
 C2154 C 1.07387 1.09532 1.21750
 C2155 C 1.06718 1.08864 1.20100
 C2156 C 1.07824 1.07788 1.18985
 C2157 C 1.09599 1.07374 1.19531
 C2158 C 1.10270 1.08040 1.21181
 C2159 C 1.07149 1.07130 1.17270
 C2160 C 1.06597 1.06586 1.15824
 H2161 H 1.12566 1.08646 1.27641
 H2162 H 1.11313 1.07395 1.24813
 H2163 H 1.08680 1.12535 1.23726
 H2164 H 1.09913 1.13758 1.26574
 H2165 H 1.06502 1.10349 1.22598
 H2166 H 1.05341 1.09190 1.19691
 H2167 H 1.10468 1.06548 1.18674
 H2168 H 1.11658 1.07728 1.21559
 C2169 C 1.12693 0.62597 0.80326
 C2170 C 1.12060 0.61957 0.78956
 C2171 C 1.11316 0.61206 0.77308
 C2172 C 1.12414 0.60163 0.76155
 C2173 C 1.11705 0.59463 0.74535
 C2174 C 1.09887 0.59800 0.74046
 C2175 C 1.08791 0.60843 0.75220
 C2176 C 1.09503 0.61541 0.76840
 C2177 C 1.09144 0.59087 0.72307
 C2178 C 1.07993 0.60169 0.71226
 C2179 C 1.07323 0.59511 0.69572
 C2180 C 1.07791 0.57765 0.68978
 C2181 C 1.08925 0.56674 0.70047
 C2182 C 1.09599 0.57329 0.71701
 C2183 C 1.07131 0.57107 0.67257
 C2184 C 1.06589 0.56565 0.65807
 H2185 H 1.13822 0.59903 0.76501
 H2186 H 1.12590 0.58687 0.73650
 H2187 H 1.07381 0.61107 0.74892
 H2188 H 1.08641 0.62345 0.77724
 H2189 H 1.07639 0.61536 0.71642
 H2190 H 1.06452 0.60370 0.68751
 H2191 H 1.09294 0.55320 0.69601
 H2192 H 1.10463 0.56456 0.72513
 C2193 C 0.62693 1.12637 0.80289
 C2194 C 0.62047 1.12004 0.78921
 C2195 C 0.61286 1.11265 0.77276
 C2196 C 0.60218 1.12361 0.76145
 C2197 C 0.59508 1.11659 0.74527
 C2198 C 0.59861 1.09849 0.74016
 C2199 C 0.60929 1.08755 0.75168
 C2200 C 0.61636 1.09460 0.76787
 C2201 C 0.59138 1.09115 0.72278
 C2202 C 0.60221 1.07986 0.71174
 C2203 C 0.59553 1.07324 0.69521
 C2204 C 0.57796 1.07777 0.68951
 C2205 C 0.56704 1.08889 0.70043
 C2206 C 0.57369 1.09554 0.71696
 C2207 C 0.57126 1.07123 0.67232
 C2208 C 0.56578 1.06584 0.65783
 H2209 H 0.59945 1.13763 0.76507
 H2210 H 0.58713 1.12543 0.73658
 H2211 H 0.61205 1.07350 0.74825
 H2212 H 0.62459 1.08599 0.77654
 H2213 H 0.61596 1.07643 0.71572
 H2214 H 0.60412 1.06469 0.68682
 H2215 H 0.55340 1.09246 0.69615
 H2216 H 0.56495 1.10401 0.72525
 C2217 C 0.62733 0.62714 1.30303
 C2218 C 0.62117 0.62090 1.28917
 C2219 C 0.61400 0.61360 1.27248
 C2220 C 0.62442 0.61426 1.25657
 C2221 C 0.61746 0.60738 1.24027
 C2222 C 0.59994 0.59972 1.23968
 C2223 C 0.58960 0.59904 1.25578
 C2224 C 0.59659 0.60595 1.27207
 C2225 C 0.59248 0.59259 1.22231
 C2226 C 0.58244 0.57631 1.22196
 C2227 C 0.57556 0.56957 1.20555
 C2228 C 0.57859 0.57902 1.18930
 C2229 C 0.58850 0.59525 1.18952
 C2230 C 0.59541 0.60200 1.20590
 C2231 C 0.57167 0.57206 1.17237
 C2232 C 0.56601 0.56638 1.15807
 H2233 H 0.63794 0.62011 1.25675
 H2234 H 0.62585 0.60787 1.22818
 H2235 H 0.57599 0.59343 1.25571
 H2236 H 0.58839 0.60542 1.28430
 H2237 H 0.58015 0.56865 1.23433
 H2238 H 0.56795 0.55697 1.20553
 H2239 H 0.59089 0.60270 1.17703
 H2240 H 0.60286 0.61469 1.20575
 C2241 C 0.87324 0.87324 1.30325
 C2242 C 0.87961 0.87961 1.28955
 C2243 C 0.88710 0.88709 1.27308
 C2244 C 0.88321 0.90503 1.26810
 C2245 C 0.89020 0.91218 1.25192
 C2246 C 0.90119 0.90145 1.24050
 C2247 C 0.90511 0.88345 1.24569
 C2248 C 0.89809 0.87633 1.26187
 C2249 C 0.90836 0.90890 1.22313
 C2250 C 0.92619 0.90489 1.21744
 C2251 C 0.93280 0.91165 1.20093
 C2252 C 0.92170 0.92248 1.18990
 C2253 C 0.90399 0.92662 1.19548
 C2254 C 0.89735 0.91989 1.21199
 C2255 C 0.92837 0.92912 1.17274
 C2256 C 0.93386 0.93457 1.15828
 H2257 H 0.87473 0.91349 1.27670
 H2258 H 0.88713 0.92614 1.24841
 H2259 H 0.91331 0.87477 1.23708
 H2260 H 0.90113 0.86240 1.26556
 H2261 H 0.93507 0.89666 1.22582
 H2262 H 0.94654 0.90838 1.19675
 H2263 H 0.89526 0.93493 1.18701
 H2264 H 0.88350 0.92301 1.21587
 C2265 C 0.87284 0.37330 0.80292
 C2266 C 0.87916 0.37972 0.78921
 C2267 C 0.88659 0.38726 0.77275
 C2268 C 0.87550 0.39737 0.76104
 C2269 C 0.88260 0.40443 0.74487
 C2270 C 0.90090 0.40144 0.74017
 C2271 C 0.91196 0.39133 0.75208
 C2272 C 0.90484 0.38429 0.76826
 C2273 C 0.90835 0.40865 0.72282
 C2274 C 0.92023 0.39806 0.71219
 C2275 C 0.92698 0.40472 0.69571
 C2276 C 0.92198 0.42204 0.68963
 C2277 C 0.91025 0.43273 0.70014
 C2278 C 0.90347 0.42609 0.71663
 C2279 C 0.92866 0.42872 0.67249
 C2280 C 0.93416 0.43420 0.65804
 H2281 H 0.86134 0.39969 0.76435
 H2282 H 0.87367 0.41194 0.73588
 H2283 H 0.92616 0.38899 0.74896
 H2284 H 0.91355 0.37651 0.77724
 H2285 H 0.92404 0.38450 0.71645
 H2286 H 0.93599 0.39631 0.68763
 H2287 H 0.90631 0.44617 0.69558
 H2288 H 0.89454 0.43466 0.72461
 C2289 C 0.37278 0.87362 0.80298
 C2290 C 0.37918 0.87996 0.78927
 C2291 C 0.38675 0.88736 0.77280
 C2292 C 0.38312 0.90538 0.76787
 C2293 C 0.39020 0.91246 0.75170
 C2294 C 0.40101 0.90159 0.74023
 C2295 C 0.40465 0.88352 0.74537
 C2296 C 0.39755 0.87647 0.76155
 C2297 C 0.40827 0.90897 0.72287
 C2298 C 0.42602 0.90470 0.71713
 C2299 C 0.43270 0.91139 0.70063
 C2300 C 0.42175 0.92243 0.68965
 C2301 C 0.40412 0.92684 0.69528
 C2302 C 0.39741 0.92017 0.71178
 C2303 C 0.42849 0.92902 0.67249
 C2304 C 0.43401 0.93446 0.65803
 H2305 H 0.37480 0.91394 0.77651
 H2306 H 0.38734 0.92648 0.74823
 H2307 H 0.41271 0.87473 0.73673
 H2308 H 0.40038 0.86248 0.76520
 H2309 H 0.43478 0.89630 0.72547
 H2310 H 0.44638 0.90793 0.69641
 H2311 H 0.39551 0.93531 0.68685
 H2312 H 0.38362 0.92350 0.71569
 C2313 C 0.37283 0.37356 1.30353
 C2314 C 0.37922 0.37990 1.28982
 C2315 C 0.38676 0.38732 1.27336
 C2316 C 0.38291 0.40526 1.26831
 C2317 C 0.38996 0.41235 1.25213
 C2318 C 0.40097 0.40157 1.24077
 C2319 C 0.40485 0.38358 1.24603
 C2320 C 0.39778 0.37652 1.26221
 C2321 C 0.40820 0.40896 1.22340
 C2322 C 0.42603 0.40492 1.21776
 C2323 C 0.43269 0.41162 1.20126
 C2324 C 0.42163 0.42244 1.19017
 C2325 C 0.40392 0.42662 1.19570
 C2326 C 0.39723 0.41994 1.21220
 C2327 C 0.42835 0.42903 1.17301
 C2328 C 0.43386 0.43447 1.15855
 H2329 H 0.37442 0.41375 1.27686
 H2330 H 0.38691 0.42631 1.24857
 H2331 H 0.41307 0.37487 1.23747
 H2332 H 0.40078 0.36259 1.26595
 H2333 H 0.43488 0.39669 1.22619
 H2334 H 0.44644 0.40833 1.19712
 H2335 H 0.39522 0.43492 1.18718
 H2336 H 0.38337 0.42309 1.21603
 C2337 C 0.87113 1.12752 0.69793
 C2338 C 0.87744 1.12112 0.71166
 C2339 C 0.88483 1.11360 0.72816
 C2340 C 0.90280 1.10739 0.72866
 C2341 C 0.91000 1.10026 0.74477
 C2342 C 0.89928 1.09925 0.76060
 C2343 C 0.88121 1.10550 0.75993
 C2344 C 0.87405 1.11263 0.74382
 C2345 C 0.90692 1.09183 0.77778
 C2346 C 0.89634 1.08056 0.78906
 C2347 C 0.90341 1.07385 0.80539
 C2348 C 0.92113 1.07829 0.81067
 C2349 C 0.93181 1.08940 0.79951
 C2350 C 0.92477 1.09612 0.78316
 C2351 C 0.92820 1.07168 0.82769
 C2352 C 0.93393 1.06618 0.84205
 H2353 H 0.91125 1.10805 0.71660
 H2354 H 0.92388 1.09536 0.74479
 H2355 H 0.87270 1.10515 0.77195
 H2356 H 0.86014 1.11747 0.74361
 H2357 H 0.88265 1.07681 0.78518
 H2358 H 0.89504 1.06523 0.81391
 H2359 H 0.94552 1.09298 0.80351
 H2360 H 0.93317 1.10495 0.77490
 C2361 C 0.87361 0.62572 0.19654
 C2362 C 0.87986 0.61932 0.21028
 C2363 C 0.88720 0.61180 0.22679
 C2364 C 0.87553 0.60457 0.23997
 C2365 C 0.88259 0.59754 0.25617
 C2366 C 0.90144 0.59767 0.25941
 C2367 C 0.91307 0.60490 0.24603
 C2368 C 0.90598 0.61191 0.22983
 C2369 C 0.90890 0.59048 0.27675
 C2370 C 0.92313 0.59959 0.28574
 C2371 C 0.92989 0.59302 0.30225
 C2372 C 0.92256 0.57727 0.31000
 C2373 C 0.90850 0.56804 0.30112
 C2374 C 0.90170 0.57459 0.28461
 C2375 C 0.92925 0.57074 0.32720
 C2376 C 0.93472 0.56536 0.34169
 H2377 H 0.86097 0.60448 0.23778
 H2378 H 0.87327 0.59230 0.26629
 H2379 H 0.92765 0.60498 0.24802
 H2380 H 0.91513 0.61745 0.21970
 H2381 H 0.92880 0.61198 0.28017
 H2382 H 0.94073 0.60031 0.30906
 H2383 H 0.90274 0.55581 0.30698
 H2384 H 0.89091 0.56714 0.27791
 C2385 C 0.37275 1.12642 0.19682
 C2386 C 0.37898 1.12001 0.21057
 C2387 C 0.38630 1.11248 0.22709
 C2388 C 0.40511 1.11211 0.22992
 C2389 C 0.41219 1.10507 0.24611
 C2390 C 0.40052 1.09830 0.25969
 C2391 C 0.38164 1.09866 0.25666
 C2392 C 0.37459 1.10572 0.24047
 C2393 C 0.40798 1.09106 0.27702
 C2394 C 0.40043 1.07545 0.28511
 C2395 C 0.40723 1.06886 0.30160
 C2396 C 0.42166 1.07777 0.31022
 C2397 C 0.42934 1.09323 0.30224
 C2398 C 0.42257 1.09984 0.28574
 C2399 C 0.42837 1.07121 0.32739
 C2400 C 0.43387 1.06580 0.34186
 H2401 H 0.41429 1.11729 0.21963
 H2402 H 0.42679 1.10477 0.24794
 H2403 H 0.37229 1.09379 0.26695
 H2404 H 0.36001 1.10601 0.23845
 H2405 H 0.38935 1.06826 0.27861
 H2406 H 0.40120 1.05686 0.30765
 H2407 H 0.44047 1.10027 0.30884
 H2408 H 0.42852 1.11202 0.27999
 C2409 C 0.37383 0.62556 0.69655
 C2410 C 0.38003 0.61913 0.71030
 C2411 C 0.38727 0.61158 0.72684
 C2412 C 0.40608 0.61081 0.72958
 C2413 C 0.41308 0.60376 0.74580
 C2414 C 0.40134 0.59736 0.75949
 C2415 C 0.38245 0.59811 0.75655
 C2416 C 0.37548 0.60518 0.74033
 C2417 C 0.40872 0.59014 0.77686
 C2418 C 0.40087 0.57477 0.78513
 C2419 C 0.40758 0.56822 0.80167
 C2420 C 0.42222 0.57692 0.81016
 C2421 C 0.43020 0.59213 0.80199
 C2422 C 0.42351 0.59870 0.78544
 C2423 C 0.42883 0.57042 0.82739
 C2424 C 0.43424 0.56508 0.84192
 H2425 H 0.41533 0.61571 0.71920
 H2426 H 0.42768 0.60316 0.74756
 H2427 H 0.37305 0.59353 0.76692
 H2428 H 0.36090 0.60577 0.73838
 H2429 H 0.38962 0.56775 0.77875
 H2430 H 0.40133 0.55642 0.80787
 H2431 H 0.44149 0.59901 0.80848
 H2432 H 0.42969 0.61069 0.77954
 C2433 C 1.12712 0.87286 0.69723
 C2434 C 1.12068 0.87906 0.71098
 C2435 C 1.11309 0.88631 0.72751
 C2436 C 1.10710 0.87454 0.74121
 C2437 C 1.09997 0.88153 0.75739
 C2438 C 1.09874 0.90043 0.76010
 C2439 C 1.10474 0.91216 0.74621
 C2440 C 1.11186 0.90513 0.73003
 C2441 C 1.09141 0.90785 0.77741
 C2442 C 1.09960 0.92301 0.78574
 C2443 C 1.09290 0.92976 0.80222
 C2444 C 1.07794 0.92150 0.81056
 C2445 C 1.06963 0.90650 0.80233
 C2446 C 1.07631 0.89971 0.78587
 C2447 C 1.07129 0.92823 0.82771
 C2448 C 1.06583 0.93375 0.84215
 H2449 H 1.10806 0.85994 0.73943
 H2450 H 1.09571 0.87215 0.76791
 H2451 H 1.10377 0.92676 0.74779
 H2452 H 1.11642 0.91437 0.71949
 H2453 H 1.11139 0.92942 0.77970
 H2454 H 1.09948 0.94134 0.80851
 H2455 H 1.05801 0.90002 0.80867
 H2456 H 1.06957 0.88817 0.77968
 C2457 C 1.12657 0.37362 0.19654
 C2458 C 1.12015 0.37984 0.21029
 C2459 C 1.11258 0.38708 0.22682
 C2460 C 1.10596 0.37530 0.24022
 C2461 C 1.09885 0.38227 0.25642
 C2462 C 1.09828 0.40115 0.25945
 C2463 C 1.10491 0.41290 0.24586
 C2464 C 1.11200 0.40589 0.22966
 C2465 C 1.09101 0.40853 0.27680
 C2466 C 1.09966 0.42320 0.28552
 C2467 C 1.09304 0.42987 0.30206
 C2468 C 1.07768 0.42201 0.31008
 C2469 C 1.06890 0.40751 0.30146
 C2470 C 1.07550 0.40080 0.28493
 C2471 C 1.07114 0.42861 0.32731
 C2472 C 1.06576 0.43402 0.34183
 H2473 H 1.10641 0.36072 0.23819
 H2474 H 1.09409 0.37287 0.26671
 H2475 H 1.10445 0.42749 0.24770
 H2476 H 1.11706 0.41513 0.21936
 H2477 H 1.11175 0.42928 0.27974
 H2478 H 1.09998 0.44106 0.30866
 H2479 H 1.05698 0.40134 0.30754
 H2480 H 1.06841 0.38966 0.27844
 C2481 C 0.62631 0.87291 0.19674
 C2482 C 0.61984 0.87915 0.21047
 C2483 C 0.61225 0.88648 0.22696
 C2484 C 0.61177 0.90529 0.22975
 C2485 C 0.60467 0.91238 0.24592
 C2486 C 0.59793 0.90071 0.25951
 C2487 C 0.59839 0.88181 0.25652
 C2488 C 0.60551 0.87476 0.24036
 C2489 C 0.59066 0.90817 0.27683
 C2490 C 0.57509 0.90056 0.28494
 C2491 C 0.56847 0.90737 0.30143
 C2492 C 0.57730 0.92186 0.31002
 C2493 C 0.59272 0.92961 0.30202
 C2494 C 0.59936 0.92283 0.28553
 C2495 C 0.57072 0.92857 0.32720
 C2496 C 0.56531 0.93407 0.34167
 H2497 H 0.61692 0.91448 0.21945
 H2498 H 0.60430 0.92698 0.24771
 H2499 H 0.59355 0.87247 0.26682
 H2500 H 0.60588 0.86017 0.23837
 H2501 H 0.56796 0.88942 0.27848
 H2502 H 0.55651 0.90129 0.30750
 H2503 H 0.59970 0.94079 0.30859
 H2504 H 0.61150 0.92883 0.27976
 C2505 C 0.62750 0.37259 0.69763
 C2506 C 0.62103 0.37879 0.71137
 C2507 C 0.61340 0.38605 0.72787
 C2508 C 0.60736 0.37428 0.74156
 C2509 C 0.60016 0.38128 0.75770
 C2510 C 0.59891 0.40019 0.76039
 C2511 C 0.60497 0.41191 0.74652
 C2512 C 0.61216 0.40487 0.73037
 C2513 C 0.59151 0.40762 0.77767
 C2514 C 0.59965 0.42279 0.78602
 C2515 C 0.59288 0.42956 0.80246
 C2516 C 0.57789 0.42129 0.81076
 C2517 C 0.56962 0.40628 0.80251
 C2518 C 0.57637 0.39948 0.78608
 C2519 C 0.57119 0.42803 0.82788
 C2520 C 0.56568 0.43356 0.84230
 H2521 H 0.60833 0.35969 0.73979
 H2522 H 0.59586 0.37191 0.76821
 H2523 H 0.60398 0.42651 0.74809
 H2524 H 0.61676 0.41410 0.71985
 H2525 H 0.61146 0.42921 0.78002
 H2526 H 0.59943 0.44114 0.80877
 H2527 H 0.55798 0.39980 0.80880
 H2528 H 0.56966 0.38794 0.77987
 C2529 C 1.30288 1.12657 1.12652
 C2530 C 1.28916 1.12033 1.12010
 C2531 C 1.27268 1.11298 1.11256
 C2532 C 1.26923 1.09430 1.11353
 C2533 C 1.25305 1.08721 1.10650
 C2534 C 1.24011 1.09874 1.09840
 C2535 C 1.24376 1.11749 1.09741
 C2536 C 1.25993 1.12455 1.10445
 C2537 C 1.22278 1.09129 1.09120
 C2538 C 1.21542 1.09785 1.07478
 C2539 C 1.19893 1.09107 1.06821
 C2540 C 1.18958 1.07766 1.07793
 C2541 C 1.19682 1.07097 1.09421
 C2542 C 1.21331 1.07772 1.10081
 C2543 C 1.17241 1.07098 1.07136
 C2544 C 1.15795 1.06551 1.06594
 H2545 H 1.27902 1.08521 1.11975
 H2546 H 1.25074 1.07269 1.10727
 H2547 H 1.23396 1.12675 1.09148
 H2548 H 1.26243 1.13905 1.10370
 H2549 H 1.22249 1.10813 1.06696
 H2550 H 1.19346 1.09632 1.05557
 H2551 H 1.18965 1.06064 1.10189
 H2552 H 1.21849 1.07257 1.11360
 C2553 C 1.30349 0.62622 0.62550
 C2554 C 1.28975 0.61999 0.61911
 C2555 C 1.27324 0.61267 0.61162
 C2556 C 1.26003 0.62437 0.60449
 C2557 C 1.24382 0.61735 0.59751
 C2558 C 1.24060 0.59849 0.59757
 C2559 C 1.25400 0.58683 0.60469
 C2560 C 1.27021 0.59389 0.61166
 C2561 C 1.22323 0.59106 0.59044
 C2562 C 1.21431 0.57679 0.59954
 C2563 C 1.19778 0.57006 0.59303
 C2564 C 1.18996 0.57747 0.57734
 C2565 C 1.19878 0.59157 0.56811
 C2566 C 1.21531 0.59833 0.57460
 C2567 C 1.17275 0.57080 0.57087
 C2568 C 1.15825 0.56536 0.56552
 H2569 H 1.26221 0.63894 0.60446
 H2570 H 1.23368 0.62669 0.59236
 H2571 H 1.25201 0.57224 0.60473
 H2572 H 1.28036 0.58471 0.61712
 H2573 H 1.21994 0.57107 0.61189
 H2574 H 1.19102 0.55919 0.60032
 H2575 H 1.19285 0.59738 0.55593
 H2576 H 1.22195 0.60916 0.56716
 C2577 C 0.80178 1.12796 0.62830
 C2578 C 0.78805 1.12172 0.62186
 C2579 C 0.77155 1.11445 0.61426
 C2580 C 0.75600 1.12535 0.61315
 C2581 C 0.73991 1.11833 0.60589
 C2582 C 0.73915 1.10026 0.59963
 C2583 C 0.75487 1.08941 0.60078
 C2584 C 0.77096 1.09647 0.60804
 C2585 C 0.72199 1.09277 0.59205
 C2586 C 0.71644 1.07496 0.59629
 C2587 C 0.70011 1.06806 0.58942
 C2588 C 0.68913 1.07884 0.57822
 C2589 C 0.69459 1.09652 0.57382
 C2590 C 0.71090 1.10346 0.58068
 C2591 C 0.67213 1.07190 0.57147
 C2592 C 0.65779 1.06625 0.56591
 H2593 H 0.75629 1.13927 0.61798
 H2594 H 0.72799 1.12695 0.60543
 H2595 H 0.75478 1.07553 0.59588
 H2596 H 0.78293 1.08792 0.60880
 H2597 H 0.72455 1.06648 0.60518
 H2598 H 0.69598 1.05437 0.59297
 H2599 H 0.68622 1.10498 0.56513
 H2600 H 0.71491 1.11712 0.57697
 C2601 C 0.80318 0.62627 1.12554
 C2602 C 0.78944 0.62004 1.11915
 C2603 C 0.77291 0.61275 1.11165
 C2604 C 0.77005 0.59395 1.11128
 C2605 C 0.75384 0.58690 1.10431
 C2606 C 0.74026 0.59860 1.09760
 C2607 C 0.74332 0.61749 1.09794
 C2608 C 0.75954 0.62450 1.10493
 C2609 C 0.72289 0.59118 1.09046
 C2610 C 0.71474 0.59875 1.07488
 C2611 C 0.69820 0.59200 1.06841
 C2612 C 0.68960 0.57761 1.07739
 C2613 C 0.69764 0.56991 1.09283
 C2614 C 0.71419 0.57663 1.09933
 C2615 C 0.67237 0.57096 1.07096
 C2616 C 0.65786 0.56552 1.06565
 H2617 H 0.78034 0.58474 1.11643
 H2618 H 0.75198 0.57230 1.10403
 H2619 H 0.73304 0.62685 1.09311
 H2620 H 0.76158 0.63908 1.10521
 H2621 H 0.72121 0.60981 1.06763
 H2622 H 0.69210 0.59804 1.05643
 H2623 H 0.69105 0.55881 1.09993
 H2624 H 0.71999 0.57067 1.11148
 C2625 C 1.30262 0.87274 0.87307
 C2626 C 1.28883 0.87893 0.87942
 C2627 C 1.27226 0.88614 0.88693
 C2628 C 1.25751 0.87458 0.89016
 C2629 C 1.24133 0.88152 0.89732
 C2630 C 1.23968 0.90016 0.90133
 C2631 C 1.25461 0.91167 0.89805
 C2632 C 1.27079 0.90469 0.89090
 C2633 C 1.22241 0.90756 0.90874
 C2634 C 1.21556 0.92433 0.90258
 C2635 C 1.19912 0.93110 0.90931
 C2636 C 1.18932 0.92123 0.92230
 C2637 C 1.19607 0.90460 0.92861
 C2638 C 1.21250 0.89779 0.92189
 C2639 C 1.17220 0.92800 0.92893
 C2640 C 1.15778 0.93356 0.93439
 H2641 H 1.25848 0.86021 0.88707
 H2642 H 1.23001 0.87236 0.89944
 H2643 H 1.25384 0.92603 0.90120
 H2644 H 1.28214 0.91375 0.88848
 H2645 H 1.22274 0.93205 0.89230
 H2646 H 1.19398 0.94396 0.90428
 H2647 H 1.18861 0.89686 0.93869
 H2648 H 1.21752 0.88496 0.92708
 C2649 C 1.30313 0.37328 0.37282
 C2650 C 1.28937 0.37951 0.37920
 C2651 C 1.27284 0.38678 0.38675
 C2652 C 1.26948 0.40550 0.38621
 C2653 C 1.25329 0.41250 0.39333
 C2654 C 1.24026 0.40084 0.40109
 C2655 C 1.24382 0.38205 0.40163
 C2656 C 1.26000 0.37508 0.39449
 C2657 C 1.22294 0.40821 0.40843
 C2658 C 1.21549 0.40127 0.42464
 C2659 C 1.19901 0.40798 0.43135
 C2660 C 1.18976 0.42170 0.42195
 C2661 C 1.19710 0.42876 0.40587
 C2662 C 1.21358 0.42208 0.39914
 C2663 C 1.17262 0.42833 0.42865
 C2664 C 1.15817 0.43379 0.43414
 H2665 H 1.27935 0.41467 0.38027
 H2666 H 1.25105 0.42704 0.39291
 H2667 H 1.23395 0.37270 0.40728
 H2668 H 1.26243 0.36056 0.39492
 H2669 H 1.22248 0.39075 0.43222
 H2670 H 1.19347 0.40244 0.44383
 H2671 H 1.19001 0.43933 0.39845
 H2672 H 1.21882 0.42753 0.38651
 C2673 C 0.80271 0.87328 0.37295
 C2674 C 0.78895 0.87953 0.37930
 C2675 C 0.77242 0.88683 0.38680
 C2676 C 0.76014 0.87537 0.39573
 C2677 C 0.74393 0.88236 0.40277
 C2678 C 0.73978 0.90095 0.40096
 C2679 C 0.75225 0.91239 0.39203
 C2680 C 0.76846 0.90536 0.38500
 C2681 C 0.72242 0.90833 0.40819
 C2682 C 0.71241 0.92120 0.39816
 C2683 C 0.69592 0.92790 0.40483
 C2684 C 0.68921 0.92186 0.42159
 C2685 C 0.69910 0.90914 0.43171
 C2686 C 0.71559 0.90241 0.42507
 C2687 C 0.67206 0.92851 0.42826
 C2688 C 0.65762 0.93398 0.43375
 H2689 H 0.76304 0.86099 0.39713
 H2690 H 0.73451 0.87317 0.40935
 H2691 H 0.74955 0.92679 0.39062
 H2692 H 0.77789 0.91436 0.37815
 H2693 H 0.71717 0.92584 0.38502
 H2694 H 0.68833 0.93769 0.39684
 H2695 H 0.69404 0.90439 0.44472
 H2696 H 0.72308 0.89269 0.43321
 C2697 C 0.80256 0.37327 0.87288
 C2698 C 0.78883 0.37952 0.87931
 C2699 C 0.77234 0.38684 0.88689
 C2700 C 0.76057 0.37558 0.89672
 C2701 C 0.74440 0.38257 0.90386
 C2702 C 0.73978 0.40096 0.90124
 C2703 C 0.75175 0.41219 0.89140
 C2704 C 0.76792 0.40516 0.88429
 C2705 C 0.72244 0.40831 0.90854
 C2706 C 0.71190 0.42045 0.89815
 C2707 C 0.69542 0.42711 0.90489
 C2708 C 0.68926 0.42177 0.92210
 C2709 C 0.69968 0.40979 0.93259
 C2710 C 0.71616 0.40310 0.92587
 C2711 C 0.67212 0.42837 0.92885
 C2712 C 0.65769 0.43382 0.93438
 H2713 H 0.76382 0.36135 0.89875
 H2714 H 0.73536 0.37352 0.91114
 H2715 H 0.74869 0.42644 0.88935
 H2716 H 0.77696 0.41400 0.87673
 H2717 H 0.71623 0.42453 0.88468
 H2718 H 0.68742 0.43632 0.89663
 H2719 H 0.69506 0.40559 0.94594
 H2720 H 0.72407 0.39396 0.93429
 C2721 C 0.69695 0.87401 1.12717
 C2722 C 0.71066 0.88043 1.12090
 C2723 C 0.72712 0.88797 1.11349
 C2724 C 0.73172 0.88486 1.09528
 C2725 C 0.74789 0.89187 1.08818
 C2726 C 0.75970 0.90210 1.09923
 C2727 C 0.75490 0.90524 1.11750
 C2728 C 0.73872 0.89820 1.12457
 C2729 C 0.77706 0.90928 1.09181
 C2730 C 0.78319 0.92677 1.09655
 C2731 C 0.79968 0.93337 1.08980
 C2732 C 0.81027 0.92259 1.07822
 C2733 C 0.80426 0.90521 1.07335
 C2734 C 0.78777 0.89859 1.08007
 C2735 C 0.82743 0.92923 1.07157
 C2736 C 0.84188 0.93468 1.06609
 H2737 H 0.72282 0.87698 1.08658
 H2738 H 0.75109 0.88942 1.07401
 H2739 H 0.76381 0.91285 1.12641
 H2740 H 0.73533 0.90063 1.13871
 H2741 H 0.77515 0.93541 1.10537
 H2742 H 0.80420 0.94685 1.09364
 H2743 H 0.81240 0.89672 1.06446
 H2744 H 0.78356 0.88498 1.07636
 C2745 C 0.69795 0.37261 0.62786
 C2746 C 0.71175 0.37897 0.62170
 C2747 C 0.72832 0.38645 0.61448
 C2748 C 0.72873 0.39364 0.59685
 C2749 C 0.74489 0.40076 0.58981
 C2750 C 0.76087 0.40080 0.60035
 C2751 C 0.76029 0.39357 0.61807
 C2752 C 0.74412 0.38645 0.62507
 C2753 C 0.77809 0.40824 0.59288
 C2754 C 0.78974 0.41866 0.60392
 C2755 C 0.80609 0.42541 0.59698
 C2756 C 0.81103 0.42185 0.57894
 C2757 C 0.79950 0.41159 0.56781
 C2758 C 0.78312 0.40484 0.57472
 C2759 C 0.82805 0.42852 0.57196
 C2760 C 0.84239 0.43403 0.56627
 H2761 H 0.71656 0.39374 0.58855
 H2762 H 0.74484 0.40643 0.57622
 H2763 H 0.77240 0.39317 0.62643
 H2764 H 0.74398 0.38086 0.63871
 H2765 H 0.78614 0.42172 0.61787
 H2766 H 0.81491 0.43337 0.60570
 H2767 H 0.80322 0.40870 0.55384
 H2768 H 0.77456 0.39668 0.56595
 C2769 C 0.19726 0.87330 0.62716
 C2770 C 0.21097 0.87976 0.62092
 C2771 C 0.22744 0.88737 0.61361
 C2772 C 0.23009 0.88819 0.59477
 C2773 C 0.24623 0.89531 0.58770
 C2774 C 0.25995 0.90172 0.59940
 C2775 C 0.25711 0.90090 0.61832
 C2776 C 0.24097 0.89376 0.62536
 C2777 C 0.27723 0.90904 0.59194
 C2778 C 0.28548 0.92440 0.59981
 C2779 C 0.30192 0.93105 0.59300
 C2780 C 0.31034 0.92246 0.57825
 C2781 C 0.30220 0.90724 0.57025
 C2782 C 0.28575 0.90057 0.57703
 C2783 C 0.32748 0.92907 0.57152
 C2784 C 0.34191 0.93450 0.56600
 H2785 H 0.21969 0.88330 0.58555
 H2786 H 0.24791 0.89596 0.57308
 H2787 H 0.26750 0.90549 0.62769
 H2788 H 0.23909 0.89312 0.63997
 H2789 H 0.27914 0.93136 0.61115
 H2790 H 0.30810 0.94287 0.59928
 H2791 H 0.30864 0.90044 0.55887
 H2792 H 0.27987 0.88858 0.57083
 C2793 C 0.19678 0.37337 1.12652
 C2794 C 0.21055 0.37965 1.12022
 C2795 C 0.22709 0.38696 1.11278
 C2796 C 0.22990 0.40577 1.11235
 C2797 C 0.24611 0.41283 1.10535
 C2798 C 0.25971 0.40114 1.09867
 C2799 C 0.25671 0.38225 1.09910
 C2800 C 0.24051 0.37523 1.10611
 C2801 C 0.27704 0.40858 1.09146
 C2802 C 0.28518 0.40097 1.07589
 C2803 C 0.30166 0.40776 1.06932
 C2804 C 0.31023 0.42224 1.07819
 C2805 C 0.30221 0.42998 1.09363
 C2806 C 0.28572 0.42322 1.10022
 C2807 C 0.32739 0.42894 1.07164
 C2808 C 0.34185 0.43442 1.06622
 H2809 H 0.21959 0.41498 1.11744
 H2810 H 0.24792 0.42744 1.10500
 H2811 H 0.26701 0.37289 1.09430
 H2812 H 0.23850 0.36064 1.10644
 H2813 H 0.27873 0.38985 1.06871
 H2814 H 0.30774 0.40169 1.05734
 H2815 H 0.30877 0.44114 1.10065
 H2816 H 0.27993 0.42921 1.11237
 C2817 C 0.69763 1.12734 0.87239
 C2818 C 0.71151 1.12117 0.87856
 C2819 C 0.72821 1.11399 0.88580
 C2820 C 0.74488 1.11980 0.87872
 C2821 C 0.76114 1.11297 0.88578
 C2822 C 0.76095 1.10019 0.90002
 C2823 C 0.74412 1.09438 0.90702
 C2824 C 0.72786 1.10126 0.89995
 C2825 C 0.77826 1.09298 0.90754
 C2826 C 0.77999 1.07445 0.91203
 C2827 C 0.79638 1.06767 0.91888
 C2828 C 0.81122 1.07930 0.92138
 C2829 C 0.80960 1.09776 0.91705
 C2830 C 0.79325 1.10456 0.91018
 C2831 C 0.82818 1.07232 0.92819
 C2832 C 0.84250 1.06664 0.93379
 H2833 H 0.74530 1.12962 0.86773
 H2834 H 0.77386 1.11751 0.87993
 H2835 H 0.74353 1.08472 0.91812
 H2836 H 0.71502 1.09670 0.90556
 H2837 H 0.76877 1.06516 0.90995
 H2838 H 0.79750 1.05335 0.92214
 H2839 H 0.82100 1.10689 0.91897
 H2840 H 0.79227 1.11892 0.90710
 C2841 C 0.69759 0.62701 0.37294
 C2842 C 0.71146 0.62089 0.37917
 C2843 C 0.72816 0.61377 0.38645
 C2844 C 0.72895 0.59592 0.39299
 C2845 C 0.74526 0.58897 0.39988
 C2846 C 0.76101 0.59982 0.40028
 C2847 C 0.76004 0.61777 0.39374
 C2848 C 0.74373 0.62468 0.38688
 C2849 C 0.77841 0.59244 0.40740
 C2850 C 0.79493 0.59644 0.39862
 C2851 C 0.81132 0.58959 0.40535
 C2852 C 0.81145 0.57866 0.42093
 C2853 C 0.79509 0.57455 0.42975
 C2854 C 0.77866 0.58137 0.42302
 C2855 C 0.82839 0.57176 0.42787
 C2856 C 0.84270 0.56612 0.43354
 H2857 H 0.71699 0.58733 0.39267
 H2858 H 0.74562 0.57504 0.40461
 H2859 H 0.77186 0.62654 0.39409
 H2860 H 0.74326 0.63854 0.38190
 H2861 H 0.79516 0.60469 0.38642
 H2862 H 0.82390 0.59280 0.39839
 H2863 H 0.79504 0.56614 0.44185
 H2864 H 0.76620 0.57823 0.43020
 C2865 C 0.19730 1.12724 0.37206
 C2866 C 0.21119 1.12111 0.37824
 C2867 C 0.22789 1.11396 0.38551
 C2868 C 0.24457 1.12003 0.37867
 C2869 C 0.26083 1.11320 0.38574
 C2870 C 0.26063 1.10018 0.39977
 C2871 C 0.24378 1.09413 0.40652
 C2872 C 0.22753 1.10099 0.39944
 C2873 C 0.27793 1.09296 0.40729
 C2874 C 0.27975 1.07438 0.41149
 C2875 C 0.29613 1.06760 0.41837
 C2876 C 0.31087 1.07928 0.42118
 C2877 C 0.30917 1.09779 0.41713
 C2878 C 0.29282 1.10460 0.41024
 C2879 C 0.32782 1.07230 0.42803
 C2880 C 0.34212 1.06660 0.43366
 H2881 H 0.24500 1.13003 0.36785
 H2882 H 0.27356 1.11794 0.38007
 H2883 H 0.24318 1.08428 0.41746
 H2884 H 0.21469 1.09624 0.40487
 H2885 H 0.26861 1.06504 0.40917
 H2886 H 0.29732 1.05323 0.42141
 H2887 H 0.32048 1.10696 0.41929
 H2888 H 0.29177 1.11900 0.40738
 C2889 C 0.19734 0.62740 0.87301
 C2890 C 0.21124 0.62128 0.87918
 C2891 C 0.22796 0.61411 0.88640
 C2892 C 0.24462 0.62056 0.87989
 C2893 C 0.26090 0.61366 0.88686
 C2894 C 0.26072 0.60018 0.90045
 C2895 C 0.24389 0.59377 0.90689
 C2896 C 0.22762 0.60071 0.89991
 C2897 C 0.27803 0.59288 0.90785
 C2898 C 0.28000 0.57418 0.91144
 C2899 C 0.29639 0.56732 0.91821
 C2900 C 0.31100 0.57904 0.92151
 C2901 C 0.30916 0.59765 0.91807
 C2902 C 0.29280 0.60454 0.91128
 C2903 C 0.32795 0.57199 0.92829
 C2904 C 0.34224 0.56626 0.93390
 H2905 H 0.24504 0.63089 0.86940
 H2906 H 0.27362 0.61869 0.88144
 H2907 H 0.24330 0.58356 0.91750
 H2908 H 0.21478 0.59565 0.90508
 H2909 H 0.26896 0.56483 0.90873
 H2910 H 0.29769 0.55287 0.92078
 H2911 H 0.32037 0.60685 0.92062
 H2912 H 0.29164 0.61902 0.90890
 C2913 C 1.12697 1.30311 1.12561
 C2914 C 1.12072 1.28937 1.11923
 C2915 C 1.11338 1.27286 1.11174
 C2916 C 1.09459 1.26992 1.11166
 C2917 C 1.08751 1.25372 1.10468
 C2918 C 1.09915 1.24024 1.09767
 C2919 C 1.11802 1.24339 1.09773
 C2920 C 1.12507 1.25958 1.10473
 C2921 C 1.09169 1.22290 1.09052
 C2922 C 1.09904 1.21489 1.07475
 C2923 C 1.09225 1.19838 1.06824
 C2924 C 1.07804 1.18965 1.07739
 C2925 C 1.07056 1.19754 1.09302
 C2926 C 1.07732 1.21406 1.09954
 C2927 C 1.07135 1.17244 1.07092
 C2928 C 1.06589 1.15795 1.06558
 H2929 H 1.08542 1.28013 1.11703
 H2930 H 1.07292 1.25180 1.10461
 H2931 H 1.12735 1.23318 1.09266
 H2932 H 1.13965 1.26169 1.10479
 H2933 H 1.10995 1.22147 1.06737
 H2934 H 1.09812 1.19240 1.05612
 H2935 H 1.05960 1.19085 1.10024
 H2936 H 1.07154 1.21975 1.11184
 C2937 C 1.12771 0.80273 0.62591
 C2938 C 1.12144 0.78903 0.61946
 C2939 C 1.11406 0.77256 0.61190
 C2940 C 1.09528 0.76954 0.61212
 C2941 C 1.08814 0.75337 0.60510
 C2942 C 1.09972 0.74001 0.59777
 C2943 C 1.11857 0.74324 0.59753
 C2944 C 1.12567 0.75940 0.60456
 C2945 C 1.09221 0.72269 0.59060
 C2946 C 1.09931 0.71485 0.57464
 C2947 C 1.09247 0.69837 0.56811
 C2948 C 1.07844 0.68950 0.57742
 C2949 C 1.07120 0.69723 0.59324
 C2950 C 1.07802 0.71372 0.59979
 C2951 C 1.07169 0.67233 0.57090
 C2952 C 1.06618 0.65787 0.56552
 H2953 H 1.08616 0.77965 0.61774
 H2954 H 1.07356 0.75139 0.60527
 H2955 H 1.12786 0.73313 0.59221
 H2956 H 1.14024 0.76157 0.60439
 H2957 H 1.11007 0.72153 0.56714
 H2958 H 1.09815 0.69251 0.55583
 H2959 H 1.06039 0.69044 0.60059
 H2960 H 1.07242 0.71928 0.61223
 C2961 C 0.62800 1.30246 0.62631
 C2962 C 0.62168 1.28880 0.61983
 C2963 C 0.61424 1.27238 0.61224
 C2964 C 0.59541 1.26972 0.61179
 C2965 C 0.58822 1.25361 0.60473
 C2966 C 0.59979 1.23993 0.59799
 C2967 C 0.61870 1.24278 0.59842
 C2968 C 0.62586 1.25889 0.60550
 C2969 C 0.59221 1.22267 0.59074
 C2970 C 0.59975 1.21450 0.57516
 C2971 C 0.59284 1.19807 0.56857
 C2972 C 0.57831 1.18958 0.57744
 C2973 C 0.57063 1.19765 0.59289
 C2974 C 0.57751 1.21409 0.59950
 C2975 C 0.57150 1.17245 0.57089
 C2976 C 0.56594 1.15802 0.56549
 H2977 H 0.58630 1.28009 0.61695
 H2978 H 0.57360 1.25191 0.60438
 H2979 H 0.62797 1.23242 0.59358
 H2980 H 0.64046 1.26078 0.60585
 H2981 H 0.61091 1.22088 0.56798
 H2982 H 0.59887 1.19195 0.55658
 H2983 H 0.55943 1.19115 0.59991
 H2984 H 0.57157 1.21990 0.61165
 C2985 C 0.62672 0.80288 1.12655
 C2986 C 0.62050 0.78914 1.12012
 C2987 C 0.61320 0.77263 1.11257
 C2988 C 0.62494 0.75915 1.10603
 C2989 C 0.61791 0.74298 1.09896
 C2990 C 0.59901 0.74005 1.09835
 C2991 C 0.58732 0.75373 1.10489
 C2992 C 0.59439 0.76991 1.11195
 C2993 C 0.59156 0.72273 1.09111
 C2994 C 0.57680 0.71415 1.09975
 C2995 C 0.57003 0.69766 1.09315
 C2996 C 0.57789 0.68954 1.07783
 C2997 C 0.59250 0.69802 1.06907
 C2998 C 0.59930 0.71450 1.07565
 C2999 C 0.57117 0.67238 1.07128
 C3000 C 0.56566 0.65792 1.06588
 H3001 H 0.63953 0.76110 1.10651
 H3002 H 0.62727 0.73262 1.09427
 H3003 H 0.57272 0.75198 1.10440
 H3004 H 0.58518 0.78027 1.11694
 H3005 H 0.57071 0.72001 1.11181
 H3006 H 0.55877 0.69118 1.10008
 H3007 H 0.59866 0.69186 1.05718
 H3008 H 0.61052 0.72087 1.06857
 C3009 C 0.87348 1.30282 0.87267
 C3010 C 0.87980 1.28910 0.87905
 C3011 C 0.88719 1.27263 0.88659
 C3012 C 0.90573 1.26873 0.88476
 C3013 C 0.91284 1.25259 0.89185
 C3014 C 0.90148 1.24011 0.90089
 C3015 C 0.88288 1.24420 0.90272
 C3016 C 0.87580 1.26035 0.89560
 C3017 C 0.90893 1.22282 0.90819
 C3018 C 0.90306 1.21606 0.92512
 C3019 C 0.90982 1.19960 0.93181
 C3020 C 0.92254 1.18968 0.92170
 C3021 C 0.92856 1.19634 0.90491
 C3022 C 0.92182 1.21280 0.89820
 C3023 C 0.92918 1.17254 0.92840
 C3024 C 0.93462 1.15810 0.93391
 H3025 H 0.91467 1.27817 0.87783
 H3026 H 0.92724 1.24994 0.89042
 H3027 H 0.87374 1.23478 0.90937
 H3028 H 0.86142 1.26319 0.89703
 H3029 H 0.89333 1.22356 0.93324
 H3030 H 0.90509 1.19458 0.94484
 H3031 H 0.93835 1.18873 0.89694
 H3032 H 0.92644 1.21752 0.88503
 C3033 C 0.87359 0.80278 0.37300
 C3034 C 0.87991 0.78905 0.37935
 C3035 C 0.88733 0.77256 0.38684
 C3036 C 0.90539 0.76774 0.38332
 C3037 C 0.91249 0.75156 0.39033
 C3038 C 0.90160 0.73998 0.40098
 C3039 C 0.88348 0.74501 0.40452
 C3040 C 0.87640 0.76119 0.39748
 C3041 C 0.90901 0.72262 0.40819
 C3042 C 0.90464 0.71676 0.42588
 C3043 C 0.91137 0.70026 0.43252
 C3044 C 0.92254 0.68941 0.42157
 C3045 C 0.92704 0.69517 0.40399
 C3046 C 0.92034 0.71166 0.39733
 C3047 C 0.92917 0.67226 0.42826
 C3048 C 0.93462 0.65781 0.43375
 H3049 H 0.91397 0.77647 0.37512
 H3050 H 0.92655 0.74818 0.38755
 H3051 H 0.87467 0.73628 0.41246
 H3052 H 0.86238 0.76476 0.40023
 H3053 H 0.89614 0.72499 0.43465
 H3054 H 0.90783 0.69595 0.44616
 H3055 H 0.93562 0.68683 0.39538
 H3056 H 0.92375 0.71567 0.38357
 C3057 C 0.37312 1.30314 0.37331
 C3058 C 0.37942 1.28942 0.37968
 C3059 C 0.38680 1.27292 0.38718
 C3060 C 0.37544 1.26075 0.39639
 C3061 C 0.38250 1.24457 0.40344
 C3062 C 0.40104 1.24033 0.40134
 C3063 C 0.41236 1.25270 0.39213
 C3064 C 0.40528 1.26889 0.38510
 C3065 C 0.40846 1.22298 0.40855
 C3066 C 0.42112 1.21286 0.39837
 C3067 C 0.42785 1.19637 0.40501
 C3068 C 0.42205 1.18978 0.42190
 C3069 C 0.40955 1.19979 0.43218
 C3070 C 0.40279 1.21628 0.42557
 C3071 C 0.42869 1.17261 0.42853
 C3072 C 0.43414 1.15815 0.43399
 H3073 H 0.36111 1.26371 0.39801
 H3074 H 0.37338 1.23522 0.41024
 H3075 H 0.42673 1.24994 0.39050
 H3076 H 0.41419 1.27823 0.37802
 H3077 H 0.42556 1.21753 0.38512
 H3078 H 0.43746 1.18868 0.39690
 H3079 H 0.40498 1.19482 0.44529
 H3080 H 0.39324 1.22386 0.43383
 C3081 C 0.37273 0.80271 0.87352
 C3082 C 0.37905 0.78898 0.87986
 C3083 C 0.38646 0.77249 0.88734
 C3084 C 0.37523 0.76051 0.89694
 C3085 C 0.38232 0.74433 0.90396
 C3086 C 0.40077 0.73990 0.90144
 C3087 C 0.41196 0.75208 0.89183
 C3088 C 0.40484 0.76827 0.88483
 C3089 C 0.40822 0.72256 0.90864
 C3090 C 0.42053 0.71223 0.89824
 C3091 C 0.42729 0.69574 0.90487
 C3092 C 0.42186 0.68937 0.92197
 C3093 C 0.40971 0.69959 0.93247
 C3094 C 0.40292 0.71608 0.92586
 C3095 C 0.42854 0.67223 0.92862
 C3096 C 0.43401 0.65778 0.93409
 H3097 H 0.36097 0.76361 0.89889
 H3098 H 0.37330 0.73513 0.91107
 H3099 H 0.42626 0.74918 0.88986
 H3100 H 0.41366 0.77747 0.87744
 H3101 H 0.42468 0.71672 0.88484
 H3102 H 0.43663 0.68790 0.89660
 H3103 H 0.40544 0.69480 0.94574
 H3104 H 0.39365 0.72382 0.93428
 C3105 C 1.12658 0.69681 0.87387
 C3106 C 1.12013 0.71050 0.88016
 C3107 C 1.11253 0.72697 0.88751
 C3108 C 1.11439 0.73095 0.90604
 C3109 C 1.10730 0.74713 0.91309
 C3110 C 1.09823 0.75954 0.90168
 C3111 C 1.09636 0.75535 0.88309
 C3112 C 1.10347 0.73918 0.87607
 C3113 C 1.09096 0.77688 0.90906
 C3114 C 1.07405 0.78363 0.90320
 C3115 C 1.06740 0.80014 0.90989
 C3116 C 1.07754 0.81012 0.92252
 C3117 C 1.09433 0.80347 0.92852
 C3118 C 1.10100 0.78697 0.92186
 C3119 C 1.07089 0.82730 0.92910
 C3120 C 1.06544 0.84177 0.93453
 H3121 H 1.12136 0.72158 0.91502
 H3122 H 1.10877 0.74985 0.92749
 H3123 H 1.08968 0.76473 0.87391
 H3124 H 1.10202 0.73627 0.86169
 H3125 H 1.06590 0.77608 0.89354
 H3126 H 1.05437 0.80514 0.90517
 H3127 H 1.10233 0.81113 0.93825
 H3128 H 1.11417 0.78226 0.92646
 C3129 C 1.12668 0.19677 0.37322
 C3130 C 1.12027 0.21045 0.37958
 C3131 C 1.11274 0.22691 0.38703
 C3132 C 1.10208 0.23828 0.37611
 C3133 C 1.09504 0.25445 0.38321
 C3134 C 1.09859 0.25947 0.40134
 C3135 C 1.10925 0.24789 0.41223
 C3136 C 1.11627 0.23172 0.40511
 C3137 C 1.09141 0.27684 0.40876
 C3138 C 1.10228 0.28779 0.42008
 C3139 C 1.09565 0.30430 0.42678
 C3140 C 1.07809 0.31008 0.42230
 C3141 C 1.06713 0.29923 0.41115
 C3142 C 1.07373 0.28272 0.40442
 C3143 C 1.07144 0.32725 0.42891
 C3144 C 1.06599 0.34173 0.43434
 H3145 H 1.09933 0.23471 0.36207
 H3146 H 1.08709 0.26318 0.37440
 H3147 H 1.11204 0.25127 0.42630
 H3148 H 1.12449 0.22300 0.41368
 H3149 H 1.11603 0.28377 0.42347
 H3150 H 1.10428 0.31263 0.43534
 H3151 H 1.05350 0.30356 0.40762
 H3152 H 1.06496 0.27449 0.39593
 C3153 C 0.62613 0.69691 0.37348
 C3154 C 0.61974 0.71058 0.37990
 C3155 C 0.61229 0.72701 0.38746
 C3156 C 0.59413 0.73166 0.38420
 C3157 C 0.58700 0.74782 0.39124
 C3158 C 0.59796 0.75955 0.40165
 C3159 C 0.61617 0.75469 0.40494
 C3160 C 0.62327 0.73853 0.39787
 C3161 C 0.59054 0.77691 0.40884
 C3162 C 0.59514 0.78295 0.42641
 C3163 C 0.58844 0.79948 0.43301
 C3164 C 0.57707 0.81018 0.42213
 C3165 C 0.57231 0.80425 0.40468
 C3166 C 0.57898 0.78772 0.39807
 C3167 C 0.57052 0.82739 0.42875
 C3168 C 0.56515 0.84190 0.43418
 H3169 H 0.58550 0.72282 0.37618
 H3170 H 0.57288 0.75107 0.38866
 H3171 H 0.62503 0.76354 0.41268
 H3172 H 0.63737 0.73510 0.40042
 H3173 H 0.60381 0.77483 0.43511
 H3174 H 0.59218 0.80394 0.44655
 H3175 H 0.56357 0.81247 0.39613
 H3176 H 0.57538 0.78357 0.38440
 C3177 C 0.62767 0.19752 0.87317
 C3178 C 0.62147 0.21135 0.87941
 C3179 C 0.61424 0.22801 0.88670
 C3180 C 0.62127 0.24471 0.88093
 C3181 C 0.61431 0.26094 0.88797
 C3182 C 0.60019 0.26067 0.90089
 C3183 C 0.59320 0.24380 0.90659
 C3184 C 0.60020 0.22758 0.89954
 C3185 C 0.59282 0.27793 0.90835
 C3186 C 0.57400 0.28014 0.91106
 C3187 C 0.56708 0.29651 0.91784
 C3188 C 0.57886 0.31085 0.92202
 C3189 C 0.59759 0.30875 0.91947
 C3190 C 0.60454 0.29241 0.91269
 C3191 C 0.57177 0.32780 0.92875
 C3192 C 0.56603 0.34212 0.93430
 H3193 H 0.63210 0.24520 0.87095
 H3194 H 0.61980 0.27370 0.88311
 H3195 H 0.58249 0.24314 0.91668
 H3196 H 0.59469 0.21471 0.90414
 H3197 H 0.56462 0.26933 0.90765
 H3198 H 0.55255 0.29802 0.91970
 H3199 H 0.60683 0.31975 0.92271
 H3200 H 0.61909 0.29105 0.91099
 C3201 C 0.87390 0.69688 1.12626
 C3202 C 0.88025 0.71066 1.12008
 C3203 C 0.88772 0.72722 1.11283
 C3204 C 0.88765 0.73035 1.09405
 C3205 C 0.89464 0.74659 1.08705
 C3206 C 0.90181 0.75991 1.09878
 C3207 C 0.90189 0.75658 1.11764
 C3208 C 0.89488 0.74035 1.12460
 C3209 C 0.90899 0.77728 1.09142
 C3210 C 0.92486 0.78510 1.09871
 C3211 C 0.93140 0.80164 1.09201
 C3212 C 0.92221 0.81057 1.07794
 C3213 C 0.90649 0.80285 1.07052
 C3214 C 0.89992 0.78631 1.07719
 C3215 C 0.92873 0.82778 1.07133
 C3216 C 0.93411 0.84228 1.06592
 H3217 H 0.88217 0.72026 1.08482
 H3218 H 0.89459 0.74865 1.07247
 H3219 H 0.90707 0.76666 1.12703
 H3220 H 0.89493 0.73809 1.13917
 H3221 H 0.93228 0.77837 1.10950
 H3222 H 0.94361 0.80748 1.09783
 H3223 H 0.89922 0.80969 1.05967
 H3224 H 0.88755 0.78077 1.07145
 C3225 C 0.87155 0.19830 0.62850
 C3226 C 0.87782 0.21211 0.62228
 C3227 C 0.88513 0.22872 0.61497
 C3228 C 0.87852 0.24549 0.62108
 C3229 C 0.88552 0.26166 0.61398
 C3230 C 0.89925 0.26129 0.60065
 C3231 C 0.90584 0.24436 0.59463
 C3232 C 0.89881 0.22819 0.60174
 C3233 C 0.90664 0.27850 0.59308
 C3234 C 0.92539 0.28044 0.58979
 C3235 C 0.93233 0.29673 0.58287
 C3236 C 0.92064 0.31127 0.57913
 C3237 C 0.90197 0.30944 0.58226
 C3238 C 0.89500 0.29318 0.58919
 C3239 C 0.92776 0.32814 0.57224
 C3240 C 0.93354 0.34239 0.56657
 H3241 H 0.86798 0.24606 0.63136
 H3242 H 0.88034 0.27447 0.61908
 H3243 H 0.91624 0.24362 0.58423
 H3244 H 0.90399 0.21528 0.59689
 H3245 H 0.93472 0.26947 0.59286
 H3246 H 0.94681 0.29803 0.58055
 H3247 H 0.89279 0.32060 0.57936
 H3248 H 0.88049 0.29203 0.59133
 C3249 C 0.37424 0.69681 0.62635
 C3250 C 0.38060 0.71060 0.62017
 C3251 C 0.38806 0.72716 0.61290
 C3252 C 0.38788 0.73031 0.59413
 C3253 C 0.39484 0.74655 0.58711
 C3254 C 0.40209 0.75985 0.59880
 C3255 C 0.40228 0.75650 0.61766
 C3256 C 0.39530 0.74026 0.62464
 C3257 C 0.40922 0.77724 0.59142
 C3258 C 0.42512 0.78506 0.59862
 C3259 C 0.43163 0.80160 0.59187
 C3260 C 0.42235 0.81053 0.57785
 C3261 C 0.40658 0.80282 0.57053
 C3262 C 0.40005 0.78628 0.57725
 C3263 C 0.42885 0.82773 0.57119
 C3264 C 0.43422 0.84222 0.56573
 H3265 H 0.38233 0.72024 0.58491
 H3266 H 0.39471 0.74863 0.57252
 H3267 H 0.40753 0.76656 0.62703
 H3268 H 0.39543 0.73799 0.63921
 H3269 H 0.43261 0.77833 0.60936
 H3270 H 0.44387 0.80744 0.59761
 H3271 H 0.39925 0.80966 0.55973
 H3272 H 0.38765 0.78073 0.57159
 C3273 C 0.37381 0.19698 1.12720
 C3274 C 0.38022 0.21072 1.12098
 C3275 C 0.38774 0.22723 1.11369
 C3276 C 0.39458 0.24055 1.12543
 C3277 C 0.40163 0.25674 1.11842
 C3278 C 0.40192 0.25984 1.09952
 C3279 C 0.39507 0.24633 1.08782
 C3280 C 0.38804 0.23014 1.09487
 C3281 C 0.40912 0.27718 1.09210
 C3282 C 0.40027 0.28597 1.07758
 C3283 C 0.40683 0.30249 1.07085
 C3284 C 0.42234 0.31042 1.07850
 C3285 C 0.43132 0.30173 1.09285
 C3286 C 0.42477 0.28522 1.09962
 C3287 C 0.42885 0.32761 1.07182
 C3288 C 0.43422 0.34209 1.06635
 H3289 H 0.39435 0.23847 1.14003
 H3290 H 0.40656 0.26697 1.12779
 H3291 H 0.39531 0.24822 1.07321
 H3292 H 0.38280 0.21990 1.08565
 H3293 H 0.38806 0.28026 1.07166
 H3294 H 0.39974 0.30914 1.05978
 H3295 H 0.44335 0.30774 1.09886
 H3296 H 0.43202 0.27867 1.11064
 C3297 C 1.12607 1.12646 0.69666
 C3298 C 1.11969 1.12018 0.71040
 C3299 C 1.11220 1.11284 0.72693
 C3300 C 1.10626 1.12457 0.74069
 C3301 C 1.09924 1.11751 0.75689
 C3302 C 1.09808 1.09860 0.75955
 C3303 C 1.10404 1.08692 0.74559
 C3304 C 1.11105 1.09401 0.72939
 C3305 C 1.09088 1.09112 0.77688
 C3306 C 1.09917 1.07597 0.78514
 C3307 C 1.09262 1.06919 0.80166
 C3308 C 1.07770 1.07742 0.81012
 C3309 C 1.06927 1.09240 0.80196
 C3310 C 1.07580 1.09922 0.78545
 C3311 C 1.07123 1.07071 0.82733
 C3312 C 1.06586 1.06525 0.84184
 H3313 H 1.10716 1.13917 0.73896
 H3314 H 1.09501 1.12685 0.76747
 H3315 H 1.10312 1.07231 0.74714
 H3316 H 1.11559 1.08482 0.71880
 H3317 H 1.11094 1.06959 0.77900
 H3318 H 1.09929 1.05763 0.80790
 H3319 H 1.05769 1.09886 0.80839
 H3320 H 1.06898 1.11074 0.77933
 C3321 C 1.12685 0.62735 0.19696
 C3322 C 1.12056 0.62082 0.21063
 C3323 C 1.11320 0.61314 0.22706
 C3324 C 1.09496 0.61602 0.23163
 C3325 C 1.08791 0.60885 0.24778
 C3326 C 1.09904 0.59869 0.25958
 C3327 C 1.11734 0.59578 0.25480
 C3328 C 1.12436 0.60297 0.23865
 C3329 C 1.09169 0.59137 0.27692
 C3330 C 1.09664 0.57391 0.28301
 C3331 C 1.08997 0.56719 0.29951
 C3332 C 1.07828 0.57780 0.31013
 C3333 C 1.07319 0.59513 0.30415
 C3334 C 1.07983 0.60188 0.28766
 C3335 C 1.07171 0.57104 0.32729
 C3336 C 1.06628 0.56552 0.34174
 H3337 H 1.08620 0.62385 0.22273
 H3338 H 1.07372 0.61113 0.25096
 H3339 H 1.12632 0.58824 0.26370
 H3340 H 1.13852 0.60072 0.23528
 H3341 H 1.10556 0.56540 0.27495
 H3342 H 1.09397 0.55374 0.30399
 H3343 H 1.06420 0.60349 0.31231
 H3344 H 1.07596 0.61545 0.28347
 C3345 C 0.62621 1.12652 0.19664
 C3346 C 0.61991 1.12000 0.21030
 C3347 C 0.61255 1.11233 0.22673
 C3348 C 0.59381 1.11286 0.22997
 C3349 C 0.58671 1.10573 0.24612
 C3350 C 0.59829 1.09797 0.25924
 C3351 C 0.61710 1.09742 0.25578
 C3352 C 0.62416 1.10456 0.23964
 C3353 C 0.59085 1.09072 0.27656
 C3354 C 0.59773 1.07453 0.28410
 C3355 C 0.59099 1.06794 0.30061
 C3356 C 0.57728 1.07741 0.30980
 C3357 C 0.57025 1.09345 0.30236
 C3358 C 0.57697 1.10007 0.28585
 C3359 C 0.57066 1.07085 0.32701
 C3360 C 0.56525 1.06547 0.34152
 H3361 H 0.58469 1.11882 0.22004
 H3362 H 0.57216 1.10616 0.24828
 H3363 H 0.62639 1.09177 0.26571
 H3364 H 0.63870 1.10414 0.23729
 H3365 H 0.60825 1.06690 0.27716
 H3366 H 0.59650 1.05549 0.30624
 H3367 H 0.55969 1.10093 0.30941
 H3368 H 0.57155 1.11268 0.28053
 C3369 C 0.62590 0.62591 0.69673
 C3370 C 0.61948 0.61956 0.71042
 C3371 C 0.61193 0.61215 0.72688
 C3372 C 0.60199 0.62331 0.73866
 C3373 C 0.59496 0.61626 0.75486
 C3374 C 0.59780 0.59792 0.75950
 C3375 C 0.60774 0.58677 0.74751
 C3376 C 0.61475 0.59386 0.73131
 C3377 C 0.59064 0.59052 0.77689
 C3378 C 0.60121 0.57856 0.78745
 C3379 C 0.59462 0.57190 0.80400
 C3380 C 0.57739 0.57707 0.81020
 C3381 C 0.56673 0.58887 0.79975
 C3382 C 0.57329 0.59556 0.78320
 C3383 C 0.57080 0.57052 0.82742
 C3384 C 0.56539 0.56514 0.84193
 H3385 H 0.59980 0.63751 0.73540
 H3386 H 0.58760 0.62524 0.76391
 H3387 H 0.60996 0.57255 0.75060
 H3388 H 0.62240 0.58509 0.72227
 H3389 H 0.61471 0.57463 0.78309
 H3390 H 0.60302 0.56283 0.81202
 H3391 H 0.55336 0.59294 0.80441
 H3392 H 0.56475 0.60456 0.77528
 C3393 C 0.87381 0.87388 0.69670
 C3394 C 0.88015 0.88014 0.71046
 C3395 C 0.88764 0.88745 0.72700
 C3396 C 0.88610 0.90603 0.73081
 C3397 C 0.89312 0.91306 0.74703
 C3398 C 0.90179 0.90158 0.75966
 C3399 C 0.90334 0.88293 0.75564
 C3400 C 0.89630 0.87594 0.73943
 C3401 C 0.90900 0.90895 0.77703
 C3402 C 0.92571 0.90280 0.78402
 C3403 C 0.93231 0.90950 0.80056
 C3404 C 0.92230 0.92242 0.81031
 C3405 C 0.90572 0.92870 0.80343
 C3406 C 0.89910 0.92203 0.78690
 C3407 C 0.92890 0.92900 0.82752
 C3408 C 0.93432 0.93441 0.84202
 H3409 H 0.87945 0.91507 0.72126
 H3410 H 0.89191 0.92751 0.74962
 H3411 H 0.90970 0.87370 0.76519
 H3412 H 0.89750 0.86152 0.73664
 H3413 H 0.93376 0.89292 0.77664
 H3414 H 0.94518 0.90457 0.80575
 H3415 H 0.89783 0.93865 0.81092
 H3416 H 0.88608 0.92686 0.78200
 C3417 C 0.87365 0.37302 0.19684
 C3418 C 0.87997 0.37940 0.21056
 C3419 C 0.88737 0.38690 0.22705
 C3420 C 0.90533 0.38313 0.23205
 C3421 C 0.91240 0.39013 0.24826
 C3422 C 0.90157 0.40101 0.25969
 C3423 C 0.88356 0.40481 0.25448
 C3424 C 0.87652 0.39778 0.23828
 C3425 C 0.90894 0.40821 0.27708
 C3426 C 0.90480 0.42600 0.28280
 C3427 C 0.91151 0.43264 0.29931
 C3428 C 0.92243 0.42161 0.31032
 C3429 C 0.92670 0.40393 0.30472
 C3430 C 0.92002 0.39726 0.28821
 C3431 C 0.92904 0.42831 0.32748
 C3432 C 0.93448 0.43382 0.34193
 H3433 H 0.91386 0.37474 0.22344
 H3434 H 0.92638 0.38715 0.25178
 H3435 H 0.87480 0.41293 0.26310
 H3436 H 0.86257 0.40073 0.23457
 H3437 H 0.89650 0.43483 0.27443
 H3438 H 0.90814 0.44635 0.30351
 H3439 H 0.93508 0.39525 0.31318
 H3440 H 0.92324 0.38344 0.28431
 C3441 C 0.37396 0.87367 0.19631
 C3442 C 0.38019 0.88008 0.21006
 C3443 C 0.38749 0.88762 0.22658
 C3444 C 0.40555 0.88421 0.23148
 C3445 C 0.41253 0.89124 0.24772
 C3446 C 0.40151 0.90179 0.25928
 C3447 C 0.38339 0.90522 0.25417
 C3448 C 0.37645 0.89817 0.23793
 C3449 C 0.40877 0.90897 0.27671
 C3450 C 0.40426 0.92661 0.28263
 C3451 C 0.41086 0.93322 0.29920
 C3452 C 0.42203 0.92231 0.31007
 C3453 C 0.42667 0.90479 0.30427
 C3454 C 0.42011 0.89816 0.28771
 C3455 C 0.42853 0.92897 0.32729
 C3456 C 0.43391 0.93442 0.34179
 H3457 H 0.41423 0.87608 0.22277
 H3458 H 0.42659 0.88854 0.25116
 H3459 H 0.37449 0.91308 0.26289
 H3460 H 0.36242 0.90083 0.23431
 H3461 H 0.39575 0.93534 0.27437
 H3462 H 0.40720 0.94681 0.30355
 H3463 H 0.43526 0.89621 0.31263
 H3464 H 0.42363 0.88444 0.28366
 C3465 C 0.37242 0.37132 0.69796
 C3466 C 0.37864 0.37748 0.71183
 C3467 C 0.38593 0.38470 0.72850
 C3468 C 0.39177 0.40278 0.72937
 C3469 C 0.39867 0.40982 0.74564
 C3470 C 0.39979 0.39883 0.76129
 C3471 C 0.39394 0.38065 0.76024
 C3472 C 0.38706 0.37365 0.74395
 C3473 C 0.40694 0.40631 0.77864
 C3474 C 0.39867 0.40179 0.79531
 C3475 C 0.40543 0.40876 0.81166
 C3476 C 0.42053 0.42032 0.81160
 C3477 C 0.42884 0.42493 0.79510
 C3478 C 0.42209 0.41799 0.77872
 C3479 C 0.42749 0.42735 0.82849
 C3480 C 0.43320 0.43310 0.84275
 H3481 H 0.39090 0.41147 0.71749
 H3482 H 0.40286 0.42392 0.74607
 H3483 H 0.39485 0.37178 0.77196
 H3484 H 0.38262 0.35961 0.74342
 H3485 H 0.38684 0.39305 0.79569
 H3486 H 0.39886 0.40515 0.82435
 H3487 H 0.44057 0.43383 0.79490
 H3488 H 0.42889 0.42154 0.76614
 C3489 C 1.12695 0.87157 1.30269
 C3490 C 1.12050 0.87790 1.28900
 C3491 C 1.11292 0.88535 1.27256
 C3492 C 1.10615 0.87375 1.25907
 C3493 C 1.09903 0.88094 1.24297
 C3494 C 1.09861 0.89986 1.24013
 C3495 C 1.10539 0.91141 1.25380
 C3496 C 1.11249 0.90419 1.26991
 C3497 C 1.09131 0.90748 1.22289
 C3498 C 1.10002 0.92219 1.21429
 C3499 C 1.09336 0.92911 1.19787
 C3500 C 1.07789 0.92147 1.18985
 C3501 C 1.06906 0.90692 1.19835
 C3502 C 1.07571 0.89996 1.21476
 C3503 C 1.07128 0.92833 1.17275
 C3504 C 1.06581 0.93394 1.15834
 H3505 H 1.10648 0.85915 1.26095
 H3506 H 1.09416 0.87168 1.23261
 H3507 H 1.10504 0.92603 1.25212
 H3508 H 1.11766 0.91329 1.28028
 H3509 H 1.11219 0.92811 1.22007
 H3510 H 1.10034 0.94033 1.19137
 H3511 H 1.05706 0.90092 1.19227
 H3512 H 1.06857 0.88879 1.22115
 C3513 C 1.12598 0.37260 0.80316
 C3514 C 1.11956 0.37890 0.78945
 C3515 C 1.11203 0.38630 0.77296
 C3516 C 1.11186 0.40511 0.77011
 C3517 C 1.10486 0.41226 0.75393
 C3518 C 1.09790 0.40066 0.74039
 C3519 C 1.09805 0.38177 0.74344
 C3520 C 1.10507 0.37466 0.75962
 C3521 C 1.09073 0.40818 0.72306
 C3522 C 1.07502 0.40081 0.71501
 C3523 C 1.06849 0.40766 0.69851
 C3524 C 1.07756 0.42196 0.68984
 C3525 C 1.09312 0.42948 0.69778
 C3526 C 1.09967 0.42265 0.71429
 C3527 C 1.07107 0.42870 0.67265
 C3528 C 1.06570 0.43419 0.65816
 H3529 H 1.11719 0.41425 0.78037
 H3530 H 1.10473 0.42687 0.75209
 H3531 H 1.09303 0.37247 0.73319
 H3532 H 1.10520 0.36007 0.76166
 H3533 H 1.06770 0.38983 0.72153
 H3534 H 1.05641 0.40177 0.69249
 H3535 H 1.10029 0.44050 0.69115
 H3536 H 1.11192 0.42846 0.72001
 C3537 C 0.62618 0.87353 0.80309
 C3538 C 0.61978 0.87980 0.78935
 C3539 C 0.61225 0.88712 0.77284
 C3540 C 0.61184 0.90593 0.77001
 C3541 C 0.60479 0.91300 0.75382
 C3542 C 0.59803 0.90132 0.74023
 C3543 C 0.59843 0.88243 0.74326
 C3544 C 0.60550 0.87540 0.75945
 C3545 C 0.59080 0.90877 0.72290
 C3546 C 0.57521 0.90118 0.71480
 C3547 C 0.56863 0.90796 0.69830
 C3548 C 0.57751 0.92240 0.68967
 C3549 C 0.59295 0.93013 0.69766
 C3550 C 0.59955 0.92338 0.71418
 C3551 C 0.57098 0.92908 0.67247
 C3552 C 0.56559 0.93454 0.65798
 H3553 H 0.61700 0.91512 0.78030
 H3554 H 0.60446 0.92760 0.75199
 H3555 H 0.59358 0.87308 0.73297
 H3556 H 0.60582 0.86081 0.76147
 H3557 H 0.56804 0.89009 0.72129
 H3558 H 0.55665 0.90190 0.69224
 H3559 H 0.59997 0.94126 0.69106
 H3560 H 0.61170 0.92935 0.71994
 C3561 C 0.62688 0.37305 1.30330
 C3562 C 0.62048 0.37933 1.28956
 C3563 C 0.61292 0.38667 1.27307
 C3564 C 0.61285 0.40546 1.27011
 C3565 C 0.60575 0.41256 1.25395
 C3566 C 0.59861 0.40092 1.24053
 C3567 C 0.59868 0.38205 1.24368
 C3568 C 0.60580 0.37499 1.25984
 C3569 C 0.59130 0.40839 1.22324
 C3570 C 0.57546 0.40106 1.21539
 C3571 C 0.56879 0.40788 1.19894
 C3572 C 0.57783 0.42210 1.19011
 C3573 C 0.59352 0.42956 1.19785
 C3574 C 0.60022 0.42278 1.21431
 C3575 C 0.57118 0.42881 1.17297
 C3576 C 0.56570 0.43431 1.15852
 H3577 H 0.61830 0.41463 1.28028
 H3578 H 0.60569 0.42715 1.25202
 H3579 H 0.59352 0.37272 1.23352
 H3580 H 0.60585 0.36041 1.26197
 H3581 H 0.56816 0.39015 1.22205
 H3582 H 0.55661 0.40202 1.19308
 H3583 H 0.60067 0.44052 1.19108
 H3584 H 0.61256 0.42855 1.21987
 C3585 C 0.87318 1.12663 1.30338
 C3586 C 0.87947 1.12025 1.28964
 C3587 C 0.88682 1.11273 1.27313
 C3588 C 0.90561 1.11270 1.27015
 C3589 C 0.91271 1.10565 1.25396
 C3590 C 0.90107 1.09853 1.24053
 C3591 C 0.88221 1.09856 1.24371
 C3592 C 0.87515 1.10562 1.25989
 C3593 C 0.90854 1.09130 1.22320
 C3594 C 0.90122 1.07549 1.21530
 C3595 C 0.90802 1.06890 1.19879
 C3596 C 0.92220 1.07801 1.18998
 C3597 C 0.92964 1.09369 1.19777
 C3598 C 0.92288 1.10029 1.21428
 C3599 C 0.92888 1.07146 1.17279
 C3600 C 0.93435 1.06604 1.15830
 H3601 H 0.91477 1.11814 1.28033
 H3602 H 0.92730 1.10562 1.25202
 H3603 H 0.87288 1.09341 1.23354
 H3604 H 0.86058 1.10564 1.26203
 H3605 H 0.89034 1.06813 1.22194
 H3606 H 0.90217 1.05674 1.19289
 H3607 H 0.94057 1.10089 1.19102
 H3608 H 0.92864 1.11263 1.21989
 C3609 C 0.87357 0.62646 0.80307
 C3610 C 0.87985 0.62011 0.78932
 C3611 C 0.88718 0.61261 0.77278
 C3612 C 0.90598 0.61226 0.76993
 C3613 C 0.91305 0.60521 0.75373
 C3614 C 0.90138 0.59841 0.74017
 C3615 C 0.88249 0.59877 0.74321
 C3616 C 0.87546 0.60584 0.75941
 C3617 C 0.90882 0.59115 0.72284
 C3618 C 0.90125 0.57553 0.71478
 C3619 C 0.90803 0.56892 0.69828
 C3620 C 0.92244 0.57782 0.68961
 C3621 C 0.93014 0.59329 0.69757
 C3622 C 0.92340 0.59991 0.71408
 C3623 C 0.92911 0.57125 0.67242
 C3624 C 0.93457 0.56584 0.65794
 H3625 H 0.91517 0.61745 0.78020
 H3626 H 0.92765 0.60491 0.75188
 H3627 H 0.87314 0.59388 0.73294
 H3628 H 0.86088 0.60612 0.76145
 H3629 H 0.89019 0.56834 0.72130
 H3630 H 0.90199 0.55692 0.69225
 H3631 H 0.94125 0.60032 0.69094
 H3632 H 0.92935 0.61209 0.71981
 C3633 C 0.37301 1.12725 0.80275
 C3634 C 0.37926 1.12085 0.78901
 C3635 C 0.38658 1.11330 0.77249
 C3636 C 0.40540 1.11258 0.76980
 C3637 C 0.41247 1.10549 0.75363
 C3638 C 0.40079 1.09901 0.73992
 C3639 C 0.38189 1.09972 0.74280
 C3640 C 0.37485 1.10683 0.75897
 C3641 C 0.40825 1.09170 0.72261
 C3642 C 0.40046 1.07628 0.71440
 C3643 C 0.40728 1.06961 0.69794
 C3644 C 0.42195 1.07826 0.68947
 C3645 C 0.42987 1.09355 0.69757
 C3646 C 0.42308 1.10023 0.71404
 C3647 C 0.42868 1.07163 0.67232
 C3648 C 0.43419 1.06615 0.65788
 H3649 H 0.41460 1.11752 0.78020
 H3650 H 0.42708 1.10492 0.75191
 H3651 H 0.37254 1.09508 0.73242
 H3652 H 0.36026 1.10738 0.76089
 H3653 H 0.38919 1.06928 0.72077
 H3654 H 0.40107 1.05775 0.69179
 H3655 H 0.44119 1.10039 0.69109
 H3656 H 0.42922 1.11226 0.71989
 C3657 C 0.37296 0.62763 1.30320
 C3658 C 0.37927 0.62118 1.28950
 C3659 C 0.38668 0.61358 1.27304
 C3660 C 0.40483 0.61681 1.26834
 C3661 C 0.41192 0.60971 1.25217
 C3662 C 0.40093 0.59928 1.24048
 C3663 C 0.38273 0.59602 1.24540
 C3664 C 0.37566 0.60314 1.26156
 C3665 C 0.40833 0.59200 1.22314
 C3666 C 0.40371 0.57441 1.21718
 C3667 C 0.41045 0.56771 1.20070
 C3668 C 0.42187 0.57849 1.18995
 C3669 C 0.42662 0.59596 1.19579
 C3670 C 0.41992 0.60268 1.21227
 C3671 C 0.42849 0.57174 1.17281
 C3672 C 0.43395 0.56619 1.15836
 H3673 H 0.41348 0.62484 1.27714
 H3674 H 0.42603 0.61226 1.24889
 H3675 H 0.37385 0.58826 1.23658
 H3676 H 0.36158 0.60062 1.26504
 H3677 H 0.39502 0.56578 1.22534
 H3678 H 0.40671 0.55416 1.19631
 H3679 H 0.43539 0.60444 1.18754
 H3680 H 0.42352 0.61635 1.21635
 C3681 C 1.12715 1.30272 0.87350
 C3682 C 1.12093 1.28897 0.87990
 C3683 C 1.11364 1.27244 0.88742
 C3684 C 1.12539 1.25894 0.89388
 C3685 C 1.11837 1.24275 0.90094
 C3686 C 1.09948 1.23984 0.90160
 C3687 C 1.08778 1.25353 0.89513
 C3688 C 1.09483 1.26972 0.88809
 C3689 C 1.09204 1.22251 0.90883
 C3690 C 1.07725 1.21395 0.90024
 C3691 C 1.07049 1.19746 0.90685
 C3692 C 1.07839 1.18932 0.92213
 C3693 C 1.09303 1.19778 0.93085
 C3694 C 1.09982 1.21426 0.92426
 C3695 C 1.07168 1.17216 0.92870
 C3696 C 1.06617 1.15771 0.93412
 H3697 H 1.13998 1.26088 0.89336
 H3698 H 1.12774 1.23239 0.90557
 H3699 H 1.07317 1.25179 0.89566
 H3700 H 1.08561 1.28010 0.88315
 H3701 H 1.07112 1.21983 0.88820
 H3702 H 1.05920 1.19099 0.89995
 H3703 H 1.09923 1.19161 0.94271
 H3704 H 1.11107 1.22062 0.93131
 C3705 C 1.12773 0.80221 0.37231
 C3706 C 1.12150 0.78849 0.37875
 C3707 C 1.11419 0.77200 0.38634
 C3708 C 1.09536 0.76956 0.38756
 C3709 C 1.08828 0.75342 0.39469
 C3710 C 1.09996 0.73951 0.40073
 C3711 C 1.11887 0.74215 0.39951
 C3712 C 1.12592 0.75828 0.39236
 C3713 C 1.09248 0.72225 0.40809
 C3714 C 1.10059 0.71379 0.42322
 C3715 C 1.09375 0.69737 0.42992
 C3716 C 1.07873 0.68918 0.42160
 C3717 C 1.07050 0.69754 0.40661
 C3718 C 1.07730 0.71397 0.39990
 C3719 C 1.07196 0.67207 0.42825
 C3720 C 1.06642 0.65766 0.43374
 H3721 H 1.08616 0.78011 0.38297
 H3722 H 1.07368 0.75190 0.39566
 H3723 H 1.12821 0.73161 0.40380
 H3724 H 1.14051 0.76001 0.39141
 H3725 H 1.11214 0.71994 0.42997
 H3726 H 1.10021 0.69103 0.44156
 H3727 H 1.05891 0.69128 0.40002
 H3728 H 1.07091 0.72002 0.38809
 C3729 C 0.62668 1.30284 0.37327
 C3730 C 0.62042 1.28910 0.37964
 C3731 C 0.61311 1.27258 0.38715
 C3732 C 0.62484 1.25906 0.39360
 C3733 C 0.61780 1.24289 0.40067
 C3734 C 0.59891 1.24001 0.40136
 C3735 C 0.58722 1.25371 0.39490
 C3736 C 0.59429 1.26989 0.38784
 C3737 C 0.59146 1.22270 0.40863
 C3738 C 0.57665 1.21414 0.40005
 C3739 C 0.56990 1.19765 0.40667
 C3740 C 0.57782 1.18952 0.42195
 C3741 C 0.59246 1.19798 0.43065
 C3742 C 0.59925 1.21446 0.42405
 C3743 C 0.57113 1.17235 0.42851
 C3744 C 0.56565 1.15789 0.43392
 H3745 H 0.63943 1.26098 0.39306
 H3746 H 0.62716 1.23251 0.40530
 H3747 H 0.57261 1.25200 0.39545
 H3748 H 0.58508 1.28029 0.38291
 H3749 H 0.57051 1.22002 0.38802
 H3750 H 0.55860 1.19118 0.39978
 H3751 H 0.59867 1.19181 0.44251
 H3752 H 0.61050 1.22082 0.43109
 C3753 C 0.62661 0.80276 0.87376
 C3754 C 0.62037 0.78900 0.88011
 C3755 C 0.61306 0.77246 0.88758
 C3756 C 0.62480 0.75899 0.89413
 C3757 C 0.61777 0.74279 0.90116
 C3758 C 0.59888 0.73985 0.90171
 C3759 C 0.58719 0.75351 0.89516
 C3760 C 0.59425 0.76971 0.88814
 C3761 C 0.59143 0.72252 0.90893
 C3762 C 0.57671 0.71392 0.90026
 C3763 C 0.56993 0.69743 0.90686
 C3764 C 0.57775 0.68934 0.92221
 C3765 C 0.59232 0.69783 0.93100
 C3766 C 0.59913 0.71431 0.92442
 C3767 C 0.57102 0.67218 0.92877
 C3768 C 0.56552 0.65773 0.93419
 H3769 H 0.63938 0.76095 0.89369
 H3770 H 0.62713 0.73245 0.90586
 H3771 H 0.57258 0.75174 0.89561
 H3772 H 0.58505 0.78006 0.88314
 H3773 H 0.57065 0.71976 0.88817
 H3774 H 0.55869 0.69093 0.89990
 H3775 H 0.59845 0.69170 0.94292
 H3776 H 0.61032 0.72071 0.93153
 C3777 C 0.87316 1.30309 1.12654
 C3778 C 0.87949 1.28937 1.12018
 C3779 C 0.88691 1.27289 1.11268
 C3780 C 0.90529 1.26867 1.11520
 C3781 C 0.91242 1.25249 1.10818
 C3782 C 0.90124 1.24032 1.09854
 C3783 C 0.88280 1.24474 1.09601
 C3784 C 0.87570 1.26091 1.10305
 C3785 C 0.90871 1.22298 1.09134
 C3786 C 0.90343 1.21651 1.07411
 C3787 C 0.91022 1.20002 1.06750
 C3788 C 0.92235 1.18979 1.07800
 C3789 C 0.92776 1.19615 1.09511
 C3790 C 0.92100 1.21264 1.10174
 C3791 C 0.92902 1.17263 1.07137
 C3792 C 0.93449 1.15818 1.06590
 H3793 H 0.91410 1.27786 1.12261
 H3794 H 0.92672 1.24959 1.11016
 H3795 H 0.87379 1.23555 1.08887
 H3796 H 0.86144 1.26401 1.10108
 H3797 H 0.89417 1.22426 1.06568
 H3798 H 0.90596 1.19523 1.05423
 H3799 H 0.93708 1.18830 1.10339
 H3800 H 0.92514 1.21713 1.11515
 C3801 C 0.87409 0.80327 0.62589
 C3802 C 0.88050 0.78955 0.61959
 C3803 C 0.88804 0.77307 0.61223
 C3804 C 0.88537 0.76867 0.59390
 C3805 C 0.89241 0.75247 0.58685
 C3806 C 0.90222 0.74046 0.59807
 C3807 C 0.90491 0.74507 0.61645
 C3808 C 0.89786 0.76127 0.62348
 C3809 C 0.90941 0.72308 0.59070
 C3810 C 0.92670 0.71673 0.59587
 C3811 C 0.93330 0.70019 0.58919
 C3812 C 0.92272 0.68980 0.57727
 C3813 C 0.90555 0.69604 0.57197
 C3814 C 0.89893 0.71257 0.57862
 C3815 C 0.92933 0.67259 0.57073
 C3816 C 0.93476 0.65809 0.56534
 H3817 H 0.87781 0.77773 0.58508
 H3818 H 0.89030 0.74941 0.57259
 H3819 H 0.91219 0.73600 0.62549
 H3820 H 0.89994 0.76451 0.63771
 H3821 H 0.93518 0.72461 0.60496
 H3822 H 0.94662 0.69549 0.59336
 H3823 H 0.89722 0.68806 0.56280
 H3824 H 0.88548 0.71697 0.57457
 C3825 C 0.37295 1.30265 0.62765
 C3826 C 0.37928 1.28899 0.62116
 C3827 C 0.38668 1.27257 0.61350
 C3828 C 0.40519 1.26860 0.61541
 C3829 C 0.41229 1.25248 0.60824
 C3830 C 0.40096 1.24011 0.59905
 C3831 C 0.38238 1.24428 0.59712
 C3832 C 0.37531 1.26040 0.60431
 C3833 C 0.40840 1.22282 0.59170
 C3834 C 0.40262 1.21616 0.57470
 C3835 C 0.40938 1.19972 0.56797
 C3836 C 0.42200 1.18971 0.57811
 C3837 C 0.42791 1.19626 0.59498
 C3838 C 0.42118 1.21271 0.60174
 C3839 C 0.42865 1.17259 0.57137
 C3840 C 0.43411 1.15816 0.56583
 H3841 H 0.41412 1.27795 0.62247
 H3842 H 0.42668 1.24977 0.60975
 H3843 H 0.37326 1.23493 0.59034
 H3844 H 0.36095 1.26330 0.60282
 H3845 H 0.39297 1.22374 0.56655
 H3846 H 0.40473 1.19478 0.55488
 H3847 H 0.43761 1.18859 0.60298
 H3848 H 0.42571 1.21734 0.61497
 C3849 C 0.37386 0.80353 1.12623
 C3850 C 0.38024 0.78978 1.11996
 C3851 C 0.38773 0.77327 1.11262
 C3852 C 0.38480 0.76872 1.09436
 C3853 C 0.39178 0.75249 1.08732
 C3854 C 0.40181 0.74059 1.09847
 C3855 C 0.40476 0.74536 1.11679
 C3856 C 0.39775 0.76158 1.12379
 C3857 C 0.40895 0.72319 1.09112
 C3858 C 0.42635 0.71693 1.09607
 C3859 C 0.43291 0.70038 1.08941
 C3860 C 0.42219 0.68986 1.07772
 C3861 C 0.40492 0.69600 1.07264
 C3862 C 0.39833 0.71256 1.07927
 C3863 C 0.42878 0.67264 1.07117
 C3864 C 0.43419 0.65814 1.06578
 H3865 H 0.37708 0.77769 1.08558
 H3866 H 0.38947 0.74932 1.07312
 H3867 H 0.41220 0.73638 1.12578
 H3868 H 0.40004 0.76493 1.13797
 H3869 H 0.43493 0.72491 1.10498
 H3870 H 0.44631 0.69576 1.09341
 H3871 H 0.39648 0.68793 1.06366
 H3872 H 0.38480 0.71687 1.07541
 C3873 C 0.87351 0.69698 0.87405
 C3874 C 0.87979 0.71069 0.88046
 C3875 C 0.88713 0.72718 0.88800
 C3876 C 0.90546 0.73155 0.88538
 C3877 C 0.91249 0.74776 0.89239
 C3878 C 0.90126 0.75982 0.90213
 C3879 C 0.88287 0.75524 0.90478
 C3880 C 0.87587 0.73903 0.89774
 C3881 C 0.90860 0.77721 0.90929
 C3882 C 0.90338 0.78363 0.92657
 C3883 C 0.91006 0.80017 0.93314
 C3884 C 0.92202 0.81050 0.92256
 C3885 C 0.92737 0.80421 0.90541
 C3886 C 0.92072 0.78767 0.89881
 C3887 C 0.92860 0.82770 0.92917
 C3888 C 0.93403 0.84218 0.93459
 H3889 H 0.91430 0.72245 0.87789
 H3890 H 0.92674 0.75079 0.89033
 H3891 H 0.87382 0.76435 0.91199
 H3892 H 0.86165 0.73582 0.89978
 H3893 H 0.89426 0.77579 0.93505
 H3894 H 0.90586 0.80491 0.94646
 H3895 H 0.93656 0.81214 0.89707
 H3896 H 0.92480 0.78323 0.88536
 C3897 C 0.87353 0.19702 0.37323
 C3898 C 0.87978 0.21077 0.37960
 C3899 C 0.88706 0.22729 0.38715
 C3900 C 0.90587 0.22994 0.38801
 C3901 C 0.91290 0.24611 0.39512
 C3902 C 0.90118 0.25984 0.40147
 C3903 C 0.88228 0.25700 0.40060
 C3904 C 0.87529 0.24083 0.39348
 C3905 C 0.90859 0.27714 0.40880
 C3906 C 0.90067 0.28541 0.42414
 C3907 C 0.90744 0.30187 0.43081
 C3908 C 0.92220 0.31029 0.42225
 C3909 C 0.93024 0.30213 0.40704
 C3910 C 0.92350 0.28566 0.40036
 C3911 C 0.92888 0.32743 0.42887
 C3912 C 0.93436 0.34188 0.43432
 H3913 H 0.91511 0.21953 0.38318
 H3914 H 0.92751 0.24780 0.39581
 H3915 H 0.87290 0.26740 0.40514
 H3916 H 0.86070 0.23894 0.39281
 H3917 H 0.88933 0.27908 0.43108
 H3918 H 0.90113 0.30806 0.44261
 H3919 H 0.94162 0.30857 0.40027
 H3920 H 0.92974 0.27976 0.38839
 C3921 C 0.37305 0.69745 0.37237
 C3922 C 0.37941 0.71119 0.37865
 C3923 C 0.38690 0.72770 0.38600
 C3924 C 0.39327 0.74128 0.37429
 C3925 C 0.40031 0.75744 0.38138
 C3926 C 0.40107 0.76026 0.40031
 C3927 C 0.39468 0.74649 0.41197
 C3928 C 0.38765 0.73032 0.40485
 C3929 C 0.40832 0.77755 0.40781
 C3930 C 0.39981 0.78602 0.42273
 C3931 C 0.40644 0.80247 0.42956
 C3932 C 0.42166 0.81066 0.42162
 C3933 C 0.43029 0.80230 0.40685
 C3934 C 0.42368 0.78585 0.39999
 C3935 C 0.42825 0.82778 0.42841
 C3936 C 0.43370 0.84221 0.43396
 H3937 H 0.39268 0.73942 0.35968
 H3938 H 0.40488 0.76787 0.37204
 H3939 H 0.39528 0.74815 0.42660
 H3940 H 0.38279 0.71988 0.41404
 H3941 H 0.38783 0.78010 0.42890
 H3942 H 0.39961 0.80887 0.44095
 H3943 H 0.44210 0.80851 0.40062
 H3944 H 0.43067 0.77956 0.38865
 C3945 C 0.37276 0.19745 0.87278
 C3946 C 0.37910 0.21122 0.87901
 C3947 C 0.38657 0.22777 0.88629
 C3948 C 0.39131 0.22887 0.90470
 C3949 C 0.39839 0.24503 0.91178
 C3950 C 0.40084 0.26031 0.90051
 C3951 C 0.39607 0.25903 0.88201
 C3952 C 0.38899 0.24287 0.87497
 C3953 C 0.40820 0.27755 0.90802
 C3954 C 0.42070 0.28796 0.89795
 C3955 C 0.42739 0.30434 0.90489
 C3956 C 0.42167 0.31055 0.92195
 C3957 C 0.40932 0.30026 0.93213
 C3958 C 0.40263 0.28386 0.92523
 C3959 C 0.42829 0.32761 0.92887
 C3960 C 0.43377 0.34200 0.93449
 H3961 H 0.38954 0.21724 0.91357
 H3962 H 0.40214 0.24552 0.92602
 H3963 H 0.39755 0.27062 0.87305
 H3964 H 0.38530 0.24218 0.86071
 H3965 H 0.42544 0.28336 0.88478
 H3966 H 0.43697 0.31219 0.89691
 H3967 H 0.40476 0.30498 0.94532
 H3968 H 0.39285 0.27628 0.93320
 C3969 C 1.12663 0.69745 1.12810
 C3970 C 1.12022 0.71121 1.12187
 C3971 C 1.11269 0.72774 1.11460
 C3972 C 1.10828 0.72895 1.09611
 C3973 C 1.10116 0.74511 1.08903
 C3974 C 1.09836 0.76027 1.10038
 C3975 C 1.10279 0.75888 1.11896
 C3976 C 1.10991 0.74272 1.12600
 C3977 C 1.09098 0.77752 1.09288
 C3978 C 1.07820 0.78775 1.10280
 C3979 C 1.07153 0.80415 1.09589
 C3980 C 1.07751 0.81056 1.07899
 C3981 C 1.09012 0.80043 1.06896
 C3982 C 1.09681 0.78401 1.07583
 C3983 C 1.07093 0.82765 1.07211
 C3984 C 1.06551 0.84207 1.06650
 H3985 H 1.11034 0.71742 1.08717
 H3986 H 1.09768 0.74568 1.07473
 H3987 H 1.10103 0.77038 1.12799
 H3988 H 1.11335 0.74196 1.14031
 H3989 H 1.07327 0.78300 1.11584
 H3990 H 1.06174 0.81187 1.10376
 H3991 H 1.09490 0.80530 1.05589
 H3992 H 1.10679 0.77657 1.06797
 C3993 C 1.12580 0.19655 0.62654
 C3994 C 1.11951 0.21025 0.62011
 C3995 C 1.11217 0.22672 0.61253
 C3996 C 1.09390 0.23124 0.61536
 C3997 C 1.08688 0.24744 0.60831
 C3998 C 1.09805 0.25934 0.59831
 C3999 C 1.11637 0.25460 0.59546
 C4000 C 1.12336 0.23841 0.60253
 C4001 C 1.09072 0.27672 0.59111
 C4002 C 1.09575 0.28296 0.57371
 C4003 C 1.08913 0.29951 0.56711
 C4004 C 1.07740 0.31004 0.57778
 C4005 C 1.07222 0.30391 0.59504
 C4006 C 1.07882 0.28736 0.60167
 C4007 C 1.07091 0.32726 0.57115
 C4008 C 1.06557 0.34178 0.56572
 H4009 H 1.08511 0.22227 0.62306
 H4010 H 1.07267 0.25059 0.61055
 H4011 H 1.12537 0.26358 0.58804
 H4012 H 1.13754 0.23508 0.60033
 H4013 H 1.10470 0.27497 0.56517
 H4014 H 1.09320 0.30411 0.55371
 H4015 H 1.06321 0.31199 0.60344
 H4016 H 1.07489 0.28306 0.61520
 C4017 C 0.62667 0.69728 0.62669
 C4018 C 0.62052 0.71117 0.62053
 C4019 C 0.61336 0.72788 0.61331
 C4020 C 0.59917 0.72758 0.60064
 C4021 C 0.59226 0.74386 0.59364
 C4022 C 0.59949 0.76067 0.59924
 C4023 C 0.61375 0.76081 0.61200
 C4024 C 0.62062 0.74452 0.61898
 C4025 C 0.59222 0.77799 0.59182
 C4026 C 0.60405 0.79232 0.58731
 C4027 C 0.59721 0.80871 0.58055
 C4028 C 0.57848 0.81101 0.57822
 C4029 C 0.56659 0.79682 0.58258
 C4030 C 0.57341 0.78039 0.58933
 C4031 C 0.57150 0.82801 0.57151
 C4032 C 0.56583 0.84236 0.56598
 H4033 H 0.59348 0.71476 0.59613
 H4034 H 0.58143 0.74329 0.58368
 H4035 H 0.61944 0.77352 0.61676
 H4036 H 0.63157 0.74492 0.62883
 H4037 H 0.61861 0.79080 0.58884
 H4038 H 0.60653 0.81960 0.57717
 H4039 H 0.55206 0.79848 0.58088
 H4040 H 0.56394 0.76970 0.59288
 C4041 C 0.62627 0.19705 1.12698
 C4042 C 0.61981 0.21077 1.12076
 C4043 C 0.61221 0.22728 1.11350
 C4044 C 0.60651 0.24109 1.12529
 C4045 C 0.59937 0.25725 1.11830
 C4046 C 0.59786 0.25983 1.09938
 C4047 C 0.60357 0.24583 1.08764
 C4048 C 0.61070 0.22966 1.09467
 C4049 C 0.59055 0.27714 1.09196
 C4050 C 0.59858 0.28531 1.07662
 C4051 C 0.59194 0.30180 1.06990
 C4052 C 0.57720 0.31033 1.07837
 C4053 C 0.56903 0.30226 1.09355
 C4054 C 0.57565 0.28577 1.10031
 C4055 C 0.57065 0.32752 1.07171
 C4056 C 0.56528 0.34201 1.06625
 H4057 H 0.60769 0.23941 1.13989
 H4058 H 0.59534 0.26786 1.12768
 H4059 H 0.60238 0.24732 1.07303
 H4060 H 0.61504 0.21904 1.08543
 H4061 H 0.61021 0.27912 1.07004
 H4062 H 0.59841 0.30798 1.05818
 H4063 H 0.55758 0.30873 1.10019
 H4064 H 0.56902 0.27971 1.11198
 C4065 C 1.30268 1.12743 0.87386
 C4066 C 1.28900 1.12110 0.88029
 C4067 C 1.27256 1.11364 0.88783
 C4068 C 1.26976 1.09482 0.88790
 C4069 C 1.25364 1.08761 0.89493
 C4070 C 1.24010 1.09915 0.90200
 C4071 C 1.24311 1.11805 0.90195
 C4072 C 1.25922 1.12523 0.89490
 C4073 C 1.22284 1.09156 0.90921
 C4074 C 1.21484 1.09884 0.92501
 C4075 C 1.19839 1.09194 0.93156
 C4076 C 1.18972 1.07768 0.92244
 C4077 C 1.19762 1.07025 0.90679
 C4078 C 1.21407 1.07712 0.90021
 C4079 C 1.17257 1.07090 0.92895
 C4080 C 1.15812 1.06537 0.93433
 H4081 H 1.28001 1.08573 0.88249
 H4082 H 1.25183 1.07300 0.89499
 H4083 H 1.23285 1.12730 0.90706
 H4084 H 1.26123 1.13982 0.89484
 H4085 H 1.22137 1.10980 0.93237
 H4086 H 1.19241 1.09777 0.94371
 H4087 H 1.19098 1.05925 0.89958
 H4088 H 1.21976 1.07138 0.88790
 C4089 C 1.30282 0.62757 0.37325
 C4090 C 1.28913 0.62123 0.37965
 C4091 C 1.27268 0.61377 0.38717
 C4092 C 1.26001 0.62521 0.39557
 C4093 C 1.24387 0.61805 0.40261
 C4094 C 1.24019 0.59932 0.40131
 C4095 C 1.25306 0.58792 0.39290
 C4096 C 1.26919 0.59511 0.38588
 C4097 C 1.22290 0.59176 0.40851
 C4098 C 1.21335 0.57836 0.39874
 C4099 C 1.19690 0.57151 0.40536
 C4100 C 1.18980 0.57792 0.42182
 C4101 C 1.19924 0.59116 0.43169
 C4102 C 1.21568 0.59804 0.42510
 C4103 C 1.17268 0.57114 0.42842
 C4104 C 1.15825 0.56560 0.43388
 H4105 H 1.26254 0.63968 0.39657
 H4106 H 1.23414 0.62721 0.40877
 H4107 H 1.25072 0.57342 0.39189
 H4108 H 1.27893 0.58613 0.37943
 H4109 H 1.21842 0.57343 0.38582
 H4110 H 1.18966 0.56131 0.39757
 H4111 H 1.19387 0.59619 0.44447
 H4112 H 1.22282 0.60818 0.43304
 C4113 C 0.80284 1.12640 0.37325
 C4114 C 0.78909 1.12015 0.37960
 C4115 C 0.77256 1.11286 0.38710
 C4116 C 0.76982 1.09404 0.38774
 C4117 C 0.75363 1.08700 0.39478
 C4118 C 0.73995 1.09871 0.40128
 C4119 C 0.74288 1.11760 0.40063
 C4120 C 0.75908 1.12461 0.39358
 C4121 C 0.72263 1.09129 0.40853
 C4122 C 0.71441 1.09906 0.42398
 C4123 C 0.69793 1.09229 0.43058
 C4124 C 0.68944 1.07768 0.42184
 C4125 C 0.69754 1.06978 0.40654
 C4126 C 0.71404 1.07651 0.39992
 C4127 C 0.67227 1.07100 0.42841
 C4128 C 0.65780 1.06553 0.43383
 H4129 H 0.78019 1.08482 0.38279
 H4130 H 0.75187 1.07239 0.39530
 H4131 H 0.73253 1.12698 0.40529
 H4132 H 0.76103 1.13920 0.39308
 H4133 H 0.72080 1.11028 0.43104
 H4134 H 0.69178 1.09849 0.44245
 H4135 H 0.69105 1.05850 0.39963
 H4136 H 0.71989 1.07039 0.38787
 C4137 C 0.80231 0.62686 0.87323
 C4138 C 0.78842 0.62068 0.87935
 C4139 C 0.77172 0.61343 0.88648
 C4140 C 0.77202 0.60121 0.90107
 C4141 C 0.75576 0.59417 0.90796
 C4142 C 0.73897 0.59927 0.90031
 C4143 C 0.73884 0.61158 0.88565
 C4144 C 0.75510 0.61860 0.87880
 C4145 C 0.72167 0.59180 0.90756
 C4146 C 0.70758 0.58672 0.89566
 C4147 C 0.69121 0.57991 0.90248
 C4148 C 0.68868 0.57810 0.92126
 C4149 C 0.70264 0.58303 0.93322
 C4150 C 0.71904 0.58983 0.92643
 C4151 C 0.67170 0.57135 0.92822
 C4152 C 0.65736 0.56580 0.93389
 H4153 H 0.78482 0.59708 0.90709
 H4154 H 0.75632 0.58456 0.91910
 H4155 H 0.72614 0.61596 0.87963
 H4156 H 0.75472 0.62810 0.86754
 H4157 H 0.70928 0.58784 0.88107
 H4158 H 0.68051 0.57609 0.89310
 H4159 H 0.70080 0.58173 0.94779
 H4160 H 0.72954 0.59383 0.93594
 C4161 C 1.30338 0.87320 1.12549
 C4162 C 1.28962 0.87948 1.11916
 C4163 C 1.27309 0.88686 1.11176
 C4164 C 1.26151 0.87584 1.10145
 C4165 C 1.24526 0.88289 1.09456
 C4166 C 1.24036 0.90108 1.09793
 C4167 C 1.25215 0.91208 1.10824
 C4168 C 1.26840 0.90500 1.11510
 C4169 C 1.22293 0.90847 1.09091
 C4170 C 1.21219 0.92000 1.10179
 C4171 C 1.19563 0.92670 1.09530
 C4172 C 1.18959 0.92200 1.07787
 C4173 C 1.20020 0.91063 1.06691
 C4174 C 1.21676 0.90390 1.07337
 C4175 C 1.17237 0.92862 1.07135
 C4176 C 1.15787 0.93406 1.06598
 H4177 H 1.26497 0.86176 1.09885
 H4178 H 1.23637 0.87402 1.08689
 H4179 H 1.24887 0.92619 1.11087
 H4180 H 1.27728 0.91366 1.12305
 H4181 H 1.21643 0.92357 1.11543
 H4182 H 1.18748 0.93544 1.10393
 H4183 H 1.19566 0.90693 1.05338
 H4184 H 1.22482 0.89525 1.06459
 C4185 C 1.30254 0.37238 0.62762
 C4186 C 1.28882 0.37867 0.62125
 C4187 C 1.27231 0.38599 0.61370
 C4188 C 1.27025 0.40478 0.61155
 C4189 C 1.25412 0.41187 0.60440
 C4190 C 1.23983 0.40022 0.59929
 C4191 C 1.24207 0.38134 0.60147
 C4192 C 1.25820 0.37430 0.60863
 C4193 C 1.22259 0.40770 0.59188
 C4194 C 1.21365 0.39899 0.57737
 C4195 C 1.19725 0.40583 0.57063
 C4196 C 1.18956 0.42146 0.57829
 C4197 C 1.19840 0.43031 0.59264
 C4198 C 1.21481 0.42349 0.59939
 C4199 C 1.17247 0.42824 0.57161
 C4200 C 1.15806 0.43379 0.56610
 H4201 H 1.28111 0.41396 0.61540
 H4202 H 1.25290 0.42644 0.60269
 H4203 H 1.23123 0.37204 0.59791
 H4204 H 1.25962 0.35973 0.61031
 H4205 H 1.21942 0.38695 0.57113
 H4206 H 1.19054 0.39890 0.55949
 H4207 H 1.19252 0.44238 0.59871
 H4208 H 1.22123 0.43038 0.61071
 C4209 C 0.80308 0.87367 0.62596
 C4210 C 0.78932 0.87991 0.61962
 C4211 C 0.77279 0.88723 0.61215
 C4212 C 0.76102 0.87601 0.60227
 C4213 C 0.74480 0.88300 0.59527
 C4214 C 0.74011 0.90134 0.59807
 C4215 C 0.75207 0.91253 0.60796
 C4216 C 0.76830 0.90551 0.61494
 C4217 C 0.72272 0.90869 0.59090
 C4218 C 0.71216 0.92068 0.60144
 C4219 C 0.69564 0.92734 0.59482
 C4220 C 0.68946 0.92214 0.57758
 C4221 C 0.69990 0.91031 0.56694
 C4222 C 0.71642 0.90362 0.57354
 C4223 C 0.67228 0.92874 0.57094
 C4224 C 0.65782 0.93419 0.56548
 H4225 H 0.76433 0.86182 0.60010
 H4226 H 0.73577 0.87398 0.58793
 H4227 H 0.74896 0.92676 0.61015
 H4228 H 0.77733 0.91433 0.62255
 H4229 H 0.71651 0.92464 0.61495
 H4230 H 0.68762 0.93643 0.60320
 H4231 H 0.69525 0.90622 0.55356
 H4232 H 0.72434 0.89460 0.56501
 C4233 C 0.80285 0.37294 1.12621
 C4234 C 0.78912 0.37927 1.11989
 C4235 C 0.77262 0.38671 1.11247
 C4236 C 0.76122 0.37584 1.10180
 C4237 C 0.74502 0.38294 1.09486
 C4238 C 0.73999 0.40104 1.09851
 C4239 C 0.75160 0.41189 1.10918
 C4240 C 0.76780 0.40476 1.11610
 C4241 C 0.72261 0.40849 1.09141
 C4242 C 0.71169 0.41976 1.10236
 C4243 C 0.69517 0.42650 1.09579
 C4244 C 0.68936 0.42209 1.07821
 C4245 C 0.70017 0.41097 1.06717
 C4246 C 0.71669 0.40421 1.07371
 C4247 C 0.67218 0.42873 1.07162
 C4248 C 0.65772 0.43419 1.06619
 H4249 H 0.76479 0.36183 1.09897
 H4250 H 0.73627 0.37418 1.08691
 H4251 H 0.74822 0.42593 1.11204
 H4252 H 0.77655 0.41330 1.12432
 H4253 H 0.71574 0.42310 1.11612
 H4254 H 0.68687 0.43503 1.10448
 H4255 H 0.69581 0.40750 1.05352
 H4256 H 0.72490 0.39576 1.06487
 C4257 C 0.69751 1.12812 1.12654
 C4258 C 0.71140 1.12204 1.12033
 C4259 C 0.72811 1.11488 1.11308
 C4260 C 0.72781 1.10019 1.10098
 C4261 C 0.74408 1.09322 1.09402
 C4262 C 0.76086 1.10089 1.09906
 C4263 C 0.76099 1.11567 1.11123
 C4264 C 0.74472 1.12260 1.11818
 C4265 C 0.77817 1.09353 1.09172
 C4266 C 0.79230 1.10532 1.08651
 C4267 C 0.80867 1.09839 1.07981
 C4268 C 0.81116 1.07960 1.07821
 C4269 C 0.79718 1.06774 1.08327
 C4270 C 0.78077 1.07465 1.08997
 C4271 C 0.82814 1.07253 1.07155
 C4272 C 0.84247 1.06679 1.06604
 H4273 H 0.71502 1.09414 1.09691
 H4274 H 0.74352 1.08198 1.08452
 H4275 H 0.77369 1.12171 1.11557
 H4276 H 0.74511 1.13394 1.12759
 H4277 H 0.79062 1.11992 1.08746
 H4278 H 0.81940 1.10769 1.07589
 H4279 H 0.79899 1.05317 1.08215
 H4280 H 0.77024 1.06521 1.09407
 C4281 C 0.69740 0.62662 0.62678
 C4282 C 0.71130 0.62049 0.62062
 C4283 C 0.72803 0.61337 0.61340
 C4284 C 0.72775 0.59964 0.60023
 C4285 C 0.74405 0.59279 0.59321
 C4286 C 0.76085 0.59964 0.59928
 C4287 C 0.76097 0.61344 0.61255
 C4288 C 0.74467 0.62024 0.61955
 C4289 C 0.77819 0.59246 0.59183
 C4290 C 0.79271 0.60429 0.58793
 C4291 C 0.80911 0.59751 0.58112
 C4292 C 0.81124 0.57885 0.57813
 C4293 C 0.79687 0.56697 0.58189
 C4294 C 0.78044 0.57372 0.58868
 C4295 C 0.82825 0.57192 0.57139
 C4296 C 0.84260 0.56626 0.56585
 H4297 H 0.71494 0.59426 0.59534
 H4298 H 0.74351 0.58233 0.58286
 H4299 H 0.77367 0.61881 0.61769
 H4300 H 0.74504 0.63084 0.62979
 H4301 H 0.79132 0.61880 0.58997
 H4302 H 0.82013 0.60683 0.57822
 H4303 H 0.79840 0.55248 0.57967
 H4304 H 0.76960 0.56425 0.59175
 C4305 C 0.19706 1.12646 0.62746
 C4306 C 0.21096 1.12035 0.62129
 C4307 C 0.22768 1.11325 0.61404
 C4308 C 0.24433 1.12010 0.62017
 C4309 C 0.26062 1.11333 0.61310
 C4310 C 0.26047 1.09959 0.59979
 C4311 C 0.24366 1.09275 0.59374
 C4312 C 0.22737 1.09956 0.60082
 C4313 C 0.27779 1.09244 0.59226
 C4314 C 0.28004 1.07371 0.58904
 C4315 C 0.29646 1.06700 0.58218
 C4316 C 0.31081 1.07890 0.57843
 C4317 C 0.30867 1.09755 0.58149
 C4318 C 0.29229 1.10429 0.58836
 C4319 C 0.32781 1.07201 0.57164
 C4320 C 0.34216 1.06638 0.56606
 H4321 H 0.24472 1.13067 0.63044
 H4322 H 0.27333 1.11869 0.61822
 H4323 H 0.24309 1.08233 0.58335
 H4324 H 0.21456 1.09420 0.59594
 H4325 H 0.26921 1.06422 0.59210
 H4326 H 0.29799 1.05252 0.57992
 H4327 H 0.31969 1.10689 0.57860
 H4328 H 0.29089 1.11880 0.59045
 C4329 C 0.19749 0.62815 1.12743
 C4330 C 0.21135 0.62200 1.12118
 C4331 C 0.22801 0.61480 1.11387
 C4332 C 0.22764 0.60014 1.10174
 C4333 C 0.24386 0.59314 1.09471
 C4334 C 0.26069 0.60075 1.09972
 C4335 C 0.26089 0.61549 1.11193
 C4336 C 0.24466 0.62245 1.11895
 C4337 C 0.27795 0.59335 1.09230
 C4338 C 0.29211 0.60512 1.08711
 C4339 C 0.30845 0.59816 1.08034
 C4340 C 0.31088 0.57937 1.07868
 C4341 C 0.29687 0.56754 1.08373
 C4342 C 0.28050 0.57447 1.09048
 C4343 C 0.32784 0.57228 1.07196
 C4344 C 0.34214 0.56651 1.06641
 H4345 H 0.21481 0.59414 1.09769
 H4346 H 0.24324 0.58193 1.08518
 H4347 H 0.27362 0.62148 1.11625
 H4348 H 0.24511 0.63376 1.12838
 H4349 H 0.29048 0.61972 1.08811
 H4350 H 0.31919 0.60744 1.07643
 H4351 H 0.29864 0.55296 1.08255
 H4352 H 0.26995 0.56505 1.09457
 C4353 C 0.69702 0.87368 0.87371
 C4354 C 0.71075 0.87998 0.88007
 C4355 C 0.72725 0.88733 0.88757
 C4356 C 0.74010 0.87572 0.89543
 C4357 C 0.75627 0.88277 0.90249
 C4358 C 0.75981 0.90155 0.90177
 C4359 C 0.74676 0.91313 0.89390
 C4360 C 0.73058 0.90605 0.88685
 C4361 C 0.77713 0.90899 0.90901
 C4362 C 0.78648 0.92276 0.89957
 C4363 C 0.80297 0.92949 0.90620
 C4364 C 0.81032 0.92258 0.92234
 C4365 C 0.80107 0.90898 0.93190
 C4366 C 0.78459 0.90222 0.92529
 C4367 C 0.82748 0.92923 0.92893
 C4368 C 0.84195 0.93468 0.93436
 H4369 H 0.73769 0.86120 0.89600
 H4370 H 0.76615 0.87347 0.90823
 H4371 H 0.74898 0.92767 0.89334
 H4372 H 0.72070 0.91517 0.88083
 H4373 H 0.78122 0.92808 0.88688
 H4374 H 0.81006 0.93997 0.89865
 H4375 H 0.80663 0.90356 0.94443
 H4376 H 0.77761 0.89179 0.93299
 C4377 C 0.69743 0.37339 0.37297
 C4378 C 0.71122 0.37959 0.37929
 C4379 C 0.72780 0.38680 0.38677
 C4380 C 0.74243 0.37519 0.39036
 C4381 C 0.75861 0.38214 0.39748
 C4382 C 0.76038 0.40084 0.40110
 C4383 C 0.74557 0.41241 0.39748
 C4384 C 0.72938 0.40541 0.39036
 C4385 C 0.77765 0.40824 0.40848
 C4386 C 0.78469 0.42482 0.40200
 C4387 C 0.80114 0.43158 0.40870
 C4388 C 0.81075 0.42190 0.42197
 C4389 C 0.80382 0.40547 0.42860
 C4390 C 0.78738 0.39868 0.42191
 C4391 C 0.82788 0.42864 0.42859
 C4392 C 0.84231 0.43415 0.43405
 H4393 H 0.74137 0.36076 0.38756
 H4394 H 0.76984 0.37293 0.39988
 H4395 H 0.74643 0.42683 0.40033
 H4396 H 0.71812 0.41452 0.38767
 H4397 H 0.77764 0.43238 0.39151
 H4398 H 0.80643 0.44427 0.40343
 H4399 H 0.81114 0.39789 0.43890
 H4400 H 0.78221 0.38602 0.42735
 C4401 C 0.19757 0.87249 0.37225
 C4402 C 0.21126 0.87895 0.37852
 C4403 C 0.22771 0.88656 0.38587
 C4404 C 0.22996 0.88815 0.40471
 C4405 C 0.24606 0.89531 0.41184
 C4406 C 0.26014 0.90099 0.40018
 C4407 C 0.25770 0.89940 0.38125
 C4408 C 0.24160 0.89223 0.37417
 C4409 C 0.27736 0.90838 0.40771
 C4410 C 0.28600 0.92327 0.39937
 C4411 C 0.30238 0.93000 0.40625
 C4412 C 0.31035 0.92196 0.42156
 C4413 C 0.30181 0.90721 0.43002
 C4414 C 0.28542 0.90047 0.42317
 C4415 C 0.32742 0.92864 0.42837
 C4416 C 0.34181 0.93415 0.43395
 H4417 H 0.21927 0.88383 0.41390
 H4418 H 0.24743 0.89656 0.42645
 H4419 H 0.26837 0.90341 0.37193
 H4420 H 0.24003 0.89099 0.35956
 H4421 H 0.28002 0.92981 0.38760
 H4422 H 0.30886 0.94144 0.39961
 H4423 H 0.30790 0.90083 0.44183
 H4424 H 0.27923 0.88885 0.42975
 C4425 C 0.19713 0.37284 0.87343
 C4426 C 0.21087 0.37925 0.87965
 C4427 C 0.22738 0.38679 0.88694
 C4428 C 0.22980 0.38815 0.90578
 C4429 C 0.24595 0.39525 0.91285
 C4430 C 0.25991 0.40110 0.90113
 C4431 C 0.25730 0.39974 0.88221
 C4432 C 0.24115 0.39262 0.87518
 C4433 C 0.27718 0.40843 0.90859
 C4434 C 0.28572 0.42344 0.90035
 C4435 C 0.30215 0.43012 0.90717
 C4436 C 0.31027 0.42190 0.92229
 C4437 C 0.30184 0.40703 0.93065
 C4438 C 0.28540 0.40034 0.92387
 C4439 C 0.32739 0.42853 0.92904
 C4440 C 0.34182 0.43399 0.93455
 H4441 H 0.21921 0.38370 0.91501
 H4442 H 0.24746 0.39633 0.92746
 H4443 H 0.26788 0.40389 0.87284
 H4444 H 0.23945 0.39157 0.86057
 H4445 H 0.27962 0.43012 0.88872
 H4446 H 0.30855 0.44165 0.90061
 H4447 H 0.30805 0.40052 0.94232
 H4448 H 0.27930 0.38862 0.93036
   
