data_POSCAR
  _audit_creation_date              2014-09-24
  _audit_creation_method            'ToBaCCo'
  _symmetry_space_group_name_H-M    'P1'
  _symmetry_Int_Tables_number       1
  _symmetry_cell_setting            triclinic
  loop_
  _symmetry_equiv_pos_as_xyz
 x,y,z
_cell_length_a 75.6312
_cell_length_b 75.5442
_cell_length_c 75.4347
_cell_angle_alpha 89.958900
_cell_angle_beta 89.992000
_cell_angle_gamma 89.968000
loop_
  _atom_site_label
  _atom_site_type_symbol
  _atom_site_fract_x
  _atom_site_fract_y
  _atom_site_fract_z
N1 N 0.35678 1.34533 0.30804
 N2 N 0.34442 1.35759 0.30819
 C3 C 0.34699 1.36860 0.29434
 C4 C 0.36174 1.36288 0.28509
 C5 C 0.36760 1.34809 0.29415
 H6 H 0.33884 1.37995 0.29124
 H7 H 0.37891 1.33995 0.29087
 Cu8 Cu 0.32644 1.35801 0.32670
 Cu9 Cu 0.35803 1.32662 0.32580
 Cu10 Cu 0.32421 1.32531 0.35669
 N11 N 0.30822 1.35778 0.34502
 N12 N 0.30764 1.34505 0.35692
 C13 C 0.29386 1.34783 0.36786
 C14 C 0.28529 1.36311 0.36250
 C15 C 0.29476 1.36911 0.34799
 H16 H 0.29019 1.33926 0.37875
 H17 H 0.29194 1.38076 0.34013
 N18 N 0.34393 1.30825 0.35666
 N19 N 0.35680 1.30874 0.34483
 C20 C 0.36808 1.29530 0.34803
 C21 C 0.36203 1.28596 0.36256
 C22 C 0.34674 1.29453 0.36774
 H23 H 0.37978 1.29240 0.34032
 H24 H 0.33827 1.29093 0.37871
 H25 H 0.33136 1.32626 0.33000
 H26 H 0.34473 1.33971 0.34587
 N27 N 0.35686 0.84512 0.80843
 N28 N 0.34470 0.85755 0.80877
 C29 C 0.34731 0.86862 0.79499
 C30 C 0.36187 0.86275 0.78561
 C31 C 0.36762 0.84783 0.79449
 H32 H 0.33928 0.88007 0.79197
 H33 H 0.37879 0.83959 0.79103
 Cu34 Cu 0.32667 0.85804 0.82717
 Cu35 Cu 0.35793 0.82634 0.82605
 Cu36 Cu 0.32553 0.82630 0.85851
 N37 N 0.30830 0.85752 0.84523
 N38 N 0.30795 0.84508 0.85742
 C39 C 0.29401 0.84779 0.86818
 C40 C 0.28517 0.86271 0.86240
 C41 C 0.29455 0.86858 0.84782
 H42 H 0.29055 0.83954 0.87937
 H43 H 0.29154 0.88003 0.83976
 N44 N 0.34445 0.80842 0.85737
 N45 N 0.35680 0.80844 0.84499
 C46 C 0.36776 0.79466 0.84776
 C47 C 0.36202 0.78557 0.86256
 C48 C 0.34724 0.79462 0.86834
 H49 H 0.37910 0.79142 0.83965
 H50 H 0.33917 0.79135 0.87970
 H51 H 0.33115 0.82640 0.83168
 H52 H 0.34565 0.84015 0.84624
 N53 N 0.85710 1.34515 0.80795
 N54 N 0.84474 1.35740 0.80808
 C55 C 0.84737 1.36848 0.79431
 C56 C 0.86215 1.36281 0.78511
 C57 C 0.86800 1.34798 0.79413
 H58 H 0.83919 1.37980 0.79117
 H59 H 0.87932 1.33986 0.79087
 Cu60 Cu 0.82644 1.35754 0.82625
 Cu61 Cu 0.85820 1.32638 0.82563
 Cu62 Cu 0.82576 1.32637 0.85811
 N63 N 0.80830 1.35739 0.84458
 N64 N 0.80815 1.34514 0.85697
 C65 C 0.79435 1.34798 0.86787
 C66 C 0.78538 1.36278 0.86199
 C67 C 0.79456 1.36846 0.84720
 H68 H 0.79105 1.33988 0.87922
 H69 H 0.79141 1.37978 0.83901
 N70 N 0.84471 1.30851 0.85701
 N71 N 0.85707 1.30851 0.84464
 C72 C 0.86802 1.29472 0.84744
 C73 C 0.86225 1.28565 0.86225
 C74 C 0.84748 1.29472 0.86800
 H75 H 0.87935 1.29145 0.83934
 H76 H 0.83938 1.29146 0.87935
 H77 H 0.83145 1.32606 0.83132
 H78 H 0.84570 1.34031 0.84563
 N79 N 0.85715 0.84494 0.30790
 N80 N 0.84464 0.85704 0.30790
 C81 C 0.84724 0.86811 0.29411
 C82 C 0.86217 0.86260 0.28505
 C83 C 0.86812 0.84787 0.29415
 H84 H 0.83896 0.87934 0.29090
 H85 H 0.87959 0.83990 0.29103
 Cu86 Cu 0.82634 0.85715 0.32608
 Cu87 Cu 0.85834 0.82626 0.32567
 Cu88 Cu 0.82590 0.82622 0.35815
 N89 N 0.80817 0.85699 0.34440
 N90 N 0.80816 0.84488 0.35693
 C91 C 0.79442 0.84779 0.36789
 C92 C 0.78535 0.86250 0.36192
 C93 C 0.79441 0.86804 0.34699
 H94 H 0.79125 0.83983 0.37938
 H95 H 0.79119 0.87928 0.33871
 N96 N 0.84495 0.80844 0.35713
 N97 N 0.85731 0.80845 0.34476
 C98 C 0.86828 0.79467 0.34757
 C99 C 0.86254 0.78559 0.36237
 C100 C 0.84775 0.79465 0.36812
 H101 H 0.87960 0.79140 0.33945
 H102 H 0.83964 0.79135 0.37945
 H103 H 0.83163 0.82575 0.33139
 H104 H 0.84575 0.84022 0.34558
 N105 N 0.64314 0.65549 0.30815
 N106 N 0.65566 0.64339 0.30816
 C107 C 0.65307 0.63233 0.29439
 C108 C 0.63815 0.63784 0.28534
 C109 C 0.63219 0.65254 0.29441
 H110 H 0.66133 0.62110 0.29116
 H111 H 0.62071 0.66049 0.29125
 Cu112 Cu 0.67389 0.64341 0.32638
 Cu113 Cu 0.64190 0.67417 0.32591
 Cu114 Cu 0.67439 0.67417 0.35841
 N115 N 0.69210 0.64338 0.34460
 N116 N 0.69213 0.65548 0.35715
 C117 C 0.70587 0.65252 0.36810
 C118 C 0.71491 0.63781 0.36210
 C119 C 0.70585 0.63232 0.34717
 H120 H 0.70905 0.66045 0.37959
 H121 H 0.70905 0.62109 0.33888
 N122 N 0.65530 0.69195 0.35738
 N123 N 0.64295 0.69194 0.34500
 C124 C 0.63197 0.70571 0.34780
 C125 C 0.63771 0.71478 0.36260
 C126 C 0.65250 0.70573 0.36836
 H127 H 0.62065 0.70899 0.33968
 H128 H 0.66060 0.70902 0.37969
 H129 H 0.66858 0.67477 0.33168
 H130 H 0.65448 0.66028 0.34586
 N131 N 0.64317 0.15527 0.80773
 N132 N 0.65583 0.14331 0.80762
 C133 C 0.65330 0.13229 0.79380
 C134 C 0.63827 0.13768 0.78482
 C135 C 0.63220 0.15230 0.79402
 H136 H 0.66165 0.12113 0.79054
 H137 H 0.62063 0.16017 0.79097
 Cu138 Cu 0.67392 0.14327 0.82599
 Cu139 Cu 0.64175 0.17388 0.82563
 Cu140 Cu 0.67569 0.17526 0.85652
 N141 N 0.69197 0.14309 0.84443
 N142 N 0.69231 0.15555 0.85659
 C143 C 0.70590 0.15255 0.86770
 C144 C 0.71455 0.13742 0.86220
 C145 C 0.70537 0.13170 0.84742
 H146 H 0.70939 0.16088 0.87882
 H147 H 0.70836 0.12021 0.83942
 N148 N 0.65582 0.19216 0.85658
 N149 N 0.64292 0.19165 0.84478
 C150 C 0.63162 0.20505 0.84803
 C151 C 0.63769 0.21436 0.86255
 C152 C 0.65300 0.20583 0.86769
 H153 H 0.61991 0.20798 0.84034
 H154 H 0.66151 0.20945 0.87861
 H155 H 0.66835 0.17485 0.82996
 H156 H 0.65535 0.16079 0.84555
 N157 N 1.14294 0.65523 0.80854
 N158 N 1.15544 0.64312 0.80851
 C159 C 1.15316 0.63246 0.79438
 C160 C 1.13845 0.63821 0.78515
 C161 C 1.13230 0.65269 0.79447
 H162 H 1.16141 0.62123 0.79113
 H163 H 1.12077 0.66060 0.79140
 Cu164 Cu 1.17322 0.64216 0.82719
 Cu165 Cu 1.14084 0.67265 0.82737
 Cu166 Cu 1.17460 0.67426 0.85826
 N167 N 1.19156 0.64277 0.84529
 N168 N 1.19207 0.65538 0.85729
 C169 C 1.20605 0.65272 0.86801
 C170 C 1.21477 0.63767 0.86239
 C171 C 1.20526 0.63168 0.84796
 H172 H 1.20962 0.66108 0.87907
 H173 H 1.20817 0.62012 0.84002
 N174 N 1.15561 0.69208 0.85708
 N175 N 1.14274 0.69150 0.84526
 C176 C 1.13182 0.70534 0.84793
 C177 C 1.13809 0.71499 0.86214
 C178 C 1.15316 0.70625 0.86762
 H179 H 1.12011 0.70816 0.84021
 H180 H 1.16162 0.70992 0.87858
 H181 H 1.16781 0.67358 0.83166
 H182 H 1.15477 0.65956 0.84733
 N183 N 1.14296 0.15507 0.30835
 N184 N 1.15558 0.14309 0.30819
 C185 C 1.15333 0.13248 0.29402
 C186 C 1.13850 0.13812 0.28492
 C187 C 1.13225 0.15249 0.29435
 H188 H 1.16165 0.12133 0.29066
 H189 H 1.12062 0.16028 0.29139
 Cu190 Cu 1.17341 0.14221 0.32680
 Cu191 Cu 1.14076 0.17237 0.32727
 Cu192 Cu 1.17453 0.17397 0.35817
 N193 N 1.19168 0.14267 0.34496
 N194 N 1.19206 0.15514 0.35711
 C195 C 1.20598 0.15239 0.36789
 C196 C 1.21478 0.13744 0.36217
 C197 C 1.20540 0.13158 0.34759
 H198 H 1.20944 0.16063 0.37907
 H199 H 1.20839 0.12011 0.33956
 N200 N 1.15548 0.19173 0.35705
 N201 N 1.14261 0.19115 0.34523
 C202 C 1.13168 0.20497 0.34790
 C203 C 1.13793 0.21462 0.36211
 C204 C 1.15301 0.20590 0.36760
 H205 H 1.11998 0.20780 0.34016
 H206 H 1.16148 0.20959 0.37854
 H207 H 1.16769 0.17353 0.33155
 H208 H 1.15480 0.15923 0.34709
 N209 N 0.64302 1.34487 0.69172
 N210 N 0.65538 1.35710 0.69155
 C211 C 0.65276 1.36818 0.70530
 C212 C 0.63799 1.36253 0.71450
 C213 C 0.63214 1.34772 0.70553
 H214 H 0.66093 1.37949 0.70844
 H215 H 0.62081 1.33964 0.70884
 Cu216 Cu 0.67367 1.35722 0.67339
 Cu217 Cu 0.64192 1.32612 0.67409
 Cu218 Cu 0.67434 1.32606 0.64161
 N219 N 0.69181 1.35704 0.65508
 N220 N 0.69197 1.34479 0.64271
 C221 C 0.70578 1.34762 0.63181
 C222 C 0.71473 1.36242 0.63768
 C223 C 0.70554 1.36810 0.65246
 H224 H 0.70909 1.33952 0.62047
 H225 H 0.70867 1.37942 0.66065
 N226 N 0.65538 1.30823 0.64274
 N227 N 0.64303 1.30825 0.65512
 C228 C 0.63206 1.29448 0.65235
 C229 C 0.63780 1.28540 0.63756
 C230 C 0.65258 1.29443 0.63178
 H231 H 0.62073 1.29125 0.66046
 H232 H 0.66066 1.29115 0.62043
 H233 H 0.66865 1.32575 0.66839
 H234 H 0.65440 1.34002 0.65407
 N235 N 0.64309 0.84487 1.19193
 N236 N 0.65561 0.85693 1.19192
 C237 C 0.65301 0.86801 1.20569
 C238 C 0.63809 0.86252 1.21473
 C239 C 0.63212 0.84782 1.20566
 H240 H 0.66127 0.87924 1.20891
 H241 H 0.62065 0.83989 1.20883
 Cu242 Cu 0.67381 0.85696 1.17369
 Cu243 Cu 0.64185 0.82619 1.17417
 Cu244 Cu 0.67434 0.82616 1.14167
 N245 N 0.69203 0.85691 1.15549
 N246 N 0.69207 0.84484 1.14295
 C247 C 0.70581 0.84778 1.13199
 C248 C 0.71484 0.86248 1.13800
 C249 C 0.70578 0.86798 1.15293
 H250 H 0.70899 0.83985 1.12050
 H251 H 0.70897 0.87921 1.16121
 N252 N 0.65527 0.80840 1.14270
 N253 N 0.64291 0.80842 1.15507
 C254 C 0.63194 0.79466 1.15227
 C255 C 0.63769 0.78559 1.13748
 C256 C 0.65248 0.79463 1.13172
 H257 H 0.62062 0.79139 1.16040
 H258 H 0.66059 0.79133 1.12039
 H259 H 0.66854 0.82558 1.16840
 H260 H 0.65443 0.84008 1.15421
 N261 N 1.14328 1.34467 1.19186
 N262 N 1.15581 1.35675 1.19185
 C263 C 1.15321 1.36782 1.20560
 C264 C 1.13828 1.36233 1.21465
 C265 C 1.13232 1.34763 1.20558
 H266 H 1.16145 1.37906 1.20881
 H267 H 1.12085 1.33970 1.20876
 Cu268 Cu 1.17400 1.35679 1.17361
 Cu269 Cu 1.14204 1.32601 1.17410
 Cu270 Cu 1.17450 1.32600 1.14157
 N271 N 1.19221 1.35674 1.15540
 N272 N 1.19223 1.34466 1.14283
 C273 C 1.20594 1.34763 1.13186
 C274 C 1.21497 1.36233 1.13786
 C275 C 1.20593 1.36781 1.15280
 H276 H 1.20912 1.33970 1.12037
 H277 H 1.20912 1.37905 1.16108
 N278 N 1.15543 1.30824 1.14263
 N279 N 1.14308 1.30825 1.15501
 C280 C 1.13212 1.29449 1.15223
 C281 C 1.13786 1.28543 1.13742
 C282 C 1.15263 1.29446 1.13165
 H283 H 1.12081 1.29122 1.16036
 H284 H 1.16073 1.29117 1.12031
 H285 H 1.16870 1.32540 1.16830
 H286 H 1.15459 1.33990 1.15413
 N287 N 1.14271 0.84493 0.69149
 N288 N 1.15543 0.85679 0.69176
 C289 C 1.15326 0.86731 0.70601
 C290 C 1.13838 0.86172 0.71506
 C291 C 1.13202 0.84749 0.70552
 H292 H 1.16163 0.87841 0.70940
 H293 H 1.12030 0.83980 0.70836
 Cu294 Cu 1.17304 0.85782 0.67294
 Cu295 Cu 1.14023 0.82793 0.67228
 Cu296 Cu 1.17581 0.82455 0.64356
 N297 N 1.19110 0.85755 0.65453
 N298 N 1.19195 0.84460 0.64293
 C299 C 1.20579 0.84735 0.63205
 C300 C 1.21407 0.86283 0.63715
 C301 C 1.20442 0.86899 0.65144
 H302 H 1.20973 0.83859 0.62142
 H303 H 1.20709 0.88077 0.65912
 N304 N 1.15589 0.80773 0.64347
 N305 N 1.14242 0.80893 0.65454
 C306 C 1.13116 0.79548 0.65141
 C307 C 1.13781 0.78546 0.63763
 C308 C 1.15346 0.79359 0.63287
 H309 H 1.11901 0.79313 0.65859
 H310 H 1.16240 0.78948 0.62246
 H311 H 1.16698 0.82628 0.66976
 H312 H 1.15555 0.83986 0.65255
 N313 N 0.35673 0.65539 0.69173
 N314 N 0.34431 0.64322 0.69165
 C315 C 0.34684 0.63223 0.70551
 C316 C 0.36161 0.63788 0.71469
 C317 C 0.36756 0.65259 0.70561
 H318 H 0.33866 0.62093 0.70868
 H319 H 0.37893 0.66062 0.70886
 Cu320 Cu 0.32637 0.64281 0.67316
 Cu321 Cu 0.35806 0.67402 0.67392
 Cu322 Cu 0.32422 0.67537 0.64304
 N323 N 0.30823 0.64298 0.65484
 N324 N 0.30767 0.65565 0.64288
 C325 C 0.29393 0.65279 0.63192
 C326 C 0.28542 0.63754 0.63733
 C327 C 0.29482 0.63162 0.65188
 H328 H 0.29024 0.66129 0.62098
 H329 H 0.29198 0.62000 0.65976
 N330 N 0.34399 0.69233 0.64302
 N331 N 0.35687 0.69182 0.65483
 C332 C 0.36816 0.70521 0.65162
 C333 C 0.36211 0.71454 0.63710
 C334 C 0.34681 0.70602 0.63192
 H335 H 0.37985 0.70811 0.65933
 H336 H 0.33833 0.70965 0.62097
 H337 H 0.33139 0.67452 0.66972
 H338 H 0.34469 0.66093 0.65390
 N339 N 0.35699 0.15547 1.19179
 N340 N 0.34470 0.14316 1.19158
 C341 C 0.34730 0.13212 1.20539
 C342 C 0.36198 0.13786 1.21465
 C343 C 0.36780 0.15269 1.20568
 H344 H 0.33919 0.12075 1.20850
 H345 H 0.37908 0.16082 1.20902
 Cu346 Cu 0.32662 0.14281 1.17323
 Cu347 Cu 0.35814 0.17417 1.17408
 Cu348 Cu 0.32573 0.17421 1.14160
 N349 N 0.30829 0.14319 1.15511
 N350 N 0.30807 0.15550 1.14278
 C351 C 0.29420 0.15272 1.13196
 C352 C 0.28526 0.13790 1.13783
 C353 C 0.29453 0.13216 1.15254
 H354 H 0.29084 0.16086 1.12065
 H355 H 0.29145 0.12079 1.16069
 N356 N 0.34473 0.19201 1.14267
 N357 N 0.35707 0.19199 1.15505
 C358 C 0.36805 0.20575 1.15226
 C359 C 0.36232 0.21483 1.13745
 C360 C 0.34754 0.20579 1.13168
 H361 H 0.37937 0.20899 1.16038
 H362 H 0.33945 0.20908 1.12033
 H363 H 0.33139 0.17436 1.16842
 H364 H 0.34576 0.16032 1.15401
 N365 N 0.85728 0.65515 1.19161
 N366 N 0.84506 0.64278 1.19133
 C367 C 0.84771 0.63167 1.20506
 C368 C 0.86236 0.63743 1.21437
 C369 C 0.86811 0.65234 1.20548
 H370 H 0.83962 0.62027 1.20814
 H371 H 0.87931 0.66055 1.20891
 Cu372 Cu 0.82677 0.64268 1.17317
 Cu373 Cu 0.85828 0.67403 1.17407
 Cu374 Cu 0.82584 0.67409 1.14160
 N375 N 0.80862 0.64285 1.15487
 N376 N 0.80832 0.65523 1.14261
 C377 C 0.79445 0.65245 1.13179
 C378 C 0.78559 0.63754 1.13758
 C379 C 0.79492 0.63175 1.15224
 H380 H 0.79101 0.66068 1.12057
 H381 H 0.79187 0.62036 1.16036
 N382 N 0.84471 0.69203 1.14281
 N383 N 0.85706 0.69199 1.15518
 C384 C 0.86800 0.70579 1.15243
 C385 C 0.86224 0.71490 1.13766
 C386 C 0.84748 0.70586 1.13187
 H387 H 0.87934 0.70901 1.16053
 H388 H 0.83941 0.70914 1.12050
 H389 H 0.83154 0.67424 1.16840
 H390 H 0.84589 0.66021 1.15397
 N391 N 0.85683 0.15516 0.69159
 N392 N 0.84467 0.14273 0.69127
 C393 C 0.84729 0.13168 0.70506
 C394 C 0.86185 0.13754 0.71443
 C395 C 0.86758 0.15245 0.70554
 H396 H 0.83926 0.12023 0.70809
 H397 H 0.87875 0.16069 0.70899
 Cu398 Cu 0.82665 0.14225 0.67286
 Cu399 Cu 0.85790 0.17393 0.67396
 Cu400 Cu 0.82550 0.17398 0.64151
 N401 N 0.80827 0.14279 0.65481
 N402 N 0.80792 0.15523 0.64261
 C403 C 0.79399 0.15253 0.63186
 C404 C 0.78514 0.13763 0.63764
 C405 C 0.79452 0.13175 0.65222
 H406 H 0.79053 0.16079 0.62066
 H407 H 0.79151 0.12030 0.66028
 N408 N 0.84443 0.19184 0.64263
 N409 N 0.85677 0.19181 0.65500
 C410 C 0.86773 0.20558 0.65222
 C411 C 0.86200 0.21466 0.63742
 C412 C 0.84722 0.20563 0.63165
 H413 H 0.87907 0.20881 0.66033
 H414 H 0.83914 0.20890 0.62029
 H415 H 0.83111 0.17388 0.66834
 H416 H 0.84562 0.16011 0.65378
 N417 N 1.34494 0.35687 0.69168
 N418 N 1.35712 0.34443 0.69159
 C419 C 1.36820 0.34707 0.70533
 C420 C 1.36261 0.36192 0.71445
 C421 C 1.34784 0.36781 0.70545
 H422 H 1.37949 0.33887 0.70849
 H423 H 1.33982 0.37921 0.70868
 Cu424 Cu 1.35719 0.32621 0.67333
 Cu425 Cu 1.32619 0.35802 0.67402
 Cu426 Cu 1.32616 0.32552 0.64153
 N427 N 1.35710 0.30794 0.65512
 N428 N 1.34491 0.30783 0.64269
 C429 C 1.34780 0.29405 0.63175
 C430 C 1.36259 0.28504 0.63766
 C431 C 1.36819 0.29421 0.65252
 H432 H 1.33975 0.29083 0.62035
 H433 H 1.37948 0.29109 0.66074
 N434 N 1.30832 0.34454 0.64265
 N435 N 1.30834 0.35690 0.65502
 C436 C 1.29455 0.36787 0.65227
 C437 C 1.28546 0.36211 0.63749
 C438 C 1.29451 0.34733 0.63171
 H439 H 1.29130 0.37920 0.66038
 H440 H 1.29122 0.33923 0.62037
 H441 H 1.32578 0.33131 0.66826
 H442 H 1.34003 0.34554 0.65396
 N443 N 1.34521 0.85696 1.19186
 N444 N 1.35739 0.84453 1.19178
 C445 C 1.36849 0.84720 1.20552
 C446 C 1.36289 0.86207 1.21464
 C447 C 1.34810 0.86794 1.20561
 H448 H 1.37975 0.83895 1.20870
 H449 H 1.34003 0.87932 1.20882
 Cu450 Cu 1.35736 0.82602 1.17379
 Cu451 Cu 1.32643 0.85802 1.17423
 Cu452 Cu 1.32643 0.82558 1.14175
 N453 N 1.35739 0.80805 1.15527
 N454 N 1.34521 0.80797 1.14282
 C455 C 1.34811 0.79423 1.13184
 C456 C 1.36290 0.78521 1.13772
 C457 C 1.36849 0.79433 1.15261
 H458 H 1.34004 0.79102 1.12045
 H459 H 1.37974 0.79115 1.16086
 N460 N 1.30854 0.84452 1.14290
 N461 N 1.30854 0.85688 1.15527
 C462 C 1.29474 0.86783 1.15251
 C463 C 1.28567 0.86207 1.13773
 C464 C 1.29474 0.84729 1.13195
 H465 H 1.29148 0.87916 1.16062
 H466 H 1.29148 0.83920 1.12060
 H467 H 1.32597 0.83128 1.16853
 H468 H 1.34042 0.84545 1.15433
 N469 N 0.84497 0.35714 1.19209
 N470 N 0.85728 0.34483 1.19187
 C471 C 0.86832 0.34740 1.20565
 C472 C 0.86259 0.36211 1.21495
 C473 C 0.84775 0.36796 1.20598
 H474 H 0.87967 0.33925 1.20871
 H475 H 0.83960 0.37925 1.20931
 Cu476 Cu 0.85764 0.32674 1.17350
 Cu477 Cu 0.82626 0.35828 1.17439
 Cu478 Cu 0.82625 0.32583 1.14193
 N479 N 0.85726 0.30839 1.15539
 N480 N 0.84494 0.30817 1.14308
 C481 C 0.84771 0.29429 1.13225
 C482 C 0.86253 0.28534 1.13810
 C483 C 0.86828 0.29461 1.15279
 H484 H 0.83957 0.29093 1.12096
 H485 H 0.87965 0.29152 1.16092
 N486 N 0.80844 0.34483 1.14300
 N487 N 0.80843 0.35720 1.15536
 C488 C 0.79466 0.36817 1.15255
 C489 C 0.78562 0.36241 1.13774
 C490 C 0.79468 0.34762 1.13200
 H491 H 0.79139 0.37951 1.16065
 H492 H 0.79143 0.33951 1.12065
 H493 H 0.82612 0.33149 1.16874
 H494 H 0.84010 0.34589 1.15430
 N495 N 0.84463 0.85710 0.69189
 N496 N 0.85673 0.84456 0.69188
 C497 C 0.86777 0.84716 0.70564
 C498 C 0.86229 0.86208 0.71470
 C499 C 0.84759 0.86805 0.70563
 H500 H 0.87900 0.83888 0.70886
 H501 H 0.83966 0.87954 0.70880
 Cu502 Cu 0.85685 0.82626 0.67372
 Cu503 Cu 0.82598 0.85831 0.67414
 Cu504 Cu 0.82597 0.82582 0.64166
 N505 N 0.85672 0.80810 0.65543
 N506 N 0.84462 0.80808 0.64288
 C507 C 0.84758 0.79433 0.63194
 C508 C 0.86228 0.78527 0.63793
 C509 C 0.86776 0.79435 0.65285
 H510 H 0.83965 0.79115 0.62044
 H511 H 0.87899 0.79114 0.66114
 N512 N 0.80820 0.84490 0.64270
 N513 N 0.80821 0.85727 0.65507
 C514 C 0.79445 0.86825 0.65228
 C515 C 0.78538 0.86250 0.63748
 C516 C 0.79443 0.84771 0.63172
 H517 H 0.79117 0.87957 0.66040
 H518 H 0.79113 0.83959 0.62039
 H519 H 0.82546 0.83159 0.66842
 H520 H 0.83991 0.84572 0.65422
 N521 N 0.65552 0.64305 0.69176
 N522 N 0.64343 0.65557 0.69173
 C523 C 0.63237 0.65298 0.70549
 C524 C 0.63787 0.63806 0.71456
 C525 C 0.65257 0.63209 0.70552
 H526 H 0.62116 0.66126 0.70873
 H527 H 0.66054 0.62063 0.70873
 Cu528 Cu 0.64345 0.67398 0.67369
 Cu529 Cu 0.67420 0.64187 0.67405
 Cu530 Cu 0.67421 0.67437 0.64154
 N531 N 0.64343 0.69203 0.65527
 N532 N 0.65551 0.69208 0.64274
 C533 C 0.65256 0.70583 0.63178
 C534 C 0.63785 0.71486 0.63778
 C535 C 0.63236 0.70578 0.65270
 H536 H 0.66052 0.70906 0.62031
 H537 H 0.62116 0.70899 0.66101
 N538 N 0.69200 0.65532 0.64261
 N539 N 0.69199 0.64295 0.65499
 C540 C 0.70574 0.63196 0.65219
 C541 C 0.71480 0.63771 0.63739
 C542 C 0.70576 0.65251 0.63162
 H543 H 0.70900 0.62062 0.66032
 H544 H 0.70904 0.66062 0.62027
 H545 H 0.67480 0.66864 0.66834
 H546 H 0.66026 0.65454 0.65420
 N547 N 0.65511 1.14273 1.19211
 N548 N 0.64277 1.15501 1.19181
 C549 C 0.63163 1.15238 1.20551
 C550 C 0.63736 1.13769 1.21487
 C551 C 0.65227 1.13189 1.20599
 H552 H 0.62024 1.16050 1.20851
 H553 H 0.66047 1.12067 1.20942
 Cu554 Cu 0.64264 1.17320 1.17351
 Cu555 Cu 0.67398 1.14170 1.17453
 Cu556 Cu 0.67400 1.17421 1.14200
 N557 N 0.64281 1.19148 1.15531
 N558 N 0.65516 1.19176 1.14303
 C559 C 0.65234 1.20563 1.13218
 C560 C 0.63745 1.21450 1.13796
 C561 C 0.63170 1.20518 1.15265
 H562 H 0.66053 1.20907 1.12095
 H563 H 0.62029 1.20822 1.16075
 N564 N 0.69194 1.15531 1.14322
 N565 N 0.69194 1.14293 1.15560
 C566 C 0.70576 1.13200 1.15283
 C567 C 0.71483 1.13779 1.13804
 C568 C 0.70575 1.15257 1.13227
 H569 H 0.70901 1.12064 1.16092
 H570 H 0.70900 1.16067 1.12091
 H571 H 0.67422 1.16842 1.16876
 H572 H 0.66026 1.15406 1.15436
 N573 N 0.15518 0.64325 1.19212
 N574 N 0.14309 0.65577 1.19212
 C575 C 0.13203 0.65316 1.20590
 C576 C 0.13755 0.63821 1.21498
 C577 C 0.15227 0.63227 1.20588
 H578 H 0.12081 0.66144 1.20911
 H579 H 0.16023 0.62078 1.20900
 Cu580 Cu 0.14304 0.67402 1.17384
 Cu581 Cu 0.17385 0.64204 1.17434
 Cu582 Cu 0.17386 0.67456 1.14182
 N583 N 0.14310 0.69231 1.15560
 N584 N 0.15520 0.69233 1.14306
 C585 C 0.15229 0.70609 1.13209
 C586 C 0.13757 0.71518 1.13806
 C587 C 0.13205 0.70608 1.15301
 H588 H 0.16024 0.70923 1.12060
 H589 H 0.12083 0.70927 1.16130
 N590 N 0.19163 0.65547 1.14285
 N591 N 0.19163 0.64309 1.15523
 C592 C 0.20540 0.63212 1.15243
 C593 C 0.21446 0.63788 1.13763
 C594 C 0.20541 0.65268 1.13187
 H595 H 0.20868 0.62079 1.16056
 H596 H 0.20870 0.66080 1.12054
 H597 H 0.17439 0.66876 1.16855
 H598 H 0.15997 0.65462 1.15436
 N599 N 0.15493 1.14307 0.69216
 N600 N 0.14262 1.15538 0.69195
 C601 C 0.13159 1.15278 0.70575
 C602 C 0.13733 1.13805 0.71503
 C603 C 0.15216 1.13222 0.70605
 H604 H 0.12023 1.16092 0.70883
 H605 H 0.16031 1.12093 0.70937
 Cu606 Cu 0.14226 1.17351 0.67357
 Cu607 Cu 0.17363 1.14194 0.67447
 Cu608 Cu 0.17363 1.17440 0.64197
 N609 N 0.14261 1.19188 0.65543
 N610 N 0.15491 1.19209 0.64310
 C611 C 0.15213 1.20597 0.63224
 C612 C 0.13730 1.21494 0.63808
 C613 C 0.13157 1.20566 0.65283
 H614 H 0.16028 1.20929 0.62094
 H615 H 0.12022 1.20873 0.66099
 N616 N 0.19145 1.15538 0.64306
 N617 N 0.19145 1.14302 0.65545
 C618 C 0.20522 1.13204 0.65267
 C619 C 0.21428 1.13778 0.63786
 C620 C 0.20523 1.15258 0.63209
 H621 H 0.20848 1.12070 0.66080
 H622 H 0.20850 1.16068 0.62073
 H623 H 0.17379 1.16871 0.66880
 H624 H 0.15978 1.15433 0.65439
 N625 N 1.34485 0.64348 0.30832
 N626 N 1.35692 0.65599 0.30832
 C627 C 1.36797 0.65339 0.29454
 C628 C 1.36246 0.63847 0.28549
 C629 C 1.34778 0.63251 0.29457
 H630 H 1.37919 0.66165 0.29130
 H631 H 1.33984 0.62103 0.29142
 Cu632 Cu 1.35702 0.67429 0.32650
 Cu633 Cu 1.32620 0.64226 0.32607
 Cu634 Cu 1.32614 0.67471 0.35856
 N635 N 1.35687 0.69246 0.34481
 N636 N 1.34478 0.69247 0.35734
 C637 C 1.34769 0.70622 0.36832
 C638 C 1.36240 0.71530 0.36233
 C639 C 1.36791 0.70622 0.34738
 H640 H 1.33973 0.70935 0.37980
 H641 H 1.37913 0.70942 0.33908
 N642 N 1.30840 0.65562 0.35752
 N643 N 1.30843 0.64327 0.34514
 C644 C 1.29469 0.63227 0.34791
 C645 C 1.28560 0.63799 0.36271
 C646 C 1.29462 0.65279 0.36849
 H647 H 1.29145 0.62095 0.33978
 H648 H 1.29130 0.66089 0.37982
 H649 H 1.32567 0.66900 0.33179
 H650 H 1.34015 0.65485 0.34599
 N651 N 1.34483 1.14301 0.80814
 N652 N 1.35706 1.15537 0.80829
 C653 C 1.36814 1.15274 0.79454
 C654 C 1.36248 1.13797 0.78536
 C655 C 1.34768 1.13211 0.79433
 H656 H 1.37944 1.16091 0.79140
 H657 H 1.33960 1.12078 0.79103
 Cu658 Cu 1.35721 1.17366 0.82644
 Cu659 Cu 1.32609 1.14191 0.82578
 Cu660 Cu 1.32608 1.17436 0.85825
 N661 N 1.35706 1.19181 0.84474
 N662 N 1.34483 1.19198 0.85713
 C663 C 1.34769 1.20579 0.86802
 C664 C 1.36249 1.21473 0.86213
 C665 C 1.36814 1.20553 0.84734
 H666 H 1.33961 1.20911 0.87937
 H667 H 1.37944 1.20865 0.83914
 N668 N 1.30824 1.15540 0.85713
 N669 N 1.30825 1.14305 0.84475
 C670 C 1.29447 1.13209 0.84753
 C671 C 1.28541 1.13785 0.86232
 C672 C 1.29445 1.15262 0.86809
 H673 H 1.29122 1.12076 0.83942
 H674 H 1.29118 1.16071 0.87945
 H675 H 1.32576 1.16866 0.83146
 H676 H 1.33998 1.15437 0.84577
 N677 N 0.84488 0.64303 0.80825
 N678 N 0.85705 0.65546 0.80836
 C679 C 0.86813 0.65284 0.79461
 C680 C 0.86256 0.63800 0.78547
 C681 C 0.84780 0.63210 0.79448
 H682 H 0.87941 0.66106 0.79143
 H683 H 0.83979 0.62070 0.79124
 Cu684 Cu 0.85713 0.67373 0.82654
 Cu685 Cu 0.82613 0.64191 0.82591
 Cu686 Cu 0.82610 0.67439 0.85840
 N687 N 0.85702 0.69191 0.84481
 N688 N 0.84485 0.69204 0.85726
 C689 C 0.84775 0.70581 0.86818
 C690 C 0.86252 0.71479 0.86225
 C691 C 0.86810 0.70564 0.84740
 H692 H 0.83974 0.70907 0.87959
 H693 H 0.87937 0.70880 0.83916
 N694 N 0.80826 0.65541 0.85729
 N695 N 0.80828 0.64304 0.84492
 C696 C 0.79450 0.63209 0.84769
 C697 C 0.78541 0.63786 0.86247
 C698 C 0.79446 0.65263 0.86824
 H699 H 0.79124 0.62076 0.83958
 H700 H 0.79118 0.66074 0.87958
 H701 H 0.82571 0.66863 0.83165
 H702 H 0.83999 0.65439 0.84593
 N703 N 0.84474 1.14285 0.30813
 N704 N 0.85677 1.15542 0.30808
 C705 C 0.86787 1.15276 0.29436
 C706 C 0.86244 1.13778 0.28539
 C707 C 0.84775 1.13181 0.29447
 H708 H 0.87903 1.16108 0.29107
 H709 H 0.83984 1.12031 0.29132
 Cu710 Cu 0.85670 1.17402 0.32590
 Cu711 Cu 0.82604 1.14173 0.32579
 Cu712 Cu 0.82603 1.17416 0.35824
 N713 N 0.85676 1.19184 0.34452
 N714 N 0.84473 1.19180 0.35711
 C715 C 0.84773 1.20546 0.36815
 C716 C 0.86242 1.21452 0.36215
 C717 C 0.86785 1.20554 0.34716
 H718 H 0.83982 1.20861 0.37967
 H719 H 0.87902 1.20881 0.33882
 N720 N 0.80820 1.15519 0.35715
 N721 N 0.80822 1.14283 0.34478
 C722 C 0.79444 1.13188 0.34754
 C723 C 0.78536 1.13764 0.36233
 C724 C 0.79442 1.15241 0.36811
 H725 H 0.79118 1.12056 0.33942
 H726 H 0.79114 1.16052 0.37945
 H727 H 0.82541 1.16849 0.33145
 H728 H 0.84015 1.15445 0.34552
 N729 N 0.65497 0.35701 0.30823
 N730 N 0.64297 0.34440 0.30812
 C731 C 0.63221 0.34678 0.29407
 C732 C 0.63778 0.36169 0.28497
 C733 C 0.65227 0.36783 0.29430
 H734 H 0.62107 0.33844 0.29078
 H735 H 0.66008 0.37946 0.29134
 Cu736 Cu 0.64234 0.32632 0.32661
 Cu737 Cu 0.67254 0.35897 0.32698
 Cu738 Cu 0.67255 0.32666 0.35933
 N739 N 0.64298 0.30784 0.34471
 N740 N 0.65498 0.30794 0.35734
 C741 C 0.65228 0.29402 0.36817
 C742 C 0.63780 0.28471 0.36200
 C743 C 0.63224 0.29381 0.34707
 H744 H 0.66009 0.29105 0.37981
 H745 H 0.62109 0.29053 0.33871
 N746 N 0.69119 0.34482 0.35756
 N747 N 0.69118 0.35718 0.34517
 C748 C 0.70536 0.36772 0.34752
 C749 C 0.71466 0.36171 0.36209
 C750 C 0.70536 0.34717 0.36811
 H751 H 0.70863 0.37903 0.33937
 H752 H 0.70864 0.33903 0.37945
 H753 H 0.67327 0.33220 0.33253
 H754 H 0.65836 0.34616 0.34651
 N755 N 0.65548 0.85727 0.80820
 N756 N 0.64341 0.84473 0.80823
 C757 C 0.63234 0.84732 0.79447
 C758 C 0.63782 0.86225 0.78540
 C759 C 0.65251 0.86823 0.79445
 H760 H 0.62112 0.83905 0.79126
 H761 H 0.66042 0.87972 0.79127
 Cu762 Cu 0.64343 0.82650 0.82645
 Cu763 Cu 0.67416 0.85850 0.82594
 Cu764 Cu 0.67418 0.82597 0.85848
 N765 N 0.64343 0.80828 0.84467
 N766 N 0.65551 0.80823 0.85723
 C767 C 0.65255 0.79448 0.86818
 C768 C 0.63786 0.78545 0.86218
 C769 C 0.63237 0.79453 0.84725
 H770 H 0.66047 0.79129 0.87969
 H771 H 0.62116 0.79134 0.83896
 N772 N 0.69193 0.84505 0.85742
 N773 N 0.69192 0.85743 0.84503
 C774 C 0.70567 0.86840 0.84782
 C775 C 0.71473 0.86264 0.86262
 C776 C 0.70570 0.84785 0.86840
 H777 H 0.70893 0.87973 0.83969
 H778 H 0.70899 0.83973 0.87973
 H779 H 0.67477 0.83180 0.83173
 H780 H 0.66030 0.84593 0.84590
 N781 N 0.15536 0.35678 0.80827
 N782 N 0.14330 0.34425 0.80829
 C783 C 0.13223 0.34685 0.79452
 C784 C 0.13772 0.36178 0.78546
 C785 C 0.15242 0.36775 0.79452
 H786 H 0.12101 0.33860 0.79131
 H787 H 0.16034 0.37923 0.79134
 Cu788 Cu 0.14331 0.32602 0.82654
 Cu789 Cu 0.17403 0.35802 0.82601
 Cu790 Cu 0.17407 0.32551 0.85856
 N791 N 0.14332 0.30779 0.84478
 N792 N 0.15540 0.30775 0.85733
 C793 C 0.15246 0.29401 0.86830
 C794 C 0.13774 0.28495 0.86231
 C795 C 0.13225 0.29404 0.84736
 H796 H 0.16040 0.29085 0.87980
 H797 H 0.12104 0.29088 0.83906
 N798 N 0.19183 0.34461 0.85749
 N799 N 0.19180 0.35697 0.84509
 C800 C 0.20555 0.36796 0.84786
 C801 C 0.21463 0.36223 0.86266
 C802 C 0.20561 0.34743 0.86845
 H803 H 0.20880 0.37928 0.83972
 H804 H 0.20892 0.33932 0.87979
 H805 H 0.17464 0.33132 0.83182
 H806 H 0.16018 0.34545 0.84599
 N807 N 0.15523 0.85651 0.30840
 N808 N 0.14330 0.84383 0.30827
 C809 C 0.13230 0.84637 0.29445
 C810 C 0.13768 0.86140 0.28549
 C811 C 0.15224 0.86749 0.29468
 H812 H 0.12116 0.83803 0.29115
 H813 H 0.16005 0.87908 0.29161
 Cu814 Cu 0.14328 0.82572 0.32663
 Cu815 Cu 0.17380 0.85793 0.32627
 Cu816 Cu 0.17520 0.82396 0.35720
 N817 N 0.14310 0.80765 0.34506
 N818 N 0.15552 0.80730 0.35726
 C819 C 0.15251 0.79368 0.36837
 C820 C 0.13741 0.78500 0.36279
 C821 C 0.13174 0.79422 0.34798
 H822 H 0.16081 0.79021 0.37952
 H823 H 0.12028 0.79128 0.33993
 N824 N 0.19206 0.84386 0.35725
 N825 N 0.19153 0.85676 0.34543
 C826 C 0.20491 0.86808 0.34863
 C827 C 0.21424 0.86203 0.36315
 C828 C 0.20574 0.84670 0.36834
 H829 H 0.20780 0.87979 0.34090
 H830 H 0.20940 0.83820 0.37927
 H831 H 0.17480 0.83131 0.33063
 H832 H 0.16073 0.84432 0.34619
 O833 O 0.98283 0.93625 0.91188
 O834 O 0.98286 0.91563 0.89121
 C835 C 0.97670 0.92994 0.89753
 C836 C 0.96182 0.93897 0.88849
 C837 C 0.95448 0.93179 0.87298
 H838 H 0.96029 0.92001 0.86723
 O839 O 1.01743 1.06429 0.91172
 O840 O 1.01736 1.08491 0.89102
 C841 C 1.02352 1.07059 0.89734
 C842 C 1.03838 1.06155 0.88828
 C843 C 1.04572 1.06872 0.87274
 H844 H 1.03991 1.08049 0.86698
 O845 O 0.91195 0.98288 0.93606
 O846 O 0.89136 0.98292 0.91537
 C847 C 0.89764 0.97677 0.92973
 C848 C 0.88859 0.96191 0.93880
 C849 C 0.87307 0.95460 0.93166
 H850 H 0.86731 0.96041 0.91987
 O851 O 1.08819 1.01761 0.93591
 O852 O 1.10882 1.01754 0.91525
 C853 C 1.10253 1.02370 0.92959
 C854 C 1.11159 1.03854 0.93865
 C855 C 1.12711 1.04585 0.93149
 H856 H 1.13285 1.04005 0.91969
 O857 O 0.93610 0.91204 0.98269
 O858 O 0.91553 0.89137 0.98271
 C859 C 0.92983 0.89770 0.97655
 C860 C 0.93889 0.88868 0.96166
 C861 C 0.93176 0.87317 0.95427
 H862 H 0.91999 0.86741 0.96005
 O863 O 1.06417 1.08844 0.98248
 O864 O 1.08478 1.10908 0.98250
 C865 C 1.07048 1.10277 0.97633
 C866 C 1.06144 1.11182 0.96141
 C867 C 1.06858 1.12734 0.95402
 H868 H 1.08035 1.13308 0.95980
 O869 O 0.93626 1.01750 0.91190
 O870 O 0.91568 1.01752 0.89119
 C871 C 0.92998 1.02366 0.89754
 C872 C 0.93900 1.03855 0.88851
 C873 C 0.93183 1.04587 0.87297
 H874 H 0.92009 1.04003 0.86721
 O875 O 1.06392 0.98301 0.91175
 O876 O 1.08454 0.98295 0.89108
 C877 C 1.07023 0.97683 0.89742
 C878 C 1.06121 0.96194 0.88841
 C879 C 1.06837 0.95458 0.87288
 H880 H 1.08011 0.96039 0.86710
 O881 O 1.01745 0.91202 0.93614
 O882 O 1.01747 0.89139 0.91547
 C883 C 1.02359 0.89770 0.92982
 C884 C 1.03847 0.88866 0.93887
 C885 C 1.04583 0.87317 0.93168
 H886 H 1.04006 0.86745 0.91986
 O887 O 0.98287 1.08848 0.93605
 O888 O 0.98279 1.10912 0.91537
 C889 C 0.97669 1.10280 0.92974
 C890 C 0.96180 1.11178 0.93881
 C891 C 0.95442 1.12730 0.93165
 H892 H 0.96022 1.13310 0.91988
 O893 O 0.91194 1.06410 0.98274
 O894 O 0.89133 1.08476 0.98275
 C895 C 0.89763 1.07043 0.97660
 C896 C 0.88861 1.06140 0.96170
 C897 C 0.87312 1.06856 0.95432
 H898 H 0.86735 1.08033 0.96012
 O899 O 1.08809 0.93618 0.98291
 O900 O 1.10874 0.91556 0.98280
 C901 C 1.10239 0.92990 0.97670
 C902 C 1.11137 0.93901 0.96179
 C903 C 1.12690 0.93192 0.95444
 H904 H 1.13269 0.92015 0.96024
 O905 O 0.98283 1.06427 0.91181
 O906 O 0.98275 1.08490 0.89111
 C907 C 0.97665 1.07057 0.89747
 C908 C 0.96178 1.06149 0.88847
 C909 C 0.95439 1.06863 0.87293
 H910 H 0.96013 1.08042 0.86714
 O911 O 1.01742 0.93626 0.91187
 O912 O 1.01744 0.91564 0.89119
 C913 C 1.02356 0.92996 0.89751
 C914 C 1.03841 0.93903 0.88845
 C915 C 1.04576 0.93187 0.87292
 H916 H 1.03999 0.92008 0.86717
 O917 O 1.08801 0.98299 0.93610
 O918 O 1.10864 0.98292 0.91544
 C919 C 1.10232 0.97681 0.92981
 C920 C 1.11133 0.96193 0.93890
 C921 C 1.12686 0.95464 0.93176
 H922 H 1.13262 0.96048 0.91999
 O923 O 0.91199 1.01750 0.93607
 O924 O 0.89140 1.01754 0.91538
 C925 C 0.89768 1.02366 0.92974
 C926 C 0.88865 1.03853 0.93879
 C927 C 0.87315 1.04589 0.93161
 H928 H 0.86741 1.04008 0.91982
 O929 O 0.93616 1.08828 0.98271
 O930 O 0.91557 1.10896 0.98274
 C931 C 0.92987 1.10263 0.97658
 C932 C 0.93891 1.11169 0.96169
 C933 C 0.93174 1.12721 0.95434
 H934 H 0.91996 1.13294 0.96014
 O935 O 1.06401 0.91187 0.98294
 O936 O 1.08464 0.89123 0.98285
 C937 C 1.07032 0.89757 0.97673
 C938 C 1.06129 0.88860 0.96181
 C939 C 1.06846 0.87311 0.95441
 H940 H 1.08022 0.86734 0.96022
 O941 O 1.06395 1.01765 0.91170
 O942 O 1.08457 1.01759 0.89103
 C943 C 1.07027 1.02377 0.89734
 C944 C 1.06125 1.03867 0.88828
 C945 C 1.06840 1.04604 0.87274
 H946 H 1.08016 1.04025 0.86698
 O947 O 0.93618 0.98286 0.91183
 O948 O 0.91560 0.98288 0.89113
 C949 C 0.92990 0.97672 0.89748
 C950 C 0.93894 0.96183 0.88846
 C951 C 0.93179 0.95444 0.87294
 H952 H 0.92001 0.96022 0.86718
 O953 O 1.01748 1.08853 0.93592
 O954 O 1.01741 1.10918 0.91524
 C955 C 1.02360 1.10286 0.92957
 C956 C 1.03852 1.11187 0.93857
 C957 C 1.04585 1.12738 0.93138
 H958 H 1.04002 1.13316 0.91961
 O959 O 0.98284 0.91201 0.93612
 O960 O 0.98287 0.89138 0.91546
 C961 C 0.97671 0.89769 0.92980
 C962 C 0.96182 0.88866 0.93883
 C963 C 0.95450 0.87315 0.93164
 H964 H 0.96034 0.86739 0.91988
 O965 O 1.08830 1.06415 0.98258
 O966 O 1.10893 1.08476 0.98259
 C967 C 1.10262 1.07044 0.97645
 C968 C 1.11164 1.06138 0.96157
 C969 C 1.12716 1.06849 0.95422
 H970 H 1.13294 1.08024 0.96004
 O971 O 0.91193 0.93629 0.98273
 O972 O 0.89133 0.91563 0.98275
 C973 C 0.89761 0.92997 0.97660
 C974 C 0.88857 0.93904 0.96172
 C975 C 0.87306 0.93192 0.95439
 H976 H 0.86730 0.92016 0.96022
 Cu977 Cu 1.00014 0.92620 0.92608
 Cu978 Cu 1.00016 0.90144 0.90126
 Cu979 Cu 1.00016 1.07433 0.92595
 Cu980 Cu 1.00007 1.09910 0.90112
 Cu981 Cu 0.92616 1.00017 0.92604
 Cu982 Cu 0.90145 1.00022 0.90119
 Cu983 Cu 1.07394 1.00033 0.92593
 Cu984 Cu 1.09871 1.00024 0.90113
 C985 C 0.95405 0.95409 0.89603
 H986 H 0.95946 0.95952 0.90816
 C987 C 0.93940 0.93936 0.86513
 C988 C 1.04614 1.04643 0.89584
 H989 H 1.04074 1.04101 0.90799
 C990 C 1.06079 1.06112 0.86489
 C991 C 0.89613 0.95414 0.95394
 H992 H 0.90826 0.95953 0.95933
 C993 C 0.86523 0.93954 0.93930
 C994 C 1.10406 1.04629 0.95379
 H995 H 1.09193 1.04092 0.95920
 C996 C 1.13496 1.06089 0.93912
 C997 C 0.95402 0.89622 0.95393
 H998 H 0.95940 0.90835 0.95935
 C999 C 0.93941 0.86534 0.93920
 C1000 C 1.04632 1.10429 0.95368
 H1001 H 1.04092 1.09217 0.95911
 C1002 C 1.06094 1.13520 0.93895
 C1003 C 0.95408 1.04636 0.89606
 H1004 H 0.95949 1.04097 0.90821
 C1005 C 0.93936 1.06097 0.86511
 C1006 C 1.04612 0.95416 0.89599
 H1007 H 1.04072 0.95957 0.90814
 C1008 C 1.06080 0.93950 0.86506
 C1009 C 1.04619 0.89618 0.95404
 H1010 H 1.04078 0.90829 0.95947
 C1011 C 1.06088 0.86532 0.93929
 C1012 C 0.95404 1.10418 0.95393
 H1013 H 0.95946 1.09205 0.95933
 C1014 C 0.93933 1.13508 0.93926
 C1015 C 0.89617 1.04628 0.95393
 H1016 H 0.90829 1.04087 0.95936
 C1017 C 0.86531 1.06096 0.93921
 C1018 C 1.10378 0.95413 0.95402
 H1019 H 1.09163 0.95949 0.95942
 C1020 C 1.13471 0.93957 0.93936
 O1021 O 1.01742 0.93622 1.08835
 O1022 O 1.01741 0.91558 1.10904
 C1023 C 1.02355 0.92991 1.10270
 C1024 C 1.03844 0.93892 1.11172
 C1025 C 1.04574 0.93175 1.12727
 H1026 H 1.03987 0.92003 1.13306
 O1027 O 0.98295 1.06391 1.08812
 O1028 O 0.98295 1.08451 1.10882
 C1029 C 0.97682 1.07019 1.10248
 C1030 C 0.96197 1.06115 1.11153
 C1031 C 0.95463 1.06833 1.12705
 H1032 H 0.96043 1.08011 1.13279
 O1033 O 0.91197 1.01738 1.06414
 O1034 O 0.89138 1.01742 1.08484
 C1035 C 0.89768 1.02356 1.07048
 C1036 C 0.88867 1.03847 1.06144
 C1037 C 0.87317 1.04583 1.06860
 H1038 H 0.86741 1.04002 1.08039
 O1039 O 1.08850 0.98267 1.06402
 O1040 O 1.10910 0.98269 1.08471
 C1041 C 1.10282 0.97654 1.07036
 C1042 C 1.11185 0.96165 1.06133
 C1043 C 1.12736 0.95429 1.06849
 H1044 H 1.13314 0.96012 1.08025
 O1045 O 1.06410 0.91180 1.01765
 O1046 O 1.08473 0.89116 1.01757
 C1047 C 1.07043 0.89747 1.02378
 C1048 C 1.06143 0.88843 1.03872
 C1049 C 1.06858 0.87291 1.04610
 H1050 H 1.08034 0.86714 1.04029
 O1051 O 0.93620 1.08826 1.01738
 O1052 O 0.91560 1.10893 1.01741
 C1053 C 0.92992 1.10259 1.02354
 C1054 C 0.93900 1.11161 1.03841
 C1055 C 0.93187 1.12712 1.04580
 H1056 H 0.92010 1.13289 1.04002
 O1057 O 0.93613 0.98262 1.08834
 O1058 O 0.91556 0.98269 1.10905
 C1059 C 0.92984 0.97650 1.10271
 C1060 C 0.93885 0.96160 1.11177
 C1061 C 0.93168 0.95426 1.12731
 H1062 H 0.91992 0.96008 1.13305
 O1063 O 1.06416 1.01725 1.08816
 O1064 O 1.08474 1.01727 1.10887
 C1065 C 1.07043 1.02339 1.10252
 C1066 C 1.06136 1.03825 1.11155
 C1067 C 1.06849 1.04558 1.12709
 H1068 H 1.08024 1.03976 1.13286
 O1069 O 0.98291 0.91199 1.06406
 O1070 O 0.98287 0.89134 1.08473
 C1071 C 0.97676 0.89767 1.07037
 C1072 C 0.96190 0.88867 1.06129
 C1073 C 0.95456 0.87314 1.06844
 H1074 H 0.96037 0.86735 1.08022
 O1075 O 1.01751 1.08821 1.06390
 O1076 O 1.01751 1.10881 1.08460
 C1077 C 1.02363 1.10253 1.07024
 C1078 C 1.03846 1.11159 1.06117
 C1079 C 1.04580 1.12709 1.06835
 H1080 H 1.04002 1.13282 1.08017
 O1081 O 0.91188 0.93619 1.01740
 O1082 O 0.89129 0.91554 1.01743
 C1083 C 0.89758 0.92987 1.02356
 C1084 C 0.88855 0.93892 1.03846
 C1085 C 0.87304 0.93180 1.04583
 H1086 H 0.86727 0.92004 1.04003
 O1087 O 1.08826 1.06417 1.01726
 O1088 O 1.10889 1.08479 1.01729
 C1089 C 1.10257 1.07046 1.02344
 C1090 C 1.11157 1.06139 1.03836
 C1091 C 1.12706 1.06854 1.04575
 H1092 H 1.13281 1.08033 1.03996
 O1093 O 1.01754 1.06394 1.08813
 O1094 O 1.01753 1.08453 1.10883
 C1095 C 1.02366 1.07021 1.10249
 C1096 C 1.03852 1.06114 1.11154
 C1097 C 1.04585 1.06827 1.12708
 H1098 H 1.04006 1.08005 1.13285
 O1099 O 0.98280 0.93601 1.08850
 O1100 O 0.98279 0.91537 1.10918
 C1101 C 0.97664 0.92969 1.10284
 C1102 C 0.96172 0.93872 1.11185
 C1103 C 0.95434 0.93157 1.12740
 H1104 H 0.96013 0.91981 1.13320
 O1105 O 1.08835 1.01732 1.06393
 O1106 O 1.10895 1.01735 1.08461
 C1107 C 1.10263 1.02350 1.07026
 C1108 C 1.11161 1.03844 1.06123
 C1109 C 1.12709 1.04579 1.06841
 H1110 H 1.13286 1.03995 1.08018
 O1111 O 0.91196 0.98274 1.06406
 O1112 O 0.89137 0.98278 1.08476
 C1113 C 0.89765 0.97664 1.07040
 C1114 C 0.88859 0.96180 1.06135
 C1115 C 0.87308 0.95449 1.06852
 H1116 H 0.86734 0.96031 1.08031
 O1117 O 1.06403 1.08835 1.01716
 O1118 O 1.08464 1.10899 1.01720
 C1119 C 1.07032 1.10267 1.02332
 C1120 C 1.06127 1.11167 1.03822
 C1121 C 1.06840 1.12717 1.04560
 H1122 H 1.08014 1.13295 1.03977
 O1123 O 0.93622 0.91211 1.01737
 O1124 O 0.91565 0.89144 1.01740
 C1125 C 0.92996 0.89777 1.02353
 C1126 C 0.93903 0.88873 1.03841
 C1127 C 0.93189 0.87321 1.04576
 H1128 H 0.92013 0.86747 1.03996
 O1129 O 1.06423 0.98264 1.08821
 O1130 O 1.08480 0.98265 1.10891
 C1131 C 1.07050 0.97651 1.10258
 C1132 C 1.06142 0.96166 1.11165
 C1133 C 1.06853 0.95428 1.12721
 H1134 H 1.08033 0.96001 1.13296
 O1135 O 0.93631 1.01726 1.08824
 O1136 O 0.91573 1.01733 1.10895
 C1137 C 0.93005 1.02343 1.10259
 C1138 C 0.93912 1.03829 1.11159
 C1139 C 0.93198 1.04567 1.12712
 H1140 H 0.92022 1.03989 1.13290
 O1141 O 0.98292 1.08821 1.06393
 O1142 O 0.98293 1.10881 1.08462
 C1143 C 0.97679 1.10252 1.07027
 C1144 C 0.96191 1.11157 1.06125
 C1145 C 0.95459 1.12709 1.06844
 H1146 H 0.96042 1.13283 1.08021
 O1147 O 1.01752 0.91181 1.06431
 O1148 O 1.01748 0.89116 1.08498
 C1149 C 1.02366 0.89748 1.07065
 C1150 C 1.03856 0.88845 1.06163
 C1151 C 1.04592 0.87293 1.06882
 H1152 H 1.04011 0.86717 1.08060
 O1153 O 1.08833 0.93598 1.01758
 O1154 O 1.10898 0.91536 1.01747
 C1155 C 1.10269 0.92968 1.02365
 C1156 C 1.11177 0.93873 1.03850
 C1157 C 1.12728 0.93157 1.04583
 H1158 H 1.13301 0.91977 1.04004
 O1159 O 0.91198 1.06408 1.01744
 O1160 O 0.89137 1.08474 1.01745
 C1161 C 0.89768 1.07040 1.02360
 C1162 C 0.88867 1.06136 1.03852
 C1163 C 0.87317 1.06852 1.04589
 H1164 H 0.86741 1.08029 1.04007
 Cu1165 Cu 1.00016 0.92608 1.07423
 Cu1166 Cu 1.00014 0.90130 1.09905
 Cu1167 Cu 1.00023 1.07400 1.07394
 Cu1168 Cu 1.00023 1.09873 1.09880
 Cu1169 Cu 0.92609 0.92623 1.00005
 Cu1170 Cu 0.90139 0.90142 1.00007
 Cu1171 Cu 1.07406 0.92602 1.00029
 Cu1172 Cu 1.09883 0.90126 1.00016
 Cu1173 Cu 0.92613 1.07411 1.00006
 Cu1174 Cu 0.90140 1.09892 1.00009
 Cu1175 Cu 1.07412 1.07421 0.99986
 Cu1176 Cu 1.09888 1.09897 0.99990
 Cu1177 Cu 0.92616 0.99999 1.07412
 Cu1178 Cu 0.90145 1.00006 1.09898
 Cu1179 Cu 1.07425 0.99995 1.07400
 Cu1180 Cu 1.09897 0.99999 1.09885
 C1181 C 1.04627 0.95398 1.10411
 H1182 H 1.04089 0.95940 1.09196
 C1183 C 1.06084 0.93926 1.13509
 C1184 C 0.95422 1.04602 1.10399
 H1185 H 0.95961 1.04060 1.09185
 C1186 C 0.93958 1.06076 1.13491
 C1187 C 0.89622 1.04624 1.04630
 H1188 H 0.90834 1.04083 1.04089
 C1189 C 0.86534 1.06091 1.06098
 C1190 C 1.10426 0.95387 1.04624
 H1191 H 1.09214 0.95928 1.04084
 C1192 C 1.13516 0.93920 1.06088
 C1193 C 1.04633 0.89599 1.04649
 H1194 H 1.04092 0.90812 1.04106
 C1195 C 1.06098 0.86507 1.06121
 C1196 C 0.95412 1.10404 1.04613
 H1197 H 0.95951 1.09191 1.04070
 C1198 C 0.93952 1.13494 1.06087
 C1199 C 0.95397 0.95382 1.10424
 H1200 H 0.95938 0.95922 1.09209
 C1201 C 0.93926 0.93919 1.13520
 C1202 C 1.04627 1.04602 1.10397
 H1203 H 1.04088 1.04064 1.09181
 C1204 C 1.06089 1.06064 1.13493
 C1205 C 0.95414 0.89626 1.04617
 H1206 H 0.95953 0.90840 1.04076
 C1207 C 0.93950 0.86535 1.06083
 C1208 C 1.04619 1.10408 1.04601
 H1209 H 1.04081 1.09196 1.04058
 C1210 C 1.06083 1.13495 1.06072
 C1211 C 0.89612 0.95402 1.04621
 H1212 H 0.90824 0.95940 1.04080
 C1213 C 0.86523 0.93943 1.06092
 C1214 C 1.10404 1.04625 1.04611
 H1215 H 1.09193 1.04085 1.04069
 C1216 C 1.13490 1.06089 1.06082
 O1217 O 0.98270 0.43584 0.41155
 O1218 O 0.98281 0.41520 0.39089
 C1219 C 0.97660 0.42950 0.39720
 C1220 C 0.96169 0.43848 0.38814
 C1221 C 0.95435 0.43129 0.37263
 H1222 H 0.96018 0.41952 0.36688
 O1223 O 1.01766 0.56390 0.41163
 O1224 O 1.01756 0.58450 0.39091
 C1225 C 1.02377 0.57021 0.39727
 C1226 C 1.03870 0.56123 0.38824
 C1227 C 1.04606 0.56844 0.37272
 H1228 H 1.04022 0.58020 0.36696
 O1229 O 0.91178 0.48234 0.43579
 O1230 O 0.89120 0.48246 0.41508
 C1231 C 0.89746 0.47626 0.42943
 C1232 C 0.88839 0.46139 0.43848
 C1233 C 0.87288 0.45405 0.43132
 H1234 H 0.86714 0.45984 0.41951
 O1235 O 1.08842 0.51722 0.43603
 O1236 O 1.10904 0.51719 0.41536
 C1237 C 1.10274 0.52335 0.42970
 C1238 C 1.11174 0.53824 0.43874
 C1239 C 1.12726 0.54558 0.43158
 H1240 H 1.13305 0.53974 0.41983
 O1241 O 0.93605 0.41176 0.48248
 O1242 O 0.91548 0.39107 0.48254
 C1243 C 0.92978 0.39740 0.47637
 C1244 C 0.93885 0.38837 0.46149
 C1245 C 0.93175 0.37284 0.45413
 H1246 H 0.91997 0.36708 0.45992
 O1247 O 1.06408 0.58824 0.48253
 O1248 O 1.08469 0.60887 0.48253
 C1249 C 1.07039 0.60257 0.47638
 C1250 C 1.06135 0.61160 0.46146
 C1251 C 1.06847 0.62712 0.45408
 H1252 H 1.08022 0.63289 0.45989
 O1253 O 0.93628 0.51693 0.41175
 O1254 O 0.91572 0.51706 0.39103
 C1255 C 0.93003 0.52314 0.39741
 C1256 C 0.93911 0.53804 0.38841
 C1257 C 0.93195 0.54542 0.37289
 H1258 H 0.92019 0.53963 0.36713
 O1259 O 1.06407 0.48269 0.41185
 O1260 O 1.08467 0.48263 0.39116
 C1261 C 1.07034 0.47653 0.39750
 C1262 C 1.06128 0.46166 0.38847
 C1263 C 1.06846 0.45431 0.37296
 H1264 H 1.08024 0.46010 0.36722
 O1265 O 1.01734 0.41173 0.43592
 O1266 O 1.01742 0.39108 0.41528
 C1267 C 1.02351 0.39740 0.42963
 C1268 C 1.03836 0.38836 0.43872
 C1269 C 1.04571 0.37284 0.43156
 H1270 H 1.03994 0.36710 0.41976
 O1271 O 0.98298 0.58806 0.43589
 O1272 O 0.98290 0.60868 0.41518
 C1273 C 0.97679 0.60237 0.42955
 C1274 C 0.96192 0.61139 0.43863
 C1275 C 0.95459 0.62694 0.43149
 H1276 H 0.96039 0.63273 0.41971
 O1277 O 0.91207 0.56381 0.48254
 O1278 O 0.89144 0.58444 0.48250
 C1279 C 0.89776 0.57011 0.47636
 C1280 C 0.88874 0.56106 0.46145
 C1281 C 0.87323 0.56821 0.45409
 H1282 H 0.86748 0.57999 0.45989
 O1283 O 1.08830 0.43569 0.48260
 O1284 O 1.10892 0.41504 0.48262
 C1285 C 1.10261 0.42937 0.47643
 C1286 C 1.11164 0.43841 0.46150
 C1287 C 1.12715 0.43126 0.45413
 H1288 H 1.13290 0.41947 0.45992
 O1289 O 0.98302 0.56372 0.41175
 O1290 O 0.98293 0.58433 0.39104
 C1291 C 0.97683 0.57000 0.39740
 C1292 C 0.96195 0.56093 0.38841
 C1293 C 0.95456 0.56812 0.37289
 H1294 H 0.96032 0.57991 0.36712
 O1295 O 1.01733 0.43604 0.41174
 O1296 O 1.01743 0.41541 0.39107
 C1297 C 1.02352 0.42974 0.39741
 C1298 C 1.03842 0.43880 0.38842
 C1299 C 1.04581 0.43165 0.37290
 H1300 H 1.04003 0.41988 0.36711
 O1301 O 1.08842 0.48255 0.43595
 O1302 O 1.10903 0.48251 0.41528
 C1303 C 1.10271 0.47635 0.42962
 C1304 C 1.11169 0.46139 0.43865
 C1305 C 1.12721 0.45404 0.43149
 H1306 H 1.13299 0.45990 0.41974
 O1307 O 0.91196 0.51699 0.43587
 O1308 O 0.89138 0.51712 0.41517
 C1309 C 0.89768 0.52322 0.42954
 C1310 C 0.88871 0.53814 0.43858
 C1311 C 0.87320 0.54550 0.43143
 H1312 H 0.86743 0.53968 0.41966
 O1313 O 0.93629 0.58800 0.48259
 O1314 O 0.91568 0.60865 0.48255
 C1315 C 0.93000 0.60233 0.47643
 C1316 C 0.93907 0.61137 0.46154
 C1317 C 0.93194 0.62692 0.45421
 H1318 H 0.92019 0.63269 0.46003
 O1319 O 1.06395 0.41164 0.48271
 O1320 O 1.08454 0.39097 0.48271
 C1321 C 1.07023 0.39731 0.47657
 C1322 C 1.06119 0.38831 0.46166
 C1323 C 1.06833 0.37279 0.45430
 H1324 H 1.08008 0.36701 0.46012
 O1325 O 1.06434 0.51734 0.41166
 O1326 O 1.08494 0.51728 0.39097
 C1327 C 1.07065 0.52348 0.39730
 C1328 C 1.06163 0.53840 0.38825
 C1329 C 1.06879 0.54581 0.37272
 H1330 H 1.08057 0.54005 0.36695
 O1331 O 0.93602 0.48228 0.41156
 O1332 O 0.91546 0.48241 0.39084
 C1333 C 0.92973 0.47619 0.39718
 C1334 C 0.93876 0.46129 0.38814
 C1335 C 0.93161 0.45390 0.37262
 H1336 H 0.91982 0.45966 0.36686
 O1337 O 1.01757 0.58813 0.43586
 O1338 O 1.01749 0.60875 0.41515
 C1339 C 1.02366 0.60248 0.42951
 C1340 C 1.03850 0.61155 0.43855
 C1341 C 1.04582 0.62708 0.43136
 H1342 H 1.04002 0.63282 0.41956
 O1343 O 0.98275 0.41173 0.43593
 O1344 O 0.98282 0.39109 0.41528
 C1345 C 0.97665 0.39740 0.42961
 C1346 C 0.96178 0.38836 0.43865
 C1347 C 0.95447 0.37283 0.43149
 H1348 H 0.96031 0.36706 0.41973
 O1349 O 1.08826 0.56398 0.48255
 O1350 O 1.10889 0.58459 0.48256
 C1351 C 1.10259 0.57027 0.47642
 C1352 C 1.11165 0.56119 0.46156
 C1353 C 1.12717 0.56832 0.45422
 H1354 H 1.13289 0.58011 0.46001
 O1355 O 0.91173 0.43587 0.48247
 O1356 O 0.89115 0.41521 0.48255
 C1357 C 0.89742 0.42953 0.47635
 C1358 C 0.88837 0.43855 0.46143
 C1359 C 0.87287 0.43139 0.45409
 H1360 H 0.86711 0.41964 0.45993
 Cu1361 Cu 1.00002 0.42591 0.42585
 Cu1362 Cu 1.00014 0.40113 0.40106
 Cu1363 Cu 1.00032 0.57388 0.42585
 Cu1364 Cu 1.00020 0.59862 0.40099
 Cu1365 Cu 0.92606 0.49961 0.42582
 Cu1366 Cu 0.90138 0.49979 0.40095
 Cu1367 Cu 1.07425 0.49996 0.42595
 Cu1368 Cu 1.09898 0.49989 0.40113
 C1369 C 0.95389 0.45358 0.39569
 H1370 H 0.95930 0.45902 0.40781
 C1371 C 0.93925 0.43884 0.36478
 C1372 C 1.04650 0.54612 0.39580
 H1373 H 1.04109 0.54068 0.40793
 C1374 C 1.06115 0.56089 0.36487
 C1375 C 0.89591 0.45364 0.45364
 H1376 H 0.90802 0.45905 0.45905
 C1377 C 0.86503 0.43900 0.43898
 C1378 C 1.10415 0.54605 0.45382
 H1379 H 1.09201 0.54066 0.45922
 C1380 C 1.13505 0.56068 0.43917
 C1381 C 0.95397 0.39592 0.45375
 H1382 H 0.95934 0.40806 0.45916
 C1383 C 0.93940 0.36500 0.43907
 C1384 C 1.04626 0.60403 0.45370
 H1385 H 1.04088 0.59189 0.45913
 C1386 C 1.06087 0.63493 0.43897
 C1387 C 0.95421 0.54580 0.39598
 H1388 H 0.95962 0.54038 0.40812
 C1389 C 0.93950 0.56052 0.36507
 C1390 C 1.04616 0.45391 0.39601
 H1391 H 1.04073 0.45932 0.40814
 C1392 C 1.06089 0.43925 0.36510
 C1393 C 1.04610 0.39589 0.45388
 H1394 H 1.04070 0.40802 0.45928
 C1395 C 1.06075 0.36499 0.43920
 C1396 C 0.95416 0.60381 0.45375
 H1397 H 0.95954 0.59166 0.45914
 C1398 C 0.93954 0.63478 0.43912
 C1399 C 0.89628 0.54593 0.45369
 H1400 H 0.90841 0.54052 0.45910
 C1401 C 0.86538 0.56059 0.43902
 C1402 C 1.10411 0.45357 0.45375
 H1403 H 1.09199 0.45897 0.45916
 C1404 C 1.13502 0.43892 0.43906
 O1405 O 1.01729 0.43598 0.58816
 O1406 O 1.01730 0.41535 0.60886
 C1407 C 1.02342 0.42968 0.60252
 C1408 C 1.03827 0.43874 0.61156
 C1409 C 1.04561 0.43157 0.62709
 H1410 H 1.03980 0.41980 0.63287
 O1411 O 0.98291 0.56382 0.58815
 O1412 O 0.98287 0.58444 0.60883
 C1413 C 0.97675 0.57011 0.60250
 C1414 C 0.96189 0.56106 0.61154
 C1415 C 0.95453 0.56825 0.62705
 H1416 H 0.96034 0.58002 0.63280
 O1417 O 0.91202 0.51717 0.56402
 O1418 O 0.89139 0.51720 0.58468
 C1419 C 0.89771 0.52332 0.57032
 C1420 C 0.88869 0.53820 0.56124
 C1421 C 0.87318 0.54557 0.56838
 H1422 H 0.86742 0.53978 0.58018
 O1423 O 1.08819 0.48258 0.56395
 O1424 O 1.10881 0.48254 0.58461
 C1425 C 1.10250 0.47641 0.57027
 C1426 C 1.11152 0.46153 0.56121
 C1427 C 1.12706 0.45422 0.56834
 H1428 H 1.13283 0.46004 0.58011
 O1429 O 1.06413 0.41154 0.51742
 O1430 O 1.08472 0.39087 0.51744
 C1431 C 1.07043 0.39721 0.52361
 C1432 C 1.06140 0.38820 0.53856
 C1433 C 1.06852 0.37267 0.54597
 H1434 H 1.08028 0.36689 0.54018
 O1435 O 0.93617 0.58804 0.51729
 O1436 O 0.91556 0.60869 0.51725
 C1437 C 0.92986 0.60237 0.52343
 C1438 C 0.93888 0.61140 0.53835
 C1439 C 0.93173 0.62692 0.54572
 H1440 H 0.91995 0.63267 0.53993
 O1441 O 0.93618 0.48248 0.58830
 O1442 O 0.91557 0.48253 0.60897
 C1443 C 0.92987 0.47635 0.60265
 C1444 C 0.93886 0.46142 0.61169
 C1445 C 0.93168 0.45409 0.62723
 H1446 H 0.91993 0.45994 0.63298
 O1447 O 1.06405 0.51727 0.58820
 O1448 O 1.08465 0.51720 0.60888
 C1449 C 1.07036 0.52339 0.60255
 C1450 C 1.06136 0.53830 0.61159
 C1451 C 1.06855 0.54566 0.62710
 H1452 H 1.08032 0.53985 0.63284
 O1453 O 0.98280 0.41171 0.56388
 O1454 O 0.98277 0.39106 0.58456
 C1455 C 0.97665 0.39739 0.57019
 C1456 C 0.96179 0.38838 0.56112
 C1457 C 0.95444 0.37287 0.56829
 H1458 H 0.96023 0.36709 0.58008
 O1459 O 1.01747 0.58815 0.56393
 O1460 O 1.01742 0.60879 0.58459
 C1461 C 1.02358 0.60249 0.57025
 C1462 C 1.03844 0.61153 0.56120
 C1463 C 1.04578 0.62705 0.56836
 H1464 H 1.03997 0.63281 0.58015
 O1465 O 0.91188 0.43599 0.51717
 O1466 O 0.89130 0.41533 0.51725
 C1467 C 0.89760 0.42967 0.52337
 C1468 C 0.88861 0.43871 0.53830
 C1469 C 0.87309 0.43160 0.54566
 H1470 H 0.86731 0.41985 0.53983
 O1471 O 1.08822 0.56395 0.51722
 O1472 O 1.10885 0.58456 0.51725
 C1473 C 1.10253 0.57023 0.52338
 C1474 C 1.11154 0.56115 0.53828
 C1475 C 1.12703 0.56828 0.54566
 H1476 H 1.13279 0.58006 0.53986
 O1477 O 1.01751 0.56394 0.58822
 O1478 O 1.01748 0.58456 0.60889
 C1479 C 1.02364 0.57025 0.60257
 C1480 C 1.03853 0.56121 0.61160
 C1481 C 1.04592 0.56838 0.62711
 H1482 H 1.04015 0.58016 0.63287
 O1483 O 0.98268 0.43574 0.58832
 O1484 O 0.98269 0.41511 0.60901
 C1485 C 0.97654 0.42942 0.60267
 C1486 C 0.96165 0.43847 0.61171
 C1487 C 0.95426 0.43132 0.62725
 H1488 H 0.96001 0.41952 0.63302
 O1489 O 1.08819 0.51722 0.56390
 O1490 O 1.10881 0.51717 0.58457
 C1491 C 1.10251 0.52334 0.57022
 C1492 C 1.11154 0.53822 0.56116
 C1493 C 1.12703 0.54555 0.56834
 H1494 H 1.13278 0.53973 0.58013
 O1495 O 0.91204 0.48253 0.56399
 O1496 O 0.89142 0.48256 0.58465
 C1497 C 0.89772 0.47641 0.57030
 C1498 C 0.88867 0.46156 0.56123
 C1499 C 0.87315 0.45425 0.56838
 H1500 H 0.86741 0.46006 0.58017
 O1501 O 1.06405 0.58820 0.51723
 O1502 O 1.08467 0.60883 0.51724
 C1503 C 1.07036 0.60252 0.52339
 C1504 C 1.06132 0.61154 0.53830
 C1505 C 1.06846 0.62704 0.54567
 H1506 H 1.08022 0.63280 0.53986
 O1507 O 0.93611 0.41180 0.51716
 O1508 O 0.91554 0.39111 0.51722
 C1509 C 0.92985 0.39746 0.52333
 C1510 C 0.93893 0.38843 0.53822
 C1511 C 0.93179 0.37291 0.54558
 H1512 H 0.92003 0.36717 0.53977
 O1513 O 1.06393 0.48262 0.58815
 O1514 O 1.08453 0.48256 0.60883
 C1515 C 1.07021 0.47645 0.60250
 C1516 C 1.06115 0.46158 0.61155
 C1517 C 1.06829 0.45420 0.62708
 H1518 H 1.08006 0.45998 0.63285
 O1519 O 0.93627 0.51714 0.58823
 O1520 O 0.91565 0.51719 0.60890
 C1521 C 0.92997 0.52331 0.60257
 C1522 C 0.93901 0.53821 0.61158
 C1523 C 0.93185 0.54561 0.62709
 H1524 H 0.92009 0.53984 0.63287
 O1525 O 0.98285 0.58810 0.56394
 O1526 O 0.98281 0.60873 0.58460
 C1527 C 0.97668 0.60241 0.57026
 C1528 C 0.96177 0.61141 0.56122
 C1529 C 0.95443 0.62693 0.56838
 H1530 H 0.96025 0.63270 0.58015
 O1531 O 1.01742 0.41158 0.56410
 O1532 O 1.01739 0.39093 0.58478
 C1533 C 1.02357 0.39726 0.57045
 C1534 C 1.03849 0.38823 0.56144
 C1535 C 1.04582 0.37271 0.56864
 H1536 H 1.03998 0.36695 0.58041
 O1537 O 1.08820 0.43587 0.51730
 O1538 O 1.10882 0.41522 0.51733
 C1539 C 1.10251 0.42957 0.52345
 C1540 C 1.11153 0.43864 0.53833
 C1541 C 1.12706 0.43152 0.54566
 H1542 H 1.13284 0.41976 0.53985
 O1543 O 0.91203 0.56378 0.51724
 O1544 O 0.89140 0.58442 0.51720
 C1545 C 0.89771 0.57009 0.52337
 C1546 C 0.88868 0.56105 0.53828
 C1547 C 0.87318 0.56821 0.54563
 H1548 H 0.86742 0.57998 0.53979
 Cu1549 Cu 1.00004 0.42582 0.57404
 Cu1550 Cu 1.00004 0.40104 0.59887
 Cu1551 Cu 1.00020 0.57394 0.57399
 Cu1552 Cu 1.00014 0.59869 0.59880
 Cu1553 Cu 0.92600 0.42593 0.49980
 Cu1554 Cu 0.90130 0.40111 0.49990
 Cu1555 Cu 1.07408 0.42575 0.50001
 Cu1556 Cu 1.09881 0.40095 0.50003
 Cu1557 Cu 0.92621 0.57384 0.49992
 Cu1558 Cu 0.90145 0.59862 0.49987
 Cu1559 Cu 1.07408 0.57403 0.49988
 Cu1560 Cu 1.09884 0.59878 0.49990
 Cu1561 Cu 0.92620 0.49983 0.57407
 Cu1562 Cu 0.90145 0.49987 0.59888
 Cu1563 Cu 1.07402 0.49992 0.57398
 Cu1564 Cu 1.09876 0.49986 0.59880
 C1565 C 1.04604 0.45385 0.60398
 H1566 H 1.04064 0.45926 0.59183
 C1567 C 1.06067 0.43914 0.63493
 C1568 C 0.95413 0.54594 0.60400
 H1569 H 0.95953 0.54052 0.59186
 C1570 C 0.93946 0.56069 0.63489
 C1571 C 0.89624 0.54594 0.54609
 H1572 H 0.90836 0.54053 0.54069
 C1573 C 0.86535 0.56063 0.56074
 C1574 C 1.10396 0.45375 0.54610
 H1575 H 1.09182 0.45912 0.54071
 C1576 C 1.13490 0.43915 0.56073
 C1577 C 1.04628 0.39578 0.54631
 H1578 H 1.04090 0.40791 0.54088
 C1579 C 1.06088 0.36484 0.56106
 C1580 C 0.95400 0.60385 0.54611
 H1581 H 0.95940 0.59172 0.54070
 C1582 C 0.93935 0.63476 0.56080
 C1583 C 0.95394 0.45361 0.60414
 H1584 H 0.95936 0.45902 0.59199
 C1585 C 0.93921 0.43898 0.63508
 C1586 C 1.04626 0.54607 0.60405
 H1587 H 1.04082 0.54066 0.59193
 C1588 C 1.06099 0.56075 0.63494
 C1589 C 0.95403 0.39597 0.54599
 H1590 H 0.95942 0.40811 0.54058
 C1591 C 0.93938 0.36507 0.56067
 C1592 C 1.04621 0.60398 0.54606
 H1593 H 1.04082 0.59186 0.54065
 C1594 C 1.06085 0.63488 0.56076
 C1595 C 0.89620 0.45379 0.54609
 H1596 H 0.90834 0.45916 0.54068
 C1597 C 0.86529 0.43921 0.56076
 C1598 C 1.10399 0.54601 0.54603
 H1599 H 1.09188 0.54062 0.54061
 C1600 C 1.13485 0.56064 0.56075
 O1601 O 0.48236 0.93601 0.41153
 O1602 O 0.48251 0.91537 0.39087
 C1603 C 0.47629 0.92967 0.39716
 C1604 C 0.46139 0.93866 0.38809
 C1605 C 0.45404 0.93146 0.37258
 H1606 H 0.45987 0.91969 0.36684
 O1607 O 0.51732 1.06428 0.41179
 O1608 O 0.51722 1.08488 0.39107
 C1609 C 0.52342 1.07059 0.39742
 C1610 C 0.53832 1.06158 0.38837
 C1611 C 0.54566 1.06877 0.37284
 H1612 H 0.53985 1.08056 0.36709
 O1613 O 0.41172 0.98255 0.43585
 O1614 O 0.39108 0.98271 0.41521
 C1615 C 0.39737 0.97650 0.42954
 C1616 C 0.38829 0.96166 0.43861
 C1617 C 0.37277 0.95432 0.43148
 H1618 H 0.36702 0.96011 0.41967
 O1619 O 0.58809 1.01751 0.43599
 O1620 O 0.60866 1.01748 0.41528
 C1621 C 0.60240 1.02362 0.42964
 C1622 C 0.61145 1.03847 0.43869
 C1623 C 0.62698 1.04577 0.43154
 H1624 H 0.63275 1.03994 0.41978
 O1625 O 0.43579 0.91179 0.48248
 O1626 O 0.41520 0.89114 0.48256
 C1627 C 0.42948 0.89745 0.47636
 C1628 C 0.43851 0.88842 0.46144
 C1629 C 0.43138 0.87290 0.45406
 H1630 H 0.41962 0.86713 0.45986
 O1631 O 0.56395 1.08849 0.48250
 O1632 O 0.58457 1.10911 0.48251
 C1633 C 0.57025 1.10282 0.47635
 C1634 C 0.56121 1.11188 0.46145
 C1635 C 0.56834 1.12739 0.45406
 H1636 H 0.58012 1.13313 0.45984
 O1637 O 0.43616 1.01715 0.41179
 O1638 O 0.41554 1.01732 0.39113
 C1639 C 0.42987 1.02339 0.39748
 C1640 C 0.43891 1.03832 0.38851
 C1641 C 0.43174 1.04570 0.37300
 H1642 H 0.42000 1.03988 0.36722
 O1643 O 0.56371 0.98294 0.41187
 O1644 O 0.58427 0.98292 0.39114
 C1645 C 0.56997 0.97679 0.39751
 C1646 C 0.56093 0.96190 0.38850
 C1647 C 0.56812 0.95455 0.37299
 H1648 H 0.57989 0.96036 0.36725
 O1649 O 0.51698 0.91198 0.43599
 O1650 O 0.51713 0.89132 0.41535
 C1651 C 0.52321 0.89767 0.42971
 C1652 C 0.53812 0.88871 0.43879
 C1653 C 0.54549 0.87319 0.43166
 H1654 H 0.53968 0.86738 0.41991
 O1655 O 0.48266 1.08846 0.43606
 O1656 O 0.48257 1.10907 0.41535
 C1657 C 0.47646 1.10276 0.42972
 C1658 C 0.46156 1.11177 0.43877
 C1659 C 0.45417 1.12727 0.43158
 H1660 H 0.45994 1.13303 0.41978
 O1661 O 0.41195 1.06406 0.48280
 O1662 O 0.39130 1.08468 0.48269
 C1663 C 0.39765 1.07034 0.47659
 C1664 C 0.38867 1.06124 0.46169
 C1665 C 0.37313 1.06834 0.45433
 H1666 H 0.36735 1.08011 0.46013
 O1667 O 0.58817 0.93627 0.48262
 O1668 O 0.60877 0.91560 0.48265
 C1669 C 0.60248 0.92994 0.47648
 C1670 C 0.61151 0.93897 0.46156
 C1671 C 0.62703 0.93182 0.45420
 H1672 H 0.63280 0.92006 0.46003
 O1673 O 0.48271 1.06411 0.41193
 O1674 O 0.48261 1.08471 0.39121
 C1675 C 0.47653 1.07037 0.39758
 C1676 C 0.46168 1.06127 0.38856
 C1677 C 0.45429 1.06845 0.37304
 H1678 H 0.46003 1.08026 0.36728
 O1679 O 0.51697 0.93622 0.41175
 O1680 O 0.51714 0.91558 0.39109
 C1681 C 0.52320 0.92993 0.39743
 C1682 C 0.53810 0.93901 0.38845
 C1683 C 0.54550 0.93186 0.37293
 H1684 H 0.53974 0.92009 0.36714
 O1685 O 0.58812 0.98288 0.43591
 O1686 O 0.60870 0.98286 0.41519
 C1687 C 0.60242 0.97672 0.42956
 C1688 C 0.61147 0.96183 0.43862
 C1689 C 0.62698 0.95449 0.43146
 H1690 H 0.63273 0.96031 0.41967
 O1691 O 0.41195 1.01718 0.43602
 O1692 O 0.39131 1.01734 0.41537
 C1693 C 0.39765 1.02341 0.42973
 C1694 C 0.38867 1.03831 0.43882
 C1695 C 0.37314 1.04562 0.43169
 H1696 H 0.36736 1.03977 0.41994
 O1697 O 0.43600 1.08842 0.48283
 O1698 O 0.41537 1.10906 0.48275
 C1699 C 0.42969 1.10274 0.47663
 C1700 C 0.43872 1.11176 0.46170
 C1701 C 0.43154 1.12726 0.45432
 H1702 H 0.41978 1.13301 0.46014
 O1703 O 0.56381 0.91222 0.48264
 O1704 O 0.58439 0.89153 0.48268
 C1705 C 0.57009 0.89787 0.47652
 C1706 C 0.56103 0.88882 0.46165
 C1707 C 0.56819 0.87330 0.45431
 H1708 H 0.57998 0.86758 0.46011
 O1709 O 0.56392 1.01761 0.41171
 O1710 O 0.58449 1.01758 0.39098
 C1711 C 0.57021 1.02376 0.39734
 C1712 C 0.56119 1.03870 0.38833
 C1713 C 0.56835 1.04611 0.37281
 H1714 H 0.58011 1.04033 0.36704
 O1715 O 0.43584 0.98248 0.41151
 O1716 O 0.41522 0.98265 0.39085
 C1717 C 0.42951 0.97641 0.39714
 C1718 C 0.43849 0.96150 0.38807
 C1719 C 0.43132 0.95410 0.37256
 H1720 H 0.41954 0.95988 0.36680
 O1721 O 0.51728 1.08853 0.43600
 O1722 O 0.51719 1.10914 0.41529
 C1723 C 0.52338 1.10286 0.42963
 C1724 C 0.53828 1.11190 0.43862
 C1725 C 0.54562 1.12741 0.43141
 H1726 H 0.53979 1.13318 0.41964
 O1727 O 0.48236 0.91184 0.43586
 O1728 O 0.48251 0.89119 0.41522
 C1729 C 0.47629 0.89749 0.42953
 C1730 C 0.46140 0.88844 0.43855
 C1731 C 0.45408 0.87292 0.43138
 H1732 H 0.45991 0.86717 0.41960
 O1733 O 0.58808 1.06419 0.48254
 O1734 O 0.60872 1.08479 0.48255
 C1735 C 0.60241 1.07046 0.47641
 C1736 C 0.61145 1.06138 0.46155
 C1737 C 0.62697 1.06848 0.45421
 H1738 H 0.63274 1.08025 0.46001
 O1739 O 0.41166 0.93609 0.48256
 O1740 O 0.39105 0.91545 0.48264
 C1741 C 0.39733 0.92978 0.47646
 C1742 C 0.38828 0.93883 0.46158
 C1743 C 0.37277 0.93169 0.45426
 H1744 H 0.36701 0.91995 0.46013
 Cu1745 Cu 0.49965 0.92608 0.42585
 Cu1746 Cu 0.49985 0.90130 0.40107
 Cu1747 Cu 0.50000 1.07429 0.42603
 Cu1748 Cu 0.49988 1.09901 0.40115
 Cu1749 Cu 0.42599 0.99980 0.42586
 Cu1750 Cu 0.40123 1.00004 0.40107
 Cu1751 Cu 0.57390 1.00024 0.42594
 Cu1752 Cu 0.59858 1.00020 0.40106
 C1753 C 0.45362 0.95377 0.39562
 H1754 H 0.45904 0.95921 0.40774
 C1755 C 0.43895 0.93902 0.36473
 C1756 C 0.54608 1.04645 0.39591
 H1757 H 0.54068 1.04101 0.40805
 C1758 C 0.56074 1.06120 0.36499
 C1759 C 0.39583 0.95391 0.45377
 H1760 H 0.40796 0.95930 0.45916
 C1761 C 0.36494 0.93927 0.43915
 C1762 C 0.60390 1.04627 0.45380
 H1763 H 0.59176 1.04090 0.45921
 C1764 C 0.63481 1.06084 0.43915
 C1765 C 0.45361 0.89598 0.45368
 H1766 H 0.45900 0.90810 0.45910
 C1767 C 0.43902 0.86507 0.43897
 C1768 C 0.54608 1.10435 0.45374
 H1769 H 0.54069 1.09222 0.45918
 C1770 C 0.56070 1.13524 0.43898
 C1771 C 0.45398 1.04610 0.39610
 H1772 H 0.45940 1.04068 0.40824
 C1773 C 0.43927 1.06082 0.36519
 C1774 C 0.54582 0.95413 0.39604
 H1775 H 0.54039 0.95952 0.40818
 C1776 C 0.56057 0.93948 0.36514
 C1777 C 0.54589 0.89633 0.45388
 H1778 H 0.54048 0.90847 0.45926
 C1779 C 0.56058 0.86542 0.43926
 C1780 C 0.45383 1.10421 0.45393
 H1781 H 0.45925 1.09209 0.45935
 C1782 C 0.43910 1.13509 0.43920
 C1783 C 0.39625 1.04612 0.45392
 H1784 H 0.40840 1.04075 0.45931
 C1785 C 0.36530 1.06069 0.43928
 C1786 C 0.60394 0.95407 0.45377
 H1787 H 0.59182 0.95947 0.45918
 C1788 C 0.63484 0.93943 0.43909
 O1789 O 0.51712 0.93633 0.58818
 O1790 O 0.51713 0.91569 0.60888
 C1791 C 0.52325 0.93002 0.60254
 C1792 C 0.53809 0.93907 0.61159
 C1793 C 0.54544 0.93187 0.62711
 H1794 H 0.53966 0.92007 0.63285
 O1795 O 0.48284 1.06399 0.58815
 O1796 O 0.48276 1.08460 0.60884
 C1797 C 0.47667 1.07026 0.60249
 C1798 C 0.46179 1.06119 0.61149
 C1799 C 0.45447 1.06832 0.62704
 H1800 H 0.46031 1.08004 0.63285
 O1801 O 0.41155 1.01751 0.56394
 O1802 O 0.39098 1.01749 0.58466
 C1803 C 0.39725 1.02365 0.57030
 C1804 C 0.38821 1.03855 0.56128
 C1805 C 0.37270 1.04589 0.56846
 H1806 H 0.36694 1.04004 0.58023
 O1807 O 0.58798 0.98294 0.56415
 O1808 O 0.60862 0.98288 0.58479
 C1809 C 0.60230 0.97676 0.57045
 C1810 C 0.61131 0.96188 0.56137
 C1811 C 0.62684 0.95453 0.56851
 H1812 H 0.63260 0.96032 0.58030
 O1813 O 0.56389 0.91214 0.51733
 O1814 O 0.58447 0.89145 0.51736
 C1815 C 0.57016 0.89779 0.52350
 C1816 C 0.56110 0.88877 0.53840
 C1817 C 0.56822 0.87324 0.54578
 H1818 H 0.58000 0.86748 0.54000
 O1819 O 0.43595 1.08839 0.51755
 O1820 O 0.41532 1.10902 0.51748
 C1821 C 0.42962 1.10271 0.52368
 C1822 C 0.43862 1.11174 0.53862
 C1823 C 0.43145 1.12724 0.54601
 H1824 H 0.41967 1.13299 0.54022
 O1825 O 0.43587 0.98287 0.58809
 O1826 O 0.41532 0.98289 0.60883
 C1827 C 0.42962 0.97676 0.60247
 C1828 C 0.43869 0.96191 0.61154
 C1829 C 0.43156 0.95460 0.62710
 H1830 H 0.41980 0.96042 0.63286
 O1831 O 0.56391 1.01767 0.58842
 O1832 O 0.58453 1.01759 0.60908
 C1833 C 0.57025 1.02380 0.60276
 C1834 C 0.56128 1.03873 0.61180
 C1835 C 0.56849 1.04608 0.62731
 H1836 H 0.58024 1.04022 0.63305
 O1837 O 0.48256 0.91206 0.56396
 O1838 O 0.48257 0.89142 0.58465
 C1839 C 0.47643 0.89772 0.57029
 C1840 C 0.46159 0.88868 0.56124
 C1841 C 0.45423 0.87318 0.56843
 H1842 H 0.46000 0.86744 0.58025
 O1843 O 0.51729 1.08838 0.56391
 O1844 O 0.51726 1.10901 0.58458
 C1845 C 0.52340 1.10271 0.57022
 C1846 C 0.53825 1.11174 0.56115
 C1847 C 0.54560 1.12724 0.56832
 H1848 H 0.53981 1.13299 0.58011
 O1849 O 0.41171 0.93607 0.51723
 O1850 O 0.39110 0.91543 0.51733
 C1851 C 0.39741 0.92977 0.52344
 C1852 C 0.38841 0.93884 0.53835
 C1853 C 0.37291 0.93171 0.54574
 H1854 H 0.36715 0.91993 0.53996
 O1855 O 0.58806 1.06419 0.51721
 O1856 O 0.60870 1.08479 0.51723
 C1857 C 0.60237 1.07047 0.52338
 C1858 C 0.61137 1.06139 0.53828
 C1859 C 0.62690 1.06849 0.54563
 H1860 H 0.63268 1.08024 0.53981
 O1861 O 0.51745 1.06438 0.58842
 O1862 O 0.51738 1.08499 0.60910
 C1863 C 0.52357 1.07070 0.60278
 C1864 C 0.53849 1.06168 0.61181
 C1865 C 0.54590 1.06884 0.62733
 H1866 H 0.54015 1.08064 0.63309
 O1867 O 0.48253 0.93628 0.58820
 O1868 O 0.48254 0.91565 0.60890
 C1869 C 0.47640 0.92998 0.60256
 C1870 C 0.46155 0.93904 0.61159
 C1871 C 0.45420 0.93191 0.62715
 H1872 H 0.46000 0.92014 0.63295
 O1873 O 0.58795 1.01756 0.56400
 O1874 O 0.60858 1.01751 0.58465
 C1875 C 0.60228 1.02366 0.57030
 C1876 C 0.61133 1.03851 0.56121
 C1877 C 0.62685 1.04581 0.56835
 H1878 H 0.63259 1.03998 0.58014
 O1879 O 0.41169 0.98286 0.56383
 O1880 O 0.39113 0.98284 0.58456
 C1881 C 0.39741 0.97670 0.57020
 C1882 C 0.38840 0.96179 0.56118
 C1883 C 0.37290 0.95446 0.56837
 H1884 H 0.36714 0.96030 0.58014
 O1885 O 0.56385 1.08840 0.51718
 O1886 O 0.58448 1.10903 0.51721
 C1887 C 0.57016 1.10271 0.52335
 C1888 C 0.56111 1.11173 0.53825
 C1889 C 0.56827 1.12722 0.54562
 H1890 H 0.58004 1.13297 0.53982
 O1891 O 0.43600 0.91195 0.51718
 O1892 O 0.41541 0.89129 0.51727
 C1893 C 0.42973 0.89763 0.52337
 C1894 C 0.43878 0.88864 0.53829
 C1895 C 0.43164 0.87314 0.54567
 H1896 H 0.41990 0.86737 0.53985
 O1897 O 0.56368 0.98302 0.58830
 O1898 O 0.58431 0.98293 0.60896
 C1899 C 0.56998 0.97684 0.60263
 C1900 C 0.56092 0.96195 0.61165
 C1901 C 0.56807 0.95455 0.62717
 H1902 H 0.57983 0.96033 0.63295
 O1903 O 0.43597 1.01749 0.58796
 O1904 O 0.41542 1.01749 0.60870
 C1905 C 0.42973 1.02361 0.60234
 C1906 C 0.43883 1.03844 0.61140
 C1907 C 0.43170 1.04578 0.62695
 H1908 H 0.41991 1.04003 0.63269
 O1909 O 0.48268 1.08846 0.56415
 O1910 O 0.48264 1.10909 0.58482
 C1911 C 0.47649 1.10277 0.57049
 C1912 C 0.46154 1.11176 0.56148
 C1913 C 0.45417 1.12726 0.56866
 H1914 H 0.46000 1.13304 0.58042
 O1915 O 0.51716 0.91210 0.56396
 O1916 O 0.51717 0.89146 0.58464
 C1917 C 0.52331 0.89778 0.57029
 C1918 C 0.53819 0.88876 0.56126
 C1919 C 0.54552 0.87324 0.56844
 H1920 H 0.53969 0.86747 0.58022
 O1921 O 0.58804 0.93638 0.51733
 O1922 O 0.60864 0.91570 0.51736
 C1923 C 0.60234 0.93004 0.52350
 C1924 C 0.61134 0.93906 0.53842
 C1925 C 0.62686 0.93191 0.54576
 H1926 H 0.63264 0.92017 0.53991
 O1927 O 0.41166 1.06427 0.51748
 O1928 O 0.39101 1.08488 0.51738
 C1929 C 0.39731 1.07056 0.52357
 C1930 C 0.38824 1.06150 0.53844
 C1931 C 0.37273 1.06865 0.54581
 H1932 H 0.36699 1.08045 0.54002
 Cu1933 Cu 0.49983 0.92626 0.57400
 Cu1934 Cu 0.49985 0.90148 0.59884
 Cu1935 Cu 0.50008 1.07424 0.57409
 Cu1936 Cu 0.50000 1.09899 0.59890
 Cu1937 Cu 0.42586 0.92604 0.49985
 Cu1938 Cu 0.40113 0.90126 0.49996
 Cu1939 Cu 0.57392 0.92633 0.49998
 Cu1940 Cu 0.59863 0.90150 0.50001
 Cu1941 Cu 0.42596 1.07423 0.50018
 Cu1942 Cu 0.40119 1.09898 0.50006
 Cu1943 Cu 0.57391 1.07425 0.49985
 Cu1944 Cu 0.59868 1.09900 0.49988
 Cu1945 Cu 0.42582 1.00018 0.57386
 Cu1946 Cu 0.40115 1.00018 0.59876
 Cu1947 Cu 0.57381 1.00031 0.57415
 Cu1948 Cu 0.59858 1.00022 0.59894
 C1949 C 0.54583 0.95421 0.60407
 H1950 H 0.54043 0.95965 0.59193
 C1951 C 0.56049 0.93945 0.63497
 C1952 C 0.45398 1.04614 0.60387
 H1953 H 0.45936 1.04076 0.59170
 C1954 C 0.43936 1.06078 0.63483
 C1955 C 0.39577 1.04635 0.54618
 H1956 H 0.40789 1.04095 0.54076
 C1957 C 0.36489 1.06099 0.56088
 C1958 C 0.60377 0.95414 0.54623
 H1959 H 0.59163 0.95954 0.54085
 C1960 C 0.63468 0.93949 0.56086
 C1961 C 0.54598 0.89633 0.54614
 H1962 H 0.54059 0.90847 0.54072
 C1963 C 0.56059 0.86541 0.56086
 C1964 C 0.45376 1.10420 0.54637
 H1965 H 0.45917 1.09208 0.54095
 C1966 C 0.43907 1.13508 0.56109
 C1967 C 0.45379 0.95414 0.60399
 H1968 H 0.45918 0.95953 0.59183
 C1969 C 0.43915 0.93954 0.63498
 C1970 C 0.54619 1.04653 0.60426
 H1971 H 0.54075 1.04112 0.59214
 C1972 C 0.56095 1.06118 0.63516
 C1973 C 0.45386 0.89621 0.54607
 H1974 H 0.45925 0.90834 0.54064
 C1975 C 0.43919 0.86534 0.56081
 C1976 C 0.54600 1.10419 0.54601
 H1977 H 0.54060 1.09207 0.54059
 C1978 C 0.56067 1.13504 0.56072
 C1979 C 0.39595 0.95398 0.54607
 H1980 H 0.40807 0.95936 0.54064
 C1981 C 0.36508 0.93936 0.56081
 C1982 C 0.60379 1.04629 0.54607
 H1983 H 0.59166 1.04093 0.54067
 C1984 C 0.63470 1.06085 0.56073
 O1985 O 0.48283 0.43615 0.91179
 O1986 O 0.48287 0.41555 0.89109
 C1987 C 0.47671 0.42985 0.89743
 C1988 C 0.46182 0.43889 0.88840
 C1989 C 0.45447 0.43172 0.87287
 H1990 H 0.46030 0.41996 0.86711
 O1991 O 0.51724 0.56408 0.91187
 O1992 O 0.51723 0.58472 0.89118
 C1993 C 0.52337 0.57039 0.89751
 C1994 C 0.53823 0.56136 0.88847
 C1995 C 0.54556 0.56854 0.87293
 H1996 H 0.53974 0.58031 0.86717
 O1997 O 0.41186 0.48275 0.93596
 O1998 O 0.39125 0.48282 0.91529
 C1999 C 0.39754 0.47665 0.92963
 C2000 C 0.38850 0.46177 0.93868
 C2001 C 0.37299 0.45444 0.93153
 H2002 H 0.36722 0.46026 0.91975
 O2003 O 0.58821 0.51750 0.93604
 O2004 O 0.60881 0.51752 0.91535
 C2005 C 0.60252 0.52364 0.92970
 C2006 C 0.61155 0.53850 0.93877
 C2007 C 0.62706 0.54584 0.93161
 H2008 H 0.63281 0.54005 0.91981
 O2009 O 0.43615 0.41196 0.98255
 O2010 O 0.41559 0.39128 0.98261
 C2011 C 0.42987 0.39761 0.97643
 C2012 C 0.43893 0.38857 0.96154
 C2013 C 0.43179 0.37307 0.95415
 H2014 H 0.42000 0.36732 0.95993
 O2015 O 0.56401 0.58822 0.98271
 O2016 O 0.58459 0.60888 0.98269
 C2017 C 0.57029 0.60255 0.97654
 C2018 C 0.56123 0.61158 0.96163
 C2019 C 0.56835 0.62711 0.95425
 H2020 H 0.58012 0.63286 0.96004
 O2021 O 0.43617 0.51737 0.91181
 O2022 O 0.41557 0.51742 0.89112
 C2023 C 0.42988 0.52354 0.89746
 C2024 C 0.43890 0.53844 0.88844
 C2025 C 0.43173 0.54579 0.87291
 H2026 H 0.41999 0.53996 0.86714
 O2027 O 0.56399 0.48288 0.91185
 O2028 O 0.58457 0.48290 0.89114
 C2029 C 0.57028 0.47675 0.89749
 C2030 C 0.56125 0.46188 0.88845
 C2031 C 0.56842 0.45454 0.87292
 H2032 H 0.58017 0.46036 0.86716
 O2033 O 0.51746 0.41190 0.93602
 O2034 O 0.51750 0.39128 0.91534
 C2035 C 0.52362 0.39759 0.92969
 C2036 C 0.53851 0.38857 0.93875
 C2037 C 0.54589 0.37307 0.93158
 H2038 H 0.54011 0.36731 0.91979
 O2039 O 0.48267 0.58832 0.93612
 O2040 O 0.48266 0.60898 0.91545
 C2041 C 0.47654 0.60266 0.92980
 C2042 C 0.46168 0.61170 0.93887
 C2043 C 0.45432 0.62721 0.93169
 H2044 H 0.46010 0.63296 0.91989
 O2045 O 0.41199 0.56415 0.98286
 O2046 O 0.39132 0.58475 0.98279
 C2047 C 0.39768 0.57044 0.97666
 C2048 C 0.38871 0.56137 0.96174
 C2049 C 0.37320 0.56851 0.95436
 H2050 H 0.36742 0.58028 0.96015
 O2051 O 0.58823 0.43618 0.98273
 O2052 O 0.60884 0.41552 0.98272
 C2053 C 0.60254 0.42986 0.97657
 C2054 C 0.61156 0.43893 0.96168
 C2055 C 0.62707 0.43180 0.95430
 H2056 H 0.63284 0.42001 0.96010
 O2057 O 0.48265 0.56413 0.91185
 O2058 O 0.48264 0.58477 0.89117
 C2059 C 0.47651 0.57044 0.89750
 C2060 C 0.46167 0.56139 0.88846
 C2061 C 0.45429 0.56855 0.87292
 H2062 H 0.46003 0.58035 0.86716
 O2063 O 0.51743 0.43619 0.91182
 O2064 O 0.51747 0.41559 0.89112
 C2065 C 0.52358 0.42991 0.89746
 C2066 C 0.53843 0.43898 0.88843
 C2067 C 0.54580 0.43185 0.87290
 H2068 H 0.54002 0.42007 0.86712
 O2069 O 0.58819 0.48287 0.93608
 O2070 O 0.60879 0.48289 0.91539
 C2071 C 0.60250 0.47674 0.92975
 C2072 C 0.61154 0.46185 0.93880
 C2073 C 0.62705 0.45453 0.93163
 H2074 H 0.63280 0.46037 0.91985
 O2075 O 0.41204 0.51739 0.93612
 O2076 O 0.39143 0.51746 0.91544
 C2077 C 0.39775 0.52357 0.92980
 C2078 C 0.38874 0.53847 0.93885
 C2079 C 0.37323 0.54581 0.93169
 H2080 H 0.36748 0.53999 0.91991
 O2081 O 0.43613 0.58838 0.98290
 O2082 O 0.41549 0.60901 0.98283
 C2083 C 0.42982 0.60270 0.97671
 C2084 C 0.43886 0.61171 0.96181
 C2085 C 0.43170 0.62722 0.95443
 H2086 H 0.41995 0.63299 0.96025
 O2087 O 0.56407 0.41194 0.98272
 O2088 O 0.58466 0.39126 0.98275
 C2089 C 0.57037 0.39760 0.97658
 C2090 C 0.56135 0.38858 0.96167
 C2091 C 0.56853 0.37308 0.95430
 H2092 H 0.58030 0.36733 0.96012
 O2093 O 0.56394 0.51750 0.91186
 O2094 O 0.58452 0.51753 0.89116
 C2095 C 0.57021 0.52366 0.89750
 C2096 C 0.56114 0.53852 0.88846
 C2097 C 0.56827 0.54591 0.87293
 H2098 H 0.58004 0.54013 0.86716
 O2099 O 0.43616 0.48273 0.91180
 O2100 O 0.41556 0.48278 0.89112
 C2101 C 0.42987 0.47661 0.89744
 C2102 C 0.43891 0.46173 0.88840
 C2103 C 0.43176 0.45435 0.87288
 H2104 H 0.41998 0.46013 0.86711
 O2105 O 0.51727 0.58829 0.93609
 O2106 O 0.51726 0.60895 0.91543
 C2107 C 0.52342 0.60261 0.92976
 C2108 C 0.53831 0.61162 0.93879
 C2109 C 0.54563 0.62714 0.93161
 H2110 H 0.53979 0.63292 0.91985
 O2111 O 0.48286 0.41189 0.93601
 O2112 O 0.48289 0.39127 0.91533
 C2113 C 0.47673 0.39757 0.92967
 C2114 C 0.46185 0.38854 0.93870
 C2115 C 0.45452 0.37304 0.93152
 H2116 H 0.46036 0.36727 0.91976
 O2117 O 0.58825 0.56404 0.98276
 O2118 O 0.60885 0.58468 0.98275
 C2119 C 0.60256 0.57036 0.97661
 C2120 C 0.61158 0.56132 0.96170
 C2121 C 0.62708 0.56846 0.95435
 H2122 H 0.63285 0.58021 0.96018
 O2123 O 0.41191 0.43616 0.98256
 O2124 O 0.39133 0.41549 0.98263
 C2125 C 0.39759 0.42982 0.97645
 C2126 C 0.38853 0.43887 0.96157
 C2127 C 0.37303 0.43172 0.95423
 H2128 H 0.36729 0.41994 0.96004
 Cu2129 Cu 0.50014 0.42609 0.92598
 Cu2130 Cu 0.50019 0.40136 0.90114
 Cu2131 Cu 0.49995 0.57414 0.92606
 Cu2132 Cu 0.49995 0.59893 0.90124
 Cu2133 Cu 0.42612 0.50004 0.92600
 Cu2134 Cu 0.40139 0.50013 0.90117
 Cu2135 Cu 0.57402 0.50019 0.92604
 Cu2136 Cu 0.59874 0.50021 0.90118
 C2137 C 0.45404 0.45399 0.89596
 H2138 H 0.45944 0.45941 0.90809
 C2139 C 0.43939 0.43928 0.86504
 C2140 C 0.54602 0.54625 0.89603
 H2141 H 0.54063 0.54082 0.90818
 C2142 C 0.56064 0.56097 0.86509
 C2143 C 0.39606 0.45399 0.95380
 H2144 H 0.40818 0.45939 0.95920
 C2145 C 0.36518 0.43936 0.93915
 C2146 C 0.60402 0.54624 0.95391
 H2147 H 0.59189 0.54084 0.95932
 C2148 C 0.63490 0.56088 0.93925
 C2149 C 0.45405 0.39611 0.95380
 H2150 H 0.45944 0.40823 0.95922
 C2151 C 0.43943 0.36522 0.93909
 C2152 C 0.54611 0.60403 0.95390
 H2153 H 0.54073 0.59190 0.95932
 C2154 C 0.56070 0.63496 0.93918
 C2155 C 0.45397 0.54623 0.89601
 H2156 H 0.45939 0.54082 0.90815
 C2157 C 0.43926 0.56090 0.86508
 C2158 C 0.54616 0.45410 0.89601
 H2159 H 0.54075 0.45949 0.90816
 C2160 C 0.56085 0.43947 0.86507
 C2161 C 0.54624 0.39612 0.95389
 H2162 H 0.54082 0.40824 0.95930
 C2163 C 0.56097 0.36525 0.93920
 C2164 C 0.45395 0.60415 0.95403
 H2165 H 0.45936 0.59202 0.95945
 C2166 C 0.43928 0.63504 0.93932
 C2167 C 0.39629 0.54626 0.95398
 H2168 H 0.40841 0.54087 0.95939
 C2169 C 0.36539 0.56088 0.93927
 C2170 C 0.60400 0.45406 0.95392
 H2171 H 0.59188 0.45945 0.95934
 C2172 C 0.63489 0.43944 0.93922
 O2173 O 0.51740 0.43624 1.08865
 O2174 O 0.51737 0.41552 1.10925
 C2175 C 0.52354 0.42985 1.10297
 C2176 C 0.53848 0.43879 1.11200
 C2177 C 0.54585 0.43156 1.12749
 H2178 H 0.54001 0.41981 1.13326
 O2179 O 0.48270 0.56408 1.08817
 O2180 O 0.48274 0.58465 1.10889
 C2181 C 0.47658 0.57035 1.10254
 C2182 C 0.46171 0.56131 1.11159
 C2183 C 0.45436 0.56849 1.12710
 H2184 H 0.46016 0.58027 1.13284
 O2185 O 0.41183 0.51742 1.06417
 O2186 O 0.39119 0.51740 1.08482
 C2187 C 0.39751 0.52356 1.07048
 C2188 C 0.38848 0.53846 1.06142
 C2189 C 0.37296 0.54580 1.06856
 H2190 H 0.36717 0.53997 1.08033
 O2191 O 0.58827 0.48263 1.06413
 O2192 O 0.60888 0.48266 1.08480
 C2193 C 0.60259 0.47651 1.07044
 C2194 C 0.61165 0.46166 1.06137
 C2195 C 0.62717 0.45432 1.06850
 H2196 H 0.63293 0.46011 1.08028
 O2197 O 0.56399 0.41202 1.01742
 O2198 O 0.58458 0.39134 1.01745
 C2199 C 0.57027 0.39769 1.02360
 C2200 C 0.56122 0.38869 1.03853
 C2201 C 0.56833 0.37314 1.04588
 H2202 H 0.58006 0.36734 1.04005
 O2203 O 0.43601 0.58848 1.01757
 O2204 O 0.41536 0.60910 1.01752
 C2205 C 0.42968 0.60281 1.02370
 C2206 C 0.43871 0.61187 1.03859
 C2207 C 0.43157 0.62739 1.04596
 H2208 H 0.41980 0.63315 1.04018
 O2209 O 0.43603 0.48272 1.08843
 O2210 O 0.41540 0.48274 1.10909
 C2211 C 0.42971 0.47658 1.10278
 C2212 C 0.43872 0.46167 1.11185
 C2213 C 0.43151 0.45429 1.12735
 H2214 H 0.41971 0.46008 1.13305
 O2215 O 0.56393 0.51724 1.08826
 O2216 O 0.58453 0.51729 1.10894
 C2217 C 0.57022 0.52343 1.10259
 C2218 C 0.56119 0.53836 1.11157
 C2219 C 0.56836 0.54572 1.12707
 H2220 H 0.58011 0.53990 1.13284
 O2221 O 0.48282 0.41218 1.06422
 O2222 O 0.48279 0.39145 1.08481
 C2223 C 0.47669 0.39782 1.07046
 C2224 C 0.46187 0.38879 1.06133
 C2225 C 0.45455 0.37324 1.06845
 H2226 H 0.46032 0.36747 1.08025
 O2227 O 0.51726 0.58838 1.06394
 O2228 O 0.51730 0.60896 1.08465
 C2229 C 0.52341 0.60268 1.07028
 C2230 C 0.53828 0.61171 1.06122
 C2231 C 0.54561 0.62723 1.06837
 H2232 H 0.53979 0.63301 1.08014
 O2233 O 0.41196 0.43618 1.01724
 O2234 O 0.39138 0.41551 1.01731
 C2235 C 0.39767 0.42985 1.02343
 C2236 C 0.38865 0.43890 1.03833
 C2237 C 0.37313 0.43177 1.04569
 H2238 H 0.36737 0.42001 1.03988
 O2239 O 0.58820 0.56403 1.01745
 O2240 O 0.60881 0.58467 1.01745
 C2241 C 0.60251 0.57034 1.02361
 C2242 C 0.61154 0.56127 1.03852
 C2243 C 0.62705 0.56841 1.04587
 H2244 H 0.63280 0.58018 1.04006
 O2245 O 0.51732 0.56411 1.08817
 O2246 O 0.51735 0.58468 1.10889
 C2247 C 0.52348 0.57037 1.10252
 C2248 C 0.53837 0.56130 1.11153
 C2249 C 0.54576 0.56846 1.12705
 H2250 H 0.54000 0.58026 1.13280
 O2251 O 0.48275 0.43622 1.08865
 O2252 O 0.48272 0.41550 1.10925
 C2253 C 0.47657 0.42984 1.10296
 C2254 C 0.46162 0.43882 1.11196
 C2255 C 0.45420 0.43163 1.12746
 H2256 H 0.45998 0.41985 1.13325
 O2257 O 0.58827 0.51727 1.06416
 O2258 O 0.60888 0.51730 1.08483
 C2259 C 0.60257 0.52344 1.07047
 C2260 C 0.61157 0.53834 1.06141
 C2261 C 0.62709 0.54567 1.06855
 H2262 H 0.63286 0.53984 1.08032
 O2263 O 0.41198 0.48278 1.06402
 O2264 O 0.39134 0.48276 1.08467
 C2265 C 0.39766 0.47664 1.07032
 C2266 C 0.38865 0.46177 1.06124
 C2267 C 0.37314 0.45444 1.06839
 H2268 H 0.36737 0.46025 1.08017
 O2269 O 0.56399 0.58825 1.01738
 O2270 O 0.58457 0.60891 1.01737
 C2271 C 0.57026 0.60260 1.02351
 C2272 C 0.56118 0.61165 1.03836
 C2273 C 0.56831 0.62717 1.04571
 H2274 H 0.58009 0.63291 1.03990
 O2275 O 0.43629 0.41209 1.01724
 O2276 O 0.41573 0.39140 1.01730
 C2277 C 0.43003 0.39775 1.02342
 C2278 C 0.43910 0.38876 1.03834
 C2279 C 0.43199 0.37321 1.04566
 H2280 H 0.42028 0.36741 1.03980
 O2281 O 0.56417 0.48258 1.08851
 O2282 O 0.58477 0.48262 1.10919
 C2283 C 0.57048 0.47645 1.10288
 C2284 C 0.56145 0.46155 1.11195
 C2285 C 0.56862 0.45411 1.12745
 H2286 H 0.58043 0.45984 1.13318
 O2287 O 0.43613 0.51738 1.08831
 O2288 O 0.41551 0.51740 1.10897
 C2289 C 0.42982 0.52354 1.10264
 C2290 C 0.43886 0.53844 1.11165
 C2291 C 0.43170 0.54584 1.12717
 H2292 H 0.41994 0.54006 1.13296
 O2293 O 0.48265 0.58848 1.06408
 O2294 O 0.48270 0.60906 1.08479
 C2295 C 0.47653 0.60280 1.07044
 C2296 C 0.46163 0.61186 1.06143
 C2297 C 0.45429 0.62738 1.06862
 H2298 H 0.46013 0.63313 1.08038
 O2299 O 0.51741 0.41214 1.06429
 O2300 O 0.51738 0.39140 1.08488
 C2301 C 0.52353 0.39777 1.07055
 C2302 C 0.53838 0.38874 1.06146
 C2303 C 0.54569 0.37318 1.06860
 H2304 H 0.53989 0.36742 1.08039
 O2305 O 0.58829 0.43611 1.01740
 O2306 O 0.60890 0.41545 1.01740
 C2307 C 0.60261 0.42979 1.02355
 C2308 C 0.61165 0.43882 1.03843
 C2309 C 0.62718 0.43168 1.04575
 H2310 H 0.63295 0.41993 1.03991
 O2311 O 0.41190 0.56417 1.01755
 O2312 O 0.39124 0.58477 1.01749
 C2313 C 0.39756 0.57045 1.02366
 C2314 C 0.38852 0.56138 1.03854
 C2315 C 0.37299 0.56851 1.04587
 H2316 H 0.36724 0.58029 1.04005
 Cu2317 Cu 0.50009 0.42629 1.07440
 Cu2318 Cu 0.50006 0.40140 1.09911
 Cu2319 Cu 0.49998 0.57420 1.07401
 Cu2320 Cu 0.50003 0.59889 1.09888
 Cu2321 Cu 0.42613 0.42617 0.99988
 Cu2322 Cu 0.40145 0.40134 0.99997
 Cu2323 Cu 0.57408 0.42613 1.00007
 Cu2324 Cu 0.59881 0.40132 1.00009
 Cu2325 Cu 0.42608 0.57423 1.00024
 Cu2326 Cu 0.40128 0.59897 1.00015
 Cu2327 Cu 0.57405 0.57406 1.00008
 Cu2328 Cu 0.59877 0.59885 1.00007
 Cu2329 Cu 0.42606 0.50007 1.07416
 Cu2330 Cu 0.40130 0.50007 1.09896
 Cu2331 Cu 0.57409 0.49991 1.07420
 Cu2332 Cu 0.59882 0.49997 1.09902
 C2333 C 0.54628 0.45389 1.10443
 H2334 H 0.54086 0.45935 1.09232
 C2335 C 0.56097 0.43906 1.13531
 C2336 C 0.45396 0.54618 1.10406
 H2337 H 0.45936 0.54075 1.09192
 C2338 C 0.43930 0.56092 1.13497
 C2339 C 0.39606 0.54625 1.04631
 H2340 H 0.40820 0.54087 1.04092
 C2341 C 0.36513 0.56088 1.06094
 C2342 C 0.60409 0.45392 1.04623
 H2343 H 0.59196 0.45931 1.04084
 C2344 C 0.63501 0.43927 1.06084
 C2345 C 0.54615 0.39629 1.04633
 H2346 H 0.54079 0.40845 1.04093
 C2347 C 0.56072 0.36531 1.06098
 C2348 C 0.45384 0.60432 1.04632
 H2349 H 0.45924 0.59219 1.04089
 C2350 C 0.43920 0.63522 1.06104
 C2351 C 0.45387 0.45394 1.10436
 H2352 H 0.45932 0.45938 1.09224
 C2353 C 0.43908 0.43921 1.13524
 C2354 C 0.54610 0.54615 1.10399
 H2355 H 0.54068 0.54074 1.09185
 C2356 C 0.56082 0.56083 1.13488
 C2357 C 0.45414 0.39636 1.04617
 H2358 H 0.45950 0.40852 1.04079
 C2359 C 0.43955 0.36538 1.06077
 C2360 C 0.54606 0.60412 1.04611
 H2361 H 0.54067 0.59199 1.04072
 C2362 C 0.56069 0.63503 1.06077
 C2363 C 0.39620 0.45400 1.04611
 H2364 H 0.40833 0.45939 1.04071
 C2365 C 0.36530 0.43939 1.06077
 C2366 C 0.60400 0.54615 1.04629
 H2367 H 0.59187 0.54076 1.04090
 C2368 C 0.63490 0.56076 1.06095
 C2369 C 1.11581 1.11528 1.23987
 N2370 N 1.10849 1.12985 1.24743
 N2371 N 1.11576 1.13715 1.26175
 C2372 C 1.13063 1.13017 1.26902
 N2373 N 1.13796 1.11561 1.26146
 N2374 N 1.13069 1.10830 1.24714
 C2375 C 1.10771 1.10719 1.22416
 N2376 N 1.11491 1.09252 1.21667
 N2377 N 1.10748 1.08513 1.20248
 C2378 C 1.09259 1.09214 1.19526
 N2379 N 1.08541 1.10682 1.20274
 N2380 N 1.09284 1.11420 1.21693
 C2381 C 1.08435 1.08395 1.17968
 N2382 N 1.06947 1.09096 1.17247
 N2383 N 1.06199 1.08352 1.15834
 C2384 C 1.06905 1.06876 1.15087
 N2385 N 1.08395 1.06177 1.15814
 N2386 N 1.09144 1.06921 1.17227
 C2387 C 1.11590 0.61542 0.73998
 N2388 N 1.13065 0.60832 0.74739
 N2389 N 1.13788 0.61561 0.76174
 C2390 C 1.13063 0.63027 0.76920
 N2391 N 1.11589 0.63737 0.76178
 N2392 N 1.10866 0.63008 0.74743
 C2393 C 1.10783 0.60733 0.72423
 N2394 N 1.09304 0.61443 0.71689
 N2395 N 1.08564 0.60704 0.70268
 C2396 C 1.09274 0.59228 0.69529
 N2397 N 1.10754 0.58519 0.70261
 N2398 N 1.11495 0.59258 0.71682
 C2399 C 1.08450 0.58408 0.67968
 N2400 N 1.09153 0.56929 0.67232
 N2401 N 1.08403 0.56185 0.65819
 C2402 C 1.06918 0.56889 0.65086
 N2403 N 1.06218 0.58371 0.65828
 N2404 N 1.06968 0.59116 0.67241
 C2405 C 0.61595 1.11524 0.74053
 N2406 N 0.63086 1.10828 0.74777
 N2407 N 0.63812 1.11555 0.76212
 C2408 C 0.63074 1.13005 0.76979
 N2409 N 0.61583 1.13699 0.76254
 N2410 N 0.60857 1.12972 0.74819
 C2411 C 0.60787 1.10723 0.72473
 N2412 N 0.59300 1.11430 0.71753
 N2413 N 0.58560 1.10702 0.70326
 C2414 C 0.59279 1.09241 0.69566
 N2415 N 0.60768 1.08535 0.70285
 N2416 N 0.61509 1.09263 0.71712
 C2417 C 0.58453 1.08431 0.68000
 N2418 N 0.59160 1.06960 0.67250
 N2419 N 0.58408 1.06224 0.65834
 C2420 C 0.56918 1.06927 0.65110
 N2421 N 0.56215 1.08402 0.65865
 N2422 N 0.56966 1.09138 0.67282
 C2423 C 0.61556 0.61510 1.24017
 N2424 N 0.63036 0.60802 1.24752
 N2425 N 0.63757 0.61525 1.26192
 C2426 C 0.63024 0.62982 1.26948
 N2427 N 0.61546 0.63689 1.26212
 N2428 N 0.60825 0.62966 1.24774
 C2429 C 0.60755 0.60712 1.22434
 N2430 N 0.59276 0.61423 1.21704
 N2431 N 0.58540 0.60695 1.20275
 C2432 C 0.59257 0.59228 1.19524
 N2433 N 0.60739 0.58518 1.20252
 N2434 N 0.61475 0.59247 1.21681
 C2435 C 0.58436 0.58415 1.17960
 N2436 N 0.59141 0.56939 1.17220
 N2437 N 0.58390 0.56196 1.15807
 C2438 C 0.56903 0.56898 1.15078
 N2439 N 0.56201 0.58378 1.15823
 N2440 N 0.56951 0.59121 1.17237
 C2441 C 0.88440 0.88501 1.24066
 N2442 N 0.89171 0.87045 1.24824
 N2443 N 0.88450 0.86320 1.26263
 C2444 C 0.86969 0.87023 1.26999
 N2445 N 0.86237 0.88481 1.26240
 N2446 N 0.86959 0.89206 1.24800
 C2447 C 0.89244 0.89301 1.22483
 N2448 N 0.88526 0.90766 1.21726
 N2449 N 0.89264 0.91495 1.20297
 C2450 C 0.90747 0.90786 1.19572
 N2451 N 0.91463 0.89319 1.20326
 N2452 N 0.90725 0.88591 1.21755
 C2453 C 0.91572 0.91598 1.18005
 N2454 N 0.93056 0.90891 1.17283
 N2455 N 0.93807 0.91630 1.15867
 C2456 C 0.93105 0.93108 1.15116
 N2457 N 0.91618 0.93812 1.15843
 N2458 N 0.90867 0.93073 1.17259
 C2459 C 0.88424 0.38495 0.74054
 N2460 N 0.89143 0.37028 0.74803
 N2461 N 0.88425 0.36311 0.76247
 C2462 C 0.86961 0.37035 0.76999
 N2463 N 0.86242 0.38503 0.76248
 N2464 N 0.86961 0.39220 0.74803
 C2465 C 0.89227 0.39289 0.72467
 N2466 N 0.88520 0.40763 0.71718
 N2467 N 0.89259 0.41489 0.70288
 C2468 C 0.90732 0.40768 0.69554
 N2469 N 0.91436 0.39291 0.70300
 N2470 N 0.90697 0.38565 0.71730
 C2471 C 0.91559 0.41577 0.67989
 N2472 N 0.93037 0.40862 0.67262
 N2473 N 0.93791 0.41601 0.65847
 C2474 C 0.93098 0.43087 0.65102
 N2475 N 0.91617 0.43798 0.65834
 N2476 N 0.90863 0.43060 0.67249
 C2477 C 0.38425 0.88526 0.74021
 N2478 N 0.36973 0.89261 0.74782
 N2479 N 0.36257 0.88544 0.76228
 C2480 C 0.36968 0.87066 0.76964
 N2481 N 0.38419 0.86330 0.76202
 N2482 N 0.39135 0.87047 0.74757
 C2483 C 0.39226 0.89321 0.72437
 N2484 N 0.40689 0.88593 0.71692
 N2485 N 0.41429 0.89324 0.70265
 C2486 C 0.40731 0.90809 0.69531
 N2487 N 0.39264 0.91535 0.70273
 N2488 N 0.38525 0.90804 0.71700
 C2489 C 0.41557 0.91623 0.67970
 N2490 N 0.40864 0.93111 0.67239
 N2491 N 0.41618 0.93854 0.65827
 C2492 C 0.43095 0.93141 0.65090
 N2493 N 0.43785 0.91650 0.65826
 N2494 N 0.43032 0.90907 0.67238
 C2495 C 0.38393 0.38504 1.24056
 N2496 N 0.36929 0.39230 1.24804
 N2497 N 0.36207 0.38512 1.26246
 C2498 C 0.36921 0.37041 1.26996
 N2499 N 0.38385 0.36316 1.26246
 N2500 N 0.39107 0.37033 1.24804
 C2501 C 0.39201 0.39301 1.22472
 N2502 N 0.40672 0.38576 1.21736
 N2503 N 0.41414 0.39304 1.20310
 C2504 C 0.40714 0.40783 1.19565
 N2505 N 0.39241 0.41506 1.20299
 N2506 N 0.38499 0.40778 1.21726
 C2507 C 0.41543 0.41595 1.18000
 N2508 N 0.40847 0.43078 1.17262
 N2509 N 0.41602 0.43818 1.15848
 C2510 C 0.43083 0.43107 1.15115
 N2511 N 0.43776 0.41621 1.15859
 N2512 N 0.43022 0.40880 1.17274
 C2513 C 0.88427 1.11508 0.75985
 N2514 N 0.86975 1.10772 0.75227
 N2515 N 0.86257 1.11488 0.73780
 C2516 C 0.86967 1.12965 0.73041
 N2517 N 0.88417 1.13700 0.73800
 N2518 N 0.89135 1.12985 0.75246
 C2519 C 0.89230 1.10714 0.77570
 N2520 N 0.90694 1.11444 0.78311
 N2521 N 0.91435 1.10716 0.79738
 C2522 C 0.90739 1.09232 0.80477
 N2523 N 0.89273 1.08505 0.79738
 N2524 N 0.88531 1.09233 0.78311
 C2525 C 0.91568 1.08421 0.82039
 N2526 N 0.90878 1.06934 0.82773
 N2527 N 0.91634 1.06194 0.84185
 C2528 C 0.93112 1.06908 0.84919
 N2529 N 0.93798 1.08398 0.84180
 N2530 N 0.93043 1.09139 0.82767
 C2531 C 0.88463 0.61498 0.25987
 N2532 N 0.87012 0.60763 0.25224
 N2533 N 0.86301 0.61478 0.23774
 C2534 C 0.87015 0.62953 0.23036
 N2535 N 0.88463 0.63688 0.23800
 N2536 N 0.89175 0.62973 0.25249
 C2537 C 0.89259 0.60704 0.27575
 N2538 N 0.90721 0.61431 0.28322
 N2539 N 0.91458 0.60701 0.29750
 C2540 C 0.90759 0.59216 0.30484
 N2541 N 0.89294 0.58492 0.29741
 N2542 N 0.88557 0.59222 0.28312
 C2543 C 0.91585 0.58399 0.32045
 N2544 N 0.90893 0.56909 0.32773
 N2545 N 0.91648 0.56162 0.34182
 C2546 C 0.93126 0.56871 0.34919
 N2547 N 0.93815 0.58363 0.34187
 N2548 N 0.93060 0.59112 0.32777
 C2549 C 0.38445 1.11526 0.25997
 N2550 N 0.36981 1.10804 0.25249
 N2551 N 0.36262 1.11524 0.23805
 C2552 C 0.36983 1.12992 0.23059
 N2553 N 0.38446 1.13714 0.23808
 N2554 N 0.39164 1.12994 0.25250
 C2555 C 0.39246 1.10728 0.27581
 N2556 N 0.40718 1.11445 0.28318
 N2557 N 0.41455 1.10714 0.29745
 C2558 C 0.40748 1.09238 0.30487
 N2559 N 0.39273 1.08522 0.29753
 N2560 N 0.38536 1.09254 0.28325
 C2561 C 0.41571 1.08421 0.32049
 N2562 N 0.40871 1.06939 0.32784
 N2563 N 0.41623 1.06194 0.34196
 C2564 C 0.43106 1.06898 0.34929
 N2565 N 0.43801 1.08384 0.34189
 N2566 N 0.43050 1.09130 0.32777
 C2567 C 0.38421 0.61519 0.75990
 N2568 N 0.36949 0.60804 0.75250
 N2569 N 0.36226 0.61527 0.73811
 C2570 C 0.36949 0.62991 0.73060
 N2571 N 0.38420 0.63706 0.73800
 N2572 N 0.39143 0.62983 0.75238
 C2573 C 0.39228 0.60719 0.77570
 N2574 N 0.40704 0.61435 0.78299
 N2575 N 0.41446 0.60704 0.79724
 C2576 C 0.40739 0.59230 0.80472
 N2577 N 0.39260 0.58517 0.79745
 N2578 N 0.38518 0.59248 0.78319
 C2579 C 0.41566 0.58417 0.82034
 N2580 N 0.40867 0.56937 0.82774
 N2581 N 0.41621 0.56196 0.84187
 C2582 C 0.43105 0.56902 0.84916
 N2583 N 0.43800 0.58385 0.84171
 N2584 N 0.43047 0.59127 0.82757
 C2585 C 1.11567 0.88467 0.76009
 N2586 N 1.10834 0.87011 0.75254
 N2587 N 1.11562 0.86277 0.73824
 C2588 C 1.13050 0.86971 0.73097
 N2589 N 1.13784 0.88426 0.73852
 N2590 N 1.13056 0.89161 0.75282
 C2591 C 1.10757 0.89280 0.77580
 N2592 N 1.11476 0.90748 0.78326
 N2593 N 1.10735 0.91490 0.79745
 C2594 C 1.09247 0.90791 0.80471
 N2595 N 1.08530 0.89322 0.79726
 N2596 N 1.09271 0.88580 0.78307
 C2597 C 1.08424 0.91612 0.82030
 N2598 N 1.06939 0.90912 0.82755
 N2599 N 1.06191 0.91658 0.84169
 C2600 C 1.06897 0.93135 0.84913
 N2601 N 1.08385 0.93832 0.84183
 N2602 N 1.09133 0.93087 0.82769
 C2603 C 1.11571 0.38505 0.25983
 N2604 N 1.13049 0.39213 0.25248
 N2605 N 1.13770 0.38490 0.23808
 C2606 C 1.13038 0.37035 0.23051
 N2607 N 1.11561 0.36327 0.23787
 N2608 N 1.10840 0.37049 0.25226
 C2609 C 1.10770 0.39300 0.27567
 N2610 N 1.09291 0.38588 0.28296
 N2611 N 1.08555 0.39316 0.29726
 C2612 C 1.09271 0.40781 0.30477
 N2613 N 1.10752 0.41491 0.29751
 N2614 N 1.11489 0.40763 0.28321
 C2615 C 1.08448 0.41594 0.32041
 N2616 N 1.09153 0.43069 0.32783
 N2617 N 1.08400 0.43811 0.34195
 C2618 C 1.06911 0.43110 0.34921
 N2619 N 1.06210 0.41632 0.34175
 N2620 N 1.06962 0.40889 0.32762
 C2621 C 0.61549 0.88528 0.25989
 N2622 N 0.63028 0.89235 0.25254
 N2623 N 0.63750 0.88511 0.23815
 C2624 C 0.63018 0.87055 0.23059
 N2625 N 0.61539 0.86349 0.23794
 N2626 N 0.60818 0.87073 0.25232
 C2627 C 0.60747 0.89325 0.27572
 N2628 N 0.59267 0.88614 0.28300
 N2629 N 0.58530 0.89342 0.29728
 C2630 C 0.59245 0.90807 0.30481
 N2631 N 0.60728 0.91517 0.29755
 N2632 N 0.61465 0.90789 0.28327
 C2633 C 0.58421 0.91619 0.32044
 N2634 N 0.59125 0.93094 0.32787
 N2635 N 0.58370 0.93835 0.34200
 C2636 C 0.56882 0.93134 0.34924
 N2637 N 0.56182 0.91656 0.34177
 N2638 N 0.56935 0.90914 0.32764
 C2639 C 0.61561 0.38511 0.75984
 N2640 N 0.60838 0.37045 0.75238
 N2641 N 0.61553 0.36327 0.73794
 C2642 C 0.63016 0.37048 0.73043
 N2643 N 0.63739 0.38514 0.73788
 N2644 N 0.63024 0.39233 0.75232
 C2645 C 0.60763 0.39307 0.77569
 N2646 N 0.61475 0.40780 0.78312
 N2647 N 0.60739 0.41510 0.79741
 C2648 C 0.59264 0.40795 0.80477
 N2649 N 0.58556 0.39320 0.79736
 N2650 N 0.59292 0.38590 0.78308
 C2651 C 0.58441 0.41611 0.82038
 N2652 N 0.56960 0.40903 0.82766
 N2653 N 0.56209 0.41649 0.84178
 C2654 C 0.56906 0.43133 0.84917
 N2655 N 0.58389 0.43837 0.84184
 N2656 N 0.59141 0.43092 0.82772
 C2657 C 1.24003 1.11525 1.11543
 N2658 N 1.24745 1.12992 1.10817
 N2659 N 1.26184 1.13714 1.11533
 C2660 C 1.26935 1.12994 1.13000
 N2661 N 1.26194 1.11527 1.13727
 N2662 N 1.24754 1.10805 1.13012
 C2663 C 1.22423 1.10725 1.10745
 N2664 N 1.21683 1.09252 1.11462
 N2665 N 1.20258 1.08519 1.10727
 C2666 C 1.19522 1.09233 1.09249
 N2667 N 1.20259 1.10708 1.08534
 N2668 N 1.21684 1.11440 1.09269
 C2669 C 1.17960 1.08418 1.08428
 N2670 N 1.17231 1.09127 1.06946
 N2671 N 1.15819 1.08384 1.06198
 C2672 C 1.15080 1.06901 1.06901
 N2673 N 1.15815 1.06196 1.08386
 N2674 N 1.17227 1.06937 1.09135
 C2675 C 1.24003 0.61503 0.61514
 N2676 N 1.24778 0.60763 0.62959
 N2677 N 1.26226 0.61478 0.63665
 C2678 C 1.26951 0.62959 0.62951
 N2679 N 1.26176 0.63700 0.61508
 N2680 N 1.24729 0.62985 0.60801
 C2681 C 1.22416 0.60709 0.60726
 N2682 N 1.21660 0.61437 0.59265
 N2683 N 1.20231 0.60707 0.58537
 C2684 C 1.19506 0.59221 0.59243
 N2685 N 1.20259 0.58496 0.60708
 N2686 N 1.21688 0.59227 0.61436
 C2687 C 1.17946 0.58404 0.58425
 N2688 N 1.17224 0.56915 0.59123
 N2689 N 1.15815 0.56169 0.58374
 C2690 C 1.15072 0.56880 0.56895
 N2691 N 1.15799 0.58372 0.56201
 N2692 N 1.17208 0.59119 0.56949
 C2693 C 0.73979 1.11515 0.61537
 N2694 N 0.74742 1.10781 0.62991
 N2695 N 0.76186 1.11497 0.63703
 C2696 C 0.76918 1.12974 0.62986
 N2697 N 0.76154 1.13708 0.61533
 N2698 N 0.74711 1.12992 0.60821
 C2699 C 0.72397 1.10719 0.60741
 N2700 N 0.71649 1.11444 0.59275
 N2701 N 0.70224 1.10713 0.58540
 C2702 C 0.69495 1.09229 0.59244
 N2703 N 0.70240 1.08506 0.60714
 N2704 N 0.71665 1.09237 0.61448
 C2705 C 0.67936 1.08414 0.58423
 N2706 N 0.67209 1.06928 0.59122
 N2707 N 0.65799 1.06185 0.58372
 C2708 C 0.65060 1.06897 0.56891
 N2709 N 0.65792 1.08386 0.56195
 N2710 N 0.67202 1.09129 0.56945
 C2711 C 0.74015 0.61508 1.11543
 N2712 N 0.74747 0.62983 1.10824
 N2713 N 0.76194 0.63699 1.11532
 C2714 C 0.76962 0.62964 1.12983
 N2715 N 0.76229 0.61489 1.13703
 N2716 N 0.74782 0.60774 1.12996
 C2717 C 0.72428 0.60713 1.10751
 N2718 N 0.71697 0.59231 1.11460
 N2719 N 0.70270 0.58501 1.10728
 C2720 C 0.69521 0.59224 1.09260
 N2721 N 0.70250 0.60709 1.08555
 N2722 N 0.71677 0.61439 1.09287
 C2723 C 0.67960 0.58409 1.08440
 N2724 N 0.67223 0.59123 1.06964
 N2725 N 0.65811 0.58379 1.06216
 C2726 C 0.65081 0.56889 1.06912
 N2727 N 0.65823 0.56178 1.08391
 N2728 N 0.67234 0.56921 1.09140
 C2729 C 1.23982 0.88524 0.88468
 N2730 N 1.24746 0.89258 0.87013
 N2731 N 1.26190 0.88539 0.86301
 C2732 C 1.26921 0.87062 0.87018
 N2733 N 1.26157 0.86328 0.88471
 N2734 N 1.24713 0.87046 0.89183
 C2735 C 1.22399 0.89321 0.89264
 N2736 N 1.21651 0.88595 0.90729
 N2737 N 1.20226 0.89327 0.91465
 C2738 C 1.19497 0.90812 0.90761
 N2739 N 1.20243 0.91536 0.89292
 N2740 N 1.21668 0.90804 0.88557
 C2741 C 1.17938 0.91628 0.91583
 N2742 N 1.17211 0.93116 0.90886
 N2743 N 1.15800 0.93858 0.91637
 C2744 C 1.15061 0.93146 0.93117
 N2745 N 1.15794 0.91655 0.93811
 N2746 N 1.17205 0.90912 0.93060
 C2747 C 1.24059 0.38503 0.38445
 N2748 N 1.24843 0.39264 0.37016
 N2749 N 1.26294 0.38556 0.36305
 C2750 C 1.27016 0.37060 0.36996
 N2751 N 1.26229 0.36299 0.38426
 N2752 N 1.24779 0.37008 0.39137
 C2753 C 1.22466 0.39289 0.39240
 N2754 N 1.21706 0.38545 0.40691
 N2755 N 1.20274 0.39267 0.41424
 C2756 C 1.19548 0.40760 0.40733
 N2757 N 1.20305 0.41501 0.39278
 N2758 N 1.21737 0.40779 0.38545
 C2759 C 1.17980 0.41569 0.41555
 N2760 N 1.17257 0.43063 0.40865
 N2761 N 1.15843 0.43801 0.41615
 C2762 C 1.15095 0.43080 0.43086
 N2763 N 1.15823 0.41583 0.43772
 N2764 N 1.17237 0.40843 0.43023
 C2765 C 0.74020 0.88523 0.38450
 N2766 N 0.74775 0.87066 0.39184
 N2767 N 0.76213 0.86344 0.38464
 C2768 C 0.76949 0.87052 0.36983
 N2769 N 0.76195 0.88509 0.36248
 N2770 N 0.74756 0.89232 0.36969
 C2771 C 0.72437 0.89321 0.39251
 N2772 N 0.71686 0.90786 0.38528
 N2773 N 0.70257 0.91515 0.39262
 C2774 C 0.69528 0.90805 0.40747
 N2775 N 0.70278 0.89338 0.41467
 N2776 N 0.71706 0.88610 0.40733
 C2777 C 0.67963 0.91618 0.41566
 N2778 N 0.67238 0.90912 0.43053
 N2779 N 0.65823 0.91653 0.43800
 C2780 C 0.65077 0.93131 0.43092
 N2781 N 0.65808 0.93833 0.41603
 N2782 N 0.67222 0.93093 0.40855
 C2783 C 0.74007 0.38528 0.88443
 N2784 N 0.74756 0.39253 0.86976
 N2785 N 0.76200 0.38537 0.86259
 C2786 C 0.76946 0.37071 0.86984
 N2787 N 0.76197 0.36347 0.88450
 N2788 N 0.74755 0.37062 0.89166
 C2789 C 0.72423 0.39321 0.89242
 N2790 N 0.71686 0.38600 0.90716
 N2791 N 0.70259 0.39328 0.91452
 C2792 C 0.69517 0.40803 0.90742
 N2793 N 0.70252 0.41522 0.89265
 N2794 N 0.71679 0.40794 0.88528
 C2795 C 0.67956 0.41616 0.91566
 N2796 N 0.67222 0.43097 0.90863
 N2797 N 0.65811 0.43839 0.91616
 C2798 C 0.65079 0.43132 0.93101
 N2799 N 0.65818 0.41647 0.93800
 N2800 N 0.67230 0.40904 0.93049
 C2801 C 0.75997 0.88526 1.11551
 N2802 N 0.75258 0.89232 1.13031
 N2803 N 0.73820 0.88507 1.13749
 C2804 C 0.73069 0.87052 1.13012
 N2805 N 0.73807 0.86347 1.11532
 N2806 N 0.75245 0.87071 1.10814
 C2807 C 0.77579 0.89325 1.10753
 N2808 N 0.78311 0.88615 1.09272
 N2809 N 0.79739 0.89344 1.08539
 C2810 C 0.80486 0.90809 1.09260
 N2811 N 0.79756 0.91517 1.10744
 N2812 N 0.78328 0.90788 1.11477
 C2813 C 0.82050 0.91621 1.08441
 N2814 N 0.82790 0.93095 1.09150
 N2815 N 0.84203 0.93835 1.08401
 C2816 C 0.84932 0.93133 1.06911
 N2817 N 0.84187 0.91656 1.06206
 N2818 N 0.82773 0.90915 1.06954
 C2819 C 0.76004 0.38498 0.61534
 N2820 N 0.75251 0.39220 0.62999
 N2821 N 0.73808 0.38501 0.63712
 C2822 C 0.73065 0.37036 0.62986
 N2823 N 0.73819 0.36314 0.61521
 N2824 N 0.75261 0.37032 0.60808
 C2825 C 0.77588 0.39294 0.60738
 N2826 N 0.78329 0.38575 0.59265
 N2827 N 0.79756 0.39305 0.58531
 C2828 C 0.80495 0.40779 0.59244
 N2829 N 0.79757 0.41495 0.60719
 N2830 N 0.78329 0.40766 0.61453
 C2831 C 0.82057 0.41593 0.58423
 N2832 N 0.82790 0.43073 0.59128
 N2833 N 0.84203 0.43815 0.58378
 C2834 C 0.84938 0.43110 0.56894
 N2835 N 0.84200 0.41627 0.56193
 N2836 N 0.82787 0.40884 0.56941
 C2837 C 0.25969 0.88514 0.61517
 N2838 N 0.25258 0.87018 0.60821
 N2839 N 0.23804 0.86309 0.61521
 C2840 C 0.23006 0.87071 0.62941
 N2841 N 0.23718 0.88566 0.63638
 N2842 N 0.25173 0.89275 0.62939
 C2843 C 0.27563 0.89303 0.60734
 N2844 N 0.28281 0.90796 0.61430
 N2845 N 0.29713 0.91524 0.60704
 C2846 C 0.30479 0.90786 0.59253
 N2847 N 0.29765 0.89291 0.58560
 N2848 N 0.28334 0.88563 0.59288
 C2849 C 0.32042 0.91602 0.58435
 N2850 N 0.32788 0.90878 0.56968
 N2851 N 0.34199 0.91623 0.56218
 C2852 C 0.34920 0.93122 0.56903
 N2853 N 0.34169 0.93841 0.58373
 N2854 N 0.32758 0.93098 0.59123
 C2855 C 0.26009 0.38512 1.11534
 N2856 N 0.25257 0.37056 1.10799
 N2857 N 0.23820 0.36332 1.11517
 C2858 C 0.23082 0.37037 1.12997
 N2859 N 0.23833 0.38492 1.13734
 N2860 N 0.25271 0.39217 1.13016
 C2861 C 0.27590 0.39310 1.10736
 N2862 N 0.28339 0.40774 1.11460
 N2863 N 0.29766 0.41504 1.10726
 C2864 C 0.30496 0.40797 1.09242
 N2865 N 0.29749 0.39331 1.08521
 N2866 N 0.28322 0.38601 1.09255
 C2867 C 0.32058 0.41611 1.08422
 N2868 N 0.32783 0.40906 1.06936
 N2869 N 0.34196 0.41649 1.06188
 C2870 C 0.34940 0.43126 1.06895
 N2871 N 0.34209 0.43827 1.08384
 N2872 N 0.32796 0.43085 1.09133
 C2873 C 0.75987 1.11496 0.88468
 N2874 N 0.75232 1.10763 0.87009
 N2875 N 0.73786 1.11475 0.86295
 C2876 C 0.73041 1.12944 0.87013
 N2877 N 0.73795 1.13676 0.88472
 N2878 N 0.75241 1.12964 0.89187
 C2879 C 0.77578 1.10709 0.89262
 N2880 N 0.78321 1.11435 0.90729
 N2881 N 0.79754 1.10713 0.91460
 C2882 C 0.80497 1.09239 0.90750
 N2883 N 0.79757 1.08516 0.89279
 N2884 N 0.78324 1.09238 0.88548
 C2885 C 0.82063 1.08429 0.91569
 N2886 N 0.82796 1.06946 0.90867
 N2887 N 0.84208 1.06204 0.91618
 C2888 C 0.84943 1.06911 0.93101
 N2889 N 0.84205 1.08397 0.93798
 N2890 N 0.82793 1.09140 0.93049
 C2891 C 0.76006 0.61497 0.38458
 N2892 N 0.75253 0.62954 0.39195
 N2893 N 0.73816 0.63680 0.38478
 C2894 C 0.73077 0.62976 0.36998
 N2895 N 0.73828 0.61519 0.36260
 N2896 N 0.75267 0.60793 0.36978
 C2897 C 0.77588 0.60696 0.39255
 N2898 N 0.78336 0.59231 0.38530
 N2899 N 0.79764 0.58499 0.39262
 C2900 C 0.80496 0.59205 0.40745
 N2901 N 0.79750 0.60672 0.41468
 N2902 N 0.78322 0.61403 0.40736
 C2903 C 0.82061 0.58390 0.41562
 N2904 N 0.82788 0.59094 0.43047
 N2905 N 0.84203 0.58351 0.43793
 C2906 C 0.84946 0.56873 0.43085
 N2907 N 0.84214 0.56173 0.41597
 N2908 N 0.82800 0.56915 0.40851
 C2909 C 0.26010 1.11487 0.38452
 N2910 N 0.25252 1.10758 0.36993
 N2911 N 0.23809 1.11477 0.36279
 C2912 C 0.23072 1.12950 0.36998
 N2913 N 0.23831 1.13679 0.38455
 N2914 N 0.25273 1.12961 0.39169
 C2915 C 0.27593 1.10691 0.39250
 N2916 N 0.28335 1.11414 0.40719
 N2917 N 0.29761 1.10684 0.41456
 C2918 C 0.30497 1.09205 0.40750
 N2919 N 0.29758 1.08484 0.39278
 N2920 N 0.28332 1.09214 0.38541
 C2921 C 0.32058 1.08391 0.41574
 N2922 N 0.32790 1.06908 0.40876
 N2923 N 0.34202 1.06167 0.41628
 C2924 C 0.34938 1.06878 0.43109
 N2925 N 0.34200 1.08364 0.43804
 N2926 N 0.32787 1.09106 0.43053
 C2927 C 0.26020 0.61521 0.88463
 N2928 N 0.25294 0.63005 0.89170
 N2929 N 0.23848 0.63721 0.88459
 C2930 C 0.23075 0.62978 0.87016
 N2931 N 0.23802 0.61495 0.86308
 N2932 N 0.25248 0.60780 0.87018
 C2933 C 0.27606 0.60726 0.89257
 N2934 N 0.28334 0.59241 0.88555
 N2935 N 0.29761 0.58510 0.89289
 C2936 C 0.30512 0.59238 0.90752
 N2937 N 0.29786 0.60726 0.91451
 N2938 N 0.28359 0.61457 0.90717
 C2939 C 0.32073 0.58422 0.91574
 N2940 N 0.32810 0.59139 0.93047
 N2941 N 0.34221 0.58395 0.93797
 C2942 C 0.34950 0.56902 0.93107
 N2943 N 0.34208 0.56188 0.91631
 N2944 N 0.32797 0.56932 0.90880
 C2945 C 1.11539 1.24007 1.11510
 N2946 N 1.13001 1.24753 1.10781
 N2947 N 1.13718 1.26198 1.11492
 C2948 C 1.12997 1.26950 1.12957
 N2949 N 1.11535 1.26204 1.13687
 N2950 N 1.10818 1.24759 1.12975
 C2951 C 1.10742 1.22422 1.10718
 N2952 N 1.09272 1.21684 1.11440
 N2953 N 1.08539 1.20257 1.10711
 C2954 C 1.09249 1.19516 1.09234
 N2955 N 1.10722 1.20251 1.08516
 N2956 N 1.11455 1.21678 1.09245
 C2957 C 1.08429 1.17956 1.08417
 N2958 N 1.09131 1.17226 1.06933
 N2959 N 1.08382 1.15816 1.06186
 C2960 C 1.06900 1.15082 1.06890
 N2961 N 1.06201 1.15817 1.08378
 N2962 N 1.06949 1.17227 1.09126
 C2963 C 1.11531 0.74013 0.61518
 N2964 N 1.10756 0.74821 0.62925
 N2965 N 1.11472 0.76265 0.63640
 C2966 C 1.12992 0.76953 0.62974
 N2967 N 1.13768 0.76145 0.61568
 N2968 N 1.13050 0.74703 0.60852
 C2969 C 1.10734 0.72428 0.60723
 N2970 N 1.11482 0.71649 0.59285
 N2971 N 1.10749 0.70222 0.58554
 C2972 C 1.09242 0.69521 0.59235
 N2973 N 1.08497 0.70296 0.60676
 N2974 N 1.09230 0.71724 0.61407
 C2975 C 1.08424 0.67958 0.58417
 N2976 N 1.06923 0.67251 0.59103
 N2977 N 1.06177 0.65838 0.58356
 C2978 C 1.06900 0.65078 0.56893
 N2979 N 1.08404 0.65791 0.56211
 N2980 N 1.09151 0.67202 0.56957
 C2981 C 0.61525 1.24014 0.61514
 N2982 N 0.60805 1.24765 0.62981
 N2983 N 0.61524 1.26207 0.63695
 C2984 C 0.62988 1.26950 0.62969
 N2985 N 0.63709 1.26199 0.61502
 N2986 N 0.62989 1.24757 0.60788
 C2987 C 0.60726 1.22431 0.60720
 N2988 N 0.61440 1.21687 0.59247
 N2989 N 0.60707 1.20260 0.58517
 C2990 C 0.59233 1.19525 0.59234
 N2991 N 0.58521 1.20267 0.60710
 N2992 N 0.59255 1.21694 0.61440
 C2993 C 0.58414 1.17965 0.58417
 N2994 N 0.56933 1.17237 0.59124
 N2995 N 0.56185 1.15828 0.58376
 C2996 C 0.56885 1.15091 0.56890
 N2997 N 0.58370 1.15823 0.56188
 N2998 N 0.59118 1.17233 0.56935
 C2999 C 0.61526 0.74022 1.11511
 N3000 N 0.62989 0.74768 1.10784
 N3001 N 0.63705 0.76213 1.11497
 C3002 C 0.62981 0.76965 1.12961
 N3003 N 0.61518 0.76219 1.13688
 N3004 N 0.60803 0.74774 1.12976
 C3005 C 0.60729 0.72436 1.10719
 N3006 N 0.59258 0.71699 1.11438
 N3007 N 0.58524 0.70272 1.10708
 C3008 C 0.59235 0.69530 1.09233
 N3009 N 0.60710 0.70264 1.08516
 N3010 N 0.61443 0.71691 1.09246
 C3011 C 0.58415 0.67969 1.08417
 N3012 N 0.59119 0.67235 1.06935
 N3013 N 0.58370 0.65824 1.06189
 C3014 C 0.56886 0.65092 1.06893
 N3015 N 0.56185 0.65831 1.08377
 N3016 N 0.56934 0.67242 1.09124
 C3017 C 0.88472 1.24033 0.88481
 N3018 N 0.89194 1.24781 0.87012
 N3019 N 0.88478 1.26224 0.86294
 C3020 C 0.87014 1.26973 0.87017
 N3021 N 0.86292 1.26225 0.88485
 N3022 N 0.87008 1.24782 0.89204
 C3023 C 0.89269 1.22449 0.89278
 N3024 N 0.88556 1.21706 0.90754
 N3025 N 0.89289 1.20278 0.91486
 C3026 C 0.90762 1.19540 0.90769
 N3027 N 0.91472 1.20280 0.89291
 N3028 N 0.90739 1.21708 0.88559
 C3029 C 0.91582 1.17977 0.91586
 N3030 N 0.93061 1.17248 0.90876
 N3031 N 0.93811 1.15836 0.91623
 C3032 C 0.93113 1.15098 0.93110
 N3033 N 0.91631 1.15832 0.93816
 N3034 N 0.90881 1.17244 0.93070
 C3035 C 0.88497 0.74016 0.38478
 N3036 N 0.89219 0.74769 0.37013
 N3037 N 0.88504 0.76215 0.36299
 C3038 C 0.87041 0.76963 0.37025
 N3039 N 0.86318 0.76210 0.38490
 N3040 N 0.87033 0.74763 0.39204
 C3041 C 0.89293 0.72428 0.39272
 N3042 N 0.88579 0.71682 0.40745
 N3043 N 0.89313 0.70253 0.41476
 C3044 C 0.90788 0.69517 0.40760
 N3045 N 0.91499 0.70260 0.39284
 N3046 N 0.90765 0.71690 0.38553
 C3047 C 0.91608 0.67953 0.41576
 N3048 N 0.93089 0.67225 0.40867
 N3049 N 0.93837 0.65812 0.41613
 C3050 C 0.93137 0.65071 0.43098
 N3051 N 0.91654 0.65805 0.43803
 N3052 N 0.90905 0.67218 0.43058
 C3053 C 0.38453 1.24058 0.38503
 N3054 N 0.36967 1.24783 0.39206
 N3055 N 0.36251 1.26230 0.38492
 C3056 C 0.36997 1.27007 0.37052
 N3057 N 0.38484 1.26284 0.36350
 N3058 N 0.39199 1.24836 0.37062
 C3059 C 0.39248 1.22466 0.39292
 N3060 N 0.40731 1.21741 0.38584
 N3061 N 0.41462 1.20308 0.39308
 C3062 C 0.40737 1.19547 0.40768
 N3063 N 0.39250 1.20269 0.41473
 N3064 N 0.38519 1.21702 0.40748
 C3065 C 0.41556 1.17980 0.41581
 N3066 N 0.40845 1.17233 0.43054
 N3067 N 0.41596 1.15821 0.43798
 C3068 C 0.43088 1.15098 0.43102
 N3069 N 0.43796 1.15849 0.41626
 N3070 N 0.43046 1.17262 0.40881
 C3071 C 0.38461 0.74027 0.88498
 N3072 N 0.39179 0.74779 0.87031
 N3073 N 0.38459 0.76223 0.86317
 C3074 C 0.36995 0.76966 0.87044
 N3075 N 0.36276 0.76214 0.88511
 N3076 N 0.36996 0.74771 0.89226
 C3077 C 0.39260 0.72442 0.89291
 N3078 N 0.38548 0.71696 0.90765
 N3079 N 0.39283 0.70268 0.91494
 C3080 C 0.40757 0.69533 0.90775
 N3081 N 0.41466 0.70276 0.89298
 N3082 N 0.40731 0.71705 0.88570
 C3083 C 0.41578 0.67971 0.91591
 N3084 N 0.43058 0.67243 0.90881
 N3085 N 0.43807 0.65831 0.91628
 C3086 C 0.43109 0.65093 0.93115
 N3087 N 0.41626 0.65826 0.93820
 N3088 N 0.40876 0.67238 0.93074
 C3089 C 1.11553 0.76026 0.88464
 N3090 N 1.10809 0.75254 0.87021
 N3091 N 1.11530 0.73814 0.86301
 C3092 C 1.13021 0.73095 0.86998
 N3093 N 1.13766 0.73867 0.88440
 N3094 N 1.13045 0.75307 0.89161
 C3095 C 1.10751 0.77606 0.89265
 N3096 N 1.11479 0.78361 0.90726
 N3097 N 1.10743 0.79785 0.91461
 C3098 C 1.09252 0.80506 0.90763
 N3099 N 1.08527 0.79753 0.89300
 N3100 N 1.09263 0.78329 0.88565
 C3101 C 1.08432 0.82066 0.91583
 N3102 N 1.06943 0.82786 0.90886
 N3103 N 1.06196 0.84198 0.91634
 C3104 C 1.06906 0.84944 0.93110
 N3105 N 1.08398 0.84218 0.93804
 N3106 N 1.09146 0.82807 0.93056
 C3107 C 1.11538 0.25993 0.38454
 N3108 N 1.13029 0.25273 0.39153
 N3109 N 1.13750 0.23833 0.38435
 C3110 C 1.13006 0.23059 0.36993
 N3111 N 1.11516 0.23779 0.36293
 N3112 N 1.10796 0.25221 0.37011
 C3113 C 1.10737 0.27573 0.39254
 N3114 N 1.09250 0.28297 0.38552
 N3115 N 1.08514 0.29722 0.39288
 C3116 C 1.09238 0.30473 0.40752
 N3117 N 1.10728 0.29752 0.41451
 N3118 N 1.11464 0.28328 0.40715
 C3119 C 1.08418 0.32033 0.41572
 N3120 N 1.09131 0.32772 0.43047
 N3121 N 1.08383 0.34183 0.43795
 C3122 C 1.06892 0.34909 0.43102
 N3123 N 1.06182 0.34165 0.41625
 N3124 N 1.06929 0.32754 0.40875
 C3125 C 0.61523 0.76017 0.38496
 N3126 N 0.62987 0.75270 0.39223
 N3127 N 0.63703 0.73824 0.38511
 C3128 C 0.62981 0.73072 0.37046
 N3129 N 0.61518 0.73819 0.36318
 N3130 N 0.60802 0.75265 0.37031
 C3131 C 0.60726 0.77603 0.39288
 N3132 N 0.59254 0.78342 0.38568
 N3133 N 0.58520 0.79770 0.39298
 C3134 C 0.59230 0.80512 0.40773
 N3135 N 0.60704 0.79776 0.41490
 N3136 N 0.61439 0.78348 0.40761
 C3137 C 0.58409 0.82074 0.41589
 N3138 N 0.59112 0.82808 0.43071
 N3139 N 0.58362 0.84219 0.43816
 C3140 C 0.56878 0.84952 0.43112
 N3141 N 0.56179 0.84213 0.41627
 N3142 N 0.56928 0.82801 0.40881
 C3143 C 0.61536 0.25979 0.88501
 N3144 N 0.63022 0.25251 0.89201
 N3145 N 0.63731 0.23801 0.88489
 C3146 C 0.62979 0.23026 0.87051
 N3147 N 0.61494 0.23754 0.86352
 N3148 N 0.60785 0.25203 0.87064
 C3149 C 0.60748 0.27572 0.89290
 N3150 N 0.59265 0.28301 0.88583
 N3151 N 0.58538 0.29734 0.89308
 C3152 C 0.59266 0.30492 0.90767
 N3153 N 0.60752 0.29767 0.91470
 N3154 N 0.61480 0.28333 0.90745
 C3155 C 0.58449 0.32058 0.91580
 N3156 N 0.59161 0.32802 0.93053
 N3157 N 0.58411 0.34214 0.93798
 C3158 C 0.56918 0.34937 0.93103
 N3159 N 0.56210 0.34189 0.91627
 N3160 N 0.56959 0.32777 0.90881
 C3161 C 0.88487 0.76015 1.11518
 N3162 N 0.87021 0.75274 1.10792
 N3163 N 0.86300 0.73832 1.11509
 C3164 C 0.87018 0.73080 1.12976
 N3165 N 0.88484 0.73821 1.13702
 N3166 N 0.89205 0.75262 1.12986
 C3167 C 0.89288 0.77598 1.10724
 N3168 N 0.90759 0.78333 1.11444
 N3169 N 0.91494 0.79760 1.10714
 C3170 C 0.90784 0.80505 1.09238
 N3171 N 0.89310 0.79772 1.08521
 N3172 N 0.88575 0.78344 1.09250
 C3173 C 0.91604 0.82066 1.08423
 N3174 N 0.90901 0.82802 1.06941
 N3175 N 0.91650 0.84214 1.06195
 C3176 C 0.93133 0.84945 1.06900
 N3177 N 0.93833 0.84205 1.08385
 N3178 N 0.93085 0.82793 1.09131
 C3179 C 0.88460 0.25993 0.61498
 N3180 N 0.86995 0.25251 0.60770
 N3181 N 0.86275 0.23808 0.61485
 C3182 C 0.86993 0.23056 0.62953
 N3183 N 0.88457 0.23798 0.63680
 N3184 N 0.89177 0.25240 0.62966
 C3185 C 0.89260 0.27576 0.60705
 N3186 N 0.90731 0.28311 0.61428
 N3187 N 0.91467 0.29739 0.60699
 C3188 C 0.90760 0.30483 0.59222
 N3189 N 0.89287 0.29751 0.58502
 N3190 N 0.88550 0.28324 0.59231
 C3191 C 0.91584 0.32043 0.58407
 N3192 N 0.90884 0.32778 0.56923
 N3193 N 0.91636 0.34188 0.56177
 C3194 C 0.93118 0.34918 0.56884
 N3195 N 0.93815 0.34179 0.58371
 N3196 N 0.93063 0.32769 0.59117
 C3197 C 0.38459 0.75994 0.61478
 N3198 N 0.36975 0.75272 0.60770
 N3199 N 0.36260 0.73823 0.61478
 C3200 C 0.37005 0.73043 0.62918
 N3201 N 0.38490 0.73763 0.63624
 N3202 N 0.39204 0.75212 0.62917
 C3203 C 0.39252 0.77586 0.60695
 N3204 N 0.40733 0.78309 0.61409
 N3205 N 0.41464 0.79744 0.60689
 C3206 C 0.40742 0.80507 0.59229
 N3207 N 0.39258 0.79787 0.58519
 N3208 N 0.38526 0.78353 0.59239
 C3209 C 0.41562 0.82071 0.58419
 N3210 N 0.40855 0.82816 0.56944
 N3211 N 0.41607 0.84226 0.56200
 C3212 C 0.43098 0.84948 0.56898
 N3213 N 0.43802 0.84199 0.58378
 N3214 N 0.43050 0.82788 0.59123
 C3215 C 0.38488 0.26015 1.11506
 N3216 N 0.39206 0.25262 1.12973
 N3217 N 0.38487 0.23818 1.13686
 C3218 C 0.37024 0.23074 1.12957
 N3219 N 0.36305 0.23828 1.11490
 N3220 N 0.37024 0.25272 1.10777
 C3221 C 0.39287 0.27601 1.10714
 N3222 N 0.38576 0.28347 1.09240
 N3223 N 0.39311 0.29775 1.08511
 C3224 C 0.40784 0.30509 1.09230
 N3225 N 0.41492 0.29765 1.10708
 N3226 N 0.40756 0.28337 1.11436
 C3227 C 0.41606 0.32070 1.08415
 N3228 N 0.43084 0.32797 1.09126
 N3229 N 0.43834 0.34208 1.08380
 C3230 C 0.43138 0.34947 1.06892
 N3231 N 0.41656 0.34215 1.06185
 N3232 N 0.40906 0.32804 1.06930
 C3233 C 1.11515 1.11594 0.75957
 N3234 N 1.10791 1.13058 0.75204
 N3235 N 1.11510 1.13778 0.73760
 C3236 C 1.12980 1.13060 0.73016
 N3237 N 1.13703 1.11596 0.73772
 N3238 N 1.12984 1.10877 0.75215
 C3239 C 1.10717 1.10793 0.77541
 N3240 N 1.11434 1.09319 0.78281
 N3241 N 1.10702 1.08580 0.79708
 C3242 C 1.09226 1.09288 0.80447
 N3243 N 1.08511 1.10764 0.79710
 N3244 N 1.09243 1.11503 0.78283
 C3245 C 1.08410 1.08464 0.82011
 N3246 N 1.06929 1.09166 0.82745
 N3247 N 1.06186 1.08415 0.84159
 C3248 C 1.06892 1.06931 0.84895
 N3249 N 1.08375 1.06233 0.84156
 N3250 N 1.09119 1.06983 0.82742
 C3251 C 1.11522 0.61589 0.25938
 N3252 N 1.10816 0.63071 0.25204
 N3253 N 1.11538 0.63796 0.23764
 C3254 C 1.12994 0.63066 0.23004
 N3255 N 1.13699 0.61583 0.23739
 N3256 N 1.12977 0.60859 0.25178
 C3257 C 1.10725 0.60782 0.27522
 N3258 N 1.11436 0.59300 0.28250
 N3259 N 1.10710 0.58560 0.29680
 C3260 C 1.09245 0.59275 0.30435
 N3261 N 1.08535 0.60760 0.29709
 N3262 N 1.09262 0.61500 0.28279
 C3263 C 1.08435 0.58449 0.32003
 N3264 N 1.06961 0.59154 0.32748
 N3265 N 1.06223 0.58401 0.34164
 C3266 C 1.06926 0.56913 0.34893
 N3267 N 1.08403 0.56211 0.34143
 N3268 N 1.09142 0.56963 0.32726
 C3269 C 0.61517 1.11588 0.25958
 N3270 N 0.60786 1.13039 0.25188
 N3271 N 0.61505 1.13749 0.23738
 C3272 C 0.62981 1.13032 0.23004
 N3273 N 0.63711 1.11581 0.23777
 N3274 N 0.62993 1.10872 0.25225
 C3275 C 0.60719 1.10794 0.27547
 N3276 N 0.61444 1.09331 0.28301
 N3277 N 0.60712 1.08597 0.29730
 C3278 C 0.59228 1.09300 0.30459
 N3279 N 0.58506 1.10766 0.29708
 N3280 N 0.59238 1.11499 0.28279
 C3281 C 0.58411 1.08477 0.32024
 N3282 N 0.56924 1.09173 0.32751
 N3283 N 0.56180 1.08422 0.34164
 C3284 C 0.56889 1.06943 0.34906
 N3285 N 0.58379 1.06250 0.34174
 N3286 N 0.59124 1.07001 0.32761
 C3287 C 0.61507 0.61562 0.75980
 N3288 N 0.60804 0.63042 0.75239
 N3289 N 0.61530 0.63758 0.73798
 C3290 C 0.62985 0.63021 0.73046
 N3291 N 0.63689 0.61542 0.73787
 N3292 N 0.62963 0.60826 0.75228
 C3293 C 0.60706 0.60765 0.77563
 N3294 N 0.61413 0.59284 0.78298
 N3295 N 0.60681 0.58551 0.79726
 C3296 C 0.59214 0.59271 0.80472
 N3297 N 0.58509 0.60754 0.79740
 N3298 N 0.59241 0.61488 0.78311
 C3299 C 0.58398 0.58451 0.82036
 N3300 N 0.56922 0.59158 0.82774
 N3301 N 0.56178 0.58408 0.84188
 C3302 C 0.56878 0.56918 0.84918
 N3303 N 0.58356 0.56215 0.84175
 N3304 N 0.59101 0.56965 0.82762
 C3305 C 0.88509 0.88463 0.75985
 N3306 N 0.87054 0.89197 0.75230
 N3307 N 0.86329 0.88477 0.73792
 C3308 C 0.87033 0.86998 0.73055
 N3309 N 0.88490 0.86263 0.73809
 N3310 N 0.89215 0.86983 0.75248
 C3311 C 0.89309 0.89263 0.77568
 N3312 N 0.90773 0.88542 0.78319
 N3313 N 0.91503 0.89277 0.79748
 C3314 C 0.90795 0.90760 0.80477
 N3315 N 0.89329 0.91479 0.79728
 N3316 N 0.88599 0.90744 0.78300
 C3317 C 0.91609 0.91582 0.82041
 N3318 N 0.90905 0.93067 0.82764
 N3319 N 0.91648 0.93818 0.84177
 C3320 C 0.93126 0.93115 0.84922
 N3321 N 0.93827 0.91626 0.84194
 N3322 N 0.93084 0.90875 0.82781
 C3323 C 0.88490 0.38411 0.25945
 N3324 N 0.89210 0.36947 0.25190
 N3325 N 0.88486 0.36232 0.23748
 C3326 C 0.87015 0.36953 0.23007
 N3327 N 0.86296 0.38416 0.23766
 N3328 N 0.87019 0.39131 0.25207
 C3329 C 0.89291 0.39210 0.27529
 N3330 N 0.88575 0.40683 0.28269
 N3331 N 0.89308 0.41419 0.29695
 C3332 C 0.90784 0.40710 0.30434
 N3333 N 0.91498 0.39234 0.29696
 N3334 N 0.90765 0.38497 0.28270
 C3335 C 0.91599 0.41532 0.31999
 N3336 N 0.93079 0.40830 0.32735
 N3337 N 0.93820 0.41580 0.34150
 C3338 C 0.93113 0.43063 0.34885
 N3339 N 0.91630 0.43761 0.34143
 N3340 N 0.90889 0.43012 0.32729
 C3341 C 0.38499 0.88417 0.25922
 N3342 N 0.37037 0.89141 0.25169
 N3343 N 0.36323 0.88424 0.23724
 C3344 C 0.37042 0.86955 0.22975
 N3345 N 0.38505 0.86231 0.23730
 N3346 N 0.39220 0.86949 0.25176
 C3347 C 0.39290 0.89217 0.27511
 N3348 N 0.40761 0.88508 0.28259
 N3349 N 0.41485 0.89244 0.29691
 C3350 C 0.40764 0.90717 0.30427
 N3351 N 0.39289 0.91424 0.29681
 N3352 N 0.38566 0.90688 0.28250
 C3353 C 0.41573 0.91542 0.31994
 N3354 N 0.40859 0.93021 0.32723
 N3355 N 0.41598 0.93773 0.34138
 C3356 C 0.43082 0.93079 0.34880
 N3357 N 0.43792 0.91597 0.34146
 N3358 N 0.43054 0.90844 0.32732
 C3359 C 0.38520 0.38448 0.75972
 N3360 N 0.39241 0.36980 0.75226
 N3361 N 0.38523 0.36260 0.73784
 C3362 C 0.37058 0.36983 0.73035
 N3363 N 0.36338 0.38451 0.73780
 N3364 N 0.37056 0.39170 0.75222
 C3365 C 0.39314 0.39249 0.77558
 N3366 N 0.38594 0.40720 0.78296
 N3367 N 0.39320 0.41456 0.79726
 C3368 C 0.40794 0.40747 0.80470
 N3369 N 0.41512 0.39273 0.79734
 N3370 N 0.40785 0.38537 0.78304
 C3371 C 0.41606 0.41570 0.82034
 N3372 N 0.43087 0.40870 0.82769
 N3373 N 0.43830 0.41622 0.84181
 C3374 C 0.43124 0.43106 0.84914
 N3375 N 0.41640 0.43803 0.84174
 N3376 N 0.40897 0.43052 0.82762
 C3377 C 1.11489 0.88416 1.24039
 N3378 N 1.10789 0.86928 1.24766
 N3379 N 1.11514 0.86201 1.26203
 C3380 C 1.12964 0.86936 1.26965
 N3381 N 1.13662 0.88424 1.26239
 N3382 N 1.12938 0.89151 1.24803
 C3383 C 1.10691 0.89224 1.22459
 N3384 N 1.11399 0.90710 1.21736
 N3385 N 1.10672 0.91452 1.20309
 C3386 C 1.09210 0.90736 1.19552
 N3387 N 1.08503 0.89248 1.20273
 N3388 N 1.09231 0.88505 1.21700
 C3389 C 1.08401 0.91563 1.17988
 N3390 N 1.06928 0.90858 1.17242
 N3391 N 1.06191 0.91613 1.15827
 C3392 C 1.06893 0.93103 1.15102
 N3393 N 1.08368 0.93804 1.15853
 N3394 N 1.09107 0.93050 1.17268
 C3395 C 1.11500 0.38438 0.74025
 N3396 N 1.10793 0.36958 0.74763
 N3397 N 1.11516 0.36237 0.76204
 C3398 C 1.12970 0.36970 0.76959
 N3399 N 1.13676 0.38449 0.76222
 N3400 N 1.12954 0.39170 0.74781
 C3401 C 1.10702 0.39239 0.72441
 N3402 N 1.11411 0.40719 0.71709
 N3403 N 1.10682 0.41455 0.70280
 C3404 C 1.09217 0.40737 0.69530
 N3405 N 1.08510 0.39254 0.70260
 N3406 N 1.09239 0.38518 0.71690
 C3407 C 1.08402 0.41559 0.67966
 N3408 N 1.06927 0.40852 0.67227
 N3409 N 1.06184 0.41604 0.65814
 C3410 C 1.06882 0.43093 0.65084
 N3411 N 1.08360 0.43796 0.65828
 N3412 N 1.09104 0.43046 0.67241
 C3413 C 0.61498 0.88476 0.74023
 N3414 N 0.60794 0.86997 0.74763
 N3415 N 0.61521 0.86278 0.76203
 C3416 C 0.62976 0.87014 0.76954
 N3417 N 0.63679 0.88494 0.76214
 N3418 N 0.62953 0.89212 0.74775
 C3419 C 0.60696 0.89274 0.72440
 N3420 N 0.61403 0.90754 0.71704
 N3421 N 0.60671 0.91487 0.70276
 C3422 C 0.59205 0.90768 0.69530
 N3423 N 0.58500 0.89285 0.70262
 N3424 N 0.59233 0.88551 0.71691
 C3425 C 0.58388 0.91588 0.67966
 N3426 N 0.56913 0.90881 0.67229
 N3427 N 0.56168 0.91633 0.65817
 C3428 C 0.56865 0.93122 0.65086
 N3429 N 0.58343 0.93825 0.65829
 N3430 N 0.59089 0.93075 0.67241
 C3431 C 0.61536 0.38399 1.24061
 N3432 N 0.60842 0.36909 1.24787
 N3433 N 0.61571 0.36182 1.26223
 C3434 C 0.63021 0.36919 1.26987
 N3435 N 0.63714 0.38410 1.26258
 N3436 N 0.62986 0.39136 1.24822
 C3437 C 0.60730 0.39209 1.22482
 N3438 N 0.61434 0.40696 1.21756
 N3439 N 0.60701 0.41437 1.20331
 C3440 C 0.59236 0.40720 1.19579
 N3441 N 0.58534 0.39232 1.20303
 N3442 N 0.59267 0.38490 1.21729
 C3443 C 0.58422 0.41546 1.18013
 N3444 N 0.56949 0.40840 1.17269
 N3445 N 0.56209 0.41593 1.15853
 C3446 C 0.56910 0.43082 1.15124
 N3447 N 0.58387 0.43783 1.15873
 N3448 N 0.59127 0.43032 1.17289
 C3449 C 0.88513 1.11538 1.24012
 N3450 N 0.87061 1.10801 1.24768
 N3451 N 0.86339 1.11515 1.26211
 C3452 C 0.87045 1.12991 1.26951
 N3453 N 0.88498 1.13729 1.26196
 N3454 N 0.89220 1.13015 1.24753
 C3455 C 0.89311 1.10744 1.22427
 N3456 N 0.90774 1.11467 1.21677
 N3457 N 0.91505 1.10735 1.20248
 C3458 C 0.90799 1.09254 1.19516
 N3459 N 0.89333 1.08534 1.20263
 N3460 N 0.88602 1.09265 1.21692
 C3461 C 0.91616 1.08433 1.17954
 N3462 N 0.90915 1.06947 1.17231
 N3463 N 0.91662 1.06196 1.15821
 C3464 C 0.93141 1.06898 1.15078
 N3465 N 0.93839 1.08387 1.15806
 N3466 N 0.93093 1.09140 1.17217
 C3467 C 0.88522 0.61551 0.74020
 N3468 N 0.89240 0.63019 0.74768
 N3469 N 0.88520 0.63736 0.76211
 C3470 C 0.87056 0.63012 0.76958
 N3471 N 0.86339 0.61544 0.76211
 N3472 N 0.87059 0.60827 0.74768
 C3473 C 0.89318 0.60752 0.72435
 N3474 N 0.88598 0.59282 0.71694
 N3475 N 0.89324 0.58547 0.70264
 C3476 C 0.90797 0.59256 0.69520
 N3477 N 0.91516 0.60729 0.70258
 N3478 N 0.90789 0.61463 0.71689
 C3479 C 0.91611 0.58433 0.67956
 N3480 N 0.93092 0.59131 0.67222
 N3481 N 0.93836 0.58377 0.65810
 C3482 C 0.93130 0.56894 0.65078
 N3483 N 0.91645 0.56199 0.65817
 N3484 N 0.90901 0.56952 0.67229
 C3485 C 0.38503 1.11558 0.74002
 N3486 N 0.39225 1.13022 0.74753
 N3487 N 0.38507 1.13737 0.76198
 C3488 C 0.37042 1.13013 0.76943
 N3489 N 0.36320 1.11550 0.76192
 N3490 N 0.37038 1.10835 0.74748
 C3491 C 0.39298 1.10760 0.72417
 N3492 N 0.38579 1.09290 0.71677
 N3493 N 0.39308 1.08553 0.70249
 C3494 C 0.40784 1.09261 0.69509
 N3495 N 0.41500 1.10734 0.70246
 N3496 N 0.40771 1.11471 0.71674
 C3497 C 0.41599 1.08437 0.67949
 N3498 N 0.43082 1.09135 0.67217
 N3499 N 0.43827 1.08381 0.65807
 C3500 C 0.43122 1.06899 0.65073
 N3501 N 0.41636 1.06204 0.65809
 N3502 N 0.40890 1.06957 0.67220
 C3503 C 0.38517 0.61583 1.24030
 N3504 N 0.37062 0.60852 1.24789
 N3505 N 0.36341 0.61575 1.26228
 C3506 C 0.37047 0.63054 1.26962
 N3507 N 0.38502 0.63786 1.26204
 N3508 N 0.39224 0.63063 1.24764
 C3509 C 0.39313 0.60780 1.22446
 N3510 N 0.40775 0.61498 1.21690
 N3511 N 0.41502 0.60759 1.20261
 C3512 C 0.40792 0.59277 1.19536
 N3513 N 0.39328 0.58561 1.20289
 N3514 N 0.38601 0.59299 1.21718
 C3515 C 0.41604 0.58452 1.17971
 N3516 N 0.40899 0.56966 1.17250
 N3517 N 0.41640 0.56214 1.15836
 C3518 C 0.43117 0.56915 1.15088
 N3519 N 0.43818 0.58404 1.15814
 N3520 N 0.43077 0.59157 1.17227
 C3521 C 1.11528 1.24059 0.88441
 N3522 N 1.12982 1.24810 0.89180
 N3523 N 1.13709 1.26248 0.88463
 C3524 C 1.13010 1.26991 0.86979
 N3525 N 1.11554 1.26238 0.86241
 N3526 N 1.10827 1.24800 0.86958
 C3527 C 1.10725 1.22476 0.89239
 N3528 N 1.09263 1.21728 0.88513
 N3529 N 1.08531 1.20300 0.89245
 C3530 C 1.09234 1.19566 0.90730
 N3531 N 1.10699 1.20312 0.91454
 N3532 N 1.11430 1.21741 0.90722
 C3533 C 1.08420 1.18001 0.91549
 N3534 N 1.09123 1.17272 0.93036
 N3535 N 1.08381 1.15857 0.93782
 C3536 C 1.06905 1.15113 0.93076
 N3537 N 1.06205 1.15847 0.91586
 N3538 N 1.06946 1.17262 0.90839
 C3539 C 1.11511 0.74050 0.38474
 N3540 N 1.12983 0.74783 0.39195
 N3541 N 1.13703 0.76228 0.38485
 C3542 C 1.12978 0.76996 0.37028
 N3543 N 1.11503 0.76263 0.36309
 N3544 N 1.10783 0.74817 0.37018
 C3545 C 1.10716 0.72459 0.39261
 N3546 N 1.09246 0.71721 0.38542
 N3547 N 1.08518 0.70286 0.39267
 C3548 C 1.09234 0.69538 0.40738
 N3549 N 1.10707 0.70273 0.41454
 N3550 N 1.11435 0.71707 0.40729
 C3551 C 1.08420 0.67970 0.41553
 N3552 N 1.09128 0.67234 0.43033
 N3553 N 1.08384 0.65820 0.43779
 C3554 C 1.06901 0.65085 0.43078
 N3555 N 1.06197 0.65825 0.41594
 N3556 N 1.06940 0.67240 0.40847
 C3557 C 0.61533 1.24040 0.38422
 N3558 N 0.60842 1.24769 0.36929
 N3559 N 0.61572 1.26203 0.36205
 C3560 C 0.63022 1.26962 0.36947
 N3561 N 0.63713 1.26231 0.38440
 N3562 N 0.62983 1.24797 0.39163
 C3563 C 0.60724 1.22464 0.39228
 N3564 N 0.61422 1.21735 0.40717
 N3565 N 0.60685 1.20312 0.41454
 C3566 C 0.59221 1.19566 0.40730
 N3567 N 0.58523 1.20294 0.39240
 N3568 N 0.59261 1.21716 0.38502
 C3569 C 0.58402 1.18003 0.41552
 N3570 N 0.56930 1.17263 0.40839
 N3571 N 0.56187 1.15849 0.41587
 C3572 C 0.56883 1.15117 0.43079
 N3573 N 0.58358 1.15862 0.43788
 N3574 N 0.59102 1.17276 0.43041
 C3575 C 0.61502 0.74029 0.88464
 N3576 N 0.60799 0.74771 0.86983
 N3577 N 0.61526 0.76210 0.86267
 C3578 C 0.62981 0.76959 0.87005
 N3579 N 0.63683 0.76217 0.88486
 N3580 N 0.62957 0.74778 0.89202
 C3581 C 0.60701 0.72446 0.89260
 N3582 N 0.61408 0.71709 0.90742
 N3583 N 0.60677 0.70281 0.91474
 C3584 C 0.59211 0.69537 0.90751
 N3585 N 0.58506 0.70271 0.89268
 N3586 N 0.59237 0.71700 0.88535
 C3587 C 0.58397 0.67972 0.91570
 N3588 N 0.56922 0.67235 0.90861
 N3589 N 0.56181 0.65821 0.91610
 C3590 C 0.56882 0.65088 0.93099
 N3591 N 0.58359 0.65830 0.93804
 N3592 N 0.59101 0.67245 0.93056
 C3593 C 0.88513 1.24006 1.11565
 N3594 N 0.87045 1.24750 1.10843
 N3595 N 0.86325 1.26190 1.11561
 C3596 C 0.87046 1.26941 1.13026
 N3597 N 0.88513 1.26198 1.13750
 N3598 N 0.89234 1.24756 1.13032
 C3599 C 0.89311 1.22424 1.10766
 N3600 N 0.90783 1.21683 1.11480
 N3601 N 0.91516 1.20258 1.10742
 C3602 C 0.90803 1.19522 1.09265
 N3603 N 0.89328 1.20262 1.08553
 N3604 N 0.88595 1.21686 1.09291
 C3605 C 0.91619 1.17962 1.08442
 N3606 N 0.90911 1.17234 1.06959
 N3607 N 0.91656 1.15823 1.06208
 C3608 C 0.93139 1.15084 1.06907
 N3609 N 0.93843 1.15816 1.08393
 N3610 N 0.93099 1.17227 1.09145
 C3611 C 0.88511 0.74012 0.61542
 N3612 N 0.89216 0.74751 0.63022
 N3613 N 0.88490 0.76189 0.63741
 C3614 C 0.87034 0.76941 0.63005
 N3615 N 0.86330 0.76203 0.61525
 N3616 N 0.87055 0.74765 0.60806
 C3617 C 0.89311 0.72429 0.60743
 N3618 N 0.88602 0.71696 0.59262
 N3619 N 0.89331 0.70267 0.58529
 C3620 C 0.90797 0.69519 0.59248
 N3621 N 0.91505 0.70249 0.60731
 N3622 N 0.90775 0.71678 0.61466
 C3623 C 0.91610 0.67954 0.58428
 N3624 N 0.93084 0.67213 0.59136
 N3625 N 0.93825 0.65799 0.58387
 C3626 C 0.93123 0.65068 0.56899
 N3627 N 0.91645 0.65814 0.56194
 N3628 N 0.90904 0.67228 0.56943
 C3629 C 0.38488 1.24056 0.61562
 N3630 N 0.37025 1.24803 0.60834
 N3631 N 0.36304 1.26245 0.61549
 C3632 C 0.37018 1.26996 0.63019
 N3633 N 0.38482 1.26248 0.63747
 N3634 N 0.39203 1.24806 0.63032
 C3635 C 0.39285 1.22470 0.60765
 N3636 N 0.40756 1.21727 0.61481
 N3637 N 0.41484 1.20295 0.60749
 C3638 C 0.40767 1.19555 0.59275
 N3639 N 0.39294 1.20296 0.58563
 N3640 N 0.38566 1.21727 0.59294
 C3641 C 0.41580 1.17987 0.58457
 N3642 N 0.40869 1.17255 0.56977
 N3643 N 0.41610 1.15840 0.56230
 C3644 C 0.43094 1.15100 0.56929
 N3645 N 0.43800 1.15838 0.58412
 N3646 N 0.43060 1.17253 0.59160
 C3647 C 0.38503 0.74065 1.11568
 N3648 N 0.39222 0.74813 1.13037
 N3649 N 0.38505 0.76258 1.13753
 C3650 C 0.37044 0.77010 1.13025
 N3651 N 0.36326 0.76261 1.11556
 N3652 N 0.37042 0.74816 1.10841
 C3653 C 0.39296 0.72477 1.10771
 N3654 N 0.38577 0.71736 1.09299
 N3655 N 0.39304 0.70306 1.08566
 C3656 C 0.40777 0.69563 1.09277
 N3657 N 0.41494 0.70301 1.10752
 N3658 N 0.40767 0.71732 1.11486
 C3659 C 0.41590 0.67998 1.08456
 N3660 N 0.43071 0.67263 1.09159
 N3661 N 0.43812 0.65850 1.08409
 C3662 C 0.43107 0.65114 1.06924
 N3663 N 0.41624 0.65854 1.06225
 N3664 N 0.40881 0.67268 1.06975
 C3665 C 0.88519 0.76004 0.88464
 N3666 N 0.87056 0.75260 0.89193
 N3667 N 0.86335 0.73818 0.88479
 C3668 C 0.87052 0.73067 0.87010
 N3669 N 0.88515 0.73810 0.86281
 N3670 N 0.89236 0.75253 0.86996
 C3671 C 0.89317 0.77588 0.89260
 N3672 N 0.90788 0.78329 0.88543
 N3673 N 0.91515 0.79759 0.89274
 C3674 C 0.90798 0.80501 0.90748
 N3675 N 0.89325 0.79762 0.91462
 N3676 N 0.88598 0.78332 0.90731
 C3677 C 0.91612 0.82065 0.91567
 N3678 N 0.90902 0.82796 0.93048
 N3679 N 0.91644 0.84208 0.93797
 C3680 C 0.93128 0.84945 0.93099
 N3681 N 0.93835 0.84209 0.91615
 N3682 N 0.93093 0.82797 0.90865
 C3683 C 0.88513 0.25974 0.38454
 N3684 N 0.89219 0.25233 0.36976
 N3685 N 0.88497 0.23791 0.36262
 C3686 C 0.87043 0.23039 0.37002
 N3687 N 0.86338 0.23780 0.38480
 N3688 N 0.87059 0.25221 0.39194
 C3689 C 0.89310 0.27558 0.39248
 N3690 N 0.88601 0.28294 0.40728
 N3691 N 0.89330 0.29722 0.41459
 C3692 C 0.90797 0.30467 0.40738
 N3693 N 0.91505 0.29734 0.39256
 N3694 N 0.90774 0.28306 0.38524
 C3695 C 0.91612 0.32030 0.41557
 N3696 N 0.93088 0.32766 0.40849
 N3697 N 0.93830 0.34178 0.41599
 C3698 C 0.93128 0.34909 0.43088
 N3699 N 0.91649 0.34168 0.43792
 N3700 N 0.90906 0.32755 0.43043
 C3701 C 0.38481 0.75966 0.38444
 N3702 N 0.39183 0.75228 0.36962
 N3703 N 0.38457 0.73789 0.36244
 C3704 C 0.37002 0.73035 0.36982
 N3705 N 0.36302 0.73775 0.38465
 N3706 N 0.37027 0.75212 0.39182
 C3707 C 0.39282 0.77548 0.39242
 N3708 N 0.38575 0.78281 0.40725
 N3709 N 0.39305 0.79709 0.41458
 C3710 C 0.40769 0.80458 0.40735
 N3711 N 0.41474 0.79728 0.39250
 N3712 N 0.40744 0.78299 0.38517
 C3713 C 0.41581 0.82025 0.41554
 N3714 N 0.43054 0.82766 0.40843
 N3715 N 0.43793 0.84182 0.41590
 C3716 C 0.43092 0.84913 0.43079
 N3717 N 0.41616 0.84167 0.43786
 N3718 N 0.40877 0.82751 0.43040
 C3719 C 0.38513 0.26003 0.88444
 N3720 N 0.39232 0.25248 0.86979
 N3721 N 0.38511 0.23805 0.86266
 C3722 C 0.37046 0.23065 0.86994
 N3723 N 0.36327 0.23819 0.88459
 N3724 N 0.37047 0.25262 0.89172
 C3725 C 0.39310 0.27587 0.89239
 N3726 N 0.38593 0.28329 0.90712
 N3727 N 0.39323 0.29756 0.91445
 C3728 C 0.40798 0.30493 0.90733
 N3729 N 0.41514 0.29753 0.89258
 N3730 N 0.40783 0.28326 0.88525
 C3731 C 0.41613 0.32055 0.91555
 N3732 N 0.43095 0.32786 0.90853
 N3733 N 0.43837 0.34197 0.91604
 C3734 C 0.43130 0.34933 0.93088
 N3735 N 0.41646 0.34197 0.93786
 N3736 N 0.40903 0.32785 0.93036
 C3737 C 1.11521 0.75957 1.11584
 N3738 N 1.12975 0.75201 1.10849
 N3739 N 1.13699 0.73762 1.11570
 C3740 C 1.12996 0.73023 1.13054
 N3741 N 1.11540 0.73780 1.13788
 N3742 N 1.10816 0.75220 1.13067
 C3743 C 1.10722 0.77541 1.10782
 N3744 N 1.09259 0.78294 1.11506
 N3745 N 1.08530 0.79724 1.10771
 C3746 C 1.09237 0.80454 1.09286
 N3747 N 1.10701 0.79703 1.08564
 N3748 N 1.11429 0.78274 1.09299
 C3749 C 1.08423 0.82022 1.08466
 N3750 N 1.09127 0.82749 1.06979
 N3751 N 1.08386 0.84166 1.06232
 C3752 C 1.06910 0.84912 1.06940
 N3753 N 1.06210 0.84180 1.08429
 N3754 N 1.06951 0.82763 1.09177
 C3755 C 1.11507 0.25945 0.61597
 N3756 N 1.12976 0.25204 0.60878
 N3757 N 1.13697 0.23763 0.61597
 C3758 C 1.12975 0.23007 0.63063
 N3759 N 1.11505 0.23750 0.63782
 N3760 N 1.10785 0.25192 0.63063
 C3761 C 1.10708 0.27529 0.60794
 N3762 N 1.09235 0.28272 0.61505
 N3763 N 1.08504 0.29699 0.60765
 C3764 C 1.09219 0.30435 0.59287
 N3765 N 1.10695 0.29694 0.58579
 N3766 N 1.11425 0.28268 0.59318
 C3767 C 1.08407 0.32000 0.58462
 N3768 N 1.09118 0.32730 0.56980
 N3769 N 1.08379 0.34145 0.56229
 C3770 C 1.06897 0.34888 0.56927
 N3771 N 1.06189 0.34153 0.58412
 N3772 N 1.06928 0.32738 0.59163
 C3773 C 0.61500 0.76009 0.61541
 N3774 N 0.62956 0.75259 0.60801
 N3775 N 0.63683 0.73820 0.61515
 C3776 C 0.62981 0.73076 0.62995
 N3777 N 0.61526 0.73825 0.63736
 N3778 N 0.60799 0.75265 0.63021
 C3779 C 0.60697 0.77591 0.60745
 N3780 N 0.59233 0.78338 0.61471
 N3781 N 0.58500 0.79766 0.60739
 C3782 C 0.59204 0.80501 0.59255
 N3783 N 0.60671 0.79756 0.58532
 N3784 N 0.61403 0.78328 0.59264
 C3785 C 0.58389 0.82065 0.58436
 N3786 N 0.59093 0.82792 0.56950
 N3787 N 0.58350 0.84206 0.56201
 C3788 C 0.56872 0.84949 0.56907
 N3789 N 0.56172 0.84217 0.58396
 N3790 N 0.56914 0.82803 0.59146
 C3791 C 0.61502 0.25999 1.11568
 N3792 N 0.62976 0.25263 1.10853
 N3793 N 0.63689 0.23815 1.11564
 C3794 C 0.62955 0.23049 1.13017
 N3795 N 0.61481 0.23786 1.13733
 N3796 N 0.60768 0.25234 1.13021
 C3797 C 0.60709 0.27587 1.10771
 N3798 N 0.59229 0.28321 1.11477
 N3799 N 0.58499 0.29749 1.10741
 C3800 C 0.59222 0.30495 1.09273
 N3801 N 0.60704 0.29764 1.08570
 N3802 N 0.61434 0.28337 1.09305
 C3803 C 0.58406 0.32058 1.08449
 N3804 N 0.59118 0.32793 1.06971
 N3805 N 0.58373 0.34206 1.06221
 C3806 C 0.56885 0.34939 1.06916
 N3807 N 0.56176 0.34198 1.08397
 N3808 N 0.56920 0.32785 1.09148
 C3809 C 1.24014 1.11533 0.88475
 N3810 N 1.24758 1.12997 0.89201
 N3811 N 1.26200 1.13715 0.88486
 C3812 C 1.26950 1.12994 0.87020
 N3813 N 1.26206 1.11530 0.86293
 N3814 N 1.24764 1.10812 0.87008
 C3815 C 1.22431 1.10735 0.89269
 N3816 N 1.21692 1.09264 0.88549
 N3817 N 1.20265 1.08532 0.89280
 C3818 C 1.19525 1.09244 0.90756
 N3819 N 1.20261 1.10717 0.91473
 N3820 N 1.21688 1.11450 0.90742
 C3821 C 1.17964 1.08426 0.91572
 N3822 N 1.17233 1.09131 0.93054
 N3823 N 1.15821 1.08385 0.93800
 C3824 C 1.15086 1.06903 0.93096
 N3825 N 1.15822 1.06201 0.91610
 N3826 N 1.17233 1.06947 0.90863
 C3827 C 1.24025 0.61540 0.38498
 N3828 N 1.24781 0.60821 0.37032
 N3829 N 1.26225 0.61542 0.36323
 C3830 C 1.26967 0.63006 0.37054
 N3831 N 1.26211 0.63725 0.38518
 N3832 N 1.24766 0.63005 0.39228
 C3833 C 1.22440 0.60738 0.39287
 N3834 N 1.21692 0.61450 0.40759
 N3835 N 1.20265 0.60713 0.41486
 C3836 C 1.19534 0.59237 0.40768
 N3837 N 1.20280 0.58528 0.39292
 N3838 N 1.21707 0.59265 0.38565
 C3839 C 1.17973 0.58415 0.41582
 N3840 N 1.17247 0.56933 0.40873
 N3841 N 1.15836 0.56184 0.41618
 C3842 C 1.15095 0.56885 0.43102
 N3843 N 1.15826 0.58369 0.43807
 N3844 N 1.17237 0.59119 0.43063
 C3845 C 0.74005 1.11519 0.38475
 N3846 N 0.74755 1.10796 0.37008
 N3847 N 0.76198 1.11513 0.36294
 C3848 C 0.76944 1.12976 0.37020
 N3849 N 0.76194 1.13699 0.38486
 N3850 N 0.74751 1.12983 0.39200
 C3851 C 0.72421 1.10723 0.39269
 N3852 N 0.71678 1.11439 0.40742
 N3853 N 0.70251 1.10707 0.41473
 C3854 C 0.69514 1.09233 0.40758
 N3855 N 0.70254 1.08520 0.39282
 N3856 N 0.71682 1.09252 0.38551
 C3857 C 0.67952 1.08417 0.41574
 N3858 N 0.67222 1.06937 0.40867
 N3859 N 0.65809 1.06193 0.41614
 C3860 C 0.65072 1.06896 0.43099
 N3861 N 0.65808 1.08379 0.43802
 N3862 N 0.67220 1.09124 0.43056
 C3863 C 0.74009 0.61538 0.88487
 N3864 N 0.74760 0.60816 0.87021
 N3865 N 0.76203 0.61533 0.86307
 C3866 C 0.76948 0.62997 0.87033
 N3867 N 0.76197 0.63720 0.88499
 N3868 N 0.74754 0.63003 0.89213
 C3869 C 0.72426 0.60740 0.89282
 N3870 N 0.71683 0.61454 0.90756
 N3871 N 0.70257 0.60720 0.91487
 C3872 C 0.69522 0.59245 0.90771
 N3873 N 0.70263 0.58533 0.89295
 N3874 N 0.71689 0.59267 0.88564
 C3875 C 0.67960 0.58427 0.91588
 N3876 N 0.67231 0.56947 0.90879
 N3877 N 0.65819 0.56201 0.91625
 C3878 C 0.65080 0.56903 0.93110
 N3879 N 0.65815 0.58386 0.93814
 N3880 N 0.67227 0.59132 0.93069
 C3881 C 1.24039 0.88461 1.11524
 N3882 N 1.24785 0.86996 1.10799
 N3883 N 1.26227 0.86277 1.11516
 C3884 C 1.26975 0.86997 1.12983
 N3885 N 1.26228 0.88462 1.13708
 N3886 N 1.24787 0.89181 1.12992
 C3887 C 1.22456 0.89261 1.10727
 N3888 N 1.21716 0.90732 1.11447
 N3889 N 1.20289 0.91467 1.10716
 C3890 C 1.19550 0.90757 1.09238
 N3891 N 1.20288 0.89283 1.08521
 N3892 N 1.21715 0.88548 1.09252
 C3893 C 1.17988 0.91576 1.08423
 N3894 N 1.17256 0.90873 1.06940
 N3895 N 1.15843 0.91621 1.06196
 C3896 C 1.15107 0.93103 1.06903
 N3897 N 1.15844 0.93803 1.08388
 N3898 N 1.17257 0.93056 1.09133
 C3899 C 1.24014 0.38467 0.61511
 N3900 N 1.24766 0.39187 0.62977
 N3901 N 1.26209 0.38468 0.63690
 C3902 C 1.26954 0.37003 0.62964
 N3903 N 1.26202 0.36281 0.61499
 N3904 N 1.24758 0.37000 0.60785
 C3905 C 1.22431 0.39266 0.60717
 N3906 N 1.21688 0.38551 0.59244
 N3907 N 1.20261 0.39286 0.58513
 C3908 C 1.19526 0.40762 0.59227
 N3909 N 1.20267 0.41475 0.60702
 N3910 N 1.21694 0.40740 0.61434
 C3911 C 1.17964 0.41581 0.58410
 N3912 N 1.17234 0.43062 0.59116
 N3913 N 1.15821 0.43807 0.58370
 C3914 C 1.15082 0.43102 0.56888
 N3915 N 1.15818 0.41618 0.56185
 N3916 N 1.17231 0.40873 0.56930
 C3917 C 0.73999 0.88497 0.61513
 N3918 N 0.74751 0.89219 0.62978
 N3919 N 0.76196 0.88503 0.63690
 C3920 C 0.76943 0.87039 0.62963
 N3921 N 0.76191 0.86316 0.61499
 N3922 N 0.74746 0.87032 0.60787
 C3923 C 0.72413 0.89294 0.60720
 N3924 N 0.71669 0.88579 0.59248
 N3925 N 0.70241 0.89312 0.58519
 C3926 C 0.69505 0.90787 0.59235
 N3927 N 0.70246 0.91499 0.60710
 N3928 N 0.71675 0.90766 0.61439
 C3929 C 0.67941 0.91606 0.58420
 N3930 N 0.67212 0.93087 0.59129
 N3931 N 0.65799 0.93834 0.58384
 C3932 C 0.65060 0.93132 0.56900
 N3933 N 0.65795 0.91649 0.56195
 N3934 N 0.67208 0.90902 0.56939
 C3935 C 0.74030 0.38481 1.11519
 N3936 N 0.74781 0.37017 1.10797
 N3937 N 0.76225 0.36303 1.11515
 C3938 C 0.76970 0.37028 1.12981
 N3939 N 0.76220 0.38492 1.13704
 N3940 N 0.74776 0.39206 1.12986
 C3941 C 0.72445 0.39275 1.10723
 N3942 N 0.71702 0.40745 1.11442
 N3943 N 0.70274 0.41476 1.10711
 C3944 C 0.69536 0.40764 1.09234
 N3945 N 0.70276 0.39291 1.08518
 N3946 N 0.71704 0.38560 1.09249
 C3947 C 0.67973 0.41582 1.08418
 N3948 N 0.67241 0.40879 1.06935
 N3949 N 0.65829 0.41627 1.06191
 C3950 C 0.65092 0.43109 1.06898
 N3951 N 0.65830 0.43809 1.08384
 N3952 N 0.67242 0.43061 1.09128
 C3953 C 0.76006 1.11531 1.11542
 N3954 N 0.75262 1.10807 1.13010
 N3955 N 0.73821 1.11523 1.13732
 C3956 C 0.73073 1.12990 1.13010
 N3957 N 0.73818 1.13714 1.11542
 N3958 N 0.75258 1.12998 1.10820
 C3959 C 0.77589 1.10735 1.10742
 N3960 N 0.78329 1.11451 1.09267
 N3961 N 0.79757 1.10720 1.08535
 C3962 C 0.80497 1.09246 1.09250
 N3963 N 0.79759 1.08531 1.10727
 N3964 N 0.78331 1.09262 1.11459
 C3965 C 0.82060 1.08429 1.08433
 N3966 N 0.82792 1.06949 1.09143
 N3967 N 0.84206 1.06204 1.08398
 C3968 C 0.84943 1.06907 1.06913
 N3969 N 0.84206 1.08390 1.06207
 N3970 N 0.82792 1.09136 1.06951
 C3971 C 0.76015 0.61523 0.61503
 N3972 N 0.75269 0.62988 0.60775
 N3973 N 0.73824 0.63704 0.61487
 C3974 C 0.73072 0.62981 0.62952
 N3975 N 0.73819 0.61517 0.63681
 N3976 N 0.75263 0.60800 0.62969
 C3977 C 0.77600 0.60726 0.60711
 N3978 N 0.78339 0.59253 0.61432
 N3979 N 0.79767 0.58520 0.60703
 C3980 C 0.80508 0.59231 0.59226
 N3981 N 0.79772 0.60707 0.58508
 N3982 N 0.78344 0.61440 0.59237
 C3983 C 0.82069 0.58411 0.58411
 N3984 N 0.82802 0.59115 0.56928
 N3985 N 0.84213 0.58366 0.56183
 C3986 C 0.84947 0.56882 0.56889
 N3987 N 0.84209 0.56181 0.58375
 N3988 N 0.82798 0.56930 0.59121
 C3989 C 0.25960 1.11528 0.61542
 N3990 N 0.25212 1.12993 0.60815
 N3991 N 0.23769 1.13710 0.61530
 C3992 C 0.23020 1.12987 0.62998
 N3993 N 0.23768 1.11523 0.63725
 N3994 N 0.25212 1.10806 0.63009
 C3995 C 0.27546 1.10733 0.60746
 N3996 N 0.28290 1.09263 0.61465
 N3997 N 0.29718 1.08533 0.60733
 C3998 C 0.30456 1.09248 0.59256
 N3999 N 0.29715 1.10721 0.58540
 N4000 N 0.28286 1.11451 0.59272
 C4001 C 0.32019 1.08432 0.58437
 N4002 N 0.32747 1.09140 0.56953
 N4003 N 0.34159 1.08396 0.56204
 C4004 C 0.34899 1.06913 0.56907
 N4005 N 0.34165 1.06209 0.58394
 N4006 N 0.32753 1.06952 0.59143
 C4007 C 0.25984 0.61543 1.11523
 N4008 N 0.25237 0.63008 1.10797
 N4009 N 0.23792 0.63724 1.11510
 C4010 C 0.23041 0.63000 1.12976
 N4011 N 0.23789 0.61535 1.13703
 N4012 N 0.25233 0.60819 1.12989
 C4013 C 0.27570 0.60746 1.10729
 N4014 N 0.28309 0.59273 1.11449
 N4015 N 0.29737 0.58539 1.10720
 C4016 C 0.30478 0.59252 1.09243
 N4017 N 0.29742 0.60727 1.08526
 N4018 N 0.28314 0.61461 1.09256
 C4019 C 0.32041 0.58432 1.08428
 N4020 N 0.32775 0.59137 1.06946
 N4021 N 0.34187 0.58389 1.06202
 C4022 C 0.34922 0.56905 1.06908
 N4023 N 0.34183 0.56203 1.08393
 N4024 N 0.32770 0.56950 1.09138
 C4025 C 0.76007 0.88508 0.88497
 N4026 N 0.75262 0.87043 0.89225
 N4027 N 0.73817 0.86328 0.88512
 C4028 C 0.73066 0.87052 0.87048
 N4029 N 0.73811 0.88516 0.86319
 N4030 N 0.75256 0.89231 0.87031
 C4031 C 0.77592 0.89303 0.89289
 N4032 N 0.78329 0.90776 0.88569
 N4033 N 0.79756 0.91508 0.89299
 C4034 C 0.80497 0.90795 0.90775
 N4035 N 0.79762 0.89320 0.91492
 N4036 N 0.78335 0.88587 0.90762
 C4037 C 0.82057 0.91614 0.91591
 N4038 N 0.82790 0.90908 0.93074
 N4039 N 0.84200 0.91655 0.93819
 C4040 C 0.84934 0.93139 0.93114
 N4041 N 0.84197 0.93841 0.91629
 N4042 N 0.82786 0.93095 0.90883
 C4043 C 0.76002 0.38417 0.38449
 N4044 N 0.75255 0.39135 0.36978
 N4045 N 0.73815 0.38415 0.36260
 C4046 C 0.73071 0.36949 0.36986
 N4047 N 0.73819 0.36228 0.38454
 N4048 N 0.75259 0.36949 0.39173
 C4049 C 0.77578 0.39224 0.39252
 N4050 N 0.78318 0.38515 0.40731
 N4051 N 0.79737 0.39257 0.41467
 C4052 C 0.80468 0.40735 0.40752
 N4053 N 0.79730 0.41442 0.39272
 N4054 N 0.78311 0.40701 0.38535
 C4055 C 0.82027 0.41559 0.41570
 N4056 N 0.82756 0.43039 0.40859
 N4057 N 0.84170 0.43785 0.41601
 C4058 C 0.84910 0.43084 0.43086
 N4059 N 0.84175 0.41602 0.43795
 N4060 N 0.82762 0.40855 0.43053
 C4061 C 0.25961 0.88455 0.38537
 N4062 N 0.25179 0.89201 0.37099
 N4063 N 0.23731 0.88485 0.36395
 C4064 C 0.23012 0.86998 0.37103
 N4065 N 0.23794 0.86252 0.38541
 N4066 N 0.25241 0.86968 0.39246
 C4067 C 0.27551 0.89252 0.39318
 N4068 N 0.28318 0.88526 0.40775
 N4069 N 0.29749 0.89261 0.41494
 C4070 C 0.30465 0.90748 0.40783
 N4071 N 0.29702 0.91470 0.39323
 N4072 N 0.28271 0.90736 0.38604
 C4073 C 0.32028 0.91571 0.41591
 N4074 N 0.32743 0.93061 0.40885
 N4075 N 0.34154 0.93813 0.41626
 C4076 C 0.34905 0.93107 0.43104
 N4077 N 0.34185 0.91615 0.43805
 N4078 N 0.32774 0.90862 0.43065
 C4079 C 0.25997 0.38478 0.88491
 N4080 N 0.25255 0.37013 0.89222
 N4081 N 0.23811 0.36294 0.88513
 C4082 C 0.23056 0.37015 0.87048
 N4083 N 0.23798 0.38479 0.86317
 N4084 N 0.25242 0.39199 0.87026
 C4085 C 0.27582 0.39278 0.89281
 N4086 N 0.28317 0.40751 0.88560
 N4087 N 0.29744 0.41486 0.89287
 C4088 C 0.30488 0.40774 0.90763
 N4089 N 0.29756 0.39298 0.91481
 N4090 N 0.28329 0.38564 0.90753
 C4091 C 0.32050 0.41594 0.91577
 N4092 N 0.32784 0.40888 0.93059
 N4093 N 0.34195 0.41635 0.93803
 C4094 C 0.34928 0.43120 0.93099
 N4095 N 0.34188 0.43823 0.91615
 N4096 N 0.32777 0.43077 0.90869
   
