data_POSCAR
  _audit_creation_date              2014-09-24
  _audit_creation_method            'ToBaCCo'
  _symmetry_space_group_name_H-M    'P1'
  _symmetry_Int_Tables_number       1
  _symmetry_cell_setting            triclinic
  loop_
  _symmetry_equiv_pos_as_xyz
 x,y,z
_cell_length_a 51.6516
_cell_length_b 54.8356
_cell_length_c 62.3062
_cell_angle_alpha 89.953200
_cell_angle_beta 89.979400
_cell_angle_gamma 90.031500
loop_
  _atom_site_label
  _atom_site_type_symbol
  _atom_site_fract_x
  _atom_site_fract_y
  _atom_site_fract_z
Zr1 Zr 0.24926 0.24942 0.28757
 O2 O 0.26977 0.26796 0.31207
 O3 O 0.22364 0.22788 0.30564
 O4 O 0.22502 0.27304 0.30511
 O5 O 0.29611 0.20526 0.27961
 O6 O 0.20458 0.29549 0.27941
 O7 O 0.27353 0.22593 0.30524
 O8 O 0.19897 0.20922 0.28017
 O9 O 0.21521 0.25158 0.26948
 O10 O 0.24777 0.21753 0.26927
 O11 O 0.25276 0.28161 0.26943
 O12 O 0.28397 0.24894 0.26967
 Zr13 Zr 0.25120 0.25103 0.21283
 Zr14 Zr 0.21957 0.28258 0.25015
 Zr15 Zr 0.28095 0.21782 0.25022
 Zr16 Zr 0.21473 0.22035 0.25043
 O17 O 0.32190 0.21850 0.24933
 O18 O 0.17463 0.22856 0.24979
 O19 O 0.24779 0.21847 0.23074
 O20 O 0.21681 0.25141 0.23091
 O21 O 0.25279 0.28312 0.23090
 O22 O 0.28498 0.24885 0.23118
 C23 C 0.20506 0.21370 0.29984
 C24 C 0.29077 0.21034 0.29931
 C25 C 0.20909 0.28979 0.29911
 O26 O 0.17869 0.28170 0.24818
 O27 O 0.20794 0.29829 0.22084
 O28 O 0.22936 0.27662 0.19519
 C29 C 0.21370 0.29361 0.20115
 O30 O 0.30367 0.29242 0.27869
 Zr31 Zr 0.28576 0.28007 0.24998
 O32 O 0.27668 0.27263 0.19477
 O33 O 0.22502 0.32076 0.25208
 O34 O 0.28166 0.31854 0.25066
 O35 O 0.32618 0.27343 0.24868
 O36 O 0.29918 0.29360 0.22023
 C37 C 0.29367 0.28847 0.20057
 O38 O 0.22927 0.23379 0.18845
 O39 O 0.27544 0.17959 0.25112
 O40 O 0.27361 0.22599 0.19517
 O41 O 0.29276 0.20243 0.22082
 O42 O 0.21718 0.18177 0.25171
 O43 O 0.19962 0.20500 0.22174
 C44 C 0.28831 0.20824 0.20112
 H45 H 0.24720 0.20254 0.27812
 H46 H 0.20143 0.25207 0.22145
 H47 H 0.30089 0.24776 0.22237
 H48 H 0.25385 0.29611 0.27885
 H49 H 0.16515 0.21345 0.25361
 H50 H 0.17269 0.29884 0.24893
 H51 H 0.20761 0.32830 0.25127
 H52 H 0.29868 0.32569 0.24683
 H53 H 0.19967 0.17549 0.25520
 H54 H 0.29290 0.17213 0.25166
 H55 H 0.32775 0.20130 0.24883
 H56 H 0.33477 0.28910 0.24517
 H57 H 0.18426 0.19492 0.22518
 H58 H 0.23619 0.23950 0.17446
 H59 H 0.26295 0.26207 0.32604
 H60 H 0.31607 0.30564 0.27525
 Zr61 Zr 0.75088 0.75071 0.28743
 O62 O 0.73048 0.73220 0.31204
 O63 O 0.77646 0.77239 0.30535
 O64 O 0.77521 0.72722 0.30503
 O65 O 0.70382 0.79465 0.27933
 O66 O 0.79571 0.70474 0.27939
 O67 O 0.72652 0.77418 0.30503
 O68 O 0.80101 0.79104 0.27977
 O69 O 0.78491 0.74859 0.26929
 O70 O 0.75222 0.78253 0.26898
 O71 O 0.74748 0.71843 0.26942
 O72 O 0.71614 0.75100 0.26956
 Zr73 Zr 0.74885 0.74880 0.21268
 Zr74 Zr 0.78065 0.71751 0.25010
 Zr75 Zr 0.71902 0.78205 0.24998
 Zr76 Zr 0.78524 0.77975 0.25010
 O77 O 0.67807 0.78122 0.24913
 O78 O 0.82538 0.77168 0.24943
 O79 O 0.75216 0.78143 0.23045
 O80 O 0.78326 0.74861 0.23072
 O81 O 0.74741 0.71677 0.23090
 O82 O 0.71509 0.75094 0.23107
 C83 C 0.79498 0.78662 0.29947
 C84 C 0.70920 0.78967 0.29905
 C85 C 0.79118 0.71049 0.29907
 O86 O 0.82152 0.71853 0.24808
 O87 O 0.79234 0.70174 0.22084
 O88 O 0.77079 0.72323 0.19513
 C89 C 0.78655 0.70634 0.20114
 O90 O 0.69663 0.70747 0.27881
 Zr91 Zr 0.71445 0.71978 0.25001
 O92 O 0.72341 0.72703 0.19476
 O93 O 0.77535 0.67931 0.25219
 O94 O 0.71870 0.68133 0.25085
 O95 O 0.67401 0.72629 0.24876
 O96 O 0.70103 0.70609 0.22035
 C97 C 0.70648 0.71116 0.20066
 O98 O 0.77067 0.76601 0.18819
 O99 O 0.72438 0.82030 0.25072
 O100 O 0.72632 0.77370 0.19495
 O101 O 0.70713 0.79729 0.22053
 O102 O 0.78264 0.81832 0.25122
 O103 O 0.80025 0.79505 0.22132
 C104 C 0.71158 0.79143 0.20085
 H105 H 0.75274 0.79756 0.27777
 H106 H 0.79863 0.74797 0.22124
 H107 H 0.69916 0.75194 0.22229
 H108 H 0.74645 0.70397 0.27890
 H109 H 0.83480 0.78684 0.25317
 H110 H 0.82759 0.70141 0.24890
 H111 H 0.79279 0.67183 0.25139
 H112 H 0.70171 0.67411 0.24709
 H113 H 0.80012 0.82469 0.25466
 H114 H 0.70689 0.82770 0.25124
 H115 H 0.67215 0.79840 0.24857
 H116 H 0.66547 0.71058 0.24533
 H117 H 0.81558 0.80521 0.22470
 H118 H 0.76374 0.76023 0.17424
 H119 H 0.73729 0.73817 0.32597
 H120 H 0.68427 0.69420 0.27544
 Zr121 Zr 0.75085 0.24917 -0.28751
 O122 O 0.73047 0.26759 -0.31216
 O123 O 0.77640 0.22742 -0.30540
 O124 O 0.77521 0.27260 -0.30519
 O125 O 0.70374 0.20526 -0.27927
 O126 O 0.79574 0.29516 -0.27963
 O127 O 0.72647 0.22565 -0.30503
 O128 O 0.80094 0.20886 -0.27979
 O129 O 0.78489 0.25135 -0.26941
 O130 O 0.75216 0.21742 -0.26899
 O131 O 0.74750 0.28151 -0.26959
 O132 O 0.71612 0.24895 -0.26963
 Zr133 Zr 0.74884 0.25135 -0.21278
 Zr134 Zr 0.78066 0.28250 -0.25029
 Zr135 Zr 0.71897 0.21796 -0.24996
 Zr136 Zr 0.78519 0.22026 -0.25014
 O137 O 0.67802 0.21879 -0.24909
 O138 O 0.82534 0.22834 -0.24952
 O139 O 0.75211 0.21865 -0.23046
 O140 O 0.78325 0.25147 -0.23083
 O141 O 0.74743 0.28331 -0.23108
 O142 O 0.71507 0.24914 -0.23114
 C143 C 0.79491 0.21321 -0.29949
 C144 C 0.70912 0.21018 -0.29900
 C145 C 0.79119 0.28934 -0.29929
 O146 O 0.82154 0.28149 -0.24830
 O147 O 0.79236 0.29839 -0.22109
 O148 O 0.77079 0.27699 -0.19531
 C149 C 0.78656 0.29387 -0.20137
 O150 O 0.69665 0.29244 -0.27897
 Zr151 Zr 0.71447 0.28023 -0.25016
 O152 O 0.72343 0.27317 -0.19490
 O153 O 0.77542 0.32069 -0.25250
 O154 O 0.71876 0.31868 -0.25111
 O155 O 0.67402 0.27372 -0.24885
 O156 O 0.70107 0.29403 -0.22052
 C157 C 0.70652 0.28902 -0.20082
 O158 O 0.77065 0.23422 -0.18826
 O159 O 0.72427 0.17971 -0.25061
 O160 O 0.72629 0.22651 -0.19497
 O161 O 0.70708 0.20282 -0.22047
 O162 O 0.78254 0.18168 -0.25114
 O163 O 0.80019 0.20506 -0.22132
 C164 C 0.71154 0.20876 -0.20081
 H165 H 0.75266 0.20236 -0.27773
 H166 H 0.79862 0.25215 -0.22137
 H167 H 0.69914 0.24817 -0.22234
 H168 H 0.74648 0.29594 -0.27911
 H169 H 0.83474 0.21316 -0.25322
 H170 H 0.82763 0.29861 -0.24917
 H171 H 0.79286 0.32818 -0.25173
 H172 H 0.70178 0.32592 -0.24735
 H173 H 0.80001 0.17531 -0.25458
 H174 H 0.70678 0.17231 -0.25110
 H175 H 0.67208 0.20161 -0.24847
 H176 H 0.66550 0.28945 -0.24546
 H177 H 0.81550 0.19490 -0.22469
 H178 H 0.76374 0.24005 -0.17432
 H179 H 0.73728 0.26157 -0.32609
 H180 H 0.68431 0.30572 -0.27563
 Zr181 Zr 0.24854 0.75171 -0.28756
 O182 O 0.26883 0.73333 -0.31228
 O183 O 0.22308 0.77362 -0.30539
 O184 O 0.22409 0.72840 -0.30526
 O185 O 0.29581 0.79537 -0.27931
 O186 O 0.20346 0.70585 -0.27970
 O187 O 0.27304 0.77525 -0.30505
 O188 O 0.19868 0.79216 -0.27980
 O189 O 0.21449 0.74958 -0.26945
 O190 O 0.24738 0.78339 -0.26901
 O191 O 0.25174 0.71929 -0.26968
 O192 O 0.28328 0.75170 -0.26971
 Zr193 Zr 0.25053 0.74924 -0.21282
 Zr194 Zr 0.21858 0.71836 -0.25035
 Zr195 Zr 0.28056 0.78262 -0.25000
 Zr196 Zr 0.21434 0.78060 -0.25015
 O197 O 0.32150 0.78162 -0.24916
 O198 O 0.17416 0.77268 -0.24955
 O199 O 0.24742 0.78200 -0.23048
 O200 O 0.21613 0.74934 -0.23086
 O201 O 0.25179 0.71733 -0.23115
 O202 O 0.28431 0.75137 -0.23120
 C203 C 0.20460 0.78796 -0.29959
 C204 C 0.29050 0.79070 -0.29913
 C205 C 0.20803 0.71169 -0.29936
 O206 O 0.17771 0.71952 -0.24835
 O207 O 0.20677 0.70247 -0.22115
 O208 O 0.22839 0.72362 -0.19539
 C209 C 0.21247 0.70678 -0.20135
 O210 O 0.30253 0.70814 -0.27909
 Zr211 Zr 0.28478 0.72035 -0.25026
 O212 O 0.27584 0.72724 -0.19498
 O213 O 0.22365 0.68016 -0.25258
 O214 O 0.28030 0.68192 -0.25125
 O215 O 0.32525 0.72671 -0.24896
 O216 O 0.29811 0.70639 -0.22064
 C217 C 0.29268 0.71134 -0.20093
 O218 O 0.22882 0.76635 -0.18824
 O219 O 0.27545 0.82090 -0.25059
 O220 O 0.27319 0.77396 -0.19500
 O221 O 0.29251 0.79763 -0.22050
 O222 O 0.21716 0.81918 -0.25110
 O223 O 0.19937 0.79579 -0.22133
 C224 C 0.28802 0.79168 -0.20084
 H225 H 0.24695 0.79848 -0.27773
 H226 H 0.20075 0.74869 -0.22139
 H227 H 0.30024 0.75226 -0.22240
 H228 H 0.25269 0.70489 -0.27921
 H229 H 0.16482 0.78789 -0.25326
 H230 H 0.17154 0.70243 -0.24923
 H231 H 0.20617 0.67274 -0.25180
 H232 H 0.29725 0.67460 -0.24751
 H233 H 0.19973 0.82563 -0.25456
 H234 H 0.29299 0.82822 -0.25111
 H235 H 0.32752 0.79876 -0.24854
 H236 H 0.33371 0.71094 -0.24559
 H237 H 0.18409 0.80600 -0.22469
 H238 H 0.23571 0.76042 -0.17432
 H239 H 0.26204 0.73945 -0.32617
 H240 H 0.31485 0.69483 -0.27576
 Zr241 Zr 1.25197 1.25191 0.78710
 O242 O 1.23120 1.23357 0.81159
 O243 O 1.27782 1.27319 0.80503
 O244 O 1.27634 1.22852 0.80477
 O245 O 1.20583 1.29663 0.77901
 O246 O 1.29652 1.20569 0.77920
 O247 O 1.22832 1.27596 0.80471
 O248 O 1.30271 1.29152 0.77948
 O249 O 1.28596 1.24939 0.76897
 O250 O 1.25378 1.28368 0.76863
 O251 O 1.24817 1.21964 0.76917
 O252 O 1.21722 1.25263 0.76927
 Zr253 Zr 1.24989 1.25000 0.71238
 Zr254 Zr 1.28131 1.21833 0.74986
 Zr255 Zr 1.22057 1.28362 0.74965
 Zr256 Zr 1.28676 1.28052 0.74978
 O257 O 1.17962 1.28315 0.74881
 O258 O 1.32678 1.27194 0.74906
 O259 O 1.25370 1.28257 0.73015
 O260 O 1.28429 1.24940 0.73045
 O261 O 1.24807 1.21799 0.73062
 O262 O 1.21615 1.25255 0.73074
 C263 C 1.29658 1.28712 0.79917
 C264 C 1.21140 1.29183 0.79872
 C265 C 1.29233 1.21179 0.79887
 O266 O 1.32220 1.21872 0.74779
 O267 O 1.29299 1.20261 0.72060
 O268 O 1.27182 1.22444 0.69489
 C269 C 1.28751 1.20750 0.70090
 O270 O 1.19711 1.20944 0.77855
 Zr271 Zr 1.21514 1.22142 0.74974
 O272 O 1.22419 1.22839 0.69447
 O273 O 1.27537 1.18023 0.75201
 O274 O 1.21882 1.18292 0.75070
 O275 O 1.17479 1.22839 0.74837
 O276 O 1.20161 1.20773 0.72011
 C277 C 1.20713 1.21264 0.70041
 O278 O 1.27183 1.26687 0.68776
 O279 O 1.22629 1.32183 0.75040
 O280 O 1.22799 1.27545 0.69465
 O281 O 1.20917 1.29924 0.72026
 O282 O 1.28471 1.31912 0.75094
 O283 O 1.30195 1.29565 0.72100
 C284 C 1.21375 1.29353 0.70056
 H285 H 1.25458 1.29873 0.77737
 H286 H 1.29967 1.24862 0.72099
 H287 H 1.20028 1.25378 0.72190
 H288 H 1.24701 1.20522 0.77870
 H289 H 1.33641 1.28697 0.75282
 H290 H 1.32801 1.20153 0.74868
 H291 H 1.29270 1.17252 0.75125
 H292 H 1.20172 1.17589 0.74698
 H293 H 1.30227 1.32524 0.75441
 H294 H 1.20888 1.32940 0.75091
 H295 H 1.17390 1.30038 0.74823
 H296 H 1.16605 1.21275 0.74500
 H297 H 1.31740 1.30563 0.72438
 H298 H 1.26478 1.26114 0.67383
 H299 H 1.23806 1.23942 0.82554
 H300 H 1.18454 1.19634 0.77522
 Zr301 Zr 0.74809 0.74822 0.78723
 O302 O 0.76889 0.76665 0.81161
 O303 O 0.72222 0.72706 0.80529
 O304 O 0.72375 0.77172 0.80481
 O305 O 0.79417 0.70341 0.77932
 O306 O 0.70359 0.79445 0.77916
 O307 O 0.77172 0.72423 0.80494
 O308 O 0.69727 0.70867 0.77985
 O309 O 0.71410 0.75069 0.76913
 O310 O 0.74623 0.71636 0.76892
 O311 O 0.75192 0.78042 0.76915
 O312 O 0.78283 0.74738 0.76938
 Zr313 Zr 0.75014 0.74980 0.71251
 Zr314 Zr 0.71877 0.78167 0.74986
 Zr315 Zr 0.77943 0.71631 0.74992
 Zr316 Zr 0.71325 0.71948 0.75009
 O317 O 0.82039 0.71672 0.74904
 O318 O 0.67324 0.72808 0.74933
 O319 O 0.74630 0.71730 0.73044
 O320 O 0.71575 0.75051 0.73060
 O321 O 0.75201 0.78189 0.73059
 O322 O 0.78388 0.74729 0.73086
 C323 C 0.70341 0.71316 0.79951
 C324 C 0.78862 0.70832 0.79901
 C325 C 0.70777 0.78843 0.79885
 O326 O 0.67788 0.78131 0.74784
 O327 O 0.70709 0.79726 0.72054
 O328 O 0.72822 0.77529 0.69491
 C329 C 0.71255 0.79227 0.70086
 O330 O 0.80298 0.79059 0.77844
 Zr331 Zr 0.78493 0.77851 0.74970
 O332 O 0.77585 0.77129 0.69448
 O333 O 0.72475 0.81977 0.75182
 O334 O 0.78130 0.81702 0.75046
 O335 O 0.82528 0.77150 0.74834
 O336 O 0.79847 0.79203 0.72000
 C337 C 0.79295 0.78703 0.70032
 O338 O 0.72817 0.73283 0.68800
 O339 O 0.77365 0.67811 0.75085
 O340 O 0.77203 0.72427 0.69488
 O341 O 0.79083 0.70056 0.72058
 O342 O 0.71525 0.68088 0.75146
 O343 O 0.69805 0.70422 0.72139
 C344 C 0.78627 0.70621 0.70087
 H345 H 0.74541 0.70136 0.77775
 H346 H 0.70036 0.75126 0.72116
 H347 H 0.79975 0.74601 0.72202
 H348 H 0.75310 0.79487 0.77862
 H349 H 0.66359 0.71308 0.75318
 H350 H 0.67209 0.79851 0.74864
 H351 H 0.70744 0.82750 0.75104
 H352 H 0.79840 0.82400 0.74669
 H353 H 0.69767 0.67480 0.75498
 H354 H 0.79105 0.67052 0.75138
 H355 H 0.82608 0.69948 0.74855
 H356 H 0.83403 0.78711 0.74490
 H357 H 0.68260 0.69426 0.72482
 H358 H 0.73522 0.73849 0.67403
 H359 H 0.76203 0.76087 0.82560
 H360 H 0.81555 0.80368 0.77504
 Zr361 Zr 1.25197 0.74815 0.21285
 O362 O 1.23127 0.76660 0.18840
 O363 O 1.27773 0.72685 0.19486
 O364 O 1.27642 0.77151 0.19520
 O365 O 1.20566 0.70351 0.22087
 O366 O 1.29669 0.79424 0.22078
 O367 O 1.22824 0.72421 0.19520
 O368 O 1.30256 0.70842 0.22036
 O369 O 1.28597 0.75056 0.23095
 O370 O 1.25366 0.71634 0.23126
 O371 O 1.24829 0.78040 0.23082
 O372 O 1.21721 0.74748 0.23068
 Zr373 Zr 1.24989 0.74992 0.28755
 Zr374 Zr 1.28143 0.78160 0.25012
 Zr375 Zr 1.22044 0.71644 0.25024
 Zr376 Zr 1.28665 0.71939 0.25009
 O377 O 1.17949 0.71700 0.25112
 O378 O 1.32670 0.72787 0.25080
 O379 O 1.25357 0.71737 0.26973
 O380 O 1.28430 0.75048 0.26947
 O381 O 1.24819 0.78198 0.26937
 O382 O 1.21614 0.74747 0.26921
 C383 C 1.29645 0.71287 0.20069
 C384 C 1.21126 0.70836 0.20116
 C385 C 1.29249 0.78818 0.20111
 O386 O 1.32232 0.78111 0.25217
 O387 O 1.29317 0.79723 0.27940
 O388 O 1.27189 0.77540 0.30507
 C389 C 1.28764 0.79231 0.29909
 O390 O 1.19727 0.79073 0.22148
 Zr391 Zr 1.21525 0.77866 0.25027
 O392 O 1.22427 0.77154 0.30551
 O393 O 1.27564 0.81972 0.24802
 O394 O 1.21907 0.81715 0.24937
 O395 O 1.17487 0.77178 0.25165
 O396 O 1.20177 0.79231 0.27992
 C397 C 1.20727 0.78733 0.29962
 O398 O 1.27178 0.73296 0.31212
 O399 O 1.22601 0.67821 0.24943
 O400 O 1.22792 0.72449 0.30525
 O401 O 1.20900 0.70078 0.27963
 O402 O 1.28447 0.68079 0.24888
 O403 O 1.30177 0.70417 0.27885
 C404 C 1.21361 0.70645 0.29932
 H405 H 1.25441 0.70131 0.22249
 H406 H 1.29968 0.75120 0.27892
 H407 H 1.20027 0.74626 0.27805
 H408 H 1.24718 0.79484 0.22131
 H409 H 1.33628 0.71282 0.24701
 H410 H 1.32819 0.79830 0.25130
 H411 H 1.29300 0.82739 0.24878
 H412 H 1.20199 0.82420 0.25311
 H413 H 1.30201 0.67465 0.24539
 H414 H 1.20857 0.67069 0.24892
 H415 H 1.17371 0.69978 0.25167
 H416 H 1.16620 0.78743 0.25504
 H417 H 1.31720 0.69417 0.27545
 H418 H 1.26475 0.73867 0.32607
 H419 H 1.23811 0.76077 0.17443
 H420 H 1.18475 0.80385 0.22484
 Zr421 Zr 0.74837 1.25180 0.21271
 O422 O 0.76898 1.23345 0.18817
 O423 O 0.72268 1.27332 0.19483
 O424 O 0.72384 1.22858 0.19500
 O425 O 0.79490 1.29620 0.22088
 O426 O 0.70349 1.20578 0.22055
 O427 O 0.77225 1.27578 0.19513
 O428 O 0.69796 1.29169 0.22042
 O429 O 0.71437 1.24940 0.23084
 O430 O 0.74683 1.28350 0.23124
 O431 O 0.75192 1.21943 0.23059
 O432 O 0.78313 1.25222 0.23054
 Zr433 Zr 0.75046 1.24954 0.28745
 Zr434 Zr 0.71878 1.21824 0.24991
 Zr435 Zr 0.78004 1.28315 0.25021
 Zr436 Zr 0.71383 1.28045 0.25009
 O437 O 0.82099 1.28242 0.25106
 O438 O 0.67374 1.27212 0.25080
 O439 O 0.74691 1.28221 0.26973
 O440 O 0.71605 1.24925 0.26938
 O441 O 0.75202 1.21760 0.26915
 O442 O 0.78420 1.25198 0.26908
 C443 C 0.70403 1.28734 0.20072
 C444 C 0.78931 1.29151 0.20116
 C445 C 0.70773 1.21191 0.20089
 O446 O 0.67789 1.21888 0.25196
 O447 O 0.70694 1.20247 0.27914
 O448 O 0.72830 1.22403 0.30490
 C449 C 0.71246 1.20723 0.29885
 O450 O 0.80288 1.20892 0.22120
 Zr451 Zr 0.78496 1.22092 0.25003
 O452 O 0.77601 1.22772 0.30531
 O453 O 0.72441 1.18011 0.24771
 O454 O 0.78096 1.18245 0.24902
 O455 O 0.82537 1.22766 0.25137
 O456 O 0.79842 1.20704 0.27962
 C457 C 0.79297 1.21191 0.29934
 O458 O 0.72866 1.26643 0.31211
 O459 O 0.77462 1.32139 0.24954
 O460 O 0.77256 1.27480 0.30522
 O461 O 0.79157 1.29858 0.27964
 O462 O 0.71621 1.31905 0.24902
 O463 O 0.69876 1.29556 0.27891
 C464 C 0.78695 1.29282 0.29932
 H465 H 0.74615 1.29859 0.22252
 H466 H 0.70066 1.24852 0.27883
 H467 H 0.80009 1.25308 0.27791
 H468 H 0.75297 1.20504 0.22104
 H469 H 0.66423 1.28723 0.24707
 H470 H 0.67194 1.20173 0.25105
 H471 H 0.70702 1.17250 0.24845
 H472 H 0.79801 1.17530 0.25273
 H473 H 0.69870 1.32530 0.24556
 H474 H 0.79208 1.32886 0.24904
 H475 H 0.82685 1.29962 0.25167
 H476 H 0.83399 1.21196 0.25472
 H477 H 0.68339 1.30564 0.27555
 H478 H 0.73568 1.26060 0.32603
 H479 H 0.76216 1.23940 0.17423
 H480 H 0.81535 1.19574 0.22451
 N481 N 0.54598 1.02567 0.02314
 N482 N 0.56368 1.04238 0.02741
 N483 N 0.52794 0.97441 0.03796
 N484 N 0.53307 0.95790 0.05278
 N485 N 0.54595 0.97442 0.02309
 N486 N 0.56383 0.95794 0.02742
 N487 N 0.52788 1.02566 0.03795
 N488 N 0.53276 1.04236 0.05264
 C489 C 0.55503 1.05283 0.04577
 C490 C 0.55539 0.94758 0.04588
 N491 N 0.45403 0.97437 0.02318
 N492 N 0.43640 0.95759 0.02742
 N493 N 0.47207 1.02561 0.03799
 N494 N 0.46690 1.04204 0.05285
 N495 N 0.45403 1.02562 0.02314
 N496 N 0.43612 1.04204 0.02753
 N497 N 0.47214 0.97437 0.03797
 N498 N 0.46735 0.95757 0.05261
 Mn499 Mn 0.50000 1.00001 0.03816
 C500 C 0.44511 0.94708 0.04575
 C501 C 0.44455 1.05234 0.04600
 N502 N 0.54593 0.97441 -0.02324
 N503 N 0.56363 0.95774 -0.02756
 N504 N 0.52791 1.02567 -0.03803
 N505 N 0.53299 1.04227 -0.05279
 N506 N 0.54594 1.02566 -0.02317
 N507 N 0.56376 1.04222 -0.02746
 N508 N 0.52782 0.97442 -0.03803
 N509 N 0.53268 0.95775 -0.05274
 Mn510 Mn 0.54621 1.00004 -0.00005
 C511 C 0.55496 0.94731 -0.04592
 C512 C 0.55528 1.05263 -0.04588
 N513 N 0.45401 1.02570 -0.02319
 N514 N 0.43634 1.04242 -0.02746
 N515 N 0.47200 0.97445 -0.03801
 N516 N 0.46682 0.95798 -0.05284
 N517 N 0.45398 0.97445 -0.02314
 N518 N 0.43607 0.95799 -0.02748
 N519 N 0.47211 1.02571 -0.03800
 N520 N 0.46726 1.04243 -0.05269
 Mn521 Mn 0.45375 1.00004 -0.00000
 Mn522 Mn 0.49996 1.00006 -0.03821
 Cl523 Cl 0.49998 1.00004 -0.00003
 C524 C 0.44501 1.05289 -0.04582
 C525 C 0.44448 0.94766 -0.04595
 N526 N 1.02717 0.52650 0.53800
 N527 N 1.04441 0.53177 0.55294
 N528 N 0.97268 0.54314 0.52320
 N529 N 0.95514 0.55994 0.52755
 N530 N 0.97277 0.52619 0.53810
 N531 N 0.95529 0.53101 0.55296
 N532 N 1.02705 0.54336 0.52303
 N533 N 1.04418 0.56051 0.52737
 C534 C 1.05510 0.55291 0.54595
 C535 C 0.94423 0.55199 0.54606
 N536 N 0.97262 0.52626 0.46200
 N537 N 0.95530 0.53135 0.44708
 N538 N 1.02697 0.54334 0.47679
 N539 N 1.04454 0.56016 0.47253
 N540 N 1.02702 0.52639 0.46192
 N541 N 1.04463 0.53122 0.44716
 N542 N 0.97260 0.54312 0.47695
 N543 N 0.95528 0.56009 0.47261
 Mn544 Mn 0.99982 0.54346 0.49999
 C545 C 0.94440 0.55238 0.45405
 C546 C 1.05561 0.55223 0.45410
 N547 N 0.97302 0.47357 0.53810
 N548 N 0.95563 0.46846 0.55298
 N549 N 1.02743 0.45691 0.52313
 N550 N 1.04499 0.44012 0.52741
 N551 N 1.02742 0.47386 0.53801
 N552 N 1.04499 0.46903 0.55279
 N553 N 0.97306 0.45672 0.52315
 N554 N 0.95572 0.43973 0.52744
 Mn555 Mn 1.00010 0.50003 0.53826
 C556 C 0.94478 0.44742 0.54597
 C557 C 1.05601 0.44806 0.54586
 N558 N 1.02719 0.47378 0.46191
 N559 N 1.04446 0.46871 0.44694
 N560 N 0.97292 0.45668 0.47691
 N561 N 0.95554 0.43971 0.47261
 N562 N 0.97279 0.47363 0.46202
 N563 N 0.95531 0.46864 0.44720
 N564 N 1.02729 0.45692 0.47688
 N565 N 1.04461 0.43996 0.47250
 Mn566 Mn 0.99990 0.50002 0.46175
 Mn567 Mn 1.00018 0.45659 0.50002
 Cl568 Cl 1.00000 0.50002 0.50001
 C569 C 1.05540 0.44769 0.45390
 C570 C 0.94449 0.44755 0.45413
 N571 N 1.02776 0.45709 0.02278
 N572 N 1.04509 0.44012 0.02720
 N573 N 0.97340 0.47405 0.03771
 N574 N 0.95618 0.46894 0.05272
 N575 N 0.97336 0.45714 0.02280
 N576 N 0.95613 0.44010 0.02729
 N577 N 1.02782 0.47406 0.03764
 N578 N 1.04521 0.46908 0.05253
 C579 C 1.05606 0.44798 0.04570
 C580 C 0.94533 0.44784 0.04588
 N581 N 0.97348 0.54370 0.02286
 N582 N 0.95613 0.56064 0.02733
 N583 N 1.02787 0.52667 0.03760
 N584 N 1.04528 0.53163 0.05248
 N585 N 1.02787 0.54362 0.02270
 N586 N 1.04527 0.56054 0.02705
 N587 N 0.97345 0.52669 0.03771
 N588 N 0.95608 0.53161 0.05264
 Mn589 Mn 1.00063 0.50037 0.03786
 C590 C 0.94520 0.55272 0.04584
 C591 C 1.05620 0.55268 0.04556
 N592 N 0.97327 0.45719 -0.02351
 N593 N 0.95587 0.44027 -0.02794
 N594 N 1.02768 0.47413 -0.03843
 N595 N 1.04508 0.46915 -0.05331
 N596 N 1.02766 0.45719 -0.02352
 N597 N 1.04503 0.44026 -0.02787
 N598 N 0.97326 0.47418 -0.03838
 N599 N 0.95586 0.46927 -0.05327
 Mn600 Mn 1.00051 0.45693 -0.00037
 C601 C 0.94493 0.44818 -0.04644
 C602 C 1.05597 0.44810 -0.04639
 N603 N 1.02782 0.54375 -0.02363
 N604 N 1.04498 0.56084 -0.02824
 N605 N 0.97336 0.52680 -0.03835
 N606 N 0.95585 0.53176 -0.05314
 N607 N 0.97342 0.54371 -0.02344
 N608 N 0.95597 0.56060 -0.02770
 N609 N 1.02778 0.52678 -0.03849
 N610 N 1.04492 0.53188 -0.05356
 Mn611 Mn 1.00065 0.54391 -0.00037
 Mn612 Mn 1.00052 0.50047 -0.03861
 Cl613 Cl 1.00058 0.50042 -0.00037
 C614 C 1.05575 0.55305 -0.04685
 C615 C 0.94495 0.55277 -0.04617
 N616 N 0.54555 1.02529 0.52341
 N617 N 0.56328 1.04195 0.52770
 N618 N 0.52769 0.97399 0.53826
 N619 N 0.53294 0.95748 0.55305
 N620 N 0.54566 0.97407 0.52334
 N621 N 0.56360 0.95764 0.52761
 N622 N 0.52750 1.02523 0.53826
 N623 N 0.53245 1.04185 0.55300
 C624 C 0.55471 1.05232 0.54611
 C625 C 0.55527 0.94724 0.54608
 N626 N 0.45375 0.97378 0.52357
 N627 N 0.43586 0.95731 0.52805
 N628 N 0.47168 1.02505 0.53834
 N629 N 0.46648 1.04152 0.55316
 N630 N 0.45368 1.02501 0.52347
 N631 N 0.43575 1.04143 0.52779
 N632 N 0.47185 0.97380 0.53837
 N633 N 0.46677 0.95735 0.55326
 Mn634 Mn 0.49969 0.99952 0.53850
 C635 C 0.44440 0.94700 0.54652
 C636 C 0.44414 1.05179 0.54625
 N637 N 0.54563 0.97407 0.47705
 N638 N 0.56343 0.95751 0.47272
 N639 N 0.52750 1.02527 0.46224
 N640 N 0.53279 1.04159 0.44728
 N641 N 0.54552 1.02530 0.47710
 N642 N 0.56352 1.04163 0.47263
 N643 N 0.52753 0.97402 0.46226
 N644 N 0.53251 0.95743 0.44751
 Mn645 Mn 0.54584 0.99968 0.50023
 C646 C 0.55484 0.94708 0.45433
 C647 C 0.55518 1.05187 0.45410
 N648 N 0.45361 1.02509 0.47718
 N649 N 0.43584 1.04171 0.47291
 N650 N 0.47172 0.97392 0.46235
 N651 N 0.46653 0.95746 0.44752
 N652 N 0.45374 0.97386 0.47726
 N653 N 0.43585 0.95739 0.47294
 N654 N 0.47168 1.02516 0.46235
 N655 N 0.46671 1.04183 0.44764
 Mn656 Mn 0.45345 0.99943 0.50037
 Mn657 Mn 0.49960 0.99959 0.46210
 Cl658 Cl 0.49964 0.99955 0.50030
 C659 C 0.44441 1.05219 0.45453
 C660 C 0.44423 0.94710 0.45445
 N661 N 1.04632 1.02524 0.52344
 N662 N 1.06392 1.04205 0.52763
 N663 N 1.02808 0.97399 0.53823
 N664 N 1.03270 0.95715 0.55285
 N665 N 1.04625 0.97397 0.52349
 N666 N 1.06378 0.95711 0.52775
 N667 N 1.02819 1.02525 0.53821
 N668 N 1.03295 1.04207 0.55282
 C669 C 1.05518 1.05257 0.54592
 C670 C 1.05492 0.94659 0.54604
 N671 N 0.95427 0.97407 0.52331
 N672 N 0.93669 0.95720 0.52742
 N673 N 0.97243 1.02530 0.53812
 N674 N 0.96782 1.04223 0.55265
 N675 N 0.95434 1.02534 0.52333
 N676 N 0.93687 1.04230 0.52745
 N677 N 0.97232 0.97405 0.53814
 N678 N 0.96754 0.95716 0.55270
 Mn679 Mn 1.00025 0.99965 0.53837
 C680 C 0.94537 0.94663 0.54572
 C681 C 0.94569 1.05285 0.54572
 N682 N 1.04636 0.97402 0.47713
 N683 N 1.06397 0.95723 0.47294
 N684 N 1.02830 1.02531 0.46232
 N685 N 1.03285 1.04236 0.44787
 N686 N 1.04641 1.02529 0.47710
 N687 N 1.06381 1.04235 0.47305
 N688 N 1.02830 0.97405 0.46231
 N689 N 1.03311 0.95728 0.44768
 Mn690 Mn 1.04662 0.99963 0.50029
 C691 C 1.05530 0.94676 0.45460
 C692 C 1.05496 1.05300 0.45483
 N693 N 0.95442 1.02534 0.47698
 N694 N 0.93677 1.04206 0.47269
 N695 N 0.97254 0.97408 0.46224
 N696 N 0.96796 0.95714 0.44771
 N697 N 0.95437 0.97407 0.47698
 N698 N 0.93689 0.95713 0.47281
 N699 N 0.97255 1.02533 0.46220
 N700 N 0.96773 1.04205 0.44750
 Mn701 Mn 0.95407 0.99971 0.50015
 Mn702 Mn 1.00043 0.99969 0.46207
 Cl703 Cl 1.00034 0.99967 0.50022
 C704 C 0.94547 1.05252 0.45433
 C705 C 0.94576 0.94656 0.45458
 N706 N 0.54575 0.52569 0.02308
 N707 N 0.56317 0.54270 0.02714
 N708 N 0.52759 0.47441 0.03779
 N709 N 0.53195 0.45723 0.05215
 N710 N 0.54576 0.47444 0.02306
 N711 N 0.56303 0.45727 0.02704
 N712 N 0.52764 0.52564 0.03786
 N713 N 0.53221 0.54263 0.05235
 C714 C 0.55433 0.55327 0.04537
 C715 C 0.55401 0.44655 0.04518
 N716 N 0.45384 0.47442 0.02297
 N717 N 0.43648 0.45732 0.02692
 N718 N 0.47197 0.52562 0.03781
 N719 N 0.46769 0.54286 0.05211
 N720 N 0.45383 0.52567 0.02305
 N721 N 0.43666 0.54294 0.02697
 N722 N 0.47192 0.47440 0.03776
 N723 N 0.46739 0.45727 0.05216
 Mn724 Mn 0.49978 0.50002 0.03802
 C725 C 0.44533 0.44662 0.04511
 C726 C 0.44570 0.55364 0.04509
 N727 N 0.54581 0.47459 -0.02323
 N728 N 0.56325 0.45762 -0.02729
 N729 N 0.52763 0.52585 -0.03794
 N730 N 0.53184 0.54324 -0.05215
 N731 N 0.54576 0.52584 -0.02319
 N732 N 0.56286 0.54323 -0.02700
 N733 N 0.52773 0.47463 -0.03804
 N734 N 0.53235 0.45766 -0.05253
 Mn735 Mn 0.54607 0.50014 -0.00007
 C736 C 0.55446 0.44705 -0.04554
 C737 C 0.55379 0.55405 -0.04506
 N738 N 0.45385 0.52574 -0.02324
 N739 N 0.43632 0.54262 -0.02735
 N740 N 0.47207 0.47455 -0.03805
 N741 N 0.46784 0.45731 -0.05235
 N742 N 0.45390 0.47449 -0.02331
 N743 N 0.43675 0.45718 -0.02724
 N744 N 0.47196 0.52578 -0.03802
 N745 N 0.46728 0.54271 -0.05255
 Mn746 Mn 0.45355 0.50008 -0.00013
 Mn747 Mn 0.49985 0.50020 -0.03822
 Cl748 Cl 0.49981 0.50011 -0.00010
 C749 C 0.44510 0.55323 -0.04560
 C750 C 0.44584 0.44649 -0.04534
 C751 C 0.33087 1.16103 0.17407
 C752 C 0.32882 1.16780 0.15249
 C753 C 0.31298 1.18742 0.14667
 C754 C 0.29944 1.20039 0.16242
 C755 C 0.30162 1.19389 0.18423
 C756 C 0.31740 1.17394 0.18983
 C757 C 0.34340 1.15475 0.13651
 C758 C 0.35602 1.14350 0.12361
 C759 C 0.37116 1.12987 0.10908
 C760 C 0.38431 1.11779 0.09715
 C761 C 0.40014 1.10276 0.08351
 C762 C 0.39071 1.09466 0.06369
 C763 C 0.40547 1.07871 0.05116
 C764 C 0.42980 1.07064 0.05837
 C765 C 0.43938 1.07933 0.07805
 C766 C 0.42461 1.09527 0.09054
 H767 H 0.34307 1.14587 0.17875
 H768 H 0.31127 1.19282 0.13000
 H769 H 0.28754 1.21566 0.15752
 H770 H 0.31956 1.16840 0.20641
 H771 H 0.37177 1.10030 0.05812
 H772 H 0.39762 1.07232 0.03606
 H773 H 0.45806 1.07344 0.08399
 H774 H 0.43208 1.10139 0.10586
 C775 C 0.82578 0.65655 0.67401
 C776 C 0.82287 0.66242 0.65230
 C777 C 0.80773 0.68249 0.64636
 C778 C 0.79564 0.69670 0.66210
 C779 C 0.79860 0.69101 0.68402
 C780 C 0.81376 0.67069 0.68975
 C781 C 0.83597 0.64804 0.63630
 C782 C 0.84751 0.63576 0.62342
 C783 C 0.86171 0.62119 0.60892
 C784 C 0.87443 0.60867 0.59703
 C785 C 0.89038 0.59370 0.58341
 C786 C 0.89889 0.60249 0.56352
 C787 C 0.91591 0.58862 0.55104
 C788 C 0.92469 0.56582 0.55838
 C789 C 0.91556 0.55687 0.57813
 C790 C 0.89853 0.57075 0.59057
 H791 H 0.83749 0.64108 0.67879
 H792 H 0.80540 0.68724 0.62959
 H793 H 0.78415 0.71221 0.65710
 H794 H 0.81648 0.66572 0.70642
 H795 H 0.89276 0.62026 0.55785
 H796 H 0.92263 0.59597 0.53589
 H797 H 0.92197 0.53936 0.58418
 H798 H 0.89213 0.56379 0.60596
 C799 C 0.68684 0.81208 0.14636
 C800 C 0.67098 0.83170 0.15213
 C801 C 0.66893 0.83851 0.17369
 C802 C 0.68242 0.82565 0.18947
 C803 C 0.69822 0.80570 0.18392
 C804 C 0.70041 0.79916 0.16213
 C805 C 0.65640 0.84472 0.13613
 C806 C 0.64378 0.85598 0.12323
 C807 C 0.62865 0.86964 0.10871
 C808 C 0.61551 0.88177 0.09680
 C809 C 0.59969 0.89687 0.08321
 C810 C 0.57525 0.90439 0.09029
 C811 C 0.56051 0.92042 0.07786
 C812 C 0.57009 0.92918 0.05819
 C813 C 0.59439 0.92107 0.05092
 C814 C 0.60912 0.90503 0.06340
 H815 H 0.68855 0.80665 0.12970
 H816 H 0.65672 0.85368 0.17834
 H817 H 0.68027 0.83123 0.20604
 H818 H 0.71232 0.78389 0.15728
 H819 H 0.56779 0.89822 0.10562
 H820 H 0.54186 0.92634 0.08384
 H821 H 0.60224 0.92752 0.03583
 H822 H 0.62804 0.89937 0.05778
 C823 C 1.19242 0.31719 0.64598
 C824 C 1.17731 0.33729 0.65186
 C825 C 1.17436 0.34319 0.67355
 C826 C 1.18631 0.32904 0.68934
 C827 C 1.20145 0.30869 0.68367
 C828 C 1.20445 0.30297 0.66177
 C829 C 1.16430 0.35170 0.63584
 C830 C 1.15280 0.36402 0.62295
 C831 C 1.13865 0.37865 0.60846
 C832 C 1.12594 0.39123 0.59659
 C833 C 1.11000 0.40626 0.58301
 C834 C 1.10189 0.42920 0.59020
 C835 C 1.08483 0.44312 0.57782
 C836 C 1.07561 0.43422 0.55810
 C837 C 1.08435 0.41143 0.55073
 C838 C 1.10141 0.39752 0.56314
 H839 H 1.19479 0.31243 0.62922
 H840 H 1.16267 0.35868 0.67829
 H841 H 1.18357 0.33404 0.70600
 H842 H 1.21593 0.28745 0.65681
 H843 H 1.10835 0.43612 0.60558
 H844 H 1.07845 0.46061 0.58390
 H845 H 1.07757 0.40412 0.53559
 H846 H 1.10750 0.37976 0.55745
 C847 C 0.68673 1.18836 -0.14626
 C848 C 0.67087 1.16871 -0.15197
 C849 C 0.66885 1.16179 -0.17350
 C850 C 0.68236 1.17458 -0.18932
 C851 C 0.69816 1.19456 -0.18384
 C852 C 0.70033 1.20121 -0.16207
 C853 C 0.65626 1.15576 -0.13593
 C854 C 0.64361 1.14454 -0.12301
 C855 C 0.62844 1.13091 -0.10849
 C856 C 0.61528 1.11878 -0.09659
 C857 C 0.59946 1.10364 -0.08302
 C858 C 0.57504 1.09608 -0.09013
 C859 C 0.56033 1.07995 -0.07775
 C860 C 0.56992 1.07115 -0.05811
 C861 C 0.59418 1.07931 -0.05081
 C862 C 0.60889 1.09544 -0.06324
 H863 H 0.68843 1.19387 -0.12962
 H864 H 0.65663 1.14659 -0.17809
 H865 H 0.68023 1.16892 -0.20587
 H866 H 0.71225 1.21651 -0.15727
 H867 H 0.56759 1.10227 -0.10545
 H868 H 0.54170 1.07399 -0.08376
 H869 H 0.60204 1.07283 -0.03574
 H870 H 0.62779 1.10114 -0.05761
 C871 C 1.17412 0.65685 0.32638
 C872 C 1.17718 0.66272 0.34806
 C873 C 1.19239 0.68277 0.35392
 C874 C 1.20441 0.69698 0.33812
 C875 C 1.20131 0.69130 0.31622
 C876 C 1.18607 0.67099 0.31057
 C877 C 1.16418 0.64833 0.36412
 C878 C 1.15269 0.63605 0.37705
 C879 C 1.13853 0.62147 0.39157
 C880 C 1.12580 0.60893 0.40347
 C881 C 1.10982 0.59393 0.41705
 C882 C 1.10110 0.60275 0.43685
 C883 C 1.08396 0.58888 0.44924
 C884 C 1.07528 0.56605 0.44190
 C885 C 1.08464 0.55707 0.42225
 C886 C 1.10177 0.57095 0.40990
 H887 H 1.16235 0.64139 0.32166
 H888 H 1.19483 0.68751 0.37068
 H889 H 1.21597 0.71247 0.34306
 H890 H 1.18325 0.66603 0.29392
 H891 H 1.10714 0.62055 0.44251
 H892 H 1.07708 0.59624 0.46432
 H893 H 1.07830 0.53954 0.41621
 H894 H 1.10834 0.56398 0.39457
 C895 C 0.33080 0.83859 -0.17359
 C896 C 0.32874 0.83171 -0.15204
 C897 C 0.31285 0.81207 -0.14630
 C898 C 0.29926 0.79921 -0.16210
 C899 C 0.30144 0.80584 -0.18387
 C900 C 0.31728 0.82580 -0.18939
 C901 C 0.34333 0.84470 -0.13603
 C902 C 0.35596 0.85597 -0.12314
 C903 C 0.37112 0.86966 -0.10865
 C904 C 0.38427 0.88182 -0.09678
 C905 C 0.40010 0.89695 -0.08322
 C906 C 0.42453 0.90452 -0.09033
 C907 C 0.43929 0.92056 -0.07793
 C908 C 0.42974 0.92928 -0.05825
 C909 C 0.40546 0.92114 -0.05095
 C910 C 0.39071 0.90509 -0.06340
 H911 H 0.34303 0.85377 -0.17822
 H912 H 0.31113 0.80658 -0.12965
 H913 H 0.28731 0.78393 -0.15727
 H914 H 0.31944 0.83145 -0.20595
 H915 H 0.43196 0.89837 -0.10566
 H916 H 0.45793 0.92650 -0.08394
 H917 H 0.39763 0.92755 -0.03585
 H918 H 0.37180 0.89940 -0.05776
 C919 C 0.82674 0.34218 0.32638
 C920 C 0.82369 0.33628 0.34807
 C921 C 0.80841 0.31625 0.35394
 C922 C 0.79629 0.30213 0.33814
 C923 C 0.79937 0.30786 0.31624
 C924 C 0.81470 0.32813 0.31058
 C925 C 0.83674 0.35063 0.36411
 C926 C 0.84825 0.36293 0.37701
 C927 C 0.86239 0.37757 0.39149
 C928 C 0.87506 0.39019 0.40336
 C929 C 0.89092 0.40531 0.41693
 C930 C 0.89959 0.39660 0.43679
 C931 C 0.91652 0.41064 0.44922
 C932 C 0.92504 0.43353 0.44186
 C933 C 0.91576 0.44238 0.42214
 C934 C 0.89883 0.42834 0.40975
 H935 H 0.83855 0.35761 0.32165
 H936 H 0.80596 0.31149 0.37069
 H937 H 0.78467 0.28667 0.34308
 H938 H 0.81751 0.33313 0.29393
 H939 H 0.89365 0.37878 0.44249
 H940 H 0.92335 0.40336 0.46436
 H941 H 0.92197 0.45995 0.41607
 H942 H 0.89230 0.43524 0.39438
 C943 C 1.19474 0.31930 0.14664
 C944 C 1.17697 0.33738 0.15253
 C945 C 1.17147 0.34128 0.17424
 C946 C 1.18350 0.32715 0.19000
 C947 C 1.20129 0.30880 0.18430
 C948 C 1.20684 0.30510 0.16240
 C949 C 1.16392 0.35175 0.13646
 C950 C 1.15238 0.36399 0.12352
 C951 C 1.13816 0.37851 0.10895
 C952 C 1.12544 0.39100 0.09699
 C953 C 1.10953 0.40598 0.08330
 C954 C 1.10161 0.42905 0.09030
 C955 C 1.08470 0.44300 0.07779
 C956 C 1.07544 0.43401 0.05811
 C957 C 1.08396 0.41106 0.05094
 C958 C 1.10087 0.39712 0.06349
 H959 H 1.19913 0.31610 0.12987
 H960 H 1.15773 0.35520 0.17899
 H961 H 1.17873 0.33056 0.20665
 H962 H 1.22046 0.29119 0.15743
 H963 H 1.10812 0.43608 0.10563
 H964 H 1.07850 0.46061 0.08372
 H965 H 1.07714 0.40367 0.03585
 H966 H 1.10681 0.37926 0.05793
 C967 C 0.69028 0.81481 0.64624
 C968 C 0.67247 0.83283 0.65211
 C969 C 0.66839 0.83810 0.67380
 C970 C 0.68176 0.82521 0.68962
 C971 C 0.69945 0.80676 0.68396
 C972 C 0.70373 0.80185 0.66206
 C973 C 0.65786 0.84570 0.63605
 C974 C 0.64511 0.85679 0.62313
 C975 C 0.62973 0.87020 0.60864
 C976 C 0.61634 0.88211 0.59677
 C977 C 0.60023 0.89696 0.58323
 C978 C 0.57583 0.90439 0.59049
 C979 C 0.56084 0.92026 0.57811
 C980 C 0.57014 0.92894 0.55832
 C981 C 0.59438 0.92090 0.55088
 C982 C 0.60936 0.90503 0.56330
 H983 H 0.69358 0.81060 0.62947
 H984 H 0.65465 0.85204 0.67851
 H985 H 0.67797 0.82952 0.70628
 H986 H 0.71720 0.78781 0.65712
 H987 H 0.56861 0.89828 0.60592
 H988 H 0.54224 0.92613 0.58422
 H989 H 0.60202 0.92729 0.53569
 H990 H 0.62824 0.89943 0.55756
 C991 C 1.19383 0.68227 -0.14827
 C992 C 1.17619 0.66415 -0.15425
 C993 C 1.17099 0.66018 -0.17597
 C994 C 1.18317 0.67429 -0.19170
 C995 C 1.20095 0.69287 -0.18603
 C996 C 1.20613 0.69649 -0.16395
 C997 C 1.16297 0.64975 -0.13824
 C998 C 1.15133 0.63749 -0.12534
 C999 C 1.13706 0.62295 -0.11076
 C1000 C 1.12435 0.61044 -0.09878
 C1001 C 1.10852 0.59541 -0.08500
 C1002 C 1.10057 0.57232 -0.09195
 C1003 C 1.08387 0.55827 -0.07928
 C1004 C 1.07486 0.56718 -0.05949
 C1005 C 1.08338 0.59017 -0.05239
 C1006 C 1.10008 0.60420 -0.06510
 H1007 H 1.19801 0.68551 -0.13148
 H1008 H 1.15735 0.64620 -0.18080
 H1009 H 1.17842 0.67057 -0.20831
 H1010 H 1.21961 0.71038 -0.15863
 H1011 H 1.10691 0.56533 -0.10734
 H1012 H 1.07766 0.54064 -0.08517
 H1013 H 1.07676 0.59750 -0.03722
 H1014 H 1.10604 0.62207 -0.05956
 C1015 C 0.66793 1.16136 0.32563
 C1016 C 0.67216 1.16629 0.34736
 C1017 C 0.69016 1.18412 0.35334
 C1018 C 0.70364 1.19722 0.33760
 C1019 C 0.69923 1.19264 0.31566
 C1020 C 0.68134 1.17439 0.30989
 C1021 C 0.65758 1.15323 0.36336
 C1022 C 0.64486 1.14202 0.37625
 C1023 C 0.62955 1.12850 0.39077
 C1024 C 0.61623 1.11654 0.40270
 C1025 C 0.60019 1.10170 0.41636
 C1026 C 0.60939 1.09379 0.43632
 C1027 C 0.59442 1.07804 0.44891
 C1028 C 0.57011 1.06998 0.44163
 C1029 C 0.56076 1.07848 0.42180
 C1030 C 0.57574 1.09422 0.40925
 H1031 H 0.65406 1.14758 0.32082
 H1032 H 0.69359 1.18807 0.37014
 H1033 H 0.71727 1.21110 0.34264
 H1034 H 0.67744 1.17034 0.29319
 H1035 H 0.62830 1.09943 0.44196
 H1036 H 0.60209 1.07180 0.46412
 H1037 H 0.54211 1.07258 0.41580
 H1038 H 0.56846 1.10020 0.39381
 C1039 C 0.80576 0.68068 0.14669
 C1040 C 0.82362 0.66269 0.15264
 C1041 C 0.82908 0.65882 0.17436
 C1042 C 0.81692 0.67290 0.19008
 C1043 C 0.79906 0.69117 0.18433
 C1044 C 0.79353 0.69482 0.16242
 C1045 C 0.83680 0.64839 0.13661
 C1046 C 0.84846 0.63622 0.12369
 C1047 C 0.86279 0.62179 0.10913
 C1048 C 0.87560 0.60938 0.09718
 C1049 C 0.89160 0.59449 0.08350
 C1050 C 0.89960 0.57143 0.09049
 C1051 C 0.91656 0.55756 0.07797
 C1052 C 0.92579 0.56663 0.05828
 C1053 C 0.91721 0.58957 0.05112
 C1054 C 0.90024 0.60343 0.06369
 H1055 H 0.80139 0.68385 0.12992
 H1056 H 0.84288 0.64498 0.17916
 H1057 H 0.82167 0.66952 0.20675
 H1058 H 0.77987 0.70867 0.15740
 H1059 H 0.89310 0.56434 0.10581
 H1060 H 0.92282 0.53995 0.08388
 H1061 H 0.92400 0.59701 0.03603
 H1062 H 0.89424 0.62128 0.05814
 C1063 C 0.33167 1.16155 0.67402
 C1064 C 0.32750 1.16666 0.65230
 C1065 C 0.30965 1.18462 0.64637
 C1066 C 0.29624 1.19768 0.66214
 C1067 C 0.30061 1.19292 0.68406
 C1068 C 0.31834 1.17455 0.68979
 C1069 C 0.34204 1.15367 0.63628
 C1070 C 0.35473 1.14249 0.62339
 C1071 C 0.37003 1.12899 0.60890
 C1072 C 0.38334 1.11701 0.59704
 C1073 C 0.39936 1.10210 0.58348
 C1074 C 0.39015 1.09406 0.56359
 C1075 C 0.40506 1.07816 0.55114
 C1076 C 0.42931 1.07008 0.55852
 C1077 C 0.43869 1.07873 0.57828
 C1078 C 0.42376 1.09463 0.59068
 H1079 H 0.34544 1.14766 0.67878
 H1080 H 0.30627 1.18870 0.62959
 H1081 H 0.28273 1.21166 0.65715
 H1082 H 0.32220 1.17036 0.70647
 H1083 H 0.37126 1.09969 0.55789
 H1084 H 0.39737 1.07179 0.53598
 H1085 H 0.45730 1.07283 0.58435
 H1086 H 0.43105 1.10071 0.60608
 C1087 C 0.80564 0.31982 -0.14701
 C1088 C 0.82352 0.33779 -0.15301
 C1089 C 0.82905 0.34154 -0.17474
 C1090 C 0.81693 0.32737 -0.19042
 C1091 C 0.79904 0.30912 -0.18462
 C1092 C 0.79345 0.30558 -0.16270
 C1093 C 0.83665 0.35219 -0.13702
 C1094 C 0.84826 0.36444 -0.12414
 C1095 C 0.86254 0.37894 -0.10961
 C1096 C 0.87532 0.39141 -0.09768
 C1097 C 0.89130 0.40634 -0.08401
 C1098 C 0.89992 0.39744 -0.06419
 C1099 C 0.91689 0.41133 -0.05165
 C1100 C 0.92550 0.43426 -0.05884
 C1101 C 0.91628 0.44329 -0.07853
 C1102 C 0.89932 0.42940 -0.09103
 H1103 H 0.80122 0.31674 -0.13023
 H1104 H 0.84287 0.35537 -0.17958
 H1105 H 0.82173 0.33065 -0.20710
 H1106 H 0.77976 0.29176 -0.15764
 H1107 H 0.89391 0.37960 -0.05862
 H1108 H 0.92367 0.40391 -0.03655
 H1109 H 0.92256 0.46089 -0.08448
 H1110 H 0.89283 0.43646 -0.10636
 C1111 C 0.33199 0.83801 0.32613
 C1112 C 0.32766 0.83291 0.34783
 C1113 C 0.30964 0.81504 0.35369
 C1114 C 0.29624 0.80206 0.33787
 C1115 C 0.30076 0.80681 0.31596
 C1116 C 0.31866 0.82509 0.31030
 C1117 C 0.34218 0.84580 0.36391
 C1118 C 0.35486 0.85687 0.37688
 C1119 C 0.37014 0.87026 0.39146
 C1120 C 0.38344 0.88213 0.40341
 C1121 C 0.39947 0.89694 0.41705
 C1122 C 0.39023 0.90490 0.43697
 C1123 C 0.40514 0.92073 0.44948
 C1124 C 0.42942 0.92882 0.44214
 C1125 C 0.43883 0.92025 0.42237
 C1126 C 0.42391 0.90441 0.40990
 H1127 H 0.34589 0.85182 0.32142
 H1128 H 0.30613 0.81097 0.37046
 H1129 H 0.28259 0.78815 0.34281
 H1130 H 0.32264 0.82927 0.29364
 H1131 H 0.37131 0.89926 0.44262
 H1132 H 0.39743 0.92705 0.46465
 H1133 H 0.45747 0.92616 0.41634
 H1134 H 0.43121 0.89839 0.39449
 C1135 C 1.15568 1.17316 0.32746
 C1136 C 1.16215 1.17635 0.34907
 C1137 C 1.18230 1.19218 0.35469
 C1138 C 1.19609 1.20459 0.33872
 C1139 C 1.18992 1.20127 0.31689
 C1140 C 1.16942 1.18551 0.31148
 C1141 C 1.14845 1.16282 0.36531
 C1142 C 1.13680 1.15090 0.37840
 C1143 C 1.12293 1.13627 0.39309
 C1144 C 1.11086 1.12322 0.40504
 C1145 C 1.09619 1.10695 0.41851
 C1146 C 1.10674 1.09796 0.43764
 C1147 C 1.09306 1.08080 0.44984
 C1148 C 1.06873 1.07239 0.44294
 C1149 C 1.05805 1.08193 0.42396
 C1150 C 1.07171 1.09908 0.41183
 H1151 H 1.14014 1.16092 0.32293
 H1152 H 1.18750 1.19476 0.37138
 H1153 H 1.21174 1.21658 0.34349
 H1154 H 1.16409 1.18251 0.29488
 H1155 H 1.12572 1.10387 0.44292
 H1156 H 1.10174 1.07375 0.46439
 H1157 H 1.03933 1.07583 0.41827
 H1158 H 1.06338 1.10586 0.39703
 C1159 C 0.65350 0.67356 -0.17255
 C1160 C 0.65979 0.67727 -0.15097
 C1161 C 0.67997 0.69309 -0.14549
 C1162 C 0.69401 0.70501 -0.16157
 C1163 C 0.68804 0.70118 -0.18338
 C1164 C 0.66748 0.68543 -0.18866
 C1165 C 0.64596 0.66417 -0.13458
 C1166 C 0.63429 0.65256 -0.12132
 C1167 C 0.62047 0.63820 -0.10644
 C1168 C 0.60850 0.62526 -0.09437
 C1169 C 0.59399 0.60898 -0.08084
 C1170 C 0.60488 0.59975 -0.06193
 C1171 C 0.59149 0.58230 -0.04985
 C1172 C 0.56714 0.57385 -0.05668
 C1173 C 0.55609 0.58371 -0.07538
 C1174 C 0.56946 0.60115 -0.08738
 H1175 H 0.63793 0.66130 -0.17695
 H1176 H 0.68502 0.69604 -0.12882
 H1177 H 0.70967 0.71703 -0.15691
 H1178 H 0.66232 0.68206 -0.20524
 H1179 H 0.62392 0.60563 -0.05678
 H1180 H 0.60043 0.57501 -0.03550
 H1181 H 0.53734 0.57759 -0.08098
 H1182 H 0.56091 0.60812 -0.10203
 C1183 C 0.81782 1.19140 0.64582
 C1184 C 0.83788 1.17553 0.65157
 C1185 C 0.84421 1.17238 0.67322
 C1186 C 0.83044 1.18482 0.68910
 C1187 C 0.81004 1.20064 0.68356
 C1188 C 0.80399 1.20390 0.66169
 C1189 C 0.85166 1.16196 0.63542
 C1190 C 0.86338 1.15005 0.62239
 C1191 C 0.87734 1.13547 0.60773
 C1192 C 0.88946 1.12249 0.59579
 C1193 C 0.90420 1.10633 0.58229
 C1194 C 0.92867 1.09846 0.58898
 C1195 C 0.94242 1.08147 0.57678
 C1196 C 0.93183 1.07208 0.55771
 C1197 C 0.90749 1.08047 0.55082
 C1198 C 0.89373 1.09748 0.56308
 H1199 H 0.81273 1.19395 0.62910
 H1200 H 0.85968 1.16012 0.67785
 H1201 H 0.83567 1.18186 0.70573
 H1202 H 0.78844 1.21592 0.65682
 H1203 H 0.93694 1.10514 0.60384
 H1204 H 0.96114 1.07538 0.58247
 H1205 H 0.89887 1.07354 0.53620
 H1206 H 0.87477 1.10339 0.55779
 C1207 C 0.31970 0.69245 0.14576
 C1208 C 0.33977 0.67653 0.15129
 C1209 C 0.34605 0.67288 0.17289
 C1210 C 0.33217 0.68489 0.18895
 C1211 C 0.31172 0.70074 0.18362
 C1212 C 0.30576 0.70451 0.16180
 C1213 C 0.35352 0.66332 0.13495
 C1214 C 0.36514 0.65166 0.12171
 C1215 C 0.37890 0.63728 0.10683
 C1216 C 0.39084 0.62435 0.09475
 C1217 C 0.40534 0.60813 0.08118
 C1218 C 0.42988 0.60031 0.08768
 C1219 C 0.44329 0.58301 0.07559
 C1220 C 0.43227 0.57328 0.05683
 C1221 C 0.40789 0.58170 0.05006
 C1222 C 0.39447 0.59901 0.06223
 H1223 H 0.31465 0.69536 0.12907
 H1224 H 0.36154 0.66055 0.17734
 H1225 H 0.33732 0.68156 0.20554
 H1226 H 0.29018 0.71659 0.15709
 H1227 H 0.43843 0.60719 0.10236
 H1228 H 0.46206 0.57690 0.08116
 H1229 H 0.39897 0.57451 0.03567
 H1230 H 0.37542 0.60489 0.05710
 C1231 C 1.18266 0.80860 0.64703
 C1232 C 1.16287 0.82472 0.65275
 C1233 C 1.15678 0.82814 0.67439
 C1234 C 1.17051 0.81573 0.69032
 C1235 C 1.19082 0.79954 0.68492
 C1236 C 1.19649 0.79608 0.66289
 C1237 C 1.14908 0.83826 0.63656
 C1238 C 1.13736 0.85012 0.62347
 C1239 C 1.12341 0.86461 0.60873
 C1240 C 1.11128 0.87751 0.59670
 C1241 C 1.09653 0.89354 0.58307
 C1242 C 1.07198 0.90132 0.58963
 C1243 C 1.05820 0.91817 0.57728
 C1244 C 1.06883 0.92751 0.55819
 C1245 C 1.09326 0.91920 0.55143
 C1246 C 1.10705 0.90234 0.56384
 H1247 H 1.18754 0.80582 0.63030
 H1248 H 1.14148 0.84061 0.67900
 H1249 H 1.16519 0.81909 0.70688
 H1250 H 1.21177 0.78387 0.65776
 H1251 H 1.06366 0.89469 0.60450
 H1252 H 1.03941 0.92420 0.58288
 H1253 H 1.10192 0.92609 0.53680
 H1254 H 1.12608 0.89649 0.55864
 C1255 C 0.68071 0.30813 0.14590
 C1256 C 0.66069 0.32407 0.15151
 C1257 C 0.65450 0.32764 0.17314
 C1258 C 0.66840 0.31551 0.18914
 C1259 C 0.68877 0.29963 0.18372
 C1260 C 0.69466 0.29596 0.16187
 C1261 C 0.64687 0.33734 0.13523
 C1262 C 0.63519 0.34903 0.12203
 C1263 C 0.62134 0.36340 0.10718
 C1264 C 0.60933 0.37628 0.09509
 C1265 C 0.59474 0.39242 0.08149
 C1266 C 0.57015 0.40015 0.08799
 C1267 C 0.55663 0.41733 0.07583
 C1268 C 0.56758 0.42703 0.05701
 C1269 C 0.59200 0.41871 0.05025
 C1270 C 0.60554 0.40152 0.06249
 H1271 H 0.68569 0.30528 0.12919
 H1272 H 0.63905 0.33998 0.17766
 H1273 H 0.66330 0.31877 0.20575
 H1274 H 0.71018 0.28385 0.15710
 H1275 H 0.56165 0.39328 0.10270
 H1276 H 0.53783 0.42336 0.08139
 H1277 H 0.60087 0.42589 0.03582
 H1278 H 0.62461 0.39571 0.05736
 C1279 C 0.84432 0.82736 0.32684
 C1280 C 0.83799 0.82412 0.34849
 C1281 C 0.81792 0.80823 0.35420
 C1282 C 0.80408 0.79578 0.33831
 C1283 C 0.81012 0.79913 0.31644
 C1284 C 0.83054 0.81497 0.31093
 C1285 C 0.85178 0.83764 0.36466
 C1286 C 0.86351 0.84951 0.37772
 C1287 C 0.87746 0.86404 0.39241
 C1288 C 0.88958 0.87700 0.40439
 C1289 C 0.90431 0.89313 0.41792
 C1290 C 0.89378 0.90199 0.43710
 C1291 C 0.90752 0.91898 0.44940
 C1292 C 0.93191 0.92734 0.44256
 C1293 C 0.94257 0.91793 0.42352
 C1294 C 0.92883 0.90095 0.41130
 H1295 H 0.85980 0.83964 0.32223
 H1296 H 0.81283 0.80561 0.37092
 H1297 H 0.78852 0.78374 0.34315
 H1298 H 0.83576 0.81800 0.29431
 H1299 H 0.87477 0.89611 0.44235
 H1300 H 0.89886 0.92593 0.46399
 H1301 H 0.96133 0.92400 0.41788
 H1302 H 0.93715 0.89426 0.39646
 C1303 C 0.31991 0.30757 -0.14595
 C1304 C 0.34003 0.32345 -0.15151
 C1305 C 0.34632 0.32705 -0.17312
 C1306 C 0.33240 0.31504 -0.18916
 C1307 C 0.31191 0.29924 -0.18379
 C1308 C 0.30593 0.29551 -0.16196
 C1309 C 0.35381 0.33667 -0.13519
 C1310 C 0.36544 0.34834 -0.12196
 C1311 C 0.37919 0.36273 -0.10709
 C1312 C 0.39112 0.37568 -0.09501
 C1313 C 0.40559 0.39191 -0.08144
 C1314 C 0.43013 0.39979 -0.08793
 C1315 C 0.44350 0.41712 -0.07584
 C1316 C 0.43245 0.42682 -0.05709
 C1317 C 0.40808 0.41835 -0.05032
 C1318 C 0.39468 0.40101 -0.06249
 H1319 H 0.31485 0.30470 -0.12926
 H1320 H 0.36185 0.33935 -0.17759
 H1321 H 0.33756 0.31834 -0.20576
 H1322 H 0.29032 0.28347 -0.15723
 H1323 H 0.43871 0.39292 -0.10261
 H1324 H 0.46227 0.42326 -0.08141
 H1325 H 0.39912 0.42553 -0.03593
 H1326 H 0.37564 0.39509 -0.05737
 C1327 C 1.16645 0.33715 -0.17443
 C1328 C 1.17304 0.33427 -0.15282
 C1329 C 1.19183 0.31716 -0.14690
 C1330 C 1.20415 0.30309 -0.16261
 C1331 C 1.19780 0.30600 -0.18445
 C1332 C 1.17871 0.32315 -0.19014
 C1333 C 1.16046 0.34906 -0.13686
 C1334 C 1.14946 0.36177 -0.12400
 C1335 C 1.13596 0.37688 -0.10950
 C1336 C 1.12383 0.38986 -0.09759
 C1337 C 1.10856 0.40531 -0.08390
 C1338 C 1.10034 0.39691 -0.06381
 C1339 C 1.08378 0.41118 -0.05127
 C1340 C 1.07520 0.43399 -0.05875
 C1341 C 1.08411 0.44257 -0.07869
 C1342 C 1.10067 0.42829 -0.09120
 H1343 H 1.15190 0.35032 -0.17918
 H1344 H 1.19706 0.31479 -0.13019
 H1345 H 1.21878 0.29013 -0.15765
 H1346 H 1.17330 0.32591 -0.20676
 H1347 H 1.10627 0.37913 -0.05803
 H1348 H 1.07724 0.40412 -0.03596
 H1349 H 1.07783 0.46007 -0.08484
 H1350 H 1.10687 0.43493 -0.10676
 C1351 C 0.66138 0.83225 0.32608
 C1352 C 0.66684 0.82832 0.34780
 C1353 C 0.68613 0.81168 0.35366
 C1354 C 0.69992 0.79903 0.33785
 C1355 C 0.69459 0.80289 0.31593
 C1356 C 0.67511 0.81966 0.31027
 C1357 C 0.65270 0.84163 0.36390
 C1358 C 0.64055 0.85323 0.37689
 C1359 C 0.62601 0.86734 0.39152
 C1360 C 0.61337 0.87986 0.40348
 C1361 C 0.59805 0.89543 0.41708
 C1362 C 0.60799 0.90392 0.43660
 C1363 C 0.59366 0.92031 0.44906
 C1364 C 0.56926 0.92844 0.44206
 C1365 C 0.55920 0.91940 0.42268
 C1366 C 0.57352 0.90302 0.41027
 H1367 H 0.64651 0.84511 0.32136
 H1368 H 0.69055 0.80852 0.37043
 H1369 H 0.71478 0.78629 0.34281
 H1370 H 0.67044 0.82312 0.29360
 H1371 H 0.62698 0.89821 0.44201
 H1372 H 0.60188 0.92698 0.46393
 H1373 H 0.54045 0.92531 0.41689
 H1374 H 0.56566 0.89661 0.39518
 C1375 C 0.83359 0.66313 -0.17397
 C1376 C 0.82705 0.66614 -0.15235
 C1377 C 0.80827 0.68328 -0.14650
 C1378 C 0.79593 0.69726 -0.16226
 C1379 C 0.80223 0.69422 -0.18410
 C1380 C 0.82130 0.67704 -0.18973
 C1381 C 0.83968 0.65144 -0.13635
 C1382 C 0.85074 0.63881 -0.12345
 C1383 C 0.86432 0.62377 -0.10895
 C1384 C 0.87654 0.61084 -0.09705
 C1385 C 0.89194 0.59542 -0.08341
 C1386 C 0.90031 0.60385 -0.06339
 C1387 C 0.91700 0.58963 -0.05093
 C1388 C 0.92557 0.56684 -0.05842
 C1389 C 0.91652 0.55822 -0.07829
 C1390 C 0.89982 0.57246 -0.09072
 H1391 H 0.84813 0.64993 -0.17866
 H1392 H 0.80309 0.68575 -0.12980
 H1393 H 0.78131 0.71026 -0.15735
 H1394 H 0.82667 0.67419 -0.20634
 H1395 H 0.89438 0.62163 -0.05762
 H1396 H 0.92366 0.59671 -0.03568
 H1397 H 0.92279 0.54073 -0.08445
 H1398 H 0.89352 0.56579 -0.10622
 C1399 C 0.31369 1.18835 0.35399
 C1400 C 0.33290 1.17161 0.34817
 C1401 C 0.33838 1.16763 0.32647
 C1402 C 0.32473 1.18025 0.31062
 C1403 C 0.30532 1.19711 0.31624
 C1404 C 0.29998 1.20103 0.33814
 C1405 C 0.34695 1.15825 0.36431
 C1406 C 0.35902 1.14660 0.37733
 C1407 C 0.37348 1.13241 0.39196
 C1408 C 0.38606 1.11981 0.40390
 C1409 C 0.40134 1.10415 0.41747
 C1410 C 0.42585 1.09656 0.41063
 C1411 C 0.44013 1.08007 0.42297
 C1412 C 0.43004 1.07093 0.44233
 C1413 C 0.40566 1.07907 0.44937
 C1414 C 0.39137 1.09556 0.43696
 H1415 H 0.30926 1.19155 0.37075
 H1416 H 0.35319 1.15470 0.32179
 H1417 H 0.32940 1.17674 0.29396
 H1418 H 0.28517 1.21384 0.34306
 H1419 H 0.43374 1.10304 0.39555
 H1420 H 0.45886 1.07416 0.41716
 H1421 H 0.39741 1.07233 0.46421
 H1422 H 0.37239 1.10127 0.44239
 C1423 C 1.16627 0.66317 0.17416
 C1424 C 1.17289 0.66616 0.15255
 C1425 C 1.19170 0.68329 0.14671
 C1426 C 1.20402 0.69728 0.16246
 C1427 C 1.19765 0.69426 0.18429
 C1428 C 1.17853 0.67709 0.18992
 C1429 C 1.16033 0.65144 0.13653
 C1430 C 1.14937 0.63881 0.12359
 C1431 C 1.13595 0.62378 0.10899
 C1432 C 1.12388 0.61084 0.09698
 C1433 C 1.10868 0.59542 0.08321
 C1434 C 1.10044 0.60392 0.06316
 C1435 C 1.08393 0.58967 0.05056
 C1436 C 1.07542 0.56678 0.05794
 C1437 C 1.08436 0.55810 0.07783
 C1438 C 1.10088 0.57237 0.09040
 H1439 H 1.15170 0.64997 0.17885
 H1440 H 1.19695 0.68575 0.13001
 H1441 H 1.21867 0.71027 0.15755
 H1442 H 1.17311 0.67426 0.20653
 H1443 H 1.10631 0.62176 0.05748
 H1444 H 1.07735 0.59680 0.03530
 H1445 H 1.07814 0.54054 0.08390
 H1446 H 1.10709 0.56565 0.10592
 C1447 C 0.68598 1.18805 0.64646
 C1448 C 0.66666 1.17143 0.65237
 C1449 C 0.66121 1.16756 0.67410
 C1450 C 0.67497 1.18017 0.68987
 C1451 C 0.69448 1.19692 0.68416
 C1452 C 0.69980 1.20073 0.66223
 C1453 C 0.65249 1.15809 0.63631
 C1454 C 0.64032 1.14647 0.62335
 C1455 C 0.62576 1.13233 0.60876
 C1456 C 0.61312 1.11977 0.59683
 C1457 C 0.59781 1.10416 0.58325
 C1458 C 0.57334 1.09645 0.59013
 C1459 C 0.55904 1.08001 0.57776
 C1460 C 0.56908 1.07103 0.55834
 C1461 C 0.59341 1.07929 0.55127
 C1462 C 0.60772 1.09574 0.56369
 H1463 H 0.69039 1.19116 0.62968
 H1464 H 0.64632 1.15472 0.67887
 H1465 H 0.67031 1.17676 0.70655
 H1466 H 0.71468 1.21344 0.65723
 H1467 H 0.56551 1.10280 0.60526
 H1468 H 0.54035 1.07400 0.58360
 H1469 H 0.60161 1.07268 0.53637
 H1470 H 0.62666 1.10154 0.55824
 C1471 C 0.80932 0.31687 0.14682
 C1472 C 0.82826 0.33382 0.15278
 C1473 C 0.83478 0.33660 0.17442
 C1474 C 0.82232 0.32266 0.19009
 C1475 C 0.80309 0.30566 0.18435
 C1476 C 0.79680 0.30285 0.16249
 C1477 C 0.84104 0.34857 0.13685
 C1478 C 0.85219 0.36123 0.12400
 C1479 C 0.86580 0.37631 0.10949
 C1480 C 0.87797 0.38927 0.09754
 C1481 C 0.89323 0.40474 0.08379
 C1482 C 0.90111 0.42775 0.09101
 C1483 C 0.91751 0.44212 0.07839
 C1484 C 0.92630 0.43358 0.05840
 C1485 C 0.91777 0.41072 0.05102
 C1486 C 0.90136 0.39637 0.06367
 H1487 H 0.80413 0.31457 0.13010
 H1488 H 0.84943 0.34965 0.17921
 H1489 H 0.82769 0.32533 0.20673
 H1490 H 0.78206 0.29000 0.15749
 H1491 H 0.89498 0.43439 0.10658
 H1492 H 0.92376 0.45965 0.08447
 H1493 H 0.92422 0.40369 0.03569
 H1494 H 0.89544 0.37857 0.05795
 C1495 C 0.33695 0.83271 0.67525
 C1496 C 0.33182 0.82859 0.65354
 C1497 C 0.31285 0.81168 0.64764
 C1498 C 0.29901 0.79892 0.66339
 C1499 C 0.30390 0.80288 0.68548
 C1500 C 0.32322 0.82006 0.69106
 C1501 C 0.34603 0.84198 0.63746
 C1502 C 0.35823 0.85362 0.62449
 C1503 C 0.37282 0.86776 0.60987
 C1504 C 0.38551 0.88027 0.59788
 C1505 C 0.40088 0.89578 0.58420
 C1506 C 0.39102 0.90412 0.56459
 C1507 C 0.40544 0.92037 0.55201
 C1508 C 0.42986 0.92853 0.55896
 C1509 C 0.43982 0.91966 0.57846
 C1510 C 0.42541 0.90342 0.59099
 H1511 H 0.35160 0.84578 0.68001
 H1512 H 0.30869 0.80837 0.63085
 H1513 H 0.28444 0.78602 0.65813
 H1514 H 0.32788 0.82390 0.70767
 H1515 H 0.37204 0.89838 0.55919
 H1516 H 0.39728 0.92690 0.53706
 H1517 H 0.45858 0.92559 0.58422
 H1518 H 0.43323 0.89713 0.60615
 C1519 C 0.31778 1.19207 -0.14655
 C1520 C 0.33458 1.17314 -0.15227
 C1521 C 0.33765 1.16696 -0.17390
 C1522 C 0.32397 1.17955 -0.18976
 C1523 C 0.30693 1.19858 -0.18422
 C1524 C 0.30404 1.20473 -0.16240
 C1525 C 0.34862 1.15980 -0.13611
 C1526 C 0.36062 1.14811 -0.12308
 C1527 C 0.37495 1.13382 -0.10842
 C1528 C 0.38739 1.12110 -0.09645
 C1529 C 0.40247 1.10529 -0.08287
 C1530 C 0.42698 1.09758 -0.08964
 C1531 C 0.44107 1.08095 -0.07730
 C1532 C 0.43080 1.07177 -0.05801
 C1533 C 0.40643 1.08001 -0.05105
 C1534 C 0.39233 1.09665 -0.06345
 H1535 H 0.31526 1.19702 -0.12984
 H1536 H 0.35059 1.15233 -0.17853
 H1537 H 0.32672 1.17429 -0.20635
 H1538 H 0.29116 1.21929 -0.15754
 H1539 H 0.43500 1.10409 -0.10466
 H1540 H 0.45980 1.07496 -0.08305
 H1541 H 0.39805 1.07324 -0.03627
 H1542 H 0.37335 1.10244 -0.05809
 C1543 C 0.81274 0.68706 0.35361
 C1544 C 0.82968 0.66833 0.34766
 C1545 C 0.83453 0.66385 0.32594
 C1546 C 0.82231 0.67780 0.31019
 C1547 C 0.80497 0.69650 0.31592
 C1548 C 0.80046 0.70109 0.33785
 C1549 C 0.84202 0.65342 0.36365
 C1550 C 0.85276 0.64050 0.37651
 C1551 C 0.86590 0.62506 0.39096
 C1552 C 0.87770 0.61176 0.40284
 C1553 C 0.89260 0.59596 0.41651
 C1554 C 0.90050 0.57308 0.40902
 C1555 C 0.91676 0.55849 0.42153
 C1556 C 0.92536 0.56670 0.44167
 C1557 C 0.91674 0.58940 0.44935
 C1558 C 0.90048 0.60396 0.43680
 H1559 H 0.80889 0.69069 0.37040
 H1560 H 0.84765 0.64942 0.32117
 H1561 H 0.82629 0.67373 0.29350
 H1562 H 0.78725 0.71533 0.34284
 H1563 H 0.89456 0.56675 0.39330
 H1564 H 0.92309 0.54109 0.41524
 H1565 H 0.92304 0.59616 0.46481
 H1566 H 0.89453 0.62166 0.44272
 C1567 C 0.66220 1.16727 0.17366
 C1568 C 0.66542 1.17335 0.15202
 C1569 C 0.68237 1.19219 0.14628
 C1570 C 0.69612 1.20483 0.16213
 C1571 C 0.69308 1.19876 0.18397
 C1572 C 0.67588 1.17984 0.18952
 C1573 C 0.65140 1.15998 0.13586
 C1574 C 0.63941 1.14824 0.12285
 C1575 C 0.62510 1.13389 0.10823
 C1576 C 0.61267 1.12113 0.09630
 C1577 C 0.59759 1.10526 0.08276
 C1578 C 0.60772 1.09665 0.06334
 C1579 C 0.59361 1.07998 0.05097
 C1580 C 0.56925 1.07170 0.05795
 C1581 C 0.55901 1.08085 0.07724
 C1582 C 0.57311 1.09750 0.08955
 H1583 H 0.64914 1.15271 0.17830
 H1584 H 0.68502 1.19706 0.12957
 H1585 H 0.70913 1.21931 0.15727
 H1586 H 0.67301 1.17465 0.20612
 H1587 H 0.62668 1.10248 0.05795
 H1588 H 0.60198 1.07324 0.03618
 H1589 H 0.54029 1.07482 0.08301
 H1590 H 0.56509 1.10399 0.10457
 C1591 C 1.16436 0.66535 0.67371
 C1592 C 1.16938 0.66974 0.65200
 C1593 C 1.18650 0.68836 0.64607
 C1594 C 1.19882 0.70235 0.66184
 C1595 C 1.19416 0.69782 0.68376
 C1596 C 1.17662 0.67924 0.68948
 C1597 C 1.15703 0.65483 0.63602
 C1598 C 1.14628 0.64187 0.62320
 C1599 C 1.13315 0.62634 0.60882
 C1600 C 1.12136 0.61295 0.59700
 C1601 C 1.10652 0.59702 0.58341
 C1602 C 1.09859 0.60490 0.56309
 C1603 C 1.08244 0.59018 0.55059
 C1604 C 1.07399 0.56743 0.55833
 C1605 C 1.08262 0.55936 0.57850
 C1606 C 1.09877 0.57410 0.59098
 H1607 H 1.15111 0.65100 0.67848
 H1608 H 1.19048 0.69194 0.62928
 H1609 H 1.21219 0.71649 0.65686
 H1610 H 1.17252 0.67522 0.70615
 H1611 H 1.10442 0.62263 0.55710
 H1612 H 1.07611 0.59686 0.53509
 H1613 H 1.07642 0.54192 0.58486
 H1614 H 1.10475 0.56786 0.60672
 C1615 C 0.66249 0.83339 -0.17408
 C1616 C 0.66552 0.82726 -0.15243
 C1617 C 0.68229 0.80832 -0.14663
 C1618 C 0.69604 0.79562 -0.16244
 C1619 C 0.69318 0.80172 -0.18428
 C1620 C 0.67617 0.82075 -0.18989
 C1621 C 0.65146 0.84064 -0.13630
 C1622 C 0.63944 0.85234 -0.12329
 C1623 C 0.62511 0.86662 -0.10865
 C1624 C 0.61266 0.87932 -0.09668
 C1625 C 0.59757 0.89510 -0.08308
 C1626 C 0.60770 0.90367 -0.06365
 C1627 C 0.59358 0.92026 -0.05122
 C1628 C 0.56919 0.92850 -0.05815
 C1629 C 0.55894 0.91938 -0.07744
 C1630 C 0.57306 0.90281 -0.08982
 H1631 H 0.64957 0.84802 -0.17875
 H1632 H 0.68479 0.80341 -0.12992
 H1633 H 0.70890 0.78105 -0.15753
 H1634 H 0.67345 0.82597 -0.20650
 H1635 H 0.62668 0.89788 -0.05830
 H1636 H 0.60195 0.92698 -0.03643
 H1637 H 0.54020 0.92537 -0.08318
 H1638 H 0.56504 0.89634 -0.10484
 C1639 C 1.16580 0.33657 0.32583
 C1640 C 1.17054 0.33206 0.34757
 C1641 C 1.18741 0.31329 0.35357
 C1642 C 1.19973 0.29924 0.33786
 C1643 C 1.19532 0.30384 0.31591
 C1644 C 1.17806 0.32260 0.31012
 C1645 C 1.15811 0.34695 0.36352
 C1646 C 1.14730 0.35984 0.37635
 C1647 C 1.13407 0.37524 0.39077
 C1648 C 1.12220 0.38848 0.40264
 C1649 C 1.10724 0.40423 0.41630
 C1650 C 1.09941 0.39621 0.43661
 C1651 C 1.08313 0.41072 0.44917
 C1652 C 1.07443 0.43340 0.44149
 C1653 C 1.08297 0.44163 0.42132
 C1654 C 1.09926 0.42709 0.40879
 H1655 H 1.15274 0.35103 0.32101
 H1656 H 1.19117 0.30963 0.37038
 H1657 H 1.21287 0.28496 0.34289
 H1658 H 1.17416 0.32668 0.29342
 H1659 H 1.10543 0.37852 0.44255
 H1660 H 1.07688 0.40393 0.46465
 H1661 H 1.07658 0.45902 0.41501
 H1662 H 1.10516 0.43344 0.39306
 C1663 C 0.31799 0.80781 0.14652
 C1664 C 0.33486 0.82671 0.15223
 C1665 C 0.33796 0.83289 0.17385
 C1666 C 0.32424 0.82034 0.18972
 C1667 C 0.30713 0.80136 0.18420
 C1668 C 0.30421 0.79520 0.16238
 C1669 C 0.34891 0.84001 0.13605
 C1670 C 0.36092 0.85167 0.12299
 C1671 C 0.37523 0.86594 0.10830
 C1672 C 0.38766 0.87865 0.09631
 C1673 C 0.40273 0.89448 0.08272
 C1674 C 0.42724 0.90220 0.08945
 C1675 C 0.44129 0.91889 0.07713
 C1676 C 0.43097 0.92812 0.05789
 C1677 C 0.40659 0.91986 0.05096
 C1678 C 0.39253 0.90315 0.06334
 H1679 H 0.31544 0.80287 0.12982
 H1680 H 0.35096 0.84750 0.17846
 H1681 H 0.32701 0.82560 0.20631
 H1682 H 0.29127 0.78066 0.15754
 H1683 H 0.43530 0.89566 0.10444
 H1684 H 0.46003 0.92490 0.08286
 H1685 H 0.39817 0.92667 0.03621
 H1686 H 0.37354 0.89735 0.05801
 C1687 C 0.83458 0.33590 0.67371
 C1688 C 0.82964 0.33141 0.65201
 C1689 C 0.81265 0.31269 0.64611
 C1690 C 0.80039 0.29867 0.66191
 C1691 C 0.80498 0.30328 0.68382
 C1692 C 0.82238 0.32197 0.68950
 C1693 C 0.84195 0.34631 0.63599
 C1694 C 0.85268 0.35924 0.62313
 C1695 C 0.86584 0.37471 0.60870
 C1696 C 0.87768 0.38802 0.59686
 C1697 C 0.89265 0.40385 0.58326
 C1698 C 0.90064 0.39587 0.56298
 C1699 C 0.91700 0.41044 0.55052
 C1700 C 0.92563 0.43311 0.55826
 C1701 C 0.91693 0.44129 0.57837
 C1702 C 0.90055 0.42670 0.59081
 H1703 H 0.84773 0.35033 0.67844
 H1704 H 0.80874 0.30905 0.62933
 H1705 H 0.78714 0.28444 0.65696
 H1706 H 0.82641 0.32605 0.70617
 H1707 H 0.89469 0.37818 0.55702
 H1708 H 0.92339 0.40369 0.53507
 H1709 H 0.92326 0.45868 0.58472
 H1710 H 0.89453 0.43301 0.60651
 C1711 C 1.15969 1.16978 0.67328
 C1712 C 1.16530 1.17367 0.65158
 C1713 C 1.18453 1.19041 0.64576
 C1714 C 1.19815 1.20318 0.66159
 C1715 C 1.19268 1.19933 0.68350
 C1716 C 1.17324 1.18248 0.68912
 C1717 C 1.15138 1.16019 0.63547
 C1718 C 1.13942 1.14841 0.62249
 C1719 C 1.12509 1.13403 0.60793
 C1720 C 1.11264 1.12125 0.59606
 C1721 C 1.09755 1.10534 0.58260
 C1722 C 1.07311 1.09755 0.58946
 C1723 C 1.05905 1.08079 0.57724
 C1724 C 1.06930 1.07158 0.55798
 C1725 C 1.09361 1.07991 0.55092
 C1726 C 1.10768 1.09668 0.56320
 H1727 H 1.14486 1.15684 0.67797
 H1728 H 1.18906 1.19353 0.62900
 H1729 H 1.21298 1.21598 0.65668
 H1730 H 1.16848 1.17903 0.70577
 H1731 H 1.06511 1.10409 0.60447
 H1732 H 1.04036 1.07473 0.58306
 H1733 H 1.10197 1.07312 0.53615
 H1734 H 1.12661 1.10254 0.55776
 C1735 C 0.68361 0.68988 0.14587
 C1736 C 0.66448 0.67299 0.15156
 C1737 C 0.65911 0.66856 0.17321
 C1738 C 0.67277 0.68095 0.18917
 C1739 C 0.69206 0.69799 0.18368
 C1740 C 0.69733 0.70232 0.16182
 C1741 C 0.65042 0.65994 0.13531
 C1742 C 0.63835 0.64852 0.12218
 C1743 C 0.62394 0.63454 0.10744
 C1744 C 0.61143 0.62200 0.09543
 C1745 C 0.59632 0.60630 0.08186
 C1746 C 0.57184 0.59857 0.08867
 C1747 C 0.55786 0.58177 0.07646
 C1748 C 0.56825 0.57245 0.05730
 C1749 C 0.59256 0.58079 0.05025
 C1750 C 0.60655 0.59760 0.06252
 H1751 H 0.68794 0.69339 0.12914
 H1752 H 0.64436 0.65549 0.17778
 H1753 H 0.66818 0.67715 0.20580
 H1754 H 0.71205 0.71529 0.15701
 H1755 H 0.56379 0.60515 0.10364
 H1756 H 0.53916 0.57570 0.08225
 H1757 H 0.60101 0.57392 0.03555
 H1758 H 0.62553 0.60342 0.05715
 C1759 C 1.18473 0.80942 0.35434
 C1760 C 1.16556 0.82622 0.34857
 C1761 C 1.15998 0.83022 0.32689
 C1762 C 1.17350 0.81755 0.31100
 C1763 C 1.19286 0.80063 0.31657
 C1764 C 1.19830 0.79668 0.33846
 C1765 C 1.15166 0.83964 0.36474
 C1766 C 1.13970 0.85137 0.37776
 C1767 C 1.12539 0.86567 0.39238
 C1768 C 1.11292 0.87839 0.40430
 C1769 C 1.09780 0.89421 0.41781
 C1770 C 1.07335 0.90196 0.41096
 C1771 C 1.05925 0.91864 0.42323
 C1772 C 1.06947 0.92782 0.44251
 C1773 C 1.09378 0.91952 0.44955
 C1774 C 1.10789 0.90283 0.43723
 H1775 H 1.18923 0.80621 0.37109
 H1776 H 1.14520 0.84320 0.32224
 H1777 H 1.16876 0.82107 0.29436
 H1778 H 1.21309 0.78383 0.34334
 H1779 H 1.06538 0.89545 0.39594
 H1780 H 1.04056 0.92467 0.41742
 H1781 H 1.10212 0.92629 0.46434
 H1782 H 1.12683 0.89701 0.44265
 C1783 C 0.68373 0.31050 -0.14606
 C1784 C 0.66462 0.32737 -0.15177
 C1785 C 0.65923 0.33172 -0.17343
 C1786 C 0.67286 0.31928 -0.18937
 C1787 C 0.69214 0.30225 -0.18386
 C1788 C 0.69742 0.29800 -0.16199
 C1789 C 0.65058 0.34046 -0.13553
 C1790 C 0.63854 0.35190 -0.12240
 C1791 C 0.62415 0.36590 -0.10765
 C1792 C 0.61165 0.37843 -0.09564
 C1793 C 0.59653 0.39412 -0.08207
 C1794 C 0.57204 0.40180 -0.08886
 C1795 C 0.55804 0.41857 -0.07664
 C1796 C 0.56842 0.42790 -0.05748
 C1797 C 0.59274 0.41962 -0.05045
 C1798 C 0.60675 0.40284 -0.06273
 H1799 H 0.68807 0.30703 -0.12933
 H1800 H 0.64449 0.34478 -0.17800
 H1801 H 0.66826 0.32303 -0.20601
 H1802 H 0.71213 0.28504 -0.15716
 H1803 H 0.56399 0.39521 -0.10383
 H1804 H 0.53933 0.42460 -0.08242
 H1805 H 0.60118 0.42651 -0.03575
 H1806 H 0.62573 0.39706 -0.05737
 C1807 C 0.84021 1.16877 0.32639
 C1808 C 0.83478 1.17274 0.34810
 C1809 C 0.81570 1.18959 0.35396
 C1810 C 0.80207 1.20240 0.33814
 C1811 C 0.80738 1.19849 0.31623
 C1812 C 0.82665 1.18151 0.31057
 C1813 C 0.84877 1.15928 0.36421
 C1814 C 0.86079 1.14755 0.37719
 C1815 C 0.87518 1.13326 0.39179
 C1816 C 0.88769 1.12057 0.40372
 C1817 C 0.90284 1.10480 0.41728
 C1818 C 0.89277 1.09624 0.43675
 C1819 C 0.90692 1.07964 0.44915
 C1820 C 0.93126 1.07137 0.44214
 C1821 C 0.94146 1.08048 0.42280
 C1822 C 0.92731 1.09707 0.41046
 H1823 H 0.85493 1.15576 0.32167
 H1824 H 0.81131 1.19278 0.37073
 H1825 H 0.78737 1.21529 0.34309
 H1826 H 0.83128 1.17802 0.29390
 H1827 H 0.87382 1.10205 0.44215
 H1828 H 0.89860 1.07292 0.46397
 H1829 H 0.96017 1.07447 0.41702
 H1830 H 0.93528 1.10354 0.39540
 C1831 C 0.33984 0.66838 -0.17364
 C1832 C 0.33450 0.67269 -0.15197
 C1833 C 0.31545 0.68960 -0.14622
 C1834 C 0.30178 0.70219 -0.16212
 C1835 C 0.30702 0.69799 -0.18400
 C1836 C 0.32623 0.68091 -0.18956
 C1837 C 0.34856 0.65953 -0.13576
 C1838 C 0.36063 0.64806 -0.12265
 C1839 C 0.37506 0.63405 -0.10792
 C1840 C 0.38760 0.62153 -0.09590
 C1841 C 0.40277 0.60589 -0.08231
 C1842 C 0.39258 0.59716 -0.06294
 C1843 C 0.40667 0.58047 -0.05061
 C1844 C 0.43104 0.57228 -0.05761
 C1845 C 0.44138 0.58162 -0.07681
 C1846 C 0.42730 0.59830 -0.08907
 H1847 H 0.35453 0.65530 -0.17826
 H1848 H 0.31115 0.69303 -0.12947
 H1849 H 0.28713 0.71518 -0.15726
 H1850 H 0.33080 0.67721 -0.20620
 H1851 H 0.37357 0.60287 -0.05760
 H1852 H 0.39826 0.57357 -0.03589
 H1853 H 0.46013 0.57567 -0.08256
 H1854 H 0.43533 0.60490 -0.10406
 C1855 C 0.84049 0.82965 0.67295
 C1856 C 0.83490 0.82563 0.65128
 C1857 C 0.81563 0.80891 0.64555
 C1858 C 0.80197 0.79626 0.66146
 C1859 C 0.80743 0.80022 0.68334
 C1860 C 0.82689 0.81707 0.68887
 C1861 C 0.84886 0.83900 0.63510
 C1862 C 0.86087 0.85070 0.62209
 C1863 C 0.87526 0.86502 0.60750
 C1864 C 0.88777 0.87778 0.59563
 C1865 C 0.90292 0.89368 0.58220
 C1866 C 0.89287 0.90240 0.56279
 C1867 C 0.90697 0.91922 0.55056
 C1868 C 0.93124 0.92755 0.55770
 C1869 C 0.94143 0.91827 0.57696
 C1870 C 0.92733 0.90146 0.58913
 H1871 H 0.85535 0.84258 0.67757
 H1872 H 0.81112 0.80569 0.62881
 H1873 H 0.78711 0.78346 0.65662
 H1874 H 0.83165 0.82060 0.70550
 H1875 H 0.87396 0.89655 0.55730
 H1876 H 0.89866 0.92606 0.53579
 H1877 H 0.96008 0.92433 0.58284
 H1878 H 0.93527 0.89488 0.60415
 C1879 C 0.31638 0.30957 0.14565
 C1880 C 0.33560 0.32640 0.15122
 C1881 C 0.34110 0.33083 0.17284
 C1882 C 0.32747 0.31852 0.18888
 C1883 C 0.30808 0.30154 0.18351
 C1884 C 0.30270 0.29719 0.16168
 C1885 C 0.34960 0.33941 0.13488
 C1886 C 0.36161 0.35082 0.12169
 C1887 C 0.37596 0.36482 0.10691
 C1888 C 0.38843 0.37739 0.09488
 C1889 C 0.40351 0.39318 0.08134
 C1890 C 0.42800 0.40086 0.08814
 C1891 C 0.44193 0.41780 0.07600
 C1892 C 0.43147 0.42729 0.05692
 C1893 C 0.40716 0.41898 0.04988
 C1894 C 0.39323 0.40204 0.06207
 H1895 H 0.31195 0.30605 0.12894
 H1896 H 0.35593 0.34386 0.17731
 H1897 H 0.33216 0.32232 0.20549
 H1898 H 0.28789 0.28427 0.15696
 H1899 H 0.43609 0.39416 0.10306
 H1900 H 0.46063 0.42383 0.08179
 H1901 H 0.39867 0.42599 0.03523
 H1902 H 0.37424 0.39626 0.05672
   
