data_POSCAR
  _audit_creation_date              2014-09-24
  _audit_creation_method            'ToBaCCo'
  _symmetry_space_group_name_H-M    'P1'
  _symmetry_Int_Tables_number       1
  _symmetry_cell_setting            triclinic
  loop_
  _symmetry_equiv_pos_as_xyz
 x,y,z
_cell_length_a 67.9715
_cell_length_b 68.0085
_cell_length_c 68.1089
_cell_angle_alpha 90.004900
_cell_angle_beta 89.984500
_cell_angle_gamma 90.051000
loop_
  _atom_site_label
  _atom_site_type_symbol
  _atom_site_fract_x
  _atom_site_fract_y
  _atom_site_fract_z
N1 N 0.16614 0.21465 0.21600
 N2 N 0.17075 0.19944 0.22702
 C3 C 0.15758 0.19792 0.24175
 C4 C 0.14414 0.21297 0.23974
 C5 C 0.14992 0.22333 0.22334
 H6 H 0.15769 0.18679 0.25310
 H7 H 0.14288 0.23622 0.21724
 Cu8 Cu 0.19348 0.18320 0.22075
 Cu9 Cu 0.18158 0.22221 0.19307
 Cu10 Cu 0.22237 0.19354 0.18213
 N11 N 0.21624 0.16698 0.21449
 N12 N 0.22751 0.17119 0.19934
 C13 C 0.24204 0.15780 0.19812
 C14 C 0.23967 0.14457 0.21327
 C15 C 0.22322 0.15071 0.22340
 H16 H 0.25344 0.15765 0.18704
 H17 H 0.21687 0.14380 0.23623
 N18 N 0.21467 0.21670 0.16649
 N19 N 0.19904 0.22751 0.17057
 C20 C 0.19760 0.24204 0.15720
 C21 C 0.21302 0.24021 0.14423
 C22 C 0.22359 0.22410 0.15043
 H23 H 0.18623 0.25315 0.15688
 H24 H 0.23675 0.21825 0.14370
 H25 H 0.19240 0.19450 0.18680
 H26 H 0.20791 0.21061 0.20263
 N27 N 0.66673 0.71512 0.71626
 N28 N 0.67117 0.69972 0.72708
 C29 C 0.65789 0.69806 0.74170
 C30 C 0.64458 0.71322 0.73983
 C31 C 0.65052 0.72380 0.72363
 H32 H 0.65784 0.68672 0.75283
 H33 H 0.64358 0.73680 0.71766
 Cu34 Cu 0.69386 0.68345 0.72073
 Cu35 Cu 0.68220 0.72275 0.69337
 Cu36 Cu 0.72263 0.69373 0.68205
 N37 N 0.71650 0.66713 0.71437
 N38 N 0.72772 0.67131 0.69917
 C39 C 0.74223 0.65790 0.69791
 C40 C 0.73988 0.64469 0.71307
 C41 C 0.72349 0.65086 0.72326
 H42 H 0.75361 0.65774 0.68681
 H43 H 0.71717 0.64398 0.73612
 N44 N 0.71505 0.71700 0.66654
 N45 N 0.69964 0.72803 0.67085
 C46 C 0.69827 0.74263 0.65755
 C47 C 0.71349 0.74058 0.64437
 C48 C 0.72388 0.72430 0.65039
 H49 H 0.68706 0.75389 0.65737
 H50 H 0.73685 0.71824 0.64347
 H51 H 0.69264 0.69496 0.68685
 H52 H 0.70844 0.71078 0.70273
 N53 N 0.33288 0.78520 0.71639
 N54 N 0.32850 0.80064 0.72720
 C55 C 0.34173 0.80217 0.74187
 C56 C 0.35497 0.78693 0.74003
 C57 C 0.34901 0.77643 0.72378
 H58 H 0.34182 0.81347 0.75305
 H59 H 0.35593 0.76343 0.71777
 Cu60 Cu 0.30603 0.81727 0.72079
 Cu61 Cu 0.31744 0.77766 0.69347
 Cu62 Cu 0.27708 0.80668 0.68220
 N63 N 0.28310 0.83331 0.71451
 N64 N 0.27187 0.82908 0.69933
 C65 C 0.25726 0.84241 0.69811
 C66 C 0.25953 0.85560 0.71332
 C67 C 0.27599 0.84951 0.72348
 H68 H 0.24590 0.84254 0.68700
 H69 H 0.28226 0.85638 0.73637
 N70 N 0.28468 0.78346 0.66660
 N71 N 0.30007 0.77242 0.67091
 C72 C 0.30145 0.75781 0.65760
 C73 C 0.28624 0.75984 0.64442
 C74 C 0.27586 0.77615 0.65043
 H75 H 0.31264 0.74652 0.65747
 H76 H 0.26288 0.78219 0.64352
 H77 H 0.30713 0.80545 0.68696
 H78 H 0.29135 0.78978 0.70304
 N79 N 0.83404 0.28501 0.21654
 N80 N 0.82956 0.30040 0.22739
 C81 C 0.84270 0.30195 0.24213
 C82 C 0.85599 0.28676 0.24027
 C83 C 0.85017 0.27626 0.22397
 H84 H 0.84262 0.31318 0.25337
 H85 H 0.85713 0.26327 0.21799
 Cu86 Cu 0.80687 0.31665 0.22109
 Cu87 Cu 0.81861 0.27741 0.19362
 Cu88 Cu 0.77812 0.30638 0.18236
 N89 N 0.78419 0.33292 0.21474
 N90 N 0.77297 0.32873 0.19955
 C91 C 0.75837 0.34205 0.19839
 C92 C 0.76063 0.35518 0.21363
 C93 C 0.77707 0.34906 0.22377
 H94 H 0.74698 0.34220 0.18730
 H95 H 0.78329 0.35585 0.23672
 N96 N 0.78579 0.28319 0.16677
 N97 N 0.80122 0.27217 0.17105
 C98 C 0.80260 0.25759 0.15772
 C99 C 0.78736 0.25963 0.14457
 C100 C 0.77696 0.27590 0.15062
 H101 H 0.81381 0.24633 0.15754
 H102 H 0.76396 0.28192 0.14374
 H103 H 0.80806 0.30513 0.18716
 H104 H 0.79230 0.28929 0.20308
 N105 N 0.83339 0.71516 0.28379
 N106 N 0.82900 0.69968 0.27303
 C107 C 0.84220 0.69811 0.25834
 C108 C 0.85544 0.71337 0.26013
 C109 C 0.84951 0.72394 0.27634
 H110 H 0.84221 0.68681 0.24716
 H111 H 0.85639 0.73700 0.28224
 Cu112 Cu 0.80635 0.68336 0.27941
 Cu113 Cu 0.81793 0.72278 0.30668
 Cu114 Cu 0.77753 0.69367 0.31805
 N115 N 0.78370 0.66705 0.28578
 N116 N 0.77245 0.67125 0.30094
 C117 C 0.75785 0.65790 0.30212
 C118 C 0.76017 0.64473 0.28692
 C119 C 0.77662 0.65086 0.27679
 H120 H 0.74643 0.65776 0.31317
 H121 H 0.78287 0.64404 0.26387
 N122 N 0.78513 0.71693 0.33356
 N123 N 0.80052 0.72801 0.32923
 C124 C 0.80189 0.74262 0.34253
 C125 C 0.78670 0.74053 0.35572
 C126 C 0.77633 0.72421 0.34973
 H127 H 0.81309 0.75392 0.34266
 H128 H 0.76337 0.71813 0.35667
 H129 H 0.80746 0.69504 0.31325
 H130 H 0.79165 0.71072 0.29726
 N131 N 0.33360 0.21507 -0.21657
 N132 N 0.32921 0.19960 -0.22735
 C133 C 0.34244 0.19803 -0.24204
 C134 C 0.35571 0.21329 -0.24022
 C135 C 0.34976 0.22384 -0.22398
 H136 H 0.34244 0.18673 -0.25322
 H137 H 0.35665 0.23689 -0.21803
 Cu138 Cu 0.30646 0.18329 -0.22100
 Cu139 Cu 0.31804 0.22266 -0.19366
 Cu140 Cu 0.27756 0.19360 -0.18235
 N141 N 0.28372 0.16698 -0.21465
 N142 N 0.27246 0.17119 -0.19950
 C143 C 0.25785 0.15787 -0.19831
 C144 C 0.26012 0.14468 -0.21350
 C145 C 0.27660 0.15079 -0.22364
 H146 H 0.24643 0.15776 -0.18725
 H147 H 0.28284 0.14395 -0.23655
 N148 N 0.28518 0.21685 -0.16681
 N149 N 0.30058 0.22792 -0.17110
 C150 C 0.30193 0.24250 -0.15775
 C151 C 0.28670 0.24041 -0.14458
 C152 C 0.27634 0.22410 -0.15064
 H153 H 0.31313 0.25380 -0.15757
 H154 H 0.26337 0.21800 -0.14374
 H155 H 0.30746 0.19489 -0.18710
 H156 H 0.29170 0.21061 -0.20310
 N157 N 0.66656 0.28477 -0.21644
 N158 N 0.67097 0.30021 -0.22724
 C159 C 0.65768 0.30183 -0.24187
 C160 C 0.64437 0.28661 -0.23999
 C161 C 0.65035 0.27604 -0.22378
 H162 H 0.65764 0.31317 -0.25300
 H163 H 0.64343 0.26302 -0.21779
 Cu164 Cu 0.69372 0.31651 -0.22089
 Cu165 Cu 0.68212 0.27722 -0.19351
 Cu166 Cu 0.72253 0.30634 -0.18218
 N167 N 0.71637 0.33291 -0.21452
 N168 N 0.72760 0.32875 -0.19934
 C169 C 0.74212 0.34216 -0.19807
 C170 C 0.73982 0.35535 -0.21324
 C171 C 0.72342 0.34917 -0.22344
 H172 H 0.75349 0.34234 -0.18695
 H173 H 0.71715 0.35602 -0.23632
 N174 N 0.71495 0.28307 -0.16666
 N175 N 0.69958 0.27196 -0.17095
 C176 C 0.69826 0.25737 -0.15762
 C177 C 0.71348 0.25949 -0.14445
 C178 C 0.72381 0.27583 -0.15050
 H179 H 0.68708 0.24604 -0.15744
 H180 H 0.73676 0.28195 -0.14360
 H181 H 0.69261 0.30509 -0.18698
 H182 H 0.70843 0.28932 -0.20284
 N183 N 0.16681 0.78522 0.28355
 N184 N 0.17157 0.80034 0.27245
 C185 C 0.15831 0.80198 0.25781
 C186 C 0.14470 0.78708 0.25996
 C187 C 0.15044 0.77671 0.27636
 H188 H 0.15847 0.81311 0.24647
 H189 H 0.14325 0.76395 0.28256
 Cu190 Cu 0.19451 0.81633 0.27876
 Cu191 Cu 0.18211 0.77766 0.30661
 Cu192 Cu 0.22259 0.80676 0.31795
 N193 N 0.21694 0.83300 0.28519
 N194 N 0.22784 0.82912 0.30069
 C195 C 0.24220 0.84272 0.30214
 C196 C 0.24006 0.85574 0.28678
 C197 C 0.22396 0.84927 0.27626
 H198 H 0.25331 0.84311 0.31350
 H199 H 0.21785 0.85594 0.26320
 N200 N 0.21486 0.78355 0.33357
 N201 N 0.19945 0.77249 0.32925
 C202 C 0.19807 0.75787 0.34253
 C203 C 0.21328 0.75991 0.35571
 C204 C 0.22368 0.77622 0.34972
 H205 H 0.18688 0.74655 0.34264
 H206 H 0.23669 0.78224 0.35661
 H207 H 0.19260 0.80545 0.31282
 H208 H 0.20852 0.78925 0.29754
 N209 N 0.46485 0.41631 0.46643
 N210 N 0.44941 0.42070 0.47723
 C211 C 0.44781 0.40746 0.49188
 C212 C 0.46304 0.39421 0.49004
 C213 C 0.47359 0.40016 0.47381
 H214 H 0.43648 0.40740 0.50304
 H215 H 0.48661 0.39326 0.46784
 Cu216 Cu 0.43307 0.44332 0.47087
 Cu217 Cu 0.47246 0.43179 0.44352
 Cu218 Cu 0.44333 0.47214 0.43220
 N219 N 0.41674 0.46594 0.46452
 N220 N 0.42090 0.47718 0.44935
 C221 C 0.40748 0.49167 0.44812
 C222 C 0.39430 0.48932 0.46331
 C223 C 0.40049 0.47293 0.47348
 H224 H 0.40729 0.50305 0.43702
 H225 H 0.39364 0.46665 0.48637
 N226 N 0.46663 0.46460 0.41667
 N227 N 0.47771 0.44923 0.42098
 C228 C 0.49230 0.44788 0.40765
 C229 C 0.49021 0.46307 0.39445
 C230 C 0.47389 0.47342 0.40049
 H231 H 0.50359 0.43670 0.40747
 H232 H 0.46779 0.48635 0.39356
 H233 H 0.46042 0.45803 0.45290
 H234 H 0.44468 0.44219 0.43700
 N235 N -0.03518 -0.08346 0.96631
 N236 N -0.05054 -0.07900 0.97720
 C237 C -0.05206 -0.09215 0.99193
 C238 C -0.03691 -0.10545 0.99001
 C239 C -0.02645 -0.09961 0.97369
 H240 H -0.06334 -0.09215 1.00315
 H241 H -0.01353 -0.10662 0.96762
 Cu242 Cu -0.06698 -0.05650 0.97084
 Cu243 Cu -0.02773 -0.06810 0.94331
 Cu244 Cu -0.05689 -0.02788 0.93194
 N245 N -0.08316 -0.03382 0.96452
 N246 N -0.07913 -0.02273 0.94921
 C247 C -0.09251 -0.00820 0.94800
 C248 C -0.10548 -0.01038 0.96336
 C249 C -0.09925 -0.02666 0.97363
 H250 H -0.09281 0.00306 0.93679
 H251 H -0.10596 -0.03280 0.98666
 N252 N -0.03375 -0.03548 0.91631
 N253 N -0.02260 -0.05078 0.92066
 C254 C -0.00797 -0.05206 0.90736
 C255 C -0.01015 -0.03690 0.89415
 C256 C -0.02652 -0.02664 0.90014
 H257 H 0.00341 -0.06315 0.90726
 H258 H -0.03264 -0.01370 0.89323
 H259 H -0.03986 -0.04183 0.95269
 H260 H -0.05562 -0.05775 0.93691
 N261 N 1.03554 0.58374 0.96608
 N262 N 1.05077 0.57913 0.97709
 C263 C 1.05223 0.59220 0.99189
 C264 C 1.03714 0.60557 0.98993
 C265 C 1.02679 0.59987 0.97350
 H266 H 1.06333 0.59202 1.00326
 H267 H 1.01390 0.60691 0.96744
 Cu268 Cu 1.06700 0.55648 0.97075
 Cu269 Cu 1.02798 0.56833 0.94313
 Cu270 Cu 1.05666 0.52756 0.93219
 N271 N 1.08320 0.53377 0.96455
 N272 N 1.07897 0.52249 0.94941
 C273 C 1.09229 0.50792 0.94823
 C274 C 1.10549 0.51030 0.96338
 C275 C 1.09941 0.52675 0.97350
 H276 H 1.09245 0.49651 0.93717
 H277 H 1.10630 0.53306 0.98635
 N278 N 1.03355 0.53527 0.91656
 N279 N 1.02273 0.55089 0.92060
 C280 C 1.00823 0.55230 0.90719
 C281 C 1.01012 0.53686 0.89425
 C282 C 1.02621 0.52633 0.90050
 H283 H 0.99710 0.56364 0.90684
 H284 H 1.03209 0.51316 0.89381
 H285 H 1.03964 0.54195 0.95276
 H286 H 1.05570 0.55746 0.93683
 N287 N 0.53537 0.08334 0.46645
 N288 N 0.55083 0.07896 0.47722
 C289 C 0.55240 0.09213 0.49193
 C290 C 0.53714 0.10534 0.49014
 C291 C 0.52659 0.09943 0.47391
 H292 H 0.56370 0.09213 0.50310
 H293 H 0.51354 0.10633 0.46799
 Cu294 Cu 0.56715 0.05639 0.47083
 Cu295 Cu 0.52782 0.06790 0.44351
 Cu296 Cu 0.55702 0.02767 0.43201
 N297 N 0.58346 0.03383 0.46443
 N298 N 0.57936 0.02266 0.44919
 C299 C 0.59273 0.00812 0.44800
 C300 C 0.60578 0.01040 0.46328
 C301 C 0.59960 0.02675 0.47348
 H302 H 0.59295 -0.00324 0.43689
 H303 H 0.60633 0.03293 0.48648
 N304 N 0.53378 0.03525 0.41650
 N305 N 0.52262 0.05054 0.42089
 C306 C 0.50800 0.05184 0.40760
 C307 C 0.51016 0.03670 0.39436
 C308 C 0.52655 0.02644 0.40032
 H309 H 0.49662 0.06295 0.40752
 H310 H 0.53270 0.01355 0.39335
 H311 H 0.53997 0.04154 0.45282
 H312 H 0.55565 0.05749 0.43694
 N313 N -0.03550 0.08366 0.53353
 N314 N -0.05091 0.07920 0.52270
 C315 C -0.05256 0.09245 0.50807
 C316 C -0.03738 0.10575 0.50994
 C317 C -0.02681 0.09985 0.52616
 H318 H -0.06390 0.09248 0.49693
 H319 H -0.01380 0.10681 0.53212
 Cu320 Cu -0.06720 0.05659 0.52905
 Cu321 Cu -0.02791 0.06822 0.55644
 Cu322 Cu -0.05700 0.02781 0.56774
 N323 N -0.08351 0.03399 0.53539
 N324 N -0.07936 0.02278 0.55059
 C325 C -0.09280 0.00830 0.55186
 C326 C -0.10596 0.01067 0.53670
 C327 C -0.09978 0.02702 0.52648
 H328 H -0.09301 -0.00308 0.56295
 H329 H -0.10665 0.03330 0.51361
 N330 N -0.03375 0.03538 0.58324
 N331 N -0.02267 0.05077 0.57897
 C332 C -0.00808 0.05210 0.59230
 C333 C -0.01020 0.03687 0.60545
 C334 C -0.02651 0.02653 0.59939
 H335 H 0.00323 0.06329 0.59248
 H336 H -0.03261 0.01356 0.60628
 H337 H -0.03997 0.04192 0.54708
 H338 H -0.05578 0.05774 0.56293
 N339 N 0.46492 0.58348 0.03377
 N340 N 0.44946 0.57909 0.02298
 C341 C 0.44790 0.59228 0.00829
 C342 C 0.46312 0.60555 0.01013
 C343 C 0.47367 0.59963 0.02635
 H344 H 0.43657 0.59232 -0.00288
 H345 H 0.48673 0.60651 0.03228
 Cu346 Cu 0.43314 0.55643 0.02926
 Cu347 Cu 0.47252 0.56803 0.05667
 Cu348 Cu 0.44336 0.52765 0.06798
 N349 N 0.41679 0.53383 0.03568
 N350 N 0.42095 0.52258 0.05084
 C351 C 0.40752 0.50806 0.05204
 C352 C 0.39437 0.51041 0.03683
 C353 C 0.40058 0.52680 0.02668
 H354 H 0.40735 0.49665 0.06309
 H355 H 0.39374 0.53308 0.01377
 N356 N 0.46663 0.53522 0.08352
 N357 N 0.47773 0.55060 0.07922
 C358 C 0.49234 0.55194 0.09253
 C359 C 0.49023 0.53672 0.10570
 C360 C 0.47390 0.52638 0.09968
 H361 H 0.50366 0.56311 0.09268
 H362 H 0.46780 0.51343 0.10659
 H363 H 0.46046 0.54178 0.04728
 H364 H 0.44473 0.55760 0.06321
 N365 N 0.53523 -0.08343 0.03376
 N366 N 0.55067 -0.07902 0.02295
 C367 C 0.55230 -0.09229 0.00833
 C368 C 0.53708 -0.10556 0.01018
 C369 C 0.52651 -0.09961 0.02638
 H370 H 0.56366 -0.09236 -0.00279
 H371 H 0.51348 -0.10654 0.03234
 Cu372 Cu 0.56703 -0.05642 0.02933
 Cu373 Cu 0.52768 -0.06798 0.05669
 Cu374 Cu 0.55698 -0.02778 0.06819
 N375 N 0.58342 -0.03385 0.03572
 N376 N 0.57938 -0.02273 0.05101
 C377 C 0.59285 -0.00825 0.05225
 C378 C 0.60592 -0.01052 0.03697
 C379 C 0.59964 -0.02683 0.02672
 H380 H 0.59311 0.00307 0.06341
 H381 H 0.60640 -0.03304 0.01375
 N382 N 0.53367 -0.03533 0.08369
 N383 N 0.52247 -0.05061 0.07927
 C384 C 0.50782 -0.05192 0.09254
 C385 C 0.51000 -0.03681 0.10581
 C386 C 0.52642 -0.02654 0.09988
 H387 H 0.49642 -0.06302 0.09262
 H388 H 0.53260 -0.01367 0.10688
 H389 H 0.53986 -0.04170 0.04746
 H390 H 0.55557 -0.05768 0.06322
 N391 N 1.03503 0.41655 0.53347
 N392 N 1.05049 0.42095 0.52267
 C393 C 1.05204 0.40778 0.50797
 C394 C 1.03678 0.39456 0.50978
 C395 C 1.02624 0.40045 0.52602
 H396 H 1.06334 0.40778 0.49678
 H397 H 1.01318 0.39356 0.53193
 Cu398 Cu 1.06682 0.44353 0.52908
 Cu399 Cu 1.02748 0.43201 0.55639
 Cu400 Cu 1.05662 0.47237 0.56772
 N401 N 1.08311 0.46617 0.53534
 N402 N 1.07896 0.47740 0.55052
 C403 C 1.09231 0.49197 0.55168
 C404 C 1.10542 0.48965 0.53645
 C405 C 1.09928 0.47324 0.52630
 H406 H 1.09249 0.50338 0.56275
 H407 H 1.10607 0.46701 0.51337
 N408 N 1.03340 0.46476 0.58326
 N409 N 1.02229 0.44941 0.57896
 C410 C 1.00772 0.44805 0.59231
 C411 C 1.00989 0.46323 0.60550
 C412 C 1.02621 0.47357 0.59946
 H413 H 0.99639 0.43687 0.59249
 H414 H 1.03235 0.48650 0.60637
 H415 H 1.03957 0.45835 0.54696
 H416 H 1.05527 0.44252 0.56292
 C417 C 0.35352 -0.01750 0.25463
 C418 C 0.36390 -0.00017 0.25023
 C419 C 0.35354 0.01715 0.24583
 C420 C 0.33292 0.01711 0.24581
 C421 C 0.32267 -0.00019 0.25019
 C422 C 0.33289 -0.01748 0.25460
 C423 C 0.38557 -0.00014 0.25022
 C424 C 0.39594 -0.00448 0.23290
 C425 C 0.41657 -0.00439 0.23291
 C426 C 0.42681 0.00004 0.25015
 C427 C 0.41658 0.00438 0.26741
 C428 C 0.39596 0.00431 0.26749
 H429 H 0.36148 -0.03088 0.25804
 H430 H 0.36152 0.03054 0.24243
 H431 H 0.38799 -0.00789 0.21953
 H432 H 0.38802 0.00769 0.28088
 H433 H 0.30671 -0.00019 0.25017
 H434 H 0.44277 0.00009 0.25012
 C435 C 0.14617 -0.01761 0.74533
 C436 C 0.13579 -0.00028 0.74969
 C437 C 0.14616 0.01705 0.75411
 C438 C 0.16678 0.01703 0.75417
 C439 C 0.17702 -0.00026 0.74981
 C440 C 0.16681 -0.01757 0.74539
 C441 C 0.11412 -0.00024 0.74969
 C442 C 0.10373 -0.00452 0.76701
 C443 C 0.08311 -0.00433 0.76701
 C444 C 0.07289 0.00013 0.74979
 C445 C 0.08312 0.00442 0.73251
 C446 C 0.10374 0.00425 0.73242
 H447 H 0.13821 -0.03100 0.74193
 H448 H 0.13819 0.03043 0.75749
 H449 H 0.11167 -0.00794 0.78038
 H450 H 0.11169 0.00762 0.71903
 H451 H 0.19298 -0.00024 0.74986
 H452 H 0.05692 0.00027 0.74983
 C453 C 0.64659 0.48246 0.24566
 C454 C 0.63620 0.49977 0.25003
 C455 C 0.64654 0.51711 0.25443
 C456 C 0.66716 0.51711 0.25444
 C457 C 0.67742 0.49985 0.25007
 C458 C 0.66721 0.48254 0.24568
 C459 C 0.61455 0.49976 0.25001
 C460 C 0.60416 0.49538 0.26730
 C461 C 0.58355 0.49546 0.26727
 C462 C 0.57333 0.49989 0.25002
 C463 C 0.58358 0.50426 0.23277
 C464 C 0.60420 0.50420 0.23273
 H465 H 0.63865 0.46905 0.24227
 H466 H 0.63857 0.53049 0.25781
 H467 H 0.61210 0.49196 0.28068
 H468 H 0.61217 0.50761 0.21936
 H469 H 0.69338 0.49988 0.25008
 H470 H 0.55737 0.49995 0.25003
 C471 C 0.85384 0.48281 0.75433
 C472 C 0.86421 0.50013 0.74993
 C473 C 0.85386 0.51745 0.74553
 C474 C 0.83324 0.51741 0.74555
 C475 C 0.82300 0.50012 0.74994
 C476 C 0.83322 0.48284 0.75433
 C477 C 0.88586 0.50014 0.74994
 C478 C 0.89623 0.49578 0.73264
 C479 C 0.91685 0.49579 0.73269
 C480 C 0.92707 0.50013 0.74995
 C481 C 0.91683 0.50447 0.76720
 C482 C 0.89622 0.50449 0.76724
 H483 H 0.86180 0.46943 0.75772
 H484 H 0.86184 0.53084 0.74213
 H485 H 0.88829 0.49241 0.71925
 H486 H 0.88826 0.50787 0.78062
 H487 H 0.80704 0.50012 0.74994
 H488 H 0.94304 0.50012 0.74996
 C489 C 0.25404 0.35413 -0.01740
 C490 C 0.24971 0.36447 -0.00009
 C491 C 0.24526 0.35412 0.01719
 C492 C 0.24521 0.33353 0.01713
 C493 C 0.24958 0.32329 -0.00013
 C494 C 0.25398 0.33353 -0.01738
 C495 C 0.24977 0.38609 -0.00006
 C496 C 0.23246 0.39645 -0.00443
 C497 C 0.23254 0.41704 -0.00438
 C498 C 0.24982 0.42726 0.00001
 C499 C 0.26709 0.41703 0.00438
 C500 C 0.26711 0.39642 0.00435
 H501 H 0.25744 0.36209 -0.03077
 H502 H 0.24188 0.36208 0.03056
 H503 H 0.21904 0.38851 -0.00783
 H504 H 0.28050 0.38846 0.00774
 H505 H 0.24955 0.30734 -0.00013
 H506 H 0.24983 0.44322 0.00003
 C507 C 0.74607 0.14594 -0.01717
 C508 C 0.75044 0.13558 0.00012
 C509 C 0.75493 0.14592 0.01740
 C510 C 0.75500 0.16652 0.01735
 C511 C 0.75062 0.17676 0.00011
 C512 C 0.74617 0.16654 -0.01714
 C513 C 0.75038 0.11397 0.00013
 C514 C 0.76768 0.10362 -0.00432
 C515 C 0.76761 0.08303 -0.00430
 C516 C 0.75035 0.07279 0.00017
 C517 C 0.73310 0.08301 0.00462
 C518 C 0.73306 0.10362 0.00462
 H519 H 0.74263 0.13799 -0.03054
 H520 H 0.75834 0.13796 0.03076
 H521 H 0.78108 0.11156 -0.00778
 H522 H 0.71969 0.11157 0.00808
 H523 H 0.75067 0.19272 0.00011
 H524 H 0.75034 0.05683 0.00016
 C525 C 0.24538 0.64581 0.48269
 C526 C 0.24988 0.63546 0.49995
 C527 C 0.25420 0.64580 0.51726
 C528 C 0.25407 0.66640 0.51727
 C529 C 0.24961 0.67663 0.50004
 C530 C 0.24527 0.66641 0.48277
 C531 C 0.24991 0.61384 0.49993
 C532 C 0.26722 0.60348 0.49549
 C533 C 0.26714 0.58287 0.49548
 C534 C 0.24985 0.57266 0.49990
 C535 C 0.23261 0.58290 0.50433
 C536 C 0.23258 0.60349 0.50435
 H537 H 0.24198 0.63785 0.46931
 H538 H 0.25763 0.63784 0.53062
 H539 H 0.28062 0.61143 0.49208
 H540 H 0.21919 0.61144 0.50777
 H541 H 0.24953 0.69259 0.50006
 H542 H 0.24981 0.55670 0.49989
 C543 C 0.75436 0.85435 0.48268
 C544 C 0.74996 0.86468 0.49997
 C545 C 0.74559 0.85435 0.51727
 C546 C 0.74563 0.83376 0.51724
 C547 C 0.75003 0.82352 0.50000
 C548 C 0.75439 0.83376 0.48275
 C549 C 0.74994 0.88627 0.49996
 C550 C 0.73259 0.89657 0.49561
 C551 C 0.73265 0.91716 0.49563
 C552 C 0.74991 0.92742 0.49996
 C553 C 0.76718 0.91721 0.50430
 C554 C 0.76726 0.89662 0.50431
 H555 H 0.75775 0.86230 0.46931
 H556 H 0.74219 0.86231 0.53064
 H557 H 0.71919 0.88860 0.49224
 H558 H 0.78067 0.88870 0.50768
 H559 H 0.75005 0.80757 0.50001
 H560 H 0.74990 0.94338 0.49996
 C561 C -0.01778 0.25450 0.35363
 C562 C -0.00045 0.25014 0.36398
 C563 C 0.01689 0.24577 0.35364
 C564 C 0.01686 0.24576 0.33306
 C565 C -0.00043 0.25012 0.32285
 C566 C -0.01773 0.25449 0.33305
 C567 C -0.00047 0.25014 0.38560
 C568 C -0.00498 0.23284 0.39594
 C569 C -0.00496 0.23287 0.41652
 C570 C -0.00046 0.25012 0.42674
 C571 C 0.00403 0.26738 0.41653
 C572 C 0.00405 0.26743 0.39596
 H573 H -0.03119 0.25789 0.36157
 H574 H 0.03029 0.24239 0.36159
 H575 H -0.00848 0.21947 0.38800
 H576 H 0.00754 0.28080 0.38803
 H577 H -0.00042 0.25011 0.30692
 H578 H -0.00045 0.25011 0.44267
 C579 C -0.01729 0.74560 0.14605
 C580 C 0.00005 0.75004 0.13572
 C581 C 0.01737 0.75446 0.14608
 C582 C 0.01732 0.75441 0.16667
 C583 C 0.00001 0.74999 0.17686
 C584 C -0.01727 0.74559 0.16663
 C585 C 0.00006 0.75004 0.11410
 C586 C -0.00444 0.76733 0.10374
 C587 C -0.00442 0.76728 0.08316
 C588 C 0.00005 0.75002 0.07295
 C589 C 0.00453 0.73277 0.08317
 C590 C 0.00456 0.73275 0.10375
 H591 H -0.03068 0.74218 0.13810
 H592 H 0.03077 0.75789 0.13816
 H593 H -0.00793 0.78070 0.11167
 H594 H 0.00804 0.71938 0.11169
 H595 H -0.00000 0.74997 0.19279
 H596 H 0.00005 0.75002 0.05702
 C597 C 0.48285 0.24539 0.64665
 C598 C 0.50019 0.24982 0.63628
 C599 C 0.51752 0.25423 0.64665
 C600 C 0.51751 0.25422 0.66726
 C601 C 0.50018 0.24979 0.67746
 C602 C 0.48286 0.24539 0.66726
 C603 C 0.50019 0.24981 0.61461
 C604 C 0.49571 0.26710 0.60421
 C605 C 0.49576 0.26705 0.58361
 C606 C 0.50025 0.24978 0.57343
 C607 C 0.50471 0.23253 0.58365
 C608 C 0.50470 0.23251 0.60424
 H609 H 0.46946 0.24198 0.63871
 H610 H 0.53092 0.25764 0.63871
 H611 H 0.49222 0.28048 0.61212
 H612 H 0.50817 0.21914 0.61218
 H613 H 0.50018 0.24979 0.69339
 H614 H 0.50027 0.24976 0.55749
 C615 C 0.48255 0.75443 0.85374
 C616 C 0.49989 0.75008 0.86409
 C617 C 0.51722 0.74572 0.85373
 C618 C 0.51719 0.74572 0.83315
 C619 C 0.49988 0.75006 0.82294
 C620 C 0.48257 0.75442 0.83315
 C621 C 0.49990 0.75006 0.88572
 C622 C 0.49545 0.73275 0.89607
 C623 C 0.49550 0.73276 0.91666
 C624 C 0.49997 0.75003 0.92687
 C625 C 0.50442 0.76731 0.91668
 C626 C 0.50441 0.76736 0.89609
 H627 H 0.46914 0.75780 0.86169
 H628 H 0.53063 0.74235 0.86166
 H629 H 0.49199 0.71937 0.88813
 H630 H 0.50787 0.78075 0.88817
 H631 H 0.49989 0.75006 0.80701
 H632 H 0.49998 0.75001 0.94281
 C633 C 0.12763 0.21712 0.25223
 C634 C 0.11377 0.22065 0.26271
 C635 C 0.09725 0.22491 0.27523
 C636 C 0.09338 0.21305 0.29161
 C637 C 0.07742 0.21729 0.30388
 C638 C 0.06528 0.23341 0.29982
 C639 C 0.06908 0.24521 0.28338
 C640 C 0.08504 0.24098 0.27112
 C641 C 0.04866 0.23765 0.31222
 C642 C 0.03441 0.24129 0.32212
 H643 H 0.10270 0.20056 0.29489
 H644 H 0.07452 0.20798 0.31646
 H645 H 0.05969 0.25763 0.28001
 H646 H 0.08785 0.25021 0.25846
 C647 C 0.62802 0.71729 0.75230
 C648 C 0.61415 0.72078 0.76278
 C649 C 0.59764 0.72500 0.77533
 C650 C 0.59759 0.71849 0.79485
 C651 C 0.58160 0.72270 0.80709
 C652 C 0.56559 0.73344 0.79985
 C653 C 0.56563 0.73992 0.78032
 C654 C 0.58161 0.73571 0.76808
 C655 C 0.54900 0.73765 0.81229
 C656 C 0.53475 0.74128 0.82220
 H657 H 0.60990 0.71017 0.80059
 H658 H 0.58170 0.71757 0.82215
 H659 H 0.55330 0.74819 0.77454
 H660 H 0.58148 0.74080 0.75301
 C661 C 0.37161 0.78285 0.75242
 C662 C 0.38554 0.77939 0.76282
 C663 C 0.40212 0.77520 0.77531
 C664 C 0.40347 0.78391 0.79391
 C665 C 0.41946 0.77968 0.80615
 C666 C 0.43416 0.76671 0.79984
 C667 C 0.43286 0.75807 0.78120
 C668 C 0.41688 0.76230 0.76897
 C669 C 0.45077 0.76249 0.81227
 C670 C 0.46502 0.75887 0.82219
 H671 H 0.39218 0.79394 0.79894
 H672 H 0.42037 0.78653 0.82048
 H673 H 0.44420 0.74811 0.77612
 H674 H 0.41603 0.75551 0.75460
 C675 C -0.12837 0.28291 0.25208
 C676 C -0.11451 0.27945 0.26257
 C677 C -0.09801 0.27524 0.27512
 C678 C -0.09671 0.28397 0.29371
 C679 C -0.08077 0.27975 0.30599
 C680 C -0.06606 0.26677 0.29973
 C681 C -0.06732 0.25810 0.28110
 C682 C -0.08326 0.26232 0.26882
 C683 C -0.04949 0.26257 0.31217
 C684 C -0.03527 0.25895 0.32210
 H685 H -0.10801 0.29402 0.29870
 H686 H -0.07988 0.28662 0.32032
 H687 H -0.05596 0.24813 0.27606
 H688 H -0.08407 0.25552 0.25446
 C689 C -0.12801 0.71749 0.24767
 C690 C -0.11413 0.72098 0.23721
 C691 C -0.09762 0.72517 0.22465
 C692 C -0.09963 0.73859 0.20917
 C693 C -0.08365 0.74258 0.19685
 C694 C -0.06561 0.73315 0.19994
 C695 C -0.06356 0.71982 0.21551
 C696 C -0.07954 0.71583 0.22783
 C697 C -0.04904 0.73744 0.18751
 C698 C -0.03482 0.74110 0.17758
 H699 H -0.11352 0.74597 0.20666
 H700 H -0.08534 0.75305 0.18498
 H701 H -0.04962 0.71258 0.21814
 H702 H -0.07779 0.70550 0.23981
 C703 C 0.37144 0.21718 0.74798
 C704 C 0.38537 0.22067 0.73753
 C705 C 0.40198 0.22486 0.72499
 C706 C 0.42007 0.21552 0.72824
 C707 C 0.43615 0.21954 0.71601
 C708 C 0.43424 0.23290 0.70045
 C709 C 0.41618 0.24230 0.69726
 C710 C 0.40010 0.23829 0.70949
 C711 C 0.45095 0.23723 0.68810
 C712 C 0.46525 0.24090 0.67822
 H713 H 0.42176 0.20518 0.74021
 H714 H 0.45007 0.21229 0.71873
 H715 H 0.41456 0.25277 0.68539
 H716 H 0.38623 0.24566 0.70688
 C717 C 0.62864 0.28272 0.74822
 C718 C 0.61473 0.27921 0.73774
 C719 C 0.59818 0.27496 0.72516
 C720 C 0.58635 0.29027 0.71806
 C721 C 0.57038 0.28614 0.70574
 C722 C 0.56615 0.26668 0.70042
 C723 C 0.57791 0.25137 0.70760
 C724 C 0.59388 0.25549 0.71991
 C725 C 0.54941 0.26238 0.68810
 C726 C 0.53511 0.25872 0.67823
 H727 H 0.58946 0.30537 0.72208
 H728 H 0.56129 0.29809 0.70045
 H729 H 0.57469 0.23625 0.70374
 H730 H 0.60285 0.24352 0.72537
 C731 C 0.12808 0.78301 0.24757
 C732 C 0.11418 0.77948 0.23714
 C733 C 0.09767 0.77518 0.22460
 C734 C 0.07930 0.77064 0.23278
 C735 C 0.06331 0.76643 0.22055
 C736 C 0.06560 0.76674 0.20010
 C737 C 0.08397 0.77124 0.19193
 C738 C 0.09997 0.77546 0.20415
 C739 C 0.04906 0.76249 0.18761
 C740 C 0.03485 0.75886 0.17765
 H741 H 0.07735 0.77035 0.24856
 H742 H 0.04917 0.76293 0.22703
 H743 H 0.08592 0.77150 0.17614
 H744 H 0.11412 0.77892 0.19768
 C745 C 0.25192 0.12791 0.21762
 C746 C 0.26232 0.11401 0.22119
 C747 C 0.27489 0.09749 0.22538
 C748 C 0.28091 0.09374 0.24470
 C749 C 0.29333 0.07785 0.24873
 C750 C 0.29980 0.06564 0.23347
 C751 C 0.29370 0.06933 0.21417
 C752 C 0.28128 0.08522 0.21013
 C753 C 0.31212 0.04895 0.23770
 C754 C 0.32198 0.03467 0.24133
 H755 H 0.27600 0.10308 0.25661
 H756 H 0.29780 0.07503 0.26373
 H757 H 0.29846 0.05988 0.20227
 H758 H 0.27666 0.08794 0.19515
 C759 C 0.75212 0.62803 0.71740
 C760 C 0.76252 0.61414 0.72097
 C761 C 0.77510 0.59764 0.72517
 C762 C 0.77881 0.59218 0.74466
 C763 C 0.79123 0.57631 0.74872
 C764 C 0.80002 0.56585 0.73332
 C765 C 0.79623 0.57124 0.71383
 C766 C 0.78381 0.58711 0.70977
 C767 C 0.81240 0.54921 0.73751
 C768 C 0.82229 0.53495 0.74111
 H769 H 0.77209 0.60016 0.75668
 H770 H 0.79392 0.57214 0.76384
 H771 H 0.80280 0.56313 0.70181
 H772 H 0.78097 0.59116 0.69465
 C773 C 0.75210 0.37202 0.78247
 C774 C 0.76255 0.38593 0.77895
 C775 C 0.77515 0.40244 0.77478
 C776 C 0.78941 0.40829 0.78845
 C777 C 0.80178 0.42423 0.78434
 C778 C 0.79995 0.43436 0.76653
 C779 C 0.78563 0.42856 0.75290
 C780 C 0.77327 0.41263 0.75701
 C781 C 0.81236 0.45101 0.76239
 C782 C 0.82226 0.46528 0.75879
 H783 H 0.79095 0.40055 0.80227
 H784 H 0.81269 0.42868 0.79505
 H785 H 0.78399 0.43640 0.73914
 H786 H 0.76226 0.40829 0.74636
 C787 C 0.25163 -0.12841 0.28276
 C788 C 0.26203 -0.11444 0.27925
 C789 C 0.27463 -0.09790 0.27508
 C790 C 0.27278 -0.08770 0.25730
 C791 C 0.28518 -0.07179 0.25317
 C792 C 0.29951 -0.06599 0.26679
 C793 C 0.30132 -0.07613 0.28460
 C794 C 0.28891 -0.09205 0.28873
 C795 C 0.31196 -0.04933 0.26265
 C796 C 0.32189 -0.03505 0.25906
 H797 H 0.26175 -0.09203 0.24665
 H798 H 0.28354 -0.06396 0.23941
 H799 H 0.31224 -0.07169 0.29531
 H800 H 0.29044 -0.09977 0.30256
 C801 C 0.24792 -0.12860 0.71737
 C802 C 0.23753 -0.11464 0.72088
 C803 C 0.22496 -0.09806 0.72502
 C804 C 0.23167 -0.08268 0.73698
 C805 C 0.21938 -0.06669 0.74108
 C806 C 0.20031 -0.06599 0.73326
 C807 C 0.19363 -0.08132 0.72124
 C808 C 0.20592 -0.09732 0.71714
 C809 C 0.18780 -0.04938 0.73739
 C810 C 0.17783 -0.03513 0.74096
 H811 H 0.24636 -0.08305 0.74313
 H812 H 0.22474 -0.05486 0.75030
 H813 H 0.17897 -0.08090 0.71502
 H814 H 0.20060 -0.10910 0.70785
 C815 C 0.74836 0.37181 0.21797
 C816 C 0.73795 0.38571 0.22151
 C817 C 0.72536 0.40221 0.22564
 C818 C 0.73269 0.42142 0.22426
 C819 C 0.72039 0.43743 0.22816
 C820 C 0.70070 0.43430 0.23345
 C821 C 0.69338 0.41509 0.23486
 C822 C 0.70569 0.39909 0.23096
 C823 C 0.68818 0.45083 0.23764
 C824 C 0.67821 0.46502 0.24124
 H825 H 0.74788 0.42402 0.22017
 H826 H 0.72622 0.45223 0.22709
 H827 H 0.67820 0.41251 0.23900
 H828 H 0.69988 0.38429 0.23208
 C829 C 0.74793 0.62806 0.28261
 C830 C 0.73756 0.61412 0.27908
 C831 C 0.72506 0.59755 0.27493
 C832 C 0.70806 0.59438 0.28614
 C833 C 0.69577 0.57841 0.28201
 C834 C 0.70043 0.56555 0.26663
 C835 C 0.71750 0.56864 0.25550
 C836 C 0.72979 0.58462 0.25963
 C837 C 0.68800 0.54892 0.26249
 C838 C 0.67810 0.53467 0.25890
 H839 H 0.70433 0.60426 0.29805
 H840 H 0.68269 0.57606 0.29080
 H841 H 0.72132 0.55869 0.24368
 H842 H 0.74294 0.58688 0.25093
 C843 C 0.24781 0.12803 0.78219
 C844 C 0.23737 0.11411 0.77869
 C845 C 0.22477 0.09757 0.77455
 C846 C 0.21974 0.09304 0.75512
 C847 C 0.20733 0.07711 0.75110
 C848 C 0.19987 0.06565 0.76650
 C849 C 0.20497 0.07012 0.78593
 C850 C 0.21738 0.08605 0.78995
 C851 C 0.18756 0.04892 0.76230
 C852 C 0.17772 0.03461 0.75866
 H853 H 0.22544 0.10178 0.74310
 H854 H 0.20364 0.07368 0.73601
 H855 H 0.19944 0.06125 0.79794
 H856 H 0.22124 0.08936 0.80502
 C857 C 0.21723 0.25262 0.12770
 C858 C 0.22071 0.26311 0.11387
 C859 C 0.22484 0.27569 0.09740
 C860 C 0.22003 0.29571 0.09823
 C861 C 0.22411 0.30797 0.08225
 C862 C 0.23300 0.30023 0.06539
 C863 C 0.23777 0.28021 0.06454
 C864 C 0.23370 0.26796 0.08051
 C865 C 0.23715 0.31270 0.04885
 C866 C 0.24075 0.32260 0.03463
 H867 H 0.21315 0.30182 0.11122
 H868 H 0.22032 0.32342 0.08302
 H869 H 0.24461 0.27409 0.05153
 H870 H 0.23745 0.25250 0.07970
 C871 C 0.71763 0.75292 0.62778
 C872 C 0.72108 0.76336 0.61391
 C873 C 0.72520 0.77593 0.59744
 C874 C 0.72039 0.79594 0.59829
 C875 C 0.72451 0.80822 0.58233
 C876 C 0.73344 0.80051 0.56549
 C877 C 0.73821 0.78049 0.56462
 C878 C 0.73410 0.76821 0.58056
 C879 C 0.73760 0.81297 0.54897
 C880 C 0.74119 0.82286 0.53475
 H881 H 0.71349 0.80204 0.61126
 H882 H 0.72073 0.82368 0.58311
 H883 H 0.74508 0.77438 0.55162
 H884 H 0.73785 0.75276 0.57973
 C885 C 0.78250 0.75291 0.37226
 C886 C 0.77901 0.76337 0.38610
 C887 C 0.77485 0.77595 0.40255
 C888 C 0.76825 0.76786 0.42028
 C889 C 0.76416 0.78011 0.43624
 C890 C 0.76666 0.80049 0.43453
 C891 C 0.77329 0.80859 0.41683
 C892 C 0.77738 0.79633 0.40086
 C893 C 0.76247 0.81296 0.45104
 C894 C 0.75885 0.82285 0.46525
 H895 H 0.76626 0.75212 0.42177
 H896 H 0.75906 0.77372 0.44990
 H897 H 0.77529 0.82433 0.41538
 H898 H 0.78250 0.80272 0.38721
 C899 C 0.28244 0.25275 -0.12799
 C900 C 0.27887 0.26317 -0.11412
 C901 C 0.27461 0.27571 -0.09764
 C902 C 0.26797 0.26759 -0.07993
 C903 C 0.26382 0.27981 -0.06395
 C904 C 0.26628 0.30021 -0.06561
 C905 C 0.27293 0.30834 -0.08330
 C906 C 0.27708 0.29611 -0.09929
 C907 C 0.26205 0.31267 -0.04909
 C908 C 0.25843 0.32259 -0.03488
 H909 H 0.26602 0.25184 -0.07847
 H910 H 0.25870 0.27338 -0.05031
 H911 H 0.27490 0.32408 -0.08472
 H912 H 0.28222 0.30253 -0.11291
 C913 C 0.71774 0.24719 -0.12784
 C914 C 0.72133 0.23681 -0.11394
 C915 C 0.72559 0.22431 -0.09744
 C916 C 0.72575 0.23205 -0.07837
 C917 C 0.72984 0.21984 -0.06237
 C918 C 0.73379 0.19984 -0.06536
 C919 C 0.73367 0.19210 -0.08441
 C920 C 0.72958 0.20431 -0.10042
 C921 C 0.73807 0.18740 -0.04884
 C922 C 0.74171 0.17749 -0.03463
 H923 H 0.72272 0.24749 -0.07588
 H924 H 0.72995 0.22598 -0.04769
 H925 H 0.73676 0.17667 -0.08687
 H926 H 0.72953 0.19819 -0.11510
 C927 C 0.21746 0.74749 0.37225
 C928 C 0.22091 0.73699 0.38608
 C929 C 0.22500 0.72437 0.40254
 C930 C 0.22506 0.73203 0.42164
 C931 C 0.22901 0.71974 0.43761
 C932 C 0.23289 0.69974 0.43457
 C933 C 0.23284 0.69207 0.41549
 C934 C 0.22889 0.70436 0.39950
 C935 C 0.23712 0.68726 0.45107
 C936 C 0.24077 0.67734 0.46527
 H937 H 0.22208 0.74748 0.42417
 H938 H 0.22906 0.72583 0.45232
 H939 H 0.23588 0.67664 0.41298
 H940 H 0.22889 0.69829 0.38480
 C941 C 0.28204 0.74742 0.62787
 C942 C 0.27856 0.73692 0.61404
 C943 C 0.27443 0.72431 0.59757
 C944 C 0.27127 0.70415 0.60051
 C945 C 0.26724 0.69188 0.58452
 C946 C 0.26638 0.69972 0.56552
 C947 C 0.26954 0.71987 0.56258
 C948 C 0.27356 0.73214 0.57856
 C949 C 0.26213 0.68724 0.54901
 C950 C 0.25850 0.67733 0.53479
 H951 H 0.27190 0.69795 0.61514
 H952 H 0.26479 0.67632 0.58695
 H953 H 0.26887 0.72608 0.54794
 H954 H 0.27598 0.74769 0.57610
 C955 C 0.78313 0.24724 0.12803
 C956 C 0.77961 0.23678 0.11419
 C957 C 0.77543 0.22422 0.09770
 C958 C 0.77244 0.20404 0.10057
 C959 C 0.76842 0.19181 0.08455
 C960 C 0.76739 0.19974 0.06561
 C961 C 0.77037 0.21993 0.06274
 C962 C 0.77439 0.23215 0.07875
 C963 C 0.76314 0.18731 0.04907
 C964 C 0.75949 0.17743 0.03485
 H965 H 0.77320 0.19777 0.11518
 H966 H 0.76609 0.17623 0.08692
 H967 H 0.76956 0.22621 0.04813
 H968 H 0.77667 0.24774 0.07635
 C969 C 0.46716 0.37767 0.50251
 C970 C 0.47069 0.36382 0.51300
 C971 C 0.47496 0.34734 0.52556
 C972 C 0.47822 0.32869 0.51744
 C973 C 0.48239 0.31270 0.52966
 C974 C 0.48331 0.31526 0.55007
 C975 C 0.48008 0.33390 0.55818
 C976 C 0.47591 0.34991 0.54596
 C977 C 0.48759 0.29873 0.56258
 C978 C 0.49124 0.28456 0.57258
 H979 H 0.47754 0.32654 0.50169
 H980 H 0.48489 0.29835 0.52320
 H981 H 0.48079 0.33606 0.57392
 H982 H 0.47344 0.36426 0.55239
 C983 C -0.03286 0.87800 0.00245
 C984 C -0.02943 0.86415 0.01293
 C985 C -0.02528 0.84765 0.02547
 C986 C -0.02201 0.82904 0.01730
 C987 C -0.01787 0.81302 0.02948
 C988 C -0.01700 0.81554 0.04988
 C989 C -0.02026 0.83415 0.05806
 C990 C -0.02440 0.85018 0.04588
 C991 C -0.01267 0.79899 0.06231
 C992 C -0.00897 0.78479 0.07222
 H993 H -0.02266 0.82692 0.00154
 H994 H -0.01534 0.79870 0.02299
 H995 H -0.01958 0.83625 0.07381
 H996 H -0.02690 0.86451 0.05234
 C997 C 0.03300 0.62206 0.00243
 C998 C 0.02948 0.63588 0.01293
 C999 C 0.02525 0.65237 0.02547
 C1000 C 0.01670 0.64934 0.04395
 C1001 C 0.01262 0.66537 0.05616
 C1002 C 0.01711 0.68448 0.04994
 C1003 C 0.02560 0.68751 0.03143
 C1004 C 0.02967 0.67149 0.01922
 C1005 C 0.01276 0.70104 0.06233
 C1006 C 0.00907 0.71526 0.07223
 H1007 H 0.01317 0.63461 0.04889
 H1008 H 0.00594 0.66287 0.07039
 H1009 H 0.02901 0.70225 0.02641
 H1010 H 0.03623 0.67400 0.00494
 C1011 C 0.53305 0.12187 0.50262
 C1012 C 0.52958 0.13573 0.51309
 C1013 C 0.52540 0.15223 0.52565
 C1014 C 0.52979 0.17137 0.51944
 C1015 C 0.52574 0.18737 0.53169
 C1016 C 0.51729 0.18430 0.55022
 C1017 C 0.51282 0.16516 0.55640
 C1018 C 0.51688 0.14916 0.54414
 C1019 C 0.51296 0.20084 0.56270
 C1020 C 0.50926 0.21502 0.57267
 H1021 H 0.53632 0.17392 0.50515
 H1022 H 0.52914 0.20212 0.52671
 H1023 H 0.50618 0.16263 0.57063
 H1024 H 0.51337 0.13442 0.54905
 C1025 C -0.03329 0.12227 0.49747
 C1026 C -0.02980 0.13610 0.48696
 C1027 C -0.02561 0.15255 0.47437
 C1028 C -0.01438 0.14989 0.45732
 C1029 C -0.01033 0.16588 0.44505
 C1030 C -0.01752 0.18458 0.44978
 C1031 C -0.02868 0.18726 0.46687
 C1032 C -0.03273 0.17127 0.47914
 C1033 C -0.01318 0.20113 0.43737
 C1034 C -0.00949 0.21535 0.42746
 H1035 H -0.00874 0.13548 0.45355
 H1036 H -0.00156 0.16368 0.43195
 H1037 H -0.03419 0.20169 0.47074
 H1038 H -0.04136 0.17351 0.49233
 C1039 C 0.46726 0.62208 0.99767
 C1040 C 0.47077 0.63594 0.98719
 C1041 C 0.47498 0.65243 0.97464
 C1042 C 0.48621 0.64978 0.95759
 C1043 C 0.49025 0.66577 0.94531
 C1044 C 0.48303 0.68448 0.95001
 C1045 C 0.47188 0.68715 0.96712
 C1046 C 0.46785 0.67116 0.97940
 C1047 C 0.48734 0.70103 0.93756
 C1048 C 0.49100 0.71523 0.92762
 H1049 H 0.49186 0.63538 0.95383
 H1050 H 0.49901 0.66357 0.93221
 H1051 H 0.46637 0.70159 0.97098
 H1052 H 0.45921 0.67341 0.99259
 C1053 C 0.53295 0.87792 0.99769
 C1054 C 0.52943 0.86409 0.98719
 C1055 C 0.52520 0.84761 0.97462
 C1056 C 0.52249 0.82885 0.98269
 C1057 C 0.51834 0.81285 0.97045
 C1058 C 0.51690 0.81555 0.95010
 C1059 C 0.51958 0.83430 0.94204
 C1060 C 0.52372 0.85030 0.95428
 C1061 C 0.51261 0.79902 0.93760
 C1062 C 0.50894 0.78482 0.92765
 H1063 H 0.52356 0.82659 0.99840
 H1064 H 0.51625 0.79841 0.97685
 H1065 H 0.51844 0.83655 0.92633
 H1066 H 0.52575 0.86475 0.94791
 C1067 C 0.03267 0.37806 0.49729
 C1068 C 0.02919 0.36421 0.48681
 C1069 C 0.02499 0.34770 0.47427
 C1070 C 0.02228 0.32897 0.48239
 C1071 C 0.01812 0.31296 0.47020
 C1072 C 0.01666 0.31561 0.44985
 C1073 C 0.01938 0.33433 0.44173
 C1074 C 0.02354 0.35035 0.45393
 C1075 C 0.01232 0.29908 0.43740
 C1076 C 0.00860 0.28488 0.42748
 H1077 H 0.02335 0.32676 0.49811
 H1078 H 0.01601 0.29853 0.47664
 H1079 H 0.01826 0.33654 0.42602
 H1080 H 0.02561 0.36479 0.44752
 C1081 C 0.37764 0.50153 0.46767
 C1082 C 0.36374 0.51192 0.47126
 C1083 C 0.34724 0.52448 0.47547
 C1084 C 0.32924 0.52144 0.46593
 C1085 C 0.31331 0.53385 0.46980
 C1086 C 0.31533 0.54935 0.48321
 C1087 C 0.33329 0.55231 0.49284
 C1088 C 0.34922 0.53990 0.48897
 C1089 C 0.29881 0.56187 0.48740
 C1090 C 0.28464 0.57187 0.49101
 H1091 H 0.32753 0.50952 0.45551
 H1092 H 0.29943 0.53133 0.46239
 H1093 H 0.33495 0.56416 0.50335
 H1094 H 0.36306 0.54233 0.49647
 C1095 C 0.87794 0.00187 -0.03226
 C1096 C 0.86410 0.01230 -0.02866
 C1097 C 0.84768 0.02489 -0.02445
 C1098 C 0.82866 0.01920 -0.02992
 C1099 C 0.81273 0.03157 -0.02604
 C1100 C 0.81578 0.04967 -0.01667
 C1101 C 0.83479 0.05533 -0.01113
 C1102 C 0.85073 0.04295 -0.01502
 C1103 C 0.79929 0.06216 -0.01244
 C1104 C 0.78510 0.07209 -0.00879
 H1105 H 0.82616 0.00524 -0.03718
 H1106 H 0.79806 0.02702 -0.03030
 H1107 H 0.83727 0.06925 -0.00380
 H1108 H 0.86540 0.04743 -0.01070
 C1109 C 0.62254 0.00173 0.03255
 C1110 C 0.63643 0.01213 0.02892
 C1111 C 0.65293 0.02467 0.02469
 C1112 C 0.65093 0.04015 0.01127
 C1113 C 0.66687 0.05257 0.00739
 C1114 C 0.68486 0.04955 0.01694
 C1115 C 0.68691 0.03399 0.03026
 C1116 C 0.67097 0.02158 0.03414
 C1117 C 0.70139 0.06206 0.01273
 C1118 C 0.71558 0.07204 0.00911
 H1119 H 0.63706 0.04262 0.00384
 H1120 H 0.66520 0.06446 -0.00306
 H1121 H 0.70082 0.03143 0.03760
 H1122 H 0.67270 0.00961 0.04449
 C1123 C 0.12206 0.50185 0.53213
 C1124 C 0.13598 0.51222 0.52862
 C1125 C 0.15249 0.52475 0.52451
 C1126 C 0.16405 0.53197 0.53993
 C1127 C 0.17992 0.54443 0.53595
 C1128 C 0.18424 0.54971 0.51654
 C1129 C 0.17275 0.54238 0.50112
 C1130 C 0.15689 0.52992 0.50510
 C1131 C 0.20084 0.56210 0.51239
 C1132 C 0.21508 0.57199 0.50879
 H1133 H 0.16081 0.52796 0.55498
 H1134 H 0.18885 0.54986 0.54796
 H1135 H 0.17611 0.54622 0.48605
 H1136 H 0.14808 0.52432 0.49308
 C1137 C 0.12214 0.49811 -0.03235
 C1138 C 0.13603 0.48771 -0.02885
 C1139 C 0.15246 0.47512 -0.02472
 C1140 C 0.16847 0.48225 -0.01391
 C1141 C 0.18439 0.46993 -0.00982
 C1142 C 0.18435 0.45045 -0.01653
 C1143 C 0.16837 0.44333 -0.02738
 C1144 C 0.15244 0.45565 -0.03146
 C1145 C 0.20085 0.43794 -0.01240
 C1146 C 0.21504 0.42799 -0.00882
 H1147 H 0.16865 0.49730 -0.00869
 H1148 H 0.19674 0.47559 -0.00149
 H1149 H 0.16824 0.42831 -0.03269
 H1150 H 0.14014 0.45004 -0.03989
 C1151 C 0.62240 0.99822 0.46761
 C1152 C 0.63630 0.98788 0.47114
 C1153 C 0.65279 0.97537 0.47526
 C1154 C 0.66368 0.97802 0.49251
 C1155 C 0.67953 0.96562 0.49663
 C1156 C 0.68450 0.95054 0.48352
 C1157 C 0.67371 0.94799 0.46620
 C1158 C 0.65786 0.96039 0.46208
 C1159 C 0.70098 0.93805 0.48765
 C1160 C 0.71516 0.92809 0.49122
 H1161 H 0.65992 0.98962 0.50274
 H1162 H 0.68793 0.96781 0.50997
 H1163 H 0.67757 0.93649 0.45589
 H1164 H 0.64956 0.95831 0.44866
 C1165 C 0.87741 0.99846 0.53239
 C1166 C 0.86354 0.98805 0.52885
 C1167 C 0.84711 0.97545 0.52468
 C1168 C 0.84546 0.95725 0.53417
 C1169 C 0.82957 0.94488 0.53005
 C1170 C 0.81532 0.95069 0.51640
 C1171 C 0.81693 0.96892 0.50696
 C1172 C 0.83282 0.98129 0.51109
 C1173 C 0.79884 0.93816 0.51228
 C1174 C 0.78467 0.92818 0.50871
 H1175 H 0.85644 0.95266 0.54475
 H1176 H 0.82837 0.93086 0.53750
 H1177 H 0.80590 0.97358 0.49646
 H1178 H 0.83395 0.99536 0.50371
 C1179 C 0.37769 0.49821 0.03249
 C1180 C 0.36373 0.48788 0.02892
 C1181 C 0.34717 0.47539 0.02475
 C1182 C 0.34107 0.47249 0.00532
 C1183 C 0.32521 0.46003 0.00126
 C1184 C 0.31540 0.45042 0.01661
 C1185 C 0.32139 0.45347 0.03605
 C1186 C 0.33725 0.46592 0.04012
 C1187 C 0.29883 0.43796 0.01243
 C1188 C 0.28462 0.42800 0.00883
 H1189 H 0.34858 0.47982 -0.00665
 H1190 H 0.32056 0.45794 -0.01381
 H1191 H 0.31377 0.44627 0.04804
 H1192 H 0.34179 0.46815 0.05520
 C1193 C 0.50252 0.46724 0.37783
 C1194 C 0.51293 0.47072 0.36393
 C1195 C 0.52547 0.47489 0.34741
 C1196 C 0.52127 0.49079 0.33503
 C1197 C 0.53360 0.49497 0.31913
 C1198 C 0.55018 0.48327 0.31554
 C1199 C 0.55432 0.46730 0.32785
 C1200 C 0.54199 0.46312 0.34376
 C1201 C 0.56263 0.48743 0.29898
 C1202 C 0.57257 0.49102 0.28477
 H1203 H 0.50850 0.49994 0.33767
 H1204 H 0.53019 0.50726 0.30960
 H1205 H 0.56702 0.45808 0.32512
 H1206 H 0.54532 0.45075 0.35320
 C1207 C 0.00219 -0.03259 0.87759
 C1208 C 0.01260 -0.02900 0.86372
 C1209 C 0.02511 -0.02476 0.84722
 C1210 C 0.02087 -0.00886 0.83485
 C1211 C 0.03316 -0.00469 0.81891
 C1212 C 0.04974 -0.01638 0.81531
 C1213 C 0.05392 -0.03233 0.82761
 C1214 C 0.04163 -0.03651 0.84355
 C1215 C 0.06217 -0.01222 0.79873
 C1216 C 0.07213 -0.00868 0.78453
 H1217 H 0.00809 0.00028 0.83752
 H1218 H 0.02971 0.00760 0.80939
 H1219 H 0.06661 -0.04155 0.82485
 H1220 H 0.04499 -0.04888 0.85299
 C1221 C 0.00206 0.03264 0.62208
 C1222 C 0.01240 0.02906 0.63599
 C1223 C 0.02488 0.02478 0.65250
 C1224 C 0.02131 0.03365 0.67072
 C1225 C 0.03365 0.02968 0.68666
 C1226 C 0.04962 0.01684 0.68442
 C1227 C 0.05309 0.00785 0.66625
 C1228 C 0.04075 0.01183 0.65032
 C1229 C 0.06213 0.01259 0.70091
 C1230 C 0.07212 0.00894 0.71505
 H1231 H 0.00903 0.04362 0.67260
 H1232 H 0.03073 0.03656 0.70070
 H1233 H 0.06528 -0.00223 0.66442
 H1234 H 0.04357 0.00482 0.63631
 C1235 C 0.50254 0.53251 0.12231
 C1236 C 0.51292 0.52897 0.13621
 C1237 C 0.52544 0.52474 0.15271
 C1238 C 0.53526 0.50667 0.15384
 C1239 C 0.54765 0.50265 0.16973
 C1240 C 0.55030 0.51670 0.18453
 C1241 C 0.54036 0.53472 0.18349
 C1242 C 0.52797 0.53874 0.16760
 C1243 C 0.56271 0.51243 0.20109
 C1244 C 0.57263 0.50877 0.21528
 H1245 H 0.53332 0.49570 0.14246
 H1246 H 0.55510 0.48859 0.17051
 H1247 H 0.54214 0.54560 0.19498
 H1248 H 0.52037 0.55272 0.16693
 C1249 C 0.49767 -0.03263 0.12242
 C1250 C 0.48725 -0.02915 0.13632
 C1251 C 0.47471 -0.02497 0.15282
 C1252 C 0.45846 -0.03704 0.15677
 C1253 C 0.44612 -0.03286 0.17267
 C1254 C 0.44998 -0.01659 0.18467
 C1255 C 0.46629 -0.00458 0.18080
 C1256 C 0.47863 -0.00876 0.16490
 C1257 C 0.43750 -0.01240 0.20121
 C1258 C 0.42754 -0.00881 0.21541
 H1259 H 0.45534 -0.04966 0.14757
 H1260 H 0.43364 -0.04232 0.17564
 H1261 H 0.46950 0.00795 0.19009
 H1262 H 0.49119 0.00063 0.16203
 C1263 C 0.99763 0.46744 0.62213
 C1264 C 0.98727 0.47098 0.63604
 C1265 C 0.97479 0.47519 0.65256
 C1266 C 0.95855 0.46313 0.65654
 C1267 C 0.94626 0.46732 0.67246
 C1268 C 0.95015 0.48360 0.68443
 C1269 C 0.96646 0.49561 0.68052
 C1270 C 0.97875 0.49142 0.66460
 C1271 C 0.93774 0.48778 0.70100
 C1272 C 0.92781 0.49137 0.71520
 H1273 H 0.95541 0.45051 0.64735
 H1274 H 0.93378 0.45787 0.67546
 H1275 H 0.96969 0.50814 0.68980
 H1276 H 0.99131 0.50080 0.66170
 C1277 C 0.99780 0.53258 0.87768
 C1278 C 0.98742 0.52899 0.86380
 C1279 C 0.97494 0.52476 0.84729
 C1280 C 0.97129 0.53928 0.83317
 C1281 C 0.95891 0.53526 0.81728
 C1282 C 0.95012 0.51671 0.81546
 C1283 C 0.95390 0.50213 0.82948
 C1284 C 0.96628 0.50615 0.84538
 C1285 C 0.93772 0.51248 0.79890
 C1286 C 0.92779 0.50888 0.78470
 H1287 H 0.97800 0.55368 0.83445
 H1288 H 0.95625 0.54656 0.80639
 H1289 H 0.94735 0.48767 0.82808
 H1290 H 0.96910 0.49478 0.85616
 C1291 C 0.49781 0.03242 0.37781
 C1292 C 0.48738 0.02883 0.36396
 C1293 C 0.47483 0.02458 0.34749
 C1294 C 0.47954 0.03184 0.32883
 C1295 C 0.46719 0.02789 0.31288
 C1296 C 0.45008 0.01669 0.31555
 C1297 C 0.44544 0.00933 0.33418
 C1298 C 0.45778 0.01328 0.35013
 C1299 C 0.43757 0.01246 0.29905
 C1300 C 0.42758 0.00884 0.28489
 H1301 H 0.49272 0.04053 0.32661
 H1302 H 0.47100 0.03353 0.29849
 H1303 H 0.43233 0.00053 0.33636
 H1304 H 0.45405 0.00753 0.36449
   
