data_POSCAR
  _audit_creation_date              2014-09-24
  _audit_creation_method            'ToBaCCo'
  _symmetry_space_group_name_H-M    'P1'
  _symmetry_Int_Tables_number       1
  _symmetry_cell_setting            triclinic
  loop_
  _symmetry_equiv_pos_as_xyz
 x,y,z
_cell_length_a 63.7257
_cell_length_b 63.4218
_cell_length_c 66.3249
_cell_angle_alpha 90.181300
_cell_angle_beta 89.717300
_cell_angle_gamma 90.037700
loop_
  _atom_site_label
  _atom_site_type_symbol
  _atom_site_fract_x
  _atom_site_fract_y
  _atom_site_fract_z
N1 N 0.37199 0.32704 0.33996
 N2 N 0.36978 0.33930 0.32418
 C3 C 0.38406 0.33396 0.31010
 C4 C 0.39621 0.31774 0.31753
 C5 C 0.38795 0.31355 0.33649
 H6 H 0.38500 0.34071 0.29516
 H7 H 0.39280 0.30125 0.34672
 Cu8 Cu 0.34767 0.36018 0.32315
 Cu9 Cu 0.35324 0.32927 0.36334
 Cu10 Cu 0.30691 0.35694 0.35442
 N11 N 0.32579 0.38137 0.32284
 N12 N 0.30956 0.37996 0.33508
 C13 C 0.29554 0.39500 0.33029
 C14 C 0.30360 0.40664 0.31439
 C15 C 0.32271 0.39736 0.30995
 H16 H 0.28023 0.39672 0.33723
 H17 H 0.33288 0.40111 0.29737
 N18 N 0.31082 0.33817 0.37775
 N19 N 0.32848 0.32800 0.38137
 C20 C 0.32579 0.31588 0.39782
 C21 C 0.30559 0.31880 0.40507
 C22 C 0.29652 0.33289 0.39185
 H23 H 0.33736 0.30504 0.40363
 H24 H 0.28037 0.33810 0.39196
 H25 H 0.32914 0.33485 0.34425
 H26 H 0.33827 0.35834 0.35872
 N27 N 0.37970 0.83193 -0.15556
 N28 N 0.37877 0.84586 -0.17011
 C29 C 0.39309 0.84102 -0.18433
 C30 C 0.40399 0.82312 -0.17835
 C31 C 0.39483 0.81780 -0.15994
 H32 H 0.39511 0.84976 -0.19818
 H33 H 0.39758 0.80374 -0.15116
 Cu34 Cu 0.35753 0.86772 -0.17021
 Cu35 Cu 0.36004 0.83256 -0.13287
 Cu36 Cu 0.31439 0.86101 -0.14182
 N37 N 0.33176 0.88256 -0.17607
 N38 N 0.31477 0.87978 -0.16512
 C39 C 0.29880 0.89043 -0.17356
 C40 C 0.30599 0.89982 -0.19121
 C41 C 0.32722 0.89490 -0.19189
 H42 H 0.28284 0.89025 -0.16795
 H43 H 0.33866 0.89995 -0.20296
 N44 N 0.31745 0.84130 -0.11901
 N45 N 0.33486 0.83066 -0.11551
 C46 C 0.33165 0.81774 -0.09972
 C47 C 0.31132 0.82051 -0.09277
 C48 C 0.30274 0.83541 -0.10550
 H49 H 0.34296 0.80647 -0.09419
 H50 H 0.28661 0.84069 -0.10553
 H51 H 0.33733 0.84086 -0.15288
 H52 H 0.34580 0.86210 -0.13526
 N53 N 0.87232 0.33000 -0.16144
 N54 N 0.87215 0.34658 -0.17328
 C55 C 0.88467 0.34295 -0.18929
 C56 C 0.89262 0.32271 -0.18779
 C57 C 0.88483 0.31514 -0.16965
 H58 H 0.88728 0.35403 -0.20141
 H59 H 0.88745 0.29969 -0.16327
 Cu60 Cu 0.85371 0.37035 -0.16806
 Cu61 Cu 0.85552 0.32912 -0.13675
 Cu62 Cu 0.81077 0.35974 -0.14037
 N63 N 0.82947 0.38882 -0.16821
 N64 N 0.81258 0.38455 -0.15758
 C65 C 0.79739 0.39833 -0.16242
 C66 C 0.80513 0.41219 -0.17692
 C67 C 0.82562 0.40538 -0.18022
 H68 H 0.78166 0.39781 -0.15626
 H69 H 0.83626 0.41050 -0.19198
 N70 N 0.81413 0.33734 -0.12002
 N71 N 0.83142 0.32605 -0.11834
 C72 C 0.82885 0.31192 -0.10342
 C73 C 0.80904 0.31457 -0.09514
 C74 C 0.80008 0.33067 -0.10621
 H75 H 0.84028 0.30010 -0.09933
 H76 H 0.78421 0.33652 -0.10479
 H77 H 0.83322 0.34120 -0.15467
 H78 H 0.84220 0.35952 -0.13438
 N79 N 0.87602 0.83127 0.34089
 N80 N 0.87286 0.84381 0.32548
 C81 C 0.88554 0.83801 0.31016
 C82 C 0.89766 0.82116 0.31644
 C83 C 0.89102 0.81719 0.33599
 H84 H 0.88543 0.84506 0.29534
 H85 H 0.89628 0.80462 0.34572
 Cu86 Cu 0.85213 0.86619 0.32671
 Cu87 Cu 0.85940 0.83350 0.36560
 Cu88 Cu 0.81322 0.86221 0.36064
 N89 N 0.82665 0.88260 0.32417
 N90 N 0.81141 0.88094 0.33746
 C91 C 0.79523 0.89306 0.33165
 C92 C 0.80027 0.90242 0.31333
 C93 C 0.82068 0.89575 0.30940
 H94 H 0.78112 0.89528 0.34051
 H95 H 0.83009 0.89926 0.29622
 N96 N 0.81833 0.84251 0.38304
 N97 N 0.83606 0.83203 0.38521
 C98 C 0.83411 0.81883 0.40098
 C99 C 0.81423 0.82117 0.40922
 C100 C 0.80465 0.83618 0.39731
 H101 H 0.84580 0.80739 0.40536
 H102 H 0.78841 0.84101 0.39815
 H103 H 0.83421 0.84080 0.34799
 H104 H 0.84511 0.86295 0.36315
 N105 N 0.62466 0.68069 0.33990
 N106 N 0.62104 0.66491 0.32750
 C107 C 0.60422 0.66952 0.31616
 C108 C 0.59671 0.68916 0.32189
 C109 C 0.61025 0.69585 0.33689
 H110 H 0.59876 0.66003 0.30367
 H111 H 0.61032 0.71108 0.34427
 Cu112 Cu 0.64047 0.64137 0.32559
 Cu113 Cu 0.64977 0.68168 0.35655
 Cu114 Cu 0.67333 0.63288 0.36390
 N115 N 0.65932 0.61733 0.32548
 N116 N 0.67187 0.61379 0.34077
 C117 C 0.68395 0.59693 0.33654
 C118 C 0.67882 0.58955 0.31749
 C119 C 0.66325 0.60307 0.31087
 H120 H 0.69642 0.59127 0.34611
 H121 H 0.65634 0.60335 0.29602
 N122 N 0.67939 0.65785 0.38075
 N123 N 0.67075 0.67648 0.37763
 C124 C 0.67945 0.69066 0.39017
 C125 C 0.69456 0.68061 0.40145
 C126 C 0.69395 0.65975 0.39531
 H127 H 0.67570 0.70729 0.39056
 H128 H 0.70394 0.64712 0.40049
 H129 H 0.66873 0.65751 0.34475
 H130 H 0.64569 0.65067 0.36093
 N131 N 0.62269 0.17706 -0.15778
 N132 N 0.62237 0.16344 -0.17276
 C133 C 0.60970 0.17078 -0.18733
 C134 C 0.60186 0.19013 -0.18118
 C135 C 0.61004 0.19336 -0.16216
 H136 H 0.60721 0.16317 -0.20174
 H137 H 0.60769 0.20702 -0.15261
 Cu138 Cu 0.64029 0.13867 -0.17266
 Cu139 Cu 0.64192 0.17447 -0.13528
 Cu140 Cu 0.67432 0.13048 -0.13518
 N141 N 0.66378 0.11937 -0.17589
 N142 N 0.67701 0.11626 -0.16108
 C143 C 0.69211 0.10292 -0.16727
 C144 C 0.68865 0.09781 -0.18736
 C145 C 0.67008 0.10814 -0.19209
 H146 H 0.70443 0.09714 -0.15760
 H147 H 0.66226 0.10834 -0.20653
 N148 N 0.67488 0.15221 -0.11391
 N149 N 0.66253 0.16891 -0.11395
 C150 C 0.66851 0.18208 -0.09913
 C151 C 0.68539 0.17330 -0.08924
 C152 C 0.68913 0.15442 -0.09911
 H153 H 0.66226 0.19774 -0.09673
 H154 H 0.70215 0.14384 -0.09662
 H155 H 0.66441 0.15665 -0.15033
 H156 H 0.64378 0.14238 -0.13578
 N157 N 0.12122 0.67912 -0.15454
 N158 N 0.12547 0.67035 -0.17208
 C159 C 0.11281 0.67864 -0.18615
 C160 C 0.10016 0.69360 -0.17697
 C161 C 0.10565 0.69324 -0.15681
 H162 H 0.11351 0.67494 -0.20206
 H163 H 0.09957 0.70327 -0.14493
 Cu164 Cu 0.14878 0.65078 -0.17571
 Cu165 Cu 0.13857 0.67370 -0.13120
 Cu166 Cu 0.17454 0.63525 -0.13233
 N167 N 0.16881 0.62705 -0.17504
 N168 N 0.17822 0.62085 -0.15838
 C169 C 0.19166 0.60513 -0.16288
 C170 C 0.19076 0.60143 -0.18340
 C171 C 0.17592 0.61533 -0.19059
 H172 H 0.20196 0.59759 -0.15220
 H173 H 0.17131 0.61727 -0.20614
 N174 N 0.17553 0.65779 -0.11232
 N175 N 0.16159 0.67305 -0.11211
 C176 C 0.16706 0.68744 -0.09817
 C177 C 0.18527 0.68069 -0.08889
 C178 C 0.19027 0.66186 -0.09836
 H179 H 0.15904 0.70227 -0.09575
 H180 H 0.20413 0.65236 -0.09598
 H181 H 0.16712 0.65896 -0.15116
 H182 H 0.14556 0.63949 -0.14724
 N183 N 0.12272 0.17799 0.33883
 N184 N 0.12413 0.16364 0.32455
 C185 C 0.10929 0.16732 0.31063
 C186 C 0.09769 0.18475 0.31661
 C187 C 0.10682 0.19117 0.33455
 H188 H 0.10803 0.15901 0.29643
 H189 H 0.10305 0.20518 0.34317
 Cu190 Cu 0.14723 0.14363 0.32431
 Cu191 Cu 0.14410 0.18078 0.35968
 Cu192 Cu 0.17557 0.13649 0.36597
 N193 N 0.16987 0.12315 0.32496
 N194 N 0.18094 0.12034 0.34142
 C195 C 0.19593 0.10584 0.33778
 C196 C 0.19440 0.09962 0.31784
 C197 C 0.17755 0.11069 0.31023
 H198 H 0.20735 0.10061 0.34869
 H199 H 0.17179 0.11010 0.29494
 N200 N 0.17428 0.15984 0.38564
 N201 N 0.16259 0.17681 0.38312
 C202 C 0.16712 0.19085 0.39772
 C203 C 0.18236 0.18234 0.41004
 C204 C 0.18664 0.16273 0.40183
 H205 H 0.16092 0.20670 0.39853
 H206 H 0.19882 0.15196 0.40652
 H207 H 0.16882 0.16213 0.34872
 H208 H 0.14564 0.14919 0.36070
 N209 N 0.62924 0.31706 0.65833
 N210 N 0.62712 0.33189 0.67207
 C211 C 0.61312 0.32551 0.68604
 C212 C 0.60619 0.30552 0.68084
 C213 C 0.61636 0.30092 0.66286
 H214 H 0.60897 0.33431 0.69947
 H215 H 0.61504 0.28658 0.65409
 Cu216 Cu 0.64410 0.35731 0.67114
 Cu217 Cu 0.65077 0.31836 0.63743
 Cu218 Cu 0.68045 0.36433 0.63514
 N219 N 0.66605 0.37838 0.67394
 N220 N 0.68010 0.38131 0.65965
 C221 C 0.69342 0.39666 0.66536
 C222 C 0.68735 0.40380 0.68425
 C223 C 0.67007 0.39162 0.68935
 H224 H 0.70678 0.40195 0.65661
 H225 H 0.66143 0.39197 0.70342
 N226 N 0.68426 0.34055 0.61629
 N227 N 0.67332 0.32290 0.61748
 C228 C 0.68149 0.30874 0.60451
 C229 C 0.69854 0.31775 0.59494
 C230 C 0.69961 0.33809 0.60244
 H231 H 0.67624 0.29261 0.60290
 H232 H 0.71133 0.34986 0.59884
 H233 H 0.67099 0.33902 0.65208
 H234 H 0.65075 0.35033 0.63507
 N235 N 0.62689 0.81634 1.16140
 N236 N 0.62876 0.82829 1.17752
 C237 C 0.61557 0.82130 1.19190
 C238 C 0.60500 0.80389 1.18450
 C239 C 0.61230 0.80140 1.16492
 H240 H 0.61424 0.82794 1.20690
 H241 H 0.60778 0.78930 1.15426
 Cu242 Cu 0.64931 0.85094 1.17924
 Cu243 Cu 0.64534 0.82014 1.13831
 Cu244 Cu 0.67507 0.86359 1.13477
 N245 N 0.66583 0.87698 1.17572
 N246 N 0.67533 0.88199 1.15867
 C247 C 0.68648 0.89980 1.16144
 C248 C 0.68355 0.90651 1.18111
 C249 C 0.67046 0.89162 1.18973
 H250 H 0.69684 0.90673 1.15032
 H251 H 0.66568 0.89092 1.20538
 N252 N 0.68056 0.83874 1.11822
 N253 N 0.66932 0.82147 1.12006
 C254 C 0.67771 0.80627 1.10835
 C255 C 0.69527 0.81443 1.09881
 C256 C 0.69633 0.83524 1.10506
 H257 H 0.67192 0.79026 1.10737
 H258 H 0.70809 0.84677 1.10091
 H259 H 0.67015 0.84210 1.15661
 H260 H 0.64617 0.85709 1.14942
 N261 N 0.12679 0.31822 1.16014
 N262 N 0.12833 0.33338 1.17360
 C263 C 0.11374 0.33043 1.18805
 C264 C 0.10216 0.31262 1.18326
 C265 C 0.11106 0.30520 1.16550
 H266 H 0.11255 0.33965 1.20174
 H267 H 0.10714 0.29076 1.15764
 Cu268 Cu 0.15097 0.35384 1.17203
 Cu269 Cu 0.14756 0.31468 1.13868
 Cu270 Cu 0.17632 0.35999 1.12817
 N271 N 0.17279 0.37497 1.16893
 N272 N 0.18271 0.37747 1.15167
 C273 C 0.19720 0.39281 1.15372
 C274 C 0.19653 0.39994 1.17347
 C275 C 0.18071 0.38847 1.18259
 H276 H 0.20762 0.39811 1.14185
 H277 H 0.17574 0.38960 1.19817
 N278 N 0.17479 0.33557 1.10965
 N279 N 0.16446 0.31809 1.11397
 C280 C 0.16894 0.30339 1.09992
 C281 C 0.18264 0.31200 1.08593
 C282 C 0.18607 0.33241 1.09268
 H283 H 0.16387 0.28714 1.10064
 H284 H 0.19714 0.34363 1.08650
 H285 H 0.17198 0.33511 1.14703
 H286 H 0.14746 0.34623 1.13611
 N287 N 0.12430 0.81925 0.66344
 N288 N 0.11926 0.83763 0.67128
 C289 C 0.10448 0.83488 0.68555
 C290 C 0.10054 0.81351 0.68724
 C291 C 0.11305 0.80408 0.67268
 H292 H 0.09815 0.84734 0.69495
 H293 H 0.11475 0.78736 0.66988
 Cu294 Cu 0.13546 0.86269 0.66540
 Cu295 Cu 0.14675 0.81639 0.64351
 Cu296 Cu 0.17133 0.86259 0.62850
 N297 N 0.15816 0.88307 0.66490
 N298 N 0.17236 0.88314 0.65047
 C299 C 0.18701 0.89780 0.65475
 C300 C 0.18160 0.90746 0.67283
 C301 C 0.16331 0.89751 0.67890
 H302 H 0.20102 0.90055 0.64587
 H303 H 0.15505 0.89969 0.69304
 N304 N 0.17436 0.83582 0.61373
 N305 N 0.16537 0.81810 0.61965
 C306 C 0.17139 0.80242 0.60718
 C307 C 0.18468 0.81070 0.59266
 C308 C 0.18639 0.83187 0.59743
 H309 H 0.16708 0.78604 0.60893
 H310 H 0.19623 0.84340 0.58999
 H311 H 0.16443 0.84266 0.65107
 H312 H 0.14263 0.84626 0.63272
 N313 N 0.37542 0.68484 0.66756
 N314 N 0.37361 0.66971 0.68096
 C315 C 0.38748 0.67305 0.69587
 C316 C 0.39884 0.69110 0.69146
 C317 C 0.39057 0.69826 0.67345
 H318 H 0.38834 0.66389 0.70956
 H319 H 0.39456 0.71273 0.66573
 Cu320 Cu 0.35133 0.64894 0.67867
 Cu321 Cu 0.35572 0.68769 0.64526
 Cu322 Cu 0.32751 0.64208 0.63441
 N323 N 0.32965 0.62772 0.67536
 N324 N 0.32024 0.62505 0.65793
 C325 C 0.30537 0.61007 0.65989
 C326 C 0.30527 0.60335 0.67973
 C327 C 0.32102 0.61468 0.68903
 H328 H 0.29509 0.60485 0.64794
 H329 H 0.32532 0.61392 0.70477
 N330 N 0.32979 0.66612 0.61566
 N331 N 0.33995 0.68368 0.62004
 C332 C 0.33607 0.69806 0.60565
 C333 C 0.32290 0.68914 0.59143
 C334 C 0.31918 0.66890 0.59837
 H335 H 0.34111 0.71433 0.60624
 H336 H 0.30830 0.65758 0.59208
 H337 H 0.33113 0.66725 0.65312
 H338 H 0.35605 0.65610 0.64281
 N339 N 0.37790 0.17867 1.15920
 N340 N 0.37261 0.16778 1.17530
 C341 C 0.38388 0.17467 1.19113
 C342 C 0.39684 0.19080 1.18463
 C343 C 0.39302 0.19255 1.16416
 H344 H 0.38202 0.16921 1.20647
 H345 H 0.39989 0.20384 1.15386
 Cu346 Cu 0.35000 0.14725 1.17407
 Cu347 Cu 0.36275 0.17596 1.13373
 Cu348 Cu 0.31499 0.14963 1.13730
 N349 N 0.32771 0.12639 1.17224
 N350 N 0.31425 0.12710 1.15729
 C351 C 0.29918 0.11257 1.16034
 C352 C 0.30309 0.10261 1.17848
 C353 C 0.32153 0.11150 1.18543
 H354 H 0.28575 0.11026 1.15066
 H355 H 0.32905 0.10826 1.19967
 N356 N 0.32198 0.16893 1.11506
 N357 N 0.34031 0.17853 1.11337
 C358 C 0.33941 0.19231 1.09796
 C359 C 0.31944 0.19158 1.08988
 C360 C 0.30899 0.17633 1.10082
 H361 H 0.35188 0.20307 1.09383
 H362 H 0.29264 0.17204 1.09935
 H363 H 0.33569 0.17172 1.14980
 H364 H 0.34634 0.14750 1.13746
 N365 N 0.88296 0.67239 1.16573
 N366 N 0.88283 0.65753 1.17947
 C367 C 0.89649 0.66256 1.19411
 C368 C 0.90617 0.68142 1.18912
 C369 C 0.89700 0.68726 1.17104
 H370 H 0.89820 0.65385 1.20799
 H371 H 0.89953 0.70182 1.16294
 Cu372 Cu 0.86335 0.63415 1.17818
 Cu373 Cu 0.86257 0.67291 1.14379
 Cu374 Cu 0.82252 0.63594 1.14658
 N375 N 0.83918 0.61609 1.18195
 N376 N 0.82299 0.61714 1.16980
 C377 C 0.80760 0.60465 1.17697
 C378 C 0.81446 0.59554 1.19469
 C379 C 0.83475 0.60281 1.19716
 H380 H 0.79224 0.60298 1.17029
 H381 H 0.84524 0.59930 1.20947
 N382 N 0.82501 0.65640 1.12437
 N383 N 0.84014 0.67061 1.12340
 C384 C 0.83641 0.68352 1.10775
 C385 C 0.81824 0.67698 1.09819
 C386 C 0.81140 0.65983 1.10927
 H387 H 0.84545 0.69750 1.10431
 H388 H 0.79697 0.65117 1.10702
 H389 H 0.84004 0.65859 1.16143
 H390 H 0.85446 0.64132 1.14315
 N391 N 0.87754 0.17254 0.66125
 N392 N 0.87441 0.16166 0.67782
 C393 C 0.88536 0.17051 0.69296
 C394 C 0.89590 0.18791 0.68547
 C395 C 0.89107 0.18832 0.66512
 H396 H 0.88500 0.16528 0.70846
 H397 H 0.89627 0.19975 0.65410
 Cu398 Cu 0.85505 0.13800 0.67807
 Cu399 Cu 0.86166 0.16706 0.63666
 Cu400 Cu 0.81741 0.13573 0.64359
 N401 N 0.83626 0.11390 0.67680
 N402 N 0.82115 0.11339 0.66340
 C403 C 0.80823 0.09721 0.66756
 C404 C 0.81578 0.08672 0.68431
 C405 C 0.83360 0.09786 0.68981
 H406 H 0.79350 0.09438 0.65999
 H407 H 0.84294 0.09539 0.70316
 N408 N 0.82122 0.15435 0.62016
 N409 N 0.83811 0.16607 0.61742
 C410 C 0.83506 0.17862 0.60137
 C411 C 0.81545 0.17436 0.59337
 C412 C 0.80715 0.15890 0.60576
 H413 H 0.84561 0.19114 0.59687
 H414 H 0.79152 0.15231 0.60498
 H415 H 0.83641 0.16028 0.65437
 H416 H 0.84880 0.13703 0.64182
 N417 N 0.32358 0.37824 0.66397
 N418 N 0.33618 0.37661 0.67951
 C419 C 0.33183 0.39216 0.69272
 C420 C 0.31582 0.40442 0.68498
 C421 C 0.31090 0.39498 0.66673
 H422 H 0.33877 0.39361 0.70751
 H423 H 0.29812 0.39918 0.65686
 Cu424 Cu 0.35563 0.35316 0.68223
 Cu425 Cu 0.32198 0.35625 0.64353
 Cu426 Cu 0.35933 0.31694 0.64520
 N427 N 0.37922 0.33375 0.68041
 N428 N 0.38058 0.31956 0.66598
 C429 C 0.39703 0.30687 0.66960
 C430 C 0.40676 0.31363 0.68709
 C431 C 0.39491 0.33066 0.69359
 H432 H 0.40075 0.29287 0.66096
 H433 H 0.39695 0.33944 0.70745
 N434 N 0.33900 0.31945 0.62303
 N435 N 0.32463 0.33441 0.62245
 C436 C 0.31178 0.33069 0.60679
 C437 C 0.31851 0.31270 0.59681
 C438 C 0.33575 0.30595 0.60763
 H439 H 0.29766 0.33951 0.60367
 H440 H 0.34455 0.29161 0.60507
 H441 H 0.33437 0.33142 0.65936
 H442 H 0.35344 0.34880 0.64594
 N443 N 0.32529 0.88006 0.15987
 N444 N 0.34112 0.88203 0.17234
 C445 C 0.33657 0.89695 0.18614
 C446 C 0.31704 0.90534 0.18178
 C447 C 0.31030 0.89404 0.16506
 H448 H 0.34624 0.90052 0.19906
 H449 H 0.29522 0.89525 0.15776
 Cu450 Cu 0.36546 0.86389 0.17029
 Cu451 Cu 0.32424 0.85769 0.13957
 Cu452 Cu 0.36819 0.82538 0.13594
 N453 N 0.38545 0.84109 0.17298
 N454 N 0.38645 0.82598 0.15942
 C455 C 0.40083 0.81173 0.16515
 C456 C 0.40946 0.81834 0.18323
 C457 C 0.39909 0.83694 0.18788
 H458 H 0.40406 0.79717 0.15721
 H459 H 0.40090 0.84641 0.20135
 N460 N 0.34360 0.82236 0.11835
 N461 N 0.32661 0.83417 0.12006
 C462 C 0.31178 0.82653 0.10760
 C463 C 0.31974 0.80895 0.09784
 C464 C 0.34008 0.80702 0.10470
 H465 H 0.29599 0.83260 0.10637
 H466 H 0.35115 0.79476 0.10076
 H467 H 0.34449 0.83706 0.15391
 H468 H 0.35570 0.85587 0.13523
 N469 N 0.81947 0.37302 0.16065
 N470 N 0.83516 0.37559 0.17322
 C471 C 0.83089 0.39193 0.18555
 C472 C 0.81158 0.40028 0.18033
 C473 C 0.80470 0.38768 0.16456
 H474 H 0.84037 0.39650 0.19831
 H475 H 0.78962 0.38842 0.15720
 Cu476 Cu 0.85810 0.35541 0.17394
 Cu477 Cu 0.81815 0.34879 0.14239
 Cu478 Cu 0.86610 0.32385 0.13429
 N479 N 0.88145 0.33572 0.17332
 N480 N 0.88450 0.32327 0.15769
 C481 C 0.90078 0.31037 0.16146
 C482 C 0.90838 0.31505 0.18047
 C483 C 0.89560 0.33107 0.18762
 H484 H 0.90613 0.29795 0.15148
 H485 H 0.89592 0.33800 0.20254
 N486 N 0.84152 0.31958 0.11685
 N487 N 0.82312 0.32852 0.12025
 C488 C 0.80896 0.32028 0.10744
 C489 C 0.81886 0.30521 0.09572
 C490 C 0.83955 0.30540 0.10183
 H491 H 0.79241 0.32404 0.10740
 H492 H 0.85192 0.29503 0.09661
 H493 H 0.84134 0.32849 0.15339
 H494 H 0.84918 0.35205 0.13836
 N495 N 0.81397 0.86886 0.66482
 N496 N 0.82824 0.87099 0.67891
 C497 C 0.82120 0.88475 0.69288
 C498 C 0.80138 0.89142 0.68736
 C499 C 0.79750 0.88137 0.66921
 H500 H 0.82946 0.88900 0.70651
 H501 H 0.78345 0.88258 0.66021
 Cu502 Cu 0.85411 0.85468 0.67866
 Cu503 Cu 0.81646 0.84796 0.64348
 Cu504 Cu 0.86067 0.81642 0.64363
 N505 N 0.87807 0.83566 0.67902
 N506 N 0.88060 0.82090 0.66528
 C507 C 0.89712 0.80884 0.67027
 C508 C 0.90563 0.81653 0.68799
 C509 C 0.89298 0.83347 0.69320
 H510 H 0.90168 0.79457 0.66243
 H511 H 0.89389 0.84274 0.70688
 N512 N 0.83874 0.81410 0.62298
 N513 N 0.82169 0.82589 0.62316
 C514 C 0.80836 0.81863 0.60905
 C515 C 0.81733 0.80132 0.59974
 C516 C 0.83679 0.79917 0.60861
 H517 H 0.79270 0.82460 0.60655
 H518 H 0.84816 0.78692 0.60553
 H519 H 0.83513 0.82762 0.65993
 H520 H 0.84883 0.84674 0.64294
 N521 N 0.66989 0.62303 0.66120
 N522 N 0.65506 0.62421 0.67499
 C523 C 0.65846 0.60938 0.68908
 C524 C 0.67618 0.59799 0.68368
 C525 C 0.68303 0.60722 0.66590
 H526 H 0.64978 0.60808 0.70308
 H527 H 0.69733 0.60366 0.65774
 Cu528 Cu 0.63473 0.64703 0.67442
 Cu529 Cu 0.67350 0.64482 0.64075
 Cu530 Cu 0.63146 0.67915 0.63459
 N531 N 0.61434 0.66975 0.67369
 N532 N 0.61322 0.68252 0.65815
 C533 C 0.59821 0.69706 0.66171
 C534 C 0.58933 0.69295 0.68038
 C535 C 0.60016 0.67573 0.68765
 H536 H 0.59418 0.70974 0.65157
 H537 H 0.59818 0.66852 0.70230
 N538 N 0.65543 0.67765 0.61560
 N539 N 0.67134 0.66456 0.61795
 C540 C 0.68570 0.66825 0.60346
 C541 C 0.67854 0.68437 0.59133
 C542 C 0.65940 0.69014 0.59961
 H543 H 0.70083 0.66061 0.60241
 H544 H 0.64955 0.70306 0.59484
 H545 H 0.65547 0.66967 0.65245
 H546 H 0.64206 0.64818 0.63828
 N547 N 0.66997 0.12319 0.16306
 N548 N 0.65757 0.12727 0.17849
 C549 C 0.66233 0.11414 0.19373
 C550 C 0.67836 0.10090 0.18744
 C551 C 0.68290 0.10725 0.16794
 H552 H 0.65565 0.11504 0.20872
 H553 H 0.69555 0.10153 0.15847
 Cu554 Cu 0.63789 0.15063 0.17772
 Cu555 Cu 0.67106 0.14117 0.13926
 Cu556 Cu 0.63634 0.18335 0.13819
 N557 N 0.61807 0.17389 0.17673
 N558 N 0.61708 0.18622 0.16088
 C559 C 0.60274 0.20140 0.16427
 C560 C 0.59470 0.19876 0.18350
 C561 C 0.60452 0.18095 0.19084
 H562 H 0.59892 0.21384 0.15379
 H563 H 0.60245 0.17419 0.20567
 N564 N 0.65706 0.17783 0.11671
 N565 N 0.66986 0.16149 0.11679
 C566 C 0.68373 0.16359 0.10153
 C567 C 0.67956 0.18217 0.09140
 C568 C 0.66261 0.19081 0.10158
 H569 H 0.69701 0.15330 0.09897
 H570 H 0.65614 0.20637 0.09931
 H571 H 0.66053 0.16832 0.15337
 H572 H 0.64042 0.15124 0.14108
 N573 N 0.16853 0.62406 0.16065
 N574 N 0.15615 0.62714 0.17630
 C575 C 0.16068 0.61283 0.19060
 C576 C 0.17657 0.59991 0.18345
 C577 C 0.18125 0.60763 0.16444
 H578 H 0.15402 0.61273 0.20563
 H579 H 0.19387 0.60247 0.15465
 Cu580 Cu 0.13722 0.65114 0.17716
 Cu581 Cu 0.16976 0.64367 0.13800
 Cu582 Cu 0.13646 0.68704 0.14040
 N583 N 0.11877 0.67549 0.17875
 N584 N 0.11809 0.68914 0.16390
 C585 C 0.10480 0.70482 0.16884
 C586 C 0.09717 0.70110 0.18806
 C587 C 0.10609 0.68217 0.19376
 H588 H 0.10136 0.71822 0.15937
 H589 H 0.10400 0.67430 0.20808
 N590 N 0.15629 0.68215 0.11798
 N591 N 0.16868 0.66551 0.11683
 C592 C 0.18205 0.66810 0.10124
 C593 C 0.17797 0.68730 0.09216
 C594 C 0.16161 0.69578 0.10331
 H595 H 0.19494 0.65763 0.09770
 H596 H 0.15542 0.71157 0.10196
 H597 H 0.16025 0.67002 0.15406
 H598 H 0.13957 0.65472 0.14068
 N599 N 0.17581 0.12867 0.66898
 N600 N 0.15948 0.12675 0.68101
 C601 C 0.16234 0.10995 0.69307
 C602 C 0.18138 0.10074 0.68812
 C603 C 0.18959 0.11322 0.67294
 H604 H 0.15185 0.10525 0.70511
 H605 H 0.20495 0.11184 0.66605
 Cu606 Cu 0.13750 0.14802 0.68119
 Cu607 Cu 0.17925 0.15253 0.65092
 Cu608 Cu 0.13365 0.18077 0.64170
 N609 N 0.11617 0.16985 0.68023
 N610 N 0.11468 0.18269 0.66477
 C611 C 0.09905 0.19653 0.66825
 C612 C 0.09020 0.19201 0.68684
 C613 C 0.10165 0.17517 0.69411
 H614 H 0.09478 0.20924 0.65824
 H615 H 0.09999 0.16787 0.70875
 N616 N 0.15878 0.18252 0.62434
 N617 N 0.17617 0.17200 0.62811
 C618 C 0.19075 0.17705 0.61423
 C619 C 0.18213 0.19140 0.60101
 C620 C 0.16192 0.19477 0.60802
 H621 H 0.20668 0.17119 0.61402
 H622 H 0.15055 0.20567 0.60197
 H623 H 0.15677 0.17414 0.66147
 H624 H 0.14802 0.15125 0.64588
 N625 N 0.32243 0.61806 0.33408
 N626 N 0.33699 0.61889 0.32001
 C627 C 0.33165 0.60592 0.30476
 C628 C 0.31285 0.59622 0.30970
 C629 C 0.30735 0.60453 0.32832
 H630 H 0.34057 0.60395 0.29097
 H631 H 0.29307 0.60157 0.33673
 Cu632 Cu 0.36097 0.63751 0.32280
 Cu633 Cu 0.32382 0.63518 0.35844
 Cu634 Cu 0.35749 0.67818 0.35521
 N635 N 0.38018 0.66115 0.32129
 N636 N 0.37902 0.67687 0.33420
 C637 C 0.39336 0.69153 0.32913
 C638 C 0.40410 0.68467 0.31211
 C639 C 0.39504 0.66542 0.30741
 H640 H 0.39526 0.70650 0.33676
 H641 H 0.39817 0.65579 0.29425
 N642 N 0.33470 0.67607 0.37542
 N643 N 0.32242 0.65938 0.37703
 C644 C 0.30777 0.66308 0.39130
 C645 C 0.31067 0.68326 0.39870
 C646 C 0.32809 0.69089 0.38858
 H647 H 0.29528 0.65229 0.39529
 H648 H 0.33476 0.70649 0.39006
 H649 H 0.33570 0.65897 0.34099
 H650 H 0.35467 0.64645 0.35853
 N651 N 0.32684 0.11598 0.83010
 N652 N 0.34352 0.11449 0.81844
 C653 C 0.33944 0.10123 0.80308
 C654 C 0.31890 0.09441 0.80494
 C655 C 0.31151 0.10377 0.82247
 H656 H 0.35031 0.09754 0.79100
 H657 H 0.29582 0.10254 0.82865
 Cu658 Cu 0.36777 0.13228 0.82275
 Cu659 Cu 0.32576 0.13495 0.85333
 Cu660 Cu 0.36538 0.17240 0.85579
 N661 N 0.38757 0.15542 0.82157
 N662 N 0.38695 0.17088 0.83479
 C663 C 0.40139 0.18543 0.82966
 C664 C 0.41160 0.17877 0.81225
 C665 C 0.40215 0.15975 0.80744
 H666 H 0.40353 0.20032 0.83738
 H667 H 0.40465 0.15043 0.79395
 N668 N 0.34205 0.17106 0.87547
 N669 N 0.32723 0.15652 0.87479
 C670 C 0.31312 0.16040 0.88952
 C671 C 0.31925 0.17828 0.89999
 C672 C 0.33755 0.18472 0.89046
 H673 H 0.29885 0.15150 0.89188
 H674 H 0.34622 0.19904 0.89344
 H675 H 0.34352 0.15703 0.83818
 H676 H 0.35747 0.14078 0.85735
 N677 N 0.82331 0.62155 0.83595
 N678 N 0.83858 0.62092 0.82257
 C679 C 0.83244 0.60945 0.80657
 C680 C 0.81200 0.60289 0.80987
 C681 C 0.80685 0.61048 0.82887
 H682 H 0.84203 0.60643 0.79337
 H683 H 0.79206 0.60856 0.83673
 Cu684 Cu 0.86431 0.63666 0.82643
 Cu685 Cu 0.82623 0.63696 0.86133
 Cu686 Cu 0.86449 0.67603 0.86030
 N687 N 0.88497 0.65901 0.82515
 N688 N 0.88510 0.67433 0.83852
 C689 C 0.89958 0.68869 0.83307
 C690 C 0.90899 0.68209 0.81525
 C691 C 0.89911 0.66324 0.81058
 H692 H 0.90223 0.70347 0.84083
 H693 H 0.90091 0.65413 0.79687
 N694 N 0.84230 0.67467 0.88111
 N695 N 0.82811 0.65952 0.88182
 C696 C 0.81474 0.66346 0.89717
 C697 C 0.82087 0.68192 0.90670
 C698 C 0.83823 0.68870 0.89589
 H699 H 0.80100 0.65411 0.90061
 H700 H 0.84658 0.70338 0.89800
 H701 H 0.84108 0.65986 0.84516
 H702 H 0.85818 0.64443 0.86238
 N703 N 0.82721 0.12113 0.33316
 N704 N 0.84344 0.12079 0.32086
 C705 C 0.83935 0.10776 0.30531
 C706 C 0.81920 0.09994 0.30770
 C707 C 0.81214 0.10844 0.32575
 H708 H 0.84986 0.10498 0.29272
 H709 H 0.79677 0.10635 0.33243
 Cu710 Cu 0.86673 0.14011 0.32439
 Cu711 Cu 0.82614 0.13939 0.35691
 Cu712 Cu 0.86795 0.17397 0.36305
 N713 N 0.88387 0.16545 0.32344
 N714 N 0.88457 0.17851 0.33883
 C715 C 0.89709 0.19489 0.33421
 C716 C 0.90408 0.19230 0.31457
 C717 C 0.89569 0.17324 0.30832
 H718 H 0.90045 0.20793 0.34424
 H719 H 0.89756 0.16591 0.29367
 N720 N 0.84415 0.17245 0.38193
 N721 N 0.82839 0.15913 0.37993
 C722 C 0.81402 0.16328 0.39437
 C723 C 0.82094 0.18019 0.40589
 C724 C 0.84001 0.18569 0.39730
 H725 H 0.79903 0.15540 0.39571
 H726 H 0.84942 0.19938 0.40089
 H727 H 0.84467 0.16296 0.34474
 H728 H 0.85775 0.14262 0.36050
 N729 N 0.68012 0.37202 0.34155
 N730 N 0.66875 0.36931 0.32524
 C731 C 0.67646 0.38156 0.31041
 C732 C 0.69367 0.39238 0.31778
 C733 C 0.69527 0.38628 0.33773
 H734 H 0.67045 0.38214 0.29520
 H735 H 0.70688 0.39143 0.34853
 Cu736 Cu 0.64571 0.34917 0.32487
 Cu737 Cu 0.67511 0.35576 0.36605
 Cu738 Cu 0.64465 0.31089 0.35906
 N739 N 0.62201 0.32984 0.32653
 N740 N 0.62173 0.31479 0.34011
 C741 C 0.60515 0.30214 0.33681
 C742 C 0.59425 0.30975 0.32036
 C743 C 0.60554 0.32727 0.31412
 H744 H 0.60191 0.28781 0.34506
 H745 H 0.60281 0.33647 0.30069
 N746 N 0.66362 0.31463 0.38206
 N747 N 0.67466 0.33195 0.38513
 C748 C 0.68715 0.32901 0.40120
 C749 C 0.68366 0.30894 0.40869
 C750 C 0.66874 0.30027 0.39606
 H751 H 0.69892 0.34011 0.40624
 H752 H 0.66311 0.28419 0.39625
 H753 H 0.66860 0.33061 0.34810
 H754 H 0.64537 0.34248 0.36107
 N755 N 0.67490 0.87732 0.84860
 N756 N 0.66464 0.87361 0.83178
 C757 C 0.67180 0.88665 0.81734
 C758 C 0.68743 0.89910 0.82549
 C759 C 0.68871 0.89309 0.84549
 H760 H 0.66696 0.88629 0.80173
 H761 H 0.69968 0.89886 0.85661
 Cu762 Cu 0.64489 0.85032 0.82996
 Cu763 Cu 0.67141 0.85946 0.87237
 Cu764 Cu 0.64716 0.81131 0.86315
 N765 N 0.62463 0.82738 0.82912
 N766 N 0.62523 0.81237 0.84274
 C767 C 0.61099 0.79749 0.83809
 C768 C 0.60139 0.80313 0.82022
 C769 C 0.61014 0.82241 0.81518
 H770 H 0.60851 0.78318 0.84660
 H771 H 0.60697 0.83148 0.80176
 N772 N 0.66556 0.81633 0.88642
 N773 N 0.67400 0.83488 0.89045
 C774 C 0.68755 0.83271 0.90583
 C775 C 0.68812 0.81166 0.91125
 C776 C 0.67364 0.80186 0.89896
 H777 H 0.69758 0.84515 0.91146
 H778 H 0.67055 0.78511 0.89817
 H779 H 0.66880 0.83409 0.85352
 H780 H 0.64386 0.84255 0.86596
 N781 N 0.17808 0.37761 0.83203
 N782 N 0.16227 0.37846 0.81943
 C783 C 0.16540 0.39447 0.80650
 C784 C 0.18398 0.40458 0.81148
 C785 C 0.19162 0.39326 0.82775
 H786 H 0.15573 0.39755 0.79350
 H787 H 0.20658 0.39540 0.83511
 Cu788 Cu 0.14046 0.35702 0.81983
 Cu789 Cu 0.18187 0.35373 0.85009
 Cu790 Cu 0.13625 0.32549 0.86012
 N791 N 0.11809 0.33635 0.82201
 N792 N 0.11634 0.32403 0.83784
 C793 C 0.09981 0.31103 0.83525
 C794 C 0.09065 0.31561 0.81687
 C795 C 0.10287 0.33156 0.80881
 H796 H 0.09513 0.29882 0.84571
 H797 H 0.10119 0.33858 0.79407
 N798 N 0.16210 0.32284 0.87629
 N799 N 0.17963 0.33303 0.87201
 C800 C 0.19510 0.32573 0.88383
 C801 C 0.18704 0.30994 0.89589
 C802 C 0.16596 0.30884 0.89104
 H803 H 0.21132 0.33069 0.88300
 H804 H 0.15455 0.29786 0.89703
 H805 H 0.15971 0.33162 0.83994
 H806 H 0.15077 0.35476 0.85516
 N807 N 0.17511 0.88423 0.33804
 N808 N 0.16213 0.88034 0.32314
 C809 C 0.16679 0.89309 0.30758
 C810 C 0.18330 0.90603 0.31315
 C811 C 0.18826 0.89984 0.33257
 H812 H 0.15945 0.89231 0.29293
 H813 H 0.20106 0.90563 0.34171
 Cu814 Cu 0.14129 0.85810 0.32521
 Cu815 Cu 0.17497 0.86739 0.36265
 Cu816 Cu 0.14789 0.81988 0.35884
 N817 N 0.11994 0.83660 0.32916
 N818 N 0.12257 0.82149 0.34241
 C819 C 0.10689 0.80737 0.34054
 C820 C 0.09353 0.81416 0.32545
 C821 C 0.10249 0.83267 0.31847
 H822 H 0.10590 0.79270 0.34877
 H823 H 0.09751 0.84170 0.30555
 N824 N 0.16948 0.82533 0.37939
 N825 N 0.17926 0.84360 0.38129
 C826 C 0.19393 0.84191 0.39575
 C827 C 0.19357 0.82149 0.40303
 C828 C 0.17765 0.81156 0.39259
 H829 H 0.20480 0.85426 0.39992
 H830 H 0.17312 0.79518 0.39385
 H831 H 0.16846 0.84159 0.34536
 H832 H 0.14612 0.85137 0.36108
 C833 C 0.24944 1.05711 0.24768
 C834 C 0.25726 1.04650 0.23072
 C835 C 0.25681 1.02438 0.23016
 C836 C 0.24896 1.01267 0.24669
 C837 C 0.24124 1.02388 0.26363
 C838 C 0.24117 1.04595 0.26399
 C839 C 0.24898 0.98900 0.24645
 C840 C 0.23474 0.97749 0.25852
 C841 C 0.23524 0.95539 0.25905
 C842 C 0.25010 0.94453 0.24742
 C843 C 0.26420 0.95547 0.23499
 C844 C 0.26344 0.97761 0.23447
 H845 H 0.24962 1.07420 0.24812
 H846 H 0.26236 1.01660 0.21664
 H847 H 0.23548 1.01573 0.27683
 H848 H 0.22297 0.98547 0.26751
 H849 H 0.25059 0.92745 0.24795
 H850 H 0.27449 0.98577 0.22485
 C851 C 0.24621 0.55940 0.74556
 C852 C 0.25543 0.54852 0.72946
 C853 C 0.25534 0.52641 0.72935
 C854 C 0.24673 0.51488 0.74565
 C855 C 0.23779 0.52637 0.76187
 C856 C 0.23722 0.54844 0.76166
 C857 C 0.24715 0.49116 0.74575
 C858 C 0.23300 0.47949 0.75783
 C859 C 0.23321 0.45735 0.75785
 C860 C 0.24772 0.44666 0.74565
 C861 C 0.26212 0.45775 0.73377
 C862 C 0.26180 0.47987 0.73384
 H863 H 0.24619 0.57650 0.74566
 H864 H 0.26192 0.51853 0.71631
 H865 H 0.23153 0.51851 0.77501
 H866 H 0.22157 0.48734 0.76727
 H867 H 0.24798 0.42957 0.74559
 H868 H 0.27334 0.48797 0.72474
 C869 C 0.74387 -0.05168 0.24648
 C870 C 0.75509 -0.04157 0.26180
 C871 C 0.75655 -0.01948 0.26196
 C872 C 0.74716 -0.00734 0.24659
 C873 C 0.73633 -0.01807 0.23109
 C874 C 0.73405 -0.04001 0.23146
 C875 C 0.74795 0.01632 0.24705
 C876 C 0.73226 0.02834 0.23745
 C877 C 0.73276 0.05042 0.23775
 C878 C 0.74874 0.06076 0.24822
 C879 C 0.76464 0.04931 0.25773
 C880 C 0.76426 0.02718 0.25705
 H881 H 0.74244 -0.06872 0.24647
 H882 H 0.76459 -0.01200 0.27439
 H883 H 0.72933 -0.00964 0.21869
 H884 H 0.71942 0.02078 0.22969
 H885 H 0.74893 0.07785 0.24877
 H886 H 0.77695 0.01866 0.26408
 C887 C 0.74612 0.44834 0.75292
 C888 C 0.75710 0.46041 0.76708
 C889 C 0.75533 0.48246 0.76672
 C890 C 0.74478 0.49284 0.75092
 C891 C 0.73476 0.48024 0.73624
 C892 C 0.73438 0.45818 0.73787
 C893 C 0.74405 0.51654 0.75001
 C894 C 0.72847 0.52713 0.73879
 C895 C 0.72758 0.54924 0.73828
 C896 C 0.74194 0.56097 0.74958
 C897 C 0.75795 0.55099 0.76026
 C898 C 0.75907 0.52892 0.76029
 H899 H 0.74658 0.43128 0.75368
 H900 H 0.76244 0.49123 0.77890
 H901 H 0.72689 0.48720 0.72352
 H902 H 0.71690 0.51850 0.73028
 H903 H 0.74102 0.57804 0.74959
 H904 H 0.77205 0.52171 0.76810
 C905 C 0.25266 0.44680 0.23945
 C906 C 0.26056 0.45794 0.25597
 C907 C 0.25749 0.47976 0.25716
 C908 C 0.24850 0.49103 0.24105
 C909 C 0.24099 0.47949 0.22432
 C910 C 0.24265 0.45741 0.22370
 C911 C 0.24706 0.51460 0.24198
 C912 C 0.23157 0.52579 0.23130
 C913 C 0.23014 0.54785 0.23285
 C914 C 0.24366 0.55878 0.24579
 C915 C 0.25893 0.54796 0.25674
 C916 C 0.26126 0.52619 0.25392
 H917 H 0.25413 0.42978 0.23894
 H918 H 0.26236 0.48776 0.27078
 H919 H 0.23391 0.48740 0.21165
 H920 H 0.22048 0.51761 0.22178
 H921 H 0.24221 0.57573 0.24738
 H922 H 0.27417 0.51845 0.26141
 C923 C 0.74799 1.05025 0.74736
 C924 C 0.76124 1.03765 0.73561
 C925 C 0.76069 1.01570 0.73796
 C926 C 0.74568 1.00598 0.75066
 C927 C 0.73221 1.01914 0.76213
 C928 C 0.73403 1.04115 0.76112
 C929 C 0.74463 0.98237 0.75221
 C930 C 0.73598 0.97240 0.76939
 C931 C 0.73554 0.95036 0.77090
 C932 C 0.74430 0.93805 0.75551
 C933 C 0.75283 0.94743 0.73827
 C934 C 0.75260 0.96945 0.73652
 H935 H 0.74897 1.06728 0.74629
 H936 H 0.77228 1.00648 0.72990
 H937 H 0.72053 1.01262 0.77220
 H938 H 0.72987 0.98147 0.78192
 H939 H 0.74440 0.92102 0.75693
 H940 H 0.75860 0.97622 0.72272
 C941 C 0.74587 0.55087 0.25401
 C942 C 0.76196 0.54101 0.24315
 C943 C 0.76300 0.51895 0.24262
 C944 C 0.74785 0.50648 0.25269
 C945 C 0.73197 0.51689 0.26386
 C946 C 0.73119 0.53899 0.26483
 C947 C 0.74916 0.48285 0.25200
 C948 C 0.74050 0.47037 0.26756
 C949 C 0.74213 0.44832 0.26706
 C950 C 0.75333 0.43857 0.25140
 C951 C 0.76260 0.45058 0.23609
 C952 C 0.75952 0.47248 0.23590
 H953 H 0.74504 0.56794 0.25445
 H954 H 0.77605 0.51176 0.23471
 H955 H 0.72015 0.50808 0.27200
 H956 H 0.73265 0.47751 0.28035
 H957 H 0.75487 0.42155 0.25117
 H958 H 0.76555 0.48126 0.22318
 C959 C 0.24497 -0.05754 0.74194
 C960 C 0.25771 -0.04776 0.75634
 C961 C 0.25821 -0.02568 0.75770
 C962 C 0.24744 -0.01312 0.74355
 C963 C 0.23603 -0.02350 0.72823
 C964 C 0.23376 -0.04547 0.72808
 C965 C 0.24805 0.01055 0.74446
 C966 C 0.23222 0.02262 0.73511
 C967 C 0.23356 0.04462 0.73422
 C968 C 0.24955 0.05502 0.74455
 C969 C 0.26508 0.04357 0.75460
 C970 C 0.26450 0.02143 0.75424
 H971 H 0.24398 -0.07460 0.74143
 H972 H 0.26723 -0.01861 0.76971
 H973 H 0.22858 -0.01475 0.71628
 H974 H 0.21883 0.01520 0.72810
 H975 H 0.25011 0.07211 0.74451
 H976 H 0.27719 0.01300 0.76135
 C977 C 0.25349 0.25203 1.04591
 C978 C 0.23747 0.26193 1.03521
 C979 C 0.23709 0.26039 1.01410
 C980 C 0.25308 0.24955 1.00336
 C981 C 0.26951 0.24040 1.01468
 C982 C 0.26957 0.24133 1.03580
 C983 C 0.25287 0.24801 0.98063
 C984 C 0.26540 0.23294 0.97037
 C985 C 0.26681 0.23264 0.94924
 C986 C 0.25388 0.24597 0.93807
 C987 C 0.23986 0.25965 0.94773
 C988 C 0.24015 0.26143 0.96881
 H989 H 0.25346 0.25273 1.06225
 H990 H 0.22415 0.26776 1.00645
 H991 H 0.28264 0.23271 1.00742
 H992 H 0.27426 0.22124 0.97848
 H993 H 0.25435 0.24538 0.92173
 H994 H 0.23016 0.27323 0.97558
 C995 C 0.25475 0.75038 0.55076
 C996 C 0.23947 0.76209 0.54076
 C997 C 0.23928 0.76249 0.51964
 C998 C 0.25471 0.75168 0.50825
 C999 C 0.27009 0.74006 0.51875
 C1000 C 0.26996 0.73918 0.53989
 C1001 C 0.25467 0.75250 0.48563
 C1002 C 0.26371 0.73608 0.47402
 C1003 C 0.26372 0.73688 0.45289
 C1004 C 0.25435 0.75394 0.44317
 C1005 C 0.24499 0.77022 0.45424
 C1006 C 0.24541 0.76963 0.47536
 H1007 H 0.25474 0.74990 0.56710
 H1008 H 0.22689 0.77118 0.51233
 H1009 H 0.28235 0.73170 0.51073
 H1010 H 0.27043 0.72237 0.48114
 H1011 H 0.25413 0.75444 0.42683
 H1012 H 0.23865 0.78277 0.48352
 C1013 C 0.25081 0.74989 -0.05208
 C1014 C 0.26343 0.76429 -0.04167
 C1015 C 0.26449 0.76340 -0.02052
 C1016 C 0.25372 0.74755 -0.00966
 C1017 C 0.24229 0.73242 -0.02077
 C1018 C 0.23975 0.73430 -0.04164
 C1019 C 0.25347 0.74721 0.01302
 C1020 C 0.23710 0.73691 0.02359
 C1021 C 0.23625 0.73691 0.04470
 C1022 C 0.25166 0.74768 0.05554
 C1023 C 0.26820 0.75784 0.04558
 C1024 C 0.26916 0.75749 0.02443
 H1025 H 0.24938 0.75102 -0.06833
 H1026 H 0.27353 0.77536 -0.01283
 H1027 H 0.23478 0.71922 -0.01344
 H1028 H 0.22463 0.72893 0.01569
 H1029 H 0.25086 0.74804 0.07188
 H1030 H 0.28236 0.76506 0.01716
 C1031 C 0.24594 0.24987 0.44893
 C1032 C 0.25830 0.26491 0.45874
 C1033 C 0.25917 0.26511 0.47988
 C1034 C 0.24837 0.24981 0.49145
 C1035 C 0.23671 0.23429 0.48102
 C1036 C 0.23474 0.23488 0.45999
 C1037 C 0.24880 0.25034 0.51415
 C1038 C 0.23316 0.24000 0.52564
 C1039 C 0.23386 0.23992 0.54675
 C1040 C 0.24889 0.25207 0.55671
 C1041 C 0.26404 0.26326 0.54577
 C1042 C 0.26463 0.26140 0.52467
 H1043 H 0.24480 0.25004 0.43263
 H1044 H 0.26817 0.27748 0.48697
 H1045 H 0.22882 0.22169 0.48892
 H1046 H 0.22034 0.23172 0.51855
 H1047 H 0.24892 0.25265 0.57305
 H1048 H 0.27749 0.26886 0.51678
 C1049 C 0.75909 0.74706 1.05749
 C1050 C 0.74778 0.76269 1.04750
 C1051 C 0.74707 0.76263 1.02637
 C1052 C 0.75671 0.74639 1.01491
 C1053 C 0.76724 0.73028 1.02561
 C1054 C 0.76941 0.73122 1.04664
 C1055 C 0.75638 0.74663 0.99213
 C1056 C 0.77040 0.73401 0.98065
 C1057 C 0.77074 0.73480 0.95950
 C1058 C 0.75722 0.74855 0.94954
 C1059 C 0.74348 0.76152 0.96039
 C1060 C 0.74253 0.75998 0.98145
 H1061 H 0.75992 0.74726 1.07381
 H1062 H 0.73911 0.77563 1.01929
 H1063 H 0.77413 0.71692 1.01799
 H1064 H 0.78147 0.72359 0.98776
 H1065 H 0.75753 0.74932 0.93321
 H1066 H 0.73094 0.76948 0.98914
 C1067 C 0.76034 0.24925 0.55363
 C1068 C 0.74955 0.26514 0.54341
 C1069 C 0.74814 0.26429 0.52234
 C1070 C 0.75628 0.24700 0.51135
 C1071 C 0.76620 0.23071 0.52220
 C1072 C 0.76931 0.23235 0.54307
 C1073 C 0.75495 0.24628 0.48874
 C1074 C 0.76925 0.23412 0.47727
 C1075 C 0.76900 0.23437 0.45610
 C1076 C 0.75405 0.24672 0.44622
 C1077 C 0.73929 0.25842 0.45719
 C1078 C 0.73975 0.25814 0.47832
 H1079 H 0.76165 0.24995 0.56991
 H1080 H 0.74070 0.27737 0.51481
 H1081 H 0.77179 0.21664 0.51470
 H1082 H 0.78100 0.22459 0.48455
 H1083 H 0.75374 0.24707 0.42988
 H1084 H 0.72800 0.26716 0.48637
 C1085 C 0.75201 0.24103 -0.05362
 C1086 C 0.76445 0.25594 -0.04365
 C1087 C 0.76619 0.25520 -0.02254
 C1088 C 0.75611 0.23920 -0.01130
 C1089 C 0.74494 0.22357 -0.02198
 C1090 C 0.74179 0.22517 -0.04277
 C1091 C 0.75592 0.23949 0.01136
 C1092 C 0.73967 0.22930 0.02218
 C1093 C 0.73862 0.23017 0.04326
 C1094 C 0.75383 0.24152 0.05382
 C1095 C 0.77020 0.25164 0.04357
 C1096 C 0.77132 0.25051 0.02246
 H1097 H 0.74994 0.24204 -0.06981
 H1098 H 0.77506 0.26748 -0.01514
 H1099 H 0.73789 0.21031 -0.01431
 H1100 H 0.72738 0.22083 0.01447
 H1101 H 0.75294 0.24250 0.07012
 H1102 H 0.78440 0.25811 0.01500
 C1103 C 0.75717 0.74597 0.44587
 C1104 C 0.76755 0.76127 0.45734
 C1105 C 0.76662 0.76027 0.47848
 C1106 C 0.75553 0.74394 0.48831
 C1107 C 0.74561 0.72846 0.47632
 C1108 C 0.74621 0.72957 0.45524
 C1109 C 0.75417 0.74305 0.51088
 C1110 C 0.73716 0.73287 0.52053
 C1111 C 0.73632 0.73111 0.54158
 C1112 C 0.75162 0.74101 0.55327
 C1113 C 0.76846 0.75155 0.54416
 C1114 C 0.76986 0.75225 0.52306
 H1115 H 0.75747 0.74694 0.42955
 H1116 H 0.77436 0.77253 0.48703
 H1117 H 0.73751 0.71528 0.48315
 H1118 H 0.72445 0.72612 0.51191
 H1119 H 0.75052 0.74033 0.56958
 H1120 H 0.78343 0.75980 0.51638
 C1121 C 1.05986 0.24997 0.25064
 C1122 C 1.04820 0.23615 0.26268
 C1123 C 1.02618 0.23677 0.26203
 C1124 C 1.01551 0.25123 0.24950
 C1125 C 1.02783 0.26500 0.23759
 C1126 C 1.04982 0.26440 0.23805
 C1127 C 0.99183 0.25211 0.24895
 C1128 C 0.98120 0.26268 0.23325
 C1129 C 0.95931 0.26475 0.23344
 C1130 C 0.94751 0.25450 0.24822
 C1131 C 0.95745 0.24348 0.26370
 C1132 C 0.97945 0.24274 0.26428
 H1133 H 1.07686 0.24949 0.25106
 H1134 H 1.01776 0.22568 0.27133
 H1135 H 1.02073 0.27656 0.22790
 H1136 H 0.98949 0.26965 0.22072
 H1137 H 0.93053 0.25534 0.24783
 H1138 H 0.98648 0.23496 0.27701
 C1139 C 0.56191 0.24990 0.75030
 C1140 C 0.55082 0.24114 0.76646
 C1141 C 0.52884 0.24140 0.76631
 C1142 C 0.51772 0.24958 0.74970
 C1143 C 0.52937 0.25807 0.73342
 C1144 C 0.55139 0.25843 0.73377
 C1145 C 0.49421 0.24858 0.74902
 C1146 C 0.48268 0.26285 0.73716
 C1147 C 0.46086 0.26086 0.73514
 C1148 C 0.45018 0.24540 0.74619
 C1149 C 0.46108 0.23167 0.75887
 C1150 C 0.48302 0.23314 0.76001
 H1151 H 0.57893 0.24984 0.75047
 H1152 H 0.52068 0.23516 0.77931
 H1153 H 0.52158 0.26400 0.72014
 H1154 H 0.49046 0.27566 0.72940
 H1155 H 0.43326 0.24416 0.74504
 H1156 H 0.49114 0.22204 0.76951
 C1157 C -0.06524 0.25876 0.74667
 C1158 C -0.05459 0.27327 0.75880
 C1159 C -0.03259 0.27267 0.75958
 C1160 C -0.02103 0.25712 0.74891
 C1161 C -0.03238 0.24264 0.73683
 C1162 C -0.05423 0.24406 0.73499
 C1163 C 0.00259 0.25617 0.75015
 C1164 C 0.01452 0.24499 0.73562
 C1165 C 0.03638 0.24327 0.73724
 C1166 C 0.04689 0.25468 0.75214
 C1167 C 0.03565 0.26681 0.76612
 C1168 C 0.01362 0.26653 0.76579
 H1169 H -0.08224 0.25906 0.74608
 H1170 H -0.02485 0.28466 0.76841
 H1171 H -0.02461 0.23017 0.72860
 H1172 H 0.00724 0.23731 0.72291
 H1173 H 0.06388 0.25415 0.75283
 H1174 H 0.00547 0.27479 0.77774
 C1175 C 0.43740 0.25297 0.25268
 C1176 C 0.44835 0.26593 0.26602
 C1177 C 0.47033 0.26552 0.26607
 C1178 C 0.48175 0.25198 0.25306
 C1179 C 0.47017 0.23882 0.23987
 C1180 C 0.44819 0.23992 0.23913
 C1181 C 0.50542 0.25246 0.25266
 C1182 C 0.51691 0.24439 0.23602
 C1183 C 0.53889 0.24560 0.23538
 C1184 C 0.54962 0.25568 0.25101
 C1185 C 0.53870 0.26438 0.26729
 C1186 C 0.51690 0.26181 0.26860
 H1187 H 0.42039 0.25355 0.25236
 H1188 H 0.47814 0.27643 0.27604
 H1189 H 0.47788 0.22787 0.22979
 H1190 H 0.50917 0.23739 0.22321
 H1191 H 0.56659 0.25685 0.25045
 H1192 H 0.50928 0.26746 0.28213
 C1193 C 1.05871 0.75742 0.75975
 C1194 C 1.04723 0.74601 0.77402
 C1195 C 1.02529 0.74547 0.77285
 C1196 C 1.01455 0.75558 0.75692
 C1197 C 1.02667 0.76686 0.74261
 C1198 C 1.04851 0.76847 0.74447
 C1199 C 0.99106 0.75400 0.75490
 C1200 C 0.97974 0.76843 0.74293
 C1201 C 0.95816 0.76586 0.73955
 C1202 C 0.94728 0.74985 0.74962
 C1203 C 0.95782 0.73604 0.76248
 C1204 C 0.97963 0.73789 0.76472
 H1205 H 1.07570 0.75778 0.76058
 H1206 H 1.01696 0.73717 0.78460
 H1207 H 1.01948 0.77445 0.72984
 H1208 H 0.98737 0.78181 0.73603
 H1209 H 0.93048 0.74822 0.74758
 H1210 H 0.98734 0.72659 0.77427
 C1211 C 0.55801 0.74780 0.25248
 C1212 C 0.54623 0.73936 0.26837
 C1213 C 0.52454 0.74295 0.26916
 C1214 C 0.51400 0.75253 0.25291
 C1215 C 0.52622 0.76041 0.23675
 C1216 C 0.54816 0.75852 0.23673
 C1217 C 0.49044 0.75296 0.25215
 C1218 C 0.47979 0.76740 0.23973
 C1219 C 0.45806 0.76586 0.23675
 C1220 C 0.44648 0.75088 0.24755
 C1221 C 0.45645 0.73709 0.26086
 C1222 C 0.47834 0.73810 0.26297
 H1223 H 0.57491 0.74588 0.25227
 H1224 H 0.51607 0.73759 0.28233
 H1225 H 0.51897 0.76763 0.22380
 H1226 H 0.48821 0.77981 0.23200
 H1227 H 0.42964 0.74991 0.24555
 H1228 H 0.48569 0.72689 0.27291
 C1229 C -0.06038 0.75086 0.25521
 C1230 C -0.05051 0.76639 0.26683
 C1231 C -0.02852 0.76719 0.26743
 C1232 C -0.01613 0.75271 0.25641
 C1233 C -0.02651 0.73738 0.24462
 C1234 C -0.04852 0.73636 0.24395
 C1235 C 0.00740 0.75399 0.25688
 C1236 C 0.01969 0.74616 0.24072
 C1237 C 0.04165 0.74757 0.24106
 C1238 C 0.05149 0.75774 0.25719
 C1239 C 0.03969 0.76638 0.27300
 C1240 C 0.01786 0.76348 0.27332
 H1241 H -0.07737 0.75024 0.25472
 H1242 H -0.02130 0.77955 0.27626
 H1243 H -0.01767 0.72601 0.23589
 H1244 H 0.01248 0.73915 0.22760
 H1245 H 0.06845 0.75908 0.25738
 H1246 H 0.00927 0.76900 0.28640
 C1247 C 0.44050 0.75470 0.75922
 C1248 C 0.45249 0.76900 0.77041
 C1249 C 0.47435 0.76963 0.76777
 C1250 C 0.48459 0.75521 0.75479
 C1251 C 0.47213 0.74070 0.74396
 C1252 C 0.45021 0.74054 0.74591
 C1253 C 0.50808 0.75491 0.75283
 C1254 C 0.51789 0.74604 0.73564
 C1255 C 0.53968 0.74326 0.73484
 C1256 C 0.55214 0.75163 0.75016
 C1257 C 0.54296 0.76114 0.76712
 C1258 C 0.52101 0.76243 0.76856
 H1259 H 0.42357 0.75459 0.76088
 H1260 H 0.48310 0.78154 0.77584
 H1261 H 0.47921 0.72925 0.73395
 H1262 H 0.50883 0.74053 0.72294
 H1263 H 0.56907 0.75019 0.74914
 H1264 H 0.51428 0.76883 0.78226
 C1265 C 0.42271 0.27092 0.29370
 C1266 C 0.41057 0.28334 0.30657
 C1267 C 0.41197 0.30538 0.30602
 C1268 C 0.42682 0.31499 0.29292
 C1269 C 0.43873 0.30236 0.27937
 C1270 C 0.43660 0.28010 0.27984
 C1271 C 0.45205 0.31257 0.26548
 N1272 N 0.45422 0.33382 0.26608
 N1273 N 0.44389 0.34557 0.27951
 C1274 C 0.43034 0.33690 0.29295
 H1275 H 0.42098 0.25393 0.29431
 H1276 H 0.39937 0.27567 0.31646
 H1277 H 0.46068 0.30394 0.25409
 H1278 H 0.42272 0.34721 0.30371
 C1279 C 0.42846 0.79886 0.77638
 C1280 C 0.41714 0.81246 0.78880
 C1281 C 0.41851 0.81129 0.80997
 C1282 C 0.43352 0.79716 0.81842
 C1283 C 0.44465 0.78292 0.80566
 C1284 C 0.44186 0.78374 0.78450
 C1285 C 0.45828 0.76823 0.81456
 N1286 N 0.46176 0.76887 0.83468
 N1287 N 0.45260 0.78321 0.84645
 C1288 C 0.43884 0.79747 0.83902
 H1289 H 0.42636 0.79983 0.76020
 H1290 H 0.40623 0.82303 0.78155
 H1291 H 0.46635 0.75636 0.80572
 H1292 H 0.43287 0.80935 0.84920
 C1293 C -0.06412 0.28774 0.79236
 C1294 C -0.07733 0.29909 0.80518
 C1295 C -0.09388 0.31121 0.79755
 C1296 C -0.09692 0.31202 0.77633
 C1297 C -0.08268 0.30140 0.76328
 C1298 C -0.06677 0.28838 0.77142
 C1299 C -0.08491 0.30407 0.74236
 N1300 N -0.10136 0.31511 0.73500
 N1301 N -0.11568 0.32368 0.74718
 C1302 C -0.11414 0.32238 0.76752
 H1303 H -0.05210 0.27784 0.79889
 H1304 H -0.07472 0.29821 0.82128
 H1305 H -0.07363 0.29763 0.73183
 H1306 H -0.12668 0.32905 0.77643
 C1307 C -0.07727 0.77307 0.29322
 C1308 C -0.08933 0.78622 0.30547
 C1309 C -0.08777 0.80821 0.30401
 C1310 C -0.07322 0.81706 0.29010
 C1311 C -0.06143 0.80362 0.27712
 C1312 C -0.06330 0.78141 0.27895
 C1313 C -0.04834 0.81298 0.26252
 N1314 N -0.04617 0.83423 0.26192
 N1315 N -0.05627 0.84675 0.27485
 C1316 C -0.06962 0.83892 0.28894
 H1317 H -0.07884 0.75615 0.29491
 H1318 H -0.10030 0.77908 0.31595
 H1319 H -0.03987 0.80367 0.25150
 H1320 H -0.07695 0.84988 0.29927
 C1321 C 0.57391 0.73528 0.29408
 C1322 C 0.58591 0.72331 0.30725
 C1323 C 0.58111 0.70207 0.31087
 C1324 C 0.56286 0.69324 0.30202
 C1325 C 0.55111 0.70516 0.28792
 C1326 C 0.55683 0.72641 0.28390
 C1327 C 0.53441 0.69505 0.27793
 N1328 N 0.52896 0.67506 0.28292
 N1329 N 0.53918 0.66439 0.29705
 C1330 C 0.55588 0.67279 0.30678
 H1331 H 0.57845 0.75148 0.29128
 H1332 H 0.59968 0.73050 0.31386
 H1333 H 0.52566 0.70265 0.26612
 H1334 H 0.56331 0.66350 0.31835
 C1335 C 0.55830 0.20835 0.78507
 C1336 C 0.57111 0.19595 0.79713
 C1337 C 0.58859 0.20458 0.80688
 C1338 C 0.59298 0.22645 0.80467
 C1339 C 0.57943 0.23920 0.79295
 C1340 C 0.56247 0.22986 0.78245
 C1341 C 0.58345 0.26099 0.79191
 N1342 N 0.60063 0.26919 0.80099
 N1343 N 0.61405 0.25707 0.81098
 C1344 C 0.61093 0.23602 0.81301
 H1345 H 0.54550 0.20089 0.77706
 H1346 H 0.56752 0.17932 0.79861
 H1347 H 0.57306 0.27158 0.78402
 H1348 H 0.62276 0.22709 0.82077
 C1349 C 1.05735 0.71161 0.78833
 C1350 C 1.07059 0.69901 0.79979
 C1351 C 1.08548 0.70802 0.81270
 C1352 C 1.08665 0.73033 0.81444
 C1353 C 1.07281 0.74310 0.80305
 C1354 C 1.05862 0.73361 0.78937
 C1355 C 1.07381 0.76511 0.80551
 N1356 N 1.08837 0.77375 0.81786
 N1357 N 1.10200 0.76186 0.82785
 C1358 C 1.10174 0.74052 0.82649
 H1359 H 1.04666 0.70411 0.77785
 H1360 H 1.06954 0.68204 0.79821
 H1361 H 1.06305 0.77548 0.79785
 H1362 H 1.11354 0.73191 0.83463
 C1363 C 1.07306 0.23120 0.29071
 C1364 C 1.08462 0.21895 0.30397
 C1365 C 1.08272 0.19692 0.30406
 C1366 C 1.06798 0.18723 0.29095
 C1367 C 1.05676 0.19970 0.27684
 C1368 C 1.05933 0.22193 0.27683
 C1369 C 1.04368 0.18934 0.26294
 N1370 N 1.04094 0.16817 0.26406
 N1371 N 1.05048 0.15667 0.27804
 C1372 C 1.06382 0.16545 0.29153
 H1373 H 1.07513 0.24816 0.29105
 H1374 H 1.09571 0.22682 0.31377
 H1375 H 1.03567 0.19777 0.25114
 H1376 H 1.07072 0.15536 0.30278
 C1377 C 0.56023 0.28995 0.71351
 C1378 C 0.57393 0.30138 0.70129
 C1379 C 0.59180 0.29191 0.69276
 C1380 C 0.59552 0.27011 0.69627
 C1381 C 0.58093 0.25829 0.70791
 C1382 C 0.56377 0.26857 0.71742
 C1383 C 0.58420 0.23646 0.70999
 N1384 N 0.60168 0.22740 0.70214
 N1385 N 0.61610 0.23871 0.69243
 C1386 C 0.61374 0.25970 0.68940
 H1387 H 0.54725 0.29811 0.72068
 H1388 H 0.57078 0.31795 0.69882
 H1389 H 0.57299 0.22652 0.71774
 H1390 H 0.62642 0.26795 0.68206
 C1391 C 0.55985 0.79059 0.21887
 C1392 C 0.57388 0.80149 0.20660
 C1393 C 0.58964 0.79087 0.19581
 C1394 C 0.59084 0.76853 0.19707
 C1395 C 0.57614 0.75740 0.20923
 C1396 C 0.56108 0.76866 0.22080
 C1397 C 0.57713 0.73525 0.20955
 N1398 N 0.59247 0.72504 0.19922
 N1399 N 0.60687 0.73549 0.18862
 C1400 C 0.60668 0.75682 0.18730
 H1401 H 0.54846 0.79947 0.22762
 H1402 H 0.57270 0.81852 0.20585
 H1403 H 0.56579 0.72595 0.21785
 H1404 H 0.61912 0.76427 0.17886
 C1405 C 1.07664 0.26783 0.21126
 C1406 C 1.08879 0.27931 0.19774
 C1407 C 1.08707 0.30131 0.19653
 C1408 C 1.07216 0.31181 0.20901
 C1409 C 1.06039 0.30016 0.22345
 C1410 C 1.06249 0.27790 0.22433
 C1411 C 1.04713 0.31132 0.23673
 N1412 N 1.04471 0.33243 0.23467
 N1413 N 1.05472 0.34315 0.22033
 C1414 C 1.06827 0.33358 0.20740
 H1415 H 1.07837 0.25084 0.21157
 H1416 H 1.10003 0.27087 0.18846
 H1417 H 1.03875 0.30354 0.24880
 H1418 H 1.07552 0.34305 0.19581
 C1419 C 1.06073 0.77639 0.70974
 C1420 C 1.07370 0.78691 0.69611
 C1421 C 1.08748 0.80274 0.70262
 C1422 C 1.08828 0.80794 0.72346
 C1423 C 1.07438 0.79788 0.73716
 C1424 C 1.06101 0.78151 0.73029
 C1425 C 1.07434 0.80457 0.75741
 N1426 N 1.08838 0.81917 0.76375
 N1427 N 1.10240 0.82757 0.75120
 C1428 C 1.10294 0.82237 0.73136
 H1429 H 1.05065 0.76387 0.70426
 H1430 H 1.07298 0.78265 0.68029
 H1431 H 1.06320 0.79845 0.76824
 H1432 H 1.11512 0.82930 0.72219
 C1433 C 0.42241 0.73634 0.72040
 C1434 C 0.41055 0.72459 0.70689
 C1435 C 0.41322 0.70272 0.70511
 C1436 C 0.42857 0.69260 0.71716
 C1437 C 0.44018 0.70453 0.73146
 C1438 C 0.43728 0.72668 0.73280
 C1439 C 0.45418 0.69376 0.74413
 N1440 N 0.45729 0.67277 0.74170
 N1441 N 0.44730 0.66181 0.72755
 C1442 C 0.43314 0.67099 0.71516
 H1443 H 0.42006 0.75325 0.72106
 H1444 H 0.39890 0.73269 0.69795
 H1445 H 0.46259 0.70177 0.75602
 H1446 H 0.42591 0.66133 0.70371
 C1447 C 0.43639 0.20606 0.22414
 C1448 C 0.42366 0.19435 0.21124
 C1449 C 0.41031 0.20432 0.19748
 C1450 C 0.40987 0.22671 0.19673
 C1451 C 0.42338 0.23857 0.20940
 C1452 C 0.43622 0.22811 0.22364
 C1453 C 0.42352 0.26067 0.20748
 N1454 N 0.41009 0.27023 0.19465
 N1455 N 0.39655 0.25920 0.18362
 C1456 C 0.39587 0.23785 0.18432
 H1457 H 0.44609 0.19785 0.23495
 H1458 H 0.42411 0.17730 0.21212
 H1459 H 0.43420 0.27046 0.21600
 H1460 H 0.38410 0.22999 0.17542
 C1461 C -0.07354 0.72947 0.21631
 C1462 C -0.08398 0.71642 0.20277
 C1463 C -0.08031 0.69463 0.20235
 C1464 C -0.06511 0.68603 0.21562
 C1465 C -0.05523 0.69922 0.23015
 C1466 C -0.05929 0.72123 0.23024
 C1467 C -0.04186 0.68976 0.24431
 N1468 N -0.03740 0.66891 0.24294
 N1469 N -0.04549 0.65686 0.22846
 C1470 C -0.05908 0.66470 0.21473
 H1471 H -0.07673 0.74624 0.21594
 H1472 H -0.09545 0.72346 0.19286
 H1473 H -0.03499 0.69865 0.25653
 H1474 H -0.06467 0.65424 0.20306
 C1475 C -0.06519 0.20844 0.72346
 C1476 C -0.07759 0.19508 0.71178
 C1477 C -0.09133 0.20316 0.69723
 C1478 C -0.09245 0.22535 0.69443
 C1479 C -0.07889 0.23878 0.70551
 C1480 C -0.06584 0.23030 0.72073
 C1481 C -0.07886 0.26044 0.70099
 N1482 N -0.09278 0.26831 0.68762
 N1483 N -0.10669 0.25597 0.67844
 C1484 C -0.10711 0.23484 0.68148
 H1485 H -0.05529 0.20168 0.73499
 H1486 H -0.07654 0.17824 0.71423
 H1487 H -0.06775 0.27112 0.70782
 H1488 H -0.11925 0.22592 0.67407
 C1489 C 0.26141 0.43017 0.28211
 C1490 C 0.27157 0.41816 0.29662
 C1491 C 0.29251 0.42224 0.30172
 C1492 C 0.30297 0.43964 0.29278
 C1493 C 0.29286 0.45147 0.27752
 C1494 C 0.27186 0.44659 0.27215
 C1495 C 0.30442 0.46744 0.26779
 N1496 N 0.32416 0.47207 0.27391
 N1497 N 0.33320 0.46173 0.28898
 C1498 C 0.32329 0.44574 0.29864
 H1499 H 0.24535 0.42631 0.27827
 H1500 H 0.26326 0.40497 0.30325
 H1501 H 0.29811 0.47625 0.25530
 H1502 H 0.33130 0.43816 0.31097
 C1503 C 0.26587 -0.06290 0.78975
 C1504 C 0.27709 -0.07639 0.80225
 C1505 C 0.29415 -0.08829 0.79486
 C1506 C 0.29892 -0.08731 0.77380
 C1507 C 0.28793 -0.07292 0.76133
 C1508 C 0.27114 -0.06091 0.76938
 C1509 C 0.29382 -0.07131 0.74090
 N1510 N 0.30851 -0.08447 0.73312
 N1511 N 0.31754 -0.09922 0.74433
 C1512 C 0.31304 -0.10131 0.76422
 H1513 H 0.25286 -0.05400 0.79601
 H1514 H 0.27277 -0.07682 0.81805
 H1515 H 0.28676 -0.05984 0.73099
 H1516 H 0.31989 -0.11451 0.77197
 C1517 C 0.76036 0.43519 0.79528
 C1518 C 0.77183 0.42400 0.80948
 C1519 C 0.79363 0.42696 0.81153
 C1520 C 0.80330 0.44350 0.80028
 C1521 C 0.79178 0.45413 0.78508
 C1522 C 0.77009 0.44983 0.78259
 C1523 C 0.80252 0.46868 0.77277
 N1524 N 0.82271 0.47380 0.77681
 N1525 N 0.83289 0.46535 0.79226
 C1526 C 0.82384 0.45061 0.80423
 H1527 H 0.74372 0.43198 0.79384
 H1528 H 0.76356 0.41200 0.81791
 H1529 H 0.79512 0.47610 0.76002
 H1530 H 0.83259 0.44512 0.81708
 C1531 C 0.78752 -0.05448 0.27769
 C1532 C 0.79846 -0.06887 0.28943
 C1533 C 0.78795 -0.08401 0.30128
 C1534 C 0.76551 -0.08462 0.30061
 C1535 C 0.75447 -0.06917 0.28935
 C1536 C 0.76563 -0.05455 0.27729
 C1537 C 0.73239 -0.06921 0.29000
 N1538 N 0.72203 -0.08478 0.29979
 N1539 N 0.73227 -0.10039 0.30877
 C1540 C 0.75353 -0.10104 0.30923
 H1541 H 0.79628 -0.04354 0.26837
 H1542 H 0.81542 -0.06776 0.28943
 H1543 H 0.72329 -0.05707 0.28267
 H1544 H 0.76062 -0.11493 0.31550
 C1545 C 0.28850 0.55815 0.71240
 C1546 C 0.30055 0.57174 0.70067
 C1547 C 0.29118 0.58801 0.68968
 C1548 C 0.26901 0.59016 0.69001
 C1549 C 0.25673 0.57616 0.70187
 C1550 C 0.26670 0.56053 0.71366
 C1551 C 0.23479 0.57845 0.70179
 N1552 N 0.22584 0.59416 0.69102
 N1553 N 0.23736 0.60772 0.68040
 C1554 C 0.25859 0.60635 0.67960
 H1555 H 0.29637 0.54635 0.72141
 H1556 H 0.31746 0.56993 0.70064
 H1557 H 0.22468 0.56785 0.71011
 H1558 H 0.26698 0.61804 0.67098
 C1559 C 0.28833 1.05572 0.21009
 C1560 C 0.29944 1.06973 0.19793
 C1561 C 0.28966 1.08744 0.18959
 C1562 C 0.26785 1.09066 0.19309
 C1563 C 0.25642 1.07593 0.20490
 C1564 C 0.26700 1.05892 0.21423
 C1565 C 0.23468 1.07889 0.20737
 N1566 N 0.22528 1.09613 0.19949
 N1567 N 0.23616 1.11060 0.18939
 C1568 C 0.25708 1.10858 0.18606
 H1569 H 0.29670 1.04287 0.21715
 H1570 H 0.31605 1.06703 0.19548
 H1571 H 0.22508 1.06763 0.21545
 H1572 H 0.26495 1.12122 0.17830
 C1573 C 0.77870 0.55149 0.21099
 C1574 C 0.79091 0.56502 0.19933
 C1575 C 0.80217 0.58160 0.20820
 C1576 C 0.80116 0.58444 0.22945
 C1577 C 0.78929 0.57016 0.24138
 C1578 C 0.77742 0.55402 0.23193
 C1579 C 0.78962 0.57257 0.26248
 N1580 N 0.80004 0.58898 0.27091
 N1581 N 0.81014 0.60311 0.25968
 C1582 C 0.81094 0.60151 0.23930
 H1583 H 0.76968 0.53928 0.20353
 H1584 H 0.79144 0.56262 0.18315
 H1585 H 0.78177 0.56153 0.27236
 H1586 H 0.81889 0.61384 0.23112
 C1587 C 0.79032 1.06271 0.73000
 C1588 C 0.80376 1.07429 0.71773
 C1589 C 0.80405 1.07125 0.69678
 C1590 C 0.79138 1.05512 0.68828
 C1591 C 0.77713 1.04378 0.70073
 C1592 C 0.77654 1.04782 0.72179
 C1593 C 0.76355 1.02918 0.69148
 N1594 N 0.76517 1.02531 0.67141
 N1595 N 0.77930 1.03513 0.65996
 C1596 C 0.79247 1.04983 0.66769
 H1597 H 0.79022 1.06589 0.74607
 H1598 H 0.81326 1.08645 0.72466
 H1599 H 0.75163 1.02085 0.69989
 H1600 H 0.80387 1.05698 0.65772
 C1601 C 0.72538 0.56273 0.29376
 C1602 C 0.71285 0.57464 0.30665
 C1603 C 0.69093 0.57425 0.30506
 C1604 C 0.68153 0.56062 0.29065
 C1605 C 0.69439 0.54884 0.27712
 C1606 C 0.71652 0.55006 0.27870
 C1607 C 0.68457 0.53656 0.26221
 N1608 N 0.66334 0.53532 0.26161
 N1609 N 0.65130 0.54557 0.27485
 C1610 C 0.65964 0.55810 0.28936
 H1611 H 0.74228 0.56376 0.29529
 H1612 H 0.72048 0.58487 0.31747
 H1613 H 0.69350 0.52798 0.25100
 H1614 H 0.64908 0.56565 0.29991
 C1615 C 0.70132 1.05849 0.77279
 C1616 C 0.69057 1.07309 0.78471
 C1617 C 0.70086 1.08469 0.79989
 C1618 C 0.72303 1.08214 0.80201
 C1619 C 0.73368 1.06659 0.79041
 C1620 C 0.72274 1.05500 0.77551
 C1621 C 0.75527 1.06346 0.79371
 N1622 N 0.76582 1.07626 0.80651
 N1623 N 0.75628 1.09206 0.81607
 C1624 C 0.73543 1.09564 0.81403
 H1625 H 0.69287 1.04996 0.76120
 H1626 H 0.67384 1.07470 0.78241
 H1627 H 0.76392 1.05109 0.78609
 H1628 H 0.72912 1.10957 0.82114
 C1629 C 0.20463 0.55921 0.77902
 C1630 C 0.19341 0.57239 0.79197
 C1631 C 0.20378 0.58694 0.80436
 C1632 C 0.22603 0.58800 0.80387
 C1633 C 0.23743 0.57448 0.79072
 C1634 C 0.22653 0.56037 0.77791
 C1635 C 0.25946 0.57567 0.79065
 N1636 N 0.26933 0.58991 0.80259
 N1637 N 0.25865 0.60304 0.81450
 C1638 C 0.23739 0.60266 0.81548
 H1639 H 0.19610 0.54859 0.76919
 H1640 H 0.17643 0.57147 0.79210
 H1641 H 0.26893 0.56537 0.78129
 H1642 H 0.22969 0.61398 0.82518
 C1643 C 0.20916 1.05525 0.28301
 C1644 C 0.19783 1.06862 0.29566
 C1645 C 0.20784 1.08475 0.30644
 C1646 C 0.22997 1.08699 0.30489
 C1647 C 0.24151 1.07318 0.29212
 C1648 C 0.23086 1.05769 0.28063
 C1649 C 0.26344 1.07551 0.29105
 N1650 N 0.27301 1.09112 0.30156
 N1651 N 0.26214 1.10455 0.31299
 C1652 C 0.24099 1.10312 0.31493
 H1653 H 0.20077 1.04357 0.27423
 H1654 H 0.18096 1.06672 0.29664
 H1655 H 0.27304 1.06501 0.28203
 H1656 H 0.23311 1.11474 0.32414
 C1657 C 0.73173 0.43039 0.71167
 C1658 C 0.72042 0.41758 0.69854
 C1659 C 0.69853 0.41921 0.69718
 C1660 C 0.68793 0.43473 0.70886
 C1661 C 0.69941 0.44746 0.72259
 C1662 C 0.72154 0.44531 0.72386
 C1663 C 0.68819 0.46171 0.73489
 N1664 N 0.66717 0.46387 0.73267
 N1665 N 0.65658 0.45269 0.71909
 C1666 C 0.66622 0.43827 0.70709
 H1667 H 0.74861 0.42855 0.71244
 H1668 H 0.72882 0.40588 0.68973
 H1669 H 0.69584 0.47111 0.74631
 H1670 H 0.65681 0.43002 0.69610
 C1671 C 0.72958 -0.06395 0.20232
 C1672 C 0.71729 -0.07670 0.18995
 C1673 C 0.69539 -0.07698 0.19202
 C1674 C 0.68562 -0.06307 0.20595
 C1675 C 0.69813 -0.05016 0.21860
 C1676 C 0.72030 -0.05096 0.21693
 C1677 C 0.68797 -0.03725 0.23291
 N1678 N 0.66672 -0.03684 0.23390
 N1679 N 0.65496 -0.04851 0.22163
 C1680 C 0.66366 -0.06157 0.20769
 H1681 H 0.74651 -0.06476 0.20096
 H1682 H 0.72505 -0.08726 0.17943
 H1683 H 0.69666 -0.02745 0.24331
 H1684 H 0.65332 -0.07044 0.19797
 C1685 C 0.21046 0.44620 0.20620
 C1686 C 0.19933 0.43195 0.19437
 C1687 C 0.20969 0.41610 0.18345
 C1688 C 0.23195 0.41517 0.18385
 C1689 C 0.24329 0.42990 0.19576
 C1690 C 0.23233 0.44498 0.20760
 C1691 C 0.26533 0.42886 0.19567
 N1692 N 0.27526 0.41360 0.18493
 N1693 N 0.26464 0.39932 0.17433
 C1694 C 0.24338 0.39949 0.17350
 H1695 H 0.20181 0.45756 0.21522
 H1696 H 0.18235 0.43288 0.19427
 H1697 H 0.27473 0.44009 0.20397
 H1698 H 0.23576 0.38726 0.16491
 C1699 C 0.22856 -0.07119 0.70036
 C1700 C 0.21612 -0.08212 0.68664
 C1701 C 0.19455 -0.07808 0.68523
 C1702 C 0.18561 -0.06183 0.69727
 C1703 C 0.19812 -0.05120 0.71176
 C1704 C 0.21984 -0.05594 0.71322
 C1705 C 0.18823 -0.03651 0.72463
 N1706 N 0.16765 -0.03183 0.72216
 N1707 N 0.15624 -0.04094 0.70781
 C1708 C 0.16450 -0.05570 0.69527
 H1709 H 0.24512 -0.07493 0.70120
 H1710 H 0.22330 -0.09443 0.67760
 H1711 H 0.19653 -0.02877 0.73673
 H1712 H 0.15455 -0.06224 0.68369
 C1713 C 0.28613 0.27151 0.43358
 C1714 C 0.29783 0.28448 0.42094
 C1715 C 0.29466 0.30634 0.42083
 C1716 C 0.28001 0.31534 0.43457
 C1717 C 0.26778 0.30204 0.44721
 C1718 C 0.27087 0.27991 0.44657
 C1719 C 0.25255 0.31139 0.45979
 N1720 N 0.25052 0.33266 0.46035
 N1721 N 0.26259 0.34518 0.44914
 C1722 C 0.27727 0.33728 0.43633
 H1723 H 0.28875 0.25463 0.43298
 H1724 H 0.30893 0.27724 0.41061
 H1725 H 0.24220 0.30205 0.46913
 H1726 H 0.28684 0.34825 0.42791
 C1727 C 0.29124 0.77197 -0.06658
 C1728 C 0.30303 0.78548 -0.07862
 C1729 C 0.29996 0.80735 -0.07782
 C1730 C 0.28522 0.81574 -0.06381
 C1731 C 0.27293 0.80190 -0.05176
 C1732 C 0.27600 0.77981 -0.05325
 C1733 C 0.25766 0.81069 -0.03886
 N1734 N 0.25562 0.83192 -0.03746
 N1735 N 0.26773 0.84492 -0.04813
 C1736 C 0.28247 0.83759 -0.06118
 H1737 H 0.29383 0.75513 -0.06787
 H1738 H 0.31417 0.77868 -0.08918
 H1739 H 0.24731 0.80094 -0.02991
 H1740 H 0.29206 0.84893 -0.06911
 C1741 C 0.79037 0.26482 -0.07005
 C1742 C 0.80139 0.27890 -0.08216
 C1743 C 0.79844 0.30071 -0.08024
 C1744 C 0.78456 0.30843 -0.06511
 C1745 C 0.77286 0.29402 -0.05311
 C1746 C 0.77593 0.27202 -0.05560
 C1747 C 0.75817 0.30221 -0.03926
 N1748 N 0.75631 0.32336 -0.03677
 N1749 N 0.76804 0.33684 -0.04726
 C1750 C 0.78213 0.33012 -0.06125
 H1751 H 0.79297 0.24807 -0.07211
 H1752 H 0.81189 0.27259 -0.09357
 H1753 H 0.74809 0.29208 -0.03043
 H1754 H 0.79149 0.34183 -0.06894
 C1755 C 0.79613 0.77102 0.43391
 C1756 C 0.80770 0.78541 0.42263
 C1757 C 0.80367 0.80710 0.42398
 C1758 C 0.78829 0.81439 0.43793
 C1759 C 0.77605 0.79964 0.44901
 C1760 C 0.78003 0.77774 0.44688
 C1761 C 0.75987 0.80741 0.46149
 N1762 N 0.75708 0.82849 0.46362
 N1763 N 0.76926 0.84231 0.45405
 C1764 C 0.78478 0.83600 0.44135
 H1765 H 0.79947 0.75437 0.43215
 H1766 H 0.81932 0.77941 0.41212
 H1767 H 0.74937 0.79700 0.46953
 H1768 H 0.79440 0.84796 0.43432
 C1769 C 0.71631 0.28281 0.55243
 C1770 C 0.70403 0.29522 0.56513
 C1771 C 0.71304 0.30680 0.58089
 C1772 C 0.73518 0.30632 0.58345
 C1773 C 0.74774 0.29407 0.57008
 C1774 C 0.73807 0.28156 0.55501
 C1775 C 0.76966 0.29458 0.57238
 N1776 N 0.77831 0.30571 0.58770
 N1777 N 0.76651 0.31633 0.60087
 C1778 C 0.74530 0.31691 0.59937
 H1779 H 0.70860 0.27332 0.54103
 H1780 H 0.68718 0.29533 0.56297
 H1781 H 0.78000 0.28631 0.56208
 H1782 H 0.73672 0.32540 0.61083
 C1783 C 0.71378 0.77852 1.05716
 C1784 C 0.70114 0.79055 1.06992
 C1785 C 0.70989 0.80283 1.08534
 C1786 C 0.73205 0.80317 1.08772
 C1787 C 0.74494 0.79130 1.07434
 C1788 C 0.73562 0.77836 1.05940
 C1789 C 0.76685 0.79267 1.07646
 N1790 N 0.77520 0.80425 1.09163
 N1791 N 0.76313 0.81453 1.10481
 C1792 C 0.74190 0.81428 1.10347
 H1793 H 0.70638 0.76865 1.04589
 H1794 H 0.68429 0.79005 1.06789
 H1795 H 0.77742 0.78470 1.06615
 H1796 H 0.73309 0.82250 1.11497
 C1797 C 0.22996 0.29195 1.05778
 C1798 C 0.21678 0.30427 1.06970
 C1799 C 0.19517 0.30027 1.07064
 C1800 C 0.18662 0.28404 1.05835
 C1801 C 0.20018 0.27111 1.04653
 C1802 C 0.22207 0.27511 1.04639
 C1803 C 0.19133 0.25430 1.03561
 N1804 N 0.17025 0.25140 1.03569
 N1805 N 0.15746 0.26410 1.04600
 C1806 C 0.16489 0.28032 1.05727
 H1807 H 0.24664 0.29532 1.05778
 H1808 H 0.22377 0.31651 1.07891
 H1809 H 0.20091 0.24339 1.02706
 H1810 H 0.15371 0.29031 1.06498
 C1811 C 0.23214 0.79117 0.56448
 C1812 C 0.21891 0.80309 0.57673
 C1813 C 0.19736 0.79882 0.57769
 C1814 C 0.18887 0.78267 0.56530
 C1815 C 0.20244 0.77033 0.55297
 C1816 C 0.22426 0.77464 0.55270
 C1817 C 0.19369 0.75382 0.54157
 N1818 N 0.17266 0.75053 0.54190
 N1819 N 0.15985 0.76258 0.55287
 C1820 C 0.16720 0.77855 0.56452
 H1821 H 0.24878 0.79468 0.56438
 H1822 H 0.22573 0.81534 0.58605
 H1823 H 0.20331 0.74348 0.53243
 H1824 H 0.15598 0.78801 0.57278
 C1825 C 0.27649 0.70919 0.56251
 C1826 C 0.28924 0.69689 0.57469
 C1827 C 0.31089 0.70059 0.57578
 C1828 C 0.31995 0.71636 0.56331
 C1829 C 0.30685 0.72920 0.55116
 C1830 C 0.28489 0.72564 0.55099
 C1831 C 0.31621 0.74551 0.53995
 N1832 N 0.33733 0.74806 0.54017
 N1833 N 0.34969 0.73549 0.55091
 C1834 C 0.34175 0.71973 0.56243
 H1835 H 0.25974 0.70620 0.56249
 H1836 H 0.28188 0.68499 0.58404
 H1837 H 0.30699 0.75626 0.53102
 H1838 H 0.35260 0.70982 0.57052
 C1839 C 0.28680 0.20805 1.04567
 C1840 C 0.29859 0.19608 1.05902
 C1841 C 0.30972 0.20563 1.07477
 C1842 C 0.30952 0.22798 1.07661
 C1843 C 0.29783 0.24017 1.06268
 C1844 C 0.28569 0.23000 1.04766
 C1845 C 0.29838 0.26227 1.06444
 N1846 N 0.30915 0.27146 1.07969
 N1847 N 0.31934 0.26004 1.09329
 C1848 C 0.31979 0.23868 1.09237
 H1849 H 0.27756 0.20000 1.03433
 H1850 H 0.29846 0.17906 1.05747
 H1851 H 0.29042 0.27233 1.05378
 H1852 H 0.32797 0.23045 1.10414
 C1853 C 0.77284 0.70399 1.07304
 C1854 C 0.78456 0.69079 1.08534
 C1855 C 0.80629 0.68865 1.08262
 C1856 C 0.81612 0.69918 1.06623
 C1857 C 0.80430 0.71322 1.05408
 C1858 C 0.78243 0.71567 1.05765
 C1859 C 0.81500 0.72474 1.03910
 N1860 N 0.83572 0.72132 1.03572
 N1861 N 0.84651 0.70731 1.04638
 C1862 C 0.83743 0.69611 1.06145
 H1863 H 0.75618 0.70563 1.07596
 H1864 H 0.77663 0.68291 1.09768
 H1865 H 0.80723 0.73648 1.03006
 H1866 H 0.84691 0.68469 1.06930
 C1867 C 0.77182 0.20616 0.57049
 C1868 C 0.78282 0.19200 0.58242
 C1869 C 0.80389 0.18715 0.57832
 C1870 C 0.81366 0.19608 0.56106
 C1871 C 0.80270 0.21118 0.54932
 C1872 C 0.78153 0.21621 0.55415
 C1873 C 0.81359 0.22109 0.53343
 N1874 N 0.83347 0.21514 0.52880
 N1875 N 0.84327 0.20009 0.53905
 C1876 C 0.83405 0.19033 0.55494
 H1877 H 0.75566 0.20970 0.57437
 H1878 H 0.77492 0.18543 0.59546
 H1879 H 0.80666 0.23358 0.52468
 H1880 H 0.84264 0.17796 0.56240
 C1881 C 0.71226 0.71455 0.44463
 C1882 C 0.69983 0.70301 0.43139
 C1883 C 0.70888 0.69082 0.41599
 C1884 C 0.73108 0.68995 0.41419
 C1885 C 0.74374 0.70160 0.42783
 C1886 C 0.73415 0.71443 0.44278
 C1887 C 0.76568 0.70014 0.42597
 N1888 N 0.77430 0.68838 0.41098
 N1889 N 0.76247 0.67804 0.39774
 C1890 C 0.74121 0.67850 0.39875
 H1891 H 0.70468 0.72436 0.45592
 H1892 H 0.68292 0.70392 0.43292
 H1893 H 0.77606 0.70815 0.43633
 H1894 H 0.73257 0.67005 0.38734
 C1895 C 0.73450 0.19777 -0.06846
 C1896 C 0.72098 0.18476 -0.07927
 C1897 C 0.69940 0.18449 -0.07504
 C1898 C 0.69150 0.19682 -0.05883
 C1899 C 0.70518 0.21042 -0.04809
 C1900 C 0.72688 0.21087 -0.05306
 C1901 C 0.69646 0.22354 -0.03305
 N1902 N 0.67576 0.22216 -0.02843
 N1903 N 0.66314 0.20870 -0.03791
 C1904 C 0.67028 0.19599 -0.05290
 H1905 H 0.75103 0.19793 -0.07239
 H1906 H 0.72732 0.17553 -0.09164
 H1907 H 0.70578 0.23498 -0.02497
 H1908 H 0.65935 0.18519 -0.05986
 C1909 C 0.23323 0.70755 -0.06815
 C1910 C 0.22019 0.69428 -0.07920
 C1911 C 0.19864 0.69307 -0.07497
 C1912 C 0.19026 0.70496 -0.05866
 C1913 C 0.20343 0.71897 -0.04778
 C1914 C 0.22516 0.72011 -0.05255
 C1915 C 0.19422 0.73168 -0.03270
 N1916 N 0.17360 0.72946 -0.02807
 N1917 N 0.16151 0.71553 -0.03757
 C1918 C 0.16913 0.70318 -0.05263
 H1919 H 0.24977 0.70821 -0.07196
 H1920 H 0.22692 0.68537 -0.09159
 H1921 H 0.20309 0.74346 -0.02459
 H1922 H 0.15863 0.69191 -0.05950
 C1923 C 0.22946 0.20588 0.43555
 C1924 C 0.21682 0.19295 0.42373
 C1925 C 0.19488 0.19390 0.42526
 C1926 C 0.18560 0.20735 0.43990
 C1927 C 0.19847 0.22077 0.45175
 C1928 C 0.22059 0.22010 0.44934
 C1929 C 0.18862 0.23482 0.46527
 N1930 N 0.16745 0.23465 0.46738
 N1931 N 0.15545 0.22149 0.45682
 C1932 C 0.16378 0.20783 0.44321
 H1933 H 0.24633 0.20521 0.43354
 H1934 H 0.22426 0.18282 0.41263
 H1935 H 0.19747 0.24598 0.47417
 H1936 H 0.15327 0.19732 0.43531
 C1937 C 0.26845 0.43189 0.70655
 C1938 C 0.28132 0.41934 0.69453
 C1939 C 0.30323 0.42044 0.69607
 C1940 C 0.31226 0.43542 0.70944
 C1941 C 0.29910 0.44773 0.72221
 C1942 C 0.27697 0.44588 0.72069
 C1943 C 0.30865 0.46114 0.73641
 N1944 N 0.32983 0.46305 0.73682
 N1945 N 0.34210 0.45238 0.72410
 C1946 C 0.33406 0.43871 0.71041
 H1947 H 0.25159 0.43034 0.70510
 H1948 H 0.27397 0.40808 0.68448
 H1949 H 0.29956 0.47007 0.74725
 H1950 H 0.34480 0.43084 0.70023
 C1951 C 0.27022 0.92777 0.20927
 C1952 C 0.28276 0.91609 0.19618
 C1953 C 0.30436 0.92001 0.19447
 C1954 C 0.31325 0.93668 0.20601
 C1955 C 0.30067 0.94773 0.22031
 C1956 C 0.27881 0.94351 0.22161
 C1957 C 0.31057 0.96243 0.23306
 N1958 N 0.33115 0.96711 0.23035
 N1959 N 0.34251 0.95799 0.21587
 C1960 C 0.33427 0.94306 0.20356
 H1961 H 0.25357 0.92436 0.20984
 H1962 H 0.27547 0.90353 0.18763
 H1963 H 0.30226 0.97016 0.24523
 H1964 H 0.34414 0.93672 0.19175
 C1965 C 0.76618 0.42339 0.20940
 C1966 C 0.77784 0.41149 0.19569
 C1967 C 0.79913 0.41581 0.19221
 C1968 C 0.80840 0.43349 0.20189
 C1969 C 0.79677 0.44511 0.21650
 C1970 C 0.77541 0.43991 0.22029
 C1971 C 0.80721 0.46117 0.22721
 N1972 N 0.82732 0.46620 0.22248
 N1973 N 0.83777 0.45617 0.20792
 C1974 C 0.82900 0.44006 0.19745
 H1975 H 0.74989 0.41925 0.21199
 H1976 H 0.77033 0.39816 0.18846
 H1977 H 0.79976 0.46974 0.23936
 H1978 H 0.83813 0.43279 0.18555
 C1979 C 0.78472 0.93795 0.71891
 C1980 C 0.79649 0.92409 0.70711
 C1981 C 0.78747 0.90581 0.69897
 C1982 C 0.76582 0.90169 0.70256
 C1983 C 0.75368 0.91629 0.71397
 C1984 C 0.76346 0.93409 0.72286
 C1985 C 0.73205 0.91248 0.71625
 N1986 N 0.72347 0.89458 0.70871
 N1987 N 0.73506 0.88026 0.69908
 C1988 C 0.75590 0.88310 0.69589
 H1989 H 0.79251 0.95142 0.72563
 H1990 H 0.81295 0.92754 0.70458
 H1991 H 0.72187 0.92360 0.72388
 H1992 H 0.76442 0.87056 0.68852
 C1993 C 0.72236 0.57436 0.71049
 C1994 C 0.71016 0.58572 0.69708
 C1995 C 0.68829 0.58336 0.69670
 C1996 C 0.67873 0.56845 0.70981
 C1997 C 0.69115 0.55744 0.72411
 C1998 C 0.71322 0.56040 0.72432
 C1999 C 0.68092 0.54413 0.73794
 N2000 N 0.65993 0.54098 0.73661
 N2001 N 0.64848 0.55032 0.72248
 C2002 C 0.65715 0.56386 0.70902
 H2003 H 0.73921 0.57672 0.71023
 H2004 H 0.71795 0.59696 0.68733
 H2005 H 0.68932 0.53629 0.74987
 H2006 H 0.64712 0.57058 0.69765
 C2007 C 0.72603 0.07618 0.21077
 C2008 C 0.71300 0.08789 0.19835
 C2009 C 0.69111 0.08665 0.20018
 C2010 C 0.68225 0.07282 0.21474
 C2011 C 0.69561 0.06129 0.22781
 C2012 C 0.71771 0.06286 0.22559
 C2013 C 0.68631 0.04877 0.24288
 N2014 N 0.66513 0.04701 0.24398
 N2015 N 0.65265 0.05697 0.23110
 C2016 C 0.66046 0.06973 0.21651
 H2017 H 0.74287 0.07750 0.20874
 H2018 H 0.72019 0.09836 0.18744
 H2019 H 0.69562 0.04046 0.25386
 H2020 H 0.64954 0.07701 0.20628
 C2021 C 0.22392 0.57412 0.20626
 C2022 C 0.21109 0.58634 0.19408
 C2023 C 0.18918 0.58475 0.19532
 C2024 C 0.18012 0.56983 0.20872
 C2025 C 0.19325 0.55760 0.22140
 C2026 C 0.21534 0.55986 0.22010
 C2027 C 0.18373 0.54379 0.23525
 N2028 N 0.16256 0.54169 0.23565
 N2029 N 0.15030 0.55251 0.22321
 C2030 C 0.15833 0.56644 0.20975
 H2031 H 0.24079 0.57598 0.20501
 H2032 H 0.21840 0.59762 0.18403
 H2033 H 0.19287 0.53469 0.24579
 H2034 H 0.14759 0.57444 0.19982
 C2035 C 0.20588 0.07181 0.73142
 C2036 C 0.19299 0.08510 0.72031
 C2037 C 0.19261 0.08398 0.69920
 C2038 C 0.20459 0.06822 0.68920
 C2039 C 0.21804 0.05496 0.70048
 C2040 C 0.21873 0.05693 0.72179
 C2041 C 0.23079 0.04051 0.68989
 N2042 N 0.22924 0.03878 0.66958
 N2043 N 0.21593 0.05058 0.65911
 C2044 C 0.20354 0.06519 0.66820
 H2045 H 0.20625 0.07350 0.74768
 H2046 H 0.18396 0.09701 0.72824
 H2047 H 0.24203 0.03061 0.69746
 H2048 H 0.19283 0.07406 0.65894
 C2049 C 0.28473 0.57628 0.26364
 C2050 C 0.29809 0.58753 0.27627
 C2051 C 0.29999 0.58228 0.29670
 C2052 C 0.28860 0.56476 0.30435
 C2053 C 0.27442 0.55376 0.29164
 C2054 C 0.27272 0.55946 0.27102
 C2055 C 0.26213 0.53760 0.30020
 N2056 N 0.26498 0.53197 0.31969
 N2057 N 0.27917 0.54145 0.33125
 C2058 C 0.29112 0.55756 0.32425
 H2059 H 0.28370 0.58080 0.24794
 H2060 H 0.30664 0.60081 0.27010
 H2061 H 0.25018 0.52946 0.29170
 H2062 H 0.30266 0.56428 0.33425
 C2063 C 0.28231 0.05182 0.78698
 C2064 C 0.29481 0.06456 0.79914
 C2065 C 0.30674 0.08100 0.79087
 C2066 C 0.30628 0.08441 0.76970
 C2067 C 0.29406 0.07094 0.75728
 C2068 C 0.28138 0.05506 0.76614
 C2069 C 0.29477 0.07394 0.73627
 N2070 N 0.30596 0.09013 0.72840
 N2071 N 0.31646 0.10352 0.74010
 C2072 C 0.31689 0.10133 0.76043
 H2073 H 0.27264 0.03983 0.79402
 H2074 H 0.29492 0.06174 0.81524
 H2075 H 0.28658 0.06352 0.72604
 H2076 H 0.32520 0.11310 0.76901
 C2077 C 0.77457 0.56060 0.79266
 C2078 C 0.78707 0.57353 0.80465
 C2079 C 0.79856 0.59021 0.79623
 C2080 C 0.79725 0.59395 0.77515
 C2081 C 0.78516 0.58023 0.76285
 C2082 C 0.77324 0.56383 0.77183
 C2083 C 0.78544 0.58339 0.74185
 N2084 N 0.79593 0.60003 0.73393
 N2085 N 0.80616 0.61369 0.74557
 C2086 C 0.80706 0.61132 0.76585
 H2087 H 0.76554 0.54818 0.79978
 H2088 H 0.78782 0.57041 0.82068
 H2089 H 0.77755 0.57275 0.73163
 H2090 H 0.81509 0.62331 0.77443
 C2091 C 0.78288 0.05703 0.28979
 C2092 C 0.79560 0.06967 0.30184
 C2093 C 0.80691 0.08659 0.29363
 C2094 C 0.80561 0.09055 0.27258
 C2095 C 0.79324 0.07713 0.26022
 C2096 C 0.78113 0.06081 0.26908
 C2097 C 0.79321 0.08065 0.23928
 N2098 N 0.80378 0.09729 0.23145
 N2099 N 0.81433 0.11063 0.24315
 C2100 C 0.81548 0.10796 0.26339
 H2101 H 0.77369 0.04468 0.29683
 H2102 H 0.79633 0.06641 0.31785
 H2103 H 0.78494 0.07029 0.22905
 H2104 H 0.82376 0.11974 0.27196
 C2105 C 0.70908 0.43657 0.28306
 C2106 C 0.69743 0.42273 0.29490
 C2107 C 0.70728 0.40709 0.30633
 C2108 C 0.72954 0.40560 0.30596
 C2109 C 0.74141 0.42003 0.29417
 C2110 C 0.73100 0.43520 0.28219
 C2111 C 0.76343 0.41872 0.29468
 N2112 N 0.77285 0.40334 0.30551
 N2113 N 0.76173 0.38920 0.31583
 C2114 C 0.74046 0.38971 0.31633
 H2115 H 0.70086 0.44802 0.27393
 H2116 H 0.68048 0.42410 0.29496
 H2117 H 0.77326 0.42982 0.28666
 H2118 H 0.73243 0.37749 0.32460
 C2119 C 0.70301 0.94211 0.78962
 C2120 C 0.69137 0.92927 0.80248
 C2121 C 0.70113 0.91375 0.81414
 C2122 C 0.72332 0.91165 0.81328
 C2123 C 0.73517 0.92499 0.80037
 C2124 C 0.72478 0.93974 0.78792
 C2125 C 0.75713 0.92288 0.80004
 N2126 N 0.76650 0.90785 0.81134
 N2127 N 0.75538 0.89478 0.82287
 C2128 C 0.73417 0.89605 0.82413
 H2129 H 0.69482 0.95322 0.78009
 H2130 H 0.67446 0.93102 0.80288
 H2131 H 0.76693 0.93309 0.79096
 H2132 H 0.72614 0.88468 0.83343
 C2133 C 0.22917 0.43047 0.78445
 C2134 C 0.21750 0.41814 0.79764
 C2135 C 0.19565 0.42030 0.79911
 C2136 C 0.18560 0.43606 0.78741
 C2137 C 0.19739 0.44781 0.77304
 C2138 C 0.21948 0.44512 0.77177
 C2139 C 0.18649 0.46155 0.76019
 N2140 N 0.16561 0.46466 0.76278
 N2141 N 0.15487 0.45486 0.77724
 C2142 C 0.16414 0.44078 0.78969
 H2143 H 0.24604 0.42830 0.78393
 H2144 H 0.22571 0.40633 0.80632
 H2145 H 0.19427 0.46976 0.74802
 H2146 H 0.15471 0.43378 0.80146
 C2147 C 0.22992 0.93067 0.28734
 C2148 C 0.21746 0.91924 0.30069
 C2149 C 0.19551 0.92036 0.29988
 C2150 C 0.18600 0.93396 0.28560
 C2151 C 0.19872 0.94511 0.27156
 C2152 C 0.22090 0.94355 0.27262
 C2153 C 0.18870 0.95723 0.25671
 N2154 N 0.16751 0.95906 0.25676
 N2155 N 0.15567 0.94953 0.27058
 C2156 C 0.16416 0.93714 0.28502
 H2157 H 0.24682 0.92938 0.28846
 H2158 H 0.22511 0.90900 0.31142
 H2159 H 0.19745 0.96519 0.24499
 H2160 H 0.15375 0.93024 0.29607
 C2161 C 0.43258 0.28711 0.73110
 C2162 C 0.41980 0.30010 0.71963
 C2163 C 0.42288 0.30206 0.69877
 C2164 C 0.44005 0.29144 0.68955
 C2165 C 0.45267 0.27761 0.70114
 C2166 C 0.44881 0.27546 0.72214
 C2167 C 0.46844 0.26602 0.69112
 N2168 N 0.47212 0.26918 0.67121
 N2169 N 0.46105 0.28301 0.66061
 C2170 C 0.44521 0.29428 0.66909
 H2171 H 0.42948 0.28577 0.74712
 H2172 H 0.40685 0.30803 0.72708
 H2173 H 0.47783 0.25442 0.69882
 H2174 H 0.43708 0.30556 0.65980
 C2175 C 0.43078 0.79253 0.22981
 C2176 C 0.41932 0.80543 0.21701
 C2177 C 0.42394 0.80633 0.19634
 C2178 C 0.44120 0.79460 0.18866
 C2179 C 0.45246 0.78090 0.20160
 C2180 C 0.44719 0.77999 0.22241
 C2181 C 0.46837 0.76824 0.19309
 N2182 N 0.47348 0.77025 0.17333
 N2183 N 0.46372 0.78396 0.16147
 C2184 C 0.44785 0.79623 0.16845
 H2185 H 0.42655 0.79207 0.24565
 H2186 H 0.40624 0.81425 0.22325
 H2187 H 0.47677 0.75670 0.20185
 H2188 H 0.44089 0.80737 0.15818
 C2189 C 0.93435 0.26874 0.20525
 C2190 C 0.92228 0.28088 0.19226
 C2191 C 0.92391 0.30293 0.19225
 C2192 C 0.93897 0.31281 0.20481
 C2193 C 0.95106 0.30047 0.21827
 C2194 C 0.94852 0.27825 0.21855
 C2195 C 0.96492 0.31095 0.23139
 N2196 N 0.96719 0.33218 0.23032
 N2197 N 0.95646 0.34364 0.21712
 C2198 C 0.94249 0.33471 0.20433
 H2199 H 0.93222 0.25179 0.20533
 H2200 H 0.91088 0.27302 0.18278
 H2201 H 0.97397 0.30258 0.24252
 H2202 H 0.93450 0.34480 0.19375
 C2203 C 0.92949 0.79141 0.73378
 C2204 C 0.91707 0.80394 0.72147
 C2205 C 0.92139 0.80582 0.70080
 C2206 C 0.93943 0.79570 0.69270
 C2207 C 0.95174 0.78238 0.70512
 C2208 C 0.94661 0.78020 0.72587
 C2209 C 0.96848 0.77126 0.69612
 N2210 N 0.97329 0.77438 0.67642
 N2211 N 0.96244 0.78773 0.66507
 C2212 C 0.94575 0.79852 0.67252
 H2213 H 0.92540 0.79003 0.74960
 H2214 H 0.90342 0.81151 0.72805
 H2215 H 0.97775 0.76004 0.70443
 H2216 H 0.93781 0.80941 0.66267
 C2217 C 0.56614 0.26589 0.29343
 C2218 C 0.57945 0.27681 0.30633
 C2219 C 0.57754 0.29868 0.30898
 C2220 C 0.56091 0.30946 0.29931
 C2221 C 0.54758 0.29839 0.28581
 C2222 C 0.55045 0.27642 0.28274
 C2223 C 0.53218 0.30991 0.27542
 N2224 N 0.52965 0.33078 0.27918
 N2225 N 0.54154 0.34095 0.29249
 C2226 C 0.55702 0.33102 0.30270
 H2227 H 0.56856 0.24912 0.29122
 H2228 H 0.59200 0.26820 0.31354
 H2229 H 0.52212 0.30263 0.26434
 H2230 H 0.56591 0.34003 0.31356
 C2231 C 0.55467 0.79169 0.78744
 C2232 C 0.56914 0.80184 0.79979
 C2233 C 0.58617 0.79088 0.80802
 C2234 C 0.58834 0.76895 0.80392
 C2235 C 0.57299 0.75847 0.79210
 C2236 C 0.55660 0.77017 0.78306
 C2237 C 0.57467 0.73650 0.78951
 N2238 N 0.59142 0.72604 0.79701
 N2239 N 0.60658 0.73608 0.80689
 C2240 C 0.60572 0.75712 0.81045
 H2241 H 0.54229 0.80092 0.78064
 H2242 H 0.56721 0.81855 0.80267
 H2243 H 0.56279 0.72753 0.78165
 H2244 H 0.61890 0.76429 0.81794
 C2245 C 0.06138 0.27011 0.79385
 C2246 C 0.07443 0.28186 0.80640
 C2247 C 0.07375 0.30394 0.80634
 C2248 C 0.05850 0.31429 0.79439
 C2249 C 0.04562 0.30237 0.78117
 C2250 C 0.04726 0.28005 0.78082
 C2251 C 0.03198 0.31338 0.76829
 N2252 N 0.03046 0.33467 0.76959
 N2253 N 0.04174 0.34572 0.78274
 C2254 C 0.05565 0.33628 0.79520
 H2255 H 0.06281 0.25309 0.79380
 H2256 H 0.08589 0.27364 0.81545
 H2257 H 0.02256 0.30541 0.75714
 H2258 H 0.06410 0.34605 0.80578
 C2259 C 0.06691 0.76885 0.29937
 C2260 C 0.07981 0.78029 0.31228
 C2261 C 0.07669 0.80195 0.31531
 C2262 C 0.05906 0.81180 0.30636
 C2263 C 0.04634 0.80034 0.29262
 C2264 C 0.05057 0.77867 0.28892
 C2265 C 0.03028 0.81128 0.28256
 N2266 N 0.02641 0.83178 0.28707
 N2267 N 0.03759 0.84216 0.30079
 C2268 C 0.05373 0.83288 0.31060
 H2269 H 0.07031 0.75231 0.29680
 H2270 H 0.09308 0.77235 0.31899
 H2271 H 0.02078 0.80391 0.27111
 H2272 H 0.06204 0.84200 0.32180
 C2273 C 0.56474 0.73955 0.70637
 C2274 C 0.57655 0.72743 0.69293
 C2275 C 0.57361 0.70557 0.69164
 C2276 C 0.55732 0.69602 0.70304
 C2277 C 0.54561 0.70824 0.71707
 C2278 C 0.54960 0.73020 0.71886
 C2279 C 0.53077 0.69780 0.72932
 N2280 N 0.52714 0.67690 0.72672
 N2281 N 0.53743 0.66568 0.71288
 C2282 C 0.55235 0.67450 0.70095
 H2283 H 0.56800 0.75627 0.70761
 H2284 H 0.58889 0.73501 0.68430
 H2285 H 0.52205 0.70589 0.74098
 H2286 H 0.55997 0.66464 0.68980
 C2287 C 0.54923 0.21331 0.21701
 C2288 C 0.56318 0.20201 0.20494
 C2289 C 0.57951 0.21219 0.19459
 C2290 C 0.58132 0.23450 0.19597
 C2291 C 0.56664 0.24603 0.20780
 C2292 C 0.55110 0.23520 0.21908
 C2293 C 0.56818 0.26816 0.20822
 N2294 N 0.58407 0.27795 0.19833
 N2295 N 0.59851 0.26710 0.18812
 C2296 C 0.59780 0.24577 0.18672
 H2297 H 0.53750 0.20475 0.22559
 H2298 H 0.56154 0.18503 0.20408
 H2299 H 0.55686 0.27774 0.21628
 H2300 H 0.61034 0.23801 0.17869
 C2301 C 0.05241 0.71543 0.22261
 C2302 C 0.06621 0.70420 0.21031
 C2303 C 0.08276 0.71435 0.20029
 C2304 C 0.08519 0.73653 0.20253
 C2305 C 0.07063 0.74804 0.21453
 C2306 C 0.05461 0.73723 0.22523
 C2307 C 0.07269 0.77010 0.21558
 N2308 N 0.08899 0.77979 0.20622
 N2309 N 0.10334 0.76890 0.19592
 C2310 C 0.10210 0.74765 0.19388
 H2311 H 0.04033 0.70688 0.23074
 H2312 H 0.06409 0.68732 0.20882
 H2313 H 0.06147 0.77975 0.22367
 H2314 H 0.11459 0.73979 0.18583
 C2315 C 0.06377 0.23873 0.71099
 C2316 C 0.07647 0.22640 0.69853
 C2317 C 0.07427 0.20442 0.69805
 C2318 C 0.05811 0.19481 0.70960
 C2319 C 0.04547 0.20731 0.72263
 C2320 C 0.04844 0.22948 0.72332
 C2321 C 0.03056 0.19704 0.73489
 N2322 N 0.02780 0.17590 0.73331
 N2323 N 0.03899 0.16432 0.72039
 C2324 C 0.05398 0.17303 0.70847
 H2325 H 0.06620 0.25564 0.71132
 H2326 H 0.08869 0.23405 0.68981
 H2327 H 0.02111 0.20550 0.74579
 H2328 H 0.06227 0.16287 0.69805
 C2329 C 0.42741 0.73126 0.28502
 C2330 C 0.41518 0.71881 0.29766
 C2331 C 0.41897 0.69714 0.29958
 C2332 C 0.43593 0.68801 0.28863
 C2333 C 0.44776 0.70054 0.27494
 C2334 C 0.44369 0.72250 0.27347
 C2335 C 0.46311 0.69052 0.26296
 N2336 N 0.46742 0.66981 0.26573
 N2337 N 0.45734 0.65842 0.27954
 C2338 C 0.44184 0.66680 0.29112
 H2339 H 0.42410 0.74800 0.28425
 H2340 H 0.40234 0.72623 0.30576
 H2341 H 0.47163 0.69886 0.25134
 H2342 H 0.43464 0.65687 0.30238
 C2343 C 0.43369 0.22568 0.78471
 C2344 C 0.42220 0.21314 0.79789
 C2345 C 0.42596 0.19141 0.79930
 C2346 C 0.44223 0.18236 0.78735
 C2347 C 0.45333 0.19504 0.77322
 C2348 C 0.44920 0.21700 0.77215
 C2349 C 0.46800 0.18516 0.76040
 N2350 N 0.47235 0.16438 0.76265
 N2351 N 0.46294 0.15281 0.77676
 C2352 C 0.44814 0.16109 0.78923
 H2353 H 0.43039 0.24244 0.78428
 H2354 H 0.40989 0.22051 0.80674
 H2355 H 0.47598 0.19366 0.74853
 H2356 H 0.44149 0.15101 0.80068
 C2357 C 0.92988 0.72932 0.78748
 C2358 C 0.91858 0.71651 0.80055
 C2359 C 0.92275 0.69486 0.80190
 C2360 C 0.93902 0.68608 0.78978
 C2361 C 0.95008 0.69908 0.77589
 C2362 C 0.94567 0.72098 0.77506
 C2363 C 0.96504 0.68959 0.76312
 N2364 N 0.96953 0.66881 0.76505
 N2365 N 0.96003 0.65688 0.77883
 C2366 C 0.94504 0.66480 0.79130
 H2367 H 0.92634 0.74603 0.78717
 H2368 H 0.90619 0.72363 0.80949
 H2369 H 0.97313 0.69844 0.75154
 H2370 H 0.93828 0.65442 0.80245
 C2371 C 0.94746 0.20989 0.27986
 C2372 C 0.93420 0.19754 0.29165
 C2373 C 0.91763 0.20660 0.30260
 C2374 C 0.91450 0.22877 0.30168
 C2375 C 0.92849 0.24141 0.29017
 C2376 C 0.94466 0.23174 0.27867
 C2377 C 0.92577 0.26343 0.29050
 N2378 N 0.90937 0.27203 0.30067
 N2379 N 0.89554 0.26011 0.31051
 C2380 C 0.89744 0.23883 0.31126
 H2381 H 0.95968 0.20221 0.27110
 H2382 H 0.93685 0.18068 0.29213
 H2383 H 0.93657 0.27389 0.28285
 H2384 H 0.88535 0.23011 0.31904
 C2385 C 0.29165 0.26692 0.57161
 C2386 C 0.30499 0.27875 0.58373
 C2387 C 0.30679 0.30064 0.58128
 C2388 C 0.29574 0.31050 0.56535
 C2389 C 0.28156 0.29855 0.55341
 C2390 C 0.27947 0.27653 0.55672
 C2391 C 0.26955 0.30928 0.53894
 N2392 N 0.27262 0.33016 0.53578
 N2393 N 0.28675 0.34109 0.54620
 C2394 C 0.29843 0.33199 0.56081
 H2395 H 0.29034 0.25012 0.57430
 H2396 H 0.31326 0.27079 0.59572
 H2397 H 0.25768 0.30139 0.53013
 H2398 H 0.30992 0.34160 0.56848
 C2399 C 0.28516 0.79147 0.05511
 C2400 C 0.29709 0.80380 0.06816
 C2401 C 0.30817 0.79467 0.08410
 C2402 C 0.30739 0.77245 0.08676
 C2403 C 0.29564 0.75987 0.07313
 C2404 C 0.28392 0.76959 0.05761
 C2405 C 0.29582 0.73784 0.07561
 N2406 N 0.30620 0.72915 0.09131
 N2407 N 0.31636 0.74100 0.10469
 C2408 C 0.31720 0.76228 0.10305
 H2409 H 0.27617 0.79917 0.04344
 H2410 H 0.29743 0.82072 0.06596
 H2411 H 0.28787 0.72744 0.06519
 H2412 H 0.32523 0.77092 0.11472
 C2413 C 0.78537 0.28612 0.05291
 C2414 C 0.79669 0.29905 0.06593
 C2415 C 0.80859 0.29044 0.08158
 C2416 C 0.80941 0.26820 0.08391
 C2417 C 0.79809 0.25506 0.07044
 C2418 C 0.78551 0.26420 0.05526
 C2419 C 0.79950 0.23307 0.07279
 N2420 N 0.81087 0.22488 0.08810
 N2421 N 0.82086 0.23719 0.10121
 C2422 C 0.82043 0.25850 0.09973
 H2423 H 0.77568 0.29333 0.04147
 H2424 H 0.79582 0.31599 0.06404
 H2425 H 0.79172 0.22232 0.06257
 H2426 H 0.82851 0.26752 0.11112
 C2427 C 0.78570 0.78468 0.55471
 C2428 C 0.79707 0.79667 0.56847
 C2429 C 0.80697 0.78722 0.58496
 C2430 C 0.80575 0.76497 0.58730
 C2431 C 0.79469 0.75272 0.57287
 C2432 C 0.78388 0.76282 0.55696
 C2433 C 0.79457 0.73066 0.57498
 N2434 N 0.80389 0.72161 0.59109
 N2435 N 0.81328 0.73313 0.60523
 C2436 C 0.81440 0.75444 0.60398
 H2437 H 0.77748 0.79267 0.54268
 H2438 H 0.79776 0.81361 0.56648
 H2439 H 0.78722 0.72052 0.56393
 H2440 H 0.82173 0.76277 0.61625
 C2441 C 0.29600 0.71807 0.44257
 C2442 C 0.30734 0.70562 0.42905
 C2443 C 0.29733 0.69510 0.41315
 C2444 C 0.27520 0.69687 0.41113
 C2445 C 0.26362 0.70913 0.42526
 C2446 C 0.27426 0.72040 0.44061
 C2447 C 0.24166 0.70995 0.42341
 N2448 N 0.23209 0.70002 0.40784
 N2449 N 0.24301 0.68939 0.39401
 C2450 C 0.26418 0.68760 0.39502
 H2451 H 0.30438 0.72667 0.45415
 H2452 H 0.32420 0.70450 0.43080
 H2453 H 0.23200 0.71832 0.43423
 H2454 H 0.27205 0.67922 0.38301
 C2455 C 0.27226 0.20444 0.92389
 C2456 C 0.28479 0.19118 0.91223
 C2457 C 0.30659 0.19043 0.91493
 C2458 C 0.31568 0.20265 0.93062
 C2459 C 0.30302 0.21691 0.94194
 C2460 C 0.28104 0.21774 0.93850
 C2461 C 0.31299 0.23019 0.95599
 N2462 N 0.33382 0.22815 0.95949
 N2463 N 0.34541 0.21386 0.94981
 C2464 C 0.33706 0.20102 0.93558
 H2465 H 0.25551 0.20471 0.92112
 H2466 H 0.27736 0.18200 0.90046
 H2467 H 0.30455 0.24226 0.96418
 H2468 H 0.34717 0.18943 0.92858
 C2469 C 0.77512 0.70744 0.93324
 C2470 C 0.78708 0.69443 0.92080
 C2471 C 0.80901 0.69401 0.92224
 C2472 C 0.81893 0.70640 0.93733
 C2473 C 0.80677 0.72032 0.94952
 C2474 C 0.78462 0.72071 0.94746
 C2475 C 0.81735 0.73369 0.96306
 N2476 N 0.83843 0.73211 0.96522
 N2477 N 0.84965 0.71818 0.95469
 C2478 C 0.84064 0.70524 0.94091
 H2479 H 0.75823 0.70743 0.93149
 H2480 H 0.77908 0.68514 0.90946
 H2481 H 0.80917 0.74546 0.97188
 H2482 H 0.85052 0.69396 0.93318
 C2483 C 0.77442 0.20747 0.42952
 C2484 C 0.78673 0.19404 0.41785
 C2485 C 0.80848 0.19273 0.42071
 C2486 C 0.81776 0.20490 0.43636
 C2487 C 0.80540 0.21968 0.44736
 C2488 C 0.78339 0.22064 0.44415
 C2489 C 0.81567 0.23325 0.46095
 N2490 N 0.83641 0.23073 0.46468
 N2491 N 0.84760 0.21571 0.45562
 C2492 C 0.83899 0.20266 0.44170
 H2493 H 0.75765 0.20770 0.42694
 H2494 H 0.77911 0.18502 0.40610
 H2495 H 0.80752 0.24593 0.46856
 H2496 H 0.84875 0.19044 0.43528
 C2497 C 0.73190 0.28757 0.43373
 C2498 C 0.71852 0.30012 0.42244
 C2499 C 0.69672 0.29734 0.42339
 C2500 C 0.68827 0.28217 0.43688
 C2501 C 0.70195 0.26899 0.44803
 C2502 C 0.72398 0.27175 0.44634
 C2503 C 0.69304 0.25314 0.46017
 N2504 N 0.67190 0.25148 0.46185
 N2505 N 0.65907 0.26450 0.45215
 C2506 C 0.66651 0.27979 0.43979
 H2507 H 0.74869 0.28998 0.43236
 H2508 H 0.72538 0.31156 0.41225
 H2509 H 0.70262 0.24201 0.46828
 H2510 H 0.65534 0.29010 0.43262
 C2511 C 0.70823 0.77425 0.95058
 C2512 C 0.69501 0.78619 0.93846
 C2513 C 0.70316 0.80082 0.92467
 C2514 C 0.72526 0.80368 0.92335
 C2515 C 0.73863 0.79205 0.93626
 C2516 C 0.73003 0.77664 0.94937
 C2517 C 0.76034 0.79607 0.93548
 N2518 N 0.76819 0.80985 0.92181
 N2519 N 0.75581 0.81982 0.90887
 C2520 C 0.73471 0.81710 0.90904
 H2521 H 0.70141 0.76252 0.96050
 H2522 H 0.67822 0.78368 0.93957
 H2523 H 0.77116 0.78846 0.94564
 H2524 H 0.72577 0.82521 0.89773
 C2525 C 0.22575 0.29383 0.93573
 C2526 C 0.21322 0.30580 0.92297
 C2527 C 0.19923 0.29614 0.90953
 C2528 C 0.19784 0.27377 0.90906
 C2529 C 0.21009 0.26165 0.92257
 C2530 C 0.22464 0.27179 0.93551
 C2531 C 0.20744 0.23960 0.92262
 N2532 N 0.19440 0.23032 0.90917
 N2533 N 0.18385 0.24157 0.89570
 C2534 C 0.18522 0.26289 0.89507
 H2535 H 0.23679 0.30181 0.94551
 H2536 H 0.21460 0.32282 0.92345
 H2537 H 0.21552 0.22964 0.93325
 H2538 H 0.17671 0.27092 0.88339
 C2539 C 0.21155 0.78778 0.44608
 C2540 C 0.19912 0.79978 0.43327
 C2541 C 0.20806 0.81129 0.41740
 C2542 C 0.23022 0.81130 0.41488
 C2543 C 0.24287 0.79934 0.42819
 C2544 C 0.23333 0.78685 0.44335
 C2545 C 0.26479 0.79994 0.42567
 N2546 N 0.27337 0.81112 0.41033
 N2547 N 0.26151 0.82165 0.39733
 C2548 C 0.24029 0.82202 0.39898
 H2549 H 0.20398 0.77822 0.45751
 H2550 H 0.18225 0.79953 0.43538
 H2551 H 0.27516 0.79167 0.43581
 H2552 H 0.23167 0.83049 0.38766
 C2553 C 0.70615 0.72900 0.56511
 C2554 C 0.69195 0.71774 0.57694
 C2555 C 0.69091 0.69569 0.57577
 C2556 C 0.70346 0.68496 0.56130
 C2557 C 0.71822 0.69638 0.54952
 C2558 C 0.71971 0.71859 0.55170
 C2559 C 0.73144 0.68499 0.53636
 N2560 N 0.72918 0.66382 0.53444
 N2561 N 0.71471 0.65325 0.54485
 C2562 C 0.70178 0.66307 0.55817
 H2563 H 0.70711 0.74596 0.56695
 H2564 H 0.68251 0.72626 0.58786
 H2565 H 0.74357 0.69260 0.52759
 H2566 H 0.69014 0.65371 0.56596
 C2567 C 0.72947 0.20358 0.06891
 C2568 C 0.71538 0.19157 0.08006
 C2569 C 0.69368 0.19332 0.07707
 C2570 C 0.68621 0.20708 0.06184
 C2571 C 0.70058 0.21999 0.05101
 C2572 C 0.72245 0.21803 0.05452
 C2573 C 0.69243 0.23474 0.03731
 N2574 N 0.67152 0.23537 0.03370
 N2575 N 0.65820 0.22240 0.04296
 C2576 C 0.66481 0.20826 0.05684
 H2577 H 0.74611 0.20169 0.07169
 H2578 H 0.72157 0.18129 0.09159
 H2579 H 0.70239 0.24587 0.02952
 H2580 H 0.65331 0.19789 0.06354
 C2581 C 0.22748 0.70909 0.06924
 C2582 C 0.21356 0.69671 0.08022
 C2583 C 0.19182 0.69887 0.07791
 C2584 C 0.18408 0.71341 0.06348
 C2585 C 0.19830 0.72661 0.05278
 C2586 C 0.22023 0.72429 0.05567
 C2587 C 0.18996 0.74199 0.03985
 N2588 N 0.16896 0.74305 0.03685
 N2589 N 0.15574 0.72989 0.04601
 C2590 C 0.16256 0.71510 0.05915
 H2591 H 0.24417 0.70692 0.07154
 H2592 H 0.21994 0.68582 0.09113
 H2593 H 0.19985 0.75328 0.03218
 H2594 H 0.15111 0.70463 0.06581
 C2595 C 0.20511 0.23662 0.57180
 C2596 C 0.19232 0.22488 0.58464
 C2597 C 0.19338 0.20281 0.58479
 C2598 C 0.20670 0.19235 0.57080
 C2599 C 0.21997 0.20430 0.55793
 C2600 C 0.21923 0.22665 0.55863
 C2601 C 0.23394 0.19337 0.54514
 N2602 N 0.23381 0.17200 0.54464
 N2603 N 0.22075 0.16081 0.55612
 C2604 C 0.20719 0.17023 0.56913
 H2605 H 0.20438 0.25368 0.57249
 H2606 H 0.18221 0.23314 0.59521
 H2607 H 0.24502 0.20152 0.53556
 H2608 H 0.19676 0.16032 0.57783
   
