data_POSCAR
  _audit_creation_date              2014-09-24
  _audit_creation_method            'ToBaCCo'
  _symmetry_space_group_name_H-M    'P1'
  _symmetry_Int_Tables_number       1
  _symmetry_cell_setting            triclinic
  loop_
  _symmetry_equiv_pos_as_xyz
 x,y,z
_cell_length_a 43.8416
_cell_length_b 43.6768
_cell_length_c 38.7363
_cell_angle_alpha 91.225900
_cell_angle_beta 89.629100
_cell_angle_gamma 86.725500
loop_
  _atom_site_label
  _atom_site_type_symbol
  _atom_site_fract_x
  _atom_site_fract_y
  _atom_site_fract_z
C1 C 0.38631 0.03733 0.31645
 H2 H 0.36634 0.05191 0.31114
 C3 C 0.40608 0.04607 0.34253
 H4 H 0.40076 0.06694 0.35751
 C5 C 0.41654 -0.00857 0.30556
 H6 H 0.42050 -0.02991 0.29115
 C7 C 0.43708 -0.00055 0.33129
 H8 H 0.45617 -0.01628 0.33744
 N9 N 0.39136 0.01009 0.29900
 C10 C 0.41285 -0.01091 0.21756
 H11 H 0.42478 0.00382 0.23499
 C12 C 0.42697 -0.02144 0.18670
 H13 H 0.44961 -0.01443 0.18036
 C14 C 0.36784 -0.03565 0.20282
 H15 H 0.34456 -0.04060 0.20896
 C16 C 0.38107 -0.04660 0.17173
 H17 H 0.36775 -0.05963 0.15381
 Zn18 Zn 0.36258 -0.00144 0.26474
 N19 N 0.38363 -0.01781 0.22479
 C20 C 0.34782 0.05046 0.22524
 N21 N 0.33854 0.03404 0.25247
 C22 C 0.31589 0.04531 0.27421
 C23 C 0.30306 0.07497 0.27030
 C24 C 0.33603 0.08050 0.22083
 C25 C 0.30683 -0.03174 0.27413
 C26 C 0.29085 -0.05856 0.27606
 C27 C 0.33753 -0.08534 0.29418
 C28 C 0.35228 -0.05802 0.29281
 N29 N 0.33739 -0.03237 0.28079
 H30 H 0.36622 0.04127 0.20869
 H31 H 0.30966 0.03233 0.29638
 H32 H 0.28696 0.08463 0.28947
 H33 H 0.34566 0.09442 0.20116
 H34 H 0.29538 -0.01146 0.26378
 H35 H 0.26741 -0.05811 0.26728
 H36 H 0.35064 -0.10616 0.30084
 H37 H 0.37644 -0.05813 0.29803
 C38 C 0.41082 -0.03910 0.16316
 C39 C 0.43159 0.02684 0.35042
 C40 C 0.30719 -0.08644 0.28251
 C41 C 0.31451 0.09337 0.24459
 C42 C 0.09963 0.03393 0.68672
 H43 H 0.09491 0.04432 0.71193
 C44 C 0.08470 0.04579 0.65766
 H45 H 0.06809 0.06501 0.66055
 C46 C 0.12684 -0.00390 0.65204
 H47 H 0.14346 -0.02307 0.64980
 C48 C 0.11294 0.00758 0.62233
 H49 H 0.11841 -0.00329 0.59748
 N50 N 0.11947 0.00885 0.68357
 C51 C 0.11984 -0.03266 0.78535
 H52 H 0.14418 -0.03793 0.78719
 C53 C 0.10045 -0.04057 0.81203
 H54 H 0.11009 -0.05158 0.83460
 C55 C 0.07786 -0.01138 0.75401
 H56 H 0.06900 -0.00033 0.73123
 C57 C 0.05764 -0.01834 0.78055
 H58 H 0.03360 -0.01150 0.77849
 Zn59 Zn 0.13823 -0.00782 0.72369
 N60 N 0.10850 -0.01774 0.75735
 C61 C 0.15669 0.03721 0.77223
 N62 N 0.16399 0.02235 0.74177
 C63 C 0.18721 0.03138 0.72156
 C64 C 0.20361 0.05673 0.73131
 C65 C 0.17229 0.06286 0.78276
 C66 C 0.14322 -0.06782 0.69877
 C67 C 0.15619 -0.09731 0.69238
 C68 C 0.20433 -0.08046 0.71340
 C69 C 0.19046 -0.05103 0.71908
 N70 N 0.16030 -0.04541 0.71203
 H71 H 0.13769 0.03023 0.78753
 H72 H 0.19213 0.01968 0.69708
 H73 H 0.22114 0.06447 0.71428
 H74 H 0.16529 0.07538 0.80620
 H75 H 0.11917 -0.06289 0.69397
 H76 H 0.14203 -0.11503 0.68261
 H77 H 0.22796 -0.08509 0.72057
 H78 H 0.20345 -0.03312 0.73041
 C79 C 0.06897 -0.03286 0.81021
 C80 C 0.09127 0.03238 0.62508
 C81 C 0.18701 -0.10406 0.70014
 C82 C 0.19578 0.07309 0.76194
 C83 C 0.63397 0.54372 0.19642
 H84 H 0.65594 0.55376 0.19677
 C85 C 0.61375 0.54998 0.16926
 H86 H 0.62039 0.56461 0.14861
 C87 C 0.59926 0.51074 0.22136
 H88 H 0.59413 0.49451 0.24094
 C89 C 0.57835 0.51658 0.19494
 H90 H 0.55732 0.50471 0.19436
 N91 N 0.62656 0.52413 0.22163
 C92 C 0.64022 0.46950 0.30792
 H93 H 0.66003 0.45605 0.29851
 C94 C 0.62136 0.45726 0.33283
 H95 H 0.62686 0.43449 0.34237
 C96 C 0.60862 0.51527 0.30701
 H97 H 0.60330 0.53757 0.29625
 C98 C 0.58917 0.50392 0.33182
 H99 H 0.56939 0.51796 0.34072
 Zn100 Zn 0.65542 0.51239 0.25632
 N101 N 0.63333 0.49784 0.29504
 C102 C 0.67060 0.56537 0.29571
 N103 N 0.67895 0.54593 0.26894
 C104 C 0.70320 0.55126 0.24824
 C105 C 0.71831 0.57837 0.25204
 C106 C 0.68495 0.59295 0.30024
 C107 C 0.70704 0.47171 0.25729
 C108 C 0.72326 0.44397 0.24971
 C109 C 0.69088 0.43697 0.20022
 C110 C 0.67528 0.46498 0.20872
 N111 N 0.68233 0.48055 0.23816
 H112 H 0.65146 0.56063 0.31203
 H113 H 0.70940 0.53548 0.22712
 H114 H 0.73544 0.58375 0.23317
 H115 H 0.67599 0.60976 0.31920
 H116 H 0.71230 0.48472 0.28035
 H117 H 0.74033 0.43530 0.26768
 H118 H 0.68251 0.42278 0.17947
 H119 H 0.65571 0.47266 0.19370
 C120 C 0.59503 0.47426 0.34439
 C121 C 0.58562 0.53616 0.16828
 C122 C 0.71353 0.42526 0.22254
 C123 C 0.70798 0.60027 0.27702
 C124 C 0.90650 0.52149 0.78291
 H125 H 0.90764 0.53542 0.76022
 C126 C 0.92279 0.52932 0.81267
 H127 H 0.93557 0.54980 0.81260
 C128 C 0.88528 0.48037 0.81156
 H129 H 0.86990 0.46197 0.81183
 C130 C 0.90135 0.48705 0.84147
 H131 H 0.89870 0.47268 0.86362
 N132 N 0.88805 0.49742 0.78289
 C133 C 0.87432 0.48624 0.67199
 H134 H 0.85140 0.49653 0.66992
 C135 C 0.89232 0.48158 0.64229
 H136 H 0.88347 0.48961 0.61785
 C137 C 0.91354 0.46377 0.70640
 H138 H 0.92180 0.45711 0.73155
 C139 C 0.93126 0.45633 0.67693
 H140 H 0.95278 0.44320 0.67962
 Zn141 Zn 0.86237 0.49002 0.74404
 N142 N 0.88600 0.47945 0.70357
 C143 C 0.84771 0.54734 0.71354
 N144 N 0.83846 0.52748 0.73766
 C145 C 0.81607 0.53630 0.76094
 C146 C 0.80204 0.56589 0.76030
 C147 C 0.83404 0.57686 0.71169
 C148 C 0.85552 0.42882 0.75661
 C149 C 0.84156 0.40201 0.76464
 C150 C 0.79265 0.43024 0.76405
 C151 C 0.80762 0.45670 0.75575
 N152 N 0.83867 0.45567 0.75301
 H153 H 0.86736 0.54142 0.69738
 H154 H 0.81047 0.52112 0.78142
 H155 H 0.78571 0.57330 0.78029
 H156 H 0.84292 0.59287 0.69372
 H157 H 0.88008 0.42833 0.75390
 H158 H 0.85555 0.38104 0.76745
 H159 H 0.76800 0.43138 0.76651
 H160 H 0.79437 0.47786 0.75155
 C161 C 0.92183 0.46751 0.64466
 C162 C 0.92056 0.51189 0.84273
 C163 C 0.80981 0.40256 0.76925
 C164 C 0.81154 0.58661 0.73583
 C165 C 0.20507 0.43667 0.96378
 H166 H 0.22364 0.44753 0.95133
 C167 C 0.17477 0.44834 0.95939
 H168 H 0.17010 0.46806 0.94340
 C169 C 0.18815 0.39760 0.99944
 H170 H 0.19293 0.37723 1.01416
 C171 C 0.15816 0.40901 0.99685
 H172 H 0.14071 0.39800 1.01118
 N173 N 0.21112 0.41176 0.98379
 C174 C 0.29257 0.42715 1.03235
 H175 H 0.28401 0.41500 1.05394
 C176 C 0.31828 0.44411 1.03701
 H177 H 0.32906 0.44495 1.06207
 C178 C 0.29128 0.43862 0.97281
 H179 H 0.28142 0.43525 0.94758
 C180 C 0.31731 0.45549 0.97627
 H181 H 0.32737 0.46528 0.95372
 Zn182 Zn 0.25106 0.39406 0.99237
 N183 N 0.27995 0.42416 1.00048
 C184 C 0.29464 0.35775 0.95389
 N185 N 0.26514 0.36938 0.95419
 C186 C 0.24568 0.36291 0.92819
 C187 C 0.25536 0.34296 0.90117
 C188 C 0.30526 0.33766 0.92733
 C189 C 0.23599 0.38296 1.06109
 C190 C 0.23518 0.36714 1.09184
 C191 C 0.26004 0.32293 1.06268
 C192 C 0.25986 0.33949 1.03213
 N193 N 0.24887 0.36932 1.03219
 H194 H 0.30964 0.36344 0.97485
 H195 H 0.22239 0.37248 0.92893
 H196 H 0.23942 0.33703 0.88119
 H197 H 0.32840 0.32760 0.92786
 H198 H 0.22711 0.40657 1.06041
 H199 H 0.22616 0.37876 1.11502
 H200 H 0.27053 0.29988 1.06301
 H201 H 0.26947 0.32882 1.00881
 C202 C 0.33132 0.45771 1.00857
 C203 C 0.15082 0.43414 0.97588
 C204 C 0.24837 0.33721 1.09307
 C205 C 0.28524 0.32976 0.90102
 C206 C 0.77032 0.07161 0.96776
 H207 H 0.75910 0.08788 0.95076
 C208 C 0.79692 0.05491 0.95647
 H209 H 0.80638 0.05931 0.93126
 C210 C 0.77374 0.04887 1.02263
 H211 H 0.76544 0.04757 1.04888
 C212 C 0.80046 0.03196 1.01254
 H213 H 0.81277 0.01823 1.03146
 N214 N 0.76008 0.06938 1.00087
 C215 C 0.66538 0.09578 1.02659
 H216 H 0.66558 0.12024 1.02300
 C217 C 0.63755 0.08182 1.02694
 H218 H 0.61649 0.09564 1.02372
 C219 C 0.69251 0.04773 1.03263
 H220 H 0.71393 0.03436 1.03391
 C221 C 0.66511 0.03295 1.03412
 H222 H 0.66564 0.00831 1.03702
 Zn223 Zn 0.72888 0.09816 1.01860
 N224 N 0.69221 0.07855 1.02812
 C225 C 0.69983 0.12356 0.95995
 N226 N 0.72034 0.12842 0.98539
 C227 C 0.73650 0.15412 0.98650
 C228 C 0.73392 0.17515 0.95996
 C229 C 0.69613 0.14430 0.93323
 C230 C 0.77238 0.11738 1.06849
 C231 C 0.78206 0.13581 1.09589
 C232 C 0.73047 0.15794 1.10167
 C233 C 0.72177 0.13913 1.07441
 N234 N 0.74258 0.11924 1.05846
 H235 H 0.68763 0.10273 0.95932
 H236 H 0.75288 0.15732 1.00682
 H237 H 0.74899 0.19395 0.95935
 H238 H 0.68168 0.13895 0.91160
 H239 H 0.78883 0.10218 1.05485
 H240 H 0.80567 0.13394 1.10404
 H241 H 0.71357 0.17352 1.11427
 H242 H 0.69845 0.14078 1.06556
 C243 C 0.63731 0.04989 1.02942
 C244 C 0.81318 0.03594 0.97960
 C245 C 0.76092 0.15652 1.11253
 C246 C 0.71453 0.16951 0.93229
 C247 C 0.29625 0.58183 0.43188
 H248 H 0.28689 0.59863 0.41414
 C249 C 0.32446 0.56622 0.42460
 H250 H 0.33709 0.57147 0.40156
 C251 C 0.29367 0.55762 0.48600
 H252 H 0.28254 0.55582 0.51082
 C253 C 0.32141 0.54149 0.47969
 H254 H 0.33154 0.52742 0.49979
 N255 N 0.28228 0.57823 0.46290
 C256 C 0.18910 0.59880 0.49730
 H257 H 0.18812 0.62354 0.49716
 C258 C 0.16214 0.58380 0.50052
 H259 H 0.14072 0.59715 0.50402
 C260 C 0.21746 0.55128 0.48938
 H261 H 0.23863 0.53851 0.48341
 C262 C 0.19101 0.53534 0.49291
 H263 H 0.19223 0.51054 0.49049
 Zn264 Zn 0.25005 0.60518 0.47979
 N265 N 0.21606 0.58252 0.49134
 C266 C 0.24584 0.66325 0.44861
 N267 N 0.23668 0.63401 0.44690
 C268 C 0.21601 0.62528 0.42318
 C269 C 0.20444 0.64608 0.39913
 C270 C 0.23525 0.68468 0.42455
 C271 C 0.29493 0.62461 0.52659
 C272 C 0.30561 0.63923 0.55615
 C273 C 0.25410 0.65969 0.56779
 C274 C 0.24439 0.64459 0.53823
 N275 N 0.26458 0.62671 0.51879
 H276 H 0.26205 0.66970 0.46799
 H277 H 0.20879 0.60200 0.42271
 H278 H 0.18906 0.63843 0.37936
 H279 H 0.24435 0.70722 0.42457
 H280 H 0.31096 0.61144 0.51013
 H281 H 0.32951 0.63647 0.56298
 H282 H 0.23763 0.67299 0.58380
 H283 H 0.22067 0.64687 0.53118
 C284 C 0.16287 0.55181 0.49700
 C285 C 0.33787 0.54713 0.44971
 C286 C 0.28486 0.65658 0.57719
 C287 C 0.21471 0.67595 0.39905
 C288 C 0.72081 0.91846 0.46721
 H289 H 0.73088 0.90364 0.44701
 C290 C 0.69134 0.93184 0.46308
 H291 H 0.67860 0.92682 0.43998
 C292 C 0.72365 0.94065 0.52344
 H293 H 0.73599 0.94301 0.54736
 C294 C 0.69432 0.95441 0.52040
 H295 H 0.68392 0.96707 0.54221
 N296 N 0.73582 0.92219 0.49754
 C297 C 0.83417 0.91083 0.51429
 H298 H 0.83740 0.88634 0.51739
 C299 C 0.85960 0.92810 0.50943
 H300 H 0.88231 0.91697 0.51005
 C301 C 0.80087 0.95471 0.50596
 H302 H 0.77799 0.96483 0.50323
 C303 C 0.82574 0.97289 0.50123
 H304 H 0.82188 0.99700 0.49573
 Zn305 Zn 0.77211 0.89822 0.50732
 N306 N 0.80545 0.92410 0.51156
 C307 C 0.80344 0.87482 0.44741
 N308 N 0.78086 0.86991 0.47061
 C309 C 0.76264 0.84593 0.46667
 C310 C 0.76522 0.82714 0.43714
 C311 C 0.80700 0.85639 0.41767
 C312 C 0.73505 0.86760 0.55267
 C313 C 0.72763 0.84921 0.58022
 C314 C 0.78080 0.84651 0.59639
 C315 C 0.78720 0.86510 0.56864
 N316 N 0.76439 0.87535 0.54745
 H317 H 0.81724 0.89436 0.45050
 H318 H 0.74476 0.84261 0.48532
 H319 H 0.74873 0.80997 0.43264
 H320 H 0.82310 0.86221 0.39786
 H321 H 0.71729 0.87547 0.53519
 H322 H 0.70412 0.84378 0.58447
 H323 H 0.79909 0.83877 0.61333
 H324 H 0.81035 0.87122 0.56416
 C325 C 0.85541 0.95922 0.50164
 C326 C 0.67751 0.94908 0.49046
 C327 C 0.75074 0.83827 0.60226
 C328 C 0.78670 0.83330 0.41168
 C329 C -0.00652 0.29757 0.41272
 H330 H -0.01942 0.27811 0.41915
 C331 C -0.01260 0.32562 0.43030
 H332 H -0.03038 0.32772 0.44988
 C333 C 0.03098 0.31936 0.37806
 H334 H 0.04686 0.31742 0.35659
 C335 C 0.02608 0.34754 0.39538
 H336 H 0.03864 0.36690 0.38751
 N337 N 0.01426 0.29522 0.38635
 C338 C 0.00981 0.19844 0.36121
 H339 H 0.00161 0.20164 0.33519
 C340 C 0.01260 0.16910 0.37446
 H341 H 0.00522 0.15024 0.35859
 C342 C 0.02782 0.21971 0.41340
 H343 H 0.03414 0.23962 0.42820
 C344 C 0.03134 0.19036 0.42771
 H345 H 0.04060 0.18815 0.45343
 Zn346 Zn 0.01614 0.26036 0.35590
 N347 N 0.01777 0.22301 0.38040
 C348 C 0.05490 0.25622 0.29406
 N349 N 0.05292 0.25958 0.32908
 C350 C 0.07855 0.26165 0.34840
 C351 C 0.10717 0.26229 0.33263
 C352 C 0.08301 0.25786 0.27711
 C353 C -0.04523 0.25536 0.34923
 C354 C -0.07386 0.25328 0.33463
 C355 C -0.05285 0.26588 0.27946
 C356 C -0.02472 0.26968 0.29579
 N357 N -0.02091 0.26235 0.32967
 H358 H 0.03514 0.25160 0.27902
 H359 H 0.07663 0.26327 0.37624
 H360 H 0.12724 0.26431 0.34850
 H361 H 0.08400 0.25659 0.24917
 H362 H -0.04224 0.25054 0.37624
 H363 H -0.09277 0.24804 0.35119
 H364 H -0.05510 0.27005 0.25212
 H365 H -0.00640 0.27862 0.28120
 C366 C 0.02510 0.16421 0.40749
 C367 C 0.00301 0.35123 0.42061
 C368 C -0.07755 0.25617 0.29879
 C369 C 0.10962 0.26077 0.29650
 C370 C 0.02592 0.69355 0.10540
 H371 H 0.04127 0.69703 0.12659
 C372 C 0.02771 0.66551 0.08712
 H373 H 0.04355 0.64719 0.09530
 C374 C -0.01495 0.71182 0.07029
 H375 H -0.03163 0.72989 0.06382
 C376 C -0.01375 0.68436 0.05117
 H377 H -0.03043 0.68090 0.03116
 N378 N 0.00374 0.71544 0.09785
 C379 C -0.03310 0.80486 0.09235
 H380 H -0.05000 0.80476 0.11278
 C381 C -0.03598 0.82691 0.06668
 H382 H -0.05482 0.84407 0.06784
 C383 C 0.01293 0.78389 0.06673
 H384 H 0.03196 0.76701 0.06697
 C385 C 0.01093 0.80547 0.04068
 H386 H 0.02880 0.80556 0.02125
 Zn387 Zn -0.00377 0.75221 0.12468
 N388 N -0.00878 0.78401 0.09200
 C389 C 0.04428 0.78645 0.15048
 N390 N 0.02934 0.76021 0.15428
 C391 C 0.03812 0.73945 0.17850
 C392 C 0.06431 0.74338 0.19796
 C393 C 0.07077 0.79118 0.16922
 C394 C -0.06631 0.74758 0.13397
 C395 C -0.09420 0.74991 0.15122
 C396 C -0.06775 0.75079 0.20565
 C397 C -0.04008 0.74968 0.18707
 N398 N -0.03993 0.74918 0.15178
 H399 H 0.03661 0.80301 0.13165
 H400 H 0.02561 0.71901 0.18150
 H401 H 0.07260 0.72538 0.21491
 H402 H 0.08408 0.81065 0.16366
 H403 H -0.06587 0.74655 0.10612
 H404 H -0.11493 0.75017 0.13608
 H405 H -0.06731 0.75309 0.23354
 H406 H -0.01898 0.75068 0.20106
 C407 C -0.01373 0.82734 0.04048
 C408 C 0.00686 0.66043 0.06058
 C409 C -0.09538 0.75367 0.18752
 C410 C 0.08163 0.76879 0.19212
 C411 C 0.53689 0.19639 0.61395
 H412 H 0.55376 0.20055 0.63342
 C413 C 0.53881 0.16876 0.59490
 H414 H 0.55658 0.15139 0.60061
 C415 C 0.49186 0.21265 0.58436
 H416 H 0.47316 0.22957 0.58108
 C417 C 0.49302 0.18546 0.56463
 H418 H 0.47480 0.18116 0.54672
 N419 N 0.51283 0.21701 0.60949
 C420 C 0.47489 0.30360 0.60813
 H421 H 0.45561 0.29802 0.62373
 C422 C 0.47200 0.32862 0.58636
 H423 H 0.45088 0.34274 0.58620
 C424 C 0.52579 0.29224 0.58882
 H425 H 0.54665 0.27782 0.58992
 C426 C 0.52380 0.31697 0.56647
 H427 H 0.54338 0.32209 0.55086
 Zn428 Zn 0.50563 0.25218 0.63891
 N429 N 0.50176 0.28645 0.60965
 C430 C 0.55579 0.28001 0.67189
 N431 N 0.53770 0.25569 0.67115
 C432 C 0.54183 0.23249 0.69383
 C433 C 0.56625 0.23200 0.71677
 C434 C 0.58044 0.28054 0.69466
 C435 C 0.45406 0.22221 0.66225
 C436 C 0.42581 0.22014 0.67850
 C437 C 0.42969 0.27154 0.70174
 C438 C 0.45822 0.27244 0.68546
 N439 N 0.46907 0.24855 0.66481
 H440 H 0.55172 0.29857 0.65421
 H441 H 0.52678 0.21370 0.69309
 H442 H 0.57038 0.21249 0.73326
 H443 H 0.59575 0.29911 0.69377
 H444 H 0.46355 0.20301 0.64689
 H445 H 0.41342 0.19956 0.67497
 H446 H 0.42028 0.29141 0.71622
 H447 H 0.47103 0.29282 0.68783
 C448 C 0.49671 0.33555 0.56544
 C449 C 0.51604 0.16272 0.57086
 C450 C 0.41277 0.24553 0.69719
 C451 C 0.58617 0.25596 0.71685
 C452 C 0.51412 0.78594 0.91860
 H453 H 0.52916 0.76883 0.93033
 C454 C 0.50669 0.81347 0.93663
 H455 H 0.51430 0.81583 0.96300
 C456 C 0.48768 0.80401 0.86956
 H457 H 0.48002 0.80017 0.84343
 C458 C 0.48225 0.83283 0.88542
 H459 H 0.47181 0.85117 0.87043
 N460 N 0.50232 0.78073 0.88675
 C461 C 0.50344 0.67957 0.87835
 H462 H 0.50307 0.67805 0.85045
 C463 C 0.50251 0.65294 0.89756
 H464 H 0.50122 0.63102 0.88420
 C465 C 0.50394 0.71003 0.92952
 H466 H 0.50209 0.73199 0.94247
 C467 C 0.50494 0.68390 0.94963
 H468 H 0.50639 0.68648 0.97742
 Zn469 Zn 0.50430 0.74131 0.86384
 N470 N 0.50444 0.70751 0.89441
 C471 C 0.56253 0.71737 0.84066
 N472 N 0.53914 0.73832 0.83445
 C473 C 0.54122 0.75922 0.80909
 C474 C 0.56832 0.76082 0.79020
 C475 C 0.59007 0.71828 0.82251
 C476 C 0.44195 0.74495 0.85516
 C477 C 0.41419 0.74444 0.83803
 C478 C 0.44164 0.72974 0.78531
 C479 C 0.46903 0.73084 0.80345
 N480 N 0.46860 0.73875 0.83763
 H481 H 0.56061 0.70125 0.86121
 H482 H 0.52237 0.77572 0.80480
 H483 H 0.57058 0.77909 0.77204
 H484 H 0.60938 0.70322 0.82966
 H485 H 0.44240 0.75078 0.88243
 H486 H 0.39309 0.75004 0.85208
 H487 H 0.44199 0.72362 0.75807
 H488 H 0.49051 0.72531 0.79029
 C489 C 0.50333 0.65488 0.93379
 C490 C 0.48961 0.83734 0.92044
 C491 C 0.41394 0.73716 0.80265
 C492 C 0.59345 0.74095 0.79793
 C493 C -0.24088 0.65725 0.97744
 H494 H -0.24814 0.66846 1.00135
 C495 C -0.22772 0.67452 0.95215
 H496 H -0.22847 0.69919 0.95566
 C497 C -0.23181 0.61179 0.94388
 H498 H -0.23389 0.58738 0.94055
 C499 C -0.21617 0.62777 0.91921
 H500 H -0.20645 0.61532 0.89690
 N501 N -0.24490 0.62690 0.97170
 C502 C -0.29039 0.61891 1.06928
 H503 H -0.28317 0.59544 1.07483
 C504 C -0.29891 0.63934 1.09607
 H505 H -0.29749 0.63142 1.12238
 C506 C -0.29925 0.65796 1.02869
 H507 H -0.29999 0.66483 1.00205
 C508 C -0.30633 0.67980 1.05498
 H509 H -0.31041 0.70368 1.04850
 Zn510 Zn -0.26487 0.60359 1.00469
 N511 N -0.28744 0.62944 1.03687
 C512 C -0.21672 0.59041 1.05220
 N513 N -0.23262 0.57957 1.02492
 C514 C -0.22126 0.55532 1.00522
 C515 C -0.19221 0.54218 1.01126
 C516 C -0.18740 0.57782 1.05923
 C517 C -0.31464 0.58998 0.96336
 C518 C -0.34127 0.57470 0.95725
 C519 C -0.32214 0.53422 0.99437
 C520 C -0.29623 0.55040 1.00017
 N521 N -0.29322 0.57797 0.98523
 H522 H -0.22552 0.61045 1.06656
 H523 H -0.23367 0.54780 0.98287
 H524 H -0.18257 0.52455 0.99364
 H525 H -0.17386 0.58814 1.07916
 H526 H -0.31220 0.61254 0.95305
 H527 H -0.35938 0.58547 0.94206
 H528 H -0.32529 0.51349 1.00852
 H529 H -0.27995 0.54221 1.01914
 C530 C -0.30236 0.67098 1.08927
 C531 C -0.21563 0.65995 0.92203
 C532 C -0.34547 0.54699 0.97383
 C533 C -0.17448 0.55448 1.03737
 C534 C -0.20385 0.36112 0.56213
 H535 H -0.19178 0.35770 0.53779
 C536 C -0.19931 0.34087 0.58731
 H537 H -0.18497 0.32032 0.58201
 C538 C -0.23800 0.39333 0.59674
 H539 H -0.25414 0.41283 0.59995
 C540 C -0.23210 0.37302 0.62582
 H541 H -0.24392 0.37871 0.64999
 N542 N -0.22626 0.38628 0.56656
 C543 C -0.26688 0.39855 0.46503
 H544 H -0.27340 0.42274 0.46787
 C545 C -0.27529 0.38240 0.43551
 H546 H -0.28703 0.39449 0.41490
 C547 C -0.24351 0.35335 0.48813
 H548 H -0.23256 0.34151 0.50911
 C549 C -0.25046 0.33653 0.45843
 H550 H -0.24286 0.31254 0.45597
 Zn551 Zn -0.24173 0.40954 0.52940
 N552 N -0.25018 0.38423 0.49010
 C553 C -0.20655 0.44586 0.48590
 N554 N -0.21320 0.43883 0.51904
 C555 C -0.19662 0.44937 0.54590
 C556 C -0.17130 0.46648 0.53984
 C557 C -0.18184 0.46357 0.47874
 C558 C -0.30157 0.40649 0.54036
 C559 C -0.33229 0.41545 0.54055
 C560 C -0.31922 0.46775 0.55079
 C561 C -0.28821 0.45785 0.54778
 N562 N -0.28026 0.42763 0.54213
 H563 H -0.21957 0.43681 0.46485
 H564 H -0.20205 0.44309 0.57197
 H565 H -0.15718 0.47299 0.56132
 H566 H -0.17627 0.46831 0.45217
 H567 H -0.29461 0.38263 0.53549
 H568 H -0.34744 0.39791 0.53309
 H569 H -0.32477 0.49186 0.55586
 H570 H -0.27069 0.47430 0.54906
 C571 C -0.26549 0.35143 0.43128
 C572 C -0.21559 0.34618 0.62098
 C573 C -0.34226 0.44651 0.54620
 C574 C -0.16352 0.47356 0.50587
 C575 C 0.29013 -0.15204 0.02531
 H576 H 0.30420 -0.13841 0.00938
 C577 C 0.30326 -0.17006 0.04922
 H578 H 0.32771 -0.17028 0.05314
 C579 C 0.24049 -0.16885 0.03749
 H580 H 0.21616 -0.16802 0.03362
 C581 C 0.25390 -0.18864 0.06453
 H582 H 0.23847 -0.19978 0.08159
 N583 N 0.25742 -0.15037 0.02102
 C584 C 0.21539 -0.12655 -0.07646
 H585 H 0.20769 -0.10284 -0.07173
 C586 C 0.20680 -0.14180 -0.10658
 H587 H 0.19290 -0.12963 -0.12544
 C588 C 0.24265 -0.17147 -0.05740
 H589 H 0.25646 -0.18295 -0.03804
 C590 C 0.23484 -0.18748 -0.08727
 H591 H 0.24336 -0.21107 -0.09122
 Zn592 Zn 0.24035 -0.12109 -0.01054
 N593 N 0.23290 -0.14157 -0.05261
 C594 C 0.28401 -0.08822 -0.04724
 N595 N 0.26947 -0.09126 -0.01645
 C596 C 0.27827 -0.07612 0.01255
 C597 C 0.30361 -0.05825 0.01172
 C598 C 0.30948 -0.07044 -0.04923
 C599 C 0.19714 -0.07096 0.00689
 C600 C 0.16740 -0.05713 0.00614
 C601 C 0.14794 -0.10759 0.00177
 C602 C 0.17777 -0.12035 0.00251
 N603 N 0.20179 -0.10205 0.00366
 H604 H 0.27695 -0.10093 -0.06978
 H605 H 0.26667 -0.07948 0.03680
 H606 H 0.31147 -0.04767 0.03533
 H607 H 0.32199 -0.06940 -0.07334
 H608 H 0.21642 -0.05663 0.00710
 H609 H 0.16440 -0.03235 0.00603
 H610 H 0.12934 -0.12279 -0.00064
 H611 H 0.18169 -0.14482 -0.00129
 C612 C 0.21636 -0.17273 -0.11205
 C613 C 0.28388 -0.18789 0.07188
 C614 C 0.14246 -0.07553 0.00075
 C615 C 0.31981 -0.05587 -0.01927
 C616 C 0.24086 1.14772 0.46344
 H617 H 0.21784 1.14605 0.47315
 C618 C 0.24690 1.16932 0.43876
 H619 H 0.22832 1.18393 0.42882
 C620 C 0.29309 1.13021 0.46401
 H621 H 0.31103 1.11508 0.47422
 C622 C 0.30013 1.15152 0.43913
 H623 H 0.32330 1.15209 0.42938
 N624 N 0.26370 1.12834 0.47504
 C625 C 0.25291 1.14723 0.55897
 H626 H 0.27578 1.14913 0.54887
 C627 C 0.24233 1.16621 0.58636
 H628 H 0.25742 1.18215 0.59816
 C629 C 0.20570 1.12335 0.55688
 H630 H 0.19116 1.10718 0.54491
 C631 C 0.19439 1.14151 0.58473
 H632 H 0.17184 1.13821 0.59510
 Zn633 Zn 0.25240 1.10081 0.50910
 N634 N 0.23499 1.12562 0.54558
 C635 C 0.29955 1.07936 0.55537
 N636 N 0.28705 1.07659 0.52344
 C637 C 0.30014 1.05727 0.49890
 C638 C 0.32840 1.04212 0.50477
 C639 C 0.32798 1.06461 0.56235
 C640 C 0.21595 1.07350 0.45763
 C641 C 0.19287 1.05508 0.44608
 C642 C 0.18680 1.03790 0.50445
 C643 C 0.21077 1.05554 0.51451
 N644 N 0.22373 1.07402 0.49157
 H645 H 0.28849 1.09441 0.57473
 H646 H 0.28953 1.05530 0.47387
 H647 H 0.33986 1.02902 0.48393
 H648 H 0.33916 1.06913 0.58663
 H649 H 0.22726 1.08772 0.43961
 H650 H 0.18665 1.05529 0.41909
 H651 H 0.17497 1.02570 0.52402
 H652 H 0.21786 1.05596 0.54121
 C653 C 0.21306 1.16284 0.59993
 C654 C 0.27675 1.17117 0.42616
 C655 C 0.17730 1.03758 0.46984
 C656 C 0.34318 1.04687 0.53621
 C657 C 0.17188 0.46591 0.28564
 H658 H 0.15608 0.47509 0.30518
 C659 C 0.18968 0.43914 0.29217
 H660 H 0.18672 0.42746 0.31625
 C661 C 0.19451 0.46904 0.23023
 H662 H 0.19589 0.48061 0.20589
 C663 C 0.21278 0.44239 0.23569
 H664 H 0.22810 0.43333 0.21543
 N665 N 0.17347 0.47941 0.25436
 C666 C 0.16544 0.55843 0.19598
 H667 H 0.14946 0.54978 0.17753
 C668 C 0.18067 0.58502 0.18888
 H669 H 0.17558 0.59733 0.16545
 C670 C 0.18920 0.55496 0.25066
 H671 H 0.19179 0.54353 0.27505
 C672 C 0.20474 0.58136 0.24470
 H673 H 0.21857 0.59069 0.26501
 Zn674 Zn 0.14552 0.51208 0.24142
 N675 N 0.16902 0.54483 0.22711
 C676 C 0.11605 0.55572 0.28862
 N677 N 0.11937 0.52549 0.27908
 C678 C 0.10252 0.50437 0.29454
 C679 C 0.08354 0.51280 0.32264
 C680 C 0.09628 0.56536 0.31579
 C681 C 0.12549 0.47109 0.18872
 C682 C 0.10462 0.45995 0.16516
 C683 C 0.07088 0.50432 0.17808
 C684 C 0.09285 0.51503 0.20066
 N685 N 0.11945 0.49829 0.20583
 H686 H 0.12846 0.57245 0.27497
 H687 H 0.10430 0.48075 0.28542
 H688 H 0.07138 0.49541 0.33563
 H689 H 0.09370 0.58947 0.32299
 H690 H 0.14622 0.45750 0.19367
 H691 H 0.11013 0.43781 0.15287
 H692 H 0.05050 0.51890 0.17380
 H693 H 0.08844 0.53657 0.21460
 C694 C 0.19951 0.59742 0.21418
 C695 C 0.20983 0.42670 0.26662
 C696 C 0.07622 0.47608 0.15990
 C697 C 0.08081 0.54352 0.33416
 C698 C -0.16832 1.05067 0.29253
 H699 H -0.15421 1.03888 0.31138
 C700 C -0.18307 1.07893 0.30121
 H701 H -0.17957 1.08940 0.32636
 C702 C -0.18908 1.05244 0.23609
 H703 H -0.19082 1.04203 0.21063
 C704 C -0.20422 1.08062 0.24365
 H705 H -0.21728 1.09241 0.22378
 N706 N -0.17064 1.03877 0.25997
 C707 C -0.17588 0.96177 0.19788
 H708 H -0.15856 0.96775 0.17965
 C709 C -0.19466 0.93780 0.18981
 H710 H -0.19050 0.92437 0.16626
 C711 C -0.19986 0.96928 0.25267
 H712 H -0.20106 0.98106 0.27753
 C713 C -0.21932 0.94586 0.24552
 H714 H -0.23451 0.93875 0.26563
 Zn715 Zn -0.14857 1.00294 0.24545
 N716 N -0.17745 0.97539 0.22985
 C717 C -0.12679 0.95832 0.29505
 N718 N -0.12456 0.98676 0.28177
 C719 C -0.10205 1.00507 0.29162
 C720 C -0.08028 0.99495 0.31527
 C721 C -0.10518 0.94714 0.31897
 C722 C -0.11863 1.03965 0.19628
 C723 C -0.09944 1.04365 0.16790
 C724 C -0.08207 0.99028 0.17114
 C725 C -0.10161 0.98730 0.19918
 N726 N -0.12051 1.01136 0.21001
 H727 H -0.14473 0.94406 0.28652
 H728 H -0.10069 1.02742 0.28040
 H729 H -0.06254 1.00997 0.32281
 H730 H -0.10669 0.92436 0.32910
 H731 H -0.13310 1.05878 0.20605
 H732 H -0.10047 1.06542 0.15493
 H733 H -0.06939 0.97009 0.16073
 H734 H -0.10303 0.96527 0.21116
 C735 C -0.21504 0.92827 0.21497
 C736 C -0.20052 1.09439 0.27620
 C737 C -0.08189 1.01835 0.15412
 C738 C -0.08114 0.96539 0.32853
 C739 C 0.33744 0.53131 -0.21640
 H740 H 0.35019 0.52110 -0.19543
 C741 C 0.32435 0.56110 -0.21215
 H742 H 0.32675 0.57339 -0.18783
 C743 C 0.32097 0.52919 -0.27454
 H744 H 0.32086 0.51706 -0.29918
 C745 C 0.30780 0.55906 -0.27147
 H746 H 0.29712 0.56976 -0.29366
 N747 N 0.33604 0.51620 -0.24745
 C748 C 0.35598 0.41567 -0.26837
 H749 H 0.38064 0.41502 -0.27041
 C750 C 0.34162 0.38942 -0.26733
 H751 H 0.35506 0.36782 -0.26851
 C752 C 0.30933 0.44628 -0.26313
 H753 H 0.29698 0.46826 -0.25957
 C754 C 0.29249 0.41783 -0.26225
 H755 H 0.26778 0.41989 -0.26079
 Zn756 Zn 0.36168 0.48024 -0.25638
 N757 N 0.33905 0.44481 -0.26523
 C758 C 0.37013 0.46076 -0.18904
 N759 N 0.38510 0.47170 -0.21664
 C760 C 0.41533 0.47702 -0.21523
 C761 C 0.43136 0.47263 -0.18452
 C762 C 0.38531 0.45591 -0.15792
 C763 C 0.39924 0.51811 -0.29285
 C764 C 0.41587 0.52844 -0.32082
 C765 C 0.40907 0.48007 -0.35027
 C766 C 0.39205 0.47087 -0.32202
 N767 N 0.38747 0.48989 -0.29399
 H768 H 0.34609 0.45666 -0.19096
 H769 H 0.42679 0.48557 -0.23752
 H770 H 0.45506 0.47830 -0.18316
 H771 H 0.37291 0.44816 -0.13578
 H772 H 0.39484 0.53306 -0.27052
 H773 H 0.42399 0.55140 -0.32004
 H774 H 0.41225 0.46482 -0.37258
 H775 H 0.38204 0.44884 -0.32282
 C776 C 0.30787 0.39012 -0.26227
 C777 C 0.30993 0.57544 -0.24014
 C778 C 0.42110 0.50925 -0.34996
 C779 C 0.41622 0.46219 -0.15536
 C780 C 0.66948 -0.04519 -0.18382
 H781 H 0.65207 -0.03704 -0.16545
 C782 C 0.68669 -0.07070 -0.17754
 H783 H 0.68281 -0.08349 -0.15443
 C784 C 0.69604 -0.03695 -0.23655
 H785 H 0.69846 -0.02463 -0.26025
 C786 C 0.71545 -0.06491 -0.23081
 H787 H 0.73050 -0.07356 -0.25157
 N788 N 0.67339 -0.02943 -0.21563
 C789 C 0.66318 0.04804 -0.27567
 H790 H 0.64591 0.04014 -0.29298
 C791 C 0.67873 0.07414 -0.28367
 H792 H 0.67234 0.08700 -0.30637
 C793 C 0.69019 0.04293 -0.22309
 H794 H 0.69397 0.03103 -0.19915
 C795 C 0.70638 0.06858 -0.23013
 H796 H 0.72178 0.07706 -0.21083
 Zn797 Zn 0.64514 0.00160 -0.23000
 N798 N 0.66812 0.03407 -0.24497
 C799 C 0.61921 0.04265 -0.17737
 N800 N 0.61872 0.01437 -0.19286
 C801 C 0.59811 -0.00598 -0.18322
 C802 C 0.57687 0.00172 -0.15711
 C803 C 0.59832 0.05128 -0.15090
 C804 C 0.62776 -0.04073 -0.28263
 C805 C 0.61016 -0.05063 -0.31025
 C806 C 0.57681 -0.00503 -0.30235
 C807 C 0.59528 0.00424 -0.27522
 N808 N 0.62056 -0.01329 -0.26634
 H809 H 0.63559 0.05859 -0.18564
 H810 H 0.59810 -0.02820 -0.19611
 H811 H 0.56057 -0.01473 -0.14972
 H812 H 0.59871 0.07383 -0.13879
 H813 H 0.64769 -0.05455 -0.27504
 H814 H 0.61707 -0.07162 -0.32431
 H815 H 0.55760 0.00981 -0.31027
 H816 H 0.58988 0.02580 -0.26168
 C817 C 0.69957 0.08544 -0.25987
 C818 C 0.70960 -0.08236 -0.20365
 C819 C 0.58455 -0.03250 -0.32053
 C820 C 0.57659 0.03076 -0.14096
 C821 C 0.05177 0.26214 0.86803
 H822 H 0.04504 0.28114 0.88523
 C823 C 0.08042 0.26124 0.85195
 H824 H 0.09580 0.27929 0.85719
 C825 C 0.04082 0.21483 0.84099
 H826 H 0.02535 0.19664 0.83720
 C827 C 0.06926 0.21302 0.82443
 H828 H 0.07589 0.19326 0.80813
 N829 N 0.03300 0.23867 0.86313
 C830 C -0.06580 0.23049 0.87158
 H831 H -0.06857 0.22786 0.89902
 C832 C -0.09152 0.23137 0.85049
 H833 H -0.11391 0.22910 0.86183
 C834 C -0.03377 0.23828 0.82342
 H835 H -0.01139 0.24197 0.81304
 C836 C -0.05893 0.23910 0.80133
 H837 H -0.05572 0.24281 0.77403
 Zn838 Zn -0.00409 0.23802 0.88880
 N839 N -0.03761 0.23432 0.85796
 C840 C -0.03263 0.29589 0.90443
 N841 N -0.01056 0.27488 0.91451
 C842 C 0.00730 0.28018 0.94235
 C843 C 0.00391 0.30806 0.96065
 C844 C -0.03691 0.32392 0.92210
 C845 C -0.02343 0.20453 0.94572
 C846 C -0.02575 0.17838 0.96556
 C847 C 0.01858 0.15534 0.93564
 C848 C 0.02023 0.18200 0.91668
 N849 N -0.00182 0.20510 0.92036
 H850 H -0.04639 0.29132 0.88207
 H851 H 0.02470 0.26303 0.94970
 H852 H 0.01904 0.31266 0.98190
 H853 H -0.05394 0.34087 0.91326
 H854 H -0.03995 0.22369 0.94928
 H855 H -0.04489 0.17692 0.98314
 H856 H 0.03430 0.13584 0.92980
 H857 H 0.03804 0.18318 0.89755
 C858 C -0.08827 0.23638 0.81509
 C859 C 0.08952 0.23612 0.83054
 C860 C -0.00566 0.15277 0.95889
 C861 C -0.01832 0.33028 0.95033
 C862 C 0.47889 0.27683 0.18420
 H863 H 0.49852 0.29039 0.18802
 C864 C 0.45506 0.27900 0.20840
 H865 H 0.45762 0.29269 0.23170
 C866 C 0.45362 0.24007 0.15106
 H867 H 0.45327 0.22437 0.12921
 C868 C 0.42799 0.24400 0.17252
 H869 H 0.40805 0.23151 0.16627
 N870 N 0.47872 0.25601 0.15750
 C871 C 0.57790 0.24913 0.14218
 H872 H 0.58014 0.24912 0.11435
 C873 C 0.60391 0.25042 0.16278
 H874 H 0.62610 0.25148 0.15057
 C875 C 0.54664 0.24687 0.19191
 H876 H 0.52471 0.24371 0.20352
 C877 C 0.57172 0.24964 0.21343
 H878 H 0.56820 0.25079 0.24113
 Zn879 Zn 0.51399 0.25051 0.12849
 N880 N 0.54972 0.24861 0.15697
 C881 C 0.53528 0.30464 0.09670
 N882 N 0.51233 0.28507 0.09951
 C883 C 0.48488 0.29115 0.08413
 C884 C 0.47953 0.31760 0.06519
 C885 C 0.53070 0.33177 0.07837
 C886 C 0.53376 0.18991 0.10799
 C887 C 0.53206 0.16143 0.09116
 C888 C 0.48905 0.18211 0.05887
 C889 C 0.49179 0.21028 0.07595
 N890 N 0.51318 0.21348 0.10099
 H891 H 0.55657 0.30017 0.10997
 H892 H 0.46628 0.27652 0.08841
 H893 H 0.45710 0.32279 0.05451
 H894 H 0.54842 0.34804 0.07777
 H895 H 0.55068 0.19266 0.12778
 H896 H 0.54749 0.14240 0.09832
 H897 H 0.47068 0.17940 0.04068
 H898 H 0.47576 0.22900 0.07017
 C899 C 0.60089 0.25143 0.19899
 C900 C 0.42876 0.26283 0.20251
 C901 C 0.50867 0.15709 0.06734
 C902 C 0.50230 0.33860 0.06310
 C903 C -0.03138 0.76722 0.68715
 H904 H -0.00871 0.76838 0.69766
 C905 C -0.05526 0.76555 0.70854
 H906 H -0.05140 0.76434 0.73608
 C907 C -0.06295 0.76699 0.63717
 H908 H -0.06563 0.76700 0.60943
 C909 C -0.08984 0.76474 0.65965
 H910 H -0.11208 0.76361 0.64779
 N911 N -0.03577 0.76699 0.65036
 C912 C 0.05633 0.78409 0.64027
 H913 H 0.05287 0.80273 0.62266
 C914 C 0.08414 0.78035 0.65739
 H915 H 0.10186 0.79612 0.65286
 C916 C 0.03935 0.73873 0.66487
 H917 H 0.02200 0.72220 0.66689
 C918 C 0.06686 0.73409 0.68240
 H919 H 0.07097 0.71371 0.69752
 Zn920 Zn -0.00241 0.76538 0.61929
 N921 N 0.03458 0.76339 0.64427
 C922 C -0.00117 0.82839 0.60692
 N923 N -0.00606 0.80072 0.59186
 C924 C -0.01426 0.79840 0.55814
 C925 C -0.01613 0.82444 0.53774
 C926 C -0.00126 0.85469 0.58709
 C927 C 0.02138 0.72347 0.56834
 C928 C 0.02546 0.69495 0.55119
 C929 C -0.01938 0.67875 0.58070
 C930 C -0.02249 0.70737 0.59740
 N931 N -0.00198 0.72894 0.59142
 H932 H 0.00396 0.82983 0.63416
 H933 H -0.01936 0.77636 0.54707
 H934 H -0.02284 0.82233 0.51097
 H935 H 0.00445 0.87620 0.59911
 H936 H 0.03767 0.74080 0.56447
 H937 H 0.04493 0.69028 0.53416
 H938 H -0.03509 0.66134 0.58679
 H939 H -0.04037 0.71160 0.61646
 C940 C 0.08964 0.75487 0.67824
 C941 C -0.08651 0.76398 0.69422
 C942 C 0.00532 0.67205 0.55812
 C943 C -0.00797 0.85275 0.55174
 C944 C 0.52969 0.76056 0.31418
 H945 H 0.50793 0.76190 0.30148
 C946 C 0.55609 0.76360 0.29448
 H947 H 0.55436 0.76488 0.26667
 C948 C 0.55861 0.75785 0.36548
 H949 H 0.55946 0.75527 0.39317
 C950 C 0.58537 0.76224 0.34700
 H951 H 0.60679 0.76299 0.36069
 N952 N 0.53156 0.75601 0.34882
 C953 C 0.43434 0.75114 0.36686
 H954 H 0.43418 0.75902 0.39351
 C955 C 0.40707 0.75100 0.34867
 H956 H 0.38601 0.75852 0.36184
 C957 C 0.46151 0.73024 0.31817
 H958 H 0.48252 0.72024 0.30702
 C959 C 0.43492 0.73180 0.29813
 H960 H 0.43605 0.72465 0.27119
 Zn961 Zn 0.49732 0.74811 0.37725
 N962 N 0.46120 0.74251 0.35091
 C963 C 0.47911 0.80908 0.39616
 N964 N 0.49178 0.78231 0.40827
 C965 C 0.50434 0.78093 0.44034
 C966 C 0.50584 0.80752 0.46091
 C967 C 0.47991 0.83612 0.41598
 C968 C 0.48389 0.70673 0.42781
 C969 C 0.48576 0.67918 0.44537
 C970 C 0.53186 0.66430 0.41317
 C971 C 0.52919 0.69226 0.39626
 N972 N 0.50501 0.71242 0.40322
 H973 H 0.46988 0.80973 0.37034
 H974 H 0.51508 0.75962 0.44908
 H975 H 0.51781 0.80657 0.48527
 H976 H 0.47147 0.85764 0.40520
 H977 H 0.46484 0.72311 0.43271
 H978 H 0.46768 0.67397 0.46313
 H979 H 0.54982 0.64736 0.40566
 H980 H 0.54540 0.69699 0.37620
 C981 C 0.40752 0.74405 0.31297
 C982 C 0.58446 0.76441 0.31087
 C983 C 0.50941 0.65730 0.43722
 C984 C 0.49440 0.83561 0.44819
 B985 B -0.03634 -0.00274 1.01225
 B986 B -0.05500 -0.00104 0.97491
 B987 B -0.02558 0.02126 0.97974
 B988 B 0.00131 0.00179 1.00378
 B989 B -0.01130 -0.03326 1.01184
 B990 B -0.04617 -0.03537 0.99349
 B991 B -0.00469 -0.02836 0.94149
 B992 B 0.01408 -0.02940 0.97927
 B993 B -0.01558 -0.05223 0.97387
 B994 B -0.04250 -0.03223 0.95019
 B995 B -0.02933 0.00242 0.94201
 B996 B 0.00543 0.00464 0.96062
 B997 B 0.48290 0.51496 0.51854
 B998 B 0.46617 0.50750 0.48045
 B999 B 0.49701 0.52836 0.48022
 B1000 B 0.52097 0.51465 0.51125
 B1001 B 0.50514 0.48434 0.52918
 B1002 B 0.47079 0.47973 0.50988
 B1003 B 0.51600 0.47016 0.46086
 B1004 B 0.53264 0.47840 0.49913
 B1005 B 0.50125 0.45680 0.49833
 B1006 B 0.47746 0.47096 0.46778
 B1007 B 0.49389 0.50099 0.44985
 B1008 B 0.52796 0.50570 0.46898
 B1009 B 0.52493 0.97631 0.54450
 B1010 B 0.54436 0.98287 0.50797
 B1011 B 0.51442 0.96056 0.50534
 B1012 B 0.48742 0.97511 0.53419
 B1013 B 0.50097 1.00666 0.55336
 B1014 B 0.53615 1.01192 0.53685
 B1015 B 0.49508 1.01698 0.48371
 B1016 B 0.47574 1.01064 0.52037
 B1017 B 0.50560 1.03280 0.52293
 B1018 B 0.53256 1.01835 0.49410
 B1019 B 0.51914 0.98668 0.47493
 B1020 B 0.48388 0.98151 0.49150
 B1021 B 0.00234 0.47444 1.04148
 B1022 B 0.02196 0.47787 1.00388
 B1023 B -0.01060 0.45816 1.00418
 B1024 B -0.03557 0.47625 1.03177
 B1025 B -0.01892 0.50703 1.04873
 B1026 B 0.01668 0.50826 1.03174
 B1027 B -0.02468 0.51483 0.97880
 B1028 B -0.04436 0.51160 1.01598
 B1029 B -0.01255 0.53114 1.01706
 B1030 B 0.01294 0.51340 0.98865
 B1031 B -0.00328 0.48225 0.97164
 B1032 B -0.03902 0.48107 0.98883
 B1033 B 0.01376 0.53281 0.46193
 B1034 B 0.03669 0.51415 0.49017
 B1035 B 0.01115 0.54297 0.50463
 B1036 B -0.02099 0.54059 0.48112
 B1037 B -0.01596 0.51051 0.45342
 B1038 B 0.01967 0.49432 0.45856
 B1039 B -0.01178 0.48810 0.51863
 B1040 B -0.03551 0.50678 0.49055
 B1041 B -0.01025 0.47809 0.47621
 B1042 B 0.02239 0.48034 0.49898
 B1043 B 0.01709 0.51055 0.52691
 B1044 B -0.01865 0.52642 0.52204
 B1045 B 0.49554 0.01924 -0.02672
 B1046 B 0.51445 0.00429 0.00778
 B1047 B 0.48535 0.03130 0.01414
 B1048 B 0.45836 0.02504 -0.01582
 B1049 B 0.47044 -0.00638 -0.04028
 B1050 B 0.50524 -0.01849 -0.02588
 B1051 B 0.46405 -0.02435 0.02674
 B1052 B 0.44502 -0.01004 -0.00796
 B1053 B 0.47430 -0.03672 -0.01419
 B1054 B 0.50141 -0.02995 0.01576
 B1055 B 0.48911 0.00086 0.03997
 B1056 B 0.45397 0.01354 0.02501
 B1057 B 0.47943 0.48386 -0.02237
 B1058 B 0.45998 0.49467 0.01432
 B1059 B 0.48734 0.46596 0.01574
 B1060 B 0.51573 0.47471 -0.01159
 B1061 B 0.50605 0.50902 -0.02917
 B1062 B 0.47146 0.52152 -0.01284
 B1063 B 0.51188 0.51721 0.04125
 B1064 B 0.53070 0.50660 0.00397
 B1065 B 0.50334 0.53547 0.00356
 B1066 B 0.47506 0.52660 0.03044
 B1067 B 0.48483 0.49231 0.04798
 B1068 B 0.51956 0.47977 0.03160
 B1069 B -0.00123 0.98238 0.43836
 B1070 B -0.02247 0.99981 0.47066
 B1071 B 0.00371 0.97030 0.47870
 B1072 B 0.03435 0.97388 0.45323
 B1073 B 0.02733 1.00500 0.42900
 B1074 B -0.00795 1.02098 0.43943
 B1075 B 0.02868 1.02446 0.49627
 B1076 B 0.04969 1.00690 0.46394
 B1077 B 0.02339 1.03640 0.45497
 B1078 B -0.00710 1.03310 0.48152
 B1079 B 0.00007 1.00141 0.50560
 B1080 B 0.03497 0.98581 0.49526
 B1081 B 0.76735 0.23811 0.23546
 B1082 B 0.76532 0.22680 0.27688
 B1083 B 0.79093 0.25237 0.26606
 B1084 B 0.77416 0.27586 0.23561
 B1085 B 0.73847 0.26415 0.22883
 B1086 B 0.73318 0.23394 0.25464
 B1087 B 0.74289 0.28402 0.29642
 B1088 B 0.74328 0.29472 0.25533
 B1089 B 0.71855 0.26854 0.26632
 B1090 B 0.73545 0.24620 0.29639
 B1091 B 0.77123 0.25748 0.30311
 B1092 B 0.77666 0.28755 0.27715
 B1093 B 0.74557 0.77023 0.73230
 B1094 B 0.74692 0.78795 0.77120
 B1095 B 0.72440 0.75845 0.76693
 B1096 B 0.74242 0.73233 0.73902
 B1097 B 0.77636 0.74593 0.72767
 B1098 B 0.77940 0.78046 0.74800
 B1099 B 0.77631 0.73701 0.79784
 B1100 B 0.77522 0.71944 0.75872
 B1101 B 0.79761 0.74918 0.76374
 B1102 B 0.77949 0.77505 0.79110
 B1103 B 0.74572 0.76123 0.80249
 B1104 B 0.74253 0.72687 0.78198
 B1105 B 0.27371 0.24785 0.78859
 B1106 B 0.25869 0.26838 0.75549
 B1107 B 0.28439 0.23820 0.74733
 B1108 B 0.27786 0.21062 0.77593
 B1109 B 0.24771 0.22333 0.80124
 B1110 B 0.23623 0.25895 0.78898
 B1111 B 0.22782 0.21939 0.73431
 B1112 B 0.24222 0.19877 0.76802
 B1113 B 0.21693 0.22868 0.77582
 B1114 B 0.22368 0.25673 0.74758
 B1115 B 0.25351 0.24404 0.72220
 B1116 B 0.26520 0.20778 0.73494
 B1117 B 0.22833 0.74589 0.27166
 B1118 B 0.23557 0.72668 0.23411
 B1119 B 0.21248 0.75843 0.23339
 B1120 B 0.22570 0.78410 0.26309
 B1121 B 0.25754 0.76746 0.28075
 B1122 B 0.26418 0.73202 0.26249
 B1123 B 0.26771 0.77434 0.21126
 B1124 B 0.26099 0.79318 0.24868
 B1125 B 0.28394 0.76138 0.24972
 B1126 B 0.27087 0.73601 0.21983
 B1127 B 0.23883 0.75243 0.20233
 B1128 B 0.23207 0.78779 0.22038
 B1129 B 0.27563 0.71803 0.70777
 B1130 B 0.26811 0.70562 0.74785
 B1131 B 0.28914 0.73685 0.74283
 B1132 B 0.27447 0.75664 0.70925
 B1133 B 0.24462 0.73830 0.69351
 B1134 B 0.24061 0.70642 0.71773
 B1135 B 0.23117 0.75652 0.76031
 B1136 B 0.23849 0.76902 0.71994
 B1137 B 0.21778 0.73790 0.72457
 B1138 B 0.23202 0.71792 0.75839
 B1139 B 0.26238 0.73644 0.77443
 B1140 B 0.26619 0.76829 0.75041
 B1141 B 0.26597 0.28141 0.23087
 B1142 B 0.26045 0.29729 0.27071
 B1143 B 0.23895 0.26821 0.25771
 B1144 B 0.26153 0.24321 0.23358
 B1145 B 0.29677 0.25637 0.23144
 B1146 B 0.29605 0.29003 0.25441
 B1147 B 0.28386 0.24502 0.29943
 B1148 B 0.28931 0.22865 0.26007
 B1149 B 0.31109 0.25798 0.27167
 B1150 B 0.28857 0.28289 0.29626
 B1151 B 0.25287 0.26954 0.29845
 B1152 B 0.25340 0.23609 0.27527
 B1153 B 0.75742 0.78301 0.27314
 B1154 B 0.75369 0.79848 0.23437
 B1155 B 0.77933 0.76928 0.23793
 B1156 B 0.76518 0.74473 0.26735
 B1157 B 0.72967 0.75892 0.27950
 B1158 B 0.72231 0.79222 0.25852
 B1159 B 0.72951 0.74554 0.21008
 B1160 B 0.73322 0.73064 0.24917
 B1161 B 0.70733 0.76025 0.24409
 B1162 B 0.72207 0.78442 0.21537
 B1163 B 0.75686 0.76978 0.20351
 B1164 B 0.76460 0.73699 0.22481
 B1165 B 0.73850 0.22719 0.79771
 B1166 B 0.73633 0.21196 0.75806
 B1167 B 0.71383 0.24345 0.76760
 B1168 B 0.73354 0.26602 0.79472
 B1169 B 0.76882 0.24884 0.80025
 B1170 B 0.77073 0.21556 0.77719
 B1171 B 0.76282 0.26133 0.73157
 B1172 B 0.76347 0.27769 0.77218
 B1173 B 0.78690 0.24661 0.76154
 B1174 B 0.76731 0.22291 0.73495
 B1175 B 0.73224 0.24008 0.72907
 B1176 B 0.72988 0.27378 0.75213
 C1177 C 0.44717 1.02261 0.44433
 C1178 C 0.43243 1.02404 0.41301
 C1179 C 0.44785 1.03152 0.38332
 C1180 C 0.47813 1.04078 0.38592
 C1181 C 0.49313 1.04093 0.41867
 C1182 C 0.47808 1.02986 0.44853
 C1183 C 0.52266 1.05189 0.41967
 N1184 N 0.53638 1.06074 0.39032
 N1185 N 0.52261 1.05962 0.35983
 C1186 C 0.49394 1.04997 0.35665
 H1187 H 0.43422 1.01272 0.46445
 H1188 H 0.40919 1.01683 0.41151
 H1189 H 0.53479 1.05461 0.44333
 H1190 H 0.48358 1.04989 0.33137
 C1191 C -0.07079 0.52227 0.93718
 C1192 C -0.08320 0.51896 0.90464
 C1193 C -0.06538 0.51990 0.87456
 C1194 C -0.03441 0.52795 0.87830
 C1195 C -0.02221 0.53333 0.91207
 C1196 C -0.03964 0.52735 0.94230
 C1197 C 0.00750 0.54364 0.91416
 N1198 N 0.02490 0.54536 0.88533
 N1199 N 0.01465 0.53739 0.85438
 C1200 C -0.01416 0.52843 0.84993
 H1201 H -0.08571 0.51739 0.95826
 H1202 H -0.10721 0.51437 0.90323
 H1203 H 0.01686 0.55117 0.93818
 H1204 H -0.02048 0.52120 0.82431
 C1205 C 0.04259 -0.02069 0.90172
 C1206 C 0.05954 -0.02118 0.87158
 C1207 C 0.04945 -0.03528 0.84162
 C1208 C 0.02161 -0.05029 0.84278
 C1209 C 0.00379 -0.04985 0.87402
 C1210 C 0.01394 -0.03413 0.90432
 C1211 C -0.02311 -0.06579 0.87353
 N1212 N -0.03166 -0.08074 0.84444
 N1213 N -0.01503 -0.08109 0.81557
 C1214 C 0.01135 -0.06651 0.81380
 H1215 H 0.05279 -0.00908 0.92325
 H1216 H 0.08080 -0.00965 0.87160
 H1217 H -0.03721 -0.06721 0.89587
 H1218 H 0.02425 -0.06812 0.78989
 C1219 C 0.56597 0.44839 0.42992
 C1220 C 0.58554 0.45287 0.40220
 C1221 C 0.57395 0.46185 0.37028
 C1222 C 0.54216 0.46092 0.36474
 C1223 C 0.52210 0.45619 0.39298
 C1224 C 0.53406 0.45390 0.42732
 C1225 C 0.49075 0.45467 0.38558
 N1226 N 0.48049 0.45831 0.35290
 N1227 N 0.49932 0.46318 0.32680
 C1228 C 0.52978 0.46454 0.33157
 H1229 H 0.57671 0.44385 0.45411
 H1230 H 0.60996 0.45180 0.40661
 H1231 H 0.47420 0.44980 0.40496
 H1232 H 0.54411 0.46777 0.30926
 C1233 C 0.56123 0.51891 0.07824
 C1234 C 0.57900 0.52416 0.10690
 C1235 C 0.56631 0.53757 0.13683
 C1236 C 0.53485 0.54684 0.13733
 C1237 C 0.51616 0.54146 0.10778
 C1238 C 0.52983 0.52830 0.07645
 C1239 C 0.48444 0.54800 0.11217
 N1240 N 0.47304 0.56097 0.14200
 N1241 N 0.49089 0.56745 0.16846
 C1242 C 0.52137 0.56075 0.16716
 H1243 H 0.57256 0.50490 0.05840
 H1244 H 0.60267 0.51546 0.10647
 H1245 H 0.46809 0.54291 0.09290
 H1246 H 0.53482 0.56627 0.18953
 C1247 C 0.02706 1.03834 0.56207
 C1248 C 0.04268 1.03763 0.59324
 C1249 C 0.07391 1.04199 0.59410
 C1250 C 0.08821 1.05259 0.56427
 C1251 C 0.07222 1.05346 0.53243
 C1252 C 0.04251 1.04185 0.53030
 C1253 C 0.08612 1.06739 0.50472
 N1254 N 0.11431 1.07834 0.50807
 N1255 N 0.12976 1.07617 0.53745
 C1256 C 0.11778 1.06336 0.56563
 H1257 H 0.00332 1.03290 0.56302
 H1258 H 0.03077 1.03116 0.61634
 H1259 H 0.07458 1.07061 0.48080
 H1260 H 0.13089 1.06288 0.58919
 C1261 C -0.05329 0.45880 0.55095
 C1262 C -0.06998 0.45683 0.58156
 C1263 C -0.05763 0.46534 0.61358
 C1264 C -0.02620 0.47184 0.61464
 C1265 C -0.00852 0.46955 0.58382
 C1266 C -0.02343 0.46864 0.55122
 C1267 C 0.02349 0.46894 0.58690
 N1268 N 0.03631 0.47588 0.61760
 N1269 N 0.01924 0.48288 0.64548
 C1270 C -0.01157 0.48152 0.64496
 H1271 H -0.06444 0.45395 0.52694
 H1272 H -0.09336 0.45015 0.57994
 H1273 H 0.03839 0.46303 0.56519
 H1274 H -0.02403 0.48837 0.66818
 C1275 C 0.41770 -0.02751 0.06850
 C1276 C 0.40562 -0.02972 0.10135
 C1277 C 0.42244 -0.04413 0.12728
 C1278 C 0.45052 -0.06008 0.11858
 C1279 C 0.46245 -0.05914 0.08421
 C1280 C 0.44713 -0.04029 0.05923
 C1281 C 0.48927 -0.07720 0.07653
 N1282 N 0.50377 -0.09357 0.10154
 N1283 N 0.49315 -0.09342 0.13382
 C1284 C 0.46698 -0.07730 0.14317
 H1285 H 0.40457 -0.01262 0.05161
 H1286 H 0.38392 -0.01755 0.10732
 H1287 H 0.49820 -0.07966 0.05074
 H1288 H 0.45895 -0.07855 0.16954
 C1289 C 0.41624 0.45823 0.00397
 C1290 C 0.38652 0.44957 0.00126
 C1291 C 0.36216 0.46939 0.01157
 C1292 C 0.36784 0.49858 0.02556
 C1293 C 0.39849 0.50798 0.02851
 C1294 C 0.42359 0.48744 0.01688
 C1295 C 0.40203 0.53749 0.04303
 N1296 N 0.37734 0.55570 0.05310
 N1297 N 0.34902 0.54675 0.04987
 C1298 C 0.34344 0.51882 0.03646
 H1299 H 0.43346 0.44174 -0.00601
 H1300 H 0.38246 0.42698 -0.00928
 H1301 H 0.42360 0.54682 0.04727
 H1302 H 0.31995 0.51269 0.03439
 C1303 C -0.06881 0.99342 0.51184
 C1304 C -0.09684 0.98179 0.51928
 C1305 C -0.11766 0.97667 0.49313
 C1306 C -0.11165 0.98733 0.45960
 C1307 C -0.08298 0.99974 0.45215
 C1308 C -0.05935 0.99811 0.47758
 C1309 C -0.07970 1.01334 0.41976
 N1310 N -0.10230 1.01241 0.39609
 N1311 N -0.12804 0.99873 0.40232
 C1312 C -0.13336 0.98589 0.43312
 H1313 H -0.05417 0.99761 0.53350
 H1314 H -0.10195 0.97587 0.54564
 H1315 H -0.06003 1.02528 0.41277
 H1316 H -0.15475 0.97525 0.43671
 C1317 C -0.11176 -0.00239 0.95480
 C1318 C -0.14315 0.00556 0.95532
 C1319 C -0.15506 0.03055 0.97520
 C1320 C -0.13482 0.04922 0.99304
 C1321 C -0.10304 0.04050 0.99447
 C1322 C -0.09084 0.01363 0.97497
 C1323 C -0.08561 0.05914 1.01621
 N1324 N -0.09799 0.08480 1.03220
 N1325 N -0.12719 0.09363 1.02878
 C1326 C -0.14599 0.07677 1.00982
 H1327 H -0.10409 -0.02237 0.93942
 H1328 H -0.15836 -0.00861 0.94095
 H1329 H -0.06246 0.05405 1.02203
 H1330 H -0.16955 0.08523 1.00797
 C1331 C 0.41295 0.50200 0.45253
 C1332 C 0.38312 0.51098 0.44358
 C1333 C 0.37124 0.54067 0.45076
 C1334 C 0.38984 0.56215 0.46666
 C1335 C 0.41973 0.55286 0.47790
 C1336 C 0.43198 0.52192 0.47040
 C1337 C 0.43507 0.57491 0.49744
 N1338 N 0.42271 0.60373 0.50286
 N1339 N 0.39539 0.61246 0.49088
 C1340 C 0.37847 0.59265 0.47325
 H1341 H 0.42053 0.47856 0.44615
 H1342 H 0.36877 0.49421 0.43204
 H1343 H 0.45642 0.57012 0.50945
 H1344 H 0.35622 0.60106 0.46474
 C1345 C 0.08460 0.53077 0.52202
 C1346 C 0.11407 0.54043 0.52374
 C1347 C 0.13389 0.53626 0.49561
 C1348 C 0.12473 0.51939 0.46615
 C1349 C 0.09525 0.50731 0.46540
 C1350 C 0.07357 0.51616 0.49228
 C1351 C 0.08913 0.48730 0.43753
 N1352 N 0.10907 0.48323 0.41072
 N1353 N 0.13516 0.49724 0.40996
 C1354 C 0.14370 0.51513 0.43673
 H1355 H 0.07007 0.53633 0.54394
 H1356 H 0.12096 0.55280 0.54669
 H1357 H 0.06991 0.47333 0.43711
 H1358 H 0.16512 0.52595 0.43446
 C1359 C 0.55531 0.03150 0.04352
 C1360 C 0.58377 0.04361 0.04752
 C1361 C 0.60815 0.03445 0.02553
 C1362 C 0.60421 0.01087 0.00050
 C1363 C 0.57597 -0.00358 -0.00135
 C1364 C 0.54996 0.00952 0.01749
 C1365 C 0.57536 -0.03046 -0.02211
 N1366 N 0.59924 -0.03909 -0.04321
 N1367 N 0.62412 -0.02313 -0.04451
 C1368 C 0.62742 0.00156 -0.02343
 H1369 H 0.53722 0.04017 0.06070
 H1370 H 0.58655 0.06100 0.06745
 H1371 H 0.55715 -0.04578 -0.02069
 H1372 H 0.64814 0.01359 -0.02576
 C1373 C 0.60001 0.99076 0.48735
 C1374 C 0.63115 0.98349 0.48272
 C1375 C 0.64395 0.95489 0.49168
 C1376 C 0.62510 0.93280 0.50508
 C1377 C 0.59342 0.94020 0.51121
 C1378 C 0.58021 0.97006 0.50203
 C1379 C 0.57703 0.91740 0.52733
 N1380 N 0.59056 0.88971 0.53477
 N1381 N 0.61985 0.88281 0.52787
 C1382 C 0.63760 0.90341 0.51350
 H1383 H 0.59180 1.01346 0.47992
 H1384 H 0.64553 1.00061 0.47258
 H1385 H 0.55388 0.92084 0.53529
 H1386 H 0.66138 0.89654 0.50896
 C1387 C 0.07984 0.48545 0.99098
 C1388 C 0.11001 0.47619 0.98211
 C1389 C 0.11813 0.44551 0.97357
 C1390 C 0.09487 0.42447 0.97224
 C1391 C 0.06609 0.43251 0.98761
 C1392 C 0.05693 0.46409 0.99452
 C1393 C 0.04992 0.40795 0.99926
 N1394 N 0.05740 0.37882 0.98806
 N1395 N 0.08140 0.37237 0.96747
 C1396 C 0.10065 0.39431 0.95931
 H1397 H 0.07499 0.50959 0.99674
 H1398 H 0.12731 0.49290 0.98344
 H1399 H 0.03335 0.41130 1.01956
 H1400 H 0.12106 0.38790 0.94437
 C1401 C -0.00858 0.41900 0.48198
 C1402 C -0.00387 0.38907 0.46915
 C1403 C -0.00654 0.38245 0.43400
 C1404 C -0.01729 0.40590 0.41175
 C1405 C -0.02219 0.43668 0.42447
 C1406 C -0.01598 0.44384 0.46022
 C1407 C -0.03379 0.45850 0.40065
 N1408 N -0.03905 0.45031 0.36740
 N1409 N -0.03408 0.42163 0.35581
 C1410 C -0.02372 0.39915 0.37687
 H1411 H -0.00395 0.42269 0.50905
 H1412 H 0.00362 0.37116 0.48663
 H1413 H -0.04096 0.48151 0.40777
 H1414 H -0.02124 0.37609 0.36617
 C1415 C 0.49850 -0.09225 -0.02249
 C1416 C 0.50286 -0.12124 -0.03773
 C1417 C 0.48176 -0.13256 -0.06099
 C1418 C 0.45536 -0.11348 -0.06833
 C1419 C 0.45362 -0.08197 -0.05758
 C1420 C 0.47414 -0.07145 -0.03162
 C1421 C 0.43178 -0.06271 -0.07441
 N1422 N 0.40974 -0.07484 -0.09394
 N1423 N 0.40858 -0.10494 -0.09896
 C1424 C 0.43055 -0.12470 -0.08661
 H1425 H 0.51618 -0.08577 -0.00499
 H1426 H 0.52369 -0.13446 -0.03172
 H1427 H 0.43159 -0.03825 -0.07264
 H1428 H 0.42855 -0.14897 -0.09139
 C1429 C 0.01061 -0.10016 1.00270
 C1430 C 0.01094 -0.12788 1.01920
 C1431 C -0.01346 -0.14659 1.01649
 C1432 C -0.03750 -0.13844 0.99369
 C1433 C -0.03770 -0.11012 0.97563
 C1434 C -0.01359 -0.08951 0.98118
 C1435 C -0.06263 -0.10363 0.95368
 N1436 N -0.08504 -0.12358 0.95006
 N1437 N -0.08455 -0.14982 0.96687
 C1438 C -0.06154 -0.15792 0.98852
 H1439 H 0.02855 -0.08594 1.01055
 H1440 H 0.02951 -0.13355 1.03672
 H1441 H -0.06480 -0.08343 0.93875
 H1442 H -0.06209 -0.17969 1.00124
 C1443 C 0.49726 0.41942 0.54970
 C1444 C 0.49627 0.39143 0.56553
 C1445 C 0.49550 0.36441 0.54617
 C1446 C 0.49416 0.36569 0.50980
 C1447 C 0.49459 0.39453 0.49311
 C1448 C 0.49753 0.42218 0.51325
 C1449 C 0.49287 0.39412 0.45691
 N1450 N 0.49100 0.36730 0.43898
 N1451 N 0.49070 0.34054 0.45472
 C1452 C 0.49221 0.33883 0.48952
 H1453 H 0.49844 0.43886 0.56719
 H1454 H 0.49692 0.39083 0.59349
 H1455 H 0.49281 0.41458 0.44249
 H1456 H 0.49167 0.31652 0.50103
 C1457 C 0.52315 1.08849 0.51891
 C1458 C 0.52651 1.11876 0.52976
 C1459 C 0.51173 1.13070 0.55943
 C1460 C 0.49277 1.11209 0.57851
 C1461 C 0.48871 1.08119 0.56763
 C1462 C 0.50472 1.06869 0.53708
 C1463 C 0.46858 1.06477 0.58818
 N1464 N 0.45476 1.07777 0.61667
 N1465 N 0.45926 1.10634 0.62676
 C1466 C 0.47775 1.12389 0.60874
 H1467 H 0.53571 1.08057 0.49606
 H1468 H 0.54107 1.13293 0.51499
 H1469 H 0.46260 1.04201 0.58264
 H1470 H 0.48045 1.14696 0.61839
 C1471 C 0.00957 0.58471 1.01164
 C1472 C 0.01515 0.61474 1.02153
 C1473 C 0.00048 0.62868 1.05022
 C1474 C -0.02068 0.61251 1.06923
 C1475 C -0.02670 0.58175 1.05964
 C1476 C -0.01103 0.56720 1.02984
 C1477 C -0.04809 0.56754 1.08087
 N1478 N -0.06184 0.58262 1.10817
 N1479 N -0.05599 0.61123 1.11662
 C1480 C -0.03592 0.62664 1.09819
 H1481 H 0.02237 0.57503 0.98976
 H1482 H 0.03137 0.62711 1.00683
 H1483 H -0.05500 0.54490 1.07706
 H1484 H -0.03214 0.64985 1.10657
 C1485 C 0.52504 0.57449 -0.03854
 C1486 C 0.52378 0.60191 -0.05603
 C1487 C 0.50393 0.62652 -0.04538
 C1488 C 0.48642 0.62372 -0.01475
 C1489 C 0.49066 0.59699 0.00547
 C1490 C 0.50813 0.57074 -0.00793
 C1491 C 0.47712 0.59783 0.03840
 N1492 N 0.45730 0.62138 0.04826
 N1493 N 0.45040 0.64454 0.02744
 C1494 C 0.46413 0.64643 -0.00380
 H1495 H 0.53893 0.55572 -0.05017
 H1496 H 0.53789 0.60347 -0.07892
 H1497 H 0.48306 0.58072 0.05682
 H1498 H 0.45724 0.66553 -0.01977
 C1499 C 0.02263 1.09587 0.46343
 C1500 C 0.02350 1.12640 0.45341
 C1501 C 0.03067 1.13370 0.41934
 C1502 C 0.04033 1.10924 0.39637
 C1503 C 0.03540 1.07832 0.40467
 C1504 C 0.02804 1.07091 0.43988
 C1505 C 0.03837 1.05683 0.37670
 N1506 N 0.05112 1.06445 0.34634
 N1507 N 0.06038 1.09239 0.34111
 C1508 C 0.05559 1.11498 0.36519
 H1509 H 0.01652 1.09192 0.49002
 H1510 H 0.01664 1.14426 0.47215
 H1511 H 0.03018 1.03444 0.37711
 H1512 H 0.06346 1.13741 0.35967
 C1513 C 0.77548 0.68686 0.83224
 C1514 C 0.77820 0.66817 0.86019
 C1515 C 0.79067 0.67828 0.89098
 C1516 C 0.80246 0.70788 0.89228
 C1517 C 0.79724 0.72844 0.86440
 C1518 C 0.78459 0.71746 0.83274
 C1519 C 0.80369 0.75924 0.87060
 N1520 N 0.81830 0.76761 0.89978
 N1521 N 0.82624 0.74746 0.92385
 C1522 C 0.81879 0.71787 0.92108
 H1523 H 0.76408 0.67684 0.81057
 H1524 H 0.76814 0.64614 0.85802
 H1525 H 0.79646 0.77716 0.85364
 H1526 H 0.82548 0.70239 0.94148
 C1527 C 0.27029 0.19830 0.33594
 C1528 C 0.26807 0.18134 0.36537
 C1529 C 0.28201 0.19013 0.39578
 C1530 C 0.29995 0.21605 0.39607
 C1531 C 0.30292 0.23342 0.36549
 C1532 C 0.28665 0.22535 0.33500
 C1533 C 0.32276 0.25756 0.36673
 N1534 N 0.33695 0.26486 0.39656
 N1535 N 0.33295 0.24947 0.42536
 C1536 C 0.31495 0.22530 0.42613
 H1537 H 0.25871 0.18942 0.31367
 H1538 H 0.25491 0.16106 0.36444
 H1539 H 0.32814 0.27005 0.34427
 H1540 H 0.31268 0.21343 0.45015
 C1541 C 0.71935 0.29723 0.35694
 C1542 C 0.71791 0.31189 0.38930
 C1543 C 0.73528 0.33703 0.39638
 C1544 C 0.75400 0.34824 0.37030
 C1545 C 0.75390 0.33510 0.33641
 C1546 C 0.73747 0.30760 0.32987
 C1547 C 0.77076 0.35032 0.31121
 N1548 N 0.78797 0.37403 0.31986
 N1549 N 0.78978 0.38431 0.35216
 C1550 C 0.77361 0.37214 0.37766
 H1551 H 0.70664 0.27694 0.35357
 H1552 H 0.70372 0.30301 0.40933
 H1553 H 0.77088 0.34463 0.28453
 H1554 H 0.77655 0.38126 0.40346
 C1555 C 0.22183 0.80800 0.79390
 C1556 C 0.21974 0.82469 0.82466
 C1557 C 0.21019 0.81127 0.85481
 C1558 C 0.19838 0.78180 0.85285
 C1559 C 0.19993 0.76456 0.82113
 C1560 C 0.21422 0.77698 0.79149
 C1561 C 0.18715 0.73562 0.82087
 N1562 N 0.17462 0.72483 0.84995
 N1563 N 0.17364 0.74093 0.87950
 C1564 C 0.18494 0.76907 0.88189
 H1565 H 0.23284 0.81900 0.77286
 H1566 H 0.22846 0.84741 0.82547
 H1567 H 0.18554 0.72177 0.79783
 H1568 H 0.18281 0.78149 0.90632
 C1569 C 0.29360 0.76803 0.15073
 C1570 C 0.29771 0.77595 0.11632
 C1571 C 0.29277 0.80629 0.10602
 C1572 C 0.28535 0.82919 0.13140
 C1573 C 0.27478 0.82070 0.16438
 C1574 C 0.28014 0.78916 0.17528
 C1575 C 0.25799 0.84434 0.18324
 N1576 N 0.25753 0.87390 0.17331
 N1577 N 0.27122 0.88192 0.14454
 C1578 C 0.28480 0.86053 0.12304
 H1579 H 0.29797 0.74416 0.15700
 H1580 H 0.30338 0.75796 0.09727
 H1581 H 0.24430 0.84066 0.20523
 H1582 H 0.29464 0.86822 0.09940
 C1583 C 0.74656 0.29696 0.68197
 C1584 C 0.75196 0.31848 0.65764
 C1585 C 0.78147 0.32243 0.64487
 C1586 C 0.80536 0.30084 0.65455
 C1587 C 0.79893 0.27701 0.67774
 C1588 C 0.77038 0.27818 0.69567
 C1589 C 0.82175 0.25366 0.68266
 N1590 N 0.85016 0.25622 0.66942
 N1591 N 0.85718 0.28049 0.65140
 C1592 C 0.83589 0.30305 0.64391
 H1593 H 0.72321 0.29639 0.69099
 H1594 H 0.73236 0.33229 0.64870
 H1595 H 0.81738 0.23333 0.69663
 H1596 H 0.84324 0.32263 0.63024
 C1597 C 0.21841 0.17274 0.69404
 C1598 C 0.21499 0.15911 0.66202
 C1599 C 0.20553 0.17646 0.63421
 C1600 C 0.19512 0.20730 0.63967
 C1601 C 0.19663 0.22125 0.67330
 C1602 C 0.21053 0.20417 0.70109
 C1603 C 0.18534 0.25205 0.67673
 N1604 N 0.17434 0.26743 0.64897
 N1605 N 0.17373 0.25435 0.61768
 C1606 C 0.18382 0.22480 0.61209
 H1607 H 0.23157 0.15860 0.71137
 H1608 H 0.22354 0.13549 0.65800
 H1609 H 0.18425 0.26426 0.70089
 H1610 H 0.18260 0.21508 0.58623
 C1611 C 0.69828 0.73515 0.15411
 C1612 C 0.69026 0.71838 0.12455
 C1613 C 0.70776 0.69191 0.11427
 C1614 C 0.73535 0.68473 0.13154
 C1615 C 0.73998 0.69687 0.16486
 C1616 C 0.72200 0.72433 0.17606
 C1617 C 0.76224 0.68000 0.18449
 N1618 N 0.78241 0.65925 0.16910
 N1619 N 0.78130 0.65279 0.13553
 C1620 C 0.75844 0.66502 0.11614
 H1621 H 0.68457 0.75576 0.16092
 H1622 H 0.66985 0.72549 0.11055
 H1623 H 0.76389 0.68163 0.21188
 H1624 H 0.75791 0.65887 0.08898
 C1625 C 0.24230 0.67007 0.21082
 C1626 C 0.23453 0.63975 0.20530
 C1627 C 0.20566 0.63049 0.21434
 C1628 C 0.18391 0.65214 0.22888
 C1629 C 0.19202 0.68264 0.23679
 C1630 C 0.22205 0.69234 0.22702
 C1631 C 0.16973 0.70116 0.25545
 N1632 N 0.14180 0.69118 0.26272
 N1633 N 0.13412 0.66326 0.25360
 C1634 C 0.15423 0.64337 0.23723
 H1635 H 0.26506 0.67568 0.20320
 H1636 H 0.25149 0.62316 0.19453
 H1637 H 0.17356 0.72327 0.26552
 H1638 H 0.14670 0.62079 0.23123
 C1639 C 0.73598 0.15861 0.72703
 C1640 C 0.72786 0.12843 0.72193
 C1641 C 0.70439 0.11685 0.74129
 C1642 C 0.68727 0.13642 0.76463
 C1643 C 0.69594 0.16686 0.77120
 C1644 C 0.72151 0.17836 0.75226
 C1645 C 0.67823 0.18385 0.79657
 N1646 N 0.65405 0.17207 0.81238
 N1647 N 0.64565 0.14405 0.80503
 C1648 C 0.66128 0.12592 0.78167
 H1649 H 0.75484 0.16597 0.71173
 H1650 H 0.74083 0.11368 0.70363
 H1651 H 0.68236 0.20647 0.80460
 H1652 H 0.65297 0.10349 0.77648
 C1653 C 0.80012 0.17825 0.26417
 C1654 C 0.80745 0.14720 0.26257
 C1655 C 0.79065 0.12710 0.28111
 C1656 C 0.76730 0.13863 0.30387
 C1657 C 0.76023 0.17087 0.30668
 C1658 C 0.77540 0.19101 0.28428
 C1659 C 0.73901 0.18108 0.33252
 N1660 N 0.72435 0.16063 0.35151
 N1661 N 0.72970 0.13052 0.34707
 C1662 C 0.75078 0.11882 0.32397
 H1663 H 0.81373 0.19215 0.24808
 H1664 H 0.82615 0.13867 0.24589
 H1665 H 0.73487 0.20477 0.33958
 H1666 H 0.75465 0.09417 0.32176
 C1667 C 0.30919 0.66005 0.74441
 C1668 C 0.31776 0.62893 0.74473
 C1669 C 0.30014 0.60848 0.76211
 C1670 C 0.27502 0.62015 0.78242
 C1671 C 0.26675 0.65220 0.78303
 C1672 C 0.28193 0.67201 0.76036
 C1673 C 0.24443 0.66294 0.80741
 N1674 N 0.22944 0.64289 0.82660
 N1675 N 0.23558 0.61276 0.82376
 C1676 C 0.25792 0.60070 0.80239
 H1677 H 0.32336 0.67452 0.72964
 H1678 H 0.33804 0.62059 0.73051
 H1679 H 0.23982 0.68694 0.81309
 H1680 H 0.26237 0.57609 0.80160
 C1681 C 0.28826 0.30910 0.72268
 C1682 C 0.30173 0.33709 0.72014
 C1683 C 0.29288 0.36227 0.74179
 C1684 C 0.26889 0.35856 0.76621
 C1685 C 0.25363 0.33050 0.76698
 C1686 C 0.26568 0.30417 0.74755
 C1687 C 0.22696 0.33027 0.78746
 N1688 N 0.21932 0.35390 0.80963
 N1689 N 0.23623 0.37811 0.81246
 C1690 C 0.26082 0.38114 0.79177
 H1691 H 0.29618 0.29103 0.70495
 H1692 H 0.31904 0.33909 0.70035
 H1693 H 0.21118 0.31246 0.78518
 H1694 H 0.27401 0.40098 0.79603
 C1695 C 0.74597 0.85337 0.20983
 C1696 C 0.75264 0.88379 0.20434
 C1697 C 0.77949 0.89529 0.21698
 C1698 C 0.80034 0.87605 0.23527
 C1699 C 0.79303 0.84571 0.24321
 C1700 C 0.76524 0.83350 0.22944
 C1701 C 0.81428 0.82959 0.26466
 N1702 N 0.84047 0.84176 0.27506
 N1703 N 0.84752 0.86956 0.26609
 C1704 C 0.82846 0.88704 0.24659
 H1705 H 0.72490 0.84565 0.19920
 H1706 H 0.73653 0.89857 0.19044
 H1707 H 0.81155 0.80733 0.27365
 H1708 H 0.83570 0.90941 0.24028
 C1709 C 0.75203 0.84257 0.79719
 C1710 C 0.74355 0.87321 0.80423
 C1711 C 0.71578 0.88605 0.79274
 C1712 C 0.69601 0.86788 0.77339
 C1713 C 0.70512 0.83698 0.76431
 C1714 C 0.73363 0.82353 0.77726
 C1715 C 0.68530 0.82161 0.74198
 N1716 N 0.65842 0.83513 0.73176
 N1717 N 0.64959 0.86352 0.74163
 C1718 C 0.66744 0.88036 0.76191
 H1719 H 0.77382 0.83415 0.80721
 H1720 H 0.75904 0.88712 0.81855
 H1721 H 0.69037 0.79927 0.73154
 H1722 H 0.65908 0.90344 0.76862
 C1723 C 0.22591 0.34285 0.24867
 C1724 C 0.21543 0.37319 0.24617
 C1725 C 0.22411 0.39530 0.26997
 C1726 C 0.24322 0.38627 0.29767
 C1727 C 0.25307 0.35476 0.30134
 C1728 C 0.24604 0.33272 0.27489
 C1729 C 0.26847 0.34698 0.33208
 N1730 N 0.27615 0.36913 0.35495
 N1731 N 0.26903 0.39867 0.34983
 C1732 C 0.25274 0.40798 0.32204
 H1733 H 0.21739 0.32713 0.22969
 H1734 H 0.19983 0.37939 0.22553
 H1735 H 0.27315 0.32380 0.33966
 H1736 H 0.24729 0.43226 0.31933
 C1737 C 0.15856 0.24151 0.77373
 C1738 C 0.12875 0.24420 0.78626
 C1739 C 0.12138 0.23221 0.81798
 C1740 C 0.14421 0.21627 0.83718
 C1741 C 0.17478 0.21260 0.82427
 C1742 C 0.18255 0.22662 0.79216
 C1743 C 0.19561 0.19443 0.84409
 N1744 N 0.18693 0.18272 0.87449
 N1745 N 0.15868 0.18735 0.88682
 C1746 C 0.13703 0.20361 0.86918
 H1747 H 0.16258 0.25183 0.74930
 H1748 H 0.11127 0.25615 0.77117
 H1749 H 0.21836 0.18795 0.83596
 H1750 H 0.11432 0.20629 0.88031
 C1751 C 0.66412 0.74021 0.28215
 C1752 C 0.63605 0.74173 0.29865
 C1753 C 0.61348 0.76410 0.29058
 C1754 C 0.61906 0.78437 0.26339
 C1755 C 0.64703 0.78107 0.24408
 C1756 C 0.67101 0.75971 0.25487
 C1757 C 0.64957 0.79963 0.21503
 N1758 N 0.62752 0.82160 0.20805
 N1759 N 0.60279 0.82630 0.22792
 C1760 C 0.59787 0.80855 0.25539
 H1761 H 0.68093 0.72403 0.29254
 H1762 H 0.63233 0.72562 0.31895
 H1763 H 0.66802 0.79655 0.19688
 H1764 H 0.57757 0.81378 0.27083
 C1765 C 0.67198 0.28721 0.22949
 C1766 C 0.64544 0.28142 0.21197
 C1767 C 0.62772 0.25731 0.22113
 C1768 C 0.63559 0.24068 0.25122
 C1769 C 0.66117 0.24880 0.27137
 C1770 C 0.68169 0.27028 0.25850
 C1771 C 0.66544 0.23438 0.30324
 N1772 N 0.64786 0.21126 0.31226
 N1773 N 0.62602 0.20165 0.29169
 C1774 C 0.61942 0.21542 0.26143
 H1775 H 0.68615 0.30347 0.21770
 H1776 H 0.63958 0.29507 0.18967
 H1777 H 0.68175 0.24178 0.32169
 H1778 H 0.60178 0.20622 0.24562
 C1779 C 0.15922 0.74813 0.73427
 C1780 C 0.12923 0.75358 0.72348
 C1781 C 0.12101 0.74678 0.68967
 C1782 C 0.14256 0.73189 0.66692
 C1783 C 0.17311 0.72529 0.67792
 C1784 C 0.18239 0.73618 0.71165
 C1785 C 0.19228 0.70749 0.65453
 N1786 N 0.18235 0.69945 0.62275
 N1787 N 0.15426 0.70718 0.61228
 C1788 C 0.13401 0.72295 0.63329
 H1789 H 0.16435 0.75549 0.76012
 H1790 H 0.11252 0.76423 0.74137
 H1791 H 0.21460 0.69834 0.66062
 H1792 H 0.11124 0.72789 0.62357
 C1793 C 0.84358 0.72986 0.72521
 C1794 C 0.86956 0.73533 0.70644
 C1795 C 0.88822 0.75908 0.71578
 C1796 C 0.88115 0.77630 0.74668
 C1797 C 0.85498 0.76977 0.76671
 C1798 C 0.83415 0.74822 0.75416
 C1799 C 0.85067 0.78534 0.79853
 N1800 N 0.86889 0.80806 0.80795
 N1801 N 0.89138 0.81629 0.78758
 C1802 C 0.89796 0.80142 0.75718
 H1803 H 0.82959 0.71233 0.71485
 H1804 H 0.87492 0.72083 0.68390
 H1805 H 0.83387 0.77890 0.81653
 H1806 H 0.91594 0.80980 0.74142
 C1807 C 0.36342 0.23259 0.25117
 C1808 C 0.39080 0.23442 0.23382
 C1809 C 0.40315 0.26265 0.22831
 C1810 C 0.38999 0.28881 0.24661
 C1811 C 0.36484 0.28555 0.26973
 C1812 C 0.34867 0.25782 0.26888
 C1813 C 0.35549 0.31112 0.29076
 N1814 N 0.36762 0.33857 0.28605
 N1815 N 0.38858 0.34230 0.26176
 C1816 C 0.39986 0.31851 0.24163
 H1817 H 0.35269 0.21166 0.24641
 H1818 H 0.40066 0.21365 0.22143
 H1819 H 0.33872 0.30977 0.31091
 H1820 H 0.41592 0.32340 0.22159
 C1821 C 0.33917 0.73552 0.25411
 C1822 C 0.36837 0.73060 0.26832
 C1823 C 0.37968 0.75177 0.29198
 C1824 C 0.36187 0.77900 0.29942
 C1825 C 0.33031 0.78069 0.29179
 C1826 C 0.31884 0.75991 0.26581
 C1827 C 0.31254 0.80283 0.31173
 N1828 N 0.32594 0.82534 0.32970
 N1829 N 0.35609 0.82659 0.33097
 C1830 C 0.37458 0.80412 0.31632
 H1831 H 0.33186 0.71885 0.23528
 H1832 H 0.38183 0.70980 0.26137
 H1833 H 0.28830 0.80329 0.31390
 H1834 H 0.39904 0.80542 0.31894
 C1835 C 0.83867 0.21600 0.77291
 C1836 C 0.86733 0.21361 0.78805
 C1837 C 0.88409 0.23940 0.79325
 C1838 C 0.87321 0.26757 0.77926
 C1839 C 0.84388 0.27006 0.76344
 C1840 C 0.82458 0.24468 0.76381
 C1841 C 0.83566 0.29772 0.74730
 N1842 N 0.85424 0.32145 0.74852
 N1843 N 0.88070 0.31962 0.76513
 C1844 C 0.89065 0.29362 0.78091
 H1845 H 0.82685 0.19500 0.77072
 H1846 H 0.87595 0.19150 0.79718
 H1847 H 0.81468 0.30101 0.73378
 H1848 H 0.91233 0.29349 0.79397
 C1849 C 0.57221 0.97055 0.58482
 C1850 C 0.58613 0.96925 0.61669
 C1851 C 0.56999 0.96150 0.64581
 C1852 C 0.54007 0.95152 0.64203
 C1853 C 0.52605 0.95113 0.60877
 C1854 C 0.54154 0.96291 0.57962
 C1855 C 0.49701 0.93918 0.60652
 N1856 N 0.48269 0.92984 0.63528
 N1857 N 0.49544 0.93137 0.66631
 C1858 C 0.52366 0.94186 0.67065
 H1859 H 0.58543 0.98070 0.56509
 H1860 H 0.60910 0.97700 0.61909
 H1861 H 0.48584 0.93598 0.58234
 H1862 H 0.53324 0.94216 0.69633
 C1863 C 0.04796 0.44992 1.07662
 C1864 C 0.06666 0.45198 1.10527
 C1865 C 0.05572 0.46605 1.13622
 C1866 C 0.02337 0.47073 1.13999
 C1867 C 0.00397 0.46730 1.11081
 C1868 C 0.01708 0.46049 1.07726
 C1869 C -0.02788 0.47048 1.11665
 N1870 N -0.03928 0.47661 1.14879
 N1871 N -0.02118 0.47928 1.17593
 C1872 C 0.00959 0.47614 1.17273
 H1873 H 0.05950 0.44299 1.05332
 H1874 H 0.09081 0.44657 1.10090
 H1875 H -0.04414 0.46697 1.09658
 H1876 H 0.02293 0.47675 1.19608
 C1877 C -0.03531 0.02033 1.07445
 C1878 C -0.04546 0.02615 1.10829
 C1879 C -0.07410 0.01750 1.11898
 C1880 C -0.09355 0.00379 1.09495
 C1881 C -0.08284 -0.00435 1.06104
 C1882 C -0.05281 0.00459 1.05009
 C1883 C -0.10311 -0.02129 1.04054
 N1884 N -0.13150 -0.02687 1.05184
 N1885 N -0.14168 -0.01748 1.08275
 C1886 C -0.12373 -0.00243 1.10465
 H1887 H -0.01286 0.02757 1.06775
 H1888 H -0.03043 0.03673 1.12654
 H1889 H -0.09809 -0.03053 1.01556
 H1890 H -0.13336 0.00449 1.12954
 C1891 C 0.43367 0.52426 0.55629
 C1892 C 0.41971 0.51989 0.58790
 C1893 C 0.43634 0.52018 0.61844
 C1894 C 0.46681 0.52945 0.61731
 C1895 C 0.48068 0.53563 0.58489
 C1896 C 0.46515 0.52935 0.55338
 C1897 C 0.51002 0.54698 0.58539
 N1898 N 0.52520 0.54969 0.61558
 N1899 N 0.51300 0.54194 0.64547
 C1900 C 0.48442 0.53178 0.64735
 H1901 H 0.42006 0.51930 0.53412
 H1902 H 0.39607 0.51384 0.58820
 H1903 H 0.52072 0.55463 0.56235
 H1904 H 0.47584 0.52573 0.67233
 C1905 C 0.43400 0.48560 -0.06479
 C1906 C 0.41869 0.48076 -0.09533
 C1907 C 0.43156 0.46172 -0.12132
 C1908 C 0.45996 0.44580 -0.11557
 C1909 C 0.47654 0.45118 -0.08450
 C1910 C 0.46307 0.47137 -0.05780
 C1911 C 0.50610 0.43661 -0.08276
 N1912 N 0.51681 0.41701 -0.10821
 N1913 N 0.50042 0.41095 -0.13598
 C1914 C 0.47239 0.42470 -0.14053
 H1915 H 0.42289 0.50231 -0.04726
 H1916 H 0.39710 0.49349 -0.09940
 H1917 H 0.52153 0.44028 -0.06230
 H1918 H 0.46002 0.41891 -0.16360
 C1919 C -0.04404 0.94944 0.41319
 C1920 C -0.06473 0.94636 0.38616
 C1921 C -0.05685 0.95500 0.35281
 C1922 C -0.02580 0.95914 0.34530
 C1923 C -0.00483 0.96193 0.37263
 C1924 C -0.01594 0.96251 0.40735
 C1925 C 0.02629 0.96339 0.36388
 N1926 N 0.03507 0.96428 0.33030
 N1927 N 0.01499 0.96326 0.30474
 C1928 C -0.01515 0.96061 0.31109
 H1929 H -0.05169 0.94524 0.43916
 H1930 H -0.08795 0.94096 0.39218
 H1931 H 0.04396 0.96231 0.38306
 H1932 H -0.03042 0.95875 0.28940
 C1933 C 0.01460 0.54447 0.39631
 C1934 C 0.03144 0.54432 0.36570
 C1935 C 0.06198 0.55179 0.36556
 C1936 C 0.07432 0.56391 0.39632
 C1937 C 0.05710 0.56403 0.42779
 C1938 C 0.02803 0.55046 0.42867
 C1939 C 0.07005 0.57763 0.45697
 N1940 N 0.09774 0.58972 0.45513
 N1941 N 0.11424 0.58830 0.42622
 C1942 C 0.10381 0.57516 0.39702
 H1943 H -0.00830 0.53668 0.39440
 H1944 H 0.02102 0.53639 0.34210
 H1945 H 0.05915 0.57832 0.48148
 H1946 H 0.11874 0.57408 0.37481
 C1947 C 0.54246 0.04554 -0.05255
 C1948 C 0.56307 0.04537 -0.08015
 C1949 C 0.55344 0.03894 -0.11372
 C1950 C 0.52179 0.03811 -0.12009
 C1951 C 0.50084 0.03856 -0.09195
 C1952 C 0.51211 0.03757 -0.05741
 C1953 C 0.46946 0.04041 -0.09970
 N1954 N 0.46004 0.03981 -0.13296
 N1955 N 0.47983 0.03799 -0.15921
 C1956 C 0.51037 0.03722 -0.15393
 H1957 H 0.55102 0.05013 -0.02712
 H1958 H 0.58701 0.04816 -0.07491
 H1959 H 0.45224 0.04356 -0.07988
 H1960 H 0.52539 0.03679 -0.17622
 C1961 C 0.57477 0.54335 0.00565
 C1962 C 0.60249 0.55408 -0.00404
 C1963 C 0.62375 0.53544 -0.02272
 C1964 C 0.61720 0.50487 -0.03099
 C1965 C 0.58907 0.49324 -0.02005
 C1966 C 0.56626 0.51366 -0.00365
 C1967 C 0.58618 0.46138 -0.02454
 N1968 N 0.60796 0.44374 -0.04184
 N1969 N 0.63300 0.45541 -0.05437
 C1970 C 0.63844 0.48534 -0.04934
 H1971 H 0.55993 0.55888 0.02104
 H1972 H 0.60784 0.57700 0.00427
 H1973 H 0.56817 0.44953 -0.01295
 H1974 H 0.65943 0.49360 -0.05950
 C1975 C 0.09762 1.02981 0.43744
 C1976 C 0.12773 1.03800 0.43886
 C1977 C 0.14881 1.02241 0.46008
 C1978 C 0.14043 0.99471 0.47482
 C1979 C 0.10932 0.98678 0.47443
 C1980 C 0.08671 1.00722 0.45881
 C1981 C 0.10296 0.95817 0.48846
 N1982 N 0.12552 0.93992 0.50232
 N1983 N 0.15437 0.94768 0.50272
 C1984 C 0.16262 0.97423 0.48908
 H1985 H 0.08237 1.04365 0.42199
 H1986 H 0.13360 1.05847 0.42564
 H1987 H 0.08108 0.94866 0.48712
 H1988 H 0.18663 0.97869 0.48861
 C1989 C 0.06907 -0.02790 1.00516
 C1990 C 0.09959 -0.03777 1.01033
 C1991 C 0.11315 -0.06277 0.99152
 C1992 C 0.09622 -0.07569 0.96428
 C1993 C 0.06445 -0.06770 0.96069
 C1994 C 0.05022 -0.04268 0.98132
 C1995 C 0.04873 -0.08568 0.93656
 N1996 N 0.06396 -0.10592 0.91478
 N1997 N 0.09413 -0.11026 0.91552
 C1998 C 0.11077 -0.09564 0.93924
 H1999 H 0.06006 -0.00886 1.02118
 H2000 H 0.11214 -0.02669 1.03061
 H2001 H 0.02460 -0.08412 0.93382
 H2002 H 0.13533 -0.09955 0.93806
 C2003 C 0.58857 0.49104 0.51523
 C2004 C 0.61765 0.48481 0.52887
 C2005 C 0.62611 0.45586 0.54242
 C2006 C 0.60277 0.43466 0.54462
 C2007 C 0.57668 0.43851 0.52373
 C2008 C 0.56725 0.46809 0.51184
 C2009 C 0.56327 0.41165 0.51336
 N2010 N 0.56861 0.38551 0.53125
 N2011 N 0.58789 0.38447 0.55768
 C2012 C 0.60507 0.40854 0.56533
 H2013 H 0.58342 0.51392 0.50590
 H2014 H 0.63374 0.50251 0.52667
 H2015 H 0.55003 0.41103 0.49017
 H2016 H 0.62189 0.40634 0.58560
 C2017 C -0.08435 0.48043 0.47126
 C2018 C -0.11403 0.47181 0.47532
 C2019 C -0.13406 0.48742 0.49853
 C2020 C -0.12476 0.51440 0.51530
 C2021 C -0.09428 0.52368 0.51087
 C2022 C -0.07268 0.50460 0.49067
 C2023 C -0.08744 0.55211 0.52619
 N2024 N -0.10861 0.56864 0.54556
 N2025 N -0.13661 0.55930 0.55032
 C2026 C -0.14548 0.53294 0.53561
 H2027 H -0.07024 0.46627 0.45424
 H2028 H -0.12079 0.45147 0.46153
 H2029 H -0.06633 0.56264 0.52198
 H2030 H -0.16893 0.52721 0.53922
 C2031 C 0.40321 -0.04951 -0.00459
 C2032 C 0.37433 -0.06052 -0.00662
 C2033 C 0.34994 -0.04237 -0.01890
 C2034 C 0.35483 -0.01250 -0.03007
 C2035 C 0.38463 -0.00077 -0.02826
 C2036 C 0.40958 -0.01946 -0.01435
 C2037 C 0.38760 0.02898 -0.04092
 N2038 N 0.36305 0.04547 -0.05325
 N2039 N 0.33540 0.03450 -0.05415
 C2040 C 0.33047 0.00608 -0.04300
 H2041 H 0.42077 -0.06531 0.00514
 H2042 H 0.37097 -0.08365 0.00166
 H2043 H 0.40874 0.03970 -0.04202
 H2044 H 0.30755 -0.00179 -0.04444
 C2045 C 0.41996 1.00402 0.54144
 C2046 C 0.38889 1.01190 0.54596
 C2047 C 0.37670 1.04083 0.53725
 C2048 C 0.39611 1.06264 0.52434
 C2049 C 0.42752 1.05443 0.51758
 C2050 C 0.44016 1.02427 0.52667
 C2051 C 0.44407 1.07666 0.50062
 N2052 N 0.43120 1.10477 0.49376
 N2053 N 0.40233 1.11259 0.50180
 C2054 C 0.38430 1.09246 0.51658
 H2055 H 0.42777 0.98113 0.54866
 H2056 H 0.37405 0.99495 0.55558
 H2057 H 0.46675 1.07249 0.49144
 H2058 H 0.36083 1.10005 0.52188
 C2059 C -0.09941 0.50929 1.04088
 C2060 C -0.12968 0.51910 1.04709
 C2061 C -0.14113 0.54753 1.03603
 C2062 C -0.12162 0.56694 1.01875
 C2063 C -0.09062 0.55703 1.01166
 C2064 C -0.07904 0.52718 1.02266
 C2065 C -0.07325 0.57728 0.99273
 N2066 N -0.08546 0.60482 0.98271
 N2067 N -0.11428 0.61388 0.98973
 C2068 C -0.13280 0.59583 1.00711
 H2069 H -0.09247 0.48681 1.05014
 H2070 H -0.14462 0.50390 1.05986
 H2071 H -0.05036 0.57187 0.98464
 H2072 H -0.15614 0.60436 1.01143
 C2073 C 0.00792 0.60213 0.49966
 C2074 C 0.00629 0.63254 0.51124
 C2075 C 0.01181 0.64000 0.54561
 C2076 C 0.02053 0.61647 0.56861
 C2077 C 0.02125 0.58500 0.55758
 C2078 C 0.01528 0.57737 0.52175
 C2079 C 0.02717 0.56319 0.58364
 N2080 N 0.03368 0.57210 0.61636
 N2081 N 0.03442 0.60145 0.62571
 C2082 C 0.02810 0.62388 0.60299
 H2083 H 0.00256 0.59808 0.47278
 H2084 H -0.00048 0.65040 0.49339
 H2085 H 0.02713 0.53912 0.57961
 H2086 H 0.02910 0.64738 0.61209
 C2087 C 0.49838 0.08844 0.00882
 C2088 C 0.50500 0.11757 0.02084
 C2089 C 0.50163 0.12575 0.05566
 C2090 C 0.48959 0.10478 0.07869
 C2091 C 0.48271 0.07479 0.06683
 C2092 C 0.48867 0.06575 0.03104
 C2093 C 0.46962 0.05587 0.09167
 N2094 N 0.46464 0.06588 0.12466
 N2095 N 0.47130 0.09377 0.13525
 C2096 C 0.48334 0.11357 0.11342
 H2097 H 0.50084 0.08415 -0.01848
 H2098 H 0.51293 0.13395 0.00269
 H2099 H 0.46213 0.03356 0.08630
 H2100 H 0.48739 0.13620 0.12351
 C2101 C -0.00732 0.07467 0.99816
 C2102 C -0.00166 0.10541 0.99351
 C2103 C -0.01526 0.12174 0.96661
 C2104 C -0.03604 0.10745 0.94465
 C2105 C -0.04218 0.07609 0.94899
 C2106 C -0.02651 0.05873 0.97579
 C2107 C -0.06347 0.06396 0.92566
 N2108 N -0.07659 0.08126 0.90062
 N2109 N -0.07014 0.11022 0.89650
 C2110 C -0.05029 0.12383 0.91746
 H2111 H 0.00459 0.06302 1.01892
 H2112 H 0.01431 0.11628 1.01039
 H2113 H -0.07063 0.04124 0.92616
 H2114 H -0.04594 0.14739 0.91238
 C2115 C 0.51491 0.58373 0.48622
 C2116 C 0.51860 0.61384 0.47668
 C2117 C 0.50583 0.62508 0.44638
 C2118 C 0.48875 0.60592 0.42510
 C2119 C 0.48439 0.57511 0.43454
 C2120 C 0.49793 0.56350 0.46614
 C2121 C 0.46633 0.55801 0.41165
 N2122 N 0.45450 0.57045 0.38259
 N2123 N 0.45908 0.59906 0.37407
 C2124 C 0.47571 0.61719 0.39428
 H2125 H 0.52581 0.57639 0.50976
 H2126 H 0.53167 0.62853 0.49311
 H2127 H 0.46033 0.53519 0.41570
 H2128 H 0.47847 0.64031 0.38591
 C2129 C 0.49362 0.90594 0.50660
 C2130 C 0.48794 0.87684 0.49346
 C2131 C 0.50341 0.86484 0.46426
 C2132 C 0.52637 0.88158 0.44904
 C2133 C 0.53154 0.91193 0.46105
 C2134 C 0.51454 0.92479 0.49073
 C2135 C 0.55336 0.92762 0.44211
 N2136 N 0.56932 0.91371 0.41554
 N2137 N 0.56510 0.88502 0.40565
 C2138 C 0.54420 0.86852 0.42143
 H2139 H 0.48008 0.91411 0.52863
 H2140 H 0.47056 0.86396 0.50560
 H2141 H 0.55868 0.95063 0.44727
 H2142 H 0.54189 0.84521 0.41227
 C2143 C -0.01108 0.41486 0.95717
 C2144 C -0.01296 0.38530 0.94432
 C2145 C -0.01949 0.36150 0.96591
 C2146 C -0.02554 0.36785 1.00129
 C2147 C -0.02358 0.39828 1.01499
 C2148 C -0.01541 0.42245 0.99266
 C2149 C -0.02923 0.40273 1.05060
 N2150 N -0.03681 0.37909 1.07045
 N2151 N -0.03916 0.35097 1.05731
 C2152 C -0.03383 0.34456 1.02342
 H2153 H -0.00517 0.43150 0.93842
 H2154 H -0.00834 0.38079 0.91710
 H2155 H -0.02782 0.42442 1.06328
 H2156 H -0.03638 0.32135 1.01406
 C2157 C 0.49947 0.40759 0.00663
 C2158 C 0.50510 0.37796 0.01841
 C2159 C 0.49441 0.36974 0.05062
 C2160 C 0.47608 0.39112 0.07065
 C2161 C 0.46931 0.42122 0.05838
 C2162 C 0.48298 0.43043 0.02648
 C2163 C 0.44926 0.44053 0.07908
 N2164 N 0.43865 0.43110 0.10977
 N2165 N 0.44638 0.40349 0.12168
 C2166 C 0.46476 0.38324 0.10327
 H2167 H 0.50987 0.41279 -0.01756
 H2168 H 0.51876 0.36152 0.00266
 H2169 H 0.44100 0.46280 0.07162
 H2170 H 0.47028 0.36119 0.11446
 C2171 C -0.01825 0.93491 0.52450
 C2172 C -0.02080 0.90781 0.54206
 C2173 C -0.00637 0.88037 0.52992
 C2174 C 0.01002 0.88025 0.49824
 C2175 C 0.00998 0.90736 0.47820
 C2176 C -0.00319 0.93601 0.49237
 C2177 C 0.02394 0.90429 0.44523
 N2178 N 0.03911 0.87775 0.43496
 N2179 N 0.04140 0.85358 0.45517
 C2180 C 0.02761 0.85400 0.48648
 H2181 H -0.02690 0.95534 0.53788
 H2182 H -0.03313 0.90866 0.56643
 H2183 H 0.02289 0.92204 0.42682
 H2184 H 0.03106 0.83387 0.50195
 C2185 C 0.24137 0.28719 0.17045
 C2186 C 0.23792 0.29887 0.13741
 C2187 C 0.25438 0.32349 0.12709
 C2188 C 0.27453 0.33693 0.15046
 C2189 C 0.27624 0.32706 0.18517
 C2190 C 0.26066 0.30016 0.19501
 C2191 C 0.29285 0.34550 0.20811
 N2192 N 0.30915 0.36860 0.19633
 N2193 N 0.30972 0.37550 0.16315
 C2194 C 0.29293 0.36054 0.13985
 H2195 H 0.22856 0.26773 0.17662
 H2196 H 0.22219 0.28860 0.11974
 H2197 H 0.29230 0.34359 0.23548
 H2198 H 0.29406 0.36738 0.11323
 C2199 C 0.74691 0.81941 0.69554
 C2200 C 0.74949 0.83500 0.66512
 C2201 C 0.74347 0.82106 0.63358
 C2202 C 0.73199 0.79138 0.63304
 C2203 C 0.72818 0.77549 0.66459
 C2204 C 0.73756 0.78890 0.69661
 C2205 C 0.71533 0.74675 0.66238
 N2206 N 0.70844 0.73428 0.63124
 N2207 N 0.71337 0.74855 0.60191
 C2208 C 0.72496 0.77662 0.60174
 H2209 H 0.75495 0.83131 0.71802
 H2210 H 0.75786 0.85789 0.66615
 H2211 H 0.70969 0.73431 0.68479
 H2212 H 0.72851 0.78710 0.57712
 C2213 C 0.28305 0.66748 0.67209
 C2214 C 0.28353 0.65336 0.63981
 C2215 C 0.29377 0.66856 0.61115
 C2216 C 0.30818 0.69639 0.61582
 C2217 C 0.30888 0.71036 0.64925
 C2218 C 0.29293 0.69750 0.67715
 C2219 C 0.32519 0.73687 0.65318
 N2220 N 0.33806 0.74955 0.62535
 N2221 N 0.33589 0.73730 0.59375
 C2222 C 0.32133 0.71114 0.58801
 H2223 H 0.27122 0.65588 0.69210
 H2224 H 0.27303 0.63161 0.63664
 H2225 H 0.32880 0.74687 0.67819
 H2226 H 0.32059 0.70184 0.56194
 C2227 C 0.75763 0.18674 0.20313
 C2228 C 0.75544 0.16787 0.17430
 C2229 C 0.76921 0.17487 0.14331
 C2230 C 0.78797 0.20018 0.14226
 C2231 C 0.79118 0.21926 0.17234
 C2232 C 0.77415 0.21373 0.20299
 C2233 C 0.81131 0.24304 0.17016
 N2234 N 0.82575 0.24832 0.13998
 N2235 N 0.82162 0.23132 0.11166
 C2236 C 0.80318 0.20748 0.11175
 H2237 H 0.74479 0.18021 0.22544
 H2238 H 0.74145 0.14825 0.17579
 H2239 H 0.81659 0.25695 0.19212
 H2240 H 0.80077 0.19436 0.08804
 C2241 C 0.71505 0.22474 0.85901
 C2242 C 0.70916 0.21205 0.89087
 C2243 C 0.72109 0.18282 0.89860
 C2244 C 0.73956 0.16585 0.87418
 C2245 C 0.74437 0.17758 0.84075
 C2246 C 0.73222 0.20836 0.83301
 C2247 C 0.76108 0.15741 0.81724
 N2248 N 0.77310 0.12976 0.82710
 N2249 N 0.76980 0.12000 0.85897
 C2250 C 0.75357 0.13707 0.88279
 H2251 H 0.70574 0.24776 0.85484
 H2252 H 0.69536 0.22528 0.90979
 H2253 H 0.76485 0.16184 0.79084
 H2254 H 0.75197 0.12786 0.90831
 C2255 C 0.22505 0.69677 0.30789
 C2256 C 0.22202 0.68033 0.33738
 C2257 C 0.21076 0.69438 0.36759
 C2258 C 0.19970 0.72547 0.36702
 C2259 C 0.20160 0.74249 0.33593
 C2260 C 0.21589 0.72833 0.30580
 C2261 C 0.18925 0.77292 0.33678
 N2262 N 0.17675 0.78542 0.36634
 N2263 N 0.17554 0.76961 0.39527
 C2264 C 0.18654 0.74005 0.39658
 H2265 H 0.23729 0.68418 0.28752
 H2266 H 0.23103 0.65668 0.33717
 H2267 H 0.18847 0.78685 0.31437
 H2268 H 0.18452 0.72806 0.42056
 C2269 C 0.78699 0.78453 0.33060
 C2270 C 0.79394 0.79537 0.36347
 C2271 C 0.78104 0.82331 0.37589
 C2272 C 0.76146 0.84143 0.35475
 C2273 C 0.75399 0.83077 0.32107
 C2274 C 0.76660 0.80104 0.30878
 C2275 C 0.73411 0.85071 0.30192
 N2276 N 0.72302 0.87802 0.31531
 N2277 N 0.73001 0.88745 0.34687
 C2278 C 0.74871 0.87012 0.36702
 H2279 H 0.79752 0.76249 0.32260
 H2280 H 0.80912 0.78156 0.37962
 H2281 H 0.72688 0.84614 0.27640
 H2282 H 0.75337 0.87915 0.39246
 C2283 C 0.30346 0.29273 0.81462
 C2284 C 0.30251 0.31417 0.84188
 C2285 C 0.29403 0.30564 0.87499
 C2286 C 0.29130 0.27426 0.88172
 C2287 C 0.29255 0.25259 0.85390
 C2288 C 0.29354 0.26306 0.81930
 C2289 C 0.29256 0.22132 0.86191
 N2290 N 0.28904 0.21276 0.89507
 N2291 N 0.28589 0.23333 0.92090
 C2292 C 0.28682 0.26380 0.91536
 H2293 H 0.30947 0.30035 0.78935
 H2294 H 0.30656 0.33787 0.83667
 H2295 H 0.29610 0.20357 0.84230
 H2296 H 0.28467 0.27946 0.93736
 C2297 C 0.76113 0.33533 0.75664
 C2298 C 0.77199 0.36447 0.75488
 C2299 C 0.79485 0.37362 0.77692
 C2300 C 0.80464 0.35386 0.80374
 C2301 C 0.79423 0.32343 0.80525
 C2302 C 0.77342 0.31305 0.77943
 C2303 C 0.80586 0.30500 0.83222
 N2304 N 0.82558 0.31613 0.85550
 N2305 N 0.83462 0.34459 0.85420
 C2306 C 0.82470 0.36385 0.82929
 H2307 H 0.74357 0.33023 0.73847
 H2308 H 0.76338 0.37950 0.73483
 H2309 H 0.79968 0.28213 0.83612
 H2310 H 0.83227 0.38697 0.83003
 C2311 C 0.25738 0.84906 0.27387
 C2312 C 0.26725 0.87830 0.28145
 C2313 C 0.29642 0.88651 0.27150
 C2314 C 0.31411 0.86623 0.24909
 C2315 C 0.30502 0.83596 0.24217
 C2316 C 0.27575 0.82679 0.25517
 C2317 C 0.32582 0.81688 0.22191
 N2318 N 0.35088 0.82791 0.20719
 N2319 N 0.35728 0.85704 0.21093
 C2320 C 0.33956 0.87661 0.23081
 H2321 H 0.23507 0.84380 0.28341
 H2322 H 0.25260 0.89388 0.29719
 H2323 H 0.32306 0.79338 0.21633
 H2324 H 0.34523 0.90035 0.23137
 C2325 C 0.19532 0.81247 0.72096
 C2326 C 0.18387 0.84249 0.71794
 C2327 C 0.19944 0.86349 0.69902
 C2328 C 0.22571 0.85289 0.67986
 C2329 C 0.23702 0.82158 0.68195
 C2330 C 0.22321 0.80161 0.70575
 C2331 C 0.26084 0.81168 0.65901
 N2332 N 0.27374 0.83185 0.63803
 N2333 N 0.26412 0.86127 0.63760
 C2334 C 0.24041 0.87241 0.65757
 H2335 H 0.18307 0.79879 0.73822
 H2336 H 0.16329 0.84980 0.73222
 H2337 H 0.26834 0.78801 0.65559
 H2338 H 0.23282 0.89624 0.65515
 C2339 C 0.74773 0.34402 0.21967
 C2340 C 0.74157 0.37470 0.21144
 C2341 C 0.71724 0.39175 0.22703
 C2342 C 0.69799 0.37767 0.25054
 C2343 C 0.70510 0.34715 0.26106
 C2344 C 0.73078 0.32955 0.24516
 C2345 C 0.68580 0.33619 0.28704
 N2346 N 0.66148 0.35341 0.29972
 N2347 N 0.65452 0.38140 0.28865
 C2348 C 0.67184 0.39403 0.26450
 H2349 H 0.76707 0.33206 0.20687
 H2350 H 0.75635 0.38540 0.19332
 H2351 H 0.68871 0.31422 0.29787
 H2352 H 0.66471 0.41674 0.25639
 C2353 C 0.74111 0.67829 0.27988
 C2354 C 0.73613 0.64770 0.28668
 C2355 C 0.71263 0.63290 0.27048
 C2356 C 0.69320 0.64912 0.24746
 C2357 C 0.69756 0.68047 0.24067
 C2358 C 0.72280 0.69555 0.25656
 C2359 C 0.67585 0.69494 0.21858
 N2360 N 0.65327 0.67947 0.20382
 N2361 N 0.65004 0.65006 0.20966
 C2362 C 0.66910 0.63441 0.23099
 H2363 H 0.76002 0.68823 0.29294
 H2364 H 0.75101 0.63535 0.30448
 H2365 H 0.67570 0.71836 0.21247
 H2366 H 0.66493 0.61060 0.23488
 C2367 C 0.20047 0.15837 0.76775
 C2368 C 0.18940 0.12930 0.76573
 C2369 C 0.20875 0.10327 0.76931
 C2370 C 0.23964 0.10683 0.77800
 C2371 C 0.25105 0.13683 0.78181
 C2372 C 0.23155 0.16348 0.77434
 C2373 C 0.28137 0.13836 0.79330
 N2374 N 0.29903 0.11238 0.79852
 N2375 N 0.28856 0.08467 0.79356
 C2376 C 0.25945 0.08102 0.78364
 H2377 H 0.18445 0.17662 0.76049
 H2378 H 0.16566 0.12708 0.75898
 H2379 H 0.29127 0.15942 0.79989
 H2380 H 0.25191 0.05796 0.78077
 C2381 C 0.28711 0.17522 0.22927
 C2382 C 0.29185 0.14351 0.22564
 C2383 C 0.31045 0.12707 0.24851
 C2384 C 0.32592 0.14283 0.27470
 C2385 C 0.32136 0.17522 0.27880
 C2386 C 0.30071 0.19209 0.25606
 C2387 C 0.33882 0.18910 0.30478
 N2388 N 0.35793 0.17223 0.32516
 N2389 N 0.36166 0.14200 0.32132
 C2390 C 0.34657 0.12681 0.29666
 H2391 H 0.27193 0.18629 0.21089
 H2392 H 0.28045 0.13161 0.20504
 H2393 H 0.33857 0.21328 0.30893
 H2394 H 0.35136 0.10239 0.29420
 C2395 C 0.77143 0.66504 0.73088
 C2396 C 0.77885 0.63382 0.72575
 C2397 C 0.80444 0.61987 0.74123
 C2398 C 0.82355 0.63763 0.76172
 C2399 C 0.81621 0.66954 0.76757
 C2400 C 0.78906 0.68384 0.75209
 C2401 C 0.83625 0.68504 0.78952
 N2402 N 0.86113 0.67032 0.80334
 N2403 N 0.86786 0.64070 0.79725
 C2404 C 0.84991 0.62386 0.77708
 H2405 H 0.75101 0.67416 0.71834
 H2406 H 0.76429 0.62034 0.70968
 H2407 H 0.83267 0.70843 0.79718
 H2408 H 0.85648 0.59978 0.77345
 C2409 C 0.83715 0.75284 0.24409
 C2410 C 0.86774 0.74892 0.23330
 C2411 C 0.87775 0.76292 0.20333
 C2412 C 0.85807 0.78561 0.18827
 C2413 C 0.82643 0.78774 0.19633
 C2414 C 0.81531 0.77071 0.22543
 C2415 C 0.80830 0.80711 0.17437
 N2416 N 0.82121 0.82594 0.15189
 N2417 N 0.85123 0.82664 0.14841
 C2418 C 0.87008 0.80731 0.16601
 H2419 H 0.83025 0.74034 0.26640
 H2420 H 0.88272 0.73265 0.24673
 H2421 H 0.78411 0.80875 0.17392
 H2422 H 0.89444 0.80889 0.16242
 C2423 C 0.34294 0.24341 0.75431
 C2424 C 0.37295 0.24617 0.74321
 C2425 C 0.38027 0.24577 0.70813
 C2426 C 0.35686 0.24278 0.68362
 C2427 C 0.32660 0.23737 0.69455
 C2428 C 0.31883 0.23971 0.73093
 C2429 C 0.30604 0.22949 0.66810
 N2430 N 0.31408 0.23079 0.63435
 N2431 N 0.34153 0.23877 0.62458
 C2432 C 0.36318 0.24476 0.64802
 H2433 H 0.33911 0.24322 0.78179
 H2434 H 0.39077 0.24803 0.76226
 H2435 H 0.28412 0.22102 0.67277
 H2436 H 0.38517 0.25099 0.63853
 C2437 C 0.33398 0.71846 0.78172
 C2438 C 0.36320 0.71733 0.79506
 C2439 C 0.38447 0.73757 0.78431
 C2440 C 0.37578 0.76024 0.76022
 C2441 C 0.34547 0.76198 0.74668
 C2442 C 0.32451 0.73901 0.75577
 C2443 C 0.33751 0.78781 0.72645
 N2444 N 0.35844 0.80826 0.71852
 N2445 N 0.38689 0.80557 0.73006
 C2446 C 0.39618 0.78247 0.75084
 H2447 H 0.31843 0.70353 0.79353
 H2448 H 0.36902 0.70093 0.81492
 H2449 H 0.31507 0.79313 0.71717
 H2450 H 0.41930 0.78217 0.76031
 C2451 C 0.84651 0.26820 0.25380
 C2452 C 0.87773 0.26976 0.26062
 C2453 C 0.89251 0.24913 0.28300
 C2454 C 0.87581 0.22534 0.29630
 C2455 C 0.84351 0.22801 0.29608
 C2456 C 0.82811 0.24800 0.27162
 C2457 C 0.82912 0.21167 0.32217
 N2458 N 0.84480 0.18911 0.33931
 N2459 N 0.87449 0.18289 0.33395
 C2460 C 0.89062 0.20037 0.31294
 H2461 H 0.83636 0.28513 0.23672
 H2462 H 0.88992 0.28817 0.24970
 H2463 H 0.80592 0.21631 0.33001
 H2464 H 0.91507 0.19569 0.31063
 C2465 C 0.18625 0.29118 0.27930
 C2466 C 0.15626 0.28878 0.28973
 C2467 C 0.13992 0.26372 0.27974
 C2468 C 0.15347 0.24188 0.25587
 C2469 C 0.18353 0.24564 0.24258
 C2470 C 0.20141 0.26969 0.25640
 C2471 C 0.19443 0.22433 0.21684
 N2472 N 0.17797 0.20021 0.20752
 N2473 N 0.15109 0.19565 0.22196
 C2474 C 0.13838 0.21553 0.24590
 H2475 H 0.19804 0.30875 0.29260
 H2476 H 0.14635 0.30580 0.30795
 H2477 H 0.21522 0.22656 0.20293
 H2478 H 0.11673 0.21023 0.25703
 C2479 C 0.67033 0.73993 0.75367
 C2480 C 0.63977 0.73494 0.76051
 C2481 C 0.62462 0.74932 0.78864
 C2482 C 0.64003 0.76994 0.80990
 C2483 C 0.67146 0.77489 0.80382
 C2484 C 0.68738 0.75920 0.77490
 C2485 C 0.68505 0.79507 0.82767
 N2486 N 0.66873 0.80904 0.85392
 N2487 N 0.63945 0.80437 0.85895
 C2488 C 0.62462 0.78527 0.83800
 H2489 H 0.68089 0.72721 0.73216
 H2490 H 0.62808 0.71897 0.74421
 H2491 H 0.70819 0.80071 0.82673
 H2492 H 0.60084 0.78232 0.84374
 C2493 C 0.66604 0.22694 0.73383
 C2494 C 0.63662 0.22995 0.72141
 C2495 C 0.61582 0.25227 0.73482
 C2496 C 0.62434 0.27074 0.76316
 C2497 C 0.65446 0.26706 0.77715
 C2498 C 0.67652 0.24545 0.76133
 C2499 C 0.66079 0.28531 0.80634
 N2500 N 0.63930 0.30594 0.81958
 N2501 N 0.61162 0.30965 0.80590
 C2502 C 0.60340 0.29271 0.77819
 H2503 H 0.68098 0.21052 0.71986
 H2504 H 0.63048 0.21556 0.69967
 H2505 H 0.68200 0.28317 0.81969
 H2506 H 0.58046 0.29632 0.76838
 C2507 C 0.15577 0.77822 0.23884
 C2508 C 0.12502 0.78126 0.22993
 C2509 C 0.11444 0.76651 0.20052
 C2510 C 0.13499 0.74862 0.17915
 C2511 C 0.16628 0.74422 0.18842
 C2512 C 0.17717 0.75961 0.21929
 C2513 C 0.18449 0.72419 0.16616
 N2514 N 0.17278 0.71138 0.13739
 N2515 N 0.14384 0.71662 0.12860
 C2516 C 0.12460 0.73471 0.14842
 H2517 H 0.16261 0.79043 0.26180
 H2518 H 0.10930 0.79520 0.24621
 H2519 H 0.20768 0.71724 0.17043
 H2520 H 0.10130 0.73797 0.13974
   
