data_POSCAR
  _audit_creation_date              2014-09-24
  _audit_creation_method            'ToBaCCo'
  _symmetry_space_group_name_H-M    'P1'
  _symmetry_Int_Tables_number       1
  _symmetry_cell_setting            triclinic
  loop_
  _symmetry_equiv_pos_as_xyz
 x,y,z
_cell_length_a 48.7307
_cell_length_b 48.7058
_cell_length_c 48.3242
_cell_angle_alpha 89.547500
_cell_angle_beta 90.593100
_cell_angle_gamma 90.577400
loop_
  _atom_site_label
  _atom_site_type_symbol
  _atom_site_fract_x
  _atom_site_fract_y
  _atom_site_fract_z
C1 C 0.71901 0.67529 0.95881
 H2 H 0.73858 0.67484 0.94846
 C3 C 0.69716 0.68981 0.94701
 H4 H 0.70052 0.70011 0.92749
 C5 C 0.69088 0.65995 0.99558
 H6 H 0.68813 0.64759 1.01399
 C7 C 0.66859 0.67421 0.98462
 H8 H 0.64898 0.67263 0.99488
 N9 N 0.71547 0.66063 0.98258
 C10 C 0.79432 0.64402 1.02183
 H11 H 0.79147 0.62221 1.02530
 C12 C 0.81811 0.65706 1.03130
 H13 H 0.83347 0.64510 1.04220
 C14 C 0.77755 0.68591 1.00349
 H15 H 0.76153 0.69703 0.99275
 C16 C 0.80118 0.69987 1.01260
 H17 H 0.80261 0.72166 1.00871
 Zn18 Zn 0.74410 0.63776 0.99542
 N19 N 0.77480 0.65841 1.00791
 C20 C 0.78124 0.61529 0.95770
 N21 N 0.75458 0.61523 0.96561
 C22 C 0.73510 0.60089 0.95126
 C23 C 0.74217 0.58588 0.92784
 C24 C 0.78921 0.60051 0.93466
 C25 C 0.72793 0.63020 1.04980
 C26 C 0.71766 0.61653 1.07295
 C27 C 0.71601 0.57462 1.04659
 C28 C 0.72651 0.58917 1.02393
 N29 N 0.73155 0.61657 1.02574
 H30 H 0.79641 0.62723 0.96886
 H31 H 0.71393 0.60156 0.95773
 H32 H 0.72606 0.57506 0.91687
 H33 H 0.81057 0.60105 0.92866
 H34 H 0.73281 0.65189 1.05086
 H35 H 0.71520 0.62799 1.09187
 H36 H 0.71294 0.55276 1.04438
 H37 H 0.73048 0.57854 1.00486
 C38 C 0.82213 0.68533 1.02649
 C39 C 0.67136 0.68939 0.95993
 C40 C 0.71021 0.58847 1.07146
 C41 C 0.76964 0.58571 0.91906
 C42 C 0.73025 0.34488 0.52445
 H43 H 0.75040 0.34257 0.53374
 C44 C 0.70750 0.33208 0.53656
 H45 H 0.71089 0.31923 0.55454
 C46 C 0.70206 0.36436 0.48945
 H47 H 0.69977 0.37752 0.47152
 C48 C 0.67884 0.35182 0.50074
 H49 H 0.65909 0.35496 0.49079
 N50 N 0.72712 0.36100 0.50158
 C51 C 0.80855 0.37265 0.46627
 H52 H 0.80879 0.39485 0.46530
 C53 C 0.83088 0.35801 0.45666
 H54 H 0.84827 0.36916 0.44824
 C55 C 0.78531 0.33137 0.47817
 H56 H 0.76732 0.32113 0.48632
 C57 C 0.80728 0.31582 0.46870
 H58 H 0.80543 0.29378 0.46980
 Zn59 Zn 0.75778 0.38182 0.48933
 N60 N 0.78650 0.35925 0.47705
 C61 C 0.79507 0.39727 0.53146
 N62 N 0.77012 0.40275 0.51998
 C63 C 0.75267 0.42052 0.53209
 C64 C 0.76029 0.43400 0.55649
 C65 C 0.80339 0.41005 0.55587
 C66 C 0.73991 0.39038 0.43563
 C67 C 0.73040 0.40455 0.41238
 C68 C 0.73748 0.44714 0.43680
 C69 C 0.74679 0.43204 0.45976
 N70 N 0.74732 0.40416 0.45890
 H71 H 0.80817 0.38214 0.52235
 H72 H 0.73244 0.42361 0.52322
 H73 H 0.74552 0.44718 0.56608
 H74 H 0.82293 0.40450 0.56509
 H75 H 0.74066 0.36819 0.43549
 H76 H 0.72355 0.39298 0.39451
 H77 H 0.73620 0.46915 0.43864
 H78 H 0.75305 0.44262 0.47839
 C79 C 0.83073 0.32915 0.45793
 C80 C 0.68106 0.33635 0.52534
 C81 C 0.72905 0.43337 0.41257
 C82 C 0.78621 0.42911 0.56863
 C83 C 0.22173 -0.15776 0.03006
 H84 H 0.23947 -0.15907 0.04350
 C85 C 0.19785 -0.17219 0.03699
 H86 H 0.19752 -0.18428 0.05589
 C87 C 0.20036 -0.14028 -0.01044
 H88 H 0.20138 -0.12807 -0.02914
 C89 C 0.17600 -0.15424 -0.00424
 H90 H 0.15885 -0.15169 -0.01825
 N91 N 0.22240 -0.14157 0.00703
 C92 C 0.30885 -0.12831 -0.01166
 H93 H 0.31096 -0.10692 -0.00608
 C94 C 0.33150 -0.14260 -0.02112
 H95 H 0.35101 -0.13192 -0.02290
 C96 C 0.28033 -0.16754 -0.01757
 H97 H 0.26013 -0.17688 -0.01674
 C98 C 0.30250 -0.18265 -0.02718
 H99 H 0.29861 -0.20339 -0.03397
 Zn100 Zn 0.25382 -0.11902 -0.00017
 N101 N 0.28385 -0.14081 -0.01037
 C102 C 0.27603 -0.11437 0.05303
 N103 N 0.26404 -0.09959 0.03231
 C104 C 0.26051 -0.07204 0.03470
 C105 C 0.26822 -0.05853 0.05904
 C106 C 0.28396 -0.10176 0.07766
 C107 C 0.25924 -0.09651 -0.05392
 C108 C 0.25035 -0.08254 -0.07763
 C109 C 0.21369 -0.06333 -0.05105
 C110 C 0.22337 -0.07762 -0.02783
 N111 N 0.24518 -0.09464 -0.02989
 H112 H 0.27990 -0.13597 0.05025
 H113 H 0.25190 -0.06036 0.01771
 H114 H 0.26535 -0.03664 0.05987
 H115 H 0.29354 -0.11399 0.09383
 H116 H 0.27683 -0.10973 -0.05518
 H117 H 0.26244 -0.08456 -0.09607
 H118 H 0.19579 -0.05054 -0.04893
 H119 H 0.21246 -0.07638 -0.00850
 C120 C 0.32867 -0.17022 -0.02905
 C121 C 0.17425 -0.17022 0.02008
 C122 C 0.22598 -0.06707 -0.07710
 C123 C 0.27983 -0.07350 0.08124
 C124 C 0.22295 0.17375 0.46879
 H125 H 0.24226 0.17411 0.45794
 C126 C 0.20008 0.18684 0.45725
 H127 H 0.20235 0.19688 0.43740
 C128 C 0.19638 0.15731 0.50627
 H129 H 0.19463 0.14492 0.52479
 C130 C 0.17308 0.17009 0.49554
 H131 H 0.15374 0.16724 0.50607
 N132 N 0.22067 0.15918 0.49276
 C133 C 0.30050 0.14479 0.53097
 H134 H 0.29758 0.12317 0.53549
 C135 C 0.32436 0.15814 0.53978
 H136 H 0.33960 0.14664 0.55135
 C137 C 0.28388 0.18585 0.51064
 H138 H 0.26790 0.19654 0.49941
 C139 C 0.30769 0.20007 0.51891
 H140 H 0.30923 0.22167 0.51403
 Zn141 Zn 0.25042 0.13727 0.50479
 N142 N 0.28100 0.15861 0.51642
 C143 C 0.28729 0.11521 0.46651
 N144 N 0.26072 0.11503 0.47472
 C145 C 0.24113 0.10065 0.46057
 C146 C 0.24798 0.08575 0.43702
 C147 C 0.29504 0.10054 0.44331
 C148 C 0.23600 0.12891 0.55964
 C149 C 0.22657 0.11476 0.58287
 C150 C 0.22489 0.07316 0.55601
 C151 C 0.23459 0.08814 0.53327
 N152 N 0.23932 0.11560 0.53534
 H153 H 0.30255 0.12708 0.47763
 H154 H 0.22004 0.10119 0.46732
 H155 H 0.23177 0.07487 0.42626
 H156 H 0.31633 0.10115 0.43706
 H157 H 0.24023 0.15072 0.56078
 H158 H 0.22368 0.12588 0.60193
 H159 H 0.22116 0.05150 0.55337
 H160 H 0.23789 0.07788 0.51387
 C161 C 0.32864 0.18606 0.53336
 C162 C 0.17457 0.18519 0.47068
 C163 C 0.22015 0.08659 0.58123
 C164 C 0.27534 0.08571 0.42789
 C165 C 0.16318 0.46077 0.22083
 H166 H 0.16300 0.45020 0.24061
 C167 C 0.17746 0.44969 0.19868
 H168 H 0.18775 0.43038 0.20189
 C169 C 0.14736 0.49729 0.19248
 H170 H 0.13485 0.51531 0.18980
 C171 C 0.16132 0.48699 0.16984
 H172 H 0.15926 0.49729 0.15000
 N173 N 0.14851 0.48414 0.21738
 C174 C 0.13381 0.52084 0.29752
 H175 H 0.11203 0.52425 0.29490
 C176 C 0.14725 0.52981 0.32137
 H177 H 0.13565 0.54047 0.33689
 C178 C 0.17527 0.50343 0.27991
 H179 H 0.18612 0.49345 0.26346
 C180 C 0.18958 0.51190 0.30369
 H181 H 0.21142 0.50853 0.30473
 Zn182 Zn 0.12644 0.49626 0.24674
 N183 N 0.14781 0.50767 0.27752
 C184 C 0.10640 0.45641 0.28370
 N185 N 0.10348 0.46653 0.25757
 C186 C 0.08649 0.45410 0.23888
 C187 C 0.07128 0.43070 0.24639
 C188 C 0.09190 0.43306 0.29194
 C189 C 0.12072 0.55061 0.23138
 C190 C 0.10804 0.57422 0.22141
 C191 C 0.06505 0.54919 0.21940
 C192 C 0.07857 0.52605 0.22979
 N193 N 0.10605 0.52700 0.23482
 H194 H 0.12072 0.46581 0.29801
 H195 H 0.08531 0.46194 0.21789
 H196 H 0.05870 0.42082 0.23079
 H197 H 0.09541 0.42491 0.31257
 H198 H 0.14248 0.55091 0.23603
 H199 H 0.12022 0.59274 0.21866
 H200 H 0.04323 0.54764 0.21568
 H201 H 0.06712 0.50730 0.23348
 C202 C 0.17544 0.52492 0.32515
 C203 C 0.17689 0.46296 0.17265
 C204 C 0.08000 0.57359 0.21423
 C205 C 0.07373 0.41991 0.27341
 C206 C -0.15606 0.02027 0.22444
 H207 H -0.15425 0.03271 0.24284
 C208 C -0.16909 0.03075 0.20081
 H209 H -0.17754 0.05122 0.20149
 C210 C -0.14632 -0.02100 0.20122
 H211 H -0.13712 -0.04105 0.20125
 C212 C -0.15950 -0.01154 0.17725
 H213 H -0.16087 -0.02545 0.16003
 N214 N -0.14429 -0.00486 0.22398
 C215 C -0.12828 -0.03914 0.30612
 H216 H -0.10629 -0.04152 0.30477
 C217 C -0.14204 -0.04826 0.32963
 H218 H -0.13044 -0.05775 0.34632
 C219 C -0.16996 -0.02413 0.28575
 H220 H -0.18068 -0.01481 0.26843
 C221 C -0.18463 -0.03305 0.30895
 H222 H -0.20657 -0.03049 0.30867
 Zn223 Zn -0.12143 -0.01521 0.25421
 N224 N -0.14228 -0.02707 0.28492
 C225 C -0.09972 0.02481 0.29063
 N226 N -0.09996 0.01598 0.26403
 C227 C -0.08685 0.03043 0.24382
 C228 C -0.07305 0.05501 0.24998
 C229 C -0.08602 0.04901 0.29773
 C230 C -0.11132 -0.06971 0.24121
 C231 C -0.09660 -0.09213 0.23189
 C232 C -0.05631 -0.06304 0.22873
 C233 C -0.07188 -0.04111 0.23816
 N234 N -0.09898 -0.04471 0.24368
 H235 H -0.11063 0.01346 0.30639
 H236 H -0.08770 0.02319 0.22272
 H237 H -0.06327 0.06598 0.23326
 H238 H -0.08634 0.05575 0.31904
 H239 H -0.13291 -0.07201 0.24580
 H240 H -0.10714 -0.11161 0.22912
 H241 H -0.03521 -0.05905 0.22334
 H242 H -0.06243 -0.02108 0.24036
 C243 C -0.17062 -0.04514 0.33156
 C244 C -0.16995 0.01542 0.17607
 C245 C -0.06866 -0.08911 0.22540
 C246 C -0.07277 0.06487 0.27731
 C247 C 0.34363 0.52532 0.72650
 H248 H 0.34260 0.53521 0.74643
 C249 C 0.32993 0.53666 0.70366
 H250 H 0.31772 0.55469 0.70688
 C251 C 0.36094 0.48964 0.69889
 H252 H 0.37358 0.47173 0.69683
 C253 C 0.34745 0.50017 0.67558
 H254 H 0.34945 0.48976 0.65599
 N255 N 0.35915 0.50252 0.72365
 C256 C 0.37447 0.46732 0.80565
 H257 H 0.39660 0.46601 0.80479
 C258 C 0.36063 0.45746 0.82882
 H259 H 0.37231 0.44848 0.84574
 C260 C 0.33256 0.48020 0.78429
 H261 H 0.32171 0.48877 0.76668
 C262 C 0.31780 0.47051 0.80713
 H263 H 0.29574 0.47176 0.80624
 Zn264 Zn 0.38155 0.49154 0.75395
 N265 N 0.36040 0.47877 0.78415
 C266 C 0.40189 0.53180 0.79104
 N267 N 0.40246 0.52281 0.76451
 C268 C 0.41565 0.53743 0.74449
 C269 C 0.42841 0.56254 0.75068
 C270 C 0.41463 0.55651 0.79819
 C271 C 0.39142 0.43806 0.73807
 C272 C 0.40630 0.41561 0.72911
 C273 C 0.44765 0.44328 0.73164
 C274 C 0.43187 0.46532 0.74054
 N275 N 0.40426 0.46239 0.74320
 H276 H 0.39094 0.52027 0.80663
 H277 H 0.41553 0.52996 0.72347
 H278 H 0.43834 0.57359 0.73410
 H279 H 0.41370 0.56338 0.81942
 H280 H 0.36942 0.43632 0.74041
 H281 H 0.39547 0.39670 0.72429
 H282 H 0.46934 0.44669 0.72870
 H283 H 0.44164 0.48487 0.74481
 C284 C 0.33188 0.45920 0.83010
 C285 C 0.33262 0.52470 0.67737
 C286 C 0.43489 0.41785 0.72584
 C287 C 0.42755 0.57275 0.77784
 C288 C 0.67094 0.96641 0.72621
 H289 H 0.67014 0.95571 0.74590
 C290 C 0.68477 0.95481 0.70404
 H291 H 0.69417 0.93503 0.70716
 C292 C 0.65674 1.00368 0.69797
 H293 H 0.64493 1.02216 0.69529
 C294 C 0.67031 0.99289 0.67532
 H295 H 0.66864 1.00331 0.65551
 N296 N 0.65711 0.99030 0.72276
 C297 C 0.64035 1.02696 0.80263
 H298 H 0.61872 1.03077 0.79935
 C299 C 0.65321 1.03571 0.82688
 H300 H 0.64118 1.04655 0.84195
 C301 C 0.68205 1.00910 0.78618
 H302 H 0.69323 0.99913 0.76996
 C303 C 0.69587 1.01751 0.81027
 H304 H 0.71772 1.01419 0.81151
 Zn305 Zn 0.63424 1.00240 0.75153
 N306 N 0.65468 1.01350 0.78310
 C307 C 0.60820 0.96487 0.78790
 N308 N 0.61046 0.97284 0.76101
 C309 C 0.59720 0.95890 0.74050
 C310 C 0.58118 0.93567 0.74666
 C311 C 0.59220 0.94209 0.79500
 C312 C 0.62840 1.05703 0.73614
 C313 C 0.61544 1.08045 0.72603
 C314 C 0.57304 1.05452 0.72274
 C315 C 0.58684 1.03157 0.73318
 N316 N 0.61415 1.03310 0.73905
 H317 H 0.61908 0.97588 0.80396
 H318 H 0.59945 0.96559 0.71923
 H319 H 0.57096 0.92525 0.72980
 H320 H 0.59069 0.93619 0.81659
 H321 H 0.65004 1.05775 0.74137
 H322 H 0.62728 1.09924 0.72366
 H323 H 0.55139 1.05244 0.71838
 H324 H 0.57577 1.01247 0.73626
 C325 C 0.68132 1.03045 0.83167
 C326 C 0.68468 0.96810 0.67802
 C327 C 0.58753 1.07935 0.71834
 C328 C 0.57888 0.92661 0.77430
 C329 C 0.02546 0.22494 -0.16277
 H330 H 0.03587 0.24465 -0.16339
 C331 C 0.03732 0.20218 -0.17519
 H332 H 0.05628 0.20525 -0.18620
 C333 C -0.01197 0.19766 -0.14748
 H334 H -0.03082 0.19571 -0.13606
 C335 C -0.00095 0.17446 -0.15976
 H336 H -0.01192 0.15508 -0.15816
 N337 N 0.00159 0.22217 -0.14869
 C338 C -0.03406 0.30249 -0.13425
 H339 H -0.03714 0.30033 -0.11220
 C340 C -0.04329 0.32587 -0.14810
 H341 H -0.05366 0.34155 -0.13649
 C342 C -0.01742 0.28420 -0.17603
 H343 H -0.00760 0.26768 -0.18683
 C344 C -0.02624 0.30744 -0.19077
 H345 H -0.02320 0.30801 -0.21284
 Zn346 Zn -0.00980 0.25183 -0.12662
 N347 N -0.02118 0.28236 -0.14823
 C348 C 0.02973 0.28844 -0.10385
 N349 N 0.02072 0.26196 -0.10416
 C350 C 0.03471 0.24186 -0.09055
 C351 C 0.05911 0.24798 -0.07628
 C352 C 0.05378 0.29549 -0.08965
 C353 C -0.06423 0.23658 -0.11825
 C354 C -0.08739 0.22795 -0.10378
 C355 C -0.06031 0.22810 -0.06163
 C356 C -0.03765 0.23686 -0.07700
 N357 N -0.03997 0.24069 -0.10480
 H358 H 0.01869 0.30410 -0.11512
 H359 H 0.02727 0.22088 -0.09144
 H360 H 0.06971 0.23134 -0.06611
 H361 H 0.06071 0.31670 -0.08990
 H362 H -0.06544 0.23964 -0.14043
 H363 H -0.10619 0.22403 -0.11530
 H364 H -0.05710 0.22399 -0.03985
 H365 H -0.01809 0.24009 -0.06674
 C366 C -0.03916 0.32895 -0.17672
 C367 C 0.02475 0.17611 -0.17267
 C368 C -0.08607 0.22393 -0.07482
 C369 C 0.06928 0.27515 -0.07602
 C370 C 0.46650 0.22249 0.16944
 H371 H 0.45511 0.24141 0.16827
 C372 C 0.45666 0.20066 0.18560
 H373 H 0.43760 0.20323 0.19648
 C374 C 0.50322 0.19540 0.15385
 H375 H 0.52078 0.19295 0.14069
 C376 C 0.49414 0.17312 0.16969
 H377 H 0.50484 0.15384 0.16815
 N378 N 0.48930 0.21947 0.15380
 C379 C 0.52623 0.29843 0.13260
 H380 H 0.53283 0.29318 0.11204
 C381 C 0.53482 0.32318 0.14421
 H382 H 0.54832 0.33647 0.13241
 C383 C 0.50258 0.28622 0.17348
 H384 H 0.49058 0.27150 0.18510
 C385 C 0.51050 0.31101 0.18583
 H386 H 0.50476 0.31457 0.20704
 Zn387 Zn 0.50005 0.24770 0.12857
 N388 N 0.51015 0.28061 0.14711
 C389 C 0.47189 0.27823 0.08767
 N390 N 0.47047 0.25533 0.10387
 C391 C 0.44750 0.23923 0.10400
 C392 C 0.42400 0.24733 0.08943
 C393 C 0.44886 0.28712 0.07285
 C394 C 0.55520 0.23537 0.12329
 C395 C 0.57875 0.22543 0.11095
 C396 C 0.55234 0.21692 0.06926
 C397 C 0.52924 0.22732 0.08240
 N398 N 0.53103 0.23583 0.10907
 H399 H 0.49062 0.29022 0.08698
 H400 H 0.44705 0.22046 0.11604
 H401 H 0.40575 0.23453 0.09040
 H402 H 0.45077 0.30551 0.06036
 H403 H 0.55601 0.24238 0.14447
 H404 H 0.59774 0.22506 0.12277
 H405 H 0.55004 0.21034 0.04811
 H406 H 0.50976 0.22809 0.07149
 C407 C 0.52630 0.33032 0.17089
 C408 C 0.47064 0.17549 0.18611
 C409 C 0.57753 0.21525 0.08380
 C410 C 0.42386 0.27253 0.07499
 C411 C 0.96805 0.72544 0.66783
 H412 H 0.95784 0.74506 0.66734
 C413 C 0.95704 0.70366 0.68330
 H414 H 0.93816 0.70696 0.69425
 C415 C 1.00339 0.69698 0.65151
 H416 H 1.02082 0.69405 0.63829
 C417 C 0.99311 0.67472 0.66661
 H418 H 1.00285 0.65497 0.66461
 N419 N 0.99079 0.72173 0.65230
 C420 C 1.02827 0.80074 0.63207
 H421 H 1.03163 0.79695 0.61035
 C422 C 1.03755 0.82518 0.64381
 H423 H 1.04886 0.83945 0.63092
 C424 C 1.01103 0.78535 0.67518
 H425 H 1.00101 0.76957 0.68736
 C426 C 1.01978 0.80975 0.68777
 H427 H 1.01679 0.81219 0.70977
 Zn428 Zn 1.00252 0.75024 0.62818
 N429 N 1.01496 0.78160 0.64766
 C430 C 0.96243 0.78611 0.60774
 N431 N 0.97212 0.76017 0.60558
 C432 C 0.95878 0.74111 0.58983
 C433 C 0.93482 0.74803 0.57521
 C434 C 0.93856 0.79377 0.59381
 C435 C 1.05635 0.73455 0.62134
 C436 C 1.07928 0.72413 0.60823
 C437 C 1.05288 0.72140 0.56577
 C438 C 1.03043 0.73217 0.57971
 N439 N 1.03239 0.73782 0.60716
 H440 H 0.97258 0.80075 0.62111
 H441 H 0.96632 0.72031 0.58926
 H442 H 0.92421 0.73217 0.56370
 H443 H 0.93078 0.81426 0.59683
 H444 H 1.05745 0.73962 0.64308
 H445 H 1.09806 0.72140 0.62007
 H446 H 1.05044 0.71709 0.54403
 H447 H 1.01140 0.73561 0.56864
 C448 C 1.03246 0.83056 0.67186
 C449 C 0.96972 0.67779 0.68303
 C450 C 1.07765 0.71653 0.58025
 C451 C 0.92442 0.77483 0.57694
 C452 C 0.52683 0.72410 0.33999
 H453 H 0.53664 0.74413 0.33956
 C454 C 0.53881 0.70212 0.32633
 H455 H 0.55727 0.70613 0.31481
 C456 C 0.49083 0.69529 0.35592
 H457 H 0.47257 0.69240 0.36807
 C458 C 0.50199 0.67284 0.34246
 H459 H 0.49173 0.65306 0.34400
 N460 N 0.50354 0.72025 0.35481
 C461 C 0.46668 0.79960 0.37117
 H462 H 0.46360 0.79672 0.39314
 C463 C 0.45766 0.82350 0.35818
 H464 H 0.44727 0.83865 0.37046
 C465 C 0.48315 0.78260 0.32880
 H466 H 0.49273 0.76632 0.31742
 C467 C 0.47447 0.80635 0.31483
 H468 H 0.47713 0.80727 0.29269
 Zn469 Zn 0.49148 0.74923 0.37749
 N470 N 0.47959 0.77997 0.35655
 C471 C 0.53042 0.78619 0.40045
 N472 N 0.52161 0.75964 0.40030
 C473 C 0.53543 0.73984 0.41453
 C474 C 0.55939 0.74636 0.42937
 C475 C 0.55402 0.79365 0.41517
 C476 C 0.43769 0.73154 0.38505
 C477 C 0.41460 0.72225 0.39922
 C478 C 0.44037 0.72553 0.44205
 C479 C 0.46308 0.73467 0.42696
 N480 N 0.46140 0.73721 0.39896
 H481 H 0.51958 0.80162 0.38865
 H482 H 0.52816 0.71879 0.41376
 H483 H 0.56991 0.72995 0.43999
 H484 H 0.56080 0.81489 0.41475
 H485 H 0.43691 0.73384 0.36276
 H486 H 0.39622 0.71704 0.38755
 H487 H 0.44279 0.72274 0.46411
 H488 H 0.48212 0.73942 0.43763
 C489 C 0.46215 0.82786 0.32964
 C490 C 0.52693 0.67567 0.32829
 C491 C 0.41549 0.71938 0.42820
 C492 C 0.56927 0.77364 0.42957
 C493 C 0.38902 -0.03653 0.29691
 H494 H 0.37623 -0.02606 0.31146
 C495 C 0.40277 -0.06012 0.30539
 H496 H 0.40051 -0.06727 0.32653
 C497 C 0.40624 -0.04084 0.25156
 H498 H 0.40692 -0.03343 0.23041
 C499 C 0.42023 -0.06476 0.25911
 H500 H 0.43132 -0.07532 0.24327
 N501 N 0.39102 -0.02728 0.27041
 C502 C 0.37837 0.05700 0.24239
 H503 H 0.35626 0.05750 0.24403
 C504 C 0.39275 0.08045 0.23410
 H505 H 0.38144 0.09889 0.22907
 C506 C 0.41965 0.03195 0.24625
 H507 H 0.42998 0.01291 0.25093
 C508 C 0.43493 0.05504 0.23799
 H509 H 0.45682 0.05289 0.23590
 Zn510 Zn 0.36966 0.00305 0.25864
 N511 N 0.39187 0.03330 0.24796
 C512 C 0.36199 0.02770 0.30909
 N513 N 0.34794 0.01520 0.28823
 C514 C 0.32012 0.01281 0.28864
 C515 C 0.30537 0.02279 0.31110
 C516 C 0.34817 0.03802 0.33173
 C517 C 0.35056 0.00431 0.20325
 C518 C 0.33679 -0.00574 0.17996
 C519 C 0.31771 -0.04218 0.20816
 C520 C 0.33181 -0.03133 0.23100
 N521 N 0.34789 -0.00854 0.22816
 H522 H 0.38409 0.02972 0.30800
 H523 H 0.30929 0.00334 0.27152
 H524 H 0.28330 0.02087 0.31052
 H525 H 0.35985 0.04810 0.34799
 H526 H 0.36409 0.02185 0.20109
 H527 H 0.33985 0.00440 0.16019
 H528 H 0.30610 -0.06091 0.21113
 H529 H 0.33067 -0.04162 0.25089
 C530 C 0.42148 0.07989 0.23188
 C531 C 0.41872 -0.07482 0.28652
 C532 C 0.32007 -0.02934 0.18204
 C533 C 0.31946 0.03547 0.33327
 C534 C 0.08521 1.03053 0.78827
 H535 H 0.08591 1.01095 0.79898
 C536 C 0.07089 1.05237 0.79973
 H537 H 0.06028 1.04866 0.81887
 C538 C 0.09900 1.05848 0.75052
 H539 H 0.11049 1.06112 0.73170
 C540 C 0.08486 1.08073 0.76110
 H541 H 0.08541 1.10014 0.75000
 N542 N 0.09924 1.03405 0.76432
 C543 C 0.11642 0.95713 0.72339
 H544 H 0.13767 0.96149 0.71862
 C545 C 0.10392 0.93334 0.71343
 H546 H 0.11562 0.91982 0.70047
 C547 C 0.07538 0.97015 0.74534
 H548 H 0.06432 0.98478 0.75755
 C549 C 0.06207 0.94628 0.73602
 H550 H 0.04064 0.94340 0.74081
 Zn551 Zn 0.12237 1.00566 0.75211
 N552 N 0.10219 0.97486 0.73920
 C553 C 0.14541 0.96755 0.78934
 N554 N 0.14481 0.99458 0.78232
 C555 C 0.15858 1.01367 0.79760
 C556 C 0.17369 1.00580 0.82111
 C557 C 0.16026 0.95879 0.81244
 C558 C 0.13060 1.02217 0.69770
 C559 C 0.14468 1.03220 0.67478
 C560 C 0.18603 1.03449 0.70269
 C561 C 0.17111 1.02415 0.72511
 N562 N 0.14381 1.01874 0.72235
 H563 H 0.13404 0.95265 0.77730
 H564 H 0.15744 1.03513 0.79178
 H565 H 0.18399 1.02171 0.83274
 H566 H 0.16019 0.93711 0.81766
 H567 H 0.10894 1.01730 0.69598
 H568 H 0.13367 1.03495 0.65539
 H569 H 0.20761 1.03855 0.70579
 H570 H 0.18134 1.02070 0.74475
 C571 C 0.07657 0.92709 0.72027
 C572 C 0.07122 1.07828 0.78651
 C573 C 0.17269 1.03919 0.67709
 C574 C 0.17461 0.97787 0.82905
 C575 C 0.58532 0.53127 0.28305
 H576 H 0.58668 0.51165 0.29361
 C577 C 0.57202 0.55312 0.29566
 H578 H 0.56259 0.54934 0.31543
 C579 C 0.59643 0.55931 0.24448
 H580 H 0.60648 0.56195 0.22482
 C581 C 0.58323 0.58159 0.25621
 H582 H 0.58294 0.60101 0.24513
 N583 N 0.59759 0.53484 0.25814
 C584 C 0.61176 0.45811 0.21557
 H585 H 0.63247 0.46260 0.20895
 C586 C 0.59848 0.43437 0.20646
 H587 H 0.60904 0.42098 0.19240
 C588 C 0.57286 0.47061 0.24140
 H589 H 0.56291 0.48499 0.25482
 C590 C 0.55886 0.44678 0.23302
 H591 H 0.53805 0.44370 0.23988
 Zn592 Zn 0.61993 0.50644 0.24446
 N593 N 0.59896 0.47559 0.23287
 C594 C 0.64655 0.46848 0.27959
 N595 N 0.64410 0.49558 0.27332
 C596 C 0.65718 0.51510 0.28866
 C597 C 0.67317 0.50764 0.31169
 C598 C 0.66244 0.46012 0.30218
 C599 C 0.62541 0.52315 0.18957
 C600 C 0.63847 0.53307 0.16598
 C601 C 0.68103 0.53528 0.19196
 C602 C 0.66710 0.52506 0.21507
 N603 N 0.63974 0.51955 0.21354
 H604 H 0.63579 0.45324 0.26741
 H605 H 0.65460 0.53656 0.28341
 H606 H 0.68268 0.52380 0.32362
 H607 H 0.66380 0.43841 0.30699
 H608 H 0.60365 0.51853 0.18893
 H609 H 0.62646 0.53624 0.14726
 H610 H 0.70250 0.54026 0.19449
 H611 H 0.67812 0.52196 0.23435
 C612 C 0.57189 0.42791 0.21566
 C613 C 0.57165 0.57913 0.28266
 C614 C 0.66674 0.53943 0.16672
 C615 C 0.67579 0.47971 0.31895
 C616 C 0.88601 0.46465 0.78895
 H617 H 0.87308 0.47493 0.80352
 C618 C 0.89978 0.44101 0.79727
 H619 H 0.89750 0.43366 0.81835
 C620 C 0.90381 0.46105 0.74376
 H621 H 0.90485 0.46883 0.72276
 C622 C 0.91784 0.43709 0.75118
 H623 H 0.92968 0.42713 0.73551
 N624 N 0.88820 0.47422 0.76257
 C625 C 0.87543 0.55902 0.73609
 H626 H 0.85330 0.55950 0.73757
 C627 C 0.88989 0.58265 0.72845
 H628 H 0.87862 0.60117 0.72370
 C629 C 0.91666 0.53386 0.73968
 H630 H 0.92693 0.51472 0.74395
 C631 C 0.93201 0.55711 0.73211
 H632 H 0.95391 0.55499 0.73006
 Zn633 Zn 0.86671 0.50456 0.75090
 N634 N 0.88887 0.53518 0.74119
 C635 C 0.85799 0.52847 0.80139
 N636 N 0.84436 0.51594 0.78029
 C637 C 0.81657 0.51311 0.78035
 C638 C 0.80140 0.52282 0.80266
 C639 C 0.84376 0.53848 0.82390
 C640 C 0.84757 0.50733 0.69547
 C641 C 0.83519 0.49706 0.67152
 C642 C 0.81859 0.45819 0.69794
 C643 C 0.83106 0.46940 0.72153
 N644 N 0.84567 0.49325 0.71979
 H645 H 0.88008 0.53079 0.80060
 H646 H 0.80612 0.50354 0.76304
 H647 H 0.77936 0.52060 0.80184
 H648 H 0.85511 0.54865 0.84033
 H649 H 0.85950 0.52607 0.69427
 H650 H 0.83743 0.50839 0.65228
 H651 H 0.80747 0.43909 0.70028
 H652 H 0.82996 0.45855 0.74112
 C653 C 0.91865 0.58213 0.72655
 C654 C 0.91574 0.42652 0.77831
 C655 C 0.82135 0.47160 0.67214
 C656 C 0.81505 0.53563 0.82503
 C657 C 0.28346 0.40018 -0.02510
 H658 H 0.29269 0.40111 -0.00466
 C659 C 0.29522 0.41487 -0.04701
 H660 H 0.31369 0.42660 -0.04287
 C661 C 0.24949 0.38156 -0.05507
 H662 H 0.23224 0.36787 -0.05842
 C663 C 0.26055 0.39586 -0.07752
 H664 H 0.25148 0.39302 -0.09786
 N665 N 0.26088 0.38410 -0.02941
 C666 C 0.22304 0.37138 0.05108
 H667 H 0.22059 0.34930 0.05024
 C668 C 0.21422 0.38559 0.07418
 H669 H 0.20482 0.37425 0.09103
 C670 C 0.23820 0.41277 0.02995
 H671 H 0.24735 0.42326 0.01250
 C672 C 0.22957 0.42789 0.05272
 H673 H 0.23224 0.44987 0.05199
 Zn674 Zn 0.24730 0.36271 0.00050
 N675 N 0.23521 0.38499 0.02978
 C676 C 0.28648 0.34488 0.03945
 N677 N 0.27645 0.34038 0.01352
 C678 C 0.28888 0.32258 -0.00378
 C679 C 0.31250 0.30856 0.00482
 C680 C 0.30987 0.33143 0.04882
 C681 C 0.19430 0.35712 -0.01895
 C682 C 0.17030 0.34433 -0.02818
 C683 C 0.19167 0.30033 -0.02068
 C684 C 0.21551 0.31408 -0.01173
 N685 N 0.21640 0.34199 -0.01129
 H686 H 0.27709 0.35979 0.05264
 H687 H 0.28096 0.31993 -0.02460
 H688 H 0.32228 0.29529 -0.00979
 H689 H 0.31788 0.33606 0.06927
 H690 H 0.19556 0.37929 -0.01825
 H691 H 0.15325 0.35692 -0.03490
 H692 H 0.19195 0.27821 -0.02154
 H693 H 0.23328 0.30246 -0.00532
 C694 C 0.21770 0.41424 0.07556
 C695 C 0.28357 0.41312 -0.07377
 C696 C 0.16845 0.31552 -0.02895
 C697 C 0.32348 0.31305 0.03152
 C698 C 0.76711 0.07127 1.03620
 H699 H 0.76178 0.06138 1.01692
 C700 C 0.77781 0.05568 1.05815
 H701 H 0.77999 0.03383 1.05532
 C702 C 0.76897 0.11144 1.06344
 H703 H 0.76532 0.13322 1.06532
 C704 C 0.77952 0.09668 1.08589
 H705 H 0.78366 0.10732 1.10510
 N706 N 0.76362 0.09876 1.03901
 C707 C 0.71305 0.10218 0.96942
 H708 H 0.69845 0.11463 0.98014
 C709 C 0.70476 0.08861 0.94547
 H710 H 0.68371 0.09062 0.93835
 C711 C 0.75836 0.08602 0.96453
 H712 H 0.77943 0.08578 0.97180
 C713 C 0.75097 0.07217 0.94025
 H714 H 0.76683 0.06165 0.92924
 Zn715 Zn 0.75083 0.12141 1.00972
 N716 N 0.73941 0.10051 0.97865
 C717 C 0.77479 0.16105 0.97506
 N718 N 0.77941 0.14511 0.99779
 C719 C 0.80460 0.14414 1.01006
 C720 C 0.82635 0.15972 0.99953
 C721 C 0.79599 0.17689 0.96374
 C722 C 0.69978 0.12666 1.03401
 C723 C 0.67664 0.13976 1.04394
 C724 C 0.69766 0.18346 1.03256
 C725 C 0.72038 0.16944 1.02256
 N726 N 0.72091 0.14154 1.02328
 H727 H 0.75477 0.16074 0.96516
 H728 H 0.80818 0.13063 1.02751
 H729 H 0.84643 0.15779 1.00910
 H730 H 0.79187 0.18820 0.94485
 H731 H 0.70077 0.10448 1.03436
 H732 H 0.65975 0.12739 1.05167
 H733 H 0.69765 0.20555 1.03085
 H734 H 0.73746 0.18089 1.01403
 C735 C 0.72365 0.07315 0.93039
 C736 C 0.78523 0.06854 1.08325
 C737 C 0.67538 0.16860 1.04378
 C738 C 0.82231 0.17673 0.97617
 C739 C 0.28563 0.58224 0.53024
 H740 H 0.29621 0.58431 0.51078
 C741 C 0.29855 0.56895 0.55248
 H742 H 0.31839 0.56013 0.54897
 C743 C 0.24743 0.59245 0.55800
 H744 H 0.22792 0.60227 0.56055
 C745 C 0.25949 0.57923 0.58069
 H746 H 0.24874 0.57870 0.60020
 N747 N 0.26068 0.59401 0.53340
 C748 C 0.21043 0.60087 0.46121
 H749 H 0.19736 0.61631 0.46978
 C750 C 0.20208 0.58755 0.43713
 H751 H 0.18228 0.59241 0.42806
 C752 C 0.25236 0.57681 0.46166
 H753 H 0.27216 0.57301 0.47104
 C754 C 0.24492 0.56317 0.43727
 H755 H 0.25918 0.54873 0.42891
 Zn756 Zn 0.24678 0.61649 0.50418
 N757 N 0.23519 0.59534 0.47309
 C758 C 0.27973 0.64440 0.46543
 N759 N 0.27548 0.64023 0.49288
 C760 C 0.29265 0.65123 0.51226
 C761 C 0.31577 0.66643 0.50427
 C762 C 0.30241 0.65957 0.45653
 C763 C 0.19341 0.62352 0.52403
 C764 C 0.17082 0.63772 0.53369
 C765 C 0.19660 0.68006 0.52905
 C766 C 0.21870 0.66500 0.51920
 N767 N 0.21683 0.63722 0.51717
 H768 H 0.26579 0.63551 0.45036
 H769 H 0.28885 0.64742 0.53398
 H770 H 0.32935 0.67394 0.52031
 H771 H 0.30577 0.66211 0.43453
 H772 H 0.19229 0.60144 0.52187
 H773 H 0.15232 0.62635 0.53881
 H774 H 0.19882 0.70208 0.52999
 H775 H 0.23736 0.67555 0.51320
 C776 C 0.21951 0.56875 0.42437
 C777 C 0.28586 0.56804 0.57854
 C778 C 0.17227 0.66637 0.53696
 C779 C 0.32114 0.67058 0.47594
 C780 C 0.78252 0.89950 0.47824
 H781 H 0.79216 0.90069 0.49847
 C782 C 0.79405 0.91361 0.45583
 H783 H 0.81277 0.92512 0.45941
 C784 C 0.74774 0.88079 0.44928
 H785 H 0.73026 0.86727 0.44653
 C786 C 0.75853 0.89455 0.42636
 H787 H 0.74904 0.89146 0.40625
 N788 N 0.75967 0.88364 0.47467
 C789 C 0.72414 0.87308 0.55654
 H790 H 0.72145 0.85101 0.55625
 C791 C 0.71657 0.88784 0.57975
 H792 H 0.70778 0.87695 0.59722
 C793 C 0.73881 0.91387 0.53392
 H794 H 0.74728 0.92391 0.51587
 C795 C 0.73145 0.92953 0.55680
 H796 H 0.73423 0.95148 0.55548
 Zn797 Zn 0.74652 0.86307 0.50533
 N798 N 0.73550 0.88612 0.53444
 C799 C 0.78713 0.84676 0.54321
 N800 N 0.77570 0.84074 0.51820
 C801 C 0.78679 0.82142 0.50162
 C802 C 0.81016 0.80701 0.51025
 C803 C 0.81046 0.83315 0.55248
 C804 C 0.69309 0.85733 0.48686
 C805 C 0.66903 0.84437 0.47800
 C806 C 0.69033 0.80052 0.48654
 C807 C 0.71419 0.81442 0.49511
 N808 N 0.71520 0.84234 0.49475
 H809 H 0.77895 0.86301 0.55562
 H810 H 0.77797 0.81776 0.48133
 H811 H 0.81903 0.79254 0.49619
 H812 H 0.81973 0.83923 0.57198
 H813 H 0.69443 0.87952 0.48692
 H814 H 0.65203 0.85684 0.47091
 H815 H 0.69059 0.77838 0.48614
 H816 H 0.73192 0.80289 0.50176
 C817 C 0.72059 0.91645 0.58047
 C818 C 0.78187 0.91153 0.42934
 C819 C 0.66716 0.81555 0.47789
 C820 C 0.82230 0.81272 0.53619
 C821 C -0.02680 0.27954 0.40164
 H822 H -0.00668 0.28909 0.40273
 C823 C -0.04870 0.29102 0.41581
 H824 H -0.04495 0.30967 0.42723
 C825 C -0.05604 0.24511 0.38303
 H826 H -0.05911 0.22782 0.36947
 C827 C -0.07848 0.25589 0.39682
 H828 H -0.09854 0.24663 0.39362
 N829 N -0.03074 0.25685 0.38586
 C830 C 0.05017 0.22120 0.37581
 H831 H 0.04941 0.21855 0.35361
 C832 C 0.07364 0.21390 0.39067
 H833 H 0.09083 0.20537 0.37974
 C834 C 0.02862 0.23579 0.41677
 H835 H 0.01094 0.24425 0.42682
 C836 C 0.05178 0.22870 0.43255
 H837 H 0.05107 0.23171 0.45460
 Zn838 Zn -0.00067 0.24370 0.36540
 N839 N 0.02850 0.23244 0.38887
 C840 C 0.03682 0.28444 0.34918
 N841 N 0.01205 0.27303 0.34270
 C842 C -0.00423 0.28415 0.32258
 C843 C 0.00453 0.30745 0.30777
 C844 C 0.04620 0.30768 0.33520
 C845 C -0.01938 0.19037 0.36007
 C846 C -0.02798 0.16626 0.34721
 C847 C -0.01926 0.18760 0.30285
 C848 C -0.01094 0.21150 0.31666
 N849 N -0.01147 0.21250 0.34476
 H850 H 0.04901 0.27626 0.36603
 H851 H -0.02433 0.27534 0.31852
 H852 H -0.00924 0.31623 0.29255
 H853 H 0.06560 0.31684 0.34150
 H854 H -0.01937 0.19166 0.38241
 H855 H -0.03492 0.14917 0.35989
 H856 H -0.01934 0.18784 0.28053
 H857 H -0.00420 0.22922 0.30488
 C858 C 0.07505 0.21804 0.41942
 C859 C -0.07502 0.27890 0.41396
 C860 C -0.02787 0.16438 0.31819
 C861 C 0.03024 0.31952 0.31395
 C862 C 1.02987 0.77723 0.07258
 H863 H 1.00943 0.78435 0.06797
 C864 C 1.05199 0.78757 0.05736
 H865 H 1.04797 0.80286 0.04155
 C866 C 1.05992 0.75089 0.10065
 H867 H 1.06317 0.73747 0.11825
 C868 C 1.08254 0.76068 0.08603
 H869 H 1.10286 0.75461 0.09278
 N870 N 1.03414 0.75915 0.09375
 C871 C 0.96311 0.71177 0.09653
 H872 H 0.97402 0.69596 0.10764
 C873 C 0.93847 0.70499 0.08333
 H874 H 0.93116 0.68392 0.08416
 C875 C 0.95821 0.75837 0.08345
 H876 H 0.96546 0.77938 0.08456
 C877 C 0.93327 0.75249 0.07001
 H878 H 0.92219 0.76930 0.06068
 Zn879 Zn 1.00493 0.74732 0.11694
 N880 N 0.97273 0.73806 0.09619
 C881 C 0.97244 0.77344 0.15596
 N882 N 0.99580 0.77600 0.14103
 C883 C 1.01132 0.79933 0.14183
 C884 C 1.00332 0.82146 0.15794
 C885 C 0.96364 0.79509 0.17228
 C886 C 1.02551 0.69430 0.12295
 C887 C 1.03522 0.67104 0.13663
 C888 C 1.02791 0.69358 0.18023
 C889 C 1.01795 0.71637 0.16564
 N890 N 1.01698 0.71632 0.13751
 H891 H 0.96022 0.75484 0.15450
 H892 H 1.02960 0.80106 0.12943
 H893 H 1.01542 0.84016 0.15705
 H894 H 0.94433 0.79300 0.18301
 H895 H 1.02473 0.69486 0.10057
 H896 H 1.04145 0.65360 0.12454
 H897 H 1.02790 0.69420 0.20254
 H898 H 1.01116 0.73414 0.17683
 C899 C 0.92300 0.72537 0.06981
 C900 C 1.07887 0.77905 0.06375
 C901 C 1.03722 0.67056 0.16569
 C902 C 0.97926 0.81952 0.17375
 C903 C 0.53623 0.29164 0.58605
 H904 H 0.51703 0.30234 0.58784
 C905 C 0.55808 0.30430 0.57222
 H906 H 0.55453 0.32407 0.56275
 C907 C 0.56379 0.25339 0.59733
 H908 H 0.56647 0.23395 0.60776
 C909 C 0.58605 0.26517 0.58359
 H910 H 0.60531 0.25427 0.58327
 N911 N 0.53948 0.26677 0.59861
 C912 C 0.46755 0.21725 0.60573
 H913 H 0.47671 0.20336 0.62056
 C914 C 0.44302 0.20962 0.59280
 H915 H 0.43419 0.18960 0.59734
 C916 C 0.46684 0.26047 0.58311
 H917 H 0.47586 0.28053 0.57985
 C918 C 0.44200 0.25374 0.56985
 H919 H 0.43292 0.26885 0.55625
 Zn920 Zn 0.51092 0.25279 0.62158
 N921 N 0.47912 0.24229 0.60069
 C922 C 0.47396 0.28282 0.65314
 N923 N 0.50075 0.28084 0.64606
 C924 C 0.51967 0.29976 0.65454
 C925 C 0.51169 0.32239 0.67004
 C926 C 0.46511 0.30498 0.66865
 C927 C 0.53020 0.19900 0.62768
 C928 C 0.53997 0.17585 0.64153
 C929 C 0.53686 0.20029 0.68464
 C930 C 0.52688 0.22299 0.66991
 N931 N 0.52398 0.22202 0.64193
 H932 H 0.45928 0.26755 0.64612
 H933 H 0.54086 0.29775 0.64849
 H934 H 0.52714 0.33751 0.67532
 H935 H 0.44350 0.30661 0.67332
 H936 H 0.52749 0.19866 0.60544
 H937 H 0.54461 0.15770 0.62972
 H938 H 0.53857 0.20182 0.70683
 H939 H 0.52152 0.24142 0.68086
 C940 C 0.42952 0.22801 0.57486
 C941 C 0.58382 0.29142 0.57156
 C942 C 0.54400 0.17630 0.67038
 C943 C 0.48392 0.32544 0.67713
 C944 C 0.46778 0.78729 0.90420
 H945 H 0.48720 0.79825 0.90458
 C946 C 0.44613 0.79644 0.92031
 H947 H 0.44924 0.81459 0.93276
 C948 C 0.43963 0.75218 0.88522
 H949 H 0.43679 0.73555 0.87078
 C950 C 0.41745 0.76063 0.90098
 H951 H 0.39784 0.75040 0.89807
 N952 N 0.46426 0.76545 0.88711
 C953 C 0.54548 0.73292 0.87020
 H954 H 0.54256 0.72808 0.84860
 C955 C 0.56970 0.72528 0.88358
 H956 H 0.58540 0.71504 0.87190
 C957 C 0.52782 0.75017 0.91194
 H958 H 0.51122 0.75922 0.92316
 C959 C 0.55177 0.74277 0.92623
 H960 H 0.55269 0.74633 0.94821
 Zn961 Zn 0.49339 0.75506 0.86345
 N962 N 0.52530 0.74563 0.88428
 C963 C 0.52427 0.78338 0.82253
 N964 N 0.50210 0.78494 0.83927
 C965 C 0.48755 0.80856 0.84086
 C966 C 0.49682 0.83251 0.82774
 C967 C 0.53417 0.80677 0.80892
 C968 C 0.47903 0.70037 0.85917
 C969 C 0.47133 0.67576 0.84675
 C970 C 0.47226 0.69865 0.80224
 C971 C 0.47974 0.72304 0.81564
 N972 N 0.48291 0.72338 0.84362
 H973 H 0.53504 0.76429 0.82054
 H974 H 0.46918 0.80924 0.85311
 H975 H 0.48494 0.85085 0.83016
 H976 H 0.55260 0.80532 0.79669
 H977 H 0.48160 0.70131 0.88141
 H978 H 0.46755 0.65794 0.85975
 H979 H 0.46903 0.69925 0.78011
 H980 H 0.48273 0.74171 0.80375
 C981 C 0.57342 0.73043 0.91195
 C982 C 0.42056 0.78277 0.91930
 C983 C 0.46830 0.67435 0.81782
 C984 C 0.52143 0.83223 0.81274
 C985 C 0.45234 -0.14693 0.31674
 C986 C 0.46144 -0.14069 0.28843
 C987 C 0.45024 -0.11569 0.27725
 C988 C 0.43212 -0.10153 0.29645
 C989 C 0.41136 -0.12197 0.30409
 C990 C 0.42239 -0.14676 0.31519
 C991 C 0.46022 -0.12233 0.33235
 C992 C 0.44903 -0.09750 0.32128
 H993 H 0.47896 -0.14997 0.27867
 H994 H 0.45915 -0.10639 0.25896
 H995 H 0.38946 -0.11927 0.30084
 H996 H 0.40937 -0.16408 0.32096
 H997 H 0.47501 -0.12218 0.34933
 H998 H 0.45463 -0.07748 0.32946
 C999 C 0.95006 0.35478 0.80897
 C1000 C 0.95985 0.38125 0.82338
 C1001 C 0.94894 0.40462 0.81259
 C1002 C 0.92914 0.39991 0.78807
 C1003 C 0.94620 0.38334 0.76734
 C1004 C 0.95713 0.35985 0.77824
 C1005 C 0.91860 0.35579 0.80969
 C1006 C 0.90775 0.37910 0.79881
 H1007 H 0.97477 0.38165 0.84021
 H1008 H 0.95455 0.42481 0.82031
 H1009 H 0.95044 0.38947 0.74623
 H1010 H 0.97049 0.34717 0.76610
 H1011 H 0.90582 0.33917 0.81760
 H1012 H 0.88575 0.38225 0.79746
 C1013 C 0.03801 1.14994 0.81689
 C1014 C 0.06894 1.15158 0.81047
 C1015 C 0.07949 1.12770 0.80109
 C1016 C 0.05854 1.10393 0.79881
 C1017 C 0.04643 1.10176 0.82816
 C1018 C 0.03592 1.12571 0.83752
 C1019 C 0.02442 1.13930 0.79019
 C1020 C 0.03506 1.11543 0.78081
 H1021 H 0.08224 1.16896 0.81494
 H1022 H 0.10125 1.12544 0.79720
 H1023 H 0.04714 1.08382 0.84148
 H1024 H 0.02797 1.12752 0.85832
 H1025 H 0.00772 1.14972 0.77957
 H1026 H 0.02730 1.10546 0.76225
 C1027 C 0.54006 0.65013 0.31623
 C1028 C 0.56976 0.65291 0.30568
 C1029 C 0.57997 0.62926 0.29531
 C1030 C 0.55988 0.60466 0.29610
 C1031 C 0.55185 0.60257 0.32688
 C1032 C 0.54165 0.62623 0.33725
 C1033 C 0.52361 0.63849 0.29162
 C1034 C 0.53389 0.61490 0.28118
 H1035 H 0.58277 0.67092 0.30784
 H1036 H 0.60107 0.62783 0.28851
 H1037 H 0.55547 0.58507 0.34031
 H1038 H 0.53650 0.62817 0.35895
 H1039 H 0.50535 0.64808 0.28307
 H1040 H 0.52429 0.60435 0.26384
 C1041 C 0.53686 0.35687 0.18385
 C1042 C 0.56591 0.35339 0.19581
 C1043 C 0.57683 0.37656 0.20706
 C1044 C 0.55803 0.40174 0.20515
 C1045 C 0.55026 0.40431 0.17437
 C1046 C 0.53906 0.38116 0.16334
 C1047 C 0.52017 0.36862 0.20794
 C1048 C 0.53129 0.39189 0.21920
 H1049 H 0.57672 0.33400 0.19612
 H1050 H 0.59685 0.37673 0.21713
 H1051 H 0.55228 0.42325 0.16253
 H1052 H 0.53126 0.38072 0.14223
 H1053 H 0.50097 0.35999 0.21529
 H1054 H 0.52177 0.40177 0.23659
 C1055 C 0.04300 0.85693 0.68524
 C1056 C 0.04631 0.88169 0.66541
 C1057 C 0.05710 0.90448 0.67752
 C1058 C 0.06334 0.90115 0.70854
 C1059 C 0.03592 0.89115 0.72106
 C1060 C 0.02524 0.86823 0.70873
 C1061 C 0.07143 0.85297 0.69850
 C1062 C 0.08193 0.87581 0.71080
 H1063 H 0.03893 0.88222 0.64417
 H1064 H 0.05944 0.92378 0.66634
 H1065 H 0.02590 0.90046 0.73849
 H1066 H 0.00592 0.85912 0.71519
 H1067 H 0.08212 0.83351 0.69888
 H1068 H 0.10142 0.87560 0.72188
 C1069 C 0.95657 0.65254 0.69639
 C1070 C 0.93992 0.63598 0.67506
 C1071 C 0.92809 0.61279 0.68536
 C1072 C 0.93370 0.60778 0.71629
 C1073 C 0.96527 0.60858 0.71929
 C1074 C 0.97711 0.63192 0.70896
 C1075 C 0.93652 0.65765 0.72026
 C1076 C 0.92465 0.63434 0.73058
 H1077 H 0.93766 0.64204 0.65349
 H1078 H 0.91583 0.59906 0.67253
 H1079 H 0.97736 0.59363 0.73061
 H1080 H 0.99892 0.63613 0.71136
 H1081 H 0.93344 0.67740 0.72988
 H1082 H 0.91133 0.63463 0.74843
 C1083 C 0.45837 0.15009 0.20000
 C1084 C 0.47940 0.12936 0.21148
 C1085 C 0.46797 0.10603 0.22232
 C1086 C 0.43629 0.10540 0.22093
 C1087 C 0.42810 0.13197 0.23571
 C1088 C 0.43958 0.15525 0.22487
 C1089 C 0.44062 0.13366 0.17948
 C1090 C 0.42921 0.11050 0.19030
 H1091 H 0.50129 0.13350 0.21297
 H1092 H 0.48054 0.09104 0.23302
 H1093 H 0.41558 0.13230 0.25416
 H1094 H 0.43701 0.17506 0.23454
 H1095 H 0.43736 0.13977 0.15805
 H1096 H 0.41631 0.09685 0.17804
 C1097 C 0.31754 0.44800 -0.14420
 C1098 C 0.32911 0.46046 -0.11726
 C1099 C 0.31816 0.44961 -0.09373
 C1100 C 0.29637 0.42698 -0.09900
 C1101 C 0.27533 0.44107 -0.11826
 C1102 C 0.28623 0.45196 -0.14183
 C1103 C 0.32159 0.41691 -0.14083
 C1104 C 0.31069 0.40605 -0.11739
 H1105 H 0.34363 0.47751 -0.11679
 H1106 H 0.32323 0.45820 -0.07370
 H1107 H 0.25382 0.44336 -0.11322
 H1108 H 0.27357 0.46351 -0.15618
 H1109 H 0.33210 0.40441 -0.15582
 H1110 H 0.31207 0.38433 -0.11236
 C1111 C 0.81518 0.94442 0.35765
 C1112 C 0.82753 0.95709 0.38413
 C1113 C 0.81679 0.94693 0.40805
 C1114 C 0.79443 0.92468 0.40361
 C1115 C 0.77334 0.93888 0.38448
 C1116 C 0.78402 0.94911 0.36051
 C1117 C 0.81858 0.91330 0.36150
 C1118 C 0.80792 0.90310 0.38534
 H1119 H 0.84239 0.97385 0.38402
 H1120 H 0.82237 0.95583 0.42781
 H1121 H 0.75196 0.94163 0.38982
 H1122 H 0.77130 0.96050 0.34608
 H1123 H 0.82846 0.90027 0.34652
 H1124 H 0.80888 0.88144 0.39070
 C1125 C 0.81903 0.02796 1.15089
 C1126 C 0.82197 0.01267 1.12494
 C1127 C 0.81043 0.02642 1.10125
 C1128 C 0.79817 0.05294 1.10767
 C1129 C 0.77828 0.04708 1.12934
 C1130 C 0.78965 0.03334 1.15298
 C1131 C 0.83188 0.05466 1.14487
 C1132 C 0.82048 0.06831 1.12119
 H1133 H 0.83656 -0.00358 1.12169
 H1134 H 0.81594 0.02013 1.08057
 H1135 H 0.75663 0.05198 1.12765
 H1136 H 0.77715 0.02708 1.17047
 H1137 H 0.84991 0.06263 1.15566
 H1138 H 0.82947 0.08711 1.11293
 C1139 C 0.32039 0.53732 0.65106
 C1140 C 0.31029 0.56718 0.65277
 C1141 C 0.29957 0.57704 0.62862
 C1142 C 0.29966 0.55649 0.60457
 C1143 C 0.33006 0.54808 0.60269
 C1144 C 0.34076 0.53825 0.62688
 C1145 C 0.29562 0.52087 0.63999
 C1146 C 0.28486 0.53081 0.61587
 H1147 H 0.31314 0.58055 0.67039
 H1148 H 0.29306 0.59821 0.62639
 H1149 H 0.34302 0.55100 0.58484
 H1150 H 0.36225 0.53286 0.62895
 H1151 H 0.28723 0.50282 0.65032
 H1152 H 0.26741 0.52114 0.60560
 C1153 C 0.18936 0.53525 0.35152
 C1154 C 0.19072 0.56674 0.35196
 C1155 C 0.20150 0.57733 0.37562
 C1156 C 0.20992 0.55566 0.39736
 C1157 C 0.18418 0.53769 0.40151
 C1158 C 0.17358 0.52698 0.37779
 C1159 C 0.21907 0.52621 0.35788
 C1160 C 0.22983 0.53691 0.38172
 H1161 H 0.18436 0.57967 0.33469
 H1162 H 0.20436 0.59927 0.37840
 H1163 H 0.17548 0.53307 0.42164
 H1164 H 0.15596 0.51316 0.37783
 H1165 H 0.23065 0.51195 0.34563
 H1166 H 0.25044 0.53189 0.38844
 C1167 C 0.69406 0.04003 0.85723
 C1168 C 0.67830 0.03216 0.88180
 C1169 C 0.68915 0.04313 0.90701
 C1170 C 0.71392 0.05991 0.90333
 C1171 C 0.73296 0.04170 0.88918
 C1172 C 0.72201 0.03068 0.86378
 C1173 C 0.69581 0.06999 0.85763
 C1174 C 0.70666 0.08082 0.88280
 H1175 H 0.66131 0.01753 0.88163
 H1176 H 0.68085 0.03746 0.92705
 H1177 H 0.75085 0.03253 0.89882
 H1178 H 0.73160 0.01305 0.85452
 H1179 H 0.69027 0.08314 0.84022
 H1180 H 0.70991 0.10271 0.88576
 C1181 C 0.69597 0.95463 0.65224
 C1182 C 0.67281 0.94141 0.63501
 C1183 C 0.68124 0.92961 0.61126
 C1184 C 0.71229 0.93175 0.60645
 C1185 C 0.71891 0.96278 0.60822
 C1186 C 0.71046 0.97459 0.63212
 C1187 C 0.71711 0.93163 0.65676
 C1188 C 0.72552 0.91976 0.63293
 H1189 H 0.65140 0.94141 0.64101
 H1190 H 0.66699 0.91969 0.59701
 H1191 H 0.73073 0.97448 0.59331
 H1192 H 0.71506 0.99590 0.63688
 H1193 H 0.72653 0.92644 0.67651
 H1194 H 0.74141 0.90429 0.63282
 C1195 C 0.18941 0.45032 0.14702
 C1196 C 0.21146 0.42825 0.15181
 C1197 C 0.22101 0.41711 0.12807
 C1198 C 0.20797 0.42887 0.10141
 C1199 C 0.17689 0.42530 0.10535
 C1200 C 0.16730 0.43635 0.12901
 C1201 C 0.20350 0.47119 0.12754
 C1202 C 0.21310 0.46013 0.10373
 H1203 H 0.22066 0.42324 0.17170
 H1204 H 0.23761 0.40241 0.12819
 H1205 H 0.16345 0.41504 0.09056
 H1206 H 0.14574 0.43535 0.13441
 H1207 H 0.20680 0.49266 0.13259
 H1208 H 0.22447 0.47264 0.08913
 C1209 C -0.14434 0.31402 0.44714
 C1210 C -0.13974 0.31983 0.41622
 C1211 C -0.11676 0.30837 0.40591
 C1212 C -0.10004 0.29178 0.42717
 C1213 C -0.09448 0.31173 0.45126
 C1214 C -0.11752 0.32329 0.46153
 C1215 C -0.14381 0.28238 0.44969
 C1216 C -0.12068 0.27090 0.43938
 H1217 H -0.15364 0.33184 0.40338
 H1218 H -0.11104 0.31074 0.38436
 H1219 H -0.07467 0.31494 0.46117
 H1220 H -0.11687 0.33658 0.47946
 H1221 H -0.15915 0.26977 0.45984
 H1222 H -0.11691 0.24902 0.44096
 C1223 C 0.35310 0.81549 0.95812
 C1224 C 0.35113 0.78407 0.95444
 C1225 C 0.37346 0.77300 0.94213
 C1226 C 0.39592 0.79416 0.93440
 C1227 C 0.38111 0.81585 0.91675
 C1228 C 0.35892 0.82689 0.92903
 C1229 C 0.38018 0.81957 0.97438
 C1230 C 0.40246 0.80847 0.96208
 H1231 H 0.33524 0.77100 0.96311
 H1232 H 0.37584 0.75095 0.94048
 H1233 H 0.38754 0.82195 0.89614
 H1234 H 0.34642 0.84236 0.91882
 H1235 H 0.38148 0.82907 0.99461
 H1236 H 0.42247 0.80838 0.97214
 C1237 C 1.14773 0.81600 0.02970
 C1238 C 1.12219 0.81737 0.01048
 C1239 C 1.09941 0.80490 0.02113
 C1240 C 1.10385 0.79220 0.05013
 C1241 C 1.12818 0.77268 0.04611
 C1242 C 1.15100 0.78510 0.03559
 C1243 C 1.13809 0.82813 0.05716
 C1244 C 1.11542 0.81575 0.06776
 H1245 H 1.12198 0.82521 -0.01053
 H1246 H 1.08082 0.80241 0.00884
 H1247 H 1.12719 0.75070 0.04990
 H1248 H 1.16934 0.77371 0.03073
 H1249 H 1.14817 0.84535 0.06732
 H1250 H 1.10626 0.82239 0.08694
 C1251 C 0.65512 0.32476 0.53868
 C1252 C 0.64335 0.29994 0.52299
 C1253 C 0.61964 0.28959 0.53365
 C1254 C 0.60942 0.30482 0.55922
 C1255 C 0.63391 0.30470 0.57963
 C1256 C 0.65765 0.31502 0.56905
 C1257 C 0.63142 0.34546 0.53935
 C1258 C 0.60762 0.33516 0.54990
 H1259 H 0.65292 0.29122 0.50492
 H1260 H 0.60896 0.27214 0.52455
 H1261 H 0.63228 0.29853 0.60120
 H1262 H 0.67558 0.31795 0.58217
 H1263 H 0.63357 0.36691 0.53342
 H1264 H 0.59020 0.34838 0.55283
 C1265 C 0.35534 0.19961 0.54307
 C1266 C 0.36172 0.22939 0.53372
 C1267 C 0.38603 0.23958 0.54380
 C1268 C 0.40202 0.21910 0.56233
 C1269 C 0.38134 0.21072 0.58477
 C1270 C 0.35721 0.20053 0.57478
 C1271 C 0.38072 0.18351 0.53410
 C1272 C 0.40489 0.19356 0.54417
 H1273 H 0.34905 0.24150 0.51985
 H1274 H 0.39286 0.26012 0.53844
 H1275 H 0.38515 0.21318 0.60679
 H1276 H 0.34057 0.19431 0.58831
 H1277 H 0.37981 0.16601 0.52032
 H1278 H 0.42446 0.18457 0.53900
 C1279 C 0.84873 0.69852 0.03693
 C1280 C 0.87417 0.68407 0.02564
 C1281 C 0.89840 0.69368 0.03601
 C1282 C 0.89549 0.71706 0.05694
 C1283 C 0.87862 0.73890 0.04104
 C1284 C 0.85424 0.72923 0.03061
 C1285 C 0.85146 0.69622 0.06855
 C1286 C 0.87566 0.70583 0.07892
 H1287 H 0.87323 0.66808 0.01012
 H1288 H 0.91800 0.68585 0.02929
 H1289 H 0.88526 0.75980 0.03701
 H1290 H 0.84115 0.74232 0.01814
 H1291 H 0.83535 0.68820 0.08180
 H1292 H 0.88010 0.70597 0.10098
 C1293 C 0.64582 0.70208 0.94690
 C1294 C 0.64973 0.72170 0.92197
 C1295 C 0.62578 0.73143 0.91116
 C1296 C 0.59985 0.72092 0.92597
 C1297 C 0.60207 0.68950 0.92566
 C1298 C 0.62591 0.67976 0.93640
 C1299 C 0.62892 0.71901 0.96729
 C1300 C 0.60497 0.72882 0.95651
 H1301 H 0.66930 0.72923 0.91452
 H1302 H 0.62540 0.74650 0.89448
 H1303 H 0.58605 0.67597 0.91770
 H1304 H 0.63022 0.65794 0.93744
 H1305 H 0.63585 0.72395 0.98810
 H1306 H 0.59222 0.74227 0.96847
 C1307 C 0.14818 0.19564 0.45731
 C1308 C 0.15115 0.21733 0.43409
 C1309 C 0.12685 0.22494 0.42235
 C1310 C 0.10148 0.21045 0.43468
 C1311 C 0.10747 0.17966 0.43250
 C1312 C 0.13169 0.17201 0.44415
 C1313 C 0.12819 0.20894 0.47762
 C1314 C 0.10381 0.21659 0.46595
 H1315 H 0.17017 0.22762 0.42863
 H1316 H 0.12565 0.24103 0.40672
 H1317 H 0.09363 0.16498 0.42270
 H1318 H 0.13852 0.15085 0.44413
 H1319 H 0.13323 0.21316 0.49911
 H1320 H 0.08872 0.22725 0.47799
 C1321 C 0.57454 0.10494 0.70568
 C1322 C 0.57312 0.12864 0.72644
 C1323 C 0.56328 0.15252 0.71558
 C1324 C 0.55540 0.15075 0.68462
 C1325 C 0.58167 0.14055 0.67078
 C1326 C 0.59138 0.11663 0.68145
 C1327 C 0.54512 0.10244 0.69373
 C1328 C 0.53526 0.12630 0.68291
 H1329 H 0.57984 0.12689 0.74787
 H1330 H 0.56239 0.17082 0.72807
 H1331 H 0.59183 0.15126 0.65389
 H1332 H 0.60951 0.10689 0.67332
 H1333 H 0.53306 0.08370 0.69262
 H1334 H 0.51502 0.12757 0.67342
 C1335 C 1.06731 0.59922 0.20135
 C1336 C 1.03813 0.59668 0.18886
 C1337 C 1.02845 0.62054 0.17785
 C1338 C 1.04852 0.64499 0.17994
 C1339 C 1.05590 0.64679 0.21102
 C1340 C 1.06557 0.62291 0.22206
 C1341 C 1.08457 0.61091 0.17740
 C1342 C 1.07508 0.63485 0.16660
 H1343 H 1.02622 0.57787 0.18739
 H1344 H 1.00842 0.62177 0.16789
 H1345 H 1.05517 0.66525 0.22331
 H1346 H 1.07218 0.62125 0.24353
 H1347 H 1.10288 0.60121 0.16960
 H1348 H 1.08566 0.64565 0.15005
 C1349 C 0.94611 0.88676 0.21259
 C1350 C 0.97757 0.88891 0.20955
 C1351 C 0.98896 0.86673 0.19721
 C1352 C 0.96801 0.84425 0.18881
 C1353 C 0.95326 0.83739 0.21610
 C1354 C 0.94186 0.85951 0.22845
 C1355 C 0.93526 0.88119 0.18321
 C1356 C 0.94659 0.85915 0.17091
 H1357 H 0.99043 0.90471 0.21876
 H1358 H 1.01104 0.86442 0.19632
 H1359 H 0.95299 0.81716 0.22569
 H1360 H 0.93183 0.85795 0.24836
 H1361 H 0.91998 0.89376 0.17280
 H1362 H 0.94091 0.85294 0.15007
 C1363 C 0.45016 0.39357 0.71391
 C1364 C 0.48185 0.39448 0.71446
 C1365 C 0.49373 0.37221 0.70270
 C1366 C 0.47294 0.35082 0.69136
 C1367 C 0.45493 0.34386 0.71648
 C1368 C 0.44312 0.36606 0.72822
 C1369 C 0.44248 0.38938 0.68335
 C1370 C 0.45429 0.36728 0.67166
 H1371 H 0.49419 0.40965 0.72530
 H1372 H 0.51571 0.36942 0.70397
 H1373 H 0.45245 0.32327 0.72493
 H1374 H 0.43067 0.36428 0.74666
 H1375 H 0.42907 0.40301 0.67170
 H1376 H 0.45093 0.36213 0.65006
 C1377 C 0.43940 0.60060 0.78627
 C1378 C 0.45133 0.61976 0.76362
 C1379 C 0.46135 0.64413 0.77344
 C1380 C 0.45846 0.64747 0.80501
 C1381 C 0.42785 0.64252 0.81047
 C1382 C 0.41792 0.61834 0.80064
 C1383 C 0.46294 0.59773 0.80746
 C1384 C 0.47297 0.62202 0.81707
 H1385 H 0.45275 0.61487 0.74189
 H1386 H 0.47159 0.65872 0.75990
 H1387 H 0.41486 0.65719 0.82076
 H1388 H 0.39644 0.61253 0.80250
 H1389 H 0.47169 0.57817 0.81362
 H1390 H 0.49038 0.62302 0.83124
 C1391 C -0.05964 0.09210 0.28587
 C1392 C -0.03695 0.08818 0.30785
 C1393 C -0.02603 0.11202 0.31767
 C1394 C -0.03874 0.13809 0.30493
 C1395 C -0.03503 0.13432 0.27348
 C1396 C -0.04597 0.11038 0.26352
 C1397 C -0.08060 0.11105 0.29937
 C1398 C -0.06975 0.13479 0.30933
 H1399 H -0.02946 0.06824 0.31447
 H1400 H -0.00921 0.11227 0.33258
 H1401 H -0.02362 0.14815 0.26013
 H1402 H -0.04383 0.10506 0.24197
 H1403 H -0.10239 0.10637 0.30055
 H1404 H -0.08230 0.15023 0.31902
 C1405 C 0.06013 0.39308 0.28249
 C1406 C 0.03609 0.38151 0.26487
 C1407 C 0.02583 0.35700 0.27441
 C1408 C 0.04032 0.34629 0.30090
 C1409 C 0.07078 0.34543 0.29290
 C1410 C 0.08106 0.36974 0.28358
 C1411 C 0.04830 0.39438 0.31185
 C1412 C 0.03825 0.37007 0.32144
 H1413 H 0.02730 0.39161 0.24685
 H1414 H 0.00930 0.34643 0.26362
 H1415 H 0.08307 0.32697 0.29369
 H1416 H 0.10210 0.37195 0.27664
 H1417 H 0.04708 0.41309 0.32380
 H1418 H 0.02874 0.36813 0.34159
 C1419 C 0.56272 0.90105 0.78298
 C1420 C 0.57990 0.88184 0.80154
 C1421 C 0.56578 0.85990 0.81170
 C1422 C 0.53560 0.85826 0.80204
 C1423 C 0.52366 0.88618 0.81058
 C1424 C 0.53775 0.90827 0.80054
 C1425 C 0.55103 0.88196 0.76025
 C1426 C 0.53690 0.85977 0.77029
 H1427 H 0.60150 0.88520 0.80630
 H1428 H 0.57533 0.84494 0.82539
 H1429 H 0.50632 0.88901 0.82401
 H1430 H 0.53189 0.92919 0.80511
 H1431 H 0.55404 0.88466 0.73824
 H1432 H 0.52782 0.84435 0.75681
 C1433 C 0.69874 0.57475 0.09565
 C1434 C 0.67783 0.59102 0.10944
 C1435 C 0.66782 0.57876 0.13432
 C1436 C 0.67985 0.55207 0.14082
 C1437 C 0.67515 0.53550 0.11605
 C1438 C 0.68519 0.54803 0.09114
 C1439 C 0.71983 0.56952 0.11673
 C1440 C 0.70958 0.55699 0.14148
 H1441 H 0.66912 0.60980 0.10102
 H1442 H 0.65177 0.58814 0.14637
 H1443 H 0.66359 0.51632 0.11589
 H1444 H 0.67955 0.53963 0.07115
 H1445 H 0.74169 0.57227 0.11323
 H1446 H 0.72372 0.54884 0.15680
 C1447 C 0.20790 1.07239 0.60654
 C1448 C 0.22766 1.07257 0.63155
 C1449 C 0.21684 1.06185 0.65521
 C1450 C 0.18692 1.05156 0.65190
 C1451 C 0.17150 1.07661 0.64031
 C1452 C 0.18218 1.08720 0.61665
 C1453 C 0.19864 1.04209 0.60399
 C1454 C 0.18783 1.03136 0.62764
 H1455 H 0.24846 1.08072 0.63076
 H1456 H 0.22876 1.06155 0.67421
 H1457 H 0.15360 1.08536 0.64996
 H1458 H 0.17312 1.10471 0.60608
 H1459 H 0.19992 1.02974 0.58556
 H1460 H 0.18048 1.01028 0.62896
 C1461 C 0.21336 0.94461 0.89806
 C1462 C 0.21741 0.97437 0.89618
 C1463 C 0.20441 0.98679 0.87251
 C1464 C 0.18958 0.96707 0.85492
 C1465 C 0.21004 0.94658 0.84794
 C1466 C 0.22285 0.93397 0.87147
 C1467 C 0.18355 0.94030 0.89693
 C1468 C 0.17055 0.95294 0.87357
 H1469 H 0.22977 0.98618 0.91076
 H1470 H 0.20676 1.00853 0.86842
 H1471 H 0.21378 0.93965 0.82702
 H1472 H 0.23485 0.91558 0.86882
 H1473 H 0.17206 0.92774 0.91154
 H1474 H 0.14854 0.95140 0.86998
 C1475 C 0.71606 0.44797 0.38778
 C1476 C 0.71891 0.47953 0.38582
 C1477 C 0.70595 0.49083 0.36334
 C1478 C 0.69127 0.46959 0.34457
 C1479 C 0.71398 0.44921 0.33740
 C1480 C 0.72692 0.43805 0.35980
 C1481 C 0.68501 0.44246 0.38655
 C1482 C 0.67215 0.45372 0.36425
 H1483 H 0.73145 0.49203 0.39952
 H1484 H 0.70765 0.51261 0.35906
 H1485 H 0.71997 0.44460 0.31638
 H1486 H 0.74397 0.42406 0.35775
 H1487 H 0.67392 0.43101 0.40232
 H1488 H 0.65012 0.45188 0.36111
 C1489 C 0.79490 0.44133 0.59636
 C1490 C 0.79124 0.42051 0.62010
 C1491 C 0.79966 0.42974 0.64532
 C1492 C 0.81111 0.45941 0.64486
 C1493 C 0.83389 0.45873 0.62302
 C1494 C 0.82542 0.44974 0.59777
 C1495 C 0.77979 0.46721 0.60595
 C1496 C 0.78819 0.47646 0.63123
 H1497 H 0.78312 0.39987 0.61719
 H1498 H 0.79887 0.41637 0.66327
 H1499 H 0.85497 0.46513 0.62698
 H1500 H 0.83920 0.44910 0.58029
 H1501 H 0.76492 0.47842 0.59358
 H1502 H 0.77988 0.49487 0.64034
 C1503 C 0.28926 -0.06043 0.10834
 C1504 C 0.27718 -0.07498 0.13393
 C1505 C 0.28666 -0.06512 0.15856
 C1506 C 0.30762 -0.04131 0.15564
 C1507 C 0.32998 -0.05254 0.13677
 C1508 C 0.32049 -0.06234 0.11224
 C1509 C 0.28280 -0.02984 0.11305
 C1510 C 0.29234 -0.02001 0.13770
 H1511 H 0.26134 -0.09078 0.13276
 H1512 H 0.27814 -0.07247 0.17787
 H1513 H 0.35164 -0.05271 0.14229
 H1514 H 0.33410 -0.07068 0.09683
 H1515 H 0.27048 -0.01707 0.09947
 H1516 H 0.28828 0.00078 0.14438
 C1517 C 0.28472 0.07106 0.40194
 C1518 C 0.30699 0.04977 0.40848
 C1519 C 0.31757 0.03763 0.38581
 C1520 C 0.30522 0.04774 0.35816
 C1521 C 0.27405 0.04288 0.36155
 C1522 C 0.26335 0.05507 0.38435
 C1523 C 0.29801 0.09120 0.38127
 C1524 C 0.30868 0.07910 0.35865
 H1525 H 0.31337 0.04416 0.42935
 H1526 H 0.33290 0.02166 0.38745
 H1527 H 0.26133 0.03021 0.34821
 H1528 H 0.24186 0.05256 0.38928
 H1529 H 0.29846 0.11331 0.38395
 H1530 H 0.31822 0.09093 0.34215
 C1531 C 0.77931 0.57105 0.89323
 C1532 C 0.80150 0.54976 0.90004
 C1533 C 0.81239 0.53765 0.87750
 C1534 C 0.80040 0.54780 0.84971
 C1535 C 0.76919 0.54291 0.85267
 C1536 C 0.75817 0.55506 0.87535
 C1537 C 0.79285 0.59122 0.87276
 C1538 C 0.80382 0.57917 0.85028
 H1539 H 0.80756 0.54408 0.92098
 H1540 H 0.82768 0.52165 0.87933
 H1541 H 0.75668 0.53021 0.83915
 H1542 H 0.73664 0.55247 0.88006
 H1543 H 0.79328 0.61333 0.87548
 H1544 H 0.81360 0.59103 0.83394
 C1545 C 0.10260 0.70329 0.56726
 C1546 C 0.12728 0.72313 0.56567
 C1547 C 0.15062 0.71169 0.55593
 C1548 C 0.14736 0.68110 0.54829
 C1549 C 0.13646 0.66751 0.57491
 C1550 C 0.11308 0.67878 0.58453
 C1551 C 0.09958 0.69174 0.53772
 C1552 C 0.12290 0.68031 0.52795
 H1553 H 0.12660 0.74436 0.57229
 H1554 H 0.16956 0.72344 0.55512
 H1555 H 0.14635 0.65042 0.58540
 H1556 H 0.10296 0.67094 0.60293
 H1557 H 0.08088 0.69148 0.52546
 H1558 H 0.12377 0.67107 0.50761
 C1559 C 0.60335 0.20277 1.07179
 C1560 C 0.62654 0.22411 1.06819
 C1561 C 0.65063 0.21355 1.05925
 C1562 C 0.64954 0.18228 1.05433
 C1563 C 0.63984 0.17032 1.08218
 C1564 C 0.61571 0.18067 1.09103
 C1565 C 0.60103 0.18852 1.04343
 C1566 C 0.62508 0.17798 1.03446
 H1567 H 0.62442 0.24569 1.07316
 H1568 H 0.66881 0.22638 1.05755
 H1569 H 0.65111 0.15510 1.09411
 H1570 H 0.60635 0.17385 1.11021
 H1571 H 0.58234 0.18584 1.03145
 H1572 H 0.62650 0.16708 1.01502
 C1573 C 0.89010 0.21299 0.93959
 C1574 C 0.86426 0.22612 0.93138
 C1575 C 0.84052 0.21411 0.94410
 C1576 C 0.84692 0.19116 0.96280
 C1577 C 0.86255 0.17194 0.94637
 C1578 C 0.88617 0.18383 0.93372
 C1579 C 0.89038 0.21496 0.96994
 C1580 C 0.86663 0.20288 0.98263
 H1581 H 0.86312 0.24533 0.91986
 H1582 H 0.82086 0.22433 0.94312
 H1583 H 0.85705 0.15042 0.94390
 H1584 H 0.89994 0.17185 0.92115
 H1585 H 0.90381 0.22846 0.98176
 H1586 H 0.86215 0.20602 1.00434
 C1587 C 0.39053 0.70748 0.44296
 C1588 C 0.38973 0.70973 0.47479
 C1589 C 0.36707 0.69791 0.48643
 C1590 C 0.34697 0.68485 0.46525
 C1591 C 0.34060 0.70849 0.44495
 C1592 C 0.36322 0.72031 0.43342
 C1593 C 0.38722 0.67669 0.43722
 C1594 C 0.36471 0.66494 0.44881
 H1595 H 0.40410 0.72164 0.48718
 H1596 H 0.36326 0.70007 0.50832
 H1597 H 0.32005 0.71598 0.44078
 H1598 H 0.36182 0.73789 0.41956
 H1599 H 0.40169 0.66495 0.42527
 H1600 H 0.36008 0.64320 0.44674
 C1601 C 0.59598 0.78255 0.44373
 C1602 C 0.61582 0.79614 0.42310
 C1603 C 0.63916 0.80637 0.43478
 C1604 C 0.64118 0.80213 0.46623
 C1605 C 0.61468 0.81447 0.47772
 C1606 C 0.59126 0.80438 0.46594
 C1607 C 0.61358 0.76067 0.45873
 C1608 C 0.63710 0.77090 0.47051
 H1609 H 0.61203 0.79718 0.40094
 H1610 H 0.65514 0.81614 0.42256
 H1611 H 0.61433 0.82927 0.49438
 H1612 H 0.57106 0.81072 0.47252
 H1613 H 0.60804 0.73923 0.46121
 H1614 H 0.65034 0.75794 0.48299
 C1615 C 0.09641 0.28360 -0.06237
 C1616 C 0.11446 0.26122 -0.04874
 C1617 C 0.13830 0.27105 -0.03726
 C1618 C 0.14223 0.30241 -0.04044
 C1619 C 0.13932 0.30781 -0.07167
 C1620 C 0.11567 0.29798 -0.08306
 C1621 C 0.09232 0.30458 -0.03922
 C1622 C 0.11606 0.31425 -0.02775
 H1623 H 0.10915 0.23965 -0.04717
 H1624 H 0.15200 0.25760 -0.02590
 H1625 H 0.15495 0.31804 -0.08397
 H1626 H 0.11126 0.29981 -0.10507
 H1627 H 0.07233 0.31067 -0.03186
 H1628 H 0.11617 0.32846 -0.01055
 C1629 C 0.39706 0.28352 0.06276
 C1630 C 0.37215 0.27883 0.08169
 C1631 C 0.34794 0.28753 0.07067
 C1632 C 0.35046 0.30093 0.04185
 C1633 C 0.37243 0.32350 0.04553
 C1634 C 0.39651 0.31463 0.05659
 C1635 C 0.38879 0.26989 0.03529
 C1636 C 0.36452 0.27886 0.02432
 H1637 H 0.37338 0.26978 0.10226
 H1638 H 0.32872 0.28531 0.08166
 H1639 H 0.36892 0.34503 0.04082
 H1640 H 0.41270 0.32909 0.06196
 H1641 H 0.40076 0.25403 0.02557
 H1642 H 0.35609 0.27001 0.00556
 C1643 C 0.89703 0.78323 0.56417
 C1644 C 0.89777 0.81221 0.55125
 C1645 C 0.87305 0.82117 0.54194
 C1646 C 0.84943 0.80042 0.54574
 C1647 C 0.85947 0.77411 0.53152
 C1648 C 0.88440 0.76522 0.54104
 C1649 C 0.87468 0.78422 0.58629
 C1650 C 0.84994 0.79289 0.57673
 H1651 H 0.91638 0.82437 0.54876
 H1652 H 0.87067 0.84099 0.53180
 H1653 H 0.84808 0.76295 0.51579
 H1654 H 0.89406 0.74733 0.53238
 H1655 H 0.87782 0.77762 0.60759
 H1656 H 0.83205 0.79339 0.58991
   
