data_POSCAR
  _audit_creation_date              2014-09-24
  _audit_creation_method            'ToBaCCo'
  _symmetry_space_group_name_H-M    'P1'
  _symmetry_Int_Tables_number       1
  _symmetry_cell_setting            triclinic
  loop_
  _symmetry_equiv_pos_as_xyz
 x,y,z
_cell_length_a 49.6363
_cell_length_b 49.7695
_cell_length_c 50.3392
_cell_angle_alpha 89.900800
_cell_angle_beta 91.572500
_cell_angle_gamma 90.859700
loop_
  _atom_site_label
  _atom_site_type_symbol
  _atom_site_fract_x
  _atom_site_fract_y
  _atom_site_fract_z
C1 C 0.72932 0.66100 0.95453
 H2 H 0.74437 0.65292 0.94181
 C3 C 0.70741 0.67444 0.94318
 H4 H 0.70591 0.67669 0.92178
 C5 C 0.71254 0.66735 0.99765
 H6 H 0.71463 0.66422 1.01887
 C7 C 0.69004 0.68068 0.98707
 H8 H 0.67524 0.68825 1.00042
 N9 N 0.73142 0.65754 0.98130
 C10 C 0.80996 0.64574 1.01977
 H11 H 0.81258 0.62473 1.01518
 C12 C 0.83091 0.66034 1.03220
 H13 H 0.84937 0.65013 1.03757
 C14 C 0.78218 0.68407 1.01894
 H15 H 0.76316 0.69320 1.01361
 C16 C 0.80257 0.69940 1.03164
 H17 H 0.79909 0.72032 1.03613
 Zn18 Zn 0.75951 0.63618 0.99575
 N19 N 0.78620 0.65771 1.01341
 C20 C 0.79476 0.63248 0.95408
 N21 N 0.77628 0.61800 0.96775
 C22 C 0.77010 0.59208 0.96119
 C23 C 0.78242 0.57992 0.93969
 C24 C 0.80775 0.62105 0.93278
 C25 C 0.75476 0.60946 1.04519
 C26 C 0.74202 0.59353 1.06409
 C27 C 0.70749 0.58233 1.03102
 C28 C 0.72110 0.59829 1.01272
 N29 N 0.74416 0.61165 1.02011
 H30 H 0.79926 0.65307 0.95965
 H31 H 0.75550 0.58087 0.97244
 H32 H 0.77738 0.55924 0.93488
 H33 H 0.82236 0.63295 0.92209
 H34 H 0.77283 0.62061 1.05087
 H35 H 0.75111 0.59307 1.08380
 H36 H 0.68885 0.57237 1.02465
 H37 H 0.71282 0.60071 0.99277
 C38 C 0.82742 0.68764 1.03811
 C39 C 0.68711 0.68392 0.95938
 C40 C 0.71762 0.57988 1.05733
 C41 C 0.80140 0.59462 0.92509
 C42 C 0.72999 0.34946 0.51711
 H43 H 0.74971 0.34471 0.52536
 C44 C 0.70690 0.33834 0.52834
 H45 H 0.70914 0.32515 0.54533
 C46 C 0.70327 0.37407 0.48616
 H47 H 0.70185 0.38855 0.47021
 C48 C 0.67971 0.36369 0.49696
 H49 H 0.66035 0.37005 0.48896
 N50 N 0.72780 0.36689 0.49635
 C51 C 0.80656 0.36973 0.45976
 H52 H 0.80887 0.39133 0.45828
 C53 C 0.82663 0.35312 0.45054
 H54 H 0.84407 0.36223 0.44153
 C55 C 0.78026 0.33195 0.47245
 H56 H 0.76204 0.32381 0.48076
 C57 C 0.79983 0.31453 0.46330
 H58 H 0.79659 0.29302 0.46480
 Zn59 Zn 0.75928 0.38406 0.48374
 N60 N 0.78423 0.35902 0.47100
 C61 C 0.80060 0.39778 0.52110
 N62 N 0.77517 0.40367 0.51249
 C63 C 0.76035 0.42222 0.52522
 C64 C 0.77118 0.43587 0.54744
 C65 C 0.81221 0.41098 0.54302
 C66 C 0.74116 0.39396 0.43241
 C67 C 0.73321 0.40861 0.41001
 C68 C 0.74437 0.44954 0.43388
 C69 C 0.75227 0.43402 0.45589
 N70 N 0.75001 0.40676 0.45488
 H71 H 0.81186 0.38248 0.51133
 H72 H 0.74000 0.42624 0.51821
 H73 H 0.75909 0.45073 0.55698
 H74 H 0.83248 0.40590 0.54957
 H75 H 0.74015 0.37223 0.43201
 H76 H 0.72669 0.39774 0.39234
 H77 H 0.74583 0.47124 0.43503
 H78 H 0.75994 0.44378 0.47375
 C79 C 0.82363 0.32509 0.45273
 C80 C 0.68131 0.34561 0.51828
 C81 C 0.73414 0.43686 0.41076
 C82 C 0.79747 0.43010 0.55667
 C83 C 0.22119 -0.15824 0.02184
 H84 H 0.24020 -0.15732 0.03285
 C85 C 0.20061 -0.17540 0.03035
 H86 H 0.20445 -0.18811 0.04744
 C87 C 0.19325 -0.14244 -0.01355
 H88 H 0.19018 -0.12925 -0.03038
 C89 C 0.17219 -0.15935 -0.00580
 H90 H 0.15316 -0.15906 -0.01686
 N91 N 0.21712 -0.14195 0.00040
 C92 C 0.29390 -0.11853 -0.03356
 H93 H 0.28892 -0.09815 -0.03901
 C94 C 0.31850 -0.12897 -0.04088
 H95 H 0.33242 -0.11636 -0.05170
 C96 C 0.28159 -0.15977 -0.01341
 H97 H 0.26723 -0.17175 -0.00268
 C98 C 0.30604 -0.17108 -0.02039
 H99 H 0.31009 -0.19153 -0.01442
 Zn100 Zn 0.24428 -0.11653 -0.00910
 N101 N 0.27617 -0.13375 -0.01967
 C102 C 0.27419 -0.07637 0.01847
 N103 N 0.25299 -0.09382 0.02042
 C104 C 0.23889 -0.09560 0.04320
 C105 C 0.24688 -0.08055 0.06557
 C106 C 0.28284 -0.06097 0.04028
 C107 C 0.22960 -0.10725 -0.06247
 C108 C 0.21955 -0.09290 -0.08437
 C109 C 0.21377 -0.05472 -0.05557
 C110 C 0.22400 -0.06983 -0.03430
 N111 N 0.23144 -0.09565 -0.03807
 H112 H 0.28478 -0.07468 0.00011
 H113 H 0.22151 -0.10882 0.04420
 H114 H 0.23530 -0.08253 0.08335
 H115 H 0.30019 -0.04770 0.03844
 H116 H 0.23572 -0.12786 -0.06485
 H117 H 0.21827 -0.10325 -0.10319
 H118 H 0.20769 -0.03426 -0.05186
 H119 H 0.22559 -0.06105 -0.01468
 C120 C 0.32495 -0.15550 -0.03425
 C121 C 0.17547 -0.17565 0.01674
 C122 C 0.21114 -0.06613 -0.08114
 C123 C 0.26963 -0.06342 0.06445
 C124 C 0.24304 0.16451 0.47649
 H125 H 0.26358 0.16549 0.47008
 C126 C 0.22340 0.17946 0.46293
 H127 H 0.22919 0.19222 0.44653
 C128 C 0.21004 0.14523 0.50403
 H129 H 0.20449 0.13099 0.51915
 C130 C 0.18981 0.15986 0.49111
 H131 H 0.16918 0.15649 0.49678
 N132 N 0.23619 0.14794 0.49683
 C133 C 0.29676 0.14467 0.55586
 H134 H 0.28531 0.13070 0.56757
 C135 C 0.31753 0.15948 0.56829
 H136 H 0.32137 0.15705 0.58944
 C137 C 0.30675 0.16414 0.51427
 H138 H 0.30290 0.16554 0.49312
 C139 C 0.32817 0.17896 0.52585
 H140 H 0.34004 0.19219 0.51355
 Zn141 Zn 0.26315 0.12597 0.51314
 N142 N 0.29144 0.14737 0.52931
 C143 C 0.30453 0.10289 0.48346
 N144 N 0.27742 0.10450 0.48612
 C145 C 0.25993 0.09300 0.46809
 C146 C 0.26954 0.08021 0.44560
 C147 C 0.31499 0.09038 0.46128
 C148 C 0.23503 0.11671 0.55979
 C149 C 0.22363 0.10200 0.58029
 C150 C 0.23769 0.06119 0.55913
 C151 C 0.24885 0.07677 0.53890
 N152 N 0.24729 0.10403 0.53959
 H153 H 0.31808 0.11197 0.49812
 H154 H 0.23846 0.09480 0.47060
 H155 H 0.25513 0.07247 0.43095
 H156 H 0.33663 0.09006 0.45904
 H157 H 0.23448 0.13843 0.56012
 H158 H 0.21474 0.11277 0.59642
 H159 H 0.23913 0.03951 0.55843
 H160 H 0.25896 0.06711 0.52282
 C161 C 0.33372 0.17660 0.55324
 C162 C 0.19640 0.17736 0.47026
 C163 C 0.22462 0.07379 0.58000
 C164 C 0.29749 0.07923 0.44178
 C165 C 0.14554 0.46085 0.19129
 H166 H 0.12524 0.45312 0.19352
 C167 C 0.16029 0.45327 0.16944
 H168 H 0.15122 0.43929 0.15526
 C169 C 0.18215 0.48748 0.20800
 H170 H 0.19062 0.50065 0.22319
 C171 C 0.19774 0.48024 0.18647
 H172 H 0.21818 0.48798 0.18519
 N173 N 0.15638 0.47808 0.20973
 C174 C 0.15609 0.49488 0.29002
 H175 H 0.14823 0.47494 0.29377
 C176 C 0.16833 0.50941 0.31088
 H177 H 0.17013 0.49977 0.33006
 C178 C 0.16282 0.53120 0.26038
 H179 H 0.16014 0.53969 0.24070
 C180 C 0.17506 0.54652 0.28072
 H181 H 0.18199 0.56677 0.27644
 Zn182 Zn 0.13389 0.48729 0.23804
 N183 N 0.15348 0.50592 0.26537
 C184 C 0.13790 0.43539 0.25727
 N185 N 0.11965 0.45476 0.25153
 C186 C 0.09283 0.45042 0.25483
 C187 C 0.08352 0.42578 0.26483
 C188 C 0.12954 0.41061 0.26724
 C189 C 0.09246 0.52491 0.24312
 C190 C 0.07497 0.54509 0.23434
 C191 C 0.08501 0.53367 0.18911
 C192 C 0.10262 0.51416 0.19871
 N193 N 0.10627 0.51031 0.22531
 H194 H 0.15908 0.43934 0.25422
 H195 H 0.07869 0.46611 0.24994
 H196 H 0.06217 0.42312 0.26782
 H197 H 0.14450 0.39558 0.27194
 H198 H 0.09587 0.52161 0.26418
 H199 H 0.06458 0.55686 0.24880
 H200 H 0.08286 0.53684 0.16786
 H201 H 0.11394 0.50278 0.18478
 C202 C 0.17762 0.53588 0.30651
 C203 C 0.18664 0.46336 0.16659
 C204 C 0.07160 0.54997 0.20695
 C205 C 0.10209 0.40547 0.27122
 C206 C -0.16175 0.01861 0.25323
 H207 H -0.15906 0.02750 0.27274
 C208 C -0.17920 0.03032 0.23446
 H209 H -0.19002 0.04815 0.23990
 C210 C -0.14990 -0.01470 0.22232
 H211 H -0.13804 -0.03192 0.21743
 C212 C -0.16690 -0.00355 0.20288
 H213 H -0.16807 -0.01331 0.18375
 N214 N -0.14745 -0.00342 0.24685
 C215 C -0.12015 -0.03965 0.32150
 H216 H -0.09901 -0.04156 0.31724
 C217 C -0.12999 -0.04964 0.34528
 H218 H -0.11629 -0.05920 0.35937
 C219 C -0.16375 -0.02543 0.30790
 H220 H -0.17692 -0.01658 0.29298
 C221 C -0.17447 -0.03506 0.33155
 H222 H -0.19591 -0.03357 0.33432
 Zn223 Zn -0.12125 -0.01626 0.27152
 N224 N -0.13696 -0.02766 0.30348
 C225 C -0.09399 0.02264 0.30334
 N226 N -0.09666 0.01251 0.27834
 C227 C -0.08463 0.02476 0.25749
 C228 C -0.06945 0.04841 0.26139
 C229 C -0.07900 0.04614 0.30813
 C230 C -0.12058 -0.06879 0.25440
 C231 C -0.11052 -0.09244 0.24409
 C232 C -0.06705 -0.07044 0.24045
 C233 C -0.07802 -0.04707 0.25089
 N234 N -0.10443 -0.04666 0.25735
 H235 H -0.10447 0.01326 0.31950
 H236 H -0.08766 0.01668 0.23768
 H237 H -0.06055 0.05830 0.24450
 H238 H -0.07843 0.05428 0.32804
 H239 H -0.14146 -0.06792 0.25992
 H240 H -0.12386 -0.10975 0.24170
 H241 H -0.04616 -0.06997 0.23498
 H242 H -0.06549 -0.02930 0.25366
 C243 C -0.15740 -0.04725 0.35067
 C244 C -0.18149 0.01975 0.20858
 C245 C -0.08348 -0.09359 0.23692
 C246 C -0.06658 0.05948 0.28694
 C247 C 0.32817 0.51155 0.71225
 H248 H 0.31915 0.50023 0.72812
 C249 C 0.31167 0.52327 0.69262
 H250 H 0.28999 0.52073 0.69345
 C251 C 0.36721 0.52913 0.69201
 H252 H 0.38891 0.53151 0.69211
 C253 C 0.35152 0.54104 0.67195
 H254 H 0.36144 0.55293 0.65699
 N255 N 0.35544 0.51424 0.71129
 C256 C 0.34292 0.45997 0.75855
 H257 H 0.34116 0.45285 0.73827
 C258 C 0.32930 0.44648 0.77864
 H259 H 0.31692 0.42901 0.77366
 C260 C 0.36196 0.49083 0.78980
 H261 H 0.37523 0.50772 0.79422
 C262 C 0.34874 0.47796 0.81049
 H263 H 0.35240 0.48523 0.83050
 Zn264 Zn 0.37866 0.49809 0.73699
 N265 N 0.35880 0.48177 0.76441
 C266 C 0.42837 0.52225 0.75509
 N267 N 0.40133 0.52546 0.75164
 C268 C 0.38919 0.54838 0.75931
 C269 C 0.40425 0.56902 0.77150
 C270 C 0.44416 0.54227 0.76755
 C271 C 0.39765 0.46739 0.69414
 C272 C 0.41271 0.44752 0.68223
 C273 C 0.43021 0.43485 0.72563
 C274 C 0.41491 0.45512 0.73672
 N275 N 0.39925 0.47108 0.72090
 H276 H 0.43770 0.50400 0.74869
 H277 H 0.36763 0.55033 0.75643
 H278 H 0.39396 0.58666 0.77825
 H279 H 0.46557 0.53923 0.77077
 H280 H 0.38466 0.47973 0.68188
 H281 H 0.41130 0.44500 0.66086
 H282 H 0.44296 0.42287 0.73860
 H283 H 0.41557 0.45825 0.75799
 C284 C 0.33205 0.45545 0.80501
 C285 C 0.32333 0.53773 0.67183
 C286 C 0.42913 0.43085 0.69797
 C287 C 0.43213 0.56600 0.77587
 C288 C 0.66313 0.96481 0.75024
 H289 H 0.66509 0.95579 0.76968
 C290 C 0.67574 0.95305 0.72884
 H291 H 0.68723 0.93494 0.73207
 C292 C 0.64554 0.99899 0.72228
 H293 H 0.63381 1.01694 0.71975
 C294 C 0.65782 0.98788 0.70030
 H295 H 0.65461 0.99732 0.68115
 N296 N 0.64783 0.98701 0.74654
 C297 C 0.64184 1.01918 0.82584
 H298 H 0.62063 1.01540 0.82888
 C299 C 0.65838 1.02823 0.84685
 H300 H 0.64902 1.03191 0.86558
 C301 C 0.67867 1.01952 0.79689
 H302 H 0.68639 1.01589 0.77736
 C303 C 0.69595 1.02905 0.81728
 H304 H 0.71701 1.03271 0.81318
 Zn305 Zn 0.62825 1.00031 0.77547
 N306 N 0.65221 1.01471 0.80160
 C307 C 0.62463 0.95553 0.80796
 N308 N 0.60940 0.97140 0.79168
 C309 C 0.58236 0.96697 0.78845
 C310 C 0.56987 0.94535 0.80133
 C311 C 0.61299 0.93401 0.82135
 C312 C 0.60815 1.05298 0.77262
 C313 C 0.59321 1.07407 0.76183
 C314 C 0.57034 1.04239 0.73238
 C315 C 0.58581 1.02189 0.74368
 N316 N 0.60456 1.02754 0.76318
 H317 H 0.64589 0.95988 0.81095
 H318 H 0.57037 0.98017 0.77609
 H319 H 0.54834 0.94234 0.79870
 H320 H 0.62554 0.92168 0.83425
 H321 H 0.62319 1.05716 0.78804
 H322 H 0.59653 1.09411 0.76966
 H323 H 0.55603 1.03770 0.71637
 H324 H 0.58366 1.00163 0.73610
 C325 C 0.68607 1.03300 0.84289
 C326 C 0.67289 0.96431 0.70339
 C327 C 0.57451 1.06896 0.74092
 C328 C 0.58539 0.92846 0.81791
 C329 C -0.00092 0.19922 -0.13098
 H330 H 0.00398 0.19993 -0.10996
 C331 C 0.00461 0.17609 -0.14530
 H332 H 0.01291 0.15896 -0.13483
 C333 C -0.01723 0.22085 -0.17001
 H334 H -0.02535 0.23842 -0.17970
 C335 C -0.01221 0.19796 -0.18511
 H336 H -0.01662 0.19811 -0.20631
 N337 N -0.01168 0.22105 -0.14336
 C338 C -0.00706 0.30474 -0.13847
 H339 H 0.01002 0.30338 -0.12481
 C340 C -0.01223 0.32915 -0.15110
 H341 H 0.00110 0.34619 -0.14708
 C342 C -0.04556 0.28472 -0.15952
 H343 H -0.05891 0.26749 -0.16215
 C344 C -0.05155 0.30884 -0.17255
 H345 H -0.06955 0.30955 -0.18505
 Zn346 Zn -0.01743 0.25170 -0.12173
 N347 N -0.02384 0.28318 -0.14251
 C348 C 0.03825 0.25454 -0.11207
 N349 N 0.01407 0.25777 -0.10056
 C350 C 0.01243 0.26683 -0.07520
 C351 C 0.03586 0.27374 -0.06059
 C352 C 0.06213 0.26106 -0.09815
 C353 C -0.06956 0.25987 -0.10099
 C354 C -0.09182 0.25356 -0.08568
 C355 C -0.06679 0.21710 -0.06583
 C356 C -0.04516 0.22398 -0.08178
 N357 N -0.04701 0.24471 -0.09930
 H358 H 0.03893 0.24734 -0.13229
 H359 H -0.00707 0.26947 -0.06660
 H360 H 0.03423 0.28156 -0.04064
 H361 H 0.08102 0.25800 -0.10781
 H362 H -0.07056 0.27680 -0.11434
 H363 H -0.10968 0.26573 -0.08792
 H364 H -0.06425 0.20005 -0.05280
 H365 H -0.02686 0.21261 -0.08015
 C366 C -0.03485 0.33164 -0.16815
 C367 C -0.00077 0.17537 -0.17283
 C368 C -0.09096 0.23170 -0.06791
 C369 C 0.06108 0.27152 -0.07225
 C370 C 0.45667 0.21086 0.14540
 H371 H 0.44251 0.22245 0.13372
 C372 C 0.44705 0.18974 0.16091
 H373 H 0.42553 0.18630 0.16138
 C374 C 0.50163 0.20160 0.15893
 H375 H 0.52296 0.20587 0.15751
 C376 C 0.49288 0.18013 0.17461
 H377 H 0.50760 0.16827 0.18551
 N378 N 0.48354 0.21651 0.14470
 C379 C 0.50561 0.29892 0.13082
 H380 H 0.49391 0.30111 0.11255
 C381 C 0.51743 0.32164 0.14273
 H382 H 0.51447 0.34094 0.13329
 C383 C 0.52571 0.27073 0.16348
 H384 H 0.52941 0.25082 0.17113
 C385 C 0.53800 0.29292 0.17600
 H386 H 0.55094 0.28988 0.19339
 Zn387 Zn 0.49678 0.24379 0.12174
 N388 N 0.50994 0.27406 0.14122
 C389 C 0.44790 0.26832 0.10811
 N390 N 0.46904 0.25518 0.09780
 C391 C 0.47087 0.25149 0.07114
 C392 C 0.45067 0.26090 0.05376
 C393 C 0.42721 0.27784 0.09152
 C394 C 0.54933 0.24332 0.10193
 C395 C 0.57139 0.23227 0.08955
 C396 C 0.54404 0.19299 0.07886
 C397 C 0.52246 0.20483 0.09141
 N398 N 0.52557 0.22943 0.10286
 H399 H 0.44734 0.27170 0.12931
 H400 H 0.48811 0.24150 0.06328
 H401 H 0.45243 0.25798 0.03256
 H402 H 0.41098 0.28875 0.10024
 H403 H 0.55127 0.26298 0.11091
 H404 H 0.58986 0.24399 0.08887
 H405 H 0.54136 0.17320 0.07017
 H406 H 0.50333 0.19423 0.09247
 C407 C 0.53403 0.31877 0.16560
 C408 C 0.46532 0.17367 0.17544
 C409 C 0.56904 0.20649 0.07823
 C410 C 0.42835 0.27397 0.06393
 C411 C 0.96207 0.73041 0.65138
 H412 H 0.95281 0.74987 0.64926
 C413 C 0.95147 0.71145 0.66882
 H414 H 0.93409 0.71659 0.68023
 C415 C 0.99512 0.69977 0.63802
 H416 H 1.01173 0.69507 0.62550
 C417 C 0.98515 0.68016 0.65522
 H418 H 0.99468 0.66080 0.65559
 N419 N 0.98340 0.72426 0.63629
 C420 C 1.02004 0.79934 0.60968
 H421 H 1.02091 0.79490 0.58869
 C422 C 1.03074 0.82353 0.61951
 H423 H 1.03994 0.83764 0.60595
 C424 C 1.00714 0.78616 0.65282
 H425 H 0.99823 0.77138 0.66577
 C426 C 1.01739 0.81030 0.66349
 H427 H 1.01648 0.81359 0.68468
 Zn428 Zn 0.99395 0.74955 0.61032
 N429 N 1.00832 0.78134 0.62627
 C430 C 0.95367 0.78365 0.58944
 N431 N 0.96250 0.75792 0.58983
 C432 C 0.94789 0.73778 0.57779
 C433 C 0.92334 0.74322 0.56469
 C434 C 0.92917 0.78991 0.57688
 C435 C 1.04582 0.73179 0.60071
 C436 C 1.06679 0.72086 0.58651
 C437 C 1.03643 0.71646 0.54838
 C438 C 1.01612 0.72785 0.56321
 N439 N 1.02103 0.73488 0.58902
 H440 H 0.96522 0.79934 0.59946
 H441 H 0.95505 0.71737 0.57887
 H442 H 0.91175 0.72699 0.55544
 H443 H 0.92258 0.81054 0.57682
 H444 H 1.04918 0.73758 0.62126
 H445 H 1.08612 0.71794 0.59648
 H446 H 1.03213 0.71052 0.52800
 H447 H 0.99644 0.73079 0.55412
 C448 C 1.02919 0.82946 0.64663
 C449 C 0.96268 0.68576 0.67068
 C450 C 1.06216 0.71299 0.55996
 C451 C 0.91344 0.76945 0.56472
 C452 C 0.53512 0.73343 0.31875
 H453 H 0.54419 0.75322 0.32110
 C454 C 0.54768 0.71408 0.30353
 H455 H 0.56644 0.71913 0.29409
 C456 C 0.50000 0.70264 0.32885
 H457 H 0.48164 0.69809 0.33909
 C458 C 0.51185 0.68269 0.31382
 H459 H 0.50179 0.66333 0.31215
 N460 N 0.51177 0.72741 0.33109
 C461 C 0.47743 0.80557 0.34730
 H462 H 0.47592 0.80422 0.36866
 C463 C 0.46855 0.82851 0.33394
 H464 H 0.46006 0.84430 0.34563
 C465 C 0.48897 0.78529 0.30674
 H466 H 0.49647 0.76817 0.29620
 C467 C 0.47982 0.80763 0.29248
 H468 H 0.48070 0.80750 0.27099
 Zn469 Zn 0.49746 0.75381 0.35344
 N470 N 0.48772 0.78472 0.33367
 C471 C 0.53550 0.78753 0.38062
 N472 N 0.52462 0.76231 0.37941
 C473 C 0.53463 0.74215 0.39489
 C474 C 0.55627 0.74710 0.41268
 C475 C 0.55701 0.79337 0.39817
 C476 C 0.44445 0.73601 0.35168
 C477 C 0.41988 0.72646 0.36085
 C478 C 0.43877 0.72719 0.40559
 C479 C 0.46312 0.73677 0.39549
 N480 N 0.46554 0.74068 0.36891
 H481 H 0.52818 0.80301 0.36737
 H482 H 0.52613 0.72208 0.39300
 H483 H 0.56421 0.73080 0.42468
 H484 H 0.56578 0.81340 0.39801
 H485 H 0.44686 0.73959 0.33066
 H486 H 0.40343 0.72264 0.34670
 H487 H 0.43766 0.72375 0.42673
 H488 H 0.48002 0.74100 0.40889
 C489 C 0.46956 0.82980 0.30600
 C490 C 0.53634 0.68817 0.30130
 C491 C 0.41669 0.72189 0.38808
 C492 C 0.56761 0.77302 0.41462
 C493 C 0.39477 -0.01680 0.28634
 H494 H 0.39228 0.00234 0.29605
 C495 C 0.41271 -0.03547 0.29713
 H496 H 0.42408 -0.03034 0.31515
 C497 C 0.38197 -0.04692 0.25173
 H498 H 0.36937 -0.05165 0.23450
 C499 C 0.39996 -0.06607 0.26159
 H500 H 0.40052 -0.08514 0.25145
 N501 N 0.37968 -0.02288 0.26418
 C502 C 0.35240 0.05132 0.22739
 H503 H 0.33089 0.04754 0.22757
 C504 C 0.36246 0.07425 0.21496
 H505 H 0.34853 0.08817 0.20564
 C506 C 0.39666 0.03723 0.23869
 H507 H 0.40987 0.02241 0.24750
 C508 C 0.40763 0.06007 0.22656
 H509 H 0.42931 0.06236 0.22604
 Zn510 Zn 0.35329 0.00207 0.25308
 N511 N 0.36948 0.03338 0.23891
 C512 C 0.33469 0.03664 0.29271
 N513 N 0.33349 0.01100 0.28339
 C514 C 0.32043 -0.00880 0.29685
 C515 C 0.30784 -0.00308 0.32067
 C516 C 0.32273 0.04313 0.31656
 C517 C 0.34284 -0.01625 0.20188
 C518 C 0.32811 -0.02649 0.18010
 C519 C 0.28890 -0.02946 0.20742
 C520 C 0.30440 -0.01891 0.22869
 N521 N 0.33094 -0.01281 0.22560
 H522 H 0.34555 0.05201 0.28205
 H523 H 0.32028 -0.02916 0.28934
 H524 H 0.29770 -0.01905 0.33131
 H525 H 0.32393 0.06368 0.32356
 H526 H 0.36396 -0.01110 0.19994
 H527 H 0.33833 -0.02968 0.16169
 H528 H 0.26785 -0.03448 0.21016
 H529 H 0.29516 -0.01559 0.24755
 C530 C 0.39036 0.07893 0.21444
 C531 C 0.41548 -0.06062 0.28492
 C532 C 0.30067 -0.03309 0.18269
 C533 C 0.30948 0.02301 0.33107
 C534 C 0.06097 1.03576 0.76582
 H535 H 0.04797 1.01929 0.75931
 C536 C 0.05008 1.05795 0.77865
 H537 H 0.02870 1.05824 0.78227
 C538 C 0.10477 1.05526 0.76960
 H539 H 0.12610 1.05402 0.76598
 C540 C 0.09491 1.07740 0.78286
 H541 H 0.10876 1.09319 0.78949
 N542 N 0.08797 1.03470 0.76199
 C543 C 0.07963 0.97245 0.70716
 H544 H 0.09061 0.98458 0.69321
 C545 C 0.06528 0.94987 0.69799
 H546 H 0.06475 0.94571 0.67690
 C547 C 0.06730 0.96323 0.75142
 H548 H 0.06881 0.96824 0.77231
 C549 C 0.05275 0.94029 0.74308
 H550 H 0.04283 0.92786 0.75765
 Zn551 Zn 0.10530 1.00551 0.74588
 N552 N 0.08080 0.97845 0.73352
 C553 C 0.14322 0.96733 0.76409
 N554 N 0.12913 0.98929 0.77114
 C555 C 0.13034 0.99862 0.79651
 C556 C 0.14654 0.98621 0.81582
 C557 C 0.15961 0.95412 0.78284
 C558 C 0.10920 1.03609 0.70031
 C559 C 0.12095 1.04838 0.67852
 C560 C 0.16309 1.02743 0.69085
 C561 C 0.15055 1.01571 0.71268
 N562 N 0.12399 1.02005 0.71680
 H563 H 0.14140 0.95982 0.74395
 H564 H 0.11822 1.01537 0.80217
 H565 H 0.14625 0.99424 0.83569
 H566 H 0.17051 0.93656 0.77676
 H567 H 0.08819 1.03940 0.70423
 H568 H 0.10886 1.06122 0.66569
 H569 H 0.18433 1.02412 0.68816
 H570 H 0.16210 1.00337 0.72634
 C571 C 0.05239 0.93287 0.71618
 C572 C 0.06733 1.07894 0.78761
 C573 C 0.14812 1.04397 0.67342
 C574 C 0.16156 0.96347 0.80920
 C575 C 0.58878 0.52726 0.26525
 H576 H 0.58736 0.50702 0.27302
 C577 C 0.57377 0.54768 0.27632
 H578 H 0.56075 0.54297 0.29267
 C579 C 0.60781 0.55791 0.23470
 H580 H 0.62124 0.56181 0.21857
 C581 C 0.59311 0.57896 0.24515
 H582 H 0.59528 0.59865 0.23636
 N583 N 0.60530 0.53265 0.24477
 C584 C 0.61412 0.45675 0.20352
 H585 H 0.63587 0.45568 0.20345
 C586 C 0.59840 0.43580 0.19275
 H587 H 0.60826 0.41887 0.18396
 C588 C 0.57500 0.48048 0.21479
 H589 H 0.56598 0.49794 0.22337
 C590 C 0.55848 0.46011 0.20389
 H591 H 0.53678 0.46196 0.20426
 Zn592 Zn 0.62546 0.50392 0.23161
 N593 N 0.60228 0.47809 0.21501
 C594 C 0.63792 0.46175 0.26707
 N595 N 0.64380 0.48779 0.26105
 C596 C 0.66091 0.50271 0.27687
 C597 C 0.67326 0.49130 0.29948
 C598 C 0.64974 0.44960 0.28931
 C599 C 0.63828 0.52382 0.18189
 C600 C 0.65441 0.53270 0.16126
 C601 C 0.69361 0.52631 0.18996
 C602 C 0.67669 0.51717 0.20991
 N603 N 0.64954 0.51636 0.20563
 H604 H 0.62354 0.45037 0.25505
 H605 H 0.66469 0.52361 0.27211
 H606 H 0.68657 0.50374 0.31172
 H607 H 0.64461 0.42886 0.29369
 H608 H 0.61661 0.52288 0.17901
 H609 H 0.64442 0.53890 0.14300
 H610 H 0.71519 0.52701 0.19392
 H611 H 0.68532 0.51078 0.22876
 C612 C 0.57018 0.43709 0.19345
 C613 C 0.57590 0.57398 0.26646
 C614 C 0.68265 0.53408 0.16509
 C615 C 0.66764 0.46427 0.30592
 C616 C 0.90115 0.47146 0.77467
 H617 H 0.90502 0.48924 0.78659
 C618 C 0.91188 0.44680 0.78266
 H619 H 0.92382 0.44605 0.80092
 C620 C 0.87923 0.45096 0.73738
 H621 H 0.86600 0.45242 0.72007
 C622 C 0.88950 0.42599 0.74460
 H623 H 0.88422 0.40856 0.73257
 N624 N 0.88506 0.47306 0.75244
 C625 C 0.88250 0.55626 0.72538
 H626 H 0.86085 0.55849 0.72433
 C627 C 0.89921 0.57695 0.71649
 H628 H 0.89000 0.59481 0.70831
 C629 C 0.92023 0.52914 0.73560
 H630 H 0.92824 0.51024 0.74256
 C631 C 0.93776 0.54934 0.72675
 H632 H 0.95926 0.54592 0.72714
 Zn633 Zn 0.86792 0.50585 0.74392
 N634 N 0.89315 0.53301 0.73482
 C635 C 0.85419 0.54087 0.78529
 N636 N 0.84842 0.51663 0.77390
 C637 C 0.83024 0.49935 0.78472
 C638 C 0.81700 0.50632 0.80785
 C639 C 0.84145 0.54863 0.80832
 C640 C 0.85856 0.49903 0.69028
 C641 C 0.84463 0.49315 0.66659
 C642 C 0.80329 0.49090 0.69077
 C643 C 0.81806 0.49721 0.71411
 N644 N 0.84530 0.50045 0.71348
 H645 H 0.86899 0.55419 0.77680
 H646 H 0.82637 0.47996 0.77561
 H647 H 0.80269 0.49231 0.81633
 H648 H 0.84609 0.56830 0.81646
 H649 H 0.88019 0.50202 0.69030
 H650 H 0.85587 0.49252 0.64852
 H651 H 0.78172 0.48754 0.69161
 H652 H 0.80785 0.49877 0.73270
 C653 C 0.92730 0.57368 0.71720
 C654 C 0.90592 0.42355 0.76755
 C655 C 0.81670 0.48804 0.66675
 C656 C 0.82288 0.53105 0.82020
 C657 C 0.27851 0.38104 -0.06231
 H658 H 0.28008 0.35938 -0.06226
 C659 C 0.28961 0.39599 -0.08286
 H660 H 0.30012 0.38553 -0.09818
 C661 C 0.26378 0.42068 -0.04154
 H662 H 0.25373 0.43020 -0.02535
 C663 C 0.27470 0.43646 -0.06171
 H664 H 0.27295 0.45811 -0.06090
 N665 N 0.26556 0.39345 -0.04238
 C666 C 0.21245 0.40605 0.00674
 H667 H 0.20278 0.40509 -0.01277
 C668 C 0.20027 0.41982 0.02726
 H669 H 0.18118 0.42955 0.02337
 C670 C 0.24852 0.39355 0.03576
 H671 H 0.26716 0.38295 0.03907
 C672 C 0.23709 0.40712 0.05682
 H673 H 0.24706 0.40624 0.07615
 Zn674 Zn 0.24992 0.37153 -0.01580
 N675 N 0.23596 0.39299 0.01141
 C676 C 0.26932 0.32891 0.01642
 N677 N 0.27672 0.34883 -0.00055
 C678 C 0.30318 0.35412 -0.00511
 C679 C 0.32333 0.33912 0.00754
 C680 C 0.28881 0.31352 0.02960
 C681 C 0.21671 0.35048 -0.05793
 C682 C 0.19489 0.33628 -0.06927
 C683 C 0.18137 0.32339 -0.02530
 C684 C 0.20357 0.33783 -0.01478
 N685 N 0.22089 0.35083 -0.03110
 H686 H 0.24832 0.32538 0.02036
 H687 H 0.30884 0.37068 -0.01778
 H688 H 0.34416 0.34451 0.00425
 H689 H 0.28255 0.29810 0.04344
 H690 H 0.22996 0.36148 -0.07073
 H691 H 0.19196 0.33637 -0.09067
 H692 H 0.16821 0.31309 -0.01177
 H693 H 0.20657 0.33918 0.00652
 C694 C 0.21245 0.42032 0.05276
 C695 C 0.28737 0.42411 -0.08296
 C696 C 0.17674 0.32265 -0.05299
 C697 C 0.31620 0.31852 0.02525
 C698 C 0.78126 0.07247 1.05072
 H699 H 0.78803 0.06988 1.03065
 C700 C 0.78936 0.05454 1.07060
 H701 H 0.80247 0.03821 1.06553
 C702 C 0.75602 0.09702 1.08136
 H703 H 0.74264 0.11328 1.08545
 C704 C 0.76392 0.07978 1.10199
 H705 H 0.75614 0.08345 1.12144
 N706 N 0.76535 0.09354 1.05648
 C707 C 0.75514 0.09851 0.97467
 H708 H 0.77202 0.11198 0.97159
 C709 C 0.74408 0.08394 0.95320
 H710 H 0.75286 0.08692 0.93402
 C711 C 0.72358 0.07891 1.00363
 H712 H 0.71561 0.07727 1.02337
 C713 C 0.71189 0.06400 0.98282
 H714 H 0.69488 0.05084 0.98685
 Zn715 Zn 0.75686 0.11741 1.02819
 N716 N 0.74433 0.09625 0.99911
 C717 C 0.81220 0.13201 1.03069
 N718 N 0.78791 0.13746 1.01896
 C719 C 0.78541 0.15696 1.00016
 C720 C 0.80812 0.17107 0.99156
 C721 C 0.83543 0.14548 1.02265
 C722 C 0.70590 0.14153 1.02327
 C723 C 0.68475 0.15774 1.03071
 C724 C 0.71298 0.17512 1.06674
 C725 C 0.73372 0.15866 1.05846
 N726 N 0.72951 0.14156 1.03765
 H727 H 0.81376 0.11686 1.04600
 H728 H 0.76578 0.16106 0.99134
 H729 H 0.80523 0.18575 0.97598
 H730 H 0.85463 0.14030 1.03191
 H731 H 0.70329 0.12886 1.00599
 H732 H 0.66632 0.15730 1.01876
 H733 H 0.71633 0.18797 1.08389
 H734 H 0.75299 0.15897 1.06905
 C735 C 0.72171 0.06669 0.95701
 C736 C 0.78132 0.05837 1.09686
 C737 C 0.68784 0.17419 1.05329
 C738 C 0.83380 0.16509 1.00257
 C739 C 0.28440 0.59569 0.51291
 H740 H 0.29181 0.59485 0.49292
 C741 C 0.29776 0.58197 0.53343
 H742 H 0.31540 0.57040 0.52903
 C743 C 0.25306 0.61278 0.54302
 H744 H 0.23611 0.62544 0.54679
 C745 C 0.26584 0.59937 0.56417
 H746 H 0.25834 0.60213 0.58391
 N747 N 0.26252 0.61074 0.51800
 C748 C 0.22244 0.62055 0.44027
 H749 H 0.22179 0.64224 0.43898
 C750 C 0.21207 0.60484 0.41929
 H751 H 0.20311 0.61470 0.40211
 C752 C 0.23407 0.58157 0.46485
 H753 H 0.24238 0.57257 0.48275
 C754 C 0.22365 0.56511 0.44448
 H755 H 0.22420 0.54348 0.44682
 Zn756 Zn 0.24796 0.63138 0.48963
 N757 N 0.23365 0.60877 0.46225
 C758 C 0.28528 0.64947 0.45158
 N759 N 0.27691 0.65265 0.47686
 C760 C 0.29082 0.66878 0.49437
 C761 C 0.31396 0.68270 0.48657
 C762 C 0.30833 0.66293 0.44298
 C763 C 0.19667 0.63949 0.50883
 C764 C 0.17514 0.65349 0.51911
 C765 C 0.20099 0.69470 0.51473
 C766 C 0.22193 0.67992 0.50420
 N767 N 0.21958 0.65275 0.50190
 H768 H 0.27475 0.63571 0.43826
 H769 H 0.28427 0.67031 0.51463
 H770 H 0.32494 0.69522 0.50088
 H771 H 0.31485 0.65906 0.42306
 H772 H 0.19536 0.61786 0.50681
 H773 H 0.15752 0.64233 0.52529
 H774 H 0.20334 0.71625 0.51701
 H775 H 0.24013 0.69017 0.49828
 C776 C 0.21291 0.57668 0.42117
 C777 C 0.28865 0.58376 0.55949
 C778 C 0.17724 0.68150 0.52230
 C779 C 0.32305 0.67990 0.46059
 C780 C 0.77382 0.90089 0.48657
 H781 H 0.78687 0.89018 0.50031
 C782 C 0.78495 0.91454 0.46516
 H783 H 0.80655 0.91424 0.46298
 C784 C 0.73010 0.91532 0.47375
 H785 H 0.70874 0.91559 0.47719
 C786 C 0.74038 0.92926 0.45207
 H787 H 0.72675 0.94009 0.43889
 N788 N 0.74676 0.90102 0.49015
 C789 C 0.70628 0.89243 0.56496
 H790 H 0.70075 0.87133 0.56409
 C791 C 0.69853 0.90801 0.58632
 H792 H 0.68653 0.89877 0.60156
 C793 C 0.72802 0.93004 0.54547
 H794 H 0.73965 0.93841 0.52951
 C795 C 0.72051 0.94646 0.56644
 H796 H 0.72633 0.96752 0.56651
 Zn797 Zn 0.73176 0.88040 0.51793
 N798 N 0.72109 0.90350 0.54532
 C799 C 0.76621 0.85938 0.55783
 N800 N 0.75827 0.85646 0.53191
 C801 C 0.77110 0.83919 0.51573
 C802 C 0.79347 0.82487 0.52526
 C803 C 0.78820 0.84540 0.56817
 C804 C 0.67772 0.87743 0.50346
 C805 C 0.65382 0.86720 0.49217
 C806 C 0.67636 0.82554 0.48369
 C807 C 0.69999 0.83664 0.49530
 N808 N 0.70031 0.86234 0.50452
 H809 H 0.75634 0.87349 0.57040
 H810 H 0.76496 0.83768 0.49500
 H811 H 0.80389 0.81221 0.51162
 H812 H 0.79458 0.84877 0.58867
 H813 H 0.67838 0.89779 0.51092
 H814 H 0.63627 0.87988 0.49109
 H815 H 0.67693 0.80539 0.47581
 H816 H 0.71811 0.82492 0.49634
 C817 C 0.70608 0.93533 0.58745
 C818 C 0.76801 0.92843 0.44716
 C819 C 0.65289 0.84111 0.48176
 C820 C 0.80260 0.82837 0.55179
 C821 C -0.01425 0.28406 0.40932
 H822 H 0.00561 0.29321 0.40841
 C823 C -0.03507 0.29780 0.42116
 H824 H -0.03098 0.31754 0.42950
 C825 C -0.04379 0.24761 0.39865
 H826 H -0.04726 0.22830 0.38931
 C827 C -0.06522 0.26064 0.41030
 H828 H -0.08466 0.25062 0.40999
 N829 N -0.01892 0.25945 0.39834
 C830 C 0.06013 0.22348 0.39250
 H831 H 0.05944 0.21880 0.37151
 C832 C 0.08236 0.21609 0.40822
 H833 H 0.09842 0.20532 0.39906
 C834 C 0.03887 0.24172 0.42985
 H835 H 0.02164 0.25123 0.43824
 C836 C 0.06070 0.23453 0.44639
 H837 H 0.06020 0.23875 0.46747
 Zn838 Zn 0.00959 0.24358 0.38008
 N839 N 0.03909 0.23623 0.40340
 C840 C 0.04524 0.28007 0.35588
 N841 N 0.02031 0.26846 0.35374
 C842 C 0.00188 0.27694 0.33518
 C843 C 0.00824 0.29809 0.31799
 C844 C 0.05242 0.30120 0.33917
 C845 C -0.00713 0.19094 0.38415
 C846 C -0.01461 0.16502 0.37634
 C847 C -0.01060 0.17864 0.33050
 C848 C -0.00308 0.20448 0.33927
 N849 N -0.00173 0.21010 0.36572
 H850 H 0.05926 0.27389 0.37140
 H851 H -0.01808 0.26790 0.33438
 H852 H -0.00685 0.30503 0.30372
 H853 H 0.07194 0.31072 0.34241
 H854 H -0.00547 0.19588 0.40506
 H855 H -0.01888 0.15013 0.39143
 H856 H -0.01125 0.17463 0.30941
 H857 H 0.00193 0.21988 0.32498
 C858 C 0.08290 0.22174 0.43559
 C859 C -0.06107 0.28632 0.42154
 C860 C -0.01658 0.15852 0.34927
 C861 C 0.03374 0.31063 0.31993
 C862 C 1.04645 0.76162 0.09381
 H863 H 1.02734 0.76194 0.08299
 C864 C 1.06993 0.77024 0.08140
 H865 H 1.06828 0.77718 0.06109
 C866 C 1.07104 0.75375 0.13401
 H867 H 1.07117 0.74769 0.15466
 C868 C 1.09494 0.76216 0.12242
 H869 H 1.11347 0.76242 0.13431
 N870 N 1.04742 0.75383 0.11971
 C871 C 0.99090 0.71630 0.09504
 H872 H 1.01028 0.70697 0.09385
 C873 C 0.96982 0.70763 0.07811
 H874 H 0.97321 0.69132 0.06443
 C875 C 0.96313 0.74913 0.11367
 H876 H 0.96056 0.76553 0.12729
 C877 C 0.94143 0.74106 0.09707
 H878 H 0.92268 0.75165 0.09835
 Zn879 Zn 1.01571 0.74474 0.13787
 N880 N 0.98709 0.73620 0.11298
 C881 C 0.98439 0.77306 0.17488
 N882 N 1.00628 0.77457 0.15920
 C883 C 1.02139 0.79755 0.15784
 C884 C 1.01450 0.82024 0.17224
 C885 C 0.97668 0.79537 0.18951
 C886 C 1.03379 0.69252 0.14694
 C887 C 1.03974 0.66914 0.16106
 C888 C 1.02521 0.69068 0.20101
 C889 C 1.01931 0.71368 0.18601
 N890 N 1.02324 0.71405 0.15933
 H891 H 0.97268 0.75458 0.17572
 H892 H 1.03864 0.79854 0.14524
 H893 H 1.02660 0.83845 0.17064
 H894 H 0.95932 0.79354 0.20195
 H895 H 1.03832 0.69365 0.12614
 H896 H 1.04867 0.65261 0.15070
 H897 H 1.02203 0.69067 0.22221
 H898 H 1.01187 0.73121 0.19584
 C899 C 0.94446 0.71950 0.07942
 C900 C 1.09465 0.77075 0.09586
 C901 C 1.03507 0.66787 0.18843
 C902 C 0.99163 0.81953 0.18792
 C903 C 0.56223 0.28727 0.61078
 H904 H 0.55170 0.30211 0.62199
 C905 C 0.58486 0.29506 0.59664
 H906 H 0.59147 0.31587 0.59733
 C907 C 0.56742 0.24195 0.59778
 H908 H 0.56059 0.22122 0.59863
 C909 C 0.59036 0.24881 0.58362
 H910 H 0.60111 0.23328 0.57343
 N911 N 0.55385 0.26113 0.61093
 C912 C 0.47229 0.23075 0.62190
 H913 H 0.47172 0.23211 0.64333
 C914 C 0.44958 0.22184 0.60742
 H915 H 0.43201 0.21577 0.61825
 C916 C 0.49675 0.23622 0.58244
 H917 H 0.51515 0.24206 0.57284
 C918 C 0.47438 0.22750 0.56710
 H919 H 0.47580 0.22648 0.54570
 Zn920 Zn 0.52423 0.25005 0.63137
 N921 N 0.49531 0.23751 0.60935
 C922 C 0.49899 0.29915 0.63653
 N923 N 0.51094 0.27926 0.65089
 C924 C 0.51149 0.27963 0.67792
 C925 C 0.50009 0.30093 0.69150
 C926 C 0.48729 0.32075 0.64927
 C927 C 0.52470 0.19728 0.65269
 C928 C 0.53413 0.17651 0.66897
 C929 C 0.56728 0.20735 0.68812
 C930 C 0.55725 0.22750 0.67141
 N931 N 0.53613 0.22225 0.65436
 H932 H 0.49821 0.29797 0.61506
 H933 H 0.52035 0.26326 0.68903
 H934 H 0.50059 0.30088 0.71303
 H935 H 0.47732 0.33573 0.63714
 H936 H 0.50858 0.19320 0.63837
 H937 H 0.52496 0.15682 0.66660
 H938 H 0.58413 0.21190 0.70157
 H939 H 0.56639 0.24737 0.67191
 C940 C 0.45031 0.22038 0.57952
 C941 C 0.59918 0.27567 0.58273
 C942 C 0.55565 0.18147 0.68717
 C943 C 0.48791 0.32195 0.67721
 C944 C 0.46318 0.77332 0.92210
 H945 H 0.48166 0.78504 0.92408
 C946 C 0.44032 0.78113 0.93555
 H947 H 0.44163 0.79858 0.94833
 C948 C 0.43909 0.73653 0.90266
 H949 H 0.43843 0.71954 0.88935
 C950 C 0.41587 0.74345 0.91593
 H951 H 0.39759 0.73158 0.91283
 N952 N 0.46206 0.75159 0.90576
 C953 C 0.54322 0.72296 0.89262
 H954 H 0.54274 0.72282 0.87112
 C955 C 0.56608 0.71421 0.90663
 H956 H 0.58284 0.70685 0.89559
 C957 C 0.52124 0.73183 0.93279
 H958 H 0.50366 0.73865 0.94287
 C959 C 0.54370 0.72312 0.94764
 H960 H 0.54328 0.72334 0.96914
 Zn961 Zn 0.49221 0.74466 0.88476
 N962 N 0.52160 0.73200 0.90578
 C963 C 0.52774 0.78698 0.87062
 N964 N 0.50203 0.77737 0.86796
 C965 C 0.48283 0.79137 0.85424
 C966 C 0.48938 0.81580 0.84207
 C967 C 0.53514 0.81125 0.85884
 C968 C 0.48009 0.69228 0.86802
 C969 C 0.47142 0.67193 0.85060
 C970 C 0.46921 0.70475 0.81521
 C971 C 0.47824 0.72440 0.83323
 N972 N 0.48289 0.71799 0.85922
 H973 H 0.54267 0.77589 0.88189
 H974 H 0.46240 0.78352 0.85277
 H975 H 0.47393 0.82664 0.83108
 H976 H 0.55596 0.81787 0.86067
 H977 H 0.48389 0.68775 0.88880
 H978 H 0.46827 0.65187 0.85834
 H979 H 0.46480 0.71028 0.79474
 H980 H 0.48088 0.74484 0.82650
 C981 C 0.56671 0.71471 0.93457
 C982 C 0.41609 0.76640 0.93200
 C983 C 0.46559 0.67819 0.82384
 C984 C 0.51575 0.82617 0.84452
 C985 C 0.45963 -0.14833 0.29110
 C986 C 0.45218 -0.12375 0.30195
 C987 C 0.43883 -0.10457 0.28649
 C988 C 0.43242 -0.07964 0.29726
 H989 H 0.45658 -0.11923 0.32263
 H990 H 0.43331 -0.10952 0.26614
 H991 H 0.45769 -0.15061 0.26969
 H992 H 0.44094 -0.07476 0.31679
 C993 C 0.95911 0.35864 0.82074
 C994 C 0.94015 0.36354 0.80202
 C995 C 0.93413 0.39135 0.79385
 C996 C 0.91465 0.39627 0.77568
 H997 H 0.92855 0.34731 0.79289
 H998 H 0.94554 0.40766 0.80310
 H999 H 0.97069 0.37555 0.82880
 H1000 H 0.90433 0.37930 0.76622
 C1001 C 0.00554 1.15151 0.81101
 C1002 C 0.02667 1.13598 0.81687
 C1003 C 0.03361 1.11279 0.80035
 C1004 C 0.05791 1.10178 0.80343
 H1005 H 0.03991 1.14104 0.83365
 H1006 H 0.01935 1.10535 0.78533
 H1007 H -0.00647 1.14756 0.79309
 H1008 H 0.07232 1.11083 0.81746
 C1009 C 0.55075 0.66760 0.28608
 C1010 C 0.54706 0.64112 0.28938
 C1011 C 0.56323 0.62161 0.27495
 C1012 C 0.55980 0.59519 0.27899
 H1013 H 0.53278 0.63351 0.30351
 H1014 H 0.57835 0.62919 0.26171
 H1015 H 0.56608 0.67455 0.27263
 H1016 H 0.54482 0.58867 0.29301
 C1017 C 0.54919 0.34172 0.17773
 C1018 C 0.54242 0.36745 0.17427
 C1019 C 0.55985 0.38919 0.18511
 C1020 C 0.55267 0.41493 0.18322
 H1021 H 0.52419 0.37270 0.16329
 H1022 H 0.57882 0.38398 0.19481
 H1023 H 0.56687 0.33718 0.18997
 H1024 H 0.53295 0.41983 0.17496
 C1025 C 0.04094 0.85527 0.65642
 C1026 C 0.03376 0.86757 0.67873
 C1027 C 0.04643 0.89353 0.68632
 C1028 C 0.03912 0.90717 0.70783
 H1029 H 0.01831 0.85898 0.69107
 H1030 H 0.06255 0.90117 0.67424
 H1031 H 0.05559 0.86517 0.64397
 H1032 H 0.02394 0.89853 0.72049
 C1033 C 0.94912 0.66538 0.68756
 C1034 C 0.95678 0.63981 0.69050
 C1035 C 0.93960 0.62042 0.70466
 C1036 C 0.94581 0.59437 0.70632
 H1037 H 0.97479 0.63254 0.68152
 H1038 H 0.92115 0.62753 0.71301
 H1039 H 0.93090 0.67151 0.69715
 H1040 H 0.96499 0.58782 0.69905
 C1041 C 0.45649 0.15018 0.19144
 C1042 C 0.43268 0.13758 0.18753
 C1043 C 0.42486 0.11393 0.20338
 C1044 C 0.40031 0.10280 0.19983
 H1045 H 0.41878 0.14421 0.17205
 H1046 H 0.43900 0.10607 0.21807
 H1047 H 0.47051 0.14237 0.20632
 H1048 H 0.38634 0.11208 0.18576
 C1049 C 0.31856 0.43992 -0.17381
 C1050 C 0.31463 0.44929 -0.14931
 C1051 C 0.30248 0.43198 -0.12897
 C1052 C 0.29865 0.44104 -0.10434
 H1053 H 0.32040 0.46965 -0.14396
 H1054 H 0.29667 0.41162 -0.13436
 H1055 H 0.31150 0.41974 -0.17868
 H1056 H 0.30339 0.46190 -0.09980
 C1057 C 0.83262 0.94111 0.37571
 C1058 C 0.80969 0.94829 0.38693
 C1059 C 0.80111 0.93524 0.41163
 C1060 C 0.77827 0.94211 0.42320
 H1061 H 0.79729 0.96385 0.37818
 H1062 H 0.81326 0.91917 0.41976
 H1063 H 0.84512 0.92630 0.38571
 H1064 H 0.76580 0.95737 0.41389
 C1065 C 0.80267 0.03345 1.18942
 C1066 C 0.80220 0.02794 1.16214
 C1067 C 0.78872 0.04463 1.14409
 C1068 C 0.79146 0.04102 1.11672
 H1069 H 0.81369 0.01165 1.15430
 H1070 H 0.77759 0.06128 1.15174
 H1071 H 0.79146 0.05068 1.19596
 H1072 H 0.80379 0.02447 1.11045
 C1073 C 0.30567 0.54957 0.65082
 C1074 C 0.31391 0.55432 0.62613
 C1075 C 0.29596 0.56650 0.60580
 C1076 C 0.30452 0.57048 0.58108
 H1077 H 0.33408 0.54901 0.62061
 H1078 H 0.27592 0.57215 0.61129
 H1079 H 0.28495 0.55366 0.65558
 H1080 H 0.32445 0.56361 0.57629
 C1081 C 0.18961 0.55317 0.32798
 C1082 C 0.18935 0.54710 0.35393
 C1083 C 0.20067 0.56585 0.37413
 C1084 C 0.20192 0.55885 0.39983
 H1085 H 0.18035 0.52854 0.36078
 H1086 H 0.20833 0.58525 0.36781
 H1087 H 0.19843 0.57229 0.32216
 H1088 H 0.19549 0.53875 0.40543
 C1089 C 0.70390 0.04197 0.86334
 C1090 C 0.69763 0.04200 0.89027
 C1091 C 0.71489 0.05361 0.90944
 C1092 C 0.70804 0.05287 0.93622
 H1093 H 0.67912 0.03274 0.89680
 H1094 H 0.73309 0.06358 0.90307
 H1095 H 0.72397 0.04863 0.85803
 H1096 H 0.69017 0.04129 0.94123
 C1097 C 0.68428 0.94978 0.68069
 C1098 C 0.68684 0.96005 0.65628
 C1099 C 0.69582 0.94296 0.63451
 C1100 C 0.69861 0.95260 0.60990
 H1101 H 0.68188 0.98072 0.65198
 H1102 H 0.69994 0.92204 0.63872
 H1103 H 0.69042 0.92922 0.68421
 H1104 H 0.69595 0.97387 0.60621
 C1105 C 0.20319 0.45571 0.14382
 C1106 C 0.19238 0.44907 0.12002
 C1107 C 0.20913 0.43952 0.09835
 C1108 C 0.19781 0.43284 0.07476
 H1109 H 0.17081 0.45023 0.11647
 H1110 H 0.23056 0.43745 0.10209
 H1111 H 0.22493 0.45588 0.14665
 H1112 H 0.17645 0.43628 0.07148
 C1113 C -0.15549 0.30656 0.44351
 C1114 C -0.12930 0.31340 0.44319
 C1115 C -0.10907 0.29498 0.43295
 C1116 C -0.08297 0.30230 0.43303
 H1117 H -0.12253 0.33285 0.45058
 H1118 H -0.11595 0.27594 0.42481
 H1119 H -0.16177 0.28648 0.43747
 H1120 H -0.07732 0.32174 0.44137
 C1121 C 0.35168 0.83443 0.95828
 C1122 C 0.35814 0.80845 0.95733
 C1123 C 0.38486 0.80054 0.94828
 C1124 C 0.39061 0.77477 0.94395
 H1125 H 0.34360 0.79289 0.96208
 H1126 H 0.39941 0.81619 0.94370
 H1127 H 0.36656 0.84927 0.95226
 H1128 H 0.37520 0.75951 0.94710
 C1129 C 1.15210 0.80809 0.02564
 C1130 C 1.14903 0.80030 0.05085
 C1131 C 1.12385 0.78712 0.05926
 C1132 C 1.12010 0.78162 0.08496
 H1133 H 1.16435 0.80510 0.06586
 H1134 H 1.10833 0.78266 0.04437
 H1135 H 1.13578 0.80422 0.01131
 H1136 H 1.13657 0.78579 0.09904
 C1137 C 0.65604 0.33654 0.53068
 C1138 C 0.65352 0.31355 0.54425
 C1139 C 0.62807 0.30676 0.55726
 C1140 C 0.62399 0.28267 0.56839
 H1141 H 0.67012 0.29971 0.54586
 H1142 H 0.61247 0.32174 0.55762
 H1143 H 0.63859 0.34925 0.52817
 H1144 H 0.63906 0.26731 0.56643
 C1145 C 0.35597 0.19154 0.56691
 C1146 C 0.37946 0.19731 0.55565
 C1147 C 0.40167 0.20949 0.57169
 C1148 C 0.42692 0.21058 0.56301
 H1149 H 0.38289 0.19151 0.53530
 H1150 H 0.39712 0.21698 0.59119
 H1151 H 0.35375 0.19593 0.58783
 H1152 H 0.43069 0.20380 0.54300
 C1153 C 0.84884 0.70380 0.05195
 C1154 C 0.87510 0.69885 0.04957
 C1155 C 0.89593 0.71369 0.06529
 C1156 C 0.92206 0.70826 0.06246
 H1157 H 0.88145 0.68333 0.03614
 H1158 H 0.88955 0.72789 0.07999
 H1159 H 0.84280 0.72040 0.06426
 H1160 H 0.92728 0.69340 0.04780
 C1161 C 0.66334 0.69665 0.94648
 C1162 C 0.63885 0.69683 0.95696
 C1163 C 0.61565 0.70713 0.94134
 C1164 C 0.59058 0.70585 0.95046
 H1165 H 0.63549 0.68807 0.97631
 H1166 H 0.61928 0.71564 0.92193
 H1167 H 0.66566 0.70439 0.92650
 H1168 H 0.58747 0.69854 0.97046
 C1169 C 0.17557 0.19177 0.45438
 C1170 C 0.15093 0.19695 0.46310
 C1171 C 0.13021 0.20851 0.44517
 C1172 C 0.10528 0.21293 0.45350
 H1173 H 0.14561 0.19201 0.48325
 H1174 H 0.13534 0.21273 0.42481
 H1175 H 0.18066 0.19807 0.43447
 H1176 H 0.10098 0.20980 0.47429
 C1177 C 0.55972 0.09079 0.72714
 C1178 C 0.56983 0.11576 0.72490
 C1179 C 0.55580 0.13622 0.70877
 C1180 C 0.56746 0.16022 0.70443
 H1181 H 0.58934 0.12089 0.73379
 H1182 H 0.53612 0.13124 0.70028
 H1183 H 0.54094 0.08564 0.71672
 H1184 H 0.58687 0.16458 0.71401
 C1185 C 1.05543 0.57236 0.19603
 C1186 C 1.05276 0.59585 0.20852
 C1187 C 1.04164 0.61903 0.19391
 C1188 C 1.04211 0.64376 0.20434
 H1189 H 1.06107 0.59878 0.22844
 H1190 H 1.03422 0.61597 0.17368
 H1191 H 1.04822 0.57061 0.17556
 H1192 H 1.04830 0.64651 0.22499
 C1193 C 0.92603 0.88097 0.22527
 C1194 C 0.95179 0.87537 0.22074
 C1195 C 0.95871 0.84962 0.20840
 C1196 C 0.98406 0.84428 0.20206
 H1197 H 0.96783 0.88950 0.22588
 H1198 H 0.94259 0.83544 0.20348
 H1199 H 0.91080 0.86583 0.22022
 H1200 H 0.99963 0.85942 0.20584
 C1201 C 0.44495 0.41006 0.68462
 C1202 C 0.45399 0.38779 0.69659
 C1203 C 0.46813 0.36741 0.68126
 C1204 C 0.47502 0.34383 0.69209
 H1205 H 0.45003 0.38390 0.71729
 H1206 H 0.47266 0.37195 0.66083
 H1207 H 0.44812 0.41259 0.66352
 H1208 H 0.47109 0.34036 0.71292
 C1209 C 0.44859 0.58635 0.79060
 C1210 C 0.44301 0.61254 0.79004
 C1211 C 0.45798 0.63175 0.80727
 C1212 C 0.45365 0.65813 0.80515
 H1213 H 0.42683 0.61989 0.77723
 H1214 H 0.47208 0.62416 0.82218
 H1215 H 0.46585 0.57950 0.80229
 H1216 H 0.44064 0.66540 0.78913
 C1217 C -0.05269 0.08592 0.29047
 C1218 C -0.04265 0.09453 0.31394
 C1219 C -0.03229 0.12223 0.31772
 C1220 C -0.02475 0.13059 0.34211
 H1221 H -0.04273 0.08130 0.33103
 H1222 H -0.03237 0.13583 0.30094
 H1223 H -0.05125 0.09897 0.27328
 H1224 H -0.02582 0.11624 0.35831
 C1225 C 0.09441 0.37919 0.28305
 C1226 C 0.06916 0.36973 0.28519
 C1227 C 0.06432 0.34405 0.29905
 C1228 C 0.03938 0.33468 0.30333
 H1229 H 0.05211 0.38088 0.27750
 H1230 H 0.08165 0.33307 0.30635
 H1231 H 0.11075 0.36690 0.29072
 H1232 H 0.02234 0.34536 0.29477
 C1233 C 0.57388 0.90537 0.83253
 C1234 C 0.55134 0.89203 0.82507
 C1235 C 0.54329 0.86766 0.83967
 C1236 C 0.52268 0.85193 0.83132
 H1237 H 0.53976 0.89799 0.80755
 H1238 H 0.55490 0.86237 0.85738
 H1239 H 0.58558 0.89790 0.84943
 H1240 H 0.51037 0.85817 0.81435
 C1241 C 0.70309 0.56555 0.07499
 C1242 C 0.71064 0.56081 0.10164
 C1243 C 0.69256 0.54888 0.11903
 C1244 C 0.70020 0.54347 0.14547
 H1245 H 0.73040 0.56647 0.10943
 H1246 H 0.67247 0.54395 0.11157
 H1247 H 0.68372 0.55727 0.06823
 H1248 H 0.72127 0.54653 0.15117
 C1249 C 0.21308 1.05733 0.60159
 C1250 C 0.19245 1.06565 0.61587
 C1251 C 0.18187 1.04973 0.63806
 C1252 C 0.16018 1.05813 0.65067
 H1253 H 0.18290 1.08454 0.61110
 H1254 H 0.19170 1.03126 0.64385
 H1255 H 0.22141 1.03765 0.60547
 H1256 H 0.15013 1.07605 0.64348
 C1257 C 0.20023 0.94887 0.89894
 C1258 C 0.19603 0.94065 0.87247
 C1259 C 0.18231 0.95715 0.85437
 C1260 C 0.17754 0.94927 0.82792
 H1261 H 0.20275 0.92139 0.86560
 H1262 H 0.17522 0.97617 0.86145
 H1263 H 0.19369 0.96896 0.90381
 H1264 H 0.18666 0.93079 0.82148
 C1265 C 0.72484 0.45341 0.38782
 C1266 C 0.70645 0.44442 0.36990
 C1267 C 0.69718 0.46082 0.34712
 C1268 C 0.67899 0.45041 0.32973
 H1269 H 0.69747 0.42462 0.37218
 H1270 H 0.70537 0.48090 0.34474
 H1271 H 0.73256 0.47382 0.38619
 H1272 H 0.67184 0.43001 0.33313
 C1273 C 0.81059 0.44322 0.58015
 C1274 C 0.79767 0.45637 0.59906
 C1275 C 0.81307 0.46668 0.62241
 C1276 C 0.80134 0.47916 0.64251
 H1277 H 0.77603 0.45871 0.59800
 H1278 H 0.83446 0.46281 0.62347
 H1279 H 0.83220 0.44076 0.58263
 H1280 H 0.77966 0.48154 0.64184
 C1281 C 0.28073 -0.04821 0.08772
 C1282 C 0.27470 -0.05343 0.11301
 C1283 C 0.28953 -0.03957 0.13488
 C1284 C 0.28438 -0.04479 0.16035
 H1285 H 0.26012 -0.06890 0.11789
 H1286 H 0.30528 -0.02527 0.12995
 H1287 H 0.29608 -0.03304 0.08393
 H1288 H 0.26758 -0.05798 0.16503
 C1289 C 0.30913 0.06919 0.41693
 C1290 C 0.29611 0.05311 0.39940
 C1291 C 0.30861 0.04657 0.37405
 C1292 C 0.29738 0.02886 0.35695
 H1293 H 0.27625 0.04505 0.40335
 H1294 H 0.32746 0.05651 0.36932
 H1295 H 0.32950 0.07576 0.41270
 H1296 H 0.27950 0.01764 0.36246
 C1297 C 0.81539 0.58331 0.90214
 C1298 C 0.80522 0.56369 0.88653
 C1299 C 0.81977 0.55562 0.86276
 C1300 C 0.80916 0.53817 0.84501
 H1301 H 0.78576 0.55459 0.89037
 H1302 H 0.83951 0.56446 0.85976
 H1303 H 0.83428 0.59289 0.89682
 H1304 H 0.78998 0.52846 0.84896
 C1305 C 0.08318 0.69982 0.54447
 C1306 C 0.10956 0.70494 0.54821
 C1307 C 0.12976 0.68994 0.53356
 C1308 C 0.15587 0.69708 0.53494
 H1309 H 0.11641 0.72017 0.56230
 H1310 H 0.12315 0.67280 0.52171
 H1311 H 0.07664 0.68570 0.52913
 H1312 H 0.16186 0.71524 0.54555
 C1313 C 0.59190 0.19301 1.06569
 C1314 C 0.61783 0.19990 1.07015
 C1315 C 0.63942 0.18439 1.05822
 C1316 C 0.66545 0.19036 1.06337
 H1317 H 0.62343 0.21630 1.08335
 H1318 H 0.63373 0.16727 1.04598
 H1319 H 0.58721 0.17576 1.05317
 H1320 H 0.67053 0.20683 1.07677
 C1321 C 0.88661 0.22531 0.94563
 C1322 C 0.88459 0.20481 0.96462
 C1323 C 0.85967 0.19726 0.97466
 C1324 C 0.85791 0.17690 0.99377
 H1325 H 0.90215 0.19410 0.97167
 H1326 H 0.84183 0.20711 0.96699
 H1327 H 0.86849 0.23667 0.94131
 H1328 H 0.87672 0.16924 1.00205
 C1329 C 0.39037 0.71092 0.39677
 C1330 C 0.38278 0.70899 0.42204
 C1331 C 0.35636 0.69688 0.42817
 C1332 C 0.34865 0.69353 0.45325
 H1333 H 0.39579 0.71598 0.43824
 H1334 H 0.34330 0.69056 0.41173
 H1335 H 0.37628 0.70408 0.38128
 H1336 H 0.36175 0.70106 0.46924
 C1337 C 0.59139 0.77792 0.43256
 C1338 C 0.59740 0.80215 0.44275
 C1339 C 0.62243 0.80741 0.45846
 C1340 C 0.62758 0.83216 0.46785
 H1341 H 0.58386 0.81870 0.43913
 H1342 H 0.63660 0.79134 0.46151
 H1343 H 0.60426 0.76112 0.43750
 H1344 H 0.61231 0.84730 0.46458
 C1345 C 0.08554 0.28092 -0.05714
 C1346 C 0.10843 0.28826 -0.06879
 C1347 C 0.13141 0.29995 -0.05342
 C1348 C 0.15341 0.30846 -0.06595
 H1349 H 0.11002 0.28704 -0.09014
 H1350 H 0.12962 0.30255 -0.03222
 H1351 H 0.08406 0.28359 -0.03586
 H1352 H 0.15384 0.30605 -0.08735
 C1353 C 0.40746 0.28466 0.04538
 C1354 C 0.38188 0.28795 0.05225
 C1355 C 0.36219 0.30082 0.03411
 C1356 C 0.33656 0.30350 0.04112
 H1357 H 0.37536 0.28154 0.07165
 H1358 H 0.36895 0.30856 0.01528
 H1359 H 0.41330 0.28980 0.02538
 H1360 H 0.33014 0.29438 0.05953
 C1361 C 0.88670 0.77514 0.55235
 C1362 C 0.87028 0.79307 0.56288
 C1363 C 0.84408 0.80005 0.55038
 C1364 C 0.82793 0.81686 0.56295
 H1365 H 0.87634 0.80307 0.58126
 H1366 H 0.83874 0.79211 0.53093
 H1367 H 0.88006 0.76376 0.53498
 H1368 H 0.83424 0.82361 0.58268
   
