data_POSCAR
  _audit_creation_date              2014-09-24
  _audit_creation_method            'ToBaCCo'
  _symmetry_space_group_name_H-M    'P1'
  _symmetry_Int_Tables_number       1
  _symmetry_cell_setting            triclinic
  loop_
  _symmetry_equiv_pos_as_xyz
 x,y,z
_cell_length_a 67.6732
_cell_length_b 68.5679
_cell_length_c 67.6492
_cell_angle_alpha 90.296400
_cell_angle_beta 90.062200
_cell_angle_gamma 90.291200
loop_
  _atom_site_label
  _atom_site_type_symbol
  _atom_site_fract_x
  _atom_site_fract_y
  _atom_site_fract_z
C1 C 0.35935 0.33435 0.33649
 N2 N 0.35167 0.35084 0.32854
 C3 C 0.33550 0.35939 0.33669
 N4 N 0.32700 0.35120 0.35284
 C5 C 0.33441 0.33471 0.36093
 N6 N 0.35060 0.32638 0.35266
 C7 C 0.35796 0.83273 -0.16607
 N8 N 0.35016 0.84893 -0.17455
 C9 C 0.33384 0.85766 -0.16685
 N10 N 0.32534 0.84992 -0.15043
 C11 C 0.33290 0.83380 -0.14173
 N12 N 0.34918 0.82532 -0.14965
 C13 C 0.85692 0.33669 -0.16779
 N14 N 0.84843 0.35266 -0.17601
 C15 C 0.83219 0.36099 -0.16776
 N16 N 0.82451 0.35307 -0.15106
 C17 C 0.83273 0.33712 -0.14262
 N18 N 0.84894 0.32898 -0.15109
 C19 C 0.86189 0.83720 0.33265
 N20 N 0.85339 0.82953 0.34914
 C21 C 0.83718 0.83798 0.35738
 N22 N 0.82944 0.85417 0.34890
 C23 C 0.83770 0.86201 0.33247
 N24 N 0.85388 0.85343 0.32450
 C25 C 0.63954 0.66700 0.33545
 N26 N 0.64745 0.65026 0.32830
 C27 C 0.66356 0.64215 0.33688
 N28 N 0.67187 0.65105 0.35290
 C29 C 0.66409 0.66782 0.36033
 N30 N 0.64796 0.67569 0.35147
 C31 C 0.63825 0.16456 -0.15982
 N32 N 0.64640 0.14849 -0.16827
 C33 C 0.66293 0.14019 -0.16059
 N34 N 0.67138 0.14829 -0.14418
 C35 C 0.66337 0.16433 -0.13549
 N36 N 0.64686 0.17229 -0.14342
 C37 C 0.14198 0.66311 -0.16843
 N38 N 0.14999 0.64686 -0.17664
 C39 C 0.16616 0.63829 -0.16862
 N40 N 0.17431 0.64625 -0.15204
 C41 C 0.16649 0.66249 -0.14354
 N42 N 0.15033 0.67087 -0.15187
 C43 C 0.13769 0.16105 0.33521
 N44 N 0.14584 0.14483 0.32705
 C45 C 0.16221 0.13652 0.33492
 N46 N 0.17043 0.14466 0.35135
 C47 C 0.16249 0.16082 0.35986
 N48 N 0.14616 0.16898 0.35166
 C49 C 0.63674 0.33617 0.66538
 N50 N 0.64459 0.32729 0.64922
 C51 C 0.66061 0.33494 0.63994
 N52 N 0.66880 0.35169 0.64703
 C53 C 0.66117 0.36080 0.66316
 N54 N 0.64515 0.35291 0.67229
 C55 C 0.64156 0.83663 1.15934
 N56 N 0.64970 0.82856 1.14292
 C57 C 0.66623 0.83614 1.13461
 N58 N 0.67474 0.85218 1.14291
 C59 C 0.66687 0.86064 1.15934
 N60 N 0.65029 0.85270 1.16749
 C61 C 0.13790 0.33708 1.16706
 N62 N 0.14621 0.32923 1.15055
 C63 C 0.16242 0.33759 1.14218
 N64 N 0.17038 0.35389 1.15056
 C65 C 0.16231 0.36191 1.16704
 N66 N 0.14610 0.35342 1.17514
 C67 C 0.13893 0.83793 0.66099
 N68 N 0.14681 0.83019 0.64426
 C69 C 0.16329 0.83791 0.63595
 N70 N 0.17196 0.85371 0.64452
 C71 C 0.16432 0.86183 0.66124
 N72 N 0.14782 0.85376 0.66940
 C73 C 0.36156 0.66236 0.66096
 N74 N 0.35339 0.67057 0.64469
 C75 C 0.33688 0.66292 0.63623
 N76 N 0.32849 0.64677 0.64424
 C77 C 0.33646 0.63828 0.66052
 N78 N 0.35298 0.64622 0.66885
 C79 C 0.35915 0.16626 1.16353
 N80 N 0.35075 0.17403 1.14708
 C81 C 0.33455 0.16572 1.13867
 N82 N 0.32671 0.14944 1.14688
 C83 C 0.33472 0.14138 1.16332
 N84 N 0.35097 0.14993 1.17160
 C85 C 0.85960 0.66148 1.16711
 N86 N 0.85179 0.66921 1.15035
 C87 C 0.83555 0.66112 1.14171
 N88 N 0.82705 0.64518 1.15005
 C89 C 0.83452 0.63724 1.16681
 N90 N 0.85081 0.64551 1.17521
 C91 C 0.85881 0.16054 0.66749
 N92 N 0.85091 0.16864 0.65103
 C93 C 0.83438 0.16104 0.64253
 N94 N 0.82569 0.14512 0.65073
 C95 C 0.83334 0.13677 0.66724
 N96 N 0.84991 0.14464 0.67552
 C97 C 0.33719 0.35828 0.66432
 N98 N 0.32888 0.35025 0.64783
 C99 C 0.33676 0.33403 0.63938
 N100 N 0.35299 0.32584 0.64766
 C101 C 0.36141 0.33358 0.66414
 N102 N 0.35341 0.34981 0.67238
 C103 C 0.33758 0.86343 0.16155
 N104 N 0.32865 0.85476 0.14579
 C105 C 0.33617 0.83821 0.13764
 N106 N 0.35279 0.83027 0.14553
 C107 C 0.36189 0.83882 0.16130
 N108 N 0.35415 0.85534 0.16917
 C109 C 0.83727 0.36390 0.16801
 N110 N 0.82911 0.35603 0.15141
 C111 C 0.83702 0.33988 0.14282
 N112 N 0.85322 0.33154 0.15110
 C113 C 0.86155 0.33926 0.16770
 N114 N 0.85345 0.35540 0.17601
 C115 C 0.83529 0.86292 0.66869
 N116 N 0.82720 0.85517 0.65202
 C117 C 0.83525 0.83920 0.64320
 N118 N 0.85157 0.83093 0.65133
 C119 C 0.85986 0.83854 0.66801
 N120 N 0.85159 0.85450 0.67655
 C121 C 0.66802 0.64320 0.66371
 N122 N 0.67565 0.65225 0.64757
 C123 C 0.66710 0.66858 0.64021
 N124 N 0.65077 0.67587 0.64922
 C125 C 0.64293 0.66704 0.66537
 N126 N 0.65167 0.65072 0.67252
 C127 C 0.66486 0.14009 0.16454
 N128 N 0.64834 0.14826 0.17225
 C129 C 0.64066 0.16483 0.16453
 N130 N 0.64977 0.17331 0.14884
 C131 C 0.66633 0.16530 0.14087
 N132 N 0.67378 0.14872 0.14886
 C133 C 0.16548 0.63714 0.16548
 N134 N 0.17373 0.64527 0.14917
 C135 C 0.16572 0.66139 0.14078
 N136 N 0.14928 0.66943 0.14895
 C137 C 0.14084 0.66145 0.16528
 N138 N 0.14907 0.64534 0.17340
 C139 C 0.16485 0.13859 0.66756
 N140 N 0.17296 0.14645 0.65104
 C141 C 0.16525 0.16262 0.64263
 N142 N 0.14913 0.17099 0.65094
 C143 C 0.14073 0.16340 0.66748
 N144 N 0.14871 0.14718 0.67579
 C145 C 0.34071 0.64024 0.33446
 N146 N 0.35675 0.64928 0.32656
 C147 C 0.36423 0.66583 0.33490
 N148 N 0.35541 0.67334 0.35127
 C149 C 0.33936 0.66450 0.35935
 N150 N 0.33211 0.64797 0.35083
 C151 C 0.33376 0.13759 0.83958
 N152 N 0.35026 0.14525 0.83116
 C153 C 0.35879 0.16171 0.83857
 N154 N 0.35058 0.17055 0.85455
 C155 C 0.33407 0.16312 0.86317
 N156 N 0.32572 0.14665 0.85557
 C157 C 0.84147 0.63497 0.83467
 N158 N 0.85779 0.64352 0.82684
 C159 C 0.86585 0.65976 0.83519
 N160 N 0.85734 0.66753 0.85162
 C161 C 0.84102 0.65912 0.85970
 N162 N 0.83316 0.64289 0.85109
 C163 C 0.83504 0.13786 0.33730
 N164 N 0.82730 0.14593 0.35397
 C165 C 0.83589 0.16177 0.36257
 N166 N 0.85237 0.16954 0.35429
 C167 C 0.86032 0.16176 0.33764
 N168 N 0.85155 0.14592 0.32916
 C169 C 0.66470 0.35985 0.33952
 N170 N 0.64859 0.35166 0.33076
 C171 C 0.64031 0.33508 0.33805
 N172 N 0.64839 0.32663 0.35430
 C173 C 0.66450 0.33468 0.36326
 N174 N 0.67252 0.35125 0.35574
 C175 C 0.66341 0.85963 0.83961
 N176 N 0.64672 0.85175 0.83169
 C177 C 0.63887 0.83499 0.83887
 N178 N 0.64793 0.82605 0.85423
 C179 C 0.66464 0.83368 0.86242
 N180 N 0.67236 0.85048 0.85498
 C181 C 0.16394 0.36319 0.83612
 N182 N 0.14749 0.35545 0.82754
 C183 C 0.13841 0.33955 0.83537
 N184 N 0.14603 0.33137 0.85194
 C185 C 0.16247 0.33888 0.86071
 N186 N 0.17136 0.35478 0.85268
 C187 C 0.16638 0.86164 0.33355
 N188 N 0.15017 0.85340 0.32500
 C189 C 0.14177 0.83707 0.33273
 N190 N 0.14984 0.82893 0.34915
 C191 C 0.16605 0.83702 0.35786
 N192 N 0.17418 0.85334 0.34994
 O193 O 0.22696 0.98155 0.25034
 O194 O 0.25292 1.02027 0.22307
 O195 O 0.25396 0.98229 0.22313
 O196 O 0.22553 1.01947 0.24996
 O197 O 0.24849 1.02077 0.27310
 O198 O 0.27701 0.98353 0.24618
 O199 O 0.27589 1.02156 0.24619
 O200 O 0.24995 0.98280 0.27345
 Cu201 Cu 0.23755 1.00080 0.23430
 Cu202 Cu 0.26515 1.00228 0.26205
 C203 C 0.23407 0.97549 0.26656
 C204 C 0.26878 1.02762 0.22997
 C205 C 0.27031 0.97645 0.23011
 C206 C 0.23212 1.02654 0.26608
 O207 O 0.22726 0.47978 0.75043
 O208 O 0.25362 0.51723 0.72182
 O209 O 0.25434 0.47922 0.72324
 O210 O 0.22656 0.51771 0.74900
 O211 O 0.24959 0.51925 0.77205
 O212 O 0.27743 0.48080 0.74623
 O213 O 0.27667 0.51884 0.74485
 O214 O 0.25033 0.48129 0.77344
 Cu215 Cu 0.23814 0.49833 0.73381
 Cu216 Cu 0.26584 0.50019 0.76144
 C217 C 0.23431 0.47405 0.76681
 C218 C 0.26957 0.52458 0.72850
 C219 C 0.27060 0.47332 0.73040
 C220 C 0.23333 0.52514 0.76488
 O221 O 0.72453 0.01781 0.24558
 O222 O 0.75274 -0.01998 0.27165
 O223 O 0.75146 0.01798 0.27300
 O224 O 0.72577 -0.02021 0.24426
 O225 O 0.74896 -0.01861 0.22145
 O226 O 0.77465 0.01960 0.25018
 O227 O 0.77593 -0.01837 0.24883
 O228 O 0.74773 0.01943 0.22278
 Cu229 Cu 0.73629 -0.00126 0.26090
 Cu230 Cu 0.76413 0.00066 0.23351
 C231 C 0.73136 0.02520 0.22980
 C232 C 0.76915 -0.02571 0.26466
 C233 C 0.76740 0.02540 0.26649
 C234 C 0.73304 -0.02605 0.22798
 O235 O 0.72654 0.52044 0.74322
 O236 O 0.75146 0.48135 0.77054
 O237 O 0.75357 0.51929 0.77054
 O238 O 0.72470 0.48235 0.74301
 O239 O 0.74789 0.48144 0.72016
 O240 O 0.77681 0.51799 0.74775
 O241 O 0.77465 0.48005 0.74770
 O242 O 0.74981 0.51948 0.72045
 Cu243 Cu 0.73672 0.50098 0.75909
 Cu244 Cu 0.76459 0.49963 0.73171
 C245 C 0.73397 0.52680 0.72724
 C246 C 0.76726 0.47393 0.76381
 C247 C 0.77015 0.52498 0.76382
 C248 C 0.73146 0.47546 0.72692
 O249 O 0.22820 0.51915 0.24994
 O250 O 0.25538 0.48155 0.27685
 O251 O 0.25652 0.51947 0.27582
 O252 O 0.22745 0.48130 0.25054
 O253 O 0.24953 0.48034 0.22660
 O254 O 0.27876 0.51833 0.25204
 O255 O 0.27755 0.48019 0.25302
 O256 O 0.25034 0.51841 0.22605
 Cu257 Cu 0.23970 0.50047 0.26568
 Cu258 Cu 0.26629 0.49921 0.23704
 C259 C 0.23457 0.52531 0.23346
 C260 C 0.27099 0.47428 0.26957
 C261 C 0.27257 0.52552 0.26822
 C262 C 0.23353 0.47425 0.23425
 O263 O 0.74495 1.02009 0.78002
 O264 O 0.77277 0.98190 0.75383
 O265 O 0.77208 1.01991 0.75277
 O266 O 0.74530 0.98192 0.78072
 O267 O 0.72238 0.98120 0.75753
 O268 O 0.74918 1.01861 0.72958
 O269 O 0.74982 0.98069 0.73068
 O270 O 0.72215 1.01916 0.75672
 Cu271 Cu 0.76107 1.00106 0.76918
 Cu272 Cu 0.73358 0.99980 0.74133
 C273 C 0.72887 1.02631 0.77276
 C274 C 0.76606 0.97469 0.73783
 C275 C 0.76514 1.02579 0.73639
 C276 C 0.72924 0.97501 0.77379
 O277 O 0.74662 0.52042 0.27990
 O278 O 0.77468 0.48252 0.25352
 O279 O 0.77357 0.52047 0.25257
 O280 O 0.74747 0.48232 0.28067
 O281 O 0.72445 0.48088 0.25760
 O282 O 0.75045 0.51901 0.22960
 O283 O 0.75162 0.48109 0.23050
 O284 O 0.72351 0.51890 0.25693
 Cu285 Cu 0.76288 0.50156 0.26899
 Cu286 Cu 0.73518 0.49984 0.24137
 C287 C 0.73030 0.52626 0.27284
 C288 C 0.76797 0.47528 0.23752
 C289 C 0.76642 0.52632 0.23627
 C290 C 0.73157 0.47496 0.27387
 O291 O 0.24817 -0.01990 0.72554
 O292 O 0.27425 0.01760 0.75482
 O293 O 0.27505 -0.02036 0.75286
 O294 O 0.24780 0.01799 0.72700
 O295 O 0.22431 0.01704 0.74956
 O296 O 0.25164 -0.02183 0.77546
 O297 O 0.25084 0.01627 0.77742
 O298 O 0.22465 -0.02108 0.74804
 Cu299 Cu 0.26366 -0.00102 0.73781
 Cu300 Cu 0.23551 -0.00253 0.76490
 C301 C 0.23198 -0.02698 0.73182
 C302 C 0.26695 0.02345 0.77109
 C303 C 0.26798 -0.02782 0.76848
 C304 C 0.23150 0.02419 0.73379
 O305 O 0.24517 0.27716 0.98143
 O306 O 0.27217 0.25020 1.01995
 O307 O 0.27224 0.25039 0.98149
 O308 O 0.24549 0.27734 1.01996
 O309 O 0.22223 0.25470 1.02019
 O310 O 0.24891 0.22781 0.98114
 O311 O 0.24892 0.22756 1.01958
 O312 O 0.22183 0.25461 0.98163
 Cu313 Cu 0.26109 0.26605 1.00071
 Cu314 Cu 0.23312 0.23892 1.00062
 C315 C 0.22887 0.27044 0.97491
 C316 C 0.26512 0.23422 1.02634
 C317 C 0.26519 0.23453 0.97466
 C318 C 0.22938 0.27063 1.02680
 O319 O 0.24890 0.77498 0.47871
 O320 O 0.27542 0.74811 0.51713
 O321 O 0.27557 0.74786 0.47868
 O322 O 0.24841 0.77495 0.51716
 O323 O 0.22504 0.75242 0.51656
 O324 O 0.25234 0.72518 0.47865
 O325 O 0.25210 0.72554 0.51717
 O326 O 0.22565 0.75233 0.47805
 Cu327 Cu 0.26441 0.76374 0.49795
 Cu328 Cu 0.23644 0.73660 0.49759
 C329 C 0.23282 0.76829 0.47170
 C330 C 0.26835 0.73229 0.52381
 C331 C 0.26856 0.73186 0.47207
 C332 C 0.23202 0.76829 0.52342
 O333 O 0.27374 0.75176 -0.01965
 O334 O 0.24822 0.72356 0.01891
 O335 O 0.24816 0.72340 -0.01966
 O336 O 0.27400 0.75181 0.01891
 O337 O 0.24977 0.77319 0.01899
 O338 O 0.22391 0.74476 -0.01960
 O339 O 0.22397 0.74492 0.01907
 O340 O 0.24950 0.77313 -0.01955
 Cu341 Cu 0.26345 0.73549 -0.00037
 Cu342 Cu 0.23435 0.76112 -0.00024
 C343 C 0.26593 0.76721 -0.02630
 C344 C 0.23179 0.72946 0.02569
 C345 C 0.23171 0.72930 -0.02638
 C346 C 0.26629 0.76735 0.02561
 O347 O 0.22317 0.24459 0.48145
 O348 O 0.25055 0.27220 0.51982
 O349 O 0.24962 0.27232 0.48124
 O350 O 0.22396 0.24463 0.52013
 O351 O 0.24763 0.22266 0.51951
 O352 O 0.27313 0.25018 0.48039
 O353 O 0.27415 0.25015 0.51880
 O354 O 0.24678 0.22254 0.48103
 Cu355 Cu 0.23444 0.26064 0.50072
 Cu356 Cu 0.26276 0.23417 0.49987
 C357 C 0.23038 0.22885 0.47463
 C358 C 0.26709 0.26582 0.52587
 C359 C 0.26572 0.26597 0.47410
 C360 C 0.23149 0.22897 0.52660
 O361 O 0.72853 0.74809 1.01747
 O362 O 0.75568 0.72040 0.97979
 O363 O 0.75506 0.72092 1.01817
 O364 O 0.72887 0.74726 0.97919
 O365 O 0.75211 0.76992 0.97907
 O366 O 0.77853 0.74335 1.01844
 O367 O 0.77909 0.74289 0.97973
 O368 O 0.75188 0.77066 1.01764
 Cu369 Cu 0.73973 0.73191 0.99866
 Cu370 Cu 0.76779 0.75895 0.99872
 C371 C 0.73551 0.76410 1.02403
 C372 C 0.77198 0.72692 0.97320
 C373 C 0.77119 0.72759 1.02509
 C374 C 0.73590 0.76307 0.97243
 O375 O 0.74701 0.27174 0.48382
 O376 O 0.77361 0.24494 0.52219
 O377 O 0.77410 0.24508 0.48380
 O378 O 0.74605 0.27114 0.52218
 O379 O 0.72314 0.24816 0.52126
 O380 O 0.75128 0.22202 0.48298
 O381 O 0.75080 0.22186 0.52161
 O382 O 0.72410 0.24877 0.48268
 Cu383 Cu 0.76248 0.26052 0.50308
 Cu384 Cu 0.73503 0.23288 0.50205
 C385 C 0.73109 0.26491 0.47659
 C386 C 0.76681 0.22888 0.52857
 C387 C 0.76748 0.22912 0.47676
 C388 C 0.72978 0.26410 0.52832
 O389 O 0.77668 0.25594 -0.01823
 O390 O 0.75143 0.22843 0.02108
 O391 O 0.75034 0.22814 -0.01748
 O392 O 0.77761 0.25638 0.02050
 O393 O 0.75381 0.27823 0.02083
 O394 O 0.72654 0.24998 -0.01656
 O395 O 0.72773 0.25038 0.02183
 O396 O 0.75281 0.27770 -0.01768
 Cu397 Cu 0.76643 0.24005 0.00142
 Cu398 Cu 0.73787 0.26627 0.00215
 C399 C 0.76896 0.27146 -0.02482
 C400 C 0.73529 0.23471 0.02824
 C401 C 0.73371 0.23429 -0.02349
 C402 C 0.77027 0.27210 0.02725
 O403 O 0.77629 0.75765 0.48026
 O404 O 0.74910 0.73098 0.51900
 O405 O 0.74894 0.73076 0.48034
 O406 O 0.77622 0.75804 0.51903
 O407 O 0.75314 0.78062 0.51883
 O408 O 0.72598 0.75346 0.48048
 O409 O 0.72612 0.75366 0.51894
 O410 O 0.75322 0.78024 0.48032
 Cu411 Cu 0.76497 0.74210 0.49965
 Cu412 Cu 0.73734 0.76926 0.49963
 C413 C 0.76930 0.77347 0.47356
 C414 C 0.73300 0.73782 0.52568
 C415 C 0.73278 0.73752 0.47375
 C416 C 0.76921 0.77395 0.52566
 O417 O 1.01829 0.22416 0.25242
 O418 O 0.97991 0.25244 0.22695
 O419 O 1.01849 0.25201 0.22639
 O420 O 0.97974 0.22449 0.25289
 O421 O 0.98079 0.24628 0.27697
 O422 O 1.01901 0.27376 0.25051
 O423 O 0.98065 0.27415 0.25111
 O424 O 1.01916 0.24602 0.27644
 Cu425 Cu 0.99903 0.23608 0.23724
 Cu426 Cu 0.99996 0.26223 0.26616
 C427 C 1.02536 0.23027 0.26874
 C428 C 0.97366 0.26815 0.23473
 C429 C 1.02540 0.26761 0.23399
 C430 C 0.97364 0.23073 0.26951
 O431 O 0.48066 0.24964 0.72773
 O432 O 0.51899 0.22393 0.75591
 O433 O 0.48051 0.22278 0.75472
 O434 O 0.51907 0.25087 0.72901
 O435 O 0.51774 0.27358 0.75217
 O436 O 0.47917 0.24547 0.77789
 O437 O 0.51766 0.24663 0.77908
 O438 O 0.47930 0.27234 0.75090
 Cu439 Cu 0.49994 0.23452 0.73952
 Cu440 Cu 0.49834 0.26177 0.76735
 C441 C 0.47338 0.26536 0.73449
 C442 C 0.52496 0.23093 0.77229
 C443 C 0.47317 0.22936 0.77067
 C444 C 0.52504 0.26702 0.73618
 O445 O 0.01833 0.25427 0.77533
 O446 O -0.01944 0.22466 0.74983
 O447 O 0.01918 0.22589 0.74961
 O448 O -0.02029 0.25330 0.77520
 O449 O -0.02059 0.27456 0.75085
 O450 O 0.01833 0.24716 0.72530
 O451 O -0.02014 0.24598 0.72555
 O452 O 0.01789 0.27548 0.75094
 Cu453 Cu -0.00049 0.23740 0.76494
 Cu454 Cu -0.00118 0.26291 0.73573
 C455 C 0.02469 0.26987 0.76747
 C456 C -0.02639 0.23032 0.73339
 C457 C 0.02554 0.23194 0.73304
 C458 C -0.02724 0.26861 0.76731
 O459 O 0.51945 0.25201 0.27489
 O460 O 0.48034 0.22543 0.24751
 O461 O 0.51887 0.22514 0.24760
 O462 O 0.48089 0.25187 0.27516
 O463 O 0.48066 0.27469 0.25231
 O464 O 0.51940 0.24808 0.22487
 O465 O 0.48082 0.24825 0.22465
 O466 O 0.51922 0.27494 0.25215
 Cu467 Cu 0.49989 0.23633 0.26357
 Cu468 Cu 0.50004 0.26378 0.23621
 C469 C 0.52604 0.26805 0.26814
 C470 C 0.47385 0.23239 0.23138
 C471 C 0.52577 0.23201 0.23163
 C472 C 0.47411 0.26774 0.26843
 O473 O 1.02113 0.77624 0.74693
 O474 O 0.98349 0.74799 0.77435
 O475 O 1.02205 0.74849 0.77308
 O476 O 0.98255 0.77603 0.74851
 O477 O 0.98147 0.75414 0.72453
 O478 O 1.02123 0.72675 0.74896
 O479 O 0.98292 0.72621 0.75025
 O480 O 1.01988 0.75439 0.72292
 Cu481 Cu 1.00238 0.76440 0.76313
 Cu482 Cu 1.00129 0.73821 0.73425
 C483 C 1.02696 0.77004 0.73018
 C484 C 0.97679 0.73221 0.76692
 C485 C 1.02845 0.73291 0.76519
 C486 C 0.97517 0.76978 0.73239
 O487 O 0.52186 0.77807 0.24445
 O488 O 0.48328 0.75214 0.27244
 O489 O 0.52176 0.75134 0.27157
 O490 O 0.48336 0.77857 0.24497
 O491 O 0.48216 0.75557 0.22208
 O492 O 0.52066 0.72842 0.24860
 O493 O 0.48225 0.72919 0.24950
 O494 O 0.52066 0.75516 0.22148
 Cu495 Cu 0.50266 0.76734 0.26066
 Cu496 Cu 0.50134 0.73979 0.23310
 C497 C 0.52792 0.77100 0.22817
 C498 C 0.47614 0.73624 0.26576
 C499 C 0.52783 0.73521 0.26460
 C500 C 0.47611 0.77171 0.22903
 O501 O -0.01853 0.77359 0.25011
 O502 O 0.01969 0.74532 0.22417
 O503 O -0.01889 0.74518 0.22453
 O504 O 0.01997 0.77373 0.24973
 O505 O 0.02015 0.75251 0.27411
 O506 O -0.01873 0.72398 0.24894
 O507 O 0.01980 0.72408 0.24852
 O508 O -0.01844 0.75239 0.27451
 Cu509 Cu 0.00053 0.76158 0.23469
 Cu510 Cu 0.00072 0.73611 0.26396
 C511 C -0.02512 0.76782 0.26668
 C512 C 0.02639 0.72989 0.23197
 C513 C -0.02557 0.72974 0.23248
 C514 C 0.02680 0.76796 0.26618
 O515 O 0.47980 0.77251 0.75282
 O516 O 0.51984 0.74659 0.72673
 O517 O 0.48136 0.74586 0.72538
 O518 O 0.51828 0.77362 0.75374
 O519 O 0.51846 0.75084 0.77662
 O520 O 0.48078 0.72317 0.74835
 O521 O 0.51936 0.72377 0.74957
 O522 O 0.47987 0.74985 0.77584
 Cu523 Cu 0.49983 0.76191 0.73737
 Cu524 Cu 0.49959 0.73463 0.76490
 C525 C 0.47296 0.76556 0.76882
 C526 C 0.52650 0.73075 0.73373
 C527 C 0.47462 0.72986 0.73199
 C528 C 0.52485 0.76698 0.76993
 C529 C 0.40966 0.30586 0.30998
 C530 C 0.40145 0.32264 0.30113
 C531 C 0.38522 0.33202 0.30992
 C532 C 0.37685 0.32485 0.32746
 C533 C 0.38514 0.30828 0.33623
 C534 C 0.40129 0.29893 0.32768
 C535 C 0.42674 0.29607 0.29994
 C536 C 0.43585 0.27925 0.30750
 C537 C 0.45132 0.27034 0.29736
 C538 C 0.45823 0.27792 0.27941
 C539 C 0.44950 0.29488 0.27190
 C540 C 0.43385 0.30395 0.28198
 C541 C 0.40935 0.32986 0.28347
 C542 C 0.42517 0.32071 0.27409
 H543 H 0.40310 0.34273 0.27669
 H544 H 0.43062 0.32680 0.26037
 H545 H 0.37900 0.34479 0.30294
 H546 H 0.37910 0.30240 0.34978
 H547 H 0.45778 0.25732 0.30357
 H548 H 0.45471 0.30092 0.25806
 H549 H 0.40687 0.28625 0.33515
 H550 H 0.43121 0.27261 0.32115
 C551 C 0.40760 0.80399 0.80877
 C552 C 0.39989 0.82097 0.79987
 C553 C 0.38362 0.83057 0.80834
 C554 C 0.37463 0.82347 0.82568
 C555 C 0.38254 0.80667 0.83449
 C556 C 0.39872 0.79711 0.82623
 C557 C 0.42477 0.79398 0.79908
 C558 C 0.43341 0.77694 0.80671
 C559 C 0.44909 0.76794 0.79695
 C560 C 0.45667 0.77563 0.77932
 C561 C 0.44832 0.79275 0.77170
 C562 C 0.43249 0.80192 0.78140
 C563 C 0.40835 0.82818 0.78246
 C564 C 0.42427 0.81886 0.77343
 H565 H 0.40250 0.84120 0.77563
 H566 H 0.43018 0.82499 0.75992
 H567 H 0.37790 0.84350 0.80122
 H568 H 0.37619 0.80070 0.84786
 H569 H 0.45522 0.75479 0.80322
 H570 H 0.45403 0.79888 0.75810
 H571 H 0.40392 0.78429 0.83373
 H572 H 0.42826 0.77022 0.82013
 C573 C -0.09253 0.31003 0.80414
 C574 C -0.10068 0.30187 0.82152
 C575 C -0.11701 0.31069 0.83070
 C576 C -0.12553 0.32761 0.82281
 C577 C -0.11729 0.33571 0.80566
 C578 C -0.10105 0.32711 0.79646
 C579 C -0.07531 0.29998 0.79459
 C580 C -0.06628 0.30682 0.77718
 C581 C -0.05062 0.29672 0.76859
 C582 C -0.04341 0.27953 0.77708
 C583 C -0.05211 0.27272 0.79460
 C584 C -0.06797 0.28275 0.80335
 C585 C -0.09258 0.28489 0.82954
 C586 C -0.07660 0.27554 0.82066
 H587 H -0.09878 0.27864 0.84287
 H588 H -0.07098 0.26238 0.82741
 H589 H -0.12316 0.30423 0.84395
 H590 H -0.12344 0.34877 0.79920
 H591 H -0.04420 0.30239 0.75511
 H592 H -0.04670 0.25945 0.80133
 H593 H -0.09551 0.33404 0.78331
 H594 H -0.07113 0.31987 0.76984
 C595 C -0.08892 0.81033 0.30471
 C596 C -0.09712 0.80216 0.32206
 C597 C -0.11324 0.81120 0.33145
 C598 C -0.12155 0.82836 0.32376
 C599 C -0.11308 0.83647 0.30664
 C600 C -0.09707 0.82765 0.29730
 C601 C -0.07205 0.80002 0.29486
 C602 C -0.06311 0.80681 0.27737
 C603 C -0.04781 0.79645 0.26846
 C604 C -0.04089 0.77905 0.27672
 C605 C -0.04948 0.77228 0.29432
 C606 C -0.06499 0.78257 0.30337
 C607 C -0.08930 0.78494 0.32984
 C608 C -0.07359 0.77537 0.32071
 H609 H -0.09550 0.77868 0.34316
 H610 H -0.06818 0.76203 0.32727
 H611 H -0.11940 0.80465 0.34465
 H612 H -0.11885 0.84971 0.30021
 H613 H -0.04145 0.80206 0.25494
 H614 H -0.04429 0.75885 0.30087
 H615 H -0.09144 0.83465 0.28423
 H616 H -0.06777 0.82001 0.27018
 C617 C 0.59048 0.69355 0.30506
 C618 C 0.59880 0.70261 0.32201
 C619 C 0.61457 0.69377 0.33203
 C620 C 0.62235 0.67595 0.32541
 C621 C 0.61386 0.66689 0.30877
 C622 C 0.59817 0.67551 0.29874
 C623 C 0.57400 0.70369 0.29448
 C624 C 0.56498 0.69608 0.27728
 C625 C 0.54997 0.70627 0.26775
 C626 C 0.54346 0.72430 0.27508
 C627 C 0.55221 0.73193 0.29232
 C628 C 0.56739 0.72183 0.30199
 C629 C 0.59146 0.72050 0.32876
 C630 C 0.57608 0.72989 0.31899
 H631 H 0.59777 0.72743 0.34176
 H632 H 0.57102 0.74376 0.32476
 H633 H 0.62091 0.70095 0.34489
 H634 H 0.61944 0.65311 0.30331
 H635 H 0.54349 0.70001 0.25451
 H636 H 0.54734 0.74585 0.29815
 H637 H 0.59240 0.66782 0.28603
 H638 H 0.56934 0.68236 0.27084
 C639 C 0.58872 0.19256 0.81435
 C640 C 0.59669 0.17556 0.80556
 C641 C 0.61284 0.16612 0.81434
 C642 C 0.62149 0.17345 0.83182
 C643 C 0.61326 0.19020 0.84059
 C644 C 0.59716 0.19958 0.83204
 C645 C 0.57183 0.20250 0.80422
 C646 C 0.56302 0.21963 0.81163
 C647 C 0.54771 0.22864 0.80136
 C648 C 0.54072 0.22086 0.78345
 C649 C 0.54917 0.20363 0.77609
 C650 C 0.56462 0.19446 0.78628
 C651 C 0.58867 0.16819 0.78793
 C652 C 0.57300 0.17744 0.77849
 H653 H 0.59471 0.15514 0.78121
 H654 H 0.56745 0.17123 0.76479
 H655 H 0.61881 0.15320 0.80728
 H656 H 0.61933 0.19632 0.85410
 H657 H 0.54145 0.24188 0.80743
 H658 H 0.54389 0.19742 0.76228
 H659 H 0.59171 0.21240 0.83950
 H660 H 0.56777 0.22642 0.82524
 C661 C 1.09243 0.69060 0.80284
 C662 C 1.10074 0.69894 0.82016
 C663 C 1.11671 0.68983 0.82964
 C664 C 1.12467 0.67244 0.82209
 C665 C 1.11619 0.66413 0.80505
 C666 C 1.10034 0.67301 0.79556
 C667 C 1.07569 0.70097 0.79292
 C668 C 1.06665 0.69405 0.77544
 C669 C 1.05132 0.70438 0.76659
 C670 C 1.04452 0.72189 0.77490
 C671 C 1.05332 0.72885 0.79240
 C672 C 1.06882 0.71859 0.80139
 C673 C 1.09317 0.71637 0.82785
 C674 C 1.07754 0.72596 0.81869
 H675 H 1.09948 0.72275 0.84114
 H676 H 1.07228 0.73944 0.82520
 H677 H 1.12305 0.69644 0.84281
 H678 H 1.12190 0.65069 0.79886
 H679 H 1.04481 0.69864 0.75313
 H680 H 1.04823 0.74237 0.79898
 H681 H 1.09460 0.66588 0.78252
 H682 H 1.07121 0.68075 0.76826
 C683 C 1.08864 0.18767 0.30708
 C684 C 1.09679 0.19596 0.32450
 C685 C 1.11281 0.18695 0.33398
 C686 C 1.12109 0.16970 0.32631
 C687 C 1.11264 0.16142 0.30917
 C688 C 1.09671 0.17021 0.29974
 C689 C 1.07193 0.19801 0.29709
 C690 C 1.06306 0.19113 0.27951
 C691 C 1.04788 0.20153 0.27050
 C692 C 1.04107 0.21905 0.27874
 C693 C 1.04963 0.22591 0.29640
 C694 C 1.06497 0.21560 0.30555
 C695 C 1.08906 0.21330 0.33224
 C696 C 1.07349 0.22290 0.32298
 H697 H 1.09523 0.21965 0.34560
 H698 H 1.06814 0.23634 0.32950
 H699 H 1.11894 0.19362 0.34721
 H700 H 1.11840 0.14810 0.30278
 H701 H 1.04155 0.19585 0.25692
 H702 H 1.04450 0.23944 0.30294
 H703 H 1.09108 0.16310 0.28663
 H704 H 1.06766 0.17783 0.27235
 C705 C 0.58784 0.30941 0.69618
 C706 C 0.59551 0.30083 0.67875
 C707 C 0.61121 0.30978 0.66868
 C708 C 0.61963 0.32726 0.67570
 C709 C 0.61184 0.33587 0.69285
 C710 C 0.59618 0.32711 0.70296
 C711 C 0.57134 0.29911 0.70672
 C712 C 0.56280 0.30625 0.72431
 C713 C 0.54772 0.29590 0.73374
 C714 C 0.54072 0.27818 0.72591
 C715 C 0.54898 0.27105 0.70829
 C716 C 0.56417 0.28131 0.69872
 C717 C 0.58761 0.28327 0.67152
 C718 C 0.57229 0.27373 0.68128
 H719 H 0.59346 0.27673 0.65815
 H720 H 0.56677 0.26012 0.67513
 H721 H 0.61700 0.30294 0.65543
 H722 H 0.61797 0.34936 0.69862
 H723 H 0.54161 0.30177 0.74729
 H724 H 0.54370 0.25739 0.70206
 H725 H 0.59094 0.33440 0.71609
 H726 H 0.56759 0.31972 0.73111
 C727 C 0.59180 0.80920 0.18576
 C728 C 0.60027 0.82607 0.19453
 C729 C 0.61651 0.83538 0.18559
 C730 C 0.62473 0.82801 0.16797
 C731 C 0.61598 0.81139 0.15924
 C732 C 0.59982 0.80218 0.16793
 C733 C 0.57487 0.79936 0.19602
 C734 C 0.56564 0.78236 0.18858
 C735 C 0.55032 0.77340 0.19894
 C736 C 0.54371 0.78110 0.21699
 C737 C 0.55257 0.79821 0.22439
 C738 C 0.56807 0.80734 0.21409
 C739 C 0.59264 0.83340 0.21231
 C740 C 0.57690 0.82423 0.22188
 H741 H 0.59905 0.84634 0.21904
 H742 H 0.57167 0.83040 0.23569
 H743 H 0.62290 0.84819 0.19261
 H744 H 0.62167 0.80525 0.14562
 H745 H 0.54374 0.76026 0.19283
 H746 H 0.54758 0.80434 0.23831
 H747 H 0.59399 0.78947 0.16046
 H748 H 0.57006 0.77562 0.17487
 C749 C 1.08889 0.31014 0.19533
 C750 C 1.09696 0.30184 0.17794
 C751 C 1.11299 0.31092 0.16843
 C752 C 1.12136 0.32826 0.17606
 C753 C 1.11302 0.33650 0.19320
 C754 C 1.09708 0.32764 0.20265
 C755 C 1.07212 0.29977 0.20532
 C756 C 1.06332 0.30672 0.22284
 C757 C 1.04810 0.29633 0.23188
 C758 C 1.04114 0.27873 0.22376
 C759 C 1.04959 0.27178 0.20614
 C760 C 1.06502 0.28211 0.19694
 C761 C 1.08910 0.28443 0.17026
 C762 C 1.07349 0.27479 0.17955
 H763 H 1.09522 0.27807 0.15692
 H764 H 1.06805 0.26130 0.17307
 H765 H 1.11906 0.30427 0.15521
 H766 H 1.11886 0.34987 0.19956
 H767 H 1.04184 0.30211 0.24542
 H768 H 1.04435 0.25819 0.19970
 H769 H 1.09154 0.33475 0.21575
 H770 H 1.06799 0.32008 0.22993
 C771 C 1.08954 0.81001 0.68756
 C772 C 1.09833 0.82649 0.69673
 C773 C 1.11441 0.83602 0.68771
 C774 C 1.12219 0.82918 0.66966
 C775 C 1.11313 0.81293 0.66058
 C776 C 1.09709 0.80354 0.66931
 C777 C 1.07282 0.79989 0.69788
 C778 C 1.06323 0.78333 0.68995
 C779 C 1.04825 0.77396 0.70039
 C780 C 1.04230 0.78081 0.71902
 C781 C 1.05143 0.79757 0.72690
 C782 C 1.06663 0.80711 0.71650
 C783 C 1.09125 0.83316 0.71500
 C784 C 1.07578 0.82366 0.72469
 H785 H 1.09792 0.84581 0.72206
 H786 H 1.07101 0.82928 0.73890
 H787 H 1.12106 0.84853 0.69504
 H788 H 1.11847 0.80719 0.64664
 H789 H 1.04142 0.76115 0.69385
 H790 H 1.04693 0.80305 0.74126
 H791 H 1.09104 0.79112 0.66155
 H792 H 1.06711 0.77722 0.67578
 C793 C 0.41190 0.69038 0.68847
 C794 C 0.40275 0.67415 0.69760
 C795 C 0.38660 0.66478 0.68843
 C796 C 0.37925 0.67144 0.67026
 C797 C 0.38861 0.68734 0.66115
 C798 C 0.40468 0.69665 0.67005
 C799 C 0.42865 0.70040 0.69901
 C800 C 0.43842 0.71688 0.69131
 C801 C 0.45344 0.72614 0.70195
 C802 C 0.45926 0.71924 0.72055
 C803 C 0.44991 0.70258 0.72821
 C804 C 0.43464 0.69320 0.71765
 C805 C 0.40958 0.66756 0.71594
 C806 C 0.42518 0.67686 0.72573
 H807 H 0.40265 0.65510 0.72293
 H808 H 0.42978 0.67129 0.73997
 H809 H 0.37955 0.65250 0.69566
 H810 H 0.38342 0.69278 0.64707
 H811 H 0.46042 0.73889 0.69560
 H812 H 0.45426 0.69710 0.74257
 H813 H 0.41107 0.70882 0.66228
 H814 H 0.43462 0.72302 0.67719
 C815 C 0.40891 0.19431 0.18982
 C816 C 0.40074 0.17733 0.19845
 C817 C 0.38443 0.16793 0.18961
 C818 C 0.37583 0.17529 0.17221
 C819 C 0.38416 0.19211 0.16370
 C820 C 0.40039 0.20144 0.17231
 C821 C 0.42609 0.20410 0.19987
 C822 C 0.43520 0.22107 0.19245
 C823 C 0.45079 0.22997 0.20260
 C824 C 0.45782 0.22223 0.22041
 C825 C 0.44909 0.20512 0.22778
 C826 C 0.43333 0.19605 0.21768
 C827 C 0.40878 0.16994 0.21597
 C828 C 0.42468 0.17912 0.22539
 H829 H 0.40258 0.15693 0.22260
 H830 H 0.43023 0.17289 0.23899
 H831 H 0.37835 0.15499 0.19650
 H832 H 0.37812 0.19829 0.15030
 H833 H 0.45725 0.24310 0.19649
 H834 H 0.45440 0.19896 0.24151
 H835 H 0.40591 0.21430 0.16502
 H836 H 0.43049 0.22783 0.17890
 C837 C -0.09063 0.68773 0.19519
 C838 C -0.09837 0.69565 0.17754
 C839 C -0.11469 0.68681 0.16820
 C840 C -0.12370 0.67005 0.17619
 C841 C -0.11578 0.66218 0.19364
 C842 C -0.09954 0.67083 0.20297
 C843 C -0.07344 0.69786 0.20491
 C844 C -0.06480 0.69129 0.22262
 C845 C -0.04915 0.70152 0.23135
 C846 C -0.04164 0.71855 0.22269
 C847 C -0.04994 0.72506 0.20488
 C848 C -0.06573 0.71492 0.19600
 C849 C -0.08989 0.71246 0.16937
 C850 C -0.07394 0.72188 0.17840
 H851 H -0.09577 0.71852 0.15583
 H852 H -0.06802 0.73491 0.17155
 H853 H -0.12042 0.69319 0.15474
 H854 H -0.12216 0.64927 0.20030
 H855 H -0.04303 0.69611 0.24505
 H856 H -0.04427 0.73820 0.19801
 H857 H -0.09430 0.66408 0.21633
 H858 H -0.06994 0.67838 0.23008
 C859 C -0.09053 0.18719 0.69584
 C860 C -0.09832 0.19505 0.67818
 C861 C -0.11459 0.18611 0.66889
 C862 C -0.12347 0.16938 0.67694
 C863 C -0.11554 0.16147 0.69430
 C864 C -0.09931 0.17020 0.70362
 C865 C -0.07348 0.19753 0.70558
 C866 C -0.06481 0.19110 0.72333
 C867 C -0.04938 0.20160 0.73213
 C868 C -0.04212 0.21876 0.72349
 C869 C -0.05040 0.22508 0.70562
 C870 C -0.06598 0.21468 0.69668
 C871 C -0.09001 0.21192 0.66999
 C872 C -0.07420 0.22152 0.67904
 H873 H -0.09595 0.21790 0.65644
 H874 H -0.06842 0.23461 0.67219
 H875 H -0.12048 0.19241 0.65546
 H876 H -0.12199 0.14855 0.70086
 H877 H -0.04325 0.19633 0.74589
 H878 H -0.04492 0.23830 0.69876
 H879 H -0.09401 0.16348 0.71698
 H880 H -0.06980 0.17812 0.73077
 C881 C 0.30876 0.41029 0.31077
 C882 C 0.32470 0.40091 0.30114
 C883 C 0.33364 0.38455 0.30978
 C884 C 0.32680 0.37718 0.32789
 C885 C 0.31114 0.38668 0.33744
 C886 C 0.30228 0.40298 0.32908
 C887 C 0.29926 0.42736 0.30085
 C888 C 0.28321 0.43750 0.30916
 C889 C 0.27437 0.45284 0.29907
 C890 C 0.28128 0.45860 0.28044
 C891 C 0.29755 0.44890 0.27218
 C892 C 0.30652 0.43333 0.28220
 C893 C 0.33142 0.40775 0.28285
 C894 C 0.32252 0.42359 0.27358
 H895 H 0.34365 0.40063 0.27547
 H896 H 0.32816 0.42817 0.25934
 H897 H 0.34571 0.37737 0.30219
 H898 H 0.30557 0.38146 0.35146
 H899 H 0.26192 0.46009 0.30588
 H900 H 0.30306 0.45322 0.25780
 H901 H 0.29026 0.40948 0.33717
 H902 H 0.27708 0.43378 0.32335
 C903 C 0.30864 -0.09275 0.80543
 C904 C 0.29991 -0.10076 0.82257
 C905 C 0.30844 -0.11700 0.83178
 C906 C 0.32564 -0.12573 0.82413
 C907 C 0.33427 -0.11760 0.80713
 C908 C 0.32596 -0.10139 0.79794
 C909 C 0.29887 -0.07557 0.79589
 C910 C 0.30639 -0.06649 0.77883
 C911 C 0.29647 -0.05088 0.77021
 C912 C 0.27879 -0.04384 0.77832
 C913 C 0.27135 -0.05256 0.79552
 C914 C 0.28121 -0.06830 0.80432
 C915 C 0.28258 -0.09268 0.83034
 C916 C 0.27342 -0.07685 0.82139
 H917 H 0.27589 -0.09880 0.84349
 H918 H 0.25994 -0.07126 0.82791
 H919 H 0.30143 -0.12290 0.84487
 H920 H 0.34752 -0.12379 0.80073
 H921 H 0.30263 -0.04443 0.75698
 H922 H 0.25774 -0.04724 0.80199
 H923 H 0.33328 -0.09598 0.78492
 H924 H 0.31983 -0.07124 0.77180
 C925 C 0.80430 0.40975 0.80561
 C926 C 0.82136 0.40147 0.79696
 C927 C 0.83067 0.38548 0.80591
 C928 C 0.82320 0.37735 0.82349
 C929 C 0.80632 0.38581 0.83205
 C930 C 0.79704 0.40171 0.82330
 C931 C 0.79461 0.42660 0.79541
 C932 C 0.77750 0.43575 0.80274
 C933 C 0.76883 0.45114 0.79253
 C934 C 0.77694 0.45791 0.77475
 C935 C 0.79412 0.44903 0.76742
 C936 C 0.80296 0.43348 0.77756
 C937 C 0.82897 0.40909 0.77934
 C938 C 0.81997 0.42473 0.76986
 H939 H 0.84205 0.40280 0.77271
 H940 H 0.82640 0.43000 0.75621
 H941 H 0.84368 0.37931 0.79898
 H942 H 0.80007 0.38012 0.84559
 H943 H 0.75561 0.45770 0.79859
 H944 H 0.80057 0.45410 0.75370
 H945 H 0.78415 0.40739 0.83063
 H946 H 0.77047 0.43124 0.81627
 C947 C 0.81129 -0.08853 0.30350
 C948 C 0.80241 -0.09665 0.32054
 C949 C 0.81124 -0.11254 0.33011
 C950 C 0.82884 -0.12067 0.32290
 C951 C 0.83771 -0.11241 0.30615
 C952 C 0.82913 -0.09658 0.29659
 C953 C 0.80113 -0.07189 0.29343
 C954 C 0.80862 -0.06293 0.27627
 C955 C 0.79833 -0.04785 0.26715
 C956 C 0.78032 -0.04123 0.27486
 C957 C 0.77288 -0.04985 0.29212
 C958 C 0.78308 -0.06508 0.30139
 C959 C 0.78466 -0.08905 0.32781
 C960 C 0.77521 -0.07362 0.31844
 H961 H 0.77787 -0.09522 0.34088
 H962 H 0.76142 -0.06837 0.32458
 H963 H 0.80419 -0.11872 0.34304
 H964 H 0.85133 -0.11828 0.30024
 H965 H 0.80447 -0.04146 0.25388
 H966 H 0.75899 -0.04487 0.29826
 H967 H 0.83664 -0.09102 0.28375
 H968 H 0.82231 -0.06740 0.26955
 C969 C 0.30784 0.58825 0.68668
 C970 C 0.32490 0.59654 0.69554
 C971 C 0.33430 0.61265 0.68683
 C972 C 0.32692 0.62086 0.66935
 C973 C 0.31010 0.61249 0.66052
 C974 C 0.30069 0.59643 0.66900
 C975 C 0.29798 0.57132 0.69669
 C976 C 0.28085 0.56214 0.68918
 C977 C 0.27188 0.54683 0.69937
 C978 C 0.27973 0.54020 0.71730
 C979 C 0.29701 0.54899 0.72473
 C980 C 0.30612 0.56445 0.71463
 C981 C 0.33237 0.58885 0.71316
 C982 C 0.32317 0.57318 0.72250
 H983 H 0.34545 0.59516 0.71994
 H984 H 0.32945 0.56789 0.73620
 H985 H 0.34728 0.61893 0.69385
 H986 H 0.30404 0.61842 0.64701
 H987 H 0.25860 0.54030 0.69324
 H988 H 0.30326 0.54399 0.73856
 H989 H 0.28779 0.59077 0.66153
 H990 H 0.27401 0.56662 0.67555
 C991 C 0.30695 1.09187 0.18898
 C992 C 0.32393 1.10023 0.19792
 C993 C 0.33331 1.11644 0.18927
 C994 C 0.32592 1.12471 0.17176
 C995 C 0.30915 1.11611 0.16290
 C996 C 0.29985 1.10000 0.17130
 C997 C 0.29709 1.07489 0.19887
 C998 C 0.28003 1.06570 0.19121
 C999 C 0.27108 1.05029 0.20123
 C1000 C 0.27886 1.04354 0.21914
 C1001 C 0.29604 1.05238 0.22676
 C1002 C 0.30515 1.06797 0.21681
 C1003 C 0.33133 1.09250 0.21556
 C1004 C 0.32213 1.07674 0.22481
 H1005 H 0.34435 1.09884 0.22243
 H1006 H 0.32836 1.07142 0.23851
 H1007 H 0.34623 1.12271 0.19641
 H1008 H 0.30296 1.12187 0.14937
 H1009 H 0.25788 1.04373 0.19495
 H1010 H 0.30224 1.04730 0.24058
 H1011 H 0.28704 1.09429 0.16374
 H1012 H 0.27322 1.07021 0.17758
 C1013 C 0.80548 0.58903 0.19362
 C1014 C 0.82269 0.59718 0.20230
 C1015 C 0.83241 0.61294 0.19325
 C1016 C 0.82520 0.62099 0.17555
 C1017 C 0.80822 0.61261 0.16691
 C1018 C 0.79853 0.59692 0.17575
 C1019 C 0.79530 0.57249 0.20398
 C1020 C 0.77796 0.56352 0.19667
 C1021 C 0.76879 0.54848 0.20709
 C1022 C 0.77662 0.54191 0.22505
 C1023 C 0.79402 0.55057 0.23235
 C1024 C 0.80335 0.56577 0.22201
 C1025 C 0.83001 0.58970 0.22008
 C1026 C 0.82056 0.57434 0.22971
 H1027 H 0.84321 0.59589 0.22673
 H1028 H 0.82676 0.56918 0.24349
 H1029 H 0.84550 0.61904 0.20023
 H1030 H 0.80218 0.61824 0.15325
 H1031 H 0.75542 0.54206 0.20106
 H1032 H 0.80025 0.54563 0.24621
 H1033 H 0.78556 0.59131 0.16837
 H1034 H 0.77114 0.56793 0.18301
 C1035 C 0.80428 1.08849 0.69386
 C1036 C 0.82167 1.09640 0.70239
 C1037 C 0.83138 1.11217 0.69338
 C1038 C 0.82397 1.12052 0.67590
 C1039 C 0.80676 1.11243 0.66744
 C1040 C 0.79709 1.09669 0.67623
 C1041 C 0.79415 1.07189 0.70416
 C1042 C 0.77674 1.06305 0.69691
 C1043 C 0.76757 1.04800 0.70730
 C1044 C 0.77547 1.04128 0.72518
 C1045 C 0.79299 1.04977 0.73240
 C1046 C 0.80233 1.06497 0.72206
 C1047 C 0.82917 1.08869 0.71999
 C1048 C 0.81970 1.07335 0.72963
 H1049 H 0.84251 1.09471 0.72653
 H1050 H 0.82602 1.06802 0.74329
 H1051 H 0.84464 1.11806 0.70024
 H1052 H 0.80055 1.11830 0.65397
 H1053 H 0.75411 1.04171 0.70132
 H1054 H 0.79929 1.04470 0.74617
 H1055 H 0.78394 1.09131 0.66900
 H1056 H 0.76985 1.06756 0.68333
 C1057 C 0.68904 0.59068 0.31037
 C1058 C 0.69854 0.59998 0.32656
 C1059 C 0.69004 0.61652 0.33544
 C1060 C 0.67216 0.62412 0.32833
 C1061 C 0.66267 0.61463 0.31249
 C1062 C 0.67091 0.59817 0.30366
 C1063 C 0.69890 0.57349 0.30086
 C1064 C 0.69083 0.56352 0.28443
 C1065 C 0.70092 0.54806 0.27562
 C1066 C 0.71927 0.54202 0.28296
 C1067 C 0.72725 0.55157 0.29958
 C1068 C 0.71728 0.56725 0.30849
 C1069 C 0.71658 0.59288 0.33360
 C1070 C 0.72574 0.57687 0.32478
 H1071 H 0.72385 0.59992 0.34603
 H1072 H 0.73979 0.57207 0.33068
 H1073 H 0.69755 0.62365 0.34768
 H1074 H 0.64881 0.62000 0.30672
 H1075 H 0.69436 0.54093 0.26287
 H1076 H 0.74143 0.54706 0.30541
 H1077 H 0.66289 0.59170 0.29150
 H1078 H 0.67687 0.56750 0.27797
 C1079 C 0.68826 1.09084 0.81097
 C1080 C 0.69715 1.09889 0.82813
 C1081 C 0.68864 1.11509 0.83762
 C1082 C 0.67128 1.12366 0.83023
 C1083 C 0.66248 1.11543 0.81323
 C1084 C 0.67079 1.09932 0.80378
 C1085 C 0.69801 1.07377 0.80108
 C1086 C 0.69041 1.06479 0.78386
 C1087 C 0.70031 1.04928 0.77491
 C1088 C 0.71803 1.04222 0.78285
 C1089 C 0.72555 1.05085 0.80019
 C1090 C 0.71574 1.06651 0.80929
 C1091 C 0.71459 1.09085 0.83564
 C1092 C 0.72368 1.07504 0.82642
 H1093 H 0.72140 1.09697 0.84880
 H1094 H 0.73723 1.06946 0.83276
 H1095 H 0.69574 1.12107 0.85070
 H1096 H 0.64909 1.12146 0.80702
 H1097 H 0.69411 1.04290 0.76158
 H1098 H 0.73922 1.04553 0.80652
 H1099 H 0.66331 1.09385 0.79080
 H1100 H 0.67693 1.06956 0.77695
 C1101 C 0.19185 0.58907 0.80311
 C1102 C 0.20043 0.59697 0.82050
 C1103 C 0.19172 0.61306 0.82999
 C1104 C 0.17452 0.62172 0.82233
 C1105 C 0.16601 0.61362 0.80514
 C1106 C 0.17448 0.59758 0.79571
 C1107 C 0.20184 0.57216 0.79320
 C1108 C 0.19454 0.56332 0.77579
 C1109 C 0.20466 0.54796 0.76682
 C1110 C 0.22231 0.54094 0.77494
 C1111 C 0.22955 0.54944 0.79246
 C1112 C 0.21950 0.56493 0.80159
 C1113 C 0.21778 0.58893 0.82821
 C1114 C 0.22712 0.57329 0.81895
 H1115 H 0.22435 0.59494 0.84154
 H1116 H 0.24060 0.56772 0.82542
 H1117 H 0.19860 0.61895 0.84323
 H1118 H 0.15274 0.61971 0.79875
 H1119 H 0.19868 0.54167 0.75336
 H1120 H 0.24315 0.54413 0.79893
 H1121 H 0.16723 0.59222 0.78256
 H1122 H 0.18112 0.56807 0.76874
 C1123 C 0.18888 1.08825 0.30597
 C1124 C 0.19740 1.09617 0.32337
 C1125 C 0.18833 1.11189 0.33314
 C1126 C 0.17082 1.12015 0.32574
 C1127 C 0.16230 1.11194 0.30861
 C1128 C 0.17113 1.09627 0.29891
 C1129 C 0.19933 1.07186 0.29565
 C1130 C 0.19219 1.06316 0.27812
 C1131 C 0.20275 1.04836 0.26874
 C1132 C 0.22070 1.04177 0.27656
 C1133 C 0.22780 1.05011 0.29421
 C1134 C 0.21731 1.06507 0.30375
 C1135 C 0.21508 1.08856 0.33079
 C1136 C 0.22482 1.07336 0.32118
 H1137 H 0.22160 1.09458 0.34414
 H1138 H 0.23855 1.06813 0.32743
 H1139 H 0.19519 1.11785 0.34636
 H1140 H 0.14877 1.11771 0.30244
 H1141 H 0.19686 1.04216 0.25519
 H1142 H 0.24164 1.04512 0.30044
 H1143 H 0.16386 1.09082 0.28580
 H1144 H 0.17856 1.06761 0.27127
 C1145 C 0.69041 0.41186 0.68701
 C1146 C 0.67366 0.40391 0.69662
 C1147 C 0.66394 0.38752 0.68859
 C1148 C 0.67073 0.37872 0.67109
 C1149 C 0.68714 0.38687 0.66145
 C1150 C 0.69683 0.40319 0.66923
 C1151 C 0.70080 0.42891 0.69644
 C1152 C 0.71783 0.43760 0.68828
 C1153 C 0.72747 0.45289 0.69803
 C1154 C 0.72039 0.46004 0.71614
 C1155 C 0.70315 0.45183 0.72416
 C1156 C 0.69340 0.43632 0.71453
 C1157 C 0.66687 0.41216 0.71432
 C1158 C 0.67652 0.42801 0.72308
 H1159 H 0.65399 0.40614 0.72165
 H1160 H 0.67079 0.43372 0.73689
 H1161 H 0.65125 0.38145 0.69621
 H1162 H 0.69271 0.38052 0.64788
 H1163 H 0.74069 0.45899 0.69143
 H1164 H 0.69750 0.45721 0.73814
 H1165 H 0.70941 0.40862 0.66116
 H1166 H 0.72414 0.43270 0.67451
 C1167 C 0.69517 -0.09019 0.18572
 C1168 C 0.67782 -0.09815 0.19418
 C1169 C 0.66837 -0.11425 0.18529
 C1170 C 0.67601 -0.12287 0.16798
 C1171 C 0.69319 -0.11475 0.15960
 C1172 C 0.70260 -0.09870 0.16828
 C1173 C 0.70500 -0.07322 0.19589
 C1174 C 0.72237 -0.06429 0.18872
 C1175 C 0.73124 -0.04887 0.19902
 C1176 C 0.72306 -0.04187 0.21671
 C1177 C 0.70558 -0.05044 0.22381
 C1178 C 0.69655 -0.06599 0.21359
 C1179 C 0.67007 -0.09012 0.21159
 C1180 C 0.67924 -0.07442 0.22109
 H1181 H 0.65676 -0.09617 0.21807
 H1182 H 0.67273 -0.06886 0.23461
 H1183 H 0.65514 -0.12015 0.19208
 H1184 H 0.69958 -0.12083 0.14626
 H1185 H 0.74468 -0.04253 0.19315
 H1186 H 0.69907 -0.04515 0.23744
 H1187 H 0.71575 -0.09331 0.16112
 H1188 H 0.72945 -0.06904 0.17528
 C1189 C 0.18980 0.41143 0.19585
 C1190 C 0.19809 0.40343 0.17841
 C1191 C 0.18889 0.38754 0.16890
 C1192 C 0.17148 0.37929 0.17653
 C1193 C 0.16314 0.38746 0.19365
 C1194 C 0.17212 0.40329 0.20317
 C1195 C 0.20039 0.42803 0.20586
 C1196 C 0.19356 0.43680 0.22345
 C1197 C 0.20424 0.45187 0.23248
 C1198 C 0.22197 0.45868 0.22423
 C1199 C 0.22876 0.45023 0.20656
 C1200 C 0.21818 0.43500 0.19740
 C1201 C 0.21562 0.41117 0.17068
 C1202 C 0.22544 0.42661 0.17995
 H1203 H 0.22195 0.40509 0.15730
 H1204 H 0.23904 0.43198 0.17344
 H1205 H 0.19551 0.38144 0.15567
 H1206 H 0.14969 0.38150 0.19988
 H1207 H 0.19861 0.45813 0.24607
 H1208 H 0.24244 0.45535 0.20002
 H1209 H 0.16502 0.40879 0.21631
 H1210 H 0.18012 0.43218 0.23059
 C1211 C 0.19320 -0.08981 0.68844
 C1212 C 0.17584 -0.09780 0.69686
 C1213 C 0.16621 -0.11364 0.68770
 C1214 C 0.17364 -0.12193 0.67015
 C1215 C 0.19080 -0.11375 0.66179
 C1216 C 0.20041 -0.09797 0.67074
 C1217 C 0.20326 -0.07316 0.69892
 C1218 C 0.22070 -0.06430 0.69186
 C1219 C 0.22980 -0.04920 0.70243
 C1220 C 0.22178 -0.04246 0.72029
 C1221 C 0.20422 -0.05096 0.72729
 C1222 C 0.19498 -0.06621 0.71681
 C1223 C 0.16827 -0.09007 0.71449
 C1224 C 0.17764 -0.07463 0.72424
 H1225 H 0.15496 -0.09614 0.72093
 H1226 H 0.17125 -0.06928 0.73791
 H1227 H 0.15299 -0.11959 0.69447
 H1228 H 0.19703 -0.11957 0.64826
 H1229 H 0.24330 -0.04290 0.69663
 H1230 H 0.19784 -0.04587 0.74107
 H1231 H 0.21352 -0.09251 0.66358
 H1232 H 0.22769 -0.06886 0.67830
 C1233 C 0.30472 0.30789 0.41043
 C1234 C 0.32189 0.29931 0.40228
 C1235 C 0.33164 0.30822 0.38634
 C1236 C 0.32455 0.32566 0.37823
 C1237 C 0.30766 0.33423 0.38653
 C1238 C 0.29789 0.32553 0.40238
 C1239 C 0.29449 0.29768 0.42716
 C1240 C 0.27715 0.30483 0.43609
 C1241 C 0.26798 0.29459 0.45135
 C1242 C 0.27582 0.27698 0.45820
 C1243 C 0.29321 0.26982 0.44954
 C1244 C 0.30252 0.27996 0.43412
 C1245 C 0.32915 0.28182 0.40996
 C1246 C 0.31969 0.27237 0.42554
 H1247 H 0.34231 0.27526 0.40377
 H1248 H 0.32586 0.25883 0.43088
 H1249 H 0.34468 0.30141 0.38015
 H1250 H 0.30183 0.34770 0.38068
 H1251 H 0.25460 0.30050 0.45775
 H1252 H 0.29944 0.25622 0.45467
 H1253 H 0.28498 0.33283 0.40799
 H1254 H 0.27032 0.31822 0.43146
 C1255 C 0.30394 0.80827 -0.09111
 C1256 C 0.32144 0.79996 -0.09882
 C1257 C 0.33091 0.80848 -0.11513
 C1258 C 0.32321 0.82525 -0.12408
 C1259 C 0.30599 0.83359 -0.11624
 C1260 C 0.29649 0.82526 -0.10000
 C1261 C 0.29404 0.79842 -0.07396
 C1262 C 0.27641 0.80531 -0.06538
 C1263 C 0.26750 0.79531 -0.04979
 C1264 C 0.27590 0.77821 -0.04228
 C1265 C 0.29362 0.77140 -0.05053
 C1266 C 0.30267 0.78129 -0.06626
 C1267 C 0.32932 0.78310 -0.09036
 C1268 C 0.32015 0.77398 -0.07443
 H1269 H 0.34275 0.77676 -0.09622
 H1270 H 0.32678 0.76089 -0.06851
 H1271 H 0.34422 0.80186 -0.12094
 H1272 H 0.29970 0.84655 -0.12275
 H1273 H 0.25385 0.80093 -0.04371
 H1274 H 0.30029 0.75821 -0.04488
 H1275 H 0.28328 0.83232 -0.09476
 H1276 H 0.26916 0.81828 -0.07054
 C1277 C 0.80548 0.31177 -0.09095
 C1278 C 0.82239 0.30305 -0.09951
 C1279 C 0.83137 0.31147 -0.11617
 C1280 C 0.82373 0.32852 -0.12462
 C1281 C 0.80710 0.33721 -0.11593
 C1282 C 0.79811 0.32902 -0.09937
 C1283 C 0.79605 0.30208 -0.07346
 C1284 C 0.77902 0.30943 -0.06409
 C1285 C 0.77048 0.29960 -0.04821
 C1286 C 0.77865 0.28221 -0.04115
 C1287 C 0.79580 0.27492 -0.05018
 C1288 C 0.80447 0.28465 -0.06625
 C1289 C 0.83012 0.28590 -0.09150
 C1290 C 0.82137 0.27691 -0.07524
 H1291 H 0.84309 0.27923 -0.09799
 H1292 H 0.82786 0.26359 -0.06970
 H1293 H 0.84422 0.30457 -0.12266
 H1294 H 0.80085 0.35040 -0.12201
 H1295 H 0.75729 0.30560 -0.04153
 H1296 H 0.80228 0.26149 -0.04490
 H1297 H 0.78535 0.33639 -0.09351
 H1298 H 0.77194 0.32264 -0.06884
 C1299 C 0.80835 0.81304 0.40840
 C1300 C 0.82503 0.80380 0.39997
 C1301 C 0.83455 0.81207 0.38352
 C1302 C 0.82764 0.82948 0.37515
 C1303 C 0.81122 0.83865 0.38371
 C1304 C 0.80172 0.83062 0.40007
 C1305 C 0.79833 0.80353 0.42566
 C1306 C 0.78150 0.81143 0.43491
 C1307 C 0.77235 0.80177 0.45055
 C1308 C 0.77972 0.78399 0.45751
 C1309 C 0.79670 0.77614 0.44864
 C1310 C 0.80598 0.78572 0.43280
 C1311 C 0.83200 0.78629 0.40789
 C1312 C 0.82268 0.77745 0.42393
 H1313 H 0.84479 0.77922 0.40150
 H1314 H 0.82858 0.76384 0.42940
 H1315 H 0.84722 0.80479 0.37711
 H1316 H 0.80553 0.85212 0.37771
 H1317 H 0.75933 0.80822 0.45711
 H1318 H 0.80256 0.76241 0.45386
 H1319 H 0.78916 0.83839 0.40583
 H1320 H 0.77501 0.82497 0.43023
 C1321 C 0.68729 0.30429 0.59095
 C1322 C 0.69577 0.32184 0.59822
 C1323 C 0.68682 0.33191 0.61392
 C1324 C 0.66949 0.32474 0.62275
 C1325 C 0.66100 0.30746 0.61536
 C1326 C 0.66972 0.29738 0.59968
 C1327 C 0.69759 0.29374 0.57446
 C1328 C 0.69051 0.27609 0.56629
 C1329 C 0.70089 0.26662 0.55125
 C1330 C 0.71858 0.27447 0.54391
 C1331 C 0.72564 0.29217 0.55178
 C1332 C 0.71534 0.30180 0.56693
 C1333 C 0.71324 0.32914 0.58994
 C1334 C 0.72282 0.31934 0.57464
 H1335 H 0.71971 0.34259 0.59547
 H1336 H 0.73638 0.32553 0.56884
 H1337 H 0.69357 0.34524 0.61944
 H1338 H 0.64761 0.30157 0.62179
 H1339 H 0.69506 0.25301 0.54545
 H1340 H 0.73927 0.29843 0.54622
 H1341 H 0.66252 0.28416 0.59477
 H1342 H 0.67707 0.26925 0.57134
 C1343 C 0.69303 0.80596 1.08546
 C1344 C 0.70248 0.82247 1.09394
 C1345 C 0.69352 0.83256 1.10967
 C1346 C 0.67521 0.82639 1.11722
 C1347 C 0.66573 0.81028 1.10845
 C1348 C 0.67444 0.80023 1.09280
 C1349 C 0.70339 0.79514 1.06921
 C1350 C 0.69546 0.77823 1.06025
 C1351 C 0.70587 0.76836 1.04555
 C1352 C 0.72445 0.77504 1.03931
 C1353 C 0.73240 0.79201 1.04797
 C1354 C 0.72208 0.80201 1.06288
 C1355 C 0.72091 0.82864 1.08686
 C1356 C 0.73048 0.81867 1.07164
 H1357 H 0.72814 0.84132 1.09328
 H1358 H 0.74477 0.82397 1.06678
 H1359 H 0.70101 0.84502 1.11624
 H1360 H 0.65153 0.80522 1.11379
 H1361 H 0.69933 0.75534 1.03912
 H1362 H 0.74677 0.79732 1.04329
 H1363 H 0.66639 0.78794 1.08684
 H1364 H 0.68132 0.77224 1.06442
 C1365 C 0.19080 0.31162 1.09140
 C1366 C 0.17407 0.30255 1.09999
 C1367 C 0.16468 0.31118 1.11635
 C1368 C 0.17177 0.32879 1.12445
 C1369 C 0.18821 0.33782 1.11570
 C1370 C 0.19758 0.32942 1.09944
 C1371 C 0.20071 0.30170 1.07429
 C1372 C 0.21761 0.30940 1.06494
 C1373 C 0.22665 0.29937 1.04945
 C1374 C 0.21911 0.28142 1.04275
 C1375 C 0.20208 0.27375 1.05174
 C1376 C 0.19291 0.28369 1.06744
 C1377 C 0.16693 0.28483 1.09235
 C1378 C 0.17614 0.27562 1.07643
 H1379 H 0.15409 0.27789 1.09888
 H1380 H 0.17012 0.26186 1.07118
 H1381 H 0.15198 0.30402 1.12290
 H1382 H 0.19402 0.35144 1.12151
 H1383 H 0.23972 0.30570 1.04279
 H1384 H 0.19610 0.25989 1.04671
 H1385 H 0.21017 0.33709 1.09352
 H1386 H 0.22422 0.32305 1.06942
 C1387 C 0.18973 0.80881 0.58591
 C1388 C 0.19917 0.82521 0.59463
 C1389 C 0.19030 0.83494 0.61064
 C1390 C 0.17211 0.82852 0.61826
 C1391 C 0.16263 0.81253 0.60927
 C1392 C 0.17125 0.80283 0.59333
 C1393 C 0.20001 0.79837 0.56936
 C1394 C 0.19209 0.78162 0.56010
 C1395 C 0.20245 0.77207 0.54514
 C1396 C 0.22097 0.77894 0.53892
 C1397 C 0.22890 0.79579 0.54785
 C1398 C 0.21863 0.80546 0.56302
 C1399 C 0.21750 0.83162 0.58751
 C1400 C 0.22700 0.82199 0.57203
 H1401 H 0.22471 0.84422 0.59412
 H1402 H 0.24123 0.82746 0.56717
 H1403 H 0.19780 0.84731 0.61738
 H1404 H 0.14853 0.80728 0.61468
 H1405 H 0.19593 0.75915 0.53850
 H1406 H 0.24321 0.80125 0.54319
 H1407 H 0.16323 0.79059 0.58722
 H1408 H 0.17800 0.77549 0.56424
 C1409 C 0.31013 0.69239 0.58678
 C1410 C 0.30091 0.67574 0.59503
 C1411 C 0.30982 0.66596 0.61092
 C1412 C 0.32785 0.67258 0.61887
 C1413 C 0.33706 0.68892 0.61042
 C1414 C 0.32839 0.69867 0.59462
 C1415 C 0.29992 0.70273 0.57020
 C1416 C 0.30772 0.71961 0.56128
 C1417 C 0.29748 0.72898 0.54621
 C1418 C 0.27919 0.72182 0.53952
 C1419 C 0.27135 0.70488 0.54815
 C1420 C 0.28152 0.69536 0.56343
 C1421 C 0.28278 0.66907 0.58752
 C1422 C 0.27331 0.67865 0.57206
 H1423 H 0.27573 0.65630 0.59378
 H1424 H 0.25925 0.67296 0.56687
 H1425 H 0.30253 0.65335 0.61724
 H1426 H 0.35101 0.69435 0.61611
 H1427 H 0.30394 0.74199 0.53983
 H1428 H 0.25723 0.69919 0.54313
 H1429 H 0.33622 0.71115 0.58892
 H1430 H 0.32164 0.72594 0.56575
 C1431 C 0.30523 0.19226 1.08898
 C1432 C 0.32210 0.20126 1.09752
 C1433 C 0.33185 0.19239 1.11346
 C1434 C 0.32499 0.17463 1.12119
 C1435 C 0.30847 0.16562 1.11243
 C1436 C 0.29875 0.17424 1.09657
 C1437 C 0.29487 0.20247 1.07242
 C1438 C 0.27773 0.19493 1.06327
 C1439 C 0.26830 0.20520 1.04827
 C1440 C 0.27567 0.22326 1.04189
 C1441 C 0.29290 0.23081 1.05071
 C1442 C 0.30247 0.22062 1.06592
 C1443 C 0.32899 0.21914 1.09026
 C1444 C 0.31941 0.22859 1.07480
 H1445 H 0.34194 0.22601 1.09674
 H1446 H 0.32527 0.24246 1.06982
 H1447 H 0.34461 0.19953 1.12002
 H1448 H 0.30286 0.15186 1.11794
 H1449 H 0.25508 0.19897 1.04172
 H1450 H 0.29875 0.24475 1.04593
 H1451 H 0.28611 0.16658 1.09062
 H1452 H 0.27122 0.18120 1.06752
 C1453 C 0.80852 0.68685 1.09027
 C1454 C 0.82507 0.69592 1.09931
 C1455 C 0.83407 0.68735 1.11587
 C1456 C 0.82672 0.66982 1.12373
 C1457 C 0.81047 0.66078 1.11452
 C1458 C 0.80151 0.66910 1.09805
 C1459 C 0.79899 0.69671 1.07299
 C1460 C 0.78228 0.68899 1.06323
 C1461 C 0.77355 0.69896 1.04762
 C1462 C 0.78122 0.71688 1.04119
 C1463 C 0.79809 0.72457 1.05057
 C1464 C 0.80695 0.71467 1.06642
 C1465 C 0.83240 0.71359 1.09193
 C1466 C 0.82354 0.72275 1.07585
 H1467 H 0.84511 0.72053 1.09879
 H1468 H 0.82970 0.73648 1.07081
 H1469 H 0.84662 0.69452 1.12278
 H1470 H 0.80449 0.64721 1.12012
 H1471 H 0.76061 0.69261 1.04064
 H1472 H 0.80417 0.73841 1.04575
 H1473 H 0.78904 0.66142 1.09180
 H1474 H 0.77556 0.67536 1.06746
 C1475 C 0.80822 0.18978 0.59230
 C1476 C 0.79903 0.17313 0.60058
 C1477 C 0.80775 0.16362 0.61673
 C1478 C 0.82558 0.17049 0.62492
 C1479 C 0.83478 0.18681 0.61645
 C1480 C 0.82629 0.19631 0.60039
 C1481 C 0.79817 0.19985 0.57545
 C1482 C 0.80594 0.21671 0.56647
 C1483 C 0.79580 0.22587 0.55121
 C1484 C 0.77764 0.21851 0.54436
 C1485 C 0.76988 0.20154 0.55299
 C1486 C 0.77994 0.19224 0.56848
 C1487 C 0.78108 0.16621 0.59285
 C1488 C 0.77176 0.17554 0.57714
 H1489 H 0.77405 0.15343 0.59914
 H1490 H 0.75784 0.16967 0.57180
 H1491 H 0.80046 0.15100 0.62305
 H1492 H 0.84858 0.19244 0.62234
 H1493 H 0.80221 0.23890 0.54481
 H1494 H 0.75586 0.19570 0.54784
 H1495 H 0.83409 0.20881 0.59469
 H1496 H 0.81975 0.22320 0.57107
 C1497 C 0.69101 0.69772 0.40996
 C1498 C 0.69980 0.68071 0.40202
 C1499 C 0.69088 0.67086 0.38602
 C1500 C 0.67327 0.67777 0.37761
 C1501 C 0.66455 0.69456 0.38566
 C1502 C 0.67323 0.70438 0.40157
 C1503 C 0.70116 0.70802 0.42679
 C1504 C 0.69366 0.72510 0.43561
 C1505 C 0.70386 0.73443 0.45091
 C1506 C 0.72182 0.72702 0.45794
 C1507 C 0.72931 0.70983 0.44946
 C1508 C 0.71916 0.70034 0.43398
 C1509 C 0.71752 0.67374 0.40996
 C1510 C 0.72700 0.68334 0.42557
 H1511 H 0.72427 0.66070 0.40393
 H1512 H 0.74074 0.67741 0.43108
 H1513 H 0.69782 0.65792 0.37999
 H1514 H 0.65095 0.70026 0.37960
 H1515 H 0.69767 0.74762 0.45717
 H1516 H 0.74316 0.70393 0.45476
 H1517 H 0.66579 0.71721 0.40695
 H1518 H 0.68000 0.73162 0.43088
 C1519 C 0.69080 0.19324 -0.08562
 C1520 C 0.70042 0.17743 -0.09503
 C1521 C 0.69130 0.16771 -0.11102
 C1522 C 0.67269 0.17362 -0.11792
 C1523 C 0.66309 0.18906 -0.10826
 C1524 C 0.67194 0.19870 -0.09236
 C1525 C 0.70125 0.20369 -0.06909
 C1526 C 0.69308 0.21986 -0.05917
 C1527 C 0.70360 0.22951 -0.04432
 C1528 C 0.72254 0.22334 -0.03883
 C1529 C 0.73073 0.20704 -0.04837
 C1530 C 0.72029 0.19726 -0.06348
 C1531 C 0.71917 0.17162 -0.08860
 C1532 C 0.72887 0.18129 -0.07316
 H1533 H 0.72654 0.15948 -0.09573
 H1534 H 0.74342 0.17631 -0.06886
 H1535 H 0.69889 0.15579 -0.11830
 H1536 H 0.64867 0.19390 -0.11307
 H1537 H 0.69684 0.24198 -0.03719
 H1538 H 0.74537 0.20212 -0.04428
 H1539 H 0.66376 0.21047 -0.08572
 H1540 H 0.67866 0.22546 -0.06271
 C1541 C 0.19446 0.68819 -0.09210
 C1542 C 0.17730 0.69668 -0.10030
 C1543 C 0.16813 0.68815 -0.11690
 C1544 C 0.17581 0.67118 -0.12564
 C1545 C 0.19270 0.66269 -0.11732
 C1546 C 0.20189 0.67102 -0.10081
 C1547 C 0.20407 0.69802 -0.07466
 C1548 C 0.22136 0.69093 -0.06562
 C1549 C 0.23007 0.70094 -0.04981
 C1550 C 0.22180 0.71825 -0.04251
 C1551 C 0.20437 0.72525 -0.05118
 C1552 C 0.19553 0.71535 -0.06717
 C1553 C 0.16947 0.71374 -0.09202
 C1554 C 0.17838 0.72286 -0.07581
 H1555 H 0.15630 0.72023 -0.09824
 H1556 H 0.17181 0.73610 -0.07006
 H1557 H 0.15507 0.69489 -0.12310
 H1558 H 0.19899 0.64957 -0.12364
 H1559 H 0.24348 0.69515 -0.04341
 H1560 H 0.19781 0.73862 -0.04570
 H1561 H 0.21485 0.66381 -0.09522
 H1562 H 0.22852 0.67779 -0.07059
 C1563 C 0.19122 0.18715 0.41049
 C1564 C 0.17431 0.19593 0.40208
 C1565 C 0.16482 0.18717 0.38578
 C1566 C 0.17198 0.16973 0.37754
 C1567 C 0.18860 0.16098 0.38610
 C1568 C 0.19807 0.16950 0.40232
 C1569 C 0.20123 0.19721 0.42753
 C1570 C 0.21831 0.18981 0.43670
 C1571 C 0.22747 0.20000 0.45209
 C1572 C 0.21990 0.21782 0.45888
 C1573 C 0.20267 0.22517 0.45011
 C1574 C 0.19336 0.21507 0.43450
 C1575 C 0.16710 0.21349 0.40984
 C1576 C 0.17642 0.22284 0.42569
 H1577 H 0.15413 0.22020 0.40346
 H1578 H 0.17034 0.23648 0.43103
 H1579 H 0.15198 0.19412 0.37937
 H1580 H 0.19447 0.14749 0.38019
 H1581 H 0.24069 0.19391 0.45860
 H1582 H 0.19665 0.23893 0.45521
 H1583 H 0.21081 0.16205 0.40809
 H1584 H 0.22497 0.17627 0.43215
 C1585 C 0.31146 0.40871 0.69266
 C1586 C 0.30245 0.40034 0.67571
 C1587 C 0.31099 0.38407 0.66639
 C1588 C 0.32845 0.37582 0.67375
 C1589 C 0.33742 0.38428 0.69047
 C1590 C 0.32910 0.40047 0.69978
 C1591 C 0.30166 0.42582 0.70242
 C1592 C 0.30935 0.43509 0.71943
 C1593 C 0.29938 0.45062 0.72828
 C1594 C 0.28151 0.45738 0.72042
 C1595 C 0.27389 0.44847 0.70328
 C1596 C 0.28376 0.43279 0.69429
 C1597 C 0.28486 0.40811 0.66827
 C1598 C 0.27572 0.42396 0.67736
 H1599 H 0.27796 0.40174 0.65527
 H1600 H 0.26205 0.42932 0.67110
 H1601 H 0.30387 0.37773 0.65349
 H1602 H 0.35092 0.37833 0.69650
 H1603 H 0.30564 0.45723 0.74145
 H1604 H 0.26010 0.45356 0.69703
 H1605 H 0.33669 0.40618 0.71259
 H1606 H 0.32295 0.43054 0.72626
 C1607 C 0.31198 0.91363 0.19031
 C1608 C 0.30259 0.90505 0.17367
 C1609 C 0.31116 0.88894 0.16411
 C1610 C 0.32902 0.88107 0.17091
 C1611 C 0.33846 0.88988 0.18718
 C1612 C 0.33012 0.90591 0.19674
 C1613 C 0.30201 0.93037 0.20054
 C1614 C 0.30989 0.93960 0.21749
 C1615 C 0.29971 0.95468 0.22686
 C1616 C 0.28145 0.96104 0.21959
 C1617 C 0.27364 0.95218 0.20250
 C1618 C 0.28369 0.93691 0.19302
 C1619 C 0.28459 0.91241 0.16683
 C1620 C 0.27536 0.92801 0.17628
 H1621 H 0.27742 0.90590 0.15405
 H1622 H 0.26136 0.93305 0.17049
 H1623 H 0.30370 0.88236 0.15152
 H1624 H 0.35230 0.88426 0.19275
 H1625 H 0.30612 0.96127 0.23998
 H1626 H 0.25953 0.95694 0.19672
 H1627 H 0.33807 0.91188 0.20920
 H1628 H 0.32378 0.93531 0.22390
 C1629 C 0.81048 0.41300 0.19768
 C1630 C 0.80162 0.40488 0.18052
 C1631 C 0.81057 0.38912 0.17069
 C1632 C 0.82828 0.38113 0.17776
 C1633 C 0.83713 0.38942 0.19462
 C1634 C 0.82842 0.40511 0.20443
 C1635 C 0.80018 0.42946 0.20804
 C1636 C 0.80762 0.43834 0.22537
 C1637 C 0.79723 0.45328 0.23475
 C1638 C 0.77918 0.45983 0.22713
 C1639 C 0.77176 0.45126 0.20972
 C1640 C 0.78206 0.43617 0.20019
 C1641 C 0.78378 0.41236 0.17339
 C1642 C 0.77422 0.42766 0.18301
 H1643 H 0.77700 0.40620 0.16023
 H1644 H 0.76037 0.43283 0.17696
 H1645 H 0.80354 0.38292 0.15768
 H1646 H 0.85083 0.38367 0.20042
 H1647 H 0.80335 0.45964 0.24812
 H1648 H 0.75783 0.45619 0.20365
 H1649 H 0.83595 0.41070 0.21733
 H1650 H 0.82135 0.43393 0.23204
 C1651 C 0.80830 0.91187 0.69849
 C1652 C 0.79958 0.90386 0.68121
 C1653 C 0.80856 0.88811 0.67140
 C1654 C 0.82618 0.88002 0.67859
 C1655 C 0.83487 0.88815 0.69560
 C1656 C 0.82612 0.90383 0.70541
 C1657 C 0.79803 0.92841 0.70876
 C1658 C 0.80538 0.93725 0.72615
 C1659 C 0.79506 0.95232 0.73539
 C1660 C 0.77716 0.95905 0.72758
 C1661 C 0.76981 0.95050 0.71013
 C1662 C 0.78006 0.93529 0.70073
 C1663 C 0.78186 0.91148 0.67392
 C1664 C 0.77231 0.92684 0.68346
 H1665 H 0.77518 0.90540 0.66067
 H1666 H 0.75858 0.93212 0.67728
 H1667 H 0.80165 0.88203 0.65827
 H1668 H 0.84848 0.88232 0.70151
 H1669 H 0.80112 0.95864 0.74881
 H1670 H 0.75600 0.95557 0.70391
 H1671 H 0.83352 0.90931 0.71843
 H1672 H 0.81900 0.93271 0.73296
 C1673 C 0.69671 0.59244 0.68800
 C1674 C 0.67948 0.60010 0.69695
 C1675 C 0.67013 0.61647 0.68886
 C1676 C 0.67767 0.62557 0.67188
 C1677 C 0.69466 0.61785 0.66296
 C1678 C 0.70405 0.60153 0.67085
 C1679 C 0.70644 0.57514 0.69737
 C1680 C 0.72372 0.56648 0.68976
 C1681 C 0.73245 0.55068 0.69932
 C1682 C 0.72423 0.54305 0.71669
 C1683 C 0.70686 0.55140 0.72421
 C1684 C 0.69798 0.56730 0.71476
 C1685 C 0.67176 0.59150 0.71403
 C1686 C 0.68081 0.57547 0.72274
 H1687 H 0.65856 0.59732 0.72087
 H1688 H 0.67430 0.56945 0.73602
 H1689 H 0.65701 0.62220 0.69595
 H1690 H 0.70084 0.62448 0.64984
 H1691 H 0.74582 0.54454 0.69315
 H1692 H 0.70031 0.54565 0.73760
 H1693 H 0.71708 0.59638 0.66335
 H1694 H 0.73081 0.57173 0.67655
 C1695 C 0.69020 0.08930 0.19207
 C1696 C 0.69953 0.09800 0.17557
 C1697 C 0.69106 0.11432 0.16646
 C1698 C 0.67336 0.12232 0.17358
 C1699 C 0.66402 0.11348 0.18977
 C1700 C 0.67226 0.09721 0.19888
 C1701 C 0.70003 0.07224 0.20174
 C1702 C 0.69214 0.06276 0.21842
 C1703 C 0.70218 0.04736 0.22728
 C1704 C 0.72033 0.04092 0.21974
 C1705 C 0.72813 0.05001 0.20289
 C1706 C 0.71820 0.06559 0.19392
 C1707 C 0.71737 0.09051 0.16840
 C1708 C 0.72650 0.07467 0.17737
 H1709 H 0.72450 0.09712 0.15573
 H1710 H 0.74038 0.06955 0.17134
 H1711 H 0.69845 0.12095 0.15395
 H1712 H 0.65032 0.11921 0.19559
 H1713 H 0.69577 0.04060 0.24022
 H1714 H 0.74214 0.04519 0.19689
 H1715 H 0.66440 0.09120 0.21130
 H1716 H 0.67833 0.06708 0.22502
 C1717 C 0.19235 0.58787 0.19432
 C1718 C 0.20119 0.59607 0.17731
 C1719 C 0.19225 0.61192 0.16776
 C1720 C 0.17455 0.61989 0.17497
 C1721 C 0.16572 0.61150 0.19167
 C1722 C 0.17442 0.59574 0.20120
 C1723 C 0.20262 0.57132 0.20441
 C1724 C 0.19520 0.56246 0.22163
 C1725 C 0.20553 0.54747 0.23080
 C1726 C 0.22352 0.54080 0.22308
 C1727 C 0.23092 0.54932 0.20575
 C1728 C 0.22067 0.56453 0.19644
 C1729 C 0.21898 0.58854 0.17004
 C1730 C 0.22850 0.57310 0.17938
 H1731 H 0.22574 0.59476 0.15698
 H1732 H 0.24229 0.56791 0.17323
 H1733 H 0.19925 0.61819 0.15485
 H1734 H 0.15203 0.61721 0.19756
 H1735 H 0.19940 0.54116 0.24410
 H1736 H 0.24481 0.54431 0.19963
 H1737 H 0.16689 0.59008 0.21399
 H1738 H 0.18154 0.56693 0.22841
 C1739 C 0.19279 0.08827 0.69349
 C1740 C 0.17649 0.09710 0.70304
 C1741 C 0.16719 0.11335 0.69450
 C1742 C 0.17397 0.12104 0.67649
 C1743 C 0.18996 0.11200 0.66701
 C1744 C 0.19921 0.09590 0.67530
 C1745 C 0.20266 0.07131 0.70327
 C1746 C 0.21920 0.06185 0.69509
 C1747 C 0.22825 0.04651 0.70496
 C1748 C 0.22109 0.04003 0.72325
 C1749 C 0.20440 0.04912 0.73142
 C1750 C 0.19523 0.06473 0.72163
 C1751 C 0.16972 0.08977 0.72113
 C1752 C 0.17886 0.07393 0.73020
 H1753 H 0.15722 0.09645 0.72846
 H1754 H 0.17312 0.06892 0.74424
 H1755 H 0.15483 0.12012 0.70200
 H1756 H 0.19552 0.11742 0.65306
 H1757 H 0.24104 0.03976 0.69823
 H1758 H 0.19873 0.04428 0.74557
 H1759 H 0.21143 0.08977 0.66722
 H1760 H 0.22555 0.06612 0.68116
 C1761 C 0.31489 0.58967 0.30596
 C1762 C 0.30660 0.59733 0.32354
 C1763 C 0.31529 0.61355 0.33289
 C1764 C 0.33219 0.62254 0.32497
 C1765 C 0.34055 0.61475 0.30769
 C1766 C 0.33207 0.59855 0.29831
 C1767 C 0.30479 0.57264 0.29615
 C1768 C 0.31165 0.56406 0.27848
 C1769 C 0.30134 0.54863 0.26962
 C1770 C 0.28395 0.54129 0.27813
 C1771 C 0.27720 0.54949 0.29591
 C1772 C 0.28740 0.56505 0.30492
 C1773 C 0.28953 0.58893 0.33160
 C1774 C 0.28014 0.57315 0.32248
 H1775 H 0.28321 0.59476 0.34509
 H1776 H 0.26686 0.56730 0.32923
 H1777 H 0.30865 0.61933 0.34626
 H1778 H 0.35361 0.62130 0.30123
 H1779 H 0.30694 0.54256 0.25593
 H1780 H 0.26380 0.54394 0.30268
 H1781 H 0.33912 0.59336 0.28501
 H1782 H 0.32483 0.56913 0.27115
 C1783 C 0.30520 0.08714 0.81362
 C1784 C 0.32264 0.09493 0.80517
 C1785 C 0.33203 0.11112 0.81390
 C1786 C 0.32426 0.11994 0.83098
 C1787 C 0.30710 0.11203 0.83945
 C1788 C 0.29770 0.09586 0.83095
 C1789 C 0.29533 0.07016 0.80348
 C1790 C 0.27781 0.06145 0.81053
 C1791 C 0.26884 0.04613 0.80017
 C1792 C 0.27708 0.03902 0.78254
 C1793 C 0.29475 0.04732 0.77562
 C1794 C 0.30387 0.06278 0.78589
 C1795 C 0.33050 0.08671 0.78792
 C1796 C 0.32131 0.07101 0.77847
 H1797 H 0.34389 0.09265 0.78148
 H1798 H 0.32789 0.06531 0.76504
 H1799 H 0.34529 0.11701 0.80716
 H1800 H 0.30076 0.11844 0.85265
 H1801 H 0.25525 0.03997 0.80590
 H1802 H 0.30132 0.04194 0.76205
 H1803 H 0.28451 0.09057 0.83810
 H1804 H 0.27067 0.06633 0.82389
 C1805 C 0.81405 0.58609 0.80474
 C1806 C 0.80524 0.59425 0.82183
 C1807 C 0.81444 0.60988 0.83177
 C1808 C 0.83234 0.61775 0.82486
 C1809 C 0.84118 0.60940 0.80810
 C1810 C 0.83222 0.59380 0.79818
 C1811 C 0.80343 0.56984 0.79419
 C1812 C 0.81078 0.56096 0.77689
 C1813 C 0.80005 0.54630 0.76726
 C1814 C 0.78173 0.54003 0.77460
 C1815 C 0.77442 0.54853 0.79202
 C1816 C 0.78506 0.56336 0.80180
 C1817 C 0.78717 0.58696 0.82876
 C1818 C 0.77731 0.57186 0.81896
 H1819 H 0.78045 0.59316 0.84189
 H1820 H 0.76328 0.56687 0.82484
 H1821 H 0.80743 0.61613 0.84472
 H1822 H 0.85502 0.61505 0.80244
 H1823 H 0.80611 0.53997 0.75389
 H1824 H 0.76029 0.54380 0.79788
 H1825 H 0.83972 0.58817 0.78534
 H1826 H 0.82469 0.56518 0.77041
 C1827 C 0.80578 0.08869 0.30958
 C1828 C 0.82292 0.09697 0.30096
 C1829 C 0.83251 0.11283 0.31014
 C1830 C 0.82526 0.12076 0.32788
 C1831 C 0.80836 0.11241 0.33645
 C1832 C 0.79876 0.09662 0.32749
 C1833 C 0.79577 0.07200 0.29912
 C1834 C 0.77856 0.06286 0.30637
 C1835 C 0.76955 0.04766 0.29586
 C1836 C 0.77743 0.04110 0.27786
 C1837 C 0.79473 0.04993 0.27064
 C1838 C 0.80389 0.06527 0.28107
 C1839 C 0.83030 0.08948 0.28316
 C1840 C 0.82099 0.07399 0.27343
 H1841 H 0.84344 0.09578 0.27656
 H1842 H 0.82724 0.06882 0.25962
 H1843 H 0.84555 0.11909 0.30332
 H1844 H 0.80240 0.11813 0.35014
 H1845 H 0.75625 0.04112 0.30183
 H1846 H 0.80100 0.04500 0.25676
 H1847 H 0.78582 0.09095 0.33480
 H1848 H 0.77170 0.06726 0.32005
 C1849 C 0.69314 0.41061 0.31455
 C1850 C 0.67623 0.40233 0.30537
 C1851 C 0.66683 0.38602 0.31373
 C1852 C 0.67407 0.37760 0.33116
 C1853 C 0.69068 0.38602 0.34035
 C1854 C 0.70008 0.40227 0.33222
 C1855 C 0.70306 0.42769 0.30485
 C1856 C 0.72013 0.43680 0.31261
 C1857 C 0.72916 0.45226 0.30268
 C1858 C 0.72142 0.45913 0.28479
 C1859 C 0.70421 0.45039 0.27712
 C1860 C 0.69506 0.43477 0.28694
 C1861 C 0.66891 0.41023 0.28779
 C1862 C 0.67812 0.42609 0.27878
 H1863 H 0.65593 0.40395 0.28078
 H1864 H 0.67195 0.43154 0.26509
 H1865 H 0.65400 0.37974 0.30645
 H1866 H 0.69661 0.37995 0.35385
 H1867 H 0.74238 0.45874 0.30898
 H1868 H 0.69805 0.45555 0.26332
 H1869 H 0.71282 0.40794 0.33996
 H1870 H 0.72688 0.43213 0.32621
 C1871 C 0.68861 0.91104 0.81275
 C1872 C 0.69864 0.90166 0.82840
 C1873 C 0.69025 0.88513 0.83742
 C1874 C 0.67195 0.87766 0.83099
 C1875 C 0.66192 0.88729 0.81575
 C1876 C 0.67006 0.90371 0.80678
 C1877 C 0.69836 0.92815 0.80299
 C1878 C 0.68981 0.93805 0.78694
 C1879 C 0.69977 0.95338 0.77780
 C1880 C 0.71848 0.95941 0.78442
 C1881 C 0.72698 0.94995 0.80070
 C1882 C 0.71713 0.93433 0.80991
 C1883 C 0.71708 0.90867 0.83476
 C1884 C 0.72610 0.92467 0.82574
 H1885 H 0.72475 0.90158 0.84679
 H1886 H 0.74045 0.92940 0.83111
 H1887 H 0.69816 0.87791 0.84922
 H1888 H 0.64772 0.88204 0.81052
 H1889 H 0.69279 0.96045 0.76535
 H1890 H 0.74146 0.95443 0.80594
 H1891 H 0.66159 0.91029 0.79510
 H1892 H 0.67555 0.93410 0.78099
 C1893 C 0.19431 0.41189 0.80937
 C1894 C 0.17695 0.40409 0.80063
 C1895 C 0.16699 0.38844 0.80956
 C1896 C 0.17408 0.38021 0.82715
 C1897 C 0.19116 0.38813 0.83589
 C1898 C 0.20114 0.40374 0.82718
 C1899 C 0.20475 0.42833 0.79909
 C1900 C 0.22224 0.43699 0.80641
 C1901 C 0.23165 0.45192 0.79603
 C1902 C 0.22391 0.45867 0.77810
 C1903 C 0.20634 0.45033 0.77082
 C1904 C 0.19678 0.43527 0.78111
 C1905 C 0.16972 0.41180 0.78292
 C1906 C 0.17942 0.42704 0.77338
 H1907 H 0.15641 0.40586 0.77625
 H1908 H 0.17329 0.43238 0.75964
 H1909 H 0.15380 0.38253 0.80261
 H1910 H 0.19699 0.38217 0.84948
 H1911 H 0.24516 0.45810 0.80203
 H1912 H 0.20016 0.45542 0.75699
 H1913 H 0.21422 0.40907 0.83458
 H1914 H 0.22900 0.43239 0.82004
 C1915 C 0.19529 0.91165 0.30766
 C1916 C 0.17843 0.90326 0.29849
 C1917 C 0.16887 0.88717 0.30712
 C1918 C 0.17591 0.87913 0.32482
 C1919 C 0.19247 0.88766 0.33398
 C1920 C 0.20202 0.90367 0.32559
 C1921 C 0.20537 0.92849 0.29773
 C1922 C 0.22241 0.93765 0.30549
 C1923 C 0.23152 0.95297 0.29544
 C1924 C 0.22393 0.95963 0.27742
 C1925 C 0.20681 0.95078 0.26968
 C1926 C 0.19755 0.93530 0.27963
 C1927 C 0.17133 0.91084 0.28068
 C1928 C 0.18067 0.92651 0.27146
 H1929 H 0.15839 0.90447 0.27366
 H1930 H 0.17465 0.93174 0.25762
 H1931 H 0.15608 0.88078 0.29986
 H1932 H 0.19823 0.88189 0.34768
 H1933 H 0.24468 0.95953 0.30180
 H1934 H 0.20077 0.95578 0.25576
 H1935 H 0.21470 0.90945 0.33334
 H1936 H 0.22905 0.93318 0.31921
 C1937 C 0.41069 0.30439 0.69147
 C1938 C 0.40250 0.32126 0.70034
 C1939 C 0.38668 0.33092 0.69122
 C1940 C 0.37870 0.32397 0.67333
 C1941 C 0.38706 0.30740 0.66447
 C1942 C 0.40282 0.29775 0.67335
 C1943 C 0.42722 0.29421 0.70194
 C1944 C 0.43616 0.27716 0.69451
 C1945 C 0.45119 0.26797 0.70503
 C1946 C 0.45777 0.27550 0.72320
 C1947 C 0.44913 0.29261 0.73063
 C1948 C 0.43394 0.30194 0.72020
 C1949 C 0.40998 0.32828 0.71834
 C1950 C 0.42536 0.31884 0.72805
 H1951 H 0.40376 0.34122 0.72511
 H1952 H 0.43053 0.32480 0.74201
 H1953 H 0.38042 0.34371 0.69825
 H1954 H 0.38133 0.30171 0.65063
 H1955 H 0.45761 0.25483 0.69890
 H1956 H 0.45407 0.29860 0.74466
 H1957 H 0.40846 0.28507 0.66581
 H1958 H 0.43174 0.27057 0.68069
 C1959 C 0.41245 0.81285 0.18965
 C1960 C 0.40324 0.80334 0.17342
 C1961 C 0.38699 0.81198 0.16394
 C1962 C 0.37965 0.83002 0.17046
 C1963 C 0.38910 0.83953 0.18631
 C1964 C 0.40525 0.83113 0.19575
 C1965 C 0.42931 0.80289 0.19979
 C1966 C 0.43908 0.81091 0.21638
 C1967 C 0.45432 0.80084 0.22565
 C1968 C 0.46035 0.78253 0.21865
 C1969 C 0.45091 0.77451 0.20196
 C1970 C 0.43544 0.78447 0.19258
 C1971 C 0.41016 0.78520 0.16688
 C1972 C 0.42593 0.77599 0.17623
 H1973 H 0.40319 0.77793 0.15442
 H1974 H 0.43062 0.76191 0.17067
 H1975 H 0.37990 0.80447 0.15168
 H1976 H 0.38393 0.85352 0.19165
 H1977 H 0.46135 0.80742 0.23846
 H1978 H 0.45539 0.76035 0.19641
 H1979 H 0.41172 0.83919 0.20787
 H1980 H 0.43511 0.82486 0.22259
 C1981 C 0.91087 0.31146 0.19641
 C1982 C 0.90251 0.30318 0.17908
 C1983 C 0.88665 0.31243 0.16958
 C1984 C 0.87884 0.32988 0.17713
 C1985 C 0.88739 0.33817 0.19413
 C1986 C 0.90316 0.32916 0.20363
 C1987 C 0.92741 0.30088 0.20642
 C1988 C 0.93643 0.30772 0.22394
 C1989 C 0.95148 0.29713 0.23295
 C1990 C 0.95801 0.27948 0.22476
 C1991 C 0.94928 0.27264 0.20719
 C1992 C 0.93405 0.28313 0.19804
 C1993 C 0.90988 0.28565 0.17145
 C1994 C 0.92532 0.27586 0.18070
 H1995 H 0.90354 0.27932 0.15815
 H1996 H 0.93042 0.26228 0.17425
 H1997 H 0.88025 0.30585 0.15643
 H1998 H 0.88181 0.35167 0.20029
 H1999 H 0.95796 0.30280 0.24646
 H2000 H 0.95417 0.25900 0.20070
 H2001 H 0.90896 0.33626 0.21666
 H2002 H 0.93205 0.32111 0.23105
 C2003 C 0.91024 0.81157 0.69579
 C2004 C 0.90176 0.80321 0.67856
 C2005 C 0.88551 0.81215 0.66939
 C2006 C 0.87742 0.82937 0.67719
 C2007 C 0.88602 0.83769 0.69416
 C2008 C 0.90217 0.82898 0.70333
 C2009 C 0.92730 0.80139 0.70536
 C2010 C 0.93658 0.80839 0.72268
 C2011 C 0.95215 0.79819 0.73126
 C2012 C 0.95897 0.78074 0.72284
 C2013 C 0.94997 0.77374 0.70545
 C2014 C 0.93423 0.78386 0.69673
 C2015 C 0.90944 0.78592 0.67066
 C2016 C 0.92532 0.77646 0.67953
 H2017 H 0.90301 0.77952 0.65744
 H2018 H 0.93063 0.76307 0.67289
 H2019 H 0.87907 0.80553 0.65629
 H2020 H 0.88022 0.85099 0.70054
 H2021 H 0.95881 0.80398 0.74464
 H2022 H 0.95509 0.76027 0.69878
 H2023 H 0.90800 0.83610 0.71634
 H2024 H 0.93203 0.82164 0.72995
 C2025 C 0.59031 0.30886 0.30810
 C2026 C 0.59863 0.29979 0.32489
 C2027 C 0.61476 0.30847 0.33474
 C2028 C 0.62291 0.32614 0.32806
 C2029 C 0.61449 0.33514 0.31150
 C2030 C 0.59844 0.32669 0.30167
 C2031 C 0.57335 0.29895 0.29778
 C2032 C 0.56420 0.30669 0.28085
 C2033 C 0.54878 0.29671 0.27149
 C2034 C 0.54197 0.27875 0.27871
 C2035 C 0.55078 0.27102 0.29575
 C2036 C 0.56639 0.28093 0.30527
 C2037 C 0.59092 0.28204 0.33167
 C2038 C 0.57516 0.27282 0.32207
 H2039 H 0.59724 0.27510 0.34455
 H2040 H 0.56983 0.25905 0.32785
 H2041 H 0.62107 0.30132 0.34751
 H2042 H 0.62035 0.34879 0.30599
 H2043 H 0.54226 0.30308 0.25842
 H2044 H 0.54566 0.25716 0.30150
 H2045 H 0.59276 0.33434 0.28903
 H2046 H 0.56876 0.32036 0.27448
 C2047 C 0.58809 0.80891 0.81022
 C2048 C 0.59717 0.79953 0.82644
 C2049 C 0.61346 0.80825 0.83597
 C2050 C 0.62104 0.82624 0.82952
 C2051 C 0.61176 0.83563 0.81366
 C2052 C 0.59554 0.82715 0.80416
 C2053 C 0.57119 0.79881 0.80001
 C2054 C 0.56150 0.80672 0.78346
 C2055 C 0.54634 0.79646 0.77401
 C2056 C 0.54029 0.77807 0.78078
 C2057 C 0.54954 0.77022 0.79752
 C2058 C 0.56495 0.78038 0.80708
 C2059 C 0.59010 0.78142 0.83289
 C2060 C 0.57434 0.77206 0.82344
 H2061 H 0.59698 0.77426 0.84536
 H2062 H 0.56955 0.75798 0.82891
 H2063 H 0.62041 0.80082 0.84824
 H2064 H 0.61715 0.84955 0.80838
 H2065 H 0.53943 0.80294 0.76119
 H2066 H 0.54503 0.75602 0.80290
 H2067 H 0.58921 0.83508 0.79201
 H2068 H 0.56550 0.82069 0.77740
 C2069 C 0.08827 0.31297 0.80604
 C2070 C 0.09563 0.30519 0.82392
 C2071 C 0.11171 0.31411 0.83353
 C2072 C 0.12084 0.33076 0.82559
 C2073 C 0.11334 0.33861 0.80801
 C2074 C 0.09729 0.32989 0.79836
 C2075 C 0.07141 0.30262 0.79596
 C2076 C 0.06318 0.30895 0.77796
 C2077 C 0.04788 0.29846 0.76890
 C2078 C 0.04034 0.28142 0.77753
 C2079 C 0.04821 0.27519 0.79562
 C2080 C 0.06363 0.28557 0.80482
 C2081 C 0.08706 0.28841 0.83203
 C2082 C 0.07142 0.27882 0.82269
 H2083 H 0.09265 0.28249 0.84576
 H2084 H 0.06542 0.26580 0.82950
 H2085 H 0.11726 0.30787 0.84713
 H2086 H 0.11999 0.35147 0.80153
 H2087 H 0.04208 0.30364 0.75497
 H2088 H 0.04251 0.26206 0.80248
 H2089 H 0.09231 0.33655 0.78485
 H2090 H 0.06842 0.32184 0.77053
 C2091 C 0.09151 0.81019 0.30385
 C2092 C 0.09943 0.80207 0.32133
 C2093 C 0.11565 0.81098 0.33076
 C2094 C 0.12429 0.82799 0.32305
 C2095 C 0.11626 0.83611 0.30583
 C2096 C 0.10013 0.82739 0.29636
 C2097 C 0.07444 0.79998 0.29400
 C2098 C 0.06568 0.80669 0.27641
 C2099 C 0.05013 0.79640 0.26758
 C2100 C 0.04282 0.77918 0.27603
 C2101 C 0.05127 0.77251 0.29370
 C2102 C 0.06698 0.78270 0.30267
 C2103 C 0.09122 0.78502 0.32923
 C2104 C 0.07535 0.77555 0.32012
 H2105 H 0.09724 0.77881 0.34264
 H2106 H 0.06963 0.76234 0.32678
 H2107 H 0.12162 0.80453 0.34408
 H2108 H 0.12253 0.84923 0.29952
 H2109 H 0.04389 0.80193 0.25397
 H2110 H 0.04579 0.75921 0.30040
 H2111 H 0.09473 0.83432 0.28316
 H2112 H 0.07066 0.81976 0.26912
 C2113 C 0.59221 0.69170 0.69500
 C2114 C 0.60021 0.70077 0.67802
 C2115 C 0.61657 0.69257 0.66834
 C2116 C 0.62531 0.67537 0.67533
 C2117 C 0.61723 0.66635 0.69208
 C2118 C 0.60094 0.67435 0.70178
 C2119 C 0.57493 0.70113 0.70510
 C2120 C 0.56600 0.69339 0.72217
 C2121 C 0.55022 0.70293 0.73125
 C2122 C 0.54284 0.72043 0.72358
 C2123 C 0.55148 0.72815 0.70643
 C2124 C 0.56741 0.71869 0.69720
 C2125 C 0.59194 0.71804 0.67087
 C2126 C 0.57592 0.72680 0.68024
 H2127 H 0.59803 0.72498 0.65785
 H2128 H 0.57015 0.74022 0.67416
 H2129 H 0.62258 0.69973 0.65542
 H2130 H 0.62357 0.65306 0.69784
 H2131 H 0.54385 0.69660 0.74443
 H2132 H 0.54594 0.74165 0.70033
 H2133 H 0.59552 0.66674 0.71460
 H2134 H 0.57100 0.68006 0.72885
 C2135 C 0.58981 0.19092 0.19249
 C2136 C 0.59921 0.20040 0.17648
 C2137 C 0.61558 0.19174 0.16716
 C2138 C 0.62287 0.17370 0.17364
 C2139 C 0.61328 0.16427 0.18932
 C2140 C 0.59701 0.17268 0.19860
 C2141 C 0.57279 0.20087 0.20244
 C2142 C 0.56277 0.19280 0.21873
 C2143 C 0.54743 0.20286 0.22790
 C2144 C 0.54153 0.22123 0.22110
 C2145 C 0.55116 0.22928 0.20464
 C2146 C 0.56676 0.21931 0.19536
 C2147 C 0.59237 0.21854 0.17003
 C2148 C 0.57649 0.22777 0.17924
 H2149 H 0.59949 0.22580 0.15773
 H2150 H 0.57187 0.24186 0.17376
 H2151 H 0.62278 0.19921 0.15504
 H2152 H 0.61842 0.15031 0.19462
 H2153 H 0.54025 0.19622 0.24050
 H2154 H 0.54677 0.24348 0.19925
 H2155 H 0.59045 0.16466 0.21059
 H2156 H 0.56661 0.17882 0.22479
 C2157 C 0.09044 0.68796 0.19370
 C2158 C 0.09873 0.69644 0.17653
 C2159 C 0.11496 0.68764 0.16714
 C2160 C 0.12321 0.67042 0.17462
 C2161 C 0.11473 0.66193 0.19146
 C2162 C 0.09861 0.67052 0.20086
 C2163 C 0.07349 0.69808 0.20361
 C2164 C 0.06451 0.69105 0.22099
 C2165 C 0.04913 0.70128 0.22997
 C2166 C 0.04220 0.71876 0.22189
 C2167 C 0.05084 0.72574 0.20441
 C2168 C 0.06641 0.71562 0.19530
 C2169 C 0.09089 0.71373 0.16896
 C2170 C 0.07508 0.72309 0.17811
 H2171 H 0.09716 0.72022 0.15579
 H2172 H 0.06965 0.73650 0.17172
 H2173 H 0.12128 0.69436 0.15411
 H2174 H 0.12064 0.64862 0.19759
 H2175 H 0.04275 0.69551 0.24341
 H2176 H 0.04565 0.73924 0.19800
 H2177 H 0.09290 0.66328 0.21377
 H2178 H 0.06920 0.67779 0.22803
 C2179 C 0.09037 0.19254 0.69325
 C2180 C 0.09903 0.17646 0.70298
 C2181 C 0.11528 0.16681 0.69447
 C2182 C 0.12322 0.17305 0.67636
 C2183 C 0.11447 0.18893 0.66677
 C2184 C 0.09832 0.19852 0.67502
 C2185 C 0.07327 0.20265 0.70292
 C2186 C 0.06375 0.21881 0.69444
 C2187 C 0.04822 0.22803 0.70419
 C2188 C 0.04163 0.22145 0.72266
 C2189 C 0.05082 0.20516 0.73114
 C2190 C 0.06655 0.19577 0.72145
 C2191 C 0.09152 0.17023 0.72120
 C2192 C 0.07567 0.17968 0.73023
 H2193 H 0.09810 0.15791 0.72867
 H2194 H 0.07052 0.17436 0.74439
 H2195 H 0.12187 0.15459 0.70210
 H2196 H 0.12014 0.19410 0.65277
 H2197 H 0.04142 0.24050 0.69722
 H2198 H 0.04587 0.19990 0.74540
 H2199 H 0.09241 0.21063 0.66687
 H2200 H 0.06809 0.22469 0.68034
 C2201 C 0.41324 0.69631 0.30808
 C2202 C 0.40565 0.67899 0.29939
 C2203 C 0.38990 0.66898 0.30834
 C2204 C 0.38138 0.67598 0.32590
 C2205 C 0.38909 0.69303 0.33458
 C2206 C 0.40479 0.70305 0.32586
 C2207 C 0.42979 0.70679 0.29781
 C2208 C 0.43823 0.72424 0.30510
 C2209 C 0.45333 0.73365 0.29476
 C2210 C 0.46046 0.72594 0.27691
 C2211 C 0.45230 0.70846 0.26964
 C2212 C 0.43708 0.69889 0.27989
 C2213 C 0.41368 0.67185 0.28173
 C2214 C 0.42905 0.68158 0.27219
 H2215 H 0.40791 0.65857 0.27509
 H2216 H 0.43466 0.67551 0.25849
 H2217 H 0.38415 0.65582 0.30144
 H2218 H 0.38291 0.69879 0.34815
 H2219 H 0.45937 0.74710 0.30075
 H2220 H 0.45768 0.70231 0.25588
 H2221 H 0.40995 0.71609 0.33323
 H2222 H 0.43336 0.73096 0.31867
 C2223 C 0.40914 0.18764 0.80942
 C2224 C 0.40104 0.19639 0.82656
 C2225 C 0.38487 0.18771 0.83615
 C2226 C 0.37642 0.17033 0.82889
 C2227 C 0.38466 0.16155 0.81205
 C2228 C 0.40079 0.17002 0.80245
 C2229 C 0.42608 0.19769 0.79933
 C2230 C 0.43502 0.19037 0.78203
 C2231 C 0.45039 0.20055 0.77291
 C2232 C 0.45732 0.21828 0.78079
 C2233 C 0.44871 0.22555 0.79818
 C2234 C 0.43320 0.21547 0.80744
 C2235 C 0.40895 0.21388 0.83395
 C2236 C 0.42468 0.22321 0.82460
 H2237 H 0.40278 0.22056 0.84711
 H2238 H 0.43016 0.23679 0.83084
 H2239 H 0.37873 0.19468 0.84917
 H2240 H 0.37854 0.14812 0.80611
 H2241 H 0.45677 0.19456 0.75954
 H2242 H 0.45393 0.23922 0.80445
 H2243 H 0.40634 0.16261 0.78953
 H2244 H 0.43030 0.17690 0.77518
 C2245 C 0.91520 0.68798 0.80661
 C2246 C 0.90649 0.69652 0.82357
 C2247 C 0.89067 0.68711 0.83310
 C2248 C 0.88323 0.66926 0.82592
 C2249 C 0.89220 0.66070 0.80933
 C2250 C 0.90794 0.66986 0.79983
 C2251 C 0.93158 0.69878 0.79644
 C2252 C 0.94080 0.69172 0.77920
 C2253 C 0.95554 0.70254 0.76989
 C2254 C 0.96161 0.72068 0.77749
 C2255 C 0.95276 0.72774 0.79486
 C2256 C 0.93777 0.71700 0.80430
 C2257 C 0.91346 0.71449 0.83075
 C2258 C 0.92877 0.72448 0.82135
 H2259 H 0.90686 0.72101 0.84378
 H2260 H 0.93351 0.73840 0.82742
 H2261 H 0.88395 0.69390 0.84593
 H2262 H 0.88693 0.64689 0.80348
 H2263 H 0.96213 0.69667 0.75657
 H2264 H 0.95730 0.74175 0.80088
 H2265 H 0.91404 0.66252 0.78712
 H2266 H 0.93679 0.67797 0.77249
 C2267 C 0.91056 0.19044 0.31112
 C2268 C 0.90123 0.17462 0.30127
 C2269 C 0.88510 0.16500 0.31009
 C2270 C 0.87798 0.17102 0.32864
 C2271 C 0.88755 0.18648 0.33846
 C2272 C 0.90359 0.19603 0.32991
 C2273 C 0.92728 0.20075 0.30099
 C2274 C 0.93717 0.21690 0.30941
 C2275 C 0.95225 0.22638 0.29920
 C2276 C 0.95800 0.22004 0.28033
 C2277 C 0.94846 0.20377 0.27189
 C2278 C 0.93313 0.19416 0.28202
 C2279 C 0.90788 0.16866 0.28260
 C2280 C 0.92350 0.17820 0.27319
 H2281 H 0.90081 0.15652 0.27505
 H2282 H 0.92798 0.17311 0.25869
 H2283 H 0.87790 0.15306 0.30233
 H2284 H 0.88256 0.19141 0.35284
 H2285 H 0.95937 0.23884 0.30613
 H2286 H 0.95275 0.19872 0.25730
 H2287 H 0.91014 0.20783 0.33824
 H2288 H 0.93344 0.22262 0.32379
 C2289 C 0.30967 0.30566 0.58901
 C2290 C 0.30027 0.32172 0.59820
 C2291 C 0.30929 0.33123 0.61436
 C2292 C 0.32758 0.32484 0.62169
 C2293 C 0.33694 0.30910 0.61230
 C2294 C 0.32819 0.29967 0.59622
 C2295 C 0.29933 0.29551 0.57222
 C2296 C 0.30733 0.27920 0.56240
 C2297 C 0.29690 0.26985 0.54729
 C2298 C 0.27822 0.27647 0.54144
 C2299 C 0.27022 0.29293 0.55088
 C2300 C 0.28059 0.30242 0.56623
 C2301 C 0.28183 0.32802 0.59137
 C2302 C 0.27221 0.31859 0.57574
 H2303 H 0.27463 0.34035 0.59833
 H2304 H 0.25789 0.32394 0.57113
 H2305 H 0.30187 0.34337 0.62144
 H2306 H 0.35110 0.30388 0.61747
 H2307 H 0.30350 0.25725 0.54025
 H2308 H 0.25580 0.29820 0.54650
 H2309 H 0.33616 0.28764 0.58981
 H2310 H 0.32154 0.27328 0.56620
 C2311 C 0.30573 0.81030 0.08883
 C2312 C 0.32333 0.80219 0.09651
 C2313 C 0.33328 0.81141 0.11226
 C2314 C 0.32598 0.82871 0.12065
 C2315 C 0.30863 0.83679 0.11285
 C2316 C 0.29865 0.82778 0.09720
 C2317 C 0.29536 0.79981 0.07224
 C2318 C 0.27762 0.80651 0.06377
 C2319 C 0.26836 0.79604 0.04859
 C2320 C 0.27650 0.77863 0.04138
 C2321 C 0.29427 0.77193 0.04959
 C2322 C 0.30368 0.78231 0.06492
 C2323 C 0.33084 0.78487 0.08850
 C2324 C 0.32125 0.77516 0.07304
 H2325 H 0.34433 0.77866 0.09432
 H2326 H 0.32764 0.76177 0.06744
 H2327 H 0.34668 0.80498 0.11806
 H2328 H 0.30261 0.85014 0.11892
 H2329 H 0.25468 0.80160 0.04255
 H2330 H 0.30073 0.75849 0.04418
 H2331 H 0.28540 0.83472 0.09197
 H2332 H 0.27056 0.81973 0.06868
 C2333 C 0.80882 0.31387 0.09172
 C2334 C 0.82576 0.30518 0.10014
 C2335 C 0.83506 0.31385 0.11658
 C2336 C 0.82768 0.33113 0.12498
 C2337 C 0.81102 0.33982 0.11642
 C2338 C 0.80173 0.33137 0.10004
 C2339 C 0.79900 0.30386 0.07452
 C2340 C 0.78190 0.31117 0.06531
 C2341 C 0.77289 0.30097 0.04982
 C2342 C 0.78066 0.28325 0.04298
 C2343 C 0.79794 0.27603 0.05176
 C2344 C 0.80708 0.28613 0.06746
 C2345 C 0.83319 0.28777 0.09226
 C2346 C 0.82406 0.27845 0.07629
 H2347 H 0.84620 0.28113 0.09865
 H2348 H 0.83030 0.26492 0.07087
 H2349 H 0.84794 0.30696 0.12297
 H2350 H 0.80499 0.35317 0.12247
 H2351 H 0.75963 0.30696 0.04330
 H2352 H 0.80410 0.26235 0.04663
 H2353 H 0.78894 0.33874 0.09428
 H2354 H 0.77510 0.32462 0.06992
 C2355 C 0.80734 0.81413 0.59144
 C2356 C 0.82400 0.80506 0.60001
 C2357 C 0.83322 0.81341 0.61669
 C2358 C 0.82599 0.83070 0.62518
 C2359 C 0.80957 0.83972 0.61652
 C2360 C 0.80038 0.83161 0.59991
 C2361 C 0.79764 0.80452 0.57393
 C2362 C 0.78089 0.81229 0.56448
 C2363 C 0.77199 0.80248 0.54868
 C2364 C 0.77952 0.78469 0.54175
 C2365 C 0.79647 0.77701 0.55078
 C2366 C 0.80551 0.78674 0.56678
 C2367 C 0.83125 0.78761 0.59202
 C2368 C 0.82219 0.77864 0.57580
 H2369 H 0.84403 0.78067 0.59853
 H2370 H 0.82828 0.76506 0.57031
 H2371 H 0.84589 0.80624 0.62318
 H2372 H 0.80365 0.85309 0.62264
 H2373 H 0.75899 0.80882 0.54198
 H2374 H 0.80246 0.76328 0.54558
 H2375 H 0.78779 0.83923 0.59408
 H2376 H 0.77429 0.82582 0.56912
 C2377 C 0.30919 0.69044 0.40906
 C2378 C 0.32628 0.69943 0.40111
 C2379 C 0.33624 0.69075 0.38515
 C2380 C 0.32940 0.67316 0.37680
 C2381 C 0.31264 0.66415 0.38494
 C2382 C 0.30268 0.67261 0.40083
 C2383 C 0.29866 0.70048 0.42572
 C2384 C 0.28133 0.69294 0.43439
 C2385 C 0.27177 0.70308 0.44950
 C2386 C 0.27921 0.72097 0.45645
 C2387 C 0.29662 0.72849 0.44811
 C2388 C 0.30632 0.71845 0.43282
 C2389 C 0.33322 0.71712 0.40896
 C2390 C 0.32347 0.72642 0.42449
 H2391 H 0.34634 0.72398 0.40292
 H2392 H 0.32937 0.74015 0.42994
 H2393 H 0.34919 0.69789 0.37908
 H2394 H 0.30703 0.65055 0.37891
 H2395 H 0.25840 0.69688 0.45568
 H2396 H 0.30253 0.74231 0.45335
 H2397 H 0.28985 0.66499 0.40630
 H2398 H 0.27478 0.67933 0.42967
 C2399 C 0.30710 0.19386 0.91195
 C2400 C 0.29814 0.17678 0.90413
 C2401 C 0.30711 0.16665 0.88844
 C2402 C 0.32496 0.17332 0.88024
 C2403 C 0.33389 0.19013 0.88821
 C2404 C 0.32515 0.20025 0.90382
 C2405 C 0.29684 0.20448 0.92841
 C2406 C 0.30442 0.22172 0.93700
 C2407 C 0.29416 0.23128 0.95203
 C2408 C 0.27607 0.22396 0.95896
 C2409 C 0.26846 0.20669 0.95064
 C2410 C 0.27865 0.19696 0.93545
 C2411 C 0.28020 0.17001 0.91188
 C2412 C 0.27067 0.17987 0.92720
 H2413 H 0.27334 0.15691 0.90594
 H2414 H 0.25677 0.17407 0.93259
 H2415 H 0.30002 0.15368 0.88249
 H2416 H 0.34769 0.19563 0.88229
 H2417 H 0.30044 0.24455 0.95818
 H2418 H 0.25449 0.20086 0.95586
 H2419 H 0.33275 0.21308 0.90917
 H2420 H 0.31819 0.22817 0.93233
 C2421 C 0.81179 0.68524 0.90988
 C2422 C 0.82880 0.69415 0.90167
 C2423 C 0.83847 0.68543 0.88555
 C2424 C 0.83140 0.66790 0.87728
 C2425 C 0.81471 0.65898 0.88566
 C2426 C 0.80505 0.66746 0.90172
 C2427 C 0.80155 0.69529 0.92669
 C2428 C 0.78433 0.68779 0.93563
 C2429 C 0.77499 0.69798 0.95083
 C2430 C 0.78252 0.71590 0.95762
 C2431 C 0.79986 0.72335 0.94906
 C2432 C 0.80935 0.71325 0.93367
 C2433 C 0.83592 0.71182 0.90943
 C2434 C 0.82641 0.72115 0.92509
 H2435 H 0.84897 0.71862 0.90320
 H2436 H 0.83243 0.73488 0.93045
 H2437 H 0.85137 0.69250 0.87928
 H2438 H 0.80892 0.64541 0.87972
 H2439 H 0.76167 0.69183 0.95718
 H2440 H 0.80585 0.73718 0.95417
 H2441 H 0.79226 0.65990 0.90736
 H2442 H 0.77771 0.67418 0.93104
 C2443 C 0.80961 0.19019 0.41312
 C2444 C 0.80043 0.17359 0.40451
 C2445 C 0.80922 0.16414 0.38829
 C2446 C 0.82708 0.17104 0.38033
 C2447 C 0.83629 0.18728 0.38916
 C2448 C 0.82774 0.19671 0.40530
 C2449 C 0.79944 0.20025 0.42999
 C2450 C 0.80712 0.21713 0.43924
 C2451 C 0.79681 0.22629 0.45450
 C2452 C 0.77861 0.21889 0.46103
 C2453 C 0.77097 0.20191 0.45212
 C2454 C 0.78116 0.19263 0.43666
 C2455 C 0.78245 0.16665 0.41198
 C2456 C 0.77304 0.17594 0.42772
 H2457 H 0.77544 0.15390 0.40546
 H2458 H 0.75907 0.17007 0.43286
 H2459 H 0.80194 0.15158 0.38169
 H2460 H 0.85013 0.19292 0.38348
 H2461 H 0.80311 0.23933 0.46112
 H2462 H 0.75691 0.19603 0.45701
 H2463 H 0.83553 0.20916 0.41128
 H2464 H 0.82095 0.22363 0.43485
 C2465 C 0.69259 0.30726 0.41319
 C2466 C 0.67620 0.29819 0.40385
 C2467 C 0.66686 0.30727 0.38777
 C2468 C 0.67369 0.32533 0.38071
 C2469 C 0.68978 0.33435 0.39023
 C2470 C 0.69908 0.32551 0.40621
 C2471 C 0.70247 0.29690 0.42996
 C2472 C 0.71906 0.30460 0.43994
 C2473 C 0.72808 0.29423 0.45510
 C2474 C 0.72084 0.27591 0.46085
 C2475 C 0.70413 0.26820 0.45121
 C2476 C 0.69497 0.27850 0.43580
 C2477 C 0.66936 0.28004 0.41047
 C2478 C 0.67853 0.27042 0.42611
 H2479 H 0.65679 0.27309 0.40338
 H2480 H 0.67274 0.25636 0.43057
 H2481 H 0.65444 0.30011 0.38061
 H2482 H 0.69537 0.34831 0.38526
 H2483 H 0.74090 0.30061 0.46230
 H2484 H 0.69839 0.25405 0.45549
 H2485 H 0.71138 0.33323 0.41275
 H2486 H 0.72546 0.31853 0.43624
 C2487 C 0.69322 0.80298 0.91005
 C2488 C 0.70182 0.82020 0.90234
 C2489 C 0.69240 0.83029 0.88695
 C2490 C 0.67446 0.82343 0.87898
 C2491 C 0.66597 0.80643 0.88680
 C2492 C 0.67515 0.79635 0.90207
 C2493 C 0.70382 0.79249 0.92628
 C2494 C 0.69653 0.77518 0.93477
 C2495 C 0.70698 0.76582 0.94970
 C2496 C 0.72499 0.77340 0.95666
 C2497 C 0.73239 0.79070 0.94838
 C2498 C 0.72197 0.80025 0.93327
 C2499 C 0.71978 0.82718 0.90997
 C2500 C 0.72963 0.81743 0.92510
 H2501 H 0.72638 0.84037 0.90411
 H2502 H 0.74351 0.82341 0.93043
 H2503 H 0.69917 0.84340 0.88109
 H2504 H 0.65213 0.80076 0.88106
 H2505 H 0.70086 0.75252 0.95579
 H2506 H 0.74629 0.79672 0.95362
 H2507 H 0.66781 0.78339 0.90732
 H2508 H 0.68282 0.76853 0.93013
 C2509 C 0.18791 0.30992 0.91115
 C2510 C 0.19728 0.32652 0.90297
 C2511 C 0.18876 0.33611 0.88677
 C2512 C 0.17098 0.32935 0.87840
 C2513 C 0.16161 0.31306 0.88675
 C2514 C 0.16989 0.30349 0.90288
 C2515 C 0.19778 0.29976 0.92806
 C2516 C 0.18983 0.28296 0.93700
 C2517 C 0.19985 0.27368 0.95229
 C2518 C 0.21805 0.28089 0.95918
 C2519 C 0.22596 0.29782 0.95061
 C2520 C 0.21603 0.30723 0.93512
 C2521 C 0.21521 0.33332 0.91082
 C2522 C 0.22438 0.32389 0.92655
 H2523 H 0.22237 0.34607 0.90461
 H2524 H 0.23831 0.32966 0.93198
 H2525 H 0.19619 0.34869 0.88053
 H2526 H 0.14784 0.30752 0.88071
 H2527 H 0.19334 0.26069 0.95865
 H2528 H 0.24001 0.30355 0.95579
 H2529 H 0.16199 0.29101 0.90849
 H2530 H 0.17598 0.27660 0.93235
 C2531 C 0.19423 0.81018 0.40805
 C2532 C 0.17761 0.80118 0.39905
 C2533 C 0.16824 0.81010 0.38291
 C2534 C 0.17525 0.82792 0.37544
 C2535 C 0.19155 0.83690 0.38463
 C2536 C 0.20089 0.82822 0.40068
 C2537 C 0.20417 0.79996 0.42487
 C2538 C 0.22101 0.80756 0.43451
 C2539 C 0.23006 0.79730 0.44974
 C2540 C 0.22259 0.77921 0.45589
 C2541 C 0.20564 0.77160 0.44659
 C2542 C 0.19646 0.78178 0.43113
 C2543 C 0.17058 0.78326 0.40608
 C2544 C 0.17978 0.77378 0.42178
 H2545 H 0.15782 0.77637 0.39925
 H2546 H 0.17383 0.75989 0.42656
 H2547 H 0.15564 0.80298 0.37601
 H2548 H 0.19728 0.85069 0.37934
 H2549 H 0.24306 0.80359 0.45667
 H2550 H 0.19973 0.75762 0.45119
 H2551 H 0.21337 0.83588 0.40695
 H2552 H 0.22758 0.82132 0.43048
 C2553 C 0.69261 0.69847 0.59017
 C2554 C 0.70161 0.68149 0.59778
 C2555 C 0.69313 0.67171 0.61392
 C2556 C 0.67573 0.67860 0.62280
 C2557 C 0.66678 0.69535 0.61509
 C2558 C 0.67504 0.70514 0.59903
 C2559 C 0.70234 0.70869 0.57315
 C2560 C 0.69467 0.72575 0.56460
 C2561 C 0.70453 0.73498 0.54910
 C2562 C 0.72229 0.72748 0.54164
 C2563 C 0.72991 0.71032 0.54986
 C2564 C 0.72014 0.70093 0.56550
 C2565 C 0.71911 0.67446 0.58938
 C2566 C 0.72817 0.68397 0.57362
 H2567 H 0.72600 0.66145 0.59518
 H2568 H 0.74177 0.67800 0.56775
 H2569 H 0.70025 0.65879 0.61966
 H2570 H 0.65334 0.70103 0.62154
 H2571 H 0.69825 0.74817 0.54305
 H2572 H 0.74361 0.70433 0.54423
 H2573 H 0.66746 0.71795 0.59390
 H2574 H 0.68115 0.73232 0.56970
 C2575 C 0.69655 0.19278 0.09205
 C2576 C 0.67914 0.20111 0.09996
 C2577 C 0.66928 0.19205 0.11575
 C2578 C 0.67648 0.17469 0.12393
 C2579 C 0.69366 0.16642 0.11593
 C2580 C 0.70355 0.17528 0.10025
 C2581 C 0.70678 0.20305 0.07537
 C2582 C 0.72429 0.19608 0.06661
 C2583 C 0.73339 0.20631 0.05130
 C2584 C 0.72533 0.22376 0.04425
 C2585 C 0.70782 0.23076 0.05279
 C2586 C 0.69856 0.22061 0.06824
 C2587 C 0.67172 0.21848 0.09214
 C2588 C 0.68121 0.22801 0.07663
 H2589 H 0.65839 0.22487 0.09816
 H2590 H 0.67489 0.24144 0.07117
 H2591 H 0.65602 0.19864 0.12171
 H2592 H 0.69961 0.15302 0.12185
 H2593 H 0.74687 0.20053 0.04500
 H2594 H 0.70141 0.24423 0.04750
 H2595 H 0.71667 0.16818 0.09485
 H2596 H 0.73127 0.18281 0.07137
 C2597 C 0.19416 0.68779 0.09032
 C2598 C 0.17684 0.69610 0.09843
 C2599 C 0.16750 0.68734 0.11470
 C2600 C 0.17518 0.67032 0.12320
 C2601 C 0.19224 0.66203 0.11496
 C2602 C 0.20159 0.67058 0.09878
 C2603 C 0.20393 0.69784 0.07323
 C2604 C 0.22137 0.69092 0.06430
 C2605 C 0.23019 0.70108 0.04878
 C2606 C 0.22187 0.71838 0.04165
 C2607 C 0.20433 0.72524 0.05024
 C2608 C 0.19538 0.71519 0.06594
 C2609 C 0.16902 0.71319 0.09038
 C2610 C 0.17808 0.72252 0.07449
 H2611 H 0.15573 0.71955 0.09654
 H2612 H 0.17150 0.73577 0.06890
 H2613 H 0.15432 0.69393 0.12085
 H2614 H 0.19853 0.64888 0.12109
 H2615 H 0.24368 0.69540 0.04243
 H2616 H 0.19774 0.73860 0.04489
 H2617 H 0.21466 0.66351 0.09324
 H2618 H 0.22857 0.67780 0.06914
 C2619 C 0.19368 0.18821 0.59173
 C2620 C 0.17664 0.19692 0.60001
 C2621 C 0.16729 0.18840 0.61640
 C2622 C 0.17468 0.17125 0.62487
 C2623 C 0.19144 0.16255 0.61646
 C2624 C 0.20081 0.17086 0.60015
 C2625 C 0.20350 0.19803 0.57452
 C2626 C 0.22069 0.19073 0.56542
 C2627 C 0.22956 0.20067 0.54978
 C2628 C 0.22155 0.21813 0.54271
 C2629 C 0.20425 0.22538 0.55148
 C2630 C 0.19525 0.21554 0.56729
 C2631 C 0.16911 0.21416 0.59200
 C2632 C 0.17821 0.22325 0.57600
 H2633 H 0.15604 0.22081 0.59829
 H2634 H 0.17186 0.23664 0.57045
 H2635 H 0.15433 0.19530 0.62268
 H2636 H 0.19750 0.14929 0.62257
 H2637 H 0.24286 0.19469 0.54330
 H2638 H 0.19789 0.23886 0.54618
 H2639 H 0.21366 0.16349 0.59448
 H2640 H 0.22765 0.17746 0.57021
   
