data_POSCAR
  _audit_creation_date              2014-09-24
  _audit_creation_method            'ToBaCCo'
  _symmetry_space_group_name_H-M    'P1'
  _symmetry_Int_Tables_number       1
  _symmetry_cell_setting            triclinic
  loop_
  _symmetry_equiv_pos_as_xyz
 x,y,z
_cell_length_a 51.2457
_cell_length_b 51.3150
_cell_length_c 51.2692
_cell_angle_alpha 89.985200
_cell_angle_beta 90.022700
_cell_angle_gamma 89.964500
loop_
  _atom_site_label
  _atom_site_type_symbol
  _atom_site_fract_x
  _atom_site_fract_y
  _atom_site_fract_z
C1 C 0.25002 0.94400 0.02247
 C2 C 0.24993 0.93057 -0.00122
 C3 C 0.25002 0.94390 -0.02502
 C4 C 0.25012 0.97148 -0.02532
 C5 C 0.25030 0.98532 -0.00135
 C6 C 0.25029 0.97152 0.02265
 C7 C 0.25055 0.98559 0.04618
 C8 C 0.25084 1.01270 0.04618
 C9 C 0.25081 1.02677 0.02265
 C10 C 0.25049 1.01299 -0.00135
 C11 C 0.25005 0.98562 -0.04886
 C12 C 0.25014 1.01275 -0.04886
 C13 C 0.25037 1.02685 -0.02532
 C14 C 0.25048 1.05444 -0.02500
 C15 C 0.25087 1.06773 -0.00121
 C16 C 0.25108 1.05428 0.02245
 H17 H 0.25057 0.97573 0.06485
 H18 H 0.25106 1.02256 0.06484
 H19 H 0.24990 0.97577 -0.06753
 H20 H 0.25005 1.02263 -0.06752
 H21 H 0.24978 0.90940 -0.00108
 H22 H 0.25102 1.08890 -0.00106
 C23 C 0.74970 0.44288 0.47494
 C24 C 0.74961 0.42952 0.49870
 C25 C 0.74994 0.44292 0.52241
 C26 C 0.75046 0.47045 0.52261
 C27 C 0.75047 0.48424 0.49862
 C28 C 0.75005 0.47041 0.47466
 C29 C 0.74999 0.48448 0.45111
 C30 C 0.75032 0.51163 0.45108
 C31 C 0.75080 0.52571 0.47461
 C32 C 0.75092 0.51190 0.49859
 C33 C 0.75097 0.48453 0.54613
 C34 C 0.75151 0.51165 0.54610
 C35 C 0.75149 0.52571 0.52256
 C36 C 0.75202 0.55322 0.52230
 C37 C 0.75181 0.56660 0.49858
 C38 C 0.75117 0.55324 0.47485
 H39 H 0.74965 0.47460 0.43246
 H40 H 0.75023 0.52151 0.43242
 H41 H 0.75099 0.47468 0.56481
 H42 H 0.75192 0.52153 0.56476
 H43 H 0.74929 0.40837 0.49873
 H44 H 0.75215 0.58776 0.49858
 C45 C 0.74977 1.02282 0.94286
 C46 C 0.75033 0.99902 0.92960
 C47 C 0.75053 0.97538 0.94313
 C48 C 0.75008 0.97527 0.97069
 C49 C 0.74958 0.99929 0.98440
 C50 C 0.74946 1.02320 0.97046
 C51 C 0.74903 1.04676 0.98449
 C52 C 0.74874 1.04687 1.01163
 C53 C 0.74881 1.02342 1.02585
 C54 C 0.74919 0.99940 1.01210
 C55 C 0.75012 0.95182 0.98488
 C56 C 0.74965 0.95193 1.01204
 C57 C 0.74919 0.97549 1.02602
 C58 C 0.74874 0.97582 1.05357
 C59 C 0.74844 0.99955 1.06689
 C60 C 0.74850 1.02325 1.05345
 H61 H 0.74894 1.06539 0.97457
 H62 H 0.74844 1.06557 1.02141
 H63 H 0.75048 0.93314 0.97509
 H64 H 0.74968 0.93332 1.02200
 H65 H 0.75062 0.99883 0.90841
 H66 H 0.74816 0.99952 1.08808
 C67 C 0.24865 0.52348 0.55438
 C68 C 0.24861 0.49985 0.56787
 C69 C 0.24865 0.47608 0.55460
 C70 C 0.24880 0.47570 0.52704
 C71 C 0.24877 0.49959 0.51311
 C72 C 0.24866 0.52361 0.52683
 C73 C 0.24857 0.54707 0.51266
 C74 C 0.24856 0.54696 0.48551
 C75 C 0.24871 0.52339 0.47152
 C76 C 0.24885 0.49948 0.48543
 C77 C 0.24898 0.45213 0.51306
 C78 C 0.24914 0.45202 0.48589
 C79 C 0.24907 0.47547 0.47170
 C80 C 0.24921 0.47563 0.44413
 C81 C 0.24900 0.49930 0.43066
 C82 C 0.24871 0.52305 0.44397
 H83 H 0.24847 0.56575 0.52246
 H84 H 0.24846 0.56557 0.47556
 H85 H 0.24902 0.43353 0.52304
 H86 H 0.24929 0.43334 0.47608
 H87 H 0.24855 0.49995 0.58905
 H88 H 0.24905 0.49924 0.40948
 C89 C 0.94335 0.24800 -0.02297
 C90 C 0.93004 0.24753 0.00083
 C91 C 0.94353 0.24735 0.02451
 C92 C 0.97110 0.24774 0.02469
 C93 C 0.98487 0.24811 0.00069
 C94 C 0.97096 0.24819 -0.02327
 C95 C 0.98503 0.24845 -0.04683
 C96 C 1.01217 0.24863 -0.04688
 C97 C 1.02636 0.24863 -0.02337
 C98 C 1.01259 0.24842 0.00065
 C99 C 0.98524 0.24778 0.04820
 C100 C 1.01240 0.24821 0.04817
 C101 C 1.02650 0.24852 0.02462
 C102 C 1.05411 0.24895 0.02430
 C103 C 1.06743 0.24905 0.00051
 C104 C 1.05396 0.24885 -0.02319
 H105 H 0.97514 0.24850 -0.06549
 H106 H 1.02198 0.24880 -0.06558
 H107 H 0.97538 0.24752 0.06687
 H108 H 1.02231 0.24825 0.06683
 H109 H 0.90884 0.24733 0.00097
 H110 H 1.08864 0.24930 0.00044
 C111 C 0.44444 0.74787 0.52581
 C112 C 0.43070 0.74815 0.50225
 C113 C 0.44376 0.74857 0.47834
 C114 C 0.47132 0.74862 0.47771
 C115 C 0.48549 0.74843 0.50148
 C116 C 0.47202 0.74810 0.52566
 C117 C 0.48647 0.74801 0.54898
 C118 C 0.51366 0.74829 0.54857
 C119 C 0.52738 0.74858 0.52482
 C120 C 0.51318 0.74860 0.50106
 C121 C 0.48505 0.74887 0.45396
 C122 C 0.51221 0.74892 0.45355
 C123 C 0.52665 0.74881 0.47687
 C124 C 0.55421 0.74891 0.47669
 C125 C 0.56796 0.74898 0.50021
 C126 C 0.55494 0.74887 0.52413
 H127 H 0.47687 0.74777 0.56778
 H128 H 0.52385 0.74825 0.56707
 H129 H 0.47490 0.74899 0.43544
 H130 H 0.52181 0.74909 0.43475
 H131 H 0.40952 0.74806 0.50253
 H132 H 0.58914 0.74913 0.49988
 C133 C 0.02241 0.75151 0.05645
 C134 C -0.00142 0.75156 0.06968
 C135 C -0.02510 0.75142 0.05611
 C136 C -0.02513 0.75131 0.02849
 C137 C -0.00101 0.75115 0.01487
 C138 C 0.02286 0.75119 0.02891
 C139 C 0.04654 0.75091 0.01508
 C140 C 0.04682 0.75056 -0.01205
 C141 C 0.02342 0.75057 -0.02642
 C142 C -0.00073 0.75093 -0.01284
 C143 C -0.04853 0.75137 0.01412
 C144 C -0.04827 0.75129 -0.01303
 C145 C -0.02459 0.75105 -0.02693
 C146 C -0.02404 0.75093 -0.05453
 C147 C -0.00015 0.75047 -0.06765
 C148 C 0.02346 0.75023 -0.05402
 H149 H 0.06512 0.75091 0.02513
 H150 H 0.06561 0.75032 -0.02170
 H151 H -0.06731 0.75153 0.02380
 H152 H -0.06685 0.75138 -0.02309
 H153 H -0.00147 0.75172 0.09086
 H154 H 0.00008 0.75029 -0.08885
 C155 C 0.52233 0.25131 0.55668
 C156 C 0.49861 0.25161 0.57012
 C157 C 0.47483 0.25167 0.55676
 C158 C 0.47451 0.25153 0.52920
 C159 C 0.49846 0.25112 0.51534
 C160 C 0.52249 0.25096 0.52912
 C161 C 0.54599 0.25043 0.51499
 C162 C 0.54592 0.25003 0.48784
 C163 C 0.52235 0.25023 0.47380
 C164 C 0.49839 0.25084 0.48766
 C165 C 0.45093 0.25179 0.51515
 C166 C 0.45086 0.25165 0.48798
 C167 C 0.47437 0.25116 0.47386
 C168 C 0.47458 0.25096 0.44629
 C169 C 0.49830 0.25026 0.43290
 C170 C 0.52204 0.24984 0.44626
 H171 H 0.56469 0.25028 0.52483
 H172 H 0.56457 0.24960 0.47792
 H173 H 0.43228 0.25213 0.52506
 H174 H 0.43219 0.25189 0.47810
 H175 H 0.49867 0.25178 0.59129
 H176 H 0.49828 0.25002 0.41172
 C177 C 0.94655 -0.02285 0.24964
 C178 C 0.93283 0.00065 0.24925
 C179 C 0.94589 0.02452 0.24864
 C180 C 0.97345 0.02515 0.24854
 C181 C 0.98761 0.00139 0.24881
 C182 C 0.97410 -0.02274 0.24930
 C183 C 0.98848 -0.04607 0.24944
 C184 C 1.01563 -0.04573 0.24909
 C185 C 1.02941 -0.02204 0.24868
 C186 C 1.01530 0.00175 0.24861
 C187 C 0.98720 0.04885 0.24818
 C188 C 1.01437 0.04922 0.24814
 C189 C 1.02884 0.02588 0.24834
 C190 C 1.05646 0.02593 0.24828
 C191 C 1.07011 0.00232 0.24823
 C192 C 1.05696 -0.02150 0.24837
 H193 H 0.97884 -0.06483 0.24979
 H194 H 1.02573 -0.06426 0.24918
 H195 H 0.97703 0.06735 0.24799
 H196 H 1.02398 0.06800 0.24790
 H197 H 0.91165 0.00036 0.24942
 H198 H 1.09131 0.00244 0.24810
 C199 C 0.44646 0.47739 0.75084
 C200 C 0.43307 0.50111 0.75058
 C201 C 0.44646 0.52481 0.74996
 C202 C 0.47405 0.52501 0.74969
 C203 C 0.48786 0.50103 0.74983
 C204 C 0.47401 0.47710 0.75035
 C205 C 0.48806 0.45355 0.75037
 C206 C 0.51522 0.45349 0.74987
 C207 C 0.52936 0.47696 0.74944
 C208 C 0.51557 0.50096 0.74947
 C209 C 0.48817 0.54849 0.74929
 C210 C 0.51537 0.54843 0.74908
 C211 C 0.52944 0.52488 0.74915
 C212 C 0.55702 0.52456 0.74894
 C213 C 0.57037 0.50079 0.74879
 C214 C 0.55692 0.47711 0.74899
 H215 H 0.47815 0.43493 0.75073
 H216 H 0.52506 0.43481 0.74988
 H217 H 0.47829 0.56715 0.74919
 H218 H 0.52529 0.56704 0.74882
 H219 H 0.41189 0.50112 0.75088
 H220 H 0.59155 0.50073 0.74855
 C221 C 1.02559 0.94666 0.75029
 C222 C 1.00178 0.93338 0.75013
 C223 C 0.97809 0.94682 0.75013
 C224 C 0.97790 0.97434 0.75021
 C225 C 1.00190 0.98813 0.75049
 C226 C 1.02589 0.97425 0.75058
 C227 C 1.04943 0.98835 0.75097
 C228 C 1.04943 1.01548 0.75128
 C229 C 1.02589 1.02963 0.75112
 C230 C 1.00189 1.01583 0.75066
 C231 C 0.95436 0.98841 0.75000
 C232 C 0.95434 1.01552 0.75004
 C233 C 0.97788 1.02965 0.75038
 C234 C 0.97808 1.05723 0.75044
 C235 C 1.00184 1.07061 0.75100
 C236 C 1.02562 1.05723 0.75139
 H237 H 1.06810 0.97846 0.75108
 H238 H 1.06811 1.02531 0.75160
 H239 H 0.93569 0.97855 0.74977
 H240 H 0.93564 1.02535 0.74984
 H241 H 1.00163 0.91220 0.74998
 H242 H 1.00182 1.09179 0.75112
 C243 C 0.52339 0.44595 0.25005
 C244 C 0.49944 0.43297 0.24999
 C245 C 0.47594 0.44674 0.25016
 C246 C 0.47614 0.47426 0.25027
 C247 C 0.50035 0.48767 0.25044
 C248 C 0.52410 0.47347 0.25039
 C249 C 0.54788 0.48715 0.25067
 C250 C 0.54831 0.51429 0.25102
 C251 C 0.52499 0.52875 0.25099
 C252 C 0.50079 0.51532 0.25065
 C253 C 0.45282 0.48869 0.25021
 C254 C 0.45325 0.51581 0.25027
 C255 C 0.47702 0.52950 0.25049
 C256 C 0.47768 0.55701 0.25055
 C257 C 0.50160 0.57003 0.25100
 C258 C 0.52515 0.55629 0.25128
 H259 H 0.56638 0.47696 0.25067
 H260 H 0.56712 0.52387 0.25125
 H261 H 0.43400 0.47913 0.25006
 H262 H 0.43473 0.52597 0.25017
 H263 H 0.49910 0.41182 0.24981
 H264 H 0.50189 0.59119 0.25112
 O265 O 0.25190 0.18309 0.21118
 O266 O 0.28045 0.17562 0.24755
 O267 O 0.18357 0.21418 0.24826
 O268 O 0.17379 0.24807 0.27386
 O269 O 0.21597 0.25059 0.17927
 O270 O 0.24990 0.28031 0.17293
 O271 O 0.25148 0.28689 0.31504
 O272 O 0.22128 0.25175 0.32168
 O273 O 0.31884 0.25161 0.28324
 O274 O 0.32858 0.22430 0.24951
 O275 O 0.28673 0.31842 0.24879
 O276 O 0.24975 0.32618 0.21881
 O277 O 0.25147 0.31796 0.28350
 O278 O 0.22153 0.32558 0.24609
 O279 O 0.31798 0.28707 0.24923
 O280 O 0.32185 0.24883 0.21487
 O281 O 0.28758 0.25272 0.31468
 O282 O 0.25600 0.22279 0.32333
 O283 O 0.25210 0.21461 0.18004
 O284 O 0.28320 0.25086 0.17506
 O285 O 0.18432 0.25055 0.21041
 O286 O 0.17745 0.28064 0.24744
 O287 O 0.21517 0.18313 0.24741
 O288 O 0.25282 0.17526 0.27626
 Zr289 Zr 0.25046 0.20393 0.24664
 O290 O 0.27452 0.22653 0.27093
 Zr291 Zr 0.20451 0.24946 0.24637
 O292 O 0.22661 0.27396 0.27101
 Zr293 Zr 0.25079 0.24986 0.20084
 O294 O 0.27472 0.27455 0.22330
 Zr295 Zr 0.25199 0.25159 0.29409
 O296 O 0.22731 0.22658 0.27206
 Zr297 Zr 0.29760 0.25159 0.24826
 O298 O 0.27578 0.22661 0.22377
 Zr299 Zr 0.25151 0.29725 0.24821
 O300 O 0.22732 0.27474 0.22350
 O301 O 0.22646 0.22554 0.22229
 O302 O 0.27610 0.27607 0.27256
 C303 C 0.25259 0.19063 0.18725
 C304 C 0.19116 0.19027 0.24838
 C305 C 0.19193 0.25104 0.18645
 C306 C 0.25146 0.31080 0.30750
 C307 C 0.31156 0.25237 0.30721
 C308 C 0.31069 0.31101 0.24929
 H309 H 0.28523 0.21484 0.28194
 H310 H 0.28574 0.28521 0.21160
 H311 H 0.21537 0.21434 0.21115
 H312 H 0.21475 0.28448 0.28198
 H313 H 0.20965 0.23702 0.31718
 H314 H 0.18031 0.25635 0.29000
 H315 H 0.33759 0.25966 0.21779
 H316 H 0.27725 0.24585 0.15733
 H317 H 0.24569 0.20763 0.31749
 H318 H 0.23745 0.17750 0.28773
 H319 H 0.26383 0.32256 0.20613
 H320 H 0.23806 0.29391 0.17981
 H321 H 0.29389 0.18135 0.23492
 H322 H 0.32171 0.20831 0.25777
 H323 H 0.18262 0.29302 0.23355
 H324 H 0.20907 0.32207 0.26040
 O325 O 0.74996 0.81941 0.21568
 O326 O 0.72157 0.82700 0.25191
 O327 O 0.81831 0.78816 0.25302
 O328 O 0.82756 0.75435 0.27902
 O329 O 0.78692 0.75173 0.18408
 O330 O 0.75054 0.72303 0.17677
 O331 O 0.75000 0.71580 0.31900
 O332 O 0.78043 0.75072 0.32589
 O333 O 0.68273 0.75115 0.28756
 O334 O 0.67526 0.78106 0.25175
 O335 O 0.71461 0.68446 0.25251
 O336 O 0.75175 0.67682 0.22262
 O337 O 0.74970 0.68449 0.28771
 O338 O 0.77963 0.67673 0.25044
 O339 O 0.68351 0.71593 0.25401
 O340 O 0.67804 0.75118 0.22019
 O341 O 0.71432 0.74986 0.31869
 O342 O 0.74580 0.77958 0.32768
 O343 O 0.75001 0.78835 0.18411
 O344 O 0.72165 0.75183 0.17656
 O345 O 0.81804 0.75184 0.21567
 O346 O 0.82433 0.72176 0.25216
 O347 O 0.78681 0.81931 0.25193
 O348 O 0.74917 0.82742 0.28044
 Zr349 Zr 0.75147 0.79860 0.25098
 O350 O 0.72729 0.77615 0.27522
 Zr351 Zr 0.79728 0.75296 0.25101
 O352 O 0.77498 0.72843 0.27531
 Zr353 Zr 0.75149 0.75301 0.20502
 O354 O 0.72710 0.72859 0.22739
 Zr355 Zr 0.74977 0.75101 0.29823
 O356 O 0.77452 0.77598 0.27647
 Zr357 Zr 0.70402 0.75132 0.25244
 O358 O 0.72619 0.77603 0.22787
 Zr359 Zr 0.74998 0.70541 0.25233
 O360 O 0.77459 0.72780 0.22777
 O361 O 0.77572 0.77714 0.22669
 O362 O 0.72551 0.72672 0.27667
 C363 C 0.74938 0.81224 0.19167
 C364 C 0.81079 0.81209 0.25306
 C365 C 0.81086 0.75124 0.19165
 C366 C 0.74977 0.69187 0.31168
 C367 C 0.69028 0.75026 0.31148
 C368 C 0.69069 0.69196 0.25350
 H369 H 0.71681 0.78788 0.28638
 H370 H 0.71604 0.71806 0.21561
 H371 H 0.78687 0.78833 0.21559
 H372 H 0.78671 0.71778 0.28631
 H373 H 0.79206 0.76550 0.32151
 H374 H 0.82120 0.74521 0.29476
 H375 H 0.66082 0.74455 0.22603
 H376 H 0.70778 0.76382 0.18260
 H377 H 0.75586 0.79489 0.32181
 H378 H 0.76435 0.82499 0.29213
 H379 H 0.73770 0.68061 0.20994
 H380 H 0.76276 0.70937 0.18286
 H381 H 0.70778 0.82093 0.23983
 H382 H 0.67980 0.79412 0.26518
 H383 H 0.81893 0.70918 0.23856
 H384 H 0.79217 0.68023 0.26468
 O385 O 0.74999 0.18149 0.78529
 O386 O 0.72447 0.17218 0.74853
 O387 O 0.81860 0.21417 0.74866
 O388 O 0.82924 0.24855 0.72536
 O389 O 0.78546 0.24899 0.81853
 O390 O 0.75159 0.27749 0.82563
 O391 O 0.74911 0.28451 0.68219
 O392 O 0.77816 0.25110 0.67398
 O393 O 0.68237 0.25088 0.71519
 O394 O 0.67520 0.22110 0.74702
 O395 O 0.71528 0.31692 0.74868
 O396 O 0.75133 0.32617 0.77677
 O397 O 0.74986 0.31622 0.71305
 O398 O 0.78127 0.32301 0.75131
 O399 O 0.68345 0.28617 0.74859
 O400 O 0.67920 0.25135 0.78283
 O401 O 0.71327 0.25047 0.68336
 O402 O 0.75024 0.21887 0.67591
 O403 O 0.75002 0.21220 0.81719
 O404 O 0.71795 0.24878 0.82177
 O405 O 0.81729 0.24970 0.78762
 O406 O 0.82300 0.28116 0.75002
 O407 O 0.78787 0.18230 0.74946
 O408 O 0.75079 0.17608 0.71897
 Zr409 Zr 0.75203 0.20274 0.75042
 O410 O 0.72684 0.22515 0.72704
 Zr411 Zr 0.79729 0.24890 0.75142
 O412 O 0.77498 0.27242 0.72607
 Zr413 Zr 0.75093 0.24799 0.79675
 O414 O 0.72748 0.27317 0.77428
 Zr415 Zr 0.74936 0.24972 0.70345
 O416 O 0.77498 0.22587 0.72552
 Zr417 Zr 0.70405 0.25050 0.74973
 O418 O 0.72613 0.22491 0.77359
 Zr419 Zr 0.75031 0.29582 0.74886
 O420 O 0.77409 0.27357 0.77432
 O421 O 0.77572 0.22427 0.77513
 O422 O 0.72548 0.27449 0.72493
 C423 C 0.74941 0.18838 0.80936
 C424 C 0.81172 0.19011 0.74843
 C425 C 0.80952 0.24983 0.81154
 C426 C 0.74933 0.30852 0.68917
 C427 C 0.68935 0.25087 0.69114
 C428 C 0.69121 0.31001 0.74843
 H429 H 0.71554 0.21335 0.71680
 H430 H 0.71672 0.28407 0.78601
 H431 H 0.78687 0.21301 0.78616
 H432 H 0.78671 0.28282 0.71484
 H433 H 0.79274 0.23995 0.67999
 H434 H 0.82248 0.25440 0.70828
 H435 H 0.66135 0.25570 0.77676
 H436 H 0.72333 0.24268 0.83934
 H437 H 0.73459 0.20792 0.67852
 H438 H 0.76495 0.18107 0.70683
 H439 H 0.73980 0.32102 0.79134
 H440 H 0.76204 0.29202 0.81844
 H441 H 0.70916 0.17797 0.75871
 H442 H 0.67845 0.20880 0.76153
 H443 H 0.81917 0.29212 0.76544
 H444 H 0.79190 0.32138 0.73529
 O445 O 0.24822 0.81568 0.78748
 O446 O 0.27659 0.82350 0.74961
 O447 O 0.18015 0.78438 0.74944
 O448 O 0.17069 0.75073 0.72371
 O449 O 0.21153 0.74787 0.81846
 O450 O 0.24789 0.71901 0.82564
 O451 O 0.24825 0.71207 0.68338
 O452 O 0.21790 0.74770 0.67671
 O453 O 0.31575 0.74698 0.71506
 O454 O 0.32193 0.77791 0.74700
 O455 O 0.28350 0.68090 0.74997
 O456 O 0.24642 0.67297 0.77967
 O457 O 0.24857 0.68103 0.71494
 O458 O 0.21851 0.67320 0.75204
 O459 O 0.31510 0.71190 0.74882
 O460 O 0.32058 0.74586 0.78209
 O461 O 0.28417 0.74626 0.68389
 O462 O 0.25291 0.77585 0.67475
 O463 O 0.24854 0.78412 0.81855
 O464 O 0.27673 0.74773 0.82597
 O465 O 0.18041 0.74810 0.78687
 O466 O 0.17414 0.71811 0.75011
 O467 O 0.21128 0.81581 0.75119
 O468 O 0.24854 0.82404 0.72257
 Zr469 Zr 0.24683 0.79503 0.75187
 O470 O 0.27101 0.77237 0.72759
 Zr471 Zr 0.20114 0.74929 0.75152
 O472 O 0.22334 0.72484 0.72711
 Zr473 Zr 0.24692 0.74911 0.79749
 O474 O 0.27118 0.72474 0.77509
 Zr475 Zr 0.24864 0.74739 0.70427
 O476 O 0.22394 0.77239 0.72619
 Zr477 Zr 0.29436 0.74734 0.75007
 O478 O 0.27234 0.77225 0.77482
 Zr479 Zr 0.24821 0.70180 0.75019
 O480 O 0.22369 0.72407 0.77480
 O481 O 0.22263 0.77338 0.77598
 O482 O 0.27277 0.72294 0.72580
 C483 C 0.24899 0.80810 0.81140
 C484 C 0.18736 0.80836 0.74977
 C485 C 0.18759 0.74744 0.81089
 C486 C 0.24849 0.68817 0.69094
 C487 C 0.30821 0.74640 0.69112
 C488 C 0.30753 0.68801 0.74919
 H489 H 0.28182 0.78410 0.71672
 H490 H 0.28215 0.71410 0.78686
 H491 H 0.21148 0.78451 0.78714
 H492 H 0.21158 0.71426 0.71610
 H493 H 0.20662 0.76278 0.68103
 H494 H 0.17730 0.74236 0.70765
 H495 H 0.33841 0.74322 0.77506
 H496 H 0.29087 0.75926 0.81969
 H497 H 0.24410 0.79169 0.68119
 H498 H 0.23352 0.82125 0.71076
 H499 H 0.26037 0.67672 0.79247
 H500 H 0.23553 0.70546 0.81961
 H501 H 0.28891 0.82002 0.76405
 H502 H 0.31967 0.78905 0.76258
 H503 H 0.17929 0.70560 0.76389
 H504 H 0.20607 0.67665 0.73769
 O505 O 0.24918 0.32023 0.71736
 O506 O 0.22101 0.32814 0.75493
 O507 O 0.31740 0.28879 0.75451
 O508 O 0.32682 0.25489 0.78026
 O509 O 0.28542 0.25283 0.68521
 O510 O 0.25120 0.22355 0.67850
 O511 O 0.24912 0.21663 0.82078
 O512 O 0.27931 0.25166 0.82766
 O513 O 0.18163 0.25126 0.78892
 O514 O 0.17493 0.28188 0.75751
 O515 O 0.21350 0.18526 0.75428
 O516 O 0.25056 0.17693 0.72492
 O517 O 0.24879 0.18527 0.78956
 O518 O 0.27905 0.17777 0.75192
 O519 O 0.18232 0.21673 0.75491
 O520 O 0.17787 0.25148 0.72120
 O521 O 0.21319 0.25048 0.82013
 O522 O 0.24449 0.28045 0.82919
 O523 O 0.24943 0.28920 0.68577
 O524 O 0.21775 0.25299 0.68102
 O525 O 0.31654 0.25240 0.71690
 O526 O 0.32322 0.22240 0.75377
 O527 O 0.28595 0.31997 0.75347
 O528 O 0.24852 0.32807 0.78227
 Zr529 Zr 0.25052 0.29937 0.75268
 O530 O 0.22630 0.27678 0.77671
 Zr531 Zr 0.29624 0.25365 0.75258
 O532 O 0.27401 0.22917 0.77703
 Zr533 Zr 0.25033 0.25378 0.70660
 O534 O 0.22630 0.22915 0.72909
 Zr535 Zr 0.24876 0.25177 0.79988
 O536 O 0.27357 0.27669 0.77812
 Zr537 Zr 0.20314 0.25191 0.75400
 O538 O 0.22511 0.27695 0.72947
 Zr539 Zr 0.24904 0.20605 0.75411
 O540 O 0.27339 0.22860 0.72949
 O541 O 0.27461 0.27781 0.72839
 O542 O 0.22457 0.22739 0.77836
 C543 C 0.24878 0.31308 0.69334
 C544 C 0.30992 0.31273 0.75454
 C545 C 0.30936 0.25207 0.69284
 C546 C 0.24890 0.19268 0.81351
 C547 C 0.18916 0.25055 0.81287
 C548 C 0.18954 0.19277 0.75475
 H549 H 0.21543 0.28846 0.78758
 H550 H 0.21534 0.21849 0.71733
 H551 H 0.28581 0.28897 0.71732
 H552 H 0.28579 0.21859 0.78805
 H553 H 0.29092 0.26644 0.82327
 H554 H 0.32020 0.24658 0.79635
 H555 H 0.15995 0.24788 0.72756
 H556 H 0.22360 0.25820 0.66332
 H557 H 0.25469 0.29570 0.82341
 H558 H 0.26383 0.32564 0.79379
 H559 H 0.23705 0.18107 0.71177
 H560 H 0.26259 0.20966 0.68559
 H561 H 0.20844 0.32454 0.74073
 H562 H 0.17765 0.29385 0.74264
 H563 H 0.31794 0.20994 0.74001
 H564 H 0.29115 0.18081 0.76664
 O565 O 0.75457 0.68197 0.71116
 O566 O 0.78324 0.67456 0.74753
 O567 O 0.68637 0.71317 0.74833
 O568 O 0.67671 0.74708 0.77396
 O569 O 0.71868 0.74950 0.67926
 O570 O 0.75264 0.77912 0.67278
 O571 O 0.75437 0.78601 0.81486
 O572 O 0.72421 0.75079 0.82160
 O573 O 0.82171 0.75059 0.78300
 O574 O 0.83140 0.72323 0.74936
 O575 O 0.78962 0.81736 0.74851
 O576 O 0.75258 0.82507 0.71853
 O577 O 0.75440 0.81700 0.78324
 O578 O 0.72443 0.82457 0.74588
 O579 O 0.82086 0.78600 0.74891
 O580 O 0.82461 0.74763 0.71463
 O581 O 0.79050 0.75184 0.81449
 O582 O 0.75899 0.72197 0.82332
 O583 O 0.75474 0.71346 0.67999
 O584 O 0.78590 0.74963 0.67491
 O585 O 0.68709 0.74953 0.71047
 O586 O 0.68027 0.77961 0.74745
 O587 O 0.71792 0.68208 0.74747
 O588 O 0.75561 0.67424 0.77626
 Zr589 Zr 0.75324 0.70286 0.74661
 O590 O 0.77736 0.72552 0.77082
 Zr591 Zr 0.70734 0.74844 0.74638
 O592 O 0.72950 0.77299 0.77090
 Zr593 Zr 0.75354 0.74873 0.70074
 O594 O 0.77753 0.77345 0.72310
 Zr595 Zr 0.75489 0.75065 0.79398
 O596 O 0.73017 0.72559 0.77205
 Zr597 Zr 0.80043 0.75052 0.74807
 O598 O 0.77855 0.72550 0.72367
 Zr599 Zr 0.75438 0.79622 0.74800
 O600 O 0.73013 0.77365 0.72341
 O601 O 0.72922 0.72446 0.72228
 O602 O 0.77899 0.77507 0.77236
 C603 C 0.75521 0.68949 0.68722
 C604 C 0.69392 0.68925 0.74847
 C605 C 0.69466 0.75000 0.68650
 C606 C 0.75437 0.80990 0.80726
 C607 C 0.81447 0.75144 0.80698
 C608 C 0.81358 0.80994 0.74896
 H609 H 0.78807 0.71385 0.78184
 H610 H 0.78854 0.78408 0.71136
 H611 H 0.71809 0.71327 0.71118
 H612 H 0.71766 0.78354 0.78187
 H613 H 0.71263 0.73600 0.81716
 H614 H 0.68325 0.75543 0.79006
 H615 H 0.84034 0.75849 0.71747
 H616 H 0.77991 0.74461 0.65719
 H617 H 0.74889 0.70669 0.81744
 H618 H 0.74029 0.67655 0.78778
 H619 H 0.76669 0.82146 0.70588
 H620 H 0.74084 0.79276 0.67967
 H621 H 0.79661 0.68022 0.73480
 H622 H 0.82450 0.70722 0.75755
 H623 H 0.68545 0.79201 0.73360
 H624 H 0.71197 0.82109 0.76019
 O625 O 0.24920 0.68290 0.28563
 O626 O 0.22361 0.67368 0.24883
 O627 O 0.31789 0.71534 0.24895
 O628 O 0.32880 0.74971 0.22585
 O629 O 0.28479 0.75033 0.31884
 O630 O 0.25099 0.77892 0.32587
 O631 O 0.24881 0.78579 0.18240
 O632 O 0.27779 0.75227 0.17428
 O633 O 0.18193 0.75240 0.21535
 O634 O 0.17462 0.72267 0.24719
 O635 O 0.21503 0.81835 0.24877
 O636 O 0.25099 0.82759 0.27688
 O637 O 0.24964 0.81753 0.21323
 O638 O 0.28103 0.82422 0.25156
 O639 O 0.18309 0.78770 0.24865
 O640 O 0.17861 0.75301 0.28295
 O641 O 0.21288 0.75184 0.18356
 O642 O 0.24977 0.72015 0.17619
 O643 O 0.24926 0.71365 0.31750
 O644 O 0.21727 0.75035 0.32196
 O645 O 0.31667 0.75086 0.28798
 O646 O 0.32254 0.78232 0.25035
 O647 O 0.28706 0.68357 0.24981
 O648 O 0.25004 0.67736 0.21937
 Zr649 Zr 0.25132 0.70410 0.25073
 O650 O 0.22628 0.72655 0.22727
 Zr651 Zr 0.29674 0.75013 0.25176
 O652 O 0.27458 0.77368 0.22632
 Zr653 Zr 0.25031 0.74941 0.29702
 O654 O 0.22700 0.77463 0.27447
 Zr655 Zr 0.24893 0.75102 0.20370
 O656 O 0.27441 0.72713 0.22585
 Zr657 Zr 0.20354 0.75199 0.24991
 O658 O 0.22547 0.72637 0.27386
 Zr659 Zr 0.24996 0.79716 0.24905
 O660 O 0.27359 0.77489 0.27461
 O661 O 0.27505 0.72558 0.27545
 O662 O 0.22511 0.77588 0.22512
 C663 C 0.24860 0.68982 0.30969
 C664 C 0.31092 0.69132 0.24874
 C665 C 0.30885 0.75106 0.31189
 C666 C 0.24909 0.80980 0.18936
 C667 C 0.18896 0.75232 0.19131
 C668 C 0.19095 0.81151 0.24845
 H669 H 0.21496 0.71478 0.21702
 H670 H 0.21626 0.78559 0.28616
 H671 H 0.28615 0.71430 0.28651
 H672 H 0.28637 0.78402 0.21510
 H673 H 0.29233 0.74109 0.18034
 H674 H 0.32208 0.75535 0.20869
 H675 H 0.16079 0.75738 0.27682
 H676 H 0.22258 0.74421 0.33954
 H677 H 0.23409 0.70923 0.17880
 H678 H 0.26417 0.68234 0.20718
 H679 H 0.23948 0.82246 0.29148
 H680 H 0.26150 0.79342 0.31869
 H681 H 0.20838 0.67947 0.25914
 H682 H 0.17777 0.71041 0.26176
 H683 H 0.31878 0.79325 0.26581
 H684 H 0.29164 0.82261 0.23552
 O685 O 0.74685 0.31414 0.28593
 O686 O 0.77520 0.32202 0.24793
 O687 O 0.67882 0.28270 0.24789
 O688 O 0.66930 0.24905 0.22226
 O689 O 0.71042 0.24623 0.31686
 O690 O 0.74684 0.21742 0.32392
 O691 O 0.74691 0.21067 0.18164
 O692 O 0.71641 0.24633 0.17511
 O693 O 0.81438 0.24577 0.21327
 O694 O 0.82051 0.27669 0.24522
 O695 O 0.78235 0.17957 0.24810
 O696 O 0.74541 0.17142 0.27784
 O697 O 0.74736 0.17960 0.21317
 O698 O 0.71737 0.17169 0.25035
 O699 O 0.81385 0.21067 0.24693
 O700 O 0.81935 0.24455 0.28024
 O701 O 0.78275 0.24497 0.18215
 O702 O 0.75138 0.27442 0.17302
 O703 O 0.74731 0.28253 0.31695
 O704 O 0.77563 0.24618 0.32422
 O705 O 0.67922 0.24641 0.28533
 O706 O 0.67296 0.21641 0.24853
 O707 O 0.70987 0.31421 0.24969
 O708 O 0.74694 0.32270 0.22111
 Zr709 Zr 0.74545 0.29354 0.25028
 O710 O 0.76959 0.27100 0.22588
 Zr711 Zr 0.69987 0.24768 0.24995
 O712 O 0.72206 0.22333 0.22543
 Zr713 Zr 0.74574 0.24756 0.29582
 O714 O 0.76999 0.22330 0.27332
 Zr715 Zr 0.74725 0.24598 0.20257
 O716 O 0.72256 0.27088 0.22461
 Zr717 Zr 0.79304 0.24602 0.24830
 O718 O 0.77105 0.27082 0.27316
 Zr719 Zr 0.74702 0.20034 0.24844
 O720 O 0.72252 0.22250 0.27315
 O721 O 0.72135 0.27179 0.27440
 O722 O 0.77147 0.22158 0.22404
 C723 C 0.74769 0.30652 0.30984
 C724 C 0.68598 0.30668 0.24827
 C725 C 0.68646 0.24575 0.30933
 C726 C 0.74723 0.18676 0.18917
 C727 C 0.80680 0.24518 0.18935
 C728 C 0.80635 0.18677 0.24728
 H729 H 0.78035 0.28277 0.21500
 H730 H 0.78102 0.21267 0.28505
 H731 H 0.71019 0.28288 0.28559
 H732 H 0.71029 0.21274 0.21443
 H733 H 0.70516 0.26141 0.17948
 H734 H 0.67593 0.24085 0.20612
 H735 H 0.83718 0.24199 0.27316
 H736 H 0.78971 0.25780 0.31796
 H737 H 0.74288 0.29035 0.17964
 H738 H 0.73202 0.31978 0.20921
 H739 H 0.75932 0.17524 0.29066
 H740 H 0.73450 0.20386 0.31790
 H741 H 0.78745 0.31868 0.26246
 H742 H 0.81828 0.28777 0.26084
 H743 H 0.67813 0.20394 0.26234
 H744 H 0.70493 0.17507 0.23598
 C745 C 0.25452 0.15952 0.12028
 C746 C 0.25340 0.13301 0.12643
 C747 C 0.25239 0.12515 0.15257
 C748 C 0.25235 0.14382 0.17249
 C749 C 0.25161 0.06951 0.04615
 C750 C 0.25447 0.17816 0.14007
 C751 C 0.25301 0.11418 0.10567
 C752 C 0.25260 0.09930 0.08750
 C753 C 0.25207 0.08285 0.06548
 C754 C 0.25330 0.17058 0.16644
 H755 H 0.25530 0.16581 0.10011
 H756 H 0.25149 0.10465 0.15753
 H757 H 0.25139 0.13731 0.19256
 H758 H 0.25522 0.19854 0.13463
 C759 C 0.75692 0.65839 0.62022
 C760 C 0.75553 0.63189 0.62635
 C761 C 0.75444 0.62402 0.65248
 C762 C 0.75459 0.64267 0.67243
 C763 C 0.75281 0.56849 0.54596
 C764 C 0.75706 0.67702 0.64003
 C765 C 0.75489 0.61309 0.60554
 C766 C 0.75427 0.59825 0.58734
 C767 C 0.75349 0.58183 0.56530
 C768 C 0.75580 0.66943 0.66641
 H769 H 0.75776 0.66470 0.60007
 H770 H 0.75333 0.60352 0.65742
 H771 H 0.75355 0.63615 0.69249
 H772 H 0.75801 0.69739 0.63461
 C773 C 0.74877 0.84664 0.12597
 C774 C 0.74802 0.87279 0.13369
 C775 C 0.74742 0.87909 0.16021
 C776 C 0.74768 0.85940 0.17900
 C777 C 0.74857 0.95224 0.06900
 C778 C 0.74902 0.82683 0.14477
 C779 C 0.74809 0.89340 0.11464
 C780 C 0.74821 0.91135 0.09948
 C781 C 0.74840 0.93311 0.08263
 C782 C 0.74855 0.83300 0.17154
 H783 H 0.74926 0.84155 0.10547
 H784 H 0.74684 0.89927 0.16640
 H785 H 0.74731 0.86492 0.19938
 H786 H 0.74974 0.80675 0.13833
 C787 C 0.24849 0.34731 0.62758
 C788 C 0.24786 0.37349 0.63522
 C789 C 0.24728 0.37987 0.66173
 C790 C 0.24743 0.36023 0.68058
 C791 C 0.24849 0.45256 0.57010
 C792 C 0.24863 0.32757 0.64643
 C793 C 0.24798 0.39401 0.61609
 C794 C 0.24813 0.41187 0.60082
 C795 C 0.24833 0.43350 0.58383
 C796 C 0.24816 0.33381 0.67319
 H797 H 0.24896 0.34217 0.60710
 H798 H 0.24680 0.40007 0.66786
 H799 H 0.24706 0.36580 0.70094
 H800 H 0.24924 0.30747 0.64005
 C801 C 0.74959 0.15252 0.87434
 C802 C 0.74830 0.12656 0.86601
 C803 C 0.74700 0.12093 0.83938
 C804 C 0.74715 0.14105 0.82108
 C805 C 0.74947 0.04520 0.92833
 C806 C 0.74972 0.17279 0.85601
 C807 C 0.74856 0.10541 0.88447
 C808 C 0.74883 0.08694 0.89901
 C809 C 0.74918 0.06465 0.91513
 C810 C 0.74860 0.16726 0.82912
 H811 H 0.75062 0.15709 0.89494
 H812 H 0.74599 0.10092 0.83271
 H813 H 0.74624 0.13599 0.80060
 H814 H 0.75090 0.19271 0.86287
 C815 C 0.24870 0.65402 0.37469
 C816 C 0.24729 0.62806 0.36637
 C817 C 0.24591 0.62242 0.33975
 C818 C 0.24612 0.64252 0.32144
 C819 C 0.24840 0.54671 0.42866
 C820 C 0.24889 0.67427 0.35634
 C821 C 0.24752 0.60692 0.38483
 C822 C 0.24777 0.58846 0.39936
 C823 C 0.24811 0.56616 0.41547
 C824 C 0.24771 0.66873 0.32946
 H825 H 0.24979 0.65859 0.39528
 H826 H 0.24481 0.60240 0.33309
 H827 H 0.24515 0.63745 0.30096
 H828 H 0.25018 0.69419 0.36319
 C829 C 0.24937 0.87357 0.84619
 C830 C 0.25040 0.86569 0.87233
 C831 C 0.25128 0.83916 0.87844
 C832 C 0.25100 0.82053 0.85863
 C833 C 0.25008 0.92939 0.95259
 C834 C 0.24910 0.85492 0.82625
 C835 C 0.25036 0.88454 0.89312
 C836 C 0.25028 0.89946 0.91128
 C837 C 0.25016 0.91599 0.93328
 C838 C 0.24984 0.82813 0.83225
 H839 H 0.24867 0.89409 0.84124
 H840 H 0.25207 0.83284 0.89860
 H841 H 0.25159 0.80014 0.86404
 H842 H 0.24816 0.86146 0.80619
 C843 C 0.74821 0.37192 0.34479
 C844 C 0.74926 0.36397 0.37090
 C845 C 0.75007 0.33742 0.37695
 C846 C 0.74972 0.31884 0.35709
 C847 C 0.74954 0.42756 0.45128
 C848 C 0.74787 0.35331 0.32480
 C849 C 0.74935 0.38277 0.39175
 C850 C 0.74940 0.39765 0.40994
 C851 C 0.74946 0.41415 0.43197
 C852 C 0.74855 0.32651 0.33074
 H853 H 0.74757 0.39244 0.33989
 H854 H 0.75088 0.33105 0.39709
 H855 H 0.75027 0.29844 0.36246
 H856 H 0.74692 0.35991 0.30475
 C857 C 0.12613 0.25078 0.15213
 C858 C 0.13377 0.25115 0.12592
 C859 C 0.16030 0.25178 0.11956
 C860 C 0.17915 0.25192 0.13923
 C861 C 0.06873 0.24935 0.04663
 C862 C 0.14499 0.25093 0.17191
 C863 C 0.11464 0.25070 0.10536
 C864 C 0.09937 0.25028 0.08747
 C865 C 0.08241 0.24976 0.06577
 C866 C 0.17176 0.25143 0.16568
 H867 H 0.10564 0.25028 0.15728
 H868 H 0.16644 0.25206 0.09934
 H869 H 0.19953 0.25230 0.13365
 H870 H 0.13859 0.25050 0.19203
 C871 C 0.62878 0.75010 0.65244
 C872 C 0.63634 0.75041 0.62621
 C873 C 0.66284 0.75084 0.61974
 C874 C 0.68176 0.75088 0.63933
 C875 C 0.57069 0.74914 0.54751
 C876 C 0.64770 0.75014 0.67214
 C877 C 0.61713 0.75010 0.60575
 C878 C 0.60175 0.74980 0.58797
 C879 C 0.58460 0.74943 0.56646
 C880 C 0.67444 0.75047 0.66580
 H881 H 0.60830 0.74975 0.65766
 H882 H 0.66890 0.75108 0.59949
 H883 H 0.70212 0.75112 0.63369
 H884 H 0.64137 0.74978 0.69228
 C885 C 0.12052 0.74590 0.84195
 C886 C 0.12663 0.74712 0.86849
 C887 C 0.15278 0.74804 0.87639
 C888 C 0.17274 0.74789 0.85773
 C889 C 0.04603 0.74960 0.93174
 C890 C 0.14035 0.74577 0.82332
 C891 C 0.10581 0.74771 0.88731
 C892 C 0.08759 0.74829 0.90215
 C893 C 0.06547 0.74900 0.91852
 C894 C 0.16673 0.74686 0.83094
 H895 H 0.10035 0.74518 0.83562
 H896 H 0.15772 0.74900 0.89691
 H897 H 0.19281 0.74880 0.86428
 H898 H 0.13494 0.74494 0.80292
 C899 C 0.61951 0.24415 0.34061
 C900 C 0.62573 0.24560 0.36711
 C901 C 0.65189 0.24662 0.37492
 C902 C 0.67178 0.24639 0.35620
 C903 C 0.54567 0.24891 0.43094
 C904 C 0.63928 0.24394 0.32191
 C905 C 0.60500 0.24638 0.38600
 C906 C 0.58688 0.24714 0.40095
 C907 C 0.56494 0.24809 0.41750
 C908 C 0.66568 0.24517 0.32944
 H909 H 0.59933 0.24335 0.33435
 H910 H 0.65690 0.24777 0.39542
 H911 H 0.69187 0.24741 0.36267
 H912 H 0.63381 0.24296 0.30153
 C913 C 0.87797 0.74966 0.16055
 C914 C 0.87185 0.75041 0.13399
 C915 C 0.84569 0.75114 0.12610
 C916 C 0.82573 0.75122 0.14478
 C917 C 0.95236 0.75127 0.07044
 C918 C 0.85814 0.74975 0.17920
 C919 C 0.89267 0.75062 0.11512
 C920 C 0.91087 0.75083 0.10022
 C921 C 0.93295 0.75109 0.08374
 C922 C 0.83174 0.75060 0.17159
 H923 H 0.89814 0.74910 0.16689
 H924 H 0.84073 0.75173 0.10557
 H925 H 0.80565 0.75192 0.13822
 H926 H 0.86356 0.74926 0.19961
 C927 C 0.37653 0.25008 0.66199
 C928 C 0.37052 0.25122 0.63542
 C929 C 0.34441 0.25235 0.62743
 C930 C 0.32437 0.25245 0.64602
 C931 C 0.45115 0.25171 0.57209
 C932 C 0.35663 0.25019 0.68055
 C933 C 0.39142 0.25138 0.61667
 C934 C 0.40969 0.25152 0.60186
 C935 C 0.43180 0.25165 0.58545
 C936 C 0.33027 0.25144 0.67284
 H937 H 0.39666 0.24920 0.66840
 H938 H 0.33954 0.25325 0.60689
 H939 H 0.30433 0.25347 0.63940
 H940 H 0.36197 0.24938 0.70097
 C941 C 0.83975 0.25090 0.87900
 C942 C 0.86640 0.25010 0.87326
 C943 C 0.87465 0.24953 0.84723
 C944 C 0.85625 0.24964 0.82699
 C945 C 0.92886 0.24837 0.95461
 C946 C 0.82139 0.25100 0.85892
 C947 C 0.88493 0.24966 0.89437
 C948 C 0.89951 0.24925 0.91283
 C949 C 0.91566 0.24876 0.93513
 C950 C 0.82936 0.25030 0.83263
 H951 H 0.83314 0.25134 0.89907
 H952 H 0.89526 0.24889 0.84257
 H953 H 0.86306 0.24905 0.80701
 H954 H 0.80090 0.25153 0.86407
 C955 C 0.33897 0.75212 0.37937
 C956 C 0.36561 0.75114 0.37366
 C957 C 0.37391 0.75047 0.34765
 C958 C 0.35554 0.75065 0.32739
 C959 C 0.42822 0.74906 0.45483
 C960 C 0.32064 0.75229 0.35927
 C961 C 0.38410 0.75061 0.39478
 C962 C 0.39868 0.75012 0.41322
 C963 C 0.41489 0.74954 0.43546
 C964 C 0.32865 0.75148 0.33300
 H965 H 0.33233 0.75265 0.39943
 H966 H 0.39452 0.74970 0.34303
 H967 H 0.36238 0.74997 0.30742
 H968 H 0.30015 0.75295 0.36439
 C969 C 0.12569 0.15535 0.24869
 C970 C 0.13367 0.12925 0.24928
 C971 C 0.16026 0.12321 0.24990
 C972 C 0.17885 0.14306 0.24980
 C973 C 0.07068 0.04849 0.24840
 C974 C 0.14430 0.17534 0.24860
 C975 C 0.11490 0.10839 0.24906
 C976 C 0.10013 0.09012 0.24884
 C977 C 0.08385 0.06796 0.24858
 C978 C 0.17114 0.16940 0.24907
 H979 H 0.10513 0.16024 0.24819
 H980 H 0.16667 0.10308 0.25036
 H981 H 0.19928 0.13769 0.25019
 H982 H 0.13769 0.19538 0.24798
 C983 C 0.62835 0.65449 0.74907
 C984 C 0.63625 0.62836 0.74955
 C985 C 0.66283 0.62224 0.74998
 C986 C 0.68148 0.64204 0.74981
 C987 C 0.57239 0.54818 0.74899
 C988 C 0.64703 0.67442 0.74891
 C989 C 0.61737 0.60757 0.74943
 C990 C 0.60243 0.58943 0.74928
 C991 C 0.58586 0.56745 0.74910
 C992 C 0.67385 0.66841 0.74921
 H993 H 0.60780 0.65945 0.74873
 H994 H 0.66917 0.60209 0.75035
 H995 H 0.70190 0.63662 0.75005
 H996 H 0.64046 0.69448 0.74840
 C997 C 0.87930 0.16017 0.74544
 C998 C 0.87379 0.13359 0.74758
 C999 C 0.84783 0.12526 0.74949
 C1000 C 0.82747 0.14353 0.74946
 C1001 C 0.95558 0.07163 0.74988
 C1002 C 0.85909 0.17840 0.74543
 C1003 C 0.89505 0.11522 0.74815
 C1004 C 0.91361 0.10076 0.74868
 C1005 C 0.93603 0.08474 0.74934
 C1006 C 0.83290 0.17037 0.74756
 H1007 H 0.89930 0.16685 0.74395
 H1008 H 0.84333 0.10470 0.75118
 H1009 H 0.80757 0.13666 0.75119
 H1010 H 0.86409 0.19885 0.74391
 C1011 C 0.37833 0.66125 0.24544
 C1012 C 0.37274 0.63471 0.24776
 C1013 C 0.34679 0.62643 0.24989
 C1014 C 0.32649 0.64474 0.24989
 C1015 C 0.45416 0.57253 0.25003
 C1016 C 0.35819 0.67952 0.24546
 C1017 C 0.39392 0.61633 0.24833
 C1018 C 0.41243 0.60185 0.24887
 C1019 C 0.43475 0.58577 0.24951
 C1020 C 0.33200 0.67155 0.24782
 H1021 H 0.39835 0.66786 0.24378
 H1022 H 0.34226 0.60589 0.25172
 H1023 H 0.30659 0.63794 0.25179
 H1024 H 0.36323 0.69994 0.24379
 C1025 C 0.15327 0.87421 0.75026
 C1026 C 0.12704 0.86672 0.74897
 C1027 C 0.12059 0.84028 0.74763
 C1028 C 0.14020 0.82136 0.74770
 C1029 C 0.04793 0.93203 0.75008
 C1030 C 0.17298 0.85530 0.75032
 C1031 C 0.10653 0.88593 0.74925
 C1032 C 0.08869 0.90127 0.74952
 C1033 C 0.06705 0.91831 0.74984
 C1034 C 0.16666 0.82860 0.74911
 H1035 H 0.15849 0.89464 0.75132
 H1036 H 0.10036 0.83425 0.74664
 H1037 H 0.13456 0.80105 0.74676
 H1038 H 0.19311 0.86158 0.75147
 C1039 C 0.65179 0.37239 0.24908
 C1040 C 0.62560 0.36482 0.24777
 C1041 C 0.61919 0.33839 0.24626
 C1042 C 0.63882 0.31953 0.24621
 C1043 C 0.54676 0.43022 0.24963
 C1044 C 0.67153 0.35354 0.24902
 C1045 C 0.60509 0.38395 0.24822
 C1046 C 0.58727 0.39927 0.24867
 C1047 C 0.56572 0.41635 0.24920
 C1048 C 0.66526 0.32685 0.24767
 H1049 H 0.65695 0.39283 0.25027
 H1050 H 0.59896 0.33232 0.24525
 H1051 H 0.63324 0.29921 0.24517
 H1052 H 0.69165 0.35987 0.25020
 C1053 C 0.84192 0.87899 0.25468
 C1054 C 0.86846 0.87284 0.25350
 C1055 C 0.87635 0.84672 0.25265
 C1056 C 0.85767 0.82681 0.25280
 C1057 C 0.93158 0.95333 0.25048
 C1058 C 0.82326 0.85921 0.25480
 C1059 C 0.88728 0.89360 0.25280
 C1060 C 0.90209 0.91181 0.25211
 C1061 C 0.91840 0.93391 0.25123
 C1062 C 0.83087 0.83286 0.25375
 H1063 H 0.83561 0.89914 0.25534
 H1064 H 0.89688 0.84176 0.25171
 H1065 H 0.86419 0.80676 0.25191
 H1066 H 0.80286 0.86465 0.25558
 C1067 C 0.34109 0.37964 0.75591
 C1068 C 0.36764 0.37349 0.75476
 C1069 C 0.37551 0.34737 0.75401
 C1070 C 0.35682 0.32745 0.75421
 C1071 C 0.43115 0.45376 0.75169
 C1072 C 0.32243 0.35987 0.75609
 C1073 C 0.38648 0.39426 0.75404
 C1074 C 0.40134 0.41244 0.75333
 C1075 C 0.41779 0.43446 0.75244
 C1076 C 0.33002 0.33350 0.75514
 H1077 H 0.33478 0.39980 0.75650
 H1078 H 0.39604 0.34240 0.75310
 H1079 H 0.36334 0.30739 0.75341
 H1080 H 0.30203 0.36531 0.75684
 C1081 C 0.12360 0.25024 0.84760
 C1082 C 0.13151 0.24879 0.87371
 C1083 C 0.15806 0.24765 0.87982
 C1084 C 0.17670 0.24810 0.86002
 C1085 C 0.06835 0.24883 0.95435
 C1086 C 0.14227 0.25068 0.82766
 C1087 C 0.11271 0.24873 0.89453
 C1088 C 0.09791 0.24874 0.91278
 C1089 C 0.08159 0.24879 0.93492
 C1090 C 0.16908 0.24973 0.83367
 H1091 H 0.10306 0.25112 0.84268
 H1092 H 0.16440 0.24650 0.89996
 H1093 H 0.19711 0.24723 0.86543
 H1094 H 0.13573 0.25189 0.80761
 C1095 C 0.62469 0.75042 0.34617
 C1096 C 0.63254 0.74889 0.37229
 C1097 C 0.65908 0.74759 0.37843
 C1098 C 0.67776 0.74794 0.35864
 C1099 C 0.56918 0.74892 0.45281
 C1100 C 0.64339 0.75076 0.32625
 C1101 C 0.61367 0.74885 0.39307
 C1102 C 0.59879 0.74886 0.41127
 C1103 C 0.58240 0.74890 0.43337
 C1104 C 0.67019 0.74963 0.33229
 H1105 H 0.60416 0.75142 0.34121
 H1106 H 0.66538 0.74638 0.39857
 H1107 H 0.69816 0.74694 0.36408
 H1108 H 0.63688 0.75202 0.30620
 C1109 C 0.84854 0.75226 0.87285
 C1110 C 0.87478 0.75233 0.86529
 C1111 C 0.88126 0.75236 0.83880
 C1112 C 0.86166 0.75218 0.81989
 C1113 C 0.95374 0.75127 0.93070
 C1114 C 0.82883 0.75209 0.85393
 C1115 C 0.89526 0.75217 0.88450
 C1116 C 0.91308 0.75194 0.89984
 C1117 C 0.93469 0.75159 0.91690
 C1118 C 0.83517 0.75195 0.82720
 H1119 H 0.84331 0.75225 0.89332
 H1120 H 0.90152 0.75244 0.83274
 H1121 H 0.86731 0.75216 0.79954
 H1122 H 0.80867 0.75196 0.86026
 C1123 C 0.34560 0.25289 0.37313
 C1124 C 0.37185 0.25303 0.36560
 C1125 C 0.37834 0.25322 0.33911
 C1126 C 0.35875 0.25312 0.32018
 C1127 C 0.45094 0.25149 0.43090
 C1128 C 0.32590 0.25281 0.35419
 C1129 C 0.39234 0.25275 0.38482
 C1130 C 0.41019 0.25241 0.40015
 C1131 C 0.43184 0.25193 0.41718
 C1132 C 0.33225 0.25282 0.32746
 H1133 H 0.34036 0.25276 0.39360
 H1134 H 0.39860 0.25335 0.33306
 H1135 H 0.36441 0.25322 0.29983
 H1136 H 0.30574 0.25262 0.36050
 C1137 C 0.12155 0.75457 0.16100
 C1138 C 0.12729 0.75306 0.13440
 C1139 C 0.15332 0.75160 0.12619
 C1140 C 0.17354 0.75151 0.14461
 C1141 C 0.04604 0.75182 0.07186
 C1142 C 0.14162 0.75446 0.17938
 C1143 C 0.10619 0.75277 0.11588
 C1144 C 0.08775 0.75248 0.10129
 C1145 C 0.06546 0.75212 0.08512
 C1146 C 0.16789 0.75282 0.17146
 H1147 H 0.10149 0.75573 0.16757
 H1148 H 0.15797 0.75044 0.10562
 H1149 H 0.19352 0.75027 0.13784
 H1150 H 0.13647 0.75560 0.19983
 C1151 C 0.62187 0.25289 0.66090
 C1152 C 0.62758 0.25183 0.63428
 C1153 C 0.65361 0.25068 0.62603
 C1154 C 0.67386 0.25047 0.64443
 C1155 C 0.54611 0.25139 0.57188
 C1156 C 0.64196 0.25267 0.67926
 C1157 C 0.60644 0.25174 0.61575
 C1158 C 0.58796 0.25164 0.60118
 C1159 C 0.56562 0.25150 0.58505
 C1160 C 0.66824 0.25137 0.67131
 H1161 H 0.60180 0.25380 0.66752
 H1162 H 0.65825 0.24987 0.60543
 H1163 H 0.69383 0.24950 0.63762
 H1164 H 0.63682 0.25348 0.69973
 C1165 C 0.87237 0.24595 0.15461
 C1166 C 0.86452 0.24472 0.12847
 C1167 C 0.83798 0.24331 0.12234
 C1168 C 0.81931 0.24331 0.14214
 C1169 C 0.92827 0.24675 0.04822
 C1170 C 0.85368 0.24594 0.17454
 C1171 C 0.88340 0.24517 0.10769
 C1172 C 0.89833 0.24563 0.08953
 C1173 C 0.91487 0.24623 0.06754
 C1174 C 0.82688 0.24474 0.16851
 H1175 H 0.89289 0.24704 0.15957
 H1176 H 0.83168 0.24233 0.10218
 H1177 H 0.79891 0.24228 0.13671
 H1178 H 0.86020 0.24701 0.19460
 C1179 C 0.37382 0.74693 0.65637
 C1180 C 0.36597 0.74567 0.63023
 C1181 C 0.33942 0.74433 0.62411
 C1182 C 0.32075 0.74442 0.64391
 C1183 C 0.42943 0.74735 0.54969
 C1184 C 0.35512 0.74700 0.67631
 C1185 C 0.38484 0.74602 0.60942
 C1186 C 0.39973 0.74640 0.59121
 C1187 C 0.41617 0.74690 0.56911
 C1188 C 0.32832 0.74587 0.67029
 H1189 H 0.39434 0.74796 0.66133
 H1190 H 0.33311 0.74333 0.60396
 H1191 H 0.30035 0.74344 0.63848
 H1192 H 0.36164 0.74810 0.69637
 C1193 C 0.24817 0.16072 0.88019
 C1194 C 0.24886 0.13427 0.87366
 C1195 C 0.24940 0.12679 0.84742
 C1196 C 0.24934 0.14573 0.82776
 C1197 C 0.25015 0.06904 0.95268
 C1198 C 0.24812 0.17966 0.86064
 C1199 C 0.24916 0.11505 0.89411
 C1200 C 0.24945 0.09973 0.91193
 C1201 C 0.24983 0.08273 0.93356
 C1202 C 0.24878 0.17243 0.83416
 H1203 H 0.24773 0.16673 0.90045
 H1204 H 0.24992 0.10635 0.84215
 H1205 H 0.24981 0.13947 0.80760
 H1206 H 0.24760 0.19997 0.86633
 C1207 C 0.74887 0.65999 0.37840
 C1208 C 0.74960 0.63353 0.37193
 C1209 C 0.75021 0.62600 0.34570
 C1210 C 0.75018 0.64491 0.32599
 C1211 C 0.75083 0.56862 0.45122
 C1212 C 0.74885 0.67889 0.35881
 C1213 C 0.74987 0.61437 0.39245
 C1214 C 0.75016 0.59914 0.41035
 C1215 C 0.75052 0.58225 0.43208
 C1216 C 0.74959 0.67161 0.33234
 H1217 H 0.74837 0.66604 0.39864
 H1218 H 0.75076 0.60555 0.34047
 H1219 H 0.75072 0.63861 0.30584
 H1220 H 0.74830 0.69921 0.36448
 C1221 C 0.74827 0.11979 0.15803
 C1222 C 0.74796 0.12595 0.13148
 C1223 C 0.74750 0.15208 0.12361
 C1224 C 0.74728 0.17199 0.14230
 C1225 C 0.74834 0.04568 0.06787
 C1226 C 0.74805 0.13957 0.17670
 C1227 C 0.74807 0.10520 0.11260
 C1228 C 0.74814 0.08704 0.09769
 C1229 C 0.74824 0.06502 0.08121
 C1230 C 0.74750 0.16594 0.16910
 H1231 H 0.74865 0.09964 0.16434
 H1232 H 0.74728 0.15706 0.10307
 H1233 H 0.74692 0.19206 0.13576
 H1234 H 0.74829 0.13413 0.19711
 C1235 C 0.24857 0.65349 0.62539
 C1236 C 0.24899 0.62737 0.63327
 C1237 C 0.24936 0.62120 0.65982
 C1238 C 0.24923 0.64098 0.67848
 C1239 C 0.24871 0.54719 0.56959
 C1240 C 0.24845 0.67340 0.64408
 C1241 C 0.24895 0.60662 0.61439
 C1242 C 0.24888 0.58849 0.59946
 C1243 C 0.24879 0.56650 0.58296
 C1244 C 0.24872 0.66735 0.67088
 H1245 H 0.24831 0.65847 0.60486
 H1246 H 0.24971 0.60105 0.66613
 H1247 H 0.24951 0.63554 0.69889
 H1248 H 0.24811 0.69346 0.63754
 C1249 C 0.75447 0.87704 0.83811
 C1250 C 0.75367 0.87103 0.86469
 C1251 C 0.75330 0.84493 0.87268
 C1252 C 0.75362 0.82491 0.85409
 C1253 C 0.75122 0.95163 0.92795
 C1254 C 0.75478 0.85716 0.81955
 C1255 C 0.75307 0.89191 0.88345
 C1256 C 0.75251 0.91015 0.89826
 C1257 C 0.75182 0.93225 0.91465
 C1258 C 0.75428 0.83082 0.82726
 H1259 H 0.75478 0.89716 0.83170
 H1260 H 0.75270 0.84005 0.89323
 H1261 H 0.75327 0.80488 0.86071
 H1262 H 0.75536 0.86251 0.79912
 C1263 C 0.25152 0.37781 0.33863
 C1264 C 0.25109 0.37167 0.36519
 C1265 C 0.25091 0.34554 0.37307
 C1266 C 0.25109 0.32561 0.35438
 C1267 C 0.24960 0.45192 0.42890
 C1268 C 0.25169 0.35802 0.31997
 C1269 C 0.25073 0.39244 0.38407
 C1270 C 0.25039 0.41060 0.39899
 C1271 C 0.24996 0.43260 0.41551
 C1272 C 0.25142 0.33164 0.32758
 H1273 H 0.25168 0.39796 0.33231
 H1274 H 0.25060 0.34057 0.39360
 H1275 H 0.25092 0.30555 0.36093
 H1276 H 0.25200 0.36345 0.29957
 C1277 C 0.24746 0.84001 0.12193
 C1278 C 0.24871 0.86660 0.12766
 C1279 C 0.24988 0.87484 0.15368
 C1280 C 0.24990 0.85646 0.17391
 C1281 C 0.24977 0.92882 0.04623
 C1282 C 0.24749 0.82167 0.14201
 C1283 C 0.24898 0.88509 0.10655
 C1284 C 0.24923 0.89963 0.08807
 C1285 C 0.24953 0.91570 0.06573
 C1286 C 0.24880 0.82961 0.16827
 H1287 H 0.24653 0.83342 0.10187
 H1288 H 0.25084 0.89541 0.15832
 H1289 H 0.25088 0.86325 0.19388
 H1290 H 0.24654 0.80123 0.13686
 C1291 C 0.74749 0.33881 0.62178
 C1292 C 0.74875 0.36539 0.62753
 C1293 C 0.74997 0.37360 0.65356
 C1294 C 0.75005 0.35519 0.67376
 C1295 C 0.74970 0.42772 0.54616
 C1296 C 0.74758 0.32044 0.64183
 C1297 C 0.74897 0.38391 0.60643
 C1298 C 0.74919 0.39847 0.58797
 C1299 C 0.74947 0.41457 0.56565
 C1300 C 0.74895 0.32836 0.66811
 H1301 H 0.74651 0.33223 0.60171
 H1302 H 0.75094 0.39416 0.65822
 H1303 H 0.75108 0.36196 0.69374
 H1304 H 0.74662 0.30000 0.63667
 C1305 C 0.15471 0.12729 0.75336
 C1306 C 0.12856 0.13515 0.75473
 C1307 C 0.12247 0.16165 0.75645
 C1308 C 0.14231 0.18027 0.75662
 C1309 C 0.04806 0.07168 0.75208
 C1310 C 0.17468 0.14594 0.75355
 C1311 C 0.10772 0.11634 0.75409
 C1312 C 0.08950 0.10148 0.75348
 C1313 C 0.06742 0.08503 0.75272
 C1314 C 0.16869 0.17270 0.75505
 H1315 H 0.15965 0.10681 0.75202
 H1316 H 0.10232 0.16796 0.75755
 H1317 H 0.13690 0.20063 0.75790
 H1318 H 0.19474 0.13942 0.75234
 C1319 C 0.62368 0.66085 0.25626
 C1320 C 0.62974 0.63437 0.25409
 C1321 C 0.65585 0.62653 0.25210
 C1322 C 0.67581 0.64517 0.25211
 C1323 C 0.54905 0.57124 0.25188
 C1324 C 0.64352 0.67946 0.25625
 C1325 C 0.60889 0.61558 0.25357
 C1326 C 0.59065 0.60077 0.25306
 C1327 C 0.56850 0.58443 0.25243
 C1328 C 0.66985 0.67190 0.25405
 H1329 H 0.60356 0.66714 0.25782
 H1330 H 0.66075 0.60606 0.25041
 H1331 H 0.69585 0.63867 0.25042
 H1332 H 0.63814 0.69981 0.25787
 C1333 C 0.16113 0.87902 0.24657
 C1334 C 0.13446 0.87344 0.24733
 C1335 C 0.12604 0.84749 0.24819
 C1336 C 0.14432 0.82718 0.24841
 C1337 C 0.07240 0.95493 0.24815
 C1338 C 0.17937 0.85886 0.24680
 C1339 C 0.11608 0.89463 0.24747
 C1340 C 0.10163 0.91315 0.24766
 C1341 C 0.08559 0.93549 0.24793
 C1342 C 0.17124 0.83266 0.24783
 H1343 H 0.16786 0.89903 0.24588
 H1344 H 0.10540 0.84298 0.24878
 H1345 H 0.13739 0.80726 0.24917
 H1346 H 0.19988 0.86388 0.24625
 C1347 C 0.66109 0.37749 0.74692
 C1348 C 0.63443 0.37184 0.74764
 C1349 C 0.62612 0.34584 0.74835
 C1350 C 0.64449 0.32557 0.74848
 C1351 C 0.57213 0.45334 0.74869
 C1352 C 0.67942 0.35738 0.74705
 C1353 C 0.61593 0.39299 0.74785
 C1354 C 0.60139 0.41149 0.74809
 C1355 C 0.58529 0.43384 0.74842
 C1356 C 0.67140 0.33113 0.74793
 H1357 H 0.66775 0.39752 0.74634
 H1358 H 0.60550 0.34123 0.74890
 H1359 H 0.63764 0.30563 0.74912
 H1360 H 0.69991 0.36248 0.74654
 C1361 C 0.87221 0.15277 0.24656
 C1362 C 0.86465 0.12657 0.24644
 C1363 C 0.83815 0.12009 0.24631
 C1364 C 0.81923 0.13966 0.24644
 C1365 C 0.93019 0.04788 0.24809
 C1366 C 0.85329 0.17244 0.24668
 C1367 C 0.88385 0.10613 0.24673
 C1368 C 0.89921 0.08836 0.24710
 C1369 C 0.91632 0.06684 0.24762
 C1370 C 0.82655 0.16610 0.24673
 H1371 H 0.89269 0.15798 0.24665
 H1372 H 0.83209 0.09986 0.24620
 H1373 H 0.79887 0.13403 0.24640
 H1374 H 0.85962 0.19257 0.24686
 C1375 C 0.37335 0.65371 0.74841
 C1376 C 0.36573 0.62752 0.74840
 C1377 C 0.33919 0.62116 0.74841
 C1378 C 0.32032 0.64081 0.74855
 C1379 C 0.43103 0.54842 0.74957
 C1380 C 0.35448 0.67347 0.74854
 C1381 C 0.38490 0.60698 0.74860
 C1382 C 0.40023 0.58913 0.74886
 C1383 C 0.41728 0.56750 0.74923
 C1384 C 0.32770 0.66724 0.74871
 H1385 H 0.39385 0.65887 0.74839
 H1386 H 0.33306 0.60095 0.74839
 H1387 H 0.29995 0.63524 0.74861
 H1388 H 0.36087 0.69358 0.74862
 C1389 C 0.84804 0.87556 0.74915
 C1390 C 0.87422 0.86779 0.75021
 C1391 C 0.88047 0.84129 0.75108
 C1392 C 0.86075 0.82258 0.75076
 C1393 C 0.95438 0.93158 0.75012
 C1394 C 0.82818 0.85682 0.74885
 C1395 C 0.89494 0.88672 0.75024
 C1396 C 0.91307 0.90166 0.75021
 C1397 C 0.93507 0.91819 0.75015
 C1398 C 0.83433 0.83007 0.74956
 H1399 H 0.84299 0.89606 0.74849
 H1400 H 0.90067 0.83506 0.75193
 H1401 H 0.86626 0.80221 0.75142
 H1402 H 0.80808 0.86327 0.74795
 C1403 C 0.34523 0.37658 0.24932
 C1404 C 0.37138 0.36877 0.25062
 C1405 C 0.37759 0.34227 0.25175
 C1406 C 0.35783 0.32359 0.25143
 C1407 C 0.45203 0.43184 0.25024
 C1408 C 0.32534 0.35787 0.24901
 C1409 C 0.39215 0.38762 0.25058
 C1410 C 0.41038 0.40242 0.25049
 C1411 C 0.43254 0.41871 0.25035
 C1412 C 0.33144 0.33112 0.24996
 H1413 H 0.34023 0.39708 0.24846
 H1414 H 0.39776 0.33601 0.25278
 H1415 H 0.36332 0.30322 0.25227
 H1416 H 0.30525 0.36434 0.24791
   
