data_POSCAR
  _audit_creation_date              2014-09-24
  _audit_creation_method            'ToBaCCo'
  _symmetry_space_group_name_H-M    'P1'
  _symmetry_Int_Tables_number       1
  _symmetry_cell_setting            triclinic
  loop_
  _symmetry_equiv_pos_as_xyz
 x,y,z
_cell_length_a 83.0792
_cell_length_b 85.5512
_cell_length_c 86.8734
_cell_angle_alpha 90.027900
_cell_angle_beta 90.059900
_cell_angle_gamma 89.945300
loop_
  _atom_site_label
  _atom_site_type_symbol
  _atom_site_fract_x
  _atom_site_fract_y
  _atom_site_fract_z
C1 C 0.35223 0.34935 0.33132
 C2 C 0.36568 0.34167 0.32511
 C3 C 0.37292 0.32909 0.33295
 C4 C 0.36661 0.32441 0.34723
 C5 C 0.35312 0.33190 0.35351
 C6 C 0.34587 0.34441 0.34555
 C7 C 0.34493 0.36177 0.32342
 C8 C 0.33118 0.36923 0.32941
 C9 C 0.32491 0.36418 0.34362
 C10 C 0.33217 0.35186 0.35174
 C11 C 0.32585 0.34676 0.36586
 C12 C 0.33301 0.33424 0.37386
 C13 C 0.34665 0.32690 0.36756
 H14 H 0.37026 0.34526 0.31399
 H15 H 0.37224 0.31494 0.35354
 H16 H 0.35006 0.36569 0.31263
 H17 H 0.31417 0.36962 0.34824
 H18 H 0.31543 0.35260 0.37067
 H19 H 0.35206 0.31701 0.37340
 C20 C 0.35038 0.84418 -0.17126
 C21 C 0.36406 0.83660 -0.17710
 C22 C 0.37075 0.82337 -0.16968
 C23 C 0.36340 0.81823 -0.15590
 C24 C 0.34989 0.82590 -0.14982
 C25 C 0.34330 0.83887 -0.15755
 C26 C 0.34370 0.85699 -0.17904
 C27 C 0.32963 0.86454 -0.17363
 C28 C 0.32286 0.85916 -0.15964
 C29 C 0.32959 0.84648 -0.15162
 C30 C 0.32266 0.84113 -0.13785
 C31 C 0.32919 0.82819 -0.13000
 C32 C 0.34274 0.82059 -0.13619
 H33 H 0.36966 0.84144 -0.18727
 H34 H 0.36761 0.80783 -0.15008
 H35 H 0.34990 0.86120 -0.18916
 H36 H 0.31186 0.86421 -0.15521
 H37 H 0.31229 0.84715 -0.13315
 H38 H 0.34764 0.81036 -0.13050
 C39 C 0.84947 0.34805 -0.17524
 C40 C 0.86286 0.34112 -0.18226
 C41 C 0.87033 0.32772 -0.17595
 C42 C 0.86421 0.32183 -0.16190
 C43 C 0.85095 0.32888 -0.15462
 C44 C 0.84349 0.34199 -0.16138
 C45 C 0.84199 0.36097 -0.18206
 C46 C 0.82809 0.36787 -0.17559
 C47 C 0.82243 0.36182 -0.16142
 C48 C 0.83002 0.34900 -0.15433
 C49 C 0.82419 0.34292 -0.14040
 C50 C 0.83154 0.32983 -0.13350
 C51 C 0.84487 0.32285 -0.14079
 H52 H 0.86762 0.34661 -0.19250
 H53 H 0.86918 0.31135 -0.15681
 H54 H 0.84742 0.36579 -0.19233
 H55 H 0.81165 0.36646 -0.15613
 H56 H 0.81402 0.34849 -0.13484
 H57 H 0.85042 0.31256 -0.13579
 C58 C 0.84800 0.84946 0.32744
 C59 C 0.86050 0.84166 0.31969
 C60 C 0.86811 0.82858 0.32635
 C61 C 0.86307 0.82341 0.34094
 C62 C 0.85053 0.83097 0.34874
 C63 C 0.84301 0.84408 0.34200
 C64 C 0.84019 0.86233 0.32070
 C65 C 0.82732 0.87004 0.32826
 C66 C 0.82281 0.86459 0.34301
 C67 C 0.83040 0.85169 0.34979
 C68 C 0.82536 0.84618 0.36420
 C69 C 0.83248 0.83287 0.37082
 C70 C 0.84520 0.82543 0.36305
 H71 H 0.86410 0.84559 0.30836
 H72 H 0.86898 0.81352 0.34632
 H73 H 0.84376 0.86574 0.30921
 H74 H 0.81364 0.87057 0.34961
 H75 H 0.81574 0.85220 0.37020
 H76 H 0.85067 0.81503 0.36790
 C77 C 0.65569 0.65337 0.33067
 C78 C 0.64166 0.66005 0.32450
 C79 C 0.63494 0.67367 0.33100
 C80 C 0.64253 0.68055 0.34382
 C81 C 0.65642 0.67389 0.35025
 C82 C 0.66300 0.66022 0.34369
 C83 C 0.66266 0.64006 0.32391
 C84 C 0.67679 0.63342 0.33007
 C85 C 0.68364 0.64008 0.34336
 C86 C 0.67697 0.65348 0.35008
 C87 C 0.68423 0.66036 0.36297
 C88 C 0.67795 0.67415 0.36943
 C89 C 0.66397 0.68081 0.36301
 H90 H 0.63589 0.65453 0.31472
 H91 H 0.63775 0.69124 0.34871
 H92 H 0.65731 0.63515 0.31361
 H93 H 0.69429 0.63487 0.34845
 H94 H 0.69482 0.65496 0.36796
 H95 H 0.65913 0.69154 0.36775
 C96 C 0.65201 0.15421 -0.16320
 C97 C 0.63861 0.16161 -0.16982
 C98 C 0.63142 0.17462 -0.16268
 C99 C 0.63797 0.18029 -0.14883
 C100 C 0.65147 0.17311 -0.14217
 C101 C 0.65848 0.15997 -0.14934
 C102 C 0.65914 0.14128 -0.17041
 C103 C 0.67273 0.13371 -0.16398
 C104 C 0.67895 0.13963 -0.14995
 C105 C 0.67202 0.15268 -0.14271
 C106 C 0.67849 0.15859 -0.12895
 C107 C 0.67175 0.17185 -0.12183
 C108 C 0.65816 0.17897 -0.12852
 H109 H 0.63388 0.15733 -0.18066
 H110 H 0.63246 0.19021 -0.14312
 H111 H 0.65435 0.13768 -0.18144
 H112 H 0.68890 0.13390 -0.14423
 H113 H 0.68880 0.15286 -0.12378
 H114 H 0.65301 0.18934 -0.12331
 C115 C 0.14889 0.65183 -0.16814
 C116 C 0.13559 0.65903 -0.17513
 C117 C 0.12875 0.67267 -0.16885
 C118 C 0.13558 0.67916 -0.15546
 C119 C 0.14903 0.67221 -0.14846
 C120 C 0.15565 0.65844 -0.15478
 C121 C 0.15567 0.63828 -0.17451
 C122 C 0.16922 0.63096 -0.16774
 C123 C 0.17571 0.63772 -0.15422
 C124 C 0.16912 0.65136 -0.14782
 C125 C 0.17591 0.65809 -0.13460
 C126 C 0.16966 0.67204 -0.12839
 C127 C 0.15610 0.67894 -0.13535
 H128 H 0.13070 0.65411 -0.18564
 H129 H 0.13036 0.68956 -0.15038
 H130 H 0.15067 0.63399 -0.18521
 H131 H 0.18565 0.63222 -0.14825
 H132 H 0.18614 0.65248 -0.12917
 H133 H 0.15127 0.68978 -0.13084
 C134 C 0.15566 0.15389 0.33230
 C135 C 0.14169 0.16105 0.32659
 C136 C 0.13513 0.17454 0.33363
 C137 C 0.14309 0.18058 0.34676
 C138 C 0.15709 0.17350 0.35257
 C139 C 0.16338 0.16009 0.34533
 C140 C 0.16210 0.14069 0.32496
 C141 C 0.17639 0.13347 0.33029
 C142 C 0.18382 0.13978 0.34358
 C143 C 0.17745 0.15296 0.35105
 C144 C 0.18514 0.15928 0.36402
 C145 C 0.17905 0.17274 0.37130
 C146 C 0.16496 0.17973 0.36549
 H147 H 0.13652 0.15640 0.31611
 H148 H 0.13823 0.19050 0.35293
 H149 H 0.15549 0.13584 0.31535
 H150 H 0.19506 0.13505 0.34783
 H151 H 0.19585 0.15364 0.36851
 H152 H 0.16029 0.19026 0.37081
 C153 C 0.64039 0.34631 0.66925
 C154 C 0.62742 0.33873 0.67634
 C155 C 0.62064 0.32520 0.66981
 C156 C 0.62722 0.31916 0.65612
 C157 C 0.64031 0.32655 0.64897
 C158 C 0.64684 0.34025 0.65549
 C159 C 0.64709 0.35979 0.67582
 C160 C 0.66009 0.36747 0.66874
 C161 C 0.66636 0.36142 0.65491
 C162 C 0.65991 0.34781 0.64832
 C163 C 0.66642 0.34157 0.63474
 C164 C 0.66020 0.32772 0.62831
 C165 C 0.64705 0.32036 0.63548
 H166 H 0.62273 0.34329 0.68708
 H167 H 0.62202 0.30882 0.65090
 H168 H 0.64234 0.36415 0.68661
 H169 H 0.67625 0.36732 0.64924
 H170 H 0.67636 0.34751 0.62918
 H171 H 0.64229 0.30957 0.63079
 C172 C 0.64956 0.84990 1.17050
 C173 C 0.63602 0.84358 1.17789
 C174 C 0.62755 0.83072 1.17156
 C175 C 0.63307 0.82455 1.15739
 C176 C 0.64670 0.83063 1.15002
 C177 C 0.65498 0.84333 1.15658
 C178 C 0.65793 0.86254 1.17700
 C179 C 0.67160 0.86880 1.16969
 C180 C 0.67693 0.86211 1.15581
 C181 C 0.66878 0.84939 1.14927
 C182 C 0.67436 0.84252 1.13562
 C183 C 0.66625 0.82974 1.12902
 C184 C 0.65225 0.82405 1.13620
 H185 H 0.63267 0.84839 1.18895
 H186 H 0.62660 0.81523 1.15168
 H187 H 0.65391 0.86739 1.18786
 H188 H 0.68732 0.86692 1.14996
 H189 H 0.68529 0.84690 1.13037
 H190 H 0.64569 0.81441 1.13109
 C191 C 0.14917 0.34591 1.17082
 C192 C 0.13531 0.33980 1.17774
 C193 C 0.12832 0.32566 1.17258
 C194 C 0.13531 0.31824 1.15962
 C195 C 0.14908 0.32437 1.15248
 C196 C 0.15617 0.33813 1.15822
 C197 C 0.15624 0.35963 1.17649
 C198 C 0.17054 0.36549 1.17004
 C199 C 0.17748 0.35762 1.15745
 C200 C 0.17034 0.34405 1.15145
 C201 C 0.17728 0.33617 1.13893
 C202 C 0.17019 0.32250 1.13297
 C203 C 0.15605 0.31673 1.13984
 H204 H 0.12990 0.34641 1.18701
 H205 H 0.13074 0.30719 1.15546
 H206 H 0.15061 0.36572 1.18600
 H207 H 0.18861 0.36187 1.15249
 H208 H 0.18836 0.34057 1.13399
 H209 H 0.15035 0.30633 1.13526
 C210 C 0.14565 0.84300 0.67031
 C211 C 0.13216 0.83615 0.67723
 C212 C 0.12527 0.82224 0.67138
 C213 C 0.13211 0.81572 0.65789
 C214 C 0.14548 0.82262 0.65072
 C215 C 0.15236 0.83623 0.65703
 C216 C 0.15264 0.85644 0.67667
 C217 C 0.16662 0.86301 0.67023
 C218 C 0.17313 0.85629 0.65681
 C219 C 0.16604 0.84302 0.65014
 C220 C 0.17258 0.83629 0.63682
 C221 C 0.16580 0.82270 0.63037
 C222 C 0.15228 0.81592 0.63748
 H223 H 0.12689 0.84208 0.68701
 H224 H 0.12766 0.80483 0.65322
 H225 H 0.14725 0.86171 0.68678
 H226 H 0.18397 0.86111 0.65178
 H227 H 0.18288 0.84174 0.63139
 H228 H 0.14716 0.80526 0.63283
 C229 C 0.34679 0.64977 0.66529
 C230 C 0.35964 0.65715 0.67285
 C231 C 0.36749 0.67002 0.66612
 C232 C 0.36222 0.67548 0.65170
 C233 C 0.34928 0.66834 0.64410
 C234 C 0.34159 0.65537 0.65085
 C235 C 0.33890 0.63704 0.67207
 C236 C 0.32593 0.62968 0.66456
 C237 C 0.32093 0.63526 0.65008
 C238 C 0.32858 0.64810 0.64325
 C239 C 0.32328 0.65395 0.62902
 C240 C 0.33065 0.66713 0.62238
 C241 C 0.34375 0.67414 0.62997
 H242 H 0.36337 0.65301 0.68409
 H243 H 0.36828 0.68526 0.64629
 H244 H 0.34267 0.63305 0.68334
 H245 H 0.31108 0.62958 0.64411
 H246 H 0.31335 0.64828 0.62318
 H247 H 0.34937 0.68445 0.62512
 C248 C 0.35272 0.15323 1.17376
 C249 C 0.36526 0.16104 1.18145
 C250 C 0.37245 0.17462 1.17516
 C251 C 0.36670 0.18002 1.16078
 C252 C 0.35417 0.17240 1.15305
 C253 C 0.34718 0.15895 1.15952
 C254 C 0.34537 0.14002 1.18032
 C255 C 0.33247 0.13228 1.17285
 C256 C 0.32744 0.13805 1.15836
 C257 C 0.33455 0.15130 1.15179
 C258 C 0.32901 0.15712 1.13764
 C259 C 0.33570 0.17074 1.13124
 C260 C 0.34840 0.17822 1.13900
 H261 H 0.36881 0.15679 1.19268
 H262 H 0.37228 0.18988 1.15512
 H263 H 0.34933 0.13637 1.19163
 H264 H 0.31823 0.13208 1.15180
 H265 H 0.31938 0.15110 1.13166
 H266 H 0.35350 0.18887 1.13434
 C267 C 0.84462 0.65638 1.16709
 C268 C 0.85741 0.66368 1.17489
 C269 C 0.86491 0.67703 1.16870
 C270 C 0.85946 0.68298 1.15453
 C271 C 0.84662 0.67594 1.14671
 C272 C 0.83921 0.66256 1.15297
 C273 C 0.83698 0.64320 1.17336
 C274 C 0.82389 0.63592 1.16574
 C275 C 0.81887 0.64222 1.15146
 C276 C 0.82630 0.65545 1.14516
 C277 C 0.82085 0.66175 1.13119
 C278 C 0.82792 0.67531 1.12503
 C279 C 0.84092 0.68224 1.13284
 H280 H 0.86134 0.65912 1.18591
 H281 H 0.86529 0.69308 1.14948
 H282 H 0.84091 0.63919 1.18456
 H283 H 0.80945 0.63666 1.14483
 H284 H 0.81101 0.65614 1.12514
 H285 H 0.84633 0.69282 1.12836
 C286 C 0.85140 0.15230 0.67377
 C287 C 0.86513 0.15879 0.68061
 C288 C 0.87209 0.17251 0.67472
 C289 C 0.86539 0.17942 0.66147
 C290 C 0.85181 0.17286 0.65431
 C291 C 0.84470 0.15932 0.66057
 C292 C 0.84410 0.13907 0.68017
 C293 C 0.82987 0.13290 0.67382
 C294 C 0.82343 0.13977 0.66043
 C295 C 0.83079 0.15288 0.65374
 C296 C 0.82431 0.15982 0.64047
 C297 C 0.83137 0.17328 0.63405
 C298 C 0.84507 0.17977 0.64116
 H299 H 0.87034 0.15316 0.69061
 H300 H 0.87051 0.19010 0.65690
 H301 H 0.84943 0.13366 0.69023
 H302 H 0.81242 0.13522 0.65547
 H303 H 0.81385 0.15461 0.63507
 H304 H 0.85039 0.19035 0.63658
 C305 C 0.35091 0.35251 0.67245
 C306 C 0.34493 0.36622 0.67917
 C307 C 0.33207 0.37442 0.67239
 C308 C 0.32522 0.36868 0.65868
 C309 C 0.33095 0.35484 0.65194
 C310 C 0.34387 0.34673 0.65882
 C311 C 0.36372 0.34439 0.67926
 C312 C 0.36977 0.33060 0.67260
 C313 C 0.36261 0.32485 0.65904
 C314 C 0.34966 0.33278 0.65216
 C315 C 0.34232 0.32689 0.63881
 C316 C 0.32929 0.33480 0.63194
 C317 C 0.32384 0.34889 0.63851
 H318 H 0.35012 0.37035 0.68988
 H319 H 0.31543 0.37498 0.65324
 H320 H 0.36886 0.34873 0.68991
 H321 H 0.36722 0.31430 0.65372
 H322 H 0.34650 0.31593 0.63401
 H323 H 0.31402 0.35524 0.63318
 C324 C 0.34761 0.84818 0.17104
 C325 C 0.34219 0.86200 0.17801
 C326 C 0.32972 0.87086 0.17134
 C327 C 0.32273 0.86567 0.15749
 C328 C 0.32784 0.85172 0.15053
 C329 C 0.34036 0.84295 0.15729
 C330 C 0.36005 0.83941 0.17771
 C331 C 0.36554 0.82552 0.17077
 C332 C 0.35814 0.82034 0.15710
 C333 C 0.34553 0.82890 0.15037
 C334 C 0.33789 0.82354 0.13694
 C335 C 0.32519 0.83210 0.13026
 C336 C 0.32045 0.84632 0.13703
 H337 H 0.34751 0.86571 0.18881
 H338 H 0.31328 0.87248 0.15209
 H339 H 0.36535 0.84333 0.18844
 H340 H 0.36231 0.80973 0.15156
 H341 H 0.34156 0.81250 0.13194
 H342 H 0.31094 0.85320 0.13182
 C343 C 0.85557 0.35521 0.16873
 C344 C 0.84872 0.36878 0.17498
 C345 C 0.83649 0.37689 0.16710
 C346 C 0.83112 0.37117 0.15279
 C347 C 0.83772 0.35748 0.14648
 C348 C 0.85003 0.34950 0.15445
 C349 C 0.86776 0.34719 0.17663
 C350 C 0.87467 0.33356 0.17042
 C351 C 0.86903 0.32792 0.15618
 C352 C 0.85673 0.33574 0.14822
 C353 C 0.85090 0.32990 0.13420
 C354 C 0.83849 0.33767 0.12622
 C355 C 0.83210 0.35157 0.13239
 H356 H 0.85275 0.37287 0.18615
 H357 H 0.82183 0.37740 0.14653
 H358 H 0.87174 0.35147 0.18775
 H359 H 0.87436 0.31752 0.15117
 H360 H 0.85576 0.31907 0.12970
 H361 H 0.82272 0.35779 0.12624
 C362 C 0.84589 0.85346 0.67244
 C363 C 0.83937 0.86689 0.67933
 C364 C 0.82656 0.87501 0.67235
 C365 C 0.82037 0.86954 0.65826
 C366 C 0.82658 0.85600 0.65137
 C367 C 0.83941 0.84794 0.65845
 C368 C 0.85865 0.84536 0.67941
 C369 C 0.86515 0.83184 0.67254
 C370 C 0.85853 0.82640 0.65861
 C371 C 0.84566 0.83428 0.65160
 C372 C 0.83880 0.82857 0.63795
 C373 C 0.82582 0.83640 0.63093
 C374 C 0.81998 0.85027 0.63762
 H375 H 0.84410 0.87084 0.69030
 H376 H 0.81069 0.87582 0.65262
 H377 H 0.86338 0.84948 0.69031
 H378 H 0.86352 0.81612 0.65310
 H379 H 0.84330 0.81777 0.63304
 H380 H 0.81021 0.85659 0.63217
 C381 C 0.65401 0.64750 0.66429
 C382 C 0.66163 0.63401 0.66987
 C383 C 0.67591 0.62846 0.66308
 C384 C 0.68252 0.63663 0.65054
 C385 C 0.67511 0.65022 0.64490
 C386 C 0.66078 0.65565 0.65177
 C387 C 0.63984 0.65306 0.67116
 C388 C 0.63234 0.66676 0.66574
 C389 C 0.63918 0.67478 0.65322
 C390 C 0.65330 0.66932 0.64621
 C391 C 0.66015 0.67745 0.63385
 C392 C 0.67454 0.67225 0.62702
 C393 C 0.68190 0.65855 0.63261
 H394 H 0.65658 0.62802 0.67974
 H395 H 0.69339 0.63238 0.64507
 H396 H 0.63458 0.64666 0.68066
 H397 H 0.63372 0.68552 0.64913
 H398 H 0.65418 0.68782 0.62948
 H399 H 0.69312 0.65454 0.62763
 C400 C 0.65545 0.15282 0.16690
 C401 C 0.66197 0.13897 0.17283
 C402 C 0.67671 0.13310 0.16734
 C403 C 0.68472 0.14117 0.15547
 C404 C 0.67820 0.15494 0.14924
 C405 C 0.66354 0.16083 0.15504
 C406 C 0.64107 0.15892 0.17285
 C407 C 0.63475 0.17310 0.16730
 C408 C 0.64274 0.18086 0.15526
 C409 C 0.65705 0.17480 0.14908
 C410 C 0.66508 0.18265 0.13721
 C411 C 0.67973 0.17692 0.13132
 C412 C 0.68622 0.16304 0.13746
 H413 H 0.65552 0.13274 0.18177
 H414 H 0.69620 0.13690 0.15128
 H415 H 0.63486 0.15266 0.18191
 H416 H 0.63811 0.19189 0.15099
 H417 H 0.65981 0.19319 0.13245
 H418 H 0.69763 0.15864 0.13324
 C419 C 0.15158 0.64694 0.16612
 C420 C 0.15896 0.63396 0.17307
 C421 C 0.17301 0.62733 0.16675
 C422 C 0.17954 0.63384 0.15326
 C423 C 0.17240 0.64689 0.14627
 C424 C 0.15835 0.65345 0.15270
 C425 C 0.13767 0.65364 0.17251
 C426 C 0.13047 0.66688 0.16574
 C427 C 0.13734 0.67325 0.15234
 C428 C 0.15118 0.66664 0.14579
 C429 C 0.15807 0.67316 0.13254
 C430 C 0.17221 0.66683 0.12616
 C431 C 0.17923 0.65361 0.13308
 H432 H 0.15394 0.62924 0.18359
 H433 H 0.19018 0.62871 0.14811
 H434 H 0.13240 0.64849 0.18272
 H435 H 0.13215 0.68363 0.14718
 H436 H 0.15237 0.68317 0.12717
 H437 H 0.19027 0.64877 0.12844
 C438 C 0.15661 0.14750 0.66759
 C439 C 0.16309 0.13352 0.67327
 C440 C 0.17661 0.12661 0.66628
 C441 C 0.18383 0.13410 0.65361
 C442 C 0.17757 0.14821 0.64788
 C443 C 0.16380 0.15484 0.65481
 C444 C 0.14314 0.15435 0.67464
 C445 C 0.13656 0.16837 0.66895
 C446 C 0.14365 0.17545 0.65602
 C447 C 0.15729 0.16888 0.64905
 C448 C 0.16463 0.17628 0.63652
 C449 C 0.17866 0.17008 0.62981
 C450 C 0.18494 0.15590 0.63546
 H451 H 0.15768 0.12811 0.68328
 H452 H 0.19422 0.12887 0.64809
 H453 H 0.13797 0.14888 0.68474
 H454 H 0.13856 0.18611 0.65135
 H455 H 0.15942 0.18697 0.63204
 H456 H 0.19579 0.15104 0.63046
 C457 C 0.34398 0.64858 0.32979
 C458 C 0.33569 0.63629 0.32260
 C459 C 0.32161 0.63006 0.32917
 C460 C 0.31579 0.63646 0.34302
 C461 C 0.32386 0.64885 0.35024
 C462 C 0.33808 0.65486 0.34369
 C463 C 0.35800 0.65477 0.32320
 C464 C 0.36638 0.66706 0.33041
 C465 C 0.36048 0.67314 0.34438
 C466 C 0.34633 0.66721 0.35099
 C467 C 0.34023 0.67354 0.36472
 C468 C 0.32585 0.66782 0.37117
 C469 C 0.31782 0.65539 0.36386
 H470 H 0.34012 0.63168 0.31178
 H471 H 0.30508 0.63166 0.34832
 H472 H 0.36222 0.65017 0.31231
 H473 H 0.36692 0.68246 0.35016
 H474 H 0.34669 0.68293 0.37036
 H475 H 0.30661 0.65102 0.36855
 C476 C 0.34323 0.14043 0.83442
 C477 C 0.33594 0.12742 0.82752
 C478 C 0.32222 0.12050 0.83409
 C479 C 0.31588 0.12678 0.84778
 C480 C 0.32290 0.13995 0.85468
 C481 C 0.33664 0.14680 0.84799
 C482 C 0.35687 0.14731 0.82781
 C483 C 0.36418 0.16043 0.83461
 C484 C 0.35746 0.16679 0.84810
 C485 C 0.34370 0.16012 0.85478
 C486 C 0.33676 0.16668 0.86802
 C487 C 0.32291 0.16004 0.87467
 C488 C 0.31624 0.14650 0.86802
 H489 H 0.34079 0.12288 0.81684
 H490 H 0.30544 0.12143 0.85308
 H491 H 0.36167 0.14254 0.81720
 H492 H 0.36302 0.17685 0.85351
 H493 H 0.34191 0.17721 0.87289
 H494 H 0.30579 0.14107 0.87320
 C495 C 0.83479 0.65039 0.82752
 C496 C 0.82759 0.63721 0.82079
 C497 C 0.81427 0.62994 0.82778
 C498 C 0.80831 0.63598 0.84172
 C499 C 0.81524 0.64925 0.84846
 C500 C 0.82854 0.65649 0.84136
 C501 C 0.84801 0.65771 0.82051
 C502 C 0.85514 0.67101 0.82719
 C503 C 0.84877 0.67700 0.84099
 C504 C 0.83548 0.66991 0.84805
 C505 C 0.82889 0.67617 0.86157
 C506 C 0.81548 0.66915 0.86862
 C507 C 0.80891 0.65553 0.86208
 H508 H 0.83217 0.63280 0.80995
 H509 H 0.79824 0.63034 0.84736
 H510 H 0.85259 0.65316 0.80972
 H511 H 0.85425 0.68712 0.84636
 H512 H 0.83395 0.68679 0.86636
 H513 H 0.79877 0.64982 0.86755
 C514 C 0.84423 0.15207 0.33275
 C515 C 0.83797 0.13926 0.32468
 C516 C 0.82392 0.13169 0.32973
 C517 C 0.81627 0.13702 0.34322
 C518 C 0.82246 0.14979 0.35148
 C519 C 0.83648 0.15738 0.34619
 C520 C 0.85806 0.15973 0.32747
 C521 C 0.86437 0.17265 0.33545
 C522 C 0.85660 0.17786 0.34889
 C523 C 0.84269 0.17034 0.35428
 C524 C 0.83482 0.17567 0.36756
 C525 C 0.82083 0.16818 0.37297
 C526 C 0.81479 0.15520 0.36485
 H527 H 0.84416 0.13510 0.31449
 H528 H 0.80532 0.13143 0.34713
 H529 H 0.86371 0.15580 0.31691
 H530 H 0.86144 0.18770 0.35524
 H531 H 0.83942 0.18587 0.37350
 H532 H 0.80416 0.14920 0.36900
 C533 C 0.66307 0.34865 0.32951
 C534 C 0.66972 0.36179 0.32227
 C535 C 0.68257 0.36999 0.32907
 C536 C 0.68870 0.36486 0.34331
 C537 C 0.68233 0.35160 0.35057
 C538 C 0.66944 0.34348 0.34368
 C539 C 0.65027 0.34047 0.32271
 C540 C 0.64362 0.32724 0.32992
 C541 C 0.65010 0.32218 0.34404
 C542 C 0.66301 0.33012 0.35089
 C543 C 0.66971 0.32479 0.36476
 C544 C 0.68272 0.33268 0.37163
 C545 C 0.68880 0.34623 0.36453
 H546 H 0.66506 0.36546 0.31119
 H547 H 0.69843 0.37120 0.34879
 H548 H 0.64563 0.34431 0.31167
 H549 H 0.64498 0.31212 0.34982
 H550 H 0.66504 0.31421 0.36996
 H551 H 0.69862 0.35258 0.36984
 C552 C 0.64577 0.85521 0.82969
 C553 C 0.65191 0.86937 0.82413
 C554 C 0.66503 0.87670 0.83142
 C555 C 0.67153 0.86994 0.84483
 C556 C 0.66532 0.85591 0.85069
 C557 C 0.65252 0.84841 0.84299
 C558 C 0.63315 0.84762 0.82199
 C559 C 0.62736 0.83311 0.82720
 C560 C 0.63414 0.82643 0.84052
 C561 C 0.64658 0.83403 0.84848
 C562 C 0.65334 0.82733 0.86172
 C563 C 0.66592 0.83485 0.86966
 C564 C 0.67186 0.84914 0.86401
 H565 H 0.64653 0.87461 0.81400
 H566 H 0.68175 0.87534 0.85048
 H567 H 0.62787 0.85302 0.81189
 H568 H 0.62997 0.81515 0.84454
 H569 H 0.64893 0.81613 0.86573
 H570 H 0.68148 0.85509 0.87007
 C571 C 0.15700 0.34946 0.83360
 C572 C 0.16357 0.36237 0.82592
 C573 C 0.17765 0.36963 0.83139
 C574 C 0.18509 0.36381 0.84479
 C575 C 0.17853 0.35102 0.85271
 C576 C 0.16440 0.34385 0.84712
 C577 C 0.14329 0.34191 0.82779
 C578 C 0.13678 0.32883 0.83536
 C579 C 0.14395 0.32363 0.84912
 C580 C 0.15777 0.33095 0.85494
 C581 C 0.16521 0.32537 0.86832
 C582 C 0.17951 0.33219 0.87385
 C583 C 0.18604 0.34510 0.86599
 H584 H 0.15759 0.36683 0.81574
 H585 H 0.19613 0.36908 0.84895
 H586 H 0.13802 0.34593 0.81708
 H587 H 0.13886 0.31377 0.85524
 H588 H 0.15988 0.31562 0.87442
 H589 H 0.19714 0.35035 0.86999
 C590 C 0.15435 0.85003 0.32849
 C591 C 0.16194 0.86293 0.32162
 C592 C 0.17446 0.87086 0.32928
 C593 C 0.17914 0.86585 0.34404
 C594 C 0.17182 0.85290 0.35096
 C595 C 0.15938 0.84495 0.34319
 C596 C 0.14203 0.84194 0.32080
 C597 C 0.13461 0.82886 0.32761
 C598 C 0.13971 0.82396 0.34229
 C599 C 0.15210 0.83181 0.35004
 C600 C 0.15752 0.82653 0.36443
 C601 C 0.17011 0.83425 0.37217
 C602 C 0.17699 0.84761 0.36542
 H603 H 0.15835 0.86656 0.31017
 H604 H 0.18857 0.87202 0.35016
 H605 H 0.13841 0.84567 0.30938
 H606 H 0.13396 0.81406 0.34778
 H607 H 0.15225 0.81609 0.36937
 H608 H 0.18650 0.85384 0.37138
 O609 O 0.25386 1.01588 0.27263
 O610 O 0.27292 0.98568 0.24843
 O611 O 0.27540 1.01596 0.25085
 O612 O 0.25143 0.98553 0.27014
 O613 O 0.23202 0.98870 0.25307
 O614 O 0.25629 1.01864 0.23341
 O615 O 0.25344 0.98829 0.23135
 O616 O 0.23487 1.01895 0.25512
 Cu617 Cu 0.26532 1.00048 0.26226
 Cu618 Cu 0.24225 1.00394 0.24149
 C619 C 0.24117 1.02268 0.26794
 C620 C 0.26632 0.98169 0.23583
 C621 C 0.26993 1.02253 0.23882
 C622 C 0.23765 0.98187 0.26489
 O623 O 0.25314 0.51861 0.73532
 O624 O 0.23314 0.48810 0.75838
 O625 O 0.23334 0.51862 0.75859
 O626 O 0.25222 0.48815 0.73488
 O627 O 0.27293 0.48738 0.75078
 O628 O 0.25429 0.51850 0.77421
 O629 O 0.25372 0.48802 0.77447
 O630 O 0.27405 0.51772 0.75097
 Cu631 Cu 0.24087 0.50347 0.74522
 Cu632 Cu 0.26581 0.50287 0.76421
 C633 C 0.26710 0.52329 0.73915
 C634 C 0.24007 0.48281 0.77035
 C635 C 0.24057 0.52386 0.77039
 C636 C 0.26572 0.48244 0.73882
 O637 O 0.75001 -0.01623 0.26790
 O638 O 0.72764 0.01569 0.24882
 O639 O 0.72711 -0.01476 0.24745
 O640 O 0.74925 0.01405 0.27039
 O641 O 0.76752 0.01606 0.25208
 O642 O 0.74616 -0.01439 0.22978
 O643 O 0.74589 0.01615 0.23041
 O644 O 0.76900 -0.01437 0.25028
 Cu645 Cu 0.73663 -0.00045 0.26042
 Cu646 Cu 0.75900 0.00098 0.23883
 C647 C 0.76343 -0.02067 0.26237
 C648 C 0.73298 0.02135 0.23628
 C649 C 0.73288 -0.01970 0.23484
 C650 C 0.76202 0.02017 0.26514
 O651 O 0.74477 0.48148 0.76665
 O652 O 0.72445 0.51065 0.74242
 O653 O 0.72496 0.48030 0.74334
 O654 O 0.74507 0.51195 0.76493
 O655 O 0.76558 0.51078 0.74885
 O656 O 0.74516 0.47996 0.72688
 O657 O 0.74498 0.51050 0.72632
 O658 O 0.76483 0.48042 0.75006
 Cu659 Cu 0.73279 0.49615 0.75598
 Cu660 Cu 0.75716 0.49535 0.73638
 C661 C 0.75821 0.47583 0.76244
 C662 C 0.73126 0.51569 0.73033
 C663 C 0.73167 0.47473 0.73137
 C664 C 0.75881 0.51675 0.76056
 O665 O 0.26649 0.51173 0.25239
 O666 O 0.24374 0.48098 0.23231
 O667 O 0.24407 0.51149 0.23150
 O668 O 0.26572 0.48128 0.25364
 O669 O 0.24750 0.48300 0.27202
 O670 O 0.22491 0.51175 0.24906
 O671 O 0.22551 0.48132 0.25075
 O672 O 0.24732 0.51339 0.26988
 Cu673 Cu 0.25687 0.49627 0.24065
 Cu674 Cu 0.23443 0.49745 0.26222
 C675 C 0.26070 0.51798 0.26444
 C676 C 0.23086 0.47571 0.23821
 C677 C 0.23074 0.51674 0.23648
 C678 C 0.26035 0.47706 0.26669
 O679 O 0.74208 1.01988 0.72639
 O680 O 0.71975 0.99018 0.74817
 O681 O 0.72077 1.02065 0.74848
 O682 O 0.74129 0.98946 0.72674
 O683 O 0.76068 0.98909 0.74411
 O684 O 0.74010 1.02009 0.76589
 O685 O 0.73895 0.98965 0.76573
 O686 O 0.76128 1.01957 0.74396
 Cu687 Cu 0.72903 1.00515 0.73571
 Cu688 Cu 0.75219 1.00455 0.75667
 C689 C 0.75549 1.02483 0.73144
 C690 C 0.72556 0.98472 0.76058
 C691 C 0.72694 1.02571 0.76092
 C692 C 0.75447 0.98388 0.73176
 O693 O 0.76917 0.48823 0.24134
 O694 O 0.74772 0.51800 0.26429
 O695 O 0.74816 0.48744 0.26345
 O696 O 0.76958 0.51856 0.24292
 O697 O 0.75019 0.51952 0.22559
 O698 O 0.72868 0.48805 0.24619
 O699 O 0.72825 0.51842 0.24700
 O700 O 0.74970 0.48895 0.22406
 Cu701 Cu 0.76057 0.50300 0.25475
 Cu702 Cu 0.73728 0.50382 0.23395
 C703 C 0.76301 0.48344 0.22879
 C704 C 0.73430 0.52331 0.25953
 C705 C 0.73485 0.48232 0.25834
 C706 C 0.76359 0.52443 0.23079
 O707 O 0.25185 -0.02217 0.72366
 O708 O 0.27333 0.00689 0.74735
 O709 O 0.27115 -0.02346 0.74729
 O710 O 0.25420 0.00829 0.72372
 O711 O 0.23295 0.00919 0.73890
 O712 O 0.25072 -0.02150 0.76338
 O713 O 0.25215 0.00884 0.76253
 O714 O 0.23139 -0.02129 0.73981
 Cu715 Cu 0.26471 -0.00777 0.73391
 Cu716 Cu 0.23969 -0.00605 0.75269
 C717 C 0.23803 -0.02688 0.72784
 C718 C 0.26633 0.01295 0.75891
 C719 C 0.26394 -0.02781 0.75945
 C720 C 0.24067 0.01419 0.72728
 O721 O 0.25151 0.26684 0.98777
 O722 O 0.27201 0.24469 1.01854
 O723 O 0.27277 0.24442 0.98861
 O724 O 0.25108 0.26743 1.01780
 O725 O 0.23154 0.24997 1.01788
 O726 O 0.25303 0.22719 0.98834
 O727 O 0.25231 0.22740 1.01832
 O728 O 0.23191 0.24946 0.98778
 Cu729 Cu 0.26380 0.25760 1.00320
 Cu730 Cu 0.24022 0.23679 1.00306
 C731 C 0.23824 0.26181 0.98242
 C732 C 0.26561 0.23226 1.02371
 C733 C 0.26658 0.23192 0.98341
 C734 C 0.23769 0.26256 1.02296
 O735 O 0.25116 0.77483 0.48565
 O736 O 0.27075 0.74860 0.51366
 O737 O 0.27151 0.75194 0.48389
 O738 O 0.25087 0.77199 0.51566
 O739 O 0.23032 0.75582 0.51353
 O740 O 0.25145 0.73514 0.48216
 O741 O 0.25015 0.73243 0.51201
 O742 O 0.23094 0.75826 0.48363
 Cu743 Cu 0.26308 0.76352 0.49992
 Cu744 Cu 0.23867 0.74377 0.49760
 C745 C 0.23775 0.77093 0.47973
 C746 C 0.26371 0.73608 0.51772
 C747 C 0.26507 0.74009 0.47761
 C748 C 0.23713 0.76733 0.52010
 O749 O 0.22344 0.75451 -0.01388
 O750 O 0.24748 0.77582 0.01511
 O751 O 0.24508 0.77641 -0.01497
 O752 O 0.22530 0.75456 0.01607
 O753 O 0.24389 0.73619 0.01455
 O754 O 0.26424 0.75857 -0.01607
 O755 O 0.26621 0.75758 0.01379
 O756 O 0.24259 0.73671 -0.01547
 Cu757 Cu 0.23345 0.76716 0.00071
 Cu758 Cu 0.25611 0.74544 -0.00092
 C759 C 0.22903 0.74202 -0.01975
 C760 C 0.26091 0.77024 0.01950
 C761 C 0.25801 0.77124 -0.02087
 C762 C 0.23117 0.74167 0.02065
 O763 O 0.23311 0.25075 0.48815
 O764 O 0.25576 0.27243 0.51770
 O765 O 0.25309 0.27412 0.48775
 O766 O 0.23583 0.24914 0.51799
 O767 O 0.25581 0.23238 0.51512
 O768 O 0.27370 0.25798 0.48565
 O769 O 0.27592 0.25579 0.51543
 O770 O 0.25366 0.23467 0.48522
 Cu771 Cu 0.24242 0.26326 0.50314
 Cu772 Cu 0.26680 0.24355 0.50011
 C773 C 0.23957 0.23909 0.48151
 C774 C 0.26966 0.26775 0.52172
 C775 C 0.26637 0.27034 0.48154
 C776 C 0.24283 0.23648 0.52172
 O777 O 0.74830 0.77657 0.98305
 O778 O 0.76701 0.75299 1.01369
 O779 O 0.76825 0.75318 0.98382
 O780 O 0.74695 0.77649 1.01310
 O781 O 0.72675 0.75977 1.01249
 O782 O 0.74763 0.73699 0.98268
 O783 O 0.74666 0.73647 1.01268
 O784 O 0.72765 0.76038 0.98253
 Cu785 Cu 0.75966 0.76649 0.99852
 Cu786 Cu 0.73512 0.74676 0.99749
 C787 C 0.73478 0.77248 0.97752
 C788 C 0.76004 0.74068 1.01841
 C789 C 0.76152 0.74115 0.97816
 C790 C 0.73328 0.77201 1.01792
 O791 O 0.72835 0.25252 0.51910
 O792 O 0.74940 0.22925 0.48956
 O793 O 0.74865 0.22940 0.51978
 O794 O 0.72891 0.25226 0.48925
 O795 O 0.74917 0.26890 0.48935
 O796 O 0.76886 0.24611 0.52008
 O797 O 0.76966 0.24589 0.49015
 O798 O 0.74857 0.26922 0.51944
 Cu799 Cu 0.73684 0.23913 0.50438
 Cu800 Cu 0.76108 0.25921 0.50477
 C801 C 0.73490 0.26484 0.52435
 C802 C 0.76312 0.23364 0.48476
 C803 C 0.76204 0.23391 0.52527
 C804 C 0.73566 0.26447 0.48405
 O805 O 0.77650 0.25943 -0.01508
 O806 O 0.75897 0.23585 0.01619
 O807 O 0.75802 0.23501 -0.01382
 O808 O 0.77749 0.26044 0.01492
 O809 O 0.75620 0.27586 0.01485
 O810 O 0.73639 0.24997 -0.01321
 O811 O 0.73784 0.25148 0.01671
 O812 O 0.75486 0.27439 -0.01523
 Cu813 Cu 0.76990 0.24616 0.00055
 Cu814 Cu 0.74420 0.26447 0.00079
 C815 C 0.76858 0.27081 -0.02066
 C816 C 0.74546 0.23972 0.02189
 C817 C 0.74386 0.23814 -0.01844
 C818 C 0.77016 0.27248 0.01984
 O819 O 0.77250 0.75884 0.48421
 O820 O 0.75312 0.73427 0.51358
 O821 O 0.75155 0.73634 0.48365
 O822 O 0.77390 0.75712 0.51404
 O823 O 0.75420 0.77435 0.51574
 O824 O 0.73151 0.75311 0.48599
 O825 O 0.73360 0.75162 0.51586
 O826 O 0.75244 0.77569 0.48576
 Cu827 Cu 0.76474 0.74491 0.49870
 Cu828 Cu 0.74096 0.76542 0.50103
 C829 C 0.76570 0.77139 0.47984
 C830 C 0.74012 0.73881 0.51985
 C831 C 0.73771 0.74118 0.47962
 C832 C 0.76786 0.76932 0.52008
 O833 O 0.98328 0.24217 0.27102
 O834 O 1.01423 0.26216 0.24798
 O835 O 0.98295 0.26237 0.24859
 O836 O 1.01475 0.24209 0.27040
 O837 O 1.01445 0.22290 0.25343
 O838 O 0.98213 0.24283 0.23203
 O839 O 1.01346 0.24304 0.23094
 O840 O 0.98321 0.22266 0.25441
 Cu841 Cu 0.99884 0.25412 0.26121
 Cu842 Cu 0.99827 0.23092 0.24102
 C843 C 0.97798 0.22896 0.26666
 C844 C 1.01909 0.25606 0.23548
 C845 C 0.97707 0.25605 0.23661
 C846 C 1.02013 0.22907 0.26558
 O847 O 0.50968 0.22066 0.75645
 O848 O 0.47821 0.24031 0.73371
 O849 O 0.50966 0.23967 0.73310
 O850 O 0.47842 0.22150 0.75725
 O851 O 0.47919 0.24176 0.77295
 O852 O 0.51037 0.25990 0.74884
 O853 O 0.47922 0.26056 0.74942
 O854 O 0.51070 0.24089 0.77217
 Cu855 Cu 0.49390 0.22851 0.74354
 Cu856 Cu 0.49495 0.25277 0.76247
 C857 C 0.51564 0.22744 0.76815
 C858 C 0.47334 0.25381 0.73767
 C859 C 0.51536 0.25292 0.73686
 C860 C 0.47341 0.22856 0.76919
 O861 O -0.00968 0.27074 0.75196
 O862 O 0.02333 0.25282 0.72978
 O863 O -0.00796 0.25131 0.72902
 O864 O 0.02153 0.27307 0.75211
 O865 O 0.02326 0.25333 0.76837
 O866 O -0.00773 0.23226 0.74613
 O867 O 0.02365 0.23298 0.74599
 O868 O -0.00801 0.25174 0.76905
 Cu869 Cu 0.00672 0.26393 0.73905
 Cu870 Cu 0.00793 0.24061 0.75904
 C871 C -0.01442 0.26434 0.76436
 C872 C 0.02902 0.23972 0.73403
 C873 C -0.01310 0.23819 0.73373
 C874 C 0.02753 0.26693 0.76412
 O875 O 0.49133 0.27126 0.25497
 O876 O 0.52126 0.24765 0.23413
 O877 O 0.48992 0.24807 0.23569
 O878 O 0.52258 0.27059 0.25387
 O879 O 0.52309 0.25377 0.27311
 O880 O 0.49083 0.23099 0.25469
 O881 O 0.52214 0.23096 0.25346
 O882 O 0.49160 0.25420 0.27401
 Cu883 Cu 0.50622 0.26107 0.24273
 Cu884 Cu 0.50697 0.24081 0.26576
 C885 C 0.48623 0.26670 0.26798
 C886 C 0.52691 0.23533 0.24026
 C887 C 0.48477 0.23568 0.24208
 C888 C 0.52844 0.26600 0.26661
 O889 O 0.97656 0.74001 0.72629
 O890 O 1.00841 0.71931 0.74786
 O891 O 0.97707 0.71903 0.74793
 O892 O 1.00797 0.73974 0.72558
 O893 O 1.00855 0.75847 0.74303
 O894 O 0.97689 0.73815 0.76498
 O895 O 1.00842 0.73818 0.76518
 O896 O 0.97727 0.75911 0.74335
 Cu897 Cu 0.99249 0.72763 0.73518
 Cu898 Cu 0.99280 0.75034 0.75589
 C899 C 0.97150 0.75315 0.73115
 C900 C 1.01389 0.72527 0.76021
 C901 C 0.97155 0.72511 0.76016
 C902 C 1.01364 0.75259 0.73051
 O903 O 0.51494 0.76675 0.24866
 O904 O 0.48400 0.74720 0.27199
 O905 O 0.51541 0.74560 0.27019
 O906 O 0.48373 0.76795 0.25011
 O907 O 0.48150 0.74901 0.23299
 O908 O 0.51383 0.72719 0.25246
 O909 O 0.48247 0.72823 0.25486
 O910 O 0.51286 0.74826 0.23106
 Cu911 Cu 0.49970 0.75871 0.26202
 Cu912 Cu 0.49745 0.73629 0.24112
 C913 C 0.51919 0.76089 0.23586
 C914 C 0.47788 0.73442 0.26742
 C915 C 0.52023 0.73268 0.26460
 C916 C 0.47714 0.76225 0.23815
 O917 O -0.01406 0.73045 0.24744
 O918 O 0.01746 0.75373 0.26661
 O919 O -0.01405 0.75393 0.26644
 O920 O 0.01732 0.73026 0.24770
 O921 O 0.01722 0.74638 0.22789
 O922 O -0.01352 0.77063 0.24711
 O923 O 0.01778 0.77003 0.24694
 O924 O -0.01425 0.74721 0.22815
 Cu925 Cu 0.00165 0.74047 0.25902
 Cu926 Cu 0.00186 0.76018 0.23554
 C927 C -0.01969 0.73498 0.23459
 C928 C 0.02309 0.76580 0.26001
 C929 C -0.01919 0.76630 0.25999
 C930 C 0.02264 0.73425 0.23458
 O931 O 0.48584 0.76154 0.75116
 O932 O 0.51726 0.73843 0.73200
 O933 O 0.48595 0.73907 0.73126
 O934 O 0.51717 0.76086 0.75232
 O935 O 0.51585 0.74378 0.77129
 O936 O 0.48538 0.72145 0.74979
 O937 O 0.51680 0.72135 0.75101
 O938 O 0.48464 0.74411 0.76983
 Cu939 Cu 0.50170 0.75170 0.73980
 Cu940 Cu 0.50059 0.73090 0.76235
 C941 C 0.47976 0.75674 0.76370
 C942 C 0.52248 0.72599 0.73823
 C943 C 0.48028 0.72655 0.73694
 C944 C 0.52174 0.75613 0.76548
 C945 C 0.38820 0.30429 0.32766
 C946 C 0.40122 0.29628 0.32124
 C947 C 0.41301 0.30434 0.31298
 C948 C 0.41177 0.32063 0.31135
 C949 C 0.39883 0.32870 0.31791
 C950 C 0.38684 0.32062 0.32611
 N951 N 0.42600 0.29567 0.30630
 N952 N 0.43605 0.30185 0.29710
 C953 C 0.44895 0.29306 0.29040
 C954 C 0.45791 0.29975 0.27850
 C955 C 0.47013 0.29124 0.27128
 C956 C 0.47374 0.27592 0.27603
 C957 C 0.46497 0.26936 0.28825
 C958 C 0.45261 0.27782 0.29533
 H959 H 0.37906 0.29764 0.33364
 H960 H 0.40201 0.28371 0.32251
 H961 H 0.42082 0.32713 0.30508
 H962 H 0.39831 0.34129 0.31670
 H963 H 0.45523 0.31150 0.27463
 H964 H 0.47672 0.29664 0.26194
 H965 H 0.46744 0.25758 0.29215
 H966 H 0.44589 0.27242 0.30457
 C967 C 0.39460 0.80622 0.83337
 C968 C 0.40764 0.79812 0.82705
 C969 C 0.41089 0.79899 0.81132
 C970 C 0.40091 0.80809 0.80187
 C971 C 0.38779 0.81611 0.80809
 C972 C 0.38428 0.81537 0.82401
 N973 N 0.42420 0.79038 0.80516
 N974 N 0.42864 0.79193 0.79124
 C975 C 0.44168 0.78316 0.78479
 C976 C 0.44685 0.78673 0.76990
 C977 C 0.45934 0.77826 0.76311
 C978 C 0.46678 0.76591 0.77109
 C979 C 0.46156 0.76233 0.78608
 C980 C 0.44915 0.77093 0.79291
 H981 H 0.39313 0.80562 0.84571
 H982 H 0.41534 0.79123 0.83448
 H983 H 0.40305 0.80878 0.78960
 H984 H 0.38009 0.82226 0.80009
 H985 H 0.44115 0.79610 0.76353
 H986 H 0.46304 0.78127 0.75153
 H987 H 0.46708 0.75291 0.79252
 H988 H 0.44530 0.76793 0.80444
 C989 C -0.11444 0.32211 0.80026
 C990 C -0.10138 0.31536 0.79270
 C991 C -0.09008 0.30657 0.80080
 C992 C -0.09199 0.30448 0.81671
 C993 C -0.10502 0.31132 0.82440
 C994 C -0.11651 0.32043 0.81635
 N995 N -0.07678 0.30005 0.79254
 N996 N -0.06665 0.29078 0.79867
 C997 C -0.05342 0.28456 0.79006
 C998 C -0.04394 0.27277 0.79657
 C999 C -0.03121 0.26621 0.78826
 C1000 C -0.02764 0.27151 0.77332
 C1001 C -0.03701 0.28355 0.76691
 C1002 C -0.04983 0.28997 0.77517
 H1003 H -0.12316 0.32815 0.79318
 H1004 H -0.10013 0.31687 0.78037
 H1005 H -0.08329 0.29778 0.82324
 H1006 H -0.10553 0.30992 0.83675
 H1007 H -0.04655 0.26853 0.80804
 H1008 H -0.02416 0.25699 0.79353
 H1009 H -0.03458 0.28786 0.75543
 H1010 H -0.05694 0.29914 0.76990
 C1011 C -0.11768 0.80375 0.31897
 C1012 C -0.10507 0.79581 0.31179
 C1013 C -0.09343 0.80399 0.30345
 C1014 C -0.09458 0.82034 0.30227
 C1015 C -0.10714 0.82835 0.30958
 C1016 C -0.11879 0.82015 0.31811
 N1017 N -0.08051 0.79540 0.29656
 N1018 N -0.07033 0.80162 0.28751
 C1019 C -0.05737 0.79275 0.28098
 C1020 C -0.04818 0.79931 0.26914
 C1021 C -0.03570 0.79077 0.26233
 C1022 C -0.03207 0.77556 0.26744
 C1023 C -0.04114 0.76913 0.27953
 C1024 C -0.05373 0.77760 0.28618
 H1025 H -0.12661 0.79703 0.32515
 H1026 H -0.10435 0.78320 0.31272
 H1027 H -0.08566 0.82692 0.29592
 H1028 H -0.10752 0.84097 0.30883
 H1029 H -0.05083 0.81099 0.26506
 H1030 H -0.02890 0.79606 0.25307
 H1031 H -0.03867 0.75744 0.28369
 H1032 H -0.06059 0.77230 0.29538
 C1033 C 0.60849 0.68777 0.33398
 C1034 C 0.59475 0.69477 0.32773
 C1035 C 0.59216 0.69474 0.31183
 C1036 C 0.60358 0.68765 0.30215
 C1037 C 0.61744 0.68082 0.30835
 C1038 C 0.62009 0.68079 0.32436
 N1039 N 0.57806 0.70221 0.30578
 N1040 N 0.57381 0.70065 0.29179
 C1041 C 0.56000 0.70844 0.28552
 C1042 C 0.55475 0.70440 0.27075
 C1043 C 0.54161 0.71205 0.26409
 C1044 C 0.53361 0.72409 0.27204
 C1045 C 0.53887 0.72810 0.28692
 C1046 C 0.55191 0.72029 0.29365
 H1047 H 0.60995 0.68773 0.34636
 H1048 H 0.58602 0.70017 0.33532
 H1049 H 0.60192 0.68761 0.28978
 H1050 H 0.62622 0.67583 0.30056
 H1051 H 0.56092 0.69533 0.26436
 H1052 H 0.53792 0.70874 0.25258
 H1053 H 0.53295 0.73732 0.29333
 H1054 H 0.55580 0.72366 0.30507
 C1055 C 0.61554 0.19869 0.83045
 C1056 C 0.60226 0.20590 0.82353
 C1057 C 0.59047 0.19693 0.81617
 C1058 C 0.59195 0.18057 0.81601
 C1059 C 0.60514 0.17334 0.82302
 C1060 C 0.61717 0.18232 0.83023
 N1061 N 0.57728 0.20470 0.80878
 N1062 N 0.56717 0.19734 0.80049
 C1063 C 0.55403 0.20502 0.79295
 C1064 C 0.54472 0.19655 0.78245
 C1065 C 0.53216 0.20379 0.77446
 C1066 C 0.52858 0.21965 0.77700
 C1067 C 0.53776 0.22807 0.78780
 C1068 C 0.55044 0.22084 0.79566
 H1069 H 0.62468 0.20597 0.83570
 H1070 H 0.60128 0.21852 0.82370
 H1071 H 0.58292 0.17338 0.81049
 H1072 H 0.60585 0.16071 0.82289
 H1073 H 0.54736 0.18434 0.78029
 H1074 H 0.52528 0.19698 0.76626
 H1075 H 0.53531 0.24031 0.78998
 H1076 H 0.55744 0.22761 0.80378
 C1077 C 1.11328 0.69659 0.82297
 C1078 C 1.10017 0.70363 0.81561
 C1079 C 1.08833 0.69450 0.80854
 C1080 C 1.08955 0.67814 0.80915
 C1081 C 1.10253 0.67107 0.81667
 C1082 C 1.11465 0.68020 0.82357
 N1083 N 1.07527 0.70212 0.80080
 N1084 N 1.06538 0.69472 0.79229
 C1085 C 1.05233 0.70244 0.78463
 C1086 C 1.04350 0.69430 0.77349
 C1087 C 1.03096 0.70166 0.76553
 C1088 C 1.02691 0.71727 0.76879
 C1089 C 1.03562 0.72533 0.78018
 C1090 C 1.04827 0.71803 0.78797
 H1091 H 1.12247 0.70400 0.82793
 H1092 H 1.09937 0.71626 0.81519
 H1093 H 1.08044 0.67082 0.80389
 H1094 H 1.10301 0.65843 0.81717
 H1095 H 1.04649 0.68227 0.77084
 H1096 H 1.02444 0.69513 0.75686
 H1097 H 1.03282 0.73738 0.78292
 H1098 H 1.05487 0.72455 0.79659
 C1099 C 1.11805 0.19802 0.32990
 C1100 C 1.10465 0.20532 0.32330
 C1101 C 1.09398 0.19687 0.31409
 C1102 C 1.09661 0.18085 0.31182
 C1103 C 1.10991 0.17347 0.31845
 C1104 C 1.12113 0.18192 0.32748
 N1105 N 1.08077 0.20485 0.30693
 N1106 N 1.07169 0.19811 0.29716
 C1107 C 1.05858 0.20598 0.28976
 C1108 C 1.05021 0.19824 0.27804
 C1109 C 1.03767 0.20570 0.27022
 C1110 C 1.03318 0.22105 0.27411
 C1111 C 1.04145 0.22873 0.28605
 C1112 C 1.05409 0.22128 0.29378
 H1113 H 1.12632 0.20537 0.33622
 H1114 H 1.10279 0.21772 0.32508
 H1115 H 1.08836 0.17398 0.30494
 H1116 H 1.11097 0.16100 0.31677
 H1117 H 1.05355 0.18643 0.27485
 H1118 H 1.03151 0.19944 0.26112
 H1119 H 1.03829 0.24056 0.28930
 H1120 H 1.06036 0.22750 0.30283
 C1121 C 0.59458 0.32635 0.68442
 C1122 C 0.58182 0.31908 0.69201
 C1123 C 0.58081 0.30278 0.69256
 C1124 C 0.59274 0.29373 0.68535
 C1125 C 0.60563 0.30099 0.67786
 C1126 C 0.60674 0.31740 0.67738
 N1127 N 0.56784 0.29578 0.70091
 N1128 N 0.56512 0.28115 0.70071
 C1129 C 0.55238 0.27436 0.70956
 C1130 C 0.54852 0.25859 0.70742
 C1131 C 0.53633 0.25161 0.71613
 C1132 C 0.52795 0.26030 0.72729
 C1133 C 0.53186 0.27614 0.72941
 C1134 C 0.54390 0.28313 0.72058
 H1135 H 0.59489 0.33899 0.68402
 H1136 H 0.57267 0.32616 0.69750
 H1137 H 0.59227 0.28109 0.68573
 H1138 H 0.61489 0.29375 0.67276
 H1139 H 0.55500 0.25170 0.69900
 H1140 H 0.53362 0.23937 0.71428
 H1141 H 0.52559 0.28316 0.73788
 H1142 H 0.54670 0.29534 0.72251
 C1143 C 0.60479 0.83280 0.18990
 C1144 C 0.59180 0.82607 0.19767
 C1145 C 0.58758 0.81050 0.19507
 C1146 C 0.59653 0.80164 0.18454
 C1147 C 0.60958 0.80826 0.17680
 C1148 C 0.61408 0.82403 0.17930
 N1149 N 0.57442 0.80387 0.20348
 N1150 N 0.56925 0.79013 0.20081
 C1151 C 0.55638 0.78329 0.20945
 C1152 C 0.55060 0.76856 0.20514
 C1153 C 0.53835 0.76135 0.21356
 C1154 C 0.53175 0.76874 0.22657
 C1155 C 0.53751 0.78359 0.23082
 C1156 C 0.54968 0.79083 0.22232
 H1157 H 0.60705 0.84506 0.19194
 H1158 H 0.58491 0.83306 0.20571
 H1159 H 0.59363 0.78948 0.18247
 H1160 H 0.61648 0.80061 0.16942
 H1161 H 0.55568 0.76262 0.19526
 H1162 H 0.53421 0.74991 0.21001
 H1163 H 0.53267 0.78960 0.24076
 H1164 H 0.55398 0.80220 0.22590
 C1165 C 1.11201 0.32227 0.19616
 C1166 C 1.09926 0.31530 0.20403
 C1167 C 1.08914 0.30470 0.19661
 C1168 C 1.09170 0.30130 0.18102
 C1169 C 1.10438 0.30834 0.17302
 C1170 C 1.11496 0.31891 0.18044
 N1171 N 1.07657 0.29743 0.20528
 N1172 N 1.06789 0.28650 0.19984
 C1173 C 1.05546 0.27928 0.20877
 C1174 C 1.04743 0.26625 0.20280
 C1175 C 1.03558 0.25868 0.21144
 C1176 C 1.03147 0.26415 0.22620
 C1177 C 1.03942 0.27737 0.23208
 C1178 C 1.05134 0.28484 0.22348
 H1179 H 1.11992 0.32966 0.20282
 H1180 H 1.09747 0.31792 0.21611
 H1181 H 1.08386 0.29326 0.17497
 H1182 H 1.10541 0.30572 0.16089
 H1183 H 1.05049 0.26185 0.19148
 H1184 H 1.02964 0.24856 0.20657
 H1185 H 1.03654 0.28187 0.24340
 H1186 H 1.05735 0.29492 0.22834
 C1187 C 1.10926 0.81740 0.69490
 C1188 C 1.09640 0.81023 0.70243
 C1189 C 1.08604 0.80029 0.69447
 C1190 C 1.08856 0.79763 0.67873
 C1191 C 1.10136 0.80487 0.67108
 C1192 C 1.11207 0.81494 0.67900
 N1193 N 1.07314 0.79303 0.70272
 N1194 N 1.06404 0.78274 0.69669
 C1195 C 1.05123 0.77560 0.70519
 C1196 C 1.04284 0.76310 0.69862
 C1197 C 1.03057 0.75562 0.70681
 C1198 C 1.02638 0.76068 0.72169
 C1199 C 1.03468 0.77341 0.72816
 C1200 C 1.04703 0.78077 0.72002
 H1201 H 1.11732 0.82430 0.70192
 H1202 H 1.09467 0.81224 0.71462
 H1203 H 1.08056 0.79008 0.67228
 H1204 H 1.10234 0.80291 0.65883
 H1205 H 1.04594 0.75902 0.68720
 H1206 H 1.02437 0.74589 0.70148
 H1207 H 1.03176 0.77757 0.73959
 H1208 H 1.05330 0.79046 0.72533
 C1209 C 0.38278 0.69422 0.67356
 C1210 C 0.39561 0.70159 0.68099
 C1211 C 0.40683 0.69285 0.68935
 C1212 C 0.40517 0.67653 0.69015
 C1213 C 0.39243 0.66911 0.68258
 C1214 C 0.38106 0.67786 0.67420
 N1215 N 0.41978 0.70085 0.69685
 N1216 N 0.42936 0.69401 0.70610
 C1217 C 0.44232 0.70218 0.71342
 C1218 C 0.45082 0.69485 0.72531
 C1219 C 0.46323 0.70272 0.73296
 C1220 C 0.46748 0.71800 0.72863
 C1221 C 0.45912 0.72521 0.71648
 C1222 C 0.44659 0.71741 0.70899
 H1223 H 0.37410 0.70136 0.66746
 H1224 H 0.39674 0.71418 0.68035
 H1225 H 0.41378 0.66952 0.69647
 H1226 H 0.39162 0.65649 0.68311
 H1227 H 0.44766 0.68310 0.72880
 H1228 H 0.46949 0.69684 0.74224
 H1229 H 0.46209 0.73699 0.71291
 H1230 H 0.44026 0.72330 0.69976
 C1231 C 0.38791 0.19875 0.18028
 C1232 C 0.40055 0.20657 0.18753
 C1233 C 0.41064 0.19874 0.19778
 C1234 C 0.40789 0.18288 0.20087
 C1235 C 0.39527 0.17494 0.19359
 C1236 C 0.38506 0.18267 0.18298
 N1237 N 0.42365 0.20718 0.20467
 N1238 N 0.43283 0.20127 0.21486
 C1239 C 0.44589 0.20997 0.22141
 C1240 C 0.45451 0.20359 0.23374
 C1241 C 0.46718 0.21191 0.24048
 C1242 C 0.47153 0.22673 0.23484
 C1243 C 0.46296 0.23302 0.22233
 C1244 C 0.45022 0.22475 0.21571
 H1245 H 0.38012 0.20565 0.17298
 H1246 H 0.40243 0.21887 0.18520
 H1247 H 0.41564 0.17654 0.20872
 H1248 H 0.39415 0.16257 0.19586
 H1249 H 0.45132 0.19220 0.23822
 H1250 H 0.47357 0.20673 0.25007
 H1251 H 0.46599 0.24441 0.21775
 H1252 H 0.44378 0.22992 0.20614
 C1253 C -0.12036 0.70130 0.17685
 C1254 C -0.10742 0.70873 0.18404
 C1255 C -0.09565 0.70002 0.19170
 C1256 C -0.09697 0.68365 0.19217
 C1257 C -0.10984 0.67615 0.18482
 C1258 C -0.12165 0.68489 0.17698
 N1259 N -0.08239 0.70811 0.19858
 N1260 N -0.07212 0.70140 0.20722
 C1261 C -0.05883 0.70981 0.21371
 C1262 C -0.04961 0.70283 0.22532
 C1263 C -0.03682 0.71095 0.23211
 C1264 C -0.03289 0.72613 0.22718
 C1265 C -0.04198 0.73298 0.21531
 C1266 C -0.05489 0.72494 0.20869
 H1267 H -0.12938 0.70843 0.17122
 H1268 H -0.10657 0.72136 0.18367
 H1269 H -0.08794 0.67667 0.19796
 H1270 H -0.11035 0.66351 0.18500
 H1271 H -0.05248 0.69115 0.22926
 H1272 H -0.03000 0.70535 0.24120
 H1273 H -0.03929 0.74467 0.21128
 H1274 H -0.06176 0.73056 0.19966
 C1275 C -0.11300 0.17965 0.69888
 C1276 C -0.09984 0.18627 0.70645
 C1277 C -0.08748 0.19334 0.69809
 C1278 C -0.08832 0.19363 0.68194
 C1279 C -0.10141 0.18684 0.67430
 C1280 C -0.11392 0.17976 0.68269
 N1281 N -0.07431 0.20015 0.70633
 N1282 N -0.06372 0.20858 0.69979
 C1283 C -0.05066 0.21533 0.70826
 C1284 C -0.04127 0.22688 0.70128
 C1285 C -0.02894 0.23423 0.70950
 C1286 C -0.02564 0.22993 0.72481
 C1287 C -0.03480 0.21802 0.73166
 C1288 C -0.04728 0.21085 0.72349
 H1289 H -0.12255 0.17462 0.70573
 H1290 H -0.09936 0.18605 0.71891
 H1291 H -0.07883 0.19897 0.67523
 H1292 H -0.10162 0.18694 0.66185
 H1293 H -0.04373 0.23041 0.68954
 H1294 H -0.02203 0.24332 0.70390
 H1295 H -0.03257 0.21448 0.74344
 H1296 H -0.05433 0.20187 0.72911
 C1297 C 0.32238 0.38164 0.30452
 C1298 C 0.31503 0.39375 0.29632
 C1299 C 0.30822 0.40646 0.30407
 C1300 C 0.30899 0.40704 0.32022
 C1301 C 0.31652 0.39502 0.32844
 C1302 C 0.32327 0.38213 0.32070
 N1303 N 0.30061 0.41855 0.29527
 N1304 N 0.29227 0.42930 0.30152
 C1305 C 0.28474 0.44140 0.29267
 C1306 C 0.27350 0.45119 0.29980
 C1307 C 0.26559 0.46282 0.29138
 C1308 C 0.26901 0.46500 0.27568
 C1309 C 0.28054 0.45535 0.26860
 C1310 C 0.28827 0.44358 0.27699
 H1311 H 0.32716 0.37179 0.29817
 H1312 H 0.31445 0.39314 0.28388
 H1313 H 0.30391 0.41682 0.32646
 H1314 H 0.31722 0.39593 0.34085
 H1315 H 0.27071 0.44965 0.31188
 H1316 H 0.25682 0.47011 0.29718
 H1317 H 0.28340 0.45673 0.25652
 H1318 H 0.29698 0.43620 0.27123
 C1319 C 0.32501 -0.12158 0.80177
 C1320 C 0.31807 -0.10942 0.79336
 C1321 C 0.30821 -0.09844 0.80055
 C1322 C 0.30537 -0.09966 0.81641
 C1323 C 0.31242 -0.11175 0.82495
 C1324 C 0.32245 -0.12303 0.81783
 N1325 N 0.30136 -0.08618 0.79143
 N1326 N 0.29096 -0.07663 0.79664
 C1327 C 0.28442 -0.06440 0.78723
 C1328 C 0.27159 -0.05545 0.79282
 C1329 C 0.26486 -0.04357 0.78380
 C1330 C 0.27101 -0.04036 0.76906
 C1331 C 0.28400 -0.04928 0.76354
 C1332 C 0.29060 -0.06123 0.77250
 H1333 H 0.33182 -0.13013 0.79534
 H1334 H 0.32020 -0.10868 0.78109
 H1335 H 0.29790 -0.09116 0.82226
 H1336 H 0.31037 -0.11173 0.83723
 H1337 H 0.26673 -0.05775 0.80416
 H1338 H 0.25490 -0.03687 0.78839
 H1339 H 0.28900 -0.04711 0.75223
 H1340 H 0.30056 -0.06795 0.76793
 C1341 C 0.82151 0.38220 0.80055
 C1342 C 0.81403 0.39454 0.79290
 C1343 C 0.80465 0.40528 0.80094
 C1344 C 0.80272 0.40356 0.81689
 C1345 C 0.81032 0.39125 0.82468
 C1346 C 0.82005 0.38034 0.81668
 N1347 N 0.79738 0.41780 0.79252
 N1348 N 0.78740 0.42735 0.79844
 C1349 C 0.78054 0.43975 0.78950
 C1350 C 0.76777 0.44846 0.79556
 C1351 C 0.76052 0.46027 0.78682
 C1352 C 0.76610 0.46367 0.77191
 C1353 C 0.77913 0.45510 0.76598
 C1354 C 0.78624 0.44321 0.77465
 H1355 H 0.82793 0.37386 0.79349
 H1356 H 0.81540 0.39564 0.78055
 H1357 H 0.79557 0.41184 0.82337
 H1358 H 0.80902 0.39084 0.83705
 H1359 H 0.76329 0.44594 0.80699
 H1360 H 0.75054 0.46671 0.79173
 H1361 H 0.78370 0.45742 0.75454
 H1362 H 0.79616 0.43671 0.76972
 C1363 C 0.80286 -0.11375 0.32528
 C1364 C 0.79466 -0.10126 0.31853
 C1365 C 0.80216 -0.09193 0.30752
 C1366 C 0.81809 -0.09523 0.30325
 C1367 C 0.82639 -0.10772 0.31000
 C1368 C 0.81897 -0.11726 0.32125
 N1369 N 0.79328 -0.07926 0.30087
 N1370 N 0.79905 -0.07060 0.29034
 C1371 C 0.79002 -0.05798 0.28375
 C1372 C 0.79669 -0.04957 0.27154
 C1373 C 0.78810 -0.03739 0.26465
 C1374 C 0.77264 -0.03335 0.26994
 C1375 C 0.76603 -0.04172 0.28234
 C1376 C 0.77462 -0.05395 0.28917
 H1377 H 0.79612 -0.12096 0.33320
 H1378 H 0.78231 -0.09894 0.32178
 H1379 H 0.82419 -0.08807 0.29480
 H1380 H 0.83883 -0.10935 0.30673
 H1381 H 0.80855 -0.05254 0.26727
 H1382 H 0.79355 -0.03116 0.25514
 H1383 H 0.75415 -0.03891 0.28668
 H1384 H 0.76921 -0.06027 0.29864
 C1385 C 0.30059 0.61503 0.67107
 C1386 C 0.29259 0.60282 0.67853
 C1387 C 0.30123 0.59184 0.68715
 C1388 C 0.31808 0.59301 0.68799
 C1389 C 0.32610 0.60513 0.68044
 C1390 C 0.31744 0.61639 0.67202
 N1391 N 0.29264 0.57984 0.69517
 N1392 N 0.29967 0.57061 0.70449
 C1393 C 0.29128 0.55865 0.71273
 C1394 C 0.29960 0.55015 0.72394
 C1395 C 0.29174 0.53865 0.73251
 C1396 C 0.27539 0.53534 0.72988
 C1397 C 0.26709 0.54375 0.71844
 C1398 C 0.27495 0.55537 0.70997
 H1399 H 0.29353 0.62361 0.66487
 H1400 H 0.27960 0.60207 0.67782
 H1401 H 0.32504 0.58459 0.69448
 H1402 H 0.33910 0.60566 0.68118
 H1403 H 0.31218 0.55257 0.72615
 H1404 H 0.29850 0.53235 0.74118
 H1405 H 0.25450 0.54148 0.71616
 H1406 H 0.26828 0.56178 0.70131
 C1407 C 0.30841 1.11560 0.17600
 C1408 C 0.30058 1.10292 0.18275
 C1409 C 0.30847 1.09355 0.19351
 C1410 C 0.32445 1.09697 0.19748
 C1411 C 0.33240 1.10965 0.19071
 C1412 C 0.32455 1.11928 0.17976
 N1413 N 0.29987 1.08078 0.20025
 N1414 N 0.30585 1.07207 0.21066
 C1415 C 0.29689 1.05943 0.21726
 C1416 C 0.30359 1.05093 0.22944
 C1417 C 0.29492 1.03883 0.23639
 C1418 C 0.27937 1.03498 0.23118
 C1419 C 0.27278 1.04340 0.21879
 C1420 C 0.28143 1.05553 0.21191
 H1421 H 0.30135 1.12282 0.16833
 H1422 H 0.28818 1.10049 0.17974
 H1423 H 0.33086 1.08978 0.20571
 H1424 H 0.34489 1.11139 0.19374
 H1425 H 0.31549 1.05380 0.23366
 H1426 H 0.30035 1.03255 0.24589
 H1427 H 0.26084 1.04075 0.21450
 H1428 H 0.27598 1.06190 0.20248
 C1429 C 0.79964 0.61937 0.16853
 C1430 C 0.79175 0.60653 0.17495
 C1431 C 0.79967 0.59674 0.18532
 C1432 C 0.81574 0.59989 0.18921
 C1433 C 0.82373 0.61271 0.18279
 C1434 C 0.81586 0.62278 0.17227
 N1435 N 0.79108 0.58382 0.19184
 N1436 N 0.79734 0.57493 0.20194
 C1437 C 0.78877 0.56209 0.20860
 C1438 C 0.79608 0.55361 0.22045
 C1439 C 0.78794 0.54130 0.22756
 C1440 C 0.77230 0.53717 0.22284
 C1441 C 0.76506 0.54554 0.21074
 C1442 C 0.77321 0.55794 0.20370
 H1443 H 0.79260 0.62691 0.16115
 H1444 H 0.77929 0.60432 0.17198
 H1445 H 0.82219 0.59239 0.19714
 H1446 H 0.83627 0.61420 0.18574
 H1447 H 0.80807 0.55667 0.22431
 H1448 H 0.79389 0.53506 0.23680
 H1449 H 0.75304 0.54266 0.20686
 H1450 H 0.76732 0.56432 0.19452
 C1451 C 0.82114 1.11886 0.69776
 C1452 C 0.81337 1.10653 0.70516
 C1453 C 0.80559 1.09494 0.69664
 C1454 C 0.80577 1.09569 0.68048
 C1455 C 0.81374 1.10795 0.67301
 C1456 C 0.82151 1.11970 0.68158
 N1457 N 0.79763 1.08260 0.70472
 N1458 N 0.78842 1.07284 0.69806
 C1459 C 0.78063 1.06059 0.70645
 C1460 C 0.76841 1.05199 0.69931
 C1461 C 0.76023 1.04033 0.70740
 C1462 C 0.76434 1.03693 0.72275
 C1463 C 0.77685 1.04536 0.72979
 C1464 C 0.78486 1.05716 0.72176
 H1465 H 0.82665 1.12787 0.70475
 H1466 H 0.81324 1.10611 0.71762
 H1467 H 0.79990 1.08677 0.67365
 H1468 H 0.81396 1.10811 0.66056
 H1469 H 0.76507 1.05450 0.68751
 H1470 H 0.75070 1.03397 0.70165
 H1471 H 0.78027 1.04302 0.74160
 H1472 H 0.79433 1.06359 0.72751
 C1473 C 0.70166 0.61895 0.32180
 C1474 C 0.70923 0.60631 0.31465
 C1475 C 0.70013 0.59448 0.30778
 C1476 C 0.68324 0.59531 0.30827
 C1477 C 0.67562 0.60788 0.31559
 C1478 C 0.68475 0.61988 0.32243
 N1479 N 0.70837 0.58189 0.30028
 N1480 N 0.70107 0.57184 0.29205
 C1481 C 0.70947 0.55936 0.28452
 C1482 C 0.70134 0.55043 0.27350
 C1483 C 0.70938 0.53863 0.26545
 C1484 C 0.72568 0.53540 0.26848
 C1485 C 0.73372 0.54412 0.27984
 C1486 C 0.72572 0.55608 0.28773
 H1487 H 0.70909 0.62811 0.32663
 H1488 H 0.72225 0.60584 0.31427
 H1489 H 0.67595 0.58623 0.30310
 H1490 H 0.66260 0.60810 0.31604
 H1491 H 0.68882 0.55282 0.27095
 H1492 H 0.70284 0.53205 0.25683
 H1493 H 0.74628 0.54192 0.28241
 H1494 H 0.73224 0.56278 0.29627
 C1495 C 0.69642 1.11688 0.83086
 C1496 C 0.70360 1.10436 0.82313
 C1497 C 0.69476 1.09531 0.81277
 C1498 C 0.67845 1.09875 0.81038
 C1499 C 0.67116 1.11119 0.81814
 C1500 C 0.68001 1.12069 0.82848
 N1501 N 0.70264 1.08283 0.80476
 N1502 N 0.69570 1.07506 0.79416
 C1503 C 0.70363 1.06262 0.78614
 C1504 C 0.69583 1.05549 0.77370
 C1505 C 0.70337 1.04349 0.76547
 C1506 C 0.71883 1.03832 0.76966
 C1507 C 0.72657 1.04541 0.78227
 C1508 C 0.71908 1.05748 0.79041
 H1509 H 0.70412 1.12391 0.83812
 H1510 H 0.71624 1.10187 0.82501
 H1511 H 0.67127 1.09175 0.80258
 H1512 H 0.65841 1.11286 0.81630
 H1513 H 0.68393 1.05934 0.77031
 H1514 H 0.69707 1.03825 0.75585
 H1515 H 0.73850 1.04172 0.78578
 H1516 H 0.72535 1.06277 0.80001
 C1517 C 0.16708 0.60726 0.81603
 C1518 C 0.17411 0.59429 0.80895
 C1519 C 0.19039 0.59091 0.81113
 C1520 C 0.19963 0.60059 0.82070
 C1521 C 0.19267 0.61362 0.82780
 C1522 C 0.17623 0.61737 0.82551
 N1523 N 0.19727 0.57787 0.80316
 N1524 N 0.21183 0.57363 0.80505
 C1525 C 0.21864 0.56083 0.79661
 C1526 C 0.23441 0.55609 0.79983
 C1527 C 0.24153 0.54393 0.79147
 C1528 C 0.23296 0.53639 0.77964
 C1529 C 0.21708 0.54112 0.77651
 C1530 C 0.20996 0.55319 0.78493
 H1531 H 0.15430 0.60892 0.81434
 H1532 H 0.16682 0.58680 0.80170
 H1533 H 0.21231 0.59828 0.82246
 H1534 H 0.20056 0.62109 0.83441
 H1535 H 0.24124 0.56191 0.80878
 H1536 H 0.25379 0.54058 0.79414
 H1537 H 0.21014 0.53553 0.76750
 H1538 H 0.19776 0.55666 0.78219
 C1539 C 0.18001 1.11789 0.30655
 C1540 C 0.18665 1.10516 0.29875
 C1541 C 0.19671 1.09464 0.30636
 C1542 C 0.20003 1.09688 0.32203
 C1543 C 0.19333 1.10957 0.32995
 C1544 C 0.18314 1.12041 0.32238
 N1545 N 0.20337 1.08186 0.29784
 N1546 N 0.21362 1.07241 0.30352
 C1547 C 0.22009 1.05976 0.29465
 C1548 C 0.23256 1.05069 0.30082
 C1549 C 0.23939 1.03855 0.29221
 C1550 C 0.23373 1.03521 0.27730
 C1551 C 0.22103 1.04419 0.27125
 C1552 C 0.21431 1.05637 0.27981
 H1553 H 0.17299 1.12602 0.29979
 H1554 H 0.18414 1.10363 0.28661
 H1555 H 0.20767 1.08877 0.32821
 H1556 H 0.19576 1.11037 0.34215
 H1557 H 0.23710 1.05316 0.31225
 H1558 H 0.24913 1.03183 0.29721
 H1559 H 0.21640 1.04194 0.25981
 H1560 H 0.20464 1.06316 0.27479
 C1561 C 0.65747 0.39271 0.68341
 C1562 C 0.66429 0.40564 0.69078
 C1563 C 0.68097 0.40782 0.69076
 C1564 C 0.69083 0.39690 0.68319
 C1565 C 0.68405 0.38390 0.67592
 C1566 C 0.66728 0.38160 0.67600
 N1567 N 0.68761 0.42096 0.69878
 N1568 N 0.70248 0.42440 0.69796
 C1569 C 0.70933 0.43726 0.70624
 C1570 C 0.72531 0.44140 0.70333
 C1571 C 0.73250 0.45369 0.71137
 C1572 C 0.72384 0.46196 0.72265
 C1573 C 0.70777 0.45777 0.72558
 C1574 C 0.70053 0.44556 0.71739
 H1575 H 0.64451 0.39146 0.68347
 H1576 H 0.65656 0.41399 0.69654
 H1577 H 0.70378 0.39827 0.68310
 H1578 H 0.69198 0.37545 0.67055
 H1579 H 0.73222 0.43505 0.69480
 H1580 H 0.74492 0.45658 0.70888
 H1581 H 0.70079 0.46394 0.73417
 H1582 H 0.68816 0.44252 0.71988
 C1583 C 0.69727 -0.11690 0.17591
 C1584 C 0.70546 -0.10417 0.18226
 C1585 C 0.69698 -0.09210 0.18948
 C1586 C 0.68010 -0.09281 0.19018
 C1587 C 0.67187 -0.10547 0.18372
 C1588 C 0.68035 -0.11770 0.17655
 N1589 N 0.70577 -0.07938 0.19617
 N1590 N 0.69889 -0.06901 0.20435
 C1591 C 0.70752 -0.05632 0.21124
 C1592 C 0.69962 -0.04695 0.22203
 C1593 C 0.70782 -0.03492 0.22955
 C1594 C 0.72408 -0.03191 0.22621
 C1595 C 0.73190 -0.04105 0.21504
 C1596 C 0.72372 -0.05325 0.20767
 H1597 H 0.70420 -0.12622 0.17070
 H1598 H 0.71848 -0.10379 0.18171
 H1599 H 0.67326 -0.08357 0.19563
 H1600 H 0.65885 -0.10557 0.18418
 H1601 H 0.68713 -0.04917 0.22484
 H1602 H 0.70144 -0.02803 0.23805
 H1603 H 0.74443 -0.03902 0.21226
 H1604 H 0.73006 -0.06031 0.19929
 C1605 C 0.18591 0.39072 0.16723
 C1606 C 0.19320 0.40396 0.17362
 C1607 C 0.19290 0.40644 0.18954
 C1608 C 0.18538 0.39539 0.19908
 C1609 C 0.17826 0.38209 0.19274
 C1610 C 0.17833 0.37962 0.17672
 N1611 N 0.20046 0.42009 0.19580
 N1612 N 0.19863 0.42400 0.20983
 C1613 C 0.20644 0.43734 0.21642
 C1614 C 0.20233 0.44189 0.23137
 C1615 C 0.21004 0.45455 0.23837
 C1616 C 0.22218 0.46277 0.23054
 C1617 C 0.22623 0.45821 0.21547
 C1618 C 0.21837 0.44565 0.20843
 H1619 H 0.18602 0.38930 0.15484
 H1620 H 0.19897 0.41238 0.16615
 H1621 H 0.18516 0.39695 0.21144
 H1622 H 0.17289 0.37363 0.20043
 H1623 H 0.19318 0.43554 0.23766
 H1624 H 0.20670 0.45773 0.25000
 H1625 H 0.23551 0.46433 0.20913
 H1626 H 0.22178 0.44230 0.19686
 C1627 C 0.17501 -0.12244 0.69405
 C1628 C 0.18250 -0.10985 0.70133
 C1629 C 0.19004 -0.09821 0.69269
 C1630 C 0.18989 -0.09917 0.67655
 C1631 C 0.18218 -0.11167 0.66920
 C1632 C 0.17466 -0.12349 0.67788
 N1633 N 0.19767 -0.08559 0.70067
 N1634 N 0.20694 -0.07586 0.69405
 C1635 C 0.21427 -0.06331 0.70244
 C1636 C 0.22691 -0.05493 0.69572
 C1637 C 0.23466 -0.04303 0.70392
 C1638 C 0.22965 -0.03914 0.71891
 C1639 C 0.21672 -0.04734 0.72547
 C1640 C 0.20916 -0.05938 0.71736
 H1641 H 0.16971 -0.13147 0.70113
 H1642 H 0.18261 -0.10926 0.71378
 H1643 H 0.19556 -0.09021 0.66964
 H1644 H 0.18196 -0.11197 0.65675
 H1645 H 0.23094 -0.05782 0.68421
 H1646 H 0.24455 -0.03686 0.69855
 H1647 H 0.21261 -0.04465 0.73700
 H1648 H 0.19935 -0.06561 0.72277
 C1649 C 0.33622 0.32316 0.40048
 C1650 C 0.32977 0.31650 0.41378
 C1651 C 0.31311 0.31517 0.41558
 C1652 C 0.30286 0.32087 0.40399
 C1653 C 0.30930 0.32740 0.39058
 C1654 C 0.32607 0.32843 0.38857
 N1655 N 0.30700 0.30726 0.42887
 N1656 N 0.29207 0.30692 0.43214
 C1657 C 0.28609 0.29824 0.44502
 C1658 C 0.27002 0.30012 0.44945
 C1659 C 0.26366 0.29131 0.46156
 C1660 C 0.27327 0.28025 0.46927
 C1661 C 0.28944 0.27846 0.46485
 C1662 C 0.29583 0.28743 0.45290
 H1663 H 0.34917 0.32404 0.39946
 H1664 H 0.33778 0.31218 0.42266
 H1665 H 0.28992 0.31987 0.40509
 H1666 H 0.30115 0.33116 0.38158
 H1667 H 0.26237 0.30836 0.44343
 H1668 H 0.25115 0.29290 0.46466
 H1669 H 0.29714 0.27007 0.47060
 H1670 H 0.30827 0.28570 0.44963
 C1671 C 0.33160 0.81655 -0.10353
 C1672 C 0.32472 0.81026 -0.09025
 C1673 C 0.30801 0.80987 -0.08850
 C1674 C 0.29815 0.81601 -0.10019
 C1675 C 0.30501 0.82216 -0.11358
 C1676 C 0.32183 0.82238 -0.11548
 N1677 N 0.30138 0.80266 -0.07506
 N1678 N 0.28649 0.80354 -0.07175
 C1679 C 0.27985 0.79576 -0.05862
 C1680 C 0.26403 0.79911 -0.05423
 C1681 C 0.25702 0.79137 -0.04176
 C1682 C 0.26570 0.77993 -0.03361
 C1683 C 0.28161 0.77660 -0.03801
 C1684 C 0.28867 0.78452 -0.05035
 H1685 H 0.34459 0.81683 -0.10445
 H1686 H 0.33244 0.80560 -0.08131
 H1687 H 0.28517 0.81573 -0.09913
 H1688 H 0.29712 0.82634 -0.12261
 H1689 H 0.25709 0.80771 -0.06054
 H1690 H 0.24471 0.79413 -0.03869
 H1691 H 0.28859 0.76786 -0.03194
 H1692 H 0.30091 0.78166 -0.05359
 C1693 C 0.83589 0.31743 -0.10757
 C1694 C 0.83000 0.31087 -0.09396
 C1695 C 0.81344 0.31024 -0.09119
 C1696 C 0.80274 0.31630 -0.10221
 C1697 C 0.80861 0.32273 -0.11590
 C1698 C 0.82527 0.32333 -0.11878
 N1699 N 0.80782 0.30300 -0.07733
 N1700 N 0.79310 0.30339 -0.07329
 C1701 C 0.78745 0.29567 -0.05969
 C1702 C 0.77150 0.29792 -0.05505
 C1703 C 0.76544 0.29012 -0.04216
 C1704 C 0.77524 0.27975 -0.03378
 C1705 C 0.79131 0.27761 -0.03840
 C1706 C 0.79740 0.28554 -0.05119
 H1707 H 0.84879 0.31794 -0.10926
 H1708 H 0.83837 0.30626 -0.08554
 H1709 H 0.78987 0.31583 -0.10038
 H1710 H 0.80007 0.32693 -0.12437
 H1711 H 0.76371 0.30567 -0.06152
 H1712 H 0.75299 0.29197 -0.03895
 H1713 H 0.79917 0.26972 -0.03217
 H1714 H 0.80977 0.28357 -0.05458
 C1715 C 0.83659 0.81964 0.39644
 C1716 C 0.83046 0.81285 0.40985
 C1717 C 0.81389 0.81282 0.41267
 C1718 C 0.80344 0.81974 0.40194
 C1719 C 0.80951 0.82637 0.38846
 C1720 C 0.82616 0.82636 0.38550
 N1721 N 0.80790 0.80517 0.42615
 N1722 N 0.79321 0.80621 0.43018
 C1723 C 0.78692 0.79799 0.44319
 C1724 C 0.77114 0.80105 0.44793
 C1725 C 0.76434 0.79267 0.46009
 C1726 C 0.77319 0.78090 0.46758
 C1727 C 0.78911 0.77796 0.46290
 C1728 C 0.79595 0.78649 0.45086
 H1729 H 0.84948 0.81962 0.39464
 H1730 H 0.83864 0.80755 0.41804
 H1731 H 0.79055 0.81972 0.40379
 H1732 H 0.80109 0.83113 0.38018
 H1733 H 0.76405 0.80985 0.44207
 H1734 H 0.75203 0.79516 0.46340
 H1735 H 0.79625 0.76900 0.46848
 H1736 H 0.80816 0.78386 0.44735
 C1737 C 0.65823 0.31331 0.60309
 C1738 C 0.66541 0.30611 0.59038
 C1739 C 0.68214 0.30626 0.58860
 C1740 C 0.69169 0.31381 0.59970
 C1741 C 0.68455 0.32089 0.61249
 C1742 C 0.66773 0.32068 0.61439
 N1743 N 0.68917 0.29831 0.57573
 N1744 N 0.70410 0.29932 0.57265
 C1745 C 0.71132 0.29096 0.56014
 C1746 C 0.72738 0.29402 0.55639
 C1747 C 0.73498 0.28572 0.54458
 C1748 C 0.72664 0.27405 0.53643
 C1749 C 0.71047 0.27105 0.54017
 C1750 C 0.70284 0.27948 0.55188
 H1751 H 0.64524 0.31314 0.60404
 H1752 H 0.65792 0.30035 0.58189
 H1753 H 0.70467 0.31398 0.59865
 H1754 H 0.69226 0.32619 0.62108
 H1755 H 0.73405 0.30280 0.56270
 H1756 H 0.74745 0.28827 0.54202
 H1757 H 0.70372 0.26216 0.53408
 H1758 H 0.69042 0.27687 0.55462
 C1759 C 0.67184 0.80564 1.11333
 C1760 C 0.67838 0.79827 1.10043
 C1761 C 0.68615 0.80699 1.08905
 C1762 C 0.68698 0.82332 1.09050
 C1763 C 0.68023 0.83075 1.10330
 C1764 C 0.67271 0.82199 1.11497
 N1765 N 0.69326 0.79893 1.07632
 N1766 N 0.70274 0.80562 1.06690
 C1767 C 0.70983 0.79730 1.05430
 C1768 C 0.72241 0.80422 1.04606
 C1769 C 0.73003 0.79607 1.03415
 C1770 C 0.72497 0.78092 1.03015
 C1771 C 0.71207 0.77416 1.03821
 C1772 C 0.70463 0.78223 1.05023
 H1773 H 0.66644 0.79846 1.12219
 H1774 H 0.67771 0.78566 1.09944
 H1775 H 0.69280 0.83032 1.08175
 H1776 H 0.68086 0.84337 1.10403
 H1777 H 0.72651 0.81584 1.04907
 H1778 H 0.73989 0.80160 1.02811
 H1779 H 0.70792 0.76250 1.03542
 H1780 H 0.69486 0.77666 1.05638
 C1781 C 0.17753 0.29773 1.11899
 C1782 C 0.18439 0.28991 1.10648
 C1783 C 0.19166 0.29830 1.09456
 C1784 C 0.19185 0.31471 1.09517
 C1785 C 0.18482 0.32256 1.10758
 C1786 C 0.17760 0.31417 1.11969
 N1787 N 0.19874 0.28987 1.08203
 N1788 N 0.20745 0.29650 1.07192
 C1789 C 0.21446 0.28798 1.05940
 C1790 C 0.22625 0.29519 1.05038
 C1791 C 0.23375 0.28698 1.03845
 C1792 C 0.22935 0.27146 1.03518
 C1793 C 0.21722 0.26437 1.04403
 C1794 C 0.20991 0.27252 1.05610
 H1795 H 0.17236 0.29087 1.12820
 H1796 H 0.18422 0.27726 1.10616
 H1797 H 0.19730 0.32145 1.08602
 H1798 H 0.18485 0.33522 1.10760
 H1799 H 0.22983 0.30711 1.05279
 H1800 H 0.24301 0.29278 1.03180
 H1801 H 0.21361 0.25242 1.04181
 H1802 H 0.20075 0.26672 1.06286
 C1803 C 0.16300 0.80891 0.60488
 C1804 C 0.16973 0.80221 0.59168
 C1805 C 0.18641 0.80219 0.58952
 C1806 C 0.19638 0.80882 0.60084
 C1807 C 0.18970 0.81537 0.61412
 C1808 C 0.17291 0.81556 0.61629
 N1809 N 0.19295 0.79526 0.57586
 N1810 N 0.20776 0.79661 0.57238
 C1811 C 0.21459 0.78950 0.55896
 C1812 C 0.23054 0.79293 0.55513
 C1813 C 0.23777 0.78595 0.54234
 C1814 C 0.22917 0.77522 0.53323
 C1815 C 0.21310 0.77184 0.53706
 C1816 C 0.20584 0.77897 0.54979
 H1817 H 0.15003 0.80905 0.60605
 H1818 H 0.16192 0.79715 0.58303
 H1819 H 0.20933 0.80880 0.59952
 H1820 H 0.19771 0.82009 0.62278
 H1821 H 0.23742 0.80101 0.56212
 H1822 H 0.25018 0.78876 0.53975
 H1823 H 0.20616 0.76364 0.53026
 H1824 H 0.19349 0.77610 0.55256
 C1825 C 0.33465 0.68067 0.59694
 C1826 C 0.32850 0.68823 0.58394
 C1827 C 0.31188 0.68915 0.58154
 C1828 C 0.30141 0.68221 0.59222
 C1829 C 0.30752 0.67480 0.60531
 C1830 C 0.32422 0.67406 0.60791
 N1831 N 0.30591 0.69778 0.56861
 N1832 N 0.29107 0.69771 0.56498
 C1833 C 0.28481 0.70690 0.55257
 C1834 C 0.26881 0.70471 0.54806
 C1835 C 0.26205 0.71398 0.53650
 C1836 C 0.27117 0.72578 0.52939
 C1837 C 0.28730 0.72788 0.53386
 C1838 C 0.29410 0.71846 0.54530
 H1839 H 0.34758 0.68010 0.59845
 H1840 H 0.33670 0.69351 0.57577
 H1841 H 0.28849 0.68288 0.59068
 H1842 H 0.29913 0.67009 0.61362
 H1843 H 0.26152 0.69588 0.55362
 H1844 H 0.24958 0.71211 0.53336
 H1845 H 0.29463 0.73685 0.52857
 H1846 H 0.30649 0.72042 0.54867
 C1847 C 0.33911 0.18471 1.10593
 C1848 C 0.33262 0.19185 1.09284
 C1849 C 0.31600 0.19183 1.09031
 C1850 C 0.30585 0.18446 1.10101
 C1851 C 0.31229 0.17746 1.11417
 C1852 C 0.32899 0.17755 1.11684
 N1853 N 0.30963 0.19972 1.07710
 N1854 N 0.29484 0.19869 1.07343
 C1855 C 0.28808 0.20690 1.06062
 C1856 C 0.27223 0.20362 1.05629
 C1857 C 0.26502 0.21171 1.04415
 C1858 C 0.27352 0.22342 1.03624
 C1859 C 0.28947 0.22669 1.04059
 C1860 C 0.29674 0.21844 1.05265
 H1861 H 0.35203 0.18479 1.10751
 H1862 H 0.34057 0.19746 1.08467
 H1863 H 0.29293 0.18440 1.09938
 H1864 H 0.30411 0.17234 1.12245
 H1865 H 0.26543 0.19479 1.06239
 H1866 H 0.25270 0.20895 1.04112
 H1867 H 0.29632 0.23563 1.03469
 H1868 H 0.30899 0.22123 1.05586
 C1869 C 0.83161 0.68960 1.09994
 C1870 C 0.82528 0.69707 1.08696
 C1871 C 0.80865 0.69750 1.08447
 C1872 C 0.79834 0.69029 1.09512
 C1873 C 0.80462 0.68296 1.10818
 C1874 C 0.82134 0.68257 1.11079
 N1875 N 0.80249 0.70572 1.07137
 N1876 N 0.78768 0.70516 1.06766
 C1877 C 0.78126 0.71379 1.05495
 C1878 C 0.76533 0.71112 1.05045
 C1879 C 0.75849 0.71969 1.03842
 C1880 C 0.76747 0.73125 1.03079
 C1881 C 0.78350 0.73388 1.03530
 C1882 C 0.79038 0.72517 1.04723
 H1883 H 0.84454 0.68932 1.10147
 H1884 H 0.83335 0.70257 1.07882
 H1885 H 0.78542 0.69059 1.09352
 H1886 H 0.79634 0.67795 1.11642
 H1887 H 0.75817 0.70242 1.05636
 H1888 H 0.74610 0.71743 1.03525
 H1889 H 0.79073 0.74268 1.02961
 H1890 H 0.80271 0.72749 1.05056
 C1891 C 0.83442 0.18725 0.60871
 C1892 C 0.82784 0.19432 0.59563
 C1893 C 0.81117 0.19474 0.59345
 C1894 C 0.80106 0.18807 0.60461
 C1895 C 0.80760 0.18116 0.61779
 C1896 C 0.82438 0.18063 0.62001
 N1897 N 0.80481 0.20224 0.58001
 N1898 N 0.79002 0.20127 0.57632
 C1899 C 0.78352 0.20913 0.56315
 C1900 C 0.76765 0.20600 0.55871
 C1901 C 0.76077 0.21381 0.54620
 C1902 C 0.76962 0.22507 0.53801
 C1903 C 0.78560 0.22813 0.54243
 C1904 C 0.79252 0.22017 0.55485
 H1905 H 0.84739 0.18684 0.60989
 H1906 H 0.83577 0.19941 0.58711
 H1907 H 0.78811 0.18839 0.60325
 H1908 H 0.79948 0.17646 0.62635
 H1909 H 0.76058 0.19754 0.56504
 H1910 H 0.74841 0.21124 0.54312
 H1911 H 0.79273 0.23671 0.53634
 H1912 H 0.80480 0.22283 0.55809
 C1913 C 0.70312 0.68197 0.38350
 C1914 C 0.71094 0.68894 0.39596
 C1915 C 0.70207 0.69596 0.40776
 C1916 C 0.68518 0.69585 0.40703
 C1917 C 0.67732 0.68873 0.39463
 C1918 C 0.68620 0.68171 0.38269
 N1919 N 0.71055 0.70309 0.42028
 N1920 N 0.70347 0.71115 0.43057
 C1921 C 0.71213 0.71819 0.44303
 C1922 C 0.70418 0.72880 0.45263
 C1923 C 0.71245 0.73624 0.46459
 C1924 C 0.72881 0.73299 0.46726
 C1925 C 0.73669 0.72208 0.45778
 C1926 C 0.72846 0.71480 0.44572
 H1927 H 0.71036 0.67695 0.37439
 H1928 H 0.72397 0.68902 0.39637
 H1929 H 0.67806 0.70113 0.41608
 H1930 H 0.66429 0.68855 0.39448
 H1931 H 0.69160 0.73148 0.45070
 H1932 H 0.70603 0.74454 0.47173
 H1933 H 0.74929 0.71936 0.45953
 H1934 H 0.73485 0.70657 0.43849
 C1935 C 0.66943 0.18499 -0.09600
 C1936 C 0.67640 0.19218 -0.08318
 C1937 C 0.69314 0.19297 -0.08168
 C1938 C 0.70292 0.18628 -0.09311
 C1939 C 0.69597 0.17920 -0.10602
 C1940 C 0.67913 0.17859 -0.10769
 N1941 N 0.69988 0.20116 -0.06881
 N1942 N 0.71492 0.20120 -0.06602
 C1943 C 0.72170 0.20998 -0.05356
 C1944 C 0.73806 0.20820 -0.05013
 C1945 C 0.74522 0.21710 -0.03849
 C1946 C 0.73612 0.22812 -0.03019
 C1947 C 0.71965 0.22978 -0.03357
 C1948 C 0.71248 0.22075 -0.04510
 H1949 H 0.65643 0.18449 -0.09678
 H1950 H 0.66874 0.19727 -0.07443
 H1951 H 0.71591 0.18684 -0.09227
 H1952 H 0.70381 0.17462 -0.11489
 H1953 H 0.74531 0.19998 -0.05660
 H1954 H 0.75794 0.21559 -0.03621
 H1955 H 0.71231 0.23814 -0.02736
 H1956 H 0.69981 0.22238 -0.04758
 C1957 C 0.19452 0.67948 -0.11360
 C1958 C 0.20209 0.68675 -0.10116
 C1959 C 0.19304 0.69451 -0.08996
 C1960 C 0.17618 0.69476 -0.09120
 C1961 C 0.16855 0.68732 -0.10356
 C1962 C 0.17763 0.67964 -0.11497
 N1963 N 0.20132 0.70203 -0.07754
 N1964 N 0.19430 0.71096 -0.06793
 C1965 C 0.20297 0.71830 -0.05562
 C1966 C 0.19540 0.72990 -0.04685
 C1967 C 0.20379 0.73761 -0.03511
 C1968 C 0.21987 0.73366 -0.03184
 C1969 C 0.22732 0.72179 -0.04049
 C1970 C 0.21899 0.71424 -0.05231
 H1971 H 0.20194 0.67398 -0.12229
 H1972 H 0.21510 0.68654 -0.10035
 H1973 H 0.16892 0.70061 -0.08259
 H1974 H 0.15553 0.68748 -0.10412
 H1975 H 0.18304 0.73312 -0.04927
 H1976 H 0.19771 0.74667 -0.02862
 H1977 H 0.23970 0.71849 -0.03828
 H1978 H 0.22510 0.70526 -0.05887
 C1979 C 0.20448 0.17994 0.38533
 C1980 C 0.21248 0.18666 0.39785
 C1981 C 0.20378 0.19337 0.40993
 C1982 C 0.18688 0.19308 0.40951
 C1983 C 0.17885 0.18623 0.39707
 C1984 C 0.18755 0.17965 0.38477
 N1985 N 0.21240 0.20051 0.42237
 N1986 N 0.20536 0.20843 0.43279
 C1987 C 0.21405 0.21561 0.44517
 C1988 C 0.20597 0.22596 0.45495
 C1989 C 0.21422 0.23356 0.46682
 C1990 C 0.23071 0.23074 0.46923
 C1991 C 0.23873 0.22009 0.45956
 C1992 C 0.23050 0.21265 0.44758
 H1993 H 0.21158 0.17524 0.37596
 H1994 H 0.22551 0.18685 0.39802
 H1995 H 0.17989 0.19810 0.41879
 H1996 H 0.16582 0.18597 0.39715
 H1997 H 0.19328 0.22832 0.45322
 H1998 H 0.20769 0.24164 0.47411
 H1999 H 0.25144 0.21770 0.46110
 H2000 H 0.23700 0.20464 0.44021
 C2001 C 0.33597 0.39945 0.68716
 C2002 C 0.32980 0.41250 0.69483
 C2003 C 0.31321 0.41523 0.69523
 C2004 C 0.30278 0.40477 0.68775
 C2005 C 0.30891 0.39163 0.68019
 C2006 C 0.32559 0.38875 0.67987
 N2007 N 0.30723 0.42842 0.70364
 N2008 N 0.29246 0.43235 0.70324
 C2009 C 0.28626 0.44522 0.71197
 C2010 C 0.27034 0.44991 0.70957
 C2011 C 0.26374 0.46215 0.71814
 C2012 C 0.27295 0.46980 0.72945
 C2013 C 0.28897 0.46508 0.73185
 C2014 C 0.29561 0.45293 0.72313
 H2015 H 0.34888 0.39774 0.68693
 H2016 H 0.33796 0.42050 0.70052
 H2017 H 0.28988 0.40657 0.68799
 H2018 H 0.30055 0.38352 0.67493
 H2019 H 0.26301 0.44402 0.70104
 H2020 H 0.25134 0.46547 0.71606
 H2021 H 0.29637 0.47076 0.74046
 H2022 H 0.30795 0.44944 0.72524
 C2023 C 0.33445 0.89545 0.18665
 C2024 C 0.32872 0.90879 0.19418
 C2025 C 0.31229 0.91236 0.19406
 C2026 C 0.30156 0.90239 0.18632
 C2027 C 0.30723 0.88897 0.17894
 C2028 C 0.32376 0.88531 0.17900
 N2029 N 0.30673 0.92592 0.20217
 N2030 N 0.29232 0.93081 0.20090
 C2031 C 0.28643 0.94400 0.20934
 C2032 C 0.27106 0.94975 0.20597
 C2033 C 0.26466 0.96223 0.21436
 C2034 C 0.27349 0.96905 0.22644
 C2035 C 0.28899 0.96332 0.22973
 C2036 C 0.29545 0.95095 0.22120
 H2037 H 0.34726 0.89314 0.18674
 H2038 H 0.33711 0.91638 0.20010
 H2039 H 0.28877 0.90483 0.18620
 H2040 H 0.29861 0.88129 0.17344
 H2041 H 0.26398 0.94447 0.19689
 H2042 H 0.25266 0.96632 0.21159
 H2043 H 0.29609 0.96835 0.23894
 H2044 H 0.30734 0.94665 0.22405
 C2045 C 0.83866 0.40186 0.18228
 C2046 C 0.83164 0.41482 0.18942
 C2047 C 0.81506 0.41742 0.18833
 C2048 C 0.80551 0.40693 0.17987
 C2049 C 0.81249 0.39388 0.17283
 C2050 C 0.82915 0.39112 0.17403
 N2051 N 0.80818 0.43049 0.19628
 N2052 N 0.79348 0.43434 0.19463
 C2053 C 0.78639 0.44705 0.20295
 C2054 C 0.77068 0.45165 0.19931
 C2055 C 0.76319 0.46367 0.20753
 C2056 C 0.77125 0.47118 0.21970
 C2057 C 0.78707 0.46659 0.22329
 C2058 C 0.79462 0.45467 0.21495
 H2059 H 0.85156 0.40026 0.18321
 H2060 H 0.83914 0.42285 0.19587
 H2061 H 0.79264 0.40863 0.17895
 H2062 H 0.80477 0.38574 0.16679
 H2063 H 0.76421 0.44584 0.19013
 H2064 H 0.75098 0.46688 0.20451
 H2065 H 0.79360 0.47217 0.23258
 H2066 H 0.80675 0.45126 0.21802
 C2067 C 0.82913 0.89984 0.68777
 C2068 C 0.82230 0.91289 0.69494
 C2069 C 0.80568 0.91549 0.69422
 C2070 C 0.79589 0.90476 0.68633
 C2071 C 0.80268 0.89163 0.67930
 C2072 C 0.81940 0.88902 0.67988
 N2073 N 0.79900 0.92890 0.70177
 N2074 N 0.78435 0.93285 0.69996
 C2075 C 0.77738 0.94598 0.70773
 C2076 C 0.76173 0.95058 0.70385
 C2077 C 0.75437 0.96307 0.71147
 C2078 C 0.76252 0.97107 0.72327
 C2079 C 0.77827 0.96646 0.72712
 C2080 C 0.78568 0.95406 0.71937
 H2081 H 0.84206 0.89832 0.68828
 H2082 H 0.82997 0.92108 0.70100
 H2083 H 0.78299 0.90642 0.68574
 H2084 H 0.79477 0.88340 0.67361
 H2085 H 0.75521 0.94442 0.69492
 H2086 H 0.74221 0.96630 0.70827
 H2087 H 0.78487 0.97240 0.73614
 H2088 H 0.79777 0.95067 0.72261
 C2089 C 0.70096 0.61355 0.67020
 C2090 C 0.70857 0.60049 0.67658
 C2091 C 0.69949 0.58806 0.68235
 C2092 C 0.68262 0.58862 0.68131
 C2093 C 0.67500 0.60159 0.67478
 C2094 C 0.68406 0.61432 0.66932
 N2095 N 0.70761 0.57525 0.68959
 N2096 N 0.69998 0.56484 0.69707
 C2097 C 0.70796 0.55213 0.70463
 C2098 C 0.69913 0.54281 0.71477
 C2099 C 0.70668 0.53085 0.72301
 C2100 C 0.72319 0.52787 0.72104
 C2101 C 0.73195 0.53696 0.71050
 C2102 C 0.72442 0.54909 0.70242
 H2103 H 0.70832 0.62322 0.66632
 H2104 H 0.72158 0.60021 0.67736
 H2105 H 0.67533 0.57908 0.68557
 H2106 H 0.66199 0.60163 0.67400
 H2107 H 0.68643 0.54503 0.71654
 H2108 H 0.69959 0.52398 0.73098
 H2109 H 0.74469 0.53495 0.70877
 H2110 H 0.73147 0.55612 0.69458
 C2111 C 0.69195 0.10772 0.16505
 C2112 C 0.69858 0.09426 0.17163
 C2113 C 0.69706 0.09144 0.18743
 C2114 C 0.68895 0.10236 0.19667
 C2115 C 0.68246 0.11590 0.19015
 C2116 C 0.68380 0.11873 0.17424
 N2117 N 0.70413 0.07762 0.19386
 N2118 N 0.70159 0.07349 0.20772
 C2119 C 0.70903 0.05996 0.21436
 C2120 C 0.70455 0.05529 0.22918
 C2121 C 0.71204 0.04250 0.23622
 C2122 C 0.72432 0.03429 0.22856
 C2123 C 0.72867 0.03891 0.21360
 C2124 C 0.72106 0.05160 0.20653
 H2125 H 0.69303 0.10942 0.15275
 H2126 H 0.70483 0.08593 0.16439
 H2127 H 0.68778 0.10054 0.20895
 H2128 H 0.67659 0.12426 0.19763
 H2129 H 0.69531 0.06167 0.23534
 H2130 H 0.70846 0.03926 0.24777
 H2131 H 0.73805 0.03280 0.20738
 H2132 H 0.72477 0.05501 0.19507
 C2133 C 0.19796 0.61277 0.17475
 C2134 C 0.20556 0.60011 0.18186
 C2135 C 0.19650 0.58838 0.18892
 C2136 C 0.17961 0.58934 0.18865
 C2137 C 0.17197 0.60191 0.18138
 C2138 C 0.18106 0.61382 0.17437
 N2139 N 0.20474 0.57574 0.19633
 N2140 N 0.19748 0.56578 0.20468
 C2141 C 0.20586 0.55320 0.21207
 C2142 C 0.19783 0.54435 0.22321
 C2143 C 0.20587 0.53241 0.23108
 C2144 C 0.22204 0.52896 0.22773
 C2145 C 0.22996 0.53761 0.21627
 C2146 C 0.22198 0.54970 0.20856
 H2147 H 0.20537 0.62185 0.16975
 H2148 H 0.21858 0.59954 0.18205
 H2149 H 0.17234 0.58034 0.19395
 H2150 H 0.15895 0.60220 0.18110
 H2151 H 0.18540 0.54690 0.22599
 H2152 H 0.19942 0.52590 0.23981
 H2153 H 0.24243 0.53525 0.21346
 H2154 H 0.22841 0.55632 0.19993
 C2155 C 0.17273 0.09997 0.67787
 C2156 C 0.17883 0.08630 0.68445
 C2157 C 0.19544 0.08391 0.68553
 C2158 C 0.20598 0.09533 0.67976
 C2159 C 0.19990 0.10910 0.67330
 C2160 C 0.18318 0.11166 0.67241
 N2161 N 0.20122 0.07010 0.69305
 N2162 N 0.21603 0.06630 0.69314
 C2163 C 0.22172 0.05280 0.70126
 C2164 C 0.23772 0.04808 0.69934
 C2165 C 0.24380 0.03531 0.70754
 C2166 C 0.23399 0.02717 0.71800
 C2167 C 0.21789 0.03188 0.71984
 C2168 C 0.21178 0.04453 0.71149
 H2169 H 0.15981 0.10140 0.67709
 H2170 H 0.17059 0.07757 0.68881
 H2171 H 0.21889 0.09377 0.68056
 H2172 H 0.20828 0.11792 0.66939
 H2173 H 0.24552 0.05439 0.69153
 H2174 H 0.25628 0.03202 0.70592
 H2175 H 0.21003 0.02583 0.72779
 H2176 H 0.19938 0.04800 0.71323
 C2177 C 0.29607 0.61624 0.32167
 C2178 C 0.28799 0.60370 0.31485
 C2179 C 0.29661 0.59167 0.30772
 C2180 C 0.31351 0.59225 0.30753
 C2181 C 0.32162 0.60471 0.31448
 C2182 C 0.31300 0.61687 0.32164
 N2183 N 0.28793 0.57899 0.30086
 N2184 N 0.29484 0.56859 0.29272
 C2185 C 0.28615 0.55585 0.28601
 C2186 C 0.29392 0.54624 0.27531
 C2187 C 0.28568 0.53389 0.26831
 C2188 C 0.26953 0.53083 0.27209
 C2189 C 0.26183 0.54035 0.28303
 C2190 C 0.27003 0.55282 0.28987
 H2191 H 0.28903 0.62551 0.32684
 H2192 H 0.27496 0.60340 0.31502
 H2193 H 0.32044 0.58302 0.30217
 H2194 H 0.33465 0.60468 0.31446
 H2195 H 0.30635 0.54844 0.27227
 H2196 H 0.29196 0.52673 0.25997
 H2197 H 0.24939 0.53831 0.28615
 H2198 H 0.26378 0.56005 0.29818
 C2199 C 0.29739 0.10586 0.82598
 C2200 C 0.28992 0.09349 0.81826
 C2201 C 0.29913 0.08217 0.81069
 C2202 C 0.31600 0.08312 0.81119
 C2203 C 0.32350 0.09539 0.81903
 C2204 C 0.31428 0.10701 0.82639
 N2205 N 0.29105 0.07001 0.80242
 N2206 N 0.29854 0.06047 0.79374
 C2207 C 0.29035 0.04841 0.78541
 C2208 C 0.29891 0.03957 0.77461
 C2209 C 0.29115 0.02801 0.76598
 C2210 C 0.27467 0.02500 0.76817
 C2211 C 0.26616 0.03374 0.77920
 C2212 C 0.27391 0.04539 0.78770
 H2213 H 0.28991 0.11471 0.83130
 H2214 H 0.27691 0.09289 0.81793
 H2215 H 0.32337 0.07441 0.80553
 H2216 H 0.33652 0.09576 0.81936
 H2217 H 0.31160 0.04178 0.77276
 H2218 H 0.29804 0.02144 0.75761
 H2219 H 0.25346 0.03172 0.78114
 H2220 H 0.26703 0.05203 0.79603
 C2221 C 0.78951 0.61466 0.82075
 C2222 C 0.78205 0.60178 0.81392
 C2223 C 0.79122 0.59031 0.80652
 C2224 C 0.80806 0.59179 0.80612
 C2225 C 0.81557 0.60462 0.81307
 C2226 C 0.80638 0.61623 0.82045
 N2227 N 0.78313 0.57739 0.79944
 N2228 N 0.79055 0.56736 0.79128
 C2229 C 0.78245 0.55449 0.78414
 C2230 C 0.79094 0.54517 0.77370
 C2231 C 0.78328 0.53283 0.76612
 C2232 C 0.76699 0.52949 0.76901
 C2233 C 0.75856 0.53868 0.77974
 C2234 C 0.76620 0.55113 0.78719
 H2235 H 0.78204 0.62350 0.82608
 H2236 H 0.76906 0.60080 0.81424
 H2237 H 0.81542 0.58302 0.80053
 H2238 H 0.82857 0.60534 0.81281
 H2239 H 0.80347 0.54762 0.77128
 H2240 H 0.79013 0.52593 0.75797
 H2241 H 0.74600 0.53641 0.78218
 H2242 H 0.75941 0.55815 0.79527
 C2243 C 0.81762 0.11848 0.30459
 C2244 C 0.81158 0.10588 0.29615
 C2245 C 0.80488 0.09300 0.30367
 C2246 C 0.80435 0.09280 0.31985
 C2247 C 0.81051 0.10535 0.32832
 C2248 C 0.81723 0.11835 0.32079
 N2249 N 0.79860 0.08039 0.29463
 N2250 N 0.79085 0.06912 0.30064
 C2251 C 0.78443 0.05656 0.29164
 C2252 C 0.77384 0.04605 0.29862
 C2253 C 0.76673 0.03410 0.29003
 C2254 C 0.77028 0.03232 0.27431
 C2255 C 0.78129 0.04262 0.26740
 C2256 C 0.78823 0.05473 0.27597
 H2257 H 0.82242 0.12841 0.29840
 H2258 H 0.81198 0.10620 0.28370
 H2259 H 0.79928 0.08293 0.32593
 H2260 H 0.81023 0.10476 0.34077
 H2261 H 0.77086 0.04731 0.31068
 H2262 H 0.75837 0.02630 0.29570
 H2263 H 0.78422 0.04155 0.25530
 H2264 H 0.79647 0.06268 0.27034
 C2265 C 0.70656 0.38617 0.32160
 C2266 C 0.71342 0.39898 0.31412
 C2267 C 0.70377 0.40948 0.30592
 C2268 C 0.68705 0.40713 0.30538
 C2269 C 0.68014 0.39439 0.31299
 C2270 C 0.68982 0.38371 0.32116
 N2271 N 0.71130 0.42238 0.29830
 N2272 N 0.70370 0.43148 0.28926
 C2273 C 0.71153 0.44435 0.28184
 C2274 C 0.70331 0.45270 0.27042
 C2275 C 0.71082 0.46509 0.26275
 C2276 C 0.72666 0.46944 0.26656
 C2277 C 0.73478 0.46116 0.27820
 C2278 C 0.72732 0.44870 0.28572
 H2279 H 0.71442 0.37806 0.32752
 H2280 H 0.72633 0.40066 0.31457
 H2281 H 0.67933 0.41517 0.29919
 H2282 H 0.66719 0.39299 0.31261
 H2283 H 0.69112 0.44949 0.26734
 H2284 H 0.70424 0.47127 0.25387
 H2285 H 0.74699 0.46418 0.28139
 H2286 H 0.73392 0.44248 0.29456
 C2287 C 0.67852 0.90298 0.83409
 C2288 C 0.68571 0.91620 0.82758
 C2289 C 0.68657 0.91786 0.81158
 C2290 C 0.68028 0.90604 0.80210
 C2291 C 0.67333 0.89274 0.80857
 C2292 C 0.67228 0.89104 0.82465
 N2293 N 0.69415 0.93140 0.80516
 N2294 N 0.69279 0.93466 0.79092
 C2295 C 0.70068 0.94772 0.78395
 C2296 C 0.69653 0.95178 0.76888
 C2297 C 0.70438 0.96403 0.76142
 C2298 C 0.71676 0.97230 0.76887
 C2299 C 0.72088 0.96825 0.78406
 C2300 C 0.71283 0.95611 0.79160
 H2301 H 0.67775 0.90217 0.84650
 H2302 H 0.69052 0.92523 0.83501
 H2303 H 0.68100 0.90694 0.78969
 H2304 H 0.66905 0.88365 0.80093
 H2305 H 0.68723 0.94534 0.76287
 H2306 H 0.70099 0.96680 0.74969
 H2307 H 0.73035 0.97443 0.79009
 H2308 H 0.71629 0.95309 0.80324
 C2309 C 0.18419 0.38379 0.80681
 C2310 C 0.19047 0.39663 0.79893
 C2311 C 0.19752 0.40901 0.80699
 C2312 C 0.19813 0.40849 0.82314
 C2313 C 0.19166 0.39573 0.83107
 C2314 C 0.18462 0.38320 0.82300
 N2315 N 0.20392 0.42192 0.79849
 N2316 N 0.21247 0.43248 0.80478
 C2317 C 0.21877 0.44536 0.79618
 C2318 C 0.23065 0.45477 0.80284
 C2319 C 0.23751 0.46704 0.79450
 C2320 C 0.23235 0.47027 0.77941
 C2321 C 0.22010 0.46107 0.77289
 C2322 C 0.21344 0.44864 0.78116
 H2323 H 0.17916 0.37425 0.80019
 H2324 H 0.19000 0.39688 0.78647
 H2325 H 0.20342 0.41799 0.82963
 H2326 H 0.19197 0.39580 0.84353
 H2327 H 0.23482 0.45239 0.81442
 H2328 H 0.24687 0.47398 0.79985
 H2329 H 0.21592 0.46325 0.76128
 H2330 H 0.20419 0.44159 0.77580
 C2331 C 0.19974 0.88575 0.32345
 C2332 C 0.20779 0.89831 0.31670
 C2333 C 0.19936 0.90940 0.30807
 C2334 C 0.18263 0.90780 0.30621
 C2335 C 0.17450 0.89527 0.31304
 C2336 C 0.18297 0.88412 0.32180
 N2337 N 0.20811 0.92212 0.30142
 N2338 N 0.20161 0.93213 0.29252
 C2339 C 0.21067 0.94478 0.28606
 C2340 C 0.20347 0.95434 0.27495
 C2341 C 0.21216 0.96649 0.26813
 C2342 C 0.22822 0.96937 0.27245
 C2343 C 0.23532 0.95990 0.28381
 C2344 C 0.22666 0.94769 0.29051
 H2345 H 0.20668 0.87723 0.32984
 H2346 H 0.22070 0.89937 0.31815
 H2347 H 0.17584 0.91628 0.29961
 H2348 H 0.16158 0.89445 0.31169
 H2349 H 0.19114 0.95225 0.27144
 H2350 H 0.20634 0.97360 0.25944
 H2351 H 0.24766 0.96179 0.28737
 H2352 H 0.23249 0.94050 0.29913
 C2353 C 0.39617 0.33064 0.68671
 C2354 C 0.40874 0.32284 0.69414
 C2355 C 0.40900 0.30652 0.69478
 C2356 C 0.39654 0.29798 0.68779
 C2357 C 0.38386 0.30577 0.68046
 C2358 C 0.38347 0.32221 0.67991
 N2359 N 0.42181 0.29898 0.70295
 N2360 N 0.42379 0.28423 0.70282
 C2361 C 0.43641 0.27688 0.71145
 C2362 C 0.43942 0.26094 0.70928
 C2363 C 0.45154 0.25343 0.71768
 C2364 C 0.46071 0.26175 0.72856
 C2365 C 0.45760 0.27775 0.73074
 C2366 C 0.44562 0.28528 0.72221
 H2367 H 0.39643 0.34328 0.68626
 H2368 H 0.41831 0.32953 0.69945
 H2369 H 0.39644 0.28534 0.68823
 H2370 H 0.37418 0.29893 0.67554
 H2371 H 0.43237 0.25433 0.70106
 H2372 H 0.45361 0.24107 0.71578
 H2373 H 0.46448 0.28449 0.73900
 H2374 H 0.44347 0.29760 0.72415
 C2375 C 0.37882 0.80000 0.17783
 C2376 C 0.39129 0.79157 0.18479
 C2377 C 0.40398 0.79936 0.19209
 C2378 C 0.40423 0.81577 0.19212
 C2379 C 0.39188 0.82422 0.18503
 C2380 C 0.37893 0.81646 0.17790
 N2381 N 0.41638 0.79038 0.19942
 N2382 N 0.42698 0.79671 0.20799
 C2383 C 0.43949 0.78786 0.21529
 C2384 C 0.44930 0.79523 0.22620
 C2385 C 0.46150 0.78691 0.23368
 C2386 C 0.46424 0.77108 0.23021
 C2387 C 0.45447 0.76374 0.21912
 C2388 C 0.44214 0.77203 0.21178
 H2389 H 0.36895 0.79363 0.17266
 H2390 H 0.39094 0.77891 0.18470
 H2391 H 0.41401 0.82207 0.19755
 H2392 H 0.39256 0.83686 0.18503
 H2393 H 0.44739 0.80743 0.22898
 H2394 H 0.46886 0.79291 0.24212
 H2395 H 0.45626 0.75155 0.21622
 H2396 H 0.43475 0.76609 0.20334
 C2397 C 0.89959 0.33367 0.18686
 C2398 C 0.91175 0.32586 0.19491
 C2399 C 0.91241 0.30953 0.19496
 C2400 C 0.90067 0.30100 0.18688
 C2401 C 0.88841 0.30879 0.17894
 C2402 C 0.88772 0.32523 0.17882
 N2403 N 0.92500 0.30193 0.20338
 N2404 N 0.92739 0.28725 0.20259
 C2405 C 0.93986 0.27969 0.21122
 C2406 C 0.94325 0.26394 0.20833
 C2407 C 0.95540 0.25625 0.21651
 C2408 C 0.96424 0.26418 0.22790
 C2409 C 0.96071 0.27997 0.23088
 C2410 C 0.94869 0.28769 0.22256
 H2411 H 0.89961 0.34632 0.18681
 H2412 H 0.92075 0.33255 0.20106
 H2413 H 0.90087 0.28835 0.18685
 H2414 H 0.87933 0.30192 0.17310
 H2415 H 0.93650 0.25765 0.19964
 H2416 H 0.95778 0.24407 0.21399
 H2417 H 0.96733 0.28641 0.23955
 H2418 H 0.94625 0.29987 0.22506
 C2419 C 0.89120 0.83172 0.68733
 C2420 C 0.90401 0.82379 0.69426
 C2421 C 0.90482 0.80747 0.69375
 C2422 C 0.89255 0.79907 0.68631
 C2423 C 0.87964 0.80697 0.67951
 C2424 C 0.87882 0.82341 0.67989
 N2425 N 0.91805 0.79973 0.70109
 N2426 N 0.92065 0.78515 0.69954
 C2427 C 0.93369 0.77747 0.70726
 C2428 C 0.93713 0.76186 0.70370
 C2429 C 0.94959 0.75397 0.71126
 C2430 C 0.95869 0.76156 0.72269
 C2431 C 0.95522 0.77725 0.72621
 C2432 C 0.94289 0.78516 0.71853
 H2433 H 0.89112 0.84437 0.68763
 H2434 H 0.91341 0.83038 0.69996
 H2435 H 0.89284 0.78643 0.68591
 H2436 H 0.87018 0.80018 0.67415
 H2437 H 0.93010 0.75580 0.69506
 H2438 H 0.95194 0.74188 0.70834
 H2439 H 0.96204 0.78343 0.73493
 H2440 H 0.94043 0.79721 0.72153
 C2441 C 0.62903 0.30228 0.32359
 C2442 C 0.61610 0.29427 0.31697
 C2443 C 0.60399 0.30242 0.30918
 C2444 C 0.60485 0.31878 0.30815
 C2445 C 0.61768 0.32684 0.31491
 C2446 C 0.62995 0.31869 0.32270
 N2447 N 0.59093 0.29381 0.30253
 N2448 N 0.58063 0.30015 0.29365
 C2449 C 0.56750 0.29149 0.28719
 C2450 C 0.55817 0.29834 0.27560
 C2451 C 0.54546 0.29008 0.26888
 C2452 C 0.54173 0.27487 0.27385
 C2453 C 0.55097 0.26811 0.28566
 C2454 C 0.56381 0.27630 0.29222
 H2455 H 0.63839 0.29560 0.32924
 H2456 H 0.61559 0.28165 0.31780
 H2457 H 0.59554 0.32535 0.30228
 H2458 H 0.61784 0.33947 0.31423
 H2459 H 0.56087 0.31005 0.27166
 H2460 H 0.53851 0.29562 0.25984
 H2461 H 0.54842 0.25640 0.28971
 H2462 H 0.57081 0.27078 0.30123
 C2463 C 0.61428 0.82502 0.80234
 C2464 C 0.60240 0.81696 0.79417
 C2465 C 0.59068 0.80835 0.80198
 C2466 C 0.59078 0.80807 0.81815
 C2467 C 0.60256 0.81626 0.82635
 C2468 C 0.61453 0.82476 0.81854
 N2469 N 0.57889 0.79996 0.79324
 N2470 N 0.56917 0.79040 0.79948
 C2471 C 0.55734 0.78205 0.79075
 C2472 C 0.54844 0.77030 0.79798
 C2473 C 0.53693 0.76181 0.78976
 C2474 C 0.53399 0.76508 0.77415
 C2475 C 0.54285 0.77699 0.76693
 C2476 C 0.55449 0.78537 0.77513
 H2477 H 0.62345 0.83120 0.79593
 H2478 H 0.60246 0.81723 0.78171
 H2479 H 0.58175 0.80160 0.82445
 H2480 H 0.60222 0.81602 0.83880
 H2481 H 0.55052 0.76766 0.81001
 H2482 H 0.53025 0.75275 0.79567
 H2483 H 0.54088 0.77977 0.75492
 H2484 H 0.56119 0.79444 0.76930
 C2485 C 0.12238 0.30378 0.82917
 C2486 C 0.10977 0.29560 0.82220
 C2487 C 0.09762 0.30363 0.81435
 C2488 C 0.09795 0.32004 0.81387
 C2489 C 0.11046 0.32825 0.82098
 C2490 C 0.12294 0.32021 0.82857
 N2491 N 0.08534 0.29484 0.80667
 N2492 N 0.07522 0.30126 0.79767
 C2493 C 0.06308 0.29250 0.78978
 C2494 C 0.05376 0.30000 0.77859
 C2495 C 0.04219 0.29170 0.77027
 C2496 C 0.03962 0.27572 0.77314
 C2497 C 0.04881 0.26825 0.78458
 C2498 C 0.06051 0.27655 0.79278
 H2499 H 0.13190 0.29718 0.83467
 H2500 H 0.10967 0.28295 0.82260
 H2501 H 0.08860 0.32652 0.80797
 H2502 H 0.11036 0.34090 0.82052
 H2503 H 0.05562 0.31229 0.77619
 H2504 H 0.03524 0.29781 0.76159
 H2505 H 0.04712 0.25596 0.78704
 H2506 H 0.06756 0.27050 0.80142
 C2507 C 0.12063 0.80380 0.32055
 C2508 C 0.10818 0.79566 0.31331
 C2509 C 0.09661 0.80362 0.30464
 C2510 C 0.09763 0.81996 0.30324
 C2511 C 0.11000 0.82817 0.31062
 C2512 C 0.12163 0.82019 0.31942
 N2513 N 0.08390 0.79486 0.29760
 N2514 N 0.07398 0.80093 0.28815
 C2515 C 0.06119 0.79202 0.28140
 C2516 C 0.05233 0.79850 0.26927
 C2517 C 0.03994 0.78999 0.26229
 C2518 C 0.03604 0.77491 0.26752
 C2519 C 0.04480 0.76853 0.27987
 C2520 C 0.05732 0.77696 0.28669
 H2521 H 0.12954 0.79723 0.32695
 H2522 H 0.10757 0.78306 0.31441
 H2523 H 0.08875 0.82639 0.29666
 H2524 H 0.11026 0.84078 0.30968
 H2525 H 0.05515 0.81011 0.26512
 H2526 H 0.03337 0.79525 0.25284
 H2527 H 0.04211 0.75692 0.28413
 H2528 H 0.06394 0.77173 0.29612
 C2529 C 0.60527 0.67986 0.66456
 C2530 C 0.59181 0.68638 0.67175
 C2531 C 0.59031 0.68596 0.68777
 C2532 C 0.60239 0.67876 0.69661
 C2533 C 0.61594 0.67235 0.68945
 C2534 C 0.61760 0.67292 0.67333
 N2535 N 0.57674 0.69345 0.69477
 N2536 N 0.57374 0.69234 0.70909
 C2537 C 0.56050 0.70044 0.71602
 C2538 C 0.55654 0.69729 0.73136
 C2539 C 0.54399 0.70539 0.73856
 C2540 C 0.53536 0.71696 0.73054
 C2541 C 0.53934 0.72004 0.71511
 C2542 C 0.55174 0.71181 0.70789
 H2543 H 0.60601 0.68026 0.65213
 H2544 H 0.58256 0.69188 0.66483
 H2545 H 0.60154 0.67840 0.70904
 H2546 H 0.62530 0.66732 0.69657
 H2547 H 0.56324 0.68859 0.73777
 H2548 H 0.54124 0.70280 0.75047
 H2549 H 0.53287 0.72884 0.70861
 H2550 H 0.55462 0.71451 0.69604
 C2551 C 0.60868 0.18808 0.16558
 C2552 C 0.59542 0.19524 0.17256
 C2553 C 0.59333 0.19446 0.18852
 C2554 C 0.60466 0.18634 0.19748
 C2555 C 0.61798 0.17930 0.19056
 C2556 C 0.62020 0.18011 0.17452
 N2557 N 0.57996 0.20239 0.19541
 N2558 N 0.57668 0.20095 0.20964
 C2559 C 0.56373 0.20926 0.21681
 C2560 C 0.55996 0.20593 0.23215
 C2561 C 0.54780 0.21421 0.23971
 C2562 C 0.53931 0.22612 0.23206
 C2563 C 0.54305 0.22938 0.21660
 C2564 C 0.55512 0.22097 0.20901
 H2565 H 0.60990 0.18876 0.15320
 H2566 H 0.58676 0.20146 0.16552
 H2567 H 0.60339 0.18568 0.20987
 H2568 H 0.62675 0.17354 0.19783
 H2569 H 0.56655 0.19695 0.23829
 H2570 H 0.54525 0.21145 0.25163
 H2571 H 0.53671 0.23846 0.21038
 H2572 H 0.55787 0.22380 0.19716
 C2573 C 0.10385 0.68079 0.16350
 C2574 C 0.09072 0.68849 0.17012
 C2575 C 0.08938 0.68971 0.18611
 C2576 C 0.10132 0.68303 0.19550
 C2577 C 0.11456 0.67546 0.18890
 C2578 C 0.11604 0.67432 0.17280
 N2579 N 0.07606 0.69816 0.19250
 N2580 N 0.07315 0.69826 0.20689
 C2581 C 0.06016 0.70709 0.21339
 C2582 C 0.05635 0.70496 0.22892
 C2583 C 0.04400 0.71362 0.23574
 C2584 C 0.03537 0.72477 0.22716
 C2585 C 0.03923 0.72691 0.21155
 C2586 C 0.05147 0.71808 0.20468
 H2587 H 0.10444 0.67990 0.15108
 H2588 H 0.08158 0.69355 0.16276
 H2589 H 0.10061 0.68392 0.20791
 H2590 H 0.12382 0.67086 0.19641
 H2591 H 0.06300 0.69656 0.23576
 H2592 H 0.04137 0.71174 0.24781
 H2593 H 0.03279 0.73539 0.20463
 H2594 H 0.05426 0.72000 0.19266
 C2595 C 0.11008 0.16656 0.68291
 C2596 C 0.09710 0.17355 0.69048
 C2597 C 0.09615 0.18982 0.69181
 C2598 C 0.10842 0.19910 0.68551
 C2599 C 0.12150 0.19213 0.67809
 C2600 C 0.12251 0.17577 0.67668
 N2601 N 0.08283 0.19659 0.69987
 N2602 N 0.08014 0.21124 0.69980
 C2603 C 0.06710 0.21804 0.70824
 C2604 C 0.06333 0.23381 0.70591
 C2605 C 0.05081 0.24085 0.71414
 C2606 C 0.04202 0.23224 0.72504
 C2607 C 0.04587 0.21641 0.72740
 C2608 C 0.05824 0.20934 0.71901
 H2609 H 0.11032 0.15396 0.68184
 H2610 H 0.08770 0.16627 0.69529
 H2611 H 0.10802 0.21171 0.68652
 H2612 H 0.13098 0.19957 0.67372
 H2613 H 0.07010 0.24064 0.69767
 H2614 H 0.04817 0.25307 0.71212
 H2615 H 0.03929 0.20946 0.73569
 H2616 H 0.06099 0.19715 0.72107
 C2617 C 0.39211 0.66396 0.31540
 C2618 C 0.40561 0.67028 0.30809
 C2619 C 0.40851 0.68637 0.30855
 C2620 C 0.39774 0.69615 0.31648
 C2621 C 0.38414 0.68988 0.32366
 C2622 C 0.38112 0.67370 0.32317
 N2623 N 0.42219 0.69253 0.30055
 N2624 N 0.42650 0.70673 0.30191
 C2625 C 0.43982 0.71311 0.29355
 C2626 C 0.44500 0.72826 0.29699
 C2627 C 0.45759 0.73507 0.28871
 C2628 C 0.46510 0.72686 0.27666
 C2629 C 0.45994 0.71159 0.27328
 C2630 C 0.44745 0.70473 0.28169
 H2631 H 0.39033 0.65144 0.31500
 H2632 H 0.41383 0.66262 0.30205
 H2633 H 0.39965 0.70866 0.31689
 H2634 H 0.37582 0.69776 0.32929
 H2635 H 0.43919 0.73485 0.30607
 H2636 H 0.46123 0.74687 0.29157
 H2637 H 0.46550 0.70497 0.26408
 H2638 H 0.44361 0.69301 0.27877
 C2639 C 0.39057 0.15800 0.82070
 C2640 C 0.40385 0.16464 0.81336
 C2641 C 0.40567 0.18087 0.81278
 C2642 C 0.39405 0.19048 0.81976
 C2643 C 0.38066 0.18386 0.82699
 C2644 C 0.37870 0.16753 0.82746
 N2645 N 0.41911 0.18725 0.80463
 N2646 N 0.42244 0.20177 0.80485
 C2647 C 0.43558 0.20808 0.79619
 C2648 C 0.43990 0.22373 0.79838
 C2649 C 0.45239 0.23034 0.78979
 C2650 C 0.46062 0.22142 0.77870
 C2651 C 0.45627 0.20569 0.77656
 C2652 C 0.44392 0.19905 0.78528
 H2653 H 0.38961 0.14539 0.82110
 H2654 H 0.41275 0.15712 0.80806
 H2655 H 0.39515 0.20308 0.81936
 H2656 H 0.37165 0.19155 0.83188
 H2657 H 0.43354 0.23082 0.80672
 H2658 H 0.45541 0.24251 0.79166
 H2659 H 0.46241 0.19851 0.76813
 H2660 H 0.44075 0.18694 0.78333
 C2661 C 0.87060 0.69513 0.81979
 C2662 C 0.88387 0.70237 0.81298
 C2663 C 0.89584 0.69346 0.80585
 C2664 C 0.89448 0.67708 0.80569
 C2665 C 0.88129 0.66980 0.81263
 C2666 C 0.86916 0.67873 0.81975
 N2667 N 0.90918 0.70130 0.79884
 N2668 N 0.91956 0.69407 0.79075
 C2669 C 0.93286 0.70193 0.78370
 C2670 C 0.94229 0.69382 0.77303
 C2671 C 0.95497 0.70130 0.76548
 C2672 C 0.95858 0.71702 0.76867
 C2673 C 0.94934 0.72506 0.77969
 C2674 C 0.93652 0.71761 0.78708
 H2675 H 0.86138 0.70239 0.82493
 H2676 H 0.88475 0.71500 0.81312
 H2677 H 0.90364 0.66993 0.80032
 H2678 H 0.88070 0.65716 0.81260
 H2679 H 0.93962 0.68173 0.77037
 H2680 H 0.96191 0.69478 0.75711
 H2681 H 0.95181 0.73719 0.78236
 H2682 H 0.92944 0.72410 0.79536
 C2683 C 0.87999 0.19723 0.32999
 C2684 C 0.89322 0.20490 0.32352
 C2685 C 0.90545 0.19637 0.31631
 C2686 C 0.90460 0.17997 0.31608
 C2687 C 0.89149 0.17229 0.32267
 C2688 C 0.87887 0.18082 0.32947
 N2689 N 0.91830 0.20458 0.30888
 N2690 N 0.92831 0.19757 0.30021
 C2691 C 0.94105 0.20557 0.29243
 C2692 C 0.95001 0.19745 0.28140
 C2693 C 0.96207 0.20503 0.27308
 C2694 C 0.96552 0.22087 0.27582
 C2695 C 0.95674 0.22893 0.28716
 C2696 C 0.94452 0.22137 0.29535
 H2697 H 0.87042 0.20418 0.33497
 H2698 H 0.89373 0.21755 0.32376
 H2699 H 0.91400 0.17310 0.31072
 H2700 H 0.89120 0.15964 0.32237
 H2701 H 0.94744 0.18527 0.27908
 H2702 H 0.96868 0.19848 0.26448
 H2703 H 0.95911 0.24115 0.28951
 H2704 H 0.93778 0.22787 0.30387
 C2705 C 0.30423 0.32904 0.61671
 C2706 C 0.29644 0.32239 0.60405
 C2707 C 0.30525 0.31453 0.59273
 C2708 C 0.32208 0.31363 0.59404
 C2709 C 0.32992 0.32041 0.60664
 C2710 C 0.32108 0.32810 0.61821
 N2711 N 0.29678 0.30741 0.58019
 N2712 N 0.30374 0.29863 0.57041
 C2713 C 0.29513 0.29143 0.55799
 C2714 C 0.30302 0.28038 0.54882
 C2715 C 0.29479 0.27272 0.53696
 C2716 C 0.27852 0.27615 0.53398
 C2717 C 0.27072 0.28748 0.54304
 C2718 C 0.27892 0.29500 0.55498
 H2719 H 0.29701 0.33463 0.62551
 H2720 H 0.28346 0.32312 0.60318
 H2721 H 0.32916 0.30771 0.58536
 H2722 H 0.34292 0.31969 0.60728
 H2723 H 0.31552 0.27753 0.55101
 H2724 H 0.30116 0.26410 0.53016
 H2725 H 0.25819 0.29036 0.54105
 H2726 H 0.27256 0.30354 0.56188
 C2727 C 0.29972 0.82782 0.11520
 C2728 C 0.29146 0.82194 0.10244
 C2729 C 0.29972 0.81397 0.09082
 C2730 C 0.31649 0.81212 0.09199
 C2731 C 0.32481 0.81813 0.10470
 C2732 C 0.31651 0.82600 0.11651
 N2733 N 0.29075 0.80769 0.07816
 N2734 N 0.29715 0.79889 0.06805
 C2735 C 0.28807 0.79245 0.05554
 C2736 C 0.29523 0.78111 0.04618
 C2737 C 0.28647 0.77402 0.03435
 C2738 C 0.27039 0.77832 0.03154
 C2739 C 0.26334 0.79003 0.04069
 C2740 C 0.27207 0.79698 0.05265
 H2741 H 0.29288 0.83354 0.12418
 H2742 H 0.27853 0.82337 0.10170
 H2743 H 0.32316 0.80606 0.08310
 H2744 H 0.33775 0.81671 0.10522
 H2745 H 0.30755 0.77754 0.04827
 H2746 H 0.29227 0.76509 0.02746
 H2747 H 0.25097 0.79357 0.03883
 H2748 H 0.26628 0.80578 0.05970
 C2749 C 0.84205 0.32352 0.10103
 C2750 C 0.83568 0.31636 0.08790
 C2751 C 0.81910 0.31658 0.08512
 C2752 C 0.80889 0.32426 0.09557
 C2753 C 0.81522 0.33132 0.10877
 C2754 C 0.83187 0.33093 0.11174
 N2755 N 0.81288 0.30841 0.07200
 N2756 N 0.79811 0.30914 0.06817
 C2757 C 0.79169 0.30045 0.05548
 C2758 C 0.77566 0.30289 0.05114
 C2759 C 0.76876 0.29406 0.03932
 C2760 C 0.77777 0.28247 0.03172
 C2761 C 0.79394 0.28017 0.03597
 C2762 C 0.80087 0.28912 0.04771
 H2763 H 0.85494 0.32321 0.10282
 H2764 H 0.84368 0.31050 0.07992
 H2765 H 0.79600 0.32450 0.09374
 H2766 H 0.80701 0.33669 0.11687
 H2767 H 0.76845 0.31155 0.05707
 H2768 H 0.75627 0.29608 0.03636
 H2769 H 0.80120 0.27136 0.03032
 H2770 H 0.81327 0.28698 0.05090
 C2771 C 0.80112 0.83054 0.61526
 C2772 C 0.79362 0.82388 0.60245
 C2773 C 0.80269 0.81616 0.59124
 C2774 C 0.81951 0.81543 0.59278
 C2775 C 0.82707 0.82224 0.60552
 C2776 C 0.81795 0.82977 0.61699
 N2777 N 0.79449 0.80899 0.57858
 N2778 N 0.80160 0.80012 0.56899
 C2779 C 0.79314 0.79292 0.55649
 C2780 C 0.80098 0.78160 0.54760
 C2781 C 0.79282 0.77394 0.53570
 C2782 C 0.77669 0.77766 0.53239
 C2783 C 0.76895 0.78925 0.54115
 C2784 C 0.77706 0.79677 0.55314
 H2785 H 0.79368 0.83597 0.62397
 H2786 H 0.78064 0.82447 0.60139
 H2787 H 0.82679 0.80962 0.58418
 H2788 H 0.84006 0.82165 0.60635
 H2789 H 0.81337 0.77855 0.55006
 H2790 H 0.79913 0.76511 0.52911
 H2791 H 0.75653 0.79236 0.53890
 H2792 H 0.77075 0.80553 0.55981
 C2793 C 0.31101 0.66590 0.39637
 C2794 C 0.30371 0.67285 0.40915
 C2795 C 0.30433 0.68905 0.41122
 C2796 C 0.31246 0.69829 0.40035
 C2797 C 0.31962 0.69138 0.38747
 C2798 C 0.31891 0.67509 0.38526
 N2799 N 0.29632 0.69586 0.42419
 N2800 N 0.29804 0.71021 0.42770
 C2801 C 0.28975 0.71727 0.44037
 C2802 C 0.29419 0.73231 0.44500
 C2803 C 0.28627 0.73965 0.45719
 C2804 C 0.27353 0.73213 0.46484
 C2805 C 0.26898 0.71705 0.46010
 C2806 C 0.27710 0.70962 0.44802
 H2807 H 0.31046 0.65331 0.39519
 H2808 H 0.29753 0.66560 0.41747
 H2809 H 0.31301 0.71086 0.40164
 H2810 H 0.32534 0.69885 0.37905
 H2811 H 0.30387 0.73834 0.43915
 H2812 H 0.29000 0.75130 0.46052
 H2813 H 0.25924 0.71096 0.46579
 H2814 H 0.27338 0.69801 0.44457
 C2815 C 0.29819 0.16791 0.88944
 C2816 C 0.29077 0.17518 0.90197
 C2817 C 0.30001 0.18239 0.91339
 C2818 C 0.31688 0.18202 0.91232
 C2819 C 0.32434 0.17458 0.89988
 C2820 C 0.31508 0.16751 0.88822
 N2821 N 0.29193 0.19014 0.92579
 N2822 N 0.29933 0.19875 0.93543
 C2823 C 0.29107 0.20651 0.94772
 C2824 C 0.29927 0.21778 0.95636
 C2825 C 0.29136 0.22601 0.96803
 C2826 C 0.27511 0.22291 0.97139
 C2827 C 0.26700 0.21133 0.96290
 C2828 C 0.27488 0.20327 0.95111
 H2829 H 0.29065 0.16288 0.88056
 H2830 H 0.27776 0.17544 0.90264
 H2831 H 0.32428 0.18743 0.92110
 H2832 H 0.33736 0.17428 0.89946
 H2833 H 0.31176 0.22037 0.95387
 H2834 H 0.29795 0.23480 0.97441
 H2835 H 0.25449 0.20870 0.96520
 H2836 H 0.26830 0.19455 0.94463
 C2837 C 0.79112 0.67654 0.88411
 C2838 C 0.78399 0.68375 0.89682
 C2839 C 0.79347 0.69107 0.90798
 C2840 C 0.81031 0.69084 0.90650
 C2841 C 0.81749 0.68348 0.89388
 C2842 C 0.80797 0.67636 0.88244
 N2843 N 0.78568 0.69887 0.92050
 N2844 N 0.79331 0.70746 0.92998
 C2845 C 0.78530 0.71534 0.94234
 C2846 C 0.79381 0.72637 0.95101
 C2847 C 0.78613 0.73473 0.96273
 C2848 C 0.76981 0.73202 0.96608
 C2849 C 0.76139 0.72070 0.95755
 C2850 C 0.76903 0.71248 0.94574
 H2851 H 0.78340 0.67144 0.87542
 H2852 H 0.77100 0.68391 0.89782
 H2853 H 0.81790 0.69633 0.91507
 H2854 H 0.83050 0.68333 0.89309
 H2855 H 0.80635 0.72866 0.94851
 H2856 H 0.79296 0.74333 0.96915
 H2857 H 0.74881 0.71837 0.95984
 H2858 H 0.76221 0.70397 0.93923
 C2859 C 0.79552 0.17436 0.38771
 C2860 C 0.78767 0.18053 0.40059
 C2861 C 0.79653 0.18675 0.41285
 C2862 C 0.81342 0.18637 0.41227
 C2863 C 0.82129 0.18006 0.39948
 C2864 C 0.81244 0.17415 0.38693
 N2865 N 0.78813 0.19373 0.42552
 N2866 N 0.79546 0.20152 0.43586
 C2867 C 0.78723 0.20880 0.44844
 C2868 C 0.79573 0.21919 0.45784
 C2869 C 0.78793 0.22714 0.46975
 C2870 C 0.77148 0.22464 0.47261
 C2871 C 0.76304 0.21387 0.46341
 C2872 C 0.77082 0.20608 0.45134
 H2873 H 0.78831 0.17012 0.37820
 H2874 H 0.77464 0.18078 0.40088
 H2875 H 0.82055 0.19098 0.42167
 H2876 H 0.83432 0.17979 0.39943
 H2877 H 0.80838 0.22136 0.45574
 H2878 H 0.79478 0.23530 0.47668
 H2879 H 0.75036 0.21174 0.46531
 H2880 H 0.76401 0.19805 0.44425
 C2881 C 0.70710 0.32694 0.38790
 C2882 C 0.71427 0.32044 0.40097
 C2883 C 0.70487 0.31316 0.41221
 C2884 C 0.68806 0.31283 0.41046
 C2885 C 0.68084 0.31948 0.39747
 C2886 C 0.69028 0.32645 0.38592
 N2887 N 0.71268 0.30586 0.42504
 N2888 N 0.70506 0.29726 0.43450
 C2889 C 0.71284 0.28969 0.44720
 C2890 C 0.70418 0.27872 0.45576
 C2891 C 0.71156 0.27059 0.46780
 C2892 C 0.72774 0.27347 0.47161
 C2893 C 0.73633 0.28476 0.46321
 C2894 C 0.72897 0.29275 0.45104
 H2895 H 0.71477 0.33198 0.37915
 H2896 H 0.72724 0.32073 0.40217
 H2897 H 0.68051 0.30739 0.41907
 H2898 H 0.66785 0.31915 0.39647
 H2899 H 0.69174 0.27628 0.45292
 H2900 H 0.70460 0.26202 0.47410
 H2901 H 0.74881 0.28721 0.46586
 H2902 H 0.73590 0.30123 0.44460
 C2903 C 0.66298 0.81995 0.89442
 C2904 C 0.66958 0.81282 0.90745
 C2905 C 0.68616 0.81340 0.91016
 C2906 C 0.69615 0.82125 0.89967
 C2907 C 0.68959 0.82827 0.88656
 C2908 C 0.67291 0.82766 0.88375
 N2909 N 0.69255 0.80557 0.92339
 N2910 N 0.70725 0.80678 0.92735
 C2911 C 0.71368 0.79851 0.94030
 C2912 C 0.72951 0.80150 0.94495
 C2913 C 0.73630 0.79326 0.95724
 C2914 C 0.72738 0.78173 0.96498
 C2915 C 0.71144 0.77883 0.96035
 C2916 C 0.70461 0.78719 0.94816
 H2917 H 0.65007 0.81948 0.89276
 H2918 H 0.66176 0.80682 0.91546
 H2919 H 0.70904 0.82174 0.90146
 H2920 H 0.69761 0.83390 0.87847
 H2921 H 0.73662 0.81017 0.93895
 H2922 H 0.74863 0.79572 0.96049
 H2923 H 0.70424 0.77006 0.96611
 H2924 H 0.69236 0.78463 0.94475
 C2925 C 0.19535 0.33525 0.89846
 C2926 C 0.20287 0.32882 0.91143
 C2927 C 0.20273 0.31265 0.91387
 C2928 C 0.19528 0.30290 0.90298
 C2929 C 0.18796 0.30926 0.88995
 C2930 C 0.18773 0.32553 0.88759
 N2931 N 0.21020 0.30632 0.92738
 N2932 N 0.20792 0.29217 0.93131
 C2933 C 0.21538 0.28520 0.94448
 C2934 C 0.21041 0.27029 0.94897
 C2935 C 0.21764 0.26284 0.96148
 C2936 C 0.23019 0.27014 0.96963
 C2937 C 0.23515 0.28518 0.96514
 C2938 C 0.22774 0.29271 0.95269
 H2939 H 0.19527 0.34782 0.89709
 H2940 H 0.20859 0.33647 0.91972
 H2941 H 0.19520 0.29034 0.90448
 H2942 H 0.18260 0.30138 0.88165
 H2943 H 0.20093 0.26439 0.94269
 H2944 H 0.21359 0.25123 0.96458
 H2945 H 0.24477 0.29109 0.97120
 H2946 H 0.23181 0.30424 0.94936
 C2947 C 0.16624 0.82111 0.39784
 C2948 C 0.17248 0.81433 0.41123
 C2949 C 0.18906 0.81441 0.41403
 C2950 C 0.19940 0.82151 0.40334
 C2951 C 0.19320 0.82815 0.38989
 C2952 C 0.17655 0.82794 0.38691
 N2953 N 0.19517 0.80655 0.42737
 N2954 N 0.20989 0.80748 0.43136
 C2955 C 0.21624 0.79895 0.44419
 C2956 C 0.23208 0.80176 0.44890
 C2957 C 0.23898 0.79295 0.46075
 C2958 C 0.23014 0.78102 0.46796
 C2959 C 0.21413 0.77839 0.46336
 C2960 C 0.20721 0.78732 0.45163
 H2961 H 0.15334 0.82095 0.39604
 H2962 H 0.16439 0.80889 0.41938
 H2963 H 0.21229 0.82159 0.40518
 H2964 H 0.20154 0.83302 0.38162
 H2965 H 0.23918 0.81066 0.44321
 H2966 H 0.25134 0.79522 0.46400
 H2967 H 0.20700 0.76931 0.46872
 H2968 H 0.19495 0.78489 0.44815
 C2969 C 0.68154 0.69773 0.61432
 C2970 C 0.68842 0.70625 0.60231
 C2971 C 0.69606 0.69858 0.59013
 C2972 C 0.69666 0.68217 0.58999
 C2973 C 0.68961 0.67360 0.60192
 C2974 C 0.68198 0.68128 0.61425
 N2975 N 0.70301 0.70774 0.57807
 N2976 N 0.71191 0.70181 0.56767
 C2977 C 0.71863 0.71116 0.55561
 C2978 C 0.73039 0.70467 0.54602
 C2979 C 0.73741 0.71363 0.53437
 C2980 C 0.73258 0.72920 0.53200
 C2981 C 0.72058 0.73560 0.54150
 C2982 C 0.71373 0.72670 0.55326
 H2983 H 0.67606 0.70405 0.62375
 H2984 H 0.68794 0.71890 0.60256
 H2985 H 0.70241 0.67598 0.58061
 H2986 H 0.68995 0.66096 0.60137
 H2987 H 0.73424 0.69269 0.54769
 H2988 H 0.74658 0.70836 0.52719
 H2989 H 0.71663 0.74757 0.53999
 H2990 H 0.70459 0.73196 0.56049
 C2991 C 0.68807 0.20196 0.11845
 C2992 C 0.69539 0.21006 0.10639
 C2993 C 0.70319 0.20196 0.09457
 C2994 C 0.70365 0.18555 0.09495
 C2995 C 0.69615 0.17740 0.10693
 C2996 C 0.68818 0.18551 0.11880
 N2997 N 0.71013 0.21070 0.08219
 N2998 N 0.71917 0.20451 0.07206
 C2999 C 0.72561 0.21346 0.05955
 C3000 C 0.73779 0.20700 0.05041
 C3001 C 0.74435 0.21554 0.03820
 C3002 C 0.73858 0.23060 0.03477
 C3003 C 0.72620 0.23697 0.04385
 C3004 C 0.71985 0.22853 0.05619
 H3005 H 0.68237 0.20862 0.12754
 H3006 H 0.69501 0.22271 0.10625
 H3007 H 0.70952 0.17903 0.08586
 H3008 H 0.69629 0.16475 0.10669
 H3009 H 0.74230 0.19538 0.05285
 H3010 H 0.75383 0.21031 0.03137
 H3011 H 0.72155 0.24856 0.04152
 H3012 H 0.71036 0.23374 0.06302
 C3013 C 0.18720 0.66516 0.10099
 C3014 C 0.19453 0.67226 0.08830
 C3015 C 0.19448 0.68854 0.08678
 C3016 C 0.18712 0.69771 0.09821
 C3017 C 0.17995 0.69065 0.11096
 C3018 C 0.17983 0.67428 0.11250
 N3019 N 0.20206 0.69553 0.07367
 N3020 N 0.20046 0.71002 0.07074
 C3021 C 0.20812 0.71745 0.05794
 C3022 C 0.20399 0.73290 0.05449
 C3023 C 0.21134 0.74067 0.04225
 C3024 C 0.22316 0.73316 0.03334
 C3025 C 0.22734 0.71762 0.03684
 C3026 C 0.21981 0.70978 0.04900
 H3027 H 0.18716 0.65253 0.10169
 H3028 H 0.20015 0.66507 0.07957
 H3029 H 0.18706 0.71033 0.09738
 H3030 H 0.17472 0.69806 0.11974
 H3031 H 0.19503 0.73893 0.06132
 H3032 H 0.20791 0.75265 0.03991
 H3033 H 0.23639 0.71153 0.03017
 H3034 H 0.22324 0.69784 0.05152
 C3035 C 0.18750 0.19517 0.61751
 C3036 C 0.19465 0.20346 0.60551
 C3037 C 0.20154 0.19557 0.59308
 C3038 C 0.20127 0.17915 0.59276
 C3039 C 0.19393 0.17080 0.60471
 C3040 C 0.18686 0.17874 0.61720
 N3041 N 0.20836 0.20461 0.58086
 N3042 N 0.21661 0.19864 0.57001
 C3043 C 0.22292 0.20814 0.55784
 C3044 C 0.23441 0.20188 0.54780
 C3045 C 0.24095 0.21106 0.53604
 C3046 C 0.23587 0.22661 0.53399
 C3047 C 0.22414 0.23277 0.54394
 C3048 C 0.21779 0.22367 0.55580
 H3049 H 0.18254 0.20167 0.62710
 H3050 H 0.19486 0.21611 0.60591
 H3051 H 0.20647 0.17281 0.58318
 H3052 H 0.19351 0.15817 0.60402
 H3053 H 0.23843 0.18992 0.54922
 H3054 H 0.24993 0.20597 0.52851
 H3055 H 0.22000 0.24471 0.54269
 H3056 H 0.20885 0.22877 0.56335
   
