data_POSCAR
  _audit_creation_date              2014-09-24
  _audit_creation_method            'ToBaCCo'
  _symmetry_space_group_name_H-M    'P1'
  _symmetry_Int_Tables_number       1
  _symmetry_cell_setting            triclinic
  loop_
  _symmetry_equiv_pos_as_xyz
 x,y,z
_cell_length_a 37.1978
_cell_length_b 37.1607
_cell_length_c 44.4066
_cell_angle_alpha 90.617000
_cell_angle_beta 89.666700
_cell_angle_gamma 89.111700
loop_
  _atom_site_label
  _atom_site_type_symbol
  _atom_site_fract_x
  _atom_site_fract_y
  _atom_site_fract_z
C1 C 0.44630 -0.03208 0.26680
 C2 C 0.46760 -0.00665 0.25223
 C3 C 0.48472 -0.01612 0.22534
 C4 C 0.47917 -0.04934 0.21147
 C5 C 0.45592 -0.07417 0.22485
 C6 C 0.44017 -0.06640 0.25336
 C7 C 0.46941 0.03144 0.26217
 C8 C 0.48265 0.04153 0.29062
 C9 C 0.48753 0.07825 0.29795
 C10 C 0.47741 0.10440 0.27650
 C11 C 0.46367 0.09453 0.24836
 C12 C 0.46009 0.05811 0.24131
 H13 H 0.43296 -0.02398 0.28754
 H14 H 0.50160 0.00343 0.21434
 H15 H 0.49023 0.02077 0.30643
 H16 H 0.44901 0.05030 0.21972
 H17 H 0.45157 -0.09987 0.21380
 H18 H 0.47916 0.13281 0.28152
 C19 C 0.06939 -0.03712 0.74852
 C20 C 0.05877 -0.00143 0.75509
 C21 C 0.04281 0.00643 0.78302
 C22 C 0.03613 -0.02073 0.80393
 C23 C 0.04759 -0.05632 0.79739
 C24 C 0.06376 -0.06471 0.76937
 C25 C 0.05854 0.02667 0.73148
 C26 C 0.04539 0.01836 0.70294
 C27 C 0.03839 0.04516 0.68135
 C28 C 0.04745 0.08121 0.68846
 C29 C 0.06010 0.09008 0.71763
 C30 C 0.06596 0.06254 0.73856
 H31 H 0.08087 -0.04379 0.72663
 H32 H 0.03367 0.03370 0.78782
 H33 H 0.03964 -0.00949 0.69805
 H34 H 0.07553 0.06927 0.76090
 H35 H 0.04160 -0.07769 0.81297
 H36 H 0.04185 0.10247 0.67257
 C37 C 0.54165 0.43907 0.26237
 C38 C 0.53388 0.47390 0.27275
 C39 C 0.51818 0.47907 0.30109
 C40 C 0.51089 0.44986 0.31957
 C41 C 0.51997 0.41471 0.30964
 C42 C 0.53483 0.40941 0.28059
 C43 C 0.54101 0.50524 0.25392
 C44 C 0.52774 0.50683 0.22471
 C45 C 0.53025 0.53851 0.20800
 C46 C 0.54791 0.56850 0.22034
 C47 C 0.56106 0.56688 0.25002
 C48 C 0.55785 0.53509 0.26632
 H49 H 0.55344 0.43502 0.24017
 H50 H 0.51133 0.50614 0.30879
 H51 H 0.51369 0.48388 0.21553
 H52 H 0.56804 0.53368 0.28912
 H53 H 0.51450 0.39187 0.32380
 H54 H 0.54926 0.59335 0.20789
 C55 C 0.92518 0.44642 0.74337
 C56 C 0.93840 0.48040 0.73577
 C57 C 0.95670 0.48419 0.70850
 C58 C 0.96346 0.45460 0.68933
 C59 C 0.94967 0.42058 0.69691
 C60 C 0.93083 0.41627 0.72436
 C61 C 0.93965 0.51019 0.75835
 C62 C 0.95171 0.50255 0.78731
 C63 C 0.96007 0.53006 0.80809
 C64 C 0.95290 0.56615 0.80015
 C65 C 0.94129 0.57435 0.77080
 C66 C 0.93481 0.54627 0.75013
 H67 H 0.91183 0.44299 0.76489
 H68 H 0.96792 0.51007 0.70303
 H69 H 0.95585 0.47463 0.79304
 H70 H 0.92651 0.55259 0.72741
 H71 H 0.95575 0.39733 0.68275
 H72 H 0.95917 0.58785 0.81565
 C73 C 0.27774 0.32182 1.01113
 C74 C 0.28696 0.34405 0.98708
 C75 C 0.32053 0.36065 0.98688
 C76 C 0.34489 0.35472 1.01052
 C77 C 0.33423 0.33372 1.03546
 C78 C 0.29999 0.31793 1.03654
 C79 C 0.25709 0.35663 0.96778
 C80 C 0.23126 0.37883 0.98195
 C81 C 0.19670 0.38288 0.97018
 C82 C 0.18886 0.36717 0.94225
 C83 C 0.21474 0.34559 0.92698
 C84 C 0.24896 0.34014 0.93995
 H85 H 0.25120 0.31052 1.01064
 H86 H 0.32725 0.37880 0.96883
 H87 H 0.23727 0.39041 1.00384
 H88 H 0.26784 0.32104 0.92981
 H89 H 0.35201 0.33102 1.05456
 H90 H 0.16182 0.36955 0.93341
 C91 C 0.70340 0.18950 1.01528
 C92 C 0.70221 0.16164 0.99378
 C93 C 0.67134 0.14042 0.99158
 C94 C 0.64199 0.14695 1.01111
 C95 C 0.64508 0.17278 1.03434
 C96 C 0.67554 0.19438 1.03657
 C97 C 0.73605 0.15124 0.97822
 C98 C 0.76034 0.12884 0.99349
 C99 C 0.79574 0.12372 0.98297
 C100 C 0.80647 0.14068 0.95651
 C101 C 0.78257 0.16343 0.94103
 C102 C 0.74714 0.16838 0.95176
 H103 H 0.72796 0.20463 1.01730
 H104 H 0.67033 0.11889 0.97498
 H105 H 0.75181 0.11647 1.01427
 H106 H 0.72904 0.18704 0.94065
 H107 H 0.62343 0.17639 1.05061
 H108 H 0.83391 0.13716 0.94851
 C109 C 0.21962 0.67286 0.53993
 C110 C 0.22894 0.65560 0.51255
 C111 C 0.20205 0.63903 0.49547
 C112 C 0.16642 0.63857 0.50615
 C113 C 0.15743 0.65623 0.53306
 C114 C 0.18362 0.67420 0.54969
 C115 C 0.26688 0.65357 0.50234
 C116 C 0.29247 0.63538 0.51984
 C117 C 0.32842 0.63198 0.51015
 C118 C 0.33892 0.64850 0.48324
 C119 C 0.31374 0.66779 0.46586
 C120 C 0.27751 0.66919 0.47508
 H121 H 0.24013 0.68609 0.55308
 H122 H 0.20918 0.62515 0.47464
 H123 H 0.28390 0.62268 0.54047
 H124 H 0.25786 0.68363 0.46171
 H125 H 0.12980 0.65610 0.54100
 H126 H 0.36674 0.64652 0.47594
 C127 C 0.77161 0.82944 0.54872
 C128 C 0.75661 0.84651 0.52353
 C129 C 0.77654 0.87227 0.50838
 C130 C 0.81169 0.88077 0.51710
 C131 C 0.82595 0.86458 0.54295
 C132 C 0.80634 0.83846 0.55859
 C133 C 0.72427 0.83310 0.50799
 C134 C 0.69597 0.85722 0.50055
 C135 C 0.67266 0.84951 0.47650
 C136 C 0.67813 0.81713 0.46017
 C137 C 0.70562 0.79273 0.46780
 C138 C 0.72779 0.80024 0.49231
 H139 H 0.75700 0.80824 0.55975
 H140 H 0.76453 0.88465 0.48885
 H141 H 0.69425 0.88329 0.51168
 H142 H 0.75071 0.78268 0.49662
 H143 H 0.85291 0.87099 0.55017
 H144 H 0.66172 0.81105 0.44082
 C145 C -0.04107 0.26139 0.30637
 C146 C -0.01696 0.24550 0.32660
 C147 C -0.02989 0.22587 0.35079
 C148 C -0.06674 0.22358 0.35660
 C149 C -0.09090 0.23842 0.33589
 C150 C -0.07847 0.25695 0.31036
 C151 C 0.02129 0.25444 0.32740
 C152 C 0.03176 0.27866 0.34990
 C153 C 0.06755 0.28027 0.35902
 C154 C 0.09352 0.25953 0.34372
 C155 C 0.08374 0.23565 0.32062
 C156 C 0.04728 0.23271 0.31271
 H157 H -0.03050 0.27698 0.28799
 H158 H -0.01057 0.21476 0.36653
 H159 H 0.01120 0.29385 0.36220
 H160 H 0.03891 0.21315 0.29604
 H161 H -0.11950 0.23572 0.33965
 H162 H 0.12143 0.26131 0.35019
 C163 C -0.04595 0.74070 0.16744
 C164 C -0.02059 0.76052 0.15142
 C165 C -0.03103 0.77782 0.12492
 C166 C -0.06443 0.77117 0.11184
 C167 C -0.08805 0.74801 0.12615
 C168 C -0.07948 0.73369 0.15434
 C169 C 0.01805 0.75226 0.15446
 C170 C 0.03389 0.73258 0.13087
 C171 C 0.07090 0.72589 0.12947
 C172 C 0.09232 0.73815 0.15331
 C173 C 0.07661 0.75681 0.17811
 C174 C 0.03919 0.76410 0.17843
 H175 H -0.03811 0.72710 0.18792
 H176 H -0.01130 0.79337 0.11283
 H177 H 0.01665 0.72322 0.11288
 H178 H 0.02654 0.77878 0.19691
 H179 H -0.11381 0.74229 0.11613
 H180 H 0.12101 0.73286 0.15295
 C181 C 0.43205 0.21677 0.66327
 C182 C 0.46971 0.21944 0.66247
 C183 C 0.48624 0.23785 0.63904
 C184 C 0.46612 0.25383 0.61645
 C185 C 0.42880 0.25190 0.61733
 C186 C 0.41144 0.23313 0.64043
 C187 C 0.49438 0.19981 0.68242
 C188 C 0.50677 0.16671 0.67068
 C189 C 0.54356 0.15796 0.67133
 C190 C 0.56602 0.17766 0.69015
 C191 C 0.55406 0.21042 0.70282
 C192 C 0.51773 0.22075 0.69997
 H193 H 0.41911 0.20183 0.68100
 H194 H 0.51532 0.23965 0.63859
 H195 H 0.48973 0.15257 0.65488
 H196 H 0.50925 0.24777 0.70644
 H197 H 0.41333 0.26563 0.60021
 H198 H 0.59435 0.17081 0.69088
 C199 C 0.46026 0.74846 0.82796
 C200 C 0.48360 0.73501 0.84988
 C201 C 0.46976 0.71628 0.87431
 C202 C 0.43269 0.71191 0.87827
 C203 C 0.40935 0.72530 0.85615
 C204 C 0.42291 0.74359 0.83095
 C205 C 0.52172 0.74500 0.85110
 C206 C 0.53287 0.76470 0.87624
 C207 C 0.56922 0.77061 0.88165
 C208 C 0.59482 0.75765 0.86085
 C209 C 0.58414 0.73832 0.83506
 C210 C 0.54732 0.73189 0.83028
 H211 H 0.47117 0.76336 0.80930
 H212 H 0.48847 0.70649 0.89110
 H213 H 0.51279 0.77439 0.89231
 H214 H 0.53857 0.71644 0.81093
 H215 H 0.38062 0.72210 0.85857
 H216 H 0.62305 0.76256 0.86468
 C217 C -0.29562 0.69839 1.01225
 C218 C -0.26237 0.70830 1.02402
 C219 C -0.26034 0.71842 1.05433
 C220 C -0.29116 0.71903 1.07289
 C221 C -0.32440 0.70738 1.06102
 C222 C -0.32708 0.69839 1.03000
 C223 C -0.23101 0.71174 1.00338
 C224 C -0.23605 0.72792 0.97549
 C225 C -0.20801 0.73062 0.95425
 C226 C -0.17383 0.71602 0.96151
 C227 C -0.16767 0.70205 0.99059
 C228 C -0.19656 0.69968 1.01113
 H229 H -0.29669 0.68993 0.98885
 H230 H -0.23506 0.72803 1.06312
 H231 H -0.26279 0.73768 0.97019
 H232 H -0.19220 0.68814 1.03315
 H233 H -0.34838 0.70875 1.07497
 H234 H -0.15160 0.71822 0.94580
 C235 C -0.27232 0.31117 0.49219
 C236 C -0.24230 0.29400 0.47965
 C237 C -0.24371 0.28053 0.45048
 C238 C -0.27580 0.28211 0.43411
 C239 C -0.30630 0.30053 0.44653
 C240 C -0.30490 0.31399 0.47652
 C241 C -0.21264 0.28342 0.49940
 C242 C -0.22065 0.26441 0.52539
 C243 C -0.19368 0.25406 0.54532
 C244 C -0.15779 0.26331 0.53925
 C245 C -0.14949 0.28130 0.51233
 C246 C -0.17703 0.29114 0.49248
 H247 H -0.27030 0.32141 0.51508
 H248 H -0.22051 0.26589 0.44148
 H249 H -0.24840 0.25788 0.53028
 H250 H -0.17080 0.30542 0.47198
 H251 H -0.33152 0.30073 0.43445
 H252 H -0.13664 0.25587 0.55476
 C253 C 0.19941 -0.18255 0.00039
 C254 C 0.23459 -0.19548 -0.00435
 C255 C 0.24329 -0.21211 -0.03180
 C256 C 0.21791 -0.21581 -0.05486
 C257 C 0.18285 -0.20163 -0.05016
 C258 C 0.17330 -0.18612 -0.02209
 C259 C 0.26155 -0.19616 0.02014
 C260 C 0.25140 -0.20613 0.04913
 C261 C 0.27707 -0.21274 0.07176
 C262 C 0.31392 -0.20805 0.06478
 C263 C 0.32436 -0.19906 0.03520
 C264 C 0.29805 -0.19203 0.01361
 H265 H 0.19184 -0.17075 0.02197
 H266 H 0.27026 -0.22269 -0.03479
 H267 H 0.22310 -0.20941 0.05355
 H268 H 0.30629 -0.18426 -0.00883
 H269 H 0.16241 -0.20515 -0.06719
 H270 H 0.33435 -0.21365 0.08145
 C271 C 0.20240 1.19671 0.47752
 C272 C 0.23188 1.21398 0.49043
 C273 C 0.22646 1.23622 0.51570
 C274 C 0.19229 1.24031 0.52873
 C275 C 0.16332 1.22125 0.51702
 C276 C 0.16809 1.20007 0.49093
 C277 C 0.26871 1.20850 0.47850
 C278 C 0.27719 1.21690 0.44851
 C279 C 0.31309 1.21553 0.43840
 C280 C 0.33992 1.20284 0.45847
 C281 C 0.33158 1.19307 0.48816
 C282 C 0.29588 1.19671 0.49809
 H283 H 0.20632 1.17992 0.45762
 H284 H 0.24899 1.25043 0.52532
 H285 H 0.25610 1.22653 0.43375
 H286 H 0.28876 1.18960 0.52092
 H287 H 0.13686 1.22448 0.52713
 H288 H 0.36752 1.19963 0.45107
 C289 C 0.08670 0.51696 0.20857
 C290 C 0.10291 0.50324 0.23475
 C291 C 0.12636 0.52506 0.25122
 C292 C 0.13329 0.56050 0.24231
 C293 C 0.11727 0.57367 0.21616
 C294 C 0.09363 0.55240 0.19937
 C295 C 0.08988 0.47006 0.24919
 C296 C 0.10867 0.43678 0.24656
 C297 C 0.09906 0.40754 0.26492
 C298 C 0.07181 0.41284 0.28668
 C299 C 0.05329 0.44561 0.28954
 C300 C 0.06176 0.47385 0.27026
 H301 H 0.06724 0.50097 0.19653
 H302 H 0.13791 0.51470 0.27177
 H303 H 0.13100 0.43400 0.23090
 H304 H 0.04851 0.49984 0.27328
 H305 H 0.12227 0.60108 0.20937
 H306 H 0.06548 0.39184 0.30244
 C307 C -0.08599 0.96183 0.20622
 C308 C -0.09579 0.97161 0.23602
 C309 C -0.10652 0.94474 0.25601
 C310 C -0.11009 0.90884 0.24620
 C311 C -0.10002 0.89964 0.21660
 C312 C -0.08634 0.92546 0.19666
 C313 C -0.09791 1.01002 0.24606
 C314 C -0.11687 1.03527 0.22863
 C315 C -0.12411 1.07043 0.23972
 C316 C -0.11024 1.08047 0.26780
 C317 C -0.08930 1.05642 0.28468
 C318 C -0.08417 1.02087 0.27424
 H319 H -0.07700 0.98243 0.19094
 H320 H -0.11509 0.95271 0.27847
 H321 H -0.12820 1.02634 0.20750
 H322 H -0.06887 1.00192 0.28764
 H323 H -0.10291 0.87199 0.20926
 H324 H -0.11513 1.10752 0.27644
 C325 C 0.45582 0.47190 -0.25972
 C326 C 0.42322 0.47470 -0.24338
 C327 C 0.39576 0.44980 -0.24904
 C328 C 0.39991 0.42369 -0.27181
 C329 C 0.43231 0.42164 -0.28809
 C330 C 0.45992 0.44624 -0.28325
 C331 C 0.41316 0.50965 -0.22905
 C332 C 0.38984 0.53228 -0.24500
 C333 C 0.37965 0.56659 -0.23397
 C334 C 0.39332 0.57783 -0.20599
 C335 C 0.41786 0.55591 -0.18999
 C336 C 0.42742 0.52155 -0.20153
 H337 H 0.47549 0.49280 -0.25680
 H338 H 0.36976 0.45350 -0.23819
 H339 H 0.37934 0.52226 -0.26610
 H340 H 0.44645 0.50462 -0.18963
 H341 H 0.43518 0.40180 -0.30607
 H342 H 0.38587 0.60419 -0.19709
 C343 C 0.56002 0.00461 -0.27708
 C344 C 0.57665 0.01212 -0.24964
 C345 C 0.59248 0.04554 -0.24522
 C346 C 0.59259 0.07118 -0.26835
 C347 C 0.57731 0.06246 -0.29670
 C348 C 0.56123 0.02847 -0.30163
 C349 C 0.58522 -0.01879 -0.23002
 C350 C 0.60880 -0.04488 -0.24213
 C351 C 0.61304 -0.07847 -0.22879
 C352 C 0.59477 -0.08568 -0.20205
 C353 C 0.57096 -0.05992 -0.18922
 C354 C 0.56637 -0.02611 -0.20315
 H355 H 0.54805 -0.02154 -0.27915
 H356 H 0.60606 0.05109 -0.22418
 H357 H 0.62257 -0.03955 -0.26320
 H358 H 0.54672 -0.00684 -0.19438
 H359 H 0.57833 0.08176 -0.31467
 H360 H 0.59759 -0.11207 -0.19207
 C361 C -0.00026 0.21412 0.91899
 C362 C -0.01129 0.23679 0.89574
 C363 C -0.03046 0.22282 0.87146
 C364 C -0.03828 0.18626 0.86966
 C365 C -0.02685 0.16340 0.89275
 C366 C -0.00781 0.17717 0.91757
 C367 C -0.00153 0.27491 0.89529
 C368 C 0.01651 0.28790 0.87004
 C369 C 0.02319 0.32455 0.86718
 C370 C 0.01221 0.34839 0.89019
 C371 C -0.00546 0.33565 0.91595
 C372 C -0.01224 0.29869 0.91844
 H373 H 0.01441 0.22532 0.93777
 H374 H -0.03906 0.24072 0.85366
 H375 H 0.02474 0.26930 0.85222
 H376 H -0.02610 0.28836 0.93795
 H377 H -0.03313 0.13506 0.89160
 H378 H 0.01769 0.37681 0.88819
 C379 C 0.47747 0.20458 0.06575
 C380 C 0.49689 0.23118 0.08096
 C381 C 0.51707 0.22206 0.10626
 C382 C 0.51678 0.18715 0.11755
 C383 C 0.49839 0.16048 0.10192
 C384 C 0.47894 0.16880 0.07590
 C385 C 0.48872 0.26957 0.07725
 C386 C 0.46161 0.28373 0.09595
 C387 C 0.46020 0.32040 0.10319
 C388 C 0.48374 0.34347 0.08895
 C389 C 0.51007 0.33011 0.06876
 C390 C 0.51315 0.29276 0.06344
 H391 H 0.46101 0.21194 0.04670
 H392 H 0.53051 0.24319 0.11869
 H393 H 0.44417 0.26527 0.10761
 H394 H 0.53493 0.28166 0.04981
 H395 H 0.49891 0.13316 0.11011
 H396 H 0.48198 0.37195 0.09408
 C397 C -0.01828 0.70998 0.57415
 C398 C -0.00129 0.73572 0.59212
 C399 C 0.02024 0.72472 0.61609
 C400 C 0.02314 0.68855 0.62384
 C401 C 0.00674 0.66263 0.60556
 C402 C -0.01384 0.67314 0.58054
 C403 C -0.01181 0.77392 0.59154
 C404 C -0.03049 0.78733 0.61659
 C405 C -0.03429 0.82433 0.62207
 C406 C -0.02129 0.84824 0.60035
 C407 C -0.00360 0.83500 0.57419
 C408 C 0.00148 0.79758 0.57011
 H409 H -0.03541 0.71874 0.55592
 H410 H 0.03225 0.74508 0.63037
 H411 H -0.04004 0.76816 0.63296
 H412 H 0.01619 0.78680 0.55086
 H413 H 0.00941 0.63438 0.61101
 H414 H -0.02438 0.87701 0.60374
 C415 C 0.48355 0.72771 0.45771
 C416 C 0.47476 0.75255 0.43526
 C417 C 0.45656 0.74075 0.40972
 C418 C 0.45151 0.70402 0.40441
 C419 C 0.46107 0.67918 0.42649
 C420 C 0.47786 0.69073 0.45299
 C421 C 0.49769 0.78401 0.43101
 C422 C 0.53430 0.77646 0.42687
 C423 C 0.55612 0.79967 0.41072
 C424 C 0.54186 0.83215 0.40047
 C425 C 0.50584 0.84150 0.40664
 C426 C 0.48358 0.81730 0.42171
 H427 H 0.49881 0.73699 0.47685
 H428 H 0.45142 0.75971 0.39179
 H429 H 0.54461 0.74996 0.43254
 H430 H 0.45522 0.82351 0.42478
 H431 H 0.45764 0.65072 0.42222
 H432 H 0.55898 0.85038 0.38826
 Zr433 Zr -0.00094 -0.08395 1.03364
 O434 O 0.04186 -0.08578 1.06485
 O435 O -0.02436 -0.13420 1.03970
 O436 O -0.02089 -0.08860 1.07791
 O437 O 0.05389 -0.10426 0.97213
 O438 O -0.06138 -0.04221 1.08346
 O439 O 0.03962 -0.12079 1.02003
 O440 O -0.07473 -0.13218 1.01064
 O441 O -0.05597 -0.07294 1.03088
 O442 O -0.01568 -0.09729 0.98969
 O443 O -0.00687 -0.02925 1.04538
 O444 O 0.03204 -0.05245 1.00592
 Zr445 Zr -0.04739 0.00173 0.96857
 Zr446 Zr -0.06180 -0.01810 1.04060
 Zr447 Zr 0.01476 -0.06424 0.96206
 Zr448 Zr -0.07009 -0.08428 0.98639
 O449 O 0.06618 -0.04747 0.94781
 O450 O -0.12323 -0.08814 1.00354
 O451 O -0.04045 -0.05304 0.95641
 O452 O -0.07917 -0.02994 0.99675
 O453 O -0.03234 0.01562 1.01251
 O454 O 0.00785 -0.00930 0.97135
 C455 C -0.05445 -0.14671 1.03053
 C456 C 0.05843 -0.12375 0.99566
 C457 C -0.04433 -0.07008 1.09323
 O458 O -0.11498 -0.03178 1.05255
 O459 O -0.09625 0.02580 1.03249
 O460 O -0.08833 0.03865 0.98277
 C461 C -0.10380 0.04355 1.00862
 O462 O 0.06460 -0.01063 1.04555
 Zr463 Zr 0.02228 0.00251 1.01545
 O464 O -0.02585 0.05288 0.96317
 O465 O -0.05198 0.02176 1.07379
 O466 O 0.01884 0.03991 1.05179
 O467 O 0.07269 0.01135 0.99445
 O468 O 0.02031 0.05459 0.99677
 C469 C 0.00010 0.06877 0.97651
 O470 O -0.09132 0.00469 0.93849
 O471 O 0.00760 -0.10737 0.93129
 O472 O -0.03137 0.00176 0.92293
 O473 O 0.00997 -0.04412 0.91814
 O474 O -0.06624 -0.12681 0.95424
 O475 O -0.10603 -0.07234 0.95071
 C476 C -0.00926 -0.01825 0.90747
 H477 H -0.01136 -0.12305 0.98477
 H478 H -0.10507 -0.02436 0.99417
 H479 H 0.02221 0.00496 0.95708
 H480 H 0.00125 -0.02470 1.06625
 H481 H -0.13346 -0.11072 0.99546
 H482 H -0.12186 -0.01651 1.07016
 H483 H -0.07436 0.02455 1.08586
 H484 H 0.03823 0.05758 1.04898
 H485 H -0.08723 -0.14245 0.95746
 H486 H 0.03008 -0.10963 0.91929
 H487 H 0.07322 -0.06303 0.93043
 H488 H 0.08197 0.03436 1.00250
 H489 H -0.12257 -0.09268 0.94774
 H490 H -0.09072 0.02863 0.92881
 H491 H 0.04149 -0.10981 1.07438
 H492 H 0.07860 0.01121 1.05005
 Zr493 Zr 0.54035 0.42779 0.55485
 O494 O 0.58904 0.43124 0.57909
 O495 O 0.52569 0.37575 0.56605
 O496 O 0.53247 0.43012 0.60231
 O497 O 0.58060 0.40074 0.48632
 O498 O 0.48716 0.47179 0.60857
 O499 O 0.58039 0.39278 0.53721
 O500 O 0.47076 0.36883 0.54422
 O501 O 0.48467 0.43451 0.56034
 O502 O 0.51715 0.40831 0.51522
 O503 O 0.53226 0.48317 0.56225
 O504 O 0.56425 0.45665 0.51948
 Zr505 Zr 0.47409 0.50138 0.49067
 Zr506 Zr 0.47618 0.49023 0.56500
 Zr507 Zr 0.53820 0.43854 0.48031
 Zr508 Zr 0.46211 0.41682 0.52002
 O509 O 0.58311 0.45502 0.45488
 O510 O 0.41758 0.41196 0.54962
 O511 O 0.48210 0.44562 0.48320
 O512 O 0.45098 0.47183 0.52585
 O513 O 0.49715 0.52101 0.53026
 O514 O 0.52970 0.49417 0.48525
 C515 C 0.49776 0.35750 0.55960
 C516 C 0.59221 0.38565 0.51040
 C517 C 0.51034 0.44907 0.61873
 O518 O 0.42710 0.47634 0.58587
 O519 O 0.43760 0.53168 0.55832
 O520 O 0.43539 0.53869 0.50737
 C521 C 0.42512 0.54660 0.53438
 O522 O 0.60531 0.50488 0.54195
 Zr523 Zr 0.55231 0.51163 0.52555
 O524 O 0.48968 0.55394 0.47952
 O525 O 0.49000 0.53470 0.59249
 O526 O 0.56027 0.54951 0.56082
 O527 O 0.59268 0.52661 0.49446
 O528 O 0.53776 0.56276 0.51010
 C529 C 0.51337 0.57400 0.49206
 O530 O 0.42398 0.49861 0.46831
 O531 O 0.52704 0.39113 0.45542
 O532 O 0.47809 0.49428 0.44352
 O533 O 0.52108 0.45045 0.43657
 O534 O 0.45926 0.37284 0.48934
 O535 O 0.41566 0.42125 0.49257
 C536 C 0.49671 0.47216 0.42690
 H537 H 0.52239 0.38256 0.51103
 H538 H 0.42462 0.47578 0.52690
 H539 H 0.53900 0.50752 0.46774
 H540 H 0.54418 0.49109 0.58100
 H541 H 0.40800 0.38743 0.54678
 H542 H 0.42330 0.49335 0.60298
 H543 H 0.47045 0.53785 0.60758
 H544 H 0.57919 0.56603 0.55386
 H545 H 0.44104 0.35610 0.49718
 H546 H 0.54619 0.38842 0.43989
 H547 H 0.60125 0.46286 0.46969
 H548 H 0.60186 0.55024 0.50124
 H549 H 0.39877 0.40190 0.49774
 H550 H 0.42073 0.52112 0.45671
 H551 H 0.59272 0.40796 0.58948
 H552 H 0.60319 0.49558 0.56265
 Zr553 Zr 0.49494 1.06928 0.54089
 O554 O 0.45028 1.05772 0.56877
 O555 O 0.51882 1.11076 0.56529
 O556 O 0.51059 1.05000 0.58371
 O557 O 0.45105 1.12361 0.48891
 O558 O 0.54794 1.00227 0.57224
 O559 O 0.45349 1.10949 0.53875
 O560 O 0.57656 1.10343 0.54975
 O561 O 0.54939 1.05409 0.53748
 O562 O 0.51732 1.10262 0.50822
 O563 O 0.49683 1.01375 0.53036
 O564 O 0.46514 1.05912 0.50160
 Zr565 Zr 0.54521 1.02189 0.45218
 Zr566 Zr 0.55153 1.00015 0.52467
 Zr567 Zr 0.49001 1.09027 0.46853
 Zr568 Zr 0.57113 1.08614 0.50434
 O569 O 0.44092 1.08801 0.44476
 O570 O 0.62445 1.07423 0.51801
 O571 O 0.54466 1.07732 0.46306
 O572 O 0.57537 1.03167 0.49129
 O573 O 0.52354 0.98850 0.48511
 O574 O 0.49090 1.03620 0.45592
 C575 C 0.55270 1.11375 0.56926
 C576 C 0.43971 1.12649 0.51615
 C577 C 0.53149 1.02359 0.59111
 O578 O 0.60433 1.00026 0.54214
 O579 O 0.58304 0.96006 0.50224
 O580 O 0.57734 0.97446 0.45260
 C581 C 0.58922 0.95431 0.47399
 O582 O 0.42435 1.00647 0.51898
 Zr583 Zr 0.46985 1.00439 0.48981
 O584 O 0.52040 0.98301 0.42545
 O585 O 0.53465 0.94931 0.53979
 O586 O 0.46531 0.95244 0.50862
 O587 O 0.42240 1.01156 0.46417
 O588 O 0.47220 0.96663 0.45399
 C589 C 0.49322 0.96322 0.43100
 O590 O 0.59366 1.03058 0.42831
 O591 O 0.50043 1.14468 0.45883
 O592 O 0.53468 1.04519 0.40976
 O593 O 0.50214 1.09567 0.42257
 O594 O 0.57425 1.14280 0.50059
 O595 O 0.61145 1.09927 0.47251
 C596 C 0.51819 1.07485 0.40329
 H597 H 0.51431 1.12844 0.51356
 H598 H 0.60086 1.02468 0.48785
 H599 H 0.47757 1.03265 0.43692
 H600 H 0.48583 0.99974 0.54676
 H601 H 0.63524 1.09722 0.52463
 H602 H 0.60752 0.97748 0.55329
 H603 H 0.55502 0.93881 0.55117
 H604 H 0.44522 0.94032 0.49829
 H605 H 0.59617 1.14992 0.51158
 H606 H 0.52685 1.14626 0.45661
 H607 H 0.43802 1.11139 0.43443
 H608 H 0.41081 0.98779 0.46252
 H609 H 0.59933 1.11067 0.45516
 H610 H 0.59377 1.01398 0.41066
 H611 H 0.44993 1.07574 0.58543
 H612 H 0.40841 0.98611 0.51423
 Zr613 Zr 0.00542 0.59382 1.04020
 O614 O -0.03636 0.59818 1.07272
 O615 O 0.03295 0.64168 1.04871
 O616 O 0.02490 0.59207 1.08484
 O617 O -0.04772 0.62247 0.98023
 O618 O 0.06153 0.54219 1.08584
 O619 O -0.03396 0.63303 1.02956
 O620 O 0.08703 0.63037 1.02631
 O621 O 0.05931 0.57784 1.03623
 O622 O 0.02135 0.60925 0.99703
 O623 O 0.00671 0.53807 1.04795
 O624 O -0.03001 0.56754 1.01057
 Zr625 Zr 0.04407 0.50932 0.96899
 Zr626 Zr 0.06053 0.52213 1.04144
 Zr627 Zr -0.01155 0.58060 0.96725
 Zr628 Zr 0.07464 0.59177 0.99280
 O629 O -0.06437 0.56904 0.95304
 O630 O 0.12982 0.58612 1.00375
 O631 O 0.04271 0.56519 0.96069
 O632 O 0.07903 0.53593 0.99837
 O633 O 0.02774 0.49362 1.01193
 O634 O -0.01000 0.52488 0.97319
 C635 C 0.06652 0.64798 1.04482
 C636 C -0.05241 0.63912 1.00557
 C637 C 0.04623 0.56982 1.09831
 O638 O 0.11471 0.53072 1.05344
 O639 O 0.09096 0.47597 1.02953
 O640 O 0.08204 0.46855 0.97911
 C641 C 0.09697 0.45997 1.00413
 O642 O -0.06660 0.52809 1.04750
 Zr643 Zr -0.02551 0.51166 1.01664
 O644 O 0.01841 0.46013 0.96181
 O645 O 0.04783 0.48066 1.07181
 O646 O -0.02638 0.47256 1.05107
 O647 O -0.07633 0.50787 0.99553
 O648 O -0.02782 0.46058 0.99581
 C649 C -0.00858 0.44564 0.97490
 O650 O 0.08642 0.50430 0.93700
 O651 O -0.00302 0.62505 0.93897
 O652 O 0.02680 0.51223 0.92441
 O653 O -0.00937 0.56222 0.92183
 O654 O 0.07562 0.64145 0.96986
 O655 O 0.10593 0.58993 0.95284
 C656 C 0.00629 0.53418 0.91008
 H657 H 0.01881 0.63556 0.99422
 H658 H 0.10423 0.52802 0.99486
 H659 H -0.02569 0.51265 0.95848
 H660 H -0.00189 0.53260 1.06851
 H661 H 0.14148 0.60890 0.99808
 H662 H 0.12048 0.51348 1.06965
 H663 H 0.07005 0.47508 1.08317
 H664 H -0.04772 0.45744 1.04768
 H665 H 0.09883 0.65279 0.97477
 H666 H 0.02254 0.62339 0.93270
 H667 H -0.07009 0.58607 0.93665
 H668 H -0.08778 0.48572 1.00295
 H669 H 0.11491 0.56485 0.95058
 H670 H 0.08370 0.48098 0.92616
 H671 H -0.03372 0.62166 1.08329
 H672 H -0.08284 0.50772 1.05119
 Zr673 Zr -0.01154 0.41660 0.45340
 O674 O -0.06000 0.40990 0.42929
 O675 O 0.02068 0.37449 0.43583
 O676 O -0.00478 0.42511 0.40667
 O677 O -0.04697 0.37734 0.51711
 O678 O 0.02727 0.47694 0.40471
 O679 O -0.03902 0.37001 0.46637
 O680 O 0.07302 0.37857 0.46203
 O681 O 0.04058 0.43681 0.45123
 O682 O 0.01421 0.40020 0.49282
 O683 O -0.01854 0.47271 0.45002
 O684 O -0.04396 0.43727 0.48907
 Zr685 Zr 0.03036 0.49916 0.52484
 Zr686 Zr 0.03368 0.49262 0.44989
 Zr687 Zr -0.01619 0.42279 0.52815
 Zr688 Zr 0.06509 0.42229 0.49168
 O689 O -0.06744 0.42678 0.54899
 O690 O 0.11323 0.43014 0.46701
 O691 O 0.03643 0.44288 0.52911
 O692 O 0.06155 0.47812 0.48903
 O693 O 0.00437 0.51595 0.48558
 O694 O -0.02182 0.47891 0.52677
 C695 C 0.05317 0.36465 0.44163
 C696 C -0.05142 0.36020 0.49212
 C697 C 0.01093 0.45048 0.39235
 O698 O 0.08526 0.48968 0.42960
 O699 O 0.06096 0.53991 0.45953
 O700 O 0.06184 0.54359 0.51086
 C701 C 0.07065 0.55469 0.48432
 O702 O -0.09205 0.47694 0.46190
 Zr703 Zr -0.04686 0.49391 0.48712
 O704 O 0.00144 0.54525 0.53861
 O705 O 0.01059 0.53545 0.42518
 O706 O -0.05922 0.53490 0.45578
 O707 O -0.09236 0.49140 0.51600
 O708 O -0.04966 0.54380 0.51046
 C709 C -0.02835 0.55895 0.52932
 O710 O 0.07742 0.50651 0.55065
 O711 O 0.00573 0.37875 0.55207
 O712 O 0.02323 0.48872 0.57139
 O713 O -0.00927 0.43709 0.57350
 O714 O 0.07622 0.37748 0.51941
 O715 O 0.10974 0.43287 0.51977
 C716 C 0.00703 0.46354 0.58583
 H717 H 0.01641 0.37372 0.49460
 H718 H 0.08628 0.48755 0.48923
 H719 H -0.03566 0.48841 0.54430
 H720 H -0.03186 0.47926 0.43159
 H721 H 0.12925 0.40905 0.47059
 H722 H 0.08564 0.50817 0.41369
 H723 H 0.02909 0.54346 0.41066
 H724 H -0.08105 0.54790 0.46319
 H725 H 0.09932 0.36677 0.51222
 H726 H -0.01355 0.37007 0.56554
 H727 H -0.06819 0.40795 0.56462
 H728 H -0.10694 0.51356 0.51280
 H729 H 0.10028 0.43704 0.54042
 H730 H 0.07348 0.52851 0.56321
 H731 H -0.05689 0.38818 0.41627
 H732 H -0.11128 0.49563 0.46318
 Zr733 Zr 0.48796 -0.09755 -0.02728
 O734 O 0.44473 -0.10744 -0.05691
 O735 O 0.52093 -0.14154 -0.03943
 O736 O 0.50231 -0.09237 -0.07315
 O737 O 0.44370 -0.12980 0.03604
 O738 O 0.53386 -0.04024 -0.07570
 O739 O 0.45463 -0.14069 -0.01386
 O740 O 0.57356 -0.13055 -0.01527
 O741 O 0.53963 -0.07580 -0.02716
 O742 O 0.51062 -0.11157 0.01398
 O743 O 0.48061 -0.04191 -0.03393
 O744 O 0.45236 -0.07573 0.00551
 Zr745 Zr 0.52066 -0.01016 0.04310
 Zr746 Zr 0.53241 -0.02006 -0.03114
 Zr747 Zr 0.47728 -0.08718 0.04671
 Zr748 Zr 0.56106 -0.08780 0.01480
 O749 O 0.42790 -0.08498 0.07048
 O750 O 0.61161 -0.07692 -0.00506
 O751 O 0.52900 -0.06570 0.04961
 O752 O 0.55637 -0.03171 0.01044
 O753 O 0.49860 0.00353 0.00147
 O754 O 0.46914 -0.03160 0.04287
 C755 C 0.55439 -0.14784 -0.03437
 C756 C 0.43870 -0.14721 0.01144
 C757 C 0.52052 -0.06875 -0.08759
 O758 O 0.58639 -0.02067 -0.04641
 O759 O 0.55576 0.03024 -0.02105
 O760 O 0.54649 0.03693 0.02957
 C761 C 0.55773 0.04801 0.00393
 O762 O 0.40173 -0.04014 -0.02073
 Zr763 Zr 0.44813 -0.01984 0.00054
 O764 O 0.48672 0.03375 0.05467
 O765 O 0.50992 0.01901 -0.06010
 O766 O 0.43450 0.01439 -0.03564
 O767 O 0.40090 -0.01597 0.02734
 O768 O 0.44519 0.03314 0.01728
 C769 C 0.46138 0.04847 0.03924
 O770 O 0.56492 0.00532 0.06989
 O771 O 0.49904 -0.13156 0.07028
 O772 O 0.51628 -0.02180 0.08952
 O773 O 0.48276 -0.07252 0.09202
 O774 O 0.57052 -0.13263 0.04289
 O775 O 0.60114 -0.07952 0.04771
 C776 C 0.50094 -0.04726 0.10408
 H777 H 0.51226 -0.13801 0.01641
 H778 H 0.58029 -0.02059 0.01223
 H779 H 0.45392 -0.02200 0.05956
 H780 H 0.46960 -0.03732 -0.05378
 H781 H 0.62759 -0.09798 -0.00124
 H782 H 0.58773 -0.00324 -0.06310
 H783 H 0.52975 0.02738 -0.07314
 H784 H 0.41089 0.02566 -0.03052
 H785 H 0.59312 -0.14450 0.03579
 H786 H 0.47952 -0.14027 0.08349
 H787 H 0.41004 -0.07475 0.05638
 H788 H 0.38634 0.00447 0.01961
 H789 H 0.59693 -0.05504 0.05605
 H790 H 0.55725 0.02667 0.08211
 H791 H 0.45023 -0.13043 -0.06770
 H792 H 0.40956 -0.04965 -0.04063
 Zr793 Zr 0.50822 0.59105 -0.02989
 O794 O 0.54827 0.59968 -0.06300
 O795 O 0.47634 0.63684 -0.03754
 O796 O 0.48855 0.58774 -0.07435
 O797 O 0.55649 0.62418 0.03194
 O798 O 0.45760 0.53512 -0.07686
 O799 O 0.54492 0.63206 -0.01798
 O800 O 0.42268 0.62063 -0.01767
 O801 O 0.45649 0.56975 -0.02741
 O802 O 0.48849 0.60580 0.01268
 O803 O 0.51399 0.53535 -0.03823
 O804 O 0.54554 0.56898 0.00054
 Zr805 Zr 0.47887 0.50463 0.04002
 Zr806 Zr 0.46212 0.51396 -0.03293
 Zr807 Zr 0.52344 0.58109 0.04332
 Zr808 Zr 0.43772 0.58280 0.01548
 O809 O 0.57421 0.57812 0.06431
 O810 O 0.38447 0.57137 0.00215
 O811 O 0.47168 0.56021 0.04818
 O812 O 0.44115 0.52653 0.01001
 O813 O 0.49798 0.49010 -0.00278
 O814 O 0.53053 0.52547 0.03752
 C815 C 0.44207 0.64011 -0.03495
 C816 C 0.56164 0.63980 0.00670
 C817 C 0.46909 0.56456 -0.08836
 O818 O 0.40727 0.51551 -0.04523
 O819 O 0.43768 0.46426 -0.02152
 O820 O 0.45215 0.45749 0.02795
 C821 C 0.43763 0.44660 0.00341
 O822 O 0.59320 0.53323 -0.03011
 Zr823 Zr 0.54862 0.51310 -0.00604
 O824 O 0.51307 0.46070 0.04923
 O825 O 0.48187 0.47454 -0.06375
 O826 O 0.55896 0.47835 -0.04333
 O827 O 0.59781 0.50908 0.01760
 O828 O 0.55323 0.46046 0.01039
 C829 C 0.53788 0.44569 0.03291
 O830 O 0.43524 0.49168 0.06870
 O831 O 0.50316 0.62541 0.06881
 O832 O 0.48781 0.51390 0.08605
 O833 O 0.51963 0.56574 0.08874
 O834 O 0.42992 0.63144 0.04011
 O835 O 0.40366 0.57815 0.05353
 C836 C 0.50318 0.53930 0.10075
 H837 H 0.48774 0.63226 0.01553
 H838 H 0.41732 0.51566 0.01316
 H839 H 0.54674 0.51562 0.05312
 H840 H 0.52340 0.53083 -0.05883
 H841 H 0.36971 0.59323 0.00669
 H842 H 0.40455 0.49796 -0.06200
 H843 H 0.46093 0.46651 -0.07561
 H844 H 0.58294 0.46716 -0.03999
 H845 H 0.40639 0.64165 0.03384
 H846 H 0.52330 0.63369 0.08151
 H847 H 0.59101 0.56798 0.04895
 H848 H 0.61198 0.48904 0.00825
 H849 H 0.40128 0.55207 0.05716
 H850 H 0.44215 0.46990 0.08024
 H851 H 0.54286 0.62330 -0.07233
 H852 H 0.58401 0.54177 -0.04966
 Zr853 Zr -0.00163 1.08823 0.44533
 O854 O 0.04016 1.08614 0.41266
 O855 O -0.02710 1.13708 0.43483
 O856 O -0.02173 1.08620 0.40127
 O857 O 0.05417 1.11688 0.50228
 O858 O -0.06044 1.03927 0.40095
 O859 O 0.03869 1.12543 0.45322
 O860 O -0.07845 1.13676 0.46302
 O861 O -0.05611 1.07709 0.45004
 O862 O -0.01637 1.10814 0.48792
 O863 O -0.00484 1.03242 0.43903
 O864 O 0.03312 1.06159 0.47551
 Zr865 Zr -0.04263 1.01191 0.51927
 Zr866 Zr -0.05914 1.02131 0.44601
 Zr867 Zr 0.01576 1.07966 0.51829
 Zr868 Zr -0.07011 1.09446 0.49343
 O869 O 0.06698 1.07052 0.53728
 O870 O -0.12422 1.09449 0.47869
 O871 O -0.03872 1.06809 0.52596
 O872 O -0.07635 1.03889 0.48892
 O873 O -0.02770 0.99212 0.47656
 O874 O 0.01204 1.02352 0.51432
 C875 C -0.05860 1.14918 0.44193
 C876 C 0.05860 1.13126 0.47617
 C877 C -0.04430 1.06548 0.38815
 O878 O -0.11319 1.03228 0.43411
 O879 O -0.09116 0.97862 0.45941
 O880 O -0.08168 0.97233 0.50983
 C881 C -0.09746 0.96404 0.48495
 O882 O 0.06758 1.01034 0.43868
 Zr883 Zr 0.02609 1.00565 0.47130
 O884 O -0.01928 0.96187 0.52921
 O885 O -0.04807 0.97732 0.41658
 O886 O 0.02454 0.96390 0.43854
 O887 O 0.07743 0.99939 0.49111
 O888 O 0.02602 0.95642 0.49461
 C889 C 0.00672 0.94445 0.51634
 O890 O -0.08608 1.01322 0.55032
 O891 O 0.00405 1.12708 0.54338
 O892 O -0.02529 1.01814 0.56397
 O893 O 0.01354 1.06518 0.56430
 O894 O -0.06819 1.14203 0.52004
 O895 O -0.10810 1.09057 0.52904
 C896 C -0.00391 1.04000 0.57743
 H897 H -0.01298 1.13446 0.48971
 H898 H -0.10189 1.03325 0.49270
 H899 H 0.02745 1.01152 0.52942
 H900 H 0.00330 1.02512 0.41856
 H901 H -0.13523 1.11804 0.48455
 H902 H -0.11951 1.01466 0.41817
 H903 H -0.07060 0.97249 0.40554
 H904 H 0.04557 0.94783 0.44214
 H905 H -0.09123 1.15511 0.51675
 H906 H 0.02639 1.13281 0.55436
 H907 H 0.08131 1.05761 0.52162
 H908 H 0.08761 0.97611 0.48368
 H909 H -0.09460 1.09027 0.54820
 H910 H -0.08428 0.99103 0.56250
 H911 H 0.03860 1.10851 0.40067
 H912 H 0.07829 1.03434 0.44159
 Zr913 Zr 0.65641 0.26253 0.20214
 O914 O 0.64839 0.31030 0.17728
 O915 O 0.61061 0.23344 0.19066
 O916 O 0.65803 0.25361 0.15495
 O917 O 0.62956 0.30468 0.26867
 O918 O 0.70625 0.21547 0.14839
 O919 O 0.61403 0.29515 0.21962
 O920 O 0.61500 0.18215 0.21823
 O921 O 0.67290 0.20842 0.19959
 O922 O 0.64435 0.24018 0.24397
 O923 O 0.71172 0.26359 0.19201
 O924 O 0.68422 0.29446 0.23381
 Zr925 Zr 0.74607 0.21616 0.26499
 Zr926 Zr 0.72825 0.20947 0.19161
 Zr927 Zr 0.67388 0.26980 0.27516
 Zr928 Zr 0.66305 0.18724 0.24225
 O929 O 0.68120 0.31982 0.29720
 O930 O 0.66459 0.13749 0.21846
 O931 O 0.69076 0.21554 0.27585
 O932 O 0.71802 0.18526 0.23323
 O933 O 0.75871 0.23819 0.22303
 O934 O 0.72946 0.27030 0.26720
 C935 C 0.59978 0.20225 0.19863
 C936 C 0.60895 0.30953 0.24589
 C937 C 0.67992 0.23464 0.13845
 O938 O 0.71881 0.15758 0.17353
 O939 O 0.77411 0.17695 0.19711
 O940 O 0.78620 0.17997 0.24740
 C941 C 0.79211 0.16767 0.22043
 O942 O 0.72770 0.33742 0.19893
 Zr943 Zr 0.74007 0.29143 0.22504
 O944 O 0.79461 0.24213 0.27341
 O945 O 0.76854 0.22672 0.16142
 O946 O 0.77636 0.29791 0.18861
 O947 O 0.74524 0.33909 0.25113
 O948 O 0.79281 0.29050 0.24233
 C949 C 0.80877 0.26966 0.26109
 O950 O 0.75587 0.16981 0.29124
 O951 O 0.63262 0.25102 0.30365
 O952 O 0.74116 0.22483 0.31214
 O953 O 0.69392 0.26419 0.31871
 O954 O 0.62241 0.18154 0.27538
 O955 O 0.67461 0.14289 0.27046
 C956 C 0.71956 0.24433 0.32866
 H957 H 0.61832 0.24064 0.24879
 H958 H 0.72584 0.15969 0.23344
 H959 H 0.74197 0.28412 0.28307
 H960 H 0.71636 0.27539 0.17253
 H961 H 0.64334 0.12362 0.22486
 H962 H 0.73462 0.15463 0.15560
 H963 H 0.77308 0.20667 0.14692
 H964 H 0.79121 0.31917 0.19329
 H965 H 0.60908 0.15948 0.27010
 H966 H 0.62623 0.27123 0.31752
 H967 H 0.68690 0.33725 0.28124
 H968 H 0.76636 0.35189 0.24311
 H969 H 0.68430 0.15271 0.28951
 H970 H 0.77941 0.17300 0.30131
 H971 H 0.62477 0.30850 0.16712
 H972 H 0.70370 0.34644 0.20549
 Zr973 Zr 0.84630 0.74923 0.71757
 O974 O 0.85288 0.70557 0.68687
 O975 O 0.89193 0.77940 0.70738
 O976 O 0.84452 0.76642 0.67224
 O977 O 0.87516 0.70017 0.77928
 O978 O 0.79260 0.79969 0.66939
 O979 O 0.88736 0.71248 0.73003
 O980 O 0.88037 0.83323 0.73070
 O981 O 0.82672 0.80219 0.71892
 O982 O 0.86038 0.76956 0.75994
 O983 O 0.79077 0.74571 0.70964
 O984 O 0.82214 0.71475 0.74903
 Zr985 Zr 0.75905 0.78768 0.78661
 Zr986 Zr 0.77130 0.79873 0.71323
 Zr987 Zr 0.83391 0.73729 0.79135
 Zr988 Zr 0.83900 0.82183 0.76165
 O989 O 0.82567 0.68647 0.81116
 O990 O 0.83203 0.87469 0.74494
 O991 O 0.81468 0.79063 0.79504
 O992 O 0.78323 0.82164 0.75528
 O993 O 0.74505 0.76672 0.74449
 O994 O 0.77823 0.73454 0.78557
 C995 C 0.89747 0.81317 0.71155
 C996 C 0.89244 0.69459 0.75443
 C997 C 0.82164 0.78622 0.65793
 O998 O 0.77421 0.85293 0.69939
 O999 O 0.72207 0.82457 0.72278
 O1000 O 0.71482 0.82024 0.77363
 C1001 C 0.70494 0.83111 0.74747
 O1002 O 0.78524 0.67165 0.71467
 Zr1003 Zr 0.76629 0.71455 0.74285
 O1004 O 0.71204 0.75922 0.79575
 O1005 O 0.73268 0.77979 0.68230
 O1006 O 0.72797 0.70752 0.70820
 O1007 O 0.76598 0.66593 0.76743
 O1008 O 0.71491 0.71147 0.76302
 C1009 C 0.69879 0.73113 0.78312
 O1010 O 0.75118 0.83363 0.81469
 O1011 O 0.87896 0.75309 0.81688
 O1012 O 0.76496 0.77663 0.83257
 O1013 O 0.81749 0.74458 0.83680
 O1014 O 0.88539 0.82692 0.78869
 O1015 O 0.82808 0.86120 0.79559
 C1016 C 0.78952 0.76069 0.84808
 H1017 H 0.88677 0.76901 0.76279
 H1018 H 0.77349 0.84649 0.75729
 H1019 H 0.76716 0.71973 0.80144
 H1020 H 0.78620 0.73526 0.68945
 H1021 H 0.85362 0.88854 0.75058
 H1022 H 0.75707 0.85583 0.68256
 H1023 H 0.72517 0.80064 0.66996
 H1024 H 0.71423 0.68561 0.71287
 H1025 H 0.89535 0.85089 0.78429
 H1026 H 0.88559 0.73229 0.82957
 H1027 H 0.84401 0.68354 0.82709
 H1028 H 0.74426 0.65265 0.76133
 H1029 H 0.82959 0.84914 0.81534
 H1030 H 0.72850 0.83034 0.82615
 H1031 H 0.87608 0.70886 0.67617
 H1032 H 0.76639 0.65324 0.71287
 Zr1033 Zr 0.16232 0.26381 0.76702
 O1034 O 0.16574 0.21874 0.79571
 O1035 O 0.11703 0.29008 0.78595
 O1036 O 0.17397 0.27825 0.81191
 O1037 O 0.12388 0.21563 0.70778
 O1038 O 0.22121 0.31671 0.80919
 O1039 O 0.12188 0.22519 0.75860
 O1040 O 0.11422 0.34325 0.76091
 O1041 O 0.17672 0.31810 0.76584
 O1042 O 0.13717 0.28495 0.72901
 O1043 O 0.21896 0.26423 0.76612
 O1044 O 0.18196 0.23194 0.73071
 Zr1045 Zr 0.22830 0.30948 0.68794
 Zr1046 Zr 0.23308 0.31863 0.76248
 Zr1047 Zr 0.15856 0.25552 0.69248
 Zr1048 Zr 0.15349 0.33836 0.72685
 O1049 O 0.16029 0.20739 0.66672
 O1050 O 0.15936 0.38876 0.74889
 O1051 O 0.17176 0.30990 0.68842
 O1052 O 0.20959 0.34137 0.72412
 O1053 O 0.25427 0.28890 0.72586
 O1054 O 0.21444 0.25529 0.68945
 C1055 C 0.10394 0.32182 0.78161
 C1056 C 0.11236 0.20844 0.73428
 C1057 C 0.19719 0.29935 0.82396
 O1058 O 0.22858 0.37215 0.77893
 O1059 O 0.27758 0.34838 0.74606
 O1060 O 0.27349 0.34078 0.69520
 C1061 C 0.28869 0.35345 0.71883
 O1062 O 0.23684 0.19153 0.75826
 Zr1063 Zr 0.23829 0.23563 0.72839
 O1064 O 0.27145 0.28230 0.66695
 O1065 O 0.27944 0.30148 0.78601
 O1066 O 0.28543 0.23220 0.75473
 O1067 O 0.23733 0.18591 0.70467
 O1068 O 0.28238 0.23508 0.69814
 C1069 C 0.28950 0.25435 0.67507
 O1070 O 0.22756 0.35786 0.66303
 O1071 O 0.10805 0.27251 0.67579
 O1072 O 0.21207 0.30259 0.64331
 O1073 O 0.16603 0.26294 0.64578
 O1074 O 0.10363 0.34320 0.70435
 O1075 O 0.15480 0.38200 0.69646
 C1076 C 0.18774 0.28316 0.63125
 H1077 H 0.11067 0.28302 0.73012
 H1078 H 0.21675 0.36672 0.72165
 H1079 H 0.22208 0.24108 0.67148
 H1080 H 0.22900 0.25342 0.78460
 H1081 H 0.13618 0.40211 0.74707
 H1082 H 0.24867 0.37553 0.79319
 H1083 H 0.28773 0.32255 0.79778
 H1084 H 0.29923 0.21073 0.74751
 H1085 H 0.09198 0.36576 0.71185
 H1086 H 0.09963 0.25253 0.66282
 H1087 H 0.17783 0.19134 0.67680
 H1088 H 0.26099 0.17392 0.70779
 H1089 H 0.15571 0.37166 0.67582
 H1090 H 0.24709 0.35616 0.64770
 H1091 H 0.14479 0.22019 0.80964
 H1092 H 0.21172 0.18313 0.75872
 Zr1093 Zr 0.32970 0.76578 0.30740
 O1094 O 0.32722 0.80717 0.34058
 O1095 O 0.38105 0.74386 0.31481
 O1096 O 0.33248 0.74533 0.35159
 O1097 O 0.35197 0.82143 0.24755
 O1098 O 0.28842 0.70341 0.35362
 O1099 O 0.36193 0.81015 0.29727
 O1100 O 0.37953 0.68982 0.29022
 O1101 O 0.32161 0.71057 0.30309
 O1102 O 0.34760 0.75157 0.26410
 O1103 O 0.27473 0.75848 0.31602
 O1104 O 0.29883 0.79783 0.27805
 Zr1105 Zr 0.25165 0.71745 0.23722
 Zr1106 Zr 0.26688 0.70327 0.30978
 Zr1107 Zr 0.31506 0.78090 0.23463
 Zr1108 Zr 0.33753 0.69677 0.25931
 O1109 O 0.29695 0.83180 0.21947
 O1110 O 0.34335 0.64202 0.27168
 O1111 O 0.30683 0.72544 0.22794
 O1112 O 0.28307 0.68634 0.26650
 O1113 O 0.23371 0.73219 0.28041
 O1114 O 0.25992 0.77291 0.24114
 C1115 C 0.39249 0.71151 0.30989
 C1116 C 0.36636 0.82878 0.27326
 C1117 C 0.31441 0.72106 0.36534
 O1118 O 0.28258 0.65029 0.32160
 O1119 O 0.22603 0.66739 0.29885
 O1120 O 0.21619 0.67539 0.24870
 C1121 C 0.21056 0.65941 0.27393
 O1122 O 0.25356 0.82961 0.31586
 Zr1123 Zr 0.24402 0.78710 0.28466
 O1124 O 0.19973 0.73802 0.22934
 O1125 O 0.22437 0.71229 0.34093
 O1126 O 0.20431 0.78311 0.31885
 O1127 O 0.23383 0.83741 0.26400
 O1128 O 0.19366 0.78445 0.26310
 C1129 C 0.18179 0.76395 0.24197
 O1130 O 0.25317 0.67370 0.20622
 O1131 O 0.36090 0.77404 0.20662
 O1132 O 0.25321 0.73404 0.19226
 O1133 O 0.29830 0.77498 0.18931
 O1134 O 0.38451 0.70323 0.23274
 O1135 O 0.33054 0.66245 0.22128
 C1136 C 0.27311 0.75597 0.17765
 H1137 H 0.37334 0.75707 0.26118
 H1138 H 0.27916 0.66031 0.26319
 H1139 H 0.24595 0.78705 0.22637
 H1140 H 0.26825 0.76637 0.33674
 H1141 H 0.36725 0.63343 0.26436
 H1142 H 0.26661 0.64295 0.33832
 H1143 H 0.22205 0.68987 0.35262
 H1144 H 0.18613 0.80238 0.31539
 H1145 H 0.40093 0.68288 0.23756
 H1146 H 0.36296 0.79641 0.19483
 H1147 H 0.31348 0.83884 0.20306
 H1148 H 0.21019 0.84647 0.27148
 H1149 H 0.35376 0.65056 0.21597
 H1150 H 0.22992 0.67379 0.19533
 H1151 H 0.35078 0.80744 0.35097
 H1152 H 0.23081 0.84303 0.31988
 Zr1153 Zr 0.16186 0.75876 0.71330
 O1154 O 0.15987 0.80360 0.68424
 O1155 O 0.11377 0.73302 0.70208
 O1156 O 0.16156 0.74293 0.66780
 O1157 O 0.13871 0.81134 0.77559
 O1158 O 0.20786 0.70213 0.66324
 O1159 O 0.12357 0.79805 0.72708
 O1160 O 0.11588 0.68136 0.72924
 O1161 O 0.17456 0.70380 0.71402
 O1162 O 0.14604 0.74103 0.75575
 O1163 O 0.21726 0.75486 0.70386
 O1164 O 0.19094 0.79090 0.74383
 Zr1165 Zr 0.24522 0.71127 0.77991
 Zr1166 Zr 0.23000 0.69989 0.70682
 Zr1167 Zr 0.17692 0.77061 0.78620
 Zr1168 Zr 0.16105 0.68679 0.75711
 O1169 O 0.18731 0.81986 0.80845
 O1170 O 0.16046 0.63412 0.73834
 O1171 O 0.18973 0.71554 0.78988
 O1172 O 0.21622 0.67992 0.74927
 O1173 O 0.26125 0.72890 0.73735
 O1174 O 0.23259 0.76642 0.77906
 C1175 C 0.10228 0.70164 0.70890
 C1176 C 0.12025 0.81681 0.75155
 C1177 C 0.18117 0.72035 0.65263
 O1178 O 0.21889 0.64689 0.69211
 O1179 O 0.27447 0.66616 0.71597
 O1180 O 0.28493 0.67297 0.76627
 C1181 C 0.29161 0.65857 0.74027
 O1182 O 0.23860 0.82708 0.70666
 Zr1183 Zr 0.24654 0.78320 0.73616
 O1184 O 0.29547 0.73337 0.78857
 O1185 O 0.27107 0.71235 0.67566
 O1186 O 0.28503 0.78338 0.70084
 O1187 O 0.25414 0.83285 0.75891
 O1188 O 0.29794 0.78047 0.75623
 C1189 C 0.31174 0.75959 0.77615
 O1190 O 0.24697 0.66547 0.80791
 O1191 O 0.13159 0.75818 0.81283
 O1192 O 0.24277 0.72506 0.82573
 O1193 O 0.19502 0.76411 0.83070
 O1194 O 0.11634 0.68735 0.78687
 O1195 O 0.16842 0.64602 0.78971
 C1196 C 0.22132 0.74541 0.84137
 H1197 H 0.11988 0.74445 0.75921
 H1198 H 0.22262 0.65409 0.75114
 H1199 H 0.24564 0.78054 0.79441
 H1200 H 0.22282 0.76435 0.68364
 H1201 H 0.13791 0.62268 0.74506
 H1202 H 0.23528 0.64150 0.67492
 H1203 H 0.27523 0.69049 0.66306
 H1204 H 0.30137 0.80368 0.70489
 H1205 H 0.10307 0.66491 0.78279
 H1206 H 0.12705 0.77952 0.82594
 H1207 H 0.19939 0.83507 0.79344
 H1208 H 0.27656 0.84318 0.75076
 H1209 H 0.17128 0.65806 0.80954
 H1210 H 0.27000 0.66596 0.81907
 H1211 H 0.13641 0.80317 0.67372
 H1212 H 0.21504 0.83830 0.71190
 Zr1213 Zr 0.32904 0.24510 0.19333
 O1214 O 0.32992 0.20448 0.15947
 O1215 O 0.37004 0.27796 0.17837
 O1216 O 0.31500 0.26461 0.15021
 O1217 O 0.37842 0.19841 0.24655
 O1218 O 0.26104 0.29320 0.15879
 O1219 O 0.37432 0.20962 0.19628
 O1220 O 0.36482 0.32820 0.20809
 O1221 O 0.30755 0.29693 0.20130
 O1222 O 0.35169 0.26338 0.23363
 O1223 O 0.27299 0.23903 0.19524
 O1224 O 0.31540 0.20632 0.22556
 Zr1225 Zr 0.25907 0.27119 0.27919
 Zr1226 Zr 0.25212 0.29049 0.20575
 Zr1227 Zr 0.33546 0.22673 0.26612
 Zr1228 Zr 0.32853 0.31382 0.24239
 O1229 O 0.33287 0.17273 0.28043
 O1230 O 0.31345 0.36570 0.22715
 O1231 O 0.31529 0.27815 0.27710
 O1232 O 0.27276 0.30976 0.24669
 O1233 O 0.23635 0.25375 0.23853
 O1234 O 0.28015 0.21963 0.27070
 C1235 C 0.37785 0.31041 0.18549
 C1236 C 0.38864 0.19386 0.21917
 C1237 C 0.28673 0.28183 0.14132
 O1238 O 0.25042 0.34536 0.19361
 O1239 O 0.20652 0.31587 0.22552
 O1240 O 0.21013 0.30028 0.27513
 C1241 C 0.19447 0.31569 0.25274
 O1242 O 0.26786 0.16301 0.19568
 Zr1243 Zr 0.25925 0.20325 0.22933
 O1244 O 0.21611 0.23892 0.29274
 O1245 O 0.20573 0.27223 0.18328
 O1246 O 0.21397 0.19606 0.20126
 O1247 O 0.26772 0.15251 0.24959
 O1248 O 0.21356 0.19539 0.25626
 C1249 C 0.20086 0.21236 0.27936
 O1250 O 0.25485 0.31369 0.31122
 O1251 O 0.38550 0.23652 0.28670
 O1252 O 0.27728 0.25646 0.32314
 O1253 O 0.33208 0.23081 0.31286
 O1254 O 0.37859 0.32167 0.26377
 O1255 O 0.32348 0.35202 0.27807
 C1256 C 0.30787 0.24267 0.33125
 H1257 H 0.37825 0.26465 0.23263
 H1258 H 0.26256 0.33372 0.25217
 H1259 H 0.27419 0.20275 0.28704
 H1260 H 0.26376 0.22979 0.17582
 H1261 H 0.33463 0.38135 0.22951
 H1262 H 0.22965 0.34846 0.17995
 H1263 H 0.19534 0.29325 0.17267
 H1264 H 0.20377 0.17221 0.20585
 H1265 H 0.38653 0.34615 0.25844
 H1266 H 0.38595 0.26268 0.29100
 H1267 H 0.35348 0.16901 0.29415
 H1268 H 0.24627 0.13798 0.24501
 H1269 H 0.32368 0.33850 0.29715
 H1270 H 0.23519 0.30758 0.32538
 H1271 H 0.35034 0.20948 0.14571
 H1272 H 0.29360 0.15586 0.19625
 Zr1273 Zr 0.70222 0.70234 0.31453
 O1274 O 0.70809 0.65081 0.33390
 O1275 O 0.66031 0.72455 0.33996
 O1276 O 0.71496 0.70747 0.36058
 O1277 O 0.65634 0.66993 0.25227
 O1278 O 0.75621 0.75232 0.36078
 O1279 O 0.65830 0.66963 0.30368
 O1280 O 0.65588 0.78240 0.32342
 O1281 O 0.71532 0.75653 0.31928
 O1282 O 0.67500 0.73019 0.28062
 O1283 O 0.75857 0.70393 0.31277
 O1284 O 0.71966 0.67752 0.27410
 Zr1285 Zr 0.76440 0.76353 0.24051
 Zr1286 Zr 0.77083 0.75877 0.31510
 Zr1287 Zr 0.69479 0.70812 0.24019
 Zr1288 Zr 0.68978 0.78365 0.28469
 O1289 O 0.69567 0.66263 0.21126
 O1290 O 0.69717 0.83120 0.31063
 O1291 O 0.70754 0.76291 0.24268
 O1292 O 0.74566 0.78789 0.28076
 O1293 O 0.79149 0.73628 0.27493
 O1294 O 0.75067 0.70932 0.23594
 C1295 C 0.64888 0.75717 0.34223
 C1296 C 0.64504 0.65979 0.27819
 C1297 C 0.73439 0.73098 0.37406
 O1298 O 0.76845 0.80887 0.33833
 O1299 O 0.81223 0.79337 0.30260
 O1300 O 0.80695 0.79857 0.25165
 C1301 C 0.82102 0.80709 0.27721
 O1302 O 0.76952 0.63183 0.29191
 Zr1303 Zr 0.77575 0.68260 0.27120
 O1304 O 0.81004 0.74151 0.21873
 O1305 O 0.81760 0.73752 0.33560
 O1306 O 0.82389 0.67483 0.29561
 O1307 O 0.77631 0.63784 0.24117
 O1308 O 0.81790 0.68625 0.23990
 C1309 C 0.82630 0.71091 0.22133
 O1310 O 0.76116 0.81431 0.21935
 O1311 O 0.64547 0.73036 0.22528
 O1312 O 0.74741 0.76067 0.19510
 O1313 O 0.70113 0.72102 0.19433
 O1314 O 0.63673 0.79026 0.26817
 O1315 O 0.68897 0.82774 0.25462
 C1316 C 0.72276 0.74276 0.18140
 H1317 H 0.64855 0.72853 0.28246
 H1318 H 0.75183 0.81369 0.28149
 H1319 H 0.75812 0.69838 0.21642
 H1320 H 0.76946 0.69071 0.32974
 H1321 H 0.67345 0.84358 0.31242
 H1322 H 0.78835 0.80898 0.35310
 H1323 H 0.82514 0.75570 0.35066
 H1324 H 0.83535 0.65258 0.28732
 H1325 H 0.62511 0.80972 0.28036
 H1326 H 0.63548 0.71253 0.21097
 H1327 H 0.71136 0.64458 0.22111
 H1328 H 0.79955 0.62474 0.24363
 H1329 H 0.67044 0.84555 0.26130
 H1330 H 0.78066 0.81501 0.20401
 H1331 H 0.68884 0.64868 0.34930
 H1332 H 0.77662 0.63417 0.31327
 Zr1333 Zr 0.81850 0.25081 0.78156
 O1334 O 0.81986 0.29563 0.81137
 O1335 O 0.86522 0.22276 0.79441
 O1336 O 0.81428 0.23503 0.82683
 O1337 O 0.84993 0.29876 0.71997
 O1338 O 0.76554 0.19836 0.82830
 O1339 O 0.85914 0.28770 0.76979
 O1340 O 0.86164 0.16908 0.76927
 O1341 O 0.80242 0.19708 0.78044
 O1342 O 0.83679 0.22969 0.74048
 O1343 O 0.76226 0.25199 0.78725
 O1344 O 0.79481 0.28418 0.74876
 Zr1345 Zr 0.73911 0.20775 0.70955
 Zr1346 Zr 0.74630 0.19811 0.78371
 Zr1347 Zr 0.81100 0.26056 0.70772
 Zr1348 Zr 0.81902 0.17671 0.73876
 O1349 O 0.80260 0.30911 0.68425
 O1350 O 0.81419 0.12550 0.75892
 O1351 O 0.79553 0.20652 0.70403
 O1352 O 0.76283 0.17498 0.74255
 O1353 O 0.72141 0.22893 0.75091
 O1354 O 0.75463 0.26170 0.71055
 C1355 C 0.87566 0.19016 0.78896
 C1356 C 0.86594 0.30459 0.74512
 C1357 C 0.79249 0.21405 0.84055
 O1358 O 0.75033 0.14407 0.79793
 O1359 O 0.69776 0.17234 0.77169
 O1360 O 0.69644 0.17314 0.72034
 C1361 C 0.68337 0.16439 0.74607
 O1362 O 0.75665 0.32714 0.77781
 Zr1363 Zr 0.73868 0.28198 0.75267
 O1364 O 0.68950 0.23370 0.70079
 O1365 O 0.70497 0.21649 0.81327
 O1366 O 0.70072 0.29131 0.78786
 O1367 O 0.73108 0.32831 0.72582
 O1368 O 0.68645 0.27977 0.73513
 C1369 C 0.67229 0.25851 0.71574
 O1370 O 0.73503 0.16176 0.68114
 O1371 O 0.85908 0.24535 0.68493
 O1372 O 0.74927 0.21690 0.66341
 O1373 O 0.80002 0.25063 0.66228
 O1374 O 0.86651 0.17170 0.71231
 O1375 O 0.81005 0.13889 0.70347
 C1376 C 0.77529 0.23236 0.64954
 H1377 H 0.86329 0.23086 0.73861
 H1378 H 0.75474 0.14982 0.74049
 H1379 H 0.74363 0.27545 0.69390
 H1380 H 0.75574 0.26265 0.80710
 H1381 H 0.83675 0.11180 0.75467
 H1382 H 0.73202 0.14123 0.81398
 H1383 H 0.69769 0.19551 0.82532
 H1384 H 0.68619 0.31286 0.78248
 H1385 H 0.87913 0.14938 0.71864
 H1386 H 0.86515 0.26566 0.67163
 H1387 H 0.79249 0.32650 0.69918
 H1388 H 0.70913 0.34096 0.73338
 H1389 H 0.82812 0.11912 0.70461
 H1390 H 0.71310 0.16475 0.66869
 H1391 H 0.84255 0.29366 0.82293
 H1392 H 0.73710 0.34547 0.77924
 C1393 C 0.50143 1.08863 0.32630
 C1394 C 0.50979 1.12361 0.33465
 C1395 C 0.51924 1.12214 0.36407
 C1396 C 0.51668 1.08657 0.37181
 O1397 O 0.50606 1.06599 0.34903
 H1398 H 0.50868 1.14788 0.32148
 H1399 H 0.52594 1.14461 0.37859
 C1400 C -0.02224 0.52113 0.83508
 C1401 C -0.00438 0.48857 0.83952
 C1402 C 0.00947 0.49053 0.86744
 C1403 C -0.00081 0.52386 0.87861
 O1404 O -0.01983 0.54289 0.85897
 H1405 H -0.00049 0.46605 0.82416
 H1406 H 0.02475 0.46962 0.87865
 C1407 C 0.01431 -0.01167 0.83105
 C1408 C -0.01170 0.01538 0.83206
 C1409 C -0.02428 0.01611 0.86081
 C1410 C -0.00524 -0.01056 0.87531
 O1411 O 0.01806 -0.02771 0.85733
 H1412 H -0.02058 0.03259 0.81397
 H1413 H -0.04468 0.03414 0.87018
 C1414 C 0.49336 0.45774 0.34875
 C1415 C 0.46298 0.47940 0.35152
 C1416 C 0.46005 0.48766 0.38135
 C1417 C 0.48902 0.47068 0.39456
 O1418 O 0.50928 0.45239 0.37489
 H1419 H 0.44608 0.48940 0.33360
 H1420 H 0.43969 0.50456 0.39211
 C1421 C 0.51019 0.54019 0.17956
 C1422 C 0.47566 0.52741 0.17717
 C1423 C 0.46873 0.52615 0.14730
 C1424 C 0.49936 0.53849 0.13356
 O1425 O 0.52474 0.54733 0.15301
 H1426 H 0.45832 0.51838 0.19514
 H1427 H 0.44450 0.51661 0.13666
 C1428 C 0.02032 1.03530 0.65453
 C1429 C -0.00024 1.00455 0.65203
 C1430 C -0.01239 1.00368 0.62350
 C1431 C 0.00136 1.03365 0.60995
 O1432 O 0.02094 1.05345 0.62877
 H1433 H -0.00685 0.98513 0.66907
 H1434 H -0.02897 0.98308 0.61354
 C1435 C -0.01206 0.46006 0.66334
 C1436 C 0.01769 0.48192 0.66477
 C1437 C 0.02931 0.48551 0.63590
 C1438 C 0.00608 0.46540 0.61887
 O1439 O -0.01900 0.44970 0.63539
 H1440 H 0.02873 0.49491 0.68451
 H1441 H 0.05149 0.50151 0.62808
 C1442 C 0.49797 -0.05581 0.18264
 C1443 C 0.53432 -0.04956 0.17941
 C1444 C 0.53995 -0.04517 0.14945
 C1445 C 0.50675 -0.04925 0.13653
 O1446 O 0.48112 -0.05587 0.15646
 H1447 H 0.55377 -0.04574 0.19716
 H1448 H 0.56508 -0.03913 0.13832
 C1449 C 0.38062 0.37211 0.01009
 C1450 C 0.41076 0.35774 0.02368
 C1451 C 0.43657 0.38294 0.02058
 C1452 C 0.42073 0.41093 0.00513
 O1453 O 0.38660 0.40450 -0.00135
 H1454 H 0.41336 0.33238 0.03529
 H1455 H 0.46339 0.38191 0.02979
 C1456 C -0.16731 0.90339 0.49914
 C1457 C -0.17475 0.91109 0.46933
 C1458 C -0.14838 0.93309 0.46022
 C1459 C -0.12667 0.93785 0.48493
 O1460 O -0.13774 0.91957 0.50863
 H1461 H -0.19619 0.90133 0.45524
 H1462 H -0.14585 0.94514 0.43823
 C1463 C -0.17780 0.10274 1.00056
 C1464 C -0.17920 0.09923 1.03145
 C1465 C -0.15060 0.07788 1.03850
 C1466 C -0.13366 0.06986 1.01146
 O1467 O -0.14997 0.08510 0.98833
 H1468 H -0.19872 0.11084 1.04706
 H1469 H -0.14343 0.06845 1.06068
 C1470 C 0.35465 0.61051 0.52778
 C1471 C 0.35349 0.60688 0.55869
 C1472 C 0.38060 0.58327 0.56540
 C1473 C 0.39627 0.57400 0.53814
 O1474 O 0.38072 0.59063 0.51524
 H1475 H 0.33487 0.61962 0.57444
 H1476 H 0.38752 0.57326 0.58746
 C1477 C 0.13838 0.61915 0.48981
 C1478 C 0.13442 0.61968 0.45904
 C1479 C 0.10657 0.59744 0.45331
 C1480 C 0.09572 0.58472 0.48105
 O1481 O 0.11492 0.59809 0.50333
 H1482 H 0.15031 0.63411 0.44278
 H1483 H 0.09646 0.58999 0.43134
 C1484 C 0.60813 0.12684 0.00806
 C1485 C 0.57469 0.14153 0.01491
 C1486 C 0.55133 0.11398 0.01225
 C1487 C 0.57198 0.08454 0.00367
 O1488 O 0.60659 0.09207 0.00112
 H1489 H 0.56824 0.16887 0.02193
 H1490 H 0.52280 0.11481 0.01713
 C1491 C 0.64554 0.87675 0.46613
 C1492 C 0.63218 0.87798 0.43711
 C1493 C 0.60977 0.90721 0.43645
 C1494 C 0.61063 0.92194 0.46502
 O1495 O 0.63235 0.90358 0.48319
 H1496 H 0.63847 0.86029 0.41825
 H1497 H 0.59442 0.91662 0.41736
 C1498 C 0.16810 0.39932 0.98927
 C1499 C 0.16643 0.39526 1.02013
 C1500 C 0.13816 0.41609 1.02952
 C1501 C 0.12444 0.43122 1.00374
 O1502 O 0.14234 0.42090 0.97914
 H1503 H 0.18419 0.37948 1.03421
 H1504 H 0.12937 0.42076 1.05253
 C1505 C 0.07648 0.30154 0.38603
 C1506 C 0.10828 0.29951 0.40197
 C1507 C 0.10357 0.32251 0.42581
 C1508 C 0.06930 0.33652 0.42262
 O1509 O 0.05289 0.32391 0.39867
 H1510 H 0.13192 0.28306 0.39726
 H1511 H 0.12285 0.32858 0.44323
 C1512 C 0.57891 -0.20925 -0.09087
 C1513 C 0.61257 -0.20691 -0.07801
 C1514 C 0.60793 -0.18458 -0.05353
 C1515 C 0.57187 -0.17529 -0.05343
 O1516 O 0.55445 -0.19021 -0.07586
 H1517 H 0.63749 -0.21947 -0.08560
 H1518 H 0.62847 -0.17524 -0.03830
 C1519 C -0.07320 -0.21211 1.08285
 C1520 C -0.10597 -0.21281 1.06833
 C1521 C -0.10225 -0.19072 1.04423
 C1522 C -0.06771 -0.17803 1.04619
 O1523 O -0.05019 -0.19103 1.06936
 H1524 H -0.13041 -0.22572 1.07535
 H1525 H -0.12308 -0.18248 1.02874
 C1526 C 0.48425 0.27517 0.59361
 C1527 C 0.51896 0.26857 0.58349
 C1528 C 0.52798 0.29842 0.56803
 C1529 C 0.49798 0.32054 0.56962
 O1530 O 0.47128 0.30658 0.58488
 H1531 H 0.53624 0.24565 0.58821
 H1532 H 0.55376 0.30412 0.55784
 C1533 C 0.55934 1.13899 0.64484
 C1534 C 0.59546 1.13090 0.64011
 C1535 C 0.59841 1.12151 0.61039
 C1536 C 0.56408 1.12487 0.59925
 O1537 O 0.54051 1.13503 0.61998
 H1538 H 0.61731 1.13235 0.65601
 H1539 H 0.62249 1.11280 0.59843
 C1540 C 0.08431 0.70658 1.10436
 C1541 C 0.11986 0.69883 1.09708
 C1542 C 0.11852 0.67771 1.07158
 C1543 C 0.08240 0.67424 1.06541
 O1544 O 0.06203 0.69175 1.08501
 H1545 H 0.14379 0.70662 1.10906
 H1546 H 0.14096 0.66464 1.06007
 C1547 C 0.42074 0.69465 -0.09561
 C1548 C 0.38561 0.68804 -0.08697
 C1549 C 0.38831 0.66849 -0.06104
 C1550 C 0.42469 0.66497 -0.05582
 O1551 O 0.44402 0.68087 -0.07647
 H1552 H 0.36101 0.69527 -0.09844
 H1553 H 0.36657 0.65653 -0.04853
 C1554 C -0.07783 1.20716 0.38325
 C1555 C -0.11232 1.20647 0.39517
 C1556 C -0.10944 1.18674 0.42089
 C1557 C -0.07361 1.17692 0.42254
 O1558 O -0.05464 1.18937 0.40004
 H1559 H -0.13674 1.21833 0.38633
 H1560 H -0.13111 1.17877 0.43563
 C1561 C 0.78487 0.74833 0.92686
 C1562 C 0.75700 0.77317 0.92348
 C1563 C 0.75651 0.78148 0.89401
 C1564 C 0.78395 0.76141 0.88099
 O1565 O 0.80191 0.74162 0.90090
 H1566 H 0.73899 0.78447 0.94043
 H1567 H 0.73773 0.79961 0.88312
 C1568 C 0.32222 0.22711 0.40909
 C1569 C 0.35696 0.23461 0.40009
 C1570 C 0.35470 0.24359 0.37076
 C1571 C 0.31891 0.24107 0.36327
 O1572 O 0.29876 0.23147 0.38662
 H1573 H 0.38143 0.23405 0.41310
 H1574 H 0.37694 0.25010 0.35607
 C1575 C 0.72286 0.25902 0.40678
 C1576 C 0.73794 0.22472 0.40583
 C1577 C 0.73885 0.21485 0.37633
 C1578 C 0.72393 0.24357 0.36138
 O1579 O 0.71394 0.27047 0.37970
 H1580 H 0.74859 0.20942 0.42446
 H1581 H 0.74938 0.18989 0.36680
 C1582 C 0.22765 0.76547 0.91854
 C1583 C 0.25759 0.74284 0.91557
 C1584 C 0.25809 0.73163 0.88653
 C1585 C 0.22870 0.74805 0.87361
 O1586 O 0.20978 0.76825 0.89291
 H1587 H 0.27683 0.73455 0.93237
 H1588 H 0.27798 0.71407 0.87587
 C1589 C 0.26558 0.77433 0.09999
 C1590 C 0.23211 0.75937 0.10508
 C1591 C 0.23154 0.75018 0.13439
 C1592 C 0.26432 0.76020 0.14562
 O1593 O 0.28539 0.77463 0.12486
 H1594 H 0.21061 0.75430 0.08940
 H1595 H 0.20953 0.73787 0.14633
 C1596 C 0.79507 0.23462 0.57238
 C1597 C 0.77071 0.20691 0.57153
 C1598 C 0.75973 0.20247 0.60048
 C1599 C 0.77811 0.22785 0.61684
 O1600 O 0.79972 0.24731 0.59995
 H1601 H 0.76075 0.19297 0.55182
 H1602 H 0.74034 0.18342 0.60866
 C1603 C 0.18745 0.26551 0.55401
 C1604 C 0.19774 0.30092 0.55277
 C1605 C 0.19663 0.31298 0.58173
 C1606 C 0.18579 0.28396 0.59842
 O1607 O 0.18012 0.25502 0.58168
 H1608 H 0.20711 0.31539 0.53328
 H1609 H 0.20483 0.33909 0.58998
 C1610 C 0.71160 0.73815 0.10233
 C1611 C 0.72584 0.77217 0.10451
 C1612 C 0.73094 0.77840 0.13435
 C1613 C 0.71940 0.74787 0.14854
 O1614 O 0.70753 0.72317 0.12918
 H1615 H 0.73325 0.78964 0.08621
 H1616 H 0.74259 0.80206 0.14457
 C1617 C 0.15485 0.58490 0.26132
 C1618 C 0.15931 0.58108 0.29196
 C1619 C 0.17969 0.60930 0.30069
 C1620 C 0.18627 0.62847 0.27483
 O1621 O 0.17111 0.61382 0.25084
 H1622 H 0.14867 0.56050 0.30642
 H1623 H 0.18919 0.61494 0.32322
 C1624 C 0.60869 0.10669 0.73852
 C1625 C 0.59580 0.12844 0.76165
 C1626 C 0.62171 0.15318 0.76682
 C1627 C 0.64884 0.14499 0.74655
 O1628 O 0.64115 0.11664 0.72925
 H1629 H 0.57125 0.12516 0.77447
 H1630 H 0.62141 0.17415 0.78392
 C1631 C 0.85425 0.09512 0.22388
 C1632 C 0.84531 0.09205 0.19379
 C1633 C 0.82293 0.12045 0.18832
 C1634 C 0.81926 0.13877 0.21541
 O1635 O 0.83850 0.12369 0.23699
 H1636 H 0.85386 0.07174 0.17755
 H1637 H 0.80950 0.12618 0.16731
 C1638 C 0.35661 0.58913 0.74913
 C1639 C 0.34916 0.58410 0.71882
 C1640 C 0.32538 0.61056 0.71158
 C1641 C 0.31947 0.62997 0.73777
 O1642 O 0.33864 0.61738 0.76062
 H1643 H 0.35989 0.56399 0.70331
 H1644 H 0.31295 0.61459 0.68987
 C1645 C 0.36869 0.40378 0.71643
 C1646 C 0.36344 0.39890 0.68594
 C1647 C 0.33287 0.38010 0.68350
 C1648 C 0.32115 0.37465 0.71263
 O1649 O 0.34273 0.38936 0.73295
 H1650 H 0.37986 0.40833 0.66752
 H1651 H 0.32058 0.37117 0.66274
 C1652 C 0.87503 0.88258 0.26495
 C1653 C 0.87276 0.88488 0.29602
 C1654 C 0.85480 0.85507 0.30465
 C1655 C 0.84672 0.83688 0.27835
 O1656 O 0.85927 0.85327 0.25424
 H1657 H 0.88282 0.90568 0.31082
 H1658 H 0.84669 0.84847 0.32735
 C1659 C 0.63363 0.89315 0.75514
 C1660 C 0.63142 0.88752 0.72446
 C1661 C 0.65670 0.86190 0.71793
 C1662 C 0.67252 0.85377 0.74509
 O1663 O 0.65840 0.87251 0.76788
 H1664 H 0.61409 0.90129 0.70866
 H1665 H 0.66381 0.85141 0.69581
 C1666 C 0.11838 0.37209 0.26348
 C1667 C 0.10522 0.34083 0.27595
 C1668 C 0.13211 0.31594 0.27325
 C1669 C 0.15954 0.33320 0.25883
 O1670 O 0.15146 0.36725 0.25261
 H1671 H 0.07927 0.33644 0.28626
 H1672 H 0.13183 0.28842 0.28087
 C1673 C 0.04226 0.33683 0.84018
 C1674 C 0.03994 0.37083 0.82802
 C1675 C 0.06201 0.36956 0.80336
 C1676 C 0.07606 0.33496 0.80252
 O1677 O 0.06406 0.31514 0.82470
 H1678 H 0.02410 0.39369 0.83604
 H1679 H 0.06781 0.39140 0.78824
 C1680 C 0.59149 0.78653 0.40051
 C1681 C 0.61184 0.76211 0.41657
 C1682 C 0.63597 0.74836 0.39655
 C1683 C 0.62920 0.76589 0.36994
 O1684 O 0.60234 0.78935 0.37218
 H1685 H 0.60786 0.75349 0.43953
 H1686 H 0.65529 0.72696 0.40052
 C1687 C 0.53501 0.17985 0.14615
 C1688 C 0.53159 0.14948 0.16361
 C1689 C 0.55424 0.15459 0.18727
 C1690 C 0.56942 0.18765 0.18235
 O1691 O 0.55775 0.20292 0.15766
 H1692 H 0.51524 0.12617 0.15951
 H1693 H 0.56006 0.13592 0.20520
 C1694 C 0.04169 0.67960 0.65212
 C1695 C 0.03831 0.64827 0.66830
 C1696 C 0.05929 0.65296 0.69316
 C1697 C 0.07360 0.68682 0.69027
 O1698 O 0.06296 0.70286 0.66553
 H1699 H 0.02251 0.62493 0.66281
 H1700 H 0.06441 0.63364 0.71075
 C1701 C 0.94977 0.83537 0.64945
 C1702 C 0.94512 0.87015 0.66041
 C1703 C 0.92704 0.86666 0.68720
 C1704 C 0.92228 0.83014 0.69052
 O1705 O 0.93609 0.81148 0.66790
 H1706 H 0.95288 0.89509 0.65006
 H1707 H 0.91674 0.88818 0.70159
 C1708 C 0.43704 0.33265 0.12835
 C1709 C 0.43651 0.36619 0.14232
 C1710 C 0.41398 0.36288 0.16657
 C1711 C 0.40291 0.32770 0.16534
 O1712 O 0.41661 0.30967 0.14237
 H1713 H 0.45127 0.38992 0.13630
 H1714 H 0.40672 0.38338 0.18309
 C1715 C 0.44019 0.69269 0.37419
 C1716 C 0.44327 0.65862 0.36156
 C1717 C 0.42868 0.66165 0.33352
 C1718 C 0.41823 0.69731 0.33134
 O1719 O 0.42537 0.71595 0.35577
 H1720 H 0.45397 0.63436 0.37160
 H1721 H 0.42398 0.64007 0.31753
 C1722 C 0.94048 0.17356 0.84385
 C1723 C 0.93928 0.13879 0.83262
 C1724 C 0.91580 0.14035 0.80905
 C1725 C 0.90453 0.17588 0.80789
 O1726 O 0.91947 0.19588 0.82885
 H1727 H 0.95355 0.11521 0.84064
 H1728 H 0.90706 0.11813 0.79510
 C1729 C 0.54840 1.01694 0.66961
 C1730 C 0.53780 0.98192 0.66311
 C1731 C 0.52998 0.98090 0.63343
 C1732 C 0.53552 1.01505 0.62332
 O1733 O 0.54689 1.03728 0.64499
 H1734 H 0.53699 0.95864 0.67740
 H1735 H 0.52162 0.95772 0.62042
 C1736 C 0.07461 0.56862 1.17357
 C1737 C 0.06105 0.60346 1.17341
 C1738 C 0.04750 0.60834 1.14528
 C1739 C 0.05412 0.57625 1.13027
 O1740 O 0.07044 0.55203 1.14736
 H1741 H 0.06131 0.62306 1.19161
 H1742 H 0.03523 0.63264 1.13651
 C1743 C -0.07285 -0.08518 1.16801
 C1744 C -0.06354 -0.12030 1.15986
 C1745 C -0.05055 -0.11863 1.13129
 C1746 C -0.05321 -0.08296 1.12357
 O1747 O -0.06651 -0.06242 1.14575
 H1748 H -0.06475 -0.14444 1.17319
 H1749 H -0.04088 -0.14091 1.11745
 C1750 C 0.48753 0.44811 0.69493
 C1751 C 0.51928 0.46676 0.69749
 C1752 C 0.53471 0.46523 0.66942
 C1753 C 0.51132 0.44605 0.65169
 O1754 O 0.48286 0.43575 0.66709
 H1755 H 0.52934 0.48109 0.71695
 H1756 H 0.55838 0.47936 0.66210
 C1757 C 0.43519 0.57015 -0.16239
 C1758 C 0.44562 0.60545 -0.15897
 C1759 C 0.46075 0.60750 -0.13121
 C1760 C 0.45821 0.57344 -0.11940
 O1761 O 0.44282 0.55055 -0.13835
 H1762 H 0.44281 0.62707 -0.17496
 H1763 H 0.47173 0.63120 -0.12056
 C1764 C -0.07175 1.06967 0.31239
 C1765 C -0.05697 1.10342 0.31480
 C1766 C -0.04425 1.10577 0.34332
 C1767 C -0.05238 1.07340 0.35646
 O1768 O -0.06901 1.05122 0.33772
 H1769 H -0.05559 1.12389 0.29770
 H1770 H -0.03116 1.12863 0.35354
 C1771 C 0.02840 0.45114 0.31518
 C1772 C -0.00193 0.47295 0.31509
 C1773 C -0.01441 0.47284 0.34404
 C1774 C 0.00911 0.45088 0.35950
 O1775 O 0.03529 0.43795 0.34216
 H1776 H -0.01278 0.48812 0.29648
 H1777 H -0.03664 0.48864 0.35325
 C1778 C 0.54819 -0.07094 -0.16362
 C1779 C 0.52959 -0.10280 -0.16348
 C1780 C 0.51571 -0.10551 -0.13522
 C1781 C 0.52701 -0.07523 -0.12000
 O1782 O 0.54672 -0.05404 -0.13720
 H1783 H 0.52738 -0.12225 -0.18168
 H1784 H 0.50023 -0.12753 -0.12644
 C1785 C 0.63990 0.69085 0.01573
 C1786 C 0.63311 0.69806 -0.01432
 C1787 C 0.60118 0.68261 -0.02072
 C1788 C 0.59057 0.66655 0.00558
 O1789 O 0.61361 0.67207 0.02801
 H1790 H 0.64982 0.71237 -0.03007
 H1791 H 0.58837 0.68119 -0.04252
 C1792 C 0.13693 1.18311 0.47680
 C1793 C 0.13041 1.18412 0.44634
 C1794 C 0.09933 1.16605 0.44251
 C1795 C 0.08927 1.15500 0.47092
 O1796 O 0.11201 1.16552 0.49194
 H1797 H 0.14639 1.19671 0.42906
 H1798 H 0.08603 1.16070 0.42135
 C1799 C 0.13542 -0.17927 0.98642
 C1800 C 0.11872 -0.19840 1.00879
 C1801 C 0.08714 -0.18067 1.01435
 C1802 C 0.08680 -0.15187 0.99502
 O1803 O 0.11618 -0.15083 0.97794
 H1804 H 0.12924 -0.22159 1.02059
 H1805 H 0.06721 -0.18723 1.03120
 C1806 C 0.66467 0.32611 0.49304
 C1807 C 0.66039 0.31879 0.52338
 C1808 C 0.63202 0.33895 0.53291
 C1809 C 0.62073 0.35769 0.50803
 O1810 O 0.63997 0.34949 0.48338
 H1811 H 0.67659 0.30110 0.53721
 H1812 H 0.62151 0.34070 0.55567
 C1813 C -0.11270 0.29101 0.50408
 C1814 C -0.09482 0.27558 0.47976
 C1815 C -0.06825 0.29891 0.47266
 C1816 C -0.07203 0.32690 0.49311
 O1817 O -0.09903 0.32229 0.51211
 H1818 H -0.10223 0.25173 0.46719
 H1819 H -0.04952 0.29670 0.45396
 C1820 C 0.36225 -0.19850 0.02504
 C1821 C 0.37466 -0.21747 -0.00002
 C1822 C 0.40634 -0.20202 -0.00796
 C1823 C 0.41094 -0.17478 0.01283
 O1824 O 0.38430 -0.17256 0.03281
 H1825 H 0.36073 -0.23821 -0.01242
 H1826 H 0.42299 -0.20850 -0.02740
 C1827 C 0.36012 1.17762 0.50790
 C1828 C 0.35831 1.17417 0.53890
 C1829 C 0.38903 1.15588 0.54689
 C1830 C 0.40735 1.14954 0.52026
 O1831 O 0.38997 1.16279 0.49677
 H1832 H 0.33692 1.18313 0.55393
 H1833 H 0.39646 1.14713 0.56921
 C1834 C -0.13106 0.69312 1.00153
 C1835 C -0.11901 0.70463 1.02924
 C1836 C -0.08693 0.68760 1.03341
 C1837 C -0.08163 0.66641 1.00804
 O1838 O -0.10839 0.66975 0.98844
 H1839 H -0.13310 0.72196 1.04518
 H1840 H -0.07033 0.68896 1.05332
 C1841 C -0.03042 0.64510 0.56167
 C1842 C -0.06050 0.64942 0.54387
 C1843 C -0.06509 0.61679 0.53005
 C1844 C -0.03742 0.59523 0.54044
 O1845 O -0.01655 0.61227 0.55960
 H1846 H -0.07697 0.67339 0.54110
 H1847 H -0.08537 0.60989 0.51369
 C1848 C 0.46133 0.13903 0.06001
 C1849 C 0.43475 0.14183 0.03856
 C1850 C 0.42906 0.10729 0.02907
 C1851 C 0.45260 0.08628 0.04550
 O1852 O 0.47195 0.10543 0.06420
 H1853 H 0.42175 0.16596 0.03027
 H1854 H 0.41131 0.09868 0.01126
 C1855 C 0.00362 0.15249 0.94167
 C1856 C 0.02910 0.15931 0.96350
 C1857 C 0.03141 0.12857 0.98001
 C1858 C 0.00712 0.10556 0.96706
 O1859 O -0.00961 0.11992 0.94392
 H1860 H 0.04469 0.18335 0.96675
 H1861 H 0.04880 0.12346 0.99900
 C1862 C 0.49481 0.66342 0.47239
 C1863 C 0.52149 0.67009 0.49317
 C1864 C 0.53246 0.63717 0.50278
 C1865 C 0.51178 0.61285 0.48721
 O1866 O 0.48888 0.62859 0.46885
 H1867 H 0.53272 0.69556 0.49994
 H1868 H 0.55308 0.63153 0.51925
 C1869 C 0.49321 0.87800 0.40013
 C1870 C 0.50131 0.89592 0.37394
 C1871 C 0.49798 0.93155 0.38113
 C1872 C 0.48796 0.93248 0.41107
 O1873 O 0.48474 0.90014 0.42248
 H1874 H 0.51238 0.88452 0.35329
 H1875 H 0.50577 0.95398 0.36730
 C1876 C -0.01610 0.36153 0.93985
 C1877 C -0.04172 0.35630 0.96199
 C1878 C -0.04286 0.38764 0.97834
 C1879 C -0.01778 0.40934 0.96496
 O1880 O -0.00166 0.39366 0.94172
 H1881 H -0.05799 0.33285 0.96560
 H1882 H -0.05976 0.39387 0.99767
 C1883 C 0.53305 0.35673 0.05408
 C1884 C 0.55742 0.35087 0.03088
 C1885 C 0.56597 0.38457 0.02108
 C1886 C 0.54620 0.40804 0.03920
 O1887 O 0.52689 0.39121 0.05917
 H1888 H 0.56580 0.32546 0.02079
 H1889 H 0.58201 0.39104 0.00153
 C1890 C 0.00974 0.86064 0.55169
 C1891 C 0.03640 0.85356 0.53053
 C1892 C 0.03950 0.88453 0.51457
 C1893 C 0.01449 0.90806 0.52715
 O1894 O -0.00346 0.89374 0.54965
 H1895 H 0.05192 0.82899 0.52713
 H1896 H 0.05747 0.88925 0.49583
 C1897 C 0.28681 0.30145 0.06316
 C1898 C 0.25254 0.28742 0.06621
 C1899 C 0.24900 0.27837 0.09552
 C1900 C 0.28114 0.28661 0.10870
 O1901 O 0.30445 0.30047 0.08928
 H1902 H 0.23156 0.28463 0.04970
 H1903 H 0.22551 0.26723 0.10623
 C1904 C 0.82294 0.81927 0.58416
 C1905 C 0.85859 0.80836 0.58540
 C1906 C 0.86263 0.79266 0.61285
 C1907 C 0.82928 0.79552 0.62645
 O1908 O 0.80514 0.81150 0.60906
 H1909 H 0.87920 0.81164 0.56839
 H1910 H 0.88716 0.78166 0.62226
 C1911 C 0.17274 0.69459 0.57692
 C1912 C 0.14087 0.71396 0.57959
 C1913 C 0.14035 0.72712 0.60825
 C1914 C 0.17180 0.71459 0.62098
 O1915 O 0.19165 0.69494 0.60203
 H1916 H 0.12036 0.71776 0.56268
 H1917 H 0.11917 0.74316 0.61885
 C1918 C 0.67926 0.21822 0.06108
 C1919 C 0.70138 0.24778 0.06149
 C1920 C 0.70029 0.26038 0.09035
 C1921 C 0.67794 0.23763 0.10565
 O1922 O 0.66506 0.21200 0.08801
 H1923 H 0.71730 0.25837 0.04324
 H1924 H 0.71639 0.28169 0.09978
 C1925 C 0.79587 0.18403 0.91516
 C1926 C 0.82910 0.20003 0.91426
 C1927 C 0.83157 0.21480 0.88645
 C1928 C 0.79979 0.20646 0.87233
 O1929 O 0.77794 0.18788 0.88972
 H1930 H 0.84925 0.20053 0.93174
 H1931 H 0.85430 0.22887 0.87718
 C1932 C 0.32541 0.68781 0.43890
 C1933 C 0.35724 0.70630 0.43697
 C1934 C 0.35668 0.72234 0.40951
 C1935 C 0.32490 0.71204 0.39641
 O1936 O 0.30568 0.69128 0.41428
 H1937 H 0.37802 0.70844 0.45383
 H1938 H 0.37716 0.73923 0.39999
 C1939 C 0.71517 0.76306 0.44683
 C1940 C 0.71634 0.72703 0.45391
 C1941 C 0.72470 0.70951 0.42743
 C1942 C 0.72897 0.73636 0.40656
 O1943 O 0.72291 0.76876 0.41823
 H1944 H 0.71061 0.71503 0.47547
 H1945 H 0.72683 0.68074 0.42364
 C1946 C 0.20292 0.32355 0.90103
 C1947 C 0.17450 0.30033 0.90299
 C1948 C 0.16957 0.28753 0.87457
 C1949 C 0.19516 0.30402 0.85707
 O1950 O 0.21566 0.32600 0.87312
 H1951 H 0.15877 0.29414 0.92280
 H1952 H 0.14903 0.26909 0.86728
 C1953 C 0.92197 0.38020 0.73636
 C1954 C 0.93544 0.36794 0.76333
 C1955 C 0.91714 0.33741 0.76953
 C1956 C 0.89356 0.33301 0.74599
 O1957 O 0.89637 0.35903 0.72570
 H1958 H 0.95530 0.38071 0.77742
 H1959 H 0.91984 0.32092 0.78936
 C1960 C 0.41895 0.90775 0.26821
 C1961 C 0.41046 0.90917 0.29862
 C1962 C 0.39091 0.87938 0.30407
 C1963 C 0.38802 0.86177 0.27676
 O1964 O 0.40521 0.87871 0.25483
 H1965 H 0.41834 0.92880 0.31537
 H1966 H 0.37951 0.87166 0.32549
 C1967 C 0.06947 0.89754 0.75927
 C1968 C 0.05204 0.88331 0.73467
 C1969 C 0.06773 0.85052 0.72955
 C1970 C 0.09380 0.84695 0.75134
 O1971 O 0.09497 0.87555 0.76955
 H1972 H 0.03129 0.89610 0.72134
 H1973 H 0.06182 0.83194 0.71137
 C1974 C 0.54337 0.37358 0.26801
 C1975 C 0.52526 0.35930 0.24374
 C1976 C 0.54709 0.33255 0.23249
 C1977 C 0.57705 0.33270 0.25061
 O1978 O 0.57496 0.35761 0.27210
 H1979 H 0.50031 0.36905 0.23413
 H1980 H 0.54240 0.31585 0.21282
 C1981 C 0.57634 0.59813 0.26571
 C1982 C 0.56797 0.60696 0.29527
 C1983 C 0.59251 0.63168 0.30375
 C1984 C 0.61397 0.63618 0.27874
 O1985 O 0.60418 0.61607 0.25548
 H1986 H 0.54741 0.59537 0.30936
 H1987 H 0.59498 0.64438 0.32567
 C1988 C 0.06407 0.12777 0.72852
 C1989 C 0.05032 0.13980 0.75590
 C1990 C 0.06556 0.17233 0.76122
 C1991 C 0.08750 0.17804 0.73673
 O1992 O 0.08666 0.15109 0.71675
 H1993 H 0.03270 0.12551 0.77096
 H1994 H 0.06214 0.18923 0.78107
 C1995 C 0.44922 0.12250 0.22807
 C1996 C 0.44733 0.12033 0.19700
 C1997 C 0.42674 0.14939 0.18853
 C1998 C 0.41739 0.16672 0.21512
 O1999 O 0.43124 0.15062 0.23887
 H2000 H 0.45809 0.09920 0.18245
 H2001 H 0.41741 0.15549 0.16609
 C2002 C 0.93880 0.61194 0.76030
 C2003 C 0.95513 0.62361 0.73425
 C2004 C 0.94177 0.65744 0.72970
 C2005 C 0.91815 0.66400 0.75326
 O2006 O 0.91635 0.63643 0.77195
 H2007 H 0.97331 0.60850 0.71959
 H2008 H 0.94706 0.67448 0.71060
 C2009 C 0.89530 0.71311 0.16909
 C2010 C 0.87433 0.68765 0.15502
 C2011 C 0.84801 0.68011 0.17518
 C2012 C 0.85431 0.70231 0.19951
 O2013 O 0.88298 0.72230 0.19604
 H2014 H 0.87687 0.67736 0.13218
 H2015 H 0.82485 0.66340 0.17137
 C2016 C 0.37186 0.23271 0.64081
 C2017 C 0.35111 0.23410 0.61510
 C2018 C 0.31707 0.24120 0.62487
 C2019 C 0.31949 0.24309 0.65575
 O2020 O 0.35258 0.23780 0.66565
 H2021 H 0.36005 0.23208 0.59191
 H2022 H 0.29347 0.24568 0.61117
 C2023 C 0.39726 0.75790 0.80860
 C2024 C 0.40402 0.78431 0.78769
 C2025 C 0.37239 0.78923 0.77267
 C2026 C 0.34891 0.76543 0.78551
 O2027 O 0.36386 0.74655 0.80720
 H2028 H 0.42872 0.79863 0.78399
 H2029 H 0.36717 0.80767 0.75446
 C2030 C 0.89608 0.27021 0.28989
 C2031 C 0.90230 0.29279 0.26584
 C2032 C 0.86962 0.29732 0.25229
 C2033 C 0.84619 0.27688 0.26881
 O2034 O 0.86204 0.26071 0.29147
 H2035 H 0.92733 0.30458 0.25879
 H2036 H 0.86386 0.31257 0.23221
 C2037 C 0.11275 0.21484 0.30549
 C2038 C 0.10898 0.18563 0.28635
 C2039 C 0.14290 0.17820 0.27574
 C2040 C 0.16460 0.20339 0.28932
 O2041 O 0.14640 0.22526 0.30738
 H2042 H 0.08452 0.17227 0.27991
 H2043 H 0.15044 0.15852 0.25862
 C2044 C 0.61218 0.72544 0.81372
 C2045 C 0.60884 0.69809 0.79264
 C2046 C 0.64156 0.69559 0.77854
 C2047 C 0.66219 0.72165 0.79205
 O2048 O 0.64450 0.73964 0.81330
 H2049 H 0.58562 0.68176 0.78816
 H2050 H 0.64925 0.67744 0.76032
 C2051 C 0.58188 0.23662 0.71114
 C2052 C 0.57670 0.26945 0.72553
 C2053 C 0.61022 0.28397 0.72738
 C2054 C 0.63306 0.25918 0.71351
 O2055 O 0.61593 0.23068 0.70382
 H2056 H 0.55188 0.28101 0.73434
 H2057 H 0.61737 0.30872 0.73875
 C2058 C 0.09988 0.76791 0.20335
 C2059 C 0.09111 0.79296 0.22555
 C2060 C 0.12081 0.79493 0.24339
 C2061 C 0.14531 0.77085 0.23083
 O2062 O 0.13275 0.75456 0.20663
 H2063 H 0.06643 0.80845 0.22825
 H2064 H 0.12426 0.81195 0.26306
   
