data_POSCAR
  _audit_creation_date              2014-09-24
  _audit_creation_method            'ToBaCCo'
  _symmetry_space_group_name_H-M    'P1'
  _symmetry_Int_Tables_number       1
  _symmetry_cell_setting            triclinic
  loop_
  _symmetry_equiv_pos_as_xyz
 x,y,z
_cell_length_a 62.7938
_cell_length_b 62.7930
_cell_length_c 62.8826
_cell_angle_alpha 90.035500
_cell_angle_beta 89.999100
_cell_angle_gamma 90.019100
loop_
  _atom_site_label
  _atom_site_type_symbol
  _atom_site_fract_x
  _atom_site_fract_y
  _atom_site_fract_z
C1 C 0.19172 0.21138 0.22170
 N2 N 0.20511 0.19474 0.22497
 C3 C 0.22172 0.19142 0.21158
 N4 N 0.22496 0.20476 0.19491
 C5 C 0.21157 0.22140 0.19164
 N6 N 0.19496 0.22471 0.20504
 C7 C 0.69144 0.71184 0.72150
 N8 N 0.70479 0.69516 0.72472
 C9 C 0.72142 0.69187 0.71134
 N10 N 0.72470 0.70527 0.69474
 C11 C 0.71136 0.72195 0.69151
 N12 N 0.69473 0.72524 0.70490
 C13 C 0.30784 0.78903 0.72184
 N14 N 0.29450 0.80572 0.72506
 C15 C 0.27789 0.80902 0.71166
 N16 N 0.27462 0.79561 0.69504
 C17 C 0.28796 0.77892 0.69182
 N18 N 0.30457 0.77563 0.70522
 C19 C 0.80888 0.28814 0.22202
 N20 N 0.79547 0.30477 0.22526
 C21 C 0.77884 0.30802 0.21185
 N22 N 0.77563 0.29462 0.19521
 C23 C 0.78904 0.27799 0.19197
 N24 N 0.80567 0.27475 0.20537
 C25 C 0.80876 0.71180 0.27845
 N26 N 0.80553 0.72521 0.29507
 C27 C 0.78891 0.72198 0.30848
 N28 N 0.77551 0.70532 0.30526
 C29 C 0.77873 0.69191 0.28864
 N30 N 0.79536 0.69515 0.27524
 C31 C 0.30840 0.21129 -0.22219
 N32 N 0.29501 0.19464 -0.22548
 C33 C 0.27833 0.19136 -0.21214
 N34 N 0.27505 0.20475 -0.19551
 C35 C 0.28844 0.22140 -0.19221
 N36 N 0.30511 0.22466 -0.20555
 C37 C 0.69175 0.28862 -0.22130
 N38 N 0.70511 0.30529 -0.22457
 C39 C 0.72179 0.30858 -0.21126
 N40 N 0.72512 0.29518 -0.19466
 C41 C 0.71177 0.27851 -0.19138
 N42 N 0.69508 0.27523 -0.20470
 C43 C 0.19215 0.78854 0.27789
 N44 N 0.19532 0.77520 0.29457
 C45 C 0.21191 0.77850 0.30801
 N46 N 0.22532 0.79513 0.30477
 C47 C 0.22215 0.80847 0.28809
 N48 N 0.20556 0.80517 0.27466
 C49 C 0.46137 0.44152 0.47195
 N50 N 0.44474 0.45493 0.47518
 C51 C 0.44151 0.47156 0.46180
 N52 N 0.45491 0.47478 0.44518
 C53 C 0.47154 0.46138 0.44194
 N54 N 0.47477 0.44474 0.45533
 C55 C -0.03820 -0.05795 0.97150
 N56 N -0.02481 -0.05468 0.95488
 C57 C -0.02805 -0.03802 0.94154
 N58 N -0.04469 -0.02463 0.94481
 C59 C -0.05809 -0.02789 0.96143
 N60 N -0.05484 -0.04455 0.97477
 C61 C 1.03805 0.55860 0.97174
 N62 N 1.02466 0.55533 0.95512
 C63 C 1.02790 0.53867 0.94175
 N64 N 1.04454 0.52527 0.94501
 C65 C 1.05793 0.52854 0.96163
 N66 N 1.05468 0.54520 0.97500
 C67 C 0.53870 0.05790 0.47205
 N68 N 0.52533 0.05461 0.45541
 C69 C 0.52866 0.03800 0.44200
 N70 N 0.54536 0.02468 0.44523
 C71 C 0.55873 0.02796 0.46186
 N72 N 0.55540 0.04458 0.47527
 C73 C -0.03879 0.05852 0.52836
 N74 N -0.05546 0.04514 0.52512
 C75 C -0.05871 0.02849 0.53849
 N76 N -0.04529 0.02522 0.55508
 C77 C -0.02862 0.03861 0.55832
 N78 N -0.02538 0.05526 0.54495
 C79 C 0.46165 0.55834 0.02840
 N80 N 0.44503 0.54492 0.02512
 C81 C 0.44177 0.52826 0.03845
 N82 N 0.45515 0.52500 0.05508
 C83 C 0.47179 0.53841 0.05837
 N84 N 0.47504 0.55508 0.04503
 C85 C 0.53849 -0.05868 0.02809
 N86 N 0.52516 -0.05544 0.04476
 C87 C 0.52848 -0.03882 0.05817
 N88 N 0.54515 -0.02545 0.05491
 C89 C 0.55848 -0.02870 0.03823
 N90 N 0.55515 -0.04531 0.02483
 C91 C 1.03789 0.44127 0.52791
 N92 N 1.05452 0.45470 0.52467
 C93 C 1.05779 0.47131 0.53809
 N94 N 1.04444 0.47450 0.55475
 C95 C 1.02781 0.46108 0.55800
 N96 N 1.02454 0.44447 0.54457
 C97 C 0.40776 0.00937 0.22152
 H98 H 0.40860 0.02385 0.23082
 C99 C 0.42167 0.00633 0.20446
 H100 H 0.43323 0.01852 0.20052
 C101 C 0.39191 -0.02438 0.21544
 H102 H 0.38054 -0.03646 0.21995
 C103 C 0.40553 -0.02806 0.19826
 H104 H 0.40446 -0.04287 0.18947
 N105 N 0.39310 -0.00579 0.22652
 C106 C 0.34265 0.02820 0.26007
 H107 H 0.34180 0.01892 0.27454
 C108 C 0.32875 0.04528 0.25701
 H109 H 0.31719 0.04926 0.26918
 C110 C 0.35851 0.03421 0.22637
 H111 H 0.36987 0.02966 0.21431
 C112 C 0.34489 0.05141 0.22267
 H113 H 0.34597 0.06017 0.20787
 Zn114 Zn 0.37519 -0.00055 0.25018
 N115 N 0.35731 0.02316 0.24495
 C116 C 0.39188 0.02327 0.28494
 N117 N 0.39307 0.00467 0.27387
 C118 C 0.40772 -0.01049 0.27887
 C119 C 0.42162 -0.00745 0.29594
 C120 C 0.40550 0.02695 0.30213
 C121 C 0.34262 -0.02927 0.24022
 C122 C 0.32869 -0.04634 0.24324
 C123 C 0.34479 -0.05253 0.27759
 C124 C 0.35843 -0.03534 0.27394
 N125 N 0.35727 -0.02425 0.25537
 H126 H 0.38053 0.03535 0.28042
 H127 H 0.40855 -0.02497 0.26957
 H128 H 0.43316 -0.01964 0.29989
 H129 H 0.40443 0.04176 0.31091
 H130 H 0.34181 -0.01996 0.22577
 H131 H 0.31714 -0.05029 0.23106
 H132 H 0.34584 -0.06132 0.29238
 H133 H 0.36979 -0.03081 0.28601
 C134 C 0.32993 0.05701 0.23816
 C135 C 0.42050 -0.01254 0.19270
 C136 C 0.32984 -0.05810 0.26208
 C137 C 0.42045 0.01142 0.30770
 C138 C 0.09277 -0.00965 0.72109
 H139 H 0.09196 -0.02412 0.73039
 C140 C 0.07883 -0.00664 0.70406
 H141 H 0.06727 -0.01884 0.70014
 C142 C 0.10860 0.02410 0.71498
 H143 H 0.11998 0.03619 0.71947
 C144 C 0.09494 0.02776 0.69783
 H145 H 0.09599 0.04256 0.68904
 N146 N 0.10745 0.00551 0.72606
 C147 C 0.15796 -0.02837 0.75958
 H148 H 0.15882 -0.01904 0.77402
 C149 C 0.17185 -0.04546 0.75653
 H150 H 0.18343 -0.04939 0.76869
 C151 C 0.14204 -0.03450 0.72591
 H152 H 0.13065 -0.03000 0.71387
 C153 C 0.15565 -0.05171 0.72223
 H154 H 0.15454 -0.06053 0.70746
 Zn155 Zn 0.12538 0.00033 0.74970
 N156 N 0.14326 -0.02338 0.74447
 C157 C 0.10873 -0.02345 0.78448
 N158 N 0.10753 -0.00487 0.77341
 C159 C 0.09288 0.01029 0.77843
 C160 C 0.07900 0.00726 0.79551
 C161 C 0.09513 -0.02712 0.80168
 C162 C 0.15792 0.02905 0.73970
 C163 C 0.17185 0.04613 0.74271
 C164 C 0.15579 0.05234 0.77709
 C165 C 0.14215 0.03514 0.77344
 N166 N 0.14329 0.02404 0.75487
 H167 H 0.12009 -0.03553 0.77994
 H168 H 0.09204 0.02476 0.76914
 H169 H 0.06745 0.01945 0.79947
 H170 H 0.09621 -0.04192 0.81046
 H171 H 0.15872 0.01973 0.72524
 H172 H 0.18338 0.05008 0.73051
 H173 H 0.15477 0.06113 0.79188
 H174 H 0.13081 0.03061 0.78553
 C175 C 0.17064 -0.05726 0.73771
 C176 C 0.07997 0.01222 0.69230
 C177 C 0.17073 0.05790 0.76156
 C178 C 0.08018 -0.01160 0.80726
 C179 C 0.59258 0.48994 0.22152
 H180 H 0.59174 0.47546 0.23080
 C181 C 0.57869 0.49298 0.20445
 H182 H 0.56714 0.48079 0.20048
 C183 C 0.60844 0.52370 0.21550
 H184 H 0.61981 0.53577 0.22005
 C185 C 0.59484 0.52738 0.19831
 H186 H 0.59592 0.54219 0.18955
 N187 N 0.60724 0.50509 0.22656
 C188 C 0.65769 0.47117 0.26014
 H189 H 0.65851 0.48048 0.27460
 C190 C 0.67161 0.45410 0.25709
 H191 H 0.68316 0.45016 0.26926
 C192 C 0.64185 0.46509 0.22643
 H193 H 0.63048 0.46961 0.21437
 C194 C 0.65548 0.44791 0.22274
 H195 H 0.65442 0.43912 0.20795
 Zn196 Zn 0.62512 0.49987 0.25024
 N197 N 0.64302 0.47618 0.24501
 C198 C 0.60841 0.47602 0.28495
 N199 N 0.60722 0.49462 0.27389
 C200 C 0.59254 0.50976 0.27891
 C201 C 0.57863 0.50669 0.29596
 C202 C 0.59479 0.47232 0.30211
 C203 C 0.65768 0.52861 0.24036
 C204 C 0.67159 0.54570 0.24343
 C205 C 0.65544 0.55186 0.27777
 C206 C 0.64181 0.53466 0.27407
 N207 N 0.64301 0.52358 0.25549
 H208 H 0.61979 0.46396 0.28041
 H209 H 0.59170 0.52424 0.26964
 H210 H 0.56706 0.51887 0.29992
 H211 H 0.59587 0.45751 0.31087
 H212 H 0.65852 0.51931 0.22590
 H213 H 0.68314 0.54966 0.23126
 H214 H 0.65436 0.56064 0.29257
 H215 H 0.63044 0.53012 0.28612
 C216 C 0.67045 0.44234 0.23824
 C217 C 0.57988 0.51185 0.19272
 C218 C 0.67041 0.55745 0.26228
 C219 C 0.57981 0.48782 0.30769
 C220 C 0.90708 0.50944 0.72125
 H221 H 0.90793 0.52395 0.73051
 C222 C 0.92098 0.50635 0.70419
 H223 H 0.93254 0.51852 0.70021
 C224 C 0.89121 0.47568 0.71526
 H225 H 0.87984 0.46362 0.71982
 C226 C 0.90482 0.47195 0.69809
 H227 H 0.90374 0.45711 0.68934
 N228 N 0.89241 0.49431 0.72629
 C229 C 0.84200 0.52840 0.75979
 H230 H 0.84116 0.51915 0.77427
 C231 C 0.82812 0.54550 0.75671
 H232 H 0.81658 0.54951 0.76887
 C233 C 0.85784 0.53433 0.72606
 H234 H 0.86920 0.52974 0.71401
 C235 C 0.84425 0.55154 0.72234
 H236 H 0.84533 0.56027 0.70752
 Zn237 Zn 0.87452 0.49962 0.74995
 N238 N 0.85665 0.52331 0.74466
 C239 C 0.89125 0.52357 0.78461
 N240 N 0.89242 0.50492 0.77361
 C241 C 0.90705 0.48977 0.77868
 C242 C 0.92096 0.49287 0.79574
 C243 C 0.90487 0.52731 0.80178
 C244 C 0.84195 0.47087 0.74012
 C245 C 0.82802 0.45380 0.74321
 C246 C 0.84415 0.44774 0.77758
 C247 C 0.85778 0.46493 0.77385
 N248 N 0.85661 0.47594 0.75524
 H249 H 0.87991 0.53564 0.78003
 H250 H 0.90787 0.47525 0.76944
 H251 H 0.93249 0.48069 0.79974
 H252 H 0.90382 0.54216 0.81050
 H253 H 0.84112 0.48011 0.72563
 H254 H 0.81647 0.44980 0.73105
 H255 H 0.84521 0.43902 0.79239
 H256 H 0.86914 0.46950 0.78589
 C257 C 0.82931 0.55719 0.73783
 C258 C 0.91979 0.48745 0.69248
 C259 C 0.82918 0.44211 0.76209
 C260 C 0.91981 0.51179 0.80741
 C261 C 0.22105 0.40730 0.00973
 H262 H 0.23036 0.40811 0.02418
 C263 C 0.20398 0.42123 0.00672
 H264 H 0.20005 0.43278 0.01891
 C265 C 0.21493 0.39147 -0.02399
 H266 H 0.21944 0.38011 -0.03607
 C267 C 0.19775 0.40512 -0.02764
 H268 H 0.18895 0.40406 -0.04242
 N269 N 0.22603 0.39264 -0.00542
 C270 C 0.25966 0.34213 0.02835
 H271 H 0.27412 0.34130 0.01904
 C272 C 0.25662 0.32822 0.04540
 H273 H 0.26880 0.31665 0.04932
 C274 C 0.22593 0.35801 0.03449
 H275 H 0.21386 0.36939 0.03000
 C276 C 0.22226 0.34438 0.05166
 H277 H 0.20747 0.34547 0.06046
 Zn278 Zn 0.24973 0.37473 -0.00025
 N279 N 0.24451 0.35681 0.02339
 C280 C 0.28454 0.39140 0.02355
 N281 N 0.27345 0.39262 0.00499
 C282 C 0.27847 0.40730 -0.01012
 C283 C 0.29556 0.42120 -0.00706
 C284 C 0.30175 0.40501 0.02725
 C285 C 0.23979 0.34221 -0.02900
 C286 C 0.24283 0.32832 -0.04609
 C287 C 0.27723 0.34448 -0.05223
 C288 C 0.27354 0.35808 -0.03503
 N289 N 0.25494 0.35687 -0.02396
 H290 H 0.28001 0.38002 0.03559
 H291 H 0.26916 0.40816 -0.02457
 H292 H 0.29952 0.43277 -0.01920
 H293 H 0.31055 0.40392 0.04203
 H294 H 0.22531 0.34136 -0.01971
 H295 H 0.23065 0.31677 -0.05006
 H296 H 0.29204 0.34556 -0.06100
 H297 H 0.28562 0.36944 -0.03048
 C298 C 0.23777 0.32940 0.05718
 C299 C 0.19220 0.42008 -0.01212
 C300 C 0.26171 0.32951 -0.05783
 C301 C 0.30733 0.41999 0.01178
 C302 C 0.72200 0.09209 -0.01003
 H303 H 0.73129 0.09127 -0.02449
 C304 C 0.70491 0.07818 -0.00700
 H305 H 0.70094 0.06664 -0.01919
 C306 C 0.71596 0.10790 0.02371
 H307 H 0.72050 0.11925 0.03579
 C308 C 0.69875 0.09427 0.02737
 H309 H 0.68997 0.09533 0.04217
 N310 N 0.72703 0.10673 0.00513
 C311 C 0.76060 0.15727 -0.02869
 H312 H 0.77508 0.15811 -0.01942
 C313 C 0.75751 0.17121 -0.04571
 H314 H 0.76968 0.18280 -0.04964
 C315 C 0.72686 0.14138 -0.03476
 H316 H 0.71480 0.12999 -0.03025
 C317 C 0.72314 0.15503 -0.05189
 H318 H 0.70832 0.15396 -0.06065
 Zn319 Zn 0.75072 0.12465 -0.00007
 N320 N 0.74547 0.14258 -0.02370
 C321 C 0.78552 0.10803 -0.02391
 N322 N 0.77444 0.10679 -0.00534
 C323 C 0.77947 0.09211 0.00975
 C324 C 0.79656 0.07822 0.00668
 C325 C 0.80273 0.09444 -0.02762
 C326 C 0.74080 0.15717 0.02867
 C327 C 0.74384 0.17105 0.04576
 C328 C 0.77823 0.15492 0.05191
 C329 C 0.77455 0.14132 0.03470
 N330 N 0.75595 0.14252 0.02363
 H331 H 0.78098 0.11942 -0.03594
 H332 H 0.77016 0.09124 0.02421
 H333 H 0.80053 0.06665 0.01882
 H334 H 0.81152 0.09555 -0.04241
 H335 H 0.72632 0.15801 0.01938
 H336 H 0.73165 0.18260 0.04973
 H337 H 0.79304 0.15384 0.06068
 H338 H 0.78663 0.12997 0.03015
 C339 C 0.73863 0.17004 -0.05744
 C340 C 0.69316 0.07933 0.01185
 C341 C 0.76271 0.16987 0.05751
 C342 C 0.80832 0.07945 -0.01216
 C343 C 0.22090 0.59268 0.49005
 H344 H 0.23023 0.59187 0.47560
 C345 C 0.20383 0.57875 0.49305
 H346 H 0.19990 0.56720 0.48086
 C347 C 0.21479 0.60851 0.52376
 H348 H 0.21930 0.61987 0.53584
 C349 C 0.19760 0.59486 0.52741
 H350 H 0.18879 0.59591 0.54219
 N351 N 0.22589 0.60734 0.50520
 C352 C 0.25959 0.65781 0.47141
 H353 H 0.27405 0.65865 0.48074
 C354 C 0.25660 0.67171 0.45434
 H355 H 0.26879 0.68327 0.45043
 C356 C 0.22586 0.64194 0.46525
 H357 H 0.21377 0.63057 0.46974
 C358 C 0.22222 0.65555 0.44807
 H359 H 0.20744 0.65447 0.43925
 Zn360 Zn 0.24960 0.62525 0.50004
 N361 N 0.24443 0.64314 0.47637
 C362 C 0.28443 0.60855 0.47630
 N363 N 0.27332 0.60736 0.49485
 C364 C 0.27831 0.59270 0.50998
 C365 C 0.29539 0.57878 0.50696
 C366 C 0.30163 0.59492 0.47263
 C367 C 0.23963 0.65780 0.52873
 C368 C 0.24265 0.67171 0.54581
 C369 C 0.27703 0.65558 0.55202
 C370 C 0.27337 0.64196 0.53483
 N371 N 0.25479 0.64314 0.52374
 H372 H 0.27992 0.61992 0.46424
 H373 H 0.26898 0.59186 0.52443
 H374 H 0.29931 0.56722 0.51912
 H375 H 0.31043 0.59599 0.45786
 H376 H 0.22516 0.65862 0.51942
 H377 H 0.23046 0.68326 0.54974
 H378 H 0.29183 0.65452 0.56081
 H379 H 0.28545 0.63060 0.53032
 C380 C 0.23776 0.67052 0.44254
 C381 C 0.19205 0.57990 0.51189
 C382 C 0.26150 0.67055 0.55757
 C383 C 0.30717 0.57995 0.48813
 C384 C 0.72140 0.90825 0.50997
 H385 H 0.73068 0.90910 0.52444
 C386 C 0.70430 0.92212 0.50691
 H387 H 0.70031 0.93367 0.51908
 C388 C 0.71540 0.89237 0.47625
 H389 H 0.71997 0.88101 0.46420
 C390 C 0.69819 0.90596 0.47255
 H391 H 0.68942 0.90487 0.45776
 N392 N 0.72646 0.89358 0.49484
 C393 C 0.76006 0.84316 0.52877
 H394 H 0.77455 0.84234 0.51950
 C395 C 0.75698 0.82924 0.54580
 H396 H 0.76915 0.81768 0.54975
 C397 C 0.72629 0.85900 0.53478
 H398 H 0.71422 0.87036 0.53025
 C399 C 0.72258 0.84536 0.55193
 H400 H 0.70775 0.84642 0.56068
 Zn401 Zn 0.75017 0.87572 0.50010
 N402 N 0.74491 0.85782 0.52375
 C403 C 0.78491 0.89245 0.52396
 N404 N 0.77385 0.89363 0.50537
 C405 C 0.77889 0.90830 0.49025
 C406 C 0.79597 0.92221 0.49333
 C407 C 0.80210 0.90608 0.52767
 C408 C 0.74033 0.84313 0.47140
 C409 C 0.74342 0.82921 0.45435
 C410 C 0.77780 0.84540 0.44822
 C411 C 0.77407 0.85903 0.46539
 N412 N 0.75545 0.85782 0.47643
 H413 H 0.78036 0.88108 0.53600
 H414 H 0.76961 0.90912 0.47578
 H415 H 0.79995 0.93377 0.48117
 H416 H 0.81086 0.90502 0.54247
 H417 H 0.72584 0.84228 0.48067
 H418 H 0.73126 0.81762 0.45039
 H419 H 0.79262 0.84648 0.43947
 H420 H 0.78612 0.87042 0.46993
 C421 C 0.73808 0.83039 0.55751
 C422 C 0.69257 0.92092 0.48805
 C423 C 0.76231 0.83040 0.44264
 C424 C 0.80770 0.92105 0.51219
 C425 C 0.00961 0.22173 0.40751
 H426 H 0.02408 0.23105 0.40836
 C427 C 0.00655 0.20467 0.42142
 H428 H 0.01871 0.20075 0.43299
 C429 C -0.02410 0.21560 0.39162
 H430 H -0.03616 0.22010 0.38024
 C431 C -0.02781 0.19842 0.40524
 H432 H -0.04261 0.18962 0.40415
 N433 N -0.00551 0.22671 0.39283
 C434 C 0.02851 0.26025 0.34246
 H435 H 0.01921 0.27472 0.34158
 C436 C 0.04561 0.25716 0.32859
 H437 H 0.04958 0.26932 0.31703
 C438 C 0.03455 0.22654 0.35836
 H439 H 0.03000 0.21449 0.36973
 C440 C 0.05176 0.22282 0.34478
 H441 H 0.06055 0.20801 0.34589
 Zn442 Zn -0.00026 0.25038 0.37494
 N443 N 0.02347 0.24513 0.35712
 C444 C 0.02352 0.28522 0.39162
 N445 N 0.00493 0.27412 0.39279
 C446 C -0.01024 0.27914 0.40742
 C447 C -0.00721 0.29623 0.42132
 C448 C 0.02719 0.30243 0.40523
 C449 C -0.02891 0.24038 0.34239
 C450 C -0.04597 0.24338 0.32846
 C451 C -0.05223 0.27777 0.34456
 C452 C -0.03505 0.27414 0.35819
 N453 N -0.02394 0.25556 0.35703
 H454 H 0.03561 0.28069 0.38028
 H455 H -0.02472 0.26982 0.40824
 H456 H -0.01941 0.30017 0.43285
 H457 H 0.04200 0.31122 0.40418
 H458 H -0.01958 0.22591 0.34158
 H459 H -0.04989 0.23117 0.31692
 H460 H -0.06105 0.29257 0.34560
 H461 H -0.03056 0.28623 0.36955
 C462 C 0.05736 0.23829 0.32981
 C463 C -0.01232 0.19289 0.42022
 C464 C -0.05776 0.26223 0.32961
 C465 C 0.01166 0.30799 0.42017
 C466 C -0.00979 0.72107 0.09193
 H467 H -0.02425 0.73039 0.09114
 C468 C -0.00681 0.70397 0.07803
 H469 H -0.01904 0.70002 0.06653
 C470 C 0.02400 0.71497 0.10765
 H471 H 0.03612 0.71949 0.11897
 C472 C 0.02762 0.69775 0.09404
 H473 H 0.04242 0.68895 0.09506
 N474 N 0.00542 0.72607 0.10652
 C475 C -0.02829 0.75979 0.15702
 H476 H -0.01895 0.77425 0.15782
 C477 C -0.04532 0.75678 0.17098
 H478 H -0.04921 0.76898 0.18253
 C479 C -0.03449 0.72604 0.14121
 H480 H -0.03003 0.71395 0.12984
 C481 C -0.05165 0.72239 0.15488
 H482 H -0.06047 0.70760 0.15385
 Zn483 Zn 0.00029 0.74980 0.12440
 N484 N -0.02336 0.74462 0.14235
 C485 C -0.02353 0.78462 0.10782
 N486 N -0.00496 0.77351 0.10656
 C487 C 0.01015 0.77850 0.09186
 C488 C 0.00708 0.79559 0.07800
 C489 C -0.02723 0.80183 0.09425
 C490 C 0.02908 0.73987 0.15684
 C491 C 0.04618 0.74292 0.17071
 C492 C 0.05238 0.77729 0.15456
 C493 C 0.03516 0.77360 0.14098
 N494 N 0.02406 0.75501 0.14220
 H495 H -0.03557 0.78011 0.11922
 H496 H 0.02460 0.76917 0.09097
 H497 H 0.01924 0.79953 0.06642
 H498 H -0.04201 0.81065 0.09539
 H499 H 0.01976 0.72540 0.15770
 H500 H 0.05013 0.73075 0.18225
 H501 H 0.06118 0.79209 0.15348
 H502 H 0.03062 0.78567 0.12963
 C503 C -0.05713 0.73793 0.16985
 C504 C 0.01204 0.69219 0.07914
 C505 C 0.05796 0.76179 0.16951
 C506 C -0.01176 0.80739 0.07926
 C507 C 0.48982 0.22100 0.59301
 H508 H 0.47533 0.23028 0.59215
 C509 C 0.49291 0.20392 0.57912
 H510 H 0.48075 0.19994 0.56756
 C511 C 0.52356 0.21501 0.60888
 H512 H 0.53561 0.21957 0.62025
 C513 C 0.52729 0.19781 0.59528
 H514 H 0.54211 0.18905 0.59637
 N515 N 0.50494 0.22606 0.60767
 C516 C 0.47086 0.25968 0.65798
 H517 H 0.48014 0.27418 0.65883
 C518 C 0.45376 0.25662 0.67185
 H519 H 0.44977 0.26880 0.68338
 C520 C 0.46488 0.22590 0.64216
 H521 H 0.46945 0.21382 0.63082
 C522 C 0.44767 0.22219 0.65574
 H523 H 0.43891 0.20736 0.65467
 Zn524 Zn 0.49966 0.24977 0.62552
 N525 N 0.47593 0.24452 0.64336
 C526 C 0.47583 0.28452 0.60879
 N527 N 0.49444 0.27345 0.60763
 C528 C 0.50960 0.27846 0.59301
 C529 C 0.50656 0.29552 0.57909
 C530 C 0.47215 0.30169 0.59516
 C531 C 0.52835 0.23992 0.65807
 C532 C 0.54542 0.24301 0.67198
 C533 C 0.55158 0.27739 0.65585
 C534 C 0.53440 0.27367 0.64224
 N535 N 0.52333 0.25505 0.64342
 H536 H 0.46374 0.27999 0.62013
 H537 H 0.52409 0.26917 0.59220
 H538 H 0.51876 0.29946 0.56756
 H539 H 0.45733 0.31047 0.59621
 H540 H 0.51907 0.22543 0.65890
 H541 H 0.54939 0.23084 0.68352
 H542 H 0.56036 0.29221 0.65478
 H543 H 0.52986 0.28572 0.63088
 C544 C 0.44204 0.23772 0.67067
 C545 C 0.51180 0.19220 0.58031
 C546 C 0.55716 0.26189 0.67081
 C547 C 0.48768 0.30726 0.58023
 C548 C 0.50973 0.72175 0.90771
 H549 H 0.52421 0.73107 0.90852
 C550 C 0.50671 0.70467 0.92159
 H551 H 0.51892 0.70072 0.93311
 C552 C 0.47596 0.71566 0.89192
 H553 H 0.46387 0.72019 0.88059
 C554 C 0.47230 0.69846 0.90552
 H555 H 0.45750 0.68966 0.90447
 N556 N 0.49456 0.72676 0.89309
 C557 C 0.52844 0.76038 0.84267
 H558 H 0.51915 0.77486 0.84186
 C559 C 0.54549 0.75732 0.82874
 H560 H 0.54943 0.76950 0.81720
 C561 C 0.53450 0.72662 0.85847
 H562 H 0.52997 0.71455 0.86982
 C563 C 0.55167 0.72293 0.84483
 H564 H 0.56044 0.70811 0.84587
 Zn565 Zn 0.49976 0.75046 0.87522
 N566 N 0.52343 0.74523 0.85731
 C567 C 0.52362 0.78526 0.89188
 N568 N 0.50502 0.77417 0.89310
 C569 C 0.48990 0.77917 0.90778
 C570 C 0.49297 0.79625 0.92168
 C571 C 0.52733 0.80245 0.90550
 C572 C 0.47100 0.74054 0.84274
 C573 C 0.45391 0.74359 0.82886
 C574 C 0.44774 0.77797 0.84503
 C575 C 0.46495 0.77428 0.85862
 N576 N 0.47603 0.75568 0.85740
 H577 H 0.53567 0.78074 0.88050
 H578 H 0.47542 0.76986 0.90863
 H579 H 0.48081 0.80019 0.93326
 H580 H 0.54214 0.81124 0.90442
 H581 H 0.48030 0.72606 0.84188
 H582 H 0.44995 0.73141 0.81731
 H583 H 0.43895 0.79277 0.84612
 H584 H 0.46949 0.78635 0.86998
 C585 C 0.55723 0.73844 0.82988
 C586 C 0.48785 0.69290 0.92044
 C587 C 0.44215 0.76246 0.83006
 C588 C 0.51184 0.80801 0.92049
 C589 C 0.17416 0.21488 0.23587
 C590 C 0.15939 0.21784 0.24776
 C591 C 0.14176 0.22137 0.26195
 C592 C 0.14027 0.20987 0.28098
 C593 C 0.12313 0.21331 0.29477
 C594 C 0.10742 0.22827 0.28959
 C595 C 0.10891 0.23977 0.27056
 C596 C 0.12605 0.23633 0.25677
 C597 C 0.08979 0.23180 0.30377
 C598 C 0.07501 0.23476 0.31565
 H599 H 0.15233 0.19826 0.28514
 H600 H 0.12213 0.20432 0.30944
 H601 H 0.09684 0.25138 0.26641
 H602 H 0.12704 0.24532 0.24210
 C603 C 0.67386 0.71532 0.73566
 C604 C 0.65910 0.71824 0.74757
 C605 C 0.64149 0.72173 0.76179
 C606 C 0.63465 0.70537 0.77531
 C607 C 0.61753 0.70875 0.78914
 C608 C 0.60719 0.72852 0.78951
 C609 C 0.61403 0.74488 0.77599
 C610 C 0.63114 0.74149 0.76216
 C611 C 0.58958 0.73200 0.80374
 C612 C 0.57484 0.73493 0.81566
 H613 H 0.64253 0.69002 0.77515
 H614 H 0.61237 0.69599 0.79952
 H615 H 0.60614 0.76022 0.77615
 H616 H 0.63630 0.75426 0.75178
 C617 C 0.32540 0.78555 0.73602
 C618 C 0.34016 0.78263 0.74793
 C619 C 0.35779 0.77915 0.76213
 C620 C 0.37406 0.76496 0.75650
 C621 C 0.39119 0.76158 0.77031
 C622 C 0.39212 0.77237 0.78980
 C623 C 0.37585 0.78656 0.79543
 C624 C 0.35872 0.78994 0.78162
 C625 C 0.40974 0.76888 0.80400
 C626 C 0.42452 0.76596 0.81589
 H627 H 0.37350 0.75654 0.74147
 H628 H 0.40368 0.75057 0.76580
 H629 H 0.37641 0.79498 0.81046
 H630 H 0.34622 0.80095 0.78613
 C631 C -0.17449 0.28490 0.23543
 C632 C -0.15972 0.28203 0.24734
 C633 C -0.14210 0.27862 0.26156
 C634 C -0.14378 0.28446 0.28301
 C635 C -0.12665 0.28114 0.29683
 C636 C -0.10777 0.27196 0.28927
 C637 C -0.10609 0.26613 0.26783
 C638 C -0.12322 0.26945 0.25400
 C639 C -0.09016 0.26853 0.30349
 C640 C -0.07539 0.26566 0.31540
 H641 H -0.15830 0.29156 0.28902
 H642 H -0.12812 0.28571 0.31339
 H643 H -0.09157 0.25902 0.26181
 H644 H -0.12175 0.26488 0.23745
 C645 C -0.17368 0.71523 0.26427
 C646 C -0.15893 0.71810 0.25234
 C647 C -0.14132 0.72153 0.23809
 C648 C -0.14350 0.73547 0.22083
 C649 C -0.12640 0.73879 0.20697
 C650 C -0.10705 0.72819 0.21031
 C651 C -0.10488 0.71425 0.22756
 C652 C -0.12198 0.71093 0.24142
 C653 C -0.08946 0.73161 0.19605
 C654 C -0.07472 0.73449 0.18410
 H655 H -0.15838 0.74375 0.21810
 H656 H -0.12825 0.74960 0.19368
 H657 H -0.09000 0.70597 0.23029
 H658 H -0.12013 0.70012 0.25472
 C659 C 0.32507 0.21456 0.76446
 C660 C 0.33987 0.21748 0.75260
 C661 C 0.35753 0.22097 0.73844
 C662 C 0.37688 0.21039 0.74184
 C663 C 0.39404 0.21379 0.72807
 C664 C 0.39193 0.22778 0.71085
 C665 C 0.37259 0.23836 0.70745
 C666 C 0.35542 0.23496 0.72122
 C667 C 0.40959 0.23127 0.69669
 C668 C 0.42438 0.23420 0.68482
 H669 H 0.37868 0.19954 0.75510
 H670 H 0.40893 0.20552 0.73085
 H671 H 0.37079 0.24921 0.69418
 H672 H 0.34054 0.24323 0.71844
 C673 C 0.67412 0.28514 0.76461
 C674 C 0.65931 0.28221 0.75276
 C675 C 0.64164 0.27871 0.73861
 C676 C 0.63447 0.29519 0.72542
 C677 C 0.61731 0.29178 0.71165
 C678 C 0.60724 0.27187 0.71103
 C679 C 0.61440 0.25539 0.72422
 C680 C 0.63157 0.25880 0.73799
 C681 C 0.58959 0.26835 0.69686
 C682 C 0.57480 0.26541 0.68499
 H683 H 0.64215 0.31065 0.72577
 H684 H 0.61190 0.30463 0.70151
 H685 H 0.60673 0.23994 0.72386
 H686 H 0.63698 0.24595 0.74812
 C687 C 0.17461 0.78504 0.26368
 C688 C 0.15987 0.78210 0.25175
 C689 C 0.14227 0.77859 0.23752
 C690 C 0.12724 0.76271 0.24200
 C691 C 0.11013 0.75930 0.22817
 C692 C 0.10798 0.77174 0.20981
 C693 C 0.12301 0.78762 0.20533
 C694 C 0.14012 0.79103 0.21916
 C695 C 0.09036 0.76824 0.19559
 C696 C 0.07560 0.76530 0.18369
 H697 H 0.12875 0.75300 0.25615
 H698 H 0.09860 0.74698 0.23178
 H699 H 0.12149 0.79733 0.19117
 H700 H 0.15165 0.80335 0.21554
 C701 C 0.23588 0.17383 0.21503
 C702 C 0.24777 0.15905 0.21795
 C703 C 0.26197 0.14141 0.22144
 C704 C 0.27142 0.13104 0.20410
 C705 C 0.28522 0.11390 0.20749
 C706 C 0.28964 0.10706 0.22823
 C707 C 0.28019 0.11742 0.24557
 C708 C 0.26638 0.13456 0.24218
 C709 C 0.30384 0.08942 0.23172
 C710 C 0.31574 0.07465 0.23465
 H711 H 0.26812 0.13621 0.18800
 H712 H 0.29244 0.10600 0.19397
 H713 H 0.28349 0.11226 0.26167
 H714 H 0.25917 0.14247 0.25570
 C715 C 0.73554 0.67425 0.71476
 C716 C 0.74740 0.65943 0.71765
 C717 C 0.76155 0.64176 0.72112
 C718 C 0.76595 0.63489 0.74186
 C719 C 0.77971 0.61771 0.74524
 C720 C 0.78913 0.60733 0.72790
 C721 C 0.78473 0.61420 0.70716
 C722 C 0.77097 0.63138 0.70378
 C723 C 0.80329 0.58966 0.73138
 C724 C 0.81515 0.57485 0.73431
 H725 H 0.75875 0.64280 0.75538
 H726 H 0.78300 0.61253 0.76134
 H727 H 0.79193 0.60628 0.69364
 H728 H 0.76768 0.63656 0.68768
 C729 C 0.73517 0.32525 0.78545
 C730 C 0.74704 0.34005 0.78252
 C731 C 0.76123 0.35770 0.77900
 C732 C 0.75950 0.36988 0.76041
 C733 C 0.77329 0.38703 0.75698
 C734 C 0.78887 0.39207 0.77212
 C735 C 0.79060 0.37990 0.79071
 C736 C 0.77680 0.36275 0.79414
 C737 C 0.80308 0.40971 0.76858
 C738 C 0.81498 0.42448 0.76563
 H739 H 0.74751 0.36612 0.74860
 H740 H 0.77182 0.39634 0.74256
 H741 H 0.80259 0.38366 0.80252
 H742 H 0.77828 0.35344 0.80856
 C743 C 0.23558 -0.17489 0.28485
 C744 C 0.24751 -0.16012 0.28198
 C745 C 0.26174 -0.14248 0.27855
 C746 C 0.26009 -0.13025 0.25999
 C747 C 0.27393 -0.11311 0.25666
 C748 C 0.28946 -0.10814 0.27186
 C749 C 0.29111 -0.12036 0.29042
 C750 C 0.27727 -0.13750 0.29376
 C751 C 0.30370 -0.09051 0.26843
 C752 C 0.31562 -0.07573 0.26554
 H753 H 0.24814 -0.13396 0.24813
 H754 H 0.27252 -0.10376 0.24225
 H755 H 0.30306 -0.11665 0.30228
 H756 H 0.27868 -0.14686 0.30816
 C757 C 0.26453 -0.17429 0.71488
 C758 C 0.25266 -0.15947 0.71775
 C759 C 0.23849 -0.14180 0.72117
 C760 C 0.24458 -0.12501 0.73456
 C761 C 0.23080 -0.10784 0.73790
 C762 C 0.21088 -0.10737 0.72787
 C763 C 0.20479 -0.12415 0.71449
 C764 C 0.21857 -0.14133 0.71115
 C765 C 0.19670 -0.08971 0.73133
 C766 C 0.18482 -0.07491 0.73423
 H767 H 0.25994 -0.12521 0.74239
 H768 H 0.23566 -0.09495 0.74828
 H769 H 0.18943 -0.12395 0.70666
 H770 H 0.21371 -0.15422 0.70077
 C771 C 0.76466 0.32560 0.21528
 C772 C 0.75274 0.34037 0.21817
 C773 C 0.73852 0.35799 0.22163
 C774 C 0.74630 0.37890 0.22121
 C775 C 0.73247 0.39603 0.22458
 C776 C 0.71080 0.39232 0.22837
 C777 C 0.70301 0.37141 0.22878
 C778 C 0.71684 0.35428 0.22542
 C779 C 0.69657 0.40995 0.23183
 C780 C 0.68466 0.42472 0.23475
 H781 H 0.76303 0.38195 0.21830
 H782 H 0.73866 0.41214 0.22423
 H783 H 0.68628 0.36837 0.23170
 H784 H 0.71065 0.33818 0.22577
 C785 C 0.76455 0.67431 0.28523
 C786 C 0.75264 0.65953 0.28235
 C787 C 0.73842 0.64189 0.27890
 C788 C 0.73111 0.62986 0.29618
 C789 C 0.71729 0.61271 0.29282
 C790 C 0.71072 0.60753 0.27216
 C791 C 0.71802 0.61956 0.25488
 C792 C 0.73184 0.63671 0.25824
 C793 C 0.69651 0.58988 0.26870
 C794 C 0.68460 0.57510 0.26578
 H795 H 0.73609 0.63373 0.31222
 H796 H 0.71173 0.60351 0.30630
 H797 H 0.71304 0.61568 0.23884
 H798 H 0.73740 0.64590 0.24476
 C799 C 0.26493 0.17471 0.78456
 C800 C 0.25303 0.15993 0.78164
 C801 C 0.23881 0.14229 0.77816
 C802 C 0.22998 0.13885 0.75798
 C803 C 0.21615 0.12171 0.75460
 C804 C 0.21109 0.10794 0.77139
 C805 C 0.21992 0.11138 0.79157
 C806 C 0.23375 0.12852 0.79494
 C807 C 0.19686 0.09031 0.76791
 C808 C 0.18495 0.07554 0.76501
 H809 H 0.23378 0.14940 0.74489
 H810 H 0.20942 0.11920 0.73894
 H811 H 0.21612 0.10084 0.80466
 H812 H 0.24048 0.13104 0.81061
 C813 C 0.21499 0.23551 0.17402
 C814 C 0.21786 0.24737 0.15923
 C815 C 0.22128 0.26154 0.14158
 C816 C 0.21417 0.28266 0.14265
 C817 C 0.21750 0.29644 0.12550
 C818 C 0.22797 0.28915 0.10721
 C819 C 0.23508 0.26803 0.10614
 C820 C 0.23175 0.25425 0.12329
 C821 C 0.23141 0.30333 0.08957
 C822 C 0.23431 0.31521 0.07480
 H823 H 0.20606 0.28846 0.15671
 H824 H 0.21194 0.31274 0.12649
 H825 H 0.24319 0.26223 0.09207
 H826 H 0.23731 0.23795 0.12229
 C827 C 0.71484 0.73613 0.67396
 C828 C 0.71777 0.74804 0.65923
 C829 C 0.72127 0.76228 0.64164
 C830 C 0.71419 0.78341 0.64277
 C831 C 0.71760 0.79725 0.62569
 C832 C 0.72810 0.79001 0.60740
 C833 C 0.73517 0.76888 0.60626
 C834 C 0.73176 0.75504 0.62335
 C835 C 0.73161 0.80425 0.58982
 C836 C 0.73455 0.81617 0.57509
 H837 H 0.70606 0.78917 0.65684
 H838 H 0.71206 0.81355 0.62673
 H839 H 0.74331 0.76312 0.59220
 H840 H 0.73730 0.73873 0.62231
 C841 C 0.78549 0.73617 0.32604
 C842 C 0.78260 0.74809 0.34079
 C843 C 0.77913 0.76231 0.35840
 C844 C 0.78397 0.78401 0.35641
 C845 C 0.78057 0.79784 0.37352
 C846 C 0.77232 0.79004 0.39269
 C847 C 0.76749 0.76834 0.39469
 C848 C 0.77089 0.75451 0.37759
 C849 C 0.76880 0.80427 0.41029
 C850 C 0.76585 0.81618 0.42503
 H851 H 0.79035 0.79021 0.34165
 H852 H 0.78436 0.81458 0.37180
 H853 H 0.76110 0.76214 0.40945
 H854 H 0.76709 0.73777 0.37930
 C855 C 0.28496 0.23555 -0.17463
 C856 C 0.28203 0.24744 -0.15986
 C857 C 0.27852 0.26163 -0.14222
 C858 C 0.27836 0.25370 -0.12140
 C859 C 0.27494 0.26749 -0.10426
 C860 C 0.27166 0.28926 -0.10787
 C861 C 0.27182 0.29719 -0.12870
 C862 C 0.27524 0.28340 -0.14584
 C863 C 0.26814 0.30345 -0.09024
 C864 C 0.26520 0.31533 -0.07547
 H865 H 0.28087 0.23690 -0.11842
 H866 H 0.27484 0.26120 -0.08822
 H867 H 0.26930 0.31399 -0.13167
 H868 H 0.27533 0.28969 -0.16187
 C869 C 0.71529 0.26433 -0.17384
 C870 C 0.71825 0.25242 -0.15911
 C871 C 0.72178 0.23818 -0.14153
 C872 C 0.72309 0.24620 -0.12078
 C873 C 0.72651 0.23236 -0.10370
 C874 C 0.72864 0.21044 -0.10730
 C875 C 0.72734 0.20242 -0.12806
 C876 C 0.72391 0.21626 -0.14514
 C877 C 0.73215 0.19620 -0.08973
 C878 C 0.73510 0.18427 -0.07501
 H879 H 0.72146 0.26312 -0.11781
 H880 H 0.72749 0.23873 -0.08771
 H881 H 0.72896 0.18550 -0.13103
 H882 H 0.72293 0.20989 -0.16113
 C883 C 0.21527 0.76439 0.32563
 C884 C 0.21809 0.75253 0.34043
 C885 C 0.22147 0.73836 0.35809
 C886 C 0.22269 0.74646 0.37882
 C887 C 0.22598 0.73269 0.39597
 C888 C 0.22807 0.71075 0.39247
 C889 C 0.22684 0.70264 0.37174
 C890 C 0.22355 0.71642 0.35459
 C891 C 0.23147 0.69657 0.41012
 C892 C 0.23433 0.68470 0.42490
 H893 H 0.22111 0.76340 0.38170
 H894 H 0.22691 0.73912 0.41194
 H895 H 0.22843 0.68570 0.36886
 H896 H 0.22263 0.70998 0.33862
 C897 C 0.28450 0.76475 0.67425
 C898 C 0.28159 0.75284 0.65949
 C899 C 0.27814 0.73861 0.64187
 C900 C 0.27689 0.71660 0.64532
 C901 C 0.27351 0.70277 0.62820
 C902 C 0.27137 0.71089 0.60757
 C903 C 0.27262 0.73290 0.60412
 C904 C 0.27600 0.74673 0.62123
 C905 C 0.26788 0.69667 0.58996
 C906 C 0.26497 0.68476 0.57520
 H907 H 0.27852 0.71015 0.66121
 H908 H 0.27257 0.68578 0.63105
 H909 H 0.27098 0.73935 0.58822
 H910 H 0.27693 0.76372 0.61839
 C911 C 0.78564 0.26383 0.17438
 C912 C 0.78277 0.25194 0.15960
 C913 C 0.77933 0.23775 0.14195
 C914 C 0.77724 0.24591 0.12132
 C915 C 0.77387 0.23211 0.10418
 C916 C 0.77259 0.21010 0.10759
 C917 C 0.77468 0.20194 0.12821
 C918 C 0.77805 0.21573 0.14536
 C919 C 0.76911 0.19591 0.08995
 C920 C 0.76619 0.18403 0.07516
 H921 H 0.77820 0.26290 0.11851
 H922 H 0.77227 0.23859 0.08829
 H923 H 0.77371 0.18495 0.13103
 H924 H 0.77964 0.20925 0.16125
 C925 C 0.46479 0.42394 0.48610
 C926 C 0.46767 0.40917 0.49800
 C927 C 0.47111 0.39155 0.51222
 C928 C 0.46183 0.39159 0.53248
 C929 C 0.46518 0.37447 0.54630
 C930 C 0.47784 0.35724 0.53991
 C931 C 0.48712 0.35720 0.51964
 C932 C 0.48376 0.37432 0.50582
 C933 C 0.48129 0.33963 0.55412
 C934 C 0.48420 0.32487 0.56603
 H935 H 0.45202 0.40483 0.53758
 H936 H 0.45793 0.37466 0.56193
 H937 H 0.49693 0.34396 0.51454
 H938 H 0.49102 0.37413 0.49019
 C939 C -0.03477 0.92443 -0.01439
 C940 C -0.03188 0.90963 -0.00254
 C941 C -0.02842 0.89195 0.01160
 C942 C -0.02003 0.87282 0.00376
 C943 C -0.01665 0.85564 0.01750
 C944 C -0.02165 0.85753 0.03914
 C945 C -0.03004 0.87666 0.04697
 C946 C -0.03342 0.89384 0.03323
 C947 C -0.01818 0.83986 0.05327
 C948 C -0.01526 0.82505 0.06512
 H949 H -0.01610 0.87119 -0.01294
 H950 H -0.01016 0.84092 0.01128
 H951 H -0.03397 0.87829 0.06368
 H952 H -0.03991 0.90856 0.03946
 C953 C 0.03479 0.57526 -0.01488
 C954 C 0.03191 0.59006 -0.00299
 C955 C 0.02848 0.60771 0.01121
 C956 C 0.03275 0.62853 0.00444
 C957 C 0.02940 0.64568 0.01824
 C958 C 0.02178 0.64209 0.03887
 C959 C 0.01751 0.62127 0.04564
 C960 C 0.02085 0.60411 0.03184
 C961 C 0.01833 0.65974 0.05306
 C962 C 0.01546 0.67453 0.06495
 H963 H 0.03865 0.63149 -0.01148
 H964 H 0.03276 0.66172 0.01284
 H965 H 0.01160 0.61831 0.06156
 H966 H 0.01749 0.58807 0.03724
 C967 C 0.53518 0.07546 0.48623
 C968 C 0.53222 0.09021 0.49814
 C969 C 0.52871 0.10784 0.51236
 C970 C 0.52101 0.10419 0.53295
 C971 C 0.51758 0.12132 0.54676
 C972 C 0.52184 0.14216 0.54004
 C973 C 0.52955 0.14580 0.51945
 C974 C 0.53298 0.12868 0.50564
 C975 C 0.51830 0.15979 0.55424
 C976 C 0.51534 0.17456 0.56613
 H977 H 0.51766 0.08814 0.53831
 H978 H 0.51162 0.11833 0.56265
 H979 H 0.53290 0.16185 0.51409
 H980 H 0.53894 0.13167 0.48975
 C981 C -0.03535 0.07612 0.51422
 C982 C -0.03246 0.09089 0.50233
 C983 C -0.02899 0.10853 0.48814
 C984 C -0.01790 0.10546 0.46905
 C985 C -0.01453 0.12259 0.45525
 C986 C -0.02223 0.14287 0.46049
 C987 C -0.03332 0.14594 0.47958
 C988 C -0.03669 0.12880 0.49338
 C989 C -0.01875 0.16050 0.44630
 C990 C -0.01582 0.17527 0.43441
 H991 H -0.01188 0.08985 0.46484
 H992 H -0.00593 0.12004 0.44053
 H993 H -0.03934 0.16155 0.48379
 H994 H -0.04528 0.13135 0.50810
 C995 C 0.46509 0.57595 1.01429
 C996 C 0.46797 0.59075 1.00243
 C997 C 0.47140 0.60841 0.98826
 C998 C 0.46367 0.62867 0.99354
 C999 C 0.46701 0.64583 0.97976
 C1000 C 0.47808 0.64280 0.96065
 C1001 C 0.48581 0.62255 0.95538
 C1002 C 0.48248 0.60539 0.96915
 C1003 C 0.48151 0.66046 0.94648
 C1004 C 0.48439 0.67524 0.93461
 H1005 H 0.45509 0.63118 1.00827
 H1006 H 0.46096 0.66142 0.98400
 H1007 H 0.49439 0.62003 0.94064
 H1008 H 0.48852 0.58979 0.96492
 C1009 C 0.53516 0.92470 1.01467
 C1010 C 0.53221 0.90994 1.00275
 C1011 C 0.52870 0.89233 0.98853
 C1012 C 0.52459 0.87198 0.99669
 C1013 C 0.52117 0.85486 0.98287
 C1014 C 0.52185 0.85801 0.96082
 C1015 C 0.52596 0.87836 0.95266
 C1016 C 0.52938 0.89548 0.96648
 C1017 C 0.51832 0.84040 0.94660
 C1018 C 0.51537 0.82564 0.93469
 H1019 H 0.52403 0.86936 1.01371
 H1020 H 0.51801 0.83919 0.98935
 H1021 H 0.52652 0.88098 0.93564
 H1022 H 0.53254 0.91115 0.96000
 C1023 C 0.03461 0.42466 0.51447
 C1024 C 0.03171 0.40991 0.50253
 C1025 C 0.02826 0.39230 0.48829
 C1026 C 0.02415 0.37194 0.49643
 C1027 C 0.02078 0.35482 0.48258
 C1028 C 0.02152 0.35799 0.46054
 C1029 C 0.02563 0.37835 0.45240
 C1030 C 0.02899 0.39547 0.46625
 C1031 C 0.01805 0.34038 0.44630
 C1032 C 0.01514 0.32562 0.43438
 H1033 H 0.02354 0.36931 0.51344
 H1034 H 0.01762 0.33915 0.48905
 H1035 H 0.02623 0.38098 0.43538
 H1036 H 0.03216 0.41114 0.45978
 C1037 C 0.42392 0.48574 0.46522
 C1038 C 0.40916 0.49766 0.46811
 C1039 C 0.39153 0.51189 0.47156
 C1040 C 0.38065 0.51169 0.49102
 C1041 C 0.36352 0.52552 0.49438
 C1042 C 0.35720 0.53961 0.47830
 C1043 C 0.36808 0.53980 0.45884
 C1044 C 0.38521 0.52597 0.45548
 C1045 C 0.33957 0.55383 0.48175
 C1046 C 0.32480 0.56575 0.48465
 H1047 H 0.38541 0.50087 0.50356
 H1048 H 0.35522 0.52524 0.50948
 H1049 H 0.36332 0.55063 0.44630
 H1050 H 0.39351 0.52626 0.44038
 C1051 C 0.92526 -0.01449 -0.03530
 C1052 C 0.91047 -0.00260 -0.03239
 C1053 C 0.89282 0.01159 -0.02890
 C1054 C 0.87192 0.00442 -0.03208
 C1055 C 0.85476 0.01821 -0.02869
 C1056 C 0.85843 0.03922 -0.02211
 C1057 C 0.87933 0.04638 -0.01893
 C1058 C 0.89649 0.03259 -0.02232
 C1059 C 0.84078 0.05340 -0.01861
 C1060 C 0.82598 0.06528 -0.01568
 H1061 H 0.86891 -0.01179 -0.03716
 H1062 H 0.83867 0.01251 -0.03119
 H1063 H 0.88234 0.06259 -0.01384
 H1064 H 0.91258 0.03829 -0.01982
 C1065 C 0.57610 -0.01456 0.03478
 C1066 C 0.59091 -0.00268 0.03188
 C1067 C 0.60858 0.01150 0.02843
 C1068 C 0.60653 0.02870 0.01439
 C1069 C 0.62371 0.04247 0.01102
 C1070 C 0.64301 0.03910 0.02168
 C1071 C 0.64507 0.02190 0.03571
 C1072 C 0.62789 0.00813 0.03908
 C1073 C 0.66069 0.05327 0.01821
 C1074 C 0.67549 0.06515 0.01530
 H1075 H 0.59168 0.03145 0.00607
 H1076 H 0.62195 0.05572 0.00014
 H1077 H 0.65992 0.01915 0.04404
 H1078 H 0.62965 -0.00512 0.04997
 C1079 C 0.07537 0.48551 0.53465
 C1080 C 0.09013 0.49744 0.53177
 C1081 C 0.10774 0.51170 0.52834
 C1082 C 0.12164 0.51657 0.54509
 C1083 C 0.13876 0.53043 0.54175
 C1084 C 0.14205 0.53948 0.52166
 C1085 C 0.12815 0.53461 0.50491
 C1086 C 0.11103 0.52075 0.50825
 C1087 C 0.15966 0.55373 0.51822
 C1088 C 0.17442 0.56566 0.51534
 H1089 H 0.11924 0.50966 0.56069
 H1090 H 0.14941 0.53409 0.55481
 H1091 H 0.13055 0.54152 0.48931
 H1092 H 0.10038 0.51710 0.49519
 C1093 C 0.07551 0.51436 -0.03492
 C1094 C 0.09027 0.50244 -0.03203
 C1095 C 0.10789 0.48821 -0.02859
 C1096 C 0.12368 0.49336 -0.01370
 C1097 C 0.14080 0.47951 -0.01036
 C1098 C 0.14221 0.46047 -0.02190
 C1099 C 0.12642 0.45532 -0.03678
 C1100 C 0.10930 0.46916 -0.04012
 C1101 C 0.15982 0.44623 -0.01846
 C1102 C 0.17458 0.43430 -0.01557
 H1103 H 0.12275 0.50804 -0.00470
 H1104 H 0.15292 0.48365 0.00119
 H1105 H 0.12735 0.44063 -0.04579
 H1106 H 0.09718 0.46502 -0.05167
 C1107 C 0.57544 1.01463 0.46510
 C1108 C 0.59026 1.00278 0.46798
 C1109 C 0.60796 0.98864 0.47143
 C1110 C 0.61236 0.97243 0.45676
 C1111 C 0.62955 0.95868 0.46012
 C1112 C 0.64241 0.96109 0.47817
 C1113 C 0.63802 0.97730 0.49284
 C1114 C 0.62082 0.99105 0.48948
 C1115 C 0.66009 0.94693 0.48164
 C1116 C 0.67490 0.93508 0.48456
 H1117 H 0.60251 0.97042 0.44275
 H1118 H 0.63280 0.94619 0.44868
 H1119 H 0.64786 0.97931 0.50685
 H1120 H 0.61757 1.00354 0.50093
 C1121 C 0.92463 1.01509 0.53524
 C1122 C 0.90983 1.00320 0.53234
 C1123 C 0.89218 0.98900 0.52887
 C1124 C 0.88256 0.97867 0.54613
 C1125 C 0.86540 0.96487 0.54275
 C1126 C 0.85779 0.96134 0.52210
 C1127 C 0.86740 0.97166 0.50485
 C1128 C 0.88456 0.98546 0.50822
 C1129 C 0.84013 0.94714 0.51862
 C1130 C 0.82535 0.93524 0.51570
 H1131 H 0.88832 0.98129 0.56216
 H1132 H 0.85808 0.95697 0.55621
 H1133 H 0.86164 0.96905 0.48882
 H1134 H 0.89188 0.99336 0.49477
 C1135 C 0.42419 0.51408 0.03497
 C1136 C 0.40942 0.50217 0.03203
 C1137 C 0.39178 0.48796 0.02854
 C1138 C 0.38269 0.47697 0.04567
 C1139 C 0.36554 0.46316 0.04227
 C1140 C 0.35742 0.46028 0.02172
 C1141 C 0.36651 0.47126 0.00458
 C1142 C 0.38365 0.48507 0.00798
 C1143 C 0.33977 0.44607 0.01821
 C1144 C 0.32499 0.43418 0.01528
 H1145 H 0.38885 0.47909 0.06163
 H1146 H 0.35863 0.45475 0.05563
 H1147 H 0.36034 0.46915 -0.01138
 H1148 H 0.39056 0.49349 -0.00538
 C1149 C 0.48572 0.46479 0.42437
 C1150 C 0.49762 0.46767 0.40961
 C1151 C 0.51183 0.47113 0.39199
 C1152 C 0.50379 0.47223 0.37124
 C1153 C 0.51759 0.47560 0.35411
 C1154 C 0.53950 0.47789 0.35767
 C1155 C 0.54755 0.47679 0.37842
 C1156 C 0.53374 0.47341 0.39555
 C1157 C 0.55371 0.48138 0.34006
 C1158 C 0.56561 0.48431 0.32530
 H1159 H 0.48687 0.47048 0.36831
 H1160 H 0.51120 0.47643 0.33813
 H1161 H 0.56446 0.47854 0.38136
 H1162 H 0.54013 0.47259 0.41153
 C1163 C -0.01389 -0.03457 0.92396
 C1164 C -0.00199 -0.03167 0.90921
 C1165 C 0.01222 -0.02820 0.89160
 C1166 C 0.02977 -0.04164 0.88856
 C1167 C 0.04359 -0.03826 0.87144
 C1168 C 0.03990 -0.02144 0.85728
 C1169 C 0.02236 -0.00800 0.86032
 C1170 C 0.00855 -0.01137 0.87744
 C1171 C 0.05411 -0.01798 0.83966
 C1172 C 0.06600 -0.01507 0.82489
 H1173 H 0.03277 -0.05469 0.89941
 H1174 H 0.05710 -0.04875 0.86923
 H1175 H 0.01937 0.00506 0.84947
 H1176 H -0.00497 -0.00088 0.87964
 C1177 C -0.01443 0.03515 0.57586
 C1178 C -0.00249 0.03224 0.59059
 C1179 C 0.01177 0.02878 0.60817
 C1180 C 0.02639 0.01195 0.60755
 C1181 C 0.04025 0.00858 0.62464
 C1182 C 0.03954 0.02204 0.64240
 C1183 C 0.02492 0.03888 0.64302
 C1184 C 0.01106 0.04224 0.62593
 C1185 C 0.05379 0.01857 0.65998
 C1186 C 0.06573 0.01568 0.67471
 H1187 H 0.02708 0.00144 0.59389
 H1188 H 0.05150 -0.00449 0.62400
 H1189 H 0.02423 0.04938 0.65668
 H1190 H -0.00019 0.05531 0.62657
 C1191 C 0.48594 0.53496 0.07595
 C1192 C 0.49782 0.53205 0.09072
 C1193 C 0.51200 0.52857 0.10836
 C1194 C 0.53014 0.54134 0.11083
 C1195 C 0.54393 0.53794 0.12797
 C1196 C 0.53963 0.52177 0.14269
 C1197 C 0.52149 0.50900 0.14022
 C1198 C 0.50771 0.51240 0.12309
 C1199 C 0.55382 0.51826 0.16032
 C1200 C 0.56570 0.51534 0.17509
 H1201 H 0.53361 0.55389 0.09953
 H1202 H 0.55791 0.54790 0.12973
 H1203 H 0.51802 0.49645 0.15152
 H1204 H 0.49373 0.50243 0.12133
 C1205 C 0.51438 -0.03539 0.07579
 C1206 C 0.50252 -0.03251 0.09059
 C1207 C 0.48835 -0.02906 0.10825
 C1208 C 0.48904 -0.04262 0.12592
 C1209 C 0.47527 -0.03928 0.14308
 C1210 C 0.46073 -0.02235 0.14263
 C1211 C 0.46004 -0.00879 0.12496
 C1212 C 0.47381 -0.01214 0.10780
 C1213 C 0.44656 -0.01891 0.16028
 C1214 C 0.43468 -0.01601 0.17506
 H1215 H 0.50022 -0.05576 0.12643
 H1216 H 0.47594 -0.04986 0.15666
 H1217 H 0.44886 0.00434 0.12445
 H1218 H 0.47314 -0.00156 0.09421
 C1219 C 1.01368 0.46447 0.57561
 C1220 C 1.00181 0.46733 0.59041
 C1221 C 0.98765 0.47077 0.60807
 C1222 C 0.99109 0.48788 0.62197
 C1223 C 0.97731 0.49124 0.63912
 C1224 C 0.96004 0.47751 0.64245
 C1225 C 0.95660 0.46040 0.62855
 C1226 C 0.97038 0.45704 0.61139
 C1227 C 0.94585 0.48099 0.66008
 C1228 C 0.93397 0.48393 0.67485
 H1229 H 1.00440 0.49859 0.61955
 H1230 H 0.98012 0.50452 0.64977
 H1231 H 0.94329 0.44969 0.63097
 H1232 H 0.96757 0.44377 0.60074
 C1233 C 1.01374 0.53520 0.92418
 C1234 C 1.00184 0.53226 0.90942
 C1235 C 0.98765 0.52874 0.89179
 C1236 C 0.97767 0.50894 0.88924
 C1237 C 0.96389 0.50550 0.87210
 C1238 C 0.96003 0.52185 0.85744
 C1239 C 0.97001 0.54165 0.86000
 C1240 C 0.98379 0.54509 0.87714
 C1241 C 0.94586 0.51831 0.83981
 C1242 C 0.93399 0.51533 0.82504
 H1243 H 0.98055 0.49619 0.90047
 H1244 H 0.95627 0.49013 0.87027
 H1245 H 0.96713 0.55440 0.84876
 H1246 H 0.99142 0.56046 0.87896
 C1247 C 0.51451 0.03452 0.42442
 C1248 C 0.50262 0.03160 0.40965
 C1249 C 0.48841 0.02812 0.39203
 C1250 C 0.46645 0.02633 0.39553
 C1251 C 0.45264 0.02294 0.37841
 C1252 C 0.46074 0.02133 0.35771
 C1253 C 0.48271 0.02313 0.35420
 C1254 C 0.49651 0.02652 0.37133
 C1255 C 0.44654 0.01783 0.34009
 C1256 C 0.43464 0.01491 0.32533
 H1257 H 0.46002 0.02755 0.41148
 H1258 H 0.43569 0.02158 0.38130
 H1259 H 0.48914 0.02190 0.33826
 H1260 H 0.51347 0.02788 0.36844
   
