data_POSCAR
  _audit_creation_date              2014-09-24
  _audit_creation_method            'ToBaCCo'
  _symmetry_space_group_name_H-M    'P1'
  _symmetry_Int_Tables_number       1
  _symmetry_cell_setting            triclinic
  loop_
  _symmetry_equiv_pos_as_xyz
 x,y,z
_cell_length_a 64.2812
_cell_length_b 64.2356
_cell_length_c 64.2090
_cell_angle_alpha 90.020300
_cell_angle_beta 89.975800
_cell_angle_gamma 89.977500
loop_
  _atom_site_label
  _atom_site_type_symbol
  _atom_site_fract_x
  _atom_site_fract_y
  _atom_site_fract_z
O1 O 0.87514 0.15309 0.82053
 O2 O 0.89825 0.12589 0.81493
 O3 O 0.82102 0.12356 0.84623
 O4 O 0.81322 0.10352 0.87354
 O5 O 0.84641 0.17870 0.87538
 O6 O 0.87527 0.18464 0.89783
 O7 O 0.87597 0.07005 0.90279
 O8 O 0.85182 0.06485 0.87666
 O9 O 0.92894 0.09582 0.87569
 O10 O 0.93566 0.12526 0.85226
 O11 O 0.90371 0.12361 0.92870
 O12 O 0.87436 0.14652 0.93568
 O13 O 0.87600 0.09507 0.92795
 O14 O 0.85167 0.12511 0.93455
 O15 O 0.92878 0.12386 0.90372
 O16 O 0.93478 0.14804 0.87367
 O17 O 0.90401 0.07074 0.87612
 O18 O 0.87669 0.06736 0.84878
 O19 O 0.87566 0.17813 0.84570
 O20 O 0.89849 0.18422 0.87499
 O21 O 0.82133 0.15371 0.87537
 O22 O 0.81672 0.12400 0.89962
 O23 O 0.84596 0.12432 0.82106
 O24 O 0.87497 0.09917 0.81710
 Zr25 Zr 0.87427 0.12514 0.83755
 O26 O 0.89399 0.10595 0.85536
 Zr27 Zr 0.83780 0.12536 0.87431
 O28 O 0.85574 0.10560 0.89332
 Zr29 Zr 0.87444 0.16179 0.87415
 O30 O 0.89377 0.14393 0.89371
 Zr31 Zr 0.87582 0.08736 0.87510
 O32 O 0.85581 0.10508 0.85582
 Zr33 Zr 0.91227 0.12405 0.87545
 O34 O 0.89443 0.14351 0.85578
 Zr35 Zr 0.87560 0.12371 0.91192
 O36 O 0.85607 0.14370 0.89438
 O37 O 0.85503 0.14457 0.85492
 O38 O 0.89518 0.10444 0.89475
 C39 C 0.87590 0.17217 0.82657
 C40 C 0.82692 0.12342 0.82710
 C41 C 0.82732 0.17279 0.87591
 C42 C 0.87611 0.07597 0.92191
 C43 C 0.92309 0.07669 0.87609
 C44 C 0.92280 0.12366 0.92279
 H45 H 0.90257 0.09727 0.84596
 H46 H 0.90228 0.15336 0.90238
 H47 H 0.84610 0.15345 0.84604
 H48 H 0.84642 0.09671 0.90175
 H49 H 0.84224 0.06783 0.86496
 H50 H 0.81886 0.09028 0.87896
 H51 H 0.93238 0.15766 0.88546
 H52 H 0.90930 0.17942 0.86511
 H53 H 0.87970 0.05306 0.85375
 H54 H 0.87066 0.10380 0.80300
 H55 H 0.88447 0.15755 0.93208
 H56 H 0.86611 0.17956 0.90913
 H57 H 0.90955 0.13459 0.82074
 H58 H 0.93241 0.11452 0.84172
 H59 H 0.82062 0.13531 0.90934
 H60 H 0.84227 0.11314 0.93223
 O61 O 0.84629 0.67896 0.37494
 O62 O 0.87344 0.68455 0.39811
 O63 O 0.87586 0.65314 0.32084
 O64 O 0.89587 0.62582 0.31307
 O65 O 0.82072 0.62410 0.34629
 O66 O 0.81473 0.60172 0.37522
 O67 O 0.92926 0.59664 0.37594
 O68 O 0.93447 0.62271 0.35169
 O69 O 0.90344 0.62393 0.42891
 O70 O 0.87399 0.64733 0.43558
 O71 O 0.87572 0.57086 0.40375
 O72 O 0.85284 0.56383 0.37440
 O73 O 0.90425 0.57152 0.37600
 O74 O 0.87422 0.56492 0.35166
 O75 O 0.87546 0.59589 0.42880
 O76 O 0.85127 0.62591 0.43477
 O77 O 0.92854 0.62340 0.40394
 O78 O 0.93195 0.65064 0.37653
 O79 O 0.82125 0.65382 0.37552
 O80 O 0.81515 0.62458 0.39842
 O81 O 0.84573 0.62404 0.32120
 O82 O 0.87540 0.59978 0.31661
 O83 O 0.87508 0.67834 0.34577
 O84 O 0.90015 0.68235 0.37482
 Zr85 Zr 0.87421 0.66191 0.37413
 O86 O 0.89337 0.64413 0.39389
 Zr87 Zr 0.87403 0.62511 0.33768
 O88 O 0.89375 0.60610 0.35566
 Zr89 Zr 0.83758 0.62536 0.37435
 O90 O 0.85541 0.60583 0.39374
 Zr91 Zr 0.91197 0.62435 0.37573
 O92 O 0.89427 0.64360 0.35568
 Zr93 Zr 0.87525 0.62410 0.41222
 O94 O 0.85582 0.64375 0.39433
 Zr95 Zr 0.87563 0.58757 0.37558
 O96 O 0.85567 0.60510 0.35600
 O97 O 0.85481 0.64454 0.35489
 O98 O 0.89487 0.60476 0.39515
 C99 C 0.82722 0.67295 0.37573
 C100 C 0.87601 0.67227 0.32673
 C101 C 0.82666 0.62353 0.32718
 C102 C 0.92333 0.57754 0.37611
 C103 C 0.92254 0.62351 0.42301
 C104 C 0.87567 0.57681 0.42284
 H105 H 0.90203 0.65354 0.40246
 H106 H 0.84598 0.59718 0.40227
 H107 H 0.84595 0.65340 0.34594
 H108 H 0.90263 0.59766 0.34635
 H109 H 0.93150 0.63439 0.34208
 H110 H 0.90909 0.62037 0.31872
 H111 H 0.84166 0.61413 0.43238
 H112 H 0.81993 0.63446 0.40924
 H113 H 0.94624 0.64566 0.37953
 H114 H 0.89553 0.69644 0.37048
 H115 H 0.84181 0.56747 0.38451
 H116 H 0.81983 0.59040 0.36609
 H117 H 0.86466 0.67880 0.40940
 H118 H 0.88471 0.65788 0.43230
 H119 H 0.86410 0.59007 0.32054
 H120 H 0.88620 0.56720 0.34226
 O121 O 0.37455 0.15277 0.32092
 O122 O 0.39776 0.12554 0.31547
 O123 O 0.32051 0.12328 0.34676
 O124 O 0.31276 0.10328 0.37412
 O125 O 0.34588 0.17852 0.37573
 O126 O 0.37474 0.18461 0.39809
 O127 O 0.37544 0.07002 0.40361
 O128 O 0.35130 0.06472 0.37746
 O129 O 0.42843 0.09575 0.37626
 O130 O 0.43513 0.12506 0.35276
 O131 O 0.40325 0.12367 0.42922
 O132 O 0.37386 0.14665 0.43611
 O133 O 0.37550 0.09513 0.42863
 O134 O 0.35122 0.12521 0.43513
 O135 O 0.42828 0.12387 0.40420
 O136 O 0.43423 0.14795 0.37406
 O137 O 0.40350 0.07063 0.37687
 O138 O 0.37618 0.06709 0.34959
 O139 O 0.37507 0.17790 0.34601
 O140 O 0.39796 0.18408 0.37526
 O141 O 0.32082 0.15350 0.37580
 O142 O 0.31619 0.12394 0.40013
 O143 O 0.34544 0.12393 0.32158
 O144 O 0.37448 0.09883 0.31769
 Zr145 Zr 0.37375 0.12487 0.33806
 O146 O 0.39346 0.10575 0.35597
 Zr147 Zr 0.33729 0.12518 0.37483
 O148 O 0.35524 0.10553 0.39396
 Zr149 Zr 0.37391 0.16164 0.37452
 O150 O 0.39326 0.14388 0.39415
 Zr151 Zr 0.37531 0.08722 0.37581
 O152 O 0.35532 0.10485 0.35643
 Zr153 Zr 0.41174 0.12395 0.37596
 O154 O 0.39390 0.14332 0.35621
 Zr155 Zr 0.37511 0.12371 0.41247
 O156 O 0.35557 0.14361 0.39483
 O157 O 0.35450 0.14434 0.35537
 O158 O 0.39469 0.10439 0.39536
 C159 C 0.37529 0.17189 0.32688
 C160 C 0.32640 0.12305 0.32763
 C161 C 0.32680 0.17258 0.37628
 C162 C 0.37558 0.07597 0.42273
 C163 C 0.42254 0.07665 0.37676
 C164 C 0.42233 0.12372 0.42328
 H165 H 0.40203 0.09704 0.34659
 H166 H 0.40176 0.15335 0.40279
 H167 H 0.34556 0.15318 0.34646
 H168 H 0.34593 0.09668 0.40243
 H169 H 0.34172 0.06766 0.36574
 H170 H 0.31837 0.09012 0.37977
 H171 H 0.43184 0.15761 0.38582
 H172 H 0.40874 0.17927 0.36535
 H173 H 0.37918 0.05281 0.35464
 H174 H 0.37018 0.10341 0.30357
 H175 H 0.38405 0.15761 0.43251
 H176 H 0.36565 0.17953 0.40946
 H177 H 0.40899 0.13439 0.32118
 H178 H 0.43181 0.11436 0.34220
 H179 H 0.32014 0.13524 0.40985
 H180 H 0.34178 0.11327 0.43283
 O181 O 0.12463 0.34629 0.32058
 O182 O 0.10148 0.37354 0.31511
 O183 O 0.17874 0.37573 0.34632
 O184 O 0.18660 0.39568 0.37366
 O185 O 0.15326 0.32058 0.37540
 O186 O 0.12437 0.31462 0.39780
 O187 O 0.12398 0.42923 0.40311
 O188 O 0.14814 0.43440 0.37693
 O189 O 0.07092 0.40358 0.37589
 O190 O 0.06413 0.37421 0.35246
 O191 O 0.09610 0.37568 0.42886
 O192 O 0.12539 0.35267 0.43576
 O193 O 0.12388 0.40415 0.42819
 O194 O 0.14813 0.37402 0.43467
 O195 O 0.07103 0.37553 0.40389
 O196 O 0.06498 0.35139 0.37381
 O197 O 0.09593 0.42863 0.37642
 O198 O 0.12324 0.43202 0.34909
 O199 O 0.12406 0.32121 0.34571
 O200 O 0.10116 0.31516 0.37499
 O201 O 0.17837 0.34553 0.37539
 O202 O 0.18308 0.37515 0.39968
 O203 O 0.15380 0.37507 0.32117
 O204 O 0.12481 0.40021 0.31726
 Zr205 Zr 0.12550 0.37422 0.33768
 O206 O 0.10585 0.39344 0.35557
 Zr207 Zr 0.16198 0.37390 0.37441
 O208 O 0.14410 0.39365 0.39351
 Zr209 Zr 0.12527 0.33753 0.37419
 O210 O 0.10598 0.35539 0.39381
 Zr211 Zr 0.12406 0.41197 0.37535
 O212 O 0.14400 0.39423 0.35599
 Zr213 Zr 0.08753 0.37533 0.37562
 O214 O 0.10531 0.35586 0.35588
 Zr215 Zr 0.12420 0.37554 0.41207
 O216 O 0.14368 0.35554 0.39445
 O217 O 0.14471 0.35474 0.35499
 O218 O 0.10466 0.39488 0.39496
 C219 C 0.12385 0.32719 0.32658
 C220 C 0.17284 0.37595 0.32720
 C221 C 0.17235 0.32647 0.37591
 C222 C 0.12384 0.42326 0.42221
 C223 C 0.07687 0.42267 0.37634
 C224 C 0.07701 0.37569 0.42296
 H225 H 0.09729 0.40215 0.34619
 H226 H 0.09746 0.34596 0.40248
 H227 H 0.15363 0.34586 0.34608
 H228 H 0.15344 0.40249 0.40195
 H229 H 0.15769 0.43142 0.36520
 H230 H 0.18101 0.40892 0.37917
 H231 H 0.06735 0.34175 0.38558
 H232 H 0.09038 0.31998 0.36509
 H233 H 0.12029 0.44633 0.35411
 H234 H 0.12910 0.39559 0.30315
 H235 H 0.11522 0.34170 0.43217
 H236 H 0.13350 0.31968 0.40913
 H237 H 0.09023 0.36474 0.32086
 H238 H 0.06747 0.38489 0.34187
 H239 H 0.17915 0.36385 0.40939
 H240 H 0.15756 0.38597 0.43238
 O241 O 0.62465 0.84615 0.32047
 O242 O 0.60148 0.87334 0.31494
 O243 O 0.67872 0.87572 0.34616
 O244 O 0.68646 0.89583 0.37345
 O245 O 0.65340 0.82058 0.37530
 O246 O 0.62456 0.81454 0.39772
 O247 O 0.62373 0.92915 0.40288
 O248 O 0.64787 0.93438 0.37671
 O249 O 0.57077 0.90328 0.37578
 O250 O 0.56406 0.87390 0.35236
 O251 O 0.59603 0.87555 0.42874
 O252 O 0.62546 0.85262 0.43563
 O253 O 0.62372 0.90412 0.42801
 O254 O 0.64807 0.87411 0.43455
 O255 O 0.57096 0.87526 0.40378
 O256 O 0.56504 0.85104 0.37367
 O257 O 0.59569 0.92842 0.37623
 O258 O 0.62297 0.93188 0.34887
 O259 O 0.62418 0.82109 0.34562
 O260 O 0.60132 0.81499 0.37492
 O261 O 0.67843 0.84562 0.37527
 O262 O 0.68305 0.87528 0.39952
 O263 O 0.65379 0.87495 0.32100
 O264 O 0.62473 0.90008 0.31712
 Zr265 Zr 0.62547 0.87410 0.33753
 O266 O 0.60574 0.89324 0.35541
 Zr267 Zr 0.66195 0.87393 0.37425
 O268 O 0.64399 0.89363 0.39334
 Zr269 Zr 0.62535 0.83744 0.37409
 O270 O 0.60600 0.85524 0.39371
 Zr271 Zr 0.62389 0.91185 0.37515
 O272 O 0.64391 0.89418 0.35581
 Zr273 Zr 0.58748 0.87509 0.37550
 O274 O 0.60534 0.85569 0.35576
 Zr275 Zr 0.62415 0.87548 0.41194
 O276 O 0.64370 0.85554 0.39432
 O277 O 0.64474 0.85469 0.35486
 O278 O 0.60454 0.89473 0.39480
 C279 C 0.62393 0.82706 0.32649
 C280 C 0.67283 0.87586 0.32702
 C281 C 0.67247 0.82653 0.37581
 C282 C 0.62359 0.92322 0.42199
 C283 C 0.57665 0.92239 0.37620
 C284 C 0.57694 0.87548 0.42285
 H285 H 0.59714 0.90191 0.34603
 H286 H 0.59751 0.84579 0.40238
 H287 H 0.65367 0.84582 0.34597
 H288 H 0.65330 0.90252 0.40177
 H289 H 0.65744 0.93143 0.36499
 H290 H 0.68083 0.90903 0.37902
 H291 H 0.56741 0.84146 0.38550
 H292 H 0.59052 0.81975 0.36502
 H293 H 0.61997 0.94618 0.35388
 H294 H 0.62906 0.89547 0.30301
 H295 H 0.61527 0.84165 0.43209
 H296 H 0.63364 0.81967 0.40906
 H297 H 0.59021 0.86458 0.32073
 H298 H 0.56735 0.88457 0.34176
 H299 H 0.67913 0.86400 0.40926
 H300 H 0.65748 0.88606 0.43221
 O301 O 0.62492 0.65288 0.17899
 O302 O 0.60175 0.62571 0.18453
 O303 O 0.67899 0.62327 0.15323
 O304 O 0.68676 0.60320 0.12592
 O305 O 0.65366 0.67846 0.12415
 O306 O 0.62481 0.68449 0.10174
 O307 O 0.62399 0.56989 0.09657
 O308 O 0.64814 0.56463 0.12269
 O309 O 0.57104 0.59577 0.12377
 O310 O 0.56436 0.62519 0.14720
 O311 O 0.59630 0.62353 0.07076
 O312 O 0.62568 0.64638 0.06380
 O313 O 0.62397 0.59492 0.07146
 O314 O 0.64834 0.62493 0.06491
 O315 O 0.57124 0.62381 0.09576
 O316 O 0.56528 0.64799 0.12584
 O317 O 0.59596 0.57062 0.12328
 O318 O 0.62329 0.56716 0.15058
 O319 O 0.62443 0.67794 0.15385
 O320 O 0.60159 0.68408 0.12456
 O321 O 0.67871 0.65341 0.12412
 O322 O 0.68330 0.62372 0.09985
 O323 O 0.65405 0.62405 0.17840
 O324 O 0.62501 0.59896 0.18234
 Zr325 Zr 0.62574 0.62494 0.16191
 O326 O 0.60601 0.60580 0.14407
 Zr327 Zr 0.66222 0.62510 0.12516
 O328 O 0.64426 0.60539 0.10610
 Zr329 Zr 0.62562 0.66161 0.12537
 O330 O 0.60626 0.64380 0.10579
 Zr331 Zr 0.62416 0.58718 0.12430
 O332 O 0.64418 0.60485 0.14361
 Zr333 Zr 0.58775 0.62395 0.12401
 O334 O 0.60561 0.64336 0.14372
 Zr335 Zr 0.62441 0.62355 0.08754
 O336 O 0.64396 0.64350 0.10511
 O337 O 0.64501 0.64434 0.14457
 O338 O 0.60481 0.60431 0.10468
 C339 C 0.62419 0.67197 0.17298
 C340 C 0.67309 0.62312 0.17237
 C341 C 0.67274 0.67250 0.12360
 C342 C 0.62385 0.57578 0.07743
 C343 C 0.57692 0.57665 0.12335
 C344 C 0.57721 0.62361 0.07668
 H345 H 0.59743 0.59713 0.15347
 H346 H 0.59777 0.65326 0.09712
 H347 H 0.65395 0.65320 0.15346
 H348 H 0.65356 0.59650 0.09766
 H349 H 0.65773 0.56759 0.13439
 H350 H 0.68112 0.58999 0.12041
 H351 H 0.56768 0.65761 0.11405
 H352 H 0.59078 0.67931 0.13446
 H353 H 0.62028 0.55286 0.14559
 H354 H 0.62933 0.60357 0.19644
 H355 H 0.61558 0.65742 0.06742
 H356 H 0.63394 0.67939 0.09041
 H357 H 0.59049 0.63449 0.17876
 H358 H 0.56763 0.61448 0.15777
 H359 H 0.67939 0.63502 0.09013
 H360 H 0.65772 0.61293 0.06720
 O361 O 0.37455 0.84683 0.67929
 O362 O 0.39775 0.87404 0.68474
 O363 O 0.32047 0.87637 0.65356
 O364 O 0.31271 0.89641 0.62624
 O365 O 0.34584 0.82116 0.62449
 O366 O 0.37469 0.81509 0.60207
 O367 O 0.37539 0.92969 0.59670
 O368 O 0.35126 0.93497 0.62287
 O369 O 0.42840 0.90389 0.62396
 O370 O 0.43513 0.87453 0.64735
 O371 O 0.40315 0.87601 0.57095
 O372 O 0.37376 0.85308 0.56410
 O373 O 0.37542 0.90459 0.57162
 O374 O 0.35111 0.87454 0.56516
 O375 O 0.42822 0.87581 0.59592
 O376 O 0.43418 0.85167 0.62604
 O377 O 0.40347 0.92903 0.62342
 O378 O 0.37615 0.93254 0.65072
 O379 O 0.37506 0.82173 0.65417
 O380 O 0.39792 0.81558 0.62488
 O381 O 0.32077 0.84618 0.62449
 O382 O 0.31613 0.87579 0.60020
 O383 O 0.34542 0.87568 0.67871
 O384 O 0.37446 0.90077 0.68256
 Zr385 Zr 0.37373 0.87476 0.66217
 O386 O 0.39343 0.89388 0.64426
 Zr387 Zr 0.33724 0.87451 0.62546
 O388 O 0.35518 0.89417 0.60634
 Zr389 Zr 0.37387 0.83802 0.62567
 O390 O 0.39320 0.85580 0.60603
 Zr391 Zr 0.37527 0.91246 0.62447
 O392 O 0.35528 0.89480 0.64386
 Zr393 Zr 0.41171 0.87570 0.62420
 O394 O 0.39388 0.85632 0.64397
 Zr395 Zr 0.37504 0.87599 0.58777
 O396 O 0.35551 0.85609 0.60542
 O397 O 0.35447 0.85531 0.64488
 O398 O 0.39464 0.89529 0.60486
 C399 C 0.37529 0.82773 0.67330
 C400 C 0.32637 0.87658 0.67269
 C401 C 0.32675 0.82710 0.62398
 C402 C 0.37551 0.92371 0.57759
 C403 C 0.42252 0.92301 0.62352
 C404 C 0.42224 0.87596 0.57685
 H405 H 0.40201 0.90257 0.65363
 H406 H 0.40170 0.84633 0.59737
 H407 H 0.34554 0.84647 0.65379
 H408 H 0.34586 0.90304 0.59789
 H409 H 0.34169 0.93203 0.63459
 H410 H 0.31832 0.90959 0.62062
 H411 H 0.43181 0.84204 0.61425
 H412 H 0.40872 0.82037 0.63476
 H413 H 0.37913 0.94683 0.64570
 H414 H 0.37017 0.89618 0.69668
 H415 H 0.38393 0.84210 0.56768
 H416 H 0.36557 0.82017 0.59074
 H417 H 0.40898 0.86520 0.67899
 H418 H 0.43179 0.88518 0.65796
 H419 H 0.32006 0.86449 0.59047
 H420 H 0.34168 0.88649 0.56749
 O421 O 0.87501 0.34633 0.67929
 O422 O 0.89815 0.37352 0.68481
 O423 O 0.82088 0.37588 0.65367
 O424 O 0.81302 0.39588 0.62636
 O425 O 0.84624 0.32070 0.62451
 O426 O 0.87509 0.31471 0.60202
 O427 O 0.87567 0.42931 0.59696
 O428 O 0.85158 0.43454 0.62316
 O429 O 0.92874 0.40352 0.62401
 O430 O 0.93549 0.37410 0.64743
 O431 O 0.90345 0.37574 0.57105
 O432 O 0.87412 0.35282 0.56412
 O433 O 0.87571 0.40427 0.57182
 O434 O 0.85140 0.37420 0.56531
 O435 O 0.92854 0.37549 0.59599
 O436 O 0.93459 0.35131 0.62603
 O437 O 0.90378 0.42863 0.62358
 O438 O 0.87650 0.43204 0.65098
 O439 O 0.87551 0.32127 0.65413
 O440 O 0.89832 0.31516 0.62481
 O441 O 0.82117 0.34571 0.62455
 O442 O 0.81650 0.37539 0.60030
 O443 O 0.84585 0.37512 0.67879
 O444 O 0.87485 0.40024 0.68270
 Zr445 Zr 0.87413 0.37426 0.66225
 O446 O 0.89381 0.39344 0.64439
 Zr447 Zr 0.83761 0.37404 0.62556
 O448 O 0.85551 0.39378 0.60650
 Zr449 Zr 0.87427 0.33759 0.62568
 O450 O 0.89357 0.35543 0.60607
 Zr451 Zr 0.87561 0.41203 0.62467
 O452 O 0.85564 0.39432 0.64400
 Zr453 Zr 0.91207 0.37531 0.62428
 O454 O 0.89427 0.35587 0.64400
 Zr455 Zr 0.87536 0.37564 0.58788
 O456 O 0.85587 0.35567 0.60547
 O457 O 0.85487 0.35483 0.64493
 O458 O 0.89495 0.39492 0.60500
 C459 C 0.87577 0.32724 0.67327
 C460 C 0.82680 0.37605 0.67279
 C461 C 0.82716 0.32663 0.62400
 C462 C 0.87579 0.42337 0.57785
 C463 C 0.92283 0.42262 0.62360
 C464 C 0.92254 0.37569 0.57693
 H465 H 0.90240 0.40212 0.65377
 H466 H 0.90206 0.34599 0.59738
 H467 H 0.84596 0.34596 0.65383
 H468 H 0.84618 0.40266 0.59808
 H469 H 0.84203 0.43156 0.63489
 H470 H 0.81865 0.40912 0.62094
 H471 H 0.93219 0.34169 0.61424
 H472 H 0.90914 0.31995 0.63467
 H473 H 0.87949 0.44634 0.64598
 H474 H 0.87056 0.39562 0.69681
 H475 H 0.88424 0.34179 0.56772
 H476 H 0.86593 0.31980 0.59072
 H477 H 0.90942 0.36477 0.67901
 H478 H 0.93223 0.38482 0.65799
 H479 H 0.82039 0.36407 0.59058
 H480 H 0.84200 0.38618 0.56762
 O481 O 0.82066 0.87458 0.15305
 O482 O 0.81520 0.89771 0.12579
 O483 O 0.84640 0.82038 0.12363
 O484 O 0.87368 0.81252 0.10361
 O485 O 0.87541 0.84589 0.17878
 O486 O 0.89778 0.87477 0.18478
 O487 O 0.90313 0.87515 0.07011
 O488 O 0.87700 0.85099 0.06492
 O489 O 0.87592 0.92826 0.09579
 O490 O 0.85254 0.93510 0.12517
 O491 O 0.92885 0.90304 0.12365
 O492 O 0.93575 0.87375 0.14667
 O493 O 0.92817 0.87523 0.09518
 O494 O 0.93462 0.85095 0.12534
 O495 O 0.90392 0.92815 0.12384
 O496 O 0.87386 0.93422 0.14802
 O497 O 0.87647 0.90324 0.07072
 O498 O 0.84918 0.87593 0.06730
 O499 O 0.84574 0.87516 0.17816
 O500 O 0.87501 0.89804 0.18422
 O501 O 0.87545 0.82076 0.15380
 O502 O 0.89970 0.81602 0.12416
 O503 O 0.82127 0.84535 0.12429
 O504 O 0.81739 0.87435 0.09910
 Zr505 Zr 0.83776 0.87367 0.12512
 O506 O 0.85564 0.89332 0.10592
 Zr507 Zr 0.87445 0.83716 0.12543
 O508 O 0.89354 0.85502 0.10569
 Zr509 Zr 0.87421 0.87390 0.16184
 O510 O 0.89383 0.89318 0.14398
 Zr511 Zr 0.87540 0.87509 0.08738
 O512 O 0.85605 0.85514 0.10510
 Zr513 Zr 0.87567 0.91165 0.12404
 O514 O 0.85593 0.89388 0.14349
 Zr515 Zr 0.91207 0.87494 0.12381
 O516 O 0.89445 0.85547 0.14381
 O517 O 0.85504 0.85445 0.14461
 O518 O 0.89499 0.89450 0.10447
 C519 C 0.82663 0.87539 0.17216
 C520 C 0.82729 0.82629 0.12343
 C521 C 0.87596 0.82679 0.17287
 C522 C 0.92225 0.87529 0.07603
 C523 C 0.87638 0.92231 0.07669
 C524 C 0.92297 0.92215 0.12364
 H525 H 0.84627 0.90190 0.09721
 H526 H 0.90249 0.90170 0.15342
 H527 H 0.84615 0.84554 0.15349
 H528 H 0.90197 0.84567 0.09683
 H529 H 0.86528 0.84144 0.06789
 H530 H 0.87924 0.81810 0.09039
 H531 H 0.88564 0.93186 0.15764
 H532 H 0.86513 0.90884 0.17940
 H533 H 0.85420 0.87887 0.05299
 H534 H 0.80329 0.87006 0.10372
 H535 H 0.93214 0.88391 0.15767
 H536 H 0.90912 0.86566 0.17969
 H537 H 0.82094 0.90899 0.13458
 H538 H 0.84195 0.93175 0.11451
 H539 H 0.90941 0.81996 0.13546
 H540 H 0.93238 0.84155 0.11335
 O541 O 0.37480 0.34611 0.17934
 O542 O 0.39799 0.37332 0.18485
 O543 O 0.32079 0.37567 0.15348
 O544 O 0.31303 0.39562 0.12612
 O545 O 0.34625 0.32043 0.12448
 O546 O 0.37517 0.31440 0.10211
 O547 O 0.37575 0.42902 0.09682
 O548 O 0.35157 0.43426 0.12296
 O549 O 0.42873 0.40325 0.12414
 O550 O 0.43540 0.37388 0.14762
 O551 O 0.40364 0.37542 0.07113
 O552 O 0.37436 0.35247 0.06413
 O553 O 0.37586 0.40393 0.07172
 O554 O 0.35159 0.37382 0.06521
 O555 O 0.42864 0.37518 0.09617
 O556 O 0.43459 0.35106 0.12625
 O557 O 0.40378 0.42837 0.12355
 O558 O 0.37642 0.43184 0.15084
 O559 O 0.37539 0.32102 0.15422
 O560 O 0.39835 0.31490 0.12497
 O561 O 0.32118 0.34544 0.12443
 O562 O 0.31658 0.37506 0.10010
 O563 O 0.34568 0.37497 0.17868
 O564 O 0.37469 0.40003 0.18267
 Zr565 Zr 0.37402 0.37404 0.16224
 O566 O 0.39373 0.39321 0.14440
 Zr567 Zr 0.33762 0.37377 0.12543
 O568 O 0.35557 0.39348 0.10637
 Zr569 Zr 0.37427 0.33732 0.12573
 O570 O 0.39363 0.35514 0.10615
 Zr571 Zr 0.37560 0.41177 0.12458
 O572 O 0.35559 0.39408 0.14389
 Zr573 Zr 0.41207 0.37505 0.12439
 O574 O 0.39422 0.35562 0.14409
 Zr575 Zr 0.37549 0.37533 0.08785
 O576 O 0.35594 0.35537 0.10543
 O577 O 0.35481 0.35459 0.14489
 O578 O 0.39502 0.39463 0.10501
 C579 C 0.37557 0.32701 0.17335
 C580 C 0.32666 0.37588 0.17261
 C581 C 0.32717 0.32636 0.12393
 C582 C 0.37591 0.42305 0.07770
 C583 C 0.42283 0.42236 0.12365
 C584 C 0.42271 0.37538 0.07708
 H585 H 0.40229 0.40190 0.15379
 H586 H 0.40216 0.34569 0.09750
 H587 H 0.34587 0.34574 0.15377
 H588 H 0.34626 0.40234 0.09791
 H589 H 0.34198 0.43130 0.13467
 H590 H 0.31866 0.40884 0.12064
 H591 H 0.43221 0.34140 0.11449
 H592 H 0.40911 0.31970 0.13490
 H593 H 0.37941 0.44613 0.14583
 H594 H 0.37038 0.39542 0.19677
 H595 H 0.38447 0.34145 0.06778
 H596 H 0.36607 0.31948 0.09076
 H597 H 0.40924 0.36449 0.17913
 H598 H 0.43209 0.38461 0.15817
 H599 H 0.32051 0.36372 0.09041
 H600 H 0.34218 0.38579 0.06748
 O601 O 0.37466 0.65339 0.82072
 O602 O 0.39787 0.62620 0.81519
 O603 O 0.32064 0.62380 0.84652
 O604 O 0.31288 0.60380 0.87386
 O605 O 0.34598 0.67902 0.87558
 O606 O 0.37486 0.68503 0.89799
 O607 O 0.37563 0.57042 0.90318
 O608 O 0.35148 0.56518 0.87704
 O609 O 0.42860 0.59623 0.87587
 O610 O 0.43526 0.62565 0.85246
 O611 O 0.40338 0.62404 0.92894
 O612 O 0.37404 0.64695 0.93592
 O613 O 0.37565 0.59549 0.92829
 O614 O 0.35133 0.62557 0.93481
 O615 O 0.42843 0.62427 0.90392
 O616 O 0.43438 0.64844 0.87386
 O617 O 0.40368 0.57110 0.87643
 O618 O 0.37633 0.56765 0.84914
 O619 O 0.37518 0.67847 0.84586
 O620 O 0.39807 0.68458 0.87513
 O621 O 0.32093 0.65400 0.87560
 O622 O 0.31636 0.62435 0.89991
 O623 O 0.34555 0.62453 0.82133
 O624 O 0.37460 0.59947 0.81736
 Zr625 Zr 0.37387 0.62545 0.83780
 O626 O 0.39360 0.60628 0.85563
 Zr627 Zr 0.33743 0.62567 0.87459
 O628 O 0.35539 0.60595 0.89363
 Zr629 Zr 0.37403 0.66214 0.87434
 O630 O 0.39339 0.64432 0.89391
 Zr631 Zr 0.37548 0.58769 0.87543
 O632 O 0.35546 0.60539 0.85613
 Zr633 Zr 0.41189 0.62443 0.87568
 O634 O 0.39403 0.64386 0.85599
 Zr635 Zr 0.37526 0.62411 0.91219
 O636 O 0.35570 0.64406 0.89462
 O637 O 0.35462 0.64488 0.85515
 O638 O 0.39485 0.60482 0.89503
 C639 C 0.37539 0.67249 0.82673
 C640 C 0.32652 0.62361 0.82739
 C641 C 0.32690 0.67309 0.87611
 C642 C 0.37575 0.57637 0.92230
 C643 C 0.42273 0.57711 0.87631
 C644 C 0.42246 0.62408 0.92300
 H645 H 0.40218 0.59761 0.84623
 H646 H 0.40189 0.65377 0.90257
 H647 H 0.34568 0.65373 0.84627
 H648 H 0.34608 0.59708 0.90208
 H649 H 0.34189 0.56815 0.86534
 H650 H 0.31852 0.59059 0.87935
 H651 H 0.43197 0.65807 0.88564
 H652 H 0.40887 0.67978 0.86523
 H653 H 0.37934 0.55335 0.85414
 H654 H 0.37030 0.60408 0.80325
 H655 H 0.38413 0.65798 0.93228
 H656 H 0.36573 0.67995 0.90931
 H657 H 0.40911 0.63503 0.82093
 H658 H 0.43196 0.61496 0.84188
 H659 H 0.32026 0.63568 0.90960
 H660 H 0.34193 0.61359 0.93253
 O661 O 0.12452 0.65341 0.67937
 O662 O 0.10137 0.62619 0.68485
 O663 O 0.17866 0.62391 0.65365
 O664 O 0.18652 0.60393 0.62631
 O665 O 0.15323 0.67910 0.62458
 O666 O 0.12438 0.68508 0.60215
 O667 O 0.12390 0.57048 0.59684
 O668 O 0.14801 0.56526 0.62303
 O669 O 0.07082 0.59621 0.62404
 O670 O 0.06404 0.62558 0.64748
 O671 O 0.09608 0.62402 0.57108
 O672 O 0.12539 0.64704 0.56420
 O673 O 0.12387 0.59556 0.57176
 O674 O 0.14812 0.62566 0.56529
 O675 O 0.07098 0.62424 0.59604
 O676 O 0.06493 0.64841 0.62613
 O677 O 0.09580 0.57112 0.62352
 O678 O 0.12309 0.56768 0.65087
 O679 O 0.12399 0.67849 0.65425
 O680 O 0.10114 0.68458 0.62496
 O681 O 0.17834 0.65411 0.62459
 O682 O 0.18304 0.62448 0.60028
 O683 O 0.15369 0.62460 0.67880
 O684 O 0.12468 0.59948 0.68268
 Zr685 Zr 0.12540 0.62547 0.66228
 O686 O 0.10575 0.60629 0.64438
 Zr687 Zr 0.16192 0.62576 0.62556
 O688 O 0.14404 0.60603 0.60646
 Zr689 Zr 0.12523 0.66218 0.62576
 O690 O 0.10594 0.64434 0.60613
 Zr691 Zr 0.12396 0.58774 0.62461
 O692 O 0.14391 0.60545 0.64397
 Zr693 Zr 0.08746 0.62443 0.62432
 O694 O 0.10524 0.64386 0.64407
 Zr695 Zr 0.12417 0.62417 0.58788
 O696 O 0.14364 0.64413 0.60551
 O697 O 0.14464 0.64494 0.64498
 O698 O 0.10459 0.60485 0.60499
 C699 C 0.12375 0.67250 0.67338
 C700 C 0.17274 0.62370 0.67277
 C701 C 0.17232 0.67319 0.62407
 C702 C 0.12380 0.57645 0.57774
 C703 C 0.07674 0.57710 0.62358
 C704 C 0.07698 0.62404 0.57697
 H705 H 0.09717 0.59760 0.65375
 H706 H 0.09743 0.65378 0.59747
 H707 H 0.15355 0.65380 0.65388
 H708 H 0.15338 0.59718 0.59802
 H709 H 0.15756 0.56823 0.63475
 H710 H 0.18091 0.59070 0.62081
 H711 H 0.06730 0.65803 0.61434
 H712 H 0.09033 0.67977 0.63484
 H713 H 0.12012 0.55339 0.64585
 H714 H 0.12896 0.60409 0.69680
 H715 H 0.11519 0.65800 0.56777
 H716 H 0.13351 0.68000 0.59082
 H717 H 0.09011 0.63497 0.67908
 H718 H 0.06734 0.61489 0.65806
 H719 H 0.17913 0.63579 0.59058
 H720 H 0.15756 0.61372 0.56760
 O721 O 0.12477 0.15280 0.17921
 O722 O 0.10158 0.12560 0.18465
 O723 O 0.17890 0.12325 0.15354
 O724 O 0.18673 0.10323 0.12621
 O725 O 0.15358 0.17846 0.12446
 O726 O 0.12475 0.18449 0.10200
 O727 O 0.12407 0.06991 0.09663
 O728 O 0.14819 0.06464 0.12281
 O729 O 0.07104 0.09569 0.12385
 O730 O 0.06428 0.12508 0.14726
 O731 O 0.09637 0.12355 0.07088
 O732 O 0.12576 0.14648 0.06405
 O733 O 0.12409 0.09499 0.07159
 O734 O 0.14841 0.12502 0.06512
 O735 O 0.07126 0.12374 0.09583
 O736 O 0.06521 0.14790 0.12592
 O737 O 0.09599 0.07057 0.12333
 O738 O 0.12327 0.06708 0.15066
 O739 O 0.12430 0.17789 0.15409
 O740 O 0.10149 0.18403 0.12479
 O741 O 0.17864 0.15344 0.12447
 O742 O 0.18333 0.12381 0.10017
 O743 O 0.15390 0.12396 0.17866
 O744 O 0.12487 0.09887 0.18250
 Zr745 Zr 0.12563 0.12487 0.16211
 O746 O 0.10597 0.10573 0.14419
 Zr747 Zr 0.16218 0.12511 0.12542
 O748 O 0.14428 0.10542 0.10629
 Zr749 Zr 0.12554 0.16159 0.12561
 O750 O 0.10624 0.14379 0.10596
 Zr751 Zr 0.12417 0.08715 0.12441
 O752 O 0.14412 0.10482 0.14381
 Zr753 Zr 0.08772 0.12389 0.12412
 O754 O 0.10551 0.14330 0.14389
 Zr755 Zr 0.12445 0.12359 0.08772
 O756 O 0.14395 0.14352 0.10537
 O757 O 0.14491 0.14431 0.14483
 O758 O 0.10483 0.10430 0.10479
 C759 C 0.12403 0.17190 0.17322
 C760 C 0.17296 0.12305 0.17266
 C761 C 0.17266 0.17252 0.12396
 C762 C 0.12397 0.07585 0.07750
 C763 C 0.07694 0.07658 0.12341
 C764 C 0.07727 0.12358 0.07676
 H765 H 0.09737 0.09704 0.15355
 H766 H 0.09776 0.15324 0.09729
 H767 H 0.15383 0.15316 0.15375
 H768 H 0.15361 0.09655 0.09785
 H769 H 0.15774 0.06759 0.13454
 H770 H 0.18113 0.09004 0.12062
 H771 H 0.06762 0.15753 0.11414
 H772 H 0.09067 0.17923 0.13464
 H773 H 0.12029 0.05279 0.14563
 H774 H 0.12913 0.10347 0.19662
 H775 H 0.11558 0.15746 0.06762
 H776 H 0.13391 0.17941 0.09068
 H777 H 0.09035 0.13443 0.17889
 H778 H 0.06757 0.11440 0.15785
 H779 H 0.17941 0.13511 0.09045
 H780 H 0.15783 0.11307 0.06744
 O781 O 0.67934 0.37518 0.84683
 O782 O 0.68482 0.39828 0.87409
 O783 O 0.65370 0.32095 0.87622
 O784 O 0.62643 0.31312 0.89628
 O785 O 0.62464 0.34642 0.82110
 O786 O 0.60219 0.37530 0.81515
 O787 O 0.59695 0.37574 0.92978
 O788 O 0.62311 0.35162 0.93497
 O789 O 0.62406 0.42888 0.90413
 O790 O 0.64743 0.43569 0.87472
 O791 O 0.57114 0.40362 0.87625
 O792 O 0.56431 0.37428 0.85319
 O793 O 0.57189 0.37580 0.90470
 O794 O 0.56540 0.35156 0.87459
 O795 O 0.59605 0.42875 0.87607
 O796 O 0.62612 0.43480 0.85189
 O797 O 0.62358 0.40385 0.92918
 O798 O 0.65091 0.37656 0.93257
 O799 O 0.65424 0.37575 0.82174
 O800 O 0.62495 0.39855 0.81565
 O801 O 0.62466 0.32131 0.84608
 O802 O 0.60041 0.31658 0.87572
 O803 O 0.67881 0.34593 0.87555
 O804 O 0.68264 0.37494 0.90078
 Zr805 Zr 0.66227 0.37425 0.87476
 O806 O 0.64439 0.39393 0.89396
 Zr807 Zr 0.62563 0.33773 0.87445
 O808 O 0.60654 0.35562 0.89419
 Zr809 Zr 0.62579 0.37445 0.83805
 O810 O 0.60618 0.39376 0.85591
 Zr811 Zr 0.62467 0.37569 0.91251
 O812 O 0.64402 0.35573 0.89478
 Zr813 Zr 0.62432 0.41225 0.87586
 O814 O 0.64406 0.39444 0.85640
 Zr815 Zr 0.58797 0.37552 0.87608
 O816 O 0.60559 0.35602 0.85609
 O817 O 0.64500 0.35502 0.85527
 O818 O 0.60504 0.39509 0.89543
 C819 C 0.67334 0.37599 0.82773
 C820 C 0.67281 0.32687 0.87640
 C821 C 0.62414 0.32732 0.82700
 C822 C 0.57787 0.37585 0.92382
 C823 C 0.62363 0.42293 0.92323
 C824 C 0.57700 0.42274 0.87626
 H825 H 0.65375 0.40251 0.90267
 H826 H 0.59751 0.40228 0.84648
 H827 H 0.65390 0.34612 0.84638
 H828 H 0.59812 0.34627 0.90305
 H829 H 0.63483 0.34206 0.93199
 H830 H 0.62086 0.31871 0.90950
 H831 H 0.61432 0.43245 0.84228
 H832 H 0.63476 0.40939 0.82049
 H833 H 0.64589 0.37950 0.94688
 H834 H 0.69674 0.37063 0.89617
 H835 H 0.56787 0.38450 0.84224
 H836 H 0.59089 0.36613 0.82023
 H837 H 0.67904 0.40958 0.86537
 H838 H 0.65801 0.43238 0.88540
 H839 H 0.59069 0.32052 0.86443
 H840 H 0.56774 0.34210 0.88651
 O841 O 0.12441 0.84676 0.82090
 O842 O 0.10125 0.87399 0.81544
 O843 O 0.17847 0.87624 0.84672
 O844 O 0.18620 0.89626 0.87409
 O845 O 0.15308 0.82102 0.87568
 O846 O 0.12419 0.81500 0.89810
 O847 O 0.12350 0.92958 0.90356
 O848 O 0.14764 0.93485 0.87742
 O849 O 0.07050 0.90387 0.87623
 O850 O 0.06383 0.87450 0.85274
 O851 O 0.09566 0.87593 0.92920
 O852 O 0.12504 0.85295 0.93607
 O853 O 0.12343 0.90446 0.92860
 O854 O 0.14768 0.87440 0.93510
 O855 O 0.07063 0.87574 0.90419
 O856 O 0.06469 0.85166 0.87405
 O857 O 0.09544 0.92897 0.87681
 O858 O 0.12280 0.93245 0.84953
 O859 O 0.12387 0.82165 0.84600
 O860 O 0.10100 0.81548 0.87525
 O861 O 0.17814 0.84603 0.87575
 O862 O 0.18274 0.87562 0.90010
 O863 O 0.15355 0.87558 0.82154
 O864 O 0.12453 0.90070 0.81767
 Zr865 Zr 0.12523 0.87468 0.83804
 O866 O 0.10550 0.89382 0.85593
 Zr867 Zr 0.16166 0.87437 0.87480
 O868 O 0.14369 0.89405 0.89391
 Zr869 Zr 0.12504 0.83792 0.87451
 O870 O 0.10566 0.85571 0.89412
 Zr871 Zr 0.12363 0.91236 0.87577
 O872 O 0.14365 0.89470 0.85640
 Zr873 Zr 0.08719 0.87565 0.87594
 O874 O 0.10506 0.85625 0.85620
 Zr875 Zr 0.12380 0.87588 0.91244
 O876 O 0.14337 0.85596 0.89480
 O877 O 0.14446 0.85520 0.85534
 O878 O 0.10424 0.89521 0.89534
 C879 C 0.12365 0.82766 0.82688
 C880 C 0.17259 0.87646 0.82758
 C881 C 0.17216 0.82694 0.87622
 C882 C 0.12337 0.92359 0.92265
 C883 C 0.07639 0.92298 0.87670
 C884 C 0.07657 0.87589 0.92328
 H885 H 0.09693 0.90252 0.84656
 H886 H 0.09715 0.84625 0.90276
 H887 H 0.15340 0.84635 0.84643
 H888 H 0.15300 0.90290 0.90238
 H889 H 0.15724 0.93190 0.86571
 H890 H 0.18058 0.90944 0.87970
 H891 H 0.06707 0.84200 0.88581
 H892 H 0.09019 0.82031 0.86539
 H893 H 0.11980 0.94674 0.85457
 H894 H 0.12884 0.89611 0.80355
 H895 H 0.11485 0.84199 0.93247
 H896 H 0.13332 0.82007 0.90943
 H897 H 0.08998 0.86519 0.82118
 H898 H 0.06713 0.88523 0.84219
 H899 H 0.17880 0.86432 0.90980
 H900 H 0.15715 0.88630 0.93276
 O901 O 0.67914 0.12456 0.65331
 O902 O 0.68456 0.10142 0.62604
 O903 O 0.65350 0.17880 0.62393
 O904 O 0.62620 0.18670 0.60396
 O905 O 0.62448 0.15338 0.67913
 O906 O 0.60203 0.12454 0.68512
 O907 O 0.59666 0.12410 0.57048
 O908 O 0.62283 0.14820 0.56525
 O909 O 0.62379 0.07094 0.59610
 O910 O 0.64717 0.06410 0.62548
 O911 O 0.57090 0.09628 0.62404
 O912 O 0.56407 0.12559 0.64710
 O913 O 0.57162 0.12409 0.59560
 O914 O 0.56522 0.14838 0.62576
 O915 O 0.59579 0.07112 0.62417
 O916 O 0.62584 0.06500 0.64832
 O917 O 0.62328 0.09596 0.57104
 O918 O 0.65062 0.12323 0.56761
 O919 O 0.65407 0.12403 0.67845
 O920 O 0.62477 0.10124 0.68457
 O921 O 0.62449 0.17850 0.65415
 O922 O 0.60020 0.18325 0.62455
 O923 O 0.67859 0.15378 0.62457
 O924 O 0.68240 0.12477 0.59936
 Zr925 Zr 0.66204 0.12549 0.62540
 O926 O 0.64413 0.10585 0.60622
 Zr927 Zr 0.62542 0.16208 0.62578
 O928 O 0.60630 0.14422 0.60605
 Zr929 Zr 0.62560 0.12535 0.66218
 O930 O 0.60595 0.10609 0.64434
 Zr931 Zr 0.62440 0.12412 0.58770
 O932 O 0.64378 0.14404 0.60541
 Zr933 Zr 0.62407 0.08757 0.62436
 O934 O 0.64384 0.10533 0.64380
 Zr935 Zr 0.58774 0.12436 0.62420
 O936 O 0.60539 0.14381 0.64417
 O937 O 0.64480 0.14475 0.64492
 O938 O 0.60478 0.10476 0.60483
 C939 C 0.67317 0.12377 0.67242
 C940 C 0.67260 0.17285 0.62371
 C941 C 0.62399 0.17249 0.67323
 C942 C 0.57758 0.12401 0.57647
 C943 C 0.62335 0.07688 0.57699
 C944 C 0.57675 0.07716 0.62401
 H945 H 0.65348 0.09726 0.59750
 H946 H 0.59729 0.09758 0.65378
 H947 H 0.65372 0.15365 0.65379
 H948 H 0.59788 0.15359 0.59721
 H949 H 0.63456 0.15775 0.56822
 H950 H 0.62066 0.18112 0.59074
 H951 H 0.61407 0.06739 0.65795
 H952 H 0.63458 0.09040 0.67971
 H953 H 0.64559 0.12029 0.55330
 H954 H 0.69651 0.12904 0.60396
 H955 H 0.56767 0.11542 0.65808
 H956 H 0.59072 0.13371 0.68007
 H957 H 0.67880 0.09015 0.63482
 H958 H 0.65774 0.06740 0.61478
 H959 H 0.59051 0.17935 0.63588
 H960 H 0.56750 0.15779 0.61379
 C961 C 0.37677 0.78147 0.71914
 N962 N 0.37673 0.77632 0.69863
 N963 N 0.37634 0.79107 0.68405
 C964 C 0.37598 0.81151 0.68943
 N965 N 0.37606 0.81666 0.70994
 N966 N 0.37645 0.80191 0.72453
 C967 C 0.37698 0.76518 0.73520
 N968 N 0.37700 0.77029 0.75573
 N969 N 0.37702 0.75550 0.77028
 C970 C 0.37700 0.73507 0.76485
 N971 N 0.37701 0.72996 0.74433
 N972 N 0.37700 0.74475 0.72978
 C973 C 0.37681 0.71878 0.78091
 N974 N 0.37649 0.69834 0.77551
 N975 N 0.37612 0.68358 0.79009
 C976 C 0.37607 0.68872 0.81061
 N977 N 0.37642 0.70916 0.81600
 N978 N 0.37678 0.72391 0.80142
 C979 C 0.37679 0.21810 0.28100
 N980 N 0.37647 0.19765 0.27563
 N981 N 0.37607 0.18291 0.29023
 C982 C 0.37599 0.18808 0.31074
 N983 N 0.37634 0.20853 0.31610
 N984 N 0.37674 0.22327 0.30151
 C985 C 0.37702 0.23438 0.26493
 N986 N 0.37704 0.25482 0.27035
 N987 N 0.37707 0.26959 0.25578
 C988 C 0.37709 0.26447 0.23527
 N989 N 0.37711 0.24404 0.22985
 N990 N 0.37707 0.22926 0.24441
 C991 C 0.37692 0.28075 0.21920
 N992 N 0.37693 0.27560 0.19869
 N993 N 0.37659 0.29035 0.18411
 C994 C 0.37622 0.31079 0.18948
 N995 N 0.37624 0.31595 0.20999
 N996 N 0.37659 0.30120 0.22458
 C997 C 0.62247 0.78082 0.28065
 N998 N 0.62278 0.80126 0.27527
 N999 N 0.62316 0.81600 0.28986
 C1000 C 0.62324 0.81085 0.31037
 N1001 N 0.62290 0.79041 0.31574
 N1002 N 0.62253 0.77566 0.30115
 C1003 C 0.62229 0.76455 0.26458
 N1004 N 0.62229 0.74412 0.26998
 N1005 N 0.62233 0.72935 0.25541
 C1006 C 0.62235 0.73447 0.23490
 N1007 N 0.62232 0.75491 0.22949
 N1008 N 0.62229 0.76968 0.24407
 C1009 C 0.62260 0.71821 0.21882
 N1010 N 0.62267 0.72336 0.19832
 N1011 N 0.62309 0.70862 0.18373
 C1012 C 0.62346 0.68818 0.18910
 N1013 N 0.62337 0.68302 0.20960
 N1014 N 0.62294 0.69777 0.22420
 C1015 C 0.12234 0.28091 0.28077
 N1016 N 0.12269 0.30134 0.27537
 N1017 N 0.12309 0.31611 0.28995
 C1018 C 0.12313 0.31097 0.31046
 N1019 N 0.12274 0.29054 0.31585
 N1020 N 0.12235 0.27578 0.30128
 C1021 C 0.12214 0.26461 0.26472
 N1022 N 0.12211 0.24418 0.27016
 N1023 N 0.12213 0.22939 0.25561
 C1024 C 0.12218 0.23448 0.23509
 N1025 N 0.12218 0.25490 0.22965
 N1026 N 0.12216 0.26970 0.24420
 C1027 C 0.12242 0.21818 0.21904
 N1028 N 0.12251 0.22331 0.19853
 N1029 N 0.12293 0.20856 0.18396
 C1030 C 0.12329 0.18812 0.18934
 N1031 N 0.12318 0.18298 0.20985
 N1032 N 0.12275 0.19774 0.22443
 C1033 C 0.12217 0.71877 0.71921
 N1034 N 0.12223 0.72391 0.69871
 N1035 N 0.12264 0.70916 0.68413
 C1036 C 0.12302 0.68872 0.68950
 N1037 N 0.12293 0.68357 0.71001
 N1038 N 0.12251 0.69833 0.72460
 C1039 C 0.12195 0.73505 0.73528
 N1040 N 0.12193 0.72994 0.75579
 N1041 N 0.12192 0.74472 0.77035
 C1042 C 0.12194 0.76515 0.76494
 N1043 N 0.12193 0.77026 0.74442
 N1044 N 0.12193 0.75548 0.72986
 C1045 C 0.12215 0.78143 0.78101
 N1046 N 0.12249 0.80187 0.77563
 N1047 N 0.12289 0.81662 0.79023
 C1048 C 0.12295 0.81146 0.81074
 N1049 N 0.12258 0.79102 0.81610
 N1050 N 0.12218 0.77628 0.80151
 C1051 C 0.87749 0.21841 0.78079
 N1052 N 0.87715 0.19798 0.77539
 N1053 N 0.87673 0.18323 0.78997
 C1054 C 0.87664 0.18838 0.81048
 N1055 N 0.87701 0.20882 0.81587
 N1056 N 0.87743 0.22356 0.80130
 C1057 C 0.87771 0.23468 0.76475
 N1058 N 0.87773 0.25511 0.77018
 N1059 N 0.87771 0.26988 0.75562
 C1060 C 0.87768 0.26476 0.73511
 N1061 N 0.87771 0.24433 0.72968
 N1062 N 0.87772 0.22955 0.74424
 C1063 C 0.87743 0.28102 0.71906
 N1064 N 0.87736 0.27586 0.69856
 N1065 N 0.87691 0.29060 0.68398
 C1066 C 0.87653 0.31104 0.68937
 N1067 N 0.87664 0.31620 0.70987
 N1068 N 0.87709 0.30145 0.72446
 C1069 C 0.78096 0.37788 0.71896
 N1070 N 0.77562 0.37799 0.69850
 N1071 N 0.79022 0.37751 0.68377
 C1072 C 0.81068 0.37691 0.68897
 N1073 N 0.81601 0.37684 0.70943
 N1074 N 0.80142 0.37732 0.72415
 C1075 C 0.76489 0.37812 0.73521
 N1076 N 0.77027 0.37781 0.75566
 N1077 N 0.75570 0.37778 0.77042
 C1078 C 0.73522 0.37807 0.76527
 N1079 N 0.72984 0.37842 0.74482
 N1080 N 0.74441 0.37845 0.73006
 C1081 C 0.71916 0.37779 0.78152
 N1082 N 0.69868 0.37787 0.77635
 N1083 N 0.68410 0.37738 0.79109
 C1084 C 0.68945 0.37680 0.81153
 N1085 N 0.70993 0.37675 0.81671
 N1086 N 0.72451 0.37724 0.80197
 C1087 C 0.28058 0.62171 0.78132
 N1088 N 0.27528 0.62179 0.80179
 N1089 N 0.28990 0.62228 0.81649
 C1090 C 0.31036 0.62272 0.81124
 N1091 N 0.31565 0.62261 0.79076
 N1092 N 0.30103 0.62211 0.77607
 C1093 C 0.26447 0.62145 0.76510
 N1094 N 0.26981 0.62144 0.74464
 N1095 N 0.25521 0.62145 0.72991
 C1096 C 0.23474 0.62148 0.73511
 N1097 N 0.22940 0.62145 0.75557
 N1098 N 0.24400 0.62143 0.77030
 C1099 C 0.21864 0.62177 0.71889
 N1100 N 0.19818 0.62217 0.72411
 N1101 N 0.18357 0.62269 0.70941
 C1102 C 0.18888 0.62282 0.68894
 N1103 N 0.20934 0.62238 0.68371
 N1104 N 0.22396 0.62186 0.69842
 C1105 C 0.28054 0.12110 0.28147
 N1106 N 0.27520 0.12122 0.30194
 N1107 N 0.28979 0.12173 0.31666
 C1108 C 0.31027 0.12214 0.31145
 N1109 N 0.31560 0.12199 0.29099
 N1110 N 0.30100 0.12147 0.27627
 C1111 C 0.26447 0.12082 0.26521
 N1112 N 0.26986 0.12078 0.24476
 N1113 N 0.25530 0.12078 0.23000
 C1114 C 0.23482 0.12083 0.23514
 N1115 N 0.22942 0.12083 0.25559
 N1116 N 0.24398 0.12083 0.27036
 C1117 C 0.21876 0.12111 0.21888
 N1118 N 0.19829 0.12152 0.22405
 N1119 N 0.18371 0.12204 0.20932
 C1120 C 0.18906 0.12215 0.18886
 N1121 N 0.20954 0.12170 0.18368
 N1122 N 0.22412 0.12119 0.19842
 C1123 C 0.78099 0.12174 0.78100
 N1124 N 0.77569 0.12161 0.80147
 N1125 N 0.79031 0.12203 0.81617
 C1126 C 0.81077 0.12260 0.81094
 N1127 N 0.81606 0.12269 0.79046
 N1128 N 0.80144 0.12227 0.77577
 C1129 C 0.76489 0.12154 0.76478
 N1130 N 0.77023 0.12187 0.74432
 N1131 N 0.75563 0.12192 0.72959
 C1132 C 0.73516 0.12166 0.73478
 N1133 N 0.72982 0.12130 0.75524
 N1134 N 0.74441 0.12124 0.76997
 C1135 C 0.71907 0.12196 0.71855
 N1136 N 0.69860 0.12189 0.72377
 N1137 N 0.68399 0.12239 0.70906
 C1138 C 0.68931 0.12296 0.68860
 N1139 N 0.70978 0.12299 0.68339
 N1140 N 0.72439 0.12250 0.69809
 C1141 C 0.71878 0.87747 0.28087
 N1142 N 0.72408 0.87762 0.30134
 N1143 N 0.70945 0.87723 0.31606
 C1144 C 0.68899 0.87666 0.31084
 N1145 N 0.68370 0.87654 0.29037
 N1146 N 0.69832 0.87694 0.27566
 C1147 C 0.73489 0.87763 0.26463
 N1148 N 0.72955 0.87728 0.24417
 N1149 N 0.74415 0.87720 0.22943
 C1150 C 0.76462 0.87747 0.23460
 N1151 N 0.76996 0.87786 0.25506
 N1152 N 0.75536 0.87793 0.26980
 C1153 C 0.78073 0.87716 0.21835
 N1154 N 0.80120 0.87724 0.22354
 N1155 N 0.81581 0.87676 0.20882
 C1156 C 0.81049 0.87617 0.18836
 N1157 N 0.79001 0.87611 0.18317
 N1158 N 0.77540 0.87660 0.19790
 C1159 C 0.78106 0.71879 0.37735
 N1160 N 0.77589 0.69831 0.37736
 N1161 N 0.79060 0.68371 0.37693
 C1162 C 0.81103 0.68906 0.37646
 N1163 N 0.81620 0.70955 0.37647
 N1164 N 0.80148 0.72415 0.37691
 C1165 C 0.76483 0.73487 0.37761
 N1166 N 0.76998 0.75536 0.37749
 N1167 N 0.75525 0.76995 0.37751
 C1168 C 0.73482 0.76458 0.37766
 N1169 N 0.72967 0.74408 0.37781
 N1170 N 0.74441 0.72950 0.37778
 C1171 C 0.71860 0.78066 0.37744
 N1172 N 0.69816 0.77531 0.37731
 N1173 N 0.68345 0.78992 0.37688
 C1174 C 0.68864 0.81041 0.37658
 N1175 N 0.70908 0.81574 0.37674
 N1176 N 0.72378 0.80114 0.37717
 C1177 C 0.78109 0.28070 0.62221
 N1178 N 0.77587 0.30118 0.62238
 N1179 N 0.79056 0.31580 0.62287
 C1180 C 0.81100 0.31048 0.62321
 N1181 N 0.81622 0.28999 0.62301
 N1182 N 0.80153 0.27537 0.62252
 C1183 C 0.76488 0.26460 0.62191
 N1184 N 0.77006 0.24411 0.62201
 N1185 N 0.75534 0.22950 0.62195
 C1186 C 0.73491 0.23486 0.62179
 N1187 N 0.72972 0.25535 0.62166
 N1188 N 0.74444 0.26995 0.62172
 C1189 C 0.71869 0.21876 0.62199
 N1190 N 0.69825 0.22409 0.62198
 N1191 N 0.68355 0.20947 0.62242
 C1192 C 0.68876 0.18899 0.62288
 N1193 N 0.70921 0.18367 0.62285
 N1194 N 0.72390 0.19828 0.62241
 C1195 C 0.71885 0.71839 0.12182
 N1196 N 0.69841 0.72373 0.12215
 N1197 N 0.68371 0.70912 0.12263
 C1198 C 0.68891 0.68863 0.12280
 N1199 N 0.70935 0.68330 0.12244
 N1200 N 0.72405 0.69791 0.12195
 C1201 C 0.73507 0.73449 0.12154
 N1202 N 0.75550 0.72914 0.12134
 N1203 N 0.77022 0.74374 0.12130
 C1204 C 0.76504 0.76423 0.12146
 N1205 N 0.74460 0.76958 0.12162
 N1206 N 0.72988 0.75498 0.12166
 C1207 C 0.78124 0.78034 0.12168
 N1208 N 0.77602 0.80081 0.12212
 N1209 N 0.79070 0.81544 0.12257
 C1210 C 0.81115 0.81013 0.12259
 N1211 N 0.81638 0.78965 0.12212
 N1212 N 0.80169 0.77502 0.12167
 C1213 C 0.28111 0.28042 0.12229
 N1214 N 0.27589 0.30089 0.12246
 N1215 N 0.29057 0.31552 0.12289
 C1216 C 0.31102 0.31021 0.12316
 N1217 N 0.31624 0.28972 0.12296
 N1218 N 0.30155 0.27509 0.12253
 C1219 C 0.26490 0.26431 0.12207
 N1220 N 0.27009 0.24382 0.12208
 N1221 N 0.25538 0.22921 0.12209
 C1222 C 0.23494 0.23456 0.12209
 N1223 N 0.22975 0.25505 0.12205
 N1224 N 0.24446 0.26965 0.12204
 C1225 C 0.21874 0.21845 0.12233
 N1226 N 0.19829 0.22378 0.12253
 N1227 N 0.18360 0.20915 0.12297
 C1228 C 0.18882 0.18867 0.12321
 N1229 N 0.20927 0.18335 0.12298
 N1230 N 0.22395 0.19797 0.12254
 C1231 C 0.28075 0.71902 0.87774
 N1232 N 0.27556 0.69854 0.87755
 N1233 N 0.29027 0.68392 0.87712
 C1234 C 0.31071 0.68924 0.87687
 N1235 N 0.31590 0.70973 0.87710
 N1236 N 0.30119 0.72435 0.87753
 C1237 C 0.26452 0.73513 0.87798
 N1238 N 0.26968 0.75562 0.87801
 N1239 N 0.25495 0.77023 0.87802
 C1240 C 0.23452 0.76488 0.87799
 N1241 N 0.22935 0.74438 0.87799
 N1242 N 0.24408 0.72978 0.87799
 C1243 C 0.21829 0.78099 0.87778
 N1244 N 0.19784 0.77567 0.87755
 N1245 N 0.18314 0.79030 0.87715
 C1246 C 0.18834 0.81079 0.87695
 N1247 N 0.20878 0.81610 0.87721
 N1248 N 0.22348 0.80147 0.87762
 C1249 C 0.28072 0.21851 0.37787
 N1250 N 0.27551 0.19803 0.37771
 N1251 N 0.29020 0.18341 0.37730
 C1252 C 0.31064 0.18872 0.37703
 N1253 N 0.31585 0.20920 0.37723
 N1254 N 0.30115 0.22383 0.37764
 C1255 C 0.26451 0.23461 0.37807
 N1256 N 0.26970 0.25510 0.37805
 N1257 N 0.25499 0.26971 0.37800
 C1258 C 0.23456 0.26437 0.37797
 N1259 N 0.22937 0.24389 0.37802
 N1260 N 0.24408 0.22927 0.37807
 C1261 C 0.21836 0.28049 0.37768
 N1262 N 0.19792 0.27518 0.37744
 N1263 N 0.18324 0.28983 0.37696
 C1264 C 0.18848 0.31030 0.37671
 N1265 N 0.20892 0.31559 0.37697
 N1266 N 0.22360 0.30095 0.37745
 C1267 C 0.53109 0.62327 1.03076
 N1268 N 0.52590 0.62339 1.05126
 N1269 N 0.54060 0.62349 1.06587
 C1270 C 0.56104 0.62348 1.06053
 N1271 N 0.56624 0.62334 1.04003
 N1272 N 0.55153 0.62324 1.02541
 C1273 C 0.51486 0.62324 1.01468
 N1274 N 0.52001 0.62325 0.99417
 N1275 N 0.50527 0.62331 0.97959
 C1276 C 0.48484 0.62335 0.98498
 N1277 N 0.47969 0.62333 1.00548
 N1278 N 0.49443 0.62328 1.02007
 C1279 C 0.46861 0.62350 0.96889
 N1280 N 0.44817 0.62354 0.97425
 N1281 N 0.43346 0.62373 0.95965
 C1282 C 0.43864 0.62388 0.93914
 N1283 N 0.45908 0.62383 0.93379
 N1284 N 0.47379 0.62364 0.94840
 C1285 C 0.46858 0.12333 0.46907
 N1286 N 0.44816 0.12332 0.47448
 N1287 N 0.43340 0.12344 0.45991
 C1288 C 0.43854 0.12358 0.43940
 N1289 N 0.45896 0.12358 0.43400
 N1290 N 0.47371 0.12345 0.44856
 C1291 C 0.48487 0.12327 0.48510
 N1292 N 0.50528 0.12332 0.47964
 N1293 N 0.52007 0.12334 0.49417
 C1294 C 0.51500 0.12332 0.51469
 N1295 N 0.49459 0.12326 0.52016
 N1296 N 0.47979 0.12323 0.50563
 C1297 C 0.53129 0.12344 0.53072
 N1298 N 0.52618 0.12351 0.55123
 N1299 N 0.54093 0.12368 0.56579
 C1300 C 0.56136 0.12381 0.56037
 N1301 N 0.56648 0.12372 0.53985
 N1302 N 0.55171 0.12354 0.52529
 C1303 C 0.53082 0.87604 0.46884
 N1304 N 0.52562 0.87586 0.44836
 N1305 N 0.54032 0.87568 0.43372
 C1306 C 0.56077 0.87566 0.43903
 N1307 N 0.56597 0.87585 0.45953
 N1308 N 0.55126 0.87603 0.47416
 C1309 C 0.51459 0.87617 0.48497
 N1310 N 0.51976 0.87623 0.50547
 N1311 N 0.50503 0.87629 0.52008
 C1312 C 0.48459 0.87629 0.51473
 N1313 N 0.47943 0.87624 0.49423
 N1314 N 0.49415 0.87618 0.47962
 C1315 C 0.46836 0.87627 0.53085
 N1316 N 0.44792 0.87626 0.52553
 N1317 N 0.43321 0.87617 0.54017
 C1318 C 0.43842 0.87608 0.56067
 N1319 N 0.45886 0.87610 0.56597
 N1320 N 0.47356 0.87619 0.55134
 C1321 C 1.03094 0.37624 0.46893
 N1322 N 1.02573 0.37613 0.44845
 N1323 N 1.04042 0.37597 0.43382
 C1324 C 1.06086 0.37589 0.43912
 N1325 N 1.06608 0.37602 0.45961
 N1326 N 1.05138 0.37618 0.47425
 C1327 C 1.01474 0.37633 0.48505
 N1328 N 1.01993 0.37632 0.50554
 N1329 N 1.00521 0.37631 0.52016
 C1330 C 0.98478 0.37632 0.51481
 N1331 N 0.97959 0.37636 0.49432
 N1332 N 0.99431 0.37636 0.47970
 C1333 C 0.96858 0.37623 0.53093
 N1334 N 0.94814 0.37621 0.52562
 N1335 N 0.93345 0.37605 0.54027
 C1336 C 0.93868 0.37588 0.56075
 N1337 N 0.95912 0.37591 0.56605
 N1338 N 0.97380 0.37607 0.55141
 C1339 C -0.03232 0.87595 1.03096
 N1340 N -0.02718 0.87588 1.05146
 N1341 N -0.04192 0.87567 1.06605
 C1342 C -0.06237 0.87551 1.06071
 N1343 N -0.06750 0.87559 1.04018
 N1344 N -0.05275 0.87580 1.02559
 C1345 C -0.01605 0.87611 1.01489
 N1346 N -0.02115 0.87609 0.99437
 N1347 N -0.00637 0.87615 0.97981
 C1348 C 0.01405 0.87623 0.98522
 N1349 N 0.01915 0.87626 1.00574
 N1350 N 0.00437 0.87620 1.02030
 C1351 C 0.03033 0.87621 0.96915
 N1352 N 0.05076 0.87624 0.97453
 N1353 N 0.06551 0.87615 0.95993
 C1354 C 0.06036 0.87602 0.93942
 N1355 N 0.03993 0.87601 0.93406
 N1356 N 0.02519 0.87610 0.94865
 C1357 C -0.03112 0.12314 -0.03124
 N1358 N -0.05157 0.12315 -0.02592
 N1359 N -0.06626 0.12331 -0.04055
 C1360 C -0.06104 0.12347 -0.06104
 N1361 N -0.04060 0.12344 -0.06636
 N1362 N -0.02591 0.12328 -0.05173
 C1363 C -0.01492 0.12304 -0.01513
 N1364 N 0.00552 0.12305 -0.02048
 N1365 N 0.02023 0.12304 -0.00587
 C1366 C 0.01504 0.12304 0.01463
 N1367 N -0.00540 0.12302 0.01998
 N1368 N -0.02011 0.12302 0.00537
 C1369 C 0.03124 0.12312 0.03075
 N1370 N 0.02601 0.12323 0.05123
 N1371 N 0.04068 0.12337 0.06588
 C1372 C 0.06113 0.12342 0.06058
 N1373 N 0.06637 0.12329 0.04009
 N1374 N 0.05169 0.12315 0.02544
 C1375 C 0.12319 1.03089 1.03195
 N1376 N 0.12333 1.05139 1.02684
 N1377 N 0.12358 1.06595 1.04162
 C1378 C 0.12371 1.06057 1.06209
 N1379 N 0.12355 1.04003 1.06718
 N1380 N 0.12330 1.02548 1.05239
 C1381 C 0.12300 1.01487 1.01562
 N1382 N 0.12293 0.99435 1.02067
 N1383 N 0.12285 0.97984 1.00583
 C1384 C 0.12283 0.98531 0.98541
 N1385 N 0.12288 1.00584 0.98036
 N1386 N 0.12296 1.02035 0.99519
 C1387 C 0.12286 0.96930 0.96907
 N1388 N 0.12295 0.97474 0.94863
 N1389 N 0.12308 0.96019 0.93383
 C1390 C 0.12314 0.93968 0.93892
 N1391 N 0.12304 0.93425 0.95936
 N1392 N 0.12290 0.94879 0.97416
 C1393 C 0.12323 0.46903 0.46856
 N1394 N 0.12334 0.47445 0.44812
 N1395 N 0.12353 0.45988 0.43333
 C1396 C 0.12361 0.43937 0.43846
 N1397 N 0.12347 0.43398 0.45890
 N1398 N 0.12329 0.44853 0.47368
 C1399 C 0.12312 0.48506 0.48489
 N1400 N 0.12309 0.47961 0.50531
 N1401 N 0.12309 0.49413 0.52013
 C1402 C 0.12311 0.51465 0.51507
 N1403 N 0.12312 0.52010 0.49464
 N1404 N 0.12312 0.50558 0.47982
 C1405 C 0.12321 0.53068 0.53139
 N1406 N 0.12330 0.55118 0.52627
 N1407 N 0.12348 0.56573 0.54105
 C1408 C 0.12358 0.56034 0.56150
 N1409 N 0.12347 0.53983 0.56662
 N1410 N 0.12329 0.52526 0.55183
 C1411 C 0.37654 0.46885 1.03138
 N1412 N 0.37649 0.44835 1.02624
 N1413 N 0.37630 0.43378 1.04101
 C1414 C 0.37616 0.43917 1.06146
 N1415 N 0.37624 0.45968 1.06660
 N1416 N 0.37642 0.47425 1.05183
 C1417 C 0.37663 0.48490 1.01506
 N1418 N 0.37661 0.50541 1.02016
 N1419 N 0.37659 0.51995 1.00535
 C1420 C 0.37660 0.51451 0.98492
 N1421 N 0.37664 0.49399 0.97982
 N1422 N 0.37666 0.47946 0.99463
 C1423 C 0.37646 0.53056 0.96861
 N1424 N 0.37637 0.52516 0.94815
 N1425 N 0.37616 0.53974 0.93338
 C1426 C 0.37602 0.56025 0.93853
 N1427 N 0.37614 0.56563 0.95898
 N1428 N 0.37635 0.55106 0.97374
 C1429 C 0.87627 0.53100 0.46908
 N1430 N 0.87628 0.52562 0.44862
 N1431 N 0.87609 0.54020 0.43388
 C1432 C 0.87588 0.56070 0.43905
 N1433 N 0.87590 0.56607 0.45950
 N1434 N 0.87608 0.55149 0.47425
 C1435 C 0.87640 0.51495 0.48534
 N1436 N 0.87635 0.52035 0.50578
 N1437 N 0.87638 0.50579 0.52055
 C1438 C 0.87645 0.48529 0.51541
 N1439 N 0.87651 0.47988 0.49496
 N1440 N 0.87649 0.49445 0.48020
 C1441 C 0.87636 0.46923 0.53166
 N1442 N 0.87632 0.44875 0.52647
 N1443 N 0.87615 0.43415 0.54120
 C1444 C 0.87601 0.43950 0.56166
 N1445 N 0.87607 0.46000 0.56685
 N1446 N 0.87624 0.47460 0.55212
 C1447 C 0.87706 1.03004 -0.03197
 N1448 N 0.87698 1.02471 -0.05244
 N1449 N 0.87668 1.03933 -0.06715
 C1450 C 0.87644 1.05982 -0.06192
 N1451 N 0.87653 1.06514 -0.04146
 N1452 N 0.87683 1.05052 -0.02675
 C1453 C 0.87728 1.01396 -0.01575
 N1454 N 0.87719 1.01933 0.00471
 N1455 N 0.87726 1.00475 0.01945
 C1456 C 0.87743 0.98425 0.01428
 N1457 N 0.87754 0.97888 -0.00618
 N1458 N 0.87747 0.99347 -0.02092
 C1459 C 0.87733 0.96818 0.03051
 N1460 N 0.87743 0.94769 0.02532
 N1461 N 0.87717 0.93309 0.04004
 C1462 C 0.87680 0.93844 0.06050
 N1463 N 0.87674 0.95893 0.06570
 N1464 N 0.87700 0.97353 0.05097
 C1465 C 0.62264 -0.03086 0.46819
 N1466 N 0.62272 -0.02552 0.44773
 N1467 N 0.62302 -0.04013 0.43299
 C1468 C 0.62326 -0.06062 0.43819
 N1469 N 0.62316 -0.06595 0.45865
 N1470 N 0.62287 -0.05134 0.47338
 C1471 C 0.62242 -0.01477 0.48444
 N1472 N 0.62251 -0.02015 0.50489
 N1473 N 0.62244 -0.00557 0.51965
 C1474 C 0.62228 0.01492 0.51451
 N1475 N 0.62216 0.02030 0.49406
 N1476 N 0.62223 0.00572 0.47929
 C1477 C 0.62237 0.03101 0.53077
 N1478 N 0.62229 0.05149 0.52559
 N1479 N 0.62255 0.06609 0.54033
 C1480 C 0.62290 0.06075 0.56079
 N1481 N 0.62296 0.04026 0.56596
 N1482 N 0.62270 0.02565 0.55122
 C1483 C 0.46855 1.03064 0.37782
 N1484 N 0.47382 1.05110 0.37750
 N1485 N 0.45917 1.06577 0.37721
 C1486 C 0.43871 1.06051 0.37722
 N1487 N 0.43345 1.04005 0.37757
 N1488 N 0.44810 1.02538 0.37786
 C1489 C 0.48468 1.01446 0.37795
 N1490 N 0.47939 0.99400 0.37797
 N1491 N 0.49403 0.97931 0.37789
 C1492 C 0.51449 0.98455 0.37780
 N1493 N 0.51978 1.00501 0.37781
 N1494 N 0.50514 1.01970 0.37788
 C1495 C 0.53062 0.96838 0.37753
 N1496 N 0.55107 0.97365 0.37744
 N1497 N 0.56572 0.95898 0.37704
 C1498 C 0.56047 0.93852 0.37672
 N1499 N 0.54001 0.93325 0.37684
 N1500 N 0.52536 0.94791 0.37724
 C1501 C -0.03105 -0.03180 0.12282
 N1502 N -0.05151 -0.02655 0.12310
 N1503 N -0.06614 -0.04123 0.12337
 C1504 C -0.06086 -0.06170 0.12337
 N1505 N -0.04040 -0.06695 0.12308
 N1506 N -0.02577 -0.05227 0.12281
 C1507 C -0.01493 -0.01560 0.12261
 N1508 N 0.00553 -0.02083 0.12237
 N1509 N 0.02015 -0.00612 0.12228
 C1510 C 0.01484 0.01433 0.12244
 N1511 N -0.00563 0.01956 0.12266
 N1512 N -0.02025 0.00486 0.12274
 C1513 C 0.03096 0.03053 0.12252
 N1514 N 0.02567 0.05100 0.12286
 N1515 N 0.04030 0.06568 0.12309
 C1516 C 0.06077 0.06043 0.12299
 N1517 N 0.06605 0.03996 0.12262
 N1518 N 0.05142 0.02528 0.12239
 C1519 C 0.53089 0.53066 0.12231
 N1520 N 0.52562 0.55113 0.12257
 N1521 N 0.54027 0.56580 0.12286
 C1522 C 0.56073 0.56052 0.12291
 N1523 N 0.56599 0.54005 0.12262
 N1524 N 0.55134 0.52539 0.12233
 C1525 C 0.51475 0.51448 0.12217
 N1526 N 0.52005 0.49402 0.12220
 N1527 N 0.50542 0.47933 0.12224
 C1528 C 0.48496 0.48457 0.12225
 N1529 N 0.47966 0.50503 0.12219
 N1530 N 0.49429 0.51972 0.12216
 C1531 C 0.46883 0.46838 0.12247
 N1532 N 0.44837 0.47364 0.12248
 N1533 N 0.43373 0.45897 0.12282
 C1534 C 0.43900 0.43850 0.12318
 N1535 N 0.45946 0.43325 0.12315
 N1536 N 0.47411 0.44792 0.12280
 C1537 C -0.03120 0.46868 0.62244
 N1538 N -0.05166 0.47392 0.62250
 N1539 N -0.06629 0.45924 0.62283
 C1540 C -0.06100 0.43878 0.62313
 N1541 N -0.04054 0.43353 0.62304
 N1542 N -0.02590 0.44821 0.62270
 C1543 C -0.01508 0.48488 0.62225
 N1544 N 0.00539 0.47966 0.62221
 N1545 N 0.02000 0.49437 0.62221
 C1546 C 0.01468 0.51482 0.62224
 N1547 N -0.00579 0.52004 0.62225
 N1548 N -0.02040 0.50534 0.62225
 C1549 C 0.03079 0.53103 0.62243
 N1550 N 0.02549 0.55149 0.62273
 N1551 N 0.04012 0.56618 0.62306
 C1552 C 0.06059 0.56094 0.62311
 N1553 N 0.06588 0.54048 0.62277
 N1554 N 0.05126 0.52579 0.62244
 C1555 C 0.46880 0.53108 0.87715
 N1556 N 0.47405 0.55155 0.87680
 N1557 N 0.45939 0.56622 0.87658
 C1558 C 0.43893 0.56096 0.87669
 N1559 N 0.43368 0.54049 0.87706
 N1560 N 0.44834 0.52582 0.87729
 C1561 C 0.48495 0.51489 0.87724
 N1562 N 0.47968 0.49442 0.87742
 N1563 N 0.49432 0.47973 0.87737
 C1564 C 0.51478 0.48496 0.87715
 N1565 N 0.52006 0.50543 0.87699
 N1566 N 0.50541 0.52012 0.87704
 C1567 C 0.53094 0.46877 0.87698
 N1568 N 0.55139 0.47403 0.87672
 N1569 N 0.56605 0.45936 0.87649
 C1570 C 0.56080 0.43889 0.87650
 N1571 N 0.54035 0.43362 0.87677
 N1572 N 0.52568 0.44830 0.87700
 C1573 C 0.62292 0.53067 1.03205
 N1574 N 0.62310 0.55115 1.02686
 N1575 N 0.62339 0.56576 1.04158
 C1576 C 0.62353 0.56046 1.06206
 N1577 N 0.62334 0.53995 1.06724
 N1578 N 0.62305 0.52533 1.05251
 C1579 C 0.62271 0.51458 1.01579
 N1580 N 0.62256 0.49409 1.02094
 N1581 N 0.62250 0.47950 1.00618
 C1582 C 0.62258 0.48488 0.98573
 N1583 N 0.62270 0.50538 0.98058
 N1584 N 0.62277 0.51996 0.99534
 C1585 C 0.62268 0.46880 0.96946
 N1586 N 0.62298 0.47416 0.94901
 N1587 N 0.62323 0.45956 0.93427
 C1588 C 0.62320 0.43906 0.93944
 N1589 N 0.62287 0.43372 0.95990
 N1590 N 0.62262 0.44832 0.97463
 C1591 C 0.37621 1.03105 0.46832
 N1592 N 0.37610 1.02562 0.44788
 N1593 N 0.37591 1.04017 0.43308
 C1594 C 0.37582 1.06071 0.43816
 N1595 N 0.37595 1.06610 0.45863
 N1596 N 0.37614 1.05156 0.47342
 C1597 C 0.37631 1.01503 0.48466
 N1598 N 0.37633 1.02051 0.50509
 N1599 N 0.37632 1.00600 0.51991
 C1600 C 0.37629 0.98547 0.51486
 N1601 N 0.37629 0.97999 0.49443
 N1602 N 0.37630 0.99450 0.47960
 C1603 C 0.37618 0.96945 0.53120
 N1604 N 0.37607 0.94894 0.52610
 N1605 N 0.37587 0.93440 0.54088
 C1606 C 0.37576 0.93981 0.56133
 N1607 N 0.37589 0.96033 0.56644
 N1608 N 0.37608 0.97488 0.55164
 C1609 C -0.03142 0.62279 0.46899
 N1610 N -0.05186 0.62311 0.47431
 N1611 N -0.06655 0.62330 0.45967
 C1612 C -0.06132 0.62317 0.43918
 N1613 N -0.04087 0.62281 0.43387
 N1614 N -0.02619 0.62262 0.44851
 C1615 C -0.01521 0.62275 0.48511
 N1616 N 0.00522 0.62259 0.47976
 N1617 N 0.01993 0.62270 0.49438
 C1618 C 0.01474 0.62297 0.51487
 N1619 N -0.00570 0.62310 0.52022
 N1620 N -0.02041 0.62300 0.50561
 C1621 C 0.03094 0.62320 0.53099
 N1622 N 0.02571 0.62350 0.55147
 N1623 N 0.04039 0.62377 0.56611
 C1624 C 0.06084 0.62377 0.56080
 N1625 N 0.06607 0.62346 0.54031
 N1626 N 0.05138 0.62318 0.52567
 C1627 C 0.46897 0.37603 1.03131
 N1628 N 0.47410 0.37583 1.05181
 N1629 N 0.45934 0.37562 1.06638
 C1630 C 0.43892 0.37559 1.06098
 N1631 N 0.43379 0.37580 1.04047
 N1632 N 0.44855 0.37601 1.02590
 C1633 C 0.48525 0.37619 1.01528
 N1634 N 0.48017 0.37631 0.99476
 N1635 N 0.49495 0.37638 0.98022
 C1636 C 0.51536 0.37633 0.98566
 N1637 N 0.52045 0.37623 1.00618
 N1638 N 0.50566 0.37616 1.02072
 C1639 C 0.53164 0.37630 0.96963
 N1640 N 0.55206 0.37619 0.97503
 N1641 N 0.56681 0.37607 0.96044
 C1642 C 0.56167 0.37604 0.93993
 N1643 N 0.54125 0.37617 0.93455
 N1644 N 0.52650 0.37629 0.94912
 C1645 C 0.46856 -0.03101 0.62272
 N1646 N 0.44810 -0.02573 0.62258
 N1647 N 0.43345 -0.04039 0.62278
 C1648 C 0.43870 -0.06086 0.62313
 N1649 N 0.45916 -0.06614 0.62324
 N1650 N 0.47381 -0.05148 0.62303
 C1651 C 0.48470 -0.01484 0.62268
 N1652 N 0.50516 -0.02010 0.62290
 N1653 N 0.51980 -0.00543 0.62301
 C1654 C 0.51453 0.01504 0.62291
 N1655 N 0.49407 0.02030 0.62267
 N1656 N 0.47943 0.00563 0.62255
 C1657 C 0.53068 0.03121 0.62315
 N1658 N 0.52543 0.05169 0.62317
 N1659 N 0.54010 0.06634 0.62346
 C1660 C 0.56055 0.06104 0.62374
 N1661 N 0.56579 0.04056 0.62370
 N1662 N 0.55113 0.02592 0.62342
 C1663 C -0.03079 0.53139 0.37707
 N1664 N -0.02545 0.55184 0.37698
 N1665 N -0.04006 0.56656 0.37668
 C1666 C -0.06053 0.56136 0.37645
 N1667 N -0.06585 0.54091 0.37657
 N1668 N -0.05125 0.52620 0.37687
 C1669 C -0.01471 0.51515 0.37729
 N1670 N -0.02009 0.49471 0.37721
 N1671 N -0.00551 0.47996 0.37727
 C1672 C 0.01496 0.48511 0.37742
 N1673 N 0.02034 0.50555 0.37753
 N1674 N 0.00577 0.52031 0.37747
 C1675 C 0.03103 0.46887 0.37731
 N1676 N 0.05150 0.47404 0.37740
 N1677 N 0.06609 0.45931 0.37713
 C1678 C 0.06075 0.43887 0.37677
 N1679 N 0.04027 0.43369 0.37672
 N1680 N 0.02568 0.44842 0.37698
 C1681 C -0.03170 1.03143 0.87731
 N1682 N -0.02643 1.05189 0.87696
 N1683 N -0.04107 1.06657 0.87658
 C1684 C -0.06156 1.06135 0.87654
 N1685 N -0.06680 1.04086 0.87692
 N1686 N -0.05216 1.02619 0.87729
 C1687 C -0.01556 1.01522 0.87757
 N1688 N -0.02086 0.99476 0.87764
 N1689 N -0.00623 0.98005 0.87772
 C1690 C 0.01423 0.98527 0.87774
 N1691 N 0.01953 1.00573 0.87770
 N1692 N 0.00490 1.02043 0.87761
 C1693 C 0.03037 0.96906 0.87765
 N1694 N 0.05083 0.97429 0.87767
 N1695 N 0.06547 0.95961 0.87743
 C1696 C 0.06021 0.93914 0.87713
 N1697 N 0.03974 0.93390 0.87713
 N1698 N 0.02509 0.94859 0.87739
 C1699 C 0.78082 0.62163 0.28101
 N1700 N 0.77547 0.62201 0.30147
 N1701 N 0.79007 0.62253 0.31619
 C1702 C 0.81054 0.62269 0.31099
 N1703 N 0.81588 0.62228 0.29053
 N1704 N 0.80129 0.62176 0.27581
 C1705 C 0.76475 0.62131 0.26476
 N1706 N 0.77012 0.62106 0.24431
 N1707 N 0.75554 0.62100 0.22956
 C1708 C 0.73506 0.62118 0.23473
 N1709 N 0.72969 0.62139 0.25518
 N1710 N 0.74427 0.62145 0.26993
 C1711 C 0.71898 0.62138 0.21849
 N1712 N 0.69852 0.62185 0.22371
 N1713 N 0.68392 0.62230 0.20900
 C1714 C 0.68923 0.62227 0.18853
 N1715 N 0.70970 0.62175 0.18331
 N1716 N 0.72431 0.62131 0.19802
 C1717 C 0.28046 0.87843 0.71888
 N1718 N 0.27514 0.87836 0.69841
 N1719 N 0.28975 0.87788 0.68368
 C1720 C 0.31022 0.87745 0.68889
 N1721 N 0.31553 0.87756 0.70936
 N1722 N 0.30093 0.87805 0.72407
 C1723 C 0.26436 0.87868 0.73514
 N1724 N 0.26971 0.87868 0.75559
 N1725 N 0.25512 0.87867 0.77034
 C1726 C 0.23464 0.87865 0.76518
 N1727 N 0.22929 0.87869 0.74472
 N1728 N 0.24388 0.87871 0.72997
 C1729 C 0.21854 0.87837 0.78143
 N1730 N 0.19807 0.87799 0.77622
 N1731 N 0.18346 0.87749 0.79093
 C1732 C 0.18876 0.87735 0.81140
 N1733 N 0.20922 0.87777 0.81662
 N1734 N 0.22384 0.87827 0.80190
 C1735 C 0.21875 0.37788 0.28109
 N1736 N 0.22406 0.37778 0.30156
 N1737 N 0.20944 0.37726 0.31627
 C1738 C 0.18898 0.37683 0.31104
 N1739 N 0.18368 0.37697 0.29057
 N1740 N 0.19830 0.37749 0.27587
 C1741 C 0.23485 0.37816 0.26487
 N1742 N 0.22951 0.37818 0.24441
 N1743 N 0.24412 0.37819 0.22968
 C1744 C 0.26459 0.37816 0.23488
 N1745 N 0.26992 0.37818 0.25534
 N1746 N 0.25532 0.37818 0.27007
 C1747 C 0.28069 0.37787 0.21867
 N1748 N 0.30114 0.37747 0.22391
 N1749 N 0.31577 0.37693 0.20922
 C1750 C 0.31049 0.37680 0.18875
 N1751 N 0.29004 0.37725 0.18350
 N1752 N 0.27540 0.37777 0.19819
 C1753 C 0.87786 0.71831 0.28076
 N1754 N 0.87790 0.69785 0.27544
 N1755 N 0.87742 0.68316 0.29008
 C1756 C 0.87688 0.68840 0.31056
 N1757 N 0.87688 0.70886 0.31586
 N1758 N 0.87736 0.72355 0.30123
 C1759 C 0.87811 0.73452 0.26465
 N1760 N 0.87791 0.75497 0.27001
 N1761 N 0.87789 0.76969 0.25541
 C1762 C 0.87805 0.76450 0.23491
 N1763 N 0.87828 0.74406 0.22955
 N1764 N 0.87830 0.72933 0.24416
 C1765 C 0.87776 0.78072 0.21881
 N1766 N 0.87765 0.77549 0.19833
 N1767 N 0.87715 0.79019 0.18371
 C1768 C 0.87676 0.81064 0.18903
 N1769 N 0.87691 0.81587 0.20952
 N1770 N 0.87740 0.80117 0.22415
 C1771 C 0.62251 0.28117 0.78107
 N1772 N 0.62273 0.30162 0.77573
 N1773 N 0.62316 0.31635 0.79035
 C1774 C 0.62339 0.31115 0.81084
 N1775 N 0.62314 0.29069 0.81617
 N1776 N 0.62271 0.27598 0.80156
 C1777 C 0.62227 0.26493 0.76497
 N1778 N 0.62224 0.24449 0.77035
 N1779 N 0.62223 0.22973 0.75576
 C1780 C 0.62224 0.23488 0.73526
 N1781 N 0.62223 0.25532 0.72988
 N1782 N 0.62224 0.27008 0.74447
 C1783 C 0.62245 0.21864 0.71917
 N1784 N 0.62262 0.22383 0.69868
 N1785 N 0.62303 0.20911 0.68406
 C1786 C 0.62327 0.18866 0.68939
 N1787 N 0.62306 0.18346 0.70988
 N1788 N 0.62265 0.19818 0.72451
 C1789 C 0.78125 0.21879 0.87772
 N1790 N 0.77603 0.19831 0.87757
 N1791 N 0.79071 0.18367 0.87708
 C1792 C 0.81116 0.18896 0.87672
 N1793 N 0.81638 0.20944 0.87690
 N1794 N 0.80170 0.22409 0.87739
 C1795 C 0.76504 0.23493 0.87803
 N1796 N 0.77024 0.25541 0.87792
 N1797 N 0.75553 0.27004 0.87799
 C1798 C 0.73509 0.26472 0.87817
 N1799 N 0.72990 0.24424 0.87832
 N1800 N 0.74460 0.22961 0.87825
 C1801 C 0.71888 0.28086 0.87800
 N1802 N 0.69843 0.27557 0.87805
 N1803 N 0.68375 0.29022 0.87765
 C1804 C 0.68897 0.31069 0.87719
 N1805 N 0.70942 0.31598 0.87718
 N1806 N 0.72411 0.30134 0.87758
 C1807 C 0.28069 0.78116 0.62238
 N1808 N 0.27547 0.80164 0.62257
 N1809 N 0.29015 0.81627 0.62299
 C1810 C 0.31060 0.81095 0.62323
 N1811 N 0.31582 0.79047 0.62301
 N1812 N 0.30113 0.77584 0.62259
 C1813 C 0.26449 0.76505 0.62216
 N1814 N 0.26969 0.74456 0.62215
 N1815 N 0.25498 0.72995 0.62216
 C1816 C 0.23454 0.73528 0.62219
 N1817 N 0.22934 0.75577 0.62217
 N1818 N 0.24404 0.77038 0.62216
 C1819 C 0.21835 0.71916 0.62243
 N1820 N 0.19790 0.72447 0.62265
 N1821 N 0.18322 0.70983 0.62309
 C1822 C 0.18846 0.68935 0.62332
 N1823 N 0.20891 0.68405 0.62307
 N1824 N 0.22359 0.69869 0.62263
   
