data_POSCAR
  _audit_creation_date              2014-09-24
  _audit_creation_method            'ToBaCCo'
  _symmetry_space_group_name_H-M    'P1'
  _symmetry_Int_Tables_number       1
  _symmetry_cell_setting            triclinic
  loop_
  _symmetry_equiv_pos_as_xyz
 x,y,z
_cell_length_a 49.3843
_cell_length_b 48.8426
_cell_length_c 49.9724
_cell_angle_alpha 89.363900
_cell_angle_beta 89.785100
_cell_angle_gamma 91.071600
loop_
  _atom_site_label
  _atom_site_type_symbol
  _atom_site_fract_x
  _atom_site_fract_y
  _atom_site_fract_z
Si1 Si 0.76255 0.60135 1.00815
 Si2 Si 0.73997 0.36805 0.50052
 Si3 Si 0.27227 -0.12607 -0.00756
 Si4 Si 0.23220 0.12789 0.49444
 Si5 Si 0.13340 0.49995 0.24732
 Si6 Si -0.12438 -0.00956 0.24197
 Si7 Si 0.37189 0.48641 0.74885
 Si8 Si 0.62073 0.98802 0.75830
 Si9 Si -0.00508 0.26117 -0.13433
 Si10 Si 0.50433 0.25480 0.13097
 Si11 Si 1.01095 0.76206 0.62259
 Si12 Si 0.50219 0.76845 0.38228
 C13 C 0.40630 -0.01096 0.28325
 H14 H 0.40244 0.00784 0.29360
 C15 C 0.42509 -0.02911 0.29387
 H16 H 0.43561 -0.02368 0.31208
 C17 C 0.39503 -0.04221 0.24903
 H18 H 0.38272 -0.04788 0.23214
 C19 C 0.41381 -0.06082 0.25880
 H20 H 0.41614 -0.08013 0.24869
 N21 N 0.39136 -0.01786 0.26142
 C22 C 0.36622 0.05034 0.21510
 H23 H 0.35240 0.03828 0.20320
 C24 C 0.37423 0.07626 0.20581
 H25 H 0.36716 0.08319 0.18645
 C26 C 0.39152 0.05635 0.25478
 H27 H 0.39771 0.04891 0.27415
 C28 C 0.40007 0.08253 0.24621
 H29 H 0.41293 0.09479 0.25907
 Zn30 Zn 0.36233 0.00521 0.25069
 N31 N 0.37517 0.04061 0.23905
 C32 C 0.32092 0.03053 0.27954
 N33 N 0.33897 0.00987 0.28040
 C34 C 0.34139 -0.00627 0.30260
 C35 C 0.32631 -0.00100 0.32560
 C36 C 0.30524 0.03637 0.30204
 C37 C 0.35655 -0.01549 0.19874
 C38 C 0.34348 -0.02757 0.17706
 C39 C 0.30261 -0.03127 0.20367
 C40 C 0.31650 -0.01906 0.22491
 N41 N 0.34303 -0.01152 0.22211
 H42 H 0.31921 0.04291 0.26157
 H43 H 0.35546 -0.02294 0.30275
 H44 H 0.32954 -0.01334 0.34338
 H45 H 0.29118 0.05309 0.30099
 H46 H 0.37764 -0.00929 0.19703
 H47 H 0.35485 -0.03103 0.15888
 H48 H 0.28148 -0.03706 0.20621
 H49 H 0.30610 -0.01569 0.24363
 C50 C 0.39137 0.09279 0.22139
 C51 C 0.42872 -0.05468 0.28191
 C52 C 0.31615 -0.03571 0.17934
 C53 C 0.30830 0.02093 0.32574
 C54 C 0.11631 1.05214 0.79244
 H55 H 0.12700 1.03987 0.80691
 C56 C 0.10634 1.07738 0.80004
 H57 H 0.10942 1.08432 0.82033
 C58 C 0.10017 1.05870 0.74825
 H59 H 0.09864 1.05157 0.72788
 C60 C 0.08951 1.08408 0.75514
 H61 H 0.07967 1.09646 0.74008
 N62 N 0.11367 1.04357 0.76678
 C63 C 0.12000 0.95781 0.74475
 H64 H 0.14131 0.95536 0.74887
 C65 C 0.10447 0.93542 0.73650
 H66 H 0.11402 0.91572 0.73503
 C67 C 0.08197 0.98655 0.74223
 H68 H 0.07339 1.00660 0.74436
 C69 C 0.06573 0.96472 0.73328
 H70 H 0.04480 0.96837 0.72825
 Zn71 Zn 0.13266 1.01194 0.75667
 N72 N 0.10871 0.98281 0.74729
 C73 C 0.14506 0.97958 0.80201
 N74 N 0.15445 1.00050 0.78609
 C75 C 0.17790 1.01420 0.79203
 C76 C 0.19297 1.00681 0.81455
 C77 C 0.15970 0.97124 0.82438
 C78 C 0.15398 1.00546 0.70418
 C79 C 0.16876 1.01321 0.68135
 C80 C 0.18444 1.05361 0.70448
 C81 C 0.16930 1.04512 0.72685
 N82 N 0.15458 1.02131 0.72643
 H83 H 0.12587 0.96963 0.79771
 H84 H 0.18483 1.03111 0.77957
 H85 H 0.21156 1.01790 0.81904
 H86 H 0.15182 0.95464 0.83687
 H87 H 0.14178 0.98692 0.70386
 H88 H 0.16807 1.00026 0.66391
 H89 H 0.19554 1.07291 0.70506
 H90 H 0.16867 1.05798 0.74430
 C91 C 0.07708 0.93876 0.72990
 C92 C 0.09330 1.09389 0.78115
 C93 C 0.18420 1.03762 0.68128
 C94 C 0.18392 0.98497 0.83092
 C95 C 0.58096 0.53300 0.30181
 H96 H 0.58301 0.51374 0.31245
 C97 C 0.56554 0.55371 0.31291
 H98 H 0.55600 0.55016 0.33221
 C99 C 0.59229 0.56136 0.26453
 H100 H 0.60285 0.56432 0.24572
 C101 C 0.57684 0.58253 0.27476
 H102 H 0.57544 0.60146 0.26343
 N103 N 0.59430 0.53726 0.27822
 C104 C 0.60905 0.46039 0.23772
 H105 H 0.62928 0.46483 0.23036
 C106 C 0.59568 0.43650 0.22978
 H107 H 0.60597 0.42252 0.21669
 C108 C 0.57106 0.47328 0.26343
 H109 H 0.56143 0.48770 0.27641
 C110 C 0.55698 0.44937 0.25616
 H111 H 0.53656 0.44570 0.26349
 Zn112 Zn 0.61722 0.50977 0.26466
 N113 N 0.59674 0.47825 0.25432
 C114 C 0.65886 0.47771 0.28569
 N115 N 0.64270 0.49921 0.29111
 C116 C 0.64460 0.51257 0.31482
 C117 C 0.66219 0.50341 0.33469
 C118 C 0.67671 0.46791 0.30494
 C119 C 0.62709 0.52068 0.20946
 C120 C 0.64158 0.53150 0.18758
 C121 C 0.67502 0.54952 0.21823
 C122 C 0.66005 0.53817 0.23946
 N123 N 0.63661 0.52404 0.23475
 H124 H 0.65760 0.46775 0.26658
 H125 H 0.63244 0.53028 0.31849
 H126 H 0.66316 0.51405 0.35356
 H127 H 0.68854 0.45006 0.30052
 H128 H 0.60812 0.50981 0.20627
 H129 H 0.63362 0.52894 0.16758
 H130 H 0.69369 0.56066 0.22233
 H131 H 0.66704 0.54073 0.25977
 C132 C 0.56932 0.43071 0.23904
 C133 C 0.56349 0.57904 0.29949
 C134 C 0.66580 0.54626 0.19189
 C135 C 0.67821 0.48048 0.33001
 C136 C 0.90242 0.47705 0.76512
 H137 H 0.90691 0.49561 0.77585
 C138 C 0.91606 0.45316 0.77181
 H139 H 0.93081 0.45375 0.78777
 C140 C 0.87910 0.45416 0.73041
 H141 H 0.86514 0.45453 0.71390
 C142 C 0.89203 0.42974 0.73662
 H143 H 0.88705 0.41158 0.72529
 N144 N 0.88389 0.47710 0.74505
 C145 C 0.87989 0.56410 0.72485
 H146 H 0.85902 0.56813 0.72985
 C147 C 0.89656 0.58509 0.71445
 H148 H 0.88825 0.60523 0.71137
 C149 C 0.91539 0.53235 0.72110
 H150 H 0.92243 0.51162 0.72308
 C151 C 0.93276 0.55274 0.71075
 H152 H 0.95328 0.54753 0.70539
 Zn153 Zn 0.86463 0.50982 0.73727
 N154 N 0.88936 0.53824 0.72745
 C155 C 0.85876 0.52889 0.79002
 N156 N 0.84472 0.52091 0.76797
 C157 C 0.81717 0.52138 0.76766
 C158 C 0.80273 0.52918 0.79035
 C159 C 0.84514 0.53682 0.81314
 C160 C 0.84589 0.51648 0.68421
 C161 C 0.83119 0.50953 0.66140
 C162 C 0.80616 0.47581 0.68772
 C163 C 0.82125 0.48349 0.71007
 N164 N 0.84107 0.50315 0.70786
 H165 H 0.88060 0.52967 0.78957
 H166 H 0.80620 0.51590 0.74984
 H167 H 0.78081 0.52902 0.78975
 H168 H 0.85675 0.54342 0.83032
 H169 H 0.86193 0.53173 0.68262
 H170 H 0.83616 0.51955 0.64253
 H171 H 0.79097 0.45963 0.68969
 H172 H 0.81800 0.47289 0.72896
 C173 C 0.92323 0.57939 0.70670
 C174 C 0.91055 0.42888 0.75783
 C175 C 0.81148 0.48851 0.66285
 C176 C 0.81671 0.53692 0.81356
 C177 C 0.28862 0.39828 -0.01837
 H178 H 0.29630 0.39865 0.00185
 C179 C 0.30362 0.41086 -0.03897
 H180 H 0.32242 0.42149 -0.03429
 C181 C 0.25576 0.38256 -0.04929
 H182 H 0.23769 0.37070 -0.05356
 C183 C 0.27003 0.39499 -0.07047
 H184 H 0.26261 0.39261 -0.09069
 N185 N 0.26512 0.38448 -0.02377
 C186 C 0.20743 0.38239 0.03998
 H187 H 0.19787 0.36320 0.03453
 C188 C 0.19445 0.39919 0.05809
 H189 H 0.17488 0.39286 0.06613
 C190 C 0.24497 0.41323 0.03740
 H191 H 0.26471 0.41859 0.02941
 C192 C 0.23280 0.43053 0.05590
 H193 H 0.24319 0.44919 0.06189
 Zn194 Zn 0.24775 0.36511 0.00494
 N195 N 0.23204 0.38977 0.02960
 C196 C 0.27784 0.34827 0.04942
 N197 N 0.27468 0.34484 0.02266
 C198 C 0.29319 0.33115 0.00794
 C199 C 0.31707 0.32205 0.01984
 C200 C 0.30131 0.33954 0.06206
 C201 C 0.19864 0.35635 -0.01980
 C202 C 0.17582 0.34239 -0.02901
 C203 C 0.19553 0.29987 -0.01442
 C204 C 0.21826 0.31478 -0.00548
 N205 N 0.21935 0.34252 -0.00843
 H206 H 0.26291 0.35922 0.06073
 H207 H 0.29033 0.32906 -0.01340
 H208 H 0.33245 0.31281 0.00757
 H209 H 0.30405 0.34356 0.08316
 H210 H 0.19974 0.37846 -0.02127
 H211 H 0.15945 0.35397 -0.03763
 H212 H 0.19485 0.27780 -0.01213
 H213 H 0.23481 0.30429 0.00404
 C214 C 0.20706 0.42364 0.06616
 C215 C 0.29445 0.40910 -0.06547
 C216 C 0.17403 0.31378 -0.02651
 C217 C 0.32178 0.32730 0.04701
 C218 C 0.76157 0.08019 1.03304
 H219 H 0.75538 0.06675 1.01708
 C220 C 0.76936 0.06906 1.05768
 H221 H 0.76881 0.04704 1.06050
 C222 C 0.76925 0.12514 1.04909
 H223 H 0.76883 0.14703 1.04564
 C224 C 0.77722 0.11492 1.07390
 H225 H 0.78350 0.12912 1.08926
 N226 N 0.76112 0.10783 1.02941
 C227 C 0.71494 0.08077 0.98129
 H228 H 0.70780 0.08157 1.00176
 C229 C 0.70188 0.06363 0.96313
 H230 H 0.68518 0.05076 0.97012
 C231 C 0.74504 0.09717 0.94750
 H232 H 0.76159 0.11063 0.94140
 C233 C 0.73210 0.08081 0.92846
 H234 H 0.73869 0.08230 0.90781
 Zn235 Zn 0.74746 0.12433 0.99769
 N236 N 0.73570 0.09751 0.97313
 C237 C 0.76992 0.16306 0.96013
 N238 N 0.77525 0.14730 0.98204
 C239 C 0.80063 0.14689 0.99262
 C240 C 0.82150 0.16319 0.98167
 C241 C 0.79026 0.17947 0.94838
 C242 C 0.70644 0.14239 1.03260
 C243 C 0.68231 0.15463 1.03990
 C244 C 0.67710 0.17035 0.99433
 C245 C 0.70143 0.15766 0.98784
 N246 N 0.71588 0.14436 1.00700
 H247 H 0.75007 0.16251 0.95126
 H248 H 0.80497 0.13369 1.00945
 H249 H 0.84131 0.16286 0.99085
 H250 H 0.78557 0.19136 0.93065
 H251 H 0.71695 0.13044 1.04738
 H252 H 0.67508 0.15212 1.06027
 H253 H 0.66607 0.18101 0.97885
 H254 H 0.70823 0.15780 0.96731
 C255 C 0.70960 0.06436 0.93600
 C256 C 0.77690 0.08655 1.07863
 C257 C 0.66729 0.16898 1.02074
 C258 C 0.81648 0.17986 0.95925
 C259 C 0.26990 0.57013 0.52340
 H260 H 0.25892 0.56123 0.50693
 C261 C 0.28080 0.55293 0.54305
 H262 H 0.27763 0.53100 0.54166
 C263 C 0.28752 0.60922 0.54539
 H264 H 0.29076 0.63113 0.54587
 C265 C 0.29869 0.59288 0.56538
 H266 H 0.31026 0.60251 0.58118
 N267 N 0.27280 0.59782 0.52529
 C268 C 0.25040 0.61799 0.44556
 H269 H 0.26461 0.63504 0.44490
 C270 C 0.23819 0.60946 0.42189
 H271 H 0.24335 0.61979 0.40321
 C272 C 0.22471 0.58513 0.47060
 H273 H 0.21841 0.57672 0.48979
 C274 C 0.21235 0.57559 0.44723
 H275 H 0.19699 0.55950 0.44846
 Zn276 Zn 0.25664 0.62308 0.50108
 N277 N 0.24325 0.60614 0.46941
 C278 C 0.30746 0.63952 0.48201
 N279 N 0.28359 0.64931 0.49112
 C280 C 0.27902 0.67666 0.49194
 C281 C 0.29881 0.69539 0.48276
 C282 C 0.32775 0.65747 0.47268
 C283 C 0.23238 0.65388 0.54202
 C284 C 0.21116 0.66514 0.55645
 C285 C 0.18012 0.64964 0.52239
 C286 C 0.20198 0.63871 0.50855
 N287 N 0.22747 0.64047 0.51877
 H288 H 0.31043 0.61765 0.48143
 H289 H 0.25981 0.68395 0.49911
 H290 H 0.29479 0.71709 0.48333
 H291 H 0.34623 0.64915 0.46469
 H292 H 0.25275 0.65581 0.54952
 H293 H 0.21556 0.67566 0.57494
 H294 H 0.15992 0.64722 0.51432
 H295 H 0.19837 0.62853 0.48982
 C296 C 0.21869 0.58831 0.42267
 C297 C 0.29498 0.56436 0.56469
 C298 C 0.18452 0.66268 0.54691
 C299 C 0.32348 0.68582 0.47272
 C300 C 0.79196 0.93188 0.48245
 H301 H 0.79874 0.93506 0.50268
 C302 C 0.80490 0.94605 0.46145
 H303 H 0.82153 0.95997 0.46594
 C304 C 0.76157 0.91079 0.45221
 H305 H 0.74450 0.89734 0.44849
 C306 C 0.77421 0.92413 0.43058
 H307 H 0.76708 0.91981 0.41059
 N308 N 0.77137 0.91378 0.47746
 C309 C 0.74020 0.89765 0.55773
 H310 H 0.74328 0.87579 0.55857
 C311 C 0.73086 0.91115 0.58025
 H312 H 0.72697 0.89950 0.59847
 C313 C 0.74202 0.93930 0.53292
 H314 H 0.74626 0.95005 0.51430
 C315 C 0.73267 0.95370 0.55509
 H316 H 0.72954 0.97553 0.55334
 Zn317 Zn 0.75783 0.89070 0.50578
 N318 N 0.74536 0.91174 0.53464
 C319 C 0.80735 0.88127 0.53168
 N320 N 0.78622 0.86856 0.51923
 C321 C 0.78468 0.84075 0.51784
 C322 C 0.80516 0.82473 0.52865
 C323 C 0.82829 0.86606 0.54269
 C324 C 0.70382 0.86946 0.50395
 C325 C 0.68241 0.85345 0.49410
 C326 C 0.71302 0.83471 0.46161
 C327 C 0.73390 0.85071 0.47236
 N328 N 0.72898 0.86794 0.49295
 H329 H 0.80766 0.90322 0.53381
 H330 H 0.76742 0.83077 0.50876
 H331 H 0.80364 0.80266 0.52715
 H332 H 0.84467 0.87661 0.55289
 H333 H 0.70020 0.88326 0.52027
 H334 H 0.66269 0.85479 0.50346
 H335 H 0.71739 0.82204 0.44456
 H336 H 0.75405 0.84985 0.46387
 C337 C 0.72669 0.93950 0.57906
 C338 C 0.79678 0.94142 0.43492
 C339 C 0.68674 0.83596 0.47239
 C340 C 0.82737 0.83739 0.54126
 C341 C -0.03441 0.28301 0.40372
 H342 H -0.01450 0.29249 0.40196
 C343 C -0.05340 0.29362 0.42139
 H344 H -0.04793 0.31142 0.43305
 C345 C -0.06616 0.24941 0.38922
 H346 H -0.07127 0.23255 0.37629
 C347 C -0.08567 0.25918 0.40677
 H348 H -0.10543 0.24924 0.40751
 N349 N -0.04114 0.26146 0.38793
 C350 C 0.03025 0.21888 0.36187
 H351 H 0.02664 0.21909 0.34053
 C352 C 0.05142 0.20372 0.37235
 H353 H 0.06432 0.19251 0.35894
 C354 C 0.01749 0.23300 0.40532
 H355 H 0.00388 0.24402 0.41808
 C356 C 0.03869 0.21834 0.41665
 H357 H 0.04133 0.21820 0.43815
 Zn358 Zn -0.01571 0.25052 0.36201
 N359 N 0.01377 0.23304 0.37836
 C360 C 0.02349 0.28761 0.34066
 N361 N -0.00352 0.28235 0.34343
 C362 C -0.02213 0.30100 0.33565
 C363 C -0.01374 0.32650 0.32532
 C364 C 0.03272 0.31260 0.33003
 C365 C -0.03664 0.19946 0.34937
 C366 C -0.04672 0.17842 0.33346
 C367 C -0.04637 0.20976 0.29567
 C368 C -0.03610 0.23027 0.31236
 N369 N -0.03158 0.22475 0.33869
 H370 H 0.03797 0.27279 0.34741
 H371 H -0.04348 0.29643 0.33844
 H372 H -0.02871 0.34143 0.31977
 H373 H 0.05431 0.31671 0.32861
 H374 H -0.03257 0.19562 0.37032
 H375 H -0.05089 0.15851 0.34247
 H376 H -0.04973 0.21431 0.27471
 H377 H -0.03150 0.25045 0.30426
 C378 C 0.05574 0.20325 0.40006
 C379 C -0.07957 0.28189 0.42283
 C380 C -0.05160 0.18337 0.30621
 C381 C 0.01403 0.33257 0.32266
 C382 C 1.03540 0.78597 0.07301
 H383 H 1.01479 0.79290 0.07132
 C384 C 1.05602 0.79923 0.05840
 H385 H 1.05065 0.81553 0.04471
 C386 C 1.06705 0.75655 0.09334
 H387 H 1.07137 0.74031 0.10745
 C388 C 1.08840 0.76985 0.07983
 H389 H 1.10883 0.76363 0.08419
 N390 N 1.04122 0.76515 0.09018
 C391 C 0.96409 0.72352 0.10962
 H392 H 0.96653 0.72146 0.13105
 C393 C 0.94071 0.71318 0.09746
 H394 H 0.92515 0.70330 0.10969
 C395 C 0.98128 0.73923 0.06777
 H396 H 0.99724 0.74905 0.05616
 C397 C 0.95803 0.72947 0.05481
 H398 H 0.95634 0.73192 0.03332
 Zn399 Zn 1.01382 0.75159 0.11367
 N400 N 0.98363 0.73663 0.09481
 C401 C 0.97623 0.78719 0.13834
 N402 N 1.00286 0.78188 0.13425
 C403 C 1.02261 0.79953 0.14270
 C404 C 1.01592 0.82365 0.15569
 C405 C 0.96864 0.81098 0.15143
 C406 C 1.02596 0.69748 0.12858
 C407 C 1.03877 0.67685 0.14307
 C408 C 1.05674 0.71129 0.17282
 C409 C 1.04338 0.73122 0.15792
 N410 N 1.02860 0.72409 0.13607
 H411 H 0.96074 0.77341 0.13095
 H412 H 1.04363 0.79525 0.13865
 H413 H 1.03192 0.83755 0.16205
 H414 H 0.94733 0.81517 0.15392
 H415 H 1.01456 0.69233 0.11084
 H416 H 1.03708 0.65588 0.13638
 H417 H 1.06877 0.71736 0.18990
 H418 H 1.04544 0.75245 0.16344
 C419 C 0.93732 0.71641 0.06974
 C420 C 1.08318 0.79190 0.06234
 C421 C 1.05476 0.68374 0.16525
 C422 C 0.98861 0.82970 0.16003
 C423 C 0.51381 0.27389 0.59735
 H424 H 0.49373 0.28233 0.59814
 C425 C 0.53528 0.28957 0.58692
 H426 H 0.53157 0.31000 0.57930
 C427 C 0.54320 0.23736 0.60739
 H428 H 0.54631 0.21737 0.61621
 C429 C 0.56528 0.25229 0.59690
 H430 H 0.58529 0.24360 0.59758
 N431 N 0.51815 0.24847 0.60761
 C432 C 0.43861 0.20964 0.61219
 H433 H 0.43791 0.20500 0.63341
 C434 C 0.41716 0.20170 0.59584
 H435 H 0.40006 0.19063 0.60462
 C436 C 0.46245 0.22878 0.57497
 H437 H 0.48031 0.23905 0.56695
 C438 C 0.44139 0.22118 0.55783
 H439 H 0.44304 0.22605 0.53669
 Zn440 Zn 0.48858 0.23176 0.62567
 N441 N 0.46056 0.22304 0.60162
 C442 C 0.45233 0.26999 0.64640
 N443 N 0.47660 0.25796 0.65042
 C444 C 0.49439 0.26772 0.66888
 C445 C 0.48830 0.29094 0.68369
 C446 C 0.44555 0.29334 0.66054
 C447 C 0.50535 0.17803 0.62540
 C448 C 0.51232 0.15243 0.63556
 C449 C 0.50542 0.16942 0.68026
 C450 C 0.49837 0.19473 0.66921
 N451 N 0.49879 0.19859 0.64221
 H452 H 0.43887 0.26260 0.63099
 H453 H 0.51388 0.25823 0.67117
 H454 H 0.50292 0.29862 0.69797
 H455 H 0.42680 0.30339 0.65577
 H456 H 0.50516 0.18162 0.60400
 H457 H 0.51798 0.13649 0.62184
 H458 H 0.50504 0.16661 0.70178
 H459 H 0.49247 0.21115 0.68217
 C460 C 0.41835 0.20747 0.56827
 C461 C 0.56147 0.27897 0.58705
 C462 C 0.51254 0.14790 0.66332
 C463 C 0.46387 0.30453 0.67909
 C464 C 0.48049 0.74626 0.92131
 H465 H 0.49967 0.75231 0.93003
 C466 C 0.45631 0.75513 0.93269
 H467 H 0.45730 0.76715 0.95071
 C468 C 0.45625 0.72345 0.88713
 H469 H 0.45626 0.71179 0.86890
 C470 C 0.43173 0.73249 0.89734
 H471 H 0.41336 0.72762 0.88653
 N472 N 0.48003 0.73033 0.89917
 C473 C 0.56080 0.69491 0.89463
 H474 H 0.56350 0.69684 0.87319
 C475 C 0.58143 0.68420 0.91033
 H476 H 0.59975 0.67740 0.90070
 C477 C 0.53327 0.70106 0.93294
 H478 H 0.51442 0.70741 0.94167
 C479 C 0.55346 0.69047 0.94945
 H480 H 0.54999 0.68923 0.97083
 Zn481 Zn 0.51270 0.72016 0.88222
 N482 N 0.53755 0.70367 0.90611
 C483 C 0.55316 0.76119 0.87698
 N484 N 0.52883 0.75242 0.86735
 C485 C 0.51564 0.76701 0.84822
 C486 C 0.52770 0.79061 0.83692
 C487 C 0.56583 0.78461 0.86640
 C488 C 0.49376 0.66982 0.86493
 C489 C 0.48438 0.65002 0.84718
 C490 C 0.49822 0.67968 0.81040
 C491 C 0.50753 0.69891 0.82893
 N492 N 0.50442 0.69397 0.85563
 H493 H 0.56282 0.75017 0.89305
 H494 H 0.49592 0.76006 0.84145
 H495 H 0.51738 0.80146 0.82106
 H496 H 0.58523 0.79113 0.87437
 H497 H 0.49162 0.66642 0.88627
 H498 H 0.47480 0.63150 0.85507
 H499 H 0.50014 0.68417 0.78920
 H500 H 0.51658 0.71798 0.82192
 C501 C 0.57810 0.68221 0.93819
 C502 C 0.43137 0.74857 0.92051
 C503 C 0.48600 0.65506 0.81950
 C504 C 0.55338 0.79937 0.84573
 C505 C 0.49629 -0.17977 0.35597
 C506 C 0.48286 -0.16092 0.33954
 C507 C 0.45973 -0.16951 0.32505
 C508 C 0.45113 -0.19702 0.32639
 C509 C 0.46464 -0.21559 0.34279
 C510 C 0.48662 -0.20689 0.35841
 C511 C 0.44533 -0.15042 0.30982
 C512 C 0.45371 -0.12280 0.30896
 C513 C 0.47732 -0.11438 0.32275
 C514 C 0.49181 -0.13351 0.33788
 C515 C 0.48569 -0.08680 0.32166
 C516 C 0.47038 -0.06757 0.30773
 C517 C 0.44635 -0.07550 0.29464
 C518 C 0.43842 -0.10336 0.29506
 H519 H 0.51397 -0.17313 0.36701
 H520 H 0.43368 -0.20406 0.31513
 H521 H 0.45740 -0.23665 0.34392
 H522 H 0.42734 -0.15694 0.29906
 H523 H 0.50967 -0.12694 0.34883
 H524 H 0.50387 -0.08002 0.33190
 H525 H 0.47727 -0.04640 0.30737
 H526 H 0.41977 -0.10983 0.28547
 C527 C 0.97340 0.29721 0.82567
 C528 C 0.96202 0.32206 0.81718
 C529 C 0.95536 0.34201 0.83637
 C530 C 0.96056 0.33714 0.86348
 C531 C 0.97228 0.31277 0.87161
 C532 C 0.97840 0.29257 0.85294
 C533 C 0.94385 0.36668 0.82824
 C534 C 0.93925 0.37204 0.80110
 C535 C 0.94624 0.35248 0.78176
 C536 C 0.95743 0.32748 0.78992
 C537 C 0.94190 0.35833 0.75459
 C538 C 0.93066 0.38324 0.74672
 C539 C 0.92334 0.40271 0.76589
 C540 C 0.92774 0.39680 0.79310
 H541 H 0.97865 0.28183 0.81120
 H542 H 0.95580 0.35229 0.87838
 H543 H 0.97648 0.30959 0.89267
 H544 H 0.93865 0.38181 0.84305
 H545 H 0.96268 0.31239 0.77511
 H546 H 0.94727 0.34369 0.73941
 H547 H 0.92788 0.38732 0.72559
 H548 H 0.92176 0.41129 0.80819
 C549 C 0.03136 1.22911 0.83621
 C550 C 0.03843 1.20611 0.82148
 C551 C 0.01804 1.18977 0.80946
 C552 C -0.00913 1.19761 0.81155
 C553 C -0.01604 1.22041 0.82678
 C554 C 0.00412 1.23581 0.83976
 C555 C 0.02508 1.16534 0.79673
 C556 C 0.05214 1.15677 0.79667
 C557 C 0.07246 1.17370 0.80818
 C558 C 0.06554 1.19841 0.82005
 C559 C 0.09934 1.16513 0.80874
 C560 C 0.10595 1.13944 0.79918
 C561 C 0.08595 1.12204 0.78844
 C562 C 0.05915 1.13107 0.78644
 H563 H 0.04717 1.24066 0.84619
 H564 H -0.02509 1.18545 0.80241
 H565 H -0.03718 1.22524 0.82946
 H566 H 0.00942 1.15246 0.78795
 H567 H 0.08113 1.21102 0.82930
 H568 H 0.11512 1.17792 0.81739
 H569 H 0.12674 1.13287 0.80058
 H570 H 0.04366 1.11761 0.77824
 C571 C 0.50608 0.71393 0.36308
 C572 C 0.51825 0.69288 0.34872
 C573 C 0.54122 0.69885 0.33254
 C574 C 0.55101 0.72593 0.33032
 C575 C 0.53867 0.74675 0.34463
 C576 C 0.51668 0.74075 0.36165
 C577 C 0.55415 0.67765 0.31909
 C578 C 0.54438 0.65056 0.32157
 C579 C 0.52099 0.64473 0.33717
 C580 C 0.50806 0.66592 0.35063
 C581 C 0.51113 0.61771 0.33935
 C582 C 0.52459 0.59653 0.32667
 C583 C 0.54830 0.60188 0.31165
 C584 C 0.55789 0.62912 0.30902
 H585 H 0.48854 0.70926 0.37547
 H586 H 0.56840 0.73095 0.31779
 H587 H 0.54675 0.76747 0.34296
 H588 H 0.57197 0.68218 0.30696
 H589 H 0.49033 0.66137 0.36289
 H590 H 0.49309 0.61291 0.35103
 H591 H 0.51638 0.57589 0.32863
 H592 H 0.57631 0.63363 0.29785
 C593 C 0.51275 0.29628 0.17051
 C594 C 0.52267 0.32200 0.17895
 C595 C 0.53544 0.33998 0.16015
 C596 C 0.53770 0.33234 0.13336
 C597 C 0.52780 0.30695 0.12522
 C598 C 0.51550 0.28875 0.14364
 C599 C 0.54611 0.36523 0.16838
 C600 C 0.54436 0.37288 0.19520
 C601 C 0.53116 0.35537 0.21404
 C602 C 0.52036 0.32999 0.20579
 C603 C 0.52937 0.36349 0.24084
 C604 C 0.54113 0.38836 0.24895
 C605 C 0.55496 0.40541 0.23041
 C606 C 0.55607 0.39768 0.20348
 H607 H 0.50323 0.28219 0.18472
 H608 H 0.54734 0.34590 0.11874
 H609 H 0.52999 0.30136 0.10441
 H610 H 0.55613 0.37877 0.15394
 H611 H 0.51048 0.31639 0.22025
 H612 H 0.51925 0.35045 0.25559
 H613 H 0.54010 0.39390 0.26985
 H614 H 0.56630 0.41095 0.18896
 C615 C 0.01640 0.80824 0.65685
 C616 C 0.03061 0.83017 0.66872
 C617 C 0.05872 0.83357 0.66387
 C618 C 0.07217 0.81498 0.64771
 C619 C 0.05797 0.79330 0.63615
 C620 C 0.03005 0.78956 0.64067
 C621 C 0.07296 0.85574 0.67484
 C622 C 0.05960 0.87454 0.69090
 C623 C 0.03164 0.87108 0.69630
 C624 C 0.01723 0.84896 0.68503
 C625 C 0.01868 0.88990 0.71281
 C626 C 0.03331 0.91185 0.72387
 C627 C 0.06114 0.91553 0.71842
 C628 C 0.07396 0.89679 0.70162
 H629 H -0.00530 0.80632 0.65952
 H630 H 0.09366 0.81743 0.64367
 H631 H 0.06904 0.78004 0.62312
 H632 H 0.09446 0.85839 0.67084
 H633 H -0.00429 0.84640 0.68892
 H634 H -0.00272 0.88756 0.71731
 H635 H 0.02289 0.92572 0.73695
 H636 H 0.09518 0.89963 0.69652
 C637 C 0.99633 0.70797 0.63899
 C638 C 0.98301 0.68800 0.65479
 C639 C 0.96780 0.69590 0.67734
 C640 C 0.96653 0.72373 0.68381
 C641 C 0.97990 0.74352 0.66788
 C642 C 0.99493 0.73580 0.64542
 C643 C 0.95376 0.67592 0.69268
 C644 C 0.95461 0.64819 0.68556
 C645 C 0.97015 0.64038 0.66317
 C646 C 0.98429 0.66029 0.64800
 C647 C 0.97098 0.61278 0.65600
 C648 C 0.95614 0.59307 0.67051
 C649 C 0.94026 0.60048 0.69261
 C650 C 0.93981 0.62816 0.70017
 H651 H 1.00712 0.70172 0.62126
 H652 H 0.95488 0.73023 0.70094
 H653 H 0.97804 0.76481 0.67298
 H654 H 0.94188 0.68198 0.70985
 H655 H 0.99600 0.65426 0.63070
 H656 H 0.98275 0.60649 0.63887
 H657 H 0.95652 0.57204 0.66392
 H658 H 0.92786 0.63412 0.71731
 C659 C 0.46335 0.22378 0.15827
 C660 C 0.45376 0.20184 0.17422
 C661 C 0.47208 0.18682 0.19003
 C662 C 0.49945 0.19494 0.19058
 C663 C 0.50887 0.21663 0.17434
 C664 C 0.49110 0.23055 0.15736
 C665 C 0.46293 0.16341 0.20420
 C666 C 0.43576 0.15460 0.20237
 C667 C 0.41729 0.17028 0.18735
 C668 C 0.42634 0.19393 0.17360
 C669 C 0.39020 0.16156 0.18554
 C670 C 0.38168 0.13689 0.19744
 C671 C 0.40005 0.12041 0.21143
 C672 C 0.42697 0.12983 0.21445
 H673 H 0.44926 0.23475 0.14577
 H674 H 0.51376 0.18391 0.20283
 H675 H 0.53023 0.22166 0.17445
 H676 H 0.47711 0.15154 0.21585
 H677 H 0.41225 0.20555 0.16159
 H678 H 0.37571 0.17349 0.17436
 H679 H 0.36069 0.13048 0.19537
 H680 H 0.44138 0.11730 0.22508
 C681 C 0.36217 0.46572 -0.19889
 C682 C 0.34662 0.45860 -0.17630
 C683 C 0.31866 0.46420 -0.17587
 C684 C 0.30692 0.47722 -0.19803
 C685 C 0.32273 0.48445 -0.22043
 C686 C 0.35051 0.47892 -0.22093
 C687 C 0.30291 0.45621 -0.15355
 C688 C 0.31486 0.44275 -0.13171
 C689 C 0.34297 0.43772 -0.13204
 C690 C 0.35863 0.44562 -0.15433
 C691 C 0.35496 0.42451 -0.11020
 C692 C 0.33922 0.41583 -0.08838
 C693 C 0.31117 0.42015 -0.08797
 C694 C 0.29913 0.43388 -0.10967
 H695 H 0.38323 0.46027 -0.19940
 H696 H 0.28547 0.48151 -0.19819
 H697 H 0.31296 0.49372 -0.23748
 H698 H 0.28138 0.46019 -0.15331
 H699 H 0.38014 0.44146 -0.15466
 H700 H 0.37648 0.42053 -0.11016
 H701 H 0.34889 0.40501 -0.07210
 H702 H 0.27755 0.43753 -0.10942
 C703 C 0.86476 0.98274 0.29670
 C704 C 0.84870 0.97806 0.31947
 C705 C 0.82019 0.97684 0.31710
 C706 C 0.80833 0.98056 0.29184
 C707 C 0.82461 0.98501 0.26915
 C708 C 0.85288 0.98612 0.27150
 C709 C 0.80416 0.97129 0.33987
 C710 C 0.81637 0.96638 0.36479
 C711 C 0.84489 0.96786 0.36703
 C712 C 0.86083 0.97396 0.34445
 C713 C 0.85712 0.96246 0.39170
 C714 C 0.84137 0.95468 0.41382
 C715 C 0.81297 0.95260 0.41192
 C716 C 0.80060 0.95917 0.38734
 H717 H 0.88661 0.98314 0.29855
 H718 H 0.78653 0.97954 0.28958
 H719 H 0.81506 0.98705 0.24981
 H720 H 0.78229 0.97009 0.33806
 H721 H 0.88273 0.97487 0.34619
 H722 H 0.87896 0.96342 0.39370
 H723 H 0.85165 0.94928 0.43217
 H724 H 0.77875 0.95814 0.38556
 C725 C 0.83850 0.01829 1.20825
 C726 C 0.82751 0.02577 1.18342
 C727 C 0.83485 0.01136 1.16018
 C728 C 0.85234 -0.01078 1.16231
 C729 C 0.86350 -0.01776 1.18701
 C730 C 0.85732 -0.00280 1.21000
 C731 C 0.82516 0.01970 1.13511
 C732 C 0.80856 0.04257 1.13290
 C733 C 0.80073 0.05664 1.15621
 C734 C 0.81006 0.04800 1.18134
 C735 C 0.78420 0.07952 1.15391
 C736 C 0.77610 0.08886 1.12874
 C737 C 0.78433 0.07550 1.10536
 C738 C 0.80023 0.05203 1.10768
 H739 H 0.83302 0.02943 1.22604
 H740 H 0.85796 -0.02225 1.14477
 H741 H 0.87747 -0.03449 1.18775
 H742 H 0.83110 0.00883 1.11727
 H743 H 0.80436 0.05904 1.19916
 H744 H 0.77783 0.09043 1.17155
 H745 H 0.76336 0.10664 1.12756
 H746 H 0.80691 0.04167 1.08982
 C747 C 0.35277 0.49461 0.69569
 C748 C 0.33983 0.50917 0.67515
 C749 C 0.32634 0.53366 0.68115
 C750 C 0.32574 0.54295 0.70759
 C751 C 0.33882 0.52842 0.72783
 C752 C 0.35253 0.50430 0.72204
 C753 C 0.31411 0.54874 0.66059
 C754 C 0.31543 0.53981 0.63403
 C755 C 0.32860 0.51517 0.62803
 C756 C 0.34063 0.49994 0.64865
 C757 C 0.32982 0.50638 0.60142
 C758 C 0.31854 0.52210 0.58088
 C759 C 0.30585 0.54691 0.58656
 C760 C 0.30410 0.55541 0.61331
 H761 H 0.36357 0.47618 0.69095
 H762 H 0.31553 0.56169 0.71255
 H763 H 0.33867 0.53631 0.74800
 H764 H 0.30397 0.56763 0.66519
 H765 H 0.35094 0.48114 0.64402
 H766 H 0.33981 0.48753 0.59645
 H767 H 0.32033 0.51519 0.56045
 H768 H 0.29394 0.57425 0.61802
 C769 C 0.14897 0.53309 0.29143
 C770 C 0.16272 0.53861 0.31534
 C771 C 0.17880 0.51821 0.32731
 C772 C 0.18109 0.49274 0.31488
 C773 C 0.16769 0.48762 0.29080
 C774 C 0.15167 0.50774 0.27891
 C775 C 0.19236 0.52365 0.35139
 C776 C 0.19051 0.54944 0.36333
 C777 C 0.17481 0.56997 0.35100
 C778 C 0.16078 0.56432 0.32731
 C779 C 0.17361 0.59599 0.36243
 C780 C 0.18799 0.60175 0.38572
 C781 C 0.20339 0.58149 0.39827
 C782 C 0.20441 0.55524 0.38718
 H783 H 0.13625 0.54857 0.28271
 H784 H 0.19331 0.47684 0.32371
 H785 H 0.16973 0.46783 0.28151
 H786 H 0.20456 0.50795 0.36065
 H787 H 0.14864 0.58004 0.31799
 H788 H 0.16177 0.61196 0.35320
 H789 H 0.18701 0.62206 0.39412
 H790 H 0.21648 0.53967 0.39679
 C791 C 0.63526 0.00284 0.81004
 C792 C 0.65251 0.01077 0.83075
 C793 C 0.68085 0.01108 0.82672
 C794 C 0.69132 0.00282 0.80192
 C795 C 0.67379 -0.00483 0.78115
 C796 C 0.64569 -0.00430 0.78505
 C797 C 0.69802 0.02015 0.84734
 C798 C 0.68704 0.02940 0.87159
 C799 C 0.65864 0.02872 0.87540
 C800 C 0.64163 0.01914 0.85513
 C801 C 0.64750 0.03834 0.89919
 C802 C 0.66420 0.04931 0.91887
 C803 C 0.69252 0.05047 0.91551
 C804 C 0.70383 0.04002 0.89183
 H805 H 0.61350 0.00307 0.81311
 H806 H 0.71298 0.00273 0.79846
 H807 H 0.68217 -0.01075 0.76210
 H808 H 0.71978 0.02066 0.84428
 H809 H 0.61984 0.01890 0.85807
 H810 H 0.62576 0.03809 0.90228
 H811 H 0.65468 0.05779 0.93639
 H812 H 0.72559 0.04050 0.88895
 C813 C 0.65489 0.98790 0.71185
 C814 C 0.66473 0.97674 0.68788
 C815 C 0.65389 0.95146 0.67884
 C816 C 0.63339 0.93799 0.69345
 C817 C 0.62380 0.94915 0.71704
 C818 C 0.63473 0.97384 0.72675
 C819 C 0.66361 0.93991 0.65530
 C820 C 0.68420 0.95313 0.64055
 C821 C 0.69503 0.97851 0.64917
 C822 C 0.68518 0.99024 0.67282
 C823 C 0.71565 0.99151 0.63401
 C824 C 0.72571 0.97918 0.61090
 C825 C 0.71535 0.95365 0.60261
 C826 C 0.69428 0.94103 0.61740
 H827 H 0.66286 1.00733 0.71890
 H828 H 0.62466 0.91880 0.68659
 H829 H 0.60751 0.93837 0.72737
 H830 H 0.65528 0.92047 0.64856
 H831 H 0.69353 1.00965 0.67956
 H832 H 0.72421 1.01101 0.64020
 H833 H 0.74203 0.98929 0.59986
 H834 H 0.68572 0.92162 0.61088
 C835 C 0.14497 0.49159 0.19325
 C836 C 0.16084 0.48372 0.17151
 C837 C 0.18891 0.47985 0.17493
 C838 C 0.20075 0.48516 0.19992
 C839 C 0.18463 0.49281 0.22162
 C840 C 0.15660 0.49527 0.21849
 C841 C 0.20436 0.46969 0.15369
 C842 C 0.19186 0.46279 0.12938
 C843 C 0.16392 0.46761 0.12586
 C844 C 0.14870 0.47838 0.14680
 C845 C 0.15128 0.46043 0.10184
 C846 C 0.16577 0.44717 0.08200
 C847 C 0.19323 0.44121 0.08565
 C848 C 0.20646 0.44991 0.10901
 H849 H 0.12326 0.49349 0.19085
 H850 H 0.22227 0.48252 0.20290
 H851 H 0.19397 0.49581 0.24093
 H852 H 0.22579 0.46611 0.15644
 H853 H 0.12716 0.48148 0.14424
 H854 H 0.12995 0.46416 0.09879
 H855 H 0.15535 0.44091 0.06398
 H856 H 0.22761 0.44520 0.11198
 C857 C -0.20711 0.34753 0.49148
 C858 C -0.18727 0.33406 0.47668
 C859 C -0.19409 0.32243 0.45173
 C860 C -0.22067 0.32410 0.44223
 C861 C -0.24028 0.33737 0.45719
 C862 C -0.23367 0.34920 0.48181
 C863 C -0.17421 0.30955 0.43657
 C864 C -0.14760 0.30803 0.44604
 C865 C -0.14081 0.31926 0.47114
 C866 C -0.16069 0.33225 0.48630
 C867 C -0.11418 0.31749 0.48053
 C868 C -0.09437 0.30501 0.46506
 C869 C -0.10079 0.29412 0.43988
 C870 C -0.12758 0.29567 0.43060
 H871 H -0.20170 0.35689 0.51029
 H872 H -0.22625 0.31532 0.42317
 H873 H -0.26063 0.33875 0.44934
 H874 H -0.17942 0.30084 0.41734
 H875 H -0.15546 0.34107 0.50547
 H876 H -0.10864 0.32584 0.49979
 H877 H -0.07400 0.30378 0.47287
 H878 H -0.13278 0.28785 0.41103
 C879 C 0.30535 0.83131 0.97230
 C880 C 0.33006 0.81900 0.96613
 C881 C 0.35471 0.83252 0.97258
 C882 C 0.35423 0.85737 0.98621
 C883 C 0.32959 0.86902 0.99297
 C884 C 0.30495 0.85640 0.98574
 C885 C 0.37943 0.82110 0.96518
 C886 C 0.37989 0.79593 0.95199
 C887 C 0.35534 0.78171 0.94675
 C888 C 0.33054 0.79346 0.95355
 C889 C 0.35601 0.75604 0.93459
 C890 C 0.38070 0.74488 0.92706
 C891 C 0.40529 0.75941 0.93089
 C892 C 0.40457 0.78493 0.94374
 H893 H 0.28654 0.82128 0.96666
 H894 H 0.37292 0.86788 0.99157
 H895 H 0.33012 0.88821 1.00342
 H896 H 0.39828 0.83183 0.96964
 H897 H 0.31168 0.78280 0.94901
 H898 H 0.33743 0.74460 0.93085
 H899 H 0.38040 0.72482 0.91809
 H900 H 0.42306 0.79675 0.94669
 C901 C 1.21865 0.86174 0.00741
 C902 C 1.19683 0.84543 0.01651
 C903 C 1.20076 0.81746 0.02259
 C904 C 1.22676 0.80655 0.02010
 C905 C 1.24856 0.82319 0.01153
 C906 C 1.24450 0.85072 0.00473
 C907 C 1.17877 0.80105 0.03142
 C908 C 1.15313 0.81251 0.03500
 C909 C 1.14950 0.84064 0.02948
 C910 C 1.17124 0.85681 0.01990
 C911 C 1.12428 0.85232 0.03408
 C912 C 1.10289 0.83646 0.04452
 C913 C 1.10590 0.80829 0.04988
 C914 C 1.13119 0.79644 0.04458
 H915 H 1.21559 0.88316 0.00258
 H916 H 1.23027 0.78526 0.02506
 H917 H 1.26850 0.81451 0.01049
 H918 H 1.18172 0.77954 0.03597
 H919 H 1.16835 0.87837 0.01552
 H920 H 1.12127 0.87393 0.03025
 H921 H 1.08419 0.84666 0.04903
 H922 H 1.13402 0.77477 0.04807
 C923 C 0.69260 0.35372 0.52944
 C924 C 0.67083 0.33682 0.53757
 C925 C 0.66864 0.30977 0.52793
 C926 C 0.68841 0.30018 0.51031
 C927 C 0.70987 0.31737 0.50203
 C928 C 0.71182 0.34440 0.51115
 C929 C 0.64681 0.29283 0.53609
 C930 C 0.62699 0.30277 0.55349
 C931 C 0.62917 0.32994 0.56291
 C932 C 0.65117 0.34668 0.55508
 C933 C 0.60920 0.34002 0.57994
 C934 C 0.58718 0.32341 0.58756
 C935 C 0.58483 0.29635 0.57847
 C936 C 0.60491 0.28607 0.56152
 H937 H 0.69470 0.37407 0.53766
 H938 H 0.68723 0.27944 0.50288
 H939 H 0.72484 0.30933 0.48859
 H940 H 0.64516 0.27204 0.52877
 H941 H 0.65284 0.36748 0.56238
 H942 H 0.61059 0.36077 0.58734
 H943 H 0.57211 0.33160 0.60091
 H944 H 0.60310 0.26526 0.55431
 C945 C 0.28533 0.15054 0.50040
 C946 C 0.30601 0.16433 0.51421
 C947 C 0.30010 0.17735 0.53863
 C948 C 0.27351 0.17671 0.54856
 C949 C 0.25311 0.16268 0.53478
 C950 C 0.25886 0.14948 0.51068
 C951 C 0.32098 0.18998 0.55316
 C952 C 0.34778 0.18927 0.54385
 C953 C 0.35363 0.17668 0.51920
 C954 C 0.33267 0.16449 0.50442
 C955 C 0.38049 0.17585 0.51011
 C956 C 0.40148 0.18654 0.52572
 C957 C 0.39596 0.19840 0.55061
 C958 C 0.36893 0.20022 0.55923
 H959 H 0.29023 0.13980 0.48225
 H960 H 0.26863 0.18642 0.56732
 H961 H 0.23296 0.16142 0.54338
 H962 H 0.31650 0.19964 0.57208
 H963 H 0.33720 0.15452 0.48568
 H964 H 0.38533 0.16631 0.49126
 H965 H 0.42214 0.18470 0.51873
 H966 H 0.36440 0.20975 0.57818
 C967 C 0.80403 0.64256 0.01693
 C968 C 0.82847 0.65218 0.02822
 C969 C 0.84279 0.63517 0.04615
 C970 C 0.83277 0.60885 0.05221
 C971 C 0.80886 0.59933 0.04056
 C972 C 0.79427 0.61599 0.02292
 C973 C 0.86695 0.64461 0.05773
 C974 C 0.87733 0.67077 0.05140
 C975 C 0.86342 0.68770 0.03312
 C976 C 0.83895 0.67839 0.02178
 C977 C 0.87428 0.71367 0.02652
 C978 C 0.89853 0.72282 0.03807
 C979 C 0.91221 0.70629 0.05663
 C980 C 0.90148 0.68021 0.06311
 H981 H 0.79292 0.65565 0.00351
 H982 H 0.84350 0.59553 0.06585
 H983 H 0.80171 0.57882 0.04557
 H984 H 0.87773 0.63155 0.07162
 H985 H 0.82818 0.69144 0.00789
 H986 H 0.86398 0.72693 0.01250
 H987 H 0.90634 0.74307 0.03293
 H988 H 0.91208 0.66718 0.07713
 C989 C 0.71012 0.62392 1.00470
 C990 C 0.68967 0.63890 0.99230
 C991 C 0.69636 0.65756 0.97139
 C992 C 0.72358 0.66136 0.96380
 C993 C 0.74379 0.64584 0.97591
 C994 C 0.73718 0.62671 0.99617
 C995 C 0.67564 0.67113 0.95771
 C996 C 0.64834 0.66567 0.96426
 C997 C 0.64178 0.64737 0.98553
 C998 C 0.66249 0.63438 0.99961
 C999 C 0.61456 0.64171 0.99186
 C1000 C 0.59393 0.65341 0.97679
 C1001 C 0.60010 0.67116 0.95520
 C1002 C 0.62746 0.67758 0.94939
 H1003 H 0.70445 0.60891 1.01987
 H1004 H 0.72910 0.67544 0.94769
 H1005 H 0.76429 0.64764 0.96831
 H1006 H 0.68071 0.68515 0.94139
 H1007 H 0.65740 0.62002 1.01565
 H1008 H 0.60922 0.62772 1.00810
 H1009 H 0.57312 0.64790 0.98157
 H1010 H 0.63251 0.69161 0.93309
 C1011 C 0.18313 0.13668 0.46758
 C1012 C 0.16094 0.15170 0.45877
 C1013 C 0.15767 0.17886 0.46754
 C1014 C 0.17684 0.19050 0.48487
 C1015 C 0.19910 0.17544 0.49329
 C1016 C 0.20220 0.14833 0.48497
 C1017 C 0.13565 0.19406 0.45842
 C1018 C 0.11716 0.18256 0.44028
 C1019 C 0.12059 0.15541 0.43144
 C1020 C 0.14231 0.14010 0.44090
 C1021 C 0.10242 0.14412 0.41294
 C1022 C 0.08126 0.15968 0.40295
 C1023 C 0.07772 0.18669 0.41148
 C1024 C 0.09556 0.19793 0.43041
 H1025 H 0.18595 0.11614 0.46022
 H1026 H 0.17484 0.21139 0.49158
 H1027 H 0.21390 0.18527 0.50597
 H1028 H 0.13316 0.21493 0.46508
 H1029 H 0.14494 0.11930 0.43408
 H1030 H 0.10474 0.12335 0.40600
 H1031 H 0.06753 0.15058 0.38857
 H1032 H 0.09306 0.21886 0.43687
 C1033 C 0.58233 0.02012 0.73037
 C1034 C 0.57046 0.04487 0.72240
 C1035 C 0.57881 0.06965 0.73457
 C1036 C 0.59866 0.06931 0.75445
 C1037 C 0.61066 0.04480 0.76184
 C1038 C 0.60263 0.02007 0.74994
 C1039 C 0.56780 0.09451 0.72622
 C1040 C 0.54892 0.09513 0.70542
 C1041 C 0.54037 0.07045 0.69326
 C1042 C 0.55098 0.04541 0.70202
 C1043 C 0.52179 0.07134 0.67213
 C1044 C 0.51234 0.09647 0.66272
 C1045 C 0.52107 0.12114 0.67444
 C1046 C 0.53907 0.12022 0.69610
 H1047 H 0.57637 0.00109 0.72088
 H1048 H 0.60541 0.08812 0.76383
 H1049 H 0.62665 0.04558 0.77650
 H1050 H 0.57443 0.11347 0.73548
 H1051 H 0.54458 0.02649 0.69256
 H1052 H 0.51491 0.05266 0.66259
 H1053 H 0.49824 0.09665 0.64617
 H1054 H 0.54621 0.13913 0.70504
 C1055 C 1.12233 0.55391 0.23061
 C1056 C 1.10632 0.57497 0.22041
 C1057 C 1.07846 0.56997 0.21565
 C1058 C 1.06705 0.54412 0.22175
 C1059 C 1.08317 0.52331 0.23209
 C1060 C 1.11085 0.52809 0.23658
 C1061 C 1.06262 0.59069 0.20443
 C1062 C 1.07430 0.61636 0.19798
 C1063 C 1.10202 0.62152 0.20339
 C1064 C 1.11784 0.60079 0.21452
 C1065 C 1.11356 0.64726 0.19727
 C1066 C 1.09797 0.66760 0.18543
 C1067 C 1.07058 0.66254 0.17936
 C1068 C 1.05880 0.63688 0.18590
 H1069 H 1.14386 0.55745 0.23354
 H1070 H 1.04577 0.53986 0.21815
 H1071 H 1.07403 0.50335 0.23585
 H1072 H 1.04134 0.58674 0.20044
 H1073 H 1.13918 0.60467 0.21834
 H1074 H 1.13475 0.65157 0.20133
 H1075 H 1.10755 0.68710 0.18033
 H1076 H 1.03761 0.63292 0.18152
 C1077 C 0.91818 0.95763 0.22284
 C1078 C 0.92995 0.93258 0.21642
 C1079 C 0.91807 0.90780 0.22615
 C1080 C 0.89518 0.90855 0.24276
 C1081 C 0.88336 0.93350 0.24864
 C1082 C 0.89448 0.95808 0.23837
 C1083 C 0.92856 0.88266 0.21830
 C1084 C 0.95045 0.88191 0.20040
 C1085 C 0.96283 0.90665 0.19125
 C1086 C 0.95265 0.93184 0.19951
 C1087 C 0.98471 0.90576 0.17335
 C1088 C 0.99360 0.88067 0.16383
 C1089 C 0.98082 0.85602 0.17210
 C1090 C 0.95957 0.85681 0.19084
 H1091 H 0.92659 0.97662 0.21468
 H1092 H 0.88585 0.88978 0.25041
 H1093 H 0.86493 0.93338 0.26041
 H1094 H 0.91912 0.86368 0.22539
 H1095 H 0.96183 0.95081 0.19209
 H1096 H 0.99450 0.92449 0.16617
 H1097 H 1.00988 0.88060 0.14926
 H1098 H 0.94984 0.83787 0.19760
 C1099 C 0.40818 0.44491 0.73200
 C1100 C 0.41430 0.41823 0.72393
 C1101 C 0.39311 0.39868 0.72050
 C1102 C 0.36624 0.40611 0.72501
 C1103 C 0.36038 0.43259 0.73302
 C1104 C 0.38122 0.45202 0.73677
 C1105 C 0.39902 0.37207 0.71244
 C1106 C 0.42583 0.36475 0.70734
 C1107 C 0.44706 0.38421 0.71071
 C1108 C 0.44120 0.41079 0.71914
 C1109 C 0.47378 0.37684 0.70515
 C1110 C 0.47932 0.35072 0.69561
 C1111 C 0.45830 0.33130 0.69178
 C1112 C 0.43162 0.33841 0.69831
 H1113 H 0.42430 0.45998 0.73445
 H1114 H 0.34976 0.39144 0.72238
 H1115 H 0.33946 0.43787 0.73652
 H1116 H 0.38272 0.35716 0.70976
 H1117 H 0.45749 0.42573 0.72169
 H1118 H 0.49032 0.39148 0.70755
 H1119 H 0.50001 0.34611 0.69037
 H1120 H 0.41523 0.32359 0.69594
 C1121 C 0.40373 0.53572 0.75113
 C1122 C 0.42322 0.55326 0.76257
 C1123 C 0.44144 0.54282 0.78171
 C1124 C 0.44078 0.51478 0.78797
 C1125 C 0.42110 0.49758 0.77671
 C1126 C 0.40172 0.50808 0.75908
 C1127 C 0.45936 0.56068 0.79493
 C1128 C 0.45885 0.58895 0.78965
 C1129 C 0.44140 0.59924 0.76971
 C1130 C 0.42390 0.58129 0.75609
 C1131 C 0.44095 0.62749 0.76450
 C1132 C 0.45653 0.64553 0.77986
 C1133 C 0.47294 0.63565 0.80062
 C1134 C 0.47463 0.60721 0.80483
 H1135 H 0.38954 0.54404 0.73695
 H1136 H 0.45496 0.50628 0.80217
 H1137 H 0.42093 0.47613 0.78215
 H1138 H 0.47290 0.55273 0.81007
 H1139 H 0.41004 0.58930 0.74127
 H1140 H 0.42780 0.63572 0.74921
 H1141 H 0.45471 0.66733 0.77634
 H1142 H 0.48753 0.59935 0.82054
 C1143 C -0.10787 0.04647 0.24389
 C1144 C -0.09280 0.06858 0.25407
 C1145 C -0.07009 0.06359 0.27042
 C1146 C -0.06230 0.03654 0.27543
 C1147 C -0.07768 0.01465 0.26544
 C1148 C -0.10085 0.01944 0.25008
 C1149 C -0.05621 0.08561 0.28227
 C1150 C -0.06513 0.11249 0.27841
 C1151 C -0.08732 0.11753 0.26137
 C1152 C -0.10085 0.09556 0.24909
 C1153 C -0.09618 0.14441 0.25760
 C1154 C -0.08393 0.16599 0.27147
 C1155 C -0.06258 0.16106 0.28927
 C1156 C -0.05283 0.13430 0.29208
 H1157 H -0.12562 0.05055 0.23210
 H1158 H -0.04489 0.03231 0.28784
 H1159 H -0.07198 -0.00605 0.27056
 H1160 H -0.03911 0.08176 0.29525
 H1161 H -0.11822 0.09938 0.23645
 H1162 H -0.11309 0.14864 0.24453
 H1163 H -0.09185 0.18639 0.26906
 H1164 H -0.03604 0.13038 0.30542
 C1165 C 0.09333 0.46494 0.27141
 C1166 C 0.08026 0.43960 0.27654
 C1167 C 0.08935 0.41586 0.26352
 C1168 C 0.11079 0.41794 0.24518
 C1169 C 0.12339 0.44320 0.23996
 C1170 C 0.11481 0.46685 0.25299
 C1171 C 0.07723 0.39033 0.26932
 C1172 C 0.05601 0.38813 0.28791
 C1173 C 0.04624 0.41189 0.30035
 C1174 C 0.05848 0.43750 0.29464
 C1175 C 0.02467 0.40951 0.31863
 C1176 C 0.01347 0.38376 0.32512
 C1177 C 0.02378 0.35998 0.31359
 C1178 C 0.04477 0.36239 0.29465
 H1179 H 0.08694 0.48311 0.28178
 H1180 H 0.11804 0.39995 0.23508
 H1181 H 0.14027 0.44391 0.22613
 H1182 H 0.08457 0.37211 0.25963
 H1183 H 0.05129 0.45568 0.30448
 H1184 H 0.01680 0.42748 0.32826
 H1185 H -0.00260 0.38231 0.33991
 H1186 H 0.05260 0.34413 0.28547
 C1187 C 0.61248 0.93666 0.78194
 C1188 C 0.59783 0.91457 0.79302
 C1189 C 0.56959 0.91654 0.79702
 C1190 C 0.55659 0.94088 0.78965
 C1191 C 0.57146 0.96281 0.77816
 C1192 C 0.59941 0.96059 0.77411
 C1193 C 0.55499 0.89415 0.80814
 C1194 C 0.56836 0.86985 0.81499
 C1195 C 0.59660 0.86811 0.81064
 C1196 C 0.61111 0.89046 0.79982
 C1197 C 0.61003 0.84399 0.81715
 C1198 C 0.59577 0.82175 0.82818
 C1199 C 0.56779 0.82316 0.83310
 C1200 C 0.55409 0.84727 0.82620
 H1201 H 0.63415 0.93502 0.77886
 H1202 H 0.53497 0.94285 0.79257
 H1203 H 0.56116 0.98131 0.77237
 H1204 H 0.53333 0.89557 0.81135
 H1205 H 0.63278 0.88904 0.79657
 H1206 H 0.63162 0.84231 0.81371
 H1207 H 0.60669 0.80326 0.83274
 H1208 H 0.53254 0.84864 0.83001
 C1209 C 0.74163 0.59585 0.06007
 C1210 C 0.72817 0.58285 0.08150
 C1211 C 0.71916 0.55534 0.07911
 C1212 C 0.72427 0.54126 0.05526
 C1213 C 0.73781 0.55449 0.03392
 C1214 C 0.74630 0.58187 0.03623
 C1215 C 0.70507 0.54257 0.10047
 C1216 C 0.70000 0.55701 0.12411
 C1217 C 0.70943 0.58441 0.12644
 C1218 C 0.72338 0.59713 0.10513
 C1219 C 0.70468 0.59878 0.15004
 C1220 C 0.69063 0.58622 0.17123
 C1221 C 0.68093 0.55911 0.16920
 C1222 C 0.68564 0.54458 0.14551
 H1223 H 0.74816 0.61708 0.06178
 H1224 H 0.71758 0.52016 0.05305
 H1225 H 0.74123 0.54351 0.01555
 H1226 H 0.69797 0.52153 0.09866
 H1227 H 0.73042 0.61821 0.10690
 H1228 H 0.71176 0.61979 0.15209
 H1229 H 0.68697 0.59790 0.18914
 H1230 H 0.67843 0.52357 0.14389
 C1231 C 0.23623 1.09722 0.54278
 C1232 C 0.22522 1.08196 0.56424
 C1233 C 0.19981 1.06854 0.56136
 C1234 C 0.18651 1.06970 0.53662
 C1235 C 0.19729 1.08569 0.51560
 C1236 C 0.22165 1.10046 0.51892
 C1237 C 0.18767 1.05523 0.58352
 C1238 C 0.20028 1.05593 0.60867
 C1239 C 0.22601 1.06879 0.61131
 C1240 C 0.23851 1.08131 0.58898
 C1241 C 0.23841 1.06983 0.63647
 C1242 C 0.22505 1.05915 0.65904
 C1243 C 0.19914 1.04699 0.65688
 C1244 C 0.18713 1.04492 0.63145
 H1245 H 0.25551 1.10773 0.54535
 H1246 H 0.16717 1.05927 0.53391
 H1247 H 0.18593 1.08735 0.49726
 H1248 H 0.16796 1.04534 0.58144
 H1249 H 0.25801 1.09164 0.59116
 H1250 H 0.25819 1.07948 0.63880
 H1251 H 0.23491 1.06058 0.67831
 H1252 H 0.16704 1.03584 0.62955
 C1253 C 0.25411 0.91514 0.95550
 C1254 C 0.24263 0.92395 0.93123
 C1255 C 0.23550 0.90446 0.91160
 C1256 C 0.24050 0.87671 0.91625
 C1257 C 0.25215 0.86823 0.94023
 C1258 C 0.25903 0.88724 0.96002
 C1259 C 0.22307 0.91288 0.88782
 C1260 C 0.21780 0.94060 0.88320
 C1261 C 0.22558 0.96029 0.90239
 C1262 C 0.23783 0.95183 0.92636
 C1263 C 0.22070 0.98808 0.89732
 C1264 C 0.20778 0.99621 0.87374
 C1265 C 0.19926 0.97666 0.85500
 C1266 C 0.20457 0.94890 0.85977
 H1267 H 0.25857 0.92991 0.97089
 H1268 H 0.23510 0.86150 0.90148
 H1269 H 0.25510 0.84658 0.94352
 H1270 H 0.21729 0.89782 0.87299
 H1271 H 0.24346 0.96687 0.94125
 H1272 H 0.22662 1.00349 0.91170
 H1273 H 0.20376 1.01770 0.87046
 H1274 H 0.19833 0.93376 0.84521
 C1275 C 0.73883 0.40186 0.45375
 C1276 C 0.72659 0.41970 0.43545
 C1277 C 0.70187 0.43206 0.44222
 C1278 C 0.69045 0.42722 0.46758
 C1279 C 0.70261 0.40914 0.48551
 C1280 C 0.72633 0.39559 0.47840
 C1281 C 0.68858 0.44836 0.42331
 C1282 C 0.69945 0.45201 0.39751
 C1283 C 0.72459 0.44034 0.39100
 C1284 C 0.73816 0.42451 0.41011
 C1285 C 0.73529 0.44391 0.36515
 C1286 C 0.72067 0.45785 0.34558
 C1287 C 0.69517 0.46864 0.35153
 C1288 C 0.68502 0.46623 0.37781
 H1289 H 0.75767 0.39236 0.44837
 H1290 H 0.67172 0.43683 0.47328
 H1291 H 0.69301 0.40542 0.50465
 H1292 H 0.66936 0.45742 0.42836
 H1293 H 0.75719 0.41513 0.40494
 H1294 H 0.75463 0.43530 0.35987
 H1295 H 0.72913 0.45984 0.32562
 H1296 H 0.66526 0.47418 0.38259
 C1297 C 0.75545 0.41045 0.53632
 C1298 C 0.76521 0.42055 0.56073
 C1299 C 0.77364 0.40200 0.58087
 C1300 C 0.77206 0.37376 0.57633
 C1301 C 0.76221 0.36394 0.55208
 C1302 C 0.75399 0.38215 0.53197
 C1303 C 0.78355 0.41192 0.60519
 C1304 C 0.78525 0.44016 0.60969
 C1305 C 0.77673 0.45876 0.58968
 C1306 C 0.76668 0.44883 0.56533
 C1307 C 0.77872 0.48701 0.59429
 C1308 C 0.78950 0.49673 0.61829
 C1309 C 0.79825 0.47838 0.63818
 C1310 C 0.79580 0.45008 0.63379
 H1311 H 0.74897 0.42456 0.52085
 H1312 H 0.77837 0.35927 0.59155
 H1313 H 0.76094 0.34203 0.54901
 H1314 H 0.79011 0.39767 0.62056
 H1315 H 0.76021 0.46309 0.54994
 H1316 H 0.77224 0.50157 0.57923
 H1317 H 0.79106 0.51862 0.62130
 H1318 H 0.80294 0.43575 0.64878
 C1319 C 0.26953 -0.10568 0.04522
 C1320 C 0.27721 -0.08849 0.06626
 C1321 C 0.29318 -0.06474 0.06086
 C1322 C 0.30047 -0.05822 0.03434
 C1323 C 0.29303 -0.07572 0.01354
 C1324 C 0.27787 -0.09975 0.01886
 C1325 C 0.30245 -0.04855 0.08212
 C1326 C 0.29643 -0.05619 0.10870
 C1327 C 0.27989 -0.07959 0.11398
 C1328 C 0.27017 -0.09542 0.09273
 C1329 C 0.27402 -0.08727 0.14051
 C1330 C 0.28520 -0.07253 0.16169
 C1331 C 0.30235 -0.04972 0.15677
 C1332 C 0.30738 -0.04133 0.13013
 H1333 H 0.25825 -0.12439 0.04973
 H1334 H 0.31277 -0.04014 0.02981
 H1335 H 0.30022 -0.07112 -0.00653
 H1336 H 0.31510 -0.03058 0.07803
 H1337 H 0.25787 -0.11363 0.09684
 H1338 H 0.26135 -0.10513 0.14489
 H1339 H 0.28117 -0.07960 0.18196
 H1340 H 0.32022 -0.02352 0.12606
 C1341 C 0.24768 0.08757 0.45630
 C1342 C 0.25778 0.07944 0.43127
 C1343 C 0.26569 0.09962 0.41205
 C1344 C 0.26283 0.12738 0.41782
 C1345 C 0.25255 0.13520 0.44249
 C1346 C 0.24533 0.11549 0.46196
 C1347 C 0.27646 0.09183 0.38739
 C1348 C 0.27935 0.06410 0.38144
 C1349 C 0.27096 0.04381 0.40025
 C1350 C 0.26026 0.05160 0.42510
 C1351 C 0.27372 0.01610 0.39392
 C1352 C 0.28518 0.00860 0.36948
 C1353 C 0.29419 0.02866 0.35088
 C1354 C 0.29092 0.05643 0.35704
 H1355 H 0.24175 0.07234 0.47123
 H1356 H 0.26860 0.14306 0.40328
 H1357 H 0.25053 0.15682 0.44654
 H1358 H 0.28274 0.10739 0.37287
 H1359 H 0.25407 0.03604 0.43965
 H1360 H 0.26723 0.00021 0.40797
 H1361 H 0.28703 -0.01295 0.36516
 H1362 H 0.29816 0.07220 0.34322
 C1363 C 0.76141 0.58347 0.95414
 C1364 C 0.77240 0.57076 0.93166
 C1365 C 0.79434 0.55284 0.93479
 C1366 C 0.80424 0.54727 0.96054
 C1367 C 0.79351 0.56054 0.98275
 C1368 C 0.77264 0.57936 0.97960
 C1369 C 0.80650 0.54148 0.91213
 C1370 C 0.79734 0.54830 0.88636
 C1371 C 0.77502 0.56578 0.88334
 C1372 C 0.76252 0.57665 0.90600
 C1373 C 0.76597 0.57269 0.85764
 C1374 C 0.77928 0.56295 0.83507
 C1375 C 0.80184 0.54601 0.83771
 C1376 C 0.81053 0.53847 0.86353
 H1377 H 0.74478 0.59731 0.95147
 H1378 H 0.82087 0.53339 0.96339
 H1379 H 0.80218 0.55672 1.00224
 H1380 H 0.82357 0.52801 0.91450
 H1381 H 0.74566 0.59038 0.90362
 H1382 H 0.74891 0.58607 0.85498
 H1383 H 0.77234 0.56932 0.81548
 H1384 H 0.82766 0.52511 0.86584
 C1385 C 0.05595 0.72911 0.61255
 C1386 C 0.07624 0.71749 0.59697
 C1387 C 0.07568 0.72056 0.56881
 C1388 C 0.05440 0.73481 0.55679
 C1389 C 0.03436 0.74662 0.57258
 C1390 C 0.03536 0.74425 0.60053
 C1391 C 0.09662 0.70977 0.55328
 C1392 C 0.11820 0.69624 0.56563
 C1393 C 0.11846 0.69299 0.59379
 C1394 C 0.09743 0.70348 0.60924
 C1395 C 0.13997 0.67958 0.60614
 C1396 C 0.16126 0.66972 0.59083
 C1397 C 0.16151 0.67306 0.56285
 C1398 C 0.13972 0.68620 0.55034
 H1399 H 0.05664 0.72719 0.63418
 H1400 H 0.05353 0.73725 0.53523
 H1401 H 0.01847 0.75797 0.56292
 H1402 H 0.09634 0.71227 0.53169
 H1403 H 0.09779 0.70115 0.63086
 H1404 H 0.14039 0.67679 0.62768
 H1405 H 0.17748 0.65920 0.60092
 H1406 H 0.13976 0.68912 0.52881
 C1407 C 0.53831 0.23111 1.09056
 C1408 C 0.56341 0.22210 1.08079
 C1409 C 0.58659 0.22383 1.09733
 C1410 C 0.58448 0.23451 1.12305
 C1411 C 0.55964 0.24325 1.13253
 C1412 C 0.53632 0.24134 1.11666
 C1413 C 0.61161 0.21486 1.08802
 C1414 C 0.61391 0.20378 1.06245
 C1415 C 0.59097 0.20202 1.04570
 C1416 C 0.56583 0.21135 1.05491
 C1417 C 0.59360 0.19060 1.02018
 C1418 C 0.61852 0.18043 1.01169
 C1419 C 0.64129 0.18167 1.02851
 C1420 C 0.63883 0.19395 1.05366
 H1421 H 0.52061 0.23022 1.07790
 H1422 H 0.60209 0.23623 1.13584
 H1423 H 0.55884 0.25206 1.15229
 H1424 H 0.62927 0.21619 1.10084
 H1425 H 0.54818 0.20996 1.04212
 H1426 H 0.57628 0.18904 1.00699
 H1427 H 0.61975 0.17088 0.99229
 H1428 H 0.65632 0.19558 1.06663
 C1429 C 0.94464 0.25241 0.89230
 C1430 C 0.92531 0.23711 0.90691
 C1431 C 0.93241 0.21182 0.91865
 C1432 C 0.95913 0.20274 0.91614
 C1433 C 0.97833 0.21822 0.90145
 C1434 C 0.97114 0.24302 0.88926
 C1435 C 0.91251 0.19579 0.93199
 C1436 C 0.88566 0.20481 0.93361
 C1437 C 0.87891 0.23048 0.92239
 C1438 C 0.89875 0.24646 0.90918
 C1439 C 0.85228 0.23966 0.92418
 C1440 C 0.83226 0.22336 0.93649
 C1441 C 0.83836 0.19744 0.94714
 C1442 C 0.86531 0.18843 0.94585
 H1443 H 0.93844 0.27104 0.88242
 H1444 H 0.96499 0.18339 0.92495
 H1445 H 0.99852 0.21038 0.89884
 H1446 H 0.91779 0.17617 0.94068
 H1447 H 0.89341 0.26596 0.90025
 H1448 H 0.84687 0.25941 0.91590
 H1449 H 0.81193 0.23117 0.93774
 H1450 H 0.87036 0.16842 0.95372
 C1451 C 0.44951 0.76112 0.40542
 C1452 C 0.43022 0.74729 0.42155
 C1453 C 0.43852 0.72629 0.43925
 C1454 C 0.46607 0.72009 0.44111
 C1455 C 0.48504 0.73371 0.42472
 C1456 C 0.47679 0.75365 0.40624
 C1457 C 0.41914 0.71134 0.45424
 C1458 C 0.39149 0.71674 0.45136
 C1459 C 0.38323 0.73818 0.43417
 C1460 C 0.40266 0.75350 0.41957
 C1461 C 0.35557 0.74340 0.43126
 C1462 C 0.33622 0.72691 0.44446
 C1463 C 0.34413 0.70499 0.46097
 C1464 C 0.37192 0.70047 0.46478
 H1465 H 0.44307 0.77709 0.39185
 H1466 H 0.47284 0.70423 0.45471
 H1467 H 0.50610 0.72802 0.42584
 H1468 H 0.42550 0.69496 0.46750
 H1469 H 0.39628 0.76966 0.40606
 H1470 H 0.34888 0.75976 0.41819
 H1471 H 0.31499 0.73071 0.44095
 H1472 H 0.37830 0.68391 0.47779
 C1473 C 0.55484 0.77394 0.40486
 C1474 C 0.57524 0.78730 0.41950
 C1475 C 0.56962 0.81219 0.43243
 C1476 C 0.54336 0.82259 0.43147
 C1477 C 0.52309 0.80890 0.41714
 C1478 C 0.52895 0.78511 0.40298
 C1479 C 0.59036 0.82632 0.44592
 C1480 C 0.61657 0.81572 0.44691
 C1481 C 0.62187 0.79030 0.43489
 C1482 C 0.60121 0.77630 0.42118
 C1483 C 0.64787 0.77944 0.43649
 C1484 C 0.66864 0.79391 0.44930
 C1485 C 0.66400 0.81973 0.46050
 C1486 C 0.63766 0.83032 0.45944
 H1487 H 0.55923 0.75493 0.39496
 H1488 H 0.53855 0.84139 0.44161
 H1489 H 0.50296 0.81731 0.41652
 H1490 H 0.58616 0.84565 0.45544
 H1491 H 0.60544 0.75703 0.41156
 H1492 H 0.65220 0.75982 0.42769
 H1493 H 0.68842 0.78479 0.45038
 H1494 H 0.63366 0.85028 0.46763
 C1495 C 0.03760 0.26545 -0.09533
 C1496 C 0.06304 0.27538 -0.08658
 C1497 C 0.07740 0.29511 -0.10236
 C1498 C 0.06648 0.30442 -0.12648
 C1499 C 0.04161 0.29422 -0.13513
 C1500 C 0.02696 0.27485 -0.11972
 C1501 C 0.10255 0.30530 -0.09395
 C1502 C 0.11375 0.29616 -0.06990
 C1503 C 0.09987 0.27621 -0.05410
 C1504 C 0.07452 0.26589 -0.06255
 C1505 C 0.11153 0.26728 -0.03000
 C1506 C 0.13623 0.27867 -0.02134
 C1507 C 0.14961 0.29914 -0.03665
 C1508 C 0.13849 0.30722 -0.06123
 H1509 H 0.02648 0.25027 -0.08353
 H1510 H 0.07731 0.31940 -0.13882
 H1511 H 0.03395 0.30133 -0.15421
 H1512 H 0.11334 0.32056 -0.10606
 H1513 H 0.06374 0.25069 -0.05041
 H1514 H 0.10131 0.25193 -0.01761
 H1515 H 0.14437 0.27220 -0.00225
 H1516 H 0.14892 0.32263 -0.07344
 C1517 C 0.46335 0.28603 0.10673
 C1518 C 0.43922 0.28964 0.09263
 C1519 C 0.42816 0.26794 0.07745
 C1520 C 0.44186 0.24300 0.07647
 C1521 C 0.46564 0.23937 0.09122
 C1522 C 0.47644 0.26082 0.10655
 C1523 C 0.40320 0.27127 0.06442
 C1524 C 0.38895 0.29580 0.06704
 C1525 C 0.40029 0.31739 0.08228
 C1526 C 0.42543 0.31430 0.09462
 C1527 C 0.38609 0.34166 0.08543
 C1528 C 0.36064 0.34451 0.07399
 C1529 C 0.34888 0.32328 0.05897
 C1530 C 0.36333 0.29902 0.05520
 H1531 H 0.47089 0.30252 0.11908
 H1532 H 0.43364 0.22601 0.06514
 H1533 H 0.47493 0.21947 0.09155
 H1534 H 0.39455 0.25460 0.05290
 H1535 H 0.43392 0.33086 0.10642
 H1536 H 0.39457 0.35839 0.09696
 H1537 H 0.35018 0.36360 0.07666
 H1538 H 0.35440 0.28255 0.04362
 C1539 C 0.95733 0.77027 0.60417
 C1540 C 0.93714 0.78447 0.59041
 C1541 C 0.94420 0.80802 0.57499
 C1542 C 0.97139 0.81671 0.57333
 C1543 C 0.99133 0.80248 0.58717
 C1544 C 0.98440 0.77937 0.60278
 C1545 C 0.92396 0.82265 0.56176
 C1546 C 0.89673 0.81413 0.56387
 C1547 C 0.88974 0.79038 0.57901
 C1548 C 0.90998 0.77568 0.59213
 C1549 C 0.86253 0.78190 0.58100
 C1550 C 0.84236 0.79698 0.56844
 C1551 C 0.84900 0.82083 0.55364
 C1552 C 0.87634 0.82915 0.55129
 H1553 H 0.95186 0.75236 0.61611
 H1554 H 0.97719 0.83467 0.56158
 H1555 H 1.01217 0.80972 0.58597
 H1556 H 0.92936 0.84082 0.55010
 H1557 H 0.90457 0.75758 0.60390
 H1558 H 0.85681 0.76377 0.59253
 H1559 H 0.82145 0.79030 0.57082
 H1560 H 0.88173 0.84732 0.53964
   
