data_POSCAR
  _audit_creation_date              2014-09-24
  _audit_creation_method            'ToBaCCo'
  _symmetry_space_group_name_H-M    'P1'
  _symmetry_Int_Tables_number       1
  _symmetry_cell_setting            triclinic
  loop_
  _symmetry_equiv_pos_as_xyz
 x,y,z
_cell_length_a 62.5020
_cell_length_b 64.5578
_cell_length_c 63.7421
_cell_angle_alpha 88.188100
_cell_angle_beta 89.851900
_cell_angle_gamma 89.873500
loop_
  _atom_site_label
  _atom_site_type_symbol
  _atom_site_fract_x
  _atom_site_fract_y
  _atom_site_fract_z
C1 C 0.74810 0.60254 1.02447
 C2 C 0.75897 0.61331 1.00838
 C3 C 0.77815 0.62343 1.01261
 C4 C 0.78644 0.62362 1.03316
 C5 C 0.77487 0.61296 1.04929
 C6 C 0.75575 0.60207 1.04529
 C7 C 0.74955 0.61477 0.98719
 C8 C 0.72932 0.62388 0.98445
 C9 C 0.72033 0.62618 0.96440
 C10 C 0.73154 0.61870 0.94708
 C11 C 0.75166 0.60918 0.94961
 C12 C 0.76069 0.60749 0.96977
 H13 H 0.73399 0.59403 1.02018
 H14 H 0.78652 0.63094 0.99959
 H15 H 0.72093 0.62983 0.99790
 H16 H 0.77635 0.60051 0.97195
 H17 H 0.77978 0.61477 1.06533
 H18 H 0.72434 0.61990 0.93164
 C19 C 0.74709 0.38498 0.48547
 C20 C 0.75754 0.37489 0.50236
 C21 C 0.77725 0.36504 0.49907
 C22 C 0.78602 0.36457 0.47882
 C23 C 0.77544 0.37471 0.46204
 C24 C 0.75607 0.38522 0.46525
 C25 C 0.74730 0.37404 0.52324
 C26 C 0.72701 0.36510 0.52569
 C27 C 0.71682 0.36448 0.54532
 C28 C 0.72694 0.37336 0.56249
 C29 C 0.74738 0.38230 0.56032
 C30 C 0.75755 0.38233 0.54059
 H31 H 0.73184 0.39251 0.48809
 H32 H 0.78527 0.35704 0.51203
 H33 H 0.71918 0.35854 0.51229
 H34 H 0.77340 0.38889 0.53863
 H35 H 0.78257 0.37469 0.44652
 H36 H 0.71892 0.37315 0.57758
 C37 C 0.23806 -0.11117 -0.02714
 C38 C 0.24835 -0.11940 -0.00920
 C39 C 0.26814 -0.12955 -0.01119
 C40 C 0.27743 -0.13232 -0.03115
 C41 C 0.26683 -0.12353 -0.04886
 C42 C 0.24726 -0.11308 -0.04704
 C43 C 0.23766 -0.11844 0.01148
 C44 C 0.21668 -0.12590 0.01397
 C45 C 0.20583 -0.12487 0.03337
 C46 C 0.21661 -0.11555 0.05010
 C47 C 0.23757 -0.10806 0.04779
 C48 C 0.24817 -0.10986 0.02852
 H49 H 0.22272 -0.10352 -0.02560
 H50 H 0.27530 -0.13654 0.00278
 H51 H 0.20881 -0.13203 0.00041
 H52 H 0.26431 -0.10399 0.02660
 H53 H 0.27414 -0.12403 -0.06424
 H54 H 0.20942 -0.11509 0.06553
 C55 C 0.24231 0.10956 0.51559
 C56 C 0.25451 0.11781 0.49882
 C57 C 0.27565 0.12414 0.50235
 C58 C 0.28458 0.12235 0.52254
 C59 C 0.27223 0.11377 0.53908
 C60 C 0.25112 0.10731 0.53577
 C61 C 0.24506 0.11982 0.47762
 C62 C 0.22557 0.13035 0.47464
 C63 C 0.21616 0.13196 0.45468
 C64 C 0.22649 0.12276 0.43771
 C65 C 0.24567 0.11165 0.44050
 C66 C 0.25506 0.11055 0.46053
 H67 H 0.22609 0.10445 0.51279
 H68 H 0.28504 0.13062 0.48943
 H69 H 0.21768 0.13713 0.48795
 H70 H 0.26967 0.10179 0.46309
 H71 H 0.27882 0.11280 0.55479
 H72 H 0.21964 0.12442 0.42216
 C73 C 0.11761 0.53393 0.23419
 C74 C 0.12492 0.51590 0.24482
 C75 C 0.13377 0.51726 0.26492
 C76 C 0.13525 0.53643 0.27449
 C77 C 0.12753 0.55429 0.26384
 C78 C 0.11838 0.55339 0.24367
 C79 C 0.12219 0.49547 0.23532
 C80 C 0.12926 0.49222 0.21478
 C81 C 0.12611 0.47303 0.20552
 C82 C 0.11530 0.45723 0.21688
 C83 C 0.10819 0.46015 0.23753
 C84 C 0.11197 0.47933 0.24668
 H85 H 0.10994 0.53230 0.21913
 H86 H 0.13934 0.50334 0.27315
 H87 H 0.13726 0.50463 0.20605
 H88 H 0.10681 0.48187 0.26263
 H89 H 0.12970 0.56909 0.27105
 H90 H 0.11255 0.44256 0.20959
 C91 C -0.12339 -0.01948 0.23949
 C92 C -0.13315 -0.00269 0.24909
 C93 C -0.14246 -0.00551 0.26902
 C94 C -0.14173 -0.02489 0.27987
 C95 C -0.13135 -0.04147 0.27003
 C96 C -0.12228 -0.03894 0.24990
 C97 C -0.13243 0.01822 0.23893
 C98 C -0.13993 0.02164 0.21840
 C99 C -0.13993 0.04174 0.20898
 C100 C -0.13094 0.05808 0.22029
 C101 C -0.12269 0.05470 0.24063
 C102 C -0.12413 0.03477 0.24996
 H103 H -0.11631 -0.01726 0.22405
 H104 H -0.14939 0.00786 0.27633
 H105 H -0.14701 0.00875 0.21049
 H106 H -0.11851 0.03194 0.26586
 H107 H -0.13067 -0.05664 0.27771
 H108 H -0.12921 0.07326 0.21280
 C109 C 0.39021 0.47786 0.74086
 C110 C 0.38060 0.49443 0.75098
 C111 C 0.37219 0.49132 0.77126
 C112 C 0.37331 0.47177 0.78178
 C113 C 0.38345 0.45542 0.77135
 C114 C 0.39176 0.45830 0.75095
 C115 C 0.37933 0.51513 0.74043
 C116 C 0.37042 0.51748 0.72031
 C117 C 0.36808 0.53726 0.71084
 C118 C 0.37541 0.55468 0.72131
 C119 C 0.38497 0.55252 0.74118
 C120 C 0.38657 0.53266 0.75074
 H121 H 0.39647 0.48022 0.72510
 H122 H 0.36525 0.50449 0.77890
 H123 H 0.36454 0.50402 0.71238
 H124 H 0.39344 0.53080 0.76628
 H125 H 0.38428 0.44007 0.77864
 H126 H 0.37409 0.56987 0.71369
 C127 C 0.59662 1.02191 0.74403
 C128 C 0.60719 1.00592 0.75515
 C129 C 0.61760 1.01006 0.77403
 C130 C 0.61811 1.03033 0.78175
 C131 C 0.60790 1.04629 0.76976
 C132 C 0.59688 1.04226 0.75112
 C133 C 0.60780 0.98497 0.74652
 C134 C 0.61555 0.98231 0.72607
 C135 C 0.61619 0.96259 0.71749
 C136 C 0.60885 0.94548 0.72957
 C137 C 0.60098 0.94788 0.75000
 C138 C 0.60057 0.96771 0.75845
 H139 H 0.58801 1.01828 0.72990
 H140 H 0.62491 0.99722 0.78267
 H141 H 0.62105 0.99567 0.71685
 H142 H 0.59459 0.96975 0.77422
 H143 H 0.60954 1.06223 0.77418
 H144 H 0.60928 0.93019 0.72303
 C145 C -0.01448 0.23837 -0.11777
 C146 C 0.00305 0.24937 -0.12600
 C147 C 0.00002 0.26902 -0.13550
 C148 C -0.02054 0.27802 -0.13686
 C149 C -0.03799 0.26661 -0.12843
 C150 C -0.03517 0.24687 -0.11883
 C151 C 0.02477 0.24052 -0.12408
 C152 C 0.02980 0.22179 -0.13358
 C153 C 0.05074 0.21350 -0.13252
 C154 C 0.06605 0.22403 -0.12055
 C155 C 0.06104 0.24259 -0.11077
 C156 C 0.04046 0.25096 -0.11293
 H157 H -0.01179 0.22343 -0.11000
 H158 H 0.01396 0.27744 -0.14113
 H159 H 0.01757 0.21463 -0.14288
 H160 H 0.03646 0.26532 -0.10546
 H161 H -0.05409 0.27256 -0.13034
 H162 H 0.08197 0.21773 -0.11836
 C163 C 0.53358 0.23911 0.12979
 C164 C 0.51649 0.24909 0.13961
 C165 C 0.52039 0.26655 0.15159
 C166 C 0.54139 0.27363 0.15437
 C167 C 0.55838 0.26339 0.14455
 C168 C 0.55456 0.24631 0.13206
 C169 C 0.49464 0.24081 0.13774
 C170 C 0.49017 0.22054 0.14494
 C171 C 0.46953 0.21223 0.14307
 C172 C 0.45347 0.22447 0.13337
 C173 C 0.45773 0.24487 0.12618
 C174 C 0.47837 0.25299 0.12864
 H175 H 0.53054 0.22572 0.12041
 H176 H 0.50718 0.27414 0.15930
 H177 H 0.50274 0.21152 0.15255
 H178 H 0.48199 0.26859 0.12292
 H179 H 0.57458 0.26908 0.14614
 H180 H 0.43756 0.21820 0.13151
 C181 C 1.03289 0.74302 0.61810
 C182 C 1.01609 0.75530 0.62536
 C183 C 1.02027 0.77546 0.63192
 C184 C 1.04122 0.78364 0.63126
 C185 C 1.05787 0.77080 0.62408
 C186 C 1.05379 0.75072 0.61742
 C187 C 0.99400 0.74725 0.62550
 C188 C 0.98900 0.72886 0.63680
 C189 C 0.96794 0.72135 0.63727
 C190 C 0.95211 0.73196 0.62556
 C191 C 0.95695 0.75019 0.61396
 C192 C 0.97790 0.75795 0.61429
 H193 H 1.02966 0.72756 0.61276
 H194 H 1.00690 0.78488 0.63675
 H195 H 1.00136 0.72085 0.64580
 H196 H 0.98184 0.77200 0.60536
 H197 H 1.07429 0.77609 0.62392
 H198 H 0.93587 0.72610 0.62563
 C199 C 0.49077 0.73411 0.38461
 C200 C 0.50835 0.74553 0.37697
 C201 C 0.50509 0.76497 0.36703
 C202 C 0.48433 0.77295 0.36448
 C203 C 0.46684 0.76125 0.37202
 C204 C 0.46984 0.74192 0.38241
 C205 C 0.53021 0.73731 0.37993
 C206 C 0.53602 0.71831 0.37141
 C207 C 0.55686 0.71045 0.37405
 C208 C 0.57154 0.72149 0.38606
 C209 C 0.56590 0.74046 0.39471
 C210 C 0.54524 0.74842 0.39134
 H211 H 0.49359 0.71946 0.39291
 H212 H 0.51873 0.77391 0.36143
 H213 H 0.52451 0.71010 0.36211
 H214 H 0.54064 0.76301 0.39804
 H215 H 0.45080 0.76717 0.36947
 H216 H 0.58757 0.71544 0.38843
 C217 C 0.41727 -0.03460 0.26258
 H218 H 0.42623 -0.02220 0.25493
 C219 C 0.42807 -0.05062 0.27357
 H220 H 0.44536 -0.05042 0.27450
 C221 C 0.38383 -0.05007 0.27100
 H222 H 0.36656 -0.04966 0.27000
 C223 C 0.39386 -0.06611 0.28223
 H224 H 0.38422 -0.07817 0.28970
 N225 N 0.39549 -0.03445 0.26195
 C226 C 0.38679 0.01545 0.21706
 H227 H 0.37427 0.00733 0.20909
 C228 C 0.39442 0.03403 0.20828
 H229 H 0.38804 0.03984 0.19344
 C230 C 0.40875 0.01908 0.24700
 H231 H 0.41344 0.01366 0.26255
 C232 C 0.41711 0.03767 0.23857
 H233 H 0.42845 0.04642 0.24755
 Zn234 Zn 0.37817 -0.01335 0.24962
 N235 N 0.39374 0.00849 0.23624
 C236 C 0.34664 0.01338 0.26593
 N237 N 0.36176 -0.00110 0.27105
 C238 C 0.36724 -0.00520 0.29141
 C239 C 0.35751 0.00549 0.30753
 C240 C 0.33633 0.02434 0.28165
 C241 C 0.37232 -0.03528 0.21382
 C242 C 0.36174 -0.04501 0.19766
 C243 C 0.32806 -0.03694 0.21424
 C244 C 0.33935 -0.02720 0.23011
 N245 N 0.36109 -0.02637 0.22944
 H246 H 0.34302 0.01682 0.24960
 H247 H 0.37979 -0.01619 0.29522
 H248 H 0.36228 0.00215 0.32361
 H249 H 0.32465 0.03612 0.27733
 H250 H 0.38960 -0.03447 0.21377
 H251 H 0.37109 -0.05139 0.18507
 H252 H 0.31077 -0.03758 0.21505
 H253 H 0.33076 -0.02038 0.24292
 C254 C 0.40942 0.04552 0.21925
 C255 C 0.41621 -0.06634 0.28396
 C256 C 0.33930 -0.04592 0.19764
 C257 C 0.34204 0.02065 0.30273
 C258 C 0.09001 1.01796 0.77087
 H259 H 0.08836 1.00247 0.77766
 C260 C 0.08013 1.03469 0.78047
 H261 H 0.07085 1.03198 0.79465
 C262 C 0.10563 1.04058 0.74516
 H263 H 0.11612 1.04301 0.73185
 C264 C 0.09608 1.05766 0.75420
 H265 H 0.09901 1.07299 0.74742
 N266 N 0.10284 1.02125 0.75382
 C267 C 0.11583 0.96311 0.72347
 H268 H 0.13311 0.96414 0.72354
 C269 C 0.10590 0.94669 0.71382
 H270 H 0.11572 0.93495 0.70674
 C271 C 0.08224 0.97717 0.73301
 H272 H 0.07318 0.98926 0.74035
 C273 C 0.07157 0.96088 0.72349
 H274 H 0.05426 0.96053 0.72353
 Zn275 Zn 0.12019 0.99937 0.74436
 N276 N 0.10400 0.97787 0.73287
 C277 C 0.13394 0.96863 0.77399
 N278 N 0.13594 0.98888 0.76778
 C279 C 0.14797 1.00218 0.77891
 C280 C 0.15891 0.99514 0.79688
 C281 C 0.14458 0.96095 0.79181
 C282 C 0.12901 1.01438 0.70402
 C283 C 0.14105 1.02212 0.68710
 C284 C 0.17271 1.01931 0.70867
 C285 C 0.16004 1.01147 0.72519
 N286 N 0.13855 1.00947 0.72267
 H287 H 0.12378 0.95841 0.76540
 H288 H 0.14894 1.01832 0.77390
 H289 H 0.16859 1.00589 0.80542
 H290 H 0.14247 0.94485 0.79664
 H291 H 0.11193 1.01233 0.70236
 H292 H 0.13309 1.02573 0.67237
 H293 H 0.18971 1.02129 0.71113
 H294 H 0.16738 1.00717 0.74001
 C295 C 0.08349 0.94546 0.71360
 C296 C 0.08371 1.05491 0.77247
 C297 C 0.16320 1.02490 0.68933
 C298 C 0.15729 0.97424 0.80353
 C299 C 0.60101 0.51085 0.28294
 H300 H 0.59817 0.49509 0.28849
 C301 C 0.59201 0.52740 0.29362
 H302 H 0.58221 0.52424 0.30737
 C303 C 0.61853 0.53419 0.25921
 H304 H 0.62947 0.53697 0.24634
 C305 C 0.60981 0.55107 0.26928
 H306 H 0.61368 0.56657 0.26349
 N307 N 0.61415 0.51452 0.26618
 C308 C 0.62143 0.45745 0.23214
 H309 H 0.63862 0.45837 0.23029
 C310 C 0.61045 0.44055 0.22460
 H311 H 0.61925 0.42859 0.21670
 C312 C 0.58924 0.47181 0.24512
 H313 H 0.58117 0.48396 0.25335
 C314 C 0.57750 0.45511 0.23760
 H315 H 0.56038 0.45440 0.24017
 Zn316 Zn 0.62918 0.49219 0.25424
 N317 N 0.61089 0.47231 0.24270
 C318 C 0.64232 0.45883 0.28102
 N319 N 0.64563 0.47918 0.27586
 C320 C 0.66002 0.49063 0.28649
 C321 C 0.67210 0.48148 0.30274
 C322 C 0.65413 0.44906 0.29700
 C323 C 0.63730 0.51175 0.21545
 C324 C 0.64937 0.51983 0.19871
 C325 C 0.68127 0.50653 0.21572
 C326 C 0.66859 0.49909 0.23240
 N327 N 0.64705 0.50209 0.23210
 H328 H 0.63036 0.45010 0.27294
 H329 H 0.66211 0.50687 0.28229
 H330 H 0.68367 0.49071 0.31091
 H331 H 0.65114 0.43289 0.30095
 H332 H 0.62009 0.51361 0.21547
 H333 H 0.64120 0.52830 0.18618
 H334 H 0.69833 0.50369 0.21618
 H335 H 0.67596 0.49078 0.24547
 C336 C 0.58831 0.43898 0.22772
 C337 C 0.59677 0.54785 0.28702
 C338 C 0.67173 0.51731 0.19863
 C339 C 0.66929 0.46037 0.30805
 C340 C 0.91264 0.48048 0.78329
 H341 H 0.91035 0.49537 0.79031
 C342 C 0.92277 0.46442 0.79465
 H343 H 0.92847 0.46705 0.81037
 C344 C 0.90670 0.45847 0.75482
 H345 H 0.89975 0.45593 0.73964
 C346 C 0.91707 0.44211 0.76546
 H347 H 0.91802 0.42714 0.75831
 N348 N 0.90440 0.47710 0.76397
 C349 C 0.89013 0.53401 0.72836
 H350 H 0.87313 0.53158 0.72648
 C351 C 0.89971 0.55165 0.71950
 H352 H 0.88999 0.56268 0.71059
 C353 C 0.92335 0.52237 0.74226
 H354 H 0.93237 0.51091 0.75130
 C355 C 0.93368 0.53987 0.73353
 H356 H 0.95067 0.54189 0.73598
 Zn357 Zn 0.88624 0.49767 0.75189
 N358 N 0.90189 0.52001 0.73979
 C359 C 0.86906 0.52811 0.77807
 N360 N 0.86856 0.50763 0.77367
 C361 C 0.85689 0.49396 0.78566
 C362 C 0.84491 0.50081 0.80267
 C363 C 0.85735 0.53559 0.79487
 C364 C 0.88012 0.48270 0.71188
 C365 C 0.86909 0.47487 0.69488
 C366 C 0.83675 0.47466 0.71573
 C367 C 0.84838 0.48271 0.73231
 N368 N 0.86972 0.48635 0.73017
 H369 H 0.87894 0.53869 0.76890
 H370 H 0.85714 0.47767 0.78216
 H371 H 0.83562 0.48973 0.81196
 H372 H 0.85840 0.55188 0.79831
 H373 H 0.89705 0.48593 0.71052
 H374 H 0.87769 0.47188 0.68051
 H375 H 0.81976 0.47190 0.71762
 H376 H 0.84030 0.48608 0.74680
 C377 C 0.92169 0.55493 0.72229
 C378 C 0.92468 0.44484 0.78586
 C379 C 0.84713 0.47071 0.69671
 C380 C 0.84508 0.52190 0.80747
 C381 C 0.29341 0.40153 -0.01442
 H382 H 0.30009 0.39910 0.00111
 C383 C 0.30558 0.41133 -0.03026
 H384 H 0.32158 0.41663 -0.02682
 C385 C 0.26481 0.39675 -0.03811
 H386 H 0.24919 0.39056 -0.04134
 C387 C 0.27624 0.40673 -0.05427
 H388 H 0.26926 0.40808 -0.06978
 N389 N 0.27355 0.39421 -0.01867
 C390 C 0.23295 0.38496 0.03617
 H391 H 0.22980 0.36860 0.03472
 C392 C 0.22254 0.39601 0.05159
 H393 H 0.21154 0.38798 0.06217
 C394 C 0.25134 0.41517 0.02416
 H395 H 0.26247 0.42252 0.01326
 C396 C 0.24138 0.42684 0.03955
 H397 H 0.24486 0.44321 0.04043
 Zn398 Zn 0.25919 0.37793 0.00215
 N399 N 0.24702 0.39460 0.02286
 C400 C 0.28257 0.35951 0.03579
 N401 N 0.27939 0.35944 0.01468
 C402 C 0.29147 0.34731 0.00219
 C403 C 0.30738 0.33447 0.01089
 C404 C 0.29833 0.34699 0.04511
 C405 C 0.21872 0.37468 -0.01551
 C406 C 0.20128 0.36532 -0.02494
 C407 C 0.22033 0.33272 -0.02308
 C408 C 0.23739 0.34271 -0.01353
 N409 N 0.23641 0.36340 -0.01024
 H410 H 0.27313 0.36950 0.04545
 H411 H 0.28895 0.34789 -0.01461
 H412 H 0.31707 0.32517 0.00067
 H413 H 0.30053 0.34721 0.06195
 H414 H 0.21824 0.39107 -0.01245
 H415 H 0.18732 0.37461 -0.02885
 H416 H 0.22167 0.31636 -0.02610
 H417 H 0.25144 0.33393 -0.00898
 C418 C 0.22665 0.41723 0.05340
 C419 C 0.29704 0.41382 -0.05053
 C420 C 0.20200 0.34409 -0.02905
 C421 C 0.31107 0.33434 0.03262
 C422 C 0.77674 0.10863 1.01052
 H423 H 0.78756 0.11374 0.99817
 C424 C 0.78495 0.09916 1.02882
 H425 H 0.80206 0.09699 1.03042
 C426 C 0.74151 0.10677 1.02433
 H427 H 0.72468 0.11040 1.02272
 C428 C 0.74908 0.09768 1.04304
 H429 H 0.73800 0.09416 1.05574
 N430 N 0.75543 0.11269 1.00885
 C431 C 0.72682 0.12911 0.94834
 H432 H 0.73105 0.14536 0.94778
 C433 C 0.71527 0.12085 0.93197
 H434 H 0.71088 0.13078 0.91865
 C435 C 0.72712 0.09658 0.96670
 H436 H 0.73152 0.08737 0.98050
 C437 C 0.71562 0.08759 0.95050
 H438 H 0.71113 0.07142 0.95190
 Zn439 Zn 0.74508 0.13116 0.98760
 N440 N 0.73205 0.11711 0.96547
 C441 C 0.78044 0.13804 0.96139
 N442 N 0.76808 0.14703 0.97616
 C443 C 0.77205 0.16663 0.98229
 C444 C 0.78933 0.17778 0.97385
 C445 C 0.79763 0.14876 0.95225
 C446 C 0.70390 0.14861 0.99273
 C447 C 0.68788 0.15960 1.00284
 C448 C 0.71390 0.17004 1.02834
 C449 C 0.72942 0.15866 1.01782
 N450 N 0.72425 0.14836 1.00024
 H451 H 0.77684 0.12249 0.95664
 H452 H 0.76201 0.17366 0.99387
 H453 H 0.79251 0.19311 0.97948
 H454 H 0.80689 0.14138 0.94021
 H455 H 0.69979 0.13978 0.97924
 H456 H 0.67170 0.15899 0.99688
 H457 H 0.71844 0.17826 1.04217
 H458 H 0.74552 0.15767 1.02395
 C459 C 0.70913 0.09996 0.93311
 C460 C 0.77111 0.09435 1.04561
 C461 C 0.69272 0.17048 1.02096
 C462 C 0.80244 0.16890 0.95857
 C463 C 0.28304 0.60661 0.51579
 H464 H 0.29424 0.61470 0.50555
 C465 C 0.29053 0.59620 0.53385
 H466 H 0.30748 0.59640 0.53734
 C467 C 0.24724 0.59786 0.52463
 H468 H 0.23035 0.59910 0.52116
 C469 C 0.25402 0.58751 0.54301
 H470 H 0.24227 0.58055 0.55355
 N471 N 0.26170 0.60757 0.51176
 C472 C 0.23305 0.62321 0.45124
 H473 H 0.23611 0.63970 0.45112
 C474 C 0.22187 0.61468 0.43479
 H475 H 0.21649 0.62465 0.42186
 C476 C 0.23585 0.59029 0.46865
 H477 H 0.24105 0.58100 0.48210
 C478 C 0.22487 0.58101 0.45227
 H479 H 0.22160 0.56454 0.45315
 Zn480 Zn 0.25118 0.62566 0.49034
 N481 N 0.23921 0.61112 0.46800
 C482 C 0.28712 0.63258 0.46535
 N483 N 0.27383 0.64204 0.47901
 C484 C 0.27676 0.66218 0.48391
 C485 C 0.29395 0.67343 0.47538
 C486 C 0.30422 0.64335 0.45613
 C487 C 0.20900 0.64027 0.49504
 C488 C 0.19220 0.65102 0.50412
 C489 C 0.21719 0.66522 0.52861
 C490 C 0.23356 0.65395 0.51915
 N491 N 0.22930 0.64206 0.50242
 H492 H 0.28432 0.61661 0.46154
 H493 H 0.26594 0.66957 0.49458
 H494 H 0.29630 0.68923 0.48006
 H495 H 0.31419 0.63553 0.44493
 H496 H 0.20556 0.63005 0.48244
 H497 H 0.17617 0.64887 0.49819
 H498 H 0.22102 0.67490 0.54163
 H499 H 0.24966 0.65454 0.52531
 C500 C 0.21727 0.59344 0.43540
 C501 C 0.27588 0.58704 0.54803
 C502 C 0.19613 0.66385 0.52105
 C503 C 0.30803 0.66405 0.46124
 C504 C 0.78487 0.91593 0.48915
 H505 H 0.79231 0.91399 0.50439
 C506 C 0.79604 0.92576 0.47262
 H507 H 0.81200 0.93161 0.47528
 C508 C 0.75560 0.90950 0.46672
 H509 H 0.74019 0.90254 0.46419
 C510 C 0.76602 0.91948 0.44991
 H511 H 0.75845 0.92006 0.43463
 N512 N 0.76523 0.90762 0.48580
 C513 C 0.72767 0.89356 0.54188
 H514 H 0.72684 0.87694 0.54036
 C515 C 0.71639 0.90299 0.55783
 H516 H 0.70709 0.89346 0.56874
 C517 C 0.74114 0.92603 0.52951
 H518 H 0.75073 0.93485 0.51828
 C519 C 0.73017 0.93615 0.54544
 H520 H 0.73131 0.95283 0.54639
 Zn521 Zn 0.75326 0.88998 0.50701
 N522 N 0.73971 0.90509 0.52815
 C523 C 0.78019 0.87547 0.53978
 N524 N 0.77585 0.87394 0.51898
 C525 C 0.78859 0.86260 0.50634
 C526 C 0.80644 0.85211 0.51458
 C527 C 0.79792 0.86541 0.54861
 C528 C 0.71312 0.88272 0.49035
 C529 C 0.69664 0.87190 0.48096
 C530 C 0.71887 0.84123 0.48211
 C531 C 0.73495 0.85266 0.49161
 N532 N 0.73196 0.87314 0.49514
 H533 H 0.77023 0.88492 0.54953
 H534 H 0.78516 0.86209 0.48973
 H535 H 0.81663 0.84342 0.50426
 H536 H 0.80114 0.86688 0.56518
 H537 H 0.71102 0.89893 0.49364
 H538 H 0.68179 0.87988 0.47729
 H539 H 0.72177 0.82511 0.47883
 H540 H 0.74987 0.84521 0.49585
 C541 C 0.71747 0.92455 0.55973
 C542 C 0.78673 0.92725 0.45261
 C543 C 0.69947 0.85093 0.47643
 C544 C 0.81140 0.85368 0.53594
 C545 C -0.03741 0.24773 0.39334
 H546 H -0.03380 0.23151 0.39142
 C547 C -0.05469 0.25347 0.40586
 H548 H -0.06423 0.24160 0.41376
 C549 C -0.03014 0.28294 0.38443
 H550 H -0.02112 0.29439 0.37547
 C551 C -0.04703 0.28937 0.39703
 H552 H -0.05076 0.30573 0.39766
 N553 N -0.02573 0.26241 0.38270
 C554 C 0.03521 0.23574 0.36396
 H555 H 0.03467 0.24010 0.34744
 C556 C 0.05262 0.22458 0.37195
 H557 H 0.06554 0.22043 0.36153
 C558 C 0.01878 0.23557 0.39754
 H559 H 0.00542 0.23974 0.40736
 C560 C 0.03613 0.22461 0.40629
 H561 H 0.03601 0.22025 0.42284
 Zn562 Zn -0.00519 0.25332 0.36308
 N563 N 0.01844 0.24039 0.37660
 C564 C 0.00338 0.27662 0.32550
 N565 N 0.00566 0.27587 0.34673
 C566 C 0.01711 0.29047 0.35673
 C567 C 0.02645 0.30692 0.34536
 C568 C 0.01282 0.29261 0.31346
 C569 C -0.03879 0.23881 0.33814
 C570 C -0.05030 0.22431 0.32685
 C571 C -0.02047 0.20070 0.33058
 C572 C -0.00977 0.21541 0.34214
 N573 N -0.01900 0.23406 0.34573
 H574 H -0.00543 0.26462 0.31785
 H575 H 0.01911 0.28919 0.37357
 H576 H 0.03561 0.31838 0.35352
 H577 H 0.01104 0.29299 0.29656
 H578 H -0.04590 0.25366 0.34140
 H579 H -0.06634 0.22816 0.32168
 H580 H -0.01249 0.18617 0.32768
 H581 H 0.00581 0.21168 0.34840
 C582 C 0.05301 0.21857 0.39326
 C583 C -0.05981 0.27453 0.40758
 C584 C -0.04124 0.20480 0.32312
 C585 C 0.02447 0.30801 0.32345
 C586 C 1.00610 0.79451 0.11506
 H587 H 0.99357 0.80162 0.12406
 C588 C 1.02081 0.80708 0.10427
 H589 H 1.01934 0.82374 0.10513
 C590 C 1.02279 0.76434 0.10260
 H591 H 1.02356 0.74761 0.10221
 C592 C 1.03815 0.77634 0.09185
 H593 H 1.05084 0.76861 0.08354
 N594 N 1.00801 0.77352 0.11497
 C595 C 0.97434 0.71932 0.12002
 H596 H 0.98736 0.71249 0.12894
 C597 C 0.95940 0.70642 0.11089
 H598 H 0.96116 0.68979 0.11294
 C599 C 0.95665 0.74911 0.10601
 H600 H 0.95562 0.76581 0.10436
 C601 C 0.94115 0.73675 0.09676
 H602 H 0.92811 0.74413 0.08823
 Zn603 Zn 0.99089 0.75712 0.13378
 N604 N 0.97226 0.74027 0.11817
 C605 C 0.95345 0.77561 0.15151
 N606 N 0.97521 0.77485 0.15146
 C607 C 0.98689 0.78735 0.16380
 C608 C 0.97681 0.80232 0.17570
 C609 C 0.94270 0.79036 0.16320
 C610 C 1.02974 0.73819 0.14897
 C611 C 1.04134 0.72334 0.16061
 C612 C 1.00878 0.71342 0.17875
 C613 C 0.99775 0.72826 0.16656
 N614 N 1.00817 0.73981 0.15153
 H615 H 0.94434 0.76513 0.14218
 H616 H 1.00416 0.78615 0.16380
 H617 H 0.98645 0.81245 0.18503
 H618 H 0.92543 0.79132 0.16232
 H619 H 1.03800 0.74799 0.13762
 H620 H 1.05837 0.72172 0.15792
 H621 H 1.00009 0.70375 0.19002
 H622 H 0.98064 0.73002 0.16847
 C623 C 0.94206 0.71509 0.09970
 C624 C 1.03779 0.79803 0.09334
 C625 C 1.03075 0.71047 0.17539
 C626 C 0.95444 0.80430 0.17509
 C627 C 0.50624 0.28215 0.59852
 H628 H 0.48985 0.28729 0.59659
 C629 C 0.52291 0.29373 0.58936
 H630 H 0.51929 0.30767 0.58015
 C631 C 0.53104 0.25828 0.61369
 H632 H 0.53437 0.24506 0.62390
 C633 C 0.54809 0.26916 0.60458
 H634 H 0.56429 0.26395 0.60771
 N635 N 0.51055 0.26479 0.61046
 C636 C 0.45293 0.22712 0.61600
 H637 H 0.45291 0.22504 0.63291
 C638 C 0.43788 0.21686 0.60410
 H639 H 0.42613 0.20706 0.61199
 C640 C 0.46836 0.24252 0.58529
 H641 H 0.48048 0.25232 0.57808
 C642 C 0.45336 0.23267 0.57273
 H643 H 0.45399 0.23496 0.55583
 Zn644 Zn 0.48771 0.25128 0.62498
 N645 N 0.46776 0.23964 0.60653
 C646 C 0.45297 0.27560 0.63931
 N647 N 0.47417 0.27130 0.64150
 C648 C 0.48665 0.28203 0.65480
 C649 C 0.47787 0.29785 0.66655
 C650 C 0.44350 0.29122 0.65086
 C651 C 0.50886 0.21366 0.63267
 C652 C 0.51707 0.19691 0.64443
 C653 C 0.50157 0.21131 0.67551
 C654 C 0.49422 0.22815 0.66321
 N655 N 0.49818 0.22912 0.64222
 H656 H 0.44342 0.26719 0.62835
 H657 H 0.50351 0.27839 0.65608
 H658 H 0.48804 0.30622 0.67708
 H659 H 0.42668 0.29468 0.64867
 H660 H 0.51137 0.21459 0.61586
 H661 H 0.52642 0.18545 0.63644
 H662 H 0.49772 0.21070 0.69208
 H663 H 0.48505 0.24025 0.67039
 C664 C 0.43801 0.21949 0.58218
 C665 C 0.54415 0.28723 0.59242
 C666 C 0.51343 0.19544 0.66623
 C667 C 0.45604 0.30266 0.66458
 C668 C 0.47208 0.76877 0.91135
 H669 H 0.48672 0.77767 0.91036
 C670 C 0.45390 0.77720 0.92074
 H671 H 0.45470 0.79259 0.92699
 C672 C 0.45259 0.73891 0.90234
 H673 H 0.45179 0.72437 0.89452
 C674 C 0.43417 0.74665 0.91166
 H675 H 0.41954 0.73772 0.91118
 N676 N 0.47088 0.75028 0.90175
 C677 C 0.53182 0.72354 0.88337
 H678 H 0.52844 0.72350 0.86674
 C679 C 0.55129 0.71601 0.89080
 H680 H 0.56278 0.70994 0.87981
 C681 C 0.52086 0.73178 0.91778
 H682 H 0.50895 0.73820 0.92807
 C683 C 0.54027 0.72417 0.92599
 H684 H 0.54331 0.72479 0.94267
 Zn685 Zn 0.49296 0.74283 0.88302
 N686 N 0.51728 0.73162 0.89673
 C687 C 0.52205 0.77346 0.86888
 N688 N 0.50137 0.76712 0.86750
 C689 C 0.48677 0.77842 0.85617
 C690 C 0.49303 0.79645 0.84501
 C691 C 0.52895 0.79127 0.85803
 C692 C 0.48146 0.70263 0.87393
 C693 C 0.47469 0.68612 0.86208
 C694 C 0.47109 0.70972 0.83210
 C695 C 0.47816 0.72581 0.84453
 N696 N 0.48294 0.72204 0.86512
 H697 H 0.53330 0.76491 0.87861
 H698 H 0.47028 0.77342 0.85579
 H699 H 0.48133 0.80506 0.83574
 H700 H 0.54546 0.79605 0.85952
 H701 H 0.48555 0.70002 0.89028
 H702 H 0.47338 0.67084 0.86947
 H703 H 0.46736 0.71290 0.81573
 H704 H 0.47985 0.74122 0.83766
 C705 C 0.55589 0.71660 0.91228
 C706 C 0.43441 0.76644 0.92014
 C707 C 0.46936 0.68957 0.84089
 C708 C 0.51446 0.80292 0.84570
 C709 C 0.48645 -0.18178 0.32508
 C710 C 0.47143 -0.16773 0.33345
 C711 C 0.46172 -0.17338 0.35293
 C712 C 0.46638 -0.19245 0.36306
 C713 C 0.48070 -0.20641 0.35420
 C714 C 0.49097 -0.20076 0.33535
 C715 C 0.44711 -0.16015 0.36217
 C716 C 0.44119 -0.14165 0.35222
 C717 C 0.44959 -0.13559 0.33237
 C718 C 0.46535 -0.14858 0.32303
 C719 C 0.47414 -0.14219 0.30344
 C720 C 0.46716 -0.12427 0.29288
 C721 C 0.45115 -0.11195 0.30131
 C722 C 0.44237 -0.11721 0.32134
 C723 C 0.42618 -0.10414 0.32918
 C724 C 0.41842 -0.08735 0.31723
 C725 C 0.42657 -0.08273 0.29718
 C726 C 0.44341 -0.09470 0.28952
 H727 H 0.49477 -0.17880 0.31049
 H728 H 0.45869 -0.19656 0.37788
 H729 H 0.50212 -0.21131 0.32821
 H730 H 0.43989 -0.16429 0.37721
 H731 H 0.42972 -0.13255 0.36055
 H732 H 0.48635 -0.15086 0.29561
 H733 H 0.47410 -0.12023 0.27769
 H734 H 0.41870 -0.10664 0.34426
 H735 H 0.40563 -0.07807 0.32359
 H736 H 0.44977 -0.09117 0.27398
 C737 C 0.98578 0.32435 0.82679
 C738 C 0.96880 0.33733 0.83301
 C739 C 0.95631 0.33059 0.85049
 C740 C 0.95981 0.31106 0.86020
 C741 C 0.97630 0.29792 0.85348
 C742 C 0.98952 0.30518 0.83692
 C743 C 0.94032 0.34337 0.85824
 C744 C 0.93635 0.36275 0.84903
 C745 C 0.94784 0.36994 0.83116
 C746 C 0.96385 0.35672 0.82259
 C747 C 0.97378 0.36298 0.80350
 C748 C 0.96820 0.38141 0.79306
 C749 C 0.95306 0.39470 0.80150
 C750 C 0.94323 0.38954 0.82105
 C751 C 0.92905 0.40423 0.82957
 C752 C 0.92383 0.42250 0.81846
 C753 C 0.93248 0.42678 0.79853
 C754 C 0.94740 0.41299 0.79029
 H755 H 0.99667 0.32864 0.81427
 H756 H 0.95007 0.30654 0.87367
 H757 H 1.00228 0.29567 0.83090
 H758 H 0.93073 0.33834 0.87165
 H759 H 0.92349 0.37142 0.85584
 H760 H 0.98536 0.35351 0.79570
 H761 H 0.97582 0.38529 0.77815
 H762 H 0.92177 0.40212 0.84483
 H763 H 0.91236 0.43302 0.82519
 H764 H 0.95445 0.41645 0.77501
 C765 C 0.08354 1.17543 0.83813
 C766 C 0.06849 1.16006 0.83316
 C767 C 0.04727 1.16255 0.84051
 C768 C 0.04141 1.18015 0.85173
 C769 C 0.05651 1.19553 0.85640
 C770 C 0.07768 1.19266 0.84943
 C771 C 0.03197 1.14741 0.83675
 C772 C 0.03725 1.12974 0.82595
 C773 C 0.05811 1.12661 0.81807
 C774 C 0.07384 1.14230 0.82131
 C775 C 0.09435 1.13986 0.81236
 C776 C 0.09953 1.12259 0.80105
 C777 C 0.08466 1.10691 0.79830
 C778 C 0.06377 1.10847 0.80684
 C779 C 0.04960 1.09167 0.80390
 C780 C 0.05597 1.07432 0.79278
 C781 C 0.07651 1.07322 0.78410
 C782 C 0.09075 1.08957 0.78704
 H783 H 0.10013 1.17469 0.83366
 H784 H 0.02515 1.18126 0.85751
 H785 H 0.08989 1.20421 0.85176
 H786 H 0.01569 1.14918 0.84233
 H787 H 0.02443 1.11892 0.82371
 H788 H 0.10682 1.15124 0.81343
 H789 H 0.11548 1.12148 0.79443
 H790 H 0.03359 1.09128 0.81018
 H791 H 0.04472 1.06180 0.79080
 H792 H 0.10689 1.08860 0.78085
 C793 C 0.59080 0.67264 0.34424
 C794 C 0.57757 0.65491 0.34334
 C795 C 0.55689 0.65606 0.35244
 C796 C 0.55020 0.67405 0.36253
 C797 C 0.56373 0.69130 0.36356
 C798 C 0.58395 0.69040 0.35414
 C799 C 0.54295 0.63929 0.35138
 C800 C 0.54891 0.62143 0.34122
 C801 C 0.56933 0.61943 0.33195
 C802 C 0.58408 0.63628 0.33350
 C803 C 0.60493 0.63389 0.32536
 C804 C 0.61102 0.61605 0.31542
 C805 C 0.59666 0.59986 0.31304
 C806 C 0.57561 0.60115 0.32126
 C807 C 0.56178 0.58411 0.31820
 C808 C 0.56864 0.56678 0.30733
 C809 C 0.58940 0.56583 0.29912
 C810 C 0.60336 0.58237 0.30233
 H811 H 0.60642 0.67355 0.33711
 H812 H 0.53450 0.67456 0.36976
 H813 H 0.59450 0.70370 0.35410
 H814 H 0.52713 0.64005 0.35833
 H815 H 0.53712 0.60930 0.34112
 H816 H 0.61719 0.64545 0.32662
 H817 H 0.62721 0.61500 0.30936
 H818 H 0.54548 0.58377 0.32368
 H819 H 0.55749 0.55425 0.30497
 H820 H 0.61964 0.58162 0.29648
 C821 C 0.56837 0.30792 0.19323
 C822 C 0.55709 0.32689 0.19070
 C823 C 0.53959 0.32756 0.17656
 C824 C 0.53398 0.30996 0.16534
 C825 C 0.54588 0.29160 0.16755
 C826 C 0.56285 0.29070 0.18180
 C827 C 0.52813 0.34593 0.17325
 C828 C 0.53417 0.36398 0.18295
 C829 C 0.55192 0.36436 0.19660
 C830 C 0.56307 0.34532 0.20112
 C831 C 0.58009 0.34540 0.21562
 C832 C 0.58703 0.36359 0.22428
 C833 C 0.57727 0.38243 0.21901
 C834 C 0.55925 0.38318 0.20553
 C835 C 0.54987 0.40289 0.20112
 C836 C 0.55873 0.42098 0.20897
 C837 C 0.57713 0.42000 0.22138
 C838 C 0.58590 0.40062 0.22682
 H839 H 0.58191 0.30588 0.20348
 H840 H 0.52088 0.31080 0.15422
 H841 H 0.57209 0.27658 0.18398
 H842 H 0.51460 0.34649 0.16264
 H843 H 0.52461 0.37750 0.17925
 H844 H 0.58864 0.33163 0.22059
 H845 H 0.60053 0.36293 0.23494
 H846 H 0.53605 0.40499 0.19122
 H847 H 0.55165 0.43584 0.20468
 H848 H 0.59993 0.39978 0.23681
 C849 C 0.06756 0.83535 0.63475
 C850 C 0.05564 0.84493 0.65064
 C851 C 0.03841 0.83364 0.65983
 C852 C 0.03324 0.81377 0.65295
 C853 C 0.04555 0.80417 0.63743
 C854 C 0.06266 0.81548 0.62841
 C855 C 0.02675 0.84203 0.67623
 C856 C 0.03234 0.86100 0.68434
 C857 C 0.04964 0.87266 0.67600
 C858 C 0.06075 0.86496 0.65818
 C859 C 0.07667 0.87749 0.64853
 C860 C 0.08270 0.89615 0.65685
 C861 C 0.07328 0.90305 0.67518
 C862 C 0.05641 0.89166 0.68495
 C863 C 0.04762 0.89946 0.70367
 C864 C 0.05585 0.91731 0.71255
 C865 C 0.07298 0.92800 0.70309
 C866 C 0.08112 0.92108 0.68406
 H867 H 0.08118 0.84254 0.62717
 H868 H 0.02037 0.80537 0.66079
 H869 H 0.07214 0.80933 0.61581
 H870 H 0.01342 0.83359 0.68324
 H871 H 0.02262 0.86620 0.69713
 H872 H 0.08478 0.87340 0.63432
 H873 H 0.09528 0.90506 0.64909
 H874 H 0.03492 0.89176 0.71227
 H875 H 0.04933 0.92229 0.72733
 H876 H 0.09409 0.92952 0.67637
 C877 C 0.93720 0.68573 0.67458
 C878 C 0.94934 0.66718 0.67463
 C879 C 0.96834 0.66708 0.66240
 C880 C 0.97465 0.68485 0.65062
 C881 C 0.96209 0.70286 0.65045
 C882 C 0.94349 0.70314 0.66269
 C883 C 0.98076 0.64915 0.66168
 C884 C 0.97451 0.63104 0.67235
 C885 C 0.95552 0.63015 0.68439
 C886 C 0.94303 0.64868 0.68598
 C887 C 0.92449 0.64807 0.69870
 C888 C 0.91774 0.62986 0.70868
 C889 C 0.92913 0.61151 0.70652
 C890 C 0.94837 0.61130 0.69468
 C891 C 0.95931 0.59209 0.69336
 C892 C 0.95102 0.57394 0.70278
 C893 C 0.93162 0.57428 0.71377
 C894 C 0.92106 0.59323 0.71594
 H895 H 0.92253 0.68734 0.68326
 H896 H 0.98902 0.68447 0.64107
 H897 H 0.93370 0.71699 0.66310
 H898 H 0.99538 0.64900 0.65248
 H899 H 0.98498 0.61792 0.67073
 H900 H 0.91463 0.66143 0.70130
 H901 H 0.90320 0.63012 0.71799
 H902 H 0.97408 0.59042 0.68484
 H903 H 0.95948 0.55945 0.70090
 H904 H 0.90625 0.59370 0.72483
 C905 C 0.47565 0.15541 0.15956
 C906 C 0.45597 0.15097 0.16976
 C907 C 0.44042 0.16699 0.17008
 C908 C 0.44496 0.18679 0.16147
 C909 C 0.46468 0.19105 0.15175
 C910 C 0.47984 0.17506 0.15070
 C911 C 0.42040 0.16326 0.17907
 C912 C 0.41515 0.14379 0.18731
 C913 C 0.43000 0.12727 0.18737
 C914 C 0.45105 0.13117 0.17935
 C915 C 0.46658 0.11532 0.18159
 C916 C 0.46156 0.09611 0.19076
 C917 C 0.44078 0.09166 0.19748
 C918 C 0.42458 0.10705 0.19553
 C919 C 0.40348 0.10139 0.20141
 C920 C 0.39885 0.08147 0.20914
 C921 C 0.41501 0.06660 0.21154
 C922 C 0.43601 0.07177 0.20587
 H923 H 0.48798 0.14391 0.15772
 H924 H 0.43312 0.19899 0.16263
 H925 H 0.49499 0.17765 0.14278
 H926 H 0.40853 0.17551 0.17955
 H927 H 0.39941 0.14235 0.19411
 H928 H 0.48301 0.11747 0.17688
 H929 H 0.47405 0.08448 0.19228
 H930 H 0.39004 0.11176 0.19962
 H931 H 0.38248 0.07761 0.21328
 H932 H 0.44846 0.06010 0.20742
 C933 C 0.33629 0.47603 -0.17228
 C934 C 0.34402 0.46043 -0.15816
 C935 C 0.36278 0.44967 -0.16396
 C936 C 0.37242 0.45352 -0.18364
 C937 C 0.36411 0.46852 -0.19797
 C938 C 0.34616 0.47999 -0.19165
 C939 C 0.37185 0.43497 -0.15014
 C940 C 0.36256 0.43045 -0.13074
 C941 C 0.34340 0.44014 -0.12450
 C942 C 0.33374 0.45510 -0.13862
 C943 C 0.31377 0.46365 -0.13308
 C944 C 0.30339 0.45761 -0.11463
 C945 C 0.31265 0.44321 -0.10066
 C946 C 0.33310 0.43475 -0.10499
 C947 C 0.34218 0.42102 -0.08966
 C948 C 0.33080 0.41497 -0.07161
 C949 C 0.31007 0.42238 -0.06819
 C950 C 0.30130 0.43687 -0.08254
 H951 H 0.32263 0.48555 -0.16887
 H952 H 0.38692 0.44517 -0.18737
 H953 H 0.33878 0.49147 -0.20205
 H954 H 0.38629 0.42676 -0.15442
 H955 H 0.37048 0.41867 -0.12126
 H956 H 0.30523 0.47456 -0.14309
 H957 H 0.28781 0.46420 -0.11134
 H958 H 0.35801 0.41459 -0.09113
 H959 H 0.33796 0.40384 -0.06065
 H960 H 0.28540 0.44298 -0.07973
 C961 C 0.82158 0.98121 0.32579
 C962 C 0.82971 0.96649 0.34064
 C963 C 0.84835 0.95539 0.33508
 C964 C 0.85754 0.95813 0.31505
 C965 C 0.84902 0.97245 0.30015
 C966 C 0.83110 0.98416 0.30610
 C967 C 0.85782 0.94158 0.34954
 C968 C 0.84917 0.93840 0.36945
 C969 C 0.83024 0.94856 0.37559
 C970 C 0.82004 0.96244 0.36075
 C971 C 0.80016 0.97124 0.36623
 C972 C 0.79045 0.96650 0.38539
 C973 C 0.80033 0.95328 0.40011
 C974 C 0.82070 0.94466 0.39577
 C975 C 0.83051 0.93227 0.41179
 C976 C 0.81982 0.92750 0.43058
 C977 C 0.79911 0.93491 0.43410
 C978 C 0.78967 0.94821 0.41900
 H979 H 0.80796 0.99089 0.32893
 H980 H 0.87200 0.94962 0.31153
 H981 H 0.82359 0.99512 0.29522
 H982 H 0.87213 0.93309 0.34542
 H983 H 0.85736 0.92723 0.37945
 H984 H 0.79121 0.98131 0.35570
 H985 H 0.77491 0.97320 0.38866
 H986 H 0.84638 0.92596 0.41031
 H987 H 0.82750 0.91727 0.44208
 H988 H 0.77378 0.95433 0.42184
 C989 C 0.84203 0.03424 1.15371
 C990 C 0.83191 0.05336 1.14860
 C991 C 0.83094 0.06830 1.16438
 C992 C 0.84082 0.06460 1.18390
 C993 C 0.85095 0.04557 1.18885
 C994 C 0.85110 0.03038 1.17348
 C995 C 0.81987 0.08683 1.16077
 C996 C 0.80926 0.09073 1.14197
 C997 C 0.80993 0.07648 1.12564
 C998 C 0.82237 0.05799 1.12860
 C999 C 0.82530 0.04511 1.11131
 C1000 C 0.81618 0.04998 1.09189
 C1001 C 0.80305 0.06735 1.08912
 C1002 C 0.79915 0.08046 1.10617
 C1003 C 0.78440 0.09693 1.10309
 C1004 C 0.77492 0.10083 1.08359
 C1005 C 0.77987 0.08862 1.06651
 C1006 C 0.79385 0.07179 1.06935
 H1007 H 0.84274 0.02173 1.14293
 H1008 H 0.83944 0.07628 1.19567
 H1009 H 0.85895 0.01560 1.17631
 H1010 H 0.81914 0.09837 1.17274
 H1011 H 0.80129 0.10551 1.14040
 H1012 H 0.83531 0.03150 1.11209
 H1013 H 0.81925 0.03988 1.07894
 H1014 H 0.77956 0.10687 1.11552
 H1015 H 0.76402 0.11383 1.08171
 H1016 H 0.79743 0.06212 1.05619
 C1017 C 0.35515 0.53224 0.65325
 C1018 C 0.33801 0.54645 0.65034
 C1019 C 0.33026 0.55661 0.66827
 C1020 C 0.34022 0.55355 0.68783
 C1021 C 0.35752 0.53993 0.69022
 C1022 C 0.36463 0.52900 0.67293
 C1023 C 0.31271 0.56987 0.66663
 C1024 C 0.30255 0.57342 0.64754
 C1025 C 0.30993 0.56422 0.62906
 C1026 C 0.32832 0.55097 0.63037
 C1027 C 0.33686 0.54331 0.61159
 C1028 C 0.32794 0.54857 0.59219
 C1029 C 0.30980 0.56113 0.59072
 C1030 C 0.30006 0.56853 0.60917
 C1031 C 0.28091 0.58013 0.60686
 C1032 C 0.27273 0.58532 0.58704
 C1033 C 0.28323 0.57913 0.56886
 C1034 C 0.30154 0.56667 0.57082
 H1035 H 0.36145 0.52317 0.64074
 H1036 H 0.33439 0.56168 0.70135
 H1037 H 0.37785 0.51819 0.67459
 H1038 H 0.30673 0.57764 0.68030
 H1039 H 0.28935 0.58416 0.64769
 H1040 H 0.35102 0.53380 0.61124
 H1041 H 0.33540 0.54278 0.57816
 H1042 H 0.27180 0.58543 0.62002
 H1043 H 0.25849 0.59488 0.58594
 H1044 H 0.30951 0.56148 0.55678
 C1045 C 0.17428 0.53088 0.31980
 C1046 C 0.16555 0.54450 0.33462
 C1047 C 0.14585 0.55436 0.32954
 C1048 C 0.13572 0.55095 0.31037
 C1049 C 0.14501 0.53810 0.29557
 C1050 C 0.16414 0.52781 0.30062
 C1051 C 0.13650 0.56799 0.34338
 C1052 C 0.14682 0.57308 0.36171
 C1053 C 0.16700 0.56460 0.36703
 C1054 C 0.17599 0.54924 0.35388
 C1055 C 0.19519 0.53940 0.36030
 C1056 C 0.20591 0.54517 0.37827
 C1057 C 0.19820 0.56121 0.39036
 C1058 C 0.17859 0.57114 0.38496
 C1059 C 0.17186 0.58785 0.39726
 C1060 C 0.18427 0.59456 0.41381
 C1061 C 0.20365 0.58482 0.41891
 C1062 C 0.21034 0.56783 0.40746
 H1063 H 0.18926 0.52289 0.32219
 H1064 H 0.12069 0.55868 0.30674
 H1065 H 0.17173 0.51790 0.28938
 H1066 H 0.12121 0.57521 0.33977
 H1067 H 0.13841 0.58372 0.37147
 H1068 H 0.20240 0.52704 0.35177
 H1069 H 0.22074 0.53734 0.38244
 H1070 H 0.15750 0.59662 0.39409
 H1071 H 0.17881 0.60769 0.42257
 H1072 H 0.22547 0.56038 0.41128
 C1073 C 0.65747 0.02792 0.82620
 C1074 C 0.65170 0.04538 0.83787
 C1075 C 0.63385 0.05717 0.83077
 C1076 C 0.62266 0.05181 0.81269
 C1077 C 0.62888 0.03481 0.80074
 C1078 C 0.64628 0.02276 0.80813
 C1079 C 0.62721 0.07444 0.84163
 C1080 C 0.63839 0.08089 0.85898
 C1081 C 0.65679 0.07023 0.86631
 C1082 C 0.66316 0.05178 0.85603
 C1083 C 0.68081 0.04047 0.86420
 C1084 C 0.69232 0.04729 0.88128
 C1085 C 0.68695 0.06574 0.89081
 C1086 C 0.66909 0.07749 0.88351
 C1087 C 0.66463 0.09634 0.89343
 C1088 C 0.67747 0.10323 0.90960
 C1089 C 0.69516 0.09166 0.91662
 C1090 C 0.69962 0.07272 0.90739
 H1091 H 0.67091 0.01815 0.83026
 H1092 H 0.60863 0.06082 0.80835
 H1093 H 0.65224 0.00983 0.79944
 H1094 H 0.61334 0.08332 0.83647
 H1095 H 0.63203 0.09436 0.86633
 H1096 H 0.68621 0.02615 0.85775
 H1097 H 0.70584 0.03814 0.88687
 H1098 H 0.65164 0.10645 0.88885
 H1099 H 0.67355 0.11781 0.91666
 H1100 H 0.71339 0.06375 0.91266
 C1101 C 0.62286 0.94260 0.66267
 C1102 C 0.64248 0.95159 0.65596
 C1103 C 0.65276 0.96521 0.66975
 C1104 C 0.64379 0.96926 0.68946
 C1105 C 0.62472 0.95967 0.69604
 C1106 C 0.61426 0.94656 0.68235
 C1107 C 0.67219 0.97435 0.66406
 C1108 C 0.68220 0.96971 0.64530
 C1109 C 0.67306 0.95571 0.63131
 C1110 C 0.65253 0.94705 0.63640
 C1111 C 0.64289 0.93384 0.62195
 C1112 C 0.65339 0.92824 0.60381
 C1113 C 0.67387 0.93554 0.59924
 C1114 C 0.68392 0.94971 0.61260
 C1115 C 0.70471 0.95672 0.60690
 C1116 C 0.71525 0.94919 0.58931
 C1117 C 0.70548 0.93452 0.57681
 C1118 C 0.68455 0.92824 0.58157
 H1119 H 0.61389 0.93206 0.65336
 H1120 H 0.65210 0.97930 0.70003
 H1121 H 0.59933 0.93921 0.68695
 H1122 H 0.68000 0.98495 0.67444
 H1123 H 0.69726 0.97731 0.64232
 H1124 H 0.62718 0.92735 0.62420
 H1125 H 0.64551 0.91769 0.59343
 H1126 H 0.71356 0.96756 0.61597
 H1127 H 0.73144 0.95426 0.58595
 H1128 H 0.67671 0.91720 0.57169
 C1129 C 0.13118 0.45267 0.15067
 C1130 C 0.15258 0.45772 0.14518
 C1131 C 0.16451 0.46942 0.15952
 C1132 C 0.15551 0.47508 0.17874
 C1133 C 0.13466 0.46908 0.18427
 C1134 C 0.12251 0.45821 0.16989
 C1135 C 0.18558 0.47496 0.15491
 C1136 C 0.19550 0.46849 0.13674
 C1137 C 0.18469 0.45607 0.12232
 C1138 C 0.16270 0.45104 0.12635
 C1139 C 0.15172 0.43906 0.11168
 C1140 C 0.16204 0.43132 0.09432
 C1141 C 0.18366 0.43524 0.09071
 C1142 C 0.19526 0.44805 0.10430
 C1143 C 0.21714 0.45174 0.09951
 C1144 C 0.22709 0.44233 0.08260
 C1145 C 0.21567 0.42899 0.06990
 C1146 C 0.19383 0.42595 0.07376
 H1147 H 0.12076 0.44410 0.14073
 H1148 H 0.16510 0.48341 0.18983
 H1149 H 0.10620 0.45375 0.17361
 H1150 H 0.19469 0.48411 0.16570
 H1151 H 0.21186 0.47328 0.13463
 H1152 H 0.13509 0.43505 0.11326
 H1153 H 0.15304 0.42180 0.08378
 H1154 H 0.22719 0.46144 0.10872
 H1155 H 0.24401 0.44492 0.07991
 H1156 H 0.18477 0.41597 0.06370
 C1157 C -0.15577 0.34857 0.47885
 C1158 C -0.15544 0.33280 0.46384
 C1159 C -0.17532 0.32656 0.45544
 C1160 C -0.19430 0.33684 0.46067
 C1161 C -0.19411 0.35298 0.47477
 C1162 C -0.17488 0.35841 0.48423
 C1163 C -0.17619 0.31034 0.44158
 C1164 C -0.15769 0.30021 0.43554
 C1165 C -0.13737 0.30635 0.44267
 C1166 C -0.13617 0.32320 0.45671
 C1167 C -0.11577 0.33048 0.46239
 C1168 C -0.09718 0.32196 0.45430
 C1169 C -0.09809 0.30542 0.44078
 C1170 C -0.11813 0.29683 0.43542
 C1171 C -0.11803 0.27921 0.42271
 C1172 C -0.09899 0.27155 0.41448
 C1173 C -0.07944 0.28107 0.41864
 C1174 C -0.07904 0.29772 0.43220
 H1175 H -0.14159 0.35360 0.48678
 H1176 H -0.20934 0.33238 0.45365
 H1177 H -0.17456 0.37071 0.49541
 H1178 H -0.19137 0.30546 0.43521
 H1179 H -0.15985 0.28813 0.42448
 H1180 H -0.11359 0.34343 0.47241
 H1181 H -0.08190 0.32850 0.45857
 H1182 H -0.13237 0.27099 0.41877
 H1183 H -0.09967 0.25854 0.40418
 H1184 H -0.06386 0.30487 0.43582
 C1185 C 0.33116 0.84322 0.97906
 C1186 C 0.33505 0.83278 0.96020
 C1187 C 0.31877 0.83358 0.94480
 C1188 C 0.30003 0.84505 0.94783
 C1189 C 0.29647 0.85591 0.96633
 C1190 C 0.31221 0.85439 0.98208
 C1191 C 0.32114 0.82292 0.92628
 C1192 C 0.33934 0.81134 0.92259
 C1193 C 0.35623 0.81015 0.93724
 C1194 C 0.35435 0.82149 0.95611
 C1195 C 0.37197 0.82151 0.96995
 C1196 C 0.39076 0.81086 0.96554
 C1197 C 0.39262 0.79933 0.94748
 C1198 C 0.37519 0.79841 0.93333
 C1199 C 0.37746 0.78570 0.91577
 C1200 C 0.39648 0.77521 0.91199
 C1201 C 0.41395 0.77676 0.92554
 C1202 C 0.41188 0.78879 0.94338
 H1203 H 0.34236 0.84297 0.99188
 H1204 H 0.28777 0.84467 0.93587
 H1205 H 0.31048 0.86256 0.99655
 H1206 H 0.30872 0.82353 0.91442
 H1207 H 0.33985 0.80396 0.90770
 H1208 H 0.37198 0.83013 0.98415
 H1209 H 0.40398 0.81163 0.97646
 H1210 H 0.36485 0.78335 0.90464
 H1211 H 0.39765 0.76618 0.89800
 H1212 H 0.42524 0.78986 0.95411
 C1213 C 1.15790 0.84081 0.02793
 C1214 C 1.14413 0.84768 0.04393
 C1215 C 1.15105 0.86467 0.05567
 C1216 C 1.17096 0.87402 0.05167
 C1217 C 1.18496 0.86663 0.03622
 C1218 C 1.17779 0.85008 0.02418
 C1219 C 1.13819 0.87221 0.07161
 C1220 C 1.11902 0.86264 0.07695
 C1221 C 1.11180 0.84507 0.06643
 C1222 C 1.12406 0.83802 0.04903
 C1223 C 1.11589 0.82149 0.03747
 C1224 C 1.09698 0.81155 0.04326
 C1225 C 1.08557 0.81739 0.06095
 C1226 C 1.09276 0.83425 0.07278
 C1227 C 1.08097 0.83914 0.09095
 C1228 C 1.06305 0.82767 0.09711
 C1229 C 1.05596 0.81100 0.08541
 C1230 C 1.06723 0.80612 0.06714
 H1231 H 1.15416 0.82783 0.01841
 H1232 H 1.17521 0.88743 0.06052
 H1233 H 1.18793 0.84324 0.01250
 H1234 H 1.14319 0.88548 0.08038
 H1235 H 1.11015 0.86957 0.08942
 H1236 H 1.12372 0.81584 0.02371
 H1237 H 1.09147 0.79882 0.03400
 H1238 H 1.08554 0.85124 0.10126
 H1239 H 1.05517 0.83150 0.11163
 H1240 H 1.06190 0.79335 0.05784
 C1241 C 0.67370 0.32360 0.54349
 C1242 C 0.65649 0.33276 0.55437
 C1243 C 0.65929 0.35327 0.56125
 C1244 C 0.67893 0.36354 0.55828
 C1245 C 0.69592 0.35395 0.54800
 C1246 C 0.69301 0.33407 0.54039
 C1247 C 0.64255 0.36340 0.57116
 C1248 C 0.62302 0.35364 0.57461
 C1249 C 0.61957 0.33301 0.56869
 C1250 C 0.63672 0.32228 0.55874
 C1251 C 0.63381 0.30122 0.55411
 C1252 C 0.61498 0.29089 0.55924
 C1253 C 0.59810 0.30114 0.56876
 C1254 C 0.59981 0.32249 0.57307
 C1255 C 0.58169 0.33228 0.58185
 C1256 C 0.56333 0.32099 0.58729
 C1257 C 0.56238 0.29966 0.58416
 C1258 C 0.57964 0.28995 0.57443
 H1259 H 0.67279 0.30843 0.53700
 H1260 H 0.68098 0.37912 0.56384
 H1261 H 0.70591 0.32641 0.53229
 H1262 H 0.64457 0.37910 0.57638
 H1263 H 0.61112 0.36254 0.58262
 H1264 H 0.64609 0.29195 0.54713
 H1265 H 0.61371 0.27459 0.55584
 H1266 H 0.58117 0.34860 0.58483
 H1267 H 0.55011 0.32885 0.59468
 H1268 H 0.57879 0.27349 0.57158
 C1269 C 0.33975 0.12698 0.54614
 C1270 C 0.34611 0.14721 0.53948
 C1271 C 0.33240 0.15834 0.52543
 C1272 C 0.31287 0.14977 0.51912
 C1273 C 0.30638 0.13020 0.52683
 C1274 C 0.32022 0.11877 0.53998
 C1275 C 0.33789 0.17826 0.51827
 C1276 C 0.35624 0.18785 0.52540
 C1277 C 0.36995 0.17786 0.54013
 C1278 C 0.36512 0.15698 0.54682
 C1279 C 0.37913 0.14677 0.56111
 C1280 C 0.39649 0.15687 0.56954
 C1281 C 0.40077 0.17749 0.56404
 C1282 C 0.38799 0.18822 0.54887
 C1283 C 0.39352 0.20907 0.54365
 C1284 C 0.41025 0.21895 0.55386
 C1285 C 0.42201 0.20847 0.56954
 C1286 C 0.41753 0.18758 0.57412
 H1287 H 0.34918 0.11720 0.55652
 H1288 H 0.30220 0.15878 0.50900
 H1289 H 0.31574 0.10344 0.54583
 H1290 H 0.32761 0.18674 0.50733
 H1291 H 0.35902 0.20333 0.51926
 H1292 H 0.37700 0.13093 0.56646
 H1293 H 0.40646 0.14852 0.58086
 H1294 H 0.38498 0.21837 0.53212
 H1295 H 0.41348 0.23511 0.55002
 H1296 H 0.42690 0.17924 0.58595
 C1297 C 0.83009 0.66350 0.03030
 C1298 C 0.84274 0.65813 0.04802
 C1299 C 0.83641 0.64059 0.06041
 C1300 C 0.81826 0.62909 0.05517
 C1301 C 0.80545 0.63476 0.03774
 C1302 C 0.81194 0.65208 0.02531
 C1303 C 0.84816 0.63455 0.07812
 C1304 C 0.86568 0.64593 0.08434
 C1305 C 0.87237 0.66389 0.07293
 C1306 C 0.86118 0.66969 0.05406
 C1307 C 0.86883 0.68681 0.04190
 C1308 C 0.88633 0.69825 0.04823
 C1309 C 0.89678 0.69337 0.06704
 C1310 C 0.88994 0.67618 0.07972
 C1311 C 0.90073 0.67229 0.09895
 C1312 C 0.91758 0.68479 0.10510
 C1313 C 0.92447 0.70161 0.09241
 C1314 C 0.91396 0.70577 0.07332
 H1315 H 0.83337 0.67681 0.02021
 H1316 H 0.81457 0.61531 0.06459
 H1317 H 0.80247 0.65777 0.01217
 H1318 H 0.84358 0.62097 0.08751
 H1319 H 0.87380 0.64003 0.09815
 H1320 H 0.86174 0.69172 0.02719
 H1321 H 0.89156 0.71128 0.03837
 H1322 H 0.89626 0.66004 0.10993
 H1323 H 0.92493 0.68152 0.12022
 H1324 H 0.91916 0.71869 0.06331
 C1325 C 0.66245 0.64230 0.97165
 C1326 C 0.65955 0.65741 0.95526
 C1327 C 0.67747 0.66223 0.94230
 C1328 C 0.69706 0.65196 0.94537
 C1329 C 0.69950 0.63688 0.96142
 C1330 C 0.68212 0.63229 0.97464
 C1331 C 0.67582 0.67723 0.92623
 C1332 C 0.65669 0.68751 0.92239
 C1333 C 0.63817 0.68307 0.93446
 C1334 C 0.63959 0.66775 0.95116
 C1335 C 0.62091 0.66300 0.96288
 C1336 C 0.60142 0.67241 0.95814
 C1337 C 0.59970 0.68711 0.94173
 C1338 C 0.61813 0.69302 0.92996
 C1339 C 0.61560 0.70843 0.91385
 C1340 C 0.59551 0.71647 0.90883
 C1341 C 0.57724 0.70974 0.91975
 C1342 C 0.57950 0.69554 0.93666
 H1343 H 0.64992 0.63782 0.98247
 H1344 H 0.71060 0.65588 0.93533
 H1345 H 0.68366 0.62068 0.98719
 H1346 H 0.68951 0.68102 0.91635
 H1347 H 0.65694 0.69862 0.90947
 H1348 H 0.62065 0.65169 0.97564
 H1349 H 0.58745 0.66793 0.96730
 H1350 H 0.62870 0.71454 0.90460
 H1351 H 0.59418 0.72785 0.89603
 H1352 H 0.56539 0.69036 0.94525
 C1353 C 0.17213 0.17249 0.45716
 C1354 C 0.15669 0.16496 0.44306
 C1355 C 0.16115 0.14593 0.43340
 C1356 C 0.18012 0.13505 0.43783
 C1357 C 0.19546 0.14296 0.45140
 C1358 C 0.19117 0.16166 0.46117
 C1359 C 0.14682 0.13792 0.41907
 C1360 C 0.12855 0.14883 0.41325
 C1361 C 0.12369 0.16819 0.42179
 C1362 C 0.13736 0.17587 0.43774
 C1363 C 0.13122 0.19415 0.44780
 C1364 C 0.11291 0.20507 0.44184
 C1365 C 0.10027 0.19857 0.42531
 C1366 C 0.10555 0.18011 0.41492
 C1367 C 0.09285 0.17472 0.39757
 C1368 C 0.07576 0.18713 0.39092
 C1369 C 0.07054 0.20519 0.40136
 C1370 C 0.08262 0.21069 0.41877
 H1371 H 0.17034 0.18701 0.46484
 H1372 H 0.18306 0.12039 0.43048
 H1373 H 0.20284 0.16827 0.47153
 H1374 H 0.14998 0.12319 0.41193
 H1375 H 0.11835 0.14143 0.40215
 H1376 H 0.14013 0.20033 0.46061
 H1377 H 0.10888 0.21906 0.44998
 H1378 H 0.09608 0.16141 0.38830
 H1379 H 0.06659 0.18264 0.37740
 H1380 H 0.07876 0.22484 0.42671
 C1381 C 0.57442 0.07475 0.70540
 C1382 C 0.56516 0.09181 0.71547
 C1383 C 0.56732 0.09268 0.73754
 C1384 C 0.57705 0.07633 0.74904
 C1385 C 0.58602 0.05935 0.73888
 C1386 C 0.58482 0.05899 0.71690
 C1387 C 0.55990 0.10994 0.74802
 C1388 C 0.55106 0.12676 0.73698
 C1389 C 0.54843 0.12656 0.71500
 C1390 C 0.55436 0.10827 0.70430
 C1391 C 0.54883 0.10682 0.68295
 C1392 C 0.53864 0.12305 0.67218
 C1393 C 0.53438 0.14163 0.68198
 C1394 C 0.53962 0.14385 0.70340
 C1395 C 0.53636 0.16348 0.71214
 C1396 C 0.52798 0.18003 0.70013
 C1397 C 0.52207 0.17759 0.67911
 C1398 C 0.52512 0.15812 0.67031
 H1399 H 0.57463 0.07355 0.68858
 H1400 H 0.57760 0.07692 0.76599
 H1401 H 0.59228 0.04665 0.70838
 H1402 H 0.56136 0.11066 0.76493
 H1403 H 0.54572 0.13948 0.74622
 H1404 H 0.55153 0.09298 0.67429
 H1405 H 0.53450 0.12118 0.65585
 H1406 H 0.54098 0.16678 0.72796
 H1407 H 0.52663 0.19494 0.70732
 H1408 H 0.52040 0.15566 0.65425
 C1409 C 1.10078 0.59145 0.20153
 C1410 C 1.09234 0.60788 0.21320
 C1411 C 1.09239 0.60547 0.23535
 C1412 C 1.10130 0.58773 0.24522
 C1413 C 1.10984 0.57148 0.23350
 C1414 C 1.10919 0.57365 0.21147
 C1415 C 1.08329 0.62066 0.24765
 C1416 C 1.07361 0.63805 0.23847
 C1417 C 1.07308 0.64121 0.21647
 C1418 C 1.08345 0.62634 0.20368
 C1419 C 1.08483 0.63056 0.18185
 C1420 C 1.07574 0.64827 0.17271
 C1421 C 1.06448 0.66225 0.18480
 C1422 C 1.06272 0.65887 0.20683
 C1423 C 1.05020 0.67306 0.21817
 C1424 C 1.04006 0.68985 0.20801
 C1425 C 1.04226 0.69325 0.18634
 C1426 C 1.05464 0.67948 0.17486
 H1427 H 1.10079 0.59165 0.18462
 H1428 H 1.10044 0.58626 0.26217
 H1429 H 1.11590 0.56192 0.20162
 H1430 H 1.08339 0.61898 0.26463
 H1431 H 1.06709 0.64903 0.24916
 H1432 H 1.09330 0.62066 0.17136
 H1433 H 1.07727 0.65088 0.15588
 H1434 H 1.04738 0.67132 0.23481
 H1435 H 1.03041 0.70025 0.21714
 H1436 H 1.05600 0.68181 0.15798
 C1437 C 0.91920 0.93013 0.22068
 C1438 C 0.91071 0.90977 0.22165
 C1439 C 0.89081 0.90679 0.23204
 C1440 C 0.88010 0.92351 0.24104
 C1441 C 0.88883 0.94349 0.23999
 C1442 C 0.90842 0.94659 0.22970
 C1443 C 0.88162 0.88715 0.23343
 C1444 C 0.89168 0.87024 0.22475
 C1445 C 0.91153 0.87227 0.21423
 C1446 C 0.92123 0.89237 0.21270
 C1447 C 0.94110 0.89439 0.20225
 C1448 C 0.95111 0.87754 0.19347
 C1449 C 0.94185 0.85794 0.19469
 C1450 C 0.92197 0.85490 0.20511
 C1451 C 0.91340 0.83456 0.20579
 C1452 C 0.92402 0.81821 0.19632
 C1453 C 0.94355 0.82144 0.18594
 C1454 C 0.95238 0.84138 0.18531
 H1455 H 0.93417 0.93397 0.21317
 H1456 H 0.86479 0.92098 0.24873
 H1457 H 0.91567 0.96182 0.22889
 H1458 H 0.86641 0.88479 0.24135
 H1459 H 0.88337 0.85572 0.22660
 H1460 H 0.94949 0.90888 0.20050
 H1461 H 0.96632 0.87993 0.18554
 H1462 H 0.89850 0.83067 0.21342
 H1463 H 0.91694 0.80291 0.19723
 H1464 H 0.96732 0.84416 0.17701
 C1465 C 0.43064 0.42696 0.71900
 C1466 C 0.42107 0.40706 0.71929
 C1467 C 0.40132 0.40459 0.73008
 C1468 C 0.39197 0.42125 0.74041
 C1469 C 0.40178 0.44075 0.74008
 C1470 C 0.42109 0.44344 0.72920
 C1471 C 0.39090 0.38553 0.73049
 C1472 C 0.39944 0.36878 0.72022
 C1473 C 0.41903 0.37032 0.70919
 C1474 C 0.43027 0.38966 0.70911
 C1475 C 0.45039 0.39088 0.69902
 C1476 C 0.45909 0.37404 0.68902
 C1477 C 0.44809 0.35532 0.68842
 C1478 C 0.42785 0.35314 0.69835
 C1479 C 0.41723 0.33387 0.69677
 C1480 C 0.42642 0.31761 0.68594
 C1481 C 0.44649 0.31986 0.67637
 C1482 C 0.45725 0.33878 0.67774
 H1483 H 0.44538 0.43046 0.71089
 H1484 H 0.37679 0.41913 0.74847
 H1485 H 0.42900 0.45836 0.72877
 H1486 H 0.37584 0.38355 0.73880
 H1487 H 0.39032 0.35468 0.72148
 H1488 H 0.46008 0.40465 0.69875
 H1489 H 0.47461 0.37575 0.68152
 H1490 H 0.40168 0.33085 0.70348
 H1491 H 0.41781 0.30311 0.68517
 H1492 H 0.47264 0.34079 0.67005
 C1493 C 0.39040 0.60703 0.76116
 C1494 C 0.41015 0.60612 0.77205
 C1495 C 0.42125 0.58692 0.77270
 C1496 C 0.41302 0.56968 0.76257
 C1497 C 0.39351 0.57090 0.75182
 C1498 C 0.38231 0.58971 0.75126
 C1499 C 0.44054 0.58494 0.78346
 C1500 C 0.44900 0.60146 0.79405
 C1501 C 0.43855 0.62088 0.79415
 C1502 C 0.41911 0.62342 0.78248
 C1503 C 0.40937 0.64320 0.78153
 C1504 C 0.41791 0.65975 0.79205
 C1505 C 0.43633 0.65732 0.80416
 C1506 C 0.44692 0.63786 0.80548
 C1507 C 0.46527 0.63617 0.81844
 C1508 C 0.47257 0.65299 0.82958
 C1509 C 0.46202 0.67212 0.82818
 C1510 C 0.44403 0.67424 0.81524
 H1511 H 0.38058 0.62074 0.76024
 H1512 H 0.42198 0.55528 0.76289
 H1513 H 0.36702 0.59100 0.74337
 H1514 H 0.44918 0.57035 0.78386
 H1515 H 0.46400 0.59849 0.80184
 H1516 H 0.39515 0.64653 0.77255
 H1517 H 0.40983 0.67462 0.79087
 H1518 H 0.47418 0.62199 0.82071
 H1519 H 0.48660 0.65102 0.83939
 H1520 H 0.43561 0.68895 0.81430
 C1521 C -0.08422 0.08260 0.27598
 C1522 C -0.09115 0.10344 0.27422
 C1523 C -0.10815 0.10821 0.26020
 C1524 C -0.11863 0.09237 0.24959
 C1525 C -0.11189 0.07165 0.25194
 C1526 C -0.09431 0.06712 0.26495
 C1527 C -0.11450 0.12877 0.25676
 C1528 C -0.10400 0.14480 0.26653
 C1529 C -0.08718 0.14080 0.28086
 C1530 C -0.08145 0.11969 0.28555
 C1531 C -0.06661 0.11546 0.30178
 C1532 C -0.05699 0.13130 0.31248
 C1533 C -0.06127 0.15197 0.30709
 C1534 C -0.07617 0.15712 0.29103
 C1535 C -0.07908 0.17839 0.28561
 C1536 C -0.06781 0.19375 0.29592
 C1537 C -0.05344 0.18854 0.31212
 C1538 C -0.05054 0.16753 0.31771
 H1539 H -0.07054 0.07783 0.28521
 H1540 H -0.13214 0.09625 0.23958
 H1541 H -0.08798 0.05152 0.26641
 H1542 H -0.12753 0.13257 0.24611
 H1543 H -0.10989 0.16022 0.26301
 H1544 H -0.06258 0.09993 0.30709
 H1545 H -0.04579 0.12728 0.32492
 H1546 H -0.08943 0.18364 0.27303
 H1547 H -0.07010 0.20977 0.29086
 H1548 H -0.03987 0.16314 0.33048
 C1549 C 0.06908 0.43223 0.27432
 C1550 C 0.07453 0.41112 0.27203
 C1551 C 0.09102 0.40647 0.25761
 C1552 C 0.10218 0.42242 0.24686
 C1553 C 0.09672 0.44329 0.24944
 C1554 C 0.07992 0.44793 0.26314
 C1555 C 0.09627 0.38591 0.25387
 C1556 C 0.08519 0.36975 0.26378
 C1557 C 0.06875 0.37351 0.27841
 C1558 C 0.06400 0.39452 0.28330
 C1559 C 0.04931 0.39822 0.29963
 C1560 C 0.03929 0.38201 0.31056
 C1561 C 0.04296 0.36152 0.30528
 C1562 C 0.05731 0.35695 0.28877
 C1563 C 0.05941 0.33596 0.28322
 C1564 C 0.04840 0.32023 0.29420
 C1565 C 0.03511 0.32483 0.31112
 C1566 C 0.03234 0.34552 0.31650
 H1567 H 0.05608 0.43712 0.28415
 H1568 H 0.11525 0.41848 0.23651
 H1569 H 0.07478 0.46379 0.26499
 H1570 H 0.10895 0.38225 0.24294
 H1571 H 0.09039 0.35436 0.26011
 H1572 H 0.04572 0.41354 0.30487
 H1573 H 0.02839 0.38559 0.32321
 H1574 H 0.06915 0.33119 0.27026
 H1575 H 0.05061 0.30432 0.28971
 H1576 H 0.02171 0.34915 0.32935
 C1577 C 0.59696 0.89331 0.77296
 C1578 C 0.57677 0.89330 0.78315
 C1579 C 0.56512 0.91220 0.78295
 C1580 C 0.57333 0.93009 0.77269
 C1581 C 0.59306 0.92955 0.76224
 C1582 C 0.60483 0.91109 0.76268
 C1583 C 0.54519 0.91311 0.79273
 C1584 C 0.53634 0.89565 0.80261
 C1585 C 0.54712 0.87639 0.80313
 C1586 C 0.56775 0.87524 0.79334
 C1587 C 0.57864 0.85605 0.79398
 C1588 C 0.56989 0.83863 0.80388
 C1589 C 0.54991 0.83948 0.81351
 C1590 C 0.53807 0.85825 0.81320
 C1591 C 0.51768 0.85795 0.82307
 C1592 C 0.50985 0.83996 0.83318
 C1593 C 0.52196 0.82169 0.83382
 C1594 C 0.54184 0.82155 0.82364
 H1595 H 0.60710 0.87985 0.77242
 H1596 H 0.56406 0.94431 0.77228
 H1597 H 0.62026 0.91039 0.75495
 H1598 H 0.53623 0.92752 0.79268
 H1599 H 0.52091 0.89784 0.80976
 H1600 H 0.59414 0.85384 0.78700
 H1601 H 0.57896 0.82429 0.80405
 H1602 H 0.50741 0.87134 0.82343
 H1603 H 0.49445 0.84051 0.84099
 H1604 H 0.55115 0.80735 0.82364
 C1605 C 0.71114 0.57616 0.07568
 C1606 C 0.72137 0.56926 0.09434
 C1607 C 0.74321 0.57433 0.09681
 C1608 C 0.75452 0.58471 0.08055
 C1609 C 0.74433 0.59132 0.06173
 C1610 C 0.72230 0.58701 0.05990
 C1611 C 0.75369 0.56907 0.11554
 C1612 C 0.74275 0.55954 0.13220
 C1613 C 0.72097 0.55414 0.13048
 C1614 C 0.71049 0.55801 0.11082
 C1615 C 0.68968 0.55010 0.10812
 C1616 C 0.67904 0.53966 0.12438
 C1617 C 0.68840 0.53724 0.14414
 C1618 C 0.70938 0.54467 0.14761
 C1619 C 0.71761 0.54280 0.16825
 C1620 C 0.70551 0.53385 0.18460
 C1621 C 0.68492 0.52614 0.18099
 C1622 C 0.67668 0.52765 0.16053
 H1623 H 0.69424 0.57416 0.07313
 H1624 H 0.77151 0.58697 0.08265
 H1625 H 0.71303 0.59272 0.04665
 H1626 H 0.77047 0.57273 0.11751
 H1627 H 0.75202 0.55602 0.14610
 H1628 H 0.68137 0.55122 0.09334
 H1629 H 0.66310 0.53378 0.12156
 H1630 H 0.73301 0.54885 0.17246
 H1631 H 0.71218 0.53351 0.20026
 H1632 H 0.66097 0.52149 0.15728
 C1633 C 0.20509 1.09676 0.57342
 C1634 C 0.21408 1.08236 0.58819
 C1635 C 0.23546 1.07587 0.58479
 C1636 C 0.24735 1.08399 0.56772
 C1637 C 0.23829 1.09848 0.55350
 C1638 C 0.21703 1.10462 0.55643
 C1639 C 0.24496 1.06130 0.59843
 C1640 C 0.23370 1.05280 0.61540
 C1641 C 0.21241 1.05876 0.61964
 C1642 C 0.20259 1.07413 0.60606
 C1643 C 0.18175 1.08095 0.61097
 C1644 C 0.17069 1.07286 0.62825
 C1645 C 0.17975 1.05748 0.64123
 C1646 C 0.20067 1.05005 0.63713
 C1647 C 0.20882 1.03409 0.65067
 C1648 C 0.19675 1.02609 0.66752
 C1649 C 0.17617 1.03364 0.67156
 C1650 C 0.16787 1.04945 0.65834
 H1651 H 0.18884 1.10222 0.57438
 H1652 H 0.26369 1.07886 0.56535
 H1653 H 0.20968 1.11583 0.54568
 H1654 H 0.26132 1.05632 0.59592
 H1655 H 0.24237 1.04176 0.62513
 H1656 H 0.17352 1.09285 0.60193
 H1657 H 0.15474 1.07866 0.63139
 H1658 H 0.22431 1.02714 0.64854
 H1659 H 0.20345 1.01362 0.67721
 H1660 H 0.15209 1.05567 0.66144
 C1661 C 0.22592 0.89177 0.89748
 C1662 C 0.21682 0.91190 0.89664
 C1663 C 0.21747 0.92348 0.91518
 C1664 C 0.22712 0.91523 0.93353
 C1665 C 0.23637 0.89543 0.93388
 C1666 C 0.23551 0.88380 0.91574
 C1667 C 0.20863 0.94331 0.91532
 C1668 C 0.19909 0.95204 0.89748
 C1669 C 0.19805 0.94127 0.87856
 C1670 C 0.20713 0.92088 0.87812
 C1671 C 0.20631 0.91017 0.85915
 C1672 C 0.19681 0.91886 0.84132
 C1673 C 0.18771 0.93856 0.84153
 C1674 C 0.18822 0.95016 0.86005
 C1675 C 0.17876 0.97016 0.85917
 C1676 C 0.16906 0.97799 0.84084
 C1677 C 0.16842 0.96628 0.82274
 C1678 C 0.17798 0.94663 0.82320
 H1679 H 0.22595 0.88167 0.88437
 H1680 H 0.22782 0.92441 0.94746
 H1681 H 0.24220 0.86830 0.91571
 H1682 H 0.20907 0.95223 0.92944
 H1683 H 0.19270 0.96740 0.89909
 H1684 H 0.21293 0.89492 0.85743
 H1685 H 0.19653 0.90997 0.82717
 H1686 H 0.17835 0.98013 0.87238
 H1687 H 0.16160 0.99314 0.84101
 H1688 H 0.17791 0.93756 0.80917
 C1689 C 0.72656 0.42691 0.43362
 C1690 C 0.72538 0.41843 0.41341
 C1691 C 0.73430 0.39844 0.41086
 C1692 C 0.74416 0.38773 0.42775
 C1693 C 0.74532 0.39646 0.44754
 C1694 C 0.73635 0.41608 0.45030
 C1695 C 0.73335 0.38914 0.39147
 C1696 C 0.72354 0.39908 0.37445
 C1697 C 0.71430 0.41896 0.37607
 C1698 C 0.71556 0.42895 0.39578
 C1699 C 0.70701 0.44914 0.39718
 C1700 C 0.69717 0.45907 0.38015
 C1701 C 0.69527 0.44935 0.36105
 C1702 C 0.70381 0.42917 0.35865
 C1703 C 0.70116 0.41997 0.33893
 C1704 C 0.69031 0.43028 0.32259
 C1705 C 0.68180 0.45010 0.32517
 C1706 C 0.68458 0.45966 0.34438
 H1707 H 0.72002 0.44184 0.43718
 H1708 H 0.75073 0.37239 0.42554
 H1709 H 0.73718 0.42326 0.46541
 H1710 H 0.74022 0.37390 0.38942
 H1711 H 0.72363 0.39070 0.36013
 H1712 H 0.70774 0.45787 0.41126
 H1713 H 0.69078 0.47453 0.38204
 H1714 H 0.70698 0.40473 0.33559
 H1715 H 0.68855 0.42265 0.30780
 H1716 H 0.67782 0.47492 0.34658
 C1717 C 0.76659 0.39072 0.61585
 C1718 C 0.77842 0.40937 0.61367
 C1719 C 0.78011 0.41868 0.59328
 C1720 C 0.76986 0.40992 0.57611
 C1721 C 0.75808 0.39156 0.57860
 C1722 C 0.75665 0.38205 0.59861
 C1723 C 0.79205 0.43670 0.59005
 C1724 C 0.80280 0.44558 0.60652
 C1725 C 0.80177 0.43692 0.62712
 C1726 C 0.78881 0.41890 0.63088
 C1727 C 0.78648 0.41119 0.65174
 C1728 C 0.79686 0.42033 0.66829
 C1729 C 0.81026 0.43732 0.66477
 C1730 C 0.81310 0.44580 0.64415
 C1731 C 0.82746 0.46263 0.64144
 C1732 C 0.83830 0.47066 0.65848
 C1733 C 0.83518 0.46235 0.67879
 C1734 C 0.82102 0.44575 0.68184
 H1735 H 0.76501 0.38218 0.63055
 H1736 H 0.77094 0.41757 0.56076
 H1737 H 0.74809 0.36759 0.60095
 H1738 H 0.79328 0.44397 0.57453
 H1739 H 0.81153 0.45952 0.60257
 H1740 H 0.77638 0.39821 0.65594
 H1741 H 0.79452 0.41387 0.68403
 H1742 H 0.83105 0.46975 0.62635
 H1743 H 0.84913 0.48354 0.65574
 H1744 H 0.81880 0.43902 0.69750
 C1745 C 0.24734 -0.07439 0.09429
 C1746 C 0.26790 -0.08085 0.10121
 C1747 C 0.27826 -0.09666 0.08997
 C1748 C 0.26862 -0.10502 0.07224
 C1749 C 0.24828 -0.09844 0.06574
 C1750 C 0.23775 -0.08314 0.07694
 C1751 C 0.29810 -0.10423 0.09660
 C1752 C 0.30780 -0.09679 0.11441
 C1753 C 0.29822 -0.08106 0.12617
 C1754 C 0.27832 -0.07242 0.11901
 C1755 C 0.26973 -0.05542 0.12965
 C1756 C 0.28000 -0.04730 0.14684
 C1757 C 0.29895 -0.05603 0.15448
 C1758 C 0.30813 -0.07331 0.14457
 C1759 C 0.32682 -0.08217 0.15361
 C1760 C 0.33645 -0.07357 0.17103
 C1761 C 0.32792 -0.05587 0.18013
 C1762 C 0.30891 -0.04739 0.17192
 H1763 H 0.23799 -0.06298 0.10221
 H1764 H 0.27667 -0.11714 0.06381
 H1765 H 0.22195 -0.07790 0.07220
 H1766 H 0.30615 -0.11622 0.08802
 H1767 H 0.32319 -0.10340 0.11826
 H1768 H 0.25529 -0.04758 0.12473
 H1769 H 0.27292 -0.03406 0.15429
 H1770 H 0.33427 -0.09592 0.14782
 H1771 H 0.35070 -0.08091 0.17744
 H1772 H 0.30210 -0.03370 0.17876
 C1773 C 0.25074 0.08023 0.39144
 C1774 C 0.27311 0.07947 0.38807
 C1775 C 0.28642 0.08919 0.40282
 C1776 C 0.27750 0.09976 0.41972
 C1777 C 0.25527 0.10061 0.42260
 C1778 C 0.24208 0.09056 0.40838
 C1779 C 0.30859 0.08829 0.40069
 C1780 C 0.31798 0.07758 0.38450
 C1781 C 0.30550 0.06756 0.36942
 C1782 C 0.28269 0.06914 0.37082
 C1783 C 0.27024 0.06058 0.35479
 C1784 C 0.27963 0.05026 0.33834
 C1785 C 0.30174 0.04772 0.33728
 C1786 C 0.31504 0.05618 0.35286
 C1787 C 0.33733 0.05255 0.35135
 C1788 C 0.34590 0.04117 0.33508
 C1789 C 0.33268 0.03306 0.31967
 C1790 C 0.31061 0.03656 0.32077
 H1791 H 0.23943 0.07263 0.38157
 H1792 H 0.28791 0.10749 0.43055
 H1793 H 0.22489 0.09037 0.41053
 H1794 H 0.31886 0.09579 0.41183
 H1795 H 0.33520 0.07779 0.38406
 H1796 H 0.25308 0.06191 0.35424
 H1797 H 0.26939 0.04398 0.32641
 H1798 H 0.34863 0.05792 0.36268
 H1799 H 0.36305 0.03876 0.33449
 H1800 H 0.30025 0.03010 0.30903
 C1801 C 0.77317 0.60399 0.89441
 C1802 C 0.78285 0.58410 0.89520
 C1803 C 0.78263 0.57294 0.91473
 C1804 C 0.77281 0.58131 0.93243
 C1805 C 0.76296 0.60082 0.93119
 C1806 C 0.76340 0.61209 0.91207
 C1807 C 0.79205 0.55339 0.91652
 C1808 C 0.80178 0.54453 0.89937
 C1809 C 0.80243 0.55488 0.87952
 C1810 C 0.79269 0.57496 0.87737
 C1811 C 0.79301 0.58517 0.85745
 C1812 C 0.80274 0.57635 0.84032
 C1813 C 0.81259 0.55702 0.84221
 C1814 C 0.81253 0.54587 0.86174
 C1815 C 0.82277 0.52624 0.86259
 C1816 C 0.83288 0.51837 0.84495
 C1817 C 0.83315 0.52966 0.82584
 C1818 C 0.82270 0.54888 0.82458
 H1819 H 0.77282 0.61379 0.88044
 H1820 H 0.77239 0.57239 0.94713
 H1821 H 0.75620 0.62736 0.91078
 H1822 H 0.79192 0.54478 0.93141
 H1823 H 0.80862 0.52940 0.90227
 H1824 H 0.78581 0.60012 0.85444
 H1825 H 0.80266 0.58488 0.82538
 H1826 H 0.82356 0.51662 0.87667
 H1827 H 0.84102 0.50357 0.84646
 H1828 H 0.82247 0.55762 0.80976
 C1829 C 0.10716 0.72373 0.61224
 C1830 C 0.10678 0.71725 0.59120
 C1831 C 0.08816 0.72178 0.57920
 C1832 C 0.07057 0.73177 0.58820
 C1833 C 0.07143 0.73827 0.60889
 C1834 C 0.08981 0.73423 0.62080
 C1835 C 0.08731 0.71672 0.55813
 C1836 C 0.10481 0.70786 0.54839
 C1837 C 0.12379 0.70320 0.55955
 C1838 C 0.12439 0.70698 0.58154
 C1839 C 0.14240 0.70007 0.59314
 C1840 C 0.15946 0.69025 0.58354
 C1841 C 0.15961 0.68750 0.56193
 C1842 C 0.14202 0.69438 0.54954
 C1843 C 0.14357 0.69243 0.52755
 C1844 C 0.16130 0.68307 0.51848
 C1845 C 0.17812 0.67519 0.53088
 C1846 C 0.17726 0.67776 0.55265
 H1847 H 0.12090 0.72160 0.62226
 H1848 H 0.05648 0.73530 0.57884
 H1849 H 0.09079 0.73940 0.63677
 H1850 H 0.07305 0.71996 0.54894
 H1851 H 0.10273 0.70431 0.53213
 H1852 H 0.14354 0.70147 0.60990
 H1853 H 0.17280 0.68495 0.59315
 H1854 H 0.13156 0.69837 0.51684
 H1855 H 0.16183 0.68208 0.50156
 H1856 H 0.19012 0.67181 0.56250
 C1857 C 0.60810 0.22124 1.12142
 C1858 C 0.60731 0.21812 1.09952
 C1859 C 0.58868 0.22486 1.08859
 C1860 C 0.57139 0.23349 1.09939
 C1861 C 0.57248 0.23633 1.12102
 C1862 C 0.59099 0.23030 1.13189
 C1863 C 0.58743 0.22313 1.06689
 C1864 C 0.60444 0.21521 1.05561
 C1865 C 0.62331 0.20817 1.06570
 C1866 C 0.62442 0.20889 1.08810
 C1867 C 0.64236 0.19993 1.09833
 C1868 C 0.65878 0.19085 1.08712
 C1869 C 0.65834 0.19080 1.06525
 C1870 C 0.64087 0.19990 1.05418
 C1871 C 0.64183 0.20043 1.03198
 C1872 C 0.65884 0.19138 1.02138
 C1873 C 0.67551 0.18143 1.03241
 C1874 C 0.67524 0.18149 1.05442
 H1875 H 0.62189 0.21733 1.13085
 H1876 H 0.55721 0.23855 1.09086
 H1877 H 0.59218 0.23255 1.14862
 H1878 H 0.57319 0.22815 1.05848
 H1879 H 0.60201 0.21424 1.03895
 H1880 H 0.64392 0.19910 1.11516
 H1881 H 0.67206 0.18387 1.09569
 H1882 H 0.62988 0.20801 1.02229
 H1883 H 0.65893 0.19225 1.00438
 H1884 H 0.68796 0.17383 1.06322
 C1885 C 0.92797 0.20247 0.89768
 C1886 C 0.91083 0.21274 0.90756
 C1887 C 0.91149 0.23468 0.90783
 C1888 C 0.92917 0.24559 0.89957
 C1889 C 0.94620 0.23517 0.89009
 C1890 C 0.94523 0.21352 0.88906
 C1891 C 0.89449 0.24567 0.91631
 C1892 C 0.87652 0.23544 0.92415
 C1893 C 0.87512 0.21361 0.92442
 C1894 C 0.89296 0.20206 0.91686
 C1895 C 0.89259 0.18025 0.91936
 C1896 C 0.87521 0.17003 0.92845
 C1897 C 0.85722 0.18101 0.93482
 C1898 C 0.85668 0.20291 0.93251
 C1899 C 0.83755 0.21315 0.93812
 C1900 C 0.82008 0.20211 0.94629
 C1901 C 0.82100 0.18052 0.94938
 C1902 C 0.83973 0.17012 0.94353
 H1903 H 0.92827 0.18594 0.89582
 H1904 H 0.92968 0.26230 0.90071
 H1905 H 0.95772 0.20502 0.88125
 H1906 H 0.89495 0.26245 0.91667
 H1907 H 0.86422 0.24511 0.93055
 H1908 H 0.90587 0.17060 0.91503
 H1909 H 0.87577 0.15329 0.93028
 H1910 H 0.83533 0.22962 0.93586
 H1911 H 0.80564 0.21059 0.94991
 H1912 H 0.84087 0.15346 0.94592
 C1913 C 0.43375 0.69747 0.40059
 C1914 C 0.41614 0.70787 0.40954
 C1915 C 0.41617 0.72982 0.40846
 C1916 C 0.43370 0.74072 0.39988
 C1917 C 0.45124 0.73020 0.39139
 C1918 C 0.45088 0.70848 0.39164
 C1919 C 0.39871 0.74087 0.41597
 C1920 C 0.38090 0.73062 0.42416
 C1921 C 0.38013 0.70878 0.42579
 C1922 C 0.39843 0.69726 0.41924
 C1923 C 0.39866 0.67561 0.42313
 C1924 C 0.38144 0.66548 0.43264
 C1925 C 0.36302 0.67635 0.43803
 C1926 C 0.36187 0.69807 0.43429
 C1927 C 0.34234 0.70811 0.43893
 C1928 C 0.32502 0.69708 0.44745
 C1929 C 0.32651 0.67571 0.45190
 C1930 C 0.34570 0.66551 0.44713
 H1931 H 0.43455 0.68085 0.39976
 H1932 H 0.43373 0.75750 0.40007
 H1933 H 0.46379 0.69986 0.38463
 H1934 H 0.39868 0.75767 0.41529
 H1935 H 0.36821 0.74034 0.42975
 H1936 H 0.41229 0.66607 0.41961
 H1937 H 0.38246 0.64888 0.43555
 H1938 H 0.33968 0.72437 0.43558
 H1939 H 0.31026 0.70537 0.45022
 H1940 H 0.34732 0.64905 0.45061
 C1941 C 0.61000 0.75235 0.43312
 C1942 C 0.61337 0.77386 0.42946
 C1943 C 0.60043 0.78416 0.41412
 C1944 C 0.58472 0.77332 0.40323
 C1945 C 0.58178 0.75203 0.40697
 C1946 C 0.59451 0.74170 0.42201
 C1947 C 0.60333 0.80519 0.40950
 C1948 C 0.61913 0.81630 0.41941
 C1949 C 0.63266 0.80680 0.43463
 C1950 C 0.62930 0.78539 0.44021
 C1951 C 0.64187 0.77628 0.45643
 C1952 C 0.65749 0.78748 0.46653
 C1953 C 0.66150 0.80811 0.46076
 C1954 C 0.64929 0.81807 0.44463
 C1955 C 0.65449 0.83885 0.43901
 C1956 C 0.67072 0.84928 0.44928
 C1957 C 0.68240 0.83950 0.46551
 C1958 C 0.67772 0.81883 0.47109
 H1959 H 0.61926 0.74314 0.44417
 H1960 H 0.57512 0.78136 0.39138
 H1961 H 0.59245 0.72525 0.42524
 H1962 H 0.59337 0.81317 0.39791
 H1963 H 0.62010 0.83248 0.41494
 H1964 H 0.63987 0.76049 0.46198
 H1965 H 0.66668 0.77982 0.47893
 H1966 H 0.64664 0.84747 0.42650
 H1967 H 0.67435 0.86507 0.44424
 H1968 H 0.68656 0.81110 0.48369
 C1969 C 0.10580 0.25171 -0.07231
 C1970 C 0.11021 0.27309 -0.07558
 C1971 C 0.09777 0.28425 -0.09073
 C1972 C 0.08143 0.27438 -0.10171
 C1973 C 0.07749 0.25320 -0.09835
 C1974 C 0.08977 0.24201 -0.08358
 C1975 C 0.10184 0.30516 -0.09509
 C1976 C 0.11840 0.31523 -0.08518
 C1977 C 0.13146 0.30482 -0.07017
 C1978 C 0.12676 0.28363 -0.06469
 C1979 C 0.13865 0.27375 -0.04841
 C1980 C 0.15498 0.28394 -0.03828
 C1981 C 0.16045 0.30422 -0.04413
 C1982 C 0.14893 0.31495 -0.06026
 C1983 C 0.15567 0.33527 -0.06602
 C1984 C 0.17278 0.34454 -0.05593
 C1985 C 0.18381 0.33401 -0.03971
 C1986 C 0.17750 0.31380 -0.03392
 H1987 H 0.11473 0.24187 -0.06154
 H1988 H 0.07215 0.28305 -0.11337
 H1989 H 0.08694 0.22561 -0.08071
 H1990 H 0.09226 0.31381 -0.10651
 H1991 H 0.12031 0.33139 -0.08945
 H1992 H 0.13549 0.25815 -0.04280
 H1993 H 0.16361 0.27571 -0.02584
 H1994 H 0.14842 0.34432 -0.07859
 H1995 H 0.17763 0.35995 -0.06114
 H1996 H 0.18578 0.30551 -0.02129
 C1997 C 0.42195 0.29060 0.11185
 C1998 C 0.40787 0.28235 0.09686
 C1999 C 0.41083 0.26134 0.09160
 C2000 C 0.42697 0.24925 0.10124
 C2001 C 0.44064 0.25768 0.11610
 C2002 C 0.43800 0.27845 0.12123
 C2003 C 0.39772 0.25246 0.07671
 C2004 C 0.38167 0.26392 0.06676
 C2005 C 0.37792 0.28487 0.07141
 C2006 C 0.39109 0.29417 0.08689
 C2007 C 0.38694 0.31493 0.09199
 C2008 C 0.37065 0.32627 0.08234
 C2009 C 0.35787 0.31755 0.06711
 C2010 C 0.36134 0.29680 0.06123
 C2011 C 0.34802 0.28897 0.04534
 C2012 C 0.33191 0.30115 0.03606
 C2013 C 0.32841 0.32149 0.04224
 C2014 C 0.34157 0.32959 0.05772
 H2015 H 0.42115 0.30640 0.11670
 H2016 H 0.42912 0.23326 0.09691
 H2017 H 0.44827 0.28530 0.13277
 H2018 H 0.39990 0.23641 0.07266
 H2019 H 0.37231 0.25573 0.05557
 H2020 H 0.39589 0.32295 0.10362
 H2021 H 0.36805 0.34212 0.08689
 H2022 H 0.34960 0.27353 0.03963
 H2023 H 0.32191 0.29449 0.02418
 H2024 H 0.33927 0.34547 0.06232
 C2025 C 0.90945 0.75987 0.57822
 C2026 C 0.90613 0.78151 0.57952
 C2027 C 0.92033 0.79268 0.59229
 C2028 C 0.93718 0.78253 0.60298
 C2029 C 0.93998 0.76109 0.60169
 C2030 C 0.92603 0.74992 0.58919
 C2031 C 0.91748 0.81389 0.59463
 C2032 C 0.90043 0.82428 0.58514
 C2033 C 0.88559 0.81386 0.57256
 C2034 C 0.88899 0.79231 0.56903
 C2035 C 0.87516 0.78230 0.55509
 C2036 C 0.85813 0.79270 0.54556
 C2037 C 0.85392 0.81337 0.54972
 C2038 C 0.86749 0.82428 0.56334
 C2039 C 0.86205 0.84507 0.56750
 C2040 C 0.84402 0.85447 0.55849
 C2041 C 0.83080 0.84363 0.54497
 C2042 C 0.83598 0.82312 0.54049
 H2043 H 0.89925 0.75004 0.56930
 H2044 H 0.94775 0.79123 0.61288
 H2045 H 0.92795 0.73332 0.58788
 H2046 H 0.92840 0.82255 0.60420
 H2047 H 0.89952 0.84064 0.58778
 H2048 H 0.87721 0.76639 0.55093
 H2049 H 0.84794 0.78434 0.53502
 H2050 H 0.87108 0.85443 0.57798
 H2051 H 0.84042 0.87039 0.56209
 H2052 H 0.82566 0.81454 0.53024
   
