data_POSCAR
  _audit_creation_date              2014-09-24
  _audit_creation_method            'ToBaCCo'
  _symmetry_space_group_name_H-M    'P1'
  _symmetry_Int_Tables_number       1
  _symmetry_cell_setting            triclinic
  loop_
  _symmetry_equiv_pos_as_xyz
 x,y,z
_cell_length_a 76.2262
_cell_length_b 71.9437
_cell_length_c 72.0388
_cell_angle_alpha 90.599900
_cell_angle_beta 91.708100
_cell_angle_gamma 89.479600
loop_
  _atom_site_label
  _atom_site_type_symbol
  _atom_site_fract_x
  _atom_site_fract_y
  _atom_site_fract_z
N1 N 0.17561 0.22295 0.21995
 N2 N 0.17713 0.20760 0.22964
 C3 C 0.16570 0.20821 0.24351
 C4 C 0.15647 0.22485 0.24238
 C5 C 0.16309 0.23384 0.22728
 H6 H 0.16424 0.19730 0.25352
 H7 H 0.15891 0.24719 0.22189
 Cu8 Cu 0.19382 0.18817 0.22333
 Cu9 Cu 0.18934 0.22698 0.19804
 Cu10 Cu 0.22352 0.19598 0.19092
 N11 N 0.21535 0.17366 0.22219
 N12 N 0.22708 0.17698 0.20966
 C13 C 0.24065 0.16509 0.21195
 C14 C 0.23725 0.15372 0.22679
 C15 C 0.22109 0.15954 0.23295
 H16 H 0.25199 0.16472 0.20330
 H17 H 0.21406 0.15393 0.24442
 N18 N 0.21991 0.21865 0.17617
 N19 N 0.20691 0.23054 0.17889
 C20 C 0.20795 0.24447 0.16664
 C21 C 0.22228 0.24110 0.15569
 C22 C 0.22956 0.22470 0.16215
 H23 H 0.19891 0.25610 0.16573
 H24 H 0.24101 0.21766 0.15689
 H25 H 0.19670 0.20013 0.19163
 H26 H 0.21048 0.21265 0.20942
 N27 N 0.67393 0.72700 0.72632
 N28 N 0.67788 0.71232 0.73636
 C29 C 0.66707 0.71177 0.75081
 C30 C 0.65584 0.72698 0.74966
 C31 C 0.66060 0.73634 0.73404
 H32 H 0.66746 0.70127 0.76144
 H33 H 0.65468 0.74896 0.72864
 Cu34 Cu 0.69700 0.69558 0.72984
 Cu35 Cu 0.68590 0.73271 0.70376
 Cu36 Cu 0.72121 0.70477 0.69248
 N37 N 0.71765 0.68088 0.72378
 N38 N 0.72712 0.68459 0.70933
 C39 C 0.74059 0.67240 0.70860
 C40 C 0.73949 0.66042 0.72341
 C41 C 0.72483 0.66620 0.73275
 H42 H 0.75041 0.67233 0.69809
 H43 H 0.71984 0.66017 0.74520
 N44 N 0.71312 0.72586 0.67714
 N45 N 0.69952 0.73636 0.68143
 C46 C 0.69683 0.74916 0.66816
 C47 C 0.70937 0.74670 0.65496
 C48 C 0.71953 0.73181 0.66103
 H49 H 0.68646 0.75952 0.66798
 H50 H 0.73055 0.72560 0.65409
 H51 H 0.69475 0.70604 0.69774
 H52 H 0.70959 0.72094 0.71264
 N53 N 0.33055 0.77488 0.72788
 N54 N 0.32492 0.78781 0.73932
 C55 C 0.33593 0.78862 0.75433
 C56 C 0.34909 0.77545 0.75200
 C57 C 0.34524 0.76704 0.73513
 H58 H 0.33445 0.79797 0.76603
 H59 H 0.35260 0.75593 0.72867
 Cu60 Cu 0.30369 0.80212 0.73325
 Cu61 Cu 0.31840 0.76875 0.70459
 Cu62 Cu 0.28040 0.79347 0.69356
 N63 N 0.28243 0.81612 0.72672
 N64 N 0.27341 0.81265 0.71124
 C65 C 0.25944 0.82421 0.71014
 C66 C 0.25973 0.83556 0.72581
 C67 C 0.27447 0.83003 0.73601
 H68 H 0.24987 0.82426 0.69876
 H69 H 0.27902 0.83576 0.74922
 N70 N 0.28974 0.77353 0.67751
 N71 N 0.30440 0.76439 0.68168
 C72 C 0.30742 0.75175 0.66825
 C73 C 0.29403 0.75286 0.65505
 C74 C 0.28299 0.76682 0.66128
 H75 H 0.31841 0.74214 0.66815
 H76 H 0.27095 0.77166 0.65457
 H77 H 0.30675 0.79462 0.70042
 H78 H 0.29358 0.77702 0.71269
 N79 N 0.82245 0.28017 0.23142
 N80 N 0.81945 0.29559 0.24082
 C81 C 0.83244 0.29809 0.25360
 C82 C 0.84419 0.28350 0.25222
 C83 C 0.83751 0.27230 0.23795
 H84 H 0.83333 0.30963 0.26330
 H85 H 0.84310 0.25949 0.23270
 Cu86 Cu 0.79892 0.31106 0.23569
 Cu87 Cu 0.80632 0.27147 0.21168
 Cu88 Cu 0.76683 0.29562 0.20685
 N89 N 0.77817 0.32606 0.23007
 N90 N 0.76554 0.31990 0.21887
 C91 C 0.75245 0.33259 0.21800
 C92 C 0.75721 0.34750 0.22931
 C93 C 0.77355 0.34288 0.23673
 H94 H 0.74039 0.33096 0.20990
 H95 H 0.78132 0.35109 0.24651
 N96 N 0.77278 0.27384 0.19151
 N97 N 0.78798 0.26494 0.19285
 C98 C 0.78820 0.25130 0.17987
 C99 C 0.77236 0.25173 0.16993
 C100 C 0.76295 0.26613 0.17771
 H101 H 0.79901 0.24174 0.17788
 H102 H 0.74996 0.27081 0.17336
 H103 H 0.79396 0.29675 0.20563
 H104 H 0.78520 0.28235 0.22480
 N105 N 0.83269 0.71738 0.26007
 N106 N 0.82945 0.70049 0.25380
 C107 C 0.84107 0.69602 0.24073
 C108 C 0.85216 0.71090 0.23870
 C109 C 0.84648 0.72424 0.25120
 H110 H 0.84148 0.68290 0.23328
 H111 H 0.85212 0.73776 0.25396
 Cu112 Cu 0.81039 0.68598 0.26326
 Cu113 Cu 0.81949 0.72869 0.28006
 Cu114 Cu 0.78629 0.70226 0.29819
 N115 N 0.78764 0.67557 0.26844
 N116 N 0.77833 0.68177 0.28230
 C117 C 0.76359 0.67168 0.28322
 C118 C 0.76366 0.65854 0.26904
 C119 C 0.77907 0.66144 0.25991
 H120 H 0.75362 0.67387 0.29340
 H121 H 0.78376 0.65371 0.24807
 N122 N 0.79254 0.72716 0.30778
 N123 N 0.80481 0.73742 0.30051
 C124 C 0.80587 0.75364 0.30994
 C125 C 0.79373 0.75360 0.32376
 C126 C 0.78546 0.73660 0.32201
 H127 H 0.81504 0.76460 0.30726
 H128 H 0.77514 0.73140 0.33047
 H129 H 0.81287 0.70431 0.29226
 H130 H 0.79642 0.71393 0.27518
 N131 N 0.31947 0.21498 -0.23674
 N132 N 0.31472 0.20079 -0.24733
 C133 C 0.32682 0.19782 -0.26024
 C134 C 0.33982 0.21092 -0.25776
 C135 C 0.33478 0.22166 -0.24267
 H136 H 0.32611 0.18707 -0.27084
 H137 H 0.34149 0.23353 -0.23659
 Cu138 Cu 0.29293 0.18776 -0.24394
 Cu139 Cu 0.30479 0.22389 -0.21668
 Cu140 Cu 0.27339 0.19253 -0.20306
 N141 N 0.27592 0.16996 -0.23594
 N142 N 0.26858 0.17158 -0.21972
 C143 C 0.25727 0.15752 -0.21777
 C144 C 0.25763 0.14652 -0.23365
 C145 C 0.26959 0.15482 -0.24487
 H146 H 0.24915 0.15572 -0.20589
 H147 H 0.27329 0.15027 -0.25857
 N148 N 0.27996 0.21476 -0.18833
 N149 N 0.29162 0.22694 -0.19363
 C150 C 0.29226 0.24111 -0.18123
 C151 C 0.28035 0.23762 -0.16757
 C152 C 0.27286 0.22086 -0.17249
 H153 H 0.30046 0.25320 -0.18232
 H154 H 0.26257 0.21395 -0.16528
 H155 H 0.29880 0.19684 -0.21181
 H156 H 0.28083 0.21114 -0.22268
 N157 N 0.67793 0.27790 -0.22494
 N158 N 0.68068 0.29181 -0.23615
 C159 C 0.66773 0.29231 -0.24931
 C160 C 0.65628 0.27791 -0.24608
 C161 C 0.66318 0.26907 -0.23055
 H162 H 0.66670 0.30248 -0.26022
 H163 H 0.65777 0.25715 -0.22377
 Cu164 Cu 0.70074 0.30808 -0.23215
 Cu165 Cu 0.69342 0.27248 -0.20366
 Cu166 Cu 0.72947 0.30098 -0.19648
 N167 N 0.72125 0.32373 -0.22821
 N168 N 0.73237 0.32093 -0.21419
 C169 C 0.74511 0.33375 -0.21449
 C170 C 0.74178 0.34522 -0.22952
 C171 C 0.72658 0.33845 -0.23792
 H172 H 0.75590 0.33463 -0.20446
 H173 H 0.71986 0.34398 -0.25012
 N174 N 0.72427 0.28003 -0.18011
 N175 N 0.71054 0.26918 -0.18288
 C176 C 0.71054 0.25626 -0.16948
 C177 C 0.72496 0.25913 -0.15771
 C178 C 0.73336 0.27427 -0.16486
 H179 H 0.70075 0.24560 -0.16839
 H180 H 0.74523 0.28060 -0.15929
 H181 H 0.70255 0.29928 -0.19950
 H182 H 0.71582 0.28363 -0.21451
 N183 N 0.18501 0.77042 0.26904
 N184 N 0.18763 0.78516 0.25890
 C185 C 0.17422 0.78697 0.24640
 C186 C 0.16266 0.77249 0.24889
 C187 C 0.16994 0.76231 0.26335
 H188 H 0.17306 0.79788 0.23623
 H189 H 0.16471 0.74980 0.26919
 Cu190 Cu 0.20867 0.80013 0.26257
 Cu191 Cu 0.20158 0.76235 0.28832
 Cu192 Cu 0.23305 0.79449 0.30209
 N193 N 0.22751 0.81708 0.26975
 N194 N 0.23674 0.81501 0.28531
 C195 C 0.24892 0.82842 0.28672
 C196 C 0.24724 0.83953 0.27114
 C197 C 0.23348 0.83196 0.26073
 H198 H 0.25839 0.82973 0.29811
 H199 H 0.22833 0.83686 0.24749
 N200 N 0.22747 0.77257 0.31694
 N201 N 0.21577 0.76015 0.31141
 C202 C 0.21508 0.74669 0.32420
 C203 C 0.22700 0.75082 0.33846
 C204 C 0.23464 0.76728 0.33340
 H205 H 0.20646 0.73486 0.32318
 H206 H 0.24472 0.77476 0.34116
 H207 H 0.20692 0.78974 0.29446
 H208 H 0.22428 0.77682 0.28174
 N209 N 0.47051 0.43614 0.47006
 N210 N 0.45601 0.43927 0.47908
 C211 C 0.45474 0.42644 0.49251
 C212 C 0.46923 0.41472 0.49173
 C213 C 0.47891 0.42129 0.47737
 H214 H 0.44421 0.42583 0.50221
 H215 H 0.49129 0.41576 0.47275
 Cu216 Cu 0.44044 0.46002 0.47244
 Cu217 Cu 0.47797 0.45175 0.44991
 Cu218 Cu 0.45162 0.48966 0.43903
 N219 N 0.42582 0.48162 0.46611
 N220 N 0.43050 0.49313 0.45312
 C221 C 0.41827 0.50658 0.45113
 C222 C 0.40518 0.50342 0.46345
 C223 C 0.41032 0.48744 0.47282
 H224 H 0.41867 0.51774 0.44121
 H225 H 0.40324 0.48048 0.48347
 N226 N 0.47343 0.48391 0.42617
 N227 N 0.48333 0.46923 0.43002
 C228 C 0.49708 0.46896 0.41867
 C229 C 0.49571 0.48424 0.40719
 C230 C 0.48064 0.49341 0.41236
 H231 H 0.50741 0.45857 0.41889
 H232 H 0.47534 0.50606 0.40638
 H233 H 0.46564 0.47537 0.45953
 H234 H 0.45327 0.46105 0.44183
 N235 N -0.03076 -0.06521 0.96794
 N236 N -0.04408 -0.05852 0.97718
 C237 C -0.04755 -0.07003 0.99116
 C238 C -0.03578 -0.08468 0.99076
 C239 C -0.02526 -0.08123 0.97583
 H240 H -0.05791 -0.06794 1.00094
 H241 H -0.01453 -0.08972 0.97097
 Cu242 Cu -0.05582 -0.03550 0.97025
 Cu243 Cu -0.02174 -0.05255 0.94638
 Cu244 Cu -0.04635 -0.01485 0.93049
 N245 N -0.07139 -0.01683 0.95932
 N246 N -0.06761 -0.00873 0.94369
 C247 C -0.08017 0.00376 0.93894
 C248 C -0.09396 0.00416 0.95289
 C249 C -0.08664 -0.01014 0.96569
 H250 H -0.08002 0.01226 0.92666
 H251 H -0.09252 -0.01461 0.97835
 N252 N -0.02448 -0.02312 0.91899
 N253 N -0.01513 -0.03758 0.92482
 C254 C -0.00097 -0.03951 0.91413
 C255 C -0.00154 -0.02552 0.90106
 C256 C -0.01652 -0.01543 0.90458
 H257 H 0.00911 -0.05005 0.91593
 H258 H -0.02118 -0.00327 0.89717
 H259 H -0.03101 -0.02631 0.95196
 H260 H -0.04624 -0.04244 0.93907
 N261 N 1.03675 0.56513 0.97094
 N262 N 1.05195 0.56002 0.97845
 C263 C 1.05620 0.57178 0.99249
 C264 C 1.04303 0.58496 0.99384
 C265 C 1.03085 0.58036 0.97993
 H266 H 1.06797 0.57088 1.00120
 H267 H 1.01858 0.58741 0.97663
 Cu268 Cu 1.06478 0.53848 0.96927
 Cu269 Cu 1.02558 0.55140 0.95034
 Cu270 Cu 1.04760 0.51213 0.93476
 N271 N 1.07691 0.51637 0.96032
 N272 N 1.07000 0.50610 0.94685
 C273 C 1.08090 0.49180 0.94322
 C274 C 1.09542 0.49316 0.95501
 C275 C 1.09250 0.50892 0.96573
 H276 H 1.07853 0.48121 0.93271
 H277 H 1.10106 0.51457 0.97656
 N278 N 1.02486 0.52039 0.92414
 N279 N 1.01652 0.53551 0.92972
 C280 C 1.00152 0.53741 0.91945
 C281 C 1.00048 0.52271 0.90693
 C282 C 1.01540 0.51223 0.91032
 H283 H 0.99200 0.54849 0.92110
 H284 H 1.01906 0.49958 0.90313
 H285 H 1.03694 0.52627 0.95716
 H286 H 1.04833 0.54061 0.93981
 N287 N 0.53622 0.07077 0.48464
 N288 N 0.55165 0.06661 0.49222
 C289 C 0.55540 0.07897 0.50591
 C290 C 0.54161 0.09150 0.50697
 C291 C 0.52965 0.08590 0.49323
 H292 H 0.56724 0.07891 0.51456
 H293 H 0.51711 0.09228 0.48971
 Cu294 Cu 0.56536 0.04542 0.48348
 Cu295 Cu 0.52561 0.05618 0.46433
 Cu296 Cu 0.54933 0.01789 0.44930
 N297 N 0.57838 0.02362 0.47496
 N298 N 0.57189 0.01301 0.46152
 C299 C 0.58326 -0.00089 0.45804
 C300 C 0.59765 0.00101 0.46990
 C301 C 0.59420 0.01673 0.48052
 H302 H 0.58128 -0.01161 0.44757
 H303 H 0.60258 0.02276 0.49131
 N304 N 0.52630 0.02490 0.43849
 N305 N 0.51723 0.03956 0.44399
 C306 C 0.50213 0.04055 0.43374
 C307 C 0.50181 0.02575 0.42130
 C308 C 0.51725 0.01617 0.42472
 H309 H 0.49210 0.05112 0.43531
 H310 H 0.52153 0.00370 0.41760
 H311 H 0.53806 0.03172 0.47159
 H312 H 0.54878 0.04642 0.45403
 N313 N -0.03447 0.07013 0.52646
 N314 N -0.05049 0.06840 0.51942
 C315 C -0.05306 0.08063 0.50562
 C316 C -0.03788 0.09062 0.50388
 C317 C -0.02627 0.08366 0.51733
 H318 H -0.06495 0.08188 0.49714
 H319 H -0.01280 0.08775 0.51999
 Cu320 Cu -0.06633 0.04971 0.52792
 Cu321 Cu -0.02550 0.05400 0.54635
 Cu322 Cu -0.05147 0.01633 0.55661
 N323 N -0.07905 0.02686 0.53073
 N324 N -0.07327 0.01375 0.54196
 C325 C -0.08439 -0.00069 0.54088
 C326 C -0.09779 0.00371 0.52822
 C327 C -0.09397 0.02125 0.52205
 H328 H -0.08265 -0.01349 0.54846
 H329 H -0.10137 0.02923 0.51181
 N330 N -0.02897 0.02157 0.56976
 N331 N -0.01904 0.03591 0.56593
 C332 C -0.00474 0.03574 0.57741
 C333 C -0.00581 0.02057 0.58899
 C334 C -0.02128 0.01194 0.58374
 H335 H 0.00559 0.04592 0.57738
 H336 H -0.02657 -0.00042 0.58980
 H337 H -0.04016 0.03188 0.53619
 H338 H -0.04907 0.04498 0.55647
 N339 N 0.46177 0.57325 0.03329
 N340 N 0.44603 0.57072 0.02579
 C341 C 0.44264 0.58324 0.01240
 C342 C 0.45768 0.59570 0.01061
 C343 C 0.46957 0.58767 0.02522
 H344 H 0.43058 0.58386 0.00413
 H345 H 0.48255 0.59263 0.02902
 Cu346 Cu 0.43114 0.55089 0.03382
 Cu347 Cu 0.47090 0.55785 0.05365
 Cu348 Cu 0.44391 0.52238 0.06809
 N349 N 0.42036 0.52686 0.03674
 N350 N 0.42520 0.51575 0.05036
 C351 C 0.41526 0.50037 0.04951
 C352 C 0.40370 0.50196 0.03440
 C353 C 0.40734 0.51888 0.02660
 H354 H 0.41648 0.48893 0.05909
 H355 H 0.40088 0.52498 0.01452
 N356 N 0.46699 0.52767 0.07983
 N357 N 0.47745 0.54087 0.07416
 C358 C 0.49218 0.54086 0.08498
 C359 C 0.49088 0.52696 0.09800
 C360 C 0.47480 0.51888 0.09429
 H361 H 0.50293 0.55038 0.08360
 H362 H 0.46920 0.50746 0.10167
 H363 H 0.45647 0.53430 0.04665
 H364 H 0.44722 0.55082 0.06393
 N365 N 0.52341 -0.06081 0.03342
 N366 N 0.53713 -0.05460 0.02485
 C367 C 0.54009 -0.06561 0.00997
 C368 C 0.52742 -0.07931 0.00931
 C369 C 0.51710 -0.07581 0.02433
 H370 H 0.55035 -0.06352 0.00018
 H371 H 0.50563 -0.08347 0.02814
 Cu372 Cu 0.54912 -0.03220 0.03356
 Cu373 Cu 0.51395 -0.04850 0.05498
 Cu374 Cu 0.53805 -0.01231 0.07426
 N375 N 0.56406 -0.01400 0.04627
 N376 N 0.55978 -0.00635 0.06219
 C377 C 0.57211 0.00607 0.06745
 C378 C 0.58480 0.00620 0.05416
 C379 C 0.57931 -0.00676 0.04091
 H380 H 0.57174 0.01463 0.07986
 H381 H 0.58571 -0.01048 0.02819
 N382 N 0.51767 -0.02308 0.08643
 N383 N 0.50865 -0.03700 0.07899
 C384 C 0.49587 -0.04167 0.09048
 C385 C 0.49675 -0.03010 0.10581
 C386 C 0.51075 -0.01844 0.10289
 H387 H 0.48656 -0.05273 0.08795
 H388 H 0.51562 -0.00758 0.11209
 H389 H 0.52378 -0.02214 0.05171
 H390 H 0.53838 -0.03921 0.06408
 N391 N 1.01881 0.42929 0.52729
 N392 N 1.03369 0.43021 0.51860
 C393 C 1.03356 0.41772 0.50456
 C394 C 1.01771 0.40847 0.50451
 C395 C 1.00871 0.41612 0.51912
 H396 H 1.04425 0.41551 0.49524
 H397 H 0.99583 0.41224 0.52357
 Cu398 Cu 1.05181 0.44761 0.52634
 Cu399 Cu 1.01399 0.44475 0.54890
 Cu400 Cu 1.04614 0.47631 0.56269
 N401 N 1.06600 0.46967 0.53006
 N402 N 1.06388 0.48085 0.54437
 C403 C 1.07584 0.49450 0.54396
 C404 C 1.08589 0.49171 0.52844
 C405 C 1.07925 0.47588 0.51994
 H406 H 1.07713 0.50548 0.55426
 H407 H 1.08391 0.46922 0.50747
 N408 N 1.02406 0.47334 0.57594
 N409 N 1.01174 0.46153 0.57050
 C410 C 0.99837 0.46273 0.58225
 C411 C 1.00246 0.47597 0.59573
 C412 C 1.01880 0.48243 0.59127
 H413 H 0.98661 0.45448 0.58112
 H414 H 1.02629 0.49298 0.59871
 H415 H 1.02999 0.46661 0.54167
 H416 H 1.03955 0.44861 0.55752
 C417 C 0.40015 0.01248 0.24319
 H418 H 0.39862 0.02469 0.25190
 C419 C 0.41336 0.01180 0.23023
 H420 H 0.42194 0.02362 0.22903
 C421 C 0.39079 -0.01773 0.23436
 H422 H 0.38205 -0.02927 0.23616
 C423 C 0.40384 -0.01899 0.22113
 H424 H 0.40467 -0.03158 0.21292
 N425 N 0.38908 -0.00206 0.24490
 C426 C 0.34234 0.02398 0.26733
 H427 H 0.34112 0.01652 0.28019
 C428 C 0.33022 0.03793 0.26253
 H429 H 0.31962 0.04089 0.27178
 C430 C 0.35735 0.02840 0.23940
 H431 H 0.36776 0.02447 0.23027
 C432 C 0.34548 0.04232 0.23402
 H433 H 0.34702 0.04915 0.22084
 Zn434 Zn 0.37179 0.00071 0.26305
 N435 N 0.35575 0.01973 0.25594
 C436 C 0.38063 0.02326 0.29479
 N437 N 0.38382 0.00707 0.28555
 C438 C 0.39669 -0.00482 0.29148
 C439 C 0.40673 -0.00087 0.30752
 C440 C 0.39036 0.02781 0.31092
 C441 C 0.34864 -0.02754 0.25119
 C442 C 0.33805 -0.04317 0.25292
 C443 C 0.34861 -0.04594 0.28473
 C444 C 0.35893 -0.03027 0.28237
 N445 N 0.35882 -0.02144 0.26578
 H446 H 0.37072 0.03284 0.28956
 H447 H 0.39925 -0.01738 0.28358
 H448 H 0.41695 -0.01069 0.31138
 H449 H 0.38757 0.04081 0.31802
 H450 H 0.34863 -0.02012 0.23821
 H451 H 0.33031 -0.04755 0.24090
 H452 H 0.34890 -0.05263 0.29814
 H453 H 0.36677 -0.02501 0.29396
 C454 C 0.33186 0.04744 0.24572
 C455 C 0.41535 -0.00400 0.21890
 C456 C 0.33779 -0.05258 0.27001
 C457 C 0.40361 0.01568 0.31764
 C458 C 0.09952 -0.01460 0.72034
 H459 H 0.09873 -0.02820 0.72651
 C460 C 0.08801 -0.00971 0.70568
 H461 H 0.07828 -0.01964 0.70091
 C462 C 0.11270 0.01508 0.71990
 H463 H 0.12212 0.02484 0.72566
 C464 C 0.10140 0.02058 0.70534
 H465 H 0.10238 0.03449 0.69988
 N466 N 0.11174 -0.00235 0.72694
 C467 C 0.15332 -0.03625 0.75282
 H468 H 0.15444 -0.02940 0.76625
 C469 C 0.16467 -0.05091 0.74854
 H470 H 0.17459 -0.05498 0.75877
 C471 C 0.13966 -0.03814 0.72290
 H472 H 0.13019 -0.03286 0.71279
 C473 C 0.15078 -0.05283 0.71802
 H474 H 0.14958 -0.05890 0.70421
 Zn475 Zn 0.12689 -0.00967 0.74697
 N476 N 0.14099 -0.03032 0.74015
 C477 C 0.11371 -0.03260 0.77530
 N478 N 0.11277 -0.01560 0.76727
 C479 C 0.10134 -0.00239 0.77322
 C480 C 0.09061 -0.00579 0.78818
 C481 C 0.10325 -0.03664 0.79031
 C482 C 0.15427 0.01457 0.74065
 C483 C 0.16631 0.02873 0.74435
 C484 C 0.15410 0.03265 0.77472
 C485 C 0.14232 0.01837 0.77041
 N486 N 0.14245 0.00985 0.75348
 H487 H 0.12253 -0.04312 0.77010
 H488 H 0.10060 0.01090 0.76633
 H489 H 0.08173 0.00517 0.79223
 H490 H 0.10435 -0.05026 0.79654
 H491 H 0.15431 0.00728 0.72743
 H492 H 0.17544 0.03182 0.73368
 H493 H 0.15364 0.03932 0.78826
 H494 H 0.13314 0.01410 0.78064
 C495 C 0.16336 -0.05953 0.73095
 C496 C 0.08902 0.00807 0.69786
 C497 C 0.16626 0.03821 0.76160
 C498 C 0.09158 -0.02314 0.79717
 C499 C 0.59775 0.50272 0.22986
 H500 H 0.59714 0.48967 0.23713
 C501 C 0.58603 0.50636 0.21506
 H502 H 0.57627 0.49607 0.21131
 C503 C 0.61081 0.53224 0.22674
 H504 H 0.62032 0.54240 0.23147
 C505 C 0.59929 0.53649 0.21193
 H506 H 0.60016 0.54987 0.20527
 N507 N 0.61005 0.51544 0.23515
 C508 C 0.65265 0.48346 0.26126
 H509 H 0.65380 0.49082 0.27441
 C510 C 0.66394 0.46862 0.25771
 H511 H 0.67365 0.46470 0.26824
 C512 C 0.63818 0.48043 0.23169
 H513 H 0.62835 0.48545 0.22184
 C514 C 0.64876 0.46544 0.22666
 H515 H 0.64679 0.45905 0.21310
 Zn516 Zn 0.62567 0.50933 0.25513
 N517 N 0.64010 0.48880 0.24860
 C518 C 0.61318 0.48648 0.28377
 N519 N 0.61187 0.50345 0.27571
 C520 C 0.59995 0.51627 0.28143
 C521 C 0.58895 0.51242 0.29606
 C522 C 0.60250 0.48202 0.29846
 C523 C 0.65240 0.53400 0.24766
 C524 C 0.66400 0.54870 0.25059
 C525 C 0.65156 0.55391 0.28068
 C526 C 0.64022 0.53904 0.27714
 N527 N 0.64069 0.52959 0.26073
 H528 H 0.62235 0.47623 0.27871
 H529 H 0.59890 0.52952 0.27449
 H530 H 0.57962 0.52303 0.29993
 H531 H 0.60383 0.46838 0.30462
 H532 H 0.65267 0.52603 0.23484
 H533 H 0.67303 0.55149 0.23975
 H534 H 0.65084 0.56130 0.29382
 H535 H 0.63108 0.53510 0.28754
 C536 C 0.66280 0.45802 0.23955
 C537 C 0.58691 0.52337 0.20570
 C538 C 0.66365 0.55909 0.26732
 C539 C 0.59015 0.49502 0.30492
 C540 C 0.89785 0.50854 0.72406
 H541 H 0.89821 0.52190 0.73109
 C542 C 0.90981 0.50448 0.71022
 H543 H 0.91938 0.51486 0.70700
 C544 C 0.88527 0.47867 0.72063
 H545 H 0.87588 0.46854 0.72490
 C546 C 0.89698 0.47403 0.70675
 H547 H 0.89633 0.46036 0.70032
 N548 N 0.88576 0.49579 0.72880
 C549 C 0.84280 0.52781 0.75233
 H550 H 0.84170 0.52089 0.76550
 C551 C 0.83134 0.54238 0.74765
 H552 H 0.82131 0.54630 0.75728
 C553 C 0.85673 0.53019 0.72349
 H554 H 0.86644 0.52522 0.71399
 C555 C 0.84550 0.54479 0.71823
 H556 H 0.84681 0.55106 0.70474
 Zn557 Zn 0.87021 0.50228 0.74790
 N558 N 0.85535 0.52222 0.74042
 C559 C 0.88243 0.52619 0.77726
 N560 N 0.88406 0.50916 0.76911
 C561 C 0.89610 0.49658 0.77556
 C562 C 0.90664 0.50060 0.79124
 C563 C 0.89274 0.53085 0.79295
 C564 C 0.84387 0.47618 0.74002
 C565 C 0.83258 0.46145 0.74332
 C566 C 0.84548 0.45906 0.77424
 C567 C 0.85644 0.47387 0.77035
 N568 N 0.85561 0.48196 0.75338
 H569 H 0.87317 0.53624 0.77163
 H570 H 0.89744 0.48331 0.76851
 H571 H 0.91608 0.49017 0.79565
 H572 H 0.89108 0.54446 0.79928
 H573 H 0.84335 0.48301 0.72670
 H574 H 0.82374 0.45715 0.73214
 H575 H 0.84650 0.45280 0.78786
 H576 H 0.86554 0.47891 0.78097
 C577 C 0.83280 0.55125 0.73047
 C578 C 0.90934 0.48703 0.70122
 C579 C 0.83326 0.45260 0.76072
 C580 C 0.90491 0.51793 0.80041
 C581 C 0.23284 0.40101 0.00611
 H582 H 0.23984 0.39953 0.01930
 C583 C 0.21999 0.41479 0.00393
 H584 H 0.21710 0.42388 0.01555
 C585 C 0.22821 0.39095 -0.02506
 H586 H 0.23170 0.38186 -0.03642
 C587 C 0.21519 0.40454 -0.02785
 H588 H 0.20895 0.40573 -0.04146
 N589 N 0.23651 0.38926 -0.00818
 C590 C 0.25745 0.34059 0.02069
 H591 H 0.27027 0.33916 0.01475
 C592 C 0.25243 0.32847 0.03455
 H593 H 0.26144 0.31757 0.03898
 C594 C 0.22997 0.35620 0.02151
 H595 H 0.22115 0.36687 0.01627
 C596 C 0.22437 0.34429 0.03524
 H597 H 0.21132 0.34605 0.04061
 Zn598 Zn 0.25412 0.37112 -0.00331
 N599 N 0.24641 0.35443 0.01482
 C600 C 0.28215 0.38072 0.02225
 N601 N 0.27424 0.38412 0.00545
 C602 C 0.28013 0.39762 -0.00576
 C603 C 0.29490 0.40795 -0.00056
 C604 C 0.29699 0.39071 0.02804
 C605 C 0.24640 0.34686 -0.03309
 C606 C 0.24933 0.33604 -0.04886
 C607 C 0.28049 0.34713 -0.04707
 C608 C 0.27593 0.35735 -0.03141
 N609 N 0.25936 0.35722 -0.02500
 H610 H 0.27699 0.37034 0.03125
 H611 H 0.27332 0.40031 -0.01886
 H612 H 0.29886 0.41860 -0.00995
 H613 H 0.30315 0.38766 0.04142
 H614 H 0.23353 0.34702 -0.02715
 H615 H 0.23860 0.32806 -0.05491
 H616 H 0.29386 0.34767 -0.05171
 H617 H 0.28594 0.36538 -0.02419
 C618 C 0.23577 0.33050 0.04223
 C619 C 0.21078 0.41652 -0.01310
 C620 C 0.26736 0.33520 -0.05758
 C621 C 0.30377 0.40443 0.01654
 C622 C 0.71817 0.09486 -0.00374
 H623 H 0.72532 0.09441 -0.01649
 C624 C 0.70377 0.08331 -0.00168
 H625 H 0.69987 0.07400 -0.01294
 C626 C 0.71470 0.10749 0.02644
 H627 H 0.71907 0.11684 0.03741
 C628 C 0.70023 0.09610 0.02914
 H629 H 0.69349 0.09728 0.04208
 N630 N 0.72321 0.10681 0.01011
 C631 C 0.75108 0.15009 -0.01872
 H632 H 0.76350 0.14974 -0.01104
 C633 C 0.74869 0.16250 -0.03332
 H634 H 0.75934 0.17157 -0.03675
 C635 C 0.72218 0.13827 -0.02284
 H636 H 0.71213 0.12901 -0.01833
 C637 C 0.71834 0.15011 -0.03759
 H638 H 0.70546 0.14962 -0.04433
 Zn639 Zn 0.74307 0.12168 0.00577
 N640 N 0.73821 0.13822 -0.01411
 C641 C 0.76984 0.10617 -0.01648
 N642 N 0.76163 0.10512 -0.00007
 C643 C 0.76574 0.09198 0.01276
 C644 C 0.77925 0.07918 0.01012
 C645 C 0.78357 0.09415 -0.02075
 C646 C 0.73777 0.14916 0.03317
 C647 C 0.74203 0.16044 0.04856
 C648 C 0.77046 0.14536 0.05054
 C649 C 0.76562 0.13439 0.03517
 N650 N 0.74940 0.13625 0.02699
 H651 H 0.76571 0.11650 -0.02650
 H652 H 0.75848 0.09161 0.02542
 H653 H 0.78226 0.06910 0.02084
 H654 H 0.78988 0.09561 -0.03390
 H655 H 0.72515 0.15074 0.02605
 H656 H 0.73244 0.17063 0.05280
 H657 H 0.78346 0.14353 0.05681
 H658 H 0.77494 0.12454 0.02969
 C659 C 0.73159 0.16336 -0.04440
 C660 C 0.69463 0.08375 0.01493
 C661 C 0.75860 0.15849 0.05766
 C662 C 0.78988 0.07915 -0.00720
 C663 C 0.21599 0.59120 0.49644
 H664 H 0.22327 0.58840 0.48404
 C665 C 0.20150 0.58034 0.50041
 H666 H 0.19798 0.56926 0.49084
 C667 C 0.21240 0.60897 0.52393
 H668 H 0.21684 0.61992 0.53325
 C669 C 0.19786 0.59845 0.52847
 H670 H 0.19115 0.60162 0.54117
 N671 N 0.22098 0.60537 0.50799
 C672 C 0.24920 0.64378 0.47345
 H673 H 0.26133 0.64493 0.48156
 C674 C 0.24668 0.65427 0.45738
 H675 H 0.25721 0.66307 0.45312
 C676 C 0.22102 0.63049 0.46932
 H677 H 0.21091 0.62149 0.47419
 C678 C 0.21795 0.64070 0.45314
 H679 H 0.20553 0.63928 0.44558
 Zn680 Zn 0.24079 0.61942 0.50166
 N681 N 0.23650 0.63211 0.47904
 C682 C 0.26814 0.60073 0.48318
 N683 N 0.26005 0.60269 0.49963
 C684 C 0.26471 0.59249 0.51477
 C685 C 0.27859 0.57977 0.51445
 C686 C 0.28212 0.58840 0.48109
 C687 C 0.23305 0.65137 0.52214
 C688 C 0.23576 0.66582 0.53493
 C689 C 0.26431 0.65271 0.54267
 C690 C 0.26099 0.63847 0.52973
 N691 N 0.24550 0.63797 0.51991
 H692 H 0.26362 0.60875 0.47137
 H693 H 0.25754 0.59437 0.52740
 H694 H 0.28200 0.57205 0.52689
 H695 H 0.28817 0.58744 0.46772
 H696 H 0.22095 0.65079 0.51392
 H697 H 0.22556 0.67626 0.53649
 H698 H 0.27670 0.65231 0.55031
 H699 H 0.27090 0.62793 0.52749
 C700 C 0.23076 0.65293 0.44708
 C701 C 0.19211 0.58400 0.51661
 C702 C 0.25158 0.66678 0.54542
 C703 C 0.28897 0.57646 0.49715
 C704 C 0.73155 0.89883 0.51195
 H705 H 0.74055 0.89689 0.52368
 C706 C 0.71830 0.91231 0.51281
 H707 H 0.71708 0.92066 0.52531
 C708 C 0.72236 0.89042 0.48132
 H709 H 0.72406 0.88194 0.46903
 C710 C 0.70897 0.90381 0.48155
 H711 H 0.70024 0.90502 0.46950
 N712 N 0.73326 0.88813 0.49643
 C713 C 0.76094 0.83790 0.51468
 H714 H 0.77146 0.83754 0.50492
 C715 C 0.75971 0.82388 0.52781
 H716 H 0.76936 0.81272 0.52812
 C717 C 0.73562 0.85293 0.52613
 H718 H 0.72622 0.86422 0.52540
 C719 C 0.73391 0.83922 0.53950
 H720 H 0.72338 0.84058 0.54917
 Zn721 Zn 0.75206 0.87074 0.49623
 N722 N 0.74914 0.85218 0.51424
 C723 C 0.78370 0.87927 0.51618
 N724 N 0.77292 0.88408 0.50162
 C725 C 0.77629 0.89913 0.49110
 C726 C 0.79113 0.90992 0.49491
 C727 C 0.79873 0.88956 0.52042
 C728 C 0.73979 0.84699 0.46807
 C729 C 0.74020 0.83591 0.45213
 C730 C 0.76978 0.84954 0.44646
 C731 C 0.76781 0.85991 0.46269
 N732 N 0.75327 0.85840 0.47296
 H733 H 0.78061 0.86757 0.52471
 H734 H 0.76731 0.90283 0.47980
 H735 H 0.79312 0.92179 0.48621
 H736 H 0.80710 0.88540 0.53211
 H737 H 0.72865 0.84620 0.47698
 H738 H 0.72927 0.82682 0.44886
 H739 H 0.78171 0.85102 0.43887
 H740 H 0.77832 0.86894 0.46736
 C741 C 0.74605 0.82439 0.54041
 C742 C 0.70693 0.91509 0.49742
 C743 C 0.75580 0.83581 0.43967
 C744 C 0.80270 0.90518 0.50981
 C745 C 0.01428 0.22547 0.40376
 H746 H 0.02536 0.23474 0.40350
 C747 C 0.01327 0.21237 0.41783
 H748 H 0.02369 0.21156 0.42836
 C749 C -0.01288 0.21551 0.39045
 H750 H -0.02321 0.21705 0.37998
 C751 C -0.01443 0.20220 0.40428
 H752 H -0.02612 0.19382 0.40427
 N753 N 0.00145 0.22662 0.39029
 C754 C 0.02732 0.25115 0.34342
 H755 H 0.01871 0.26289 0.34059
 C756 C 0.04185 0.24792 0.33243
 H757 H 0.04401 0.25720 0.32106
 C758 C 0.03416 0.22448 0.36132
 H759 H 0.03100 0.21520 0.37238
 C760 C 0.04882 0.22073 0.35071
 H761 H 0.05691 0.20865 0.35388
 Zn762 Zn 0.00405 0.24504 0.37203
 N763 N 0.02391 0.23966 0.35771
 C764 C 0.02180 0.27810 0.38325
 N765 N 0.00699 0.26795 0.38488
 C766 C -0.00575 0.27331 0.39664
 C767 C -0.00398 0.28957 0.40727
 C768 C 0.02416 0.29442 0.39363
 C769 C -0.01956 0.23100 0.34468
 C770 C -0.03358 0.23151 0.33175
 C771 C -0.03951 0.26320 0.34118
 C772 C -0.02540 0.26204 0.35393
 N773 N -0.01580 0.24610 0.35553
 H774 H 0.03198 0.27343 0.37416
 H775 H -0.01731 0.26483 0.39783
 H776 H -0.01455 0.29324 0.41628
 H777 H 0.03616 0.30218 0.39216
 H778 H -0.01155 0.21856 0.34601
 H779 H -0.03629 0.21927 0.32328
 H780 H -0.04680 0.27611 0.34072
 H781 H -0.02203 0.27404 0.36237
 C782 C 0.05298 0.23261 0.33619
 C783 C -0.00109 0.20036 0.41809
 C784 C -0.04377 0.24780 0.32965
 C785 C 0.01129 0.30037 0.40602
 C786 C -0.00610 0.72666 0.09046
 H787 H -0.01750 0.73573 0.08997
 C788 C -0.00555 0.71095 0.07898
 H789 H -0.01662 0.70794 0.06970
 C790 C 0.02226 0.71974 0.10304
 H791 H 0.03312 0.72331 0.11234
 C792 C 0.02343 0.70394 0.09165
 H793 H 0.03508 0.69529 0.09274
 N794 N 0.00760 0.73067 0.10230
 C795 C -0.01608 0.76521 0.14519
 H796 H -0.00779 0.77732 0.14499
 C797 C -0.02972 0.76439 0.15769
 H798 H -0.03191 0.77601 0.16705
 C799 C -0.02318 0.73529 0.13335
 H800 H -0.02049 0.72387 0.12400
 C801 C -0.03699 0.73392 0.14555
 H802 H -0.04500 0.72160 0.14485
 Zn803 Zn 0.00560 0.75276 0.11664
 N804 N -0.01319 0.75087 0.13319
 C805 C -0.01258 0.78388 0.10049
 N806 N 0.00155 0.77228 0.09958
 C807 C 0.01327 0.77378 0.08585
 C808 C 0.01123 0.78758 0.07249
 C809 C -0.01514 0.79795 0.08741
 C810 C 0.03127 0.74513 0.14447
 C811 C 0.04614 0.74839 0.15585
 C812 C 0.05062 0.77694 0.13937
 C813 C 0.03568 0.77313 0.12837
 N814 N 0.02640 0.75737 0.13100
 H815 H -0.02191 0.78226 0.11132
 H816 H 0.02428 0.76421 0.08534
 H817 H 0.02085 0.78849 0.06176
 H818 H -0.02644 0.80693 0.08886
 H819 H 0.02353 0.73281 0.14643
 H820 H 0.04956 0.73814 0.16620
 H821 H 0.05773 0.78963 0.13697
 H822 H 0.03142 0.78294 0.11790
 C823 C -0.04036 0.74859 0.15803
 C824 C 0.00941 0.69949 0.07930
 C825 C 0.05608 0.76461 0.15345
 C826 C -0.00310 0.80000 0.07306
 C827 C 0.48468 0.23172 0.60188
 H828 H 0.47252 0.23958 0.60229
 C829 C 0.48604 0.21637 0.58997
 H830 H 0.47484 0.21245 0.58123
 C831 C 0.51405 0.22738 0.61273
 H832 H 0.52498 0.23177 0.62154
 C833 C 0.51601 0.21196 0.60098
 H834 H 0.52837 0.20447 0.60140
 N835 N 0.49852 0.23682 0.61307
 C836 C 0.47505 0.26730 0.65901
 H837 H 0.48236 0.28011 0.65871
 C838 C 0.46229 0.26493 0.67229
 H839 H 0.45975 0.27604 0.68214
 C840 C 0.46963 0.23719 0.64664
 H841 H 0.47279 0.22625 0.63690
 C842 C 0.45678 0.23423 0.65968
 H843 H 0.45035 0.22090 0.65978
 Zn844 Zn 0.49562 0.25801 0.62860
 N845 N 0.47822 0.25368 0.64629
 C846 C 0.47363 0.28767 0.61555
 N847 N 0.48892 0.27821 0.61308
 C848 C 0.49959 0.28248 0.59899
 C849 C 0.49538 0.29718 0.58708
 C850 C 0.46888 0.30246 0.60398
 C851 C 0.52254 0.25067 0.65476
 C852 C 0.53783 0.25386 0.66545
 C853 C 0.54091 0.28316 0.64986
 C854 C 0.52553 0.27941 0.63952
 N855 N 0.51678 0.26330 0.64202
 H856 H 0.46502 0.28377 0.62645
 H857 H 0.51147 0.27444 0.59704
 H858 H 0.50428 0.29989 0.57608
 H859 H 0.45669 0.30985 0.60637
 H860 H 0.51523 0.23804 0.65658
 H861 H 0.54200 0.24324 0.67513
 H862 H 0.54765 0.29610 0.64757
 H863 H 0.52058 0.28947 0.62962
 C864 C 0.45272 0.24838 0.67251
 C865 C 0.50189 0.20635 0.58928
 C866 C 0.54730 0.27040 0.66315
 C867 C 0.47985 0.30763 0.58959
 C868 C 0.51651 0.73529 0.91120
 H869 H 0.52897 0.74219 0.90992
 C870 C 0.51476 0.72186 0.92477
 H871 H 0.52592 0.71849 0.93380
 C872 C 0.48690 0.73193 0.90043
 H873 H 0.47634 0.73631 0.89113
 C874 C 0.48368 0.71833 0.91346
 H875 H 0.47073 0.71233 0.91377
 N876 N 0.50301 0.73966 0.89928
 C877 C 0.53012 0.76030 0.85127
 H878 H 0.52371 0.77366 0.84944
 C879 C 0.54348 0.75480 0.83948
 H880 H 0.54696 0.76398 0.82842
 C881 C 0.53260 0.73189 0.86752
 H882 H 0.52815 0.72285 0.87824
 C883 C 0.54600 0.72585 0.85609
 H884 H 0.55190 0.71226 0.85829
 Zn885 Zn 0.50758 0.75773 0.88110
 N886 N 0.52524 0.74903 0.86521
 C887 C 0.53103 0.78707 0.89168
 N888 N 0.51500 0.77943 0.89401
 C889 C 0.50361 0.78682 0.90625
 C890 C 0.50778 0.80299 0.91619
 C891 C 0.53583 0.80322 0.90145
 C892 C 0.47940 0.74894 0.85648
 C893 C 0.46402 0.75214 0.84590
 C894 C 0.46559 0.78459 0.85466
 C895 C 0.48078 0.78069 0.86523
 N896 N 0.48717 0.76302 0.86629
 H897 H 0.54014 0.78067 0.88231
 H898 H 0.49114 0.78015 0.90819
 H899 H 0.49833 0.80810 0.92591
 H900 H 0.54862 0.80916 0.89926
 H901 H 0.48505 0.73510 0.85711
 H902 H 0.45835 0.74045 0.83848
 H903 H 0.46072 0.79879 0.85421
 H904 H 0.48747 0.79187 0.87252
 C905 C 0.55186 0.73748 0.84211
 C906 C 0.49789 0.71178 0.92692
 C907 C 0.45670 0.77023 0.84504
 C908 C 0.52405 0.81170 0.91366
 C909 C 0.14213 0.23163 0.25400
 C910 C 0.13597 0.22133 0.26874
 C911 C 0.12098 0.22705 0.28019
 C912 C 0.11850 0.21781 0.29696
 C913 C 0.10420 0.22218 0.30792
 C914 C 0.09192 0.23583 0.30222
 C915 C 0.09454 0.24530 0.28563
 C916 C 0.10882 0.24089 0.27462
 C917 C 0.07644 0.24070 0.31326
 C918 C 0.06866 0.22822 0.32521
 H919 H 0.14256 0.20841 0.27228
 H920 H 0.12770 0.20715 0.30163
 H921 H 0.10298 0.21499 0.32093
 H922 H 0.08529 0.25591 0.28097
 H923 H 0.10995 0.24811 0.26164
 H924 H 0.07077 0.25438 0.31126
 H925 H 0.13647 0.24506 0.25070
 H926 H 0.07433 0.21446 0.32677
 C927 C 0.64178 0.73265 0.76207
 C928 C 0.63531 0.72099 0.77554
 C929 C 0.62064 0.72663 0.78737
 C930 C 0.60928 0.71304 0.79373
 C931 C 0.59499 0.71803 0.80451
 C932 C 0.59201 0.73677 0.80946
 C933 C 0.60359 0.75029 0.80329
 C934 C 0.61777 0.74531 0.79242
 C935 C 0.57698 0.74294 0.82067
 C936 C 0.56645 0.73094 0.83053
 H937 H 0.64023 0.70685 0.77650
 H938 H 0.61125 0.69856 0.79002
 H939 H 0.58628 0.70715 0.80857
 H940 H 0.60169 0.76481 0.80694
 H941 H 0.62657 0.75609 0.78818
 H942 H 0.57473 0.75777 0.82186
 H943 H 0.63573 0.74613 0.75975
 H944 H 0.56961 0.71628 0.83097
 C945 C 0.36417 0.77064 0.76428
 C946 C 0.36798 0.77978 0.78107
 C947 C 0.38351 0.77491 0.79297
 C948 C 0.39069 0.78836 0.80513
 C949 C 0.40570 0.78438 0.81610
 C950 C 0.41384 0.76674 0.81511
 C951 C 0.40622 0.75311 0.80344
 C952 C 0.39123 0.75708 0.79254
 C953 C 0.43002 0.76172 0.82603
 C954 C 0.44109 0.77468 0.83499
 H955 H 0.35994 0.79153 0.78513
 H956 H 0.38480 0.80209 0.80599
 H957 H 0.41064 0.79516 0.82534
 H958 H 0.41194 0.73929 0.80265
 H959 H 0.38569 0.74607 0.78396
 H960 H 0.43326 0.74710 0.82651
 H961 H 0.37284 0.75977 0.75942
 H962 H 0.43746 0.78921 0.83431
 C963 C -0.14057 0.28148 0.26319
 C964 C -0.12894 0.26642 0.26200
 C965 C -0.11276 0.26546 0.27388
 C966 C -0.10623 0.24818 0.27993
 C967 C -0.09154 0.24719 0.29208
 C968 C -0.08295 0.26354 0.29811
 C969 C -0.08925 0.28071 0.29157
 C970 C -0.10388 0.28168 0.27952
 C971 C -0.06798 0.26361 0.31177
 C972 C -0.05768 0.24796 0.31627
 H973 H -0.13219 0.25467 0.25307
 H974 H -0.11282 0.23547 0.27573
 H975 H -0.08738 0.23369 0.29707
 H976 H -0.08291 0.29351 0.29591
 H977 H -0.10817 0.29520 0.27464
 H978 H -0.06480 0.27697 0.31785
 H979 H -0.13788 0.29234 0.27338
 H980 H -0.06022 0.23518 0.30865
 C981 C -0.13291 0.71159 0.22622
 C982 C -0.12287 0.72754 0.22422
 C983 C -0.10762 0.72841 0.21199
 C984 C -0.10233 0.74577 0.20558
 C985 C -0.08802 0.74720 0.19400
 C986 C -0.07843 0.73123 0.18884
 C987 C -0.08363 0.71389 0.19545
 C988 C -0.09801 0.71246 0.20693
 C989 C -0.06332 0.73186 0.17631
 C990 C -0.05502 0.74821 0.17111
 H991 H -0.12674 0.74022 0.23128
 H992 H -0.10946 0.75827 0.20936
 H993 H -0.08482 0.76081 0.18901
 H994 H -0.07649 0.70136 0.19177
 H995 H -0.10133 0.69889 0.21202
 H996 H -0.05820 0.71866 0.17150
 H997 H -0.13009 0.69921 0.21815
 H998 H -0.05883 0.76132 0.17731
 C999 C 0.35431 0.21263 0.73102
 C1000 C 0.36718 0.22618 0.73365
 C1001 C 0.38189 0.22818 0.72082
 C1002 C 0.39759 0.23633 0.72734
 C1003 C 0.41171 0.23835 0.71555
 C1004 C 0.41028 0.23246 0.69687
 C1005 C 0.39453 0.22444 0.69036
 C1006 C 0.38045 0.22244 0.70211
 C1007 C 0.42482 0.23410 0.68378
 C1008 C 0.43887 0.24630 0.68634
 H1009 H 0.36689 0.23521 0.74576
 H1010 H 0.39902 0.24091 0.74167
 H1011 H 0.42374 0.24420 0.72126
 H1012 H 0.39303 0.21985 0.67603
 H1013 H 0.36839 0.21669 0.69633
 H1014 H 0.42369 0.22619 0.67095
 H1015 H 0.35546 0.20268 0.71974
 H1016 H 0.43911 0.25574 0.69812
 C1017 C 0.64084 0.27301 0.74422
 C1018 C 0.63444 0.28245 0.72852
 C1019 C 0.61787 0.27753 0.71838
 C1020 C 0.61522 0.28364 0.70006
 C1021 C 0.59974 0.27945 0.69003
 C1022 C 0.58645 0.26921 0.69825
 C1023 C 0.58909 0.26309 0.71656
 C1024 C 0.60453 0.26732 0.72660
 C1025 C 0.56996 0.26419 0.68806
 C1026 C 0.56281 0.27472 0.67338
 H1027 H 0.64211 0.29354 0.72292
 H1028 H 0.62525 0.29154 0.69340
 H1029 H 0.59844 0.28394 0.67577
 H1030 H 0.57905 0.25518 0.72320
 H1031 H 0.60574 0.26282 0.74085
 H1032 H 0.56294 0.25246 0.69326
 H1033 H 0.63383 0.26113 0.74918
 H1034 H 0.56940 0.28745 0.66997
 C1035 C 0.14626 0.76801 0.23856
 C1036 C 0.14009 0.77810 0.22323
 C1037 C 0.12394 0.77319 0.21234
 C1038 C 0.12196 0.77941 0.19400
 C1039 C 0.10703 0.77489 0.18318
 C1040 C 0.09357 0.76427 0.19064
 C1041 C 0.09552 0.75812 0.20901
 C1042 C 0.11044 0.76262 0.21982
 C1043 C 0.07760 0.75893 0.17963
 C1044 C 0.07113 0.76910 0.16438
 H1045 H 0.14786 0.78949 0.21837
 H1046 H 0.13215 0.78754 0.18789
 H1047 H 0.10632 0.77944 0.16892
 H1048 H 0.08536 0.74992 0.21511
 H1049 H 0.11117 0.75800 0.23405
 H1050 H 0.07041 0.74721 0.18459
 H1051 H 0.13929 0.75585 0.24290
 H1052 H 0.07790 0.78174 0.16102
 C1053 C 0.24802 0.13837 0.23447
 C1054 C 0.26451 0.13393 0.22766
 C1055 C 0.27570 0.11825 0.23428
 C1056 C 0.29030 0.11322 0.22387
 C1057 C 0.30126 0.09850 0.22934
 C1058 C 0.29779 0.08837 0.24540
 C1059 C 0.28347 0.09367 0.25610
 C1060 C 0.27249 0.10843 0.25063
 C1061 C 0.30914 0.07270 0.25168
 C1062 C 0.31961 0.06241 0.23964
 H1063 H 0.26938 0.14204 0.21638
 H1064 H 0.29328 0.12073 0.21141
 H1065 H 0.31257 0.09541 0.22111
 H1066 H 0.28071 0.08630 0.26870
 H1067 H 0.26173 0.11212 0.25939
 H1068 H 0.30901 0.06920 0.26623
 H1069 H 0.24249 0.13036 0.24542
 H1070 H 0.31933 0.06576 0.22503
 C1071 C 0.75115 0.64481 0.72869
 C1072 C 0.76560 0.63955 0.71833
 C1073 C 0.77751 0.62388 0.72339
 C1074 C 0.78806 0.61602 0.70970
 C1075 C 0.79951 0.60125 0.71388
 C1076 C 0.80067 0.59404 0.73198
 C1077 C 0.79038 0.60220 0.74575
 C1078 C 0.77895 0.61695 0.74156
 C1079 C 0.81259 0.57843 0.73730
 C1080 C 0.82107 0.56680 0.72466
 H1081 H 0.76798 0.64674 0.70554
 H1082 H 0.78742 0.62129 0.69566
 H1083 H 0.80750 0.59584 0.70290
 H1084 H 0.79118 0.59714 0.75987
 H1085 H 0.77155 0.62302 0.75271
 H1086 H 0.81465 0.57602 0.75200
 H1087 H 0.74785 0.63709 0.74088
 H1088 H 0.81957 0.56925 0.70993
 C1089 C 0.75179 0.36140 0.76443
 C1090 C 0.76716 0.36723 0.77371
 C1091 C 0.77759 0.38345 0.76814
 C1092 C 0.79490 0.38502 0.77512
 C1093 C 0.80518 0.40020 0.77055
 C1094 C 0.79826 0.41430 0.75903
 C1095 C 0.78100 0.41268 0.75193
 C1096 C 0.77069 0.39752 0.75653
 C1097 C 0.80881 0.43052 0.75378
 C1098 C 0.82249 0.43756 0.76515
 H1099 H 0.77218 0.35920 0.78536
 H1100 H 0.80056 0.37437 0.78405
 H1101 H 0.81862 0.40063 0.77581
 H1102 H 0.77537 0.42334 0.74299
 H1103 H 0.75729 0.39714 0.75121
 H1104 H 0.80478 0.43754 0.74116
 H1105 H 0.74699 0.36853 0.75214
 H1106 H 0.82467 0.43127 0.77863
 C1107 C 0.25719 -0.14512 0.26631
 C1108 C 0.27136 -0.13862 0.27727
 C1109 C 0.28232 -0.12254 0.27240
 C1110 C 0.29879 -0.12053 0.28141
 C1111 C 0.30951 -0.10548 0.27757
 C1112 C 0.30387 -0.09189 0.26477
 C1113 C 0.28748 -0.09397 0.25562
 C1114 C 0.27674 -0.10904 0.25946
 C1115 C 0.31480 -0.07562 0.26046
 C1116 C 0.32722 -0.06816 0.27314
 H1117 H 0.27515 -0.14602 0.28978
 H1118 H 0.30346 -0.13075 0.29138
 H1119 H 0.32229 -0.10474 0.28448
 H1120 H 0.28284 -0.08372 0.24568
 H1121 H 0.26400 -0.10976 0.25251
 H1122 H 0.31196 -0.06885 0.24739
 H1123 H 0.25382 -0.13845 0.25329
 H1124 H 0.32837 -0.07443 0.28673
 C1125 C 0.24801 -0.15032 0.73079
 C1126 C 0.23344 -0.14518 0.71968
 C1127 C 0.22095 -0.13013 0.72467
 C1128 C 0.21006 -0.12245 0.71063
 C1129 C 0.19806 -0.10826 0.71466
 C1130 C 0.19665 -0.10143 0.73295
 C1131 C 0.20730 -0.10938 0.74704
 C1132 C 0.21930 -0.12356 0.74301
 C1133 C 0.18420 -0.08637 0.73811
 C1134 C 0.17527 -0.07488 0.72537
 H1135 H 0.23135 -0.15194 0.70631
 H1136 H 0.21088 -0.12741 0.69643
 H1137 H 0.18985 -0.10301 0.70339
 H1138 H 0.20635 -0.10460 0.76129
 H1139 H 0.22696 -0.12946 0.75439
 H1140 H 0.18217 -0.08423 0.75278
 H1141 H 0.25077 -0.14299 0.74371
 H1142 H 0.17670 -0.07717 0.71065
 C1143 C 0.74721 0.36450 0.23365
 C1144 C 0.73069 0.36846 0.22572
 C1145 C 0.72025 0.38514 0.23077
 C1146 C 0.70693 0.39141 0.21844
 C1147 C 0.69670 0.40699 0.22286
 C1148 C 0.69950 0.41649 0.23984
 C1149 C 0.71271 0.41014 0.25222
 C1150 C 0.72293 0.39459 0.24781
 C1151 C 0.68877 0.43282 0.24515
 C1152 C 0.67545 0.43983 0.23361
 H1153 H 0.72528 0.35924 0.21508
 H1154 H 0.70448 0.38431 0.20529
 H1155 H 0.68661 0.41153 0.21298
 H1156 H 0.71508 0.41718 0.26542
 H1157 H 0.73263 0.38987 0.25799
 H1158 H 0.69135 0.43931 0.25858
 H1159 H 0.75331 0.37412 0.24343
 H1160 H 0.66943 0.44906 0.23730
 C1161 C 0.75055 0.64422 0.26429
 C1162 C 0.73644 0.64046 0.27554
 C1163 C 0.72360 0.62560 0.27118
 C1164 C 0.71477 0.61731 0.28572
 C1165 C 0.70284 0.60296 0.28214
 C1166 C 0.69923 0.59683 0.26379
 C1167 C 0.70789 0.60537 0.24925
 C1168 C 0.71988 0.61963 0.25285
 C1169 C 0.68712 0.58129 0.25915
 C1170 C 0.67488 0.57420 0.27134
 H1171 H 0.73536 0.64785 0.28863
 H1172 H 0.71740 0.62170 0.29996
 H1173 H 0.69685 0.59656 0.29385
 H1174 H 0.70536 0.60101 0.23499
 H1175 H 0.72602 0.62606 0.24122
 H1176 H 0.68781 0.57577 0.24521
 H1177 H 0.75264 0.63589 0.25195
 H1178 H 0.67364 0.58095 0.28473
 C1179 C 0.24713 0.13003 0.76146
 C1180 C 0.23538 0.12224 0.77360
 C1181 C 0.22403 0.10628 0.76847
 C1182 C 0.21721 0.09546 0.78260
 C1183 C 0.20618 0.08049 0.77831
 C1184 C 0.20153 0.07623 0.75970
 C1185 C 0.20842 0.08702 0.74558
 C1186 C 0.21945 0.10195 0.74988
 C1187 C 0.18986 0.06056 0.75437
 C1188 C 0.17777 0.05287 0.76634
 H1189 H 0.23472 0.12770 0.78762
 H1190 H 0.22055 0.09850 0.79703
 H1191 H 0.20162 0.07221 0.78960
 H1192 H 0.20507 0.08404 0.73114
 H1193 H 0.22401 0.11023 0.73859
 H1194 H 0.19032 0.05594 0.74010
 H1195 H 0.24894 0.12389 0.74788
 H1196 H 0.17673 0.05898 0.78005
 C1197 C 0.22866 0.25201 0.14014
 C1198 C 0.21995 0.26789 0.13360
 C1199 C 0.22568 0.27859 0.11744
 C1200 C 0.21352 0.29039 0.10839
 C1201 C 0.21829 0.30069 0.09303
 C1202 C 0.23544 0.29939 0.08636
 C1203 C 0.24772 0.28792 0.09569
 C1204 C 0.24295 0.27763 0.11107
 C1205 C 0.24125 0.31023 0.07030
 C1206 C 0.22976 0.31854 0.05731
 H1207 H 0.20786 0.27218 0.13996
 H1208 H 0.20023 0.29164 0.11321
 H1209 H 0.20855 0.30984 0.08676
 H1210 H 0.26110 0.28692 0.09108
 H1211 H 0.25292 0.26926 0.11802
 H1212 H 0.25524 0.31177 0.06881
 H1213 H 0.24018 0.24681 0.13334
 H1214 H 0.21575 0.31715 0.05862
 C1215 C 0.71073 0.75770 0.63802
 C1216 C 0.72501 0.75643 0.62642
 C1217 C 0.72633 0.76825 0.60989
 C1218 C 0.74289 0.77392 0.60430
 C1219 C 0.74441 0.78592 0.58930
 C1220 C 0.72933 0.79218 0.57938
 C1221 C 0.71282 0.78607 0.58471
 C1222 C 0.71130 0.77417 0.59974
 C1223 C 0.73008 0.80577 0.56414
 C1224 C 0.74529 0.80973 0.55464
 H1225 H 0.73611 0.74764 0.63031
 H1226 H 0.75464 0.76950 0.61192
 H1227 H 0.75736 0.79063 0.58597
 H1228 H 0.70100 0.79062 0.57729
 H1229 H 0.69836 0.76959 0.60332
 H1230 H 0.71790 0.81258 0.55999
 H1231 H 0.70041 0.76779 0.63512
 H1232 H 0.75699 0.80141 0.55715
 C1233 C 0.79119 0.76852 0.33758
 C1234 C 0.77897 0.76744 0.35157
 C1235 C 0.77701 0.78186 0.36624
 C1236 C 0.76155 0.78239 0.37636
 C1237 C 0.75941 0.79543 0.39068
 C1238 C 0.77280 0.80814 0.39524
 C1239 C 0.78825 0.80762 0.38515
 C1240 C 0.79040 0.79459 0.37086
 C1241 C 0.77136 0.82168 0.41072
 C1242 C 0.75691 0.82236 0.42204
 H1243 H 0.77023 0.75567 0.35167
 H1244 H 0.75109 0.77266 0.37319
 H1245 H 0.74734 0.79540 0.39823
 H1246 H 0.79883 0.81714 0.38851
 H1247 H 0.80275 0.79434 0.36388
 H1248 H 0.78231 0.83086 0.41364
 H1249 H 0.79928 0.78070 0.33649
 H1250 H 0.75699 0.82951 0.43089
 C1251 C 0.27530 0.24929 -0.15167
 C1252 C 0.28308 0.26632 -0.14731
 C1253 C 0.27728 0.27820 -0.13169
 C1254 C 0.28921 0.29054 -0.12310
 C1255 C 0.28417 0.30170 -0.10812
 C1256 C 0.26698 0.30086 -0.10158
 C1257 C 0.25493 0.28889 -0.11050
 C1258 C 0.25998 0.27770 -0.12542
 C1259 C 0.26126 0.31210 -0.08551
 C1260 C 0.27278 0.32343 -0.07538
 H1261 H 0.29422 0.27076 -0.15505
 H1262 H 0.30254 0.29134 -0.12782
 H1263 H 0.29377 0.31090 -0.10166
 H1264 H 0.24156 0.28814 -0.10589
 H1265 H 0.25022 0.26888 -0.13211
 H1266 H 0.24775 0.31107 -0.08136
 H1267 H 0.26510 0.24405 -0.14307
 H1268 H 0.26908 0.32907 -0.06640
 C1269 C 0.73055 0.24865 -0.14104
 C1270 C 0.72094 0.23374 -0.13454
 C1271 C 0.72588 0.22281 -0.11780
 C1272 C 0.71324 0.21118 -0.11037
 C1273 C 0.71725 0.20033 -0.09482
 C1274 C 0.73411 0.20080 -0.08636
 C1275 C 0.74680 0.21238 -0.09378
 C1276 C 0.74278 0.22325 -0.10936
 C1277 C 0.73882 0.18924 -0.07005
 C1278 C 0.72688 0.17718 -0.06251
 H1279 H 0.70879 0.23012 -0.14178
 H1280 H 0.70015 0.21048 -0.11661
 H1281 H 0.70714 0.19154 -0.08952
 H1282 H 0.75992 0.21289 -0.08760
 H1283 H 0.75307 0.23165 -0.11483
 H1284 H 0.75201 0.19004 -0.06405
 H1285 H 0.74231 0.25320 -0.13365
 H1286 H 0.73016 0.17062 -0.05329
 C1287 C 0.23109 0.74026 0.35549
 C1288 C 0.22215 0.72410 0.35988
 C1289 C 0.22591 0.71307 0.37683
 C1290 C 0.21313 0.70072 0.38276
 C1291 C 0.21614 0.68990 0.39855
 C1292 C 0.23219 0.69102 0.40866
 C1293 C 0.24497 0.70338 0.40273
 C1294 C 0.24195 0.71421 0.38693
 C1295 C 0.23597 0.68001 0.42563
 C1296 C 0.22709 0.66376 0.42997
 H1297 H 0.21139 0.71959 0.35084
 H1298 H 0.20065 0.69959 0.37525
 H1299 H 0.20572 0.68099 0.40289
 H1300 H 0.25745 0.70452 0.41024
 H1301 H 0.25234 0.72316 0.38258
 H1302 H 0.24636 0.68496 0.43488
 H1303 H 0.24114 0.74574 0.36488
 H1304 H 0.21670 0.65878 0.42072
 C1305 C 0.29233 0.74088 0.63845
 C1306 C 0.27741 0.74065 0.62679
 C1307 C 0.27539 0.72721 0.61118
 C1308 C 0.25853 0.72139 0.60558
 C1309 C 0.25626 0.70787 0.59164
 C1310 C 0.27088 0.70014 0.58278
 C1311 C 0.28771 0.70632 0.58810
 C1312 C 0.28997 0.71979 0.60204
 C1313 C 0.26927 0.68507 0.56867
 C1314 C 0.25384 0.68157 0.55822
 H1315 H 0.26629 0.74942 0.63012
 H1316 H 0.24709 0.72690 0.61241
 H1317 H 0.24309 0.70318 0.58831
 H1318 H 0.29919 0.70066 0.58147
 H1319 H 0.30315 0.72436 0.60555
 H1320 H 0.28104 0.67710 0.56613
 H1321 H 0.30292 0.73110 0.63612
 H1322 H 0.24294 0.69116 0.55975
 C1323 C 0.76619 0.23983 0.15435
 C1324 C 0.77696 0.22693 0.14551
 C1325 C 0.77071 0.21529 0.12960
 C1326 C 0.78286 0.20878 0.11674
 C1327 C 0.77740 0.19789 0.10149
 C1328 C 0.75964 0.19301 0.09896
 C1329 C 0.74751 0.19947 0.11186
 C1330 C 0.75297 0.21039 0.12709
 C1331 C 0.75323 0.18174 0.08284
 C1332 C 0.76396 0.16920 0.07328
 H1333 H 0.79071 0.22603 0.14963
 H1334 H 0.79658 0.21244 0.11833
 H1335 H 0.78708 0.19369 0.09156
 H1336 H 0.73376 0.19593 0.11026
 H1337 H 0.74329 0.21471 0.13696
 H1338 H 0.73938 0.18274 0.07936
 H1339 H 0.75282 0.24195 0.14929
 H1340 H 0.77725 0.16713 0.07863
 C1341 C 0.47429 0.39890 0.50360
 C1342 C 0.46397 0.39245 0.51781
 C1343 C 0.46944 0.37669 0.52986
 C1344 C 0.45659 0.36642 0.53868
 C1345 C 0.46132 0.35136 0.54999
 C1346 C 0.47911 0.34645 0.55292
 C1347 C 0.49193 0.35684 0.54421
 C1348 C 0.48721 0.37186 0.53293
 C1349 C 0.48486 0.33039 0.56442
 C1350 C 0.47474 0.32283 0.57838
 H1351 H 0.45113 0.39861 0.51971
 H1352 H 0.44281 0.36986 0.53656
 H1353 H 0.45099 0.34344 0.55603
 H1354 H 0.50572 0.35342 0.54626
 H1355 H 0.49757 0.37977 0.52690
 H1356 H 0.49799 0.32524 0.56226
 H1357 H 0.48654 0.39194 0.50062
 H1358 H 0.46231 0.32951 0.58122
 C1359 C -0.03521 0.89971 0.00380
 C1360 C -0.02223 0.88592 0.00367
 C1361 C -0.02144 0.87062 0.01728
 C1362 C -0.00518 0.86223 0.02169
 C1363 C -0.00390 0.84801 0.03477
 C1364 C -0.01898 0.84164 0.04348
 C1365 C -0.03525 0.84993 0.03891
 C1366 C -0.03652 0.86417 0.02588
 C1367 C -0.01827 0.82693 0.05777
 C1368 C -0.00459 0.81385 0.05939
 H1369 H -0.01168 0.88697 -0.00599
 H1370 H 0.00663 0.86696 0.01527
 H1371 H 0.00898 0.84244 0.03826
 H1372 H -0.04707 0.84530 0.04538
 H1373 H -0.04936 0.86990 0.02247
 H1374 H -0.02938 0.82623 0.06668
 H1375 H -0.04506 0.89962 0.01430
 H1376 H 0.00553 0.81415 0.04917
 C1377 C 0.04264 0.60032 0.00751
 C1378 C 0.02902 0.61340 0.00796
 C1379 C 0.02832 0.62900 0.02159
 C1380 C 0.01232 0.63843 0.02381
 C1381 C 0.01101 0.65329 0.03637
 C1382 C 0.02576 0.65907 0.04708
 C1383 C 0.04184 0.64984 0.04461
 C1384 C 0.04315 0.63500 0.03202
 C1385 C 0.02521 0.67493 0.06043
 C1386 C 0.00973 0.68305 0.06675
 H1387 H 0.01804 0.61189 -0.00179
 H1388 H 0.00074 0.63429 0.01576
 H1389 H -0.00154 0.66029 0.03726
 H1390 H 0.05349 0.65416 0.05243
 H1391 H 0.05589 0.62860 0.03038
 H1392 H 0.03768 0.68048 0.06532
 H1393 H 0.05338 0.60093 0.01762
 H1394 H -0.00282 0.67782 0.06184
 C1395 C 0.54046 0.10729 0.52011
 C1396 C 0.52584 0.11911 0.52060
 C1397 C 0.52429 0.13518 0.53355
 C1398 C 0.50762 0.14298 0.53634
 C1399 C 0.50551 0.15829 0.54821
 C1400 C 0.52013 0.16623 0.55761
 C1401 C 0.53683 0.15857 0.55459
 C1402 C 0.53893 0.14327 0.54271
 C1403 C 0.51876 0.18258 0.57032
 C1404 C 0.50295 0.19002 0.57660
 H1405 H 0.51467 0.11616 0.51144
 H1406 H 0.49614 0.13719 0.52929
 H1407 H 0.49242 0.16384 0.54965
 H1408 H 0.54836 0.16450 0.56143
 H1409 H 0.55209 0.13813 0.54056
 H1410 H 0.53094 0.18903 0.57483
 H1411 H 0.55139 0.10924 0.52981
 H1412 H 0.49064 0.18410 0.57182
 C1413 C -0.03519 0.10475 0.48969
 C1414 C -0.01987 0.11506 0.48863
 C1415 C -0.01758 0.12904 0.47400
 C1416 C -0.00698 0.14453 0.47772
 C1417 C -0.00495 0.15818 0.46426
 C1418 C -0.01331 0.15639 0.44662
 C1419 C -0.02361 0.14064 0.44285
 C1420 C -0.02570 0.12710 0.45632
 C1421 C -0.01194 0.17043 0.43176
 C1422 C -0.00192 0.18659 0.43320
 H1423 H -0.00967 0.11355 0.49930
 H1424 H -0.00050 0.14626 0.49122
 H1425 H 0.00305 0.17002 0.46796
 H1426 H -0.03012 0.13880 0.42939
 H1427 H -0.03353 0.11504 0.45273
 H1428 H -0.01900 0.16757 0.41881
 H1429 H -0.04598 0.10730 0.47992
 H1430 H 0.00630 0.18910 0.44542
 C1431 C 0.45965 0.61336 0.99611
 C1432 C 0.47459 0.62418 0.99563
 C1433 C 0.47592 0.63980 0.98257
 C1434 C 0.49154 0.64994 0.98226
 C1435 C 0.49321 0.66467 0.96994
 C1436 C 0.47924 0.66953 0.95768
 C1437 C 0.46359 0.65946 0.95808
 C1438 C 0.46192 0.64474 0.97038
 C1439 C 0.48064 0.68476 0.94421
 C1440 C 0.49585 0.69504 0.94272
 H1441 H 0.48561 0.62106 1.00499
 H1442 H 0.50250 0.64641 0.99150
 H1443 H 0.50547 0.67216 0.96999
 H1444 H 0.45263 0.66294 0.94880
 H1445 H 0.44967 0.63724 0.97026
 H1446 H 0.46950 0.68767 0.93496
 H1447 H 0.45944 0.60444 1.00392
 H1448 H 0.49623 0.70339 0.93453
 C1449 C 0.52410 0.90604 0.99535
 C1450 C 0.53560 0.90144 0.98133
 C1451 C 0.53135 0.88643 0.96781
 C1452 C 0.54468 0.87464 0.96144
 C1453 C 0.54057 0.85940 0.94990
 C1454 C 0.52303 0.85596 0.94427
 C1455 C 0.50986 0.86826 0.95008
 C1456 C 0.51395 0.88336 0.96164
 C1457 C 0.51764 0.83926 0.93341
 C1458 C 0.52904 0.82822 0.92301
 H1459 H 0.54836 0.90791 0.98110
 H1460 H 0.55819 0.87679 0.96599
 H1461 H 0.55108 0.85008 0.94602
 H1462 H 0.49627 0.86603 0.94587
 H1463 H 0.50344 0.89255 0.96585
 H1464 H 0.50379 0.83620 0.93319
 H1465 H 0.51215 0.89817 0.99661
 H1466 H 0.54234 0.83298 0.92145
 C1467 C 0.01158 0.39323 0.49222
 C1468 C 0.02117 0.38700 0.47714
 C1469 C 0.01590 0.37107 0.46511
 C1470 C 0.02318 0.36934 0.44750
 C1471 C 0.01908 0.35418 0.43594
 C1472 C 0.00777 0.34024 0.44190
 C1473 C 0.00032 0.34210 0.45941
 C1474 C 0.00441 0.35727 0.47097
 C1475 C 0.00337 0.32370 0.43031
 C1476 C 0.01443 0.31659 0.41670
 H1477 H 0.03293 0.39435 0.47366
 H1478 H 0.03203 0.37981 0.44264
 H1479 H 0.02465 0.35361 0.42231
 H1480 H -0.00843 0.33157 0.46433
 H1481 H -0.00114 0.35781 0.48460
 H1482 H -0.00840 0.31643 0.43376
 H1483 H -0.00091 0.38707 0.49514
 H1484 H 0.02668 0.32367 0.41466
 C1485 C 0.38911 0.51477 0.46491
 C1486 C 0.37602 0.51143 0.47755
 C1487 C 0.35984 0.52301 0.47812
 C1488 C 0.35105 0.52513 0.49487
 C1489 C 0.33611 0.53654 0.49586
 C1490 C 0.32960 0.54590 0.48000
 C1491 C 0.33808 0.54329 0.46315
 C1492 C 0.35297 0.53193 0.46217
 C1493 C 0.31427 0.55864 0.48051
 C1494 C 0.30501 0.56211 0.49654
 H1495 H 0.37802 0.50068 0.48782
 H1496 H 0.35596 0.51822 0.50729
 H1497 H 0.32980 0.53817 0.50905
 H1498 H 0.33321 0.55013 0.45067
 H1499 H 0.35896 0.53006 0.44884
 H1500 H 0.31035 0.56569 0.46781
 H1501 H 0.38781 0.52648 0.45565
 H1502 H 0.29690 0.56959 0.49622
 C1503 C 0.88794 0.01725 -0.04635
 C1504 C 0.87636 0.01598 -0.03192
 C1505 C 0.86063 0.02806 -0.03078
 C1506 C 0.84997 0.02676 -0.01532
 C1507 C 0.83529 0.03836 -0.01356
 C1508 C 0.83097 0.05151 -0.02732
 C1509 C 0.84148 0.05262 -0.04292
 C1510 C 0.85618 0.04104 -0.04466
 C1511 C 0.81587 0.06441 -0.02564
 C1512 C 0.80566 0.06484 -0.00998
 H1513 H 0.87914 0.00611 -0.02093
 H1514 H 0.85309 0.01684 -0.00447
 H1515 H 0.82743 0.03709 -0.00137
 H1516 H 0.83843 0.06261 -0.05372
 H1517 H 0.86408 0.04238 -0.05680
 H1518 H 0.81309 0.07409 -0.03679
 H1519 H 0.89715 0.01033 -0.04635
 H1520 H 0.79775 0.07251 -0.00940
 C1521 C 0.60025 0.01839 0.05418
 C1522 C 0.61235 0.01785 0.03998
 C1523 C 0.62767 0.03036 0.03883
 C1524 C 0.63749 0.02973 0.02265
 C1525 C 0.65193 0.04130 0.02068
 C1526 C 0.65687 0.05393 0.03490
 C1527 C 0.64731 0.05430 0.05125
 C1528 C 0.63287 0.04270 0.05324
 C1529 C 0.67209 0.06650 0.03346
 C1530 C 0.67925 0.07145 0.01657
 H1531 H 0.61028 0.00798 0.02871
 H1532 H 0.63399 0.02019 0.01143
 H1533 H 0.65927 0.03999 0.00812
 H1534 H 0.65097 0.06371 0.06252
 H1535 H 0.62603 0.04350 0.06613
 H1536 H 0.67760 0.07219 0.04627
 H1537 H 0.60163 0.02821 0.06554
 H1538 H 0.67358 0.06589 0.00376
 C1539 C 0.10088 0.50246 0.52207
 C1540 C 0.10776 0.51766 0.53197
 C1541 C 0.12327 0.52822 0.52617
 C1542 C 0.12637 0.54584 0.53409
 C1543 C 0.14096 0.55618 0.52925
 C1544 C 0.15293 0.54898 0.51646
 C1545 C 0.14979 0.53142 0.50846
 C1546 C 0.13524 0.52107 0.51334
 C1547 C 0.16854 0.55943 0.51082
 C1548 C 0.17649 0.57326 0.52187
 H1549 H 0.10131 0.52230 0.54440
 H1550 H 0.11737 0.55172 0.54397
 H1551 H 0.14259 0.56989 0.53532
 H1552 H 0.15879 0.52556 0.49857
 H1553 H 0.13370 0.50739 0.50722
 H1554 H 0.17415 0.55540 0.49778
 H1555 H 0.10651 0.49809 0.50914
 H1556 H 0.17114 0.57639 0.53530
 C1557 C 0.11053 0.48030 -0.04460
 C1558 C 0.12473 0.48226 -0.03209
 C1559 C 0.13985 0.46918 -0.03143
 C1560 C 0.15002 0.46785 -0.01494
 C1561 C 0.16419 0.45542 -0.01363
 C1562 C 0.16866 0.44422 -0.02895
 C1563 C 0.15860 0.44572 -0.04550
 C1564 C 0.14443 0.45814 -0.04681
 C1565 C 0.18318 0.43038 -0.02806
 C1566 C 0.19697 0.43105 -0.01486
 H1567 H 0.12440 0.49325 -0.02173
 H1568 H 0.14677 0.47620 -0.00290
 H1569 H 0.17124 0.45438 -0.00044
 H1570 H 0.16177 0.43730 -0.05752
 H1571 H 0.13728 0.45915 -0.05996
 H1572 H 0.18282 0.41923 -0.03825
 H1573 H 0.11007 0.46869 -0.05426
 H1574 H 0.19745 0.44231 -0.00480
 C1575 C 0.61312 0.98863 0.47014
 C1576 C 0.62704 0.99020 0.48304
 C1577 C 0.64233 0.97733 0.48290
 C1578 C 0.65163 0.97360 0.49956
 C1579 C 0.66575 0.96101 0.49991
 C1580 C 0.67092 0.95198 0.48348
 C1581 C 0.66200 0.95630 0.46673
 C1582 C 0.64789 0.96881 0.46641
 C1583 C 0.68547 0.93816 0.48295
 C1584 C 0.69296 0.92948 0.49859
 H1585 H 0.62627 1.00037 0.49417
 H1586 H 0.64778 0.98024 0.51240
 H1587 H 0.67253 0.95860 0.51306
 H1588 H 0.66586 0.94983 0.45382
 H1589 H 0.64150 0.97188 0.45317
 H1590 H 0.69022 0.93439 0.46940
 H1591 H 0.61314 0.97746 0.45996
 H1592 H 0.68887 0.93347 0.51230
 C1593 C 0.88723 0.99238 0.52177
 C1594 C 0.88331 0.97536 0.52966
 C1595 C 0.86814 0.96405 0.52331
 C1596 C 0.86047 0.95205 0.53589
 C1597 C 0.84597 0.94133 0.53045
 C1598 C 0.83907 0.94211 0.51212
 C1599 C 0.84687 0.95402 0.49952
 C1600 C 0.86130 0.96482 0.50499
 C1601 C 0.82351 0.93129 0.50578
 C1602 C 0.81782 0.91539 0.51483
 H1603 H 0.89099 0.97064 0.54162
 H1604 H 0.86550 0.95125 0.55009
 H1605 H 0.84008 0.93283 0.54082
 H1606 H 0.84184 0.95490 0.48532
 H1607 H 0.86718 0.97352 0.49476
 H1608 H 0.81685 0.93597 0.49323
 H1609 H 0.87878 0.99801 0.51084
 H1610 H 0.82569 0.91038 0.52651
 C1611 C 0.39020 0.48891 0.02761
 C1612 C 0.38542 0.47332 0.03756
 C1613 C 0.37117 0.46086 0.03099
 C1614 C 0.36124 0.45155 0.04401
 C1615 C 0.34715 0.44037 0.03820
 C1616 C 0.34297 0.43803 0.01915
 C1617 C 0.35323 0.44700 0.00616
 C1618 C 0.36722 0.45823 0.01198
 C1619 C 0.32765 0.42719 0.01219
 C1620 C 0.31885 0.41415 0.02274
 H1621 H 0.39132 0.47097 0.05120
 H1622 H 0.36408 0.45335 0.05874
 H1623 H 0.33938 0.43409 0.04872
 H1624 H 0.35038 0.44538 -0.00859
 H1625 H 0.37496 0.46472 0.00153
 H1626 H 0.32374 0.42939 -0.00214
 H1627 H 0.38322 0.49234 0.01478
 H1628 H 0.32417 0.41092 0.03643
 C1629 C 0.50755 0.49019 0.39266
 C1630 C 0.52117 0.47899 0.38626
 C1631 C 0.53292 0.48489 0.37145
 C1632 C 0.54085 0.47131 0.36030
 C1633 C 0.55191 0.47640 0.34610
 C1634 C 0.55555 0.49526 0.34301
 C1635 C 0.54768 0.50881 0.35427
 C1636 C 0.53656 0.50372 0.36840
 C1637 C 0.56693 0.50141 0.32792
 C1638 C 0.57945 0.48987 0.31962
 H1639 H 0.52267 0.46499 0.39147
 H1640 H 0.53821 0.45672 0.36236
 H1641 H 0.55721 0.46550 0.33741
 H1642 H 0.55025 0.52342 0.35223
 H1643 H 0.53108 0.51456 0.37704
 H1644 H 0.56566 0.51580 0.32399
 H1645 H 0.50491 0.50355 0.38637
 H1646 H 0.58133 0.47603 0.32510
 C1647 C 0.01098 -0.02123 0.88661
 C1648 C 0.02477 -0.03305 0.88187
 C1649 C 0.03685 -0.02851 0.86688
 C1650 C 0.04447 -0.04293 0.85655
 C1651 C 0.05536 -0.03898 0.84181
 C1652 C 0.05910 -0.02043 0.83735
 C1653 C 0.05174 -0.00606 0.84801
 C1654 C 0.04082 -0.01002 0.86264
 C1655 C 0.06998 -0.01533 0.82146
 C1656 C 0.08139 -0.02765 0.81250
 H1657 H 0.02600 -0.04651 0.88838
 H1658 H 0.04162 -0.05729 0.85958
 H1659 H 0.06038 -0.05050 0.83377
 H1660 H 0.05444 0.00834 0.84499
 H1661 H 0.03561 0.00145 0.87068
 H1662 H 0.06922 -0.00097 0.81732
 H1663 H 0.00867 -0.00856 0.87891
 H1664 H 0.08292 -0.04154 0.81798
 C1665 C 0.00636 0.01445 0.60403
 C1666 C 0.02152 0.02416 0.60929
 C1667 C 0.03358 0.01827 0.62472
 C1668 C 0.04488 0.03144 0.63303
 C1669 C 0.05637 0.02649 0.64770
 C1670 C 0.05683 0.00816 0.65438
 C1671 C 0.04585 -0.00510 0.64572
 C1672 C 0.03437 -0.00016 0.63107
 C1673 C 0.06875 0.00211 0.66989
 C1674 C 0.07713 0.01431 0.68245
 H1675 H 0.02428 0.03708 0.60244
 H1676 H 0.04476 0.04565 0.62822
 H1677 H 0.06497 0.03706 0.65346
 H1678 H 0.04612 -0.01939 0.65035
 H1679 H 0.02639 -0.01092 0.62464
 H1680 H 0.07079 -0.01269 0.67150
 H1681 H 0.00279 0.00214 0.61147
 H1682 H 0.07536 0.02913 0.68088
 C1683 C 0.50335 0.52172 0.11307
 C1684 C 0.51898 0.53123 0.11671
 C1685 C 0.53127 0.52666 0.13236
 C1686 C 0.54306 0.54027 0.13887
 C1687 C 0.55470 0.53665 0.15379
 C1688 C 0.55479 0.51923 0.16251
 C1689 C 0.54338 0.50544 0.15560
 C1690 C 0.53173 0.50907 0.14070
 C1691 C 0.56678 0.51470 0.17843
 C1692 C 0.57497 0.52809 0.18983
 H1693 H 0.52191 0.54319 0.10841
 H1694 H 0.54319 0.55383 0.13247
 H1695 H 0.56370 0.54747 0.15815
 H1696 H 0.54340 0.49179 0.16182
 H1697 H 0.52335 0.49795 0.13567
 H1698 H 0.56893 0.50014 0.18139
 H1699 H 0.49961 0.51046 0.12192
 H1700 H 0.57302 0.54268 0.18690
 C1701 C 0.48494 -0.03080 0.12154
 C1702 C 0.48464 -0.01729 0.13552
 C1703 C 0.47186 -0.01778 0.15058
 C1704 C 0.46617 -0.00103 0.15860
 C1705 C 0.45359 -0.00101 0.17235
 C1706 C 0.44669 -0.01785 0.17862
 C1707 C 0.45262 -0.03460 0.17075
 C1708 C 0.46513 -0.03461 0.15697
 C1709 C 0.43297 -0.01859 0.19277
 C1710 C 0.42940 -0.00394 0.20504
 H1711 H 0.49303 -0.00528 0.13464
 H1712 H 0.47114 0.01211 0.15388
 H1713 H 0.44907 0.01227 0.17758
 H1714 H 0.44758 -0.04777 0.17530
 H1715 H 0.46958 -0.04784 0.15148
 H1716 H 0.42587 -0.03144 0.19367
 H1717 H 0.47549 -0.04194 0.12142
 H1718 H 0.43745 0.00834 0.20476
 C1719 C 0.99205 0.48201 0.61167
 C1720 C 0.97594 0.47401 0.61551
 C1721 C 0.96502 0.47940 0.63143
 C1722 C 0.95131 0.46762 0.63619
 C1723 C 0.94042 0.47216 0.65085
 C1724 C 0.94303 0.48867 0.66118
 C1725 C 0.95655 0.50061 0.65623
 C1726 C 0.96746 0.49606 0.64155
 C1727 C 0.93154 0.49425 0.67657
 C1728 C 0.92153 0.48165 0.68635
 H1729 H 0.97122 0.46274 0.60671
 H1730 H 0.94895 0.45484 0.62845
 H1731 H 0.92978 0.46289 0.65368
 H1732 H 0.95867 0.51355 0.66376
 H1733 H 0.97750 0.50582 0.63807
 H1734 H 0.93118 0.50884 0.68025
 H1735 H 0.99759 0.49266 0.62070
 H1736 H 0.92232 0.46703 0.68283
 C1737 C 0.98675 0.51821 0.89290
 C1738 C 0.97315 0.53037 0.88782
 C1739 C 0.96022 0.52555 0.87284
 C1740 C 0.95308 0.53960 0.86150
 C1741 C 0.94177 0.53517 0.84645
 C1742 C 0.93715 0.51656 0.84272
 C1743 C 0.94390 0.50262 0.85447
 C1744 C 0.95522 0.50704 0.86942
 C1745 C 0.92616 0.51089 0.82634
 C1746 C 0.91490 0.52297 0.81644
 H1747 H 0.97282 0.54423 0.89382
 H1748 H 0.95673 0.55396 0.86390
 H1749 H 0.93719 0.54631 0.83754
 H1750 H 0.94051 0.48820 0.85200
 H1751 H 0.96003 0.49592 0.87825
 H1752 H 0.92661 0.49631 0.82266
 H1753 H 0.98806 0.50506 0.88562
 H1754 H 0.91329 0.53698 0.82177
 C1755 C 0.48831 0.02044 0.40729
 C1756 C 0.47362 0.03138 0.40288
 C1757 C 0.46067 0.02578 0.38819
 C1758 C 0.45164 0.03948 0.37789
 C1759 C 0.44012 0.03451 0.36320
 C1760 C 0.43720 0.01566 0.35878
 C1761 C 0.44585 0.00200 0.36948
 C1762 C 0.45737 0.00697 0.38408
 C1763 C 0.42612 0.00956 0.34263
 C1764 C 0.41337 0.02081 0.33379
 H1765 H 0.47223 0.04495 0.40935
 H1766 H 0.45394 0.05407 0.38083
 H1767 H 0.43405 0.04549 0.35508
 H1768 H 0.44378 -0.01261 0.36646
 H1769 H 0.46364 -0.00399 0.39211
 H1770 H 0.42795 -0.00465 0.33811
 H1771 H 0.49055 0.00765 0.39964
 H1772 H 0.41055 0.03425 0.33995
   
