data_POSCAR
  _audit_creation_date              2014-09-24
  _audit_creation_method            'ToBaCCo'
  _symmetry_space_group_name_H-M    'P1'
  _symmetry_Int_Tables_number       1
  _symmetry_cell_setting            triclinic
  loop_
  _symmetry_equiv_pos_as_xyz
 x,y,z
_cell_length_a 68.2941
_cell_length_b 68.1781
_cell_length_c 68.3531
_cell_angle_alpha 90.053400
_cell_angle_beta 90.019700
_cell_angle_gamma 90.059900
loop_
  _atom_site_label
  _atom_site_type_symbol
  _atom_site_fract_x
  _atom_site_fract_y
  _atom_site_fract_z
O1 O 0.33936 0.36748 0.01610
 O2 O 0.36627 0.33992 -0.02167
 O3 O 0.33995 0.36759 -0.02196
 O4 O 0.36589 0.33997 0.01636
 O5 O 0.34260 0.31753 0.01600
 O6 O 0.31666 0.34521 -0.02230
 O7 O 0.34293 0.31755 -0.02199
 O8 O 0.31610 0.34502 0.01573
 Cu9 Cu 0.35520 0.35599 -0.00275
 Cu10 Cu 0.32723 0.32909 -0.00317
 C11 C 0.32307 0.36098 0.02233
 C12 C 0.35924 0.32396 -0.02823
 C13 C 0.32380 0.36120 -0.02869
 C14 C 0.35875 0.32396 0.02267
 O15 O 0.65873 0.63055 0.02057
 O16 O 0.63147 0.65716 -0.01755
 O17 O 0.65899 0.63065 -0.01744
 O18 O 0.63129 0.65716 0.02058
 O19 O 0.65379 0.68039 0.02074
 O20 O 0.68138 0.65394 -0.01723
 O21 O 0.65394 0.68042 -0.01735
 O22 O 0.68118 0.65382 0.02073
 Cu23 Cu 0.64285 0.64156 0.00152
 Cu24 Cu 0.66979 0.66949 0.00174
 C25 C 0.67469 0.63756 0.02709
 C26 C 0.63804 0.67336 -0.02398
 C27 C 0.67502 0.63768 -0.02381
 C28 C 0.63781 0.67334 0.02716
 O29 O 0.62833 0.34482 1.01753
 O30 O 0.65556 0.37167 0.97948
 O31 O 0.62825 0.34487 0.97942
 O32 O 0.65572 0.37150 1.01763
 O33 O 0.67821 0.34835 1.01744
 O34 O 0.65085 0.32179 0.97932
 O35 O 0.67810 0.34852 0.97938
 O36 O 0.65091 0.32172 1.01736
 Cu37 Cu 0.63971 0.36054 0.99852
 Cu38 Cu 0.66677 0.33279 0.99835
 C39 C 0.63496 0.32865 1.02395
 C40 C 0.67152 0.36470 0.97293
 C41 C 0.63485 0.32872 0.97287
 C42 C 0.67170 0.36449 1.02412
 O43 O 0.33880 0.63416 0.98381
 O44 O 0.36628 0.66127 1.02153
 O45 O 0.33948 0.63404 1.02188
 O46 O 0.36582 0.66123 0.98351
 O47 O 0.34293 0.68402 0.98390
 O48 O 0.31659 0.65679 1.02225
 O49 O 0.34334 0.68402 1.02188
 O50 O 0.31594 0.65698 0.98421
 Cu51 Cu 0.35488 0.64538 1.00264
 Cu52 Cu 0.32740 0.67272 1.00309
 C53 C 0.32262 0.64091 0.97759
 C54 C 0.35954 0.67735 1.02810
 C55 C 0.32347 0.64070 1.02865
 C56 C 0.35896 0.67734 0.97721
 O57 O 0.01966 0.33944 0.36837
 O58 O -0.01791 0.36615 0.34036
 O59 O -0.01837 0.33952 0.36777
 O60 O 0.02022 0.36617 0.34113
 O61 O 0.02054 0.34298 0.31862
 O62 O -0.01802 0.31634 0.34528
 O63 O -0.01754 0.34293 0.31788
 O64 O 0.01997 0.31628 0.34582
 Cu65 Cu 0.00085 0.35516 0.35665
 Cu66 Cu 0.00126 0.32733 0.32963
 C67 C 0.02618 0.32323 0.36192
 C68 C -0.02411 0.35913 0.32429
 C69 C -0.02474 0.32326 0.36121
 C70 C 0.02698 0.35915 0.32529
 O71 O 0.01819 0.65898 0.63012
 O72 O -0.02000 0.63217 0.65720
 O73 O -0.01985 0.65914 0.63014
 O74 O 0.01818 0.63205 0.65721
 O75 O 0.01826 0.65505 0.67991
 O76 O -0.01971 0.68207 0.65288
 O77 O -0.01987 0.65516 0.67991
 O78 O 0.01828 0.68194 0.65288
 Cu79 Cu -0.00089 0.64326 0.64141
 Cu80 Cu -0.00075 0.67083 0.66869
 C81 C 0.02469 0.67512 0.63681
 C82 C -0.02647 0.63908 0.67321
 C83 C -0.02623 0.67535 0.63679
 C84 C 0.02474 0.63893 0.67321
 O85 O 0.98018 0.65647 0.36906
 O86 O 1.01793 0.62921 0.34180
 O87 O 1.01836 0.65649 0.36861
 O88 O 0.97984 0.62914 0.34238
 O89 O 0.97955 0.65182 0.31939
 O90 O 1.01803 0.67911 0.34561
 O91 O 1.01758 0.65191 0.31884
 O92 O 0.97991 0.67909 0.34602
 Cu93 Cu 0.99912 0.64057 0.35778
 Cu94 Cu 0.99875 0.66776 0.33018
 C95 C 0.97356 0.67245 0.36217
 C96 C 1.02415 0.63586 0.32559
 C97 C 1.02482 0.67253 0.36164
 C98 C 0.97313 0.63578 0.32635
 O99 O 0.98135 0.34204 0.63250
 O100 O 1.01963 0.36878 0.65953
 O101 O 1.01954 0.34181 0.63246
 O102 O 0.98160 0.36893 0.65966
 O103 O 0.98155 0.34594 0.68233
 O104 O 1.01943 0.31889 0.65517
 O105 O 1.01953 0.34580 0.68222
 O106 O 0.98129 0.31909 0.65521
 Cu107 Cu 1.00053 0.35767 0.64373
 Cu108 Cu 1.00044 0.33010 0.67097
 C109 C 0.97475 0.32598 0.63923
 C110 C 1.02605 0.36192 0.67558
 C111 C 1.02604 0.32568 0.63915
 C112 C 0.97516 0.36213 0.67573
 O113 O 0.37050 0.02095 0.34393
 O114 O 0.34282 -0.01724 0.37030
 O115 O 0.37034 -0.01727 0.34380
 O116 O 0.34326 0.02093 0.37066
 O117 O 0.32072 0.02118 0.34755
 O118 O 0.34781 -0.01698 0.32067
 O119 O 0.32036 -0.01692 0.34712
 O120 O 0.34790 0.02118 0.32088
 Cu121 Cu 0.35900 0.00180 0.35948
 Cu122 Cu 0.33196 0.00214 0.33174
 C123 C 0.36391 0.02760 0.32786
 C124 C 0.32679 -0.02356 0.36324
 C125 C 0.36374 -0.02364 0.32760
 C126 C 0.32732 0.02756 0.36374
 O127 O 0.63414 0.01799 0.66056
 O128 O 0.65983 -0.02087 0.63341
 O129 O 0.63338 -0.02012 0.66087
 O130 O 0.66077 0.01729 0.63320
 O131 O 0.68394 0.01696 0.65568
 O132 O 0.65661 -0.02040 0.68330
 O133 O 0.68303 -0.02117 0.65587
 O134 O 0.65734 0.01767 0.68302
 Cu135 Cu 0.64471 -0.00139 0.64475
 Cu136 Cu 0.67256 -0.00176 0.67170
 C137 C 0.64126 0.02439 0.67651
 C138 C 0.67586 -0.02765 0.63997
 C139 C 0.64028 -0.02661 0.67688
 C140 C 0.67709 0.02348 0.63968
 O141 O 0.34279 1.01580 0.62960
 O142 O 0.37065 0.97773 0.65586
 O143 O 0.34337 0.97762 0.62916
 O144 O 0.37028 1.01596 0.65614
 O145 O 0.34775 1.01544 0.67925
 O146 O 0.32085 0.97716 0.65227
 O147 O 0.34806 0.97729 0.67892
 O148 O 0.32032 1.01527 0.65277
 Cu149 Cu 0.35904 0.99684 0.64038
 Cu150 Cu 0.33200 0.99625 0.66811
 C151 C 0.32673 1.02199 0.63667
 C152 C 0.36410 0.97100 0.67192
 C153 C 0.32747 0.97085 0.63607
 C154 C 0.36365 1.02223 0.67235
 O155 O 0.63444 0.98369 0.33944
 O156 O 0.65996 1.02277 0.36652
 O157 O 0.63345 1.02179 0.33909
 O158 O 0.66111 0.98461 0.36675
 O159 O 0.68424 0.98512 0.34425
 O160 O 0.65663 1.02224 0.31663
 O161 O 0.68308 1.02324 0.34405
 O162 O 0.65760 0.98418 0.31696
 Cu163 Cu 0.64493 1.00316 0.35521
 Cu164 Cu 0.67272 1.00374 0.32824
 C165 C 0.64158 0.97732 0.32350
 C166 C 0.67595 1.02971 0.35998
 C167 C 0.64027 1.02832 0.32306
 C168 C 0.67745 0.97853 0.36026
 C169 C 0.81322 0.81311 0.50810
 C170 C 0.81289 0.81363 0.48816
 C171 C 0.82517 0.80021 0.47624
 C172 C 0.80085 0.82815 0.47730
 C173 C 0.80005 0.82560 0.52007
 C174 C 0.82729 0.80056 0.51897
 C175 C 0.83816 0.80800 0.46239
 C176 C 0.85060 0.79568 0.45184
 C177 C 0.85019 0.77529 0.45484
 C178 C 0.83669 0.76744 0.46826
 C179 C 0.82424 0.77979 0.47881
 C180 C 0.80290 0.84834 0.48082
 C181 C 0.79153 0.86186 0.47050
 C182 C 0.77803 0.85547 0.45632
 C183 C 0.77623 0.83524 0.45264
 C184 C 0.78760 0.82173 0.46297
 C185 C 0.77967 0.82521 0.51736
 C186 C 0.76757 0.83756 0.52831
 C187 C 0.77563 0.85043 0.54226
 C188 C 0.79599 0.85038 0.54527
 C189 C 0.80806 0.83805 0.53433
 C190 C 0.82039 0.78728 0.53302
 C191 C 0.83347 0.77551 0.54345
 C192 C 0.85375 0.77693 0.54013
 C193 C 0.86063 0.79044 0.52619
 C194 C 0.84753 0.80221 0.51578
 H195 H 0.83899 0.82370 0.46008
 H196 H 0.86057 0.80212 0.44134
 H197 H 0.83610 0.75180 0.47095
 H198 H 0.81408 0.77347 0.48921
 H199 H 0.81330 0.85362 0.49157
 H200 H 0.79316 0.87732 0.47377
 H201 H 0.78598 0.80623 0.45990
 H202 H 0.77318 0.81547 0.50664
 H203 H 0.75195 0.83733 0.52560
 H204 H 0.80259 0.85986 0.55616
 H205 H 0.82373 0.83846 0.53676
 H206 H 0.80484 0.78596 0.53584
 H207 H 0.82775 0.76549 0.55431
 H208 H 0.87614 0.79179 0.52320
 H209 H 0.85318 0.81264 0.50525
 H210 H 0.76621 0.82988 0.44158
 C211 C 0.18723 0.18654 0.51321
 C212 C 0.18696 0.18677 0.49326
 C213 C 0.17289 0.19910 0.48220
 C214 C 0.20022 0.17414 0.48148
 C215 C 0.19935 0.17223 0.52421
 C216 C 0.17492 0.20010 0.52501
 C217 C 0.15265 0.19746 0.48543
 C218 C 0.13954 0.20910 0.47489
 C219 C 0.14642 0.22245 0.46080
 C220 C 0.16668 0.22384 0.45743
 C221 C 0.17978 0.21220 0.46798
 C222 C 0.19232 0.16142 0.46740
 C223 C 0.20448 0.14898 0.45666
 C224 C 0.22484 0.14908 0.45970
 C225 C 0.23280 0.16219 0.47347
 C226 C 0.22060 0.17466 0.48421
 C227 C 0.21285 0.17890 0.53818
 C228 C 0.22455 0.16558 0.54838
 C229 C 0.22282 0.14531 0.54493
 C230 C 0.20899 0.13866 0.53118
 C231 C 0.19731 0.15199 0.52099
 C232 C 0.17561 0.22048 0.52206
 C233 C 0.16338 0.23294 0.53275
 C234 C 0.15039 0.22528 0.54678
 C235 C 0.15011 0.20492 0.55003
 C236 C 0.16229 0.19248 0.53929
 H237 H 0.14703 0.18717 0.49610
 H238 H 0.12403 0.20778 0.47791
 H239 H 0.17239 0.23374 0.44645
 H240 H 0.19533 0.21350 0.46515
 H241 H 0.17665 0.16090 0.46495
 H242 H 0.19794 0.13931 0.44590
 H243 H 0.22703 0.18460 0.49479
 H244 H 0.21448 0.19445 0.54100
 H245 H 0.23482 0.17112 0.55912
 H246 H 0.20741 0.12316 0.52810
 H247 H 0.18672 0.14654 0.51051
 H248 H 0.18555 0.22670 0.51139
 H249 H 0.16416 0.24858 0.53015
 H250 H 0.14013 0.19855 0.56056
 H251 H 0.16154 0.17682 0.54182
 H252 H 0.24841 0.16255 0.47621
 C253 C 0.18684 0.81207 0.48681
 C254 C 0.18674 0.81167 0.50676
 C255 C 0.17260 0.79937 0.51781
 C256 C 0.20032 0.82398 0.51857
 C257 C 0.19902 0.82638 0.47584
 C258 C 0.17437 0.79864 0.47499
 C259 C 0.15236 0.80120 0.51471
 C260 C 0.13919 0.78962 0.52526
 C261 C 0.14601 0.77612 0.53923
 C262 C 0.16628 0.77453 0.54246
 C263 C 0.17943 0.78611 0.53191
 C264 C 0.19278 0.83646 0.53304
 C265 C 0.20526 0.84845 0.54397
 C266 C 0.22558 0.84813 0.54073
 C267 C 0.23316 0.83536 0.52645
 C268 C 0.22065 0.82330 0.51555
 C269 C 0.21227 0.81974 0.46164
 C270 C 0.22404 0.83305 0.45148
 C271 C 0.22263 0.85329 0.45521
 C272 C 0.20905 0.85992 0.46919
 C273 C 0.19729 0.84660 0.47933
 C274 C 0.17499 0.77824 0.47780
 C275 C 0.16263 0.76588 0.46709
 C276 C 0.14958 0.77365 0.45319
 C277 C 0.14937 0.79404 0.45008
 C278 C 0.16168 0.80638 0.46083
 H279 H 0.14678 0.81161 0.50414
 H280 H 0.12368 0.79109 0.52234
 H281 H 0.17195 0.76451 0.55335
 H282 H 0.19499 0.78465 0.53464
 H283 H 0.17714 0.83718 0.53563
 H284 H 0.19894 0.85828 0.55469
 H285 H 0.22681 0.81348 0.50474
 H286 H 0.21366 0.80421 0.45861
 H287 H 0.23412 0.82753 0.44057
 H288 H 0.20772 0.87540 0.47248
 H289 H 0.18690 0.85204 0.49000
 H290 H 0.18497 0.77192 0.48836
 H291 H 0.16338 0.75021 0.46957
 H292 H 0.13935 0.80051 0.43965
 H293 H 0.16099 0.82206 0.45841
 H294 H 0.24877 0.83455 0.52383
 C295 C 0.81339 0.18808 0.49115
 C296 C 0.81311 0.18747 0.51108
 C297 C 0.82562 0.20066 0.52306
 C298 C 0.80090 0.17306 0.52190
 C299 C 0.80008 0.17571 0.47917
 C300 C 0.82755 0.20052 0.48027
 C301 C 0.83844 0.19261 0.53692
 C302 C 0.85097 0.20469 0.54766
 C303 C 0.85084 0.22512 0.54483
 C304 C 0.83756 0.23322 0.53135
 C305 C 0.82501 0.22110 0.52061
 C306 C 0.80273 0.15285 0.51836
 C307 C 0.79125 0.13942 0.52869
 C308 C 0.77784 0.14593 0.54289
 C309 C 0.77625 0.16616 0.54657
 C310 C 0.78774 0.17958 0.53623
 C311 C 0.77970 0.17627 0.48188
 C312 C 0.76747 0.16398 0.47095
 C313 C 0.77541 0.15102 0.45704
 C314 C 0.79576 0.15091 0.45402
 C315 C 0.80796 0.16317 0.46493
 C316 C 0.82075 0.21382 0.46619
 C317 C 0.83394 0.22537 0.45563
 C318 C 0.85421 0.22369 0.45882
 C319 C 0.86099 0.21019 0.47281
 C320 C 0.84779 0.19865 0.48337
 H321 H 0.83902 0.17689 0.53913
 H322 H 0.86076 0.19806 0.55819
 H323 H 0.83719 0.24889 0.52880
 H324 H 0.81500 0.22762 0.51020
 H325 H 0.81308 0.14749 0.50761
 H326 H 0.79272 0.12395 0.52543
 H327 H 0.78628 0.19510 0.53931
 H328 H 0.77332 0.18608 0.49258
 H329 H 0.75186 0.16433 0.47366
 H330 H 0.80226 0.14136 0.44316
 H331 H 0.82362 0.16264 0.46252
 H332 H 0.80520 0.21530 0.46345
 H333 H 0.82828 0.23538 0.44473
 H334 H 0.87650 0.20866 0.47570
 H335 H 0.85335 0.18820 0.49391
 H336 H 0.76630 0.17161 0.55765
 C337 C 0.51024 0.81213 0.81461
 C338 C 0.49028 0.81186 0.81443
 C339 C 0.47887 0.82419 0.80062
 C340 C 0.47885 0.79990 0.82855
 C341 C 0.52173 0.79888 0.82748
 C342 C 0.52158 0.82618 0.80246
 C343 C 0.46479 0.83725 0.80790
 C344 C 0.45460 0.84962 0.79524
 C345 C 0.45819 0.84910 0.77499
 C346 C 0.47189 0.83558 0.76765
 C347 C 0.48209 0.82319 0.78035
 C348 C 0.48166 0.80201 0.84879
 C349 C 0.47072 0.79079 0.86194
 C350 C 0.45663 0.77737 0.85511
 C351 C 0.45368 0.77550 0.83483
 C352 C 0.46462 0.78673 0.82169
 C353 C 0.51889 0.77848 0.82705
 C354 C 0.52935 0.76631 0.83974
 C355 C 0.54295 0.77432 0.85299
 C356 C 0.54611 0.79470 0.85301
 C357 C 0.53565 0.80684 0.84034
 C358 C 0.53596 0.81923 0.78958
 C359 C 0.54665 0.83231 0.77802
 C360 C 0.54328 0.85261 0.77928
 C361 C 0.52906 0.85955 0.79246
 C362 C 0.51838 0.84646 0.80400
 H363 H 0.46198 0.83814 0.82348
 H364 H 0.44387 0.85961 0.80129
 H365 H 0.47503 0.83489 0.75214
 H366 H 0.49269 0.81299 0.77441
 H367 H 0.49231 0.81237 0.85439
 H368 H 0.47343 0.79246 0.87746
 H369 H 0.46209 0.78507 0.80613
 H370 H 0.50843 0.77203 0.81701
 H371 H 0.52654 0.75068 0.83945
 H372 H 0.55674 0.80126 0.86279
 H373 H 0.53817 0.82252 0.84079
 H374 H 0.53878 0.80364 0.78835
 H375 H 0.55773 0.82654 0.76826
 H376 H 0.52603 0.87509 0.79367
 H377 H 0.50759 0.85214 0.81413
 H378 H 0.44271 0.76554 0.82913
 C379 C 0.50870 0.18809 0.18520
 C380 C 0.48873 0.18810 0.18535
 C381 C 0.47743 0.17561 0.19913
 C382 C 0.47719 0.19999 0.17126
 C383 C 0.52005 0.20152 0.17238
 C384 C 0.52018 0.17416 0.19734
 C385 C 0.46347 0.16241 0.19181
 C386 C 0.45339 0.14990 0.20445
 C387 C 0.45698 0.15043 0.22470
 C388 C 0.47056 0.16408 0.23208
 C389 C 0.48065 0.17661 0.21940
 C390 C 0.48005 0.19800 0.15101
 C391 C 0.46912 0.20926 0.13789
 C392 C 0.45499 0.22258 0.14476
 C393 C 0.45197 0.22430 0.16504
 C394 C 0.46290 0.21303 0.17815
 C395 C 0.51699 0.22188 0.17288
 C396 C 0.52729 0.23423 0.16020
 C397 C 0.54092 0.22644 0.14688
 C398 C 0.54430 0.20610 0.14681
 C399 C 0.53401 0.19379 0.15947
 C400 C 0.53451 0.18127 0.21023
 C401 C 0.54533 0.16832 0.22178
 C402 C 0.54215 0.14797 0.22052
 C403 C 0.52800 0.14088 0.20734
 C404 C 0.51718 0.15384 0.19579
 H405 H 0.46066 0.16152 0.17624
 H406 H 0.44275 0.13981 0.19838
 H407 H 0.47370 0.16478 0.24759
 H408 H 0.49116 0.18692 0.22536
 H409 H 0.49075 0.18774 0.14538
 H410 H 0.47189 0.20770 0.12237
 H411 H 0.46034 0.21460 0.19371
 H412 H 0.50650 0.22818 0.18296
 H413 H 0.52431 0.24982 0.16054
 H414 H 0.55496 0.19971 0.13698
 H415 H 0.53670 0.17814 0.15896
 H416 H 0.53717 0.19689 0.21146
 H417 H 0.55636 0.17421 0.23154
 H418 H 0.52511 0.12530 0.20613
 H419 H 0.50644 0.14804 0.18567
 H420 H 0.44097 0.23419 0.17076
 C421 C 0.48974 0.18491 0.81249
 C422 C 0.50971 0.18541 0.81261
 C423 C 0.52150 0.17157 0.80070
 C424 C 0.52077 0.19926 0.82531
 C425 C 0.47803 0.19697 0.82625
 C426 C 0.47862 0.17176 0.79912
 C427 C 0.51906 0.15122 0.80262
 C428 C 0.53023 0.13834 0.79131
 C429 C 0.54418 0.14558 0.77800
 C430 C 0.54679 0.16597 0.77637
 C431 C 0.53562 0.17884 0.78769
 C432 C 0.53475 0.19196 0.83845
 C433 C 0.54475 0.20463 0.85103
 C434 C 0.54107 0.22491 0.85066
 C435 C 0.52742 0.23227 0.83712
 C436 C 0.51741 0.21956 0.82451
 C437 C 0.46381 0.20988 0.81900
 C438 C 0.45289 0.22151 0.83180
 C439 C 0.45588 0.22029 0.85212
 C440 C 0.46989 0.20705 0.85936
 C441 C 0.48080 0.19543 0.84654
 C442 C 0.48168 0.17215 0.77880
 C443 C 0.47147 0.15927 0.76653
 C444 C 0.45792 0.14584 0.77435
 C445 C 0.45457 0.14584 0.79465
 C446 C 0.46477 0.15871 0.80687
 H447 H 0.50849 0.14533 0.81285
 H448 H 0.52778 0.12272 0.79279
 H449 H 0.55765 0.17197 0.76650
 H450 H 0.53785 0.19449 0.78619
 H451 H 0.53768 0.17636 0.83920
 H452 H 0.55544 0.19855 0.86103
 H453 H 0.50689 0.22553 0.81426
 H454 H 0.46134 0.21110 0.80340
 H455 H 0.44197 0.23132 0.82582
 H456 H 0.47261 0.20588 0.87492
 H457 H 0.49148 0.18529 0.85243
 H458 H 0.49208 0.18233 0.77248
 H459 H 0.47444 0.15956 0.75098
 H460 H 0.44397 0.13595 0.80108
 H461 H 0.46206 0.15827 0.82248
 H462 H 0.52420 0.24781 0.83653
 C463 C 0.49133 0.81507 0.18773
 C464 C 0.51129 0.81481 0.18762
 C465 C 0.52294 0.82877 0.19956
 C466 C 0.52250 0.80114 0.17489
 C467 C 0.47974 0.80293 0.17390
 C468 C 0.48008 0.82808 0.20109
 C469 C 0.52032 0.84909 0.19764
 C470 C 0.53137 0.86210 0.20895
 C471 C 0.54537 0.85502 0.22227
 C472 C 0.54817 0.83465 0.22392
 C473 C 0.53711 0.82166 0.21259
 C474 C 0.53643 0.80866 0.16181
 C475 C 0.54658 0.79616 0.14921
 C476 C 0.54309 0.77583 0.14950
 C477 C 0.52949 0.76826 0.16298
 C478 C 0.51934 0.78080 0.17561
 C479 C 0.46559 0.78989 0.18109
 C480 C 0.45469 0.77828 0.16822
 C481 C 0.45763 0.77966 0.14791
 C482 C 0.47160 0.79300 0.14074
 C483 C 0.48249 0.80460 0.15362
 C484 C 0.48311 0.82768 0.22141
 C485 C 0.47277 0.84043 0.23368
 C486 C 0.45911 0.85372 0.22585
 C487 C 0.45580 0.85371 0.20555
 C488 C 0.46612 0.84099 0.19332
 H489 H 0.50970 0.85487 0.18738
 H490 H 0.52879 0.87769 0.20745
 H491 H 0.55907 0.82878 0.23380
 H492 H 0.53948 0.80603 0.21410
 H493 H 0.53921 0.82429 0.16113
 H494 H 0.55722 0.80241 0.13926
 H495 H 0.50886 0.77467 0.18581
 H496 H 0.46313 0.78858 0.19669
 H497 H 0.44380 0.76838 0.17415
 H498 H 0.47429 0.79429 0.12519
 H499 H 0.49311 0.81485 0.14779
 H500 H 0.49359 0.81761 0.22775
 H501 H 0.47572 0.84014 0.24924
 H502 H 0.44512 0.86350 0.19911
 H503 H 0.46344 0.84142 0.17771
 H504 H 0.52643 0.75268 0.16350
 C505 C 0.81320 0.51158 0.81377
 C506 C 0.81337 0.49158 0.81337
 C507 C 0.79990 0.47980 0.82576
 C508 C 0.82750 0.48049 0.80110
 C509 C 0.82572 0.52340 0.80045
 C510 C 0.80100 0.52264 0.82799
 C511 C 0.80759 0.46567 0.83852
 C512 C 0.79523 0.45510 0.85091
 C513 C 0.77491 0.45835 0.85069
 C514 C 0.76717 0.47211 0.83747
 C515 C 0.77956 0.48269 0.82506
 C516 C 0.84774 0.48363 0.80288
 C517 C 0.86090 0.47310 0.79127
 C518 C 0.85407 0.45908 0.77778
 C519 C 0.83380 0.45577 0.77626
 C520 C 0.82066 0.46631 0.78787
 C521 C 0.82505 0.52067 0.78009
 C522 C 0.83753 0.53131 0.76784
 C523 C 0.85081 0.54498 0.77573
 C524 C 0.85102 0.54806 0.79607
 C525 C 0.83855 0.53742 0.80829
 C526 C 0.78781 0.53688 0.82129
 C527 C 0.77617 0.54728 0.83452
 C528 C 0.77763 0.54376 0.85473
 C529 C 0.79111 0.52969 0.86142
 C530 C 0.80275 0.51931 0.84818
 H531 H 0.82322 0.46310 0.83916
 H532 H 0.80159 0.44434 0.86066
 H533 H 0.75159 0.47501 0.83703
 H534 H 0.77331 0.49331 0.81509
 H535 H 0.85335 0.49426 0.81326
 H536 H 0.87641 0.47609 0.79270
 H537 H 0.80510 0.46353 0.78645
 H538 H 0.81502 0.51013 0.77373
 H539 H 0.83709 0.52855 0.75225
 H540 H 0.86081 0.55875 0.80255
 H541 H 0.83918 0.53986 0.82394
 H542 H 0.78641 0.53981 0.80578
 H543 H 0.76617 0.55825 0.82894
 H544 H 0.79249 0.52655 0.87688
 H545 H 0.81310 0.50862 0.85367
 H546 H 0.82810 0.44484 0.76625
 C547 C 0.18656 0.50877 0.18695
 C548 C 0.18704 0.48879 0.18642
 C549 C 0.19930 0.47804 0.17204
 C550 C 0.17467 0.47667 0.19961
 C551 C 0.17236 0.51951 0.19942
 C552 C 0.19964 0.52091 0.17449
 C553 C 0.19728 0.48143 0.15189
 C554 C 0.20885 0.47119 0.13849
 C555 C 0.22251 0.45722 0.14499
 C556 C 0.22429 0.45368 0.16517
 C557 C 0.21272 0.46393 0.17856
 C558 C 0.16200 0.46259 0.19160
 C559 C 0.14964 0.45167 0.20367
 C560 C 0.14978 0.45452 0.22405
 C561 C 0.16291 0.46824 0.23211
 C562 C 0.17529 0.47916 0.22000
 C563 C 0.17909 0.53353 0.21285
 C564 C 0.16587 0.54374 0.22465
 C565 C 0.14563 0.54023 0.22309
 C566 C 0.13892 0.52636 0.20940
 C567 C 0.15215 0.51616 0.19761
 C568 C 0.22005 0.51842 0.17486
 C569 C 0.23205 0.52948 0.16249
 C570 C 0.22386 0.54333 0.14963
 C571 C 0.20347 0.54614 0.14971
 C572 C 0.19151 0.53509 0.16205
 H573 H 0.18674 0.49201 0.14655
 H574 H 0.20723 0.47434 0.12305
 H575 H 0.23445 0.44277 0.17060
 H576 H 0.21431 0.46097 0.19405
 H577 H 0.16141 0.46032 0.17592
 H578 H 0.13997 0.44096 0.19706
 H579 H 0.18520 0.48974 0.22650
 H580 H 0.19462 0.53646 0.21429
 H581 H 0.17146 0.55458 0.23481
 H582 H 0.12344 0.52324 0.20795
 H583 H 0.14665 0.50564 0.18707
 H584 H 0.22665 0.50777 0.18458
 H585 H 0.24769 0.52692 0.16270
 H586 H 0.19676 0.55694 0.14025
 H587 H 0.17581 0.53735 0.16166
 H588 H 0.16329 0.47083 0.24773
 C589 C 0.81281 0.48673 0.18680
 C590 C 0.81273 0.50674 0.18692
 C591 C 0.80047 0.51814 0.17306
 C592 C 0.82533 0.51826 0.20048
 C593 C 0.82702 0.47536 0.19869
 C594 C 0.79912 0.47525 0.17430
 C595 C 0.80209 0.51527 0.15279
 C596 C 0.79048 0.52607 0.13988
 C597 C 0.77716 0.54008 0.14701
 C598 C 0.77580 0.54311 0.16731
 C599 C 0.78742 0.53230 0.18021
 C600 C 0.83782 0.53276 0.19296
 C601 C 0.84996 0.54353 0.20541
 C602 C 0.84979 0.54012 0.22570
 C603 C 0.83705 0.52578 0.23325
 C604 C 0.82485 0.51504 0.22077
 C605 C 0.82028 0.46100 0.21173
 C606 C 0.83350 0.45037 0.22315
 C607 C 0.85375 0.45380 0.22161
 C608 C 0.86048 0.46795 0.20825
 C609 C 0.84725 0.47856 0.19683
 C610 C 0.77881 0.47835 0.17516
 C611 C 0.76621 0.46800 0.16274
 C612 C 0.77367 0.45418 0.14940
 C613 C 0.79397 0.45076 0.14896
 C614 C 0.80654 0.46115 0.16132
 H615 H 0.81234 0.50465 0.14698
 H616 H 0.79177 0.52331 0.12434
 H617 H 0.76592 0.55402 0.17322
 H618 H 0.78612 0.53486 0.19579
 H619 H 0.83840 0.53550 0.17736
 H620 H 0.85977 0.55430 0.19911
 H621 H 0.81502 0.50421 0.22692
 H622 H 0.80473 0.45817 0.21320
 H623 H 0.82789 0.43934 0.23306
 H624 H 0.87597 0.47102 0.20682
 H625 H 0.85276 0.48935 0.18659
 H626 H 0.77274 0.48887 0.18536
 H627 H 0.75062 0.47071 0.16365
 H628 H 0.80019 0.44038 0.13871
 H629 H 0.82216 0.45851 0.16045
 H630 H 0.83637 0.52303 0.24883
 C631 C 0.18625 0.49286 0.81344
 C632 C 0.18625 0.51286 0.81370
 C633 C 0.19821 0.52409 0.82798
 C634 C 0.17363 0.52448 0.80030
 C635 C 0.17238 0.48159 0.80105
 C636 C 0.19954 0.48121 0.82614
 C637 C 0.19618 0.52091 0.84816
 C638 C 0.20760 0.53145 0.86147
 C639 C 0.22114 0.54551 0.85485
 C640 C 0.22287 0.54889 0.83463
 C641 C 0.21143 0.53834 0.82133
 C642 C 0.16059 0.53832 0.80807
 C643 C 0.14799 0.54872 0.79581
 C644 C 0.14825 0.54559 0.77547
 C645 C 0.16173 0.53213 0.76765
 C646 C 0.17436 0.52172 0.77995
 C647 C 0.17953 0.46757 0.78786
 C648 C 0.16662 0.45680 0.77618
 C649 C 0.14630 0.45974 0.77764
 C650 C 0.13917 0.47362 0.79108
 C651 C 0.15209 0.48438 0.80275
 C652 C 0.21990 0.48413 0.82581
 C653 C 0.23209 0.47339 0.83827
 C654 C 0.22414 0.45945 0.85119
 C655 C 0.20380 0.45627 0.85113
 C656 C 0.19165 0.46699 0.83869
 H657 H 0.18578 0.51021 0.85359
 H658 H 0.20603 0.52842 0.87694
 H659 H 0.23292 0.55986 0.82911
 H660 H 0.21303 0.54114 0.80582
 H661 H 0.15990 0.54078 0.82371
 H662 H 0.13803 0.55926 0.80224
 H663 H 0.18454 0.51132 0.77363
 H664 H 0.19513 0.46507 0.78652
 H665 H 0.17252 0.44597 0.76620
 H666 H 0.12361 0.47631 0.79243
 H667 H 0.14629 0.49489 0.81312
 H668 H 0.22631 0.49483 0.81601
 H669 H 0.24768 0.47623 0.83804
 H670 H 0.19727 0.44538 0.86064
 H671 H 0.17600 0.46440 0.83907
 H672 H 0.16223 0.52933 0.75206
 C673 C 0.29046 0.39378 0.06493
 C674 C 0.28319 0.37593 0.05788
 C675 C 0.29388 0.36518 0.04413
 C676 C 0.31200 0.37216 0.03724
 C677 C 0.31926 0.39007 0.04453
 C678 C 0.30853 0.40080 0.05829
 C679 C 0.27921 0.40496 0.07879
 C680 C 0.26957 0.41423 0.09030
 C681 C 0.25786 0.42519 0.10394
 C682 C 0.26611 0.43211 0.12138
 C683 C 0.25464 0.44258 0.13472
 C684 C 0.23476 0.44626 0.13076
 C685 C 0.22663 0.43930 0.11316
 C686 C 0.23812 0.42883 0.09985
 H687 H 0.26921 0.37037 0.06292
 H688 H 0.28787 0.35147 0.03882
 H689 H 0.33315 0.39585 0.03952
 H690 H 0.31428 0.41461 0.06365
 H691 H 0.28139 0.42941 0.12466
 H692 H 0.26137 0.44796 0.14803
 H693 H 0.21132 0.44168 0.10982
 H694 H 0.23158 0.42348 0.08642
 C695 C 0.70806 0.60519 0.06938
 C696 C 0.71479 0.62339 0.06272
 C697 C 0.70383 0.63404 0.04912
 C698 C 0.68596 0.62660 0.04200
 C699 C 0.67922 0.60838 0.04894
 C700 C 0.69022 0.59775 0.06254
 C701 C 0.71965 0.59402 0.08294
 C702 C 0.72951 0.58464 0.09416
 C703 C 0.74142 0.57344 0.10742
 C704 C 0.76105 0.56972 0.10290
 C705 C 0.77268 0.55885 0.11575
 C706 C 0.76481 0.55156 0.13332
 C707 C 0.74504 0.55537 0.13773
 C708 C 0.73344 0.56624 0.12485
 H709 H 0.72859 0.62927 0.06791
 H710 H 0.70943 0.64801 0.04408
 H711 H 0.66555 0.60224 0.04374
 H712 H 0.68489 0.58367 0.06760
 H713 H 0.76739 0.57527 0.08947
 H714 H 0.78790 0.55637 0.11207
 H715 H 0.73850 0.54975 0.15102
 H716 H 0.71824 0.56899 0.12846
 C717 C 0.70418 0.39641 0.92953
 C718 C 0.68651 0.40400 0.93662
 C719 C 0.67578 0.39363 0.95064
 C720 C 0.68261 0.37553 0.95778
 C721 C 0.70032 0.36797 0.95044
 C722 C 0.71101 0.37836 0.93643
 C723 C 0.71557 0.40730 0.91555
 C724 C 0.72544 0.41636 0.90406
 C725 C 0.73762 0.42710 0.89064
 C726 C 0.73159 0.43013 0.87131
 C727 C 0.74365 0.44036 0.85828
 C728 C 0.76193 0.44763 0.86445
 C729 C 0.76779 0.44458 0.88395
 C730 C 0.75572 0.43438 0.89693
 H731 H 0.68111 0.41799 0.93140
 H732 H 0.66221 0.39986 0.95598
 H733 H 0.70599 0.35408 0.95562
 H734 H 0.72469 0.37237 0.93107
 H735 H 0.71762 0.42451 0.86628
 H736 H 0.73883 0.44231 0.84332
 H737 H 0.78163 0.45027 0.88923
 H738 H 0.76051 0.43217 0.91188
 C739 C 0.28948 0.60872 0.93489
 C740 C 0.28249 0.62664 0.94199
 C741 C 0.29335 0.63719 0.95578
 C742 C 0.31136 0.62993 0.96266
 C743 C 0.31832 0.61194 0.95533
 C744 C 0.30743 0.60142 0.94153
 C745 C 0.27806 0.59775 0.92098
 C746 C 0.26833 0.58861 0.90943
 C747 C 0.25654 0.57775 0.89574
 C748 C 0.26474 0.57085 0.87829
 C749 C 0.25324 0.56037 0.86498
 C750 C 0.23336 0.55664 0.86897
 C751 C 0.22527 0.56363 0.88657
 C752 C 0.23680 0.57412 0.89985
 H753 H 0.26861 0.63242 0.93695
 H754 H 0.28757 0.65098 0.96113
 H755 H 0.33212 0.60595 0.96033
 H756 H 0.31295 0.58754 0.93612
 H757 H 0.28002 0.57355 0.87500
 H758 H 0.25994 0.55496 0.85167
 H759 H 0.20997 0.56122 0.88994
 H760 H 0.23029 0.57946 0.91330
 C761 C 0.06818 0.29065 0.39547
 C762 C 0.06126 0.30868 0.40240
 C763 C 0.04773 0.31941 0.39141
 C764 C 0.04094 0.31221 0.37333
 C765 C 0.04812 0.29414 0.36643
 C766 C 0.06164 0.28345 0.37744
 C767 C 0.08174 0.27936 0.40695
 C768 C 0.09299 0.26969 0.41649
 C769 C 0.10631 0.25794 0.42779
 C770 C 0.10184 0.23830 0.43171
 C771 C 0.11484 0.22677 0.44251
 C772 C 0.13251 0.23475 0.44952
 C773 C 0.13684 0.25453 0.44555
 C774 C 0.12381 0.26605 0.43476
 H775 H 0.06623 0.31438 0.41635
 H776 H 0.04248 0.33325 0.39714
 H777 H 0.04320 0.28818 0.35258
 H778 H 0.06690 0.26951 0.37195
 H779 H 0.08836 0.23187 0.42633
 H780 H 0.11121 0.21153 0.44511
 H781 H 0.15021 0.26115 0.45096
 H782 H 0.12739 0.28125 0.43184
 C783 C 0.06720 0.70790 0.60404
 C784 C 0.06046 0.71499 0.62203
 C785 C 0.04678 0.70422 0.63280
 C786 C 0.03965 0.68620 0.62569
 C787 C 0.04666 0.67911 0.60767
 C788 C 0.06035 0.68991 0.59692
 C789 C 0.08090 0.71927 0.59277
 C790 C 0.09225 0.72897 0.58336
 C791 C 0.10569 0.74073 0.57217
 C792 C 0.12308 0.73253 0.56509
 C793 C 0.13618 0.74402 0.55433
 C794 C 0.13204 0.76386 0.55051
 C795 C 0.11448 0.77194 0.55765
 C796 C 0.10141 0.76043 0.56841
 H797 H 0.06567 0.72891 0.62767
 H798 H 0.04169 0.71010 0.64661
 H799 H 0.04146 0.66530 0.60178
 H800 H 0.06547 0.68430 0.58300
 H801 H 0.12650 0.71727 0.56787
 H802 H 0.14945 0.73732 0.54881
 H803 H 0.11100 0.78723 0.55517
 H804 H 0.08801 0.76693 0.57388
 C805 C 0.92995 0.70485 0.39383
 C806 C 0.93716 0.68722 0.40141
 C807 C 0.95129 0.67658 0.39109
 C808 C 0.95840 0.68349 0.37304
 C809 C 0.95096 0.70119 0.36550
 C810 C 0.93685 0.71177 0.37584
 C811 C 0.91581 0.71612 0.40462
 C812 C 0.90418 0.72593 0.41356
 C813 C 0.89060 0.73807 0.42413
 C814 C 0.87115 0.73210 0.42665
 C815 C 0.85796 0.74415 0.43669
 C816 C 0.86409 0.76235 0.44427
 C817 C 0.88371 0.76814 0.44173
 C818 C 0.89685 0.75608 0.43172
 H819 H 0.93194 0.68175 0.41535
 H820 H 0.95671 0.66302 0.39728
 H821 H 0.95611 0.70691 0.35165
 H822 H 0.93139 0.72543 0.36986
 H823 H 0.86615 0.71821 0.42077
 H824 H 0.84291 0.73939 0.43826
 H825 H 0.88895 0.78191 0.44767
 H826 H 0.91189 0.76081 0.42989
 C827 C 0.93076 0.29416 0.60742
 C828 C 0.93791 0.31194 0.60011
 C829 C 0.95215 0.32239 0.61051
 C830 C 0.95942 0.31515 0.62836
 C831 C 0.95202 0.29733 0.63565
 C832 C 0.93779 0.28692 0.62523
 C833 C 0.91656 0.28307 0.59648
 C834 C 0.90490 0.27345 0.58735
 C835 C 0.89130 0.26156 0.57649
 C836 C 0.87196 0.26775 0.57379
 C837 C 0.85876 0.25596 0.56342
 C838 C 0.86478 0.23780 0.55569
 C839 C 0.88429 0.23179 0.55841
 C840 C 0.89744 0.24359 0.56875
 H841 H 0.93259 0.31765 0.58631
 H842 H 0.95754 0.33606 0.60450
 H843 H 0.95729 0.29135 0.64934
 H844 H 0.93238 0.27314 0.63099
 H845 H 0.86705 0.28162 0.57977
 H846 H 0.84379 0.26089 0.56173
 H847 H 0.88944 0.21805 0.55237
 H848 H 0.91240 0.23869 0.57071
 C849 C 0.39621 0.07122 0.29601
 C850 C 0.37825 0.06439 0.28889
 C851 C 0.36769 0.05031 0.29933
 C852 C 0.37497 0.04284 0.31708
 C853 C 0.39298 0.04990 0.32422
 C854 C 0.40353 0.06400 0.31373
 C855 C 0.40725 0.08525 0.28482
 C856 C 0.41632 0.09678 0.27499
 C857 C 0.42694 0.11023 0.26272
 C858 C 0.43419 0.10383 0.24467
 C859 C 0.44404 0.11688 0.23239
 C860 C 0.44677 0.13656 0.23798
 C861 C 0.43959 0.14283 0.25624
 C862 C 0.42970 0.12973 0.26851
 H863 H 0.37247 0.06985 0.27517
 H864 H 0.35388 0.04521 0.29342
 H865 H 0.39898 0.04445 0.33783
 H866 H 0.41745 0.06916 0.31935
 H867 H 0.43216 0.08875 0.24006
 H868 H 0.44967 0.11154 0.21857
 H869 H 0.44130 0.15793 0.26086
 H870 H 0.42408 0.13485 0.28243
 C871 C 0.60970 0.06744 0.70976
 C872 C 0.60224 0.06078 0.69188
 C873 C 0.61263 0.04695 0.68091
 C874 C 0.63062 0.03959 0.68773
 C875 C 0.63809 0.04655 0.70563
 C876 C 0.62768 0.06038 0.71657
 C877 C 0.59870 0.08119 0.72132
 C878 C 0.58939 0.09255 0.73111
 C879 C 0.57819 0.10594 0.74289
 C880 C 0.57454 0.10164 0.76257
 C881 C 0.56350 0.11453 0.77401
 C882 C 0.55597 0.13192 0.76590
 C883 C 0.55975 0.13612 0.74610
 C884 C 0.57079 0.12320 0.73468
 H885 H 0.58832 0.06615 0.68649
 H886 H 0.60647 0.04190 0.66720
 H887 H 0.65189 0.04118 0.71129
 H888 H 0.63357 0.06543 0.73041
 H889 H 0.58024 0.08833 0.76907
 H890 H 0.56105 0.11102 0.78926
 H891 H 0.55394 0.14926 0.73938
 H892 H 0.57347 0.12662 0.71944
 C893 C 0.39669 0.92759 0.70366
 C894 C 0.40396 0.93491 0.68596
 C895 C 0.39330 0.94893 0.67550
 C896 C 0.37525 0.95583 0.68266
 C897 C 0.36803 0.94825 0.70039
 C898 C 0.37869 0.93424 0.71080
 C899 C 0.40785 0.91366 0.71484
 C900 C 0.41703 0.90223 0.72466
 C901 C 0.42778 0.88892 0.73694
 C902 C 0.43069 0.86943 0.73117
 C903 C 0.44071 0.85645 0.74346
 C904 C 0.44786 0.86283 0.76170
 C905 C 0.44500 0.88250 0.76725
 C906 C 0.43502 0.89542 0.75496
 H907 H 0.41791 0.92989 0.68033
 H908 H 0.39926 0.95447 0.66191
 H909 H 0.35419 0.95322 0.70631
 H910 H 0.37296 0.92871 0.72451
 H911 H 0.42508 0.86423 0.71727
 H912 H 0.44253 0.84136 0.73887
 H913 H 0.45061 0.88792 0.78106
 H914 H 0.43288 0.91049 0.75954
 C915 C 0.61030 0.93390 0.29038
 C916 C 0.62821 0.94112 0.28354
 C917 C 0.63854 0.95508 0.29443
 C918 C 0.63103 0.96201 0.31231
 C919 C 0.61310 0.95449 0.31916
 C920 C 0.60281 0.94053 0.30824
 C921 C 0.59940 0.92002 0.27886
 C922 C 0.59017 0.90855 0.26909
 C923 C 0.57907 0.89503 0.25734
 C924 C 0.57179 0.87772 0.26557
 C925 C 0.56086 0.86467 0.25417
 C926 C 0.55705 0.86881 0.23436
 C927 C 0.56446 0.88625 0.22622
 C928 C 0.57540 0.89926 0.23765
 H929 H 0.63412 0.93609 0.26971
 H930 H 0.65229 0.96057 0.28874
 H931 H 0.60692 0.95953 0.33286
 H932 H 0.58894 0.93504 0.31365
 H933 H 0.57449 0.87435 0.28082
 H934 H 0.55514 0.85149 0.26091
 H935 H 0.56198 0.88971 0.21096
 H936 H 0.58100 0.91262 0.23113
 C937 C 0.39148 0.29032 0.92957
 C938 C 0.37322 0.28374 0.93613
 C939 C 0.36263 0.29479 0.94970
 C940 C 0.37019 0.31259 0.95693
 C941 C 0.38850 0.31917 0.95011
 C942 C 0.39907 0.30809 0.93652
 C943 C 0.40256 0.27863 0.91601
 C944 C 0.41182 0.26864 0.90479
 C945 C 0.42284 0.25654 0.89155
 C946 C 0.42997 0.26436 0.87402
 C947 C 0.44070 0.25257 0.86117
 C948 C 0.44443 0.23280 0.86571
 C949 C 0.43719 0.22508 0.88338
 C950 C 0.42646 0.23689 0.89619
 H951 H 0.36723 0.27000 0.93085
 H952 H 0.34860 0.28930 0.95465
 H953 H 0.39473 0.33280 0.95538
 H954 H 0.41321 0.31330 0.93155
 H955 H 0.42730 0.27957 0.87032
 H956 H 0.44630 0.25899 0.84781
 H957 H 0.43961 0.20986 0.88716
 H958 H 0.42095 0.23069 0.90970
 C959 C 0.60579 0.70520 0.93246
 C960 C 0.59869 0.68724 0.93939
 C961 C 0.60924 0.67678 0.95347
 C962 C 0.62703 0.68418 0.96081
 C963 C 0.63410 0.70218 0.95362
 C964 C 0.62353 0.71260 0.93955
 C965 C 0.59469 0.71629 0.91841
 C966 C 0.58546 0.72590 0.90685
 C967 C 0.57451 0.73778 0.89334
 C968 C 0.57155 0.73149 0.87406
 C969 C 0.56118 0.74329 0.86092
 C970 C 0.55369 0.76156 0.86692
 C971 C 0.55664 0.76765 0.88638
 C972 C 0.56698 0.75584 0.89947
 H973 H 0.58494 0.68140 0.93401
 H974 H 0.60339 0.66297 0.95869
 H975 H 0.64774 0.70829 0.95896
 H976 H 0.62914 0.72651 0.93431
 H977 H 0.57737 0.71755 0.86915
 H978 H 0.55932 0.73830 0.84599
 H979 H 0.55080 0.78148 0.89152
 H980 H 0.56914 0.76081 0.91438
 C981 C 0.39243 0.71043 0.07029
 C982 C 0.39970 0.69256 0.06332
 C983 C 0.38892 0.68166 0.04973
 C984 C 0.37072 0.68853 0.04293
 C985 C 0.36348 0.70644 0.05017
 C986 C 0.37428 0.71730 0.06375
 C987 C 0.40372 0.72194 0.08386
 C988 C 0.41314 0.73179 0.09509
 C989 C 0.42433 0.74374 0.10834
 C990 C 0.42796 0.76343 0.10384
 C991 C 0.43880 0.77512 0.11670
 C992 C 0.44613 0.76725 0.13425
 C993 C 0.44240 0.74743 0.13864
 C994 C 0.43156 0.73576 0.12575
 H995 H 0.41375 0.68713 0.06828
 H996 H 0.39490 0.66794 0.04444
 H997 H 0.34954 0.71215 0.04524
 H998 H 0.36854 0.73114 0.06905
 H999 H 0.42237 0.76975 0.09043
 H1000 H 0.44122 0.79038 0.11304
 H1001 H 0.44806 0.74090 0.15192
 H1002 H 0.42887 0.72052 0.12934
 C1003 C 0.60282 0.29647 0.06739
 C1004 C 0.59561 0.31437 0.06045
 C1005 C 0.60611 0.32494 0.04640
 C1006 C 0.62397 0.31771 0.03911
 C1007 C 0.63115 0.29977 0.04629
 C1008 C 0.62063 0.28924 0.06033
 C1009 C 0.59181 0.28527 0.08143
 C1010 C 0.58268 0.27554 0.09299
 C1011 C 0.57189 0.26350 0.10650
 C1012 C 0.56894 0.26970 0.12581
 C1013 C 0.55876 0.25773 0.13896
 C1014 C 0.55146 0.23938 0.13294
 C1015 C 0.55439 0.23337 0.11347
 C1016 C 0.56454 0.24535 0.10036
 H1017 H 0.58181 0.32008 0.06580
 H1018 H 0.60018 0.33870 0.04118
 H1019 H 0.64485 0.29379 0.04100
 H1020 H 0.62633 0.27538 0.06558
 H1021 H 0.57462 0.28370 0.13072
 H1022 H 0.55691 0.26266 0.15390
 H1023 H 0.54869 0.21947 0.10831
 H1024 H 0.56670 0.24044 0.08544
 C1025 C 0.29299 0.06498 0.60556
 C1026 C 0.31078 0.05836 0.59784
 C1027 C 0.32188 0.04447 0.60802
 C1028 C 0.31528 0.03703 0.62605
 C1029 C 0.29744 0.04389 0.63373
 C1030 C 0.28639 0.05777 0.62354
 C1031 C 0.28134 0.07896 0.59497
 C1032 C 0.27136 0.09057 0.58619
 C1033 C 0.25923 0.10430 0.57579
 C1034 C 0.26716 0.12191 0.56889
 C1035 C 0.25532 0.13528 0.55886
 C1036 C 0.23539 0.13117 0.55561
 C1037 C 0.22757 0.11341 0.56261
 C1038 C 0.23942 0.10008 0.57264
 H1039 H 0.31601 0.06385 0.58392
 H1040 H 0.33554 0.03949 0.60170
 H1041 H 0.29194 0.03847 0.64757
 H1042 H 0.27263 0.06279 0.62964
 H1043 H 0.28249 0.12530 0.57121
 H1044 H 0.26182 0.14870 0.55343
 H1045 H 0.21223 0.10994 0.56056
 H1046 H 0.23313 0.08652 0.57799
 C1047 C 0.70637 0.07311 0.39201
 C1048 C 0.71387 0.06633 0.37422
 C1049 C 0.70373 0.05213 0.36350
 C1050 C 0.68586 0.04443 0.37045
 C1051 C 0.67834 0.05160 0.38830
 C1052 C 0.68855 0.06581 0.39898
 C1053 C 0.71733 0.08707 0.40338
 C1054 C 0.72689 0.09847 0.41290
 C1055 C 0.73878 0.11167 0.42423
 C1056 C 0.75668 0.10520 0.43177
 C1057 C 0.76851 0.11797 0.44252
 C1058 C 0.76261 0.13745 0.44587
 C1059 C 0.74450 0.14380 0.43837
 C1060 C 0.73267 0.13098 0.42758
 H1061 H 0.72769 0.07187 0.36872
 H1062 H 0.71003 0.04708 0.34985
 H1063 H 0.66465 0.04613 0.39417
 H1064 H 0.68265 0.07095 0.41277
 H1065 H 0.76151 0.09026 0.42931
 H1066 H 0.78222 0.11256 0.44837
 H1067 H 0.73966 0.15877 0.44055
 H1068 H 0.71885 0.13615 0.42177
 C1069 C 0.70697 0.92848 0.60737
 C1070 C 0.68913 0.93571 0.60037
 C1071 C 0.67887 0.94985 0.61107
 C1072 C 0.68637 0.95693 0.62892
 C1073 C 0.70422 0.94940 0.63592
 C1074 C 0.71444 0.93527 0.62519
 C1075 C 0.71795 0.91454 0.59601
 C1076 C 0.72749 0.90314 0.58650
 C1077 C 0.73932 0.88990 0.57518
 C1078 C 0.73305 0.87064 0.57174
 C1079 C 0.74478 0.85778 0.56093
 C1080 C 0.76295 0.86404 0.55349
 C1081 C 0.76903 0.88347 0.55693
 C1082 C 0.75729 0.89628 0.56771
 H1083 H 0.68325 0.93058 0.58656
 H1084 H 0.66518 0.95534 0.60528
 H1085 H 0.71038 0.95453 0.64959
 H1086 H 0.72826 0.92979 0.63071
 H1087 H 0.71918 0.86555 0.57750
 H1088 H 0.73981 0.84286 0.55868
 H1089 H 0.78279 0.88881 0.55113
 H1090 H 0.76224 0.91118 0.57023
 C1091 C 0.29310 0.93346 0.39451
 C1092 C 0.28652 0.94053 0.37647
 C1093 C 0.29757 0.95439 0.36622
 C1094 C 0.31538 0.96138 0.37391
 C1095 C 0.32196 0.95407 0.39200
 C1096 C 0.31087 0.94020 0.40223
 C1097 C 0.28144 0.91951 0.40517
 C1098 C 0.27143 0.90794 0.41399
 C1099 C 0.25925 0.89425 0.42441
 C1100 C 0.23955 0.89867 0.42786
 C1101 C 0.22763 0.88537 0.43788
 C1102 C 0.23528 0.86743 0.44457
 C1103 C 0.25512 0.86312 0.44103
 C1104 C 0.26701 0.87646 0.43102
 H1105 H 0.27279 0.93542 0.37037
 H1106 H 0.29208 0.95971 0.35234
 H1107 H 0.33559 0.95916 0.39832
 H1108 H 0.31608 0.93482 0.41620
 H1109 H 0.23338 0.91237 0.42275
 H1110 H 0.21237 0.88900 0.44016
 H1111 H 0.26149 0.84955 0.44622
 H1112 H 0.28226 0.87291 0.42845
 C1113 C 0.06855 0.39442 0.70866
 C1114 C 0.06172 0.37636 0.71556
 C1115 C 0.04806 0.36566 0.70469
 C1116 C 0.04103 0.37292 0.68675
 C1117 C 0.04814 0.39102 0.67984
 C1118 C 0.06181 0.40169 0.69075
 C1119 C 0.08215 0.40566 0.72018
 C1120 C 0.09340 0.41509 0.73000
 C1121 C 0.10667 0.42632 0.74189
 C1122 C 0.10222 0.42990 0.76155
 C1123 C 0.11508 0.44080 0.77318
 C1124 C 0.13259 0.44825 0.76527
 C1125 C 0.13692 0.44458 0.74548
 C1126 C 0.12402 0.43369 0.73387
 H1127 H 0.06684 0.37061 0.72942
 H1128 H 0.04288 0.35179 0.71041
 H1129 H 0.04302 0.39702 0.66610
 H1130 H 0.06699 0.41568 0.68530
 H1131 H 0.08884 0.42422 0.76791
 H1132 H 0.11147 0.44316 0.78843
 H1133 H 0.15016 0.45034 0.73892
 H1134 H 0.12757 0.43105 0.71865
 C1135 C 0.06649 0.60329 0.29244
 C1136 C 0.05952 0.62125 0.28545
 C1137 C 0.04587 0.63193 0.29632
 C1138 C 0.03899 0.62476 0.31435
 C1139 C 0.04621 0.60675 0.32134
 C1140 C 0.05987 0.59609 0.31042
 C1141 C 0.08022 0.59218 0.28097
 C1142 C 0.09161 0.58296 0.27114
 C1143 C 0.10509 0.57207 0.25918
 C1144 C 0.10075 0.56858 0.23948
 C1145 C 0.11389 0.55817 0.22774
 C1146 C 0.13159 0.55113 0.23559
 C1147 C 0.13580 0.55467 0.25544
 C1148 C 0.12262 0.56507 0.26715
 H1149 H 0.06455 0.62695 0.27153
 H1150 H 0.04062 0.64574 0.29052
 H1151 H 0.04121 0.60083 0.33515
 H1152 H 0.06517 0.58219 0.31596
 H1153 H 0.08725 0.57399 0.23315
 H1154 H 0.11036 0.55590 0.21246
 H1155 H 0.14918 0.54922 0.26195
 H1156 H 0.12609 0.56766 0.28240
 C1157 C 0.93340 0.39091 0.29054
 C1158 C 0.94046 0.37286 0.28385
 C1159 C 0.95417 0.36244 0.29489
 C1160 C 0.96103 0.36997 0.31282
 C1161 C 0.95374 0.38808 0.31949
 C1162 C 0.94002 0.39847 0.30840
 C1163 C 0.91957 0.40175 0.27895
 C1164 C 0.90807 0.41081 0.26910
 C1165 C 0.89443 0.42159 0.25721
 C1166 C 0.87685 0.42836 0.26526
 C1167 C 0.86360 0.43882 0.25369
 C1168 C 0.86779 0.44265 0.23389
 C1169 C 0.88551 0.43579 0.22595
 C1170 C 0.89873 0.42532 0.23755
 H1171 H 0.93544 0.36688 0.27004
 H1172 H 0.95948 0.34855 0.28934
 H1173 H 0.95872 0.39428 0.33321
 H1174 H 0.93466 0.41245 0.31372
 H1175 H 0.87341 0.42561 0.28048
 H1176 H 0.85021 0.44414 0.26028
 H1177 H 0.88903 0.43828 0.21071
 H1178 H 0.91227 0.42009 0.23116
 C1179 C 0.92994 0.60736 0.70566
 C1180 C 0.93691 0.59988 0.68792
 C1181 C 0.95099 0.61025 0.67725
 C1182 C 0.95830 0.62826 0.68424
 C1183 C 0.95107 0.63572 0.70203
 C1184 C 0.93700 0.62532 0.71265
 C1185 C 0.91591 0.59645 0.71698
 C1186 C 0.90437 0.58735 0.72677
 C1187 C 0.89090 0.57653 0.73883
 C1188 C 0.87154 0.57357 0.73276
 C1189 C 0.85847 0.56324 0.74470
 C1190 C 0.86462 0.55580 0.76289
 C1191 C 0.88414 0.55879 0.76879
 C1192 C 0.89717 0.56909 0.75684
 H1193 H 0.93157 0.58596 0.68239
 H1194 H 0.95624 0.60411 0.66361
 H1195 H 0.95638 0.64953 0.70782
 H1196 H 0.93173 0.63123 0.72640
 H1197 H 0.86653 0.57932 0.71887
 H1198 H 0.84349 0.56135 0.73985
 H1199 H 0.88940 0.55298 0.78256
 H1200 H 0.91213 0.57125 0.76165
 C1201 C 0.70811 0.60640 0.93426
 C1202 C 0.69029 0.59882 0.94094
 C1203 C 0.67922 0.60922 0.95469
 C1204 C 0.68585 0.62741 0.96201
 C1205 C 0.70378 0.63493 0.95499
 C1206 C 0.71478 0.62449 0.94125
 C1207 C 0.71973 0.59551 0.92044
 C1208 C 0.72963 0.58645 0.90897
 C1209 C 0.74162 0.57567 0.89538
 C1210 C 0.73370 0.56894 0.87772
 C1211 C 0.74539 0.55855 0.86450
 C1212 C 0.76518 0.55475 0.86879
 C1213 C 0.77300 0.56157 0.88660
 C1214 C 0.76129 0.57196 0.89978
 H1215 H 0.68499 0.58482 0.93561
 H1216 H 0.66554 0.60289 0.95965
 H1217 H 0.70944 0.64884 0.96018
 H1218 H 0.72857 0.63049 0.93618
 H1219 H 0.71848 0.57169 0.87419
 H1220 H 0.73888 0.55328 0.85104
 H1221 H 0.78823 0.55910 0.89021
 H1222 H 0.76759 0.57716 0.91339
 C1223 C 0.29294 0.39392 0.92881
 C1224 C 0.28539 0.37608 0.93554
 C1225 C 0.29567 0.36514 0.94945
 C1226 C 0.31371 0.37192 0.95691
 C1227 C 0.32126 0.38983 0.94982
 C1228 C 0.31092 0.40072 0.93590
 C1229 C 0.28193 0.40545 0.91503
 C1230 C 0.27239 0.41509 0.90374
 C1231 C 0.26059 0.42655 0.89057
 C1232 C 0.24259 0.43398 0.89693
 C1233 C 0.23084 0.44479 0.88416
 C1234 C 0.23691 0.44831 0.86481
 C1235 C 0.25511 0.44094 0.85859
 C1236 C 0.26686 0.43010 0.87140
 H1237 H 0.27146 0.37069 0.93016
 H1238 H 0.28933 0.35146 0.95444
 H1239 H 0.33507 0.39558 0.95511
 H1240 H 0.31688 0.41453 0.93081
 H1241 H 0.23762 0.43138 0.91175
 H1242 H 0.21705 0.45053 0.88948
 H1243 H 0.26009 0.44324 0.84373
 H1244 H 0.28075 0.42437 0.86632
 C1245 C 0.29233 0.60862 0.07144
 C1246 C 0.28503 0.62653 0.06467
 C1247 C 0.29539 0.63725 0.05065
 C1248 C 0.31327 0.63018 0.04312
 C1249 C 0.32056 0.61219 0.05024
 C1250 C 0.31014 0.60152 0.06427
 C1251 C 0.28125 0.59731 0.08536
 C1252 C 0.27169 0.58782 0.09676
 C1253 C 0.25991 0.57649 0.11006
 C1254 C 0.24194 0.56889 0.10379
 C1255 C 0.23028 0.55806 0.11663
 C1256 C 0.23644 0.55467 0.13599
 C1257 C 0.25460 0.56225 0.14214
 C1258 C 0.26625 0.57312 0.12925
 H1259 H 0.27123 0.63214 0.07011
 H1260 H 0.28925 0.65100 0.04563
 H1261 H 0.33424 0.60621 0.04489
 H1262 H 0.31590 0.58764 0.06940
 H1263 H 0.23692 0.57135 0.08895
 H1264 H 0.21653 0.55216 0.11137
 H1265 H 0.25964 0.56006 0.15700
 H1266 H 0.28013 0.57897 0.13426
 C1267 C 0.70365 0.39485 0.06771
 C1268 C 0.68603 0.40258 0.06068
 C1269 C 0.67540 0.39255 0.04629
 C1270 C 0.68226 0.37458 0.03868
 C1271 C 0.70001 0.36695 0.04597
 C1272 C 0.71058 0.37702 0.06034
 C1273 C 0.71479 0.40524 0.08232
 C1274 C 0.72442 0.41377 0.09444
 C1275 C 0.73627 0.42378 0.10875
 C1276 C 0.73301 0.44361 0.11292
 C1277 C 0.74498 0.45345 0.12635
 C1278 C 0.76043 0.44356 0.13575
 C1279 C 0.76343 0.42357 0.13161
 C1280 C 0.75144 0.41376 0.11821
 H1281 H 0.68054 0.41639 0.06627
 H1282 H 0.66183 0.39895 0.04114
 H1283 H 0.70584 0.35321 0.04057
 H1284 H 0.72422 0.37091 0.06566
 H1285 H 0.72136 0.45153 0.10563
 H1286 H 0.74245 0.46889 0.12903
 H1287 H 0.77503 0.41549 0.13879
 H1288 H 0.75408 0.39840 0.11512
 C1289 C 0.93216 0.70790 0.60458
 C1290 C 0.93882 0.68986 0.59747
 C1291 C 0.95244 0.67895 0.60819
 C1292 C 0.95965 0.68598 0.62623
 C1293 C 0.95264 0.70411 0.63330
 C1294 C 0.93903 0.71495 0.62253
 C1295 C 0.91853 0.71938 0.59333
 C1296 C 0.90723 0.72918 0.58395
 C1297 C 0.89387 0.74107 0.57281
 C1298 C 0.87633 0.73307 0.56582
 C1299 C 0.86330 0.74470 0.55514
 C1300 C 0.86766 0.76451 0.55131
 C1301 C 0.88536 0.77239 0.55836
 C1302 C 0.89836 0.76074 0.56904
 H1303 H 0.93359 0.68427 0.58357
 H1304 H 0.95740 0.66510 0.60222
 H1305 H 0.95775 0.71007 0.64708
 H1306 H 0.93396 0.72891 0.62816
 H1307 H 0.87274 0.71784 0.56861
 H1308 H 0.84991 0.73814 0.54970
 H1309 H 0.88901 0.78764 0.55588
 H1310 H 0.91186 0.76710 0.57444
 C1311 C 0.93317 0.29118 0.39332
 C1312 C 0.93979 0.30932 0.40025
 C1313 C 0.95355 0.32007 0.38954
 C1314 C 0.96095 0.31279 0.37169
 C1315 C 0.95395 0.29458 0.36478
 C1316 C 0.94020 0.28389 0.37554
 C1317 C 0.91943 0.27987 0.40462
 C1318 C 0.90805 0.27026 0.41411
 C1319 C 0.89459 0.25865 0.42543
 C1320 C 0.87726 0.26698 0.43252
 C1321 C 0.86415 0.25564 0.44343
 C1322 C 0.86822 0.23581 0.44741
 C1323 C 0.88571 0.22760 0.44027
 C1324 C 0.89879 0.23895 0.42934
 H1325 H 0.93444 0.31510 0.41402
 H1326 H 0.95849 0.33399 0.39540
 H1327 H 0.95920 0.28843 0.35113
 H1328 H 0.93516 0.26985 0.37004
 H1329 H 0.87389 0.28223 0.42962
 H1330 H 0.85093 0.26244 0.44894
 H1331 H 0.88913 0.21232 0.44285
 H1332 H 0.91214 0.23235 0.42388
 C1333 C 0.06940 0.29422 0.60809
 C1334 C 0.06235 0.31201 0.60073
 C1335 C 0.04804 0.32248 0.61100
 C1336 C 0.04053 0.31528 0.62884
 C1337 C 0.04784 0.29736 0.63609
 C1338 C 0.06214 0.28695 0.62578
 C1339 C 0.08393 0.28326 0.59743
 C1340 C 0.09597 0.27380 0.58863
 C1341 C 0.11018 0.26216 0.57827
 C1342 C 0.11998 0.24698 0.58793
 C1343 C 0.13326 0.23517 0.57777
 C1344 C 0.13692 0.23837 0.55777
 C1345 C 0.12719 0.25385 0.54824
 C1346 C 0.11389 0.26564 0.55843
 H1347 H 0.06786 0.31776 0.58703
 H1348 H 0.04286 0.33618 0.60489
 H1349 H 0.04252 0.29127 0.64972
 H1350 H 0.06749 0.27318 0.63160
 H1351 H 0.11725 0.24418 0.60329
 H1352 H 0.14071 0.22355 0.58558
 H1353 H 0.12951 0.25653 0.53280
 H1354 H 0.10633 0.27730 0.55078
 C1355 C 0.06841 0.70447 0.39203
 C1356 C 0.06144 0.68674 0.39962
 C1357 C 0.04708 0.67610 0.38956
 C1358 C 0.03943 0.68306 0.37169
 C1359 C 0.04668 0.70092 0.36418
 C1360 C 0.06103 0.71150 0.37429
 C1361 C 0.08294 0.71563 0.40254
 C1362 C 0.09497 0.72519 0.41129
 C1363 C 0.10917 0.73689 0.42165
 C1364 C 0.11887 0.75219 0.41205
 C1365 C 0.13219 0.76399 0.42222
 C1366 C 0.13600 0.76065 0.44218
 C1367 C 0.12634 0.74507 0.45165
 C1368 C 0.11301 0.73330 0.44145
 H1369 H 0.06704 0.68117 0.41337
 H1370 H 0.04196 0.66246 0.39587
 H1371 H 0.04125 0.70683 0.35051
 H1372 H 0.06632 0.72522 0.36828
 H1373 H 0.11605 0.75509 0.39672
 H1374 H 0.13957 0.77569 0.41446
 H1375 H 0.12876 0.74228 0.46706
 H1376 H 0.10553 0.72154 0.44905
 C1377 C 0.60762 0.93128 0.71036
 C1378 C 0.60020 0.93819 0.69257
 C1379 C 0.61088 0.95178 0.68156
 C1380 C 0.62915 0.95863 0.68824
 C1381 C 0.63654 0.95148 0.70608
 C1382 C 0.62583 0.93790 0.71705
 C1383 C 0.59647 0.91761 0.72190
 C1384 C 0.58717 0.90626 0.73173
 C1385 C 0.57611 0.89281 0.74361
 C1386 C 0.56935 0.87513 0.73568
 C1387 C 0.55867 0.86205 0.74726
 C1388 C 0.55460 0.86651 0.76695
 C1389 C 0.56145 0.88434 0.77477
 C1390 C 0.57214 0.89739 0.76317
 H1391 H 0.58611 0.93316 0.68726
 H1392 H 0.60478 0.95699 0.66790
 H1393 H 0.65054 0.95645 0.71164
 H1394 H 0.63171 0.93265 0.73081
 H1395 H 0.57230 0.87147 0.72053
 H1396 H 0.55338 0.84856 0.74075
 H1397 H 0.55877 0.88807 0.78994
 H1398 H 0.57736 0.91101 0.76947
 C1399 C 0.39608 0.93298 0.29538
 C1400 C 0.37831 0.94010 0.28809
 C1401 C 0.36771 0.95410 0.29863
 C1402 C 0.37476 0.96119 0.31665
 C1403 C 0.39258 0.95383 0.32394
 C1404 C 0.40316 0.93983 0.31336
 C1405 C 0.40722 0.91900 0.28418
 C1406 C 0.41650 0.90749 0.27451
 C1407 C 0.42751 0.89401 0.26258
 C1408 C 0.43489 0.90018 0.24451
 C1409 C 0.44527 0.88712 0.23266
 C1410 C 0.44841 0.86765 0.23870
 C1411 C 0.44109 0.86161 0.25698
 C1412 C 0.43068 0.87472 0.26883
 H1413 H 0.37271 0.93494 0.27417
 H1414 H 0.35406 0.95945 0.29260
 H1415 H 0.39841 0.95898 0.33775
 H1416 H 0.41692 0.93445 0.31913
 H1417 H 0.43258 0.91509 0.23956
 H1418 H 0.45097 0.89230 0.21882
 H1419 H 0.44309 0.84668 0.26195
 H1420 H 0.42499 0.86977 0.28277
 C1421 C 0.60725 0.07006 0.28952
 C1422 C 0.59991 0.06312 0.30734
 C1423 C 0.61071 0.04966 0.31836
 C1424 C 0.62902 0.04296 0.31169
 C1425 C 0.63632 0.05015 0.29382
 C1426 C 0.62550 0.06360 0.28283
 C1427 C 0.59598 0.08360 0.27796
 C1428 C 0.58657 0.09484 0.26812
 C1429 C 0.57538 0.10815 0.25623
 C1430 C 0.57142 0.10352 0.23667
 C1431 C 0.56060 0.11644 0.22506
 C1432 C 0.55361 0.13421 0.23286
 C1433 C 0.55766 0.13873 0.25255
 C1434 C 0.56847 0.12577 0.26414
 H1435 H 0.58579 0.06802 0.31265
 H1436 H 0.60467 0.04441 0.33204
 H1437 H 0.65035 0.04529 0.28826
 H1438 H 0.63131 0.06887 0.26905
 H1439 H 0.57675 0.08995 0.23038
 H1440 H 0.55795 0.11266 0.20989
 H1441 H 0.55226 0.15216 0.25905
 H1442 H 0.57141 0.12948 0.27928
 C1443 C 0.39570 0.06583 0.70470
 C1444 C 0.37798 0.05854 0.71196
 C1445 C 0.36747 0.04447 0.70137
 C1446 C 0.37458 0.03746 0.68335
 C1447 C 0.39236 0.04499 0.67610
 C1448 C 0.40284 0.05907 0.68673
 C1449 C 0.40672 0.07992 0.71593
 C1450 C 0.41589 0.09154 0.72562
 C1451 C 0.42675 0.10514 0.73757
 C1452 C 0.43412 0.09909 0.75568
 C1453 C 0.44435 0.11228 0.76756
 C1454 C 0.44736 0.13178 0.76149
 C1455 C 0.44004 0.13769 0.74317
 C1456 C 0.42978 0.12446 0.73131
 H1457 H 0.37233 0.06364 0.72587
 H1458 H 0.35385 0.03900 0.70737
 H1459 H 0.39824 0.03991 0.66229
 H1460 H 0.41656 0.06458 0.68098
 H1461 H 0.43192 0.08416 0.76066
 H1462 H 0.45006 0.10719 0.78143
 H1463 H 0.44194 0.15264 0.73817
 H1464 H 0.42410 0.12932 0.71733
 C1465 C 0.60519 0.70529 0.07048
 C1466 C 0.62307 0.71258 0.06364
 C1467 C 0.63375 0.70212 0.04966
 C1468 C 0.62666 0.68418 0.04230
 C1469 C 0.60873 0.67688 0.04938
 C1470 C 0.59806 0.68739 0.06337
 C1471 C 0.59401 0.71646 0.08444
 C1472 C 0.58478 0.72621 0.09592
 C1473 C 0.57390 0.73832 0.10933
 C1474 C 0.56657 0.75641 0.10307
 C1475 C 0.55645 0.76851 0.11609
 C1476 C 0.55351 0.76270 0.13562
 C1477 C 0.56076 0.74439 0.14175
 C1478 C 0.57092 0.73230 0.12868
 H1479 H 0.62871 0.72644 0.06901
 H1480 H 0.64749 0.70815 0.04454
 H1481 H 0.60286 0.66313 0.04402
 H1482 H 0.58421 0.68163 0.06854
 H1483 H 0.56875 0.76120 0.08811
 H1484 H 0.55078 0.78237 0.11083
 H1485 H 0.55890 0.73960 0.15674
 H1486 H 0.57658 0.71835 0.13371
 C1487 C 0.39035 0.29045 0.06550
 C1488 C 0.37235 0.28367 0.05841
 C1489 C 0.36195 0.29465 0.04462
 C1490 C 0.36945 0.31260 0.03772
 C1491 C 0.38749 0.31937 0.04507
 C1492 C 0.39786 0.30835 0.05886
 C1493 C 0.40127 0.27890 0.07933
 C1494 C 0.41048 0.26915 0.09080
 C1495 C 0.42156 0.25746 0.10439
 C1496 C 0.42855 0.26578 0.12177
 C1497 C 0.43940 0.25445 0.13491
 C1498 C 0.44342 0.23462 0.13082
 C1499 C 0.43632 0.22640 0.11331
 C1500 C 0.42546 0.23776 0.10020
 H1501 H 0.36641 0.26982 0.06344
 H1502 H 0.34812 0.28902 0.03926
 H1503 H 0.39368 0.33310 0.04007
 H1504 H 0.41179 0.31373 0.06424
 H1505 H 0.42568 0.28104 0.12513
 H1506 H 0.44488 0.26127 0.14814
 H1507 H 0.43895 0.21112 0.10986
 H1508 H 0.42008 0.23116 0.08680
 C1509 C 0.60243 0.29643 0.92956
 C1510 C 0.62037 0.28932 0.93641
 C1511 C 0.63098 0.29990 0.95038
 C1512 C 0.62377 0.31778 0.95772
 C1513 C 0.60578 0.32491 0.95062
 C1514 C 0.59518 0.31428 0.93664
 C1515 C 0.59133 0.28512 0.91562
 C1516 C 0.58218 0.27524 0.90416
 C1517 C 0.57143 0.26296 0.89077
 C1518 C 0.56428 0.24480 0.89708
 C1519 C 0.55430 0.23252 0.88408
 C1520 C 0.55133 0.23823 0.86452
 C1521 C 0.55839 0.25661 0.85834
 C1522 C 0.56840 0.26888 0.87139
 H1523 H 0.62611 0.27551 0.93106
 H1524 H 0.64477 0.29399 0.95551
 H1525 H 0.59982 0.33861 0.95597
 H1526 H 0.58129 0.31991 0.93147
 H1527 H 0.56649 0.24009 0.91205
 H1528 H 0.54878 0.21861 0.88937
 H1529 H 0.55650 0.26133 0.84334
 H1530 H 0.57393 0.28288 0.86633
 C1531 C 0.39109 0.71034 0.93438
 C1532 C 0.39828 0.69232 0.94100
 C1533 C 0.38773 0.68147 0.95479
 C1534 C 0.36983 0.68853 0.96215
 C1535 C 0.36265 0.70659 0.95527
 C1536 C 0.37322 0.71742 0.94148
 C1537 C 0.40220 0.72172 0.92055
 C1538 C 0.41157 0.73133 0.90908
 C1539 C 0.42283 0.74287 0.89551
 C1540 C 0.42677 0.76261 0.89957
 C1541 C 0.43777 0.77383 0.88645
 C1542 C 0.44497 0.76545 0.86907
 C1543 C 0.44093 0.74559 0.86512
 C1544 C 0.42993 0.73439 0.87827
 H1545 H 0.41210 0.68672 0.93560
 H1546 H 0.39368 0.66763 0.95978
 H1547 H 0.34893 0.71245 0.96064
 H1548 H 0.36753 0.73136 0.93646
 H1549 H 0.42130 0.76933 0.91286
 H1550 H 0.44042 0.78914 0.88978
 H1551 H 0.44648 0.73865 0.85200
 H1552 H 0.42703 0.71910 0.87502
 C1553 C 0.71059 0.93622 0.39298
 C1554 C 0.69248 0.94274 0.40000
 C1555 C 0.68162 0.95644 0.38932
 C1556 C 0.68876 0.96379 0.37146
 C1557 C 0.70694 0.95705 0.36449
 C1558 C 0.71777 0.94337 0.37519
 C1559 C 0.72191 0.92231 0.40407
 C1560 C 0.73151 0.91071 0.41329
 C1561 C 0.74312 0.89691 0.42422
 C1562 C 0.73479 0.87935 0.43080
 C1563 C 0.74611 0.86589 0.44127
 C1564 C 0.76594 0.86982 0.44531
 C1565 C 0.77416 0.88755 0.43868
 C1566 C 0.76281 0.90098 0.42820
 H1567 H 0.68679 0.93730 0.41376
 H1568 H 0.66769 0.96131 0.39510
 H1569 H 0.71287 0.96241 0.35080
 H1570 H 0.73177 0.93842 0.36962
 H1571 H 0.71955 0.87608 0.42784
 H1572 H 0.73930 0.85250 0.44639
 H1573 H 0.78943 0.89089 0.44133
 H1574 H 0.76942 0.91450 0.42312
 C1575 C 0.29525 0.92716 0.60404
 C1576 C 0.31286 0.93452 0.59655
 C1577 C 0.32343 0.94864 0.60702
 C1578 C 0.31651 0.95561 0.62513
 C1579 C 0.29884 0.94803 0.63257
 C1580 C 0.28831 0.93391 0.62209
 C1581 C 0.28411 0.91295 0.59311
 C1582 C 0.27452 0.90118 0.58402
 C1583 C 0.26274 0.88733 0.57328
 C1584 C 0.26622 0.88407 0.55336
 C1585 C 0.25432 0.87112 0.54281
 C1586 C 0.23874 0.86128 0.55206
 C1587 C 0.23553 0.86449 0.57215
 C1588 C 0.24745 0.87743 0.58266
 H1589 H 0.31836 0.92941 0.58258
 H1590 H 0.33697 0.95417 0.60087
 H1591 H 0.29310 0.95307 0.64646
 H1592 H 0.27468 0.92834 0.62801
 H1593 H 0.27797 0.89172 0.54593
 H1594 H 0.25701 0.86914 0.52732
 H1595 H 0.22383 0.85695 0.57975
 H1596 H 0.24465 0.87981 0.59809
 C1597 C 0.29473 0.07076 0.39591
 C1598 C 0.31246 0.06366 0.40332
 C1599 C 0.32318 0.04973 0.39279
 C1600 C 0.31626 0.04269 0.37468
 C1601 C 0.29850 0.05006 0.36729
 C1602 C 0.28782 0.06398 0.37785
 C1603 C 0.28337 0.08463 0.40702
 C1604 C 0.27358 0.09603 0.41631
 C1605 C 0.26156 0.10936 0.42738
 C1606 C 0.26772 0.12868 0.43069
 C1607 C 0.25585 0.14161 0.44128
 C1608 C 0.23764 0.13537 0.44865
 C1609 C 0.23166 0.11589 0.44532
 C1610 C 0.24354 0.10301 0.43476
 H1611 H 0.31793 0.06877 0.41731
 H1612 H 0.33679 0.04437 0.39889
 H1613 H 0.29276 0.04496 0.35342
 H1614 H 0.27409 0.06935 0.37200
 H1615 H 0.28163 0.13376 0.42501
 H1616 H 0.26077 0.15656 0.44342
 H1617 H 0.21787 0.11056 0.45106
 H1618 H 0.23866 0.08807 0.43234
 C1619 C 0.71010 0.06579 0.60675
 C1620 C 0.69198 0.05917 0.59978
 C1621 C 0.68115 0.04551 0.61054
 C1622 C 0.68832 0.03827 0.62844
 C1623 C 0.70650 0.04511 0.63537
 C1624 C 0.71730 0.05877 0.62459
 C1625 C 0.72142 0.07961 0.59556
 C1626 C 0.73105 0.09112 0.58624
 C1627 C 0.74271 0.10480 0.57521
 C1628 C 0.73450 0.12239 0.56861
 C1629 C 0.74589 0.13575 0.55805
 C1630 C 0.76567 0.13167 0.55395
 C1631 C 0.77376 0.11391 0.56060
 C1632 C 0.76234 0.10058 0.57117
 H1633 H 0.68628 0.06451 0.58599
 H1634 H 0.66722 0.04054 0.60479
 H1635 H 0.71244 0.03984 0.64908
 H1636 H 0.73130 0.06378 0.63012
 H1637 H 0.71930 0.12577 0.57161
 H1638 H 0.73917 0.14917 0.55291
 H1639 H 0.78899 0.11046 0.55791
 H1640 H 0.76887 0.08704 0.57626
 C1641 C 0.92926 0.60338 0.29481
 C1642 C 0.93654 0.59615 0.31253
 C1643 C 0.95073 0.60674 0.32289
 C1644 C 0.95783 0.62471 0.31563
 C1645 C 0.95031 0.63189 0.29785
 C1646 C 0.93613 0.62129 0.28754
 C1647 C 0.91497 0.59234 0.28388
 C1648 C 0.90314 0.58323 0.27441
 C1649 C 0.88921 0.57252 0.26273
 C1650 C 0.88599 0.55252 0.26609
 C1651 C 0.87295 0.54201 0.25424
 C1652 C 0.86302 0.55139 0.23882
 C1653 C 0.86619 0.57155 0.23573
 C1654 C 0.87920 0.58202 0.24760
 H1655 H 0.93134 0.58230 0.31829
 H1656 H 0.95621 0.60080 0.33652
 H1657 H 0.95544 0.64566 0.29185
 H1658 H 0.93061 0.62701 0.27382
 H1659 H 0.89371 0.54500 0.27771
 H1660 H 0.87100 0.52647 0.25684
 H1661 H 0.85857 0.57924 0.22416
 H1662 H 0.88155 0.59750 0.24489
 C1663 C 0.93287 0.39479 0.70896
 C1664 C 0.93962 0.37668 0.71580
 C1665 C 0.95323 0.36596 0.70490
 C1666 C 0.96030 0.37323 0.68698
 C1667 C 0.95331 0.39139 0.68014
 C1668 C 0.93969 0.40208 0.69108
 C1669 C 0.91920 0.40598 0.72045
 C1670 C 0.90785 0.41531 0.73025
 C1671 C 0.89439 0.42639 0.74211
 C1672 C 0.87687 0.43334 0.73408
 C1673 C 0.86377 0.44400 0.74566
 C1674 C 0.86803 0.44786 0.76544
 C1675 C 0.88571 0.44085 0.77335
 C1676 C 0.89879 0.43018 0.76175
 H1677 H 0.93445 0.37089 0.72963
 H1678 H 0.95831 0.35204 0.71059
 H1679 H 0.95846 0.39740 0.66641
 H1680 H 0.93457 0.41610 0.68565
 H1681 H 0.87335 0.43053 0.71888
 H1682 H 0.85040 0.44941 0.73908
 H1683 H 0.88930 0.44335 0.78858
 H1684 H 0.91228 0.42482 0.76813
 C1685 C 0.06837 0.60714 0.70552
 C1686 C 0.06139 0.62511 0.71252
 C1687 C 0.04729 0.63551 0.70196
 C1688 C 0.03995 0.62806 0.68420
 C1689 C 0.04715 0.61003 0.67720
 C1690 C 0.06126 0.59965 0.68781
 C1691 C 0.08250 0.59626 0.71675
 C1692 C 0.09412 0.58722 0.72649
 C1693 C 0.10771 0.57652 0.73852
 C1694 C 0.10156 0.56899 0.75653
 C1695 C 0.11472 0.55888 0.76848
 C1696 C 0.13427 0.55616 0.76259
 C1697 C 0.14030 0.56366 0.74438
 C1698 C 0.12710 0.57380 0.73244
 H1699 H 0.06676 0.63104 0.72623
 H1700 H 0.04207 0.64934 0.70776
 H1701 H 0.04181 0.60388 0.66360
 H1702 H 0.06654 0.58573 0.68227
 H1703 H 0.08658 0.57096 0.76137
 H1704 H 0.10954 0.55301 0.78226
 H1705 H 0.15530 0.56197 0.73953
 H1706 H 0.13203 0.57962 0.71855
 C1707 C 0.07085 0.39093 0.29329
 C1708 C 0.06360 0.39845 0.31090
 C1709 C 0.04944 0.38804 0.32143
 C1710 C 0.04234 0.36996 0.31444
 C1711 C 0.04987 0.36245 0.29680
 C1712 C 0.06401 0.37288 0.28630
 C1713 C 0.08491 0.40194 0.28208
 C1714 C 0.09644 0.41117 0.27240
 C1715 C 0.10987 0.42218 0.26047
 C1716 C 0.12918 0.42526 0.26664
 C1717 C 0.14220 0.43584 0.25486
 C1718 C 0.13604 0.44342 0.23673
 C1719 C 0.11656 0.44032 0.23074
 C1720 C 0.10360 0.42977 0.24253
 H1721 H 0.06876 0.41244 0.31642
 H1722 H 0.04396 0.39423 0.33496
 H1723 H 0.04472 0.34858 0.29101
 H1724 H 0.06950 0.36694 0.27266
 H1725 H 0.13420 0.41942 0.28049
 H1726 H 0.15714 0.43783 0.25978
 H1727 H 0.11129 0.44623 0.21702
 H1728 H 0.08866 0.42753 0.23764
   
