data_POSCAR
  _audit_creation_date              2014-09-24
  _audit_creation_method            'ToBaCCo'
  _symmetry_space_group_name_H-M    'P1'
  _symmetry_Int_Tables_number       1
  _symmetry_cell_setting            triclinic
  loop_
  _symmetry_equiv_pos_as_xyz
 x,y,z
_cell_length_a 58.7348
_cell_length_b 57.6799
_cell_length_c 63.3544
_cell_angle_alpha 89.542500
_cell_angle_beta 90.392900
_cell_angle_gamma 90.191000
loop_
  _atom_site_label
  _atom_site_type_symbol
  _atom_site_fract_x
  _atom_site_fract_y
  _atom_site_fract_z
C1 C 0.41256 -0.04563 0.25093
 C2 C 0.42083 -0.02412 0.24368
 C3 C 0.43148 -0.02252 0.22404
 C4 C 0.43505 -0.04240 0.21187
 C5 C 0.42711 -0.06397 0.21963
 C6 C 0.41506 -0.06596 0.23886
 C7 C 0.41904 -0.00339 0.25714
 C8 C 0.42916 -0.00359 0.27725
 C9 C 0.42742 0.01555 0.29096
 C10 C 0.41466 0.03488 0.28365
 C11 C 0.40479 0.03542 0.26334
 C12 C 0.40736 0.01636 0.25003
 H13 H 0.40474 -0.04632 0.26633
 H14 H 0.43707 -0.00567 0.21843
 H15 H 0.43924 -0.01859 0.28146
 H16 H 0.39943 0.01648 0.23452
 H17 H 0.42961 -0.07908 0.21002
 H18 H 0.41145 0.04944 0.29383
 C19 C 0.09376 -0.02739 0.74936
 C20 C 0.08438 -0.00673 0.75708
 C21 C 0.07278 -0.00684 0.77634
 C22 C 0.06865 -0.02774 0.78714
 C23 C 0.07626 -0.04850 0.77806
 C24 C 0.09040 -0.04862 0.76011
 C25 C 0.08491 0.01472 0.74425
 C26 C 0.07289 0.01535 0.72512
 C27 C 0.07074 0.03602 0.71315
 C28 C 0.08192 0.05611 0.72097
 C29 C 0.09469 0.05546 0.73990
 C30 C 0.09582 0.03472 0.75158
 H31 H 0.10376 -0.02648 0.73513
 H32 H 0.06677 0.00942 0.78260
 H33 H 0.06559 -0.00078 0.71967
 H34 H 0.10509 0.03415 0.76643
 H35 H 0.07112 -0.06467 0.78530
 H36 H 0.08061 0.07255 0.71278
 C37 C 0.60104 0.48312 0.25041
 C38 C 0.58964 0.50265 0.25810
 C39 C 0.58004 0.50202 0.27827
 C40 C 0.58126 0.48192 0.29091
 C41 C 0.59335 0.46266 0.28324
 C42 C 0.60347 0.46323 0.26314
 C43 C 0.58658 0.52358 0.24487
 C44 C 0.57290 0.52236 0.22670
 C45 C 0.56749 0.54249 0.21519
 C46 C 0.57596 0.56389 0.22238
 C47 C 0.59167 0.56532 0.23929
 C48 C 0.59634 0.54489 0.25088
 H49 H 0.60865 0.48372 0.23488
 H50 H 0.57145 0.51730 0.28399
 H51 H 0.56646 0.50565 0.22170
 H52 H 0.60788 0.54517 0.26425
 H53 H 0.59473 0.44701 0.29270
 H54 H 0.57041 0.57957 0.21446
 C55 C 0.91204 0.46748 0.75295
 C56 C 0.92343 0.48756 0.74603
 C57 C 0.93390 0.48795 0.72622
 C58 C 0.93330 0.46836 0.71315
 C59 C 0.92143 0.44845 0.72019
 C60 C 0.91043 0.44803 0.73987
 C61 C 0.92279 0.50877 0.75888
 C62 C 0.93345 0.50921 0.77873
 C63 C 0.93177 0.52873 0.79206
 C64 C 0.91846 0.54766 0.78460
 C65 C 0.90806 0.54745 0.76453
 C66 C 0.91061 0.52810 0.75163
 H67 H 0.90322 0.46755 0.76792
 H68 H 0.94201 0.50381 0.72084
 H69 H 0.94365 0.49434 0.78306
 H70 H 0.90209 0.52756 0.73641
 H71 H 0.92047 0.43323 0.71034
 H72 H 0.91513 0.56241 0.79452
 C73 C 0.25458 0.34433 1.03142
 C74 C 0.25501 0.36109 1.01520
 C75 C 0.27387 0.37597 1.01329
 C76 C 0.29233 0.37424 1.02746
 C77 C 0.29190 0.35699 1.04322
 C78 C 0.27315 0.34181 1.04562
 C79 C 0.23611 0.36245 0.99963
 C80 C 0.21726 0.37693 1.00313
 C81 C 0.19973 0.37889 0.98788
 C82 C 0.20141 0.36605 0.96920
 C83 C 0.22008 0.35159 0.96550
 C84 C 0.23732 0.34968 0.98087
 H85 H 0.24013 0.33267 1.03219
 H86 H 0.27399 0.38904 1.00091
 H87 H 0.21651 0.38692 1.01752
 H88 H 0.25195 0.33876 0.97801
 H89 H 0.30611 0.35610 1.05414
 H90 H 0.18792 0.36699 0.95748
 C91 C 0.74983 0.15652 1.02808
 C92 C 0.74752 0.14070 1.01144
 C93 C 0.72768 0.12708 1.00991
 C94 C 0.71028 0.12895 1.02502
 C95 C 0.71293 0.14502 1.04150
 C96 C 0.73259 0.15916 1.04341
 C97 C 0.76515 0.14002 0.99471
 C98 C 0.78477 0.12612 0.99693
 C99 C 0.80187 0.12638 0.98129
 C100 C 0.79909 0.14128 0.96369
 C101 C 0.77961 0.15521 0.96122
 C102 C 0.76268 0.15431 0.97680
 H103 H 0.76473 0.16760 1.02813
 H104 H 0.72591 0.11498 0.99702
 H105 H 0.78649 0.11496 1.01067
 H106 H 0.74773 0.16518 0.97526
 H107 H 0.69962 0.14591 1.05315
 H108 H 0.81214 0.14201 0.95170
 C109 C 0.24650 0.64714 0.52480
 C110 C 0.24498 0.63272 0.50699
 C111 C 0.22542 0.61878 0.50401
 C112 C 0.20767 0.61885 0.51892
 C113 C 0.20956 0.63357 0.53639
 C114 C 0.22880 0.64761 0.53963
 C115 C 0.26358 0.63294 0.49118
 C116 C 0.28417 0.62102 0.49501
 C117 C 0.30202 0.62186 0.48015
 C118 C 0.29913 0.63549 0.46182
 C119 C 0.27882 0.64762 0.45786
 C120 C 0.26099 0.64596 0.47249
 H121 H 0.26149 0.65784 0.52714
 H122 H 0.22426 0.60765 0.49035
 H123 H 0.28607 0.61084 0.50935
 H124 H 0.24530 0.65537 0.46966
 H125 H 0.19567 0.63439 0.54754
 H126 H 0.31281 0.63674 0.45049
 C127 C 0.75897 0.84572 0.52716
 C128 C 0.76218 0.86049 0.50983
 C129 C 0.78261 0.87312 0.50797
 C130 C 0.79989 0.87163 0.52370
 C131 C 0.79607 0.85639 0.54100
 C132 C 0.77586 0.84336 0.54281
 C133 C 0.74395 0.86258 0.49364
 C134 C 0.72363 0.87450 0.49813
 C135 C 0.70621 0.87642 0.48278
 C136 C 0.70926 0.86568 0.46322
 C137 C 0.72926 0.85365 0.45860
 C138 C 0.74663 0.85211 0.47385
 H139 H 0.74336 0.83572 0.52818
 H140 H 0.78419 0.88495 0.49473
 H141 H 0.72164 0.88262 0.51336
 H142 H 0.76219 0.84292 0.47030
 H143 H 0.80897 0.85409 0.55305
 H144 H 0.69581 0.86637 0.45143
 C145 C -0.02911 0.26174 0.34425
 C146 C -0.00832 0.25064 0.34808
 C147 C -0.00804 0.22908 0.35827
 C148 C -0.02825 0.21858 0.36521
 C149 C -0.04892 0.23004 0.36139
 C150 C -0.04974 0.25162 0.35083
 C151 C 0.01340 0.26278 0.34427
 C152 C 0.01598 0.28560 0.35124
 C153 C 0.03750 0.29608 0.35193
 C154 C 0.05643 0.28379 0.34511
 C155 C 0.05406 0.26096 0.33808
 C156 C 0.03251 0.25063 0.33717
 H157 H -0.02887 0.27876 0.33695
 H158 H 0.00825 0.22150 0.36238
 H159 H 0.00157 0.29448 0.35803
 H160 H 0.03085 0.23277 0.33219
 H161 H -0.06458 0.22102 0.36504
 H162 H 0.07317 0.29171 0.34598
 C163 C -0.03015 0.74786 0.16568
 C164 C -0.00750 0.75153 0.15967
 C165 C -0.00197 0.77049 0.14673
 C166 C -0.01896 0.78552 0.13957
 C167 C -0.04149 0.78186 0.14577
 C168 C -0.04757 0.76287 0.15868
 C169 C 0.00999 0.73405 0.16470
 C170 C 0.00566 0.71069 0.16015
 C171 C 0.02329 0.69416 0.16075
 C172 C 0.04488 0.70141 0.16787
 C173 C 0.04948 0.72481 0.17185
 C174 C 0.03191 0.74101 0.17067
 H175 H -0.03408 0.73249 0.17487
 H176 H 0.01534 0.77285 0.14128
 H177 H -0.01086 0.70629 0.15364
 H178 H 0.03556 0.75922 0.17317
 H179 H -0.05407 0.79456 0.14097
 H180 H 0.05861 0.68908 0.16971
 C181 C 0.46685 0.24164 0.65871
 C182 C 0.48757 0.24942 0.65041
 C183 C 0.48860 0.27075 0.63979
 C184 C 0.46903 0.28423 0.63722
 C185 C 0.44843 0.27644 0.64561
 C186 C 0.44721 0.25513 0.65634
 C187 C 0.50782 0.23458 0.65125
 C188 C 0.50622 0.21159 0.64453
 C189 C 0.52582 0.19807 0.64265
 C190 C 0.54695 0.20741 0.64832
 C191 C 0.54878 0.23047 0.65487
 C192 C 0.52913 0.24398 0.65646
 H193 H 0.46599 0.22502 0.66678
 H194 H 0.50443 0.27638 0.63266
 H195 H 0.48993 0.20480 0.63928
 H196 H 0.53044 0.26196 0.66116
 H197 H 0.43342 0.28721 0.64406
 H198 H 0.56206 0.19677 0.64723
 C199 C 0.46730 0.76500 0.84248
 C200 C 0.48685 0.75336 0.84939
 C201 C 0.48479 0.73217 0.86004
 C202 C 0.46333 0.72242 0.86431
 C203 C 0.44386 0.73435 0.85733
 C204 C 0.44574 0.75546 0.84622
 C205 C 0.50946 0.76414 0.84752
 C206 C 0.51275 0.78679 0.85472
 C207 C 0.53475 0.79601 0.85666
 C208 C 0.55337 0.78266 0.85072
 C209 C 0.55029 0.75993 0.84366
 C210 C 0.52831 0.75082 0.84169
 H211 H 0.46890 0.78147 0.83428
 H212 H 0.50009 0.72427 0.86643
 H213 H 0.49833 0.79650 0.86047
 H214 H 0.52594 0.73309 0.83655
 H215 H 0.42722 0.72656 0.85933
 H216 H 0.57040 0.78981 0.85208
 C217 C -0.29026 0.65562 1.00037
 C218 C -0.26917 0.66425 1.00743
 C219 C -0.26793 0.67767 1.02562
 C220 C -0.28778 0.68420 1.03611
 C221 C -0.30897 0.67649 1.02820
 C222 C -0.31073 0.66095 1.01097
 C223 C -0.24859 0.66140 0.99453
 C224 C -0.24801 0.67185 0.97453
 C225 C -0.22838 0.67109 0.96186
 C226 C -0.20952 0.65839 0.96977
 C227 C -0.21009 0.64732 0.98966
 C228 C -0.22949 0.64943 1.00225
 H229 H -0.29004 0.64435 0.98687
 H230 H -0.25141 0.68344 1.03120
 H231 H -0.26341 0.68019 0.96895
 H232 H -0.23006 0.64116 1.01766
 H233 H -0.32403 0.68354 1.03529
 H234 H -0.19379 0.65754 0.96107
 C235 C -0.27794 0.34414 0.50150
 C236 C -0.25732 0.33558 0.49350
 C237 C -0.25668 0.32632 0.47318
 C238 C -0.27668 0.32373 0.46129
 C239 C -0.29740 0.33113 0.47006
 C240 C -0.29857 0.34295 0.48968
 C241 C -0.23657 0.33451 0.50689
 C242 C -0.23732 0.32247 0.52623
 C243 C -0.21730 0.31814 0.53780
 C244 C -0.19649 0.32597 0.52940
 C245 C -0.19549 0.34057 0.51140
 C246 C -0.21584 0.34413 0.49988
 H247 H -0.27714 0.35162 0.51700
 H248 H -0.24055 0.32061 0.46694
 H249 H -0.25357 0.31629 0.53198
 H250 H -0.21599 0.35456 0.48564
 H251 H -0.31243 0.32688 0.46120
 H252 H -0.18095 0.32066 0.53719
 C253 C 0.22998 -0.14839 -0.00107
 C254 C 0.24962 -0.15951 -0.00828
 C255 C 0.24997 -0.16879 -0.02868
 C256 C 0.23087 -0.16742 -0.04231
 C257 C 0.21150 -0.15543 -0.03482
 C258 C 0.21100 -0.14577 -0.01445
 C259 C 0.27009 -0.16192 0.00532
 C260 C 0.26912 -0.17552 0.02376
 C261 C 0.28904 -0.18074 0.03549
 C262 C 0.30993 -0.17219 0.02742
 C263 C 0.31106 -0.15627 0.01039
 C264 C 0.29080 -0.15172 -0.00087
 H265 H 0.22983 -0.14098 0.01459
 H266 H 0.26570 -0.17654 -0.03385
 H267 H 0.25259 -0.18169 0.02865
 H268 H 0.29074 -0.14019 -0.01440
 H269 H 0.19617 -0.15416 -0.04428
 H270 H 0.32570 -0.17852 0.03401
 C271 C 0.21731 1.15129 0.50417
 C272 C 0.23856 1.15998 0.51079
 C273 C 0.24040 1.17229 0.52967
 C274 C 0.22091 1.17722 0.54143
 C275 C 0.19953 1.16996 0.53373
 C276 C 0.19739 1.15578 0.51572
 C277 C 0.25869 1.15697 0.49734
 C278 C 0.25870 1.16703 0.47716
 C279 C 0.27732 1.16445 0.46340
 C280 C 0.29589 1.15088 0.47069
 C281 C 0.29614 1.14090 0.49105
 C282 C 0.27762 1.14436 0.50446
 H283 H 0.21678 1.14072 0.49017
 H284 H 0.25701 1.17798 0.53511
 H285 H 0.24435 1.17784 0.47295
 H286 H 0.27750 1.13648 0.52005
 H287 H 0.18460 1.17547 0.54215
 H288 H 0.31006 1.14717 0.46045
 C289 C 0.09737 0.49812 0.22395
 C290 C 0.11350 0.49943 0.24034
 C291 C 0.12775 0.51901 0.24174
 C292 C 0.12629 0.53702 0.22658
 C293 C 0.11034 0.53510 0.21002
 C294 C 0.09554 0.51591 0.20865
 C295 C 0.11394 0.48113 0.25692
 C296 C 0.12768 0.46129 0.25492
 C297 C 0.12713 0.44347 0.27037
 C298 C 0.11225 0.44580 0.28758
 C299 C 0.09857 0.46556 0.28984
 C300 C 0.09961 0.48318 0.27443
 H301 H 0.08584 0.48343 0.22352
 H302 H 0.13984 0.52025 0.25468
 H303 H 0.13888 0.45992 0.24148
 H304 H 0.08892 0.49836 0.27581
 H305 H 0.10926 0.54884 0.19833
 H306 H 0.11137 0.43220 0.29944
 C307 C -0.08787 1.00297 0.22246
 C308 C -0.10380 1.00182 0.23889
 C309 C -0.11858 0.98265 0.24042
 C310 C -0.11784 0.96449 0.22554
 C311 C -0.10099 0.96573 0.20975
 C312 C -0.08585 0.98469 0.20790
 C313 C -0.10421 1.02018 0.25518
 C314 C -0.11727 1.04039 0.25224
 C315 C -0.11789 1.05795 0.26784
 C316 C -0.10443 1.05458 0.28625
 C317 C -0.09120 1.03453 0.28930
 C318 C -0.09140 1.01733 0.27376
 H319 H -0.07628 1.01760 0.22188
 H320 H -0.13114 0.98263 0.25283
 H321 H -0.12761 1.04165 0.23808
 H322 H -0.08123 1.00183 0.27592
 H323 H -0.09967 0.95176 0.19860
 H324 H -0.10354 1.06780 0.29823
 C325 C 0.40374 0.49766 -0.27680
 C326 C 0.38826 0.49650 -0.26000
 C327 C 0.37427 0.47683 -0.25762
 C328 C 0.37563 0.45829 -0.27188
 C329 C 0.39181 0.45944 -0.28812
 C330 C 0.40606 0.47900 -0.29099
 C331 C 0.38760 0.51534 -0.24420
 C332 C 0.37498 0.53574 -0.24808
 C333 C 0.37324 0.55320 -0.23248
 C334 C 0.38524 0.54970 -0.21335
 C335 C 0.39799 0.52963 -0.20942
 C336 C 0.39919 0.51249 -0.22489
 H337 H 0.41478 0.51269 -0.27791
 H338 H 0.36214 0.47619 -0.24483
 H339 H 0.36569 0.53719 -0.26283
 H340 H 0.40869 0.49674 -0.22176
 H341 H 0.39261 0.44515 -0.29904
 H342 H 0.38559 0.56298 -0.20139
 C343 C 0.60049 0.00236 -0.27635
 C344 C 0.61421 0.00550 -0.25841
 C345 C 0.62597 0.02649 -0.25574
 C346 C 0.62434 0.04434 -0.27099
 C347 C 0.61021 0.04098 -0.28880
 C348 C 0.59793 0.02006 -0.29181
 C349 C 0.61464 -0.01264 -0.24167
 C350 C 0.62580 -0.03388 -0.24477
 C351 C 0.62528 -0.05146 -0.22912
 C352 C 0.61283 -0.04755 -0.21056
 C353 C 0.60135 -0.02650 -0.20735
 C354 C 0.60261 -0.00906 -0.22294
 H355 H 0.59071 -0.01352 -0.27726
 H356 H 0.63656 0.02876 -0.24184
 H357 H 0.63514 -0.03650 -0.25924
 H358 H 0.59356 0.00710 -0.22089
 H359 H 0.60930 0.05472 -0.30047
 H360 H 0.61198 -0.06098 -0.19855
 C361 C -0.00994 0.22253 0.90341
 C362 C -0.02171 0.24277 0.89776
 C363 C -0.04551 0.24253 0.89684
 C364 C -0.05766 0.22203 0.90093
 C365 C -0.04580 0.20210 0.90695
 C366 C -0.02199 0.20213 0.90759
 C367 C -0.00924 0.26345 0.89052
 C368 C 0.00849 0.26123 0.87607
 C369 C 0.02063 0.28076 0.86925
 C370 C 0.01491 0.30262 0.87697
 C371 C -0.00292 0.30509 0.89136
 C372 C -0.01523 0.28542 0.89777
 H373 H 0.00852 0.22237 0.90363
 H374 H -0.05438 0.25775 0.89100
 H375 H 0.01273 0.24428 0.87000
 H376 H -0.02914 0.28706 0.90880
 H377 H -0.05503 0.18611 0.90991
 H378 H 0.02521 0.31751 0.87264
 C379 C 0.50901 0.22216 0.09291
 C380 C 0.51770 0.24371 0.09913
 C381 C 0.54111 0.24631 0.10272
 C382 C 0.55584 0.22748 0.10043
 C383 C 0.54710 0.20627 0.09354
 C384 C 0.52364 0.20329 0.09044
 C385 C 0.50224 0.26282 0.10427
 C386 C 0.48321 0.25865 0.11697
 C387 C 0.46934 0.27700 0.12315
 C388 C 0.47427 0.29952 0.11619
 C389 C 0.49327 0.30394 0.10352
 C390 C 0.50729 0.28548 0.09770
 H391 H 0.49081 0.21986 0.09082
 H392 H 0.54754 0.26248 0.10906
 H393 H 0.47975 0.24128 0.12278
 H394 H 0.52223 0.28871 0.08817
 H395 H 0.55849 0.19171 0.09161
 H396 H 0.46296 0.31355 0.12034
 C397 C -0.01293 0.71782 0.59791
 C398 C -0.00558 0.73930 0.60559
 C399 C 0.01433 0.74057 0.61778
 C400 C 0.02702 0.72063 0.62216
 C401 C 0.01980 0.69932 0.61416
 C402 C -0.00020 0.69773 0.60202
 C403 C -0.01931 0.76028 0.60208
 C404 C -0.04262 0.75974 0.60648
 C405 C -0.05554 0.78027 0.60662
 C406 C -0.04469 0.80113 0.60097
 C407 C -0.02140 0.80179 0.59648
 C408 C -0.00878 0.78133 0.59683
 H409 H -0.02850 0.71682 0.58871
 H410 H 0.01961 0.75702 0.62440
 H411 H -0.04987 0.74353 0.61201
 H412 H 0.00934 0.78191 0.59373
 H413 H 0.03028 0.68413 0.61681
 H414 H -0.05430 0.81709 0.59986
 C415 C 0.50597 0.71475 0.39415
 C416 C 0.49102 0.73225 0.38736
 C417 C 0.46867 0.72655 0.38169
 C418 C 0.46133 0.70346 0.38200
 C419 C 0.47639 0.68606 0.38830
 C420 C 0.49870 0.69164 0.39446
 C421 C 0.49917 0.75607 0.38390
 C422 C 0.51930 0.75977 0.37270
 C423 C 0.52656 0.78227 0.36793
 C424 C 0.51373 0.80115 0.37449
 C425 C 0.49370 0.79775 0.38606
 C426 C 0.48632 0.77509 0.39052
 H427 H 0.52330 0.71902 0.39870
 H428 H 0.45742 0.73995 0.37565
 H429 H 0.52903 0.74511 0.36717
 H430 H 0.47083 0.77224 0.39938
 H431 H 0.47069 0.66816 0.38855
 H432 H 0.52014 0.81852 0.37157
 Zr433 Zr 0.02545 -0.03013 1.03307
 O434 O 0.05169 -0.01813 1.05330
 O435 O 0.01822 -0.06241 1.04659
 O436 O 0.01300 -0.02497 1.06410
 O437 O 0.06028 -0.04941 0.99310
 O438 O -0.01703 -0.00031 1.05942
 O439 O 0.05643 -0.04900 1.02890
 O440 O -0.01305 -0.07457 1.02823
 O441 O -0.01022 -0.03054 1.03096
 O442 O 0.01705 -0.05015 1.00673
 O443 O 0.01523 0.00478 1.03049
 O444 O 0.04167 -0.01394 1.00724
 Zr445 Zr -0.01390 0.00081 0.97455
 Zr446 Zr -0.02027 0.00403 1.02662
 Zr447 Zr 0.03130 -0.03320 0.98090
 Zr448 Zr -0.01827 -0.04961 1.00415
 O449 O 0.06105 -0.02086 0.96574
 O450 O -0.04944 -0.05361 1.02051
 O451 O -0.00412 -0.03435 0.97698
 O452 O -0.02993 -0.01552 1.00033
 O453 O -0.00568 0.02117 1.00080
 O454 O 0.02161 0.00115 0.97696
 C455 C 0.00201 -0.07687 1.04297
 C456 C 0.06747 -0.05392 1.01187
 C457 C -0.00361 -0.01257 1.07107
 O458 O -0.05185 -0.00749 1.03877
 O459 O -0.04686 0.02472 1.01414
 O460 O -0.04272 0.02243 0.97847
 C461 C -0.05312 0.02966 0.99509
 O462 O 0.05734 0.02455 1.02527
 Zr463 Zr 0.02976 0.02011 1.00377
 O464 O -0.00540 0.03278 0.96072
 O465 O -0.01834 0.03704 1.04086
 O466 O 0.02341 0.05107 1.02054
 O467 O 0.06046 0.02574 0.98702
 O468 O 0.02365 0.04630 0.98132
 C469 C 0.00960 0.04811 0.96577
 O470 O -0.04188 -0.00990 0.95571
 O471 O 0.03141 -0.06744 0.96911
 O472 O -0.00412 -0.00722 0.94324
 O473 O 0.02512 -0.03258 0.94834
 O474 O -0.01218 -0.08159 0.98894
 O475 O -0.04406 -0.05599 0.98120
 C476 C 0.01124 -0.02121 0.93642
 H477 H 0.02293 -0.06619 1.00778
 H478 H -0.04667 -0.01574 0.99844
 H479 H 0.02911 0.00782 0.96434
 H480 H 0.01976 0.01358 1.04321
 H481 H -0.05318 -0.07037 1.02082
 H482 H -0.05757 0.00498 1.04799
 H483 H -0.03242 0.03889 1.04921
 H484 H 0.03370 0.06320 1.01485
 H485 H -0.02253 -0.09328 0.99529
 H486 H 0.04534 -0.06899 0.96050
 H487 H 0.06657 -0.03352 0.95662
 H488 H 0.06400 0.04254 0.98763
 H489 H -0.05252 -0.07027 0.98507
 H490 H -0.04444 0.00233 0.94485
 H491 H 0.05454 -0.03061 1.06385
 H492 H 0.06365 0.04041 1.02371
 Zr493 Zr 0.52223 0.46733 0.53657
 O494 O 0.54853 0.47562 0.55826
 O495 O 0.51005 0.43610 0.54883
 O496 O 0.50842 0.47258 0.56701
 O497 O 0.55618 0.44363 0.49814
 O498 O 0.48110 0.50012 0.56153
 O499 O 0.55033 0.44414 0.53370
 O500 O 0.47893 0.42812 0.52842
 O501 O 0.48698 0.47078 0.53230
 O502 O 0.51360 0.44929 0.50914
 O503 O 0.51587 0.50322 0.53482
 O504 O 0.54197 0.48261 0.51248
 Zr505 Zr 0.49053 0.50436 0.47703
 Zr506 Zr 0.48090 0.50630 0.52881
 Zr507 Zr 0.53154 0.46547 0.48495
 Zr508 Zr 0.47888 0.45371 0.50439
 O509 O 0.56426 0.47454 0.47367
 O510 O 0.44597 0.45273 0.51794
 O511 O 0.49656 0.46826 0.47869
 O512 O 0.47118 0.48892 0.50126
 O513 O 0.49881 0.52283 0.50447
 O514 O 0.52564 0.50081 0.48181
 C515 C 0.49239 0.42397 0.54414
 C516 C 0.56086 0.43703 0.51708
 C517 C 0.49243 0.48608 0.57346
 O518 O 0.44754 0.49781 0.53873
 O519 O 0.45736 0.52975 0.51564
 O520 O 0.46290 0.52798 0.48010
 C521 C 0.45224 0.53545 0.49652
 O522 O 0.55986 0.51876 0.53290
 Zr523 Zr 0.53368 0.51796 0.50958
 O524 O 0.50332 0.53561 0.46495
 O525 O 0.48506 0.53837 0.54436
 O526 O 0.52889 0.54879 0.52699
 O527 O 0.56602 0.52107 0.49511
 O528 O 0.53209 0.54549 0.48762
 C529 C 0.51960 0.54893 0.47116
 O530 O 0.46352 0.49731 0.45570
 O531 O 0.52800 0.43261 0.47064
 O532 O 0.50246 0.49682 0.44615
 O533 O 0.52950 0.46929 0.45216
 O534 O 0.48289 0.42138 0.48915
 O535 O 0.45495 0.45096 0.47921
 C536 C 0.51793 0.48259 0.43981
 H537 H 0.51732 0.43258 0.51000
 H538 H 0.45466 0.49044 0.49839
 H539 H 0.53490 0.50713 0.47010
 H540 H 0.52030 0.51097 0.54813
 H541 H 0.44042 0.43650 0.51725
 H542 H 0.44247 0.51045 0.54810
 H543 H 0.47072 0.54130 0.55202
 H544 H 0.54066 0.56006 0.52240
 H545 H 0.47073 0.41092 0.49441
 H546 H 0.54239 0.42955 0.46308
 H547 H 0.56922 0.46184 0.46433
 H548 H 0.57118 0.53735 0.49673
 H549 H 0.44482 0.43749 0.48177
 H550 H 0.46309 0.51024 0.44528
 H551 H 0.54923 0.46273 0.56869
 H552 H 0.56751 0.53408 0.53255
 Zr553 Zr 0.47761 1.01817 0.53617
 O554 O 0.45213 1.00628 0.55711
 O555 O 0.48572 1.05021 0.54904
 O556 O 0.49158 1.01426 0.56700
 O557 O 0.44145 1.03743 0.49670
 O558 O 0.52121 0.98928 0.56243
 O559 O 0.44696 1.03752 0.53238
 O560 O 0.51751 1.06103 0.53101
 O561 O 0.51310 1.01830 0.53331
 O562 O 0.48516 1.03804 0.50933
 O563 O 0.48737 0.98317 0.53441
 O564 O 0.46030 1.00195 0.51102
 Zr565 Zr 0.51450 0.98644 0.47781
 Zr566 Zr 0.52264 0.98370 0.52980
 Zr567 Zr 0.46984 1.02099 0.48409
 Zr568 Zr 0.52035 1.03715 0.50606
 O569 O 0.43947 1.00888 0.46964
 O570 O 0.55287 1.04102 0.52040
 O571 O 0.50512 1.02174 0.47949
 O572 O 0.53154 1.00291 0.50290
 O573 O 0.50710 0.96635 0.50463
 O574 O 0.47909 0.98648 0.48091
 C575 C 0.50295 1.06348 0.54595
 C576 C 0.43526 1.04234 0.51554
 C577 C 0.50865 1.00226 0.57391
 O578 O 0.55497 0.99482 0.54076
 O579 O 0.54825 0.96252 0.51744
 O580 O 0.54361 0.96507 0.48174
 C581 C 0.55422 0.95783 0.49846
 O582 O 0.44500 0.96380 0.53035
 Zr583 Zr 0.47182 0.96772 0.50824
 O584 O 0.50513 0.95455 0.46466
 O585 O 0.52080 0.95113 0.54530
 O586 O 0.47872 0.93691 0.52559
 O587 O 0.44046 0.96195 0.49230
 O588 O 0.47687 0.94126 0.48620
 C589 C 0.49003 0.93951 0.47019
 O590 O 0.54169 0.99675 0.45802
 O591 O 0.46960 1.05519 0.47172
 O592 O 0.50328 0.99392 0.44662
 O593 O 0.47480 1.02016 0.45134
 O594 O 0.51338 1.06964 0.49155
 O595 O 0.54442 1.04335 0.48174
 C596 C 0.48792 1.00803 0.43963
 H597 H 0.47954 1.05416 0.51035
 H598 H 0.54820 1.00299 0.50068
 H599 H 0.47101 0.97977 0.46862
 H600 H 0.48331 0.97465 0.54750
 H601 H 0.55671 1.05777 0.52018
 H602 H 0.56087 0.98248 0.55029
 H603 H 0.53519 0.94928 0.55339
 H604 H 0.46815 0.92477 0.52038
 H605 H 0.52417 1.08105 0.49767
 H606 H 0.45531 1.05688 0.46347
 H607 H 0.43362 1.02166 0.46058
 H608 H 0.43684 0.94519 0.49352
 H609 H 0.55268 1.05802 0.48455
 H610 H 0.54368 0.98439 0.44739
 H611 H 0.44979 1.01876 0.56755
 H612 H 0.43875 0.94787 0.52953
 Zr613 Zr -0.02533 0.53064 1.03723
 O614 O -0.05206 0.51725 1.05599
 O615 O -0.01879 0.56205 1.05200
 O616 O -0.01362 0.52480 1.06865
 O617 O -0.05886 0.55174 0.99652
 O618 O 0.01669 0.50054 1.06460
 O619 O -0.05613 0.54948 1.03242
 O620 O 0.01509 0.57297 1.03762
 O621 O 0.01031 0.53133 1.03655
 O622 O -0.01620 0.55212 1.01185
 O623 O -0.01486 0.49595 1.03444
 O624 O -0.04055 0.51570 1.01033
 Zr625 Zr 0.01615 0.50276 0.97984
 Zr626 Zr 0.02069 0.49718 1.03197
 Zr627 Zr -0.02940 0.53630 0.98492
 Zr628 Zr 0.01919 0.55184 1.01076
 O629 O -0.05865 0.52479 0.96824
 O630 O 0.05115 0.55533 1.02623
 O631 O 0.00613 0.53780 0.98256
 O632 O 0.03119 0.51799 1.00663
 O633 O 0.00714 0.48120 1.00524
 O634 O -0.01941 0.50208 0.98079
 C635 C -0.00081 0.57469 1.05146
 C636 C -0.06664 0.55519 1.01513
 C637 C 0.00304 0.51244 1.07594
 O638 O 0.05194 0.50823 1.04541
 O639 O 0.04736 0.47699 1.02016
 O640 O 0.04512 0.48133 0.98443
 C641 C 0.05456 0.47312 1.00139
 O642 O -0.05711 0.47698 1.02647
 Zr643 Zr -0.02833 0.48186 1.00675
 O644 O 0.00899 0.47111 0.96518
 O645 O 0.01842 0.46370 1.04570
 O646 O -0.02299 0.45047 1.02371
 O647 O -0.05783 0.47603 0.98802
 O648 O -0.02017 0.45627 0.98476
 C649 C -0.00554 0.45519 0.96982
 O650 O 0.04432 0.51505 0.96228
 O651 O -0.02895 0.57108 0.97403
 O652 O 0.00655 0.51104 0.94839
 O653 O -0.02246 0.53683 0.95242
 O654 O 0.01235 0.58546 0.99854
 O655 O 0.04413 0.56022 0.98776
 C656 C -0.00869 0.52507 0.94104
 H657 H -0.02216 0.56806 1.01336
 H658 H 0.04798 0.51836 1.00538
 H659 H -0.02644 0.49569 0.96783
 H660 H -0.01973 0.48663 1.04682
 H661 H 0.05459 0.57212 1.02718
 H662 H 0.05744 0.49542 1.05462
 H663 H 0.03225 0.46159 1.05456
 H664 H -0.03296 0.43851 1.01730
 H665 H 0.02256 0.59636 1.00607
 H666 H -0.04266 0.57314 0.96502
 H667 H -0.06405 0.53799 0.95946
 H668 H -0.06104 0.45915 0.98836
 H669 H 0.05170 0.57501 0.99150
 H670 H 0.04748 0.50333 0.95131
 H671 H -0.05534 0.52907 1.06684
 H672 H -0.06334 0.46118 1.02444
 Zr673 Zr -0.01347 0.46323 0.46596
 O674 O -0.03972 0.47252 0.44451
 O675 O -0.00232 0.43204 0.45374
 O676 O 0.00035 0.46834 0.43540
 O677 O -0.04793 0.44008 0.50459
 O678 O 0.02907 0.49447 0.44067
 O679 O -0.04199 0.44033 0.46904
 O680 O 0.02962 0.42380 0.47295
 O681 O 0.02191 0.46562 0.47010
 O682 O -0.00529 0.44462 0.49342
 O683 O -0.00571 0.49884 0.46735
 O684 O -0.03262 0.47875 0.48998
 Zr685 Zr 0.01973 0.49866 0.52512
 Zr686 Zr 0.02939 0.50082 0.47330
 Zr687 Zr -0.02259 0.46112 0.51758
 Zr688 Zr 0.02959 0.44792 0.49797
 O689 O -0.05490 0.47107 0.52894
 O690 O 0.06292 0.44632 0.48540
 O691 O 0.01249 0.46276 0.52365
 O692 O 0.03853 0.48288 0.50096
 O693 O 0.01204 0.51752 0.49751
 O694 O -0.01549 0.49628 0.52050
 C695 C 0.01586 0.42037 0.45733
 C696 C -0.05263 0.43337 0.48579
 C697 C 0.01709 0.48103 0.42883
 O698 O 0.06247 0.49150 0.46344
 O699 O 0.05382 0.52345 0.48627
 O700 O 0.04807 0.52141 0.52180
 C701 C 0.05905 0.52876 0.50540
 O702 O -0.04960 0.51493 0.46964
 Zr703 Zr -0.02298 0.51375 0.49252
 O704 O 0.00873 0.53069 0.53660
 O705 O 0.02622 0.53309 0.45748
 O706 O -0.01787 0.54430 0.47428
 O707 O -0.05475 0.51828 0.50765
 O708 O -0.01941 0.54145 0.51355
 C709 C -0.00651 0.54487 0.52970
 O710 O 0.04647 0.49052 0.54647
 O711 O -0.02017 0.42803 0.53210
 O712 O 0.00769 0.49123 0.55612
 O713 O -0.02020 0.46447 0.55033
 O714 O 0.02424 0.41500 0.51227
 O715 O 0.05267 0.44380 0.52370
 C716 C -0.00809 0.47722 0.56259
 H717 H -0.00949 0.42802 0.49255
 H718 H 0.05509 0.48388 0.50383
 H719 H -0.02434 0.50296 0.53221
 H720 H -0.00990 0.50681 0.45399
 H721 H 0.06786 0.42991 0.48612
 H722 H 0.06793 0.50403 0.45392
 H723 H 0.04060 0.53560 0.44967
 H724 H -0.02931 0.55581 0.47879
 H725 H 0.03610 0.40449 0.50680
 H726 H -0.03460 0.42536 0.53978
 H727 H -0.06029 0.45840 0.53833
 H728 H -0.05919 0.53474 0.50578
 H729 H 0.06214 0.42987 0.52146
 H730 H 0.04751 0.50339 0.55673
 H731 H -0.04090 0.45981 0.43410
 H732 H -0.05706 0.53029 0.46998
 Zr733 Zr 0.49335 -0.03213 -0.03061
 O734 O 0.46637 -0.02219 -0.05100
 O735 O 0.50509 -0.06196 -0.04499
 O736 O 0.50634 -0.02446 -0.06105
 O737 O 0.46084 -0.05925 0.00744
 O738 O 0.53395 0.00266 -0.05485
 O739 O 0.46539 -0.05588 -0.02819
 O740 O 0.53761 -0.07067 -0.02680
 O741 O 0.52872 -0.02848 -0.02723
 O742 O 0.50316 -0.05241 -0.00463
 O743 O 0.49969 0.00358 -0.02707
 O744 O 0.47444 -0.01941 -0.00509
 Zr745 Zr 0.52708 0.00019 0.02986
 Zr746 Zr 0.53487 0.00669 -0.02193
 Zr747 Zr 0.48612 -0.03861 0.02102
 Zr748 Zr 0.53803 -0.04788 -0.00078
 O749 O 0.45412 -0.03088 0.03438
 O750 O 0.57064 -0.04704 -0.01495
 O751 O 0.52128 -0.03578 0.02622
 O752 O 0.54566 -0.01288 0.00425
 O753 O 0.51764 0.02070 0.00375
 O754 O 0.49185 -0.00351 0.02612
 C755 C 0.52344 -0.07360 -0.04219
 C756 C 0.45545 -0.06438 -0.01164
 C757 C 0.52240 -0.01064 -0.06717
 O758 O 0.56804 -0.00016 -0.03313
 O759 O 0.55874 0.02941 -0.00813
 O760 O 0.55429 0.02449 0.02734
 C761 C 0.56438 0.03357 0.01115
 O762 O 0.45535 0.01752 -0.02265
 Zr763 Zr 0.48264 0.01566 -0.00050
 O764 O 0.51520 0.03082 0.04352
 O765 O 0.52972 0.03982 -0.03565
 O766 O 0.48590 0.04784 -0.01664
 O767 O 0.45115 0.01721 0.01562
 O768 O 0.48545 0.04159 0.02237
 C769 C 0.49901 0.04467 0.03810
 O770 O 0.55490 -0.00830 0.04987
 O771 O 0.49000 -0.07280 0.03288
 O772 O 0.51656 -0.01023 0.06063
 O773 O 0.49021 -0.03829 0.05375
 O774 O 0.53455 -0.08171 0.01217
 O775 O 0.56261 -0.05279 0.02361
 C776 C 0.50220 -0.02601 0.06649
 H777 H 0.49946 -0.06904 -0.00641
 H778 H 0.56225 -0.01133 0.00672
 H779 H 0.48319 0.00176 0.03854
 H780 H 0.49477 0.01234 -0.03979
 H781 H 0.57627 -0.06320 -0.01548
 H782 H 0.57263 0.01331 -0.04196
 H783 H 0.54375 0.04364 -0.04357
 H784 H 0.47414 0.05840 -0.01106
 H785 H 0.54649 -0.09145 0.00576
 H786 H 0.47600 -0.07661 0.04085
 H787 H 0.44966 -0.04447 0.04311
 H788 H 0.44586 0.03351 0.01502
 H789 H 0.57260 -0.06596 0.02001
 H790 H 0.55574 0.00375 0.06095
 H791 H 0.46532 -0.03417 -0.06212
 H792 H 0.44725 0.03241 -0.02102
 Zr793 Zr 0.50328 0.54251 -0.02864
 O794 O 0.52863 0.53237 -0.05023
 O795 O 0.49249 0.57388 -0.04142
 O796 O 0.48859 0.53715 -0.05902
 O797 O 0.53929 0.56552 0.00912
 O798 O 0.45849 0.51319 -0.05202
 O799 O 0.53254 0.56447 -0.02637
 O800 O 0.46201 0.58397 -0.02144
 O801 O 0.46800 0.54095 -0.02399
 O802 O 0.49617 0.56169 -0.00157
 O803 O 0.49501 0.50709 -0.02607
 O804 O 0.52278 0.52713 -0.00427
 Zr805 Zr 0.47110 0.50867 0.03188
 Zr806 Zr 0.46008 0.50594 -0.01964
 Zr807 Zr 0.51378 0.54537 0.02294
 Zr808 Zr 0.46134 0.55918 0.00342
 O809 O 0.54604 0.53490 0.03458
 O810 O 0.42818 0.56103 -0.00994
 O811 O 0.47884 0.54441 0.02932
 O812 O 0.45186 0.52439 0.00755
 O813 O 0.47784 0.48933 0.00477
 O814 O 0.50624 0.51038 0.02699
 C815 C 0.47548 0.58692 -0.03724
 C816 C 0.54382 0.57148 -0.00996
 C817 C 0.47046 0.52588 -0.06451
 O818 O 0.42633 0.51473 -0.02845
 O819 O 0.43666 0.48290 -0.00590
 O820 O 0.44307 0.48547 0.02951
 C821 C 0.43209 0.47752 0.01335
 O822 O 0.53883 0.49039 -0.02360
 Zr823 Zr 0.51275 0.49236 -0.00059
 O824 O 0.48191 0.47679 0.04438
 O825 O 0.46272 0.47403 -0.03565
 O826 O 0.50682 0.46163 -0.01798
 O827 O 0.54474 0.48753 0.01453
 O828 O 0.50898 0.46500 0.02117
 C829 C 0.49646 0.46206 0.03755
 O830 O 0.44462 0.51761 0.05279
 O831 O 0.51259 0.57888 0.03628
 O832 O 0.48358 0.51664 0.06253
 O833 O 0.51160 0.54301 0.05582
 O834 O 0.46743 0.59175 0.01773
 O835 O 0.43823 0.56397 0.02867
 C836 C 0.49934 0.53086 0.06850
 H837 H 0.50073 0.57817 -0.00285
 H838 H 0.43538 0.52349 0.01062
 H839 H 0.51520 0.50380 0.03888
 H840 H 0.49862 0.49888 -0.03929
 H841 H 0.42344 0.57750 -0.00976
 H842 H 0.42062 0.50229 -0.03783
 H843 H 0.44797 0.47152 -0.04296
 H844 H 0.51819 0.45002 -0.01323
 H845 H 0.45576 0.60262 0.01222
 H846 H 0.52720 0.58129 0.04388
 H847 H 0.55180 0.54760 0.04364
 H848 H 0.54879 0.47094 0.01318
 H849 H 0.42867 0.57774 0.02570
 H850 H 0.44358 0.50503 0.06352
 H851 H 0.52988 0.54498 -0.06089
 H852 H 0.54617 0.47498 -0.02276
 Zr853 Zr 0.01457 1.03584 0.46961
 O854 O 0.04148 1.02576 0.44967
 O855 O 0.00390 1.06654 0.45554
 O856 O 0.00161 1.02980 0.43883
 O857 O 0.04743 1.06091 0.50846
 O858 O -0.02711 1.00363 0.44397
 O859 O 0.04279 1.05905 0.47273
 O860 O -0.02804 1.07617 0.47368
 O861 O -0.02090 1.03323 0.47225
 O862 O 0.00521 1.05542 0.49577
 O863 O 0.00722 1.00022 0.47240
 O864 O 0.03304 1.02163 0.49520
 Zr865 Zr -0.02021 1.00252 0.52888
 Zr866 Zr -0.02806 0.99805 0.47684
 Zr867 Zr 0.02182 1.04027 0.52143
 Zr868 Zr -0.02978 1.05188 0.49888
 O869 O 0.05367 1.03113 0.53488
 O870 O -0.06205 1.05246 0.48366
 O871 O -0.01344 1.03839 0.52598
 O872 O -0.03840 1.01693 0.50319
 O873 O -0.01133 0.98266 0.50260
 O874 O 0.01510 1.00518 0.52580
 C875 C -0.01367 1.07917 0.45859
 C876 C 0.05276 1.06681 0.48955
 C877 C -0.01497 1.01699 0.43211
 O878 O -0.06113 1.00603 0.46550
 O879 O -0.05226 0.97524 0.49005
 O880 O -0.04742 0.97850 0.52564
 C881 C -0.05766 0.97019 0.50922
 O882 O 0.05112 0.98475 0.47733
 Zr883 Zr 0.02380 0.98663 0.49906
 O884 O -0.00907 0.97144 0.54266
 O885 O -0.02374 0.96547 0.46235
 O886 O 0.01954 0.95519 0.48233
 O887 O 0.05514 0.98333 0.51562
 O888 O 0.01997 0.95989 0.52150
 C889 C 0.00653 0.95710 0.53726
 O890 O -0.04814 1.01106 0.54825
 O891 O 0.01876 1.07402 0.53398
 O892 O -0.00967 1.01164 0.55995
 O893 O 0.01793 1.03875 0.55416
 O894 O -0.02577 1.08497 0.51281
 O895 O -0.05464 1.05641 0.52271
 C896 C 0.00537 1.02644 0.56643
 H897 H 0.00931 1.07202 0.49440
 H898 H -0.05503 1.01567 0.50542
 H899 H 0.02356 0.99923 0.53827
 H900 H 0.01195 0.99183 0.45958
 H901 H -0.06721 1.06880 0.48319
 H902 H -0.06598 0.99305 0.45632
 H903 H -0.03789 0.96236 0.45424
 H904 H 0.03095 0.94405 0.48791
 H905 H -0.03745 1.09529 0.50644
 H906 H 0.03289 1.07717 0.54213
 H907 H 0.05856 1.04426 0.54385
 H908 H 0.05986 0.96687 0.51481
 H909 H -0.06450 1.06972 0.51892
 H910 H -0.04933 0.99876 0.55924
 H911 H 0.04298 1.03806 0.43873
 H912 H 0.05868 0.96949 0.47874
 Zr913 Zr 0.72575 0.28096 0.21405
 O914 O 0.73710 0.30796 0.19388
 O915 O 0.69504 0.27204 0.19978
 O916 O 0.73114 0.26784 0.18318
 O917 O 0.70400 0.31519 0.25353
 O918 O 0.75676 0.23859 0.18834
 O919 O 0.70574 0.31158 0.21774
 O920 O 0.68600 0.23787 0.21601
 O921 O 0.72709 0.24474 0.21632
 O922 O 0.70568 0.27131 0.23985
 O923 O 0.76042 0.27234 0.21719
 O924 O 0.74009 0.29814 0.24021
 Zr925 Zr 0.75654 0.24224 0.27324
 Zr926 Zr 0.76125 0.23627 0.22117
 Zr927 Zr 0.72097 0.28649 0.26608
 Zr928 Zr 0.70798 0.23542 0.24253
 O929 O 0.73091 0.31740 0.28151
 O930 O 0.70616 0.20248 0.22795
 O931 O 0.72156 0.25042 0.27005
 O932 O 0.74193 0.22531 0.24707
 O933 O 0.77672 0.25175 0.24735
 O934 O 0.75508 0.27838 0.27069
 C935 C 0.68328 0.25335 0.20141
 C936 C 0.69991 0.32245 0.23469
 C937 C 0.74381 0.25116 0.17651
 O938 O 0.75212 0.20335 0.20918
 O939 O 0.78262 0.21061 0.23399
 O940 O 0.77928 0.21386 0.26965
 C941 C 0.78727 0.20403 0.25298
 O942 O 0.77749 0.31609 0.22295
 Zr943 Zr 0.77400 0.28772 0.24431
 O944 O 0.78712 0.25249 0.28773
 O945 O 0.79361 0.24018 0.20712
 O946 O 0.80509 0.28274 0.22819
 O947 O 0.77769 0.31918 0.26113
 O948 O 0.79937 0.28275 0.26733
 C949 C 0.80146 0.26859 0.28297
 O950 O 0.74693 0.21326 0.29190
 O951 O 0.68707 0.28448 0.27707
 O952 O 0.74745 0.25201 0.30441
 O953 O 0.72128 0.28050 0.29868
 O954 O 0.67508 0.24079 0.25513
 O955 O 0.70171 0.21005 0.26632
 C956 C 0.73294 0.26713 0.31092
 H957 H 0.68969 0.27645 0.23821
 H958 H 0.74252 0.20827 0.24899
 H959 H 0.76091 0.28639 0.28340
 H960 H 0.76906 0.27732 0.20456
 H961 H 0.68988 0.19794 0.22720
 H962 H 0.76482 0.19820 0.20014
 H963 H 0.79638 0.22591 0.19893
 H964 H 0.81636 0.29379 0.23411
 H965 H 0.66465 0.22969 0.24810
 H966 H 0.68442 0.29858 0.28553
 H967 H 0.71787 0.32238 0.29022
 H968 H 0.79401 0.32360 0.26078
 H969 H 0.68765 0.20133 0.26281
 H970 H 0.75876 0.21132 0.30302
 H971 H 0.72506 0.31022 0.18301
 H972 H 0.79279 0.32312 0.22466
 Zr973 Zr 0.77624 0.72374 0.71624
 O974 O 0.76637 0.69701 0.69537
 O975 O 0.80672 0.73472 0.70294
 O976 O 0.77078 0.73750 0.68548
 O977 O 0.79821 0.68839 0.75548
 O978 O 0.74460 0.76611 0.69047
 O979 O 0.79753 0.69398 0.71980
 O980 O 0.81458 0.76814 0.72051
 O981 O 0.77376 0.75979 0.71928
 O982 O 0.79544 0.73276 0.74287
 O983 O 0.74126 0.73120 0.71838
 O984 O 0.76180 0.70485 0.74142
 Zr985 Zr 0.74307 0.75868 0.77510
 Zr986 Zr 0.73926 0.76705 0.72316
 Zr987 Zr 0.77997 0.71583 0.76816
 Zr988 Zr 0.79201 0.76842 0.74632
 O989 O 0.77059 0.68386 0.78236
 O990 O 0.79325 0.80214 0.73276
 O991 O 0.77830 0.75166 0.77298
 O992 O 0.75772 0.77732 0.74990
 O993 O 0.72369 0.74985 0.74840
 O994 O 0.74553 0.72274 0.77179
 C995 C 0.81792 0.75364 0.70548
 C996 C 0.80327 0.68244 0.73662
 C997 C 0.75788 0.75414 0.67877
 O998 O 0.74777 0.80068 0.71210
 O999 O 0.71695 0.79162 0.73591
 O1000 O 0.72009 0.78686 0.77156
 C1001 C 0.71210 0.79728 0.75496
 O1002 O 0.72559 0.68660 0.72254
 Zr1003 Zr 0.72750 0.71412 0.74459
 O1004 O 0.71235 0.74698 0.78814
 O1005 O 0.70728 0.76296 0.70806
 O1006 O 0.69679 0.71871 0.72729
 O1007 O 0.72417 0.68195 0.76076
 O1008 O 0.70117 0.71753 0.76652
 C1009 C 0.69839 0.73096 0.78236
 O1010 O 0.75133 0.78683 0.79502
 O1011 O 0.81349 0.71834 0.78044
 O1012 O 0.75171 0.74773 0.80619
 O1013 O 0.77857 0.72003 0.80086
 O1014 O 0.82483 0.76344 0.75974
 O1015 O 0.79682 0.79259 0.77111
 C1016 C 0.76623 0.73255 0.81291
 H1017 H 0.81161 0.72824 0.74160
 H1018 H 0.75664 0.79423 0.75221
 H1019 H 0.73955 0.71402 0.78409
 H1020 H 0.73307 0.72654 0.70537
 H1021 H 0.80938 0.80726 0.73289
 H1022 H 0.73514 0.80584 0.70274
 H1023 H 0.70441 0.77746 0.69999
 H1024 H 0.68573 0.70702 0.73249
 H1025 H 0.83496 0.77540 0.75350
 H1026 H 0.81633 0.70392 0.78863
 H1027 H 0.78356 0.67879 0.79135
 H1028 H 0.70801 0.67707 0.75965
 H1029 H 0.81064 0.80199 0.76837
 H1030 H 0.73914 0.78788 0.80574
 H1031 H 0.77868 0.69559 0.68483
 H1032 H 0.71058 0.67884 0.72366
 Zr1033 Zr 0.21243 0.24179 0.78638
 O1034 O 0.22149 0.21824 0.81079
 O1035 O 0.17971 0.25152 0.79511
 O1036 O 0.21486 0.25873 0.81592
 O1037 O 0.19711 0.19923 0.75066
 O1038 O 0.23663 0.29061 0.80861
 O1039 O 0.19263 0.21092 0.78476
 O1040 O 0.16933 0.27854 0.77044
 O1041 O 0.21205 0.27724 0.77884
 O1042 O 0.19606 0.24507 0.75709
 O1043 O 0.24675 0.25234 0.78618
 O1044 O 0.23117 0.22096 0.76555
 Zr1045 Zr 0.24929 0.27151 0.72659
 Zr1046 Zr 0.24623 0.28727 0.77695
 Zr1047 Zr 0.21544 0.22612 0.73607
 Zr1048 Zr 0.19678 0.28009 0.74916
 O1049 O 0.22929 0.19360 0.72786
 O1050 O 0.19111 0.31425 0.76004
 O1051 O 0.21478 0.26107 0.72661
 O1052 O 0.23045 0.29195 0.74751
 O1053 O 0.26599 0.26840 0.75580
 O1054 O 0.24940 0.23618 0.73438
 C1055 C 0.16565 0.26622 0.78712
 C1056 C 0.18926 0.19665 0.76941
 C1057 C 0.22462 0.27796 0.82113
 O1058 O 0.23431 0.32138 0.78190
 O1059 O 0.26871 0.31142 0.76332
 O1060 O 0.27045 0.30140 0.72864
 C1061 C 0.27595 0.31448 0.74438
 O1062 O 0.26674 0.20954 0.78970
 Zr1063 Zr 0.26482 0.23329 0.76393
 O1064 O 0.28186 0.26107 0.71758
 O1065 O 0.27607 0.28848 0.79582
 O1066 O 0.29302 0.24348 0.78280
 O1067 O 0.27240 0.19963 0.75276
 O1068 O 0.29310 0.23636 0.74392
 C1069 C 0.29638 0.24749 0.72653
 O1070 O 0.24134 0.29638 0.70292
 O1071 O 0.18367 0.22309 0.72033
 O1072 O 0.24431 0.25638 0.69646
 O1073 O 0.22022 0.22626 0.70337
 O1074 O 0.16734 0.27075 0.73158
 O1075 O 0.19365 0.30155 0.72188
 C1076 C 0.23191 0.23898 0.69067
 H1077 H 0.18019 0.23923 0.75714
 H1078 H 0.23063 0.30845 0.74307
 H1079 H 0.25735 0.22657 0.72388
 H1080 H 0.25381 0.25032 0.80031
 H1081 H 0.17477 0.31778 0.75775
 H1082 H 0.24515 0.32890 0.79178
 H1083 H 0.27687 0.30423 0.80191
 H1084 H 0.30554 0.23243 0.78016
 H1085 H 0.15542 0.28236 0.73458
 H1086 H 0.18323 0.20751 0.71385
 H1087 H 0.21813 0.18601 0.71834
 H1088 H 0.28875 0.19670 0.75566
 H1089 H 0.17963 0.31096 0.72290
 H1090 H 0.25454 0.29723 0.69325
 H1091 H 0.20822 0.21697 0.82034
 H1092 H 0.28234 0.20315 0.79071
 Zr1093 Zr 0.28981 0.75240 0.27674
 O1094 O 0.28264 0.77987 0.29761
 O1095 O 0.31894 0.73817 0.29051
 O1096 O 0.28250 0.73952 0.30739
 O1097 O 0.31699 0.78516 0.23830
 O1098 O 0.25479 0.71245 0.30177
 O1099 O 0.31369 0.78002 0.27395
 O1100 O 0.32505 0.70526 0.27170
 O1101 O 0.28446 0.71674 0.27328
 O1102 O 0.30819 0.74220 0.25024
 O1103 O 0.25437 0.74803 0.27402
 O1104 O 0.27727 0.77294 0.25158
 Zr1105 Zr 0.25395 0.72125 0.21699
 Zr1106 Zr 0.24948 0.71254 0.26892
 Zr1107 Zr 0.29453 0.76092 0.22493
 Zr1108 Zr 0.30180 0.70706 0.24620
 O1109 O 0.28798 0.79429 0.21218
 O1110 O 0.30014 0.67334 0.25974
 O1111 O 0.28966 0.72540 0.21962
 O1112 O 0.26690 0.70113 0.24220
 O1113 O 0.23552 0.73128 0.24363
 O1114 O 0.25950 0.75685 0.22072
 C1115 C 0.32916 0.71888 0.28728
 C1116 C 0.32210 0.79020 0.25749
 C1117 C 0.26855 0.72367 0.31388
 O1118 O 0.25497 0.67815 0.27965
 O1119 O 0.22521 0.69021 0.25560
 O1120 O 0.22906 0.69445 0.21999
 C1121 C 0.22013 0.68477 0.23650
 O1122 O 0.24339 0.79422 0.26970
 Zr1123 Zr 0.24227 0.76655 0.24776
 O1124 O 0.22368 0.73467 0.20437
 O1125 O 0.21792 0.71908 0.28357
 O1126 O 0.21156 0.76490 0.26513
 O1127 O 0.24105 0.79871 0.23133
 O1128 O 0.21514 0.76474 0.22606
 C1129 C 0.21073 0.75121 0.21052
 O1130 O 0.26031 0.69314 0.19658
 O1131 O 0.32725 0.75542 0.21215
 O1132 O 0.26287 0.73251 0.18606
 O1133 O 0.29223 0.75766 0.19207
 O1134 O 0.33467 0.70940 0.23269
 O1135 O 0.30413 0.68275 0.22128
 C1136 C 0.27870 0.74650 0.17972
 H1137 H 0.32474 0.74510 0.25178
 H1138 H 0.26444 0.68439 0.23972
 H1139 H 0.25404 0.76616 0.20851
 H1140 H 0.24659 0.75323 0.28696
 H1141 H 0.31572 0.66679 0.25957
 H1142 H 0.24191 0.67392 0.28876
 H1143 H 0.21381 0.70480 0.29150
 H1144 H 0.20161 0.77759 0.25993
 H1145 H 0.34381 0.69645 0.23861
 H1146 H 0.33136 0.76967 0.20418
 H1147 H 0.30110 0.79834 0.20309
 H1148 H 0.22534 0.80474 0.23253
 H1149 H 0.31694 0.67202 0.22414
 H1150 H 0.24790 0.69298 0.18587
 H1151 H 0.29494 0.78003 0.30842
 H1152 H 0.22919 0.80336 0.26855
 Zr1153 Zr 0.21395 0.77078 0.71213
 O1154 O 0.22136 0.79643 0.68910
 O1155 O 0.18239 0.75845 0.70218
 O1156 O 0.21730 0.75517 0.68196
 O1157 O 0.19364 0.80798 0.74990
 O1158 O 0.24174 0.72519 0.68846
 O1159 O 0.19131 0.79946 0.71480
 O1160 O 0.17437 0.72878 0.72497
 O1161 O 0.21654 0.73509 0.71814
 O1162 O 0.19784 0.76407 0.74095
 O1163 O 0.24901 0.76341 0.71244
 O1164 O 0.23078 0.79191 0.73440
 Zr1165 Zr 0.25301 0.74102 0.77136
 Zr1166 Zr 0.25136 0.72815 0.72020
 Zr1167 Zr 0.21552 0.78338 0.76331
 Zr1168 Zr 0.20140 0.72893 0.74725
 O1169 O 0.22607 0.81705 0.77225
 O1170 O 0.19887 0.69493 0.73493
 O1171 O 0.21771 0.74807 0.77116
 O1172 O 0.23592 0.72028 0.74906
 O1173 O 0.26949 0.74737 0.74260
 O1174 O 0.25017 0.77657 0.76505
 C1175 C 0.16986 0.74164 0.70875
 C1176 C 0.18551 0.81118 0.73123
 C1177 C 0.22834 0.73688 0.67636
 O1178 O 0.24256 0.69333 0.71346
 O1179 O 0.27548 0.70531 0.73299
 O1180 O 0.27588 0.71261 0.76829
 C1181 C 0.28237 0.70113 0.75192
 O1182 O 0.26536 0.80799 0.71144
 Zr1183 Zr 0.26538 0.78265 0.73598
 O1184 O 0.28466 0.75383 0.78122
 O1185 O 0.28116 0.73097 0.70176
 O1186 O 0.29431 0.77603 0.71715
 O1187 O 0.27025 0.81619 0.74878
 O1188 O 0.29379 0.78115 0.75638
 C1189 C 0.29793 0.76932 0.77326
 O1190 O 0.24699 0.71467 0.79412
 O1191 O 0.18415 0.78178 0.77953
 O1192 O 0.24725 0.75468 0.80200
 O1193 O 0.22092 0.78294 0.79601
 O1194 O 0.17102 0.73466 0.76432
 O1195 O 0.19967 0.70581 0.77348
 C1196 C 0.23392 0.77101 0.80832
 H1197 H 0.18149 0.76815 0.74088
 H1198 H 0.23736 0.70362 0.75270
 H1199 H 0.25730 0.78640 0.77601
 H1200 H 0.25585 0.76680 0.69851
 H1201 H 0.18288 0.68975 0.73660
 H1202 H 0.25400 0.68742 0.70342
 H1203 H 0.28327 0.71576 0.69488
 H1204 H 0.30592 0.78797 0.72053
 H1205 H 0.16006 0.72234 0.76029
 H1206 H 0.18199 0.79702 0.78636
 H1207 H 0.21436 0.82305 0.78196
 H1208 H 0.28626 0.82078 0.74617
 H1209 H 0.18628 0.69549 0.77184
 H1210 H 0.26029 0.71453 0.80387
 H1211 H 0.20819 0.79689 0.67923
 H1212 H 0.28051 0.81553 0.71076
 Zr1213 Zr 0.28667 0.22264 0.21949
 O1214 O 0.27761 0.19701 0.19720
 O1215 O 0.31871 0.23278 0.20857
 O1216 O 0.28272 0.23724 0.18881
 O1217 O 0.30447 0.18473 0.25868
 O1218 O 0.25688 0.26626 0.19334
 O1219 O 0.30631 0.19176 0.22325
 O1220 O 0.32784 0.26357 0.22934
 O1221 O 0.28523 0.25867 0.22345
 O1222 O 0.30424 0.22987 0.24753
 O1223 O 0.25183 0.23116 0.22019
 O1224 O 0.27001 0.20337 0.24329
 Zr1225 Zr 0.25083 0.25639 0.27759
 Zr1226 Zr 0.25062 0.26689 0.22588
 Zr1227 Zr 0.28674 0.21256 0.27139
 Zr1228 Zr 0.30178 0.26548 0.25192
 O1229 O 0.27506 0.18076 0.28437
 O1230 O 0.30524 0.29876 0.23781
 O1231 O 0.28586 0.24824 0.27717
 O1232 O 0.26763 0.27546 0.25389
 O1233 O 0.23292 0.24927 0.24965
 O1234 O 0.25236 0.22052 0.27342
 C1235 C 0.33174 0.24969 0.21398
 C1236 C 0.31039 0.17926 0.23990
 C1237 C 0.27009 0.25398 0.18185
 O1238 O 0.26123 0.30035 0.21604
 O1239 O 0.22852 0.29206 0.23825
 O1240 O 0.22876 0.28518 0.27372
 C1241 C 0.22235 0.29679 0.25720
 O1242 O 0.23446 0.18695 0.22203
 Zr1243 Zr 0.23585 0.21358 0.24500
 O1244 O 0.21906 0.24531 0.28865
 O1245 O 0.21920 0.26475 0.20947
 O1246 O 0.20642 0.21976 0.22624
 O1247 O 0.23064 0.18098 0.25996
 O1248 O 0.20824 0.21711 0.26557
 C1249 C 0.20495 0.23004 0.28167
 O1250 O 0.25873 0.28359 0.29869
 O1251 O 0.31967 0.21273 0.28520
 O1252 O 0.25711 0.24409 0.30870
 O1253 O 0.28432 0.21646 0.30414
 O1254 O 0.33248 0.25930 0.26883
 O1255 O 0.30527 0.28989 0.27671
 C1256 C 0.27141 0.22890 0.31575
 H1257 H 0.32029 0.22472 0.24722
 H1258 H 0.26695 0.29231 0.25666
 H1259 H 0.24536 0.21165 0.28515
 H1260 H 0.24422 0.22716 0.20670
 H1261 H 0.32147 0.30336 0.23897
 H1262 H 0.24933 0.30634 0.20628
 H1263 H 0.21726 0.27962 0.20172
 H1264 H 0.19471 0.20826 0.23048
 H1265 H 0.34380 0.27090 0.26394
 H1266 H 0.32133 0.19792 0.29308
 H1267 H 0.28727 0.17488 0.29385
 H1268 H 0.21442 0.17669 0.25793
 H1269 H 0.31919 0.29930 0.27447
 H1270 H 0.24594 0.28471 0.30878
 H1271 H 0.29060 0.19555 0.18739
 H1272 H 0.21920 0.17960 0.22218
 Zr1273 Zr 0.71268 0.75228 0.27667
 O1274 O 0.72144 0.72601 0.29874
 O1275 O 0.68183 0.76419 0.28824
 O1276 O 0.71769 0.76668 0.30712
 O1277 O 0.69102 0.71583 0.23859
 O1278 O 0.74152 0.79726 0.30068
 O1279 O 0.69035 0.72310 0.27393
 O1280 O 0.67259 0.79466 0.26669
 O1281 O 0.71481 0.78820 0.27161
 O1282 O 0.69490 0.75980 0.24872
 O1283 O 0.74765 0.76022 0.27534
 O1284 O 0.72838 0.73221 0.25324
 Zr1285 Zr 0.74832 0.78470 0.21709
 Zr1286 Zr 0.74941 0.79578 0.26858
 Zr1287 Zr 0.71149 0.74160 0.22522
 Zr1288 Zr 0.69802 0.79522 0.24328
 O1289 O 0.72195 0.70874 0.21433
 O1290 O 0.69605 0.82891 0.25629
 O1291 O 0.71311 0.77716 0.21834
 O1292 O 0.73236 0.80445 0.24052
 O1293 O 0.76631 0.77755 0.24507
 O1294 O 0.74603 0.74891 0.22232
 C1295 C 0.66916 0.78135 0.28279
 C1296 C 0.68403 0.71162 0.25740
 C1297 C 0.72887 0.78492 0.31286
 O1298 O 0.74070 0.83013 0.27681
 O1299 O 0.77248 0.81963 0.25556
 O1300 O 0.77134 0.81304 0.22016
 C1301 C 0.77849 0.82428 0.23652
 O1302 O 0.76384 0.71548 0.27416
 Zr1303 Zr 0.76274 0.74201 0.25071
 O1304 O 0.77986 0.77329 0.20607
 O1305 O 0.78031 0.79279 0.28571
 O1306 O 0.79246 0.74771 0.26918
 O1307 O 0.76736 0.70937 0.23619
 O1308 O 0.79030 0.74545 0.22996
 C1309 C 0.79391 0.75825 0.21361
 O1310 O 0.74084 0.81185 0.19546
 O1311 O 0.67898 0.74292 0.21062
 O1312 O 0.74078 0.77234 0.18626
 O1313 O 0.71442 0.74408 0.19248
 O1314 O 0.66664 0.78944 0.22738
 O1315 O 0.69461 0.81892 0.21760
 C1316 C 0.72655 0.75663 0.18004
 H1317 H 0.67861 0.75541 0.24935
 H1318 H 0.73352 0.82123 0.23730
 H1319 H 0.75269 0.73976 0.21076
 H1320 H 0.75529 0.75641 0.28890
 H1321 H 0.67997 0.83398 0.25522
 H1322 H 0.75267 0.83583 0.28660
 H1323 H 0.78265 0.80772 0.29306
 H1324 H 0.80388 0.73602 0.26501
 H1325 H 0.65587 0.80147 0.23214
 H1326 H 0.67675 0.72806 0.20312
 H1327 H 0.70970 0.70296 0.20489
 H1328 H 0.78356 0.70502 0.23809
 H1329 H 0.68115 0.82887 0.21986
 H1330 H 0.75358 0.81264 0.18526
 H1331 H 0.70878 0.72497 0.30899
 H1332 H 0.77884 0.70770 0.27383
 Zr1333 Zr 0.77793 0.27010 0.78371
 O1334 O 0.76636 0.29697 0.80343
 O1335 O 0.80858 0.26147 0.79806
 O1336 O 0.77269 0.25675 0.81468
 O1337 O 0.80014 0.30466 0.74415
 O1338 O 0.74794 0.22661 0.80987
 O1339 O 0.79846 0.30051 0.77993
 O1340 O 0.81746 0.22711 0.78273
 O1341 O 0.77680 0.23388 0.78177
 O1342 O 0.79811 0.26084 0.75807
 O1343 O 0.74333 0.26101 0.78071
 O1344 O 0.76360 0.28743 0.75746
 Zr1345 Zr 0.74764 0.23154 0.72492
 Zr1346 Zr 0.74273 0.22491 0.77704
 Zr1347 Zr 0.78283 0.27617 0.73173
 Zr1348 Zr 0.79606 0.22495 0.75576
 O1349 O 0.77268 0.30719 0.71628
 O1350 O 0.79798 0.19171 0.77021
 O1351 O 0.78253 0.24011 0.72809
 O1352 O 0.76218 0.21445 0.75123
 O1353 O 0.72735 0.24053 0.75071
 O1354 O 0.74876 0.26767 0.72714
 C1355 C 0.82006 0.24267 0.79707
 C1356 C 0.80461 0.31149 0.76297
 C1357 C 0.76073 0.23943 0.82157
 O1358 O 0.75179 0.19177 0.78891
 O1359 O 0.72112 0.19942 0.76419
 O1360 O 0.72510 0.20291 0.72854
 C1361 C 0.71674 0.19300 0.74516
 O1362 O 0.72638 0.30484 0.77443
 Zr1363 Zr 0.72976 0.27650 0.75345
 O1364 O 0.71683 0.24115 0.71052
 O1365 O 0.71055 0.22845 0.79143
 O1366 O 0.69880 0.27129 0.76988
 O1367 O 0.72550 0.30779 0.73607
 O1368 O 0.70416 0.27087 0.73082
 C1369 C 0.70209 0.25662 0.71543
 O1370 O 0.75765 0.20289 0.70651
 O1371 O 0.81668 0.27466 0.72058
 O1372 O 0.75658 0.24166 0.69368
 O1373 O 0.78257 0.27046 0.69918
 O1374 O 0.82920 0.23083 0.74372
 O1375 O 0.80262 0.20024 0.73187
 C1376 C 0.77106 0.25696 0.68707
 H1377 H 0.81410 0.26607 0.75971
 H1378 H 0.76165 0.19743 0.74939
 H1379 H 0.74279 0.27562 0.71436
 H1380 H 0.73471 0.26577 0.79333
 H1381 H 0.81428 0.18739 0.77106
 H1382 H 0.73914 0.18644 0.79804
 H1383 H 0.70794 0.21407 0.79974
 H1384 H 0.68749 0.28227 0.76389
 H1385 H 0.83948 0.21965 0.75092
 H1386 H 0.81922 0.28886 0.71200
 H1387 H 0.78565 0.31241 0.70751
 H1388 H 0.70914 0.31191 0.73654
 H1389 H 0.81667 0.19157 0.73544
 H1390 H 0.74586 0.20076 0.69540
 H1391 H 0.77835 0.29936 0.81431
 H1392 H 0.71110 0.31181 0.77266
 C1393 C 0.45873 1.01519 0.35239
 C1394 C 0.45447 0.99417 0.34178
 C1395 C 0.44403 0.99434 0.32172
 C1396 C 0.43804 1.01534 0.31137
 C1397 C 0.44321 1.03618 0.32198
 C1398 C 0.45327 1.03612 0.34203
 C1399 C 0.46855 1.01416 0.37435
 C1400 C 0.47133 1.03398 0.38699
 C1401 C 0.47872 1.03193 0.40790
 C1402 C 0.48404 1.01021 0.41666
 C1403 C 0.48235 0.99045 0.40400
 C1404 C 0.47414 0.99220 0.38312
 C1405 C 0.46049 0.97300 0.35130
 C1406 C 0.47038 0.97206 0.37138
 H1407 H 0.45745 0.95684 0.34311
 H1408 H 0.47455 0.95523 0.37806
 H1409 H 0.43984 0.97778 0.31483
 H1410 H 0.44032 1.05292 0.31468
 H1411 H 0.47973 1.04737 0.41750
 H1412 H 0.48590 0.97357 0.41087
 H1413 H 0.45686 1.05273 0.34901
 H1414 H 0.46707 1.05111 0.38134
 C1415 C -0.03654 0.53042 0.85336
 C1416 C -0.04003 0.50911 0.84298
 C1417 C -0.05050 0.50861 0.82294
 C1418 C -0.05728 0.52921 0.81235
 C1419 C -0.05267 0.55039 0.82264
 C1420 C -0.04262 0.55098 0.84269
 C1421 C -0.02686 0.53005 0.87539
 C1422 C -0.02508 0.55008 0.88791
 C1423 C -0.01797 0.54853 0.90896
 C1424 C -0.01190 0.52712 0.91795
 C1425 C -0.01253 0.50722 0.90540
 C1426 C -0.02051 0.50844 0.88441
 C1427 C -0.03321 0.48832 0.85274
 C1428 C -0.02337 0.48803 0.87284
 H1429 H -0.03560 0.47196 0.84472
 H1430 H -0.01859 0.47146 0.87971
 H1431 H -0.05412 0.49179 0.81631
 H1432 H -0.05605 0.56691 0.81512
 H1433 H -0.01783 0.56406 0.91846
 H1434 H -0.00844 0.49054 0.91244
 H1435 H -0.03955 0.56781 0.84946
 H1436 H -0.02998 0.56696 0.88206
 C1437 C 0.03858 -0.02921 0.84946
 C1438 C 0.03245 -0.01149 0.83499
 C1439 C 0.04148 -0.01142 0.81441
 C1440 C 0.05760 -0.02816 0.80838
 C1441 C 0.06425 -0.04500 0.82332
 C1442 C 0.05478 -0.04571 0.84338
 C1443 C 0.02879 -0.02879 0.87119
 C1444 C 0.03234 -0.04686 0.88583
 C1445 C 0.02528 -0.04467 0.90660
 C1446 C 0.01429 -0.02452 0.91344
 C1447 C 0.00871 -0.00726 0.89849
 C1448 C 0.01580 -0.00938 0.87733
 C1449 C 0.01810 0.00648 0.84150
 C1450 C 0.01043 0.00783 0.86234
 H1451 H 0.01343 0.02020 0.83053
 H1452 H 0.00017 0.02255 0.86680
 H1453 H 0.03615 0.00186 0.80329
 H1454 H 0.07738 -0.05748 0.81981
 H1455 H 0.02913 -0.05864 0.91758
 H1456 H -0.00014 0.00821 0.90348
 H1457 H 0.06104 -0.05885 0.85412
 H1458 H 0.04084 -0.06271 0.88168
 C1459 C 0.54962 0.48166 0.35268
 C1460 C 0.56984 0.46897 0.34906
 C1461 C 0.57999 0.46915 0.32904
 C1462 C 0.57010 0.48134 0.31208
 C1463 C 0.54957 0.49321 0.31554
 C1464 C 0.53953 0.49350 0.33552
 C1465 C 0.53997 0.48182 0.37465
 C1466 C 0.52095 0.49521 0.38057
 C1467 C 0.51330 0.49526 0.40155
 C1468 C 0.52426 0.48176 0.41707
 C1469 C 0.54292 0.46810 0.41107
 C1470 C 0.55100 0.46832 0.39035
 C1471 C 0.57989 0.45612 0.36544
 C1472 C 0.57051 0.45556 0.38553
 H1473 H 0.59523 0.44624 0.36266
 H1474 H 0.57897 0.44529 0.39764
 H1475 H 0.59590 0.46006 0.32685
 H1476 H 0.54105 0.50225 0.30271
 H1477 H 0.49902 0.50612 0.40567
 H1478 H 0.55185 0.45765 0.42275
 H1479 H 0.52383 0.50296 0.33718
 H1480 H 0.51208 0.50611 0.36933
 C1481 C 0.53168 0.53788 0.15523
 C1482 C 0.54839 0.55519 0.15881
 C1483 C 0.55971 0.55648 0.17829
 C1484 C 0.55436 0.54123 0.19493
 C1485 C 0.53719 0.52456 0.19164
 C1486 C 0.52605 0.52281 0.17206
 C1487 C 0.52116 0.53629 0.13355
 C1488 C 0.50565 0.51871 0.12750
 C1489 C 0.49770 0.51725 0.10658
 C1490 C 0.50489 0.53339 0.09130
 C1491 C 0.51946 0.55148 0.09754
 C1492 C 0.52790 0.55279 0.11817
 C1493 C 0.55401 0.57108 0.14289
 C1494 C 0.54378 0.57009 0.12310
 H1495 H 0.56662 0.58448 0.14573
 H1496 H 0.54888 0.58272 0.11126
 H1497 H 0.57322 0.56913 0.18021
 H1498 H 0.53229 0.51280 0.20422
 H1499 H 0.48652 0.50308 0.10222
 H1500 H 0.52507 0.56427 0.08605
 H1501 H 0.51313 0.50960 0.17038
 H1502 H 0.50001 0.50559 0.13853
 C1503 C 0.03521 1.03392 0.65381
 C1504 C 0.05114 1.05178 0.65809
 C1505 C 0.06237 1.05276 0.67774
 C1506 C 0.05808 1.03618 0.69376
 C1507 C 0.04108 1.01933 0.68962
 C1508 C 0.02999 1.01814 0.67006
 C1509 C 0.02502 1.03242 0.63199
 C1510 C 0.01041 1.01426 0.62544
 C1511 C 0.00299 1.01274 0.60437
 C1512 C 0.00983 1.02935 0.58940
 C1513 C 0.02340 1.04808 0.59615
 C1514 C 0.03131 1.04950 0.61700
 C1515 C 0.05617 1.06838 0.64256
 C1516 C 0.04630 1.06740 0.62255
 H1517 H 0.06815 1.08225 0.64585
 H1518 H 0.05104 1.08052 0.61103
 H1519 H 0.07543 1.06582 0.67979
 H1520 H 0.03564 1.00711 0.70159
 H1521 H -0.00737 0.99808 0.59965
 H1522 H 0.02874 1.06122 0.58488
 H1523 H 0.01736 1.00471 0.66802
 H1524 H 0.00515 1.00066 0.63614
 C1525 C -0.03720 0.47229 0.65054
 C1526 C -0.05723 0.45917 0.65435
 C1527 C -0.06659 0.45798 0.67466
 C1528 C -0.05614 0.46925 0.69174
 C1529 C -0.03593 0.48178 0.68805
 C1530 C -0.02662 0.48337 0.66777
 C1531 C -0.02834 0.47371 0.62828
 C1532 C -0.00935 0.48732 0.62221
 C1533 C -0.00236 0.48839 0.60102
 C1534 C -0.01399 0.47575 0.58544
 C1535 C -0.03268 0.46198 0.59157
 C1536 C -0.04004 0.46111 0.61251
 C1537 C -0.06795 0.44727 0.63789
 C1538 C -0.05941 0.44802 0.61750
 H1539 H -0.08319 0.43712 0.64083
 H1540 H -0.06837 0.43844 0.60533
 H1541 H -0.08238 0.44858 0.67701
 H1542 H -0.02716 0.49032 0.70092
 H1543 H 0.01200 0.49927 0.59683
 H1544 H -0.04210 0.45216 0.57988
 H1545 H -0.01112 0.49325 0.66590
 H1546 H 0.00007 0.49749 0.63353
 C1547 C 0.46811 -0.03869 0.15095
 C1548 C 0.47356 -0.02224 0.16657
 C1549 C 0.46333 -0.02383 0.18659
 C1550 C 0.44648 -0.04074 0.19084
 C1551 C 0.44013 -0.05589 0.17454
 C1552 C 0.45092 -0.05512 0.15506
 C1553 C 0.47972 -0.03701 0.13008
 C1554 C 0.47776 -0.05448 0.11490
 C1555 C 0.48667 -0.05124 0.09486
 C1556 C 0.49774 -0.03047 0.08921
 C1557 C 0.50183 -0.01382 0.10493
 C1558 C 0.49313 -0.01720 0.12549
 C1559 C 0.48849 -0.00389 0.16175
 C1560 C 0.49745 -0.00100 0.14144
 H1561 H 0.49256 0.00895 0.17359
 H1562 H 0.50807 0.01400 0.13824
 H1563 H 0.46845 -0.01175 0.19874
 H1564 H 0.42641 -0.06825 0.17658
 H1565 H 0.48403 -0.06487 0.08342
 H1566 H 0.51086 0.00203 0.10099
 H1567 H 0.44501 -0.06704 0.14316
 H1568 H 0.46916 -0.07067 0.11813
 C1569 C 0.35179 0.41877 0.02410
 C1570 C 0.34175 0.40979 0.00545
 C1571 C 0.32213 0.39574 0.00656
 C1572 C 0.31222 0.39032 0.02608
 C1573 C 0.32193 0.39966 0.04450
 C1574 C 0.34140 0.41365 0.04357
 C1575 C 0.37299 0.43338 0.02221
 C1576 C 0.38465 0.44284 0.03974
 C1577 C 0.40407 0.45672 0.03699
 C1578 C 0.41242 0.46154 0.01672
 C1579 C 0.40113 0.45174 -0.00076
 C1580 C 0.38167 0.43784 0.00181
 C1581 C 0.35140 0.41476 -0.01422
 C1582 C 0.37085 0.42852 -0.01600
 H1583 H 0.34376 0.40794 -0.02851
 H1584 H 0.37754 0.43192 -0.03163
 H1585 H 0.31490 0.38855 -0.00776
 H1586 H 0.31441 0.39614 0.05975
 H1587 H 0.41235 0.46395 0.05078
 H1588 H 0.40735 0.45511 -0.01657
 H1589 H 0.34803 0.42022 0.05827
 H1590 H 0.37898 0.43985 0.05569
 C1591 C -0.13857 0.91201 0.52007
 C1592 C -0.15078 0.90608 0.50154
 C1593 C -0.17101 0.89292 0.50280
 C1594 C -0.17963 0.88512 0.52239
 C1595 C -0.16717 0.89119 0.54072
 C1596 C -0.14713 0.90434 0.53960
 C1597 C -0.11715 0.92633 0.51800
 C1598 C -0.10388 0.93355 0.53544
 C1599 C -0.08442 0.94737 0.53262
 C1600 C -0.07753 0.95432 0.51234
 C1601 C -0.09046 0.94680 0.49488
 C1602 C -0.11010 0.93308 0.49754
 C1603 C -0.14269 0.91322 0.48177
 C1604 C -0.12284 0.92638 0.47982
 H1605 H -0.15192 0.90864 0.46752
 H1606 H -0.11744 0.93152 0.46413
 H1607 H -0.17940 0.88808 0.48822
 H1608 H -0.17322 0.88676 0.55632
 H1609 H -0.07488 0.95280 0.54642
 H1610 H -0.08552 0.95197 0.47907
 H1611 H -0.13873 0.90847 0.55429
 H1612 H -0.10833 0.92892 0.55142
 C1613 C -0.13669 0.08424 0.98504
 C1614 C -0.14612 0.09383 1.00354
 C1615 C -0.16624 0.10721 1.00238
 C1616 C -0.17738 0.11123 0.98295
 C1617 C -0.16821 0.10108 0.96477
 C1618 C -0.14824 0.08789 0.96573
 C1619 C -0.11489 0.07048 0.98691
 C1620 C -0.10364 0.06087 0.96942
 C1621 C -0.08355 0.04803 0.97206
 C1622 C -0.07401 0.04427 0.99220
 C1623 C -0.08500 0.05410 1.00969
 C1624 C -0.10513 0.06716 1.00719
 C1625 C -0.13539 0.09006 1.02309
 C1626 C -0.11550 0.07694 1.02489
 H1627 H -0.14254 0.09731 1.03731
 H1628 H -0.10803 0.07449 1.04044
 H1629 H -0.17293 0.11489 1.01660
 H1630 H -0.17659 0.10322 0.94961
 H1631 H -0.07561 0.04079 0.95823
 H1632 H -0.07791 0.05158 1.02539
 H1633 H -0.14217 0.08067 0.95118
 H1634 H -0.11006 0.06306 0.95354
 C1635 C 0.36694 0.58687 0.48901
 C1636 C 0.35602 0.58718 0.46905
 C1637 C 0.33475 0.59812 0.46646
 C1638 C 0.32388 0.60894 0.48350
 C1639 C 0.33454 0.60814 0.50339
 C1640 C 0.35573 0.59732 0.50614
 C1641 C 0.38981 0.57515 0.49100
 C1642 C 0.40228 0.57423 0.51003
 C1643 C 0.42289 0.56221 0.51136
 C1644 C 0.43192 0.55077 0.49376
 C1645 C 0.42008 0.55241 0.47444
 C1646 C 0.39915 0.56440 0.47297
 C1647 C 0.36637 0.57655 0.45175
 C1648 C 0.38735 0.56535 0.45369
 H1649 H 0.35802 0.57676 0.43644
 H1650 H 0.39442 0.55723 0.43984
 H1651 H 0.32658 0.59811 0.45106
 H1652 H 0.32675 0.61642 0.51679
 H1653 H 0.43158 0.56153 0.52648
 H1654 H 0.42669 0.54367 0.46071
 H1655 H 0.36306 0.59744 0.52179
 H1656 H 0.39630 0.58239 0.52419
 C1657 C 0.14488 0.57923 0.51503
 C1658 C 0.15437 0.58930 0.49657
 C1659 C 0.17525 0.60149 0.49762
 C1660 C 0.18697 0.60381 0.51690
 C1661 C 0.17793 0.59288 0.53493
 C1662 C 0.15726 0.58084 0.53407
 C1663 C 0.12214 0.56714 0.51342
 C1664 C 0.11067 0.55757 0.53099
 C1665 C 0.08985 0.54591 0.52852
 C1666 C 0.07982 0.54340 0.50848
 C1667 C 0.09083 0.55358 0.49099
 C1668 C 0.11169 0.56542 0.49332
 C1669 C 0.14287 0.58727 0.47723
 C1670 C 0.12215 0.57543 0.47560
 H1671 H 0.15006 0.59486 0.46305
 H1672 H 0.11412 0.57421 0.46020
 H1673 H 0.18199 0.60978 0.48357
 H1674 H 0.18682 0.59386 0.54993
 H1675 H 0.08187 0.53833 0.54232
 H1676 H 0.08331 0.55205 0.47539
 H1677 H 0.15126 0.57300 0.54852
 H1678 H 0.11755 0.55876 0.54677
 C1679 C 0.64760 0.08861 0.02189
 C1680 C 0.65738 0.09805 0.00330
 C1681 C 0.67791 0.11078 0.00434
 C1682 C 0.68911 0.11441 0.02372
 C1683 C 0.67951 0.10468 0.04206
 C1684 C 0.65913 0.09201 0.04121
 C1685 C 0.62551 0.07525 0.02005
 C1686 C 0.61409 0.06535 0.03751
 C1687 C 0.59397 0.05245 0.03476
 C1688 C 0.58455 0.04910 0.01456
 C1689 C 0.59553 0.05953 -0.00281
 C1690 C 0.61575 0.07241 -0.00025
 C1691 C 0.64660 0.09479 -0.01624
 C1692 C 0.62634 0.08222 -0.01798
 H1693 H 0.65402 0.10198 -0.03049
 H1694 H 0.61886 0.08010 -0.03354
 H1695 H 0.68492 0.11833 -0.00994
 H1696 H 0.68786 0.10679 0.05721
 H1697 H 0.58602 0.04470 0.04850
 H1698 H 0.58856 0.05732 -0.01856
 H1699 H 0.65270 0.08503 0.05586
 H1700 H 0.62053 0.06716 0.05339
 C1701 C 0.64139 0.91041 0.49208
 C1702 C 0.65318 0.91287 0.47280
 C1703 C 0.67465 0.90260 0.47033
 C1704 C 0.68467 0.88935 0.48664
 C1705 C 0.67320 0.88739 0.50593
 C1706 C 0.65188 0.89777 0.50866
 C1707 C 0.61825 0.92140 0.49385
 C1708 C 0.60510 0.92013 0.51232
 C1709 C 0.58407 0.93130 0.51342
 C1710 C 0.57533 0.94391 0.49611
 C1711 C 0.58797 0.94467 0.47739
 C1712 C 0.60934 0.93373 0.47620
 C1713 C 0.64342 0.92530 0.45595
 C1714 C 0.62199 0.93545 0.45760
 H1715 H 0.65246 0.92715 0.44118
 H1716 H 0.61527 0.94490 0.44409
 H1717 H 0.68350 0.90473 0.45548
 H1718 H 0.68038 0.87717 0.51873
 H1719 H 0.57472 0.93029 0.52809
 H1720 H 0.58158 0.95449 0.46395
 H1721 H 0.64379 0.89539 0.52375
 H1722 H 0.61087 0.91090 0.52622
 C1723 C 0.13856 0.41961 0.99624
 C1724 C 0.14965 0.41918 0.97650
 C1725 C 0.16994 0.40661 0.97415
 C1726 C 0.17946 0.39400 0.99115
 C1727 C 0.16872 0.39492 1.01083
 C1728 C 0.14860 0.40753 1.01339
 C1729 C 0.11658 0.43282 0.99788
 C1730 C 0.10409 0.43414 1.01671
 C1731 C 0.08393 0.44684 1.01755
 C1732 C 0.07540 0.45860 0.99964
 C1733 C 0.08752 0.45706 0.98066
 C1734 C 0.10799 0.44439 0.97969
 C1735 C 0.14031 0.43108 0.95912
 C1736 C 0.11997 0.44338 0.96068
 H1737 H 0.14882 0.43079 0.94400
 H1738 H 0.11351 0.45223 0.94673
 H1739 H 0.17828 0.40650 0.95894
 H1740 H 0.17551 0.38529 1.02418
 H1741 H 0.07502 0.44752 1.03244
 H1742 H 0.08127 0.46606 0.96670
 H1743 H 0.14106 0.40732 1.02885
 H1744 H 0.10964 0.42561 1.03104
 C1745 C 0.03779 0.35422 0.39257
 C1746 C 0.02288 0.35366 0.37490
 C1747 C 0.02453 0.33582 0.36022
 C1748 C 0.04033 0.31804 0.36328
 C1749 C 0.05635 0.31960 0.37970
 C1750 C 0.05523 0.33760 0.39415
 C1751 C 0.03328 0.37142 0.40951
 C1752 C 0.04616 0.37255 0.42837
 C1753 C 0.04035 0.38812 0.44419
 C1754 C 0.02150 0.40268 0.44161
 C1755 C 0.00867 0.40162 0.42288
 C1756 C 0.01450 0.38643 0.40685
 C1757 C 0.00544 0.36993 0.37268
 C1758 C 0.00132 0.38602 0.38837
 H1759 H -0.00574 0.36967 0.35900
 H1760 H -0.01280 0.39788 0.38626
 H1761 H 0.01238 0.33476 0.34729
 H1762 H 0.06874 0.30598 0.38231
 H1763 H 0.05067 0.38878 0.45841
 H1764 H -0.00594 0.41282 0.42057
 H1765 H 0.06741 0.33745 0.40695
 H1766 H 0.06069 0.36159 0.43128
 C1767 C 0.53933 -0.14384 -0.10482
 C1768 C 0.52377 -0.14446 -0.12201
 C1769 C 0.52362 -0.16334 -0.13570
 C1770 C 0.53833 -0.18200 -0.13216
 C1771 C 0.55471 -0.18071 -0.11601
 C1772 C 0.55535 -0.16179 -0.10257
 C1773 C 0.53696 -0.12502 -0.08897
 C1774 C 0.55069 -0.12359 -0.07065
 C1775 C 0.54645 -0.10684 -0.05544
 C1776 C 0.52845 -0.09122 -0.05815
 C1777 C 0.51520 -0.09210 -0.07664
 C1778 C 0.51930 -0.10872 -0.09198
 C1779 C 0.50759 -0.12696 -0.12473
 C1780 C 0.50536 -0.10945 -0.10997
 H1781 H 0.49590 -0.12728 -0.13804
 H1782 H 0.49208 -0.09667 -0.11236
 H1783 H 0.51119 -0.16416 -0.14841
 H1784 H 0.56620 -0.19501 -0.11292
 H1785 H 0.55709 -0.10634 -0.04141
 H1786 H 0.50134 -0.07998 -0.07908
 H1787 H 0.56783 -0.16213 -0.09002
 H1788 H 0.56454 -0.13537 -0.06757
 C1789 C -0.00535 -0.15729 1.09782
 C1790 C -0.02351 -0.17279 1.09360
 C1791 C -0.02744 -0.19166 1.10707
 C1792 C -0.01360 -0.19537 1.12486
 C1793 C 0.00485 -0.18055 1.12870
 C1794 C 0.00897 -0.16168 1.11536
 C1795 C -0.00248 -0.13669 1.08361
 C1796 C 0.01444 -0.11973 1.08691
 C1797 C 0.01595 -0.10047 1.07361
 C1798 C 0.00069 -0.09761 1.05667
 C1799 C -0.01604 -0.11454 1.05309
 C1800 C -0.01780 -0.13391 1.06642
 C1801 C -0.03787 -0.16926 1.07616
 C1802 C -0.03502 -0.15025 1.06280
 H1803 H -0.05166 -0.18126 1.07290
 H1804 H -0.04668 -0.14813 1.04960
 H1805 H -0.04144 -0.20344 1.10382
 H1806 H 0.01575 -0.18324 1.14236
 H1807 H 0.02905 -0.08767 1.07678
 H1808 H -0.02794 -0.11257 1.04004
 H1809 H 0.02325 -0.15070 1.11923
 H1810 H 0.02653 -0.12082 1.09975
 C1811 C 0.47414 0.34539 0.59883
 C1812 C 0.48995 0.34135 0.61544
 C1813 C 0.48777 0.32169 0.62830
 C1814 C 0.47001 0.30591 0.62492
 C1815 C 0.45383 0.31033 0.60908
 C1816 C 0.45580 0.32985 0.59617
 C1817 C 0.47792 0.36578 0.58460
 C1818 C 0.46398 0.37059 0.56691
 C1819 C 0.46867 0.38945 0.55375
 C1820 C 0.48733 0.40395 0.55792
 C1821 C 0.50116 0.39941 0.57560
 C1822 C 0.49672 0.38046 0.58881
 C1823 C 0.50802 0.35673 0.61892
 C1824 C 0.51125 0.37599 0.60596
 H1825 H 0.51997 0.35371 0.63176
 H1826 H 0.52559 0.38733 0.60918
 H1827 H 0.50007 0.31845 0.64082
 H1828 H 0.43999 0.29824 0.60626
 H1829 H 0.45768 0.39261 0.54025
 H1830 H 0.51561 0.41052 0.57909
 H1831 H 0.44300 0.33221 0.58408
 H1832 H 0.44954 0.35994 0.56279
 C1833 C 0.51802 1.13627 0.60665
 C1834 C 0.53662 1.15136 0.60295
 C1835 C 0.53980 1.17078 0.61567
 C1836 C 0.52456 1.17557 0.63197
 C1837 C 0.50691 1.15999 0.63640
 C1838 C 0.50371 1.14043 0.62399
 C1839 C 0.51388 1.11710 0.59143
 C1840 C 0.49494 1.10220 0.59289
 C1841 C 0.49129 1.08516 0.57788
 C1842 C 0.50643 1.08243 0.56105
 C1843 C 0.52539 1.09712 0.55946
 C1844 C 0.52914 1.11445 0.57442
 C1845 C 0.55143 1.14753 0.58613
 C1846 C 0.54785 1.12934 0.57222
 H1847 H 0.56580 1.15901 0.58348
 H1848 H 0.55960 1.12722 0.55926
 H1849 H 0.55340 1.18291 0.61207
 H1850 H 0.49520 1.16329 0.64917
 H1851 H 0.47656 1.07397 0.57963
 H1852 H 0.53726 1.09512 0.54657
 H1853 H 0.48966 1.12921 0.62798
 H1854 H 0.48262 1.10345 0.60535
 C1855 C 0.01223 0.63587 1.12228
 C1856 C 0.03462 0.64392 1.12601
 C1857 C 0.03854 0.66166 1.14052
 C1858 C 0.02027 0.67231 1.15104
 C1859 C -0.00150 0.66224 1.14903
 C1860 C -0.00547 0.64425 1.13493
 C1861 C 0.00825 0.61977 1.10427
 C1862 C -0.01369 0.61264 1.09794
 C1863 C -0.01662 0.59855 1.08040
 C1864 C 0.00218 0.59139 1.06865
 C1865 C 0.02408 0.59841 1.07474
 C1866 C 0.02724 0.61254 1.09238
 C1867 C 0.05282 0.63531 1.11428
 C1868 C 0.04922 0.61978 1.09791
 H1869 H 0.07006 0.64120 1.11739
 H1870 H 0.06378 0.61400 1.08897
 H1871 H 0.05562 0.66867 1.14148
 H1872 H -0.01578 0.66858 1.15799
 H1873 H -0.03370 0.59319 1.07605
 H1874 H 0.03874 0.59261 1.06594
 H1875 H -0.02266 0.63775 1.13370
 H1876 H -0.02882 0.61785 1.10616
 C1877 C 0.46204 0.66256 -0.09665
 C1878 C 0.47929 0.66559 -0.11190
 C1879 C 0.47896 0.68484 -0.12535
 C1880 C 0.46168 0.70156 -0.12403
 C1881 C 0.44353 0.69744 -0.11006
 C1882 C 0.44377 0.67828 -0.09646
 C1883 C 0.46435 0.64297 -0.08118
 C1884 C 0.44936 0.63952 -0.06412
 C1885 C 0.45290 0.62141 -0.04969
 C1886 C 0.47143 0.60640 -0.05199
 C1887 C 0.48627 0.60971 -0.06901
 C1888 C 0.48304 0.62781 -0.08338
 C1889 C 0.49709 0.64968 -0.11345
 C1890 C 0.49879 0.63102 -0.09960
 H1891 H 0.51009 0.65187 -0.12538
 H1892 H 0.51303 0.61928 -0.10127
 H1893 H 0.49230 0.68668 -0.13699
 H1894 H 0.42983 0.70978 -0.10845
 H1895 H 0.44114 0.61919 -0.03673
 H1896 H 0.50070 0.59829 -0.07108
 H1897 H 0.42979 0.67641 -0.08563
 H1898 H 0.43502 0.65073 -0.06149
 C1899 C -0.02426 1.15606 0.40050
 C1900 C -0.04187 1.17203 0.40445
 C1901 C -0.04369 1.19224 0.39218
 C1902 C -0.02768 1.19730 0.37630
 C1903 C -0.01054 1.18100 0.37226
 C1904 C -0.00892 1.16070 0.38404
 C1905 C -0.02208 1.13538 0.41460
 C1906 C -0.00504 1.11867 0.41185
 C1907 C -0.00262 1.10053 0.42611
 C1908 C -0.01720 1.09833 0.44347
 C1909 C -0.03484 1.11437 0.44598
 C1910 C -0.03734 1.13290 0.43168
 C1911 C -0.05704 1.16818 0.42110
 C1912 C -0.05475 1.14907 0.43452
 H1913 H -0.07059 1.18041 0.42409
 H1914 H -0.06659 1.14708 0.44746
 H1915 H -0.05671 1.20471 0.39614
 H1916 H 0.00151 1.18359 0.35959
 H1917 H 0.01094 1.08822 0.42349
 H1918 H -0.04638 1.11269 0.45919
 H1919 H 0.00474 1.14914 0.38008
 H1920 H 0.00680 1.11926 0.39895
 C1921 C 0.77119 0.70381 0.90092
 C1922 C 0.78687 0.68593 0.90571
 C1923 C 0.78710 0.67539 0.92577
 C1924 C 0.77209 0.68247 0.94176
 C1925 C 0.75734 0.70117 0.93701
 C1926 C 0.75681 0.71153 0.91701
 C1927 C 0.77043 0.71342 0.87881
 C1928 C 0.75425 0.72992 0.87181
 C1929 C 0.75333 0.73697 0.85058
 C1930 C 0.76861 0.72789 0.83590
 C1931 C 0.78537 0.71227 0.84304
 C1932 C 0.78611 0.70470 0.86406
 C1933 C 0.80210 0.67835 0.89036
 C1934 C 0.80191 0.68773 0.87007
 H1935 H 0.81431 0.66483 0.89405
 H1936 H 0.81393 0.68109 0.85872
 H1937 H 0.79837 0.66082 0.92824
 H1938 H 0.74642 0.70857 0.94883
 H1939 H 0.74018 0.74896 0.84556
 H1940 H 0.79743 0.70510 0.83199
 H1941 H 0.74509 0.72567 0.91452
 H1942 H 0.74174 0.73704 0.88229
 C1943 C 0.27745 0.19700 0.40234
 C1944 C 0.25673 0.19250 0.41278
 C1945 C 0.25676 0.18156 0.43268
 C1946 C 0.27730 0.17521 0.44300
 C1947 C 0.29784 0.18026 0.43246
 C1948 C 0.29793 0.19089 0.41258
 C1949 C 0.27660 0.20765 0.38064
 C1950 C 0.29621 0.21126 0.36836
 C1951 C 0.29440 0.21932 0.34761
 C1952 C 0.27311 0.22447 0.33866
 C1953 C 0.25352 0.22213 0.35101
 C1954 C 0.25508 0.21331 0.37176
 C1955 C 0.23600 0.19876 0.40324
 C1956 C 0.23520 0.20912 0.38327
 H1957 H 0.22008 0.19549 0.41130
 H1958 H 0.21872 0.21339 0.37653
 H1959 H 0.24045 0.17724 0.43951
 H1960 H 0.31421 0.17693 0.43975
 H1961 H 0.30973 0.22095 0.33828
 H1962 H 0.23698 0.22568 0.34400
 H1963 H 0.31431 0.19437 0.40564
 H1964 H 0.31305 0.20723 0.37415
 C1965 C 0.72394 0.29560 0.39790
 C1966 C 0.74033 0.28814 0.41288
 C1967 C 0.73980 0.29675 0.43367
 C1968 C 0.72381 0.31373 0.43950
 C1969 C 0.70844 0.32184 0.42404
 C1970 C 0.70832 0.31282 0.40371
 C1971 C 0.72470 0.28587 0.37606
 C1972 C 0.70762 0.29035 0.36098
 C1973 C 0.70997 0.28290 0.34030
 C1974 C 0.72939 0.27070 0.33389
 C1975 C 0.74568 0.26436 0.34927
 C1976 C 0.74329 0.27169 0.37040
 C1977 C 0.75753 0.27279 0.40675
 C1978 C 0.75933 0.26524 0.38585
 H1979 H 0.77027 0.26714 0.41811
 H1980 H 0.77341 0.25409 0.38177
 H1981 H 0.75194 0.29025 0.44519
 H1982 H 0.69660 0.33562 0.42747
 H1983 H 0.69667 0.28740 0.32908
 H1984 H 0.76053 0.25455 0.34469
 H1985 H 0.69628 0.32011 0.39260
 H1986 H 0.69238 0.29979 0.36477
 C1987 C 0.23295 0.80252 0.89581
 C1988 C 0.21753 0.82056 0.90040
 C1989 C 0.21688 0.83031 0.92068
 C1990 C 0.23132 0.82241 0.93712
 C1991 C 0.24632 0.80403 0.93236
 C1992 C 0.24716 0.79435 0.91218
 C1993 C 0.23344 0.79306 0.87368
 C1994 C 0.24861 0.77561 0.86705
 C1995 C 0.24863 0.76800 0.84602
 C1996 C 0.23349 0.77752 0.83108
 C1997 C 0.21813 0.79461 0.83777
 C1998 C 0.21811 0.80249 0.85864
 C1999 C 0.20283 0.82901 0.88466
 C2000 C 0.20302 0.82009 0.86432
 H2001 H 0.19094 0.84277 0.88812
 H2002 H 0.19129 0.82731 0.85275
 H2003 H 0.20563 0.84484 0.92309
 H2004 H 0.25707 0.79623 0.94435
 H2005 H 0.26075 0.75491 0.84139
 H2006 H 0.20623 0.80225 0.82659
 H2007 H 0.25893 0.78031 0.90977
 H2008 H 0.26078 0.76786 0.87779
 C2009 C 0.28780 0.78228 0.09467
 C2010 C 0.26890 0.78108 0.08086
 C2011 C 0.26950 0.79255 0.06107
 C2012 C 0.28844 0.80639 0.05499
 C2013 C 0.30669 0.80796 0.06960
 C2014 C 0.30650 0.79604 0.08880
 C2015 C 0.28657 0.77012 0.11565
 C2016 C 0.30524 0.76899 0.12962
 C2017 C 0.30272 0.75989 0.14987
 C2018 C 0.28161 0.75142 0.15684
 C2019 C 0.26333 0.75048 0.14239
 C2020 C 0.26575 0.75972 0.12178
 C2021 C 0.24921 0.76910 0.08723
 C2022 C 0.24750 0.75912 0.10740
 H2023 H 0.23458 0.76814 0.07676
 H2024 H 0.23161 0.75087 0.11182
 H2025 H 0.25510 0.79029 0.05059
 H2026 H 0.32104 0.81937 0.06705
 H2027 H 0.31732 0.76021 0.16042
 H2028 H 0.24701 0.74369 0.14747
 H2029 H 0.32088 0.79866 0.09919
 H2030 H 0.32188 0.77540 0.12538
 C2031 C 0.78150 0.28667 0.60031
 C2032 C 0.76441 0.28090 0.58542
 C2033 C 0.76517 0.29039 0.56482
 C2034 C 0.78213 0.30666 0.55914
 C2035 C 0.79828 0.31303 0.57454
 C2036 C 0.79816 0.30308 0.59463
 C2037 C 0.78031 0.27627 0.62201
 C2038 C 0.79779 0.27923 0.63700
 C2039 C 0.79503 0.27151 0.65766
 C2040 C 0.77484 0.26050 0.66410
 C2041 C 0.75808 0.25551 0.64880
 C2042 C 0.76083 0.26320 0.62771
 C2043 C 0.74628 0.26645 0.59153
 C2044 C 0.74422 0.25830 0.61234
 H2045 H 0.73303 0.26207 0.58025
 H2046 H 0.72943 0.24797 0.61643
 H2047 H 0.75238 0.28525 0.55338
 H2048 H 0.81089 0.32630 0.57136
 H2049 H 0.80863 0.27491 0.66888
 H2050 H 0.74259 0.24663 0.65344
 H2051 H 0.81083 0.30913 0.60570
 H2052 H 0.81363 0.28774 0.63318
 C2053 C 0.22680 0.20809 0.60333
 C2054 C 0.21085 0.19018 0.59922
 C2055 C 0.20908 0.18055 0.57906
 C2056 C 0.22277 0.18850 0.56245
 C2057 C 0.23846 0.20642 0.56639
 C2058 C 0.24048 0.21612 0.58655
 C2059 C 0.22845 0.21735 0.62544
 C2060 C 0.24403 0.23478 0.63169
 C2061 C 0.24511 0.24221 0.65274
 C2062 C 0.23069 0.23245 0.66802
 C2063 C 0.21493 0.21543 0.66173
 C2064 C 0.21379 0.20780 0.64087
 C2065 C 0.19678 0.18172 0.61526
 C2066 C 0.19816 0.19039 0.63560
 H2067 H 0.18453 0.16807 0.61205
 H2068 H 0.18693 0.18315 0.64748
 H2069 H 0.19726 0.16637 0.57644
 H2070 H 0.24914 0.21304 0.55383
 H2071 H 0.25744 0.25536 0.65710
 H2072 H 0.20348 0.20775 0.67320
 H2073 H 0.25282 0.22981 0.58869
 H2074 H 0.25563 0.24268 0.62061
 C2075 C 0.71763 0.72321 0.09419
 C2076 C 0.69939 0.70752 0.09077
 C2077 C 0.69775 0.69515 0.07188
 C2078 C 0.71358 0.69855 0.05564
 C2079 C 0.73099 0.71508 0.05861
 C2080 C 0.73311 0.72712 0.07764
 C2081 C 0.71976 0.73449 0.11545
 C2082 C 0.73844 0.74854 0.12153
 C2083 C 0.74040 0.75685 0.14227
 C2084 C 0.72366 0.75151 0.15725
 C2085 C 0.70445 0.73873 0.15084
 C2086 C 0.70265 0.72978 0.13049
 C2087 C 0.68293 0.70398 0.10631
 C2088 C 0.68432 0.71516 0.12561
 H2089 H 0.66878 0.69224 0.10356
 H2090 H 0.67124 0.71164 0.13719
 H2091 H 0.68437 0.68232 0.07015
 H2092 H 0.74310 0.71876 0.04623
 H2093 H 0.75540 0.76663 0.14678
 H2094 H 0.69116 0.73470 0.16211
 H2095 H 0.74692 0.73939 0.07911
 H2096 H 0.75207 0.75254 0.11076
 C2097 C 0.16441 0.60120 0.23186
 C2098 C 0.16290 0.58970 0.21226
 C2099 C 0.15075 0.56865 0.21066
 C2100 C 0.14040 0.55848 0.22848
 C2101 C 0.14265 0.56958 0.24800
 C2102 C 0.15440 0.59061 0.24970
 C2103 C 0.17707 0.62390 0.23281
 C2104 C 0.17828 0.63731 0.25122
 C2105 C 0.19131 0.65755 0.25180
 C2106 C 0.20362 0.66522 0.23408
 C2107 C 0.20148 0.65268 0.21521
 C2108 C 0.18825 0.63216 0.21446
 C2109 C 0.17370 0.59916 0.19447
 C2110 C 0.18633 0.61972 0.19561
 H2111 H 0.17266 0.59034 0.17945
 H2112 H 0.19469 0.62601 0.18147
 H2113 H 0.14948 0.56005 0.19555
 H2114 H 0.13476 0.56225 0.26195
 H2115 H 0.19215 0.66695 0.26652
 H2116 H 0.21070 0.65840 0.20134
 H2117 H 0.15547 0.59824 0.26516
 H2118 H 0.16948 0.63240 0.26546
 C2119 C 0.66140 0.10900 0.73740
 C2120 C 0.65996 0.09861 0.71727
 C2121 C 0.64788 0.07765 0.71461
 C2122 C 0.63714 0.06661 0.73179
 C2123 C 0.63862 0.07704 0.75171
 C2124 C 0.65051 0.09787 0.75451
 C2125 C 0.67470 0.13125 0.73961
 C2126 C 0.67717 0.14291 0.75894
 C2127 C 0.69032 0.16306 0.76040
 C2128 C 0.70145 0.17243 0.74268
 C2129 C 0.69862 0.16125 0.72316
 C2130 C 0.68545 0.14079 0.72154
 C2131 C 0.67074 0.10911 0.69996
 C2132 C 0.68320 0.12966 0.70204
 H2133 H 0.66964 0.10121 0.68451
 H2134 H 0.69132 0.13690 0.68815
 H2135 H 0.64718 0.06970 0.69918
 H2136 H 0.63029 0.06920 0.76520
 H2137 H 0.69194 0.17120 0.77569
 H2138 H 0.70707 0.16816 0.70930
 H2139 H 0.65095 0.10491 0.77022
 H2140 H 0.66928 0.13667 0.77322
 C2141 C 0.84263 0.12007 0.25973
 C2142 C 0.84775 0.11151 0.28015
 C2143 C 0.86064 0.09108 0.28273
 C2144 C 0.86863 0.07844 0.26517
 C2145 C 0.86285 0.08700 0.24491
 C2146 C 0.85023 0.10737 0.24223
 C2147 C 0.82907 0.14213 0.25769
 C2148 C 0.82385 0.15248 0.23809
 C2149 C 0.81081 0.17264 0.23689
 C2150 C 0.80241 0.18330 0.25516
 C2151 C 0.80794 0.17338 0.27490
 C2152 C 0.82124 0.15300 0.27626
 C2153 C 0.83976 0.12326 0.29794
 C2154 C 0.82670 0.14340 0.29604
 H2155 H 0.84355 0.11669 0.31364
 H2156 H 0.82085 0.15164 0.31032
 H2157 H 0.86352 0.08469 0.29862
 H2158 H 0.86887 0.07865 0.23079
 H2159 H 0.80711 0.17973 0.22137
 H2160 H 0.80175 0.18135 0.28919
 H2161 H 0.84672 0.11290 0.22625
 H2162 H 0.82961 0.14530 0.22341
 C2163 C 0.33597 0.61646 0.75894
 C2164 C 0.33901 0.60675 0.77926
 C2165 C 0.35087 0.58576 0.78186
 C2166 C 0.36002 0.57375 0.76445
 C2167 C 0.35592 0.58312 0.74417
 C2168 C 0.34425 0.60412 0.74146
 C2169 C 0.32359 0.63922 0.75698
 C2170 C 0.32061 0.65088 0.73759
 C2171 C 0.30810 0.67137 0.73638
 C2172 C 0.29814 0.68106 0.75442
 C2173 C 0.30190 0.67016 0.77403
 C2174 C 0.31453 0.64939 0.77541
 C2175 C 0.33003 0.61789 0.79696
 C2176 C 0.31791 0.63859 0.79506
 H2177 H 0.33226 0.61038 0.81257
 H2178 H 0.31112 0.64630 0.80922
 H2179 H 0.35213 0.57850 0.79763
 H2180 H 0.36264 0.57497 0.73023
 H2181 H 0.30588 0.67944 0.72101
 H2182 H 0.29443 0.67739 0.78812
 H2183 H 0.34201 0.61041 0.72551
 H2184 H 0.32762 0.64437 0.72312
 C2185 C 0.33280 0.39689 0.73247
 C2186 C 0.34151 0.40748 0.75097
 C2187 C 0.35514 0.42760 0.74954
 C2188 C 0.36025 0.43762 0.72985
 C2189 C 0.35105 0.42738 0.71159
 C2190 C 0.33760 0.40736 0.71283
 C2191 C 0.31868 0.37514 0.73471
 C2192 C 0.30986 0.36268 0.71734
 C2193 C 0.29643 0.34277 0.72038
 C2194 C 0.29135 0.33475 0.74080
 C2195 C 0.30053 0.34682 0.75814
 C2196 C 0.31410 0.36670 0.75527
 C2197 C 0.33658 0.39794 0.77082
 C2198 C 0.32307 0.37814 0.77293
 H2199 H 0.34317 0.40601 0.78501
 H2200 H 0.31964 0.37161 0.78868
 H2201 H 0.36214 0.43518 0.76378
 H2202 H 0.35417 0.43497 0.69618
 H2203 H 0.28970 0.33387 0.70669
 H2204 H 0.29706 0.34079 0.77405
 H2205 H 0.33108 0.40040 0.69823
 H2206 H 0.31308 0.36804 0.70129
 C2207 C 0.83763 0.90539 0.22744
 C2208 C 0.84293 0.91768 0.24611
 C2209 C 0.85710 0.93745 0.24540
 C2210 C 0.86670 0.94530 0.22625
 C2211 C 0.86075 0.93312 0.20771
 C2212 C 0.84657 0.91364 0.20828
 C2213 C 0.82273 0.88413 0.22896
 C2214 C 0.81645 0.87053 0.21137
 C2215 C 0.80237 0.85099 0.21374
 C2216 C 0.79424 0.84440 0.23369
 C2217 C 0.80067 0.85777 0.25127
 C2218 C 0.81466 0.87742 0.24908
 C2219 C 0.83428 0.91002 0.26551
 C2220 C 0.82048 0.89037 0.26695
 H2221 H 0.83829 0.91934 0.27986
 H2222 H 0.81426 0.88522 0.28237
 H2223 H 0.86150 0.94584 0.26010
 H2224 H 0.86633 0.93898 0.19233
 H2225 H 0.79776 0.84111 0.19988
 H2226 H 0.79458 0.85309 0.26685
 H2227 H 0.84277 0.90533 0.19347
 H2228 H 0.82214 0.87472 0.19565
 C2229 C 0.65964 0.88265 0.76250
 C2230 C 0.65972 0.89361 0.78240
 C2231 C 0.64869 0.91506 0.78495
 C2232 C 0.63741 0.92602 0.76792
 C2233 C 0.63749 0.91510 0.74820
 C2234 C 0.64839 0.89378 0.74548
 C2235 C 0.67184 0.85983 0.76043
 C2236 C 0.67285 0.84755 0.74134
 C2237 C 0.68525 0.82699 0.73994
 C2238 C 0.69698 0.81782 0.75753
 C2239 C 0.69541 0.82949 0.77687
 C2240 C 0.68309 0.85040 0.77839
 C2241 C 0.67090 0.88318 0.79962
 C2242 C 0.68233 0.86212 0.79766
 H2243 H 0.67095 0.89153 0.81489
 H2244 H 0.69086 0.85497 0.81146
 H2245 H 0.64915 0.92338 0.80023
 H2246 H 0.62872 0.92287 0.73483
 H2247 H 0.68592 0.81842 0.72481
 H2248 H 0.70440 0.82276 0.79059
 H2249 H 0.64775 0.88633 0.72994
 H2250 H 0.66446 0.85367 0.72718
 C2251 C 0.16811 0.38091 0.26700
 C2252 C 0.15898 0.39110 0.24837
 C2253 C 0.14596 0.41159 0.24943
 C2254 C 0.14192 0.42240 0.26888
 C2255 C 0.15165 0.41253 0.28720
 C2256 C 0.16445 0.39215 0.28633
 C2257 C 0.18148 0.35873 0.26522
 C2258 C 0.19049 0.34663 0.28283
 C2259 C 0.20321 0.32632 0.28026
 C2260 C 0.20741 0.31745 0.26007
 C2261 C 0.19802 0.32916 0.24247
 C2262 C 0.18509 0.34949 0.24489
 C2263 C 0.16289 0.38079 0.22878
 C2264 C 0.17579 0.36060 0.22707
 H2265 H 0.15600 0.38854 0.21448
 H2266 H 0.17845 0.35350 0.21149
 H2267 H 0.13858 0.41885 0.23512
 H2268 H 0.14944 0.42068 0.30238
 H2269 H 0.21011 0.31778 0.29416
 H2270 H 0.20087 0.32253 0.22675
 H2271 H 0.17140 0.38555 0.30098
 H2272 H 0.18797 0.35257 0.29873
 C2273 C 0.07993 0.27491 0.83067
 C2274 C 0.07589 0.25886 0.84727
 C2275 C 0.05622 0.26059 0.85939
 C2276 C 0.04040 0.27818 0.85535
 C2277 C 0.04410 0.29382 0.83870
 C2278 C 0.06360 0.29221 0.82642
 C2279 C 0.10164 0.27301 0.81868
 C2280 C 0.10757 0.28836 0.80217
 C2281 C 0.12832 0.28616 0.79185
 C2282 C 0.14362 0.26865 0.79778
 C2283 C 0.13773 0.25316 0.81402
 C2284 C 0.11702 0.25521 0.82447
 C2285 C 0.09166 0.24143 0.85197
 C2286 C 0.11181 0.23962 0.84078
 H2287 H 0.08847 0.22913 0.86464
 H2288 H 0.12361 0.22595 0.84511
 H2289 H 0.05358 0.24866 0.87247
 H2290 H 0.03190 0.30739 0.83524
 H2291 H 0.13244 0.29831 0.77931
 H2292 H 0.14931 0.23938 0.81864
 H2293 H 0.06561 0.30480 0.81390
 H2294 H 0.09656 0.30224 0.79702
 C2295 C 0.58832 0.79011 0.33327
 C2296 C 0.58777 0.77657 0.35202
 C2297 C 0.56764 0.77460 0.36348
 C2298 C 0.54795 0.78595 0.35659
 C2299 C 0.54863 0.80024 0.33865
 C2300 C 0.56861 0.80232 0.32705
 C2301 C 0.60961 0.79007 0.32052
 C2302 C 0.61152 0.80164 0.30091
 C2303 C 0.63113 0.79939 0.28882
 C2304 C 0.64921 0.78564 0.29606
 C2305 C 0.64790 0.77504 0.31600
 C2306 C 0.62827 0.77690 0.32810
 C2307 C 0.60711 0.76464 0.35902
 C2308 C 0.62702 0.76491 0.34734
 H2309 H 0.60671 0.75455 0.37352
 H2310 H 0.64145 0.75501 0.35316
 H2311 H 0.56714 0.76393 0.37765
 H2312 H 0.53349 0.80925 0.33328
 H2313 H 0.63185 0.80789 0.27352
 H2314 H 0.66198 0.76470 0.32193
 H2315 H 0.56810 0.81321 0.31315
 H2316 H 0.59791 0.81199 0.29436
 C2317 C 0.61748 0.23612 0.13512
 C2318 C 0.60546 0.21487 0.13619
 C2319 C 0.58651 0.21130 0.12318
 C2320 C 0.57905 0.22879 0.10931
 C2321 C 0.59217 0.24892 0.10685
 C2322 C 0.61132 0.25252 0.11948
 C2323 C 0.63518 0.24079 0.15155
 C2324 C 0.64626 0.26234 0.15326
 C2325 C 0.66147 0.26646 0.16971
 C2326 C 0.66610 0.24920 0.18485
 C2327 C 0.65537 0.22757 0.18317
 C2328 C 0.63985 0.22331 0.16679
 C2329 C 0.61152 0.19789 0.15108
 C2330 C 0.62854 0.20195 0.16597
 H2331 H 0.60251 0.18147 0.15163
 H2332 H 0.63229 0.18850 0.17751
 H2333 H 0.57642 0.19567 0.12525
 H2334 H 0.58693 0.26239 0.09585
 H2335 H 0.66965 0.28329 0.17049
 H2336 H 0.65900 0.21401 0.19465
 H2337 H 0.62043 0.26860 0.11731
 H2338 H 0.64322 0.27641 0.14232
 C2339 C 0.08766 0.72613 0.65986
 C2340 C 0.08341 0.74200 0.64312
 C2341 C 0.06370 0.73991 0.63083
 C2342 C 0.04800 0.72218 0.63489
 C2343 C 0.05229 0.70620 0.65117
 C2344 C 0.07188 0.70811 0.66357
 C2345 C 0.10872 0.72933 0.67289
 C2346 C 0.11437 0.71490 0.69022
 C2347 C 0.13419 0.71883 0.70194
 C2348 C 0.14880 0.73719 0.69664
 C2349 C 0.14329 0.75158 0.67940
 C2350 C 0.12349 0.74787 0.66761
 C2351 C 0.09878 0.75993 0.63872
 C2352 C 0.11846 0.76276 0.65069
 H2353 H 0.09551 0.77199 0.62585
 H2354 H 0.12985 0.77693 0.64671
 H2355 H 0.06058 0.75205 0.61798
 H2356 H 0.04023 0.69243 0.65456
 H2357 H 0.13806 0.70746 0.71516
 H2358 H 0.15438 0.76588 0.67508
 H2359 H 0.07425 0.69542 0.67596
 H2360 H 0.10374 0.70057 0.69504
 C2361 C 0.88364 0.77580 0.64094
 C2362 C 0.88961 0.75767 0.62721
 C2363 C 0.90863 0.76005 0.61422
 C2364 C 0.92223 0.78017 0.61496
 C2365 C 0.91422 0.79926 0.62651
 C2366 C 0.89517 0.79710 0.63930
 C2367 C 0.86616 0.77109 0.65738
 C2368 C 0.86173 0.78663 0.67388
 C2369 C 0.84641 0.78078 0.68974
 C2370 C 0.83513 0.75934 0.68948
 C2371 C 0.83939 0.74380 0.67305
 C2372 C 0.85496 0.74937 0.65723
 C2373 C 0.87726 0.73688 0.62727
 C2374 C 0.85999 0.73296 0.64179
 H2375 H 0.88146 0.72319 0.61635
 H2376 H 0.85120 0.71641 0.64156
 H2377 H 0.91328 0.74577 0.60411
 H2378 H 0.92371 0.81531 0.62755
 H2379 H 0.84332 0.79316 0.70215
 H2380 H 0.83080 0.72714 0.67264
 H2381 H 0.89045 0.81197 0.64848
 H2382 H 0.87021 0.80318 0.67512
 C2383 C 0.41253 0.26584 0.16416
 C2384 C 0.41605 0.25103 0.14676
 C2385 C 0.43479 0.25456 0.13357
 C2386 C 0.44997 0.27286 0.13731
 C2387 C 0.44656 0.28743 0.15455
 C2388 C 0.42812 0.28399 0.16785
 C2389 C 0.39217 0.26175 0.17767
 C2390 C 0.38728 0.27545 0.19537
 C2391 C 0.36780 0.27135 0.20718
 C2392 C 0.35269 0.25347 0.20174
 C2393 C 0.35757 0.23949 0.18433
 C2394 C 0.37713 0.24348 0.17231
 C2395 C 0.40071 0.23303 0.14247
 C2396 C 0.38160 0.22937 0.15495
 H2397 H 0.40342 0.22170 0.12916
 H2398 H 0.37010 0.21533 0.15091
 H2399 H 0.43732 0.24339 0.12010
 H2400 H 0.45832 0.30148 0.15781
 H2401 H 0.36454 0.28236 0.22059
 H2402 H 0.34606 0.22557 0.17996
 H2403 H 0.42640 0.29584 0.18080
 H2404 H 0.39815 0.28948 0.20037
 C2405 C 0.39924 0.69637 0.34824
 C2406 C 0.40035 0.71080 0.36621
 C2407 C 0.41997 0.71107 0.37878
 C2408 C 0.43881 0.69772 0.37328
 C2409 C 0.43693 0.68172 0.35686
 C2410 C 0.41725 0.68089 0.34451
 C2411 C 0.38005 0.69985 0.33299
 C2412 C 0.37850 0.68806 0.31361
 C2413 C 0.36182 0.69400 0.29879
 C2414 C 0.34642 0.71185 0.30294
 C2415 C 0.34721 0.72291 0.32255
 C2416 C 0.36379 0.71711 0.33751
 C2417 C 0.38271 0.72620 0.37060
 C2418 C 0.36472 0.72926 0.35653
 H2419 H 0.38339 0.73688 0.38460
 H2420 H 0.35191 0.74211 0.36013
 H2421 H 0.42137 0.72313 0.39178
 H2422 H 0.45133 0.67113 0.35253
 H2423 H 0.36131 0.68495 0.28387
 H2424 H 0.33522 0.73657 0.32604
 H2425 H 0.41708 0.66900 0.33147
 H2426 H 0.39028 0.67462 0.30934
 C2427 C 0.88028 0.22527 0.86763
 C2428 C 0.89319 0.20468 0.86709
 C2429 C 0.91207 0.20223 0.88041
 C2430 C 0.91845 0.22034 0.89392
 C2431 C 0.90369 0.23905 0.89664
 C2432 C 0.88457 0.24143 0.88375
 C2433 C 0.86406 0.22986 0.84997
 C2434 C 0.85395 0.25167 0.84687
 C2435 C 0.84042 0.25591 0.82925
 C2436 C 0.83638 0.23848 0.81435
 C2437 C 0.84643 0.21667 0.81721
 C2438 C 0.86055 0.21239 0.83469
 C2439 C 0.88831 0.18757 0.85215
 C2440 C 0.87193 0.19118 0.83649
 H2441 H 0.89785 0.17152 0.85210
 H2442 H 0.86909 0.17771 0.82493
 H2443 H 0.92321 0.18747 0.87839
 H2444 H 0.90794 0.25277 0.90759
 H2445 H 0.83290 0.27294 0.82748
 H2446 H 0.84340 0.20308 0.80579
 H2447 H 0.87421 0.25662 0.88585
 H2448 H 0.85667 0.26588 0.85755
 C2449 C 0.55412 1.00995 0.65456
 C2450 C 0.55853 1.03254 0.66207
 C2451 C 0.57293 1.03584 0.67971
 C2452 C 0.58327 1.01687 0.69033
 C2453 C 0.57849 0.99447 0.68262
 C2454 C 0.56426 0.99107 0.66518
 C2455 C 0.53948 1.00717 0.63518
 C2456 C 0.53493 0.98544 0.62603
 C2457 C 0.52340 0.98391 0.60677
 C2458 C 0.51558 1.00386 0.59631
 C2459 C 0.51852 1.02551 0.60594
 C2460 C 0.53072 1.02733 0.62513
 C2461 C 0.54869 1.05173 0.65182
 C2462 C 0.53513 1.04920 0.63376
 H2463 H 0.55187 1.06908 0.65761
 H2464 H 0.52839 1.06466 0.62618
 H2465 H 0.57530 1.05332 0.68544
 H2466 H 0.58652 0.97925 0.68935
 H2467 H 0.52135 0.96705 0.59956
 H2468 H 0.51285 1.04105 0.59775
 H2469 H 0.56176 0.97345 0.66012
 H2470 H 0.54084 0.96944 0.63301
 C2471 C 0.04702 0.51157 1.15689
 C2472 C 0.05213 0.53324 1.16612
 C2473 C 0.06730 0.53448 1.18339
 C2474 C 0.07826 0.51447 1.19126
 C2475 C 0.07307 0.49305 1.18199
 C2476 C 0.05764 0.49156 1.16519
 C2477 C 0.03168 0.51108 1.13783
 C2478 C 0.02562 0.49036 1.12759
 C2479 C 0.01426 0.49093 1.10822
 C2480 C 0.00815 0.51206 1.09875
 C2481 C 0.01203 0.53274 1.10973
 C2482 C 0.02394 0.53240 1.12915
 C2483 C 0.04271 0.55361 1.15758
 C2484 C 0.02917 0.55324 1.13935
 H2485 H 0.04653 0.57023 1.16466
 H2486 H 0.02311 0.56957 1.13290
 H2487 H 0.07079 0.55115 1.19050
 H2488 H 0.08145 0.47736 1.18734
 H2489 H 0.01135 0.47478 1.09997
 H2490 H 0.00755 0.54915 1.10237
 H2491 H 0.05480 0.47462 1.15859
 H2492 H 0.03030 0.47356 1.13378
 C2493 C -0.04070 -0.01491 1.15528
 C2494 C -0.04956 0.00613 1.16313
 C2495 C -0.06313 0.00613 1.18141
 C2496 C -0.06943 -0.01482 1.19145
 C2497 C -0.05995 -0.03555 1.18376
 C2498 C -0.04575 -0.03560 1.16617
 C2499 C -0.02770 -0.01439 1.13490
 C2500 C -0.01773 -0.03425 1.12591
 C2501 C -0.00826 -0.03332 1.10567
 C2502 C -0.00862 -0.01264 1.09393
 C2503 C -0.01695 0.00755 1.10336
 C2504 C -0.02628 0.00688 1.12372
 C2505 C -0.04595 0.02689 1.15200
 C2506 C -0.03489 0.02720 1.13258
 H2507 H -0.05263 0.04304 1.15795
 H2508 H -0.03343 0.04357 1.12418
 H2509 H -0.07037 0.02236 1.18657
 H2510 H -0.06316 -0.05201 1.19152
 H2511 H -0.00188 -0.04911 1.09871
 H2512 H -0.01698 0.02370 1.09446
 H2513 H -0.03947 -0.05214 1.16100
 H2514 H -0.01764 -0.05078 1.13399
 C2515 C 0.45079 0.48073 0.65597
 C2516 C 0.44158 0.50148 0.66403
 C2517 C 0.42782 0.50097 0.68216
 C2518 C 0.42189 0.47981 0.69206
 C2519 C 0.43149 0.45931 0.68398
 C2520 C 0.44574 0.45975 0.66641
 C2521 C 0.46441 0.48189 0.63594
 C2522 C 0.47489 0.46238 0.62684
 C2523 C 0.48538 0.46404 0.60708
 C2524 C 0.48557 0.48511 0.59591
 C2525 C 0.47650 0.50490 0.60546
 C2526 C 0.46614 0.50350 0.62534
 C2527 C 0.44524 0.52254 0.65340
 C2528 C 0.45695 0.52347 0.63434
 H2529 H 0.43824 0.53848 0.65952
 H2530 H 0.45858 0.54009 0.62637
 H2531 H 0.42037 0.51705 0.68743
 H2532 H 0.42850 0.44268 0.69149
 H2533 H 0.49229 0.44854 0.60005
 H2534 H 0.47688 0.52136 0.59706
 H2535 H 0.45223 0.44339 0.66101
 H2536 H 0.47471 0.44561 0.63448
 C2537 C 0.42825 0.52713 -0.14744
 C2538 C 0.44223 0.52465 -0.16539
 C2539 C 0.43234 0.52427 -0.18576
 C2540 C 0.40867 0.52660 -0.18835
 C2541 C 0.39494 0.52829 -0.17048
 C2542 C 0.40448 0.52843 -0.15033
 C2543 C 0.43931 0.52829 -0.12607
 C2544 C 0.42669 0.53140 -0.10754
 C2545 C 0.43738 0.53134 -0.08793
 C2546 C 0.46098 0.52845 -0.08604
 C2547 C 0.47408 0.52646 -0.10440
 C2548 C 0.46331 0.52619 -0.12445
 C2549 C 0.46592 0.52290 -0.16283
 C2550 C 0.47621 0.52355 -0.14282
 H2551 H 0.47670 0.52097 -0.17651
 H2552 H 0.49456 0.52197 -0.14174
 H2553 H 0.44302 0.52304 -0.19959
 H2554 H 0.37664 0.52996 -0.17219
 H2555 H 0.42698 0.53329 -0.07399
 H2556 H 0.49235 0.52425 -0.10303
 H2557 H 0.39284 0.52984 -0.13734
 H2558 H 0.40850 0.53368 -0.10767
 C2559 C -0.05243 1.02712 0.34735
 C2560 C -0.06607 1.00861 0.33977
 C2561 C -0.07804 1.01088 0.32055
 C2562 C -0.07726 1.03165 0.30888
 C2563 C -0.06373 1.04996 0.31640
 C2564 C -0.05140 1.04774 0.33529
 C2565 C -0.04049 1.02421 0.36832
 C2566 C -0.02608 1.04126 0.37714
 C2567 C -0.01676 1.03835 0.39741
 C2568 C -0.02161 1.01844 0.40945
 C2569 C -0.03499 1.00086 0.40034
 C2570 C -0.04432 1.00353 0.37997
 C2571 C -0.06825 0.98820 0.35172
 C2572 C -0.05783 0.98582 0.37145
 H2573 H -0.07866 0.97402 0.34595
 H2574 H -0.06057 0.96989 0.38028
 H2575 H -0.08869 0.99675 0.31503
 H2576 H -0.06269 1.06611 0.30761
 H2577 H -0.00651 1.05219 0.40399
 H2578 H -0.03866 0.98525 0.40935
 H2579 H -0.04151 1.06251 0.34034
 H2580 H -0.02212 1.05714 0.36882
 C2581 C 0.05705 0.47182 0.34571
 C2582 C 0.07041 0.49073 0.33842
 C2583 C 0.08324 0.48877 0.31987
 C2584 C 0.08361 0.46796 0.30858
 C2585 C 0.07035 0.44923 0.31578
 C2586 C 0.05716 0.45112 0.33401
 C2587 C 0.04427 0.47442 0.36607
 C2588 C 0.03004 0.45698 0.37460
 C2589 C 0.02003 0.45966 0.39446
 C2590 C 0.02409 0.47967 0.40638
 C2591 C 0.03714 0.49764 0.39744
 C2592 C 0.04711 0.49523 0.37750
 C2593 C 0.07151 0.51125 0.35004
 C2594 C 0.06033 0.51336 0.36924
 H2595 H 0.08169 0.52574 0.34447
 H2596 H 0.06227 0.52939 0.37789
 H2597 H 0.09369 0.50322 0.31465
 H2598 H 0.07021 0.43303 0.30726
 H2599 H 0.00987 0.44565 0.40085
 H2600 H 0.04011 0.51338 0.40630
 H2601 H 0.04754 0.43607 0.33888
 H2602 H 0.02676 0.44099 0.36638
 C2603 C 0.56317 -0.01548 -0.15007
 C2604 C 0.56198 -0.03705 -0.16052
 C2605 C 0.57427 -0.04049 -0.17923
 C2606 C 0.58797 -0.02275 -0.18776
 C2607 C 0.58890 -0.00134 -0.17744
 C2608 C 0.57671 0.00230 -0.15891
 C2609 C 0.55051 -0.01280 -0.12969
 C2610 C 0.55118 0.00772 -0.11778
 C2611 C 0.54089 0.00869 -0.09803
 C2612 C 0.52931 -0.01058 -0.08965
 C2613 C 0.52728 -0.03063 -0.10195
 C2614 C 0.53803 -0.03198 -0.12172
 C2615 C 0.54877 -0.05514 -0.15211
 C2616 C 0.53709 -0.05267 -0.13315
 H2617 H 0.54773 -0.07163 -0.16015
 H2618 H 0.52749 -0.06734 -0.12715
 H2619 H 0.57311 -0.05701 -0.18721
 H2620 H 0.59947 0.01258 -0.18350
 H2621 H 0.54259 0.02445 -0.08895
 H2622 H 0.51850 -0.04565 -0.09562
 H2623 H 0.57836 0.01908 -0.15169
 H2624 H 0.56010 0.02302 -0.12310
 C2625 C 0.62557 0.62800 -0.00524
 C2626 C 0.62830 0.64019 0.01388
 C2627 C 0.64910 0.65088 0.01895
 C2628 C 0.66779 0.65077 0.00498
 C2629 C 0.66437 0.63948 -0.01460
 C2630 C 0.64380 0.62818 -0.01951
 C2631 C 0.60353 0.61507 -0.00900
 C2632 C 0.59948 0.60038 -0.02646
 C2633 C 0.57939 0.58701 -0.02785
 C2634 C 0.56295 0.58822 -0.01195
 C2635 C 0.56626 0.60398 0.00456
 C2636 C 0.58637 0.61681 0.00645
 C2637 C 0.61034 0.64146 0.02823
 C2638 C 0.58974 0.63033 0.02444
 H2639 H 0.61229 0.65110 0.04276
 H2640 H 0.57651 0.63165 0.03621
 H2641 H 0.65059 0.65820 0.03452
 H2642 H 0.67727 0.63943 -0.02664
 H2643 H 0.57726 0.57492 -0.04071
 H2644 H 0.55351 0.60531 0.01681
 H2645 H 0.64244 0.61975 -0.03462
 H2646 H 0.61201 0.59831 -0.03867
 C2647 C 0.13193 1.12405 0.50049
 C2648 C 0.14934 1.12424 0.48529
 C2649 C 0.17017 1.13562 0.48969
 C2650 C 0.17472 1.14502 0.50991
 C2651 C 0.15762 1.14279 0.52531
 C2652 C 0.13654 1.13301 0.52060
 C2653 C 0.10989 1.11237 0.49534
 C2654 C 0.09068 1.11473 0.50812
 C2655 C 0.07154 1.10111 0.50465
 C2656 C 0.07095 1.08465 0.48842
 C2657 C 0.08897 1.08413 0.47391
 C2658 C 0.10841 1.09834 0.47716
 C2659 C 0.14615 1.11198 0.46639
 C2660 C 0.12651 1.09856 0.46279
 H2661 H 0.15953 1.11175 0.45470
 H2662 H 0.12542 1.08838 0.44852
 H2663 H 0.18278 1.13655 0.47738
 H2664 H 0.16041 1.14790 0.54148
 H2665 H 0.05744 1.10267 0.51548
 H2666 H 0.08843 1.07201 0.46093
 H2667 H 0.12441 1.13159 0.53327
 H2668 H 0.09031 1.12669 0.52114
 C2669 C 0.15224 -0.10517 1.00338
 C2670 C 0.16451 -0.10023 0.98465
 C2671 C 0.18346 -0.11361 0.97915
 C2672 C 0.19103 -0.13178 0.99216
 C2673 C 0.17952 -0.13623 1.01114
 C2674 C 0.16024 -0.12324 1.01664
 C2675 C 0.13121 -0.09103 1.00790
 C2676 C 0.11654 -0.09513 1.02522
 C2677 C 0.09624 -0.08237 1.02753
 C2678 C 0.09026 -0.06520 1.01270
 C2679 C 0.10548 -0.06026 0.99623
 C2680 C 0.12539 -0.07311 0.99349
 C2681 C 0.15785 -0.08198 0.97137
 C2682 C 0.13888 -0.06860 0.97579
 H2683 H 0.16740 -0.07805 0.95719
 H2684 H 0.13435 -0.05482 0.96482
 H2685 H 0.19254 -0.10977 0.96467
 H2686 H 0.18518 -0.15010 1.02151
 H2687 H 0.08480 -0.08662 1.04033
 H2688 H 0.10128 -0.04682 0.98479
 H2689 H 0.15179 -0.12756 1.03123
 H2690 H 0.12012 -0.10860 1.03668
 C2691 C 0.63971 0.37753 0.50917
 C2692 C 0.64053 0.36497 0.49016
 C2693 C 0.66051 0.35356 0.48414
 C2694 C 0.68051 0.35352 0.49684
 C2695 C 0.67890 0.36530 0.51641
 C2696 C 0.65907 0.37711 0.52234
 C2697 C 0.61843 0.39114 0.51394
 C2698 C 0.61616 0.40608 0.53145
 C2699 C 0.59672 0.42014 0.53366
 C2700 C 0.57917 0.41939 0.51856
 C2701 C 0.58069 0.40338 0.50208
 C2702 C 0.60011 0.38981 0.49938
 C2703 C 0.62145 0.36406 0.47681
 C2704 C 0.60163 0.37596 0.48144
 H2705 H 0.62192 0.35419 0.46232
 H2706 H 0.58753 0.37496 0.47035
 H2707 H 0.65985 0.34543 0.46895
 H2708 H 0.69279 0.36601 0.52756
 H2709 H 0.59599 0.43242 0.54648
 H2710 H 0.56708 0.40247 0.49043
 H2711 H 0.65924 0.38594 0.53730
 H2712 H 0.62959 0.40779 0.54305
 C2713 C -0.13127 0.37509 0.49678
 C2714 C -0.14857 0.37429 0.48125
 C2715 C -0.16913 0.36225 0.48548
 C2716 C -0.17341 0.35260 0.50574
 C2717 C -0.15657 0.35571 0.52145
 C2718 C -0.13582 0.36622 0.51699
 C2719 C -0.10942 0.38722 0.49179
 C2720 C -0.09026 0.38538 0.50500
 C2721 C -0.07128 0.39922 0.50151
 C2722 C -0.07074 0.41539 0.48482
 C2723 C -0.08874 0.41547 0.47000
 C2724 C -0.10804 0.40103 0.47329
 C2725 C -0.14550 0.38650 0.46216
 C2726 C -0.12608 0.40030 0.45862
 H2727 H -0.15878 0.38631 0.45021
 H2728 H -0.12508 0.41035 0.44413
 H2729 H -0.18173 0.36090 0.47303
 H2730 H -0.15936 0.35062 0.53767
 H2731 H -0.05724 0.39803 0.51265
 H2732 H -0.08826 0.42738 0.45670
 H2733 H -0.12388 0.36819 0.52989
 H2734 H -0.08979 0.37361 0.51833
 C2735 C 0.37581 -0.12192 -0.00276
 C2736 C 0.35842 -0.12150 -0.01821
 C2737 C 0.33767 -0.13341 -0.01449
 C2738 C 0.33332 -0.14424 0.00527
 C2739 C 0.35031 -0.14244 0.02102
 C2740 C 0.37122 -0.13198 0.01699
 C2741 C 0.39786 -0.10988 -0.00728
 C2742 C 0.41707 -0.11275 0.00572
 C2743 C 0.43631 -0.09911 0.00271
 C2744 C 0.43707 -0.08209 -0.01327
 C2745 C 0.41896 -0.08089 -0.02794
 C2746 C 0.39940 -0.09511 -0.02516
 C2747 C 0.36160 -0.10825 -0.03671
 C2748 C 0.38126 -0.09466 -0.03973
 H2749 H 0.34824 -0.10751 -0.04858
 H2750 H 0.38236 -0.08385 -0.05374
 H2751 H 0.32500 -0.13378 -0.02693
 H2752 H 0.34750 -0.14860 0.03694
 H2753 H 0.45039 -0.10115 0.01370
 H2754 H 0.41956 -0.06830 -0.04071
 H2755 H 0.38327 -0.13106 0.02991
 H2756 H 0.41739 -0.12520 0.01854
 C2757 C 0.35252 1.09668 0.50861
 C2758 C 0.33898 1.09205 0.49049
 C2759 C 0.32068 1.10652 0.48509
 C2760 C 0.31515 1.12552 0.49761
 C2761 C 0.32783 1.12967 0.51605
 C2762 C 0.34642 1.11553 0.52146
 C2763 C 0.37295 1.08154 0.51287
 C2764 C 0.38870 1.08529 0.52953
 C2765 C 0.40854 1.07177 0.53145
 C2766 C 0.41295 1.05421 0.51687
 C2767 C 0.39663 1.04952 0.50117
 C2768 C 0.37711 1.06311 0.49883
 C2769 C 0.34385 1.07313 0.47765
 C2770 C 0.36237 1.05886 0.48183
 H2771 H 0.33331 1.06943 0.46396
 H2772 H 0.36559 1.04465 0.47118
 H2773 H 0.31062 1.10301 0.47104
 H2774 H 0.32365 1.14420 0.52602
 H2775 H 0.42089 1.07575 0.54368
 H2776 H 0.39970 1.03575 0.48997
 H2777 H 0.35587 1.11968 0.53560
 H2778 H 0.38638 1.09907 0.54073
 C2779 C -0.15204 0.60536 1.00726
 C2780 C -0.16412 0.60161 0.98812
 C2781 C -0.18308 0.61520 0.98287
 C2782 C -0.19069 0.63252 0.99642
 C2783 C -0.17945 0.63572 1.01580
 C2784 C -0.16024 0.62240 1.02115
 C2785 C -0.13083 0.59130 1.01143
 C2786 C -0.11647 0.59429 1.02926
 C2787 C -0.09596 0.58184 1.03132
 C2788 C -0.08945 0.56618 1.01566
 C2789 C -0.10429 0.56228 0.99860
 C2790 C -0.12451 0.57477 0.99620
 C2791 C -0.15711 0.58452 0.97409
 C2792 C -0.13784 0.57129 0.97811
 H2793 H -0.16653 0.58151 0.95958
 H2794 H -0.13296 0.55851 0.96654
 H2795 H -0.19198 0.61240 0.96804
 H2796 H -0.18518 0.64896 1.02655
 H2797 H -0.08480 0.58515 1.04464
 H2798 H -0.09966 0.54991 0.98656
 H2799 H -0.15192 0.62580 1.03605
 H2800 H -0.12047 0.60662 1.04140
 C2801 C -0.01274 0.63251 0.57223
 C2802 C -0.00533 0.63324 0.59351
 C2803 C -0.00303 0.65456 0.60367
 C2804 C -0.00676 0.67536 0.59258
 C2805 C -0.01469 0.67459 0.57169
 C2806 C -0.01784 0.65346 0.56167
 C2807 C -0.01322 0.60966 0.56142
 C2808 C -0.02082 0.60711 0.54045
 C2809 C -0.01896 0.58590 0.53038
 C2810 C -0.00952 0.56676 0.54095
 C2811 C -0.00298 0.56874 0.56216
 C2812 C -0.00496 0.58997 0.57252
 C2813 C 0.00103 0.61286 0.60413
 C2814 C 0.00155 0.59169 0.59374
 H2815 H 0.00662 0.61343 0.62046
 H2816 H 0.00744 0.57652 0.60235
 H2817 H 0.00273 0.65500 0.61996
 H2818 H -0.01740 0.69037 0.56267
 H2819 H -0.02444 0.58466 0.51407
 H2820 H 0.00376 0.55378 0.57057
 H2821 H -0.02324 0.65406 0.54538
 H2822 H -0.02803 0.62123 0.53144
 C2823 C 0.50110 0.13483 0.07518
 C2824 C 0.51717 0.13837 0.09158
 C2825 C 0.52328 0.16086 0.09730
 C2826 C 0.51452 0.18000 0.08621
 C2827 C 0.49795 0.17663 0.07057
 C2828 C 0.49119 0.15429 0.06514
 C2829 C 0.49702 0.11066 0.06790
 C2830 C 0.48155 0.10534 0.05160
 C2831 C 0.48126 0.08337 0.04279
 C2832 C 0.49622 0.06615 0.05016
 C2833 C 0.50984 0.07052 0.06793
 C2834 C 0.51040 0.09265 0.07680
 C2835 C 0.52816 0.11952 0.10123
 C2836 C 0.52508 0.09711 0.09377
 H2837 H 0.54027 0.12229 0.11396
 H2838 H 0.53491 0.08321 0.10092
 H2839 H 0.53571 0.16348 0.10981
 H2840 H 0.49094 0.19124 0.06191
 H2841 H 0.47002 0.08027 0.02947
 H2842 H 0.52096 0.05711 0.07417
 H2843 H 0.47901 0.15269 0.05244
 H2844 H 0.47013 0.11806 0.04490
 C2845 C 0.00437 0.13551 0.92203
 C2846 C 0.01236 0.15502 0.93340
 C2847 C 0.00527 0.17730 0.92750
 C2848 C -0.01011 0.18013 0.91077
 C2849 C -0.01614 0.16118 0.89827
 C2850 C -0.00880 0.13907 0.90366
 C2851 C 0.00836 0.11199 0.93116
 C2852 C -0.00179 0.09189 0.92271
 C2853 C -0.00075 0.07093 0.93365
 C2854 C 0.01073 0.06945 0.95303
 C2855 C 0.02240 0.08890 0.96076
 C2856 C 0.02088 0.11023 0.95025
 C2857 C 0.02605 0.15202 0.95136
 C2858 C 0.03043 0.13000 0.95951
 H2859 H 0.03262 0.16694 0.95976
 H2860 H 0.04032 0.12855 0.97397
 H2861 H 0.01016 0.19216 0.93691
 H2862 H -0.02748 0.16339 0.88483
 H2863 H -0.00949 0.05600 0.92715
 H2864 H 0.03146 0.08788 0.97571
 H2865 H -0.01450 0.12504 0.89381
 H2866 H -0.01147 0.09209 0.90820
 C2867 C 0.52802 0.63161 0.42095
 C2868 C 0.52900 0.65259 0.43236
 C2869 C 0.52209 0.67331 0.42262
 C2870 C 0.51369 0.67300 0.40191
 C2871 C 0.51576 0.65294 0.38983
 C2872 C 0.52321 0.63244 0.39916
 C2873 C 0.52940 0.60937 0.43299
 C2874 C 0.52373 0.58796 0.42377
 C2875 C 0.52108 0.56826 0.43625
 C2876 C 0.52457 0.56931 0.45808
 C2877 C 0.53190 0.59004 0.46729
 C2878 C 0.53363 0.61027 0.45500
 C2879 C 0.53491 0.65239 0.45381
 C2880 C 0.53760 0.63157 0.46485
 H2881 H 0.53634 0.66850 0.46241
 H2882 H 0.54116 0.63223 0.48164
 H2883 H 0.52081 0.68903 0.43182
 H2884 H 0.50995 0.65276 0.37355
 H2885 H 0.51586 0.55220 0.42886
 H2886 H 0.53455 0.59081 0.48423
 H2887 H 0.52366 0.61724 0.38937
 H2888 H 0.52006 0.58622 0.40716
 C2889 C 0.47695 0.85945 0.41768
 C2890 C 0.47419 0.83797 0.42826
 C2891 C 0.47711 0.81731 0.41720
 C2892 C 0.48270 0.81795 0.39573
 C2893 C 0.48182 0.83912 0.38472
 C2894 C 0.47893 0.85974 0.39557
 C2895 C 0.47925 0.88075 0.43062
 C2896 C 0.48726 0.90186 0.42211
 C2897 C 0.49119 0.92078 0.43512
 C2898 C 0.48680 0.91920 0.45677
 C2899 C 0.47860 0.89838 0.46540
 C2900 C 0.47549 0.87896 0.45261
 C2901 C 0.47002 0.83730 0.44999
 C2902 C 0.47001 0.85754 0.46184
 H2903 H 0.46727 0.82087 0.45801
 H2904 H 0.46707 0.85618 0.47868
 H2905 H 0.47725 0.80098 0.42579
 H2906 H 0.48505 0.83984 0.36791
 H2907 H 0.49749 0.93675 0.42819
 H2908 H 0.47555 0.89704 0.48223
 H2909 H 0.47933 0.87570 0.38657
 H2910 H 0.49130 0.90388 0.40561
 C2911 C -0.00853 0.37097 0.92156
 C2912 C -0.01269 0.35025 0.93302
 C2913 C -0.01157 0.32890 0.92289
 C2914 C -0.00698 0.32777 0.90125
 C2915 C -0.00456 0.34840 0.88959
 C2916 C -0.00528 0.36978 0.89960
 C2917 C -0.00757 0.39319 0.93339
 C2918 C -0.00056 0.41429 0.92407
 C2919 C 0.00048 0.43448 0.93599
 C2920 C -0.00572 0.43403 0.95727
 C2921 C -0.01245 0.41313 0.96673
 C2922 C -0.01298 0.39270 0.95512
 C2923 C -0.01761 0.35089 0.95458
 C2924 C -0.01823 0.37178 0.96532
 H2925 H -0.02109 0.33502 0.96326
 H2926 H -0.02223 0.37147 0.98200
 H2927 H -0.01337 0.31311 0.93213
 H2928 H -0.00168 0.34797 0.87273
 H2929 H 0.00582 0.45053 0.92849
 H2930 H -0.01676 0.41266 0.98335
 H2931 H -0.00313 0.38509 0.88993
 H2932 H 0.00450 0.41552 0.90777
 C2933 C 0.50142 0.37322 0.07978
 C2934 C 0.50696 0.35406 0.06701
 C2935 C 0.50497 0.33152 0.07506
 C2936 C 0.49787 0.32771 0.09587
 C2937 C 0.49403 0.34676 0.10897
 C2938 C 0.49575 0.36927 0.10106
 C2939 C 0.50121 0.39677 0.06990
 C2940 C 0.49307 0.41650 0.08042
 C2941 C 0.49177 0.43782 0.07000
 C2942 C 0.49885 0.43999 0.04902
 C2943 C 0.50746 0.42061 0.03858
 C2944 C 0.50823 0.39901 0.04866
 C2945 C 0.51399 0.35745 0.04616
 C2946 C 0.51500 0.37954 0.03727
 H2947 H 0.51859 0.34278 0.03649
 H2948 H 0.52036 0.38132 0.02100
 H2949 H 0.50803 0.31692 0.06480
 H2950 H 0.48933 0.34424 0.12533
 H2951 H 0.48509 0.45261 0.07835
 H2952 H 0.51263 0.42208 0.02222
 H2953 H 0.49238 0.38324 0.11179
 H2954 H 0.48702 0.41575 0.09644
 C2955 C 0.00324 0.86904 0.58002
 C2956 C 0.00979 0.84962 0.56796
 C2957 C 0.00310 0.82729 0.57423
 C2958 C -0.01042 0.82422 0.59213
 C2959 C -0.01511 0.84317 0.60505
 C2960 C -0.00822 0.86534 0.59919
 C2961 C 0.00704 0.89267 0.57098
 C2962 C -0.00162 0.91281 0.58041
 C2963 C -0.00092 0.93398 0.56979
 C2964 C 0.00880 0.93564 0.54971
 C2965 C 0.01912 0.91612 0.54091
 C2966 C 0.01786 0.89458 0.55115
 C2967 C 0.02177 0.85271 0.54913
 C2968 C 0.02592 0.87480 0.54097
 H2969 H 0.02722 0.83784 0.54014
 H2970 H 0.03447 0.87633 0.52592
 H2971 H 0.00699 0.81253 0.56439
 H2972 H -0.02490 0.84089 0.61936
 H2973 H -0.00861 0.94895 0.57706
 H2974 H 0.02671 0.91729 0.52538
 H2975 H -0.01281 0.87930 0.60951
 H2976 H -0.00994 0.91251 0.59552
 C2977 C 0.27329 0.29519 0.09843
 C2978 C 0.25255 0.30397 0.09018
 C2979 C 0.25245 0.31820 0.07201
 C2980 C 0.27295 0.32506 0.06228
 C2981 C 0.29343 0.31567 0.07038
 C2982 C 0.29360 0.30093 0.08798
 C2983 C 0.27279 0.28139 0.11868
 C2984 C 0.29241 0.27155 0.12816
 C2985 C 0.29133 0.26112 0.14820
 C2986 C 0.27074 0.26040 0.15922
 C2987 C 0.25091 0.26870 0.14930
 C2988 C 0.25174 0.27900 0.12919
 C2989 C 0.23208 0.29953 0.10071
 C2990 C 0.23173 0.28759 0.11992
 H2991 H 0.21616 0.30616 0.09442
 H2992 H 0.21555 0.28542 0.12783
 H2993 H 0.23639 0.32541 0.06666
 H2994 H 0.30959 0.31929 0.06292
 H2995 H 0.30683 0.25477 0.15555
 H2996 H 0.23485 0.26787 0.15764
 H2997 H 0.30991 0.29470 0.09346
 H2998 H 0.30881 0.27226 0.12063
 C2999 C 0.76465 0.79906 0.59733
 C3000 C 0.78642 0.80024 0.58796
 C3001 C 0.78992 0.81425 0.56995
 C3002 C 0.77210 0.82766 0.56133
 C3003 C 0.75059 0.82640 0.57076
 C3004 C 0.74685 0.81229 0.58839
 C3005 C 0.76176 0.78464 0.61697
 C3006 C 0.74077 0.78245 0.62741
 C3007 C 0.73940 0.77112 0.64687
 C3008 C 0.75877 0.76125 0.65631
 C3009 C 0.77944 0.76167 0.64531
 C3010 C 0.78111 0.77348 0.62580
 C3011 C 0.80467 0.78789 0.59692
 C3012 C 0.80213 0.77498 0.61552
 H3013 H 0.82136 0.78871 0.58975
 H3014 H 0.81694 0.76635 0.62214
 H3015 H 0.80659 0.81480 0.56273
 H3016 H 0.73662 0.83681 0.56479
 H3017 H 0.72321 0.77079 0.65497
 H3018 H 0.79452 0.75418 0.65254
 H3019 H 0.72999 0.81244 0.59499
 H3020 H 0.72530 0.78994 0.62121
 C3021 C 0.22788 0.68986 0.59581
 C3022 C 0.22276 0.66584 0.59668
 C3023 C 0.22385 0.65233 0.57844
 C3024 C 0.23004 0.66210 0.55897
 C3025 C 0.23587 0.68571 0.55811
 C3026 C 0.23476 0.69948 0.57628
 C3027 C 0.22611 0.70364 0.61588
 C3028 C 0.23011 0.72782 0.61705
 C3029 C 0.22947 0.73935 0.63654
 C3030 C 0.22490 0.72696 0.65515
 C3031 C 0.21985 0.70326 0.65395
 C3032 C 0.22034 0.69160 0.63468
 C3033 C 0.21655 0.65529 0.61575
 C3034 C 0.21555 0.66784 0.63435
 H3035 H 0.21264 0.63692 0.61637
 H3036 H 0.21101 0.65873 0.64876
 H3037 H 0.21972 0.63400 0.57935
 H3038 H 0.24066 0.69367 0.54324
 H3039 H 0.23357 0.75765 0.63720
 H3040 H 0.21621 0.69367 0.66835
 H3041 H 0.23920 0.71758 0.57474
 H3042 H 0.23419 0.73794 0.60318
 C3043 C 0.73990 0.20587 0.09554
 C3044 C 0.71805 0.19985 0.08785
 C3045 C 0.71573 0.18484 0.07050
 C3046 C 0.73495 0.17536 0.06032
 C3047 C 0.75662 0.18226 0.06779
 C3048 C 0.75905 0.19712 0.08501
 C3049 C 0.74161 0.22067 0.11498
 C3050 C 0.76254 0.22623 0.12473
 C3051 C 0.76315 0.23775 0.14404
 C3052 C 0.74302 0.24457 0.15397
 C3053 C 0.72211 0.24059 0.14375
 C3054 C 0.72124 0.22832 0.12456
 C3055 C 0.69857 0.20862 0.09767
 C3056 C 0.70013 0.22258 0.11555
 H3057 H 0.68179 0.20427 0.09166
 H3058 H 0.68451 0.22844 0.12277
 H3059 H 0.69874 0.18118 0.06471
 H3060 H 0.77206 0.17531 0.06117
 H3061 H 0.77946 0.24051 0.15173
 H3062 H 0.70644 0.24537 0.15153
 H3063 H 0.77616 0.20120 0.09003
 H3064 H 0.77862 0.22101 0.11822
 C3065 C 0.77215 0.19788 0.90486
 C3066 C 0.75364 0.18453 0.91258
 C3067 C 0.75603 0.17125 0.93120
 C3068 C 0.77686 0.17044 0.94219
 C3069 C 0.79519 0.18368 0.93451
 C3070 C 0.79289 0.19729 0.91620
 C3071 C 0.76901 0.21122 0.88447
 C3072 C 0.78606 0.22547 0.87549
 C3073 C 0.78280 0.23598 0.85564
 C3074 C 0.76256 0.23246 0.84419
 C3075 C 0.74506 0.21937 0.85355
 C3076 C 0.74806 0.20889 0.87349
 C3077 C 0.73303 0.18393 0.90136
 C3078 C 0.73038 0.19562 0.88217
 H3079 H 0.71884 0.17376 0.90726
 H3080 H 0.71426 0.19405 0.87386
 H3081 H 0.74185 0.16084 0.93675
 H3082 H 0.81140 0.18356 0.94276
 H3083 H 0.79659 0.24595 0.84882
 H3084 H 0.72924 0.21668 0.84497
 H3085 H 0.80763 0.20690 0.91100
 H3086 H 0.80219 0.22829 0.88332
 C3087 C 0.27368 0.68681 0.39953
 C3088 C 0.25573 0.67194 0.40599
 C3089 C 0.25709 0.65995 0.42540
 C3090 C 0.27647 0.66193 0.43832
 C3091 C 0.29417 0.67677 0.43196
 C3092 C 0.29280 0.68914 0.41293
 C3093 C 0.27194 0.69855 0.37828
 C3094 C 0.28856 0.71407 0.37046
 C3095 C 0.28688 0.72317 0.34995
 C3096 C 0.26873 0.71694 0.33662
 C3097 C 0.25148 0.70249 0.34472
 C3098 C 0.25290 0.69338 0.36532
 C3099 C 0.23686 0.66848 0.39275
 C3100 C 0.23559 0.67877 0.37279
 H3101 H 0.22310 0.65714 0.39766
 H3102 H 0.22089 0.67502 0.36295
 H3103 H 0.24347 0.64829 0.43004
 H3104 H 0.30924 0.67873 0.44175
 H3105 H 0.30022 0.73456 0.34432
 H3106 H 0.23710 0.69781 0.33480
 H3107 H 0.30708 0.70003 0.40880
 H3108 H 0.30314 0.71913 0.37980
 C3109 C 0.72969 0.82520 0.39617
 C3110 C 0.73310 0.81039 0.41384
 C3111 C 0.73422 0.81977 0.43432
 C3112 C 0.73171 0.84371 0.43731
 C3113 C 0.72906 0.85830 0.41974
 C3114 C 0.72819 0.84929 0.39946
 C3115 C 0.72780 0.81464 0.37469
 C3116 C 0.72386 0.82805 0.35641
 C3117 C 0.72338 0.81781 0.33666
 C3118 C 0.72649 0.79390 0.33444
 C3119 C 0.72927 0.78000 0.35254
 C3120 C 0.73012 0.79029 0.37271
 C3121 C 0.73501 0.78639 0.41091
 C3122 C 0.73365 0.77658 0.39080
 H3123 H 0.73763 0.77500 0.42439
 H3124 H 0.73541 0.75796 0.38941
 H3125 H 0.73614 0.80843 0.44794
 H3126 H 0.72717 0.87683 0.42179
 H3127 H 0.72093 0.82879 0.32286
 H3128 H 0.73171 0.76149 0.35087
 H3129 H 0.72604 0.86154 0.38669
 H3130 H 0.72142 0.84654 0.35684
 C3131 C 0.22166 0.31675 0.90548
 C3132 C 0.21965 0.34118 0.90659
 C3133 C 0.21936 0.35222 0.92622
 C3134 C 0.22168 0.33948 0.94501
 C3135 C 0.22463 0.31540 0.94401
 C3136 C 0.22449 0.30409 0.92449
 C3137 C 0.22118 0.30567 0.88404
 C3138 C 0.22126 0.28143 0.88094
 C3139 C 0.22148 0.27218 0.86050
 C3140 C 0.22195 0.28690 0.84280
 C3141 C 0.22108 0.31095 0.84577
 C3142 C 0.22039 0.32037 0.86606
 C3143 C 0.21819 0.35458 0.88813
 C3144 C 0.21892 0.34443 0.86831
 H3145 H 0.21680 0.37328 0.88901
 H3146 H 0.21813 0.35562 0.85450
 H3147 H 0.21748 0.37090 0.92692
 H3148 H 0.22651 0.30528 0.95839
 H3149 H 0.22203 0.25355 0.85855
 H3150 H 0.22094 0.32244 0.83213
 H3151 H 0.22668 0.28552 0.92456
 H3152 H 0.22123 0.26940 0.89407
 C3153 C 0.86431 0.39187 0.75570
 C3154 C 0.86222 0.40439 0.73642
 C3155 C 0.87764 0.42220 0.73142
 C3156 C 0.89501 0.42846 0.74550
 C3157 C 0.89674 0.41671 0.76495
 C3158 C 0.88173 0.39846 0.76994
 C3159 C 0.84788 0.37215 0.75981
 C3160 C 0.84906 0.35722 0.77765
 C3161 C 0.83423 0.33806 0.77966
 C3162 C 0.81784 0.33353 0.76399
 C3163 C 0.81580 0.34914 0.74695
 C3164 C 0.83076 0.36786 0.74450
 C3165 C 0.84467 0.39926 0.72218
 C3166 C 0.82915 0.38159 0.72624
 H3167 H 0.84293 0.40904 0.70758
 H3168 H 0.81599 0.37822 0.71457
 H3169 H 0.87587 0.43160 0.71660
 H3170 H 0.90989 0.42149 0.77617
 H3171 H 0.83626 0.32625 0.79290
 H3172 H 0.80302 0.34607 0.73484
 H3173 H 0.88390 0.38980 0.78498
 H3174 H 0.86182 0.35964 0.78979
 C3175 C 0.38243 0.86951 0.25400
 C3176 C 0.37430 0.89042 0.26257
 C3177 C 0.38563 0.91153 0.25834
 C3178 C 0.40514 0.91244 0.24533
 C3179 C 0.41382 0.89112 0.23815
 C3180 C 0.40274 0.87015 0.24239
 C3181 C 0.36861 0.84774 0.25705
 C3182 C 0.37410 0.82665 0.24727
 C3183 C 0.35943 0.80762 0.24859
 C3184 C 0.33919 0.80881 0.26011
 C3185 C 0.33408 0.82924 0.27094
 C3186 C 0.34839 0.84886 0.26910
 C3187 C 0.35450 0.89023 0.27485
 C3188 C 0.34197 0.86990 0.27820
 H3189 H 0.34835 0.90617 0.28170
 H3190 H 0.32658 0.87085 0.28748
 H3191 H 0.37808 0.92732 0.26413
 H3192 H 0.42958 0.89025 0.22948
 H3193 H 0.36353 0.79205 0.23997
 H3194 H 0.31819 0.83038 0.27948
 H3195 H 0.41039 0.85463 0.23628
 H3196 H 0.38911 0.82473 0.23776
 C3197 C 0.12498 0.88745 0.74336
 C3198 C 0.12392 0.90579 0.72855
 C3199 C 0.11173 0.92617 0.73341
 C3200 C 0.10220 0.92931 0.75369
 C3201 C 0.10534 0.91141 0.76871
 C3202 C 0.11601 0.89078 0.76356
 C3203 C 0.13757 0.86592 0.73779
 C3204 C 0.13639 0.84578 0.75028
 C3205 C 0.15087 0.82735 0.74652
 C3206 C 0.16689 0.82836 0.73021
 C3207 C 0.16636 0.84722 0.71598
 C3208 C 0.15137 0.86598 0.71958
 C3209 C 0.13609 0.90402 0.70958
 C3210 C 0.15021 0.88495 0.70557
 H3211 H 0.13563 0.91812 0.69818
 H3212 H 0.16024 0.88500 0.69128
 H3213 H 0.11026 0.93956 0.72146
 H3214 H 0.10024 0.91328 0.78495
 H3215 H 0.15038 0.81259 0.75720
 H3216 H 0.17828 0.84789 0.70300
 H3217 H 0.11806 0.87803 0.77599
 H3218 H 0.12474 0.84418 0.76332
 C3219 C 0.64591 0.40593 0.24413
 C3220 C 0.65066 0.41865 0.26275
 C3221 C 0.63657 0.43703 0.26873
 C3222 C 0.61794 0.44365 0.25623
 C3223 C 0.61363 0.43179 0.23735
 C3224 C 0.62730 0.41300 0.23142
 C3225 C 0.66083 0.38543 0.23915
 C3226 C 0.65691 0.37018 0.22205
 C3227 C 0.67038 0.35021 0.21943
 C3228 C 0.68809 0.34520 0.23370
 C3229 C 0.69287 0.36110 0.24982
 C3230 C 0.67930 0.38062 0.25294
 C3231 C 0.66946 0.41302 0.27541
 C3232 C 0.68360 0.39462 0.27048
 H3233 H 0.67324 0.42294 0.28947
 H3234 H 0.69780 0.39086 0.28097
 H3235 H 0.64022 0.44645 0.28312
 H3236 H 0.59941 0.43683 0.22737
 H3237 H 0.66624 0.33816 0.20694
 H3238 H 0.70669 0.35757 0.26083
 H3239 H 0.62311 0.40423 0.21692
 H3240 H 0.64303 0.37297 0.21108
 C3241 C 0.62666 0.63085 0.24986
 C3242 C 0.62546 0.61445 0.26646
 C3243 C 0.61343 0.59340 0.26347
 C3244 C 0.60388 0.58784 0.24355
 C3245 C 0.60708 0.60373 0.22683
 C3246 C 0.61787 0.62491 0.22996
 C3247 C 0.63885 0.65327 0.25354
 C3248 C 0.63774 0.67167 0.23898
 C3249 C 0.65139 0.69112 0.24154
 C3250 C 0.66659 0.69298 0.25867
 C3251 C 0.66605 0.67583 0.27462
 C3252 C 0.65189 0.65602 0.27222
 C3253 C 0.63714 0.61888 0.28547
 C3254 C 0.65070 0.63882 0.28800
 H3255 H 0.63658 0.60630 0.29824
 H3256 H 0.66020 0.64089 0.30259
 H3257 H 0.61184 0.58140 0.27660
 H3258 H 0.60173 0.59976 0.21090
 H3259 H 0.65068 0.70454 0.22949
 H3260 H 0.67722 0.67735 0.28823
 H3261 H 0.61995 0.63605 0.21634
 H3262 H 0.62665 0.67123 0.22534
 C3263 C 0.13197 0.11624 0.76033
 C3264 C 0.14301 0.09457 0.75833
 C3265 C 0.13054 0.07480 0.75236
 C3266 C 0.10728 0.07632 0.74734
 C3267 C 0.09642 0.09785 0.74892
 C3268 C 0.10851 0.11754 0.75550
 C3269 C 0.14613 0.13706 0.76623
 C3270 C 0.13681 0.15923 0.76972
 C3271 C 0.15101 0.17850 0.77284
 C3272 C 0.17472 0.17609 0.77259
 C3273 C 0.18413 0.15393 0.77056
 C3274 C 0.17006 0.13442 0.76771
 C3275 C 0.16659 0.09292 0.76146
 C3276 C 0.17987 0.11246 0.76562
 H3277 H 0.17507 0.07636 0.75990
 H3278 H 0.19815 0.11038 0.76706
 H3279 H 0.13914 0.05830 0.75078
 H3280 H 0.07848 0.09943 0.74511
 H3281 H 0.14348 0.19556 0.77411
 H3282 H 0.20250 0.15208 0.77021
 H3283 H 0.09933 0.13368 0.75622
 H3284 H 0.11867 0.16212 0.76949
 C3285 C 0.36304 0.09428 0.24622
 C3286 C 0.35759 0.07988 0.26375
 C3287 C 0.37127 0.06078 0.26899
 C3288 C 0.39026 0.05525 0.25687
 C3289 C 0.39524 0.06878 0.23897
 C3290 C 0.38190 0.08820 0.23375
 C3291 C 0.34864 0.11550 0.24215
 C3292 C 0.35319 0.13215 0.22616
 C3293 C 0.34015 0.15255 0.22438
 C3294 C 0.32229 0.15664 0.23844
 C3295 C 0.31694 0.13949 0.25347
 C3296 C 0.33002 0.11941 0.25570
 C3297 C 0.33860 0.08465 0.27615
 C3298 C 0.32501 0.10384 0.27209
 H3299 H 0.33429 0.07346 0.28937
 H3300 H 0.31067 0.10691 0.28237
 H3301 H 0.36715 0.05009 0.28262
 H3302 H 0.40978 0.06461 0.22931
 H3303 H 0.34465 0.16553 0.21267
 H3304 H 0.30294 0.14225 0.26424
 H3305 H 0.38664 0.09828 0.22004
 H3306 H 0.36718 0.13007 0.21539
 C3307 C 0.86233 0.60258 0.74582
 C3308 C 0.85803 0.58862 0.76392
 C3309 C 0.87325 0.57104 0.76993
 C3310 C 0.89259 0.56648 0.75793
 C3311 C 0.89654 0.57959 0.73956
 C3312 C 0.88172 0.59760 0.73364
 C3313 C 0.84611 0.62212 0.74079
 C3314 C 0.84941 0.63843 0.72423
 C3315 C 0.83470 0.65751 0.72164
 C3316 C 0.81636 0.66053 0.73538
 C3317 C 0.81220 0.64352 0.75087
 C3318 C 0.82700 0.62487 0.75398
 C3319 C 0.83855 0.59219 0.77600
 C3320 C 0.82325 0.60974 0.77100
 H3321 H 0.83513 0.58132 0.78965
 H3322 H 0.80855 0.61192 0.78103
 H3323 H 0.86992 0.56059 0.78389
 H3324 H 0.91130 0.57609 0.72996
 H3325 H 0.83835 0.67047 0.70966
 H3326 H 0.79791 0.64555 0.76145
 H3327 H 0.88565 0.60737 0.71952
 H3328 H 0.86372 0.63720 0.71370
 C3329 C 0.88337 0.75499 0.17671
 C3330 C 0.90093 0.74560 0.18949
 C3331 C 0.92367 0.74767 0.18324
 C3332 C 0.92944 0.75909 0.16426
 C3333 C 0.91162 0.76704 0.15109
 C3334 C 0.88902 0.76502 0.15717
 C3335 C 0.85960 0.75449 0.18487
 C3336 C 0.84132 0.76538 0.17426
 C3337 C 0.81983 0.76608 0.18335
 C3338 C 0.81600 0.75576 0.20310
 C3339 C 0.83386 0.74411 0.21341
 C3340 C 0.85562 0.74374 0.20465
 C3341 C 0.89580 0.73472 0.20871
 C3342 C 0.87355 0.73358 0.21603
 H3343 H 0.90923 0.72725 0.21839
 H3344 H 0.87045 0.72529 0.23116
 H3345 H 0.93677 0.74162 0.19402
 H3346 H 0.91490 0.77446 0.13566
 H3347 H 0.80628 0.77507 0.17502
 H3348 H 0.83114 0.73618 0.22876
 H3349 H 0.87631 0.77152 0.14631
 H3350 H 0.84331 0.77405 0.15925
 C3351 C 0.38334 0.24057 0.68546
 C3352 C 0.38417 0.24781 0.66408
 C3353 C 0.40517 0.25081 0.65420
 C3354 C 0.42547 0.24757 0.66553
 C3355 C 0.42471 0.23921 0.68631
 C3356 C 0.40389 0.23558 0.69617
 C3357 C 0.36077 0.24013 0.69612
 C3358 C 0.35820 0.23394 0.71753
 C3359 C 0.33716 0.23597 0.72729
 C3360 C 0.31825 0.24418 0.71595
 C3361 C 0.32035 0.24932 0.69441
 C3362 C 0.34139 0.24735 0.68444
 C3363 C 0.36418 0.25327 0.65301
 C3364 C 0.34320 0.25317 0.66303
 H3365 H 0.36486 0.25857 0.63657
 H3366 H 0.32826 0.25831 0.65404
 H3367 H 0.40575 0.25682 0.63794
 H3368 H 0.44025 0.23660 0.69531
 H3369 H 0.33585 0.23162 0.74390
 H3370 H 0.30564 0.25516 0.68542
 H3371 H 0.40436 0.22982 0.71239
 H3372 H 0.37221 0.22789 0.72714
 C3373 C 0.38383 0.77707 0.81665
 C3374 C 0.38405 0.77058 0.83825
 C3375 C 0.40472 0.76592 0.84848
 C3376 C 0.42513 0.76631 0.83718
 C3377 C 0.42509 0.77422 0.81622
 C3378 C 0.40471 0.77978 0.80609
 C3379 C 0.36141 0.77845 0.80550
 C3380 C 0.35937 0.78397 0.78385
 C3381 C 0.33850 0.78174 0.77350
 C3382 C 0.31931 0.77399 0.78449
 C3383 C 0.32075 0.77014 0.80631
 C3384 C 0.34159 0.77235 0.81688
 C3385 C 0.36365 0.76697 0.84909
 C3386 C 0.34281 0.76760 0.83855
 H3387 H 0.36386 0.76229 0.86569
 H3388 H 0.32753 0.76349 0.84733
 H3389 H 0.40476 0.76031 0.86486
 H3390 H 0.44067 0.77467 0.80716
 H3391 H 0.33758 0.78523 0.75668
 H3392 H 0.30571 0.76484 0.81498
 H3393 H 0.40565 0.78480 0.78970
 H3394 H 0.37371 0.78946 0.77451
 C3395 C 0.88491 0.27232 0.33099
 C3396 C 0.90419 0.28049 0.31995
 C3397 C 0.92606 0.27544 0.32754
 C3398 C 0.92901 0.26182 0.34592
 C3399 C 0.90970 0.25687 0.35828
 C3400 C 0.88796 0.26206 0.35095
 C3401 C 0.86229 0.27340 0.32025
 C3402 C 0.84297 0.26179 0.32818
 C3403 C 0.82303 0.26058 0.31623
 C3404 C 0.82185 0.27117 0.29629
 C3405 C 0.84061 0.28375 0.28874
 C3406 C 0.86093 0.28443 0.30027
 C3407 C 0.90157 0.29232 0.30072
 C3408 C 0.88025 0.29465 0.29125
 H3409 H 0.91630 0.29916 0.29250
 H3410 H 0.87912 0.30331 0.27603
 H3411 H 0.94039 0.28004 0.31770
 H3412 H 0.91124 0.24846 0.37356
 H3413 H 0.80865 0.25101 0.32249
 H3414 H 0.83989 0.29191 0.27327
 H3415 H 0.87381 0.25720 0.36083
 H3416 H 0.84315 0.25269 0.34310
 C3417 C 0.11744 0.23171 0.32113
 C3418 C 0.09848 0.22930 0.30738
 C3419 C 0.07704 0.23713 0.31365
 C3420 C 0.07457 0.24769 0.33328
 C3421 C 0.09271 0.24769 0.34770
 C3422 C 0.11392 0.23955 0.34182
 C3423 C 0.14063 0.22793 0.31248
 C3424 C 0.16054 0.23386 0.32378
 C3425 C 0.18158 0.23378 0.31391
 C3426 C 0.18330 0.22734 0.29275
 C3427 C 0.16390 0.21972 0.28180
 C3428 C 0.14251 0.22059 0.29131
 C3429 C 0.10135 0.22053 0.28704
 C3430 C 0.12297 0.21593 0.27926
 H3431 H 0.08677 0.21810 0.27670
 H3432 H 0.12445 0.21003 0.26313
 H3433 H 0.06278 0.23675 0.30268
 H3434 H 0.09069 0.25505 0.36326
 H3435 H 0.19649 0.23934 0.32271
 H3436 H 0.16519 0.21480 0.26537
 H3437 H 0.12743 0.24053 0.35337
 H3438 H 0.16020 0.23973 0.33988
 C3439 C 0.61298 0.73025 0.82568
 C3440 C 0.59352 0.72709 0.81268
 C3441 C 0.57225 0.73483 0.81948
 C3442 C 0.57041 0.74594 0.83893
 C3443 C 0.58902 0.74620 0.85286
 C3444 C 0.61011 0.73825 0.84640
 C3445 C 0.63586 0.72719 0.81615
 C3446 C 0.65600 0.73458 0.82633
 C3447 C 0.67651 0.73516 0.81551
 C3448 C 0.67747 0.72789 0.79453
 C3449 C 0.65790 0.71894 0.78473
 C3450 C 0.63700 0.71922 0.79512
 C3451 C 0.59573 0.71777 0.79248
 C3452 C 0.61710 0.71347 0.78401
 H3453 H 0.58078 0.71468 0.78275
 H3454 H 0.61804 0.70709 0.76799
 H3455 H 0.55767 0.73414 0.80890
 H3456 H 0.58752 0.75385 0.86835
 H3457 H 0.69155 0.74182 0.82342
 H3458 H 0.65857 0.71343 0.76841
 H3459 H 0.62408 0.73956 0.85747
 H3460 H 0.65613 0.74114 0.84221
 C3461 C 0.61569 0.25240 0.67241
 C3462 C 0.59669 0.25990 0.68414
 C3463 C 0.57467 0.25381 0.67769
 C3464 C 0.57136 0.24026 0.65970
 C3465 C 0.59001 0.23478 0.64702
 C3466 C 0.61196 0.24082 0.65323
 C3467 C 0.63887 0.25574 0.68162
 C3468 C 0.65848 0.24578 0.67280
 C3469 C 0.67925 0.24671 0.68345
 C3470 C 0.68100 0.25790 0.70292
 C3471 C 0.66192 0.26910 0.71119
 C3472 C 0.64082 0.26762 0.70099
 C3473 C 0.59982 0.27251 0.70271
 C3474 C 0.62152 0.27661 0.71081
 H3475 H 0.58527 0.27872 0.71143
 H3476 H 0.62310 0.28588 0.72557
 H3477 H 0.56026 0.25837 0.68740
 H3478 H 0.58766 0.22517 0.63254
 H3479 H 0.69385 0.23817 0.67666
 H3480 H 0.66308 0.27772 0.72631
 H3481 H 0.62569 0.23573 0.64308
 H3482 H 0.65801 0.23633 0.65819
 C3483 C 0.11918 0.74519 0.17983
 C3484 C 0.10220 0.75474 0.19292
 C3485 C 0.07932 0.74852 0.18999
 C3486 C 0.07323 0.73254 0.17443
 C3487 C 0.08990 0.72391 0.16091
 C3488 C 0.11258 0.73016 0.16350
 C3489 C 0.14355 0.75012 0.18489
 C3490 C 0.16165 0.74014 0.17368
 C3491 C 0.18387 0.74187 0.18122
 C3492 C 0.18859 0.75394 0.19985
 C3493 C 0.17105 0.76609 0.20978
 C3494 C 0.14855 0.76390 0.20270
 C3495 C 0.10825 0.76963 0.20938
 C3496 C 0.13099 0.77411 0.21418
 H3497 H 0.09524 0.77721 0.21919
 H3498 H 0.13488 0.78496 0.22764
 H3499 H 0.06639 0.75535 0.20035
 H3500 H 0.08537 0.71213 0.14832
 H3501 H 0.19723 0.73281 0.17299
 H3502 H 0.17456 0.77572 0.22408
 H3503 H 0.12460 0.72258 0.15282
 H3504 H 0.15901 0.73003 0.15964
   
