data_POSCAR
  _audit_creation_date              2014-09-24
  _audit_creation_method            'ToBaCCo'
  _symmetry_space_group_name_H-M    'P1'
  _symmetry_Int_Tables_number       1
  _symmetry_cell_setting            triclinic
  loop_
  _symmetry_equiv_pos_as_xyz
 x,y,z
_cell_length_a 54.6290
_cell_length_b 54.8997
_cell_length_c 56.4192
_cell_angle_alpha 89.838600
_cell_angle_beta 90.160000
_cell_angle_gamma 90.021400
loop_
  _atom_site_label
  _atom_site_type_symbol
  _atom_site_fract_x
  _atom_site_fract_y
  _atom_site_fract_z
O1 O 0.34336 0.37930 0.02301
 O2 O 0.37380 0.33731 -0.01795
 O3 O 0.34153 0.37132 -0.02197
 O4 O 0.37574 0.34410 0.02777
 O5 O 0.34558 0.31794 0.03369
 O6 O 0.31180 0.34479 -0.01633
 O7 O 0.34473 0.31003 -0.01196
 O8 O 0.31398 0.35224 0.02890
 Cu9 Cu 0.36170 0.36064 0.00230
 Cu10 Cu 0.32609 0.32844 0.00898
 C11 C 0.32339 0.37301 0.03269
 C12 C 0.36445 0.31659 -0.02204
 C13 C 0.32061 0.36292 -0.02752
 C14 C 0.36636 0.32652 0.03928
 O15 O 0.65559 0.62061 0.02087
 O16 O 0.61770 0.64758 -0.02660
 O17 O 0.65615 0.61797 -0.02469
 O18 O 0.61876 0.64984 0.01994
 O19 O 0.64516 0.68022 0.01947
 O20 O 0.67803 0.65128 -0.02990
 O21 O 0.64114 0.68029 -0.02635
 O22 O 0.68248 0.65031 0.01631
 Cu23 Cu 0.63438 0.63089 -0.00268
 Cu24 Cu 0.66425 0.66866 -0.00522
 C25 C 0.67582 0.63059 0.02623
 C26 C 0.62259 0.66887 -0.03417
 C27 C 0.67332 0.62930 -0.03521
 C28 C 0.62604 0.67026 0.02786
 O29 O 0.61648 0.34495 1.02633
 O30 O 0.64406 0.38189 0.97840
 O31 O 0.61080 0.34788 0.98031
 O32 O 0.64936 0.37925 1.02446
 O33 O 0.67835 0.35192 1.01918
 O34 O 0.63906 0.31945 0.97657
 O35 O 0.67209 0.35343 0.97370
 O36 O 0.64563 0.31755 1.02199
 Cu37 Cu 0.62728 0.36630 1.00284
 Cu38 Cu 0.66164 0.33283 0.99740
 C39 C 0.62645 0.32493 1.03236
 C40 C 0.66289 0.37380 0.96781
 C41 C 0.61828 0.32819 0.97103
 C42 C 0.67058 0.37108 1.02930
 O43 O 0.35945 0.61362 0.97819
 O44 O 0.38773 0.64968 1.02600
 O45 O 0.35700 0.61317 1.02495
 O46 O 0.39030 0.64995 0.98075
 O47 O 0.35890 0.67527 0.97859
 O48 O 0.32607 0.63885 1.02311
 O49 O 0.35641 0.67516 1.02483
 O50 O 0.32811 0.63901 0.97739
 Cu51 Cu 0.37661 0.62880 1.00261
 Cu52 Cu 0.33929 0.65966 1.00078
 C53 C 0.33892 0.62019 0.96967
 C54 C 0.37695 0.66869 1.03332
 C55 C 0.33585 0.61980 1.03178
 C56 C 0.38032 0.66901 0.97241
 O57 O 0.01895 0.34763 0.37361
 O58 O -0.03282 0.37308 0.33942
 O59 O -0.02824 0.34119 0.37306
 O60 O 0.01380 0.38112 0.34030
 O61 O 0.01902 0.35246 0.31334
 O62 O -0.02251 0.31212 0.34681
 O63 O -0.02792 0.34430 0.31265
 O64 O 0.02448 0.31985 0.34586
 Cu65 Cu -0.00746 0.36361 0.35936
 Cu66 Cu -0.00136 0.32929 0.32696
 C67 C 0.03055 0.32943 0.36543
 C68 C -0.03912 0.36305 0.32007
 C69 C -0.03256 0.31977 0.36571
 C70 C 0.02333 0.37371 0.32114
 O71 O 0.02793 0.65610 0.63341
 O72 O -0.02080 0.62223 0.66454
 O73 O -0.01977 0.65450 0.63014
 O74 O 0.02662 0.62347 0.66671
 O75 O 0.02239 0.65156 0.69432
 O76 O -0.02056 0.68483 0.65561
 O77 O -0.02506 0.65292 0.68945
 O78 O 0.02636 0.68442 0.66103
 Cu79 Cu 0.00365 0.63613 0.64600
 Cu80 Cu 0.00053 0.67133 0.67781
 C81 C 0.03563 0.67603 0.64212
 C82 C -0.03133 0.63199 0.68218
 C83 C -0.02769 0.67533 0.63626
 C84 C 0.03215 0.63200 0.68692
 O85 O 1.01691 0.61568 0.35158
 O86 O 0.96860 0.64988 0.38203
 O87 O 0.96917 0.61648 0.34960
 O88 O 1.01600 0.65124 0.38288
 O89 O 1.02049 0.67537 0.35190
 O90 O 0.96728 0.64662 0.32364
 O91 O 0.97308 0.67993 0.35626
 O92 O 1.01470 0.64126 0.32143
 Cu93 Cu 0.99271 0.63044 0.36936
 Cu94 Cu 0.99381 0.66362 0.33544
 C95 C 1.02361 0.62221 0.33099
 C96 C 0.96324 0.67111 0.37479
 C97 C 0.95969 0.62624 0.33129
 C98 C 1.02686 0.66887 0.37263
 O99 O 0.98040 0.35363 0.61509
 O100 O 1.02947 0.38636 0.64631
 O101 O 1.02837 0.35071 0.61610
 O102 O 0.98164 0.38832 0.64644
 O103 O 0.97984 0.36068 0.67481
 O104 O 1.02693 0.32432 0.64556
 O105 O 1.02734 0.35998 0.67582
 O106 O 0.97971 0.32587 0.64348
 Cu107 Cu 1.00511 0.37245 0.62804
 Cu108 Cu 1.00328 0.34006 0.66283
 C109 C 0.97183 0.33409 0.62382
 C110 C 1.03671 0.37888 0.66645
 C111 C 1.03574 0.33104 0.62580
 C112 C 0.97271 0.38072 0.66591
 O113 O 0.38111 0.02110 0.34512
 O114 O 0.35026 -0.02526 0.38227
 O115 O 0.38246 -0.02642 0.34837
 O116 O 0.35108 0.02225 0.38069
 O117 O 0.32022 0.02066 0.35543
 O118 O 0.35240 -0.02763 0.32217
 O119 O 0.31997 -0.02668 0.35637
 O120 O 0.35036 0.01949 0.31975
 Cu121 Cu 0.36928 -0.00197 0.36666
 Cu122 Cu 0.33268 -0.00375 0.33589
 C123 C 0.37086 0.02823 0.32604
 C124 C 0.32970 -0.03379 0.37562
 C125 C 0.37302 -0.03522 0.32969
 C126 C 0.33032 0.02980 0.37371
 O127 O 0.61067 0.02871 0.64743
 O128 O 0.64293 -0.02025 0.61580
 O129 O 0.60713 -0.01842 0.64685
 O130 O 0.64666 0.02677 0.61740
 O131 O 0.67131 0.02643 0.64855
 O132 O 0.63546 -0.02368 0.67442
 O133 O 0.67116 -0.02068 0.64384
 O134 O 0.63517 0.02336 0.67822
 Cu135 Cu 0.62414 0.00437 0.62888
 Cu136 Cu 0.65597 0.00099 0.66421
 C137 C 0.61705 0.03392 0.66848
 C138 C 0.66310 -0.02815 0.62401
 C139 C 0.61473 -0.02888 0.66559
 C140 C 0.66543 0.03466 0.62827
 O141 O 0.38277 0.97526 0.64777
 O142 O 0.35352 1.01953 0.60717
 O143 O 0.38440 1.02278 0.64309
 O144 O 0.35341 0.97251 0.61200
 O145 O 0.32122 0.97721 0.63515
 O146 O 0.35383 1.02480 0.66848
 O147 O 0.32340 1.02439 0.63280
 O148 O 0.35084 0.97780 0.67150
 Cu149 Cu 0.37176 0.99740 0.62508
 Cu150 Cu 0.33420 1.00142 0.65443
 C151 C 0.37151 0.96864 0.66641
 C152 C 0.33342 1.02938 0.61313
 C153 C 0.37469 1.03199 0.66145
 C154 C 0.33189 0.96652 0.61811
 O155 O 0.62953 0.97789 0.33882
 O156 O 0.66444 1.02351 0.37349
 O157 O 0.63076 1.02493 0.34055
 O158 O 0.66171 0.97577 0.37296
 O159 O 0.69100 0.97528 0.34605
 O160 O 0.66098 1.02616 0.31458
 O161 O 0.69392 1.02205 0.34696
 O162 O 0.65836 0.97904 0.31149
 Cu163 Cu 0.64373 1.00050 0.35924
 Cu164 Cu 0.67897 1.00035 0.32702
 C165 C 0.63782 0.97133 0.31880
 C166 C 0.68530 1.03057 0.36607
 C167 C 0.64060 1.03399 0.32219
 C168 C 0.68168 0.96724 0.36515
 C169 C 0.83802 0.80648 0.49555
 C170 C 0.83867 0.80840 0.52054
 C171 C 0.82274 0.82481 0.53171
 C172 C 0.80682 0.83974 0.51858
 C173 C 0.80646 0.83782 0.49364
 C174 C 0.82174 0.82095 0.48246
 H175 H 0.82189 0.81999 0.46325
 H176 H 0.82289 0.82619 0.55088
 C177 C 0.17514 0.21072 0.48398
 C178 C 0.17999 0.21344 0.50850
 C179 C 0.19741 0.19830 0.51941
 C180 C 0.21041 0.18063 0.50655
 C181 C 0.20601 0.17842 0.48182
 C182 C 0.18846 0.19352 0.47098
 H183 H 0.18486 0.19161 0.45217
 H184 H 0.20059 0.20009 0.53831
 C185 C 0.17728 0.78591 0.51322
 C186 C 0.17179 0.78780 0.48860
 C187 C 0.18435 0.80533 0.47493
 C188 C 0.20126 0.82143 0.48523
 C189 C 0.20547 0.82026 0.50989
 C190 C 0.19408 0.80219 0.52340
 H191 H 0.19760 0.80145 0.54232
 H192 H 0.18055 0.80692 0.45614
 C193 C 0.82692 0.20527 0.51626
 C194 C 0.82489 0.20842 0.49147
 C195 C 0.80781 0.19454 0.47879
 C196 C 0.79298 0.17722 0.49015
 C197 C 0.79543 0.17363 0.51497
 C198 C 0.81215 0.18801 0.52770
 H199 H 0.81435 0.18516 0.54662
 H200 H 0.80631 0.19701 0.45976
 C201 C 0.48255 0.81721 0.78477
 C202 C 0.50840 0.81908 0.78636
 C203 C 0.52081 0.80550 0.80374
 C204 C 0.50832 0.79050 0.81986
 C205 C 0.48244 0.78883 0.81848
 C206 C 0.47002 0.80213 0.80082
 H207 H 0.45022 0.80110 0.79979
 H208 H 0.54056 0.80699 0.80507
 C209 C 0.48698 0.18128 0.21471
 C210 C 0.51291 0.17982 0.21421
 C211 C 0.52603 0.19602 0.19976
 C212 C 0.51397 0.21235 0.18459
 C213 C 0.48807 0.21184 0.18312
 C214 C 0.47490 0.19697 0.19884
 H215 H 0.45506 0.19710 0.19829
 H216 H 0.54586 0.19546 0.19974
 C217 C 0.50347 0.17009 0.79919
 C218 C 0.47770 0.17198 0.79798
 C219 C 0.46570 0.18870 0.81267
 C220 C 0.47880 0.20310 0.82879
 C221 C 0.50454 0.20088 0.83034
 C222 C 0.51656 0.18452 0.81527
 H223 H 0.53629 0.18257 0.81645
 H224 H 0.44590 0.19005 0.81202
 C225 C 0.51493 0.82683 0.20487
 C226 C 0.48938 0.82793 0.20113
 C227 C 0.47880 0.81336 0.18349
 C228 C 0.49309 0.79805 0.16917
 C229 C 0.51881 0.79715 0.17283
 C230 C 0.52928 0.81149 0.19078
 H231 H 0.54893 0.81111 0.19352
 H232 H 0.45922 0.81442 0.18048
 C233 C 0.79361 0.48147 0.82669
 C234 C 0.79686 0.50679 0.83098
 C235 C 0.81437 0.51958 0.81749
 C236 C 0.82932 0.50774 0.80084
 C237 C 0.82604 0.48251 0.79681
 C238 C 0.80780 0.47005 0.80929
 H239 H 0.80527 0.45074 0.80605
 H240 H 0.81742 0.53877 0.82089
 C241 C 0.20409 0.49080 0.17484
 C242 C 0.20266 0.51656 0.17340
 C243 C 0.18594 0.52886 0.18794
 C244 C 0.17039 0.51637 0.20358
 C245 C 0.17186 0.49063 0.20511
 C246 C 0.18879 0.47837 0.19078
 H247 H 0.18941 0.45864 0.19136
 H248 H 0.18499 0.54857 0.18706
 C249 C 0.78342 0.51386 0.17891
 C250 C 0.78096 0.48824 0.17866
 C251 C 0.79507 0.47418 0.19433
 C252 C 0.81188 0.48503 0.20992
 C253 C 0.81530 0.51067 0.20926
 C254 C 0.80062 0.52476 0.19400
 H255 H 0.80305 0.54435 0.19334
 H256 H 0.79281 0.45455 0.19447
 C257 C 0.21806 0.51056 0.82152
 C258 C 0.21815 0.48481 0.82149
 C259 C 0.20231 0.47230 0.80618
 C260 C 0.18651 0.48489 0.79086
 C261 C 0.18714 0.51061 0.79026
 C262 C 0.20285 0.52316 0.80566
 H263 H 0.20244 0.54291 0.80603
 H264 H 0.20174 0.45255 0.80669
 C265 C 0.28933 0.42837 0.05365
 C266 C 0.28275 0.42169 0.07705
 C267 C 0.29190 0.39933 0.08612
 C268 C 0.30509 0.38346 0.07150
 C269 C 0.31063 0.39010 0.04822
 C270 C 0.30328 0.41281 0.03957
 C271 C 0.28770 0.39285 0.10965
 C272 C 0.27478 0.40820 0.12459
 C273 C 0.26458 0.43023 0.11620
 C274 C 0.26758 0.43645 0.09176
 C275 C 0.25448 0.45657 0.08261
 C276 C 0.23905 0.47022 0.09689
 C277 C 0.23701 0.46514 0.12103
 C278 C 0.25055 0.44572 0.13123
 C279 C 0.24962 0.44272 0.15611
 C280 C 0.23500 0.45774 0.17003
 C281 C 0.22055 0.47597 0.15970
 C282 C 0.22145 0.47938 0.13508
 H283 H 0.28438 0.44566 0.04592
 H284 H 0.31131 0.36600 0.07826
 H285 H 0.30779 0.41824 0.02163
 H286 H 0.29464 0.37579 0.11668
 H287 H 0.27207 0.40172 0.14244
 H288 H 0.25488 0.46152 0.06411
 H289 H 0.22883 0.48512 0.08900
 H290 H 0.26053 0.42940 0.16541
 H291 H 0.23496 0.45506 0.18906
 H292 H 0.21010 0.49323 0.12685
 C293 C 0.73204 0.60576 0.05702
 C294 C 0.72191 0.59352 0.07685
 C295 C 0.69632 0.59553 0.08052
 C296 C 0.68145 0.60756 0.06388
 C297 C 0.69173 0.61888 0.04402
 C298 C 0.71712 0.61841 0.04102
 C299 C 0.68565 0.58544 0.10069
 C300 C 0.69984 0.57355 0.11757
 C301 C 0.72527 0.57043 0.11443
 C302 C 0.73626 0.57954 0.09319
 C303 C 0.76093 0.57355 0.08857
 C304 C 0.77444 0.55926 0.10422
 C305 C 0.76432 0.55131 0.12554
 C306 C 0.73988 0.55759 0.13139
 C307 C 0.73118 0.55096 0.15413
 C308 C 0.74569 0.53743 0.16970
 C309 C 0.76894 0.52959 0.16292
 C310 C 0.77845 0.53698 0.14108
 H311 H 0.75144 0.60628 0.05365
 H312 H 0.66180 0.60838 0.06652
 H313 H 0.72541 0.62735 0.02589
 H314 H 0.66609 0.58689 0.10358
 H315 H 0.69013 0.56599 0.13247
 H316 H 0.77001 0.57875 0.07240
 H317 H 0.79311 0.55457 0.09965
 H318 H 0.71348 0.55645 0.16060
 H319 H 0.73857 0.53264 0.18700
 H320 H 0.79684 0.53152 0.13623
 C321 C 0.67623 0.42338 0.92249
 C322 C 0.69874 0.41549 0.91269
 C323 C 0.70882 0.39343 0.92148
 C324 C 0.69672 0.37993 0.93896
 C325 C 0.67464 0.38807 0.94865
 C326 C 0.66448 0.40988 0.94023
 C327 C 0.73112 0.38490 0.91299
 C328 C 0.74436 0.39828 0.89665
 C329 C 0.73565 0.42077 0.88789
 C330 C 0.71189 0.42888 0.89498
 C331 C 0.70215 0.44993 0.88400
 C332 C 0.71549 0.46304 0.86727
 C333 C 0.73935 0.45627 0.86147
 C334 C 0.74992 0.43529 0.87208
 C335 C 0.77473 0.43015 0.86716
 C336 C 0.78832 0.44507 0.85225
 C337 C 0.77776 0.46548 0.84140
 C338 C 0.75302 0.47070 0.84561
 H339 H 0.66755 0.44019 0.91728
 H340 H 0.70488 0.36314 0.94536
 H341 H 0.64746 0.41665 0.94748
 H342 H 0.73864 0.36779 0.91933
 H343 H 0.76123 0.39016 0.89081
 H344 H 0.68398 0.45651 0.88766
 H345 H 0.70726 0.47904 0.85925
 H346 H 0.78460 0.41538 0.87538
 H347 H 0.80752 0.44095 0.84963
 H348 H 0.74477 0.48654 0.83732
 C349 C 0.33006 0.58132 0.91504
 C350 C 0.30421 0.58005 0.91318
 C351 C 0.29021 0.59117 0.93130
 C352 C 0.30171 0.60437 0.94944
 C353 C 0.32724 0.60588 0.95067
 C354 C 0.34132 0.59388 0.93365
 C355 C 0.26479 0.58909 0.93129
 C356 C 0.25282 0.57579 0.91389
 C357 C 0.26583 0.56470 0.89523
 C358 C 0.29180 0.56790 0.89422
 C359 C 0.30435 0.55954 0.87397
 C360 C 0.29205 0.54801 0.85555
 C361 C 0.26698 0.54344 0.85698
 C362 C 0.25361 0.55109 0.87716
 C363 C 0.22860 0.54445 0.87857
 C364 C 0.21738 0.53129 0.86044
 C365 C 0.23052 0.52457 0.84032
 C366 C 0.25519 0.53104 0.83841
 H367 H 0.34207 0.57235 0.90271
 H368 H 0.29074 0.61320 0.96292
 H369 H 0.36113 0.59460 0.93448
 H370 H 0.25400 0.59764 0.94505
 H371 H 0.23315 0.57531 0.91507
 H372 H 0.32368 0.56245 0.87144
 H373 H 0.30237 0.54224 0.84017
 H374 H 0.21741 0.54844 0.89376
 H375 H 0.19830 0.52620 0.86216
 H376 H 0.26528 0.52606 0.82264
 C377 C 0.09178 0.30118 0.37898
 C378 C 0.08908 0.29361 0.40285
 C379 C 0.06658 0.29882 0.41431
 C380 C 0.04813 0.31198 0.40249
 C381 C 0.05107 0.31880 0.37877
 C382 C 0.07289 0.31324 0.36712
 C383 C 0.06234 0.29025 0.43722
 C384 C 0.07947 0.27566 0.44869
 C385 C 0.10202 0.26981 0.43796
 C386 C 0.10752 0.28025 0.41536
 C387 C 0.13134 0.27727 0.40616
 C388 C 0.14892 0.26376 0.41822
 C389 C 0.14323 0.25195 0.43941
 C390 C 0.11952 0.25429 0.44932
 C391 C 0.11412 0.24045 0.46985
 C392 C 0.13190 0.22582 0.48055
 C393 C 0.15578 0.22500 0.47162
 C394 C 0.16119 0.23778 0.45077
 H395 H 0.10780 0.29703 0.36864
 H396 H 0.03092 0.31574 0.41130
 H397 H 0.07522 0.31808 0.34862
 H398 H 0.04529 0.29433 0.44617
 H399 H 0.07482 0.26975 0.46635
 H400 H 0.13722 0.28588 0.38996
 H401 H 0.16706 0.26221 0.41064
 H402 H 0.09613 0.24000 0.47765
 H403 H 0.12703 0.21526 0.49608
 H404 H 0.17952 0.23682 0.44349
 C405 C 0.07851 0.72745 0.62602
 C406 C 0.09017 0.71874 0.60533
 C407 C 0.08475 0.69465 0.59797
 C408 C 0.06725 0.68061 0.61016
 C409 C 0.05513 0.69001 0.63001
 C410 C 0.06132 0.71333 0.63801
 C411 C 0.09655 0.68480 0.57833
 C412 C 0.11345 0.69840 0.56553
 C413 C 0.11888 0.72275 0.57159
 C414 C 0.10677 0.73319 0.59163
 C415 C 0.11094 0.75799 0.59685
 C416 C 0.12607 0.77224 0.58287
 C417 C 0.13807 0.76237 0.56342
 C418 C 0.13532 0.73736 0.55778
 C419 C 0.14894 0.72823 0.53835
 C420 C 0.16339 0.74369 0.52444
 C421 C 0.16453 0.76865 0.52929
 C422 C 0.15238 0.77768 0.54920
 H423 H 0.08226 0.74504 0.63357
 H424 H 0.06291 0.66242 0.60401
 H425 H 0.05257 0.72097 0.65351
 H426 H 0.09258 0.66635 0.57268
 H427 H 0.12141 0.68947 0.55043
 H428 H 0.10212 0.76734 0.61121
 H429 H 0.12823 0.79134 0.58726
 H430 H 0.14882 0.70930 0.53339
 H431 H 0.17315 0.73627 0.50942
 H432 H 0.15337 0.79698 0.55315
 C433 C 0.90788 0.68818 0.41076
 C434 C 0.91249 0.71290 0.41634
 C435 C 0.93463 0.72341 0.40809
 C436 C 0.95058 0.71002 0.39363
 C437 C 0.94560 0.68565 0.38833
 C438 C 0.92439 0.67477 0.39721
 C439 C 0.94094 0.74706 0.41464
 C440 C 0.92609 0.76039 0.42976
 C441 C 0.90371 0.75087 0.43817
 C442 C 0.89621 0.72728 0.43028
 C443 C 0.87243 0.71913 0.43604
 C444 C 0.85668 0.73333 0.44944
 C445 C 0.86428 0.75572 0.45840
 C446 C 0.88819 0.76450 0.45357
 C447 C 0.89560 0.78648 0.46458
 C448 C 0.87947 0.79964 0.47879
 C449 C 0.85556 0.79142 0.48229
 C450 C 0.84801 0.76950 0.47211
 H451 H 0.89216 0.67843 0.41731
 H452 H 0.96739 0.71824 0.38726
 H453 H 0.92051 0.65579 0.39357
 H454 H 0.95780 0.75523 0.40835
 H455 H 0.93222 0.77856 0.43387
 H456 H 0.86506 0.70218 0.42960
 H457 H 0.83841 0.72656 0.45303
 H458 H 0.91385 0.79373 0.46290
 H459 H 0.88551 0.81653 0.48678
 H460 H 0.82947 0.76313 0.47509
 C461 C 0.91611 0.32127 0.58618
 C462 C 0.91523 0.29549 0.58603
 C463 C 0.93415 0.28269 0.59800
 C464 C 0.95213 0.29536 0.61086
 C465 C 0.95250 0.32084 0.61097
 C466 C 0.93462 0.33365 0.59827
 C467 C 0.93519 0.25734 0.59686
 C468 C 0.91823 0.24435 0.58354
 C469 C 0.89887 0.25621 0.57157
 C470 C 0.89659 0.28204 0.57396
 C471 C 0.87545 0.29350 0.56477
 C472 C 0.85750 0.28030 0.55297
 C473 C 0.86033 0.25541 0.54904
 C474 C 0.88132 0.24306 0.55776
 C475 C 0.88402 0.21811 0.55194
 C476 C 0.86640 0.20605 0.53836
 C477 C 0.84553 0.21832 0.53039
 C478 C 0.84230 0.24281 0.53624
 H479 H 0.90322 0.33238 0.57651
 H480 H 0.96632 0.28539 0.62024
 H481 H 0.93481 0.35338 0.59790
 H482 H 0.94954 0.24743 0.60604
 H483 H 0.92029 0.22483 0.58363
 H484 H 0.87181 0.31262 0.56717
 H485 H 0.84143 0.28980 0.54647
 H486 H 0.89989 0.20762 0.55697
 H487 H 0.86909 0.18704 0.53394
 H488 H 0.82575 0.25210 0.53068
 C489 C 0.38494 0.06824 0.27314
 C490 C 0.40499 0.08241 0.28111
 C491 C 0.41326 0.07864 0.30470
 C492 C 0.40235 0.06081 0.31920
 C493 C 0.38272 0.04680 0.31084
 C494 C 0.37408 0.05085 0.28777
 C495 C 0.43236 0.09269 0.31375
 C496 C 0.44344 0.11056 0.30001
 C497 C 0.43613 0.11488 0.27633
 C498 C 0.41696 0.10018 0.26655
 C499 C 0.41077 0.10335 0.24241
 C500 C 0.42281 0.12020 0.22827
 C501 C 0.44120 0.13493 0.23760
 C502 C 0.44781 0.13295 0.26187
 C503 C 0.46596 0.14911 0.27054
 C504 C 0.47786 0.16540 0.25542
 C505 C 0.47222 0.16613 0.23121
 C506 C 0.45338 0.15133 0.22255
 H507 H 0.37690 0.07030 0.25581
 H508 H 0.40899 0.05806 0.33714
 H509 H 0.35881 0.04043 0.28087
 H510 H 0.43880 0.08988 0.33175
 H511 H 0.45820 0.12032 0.30838
 H512 H 0.39706 0.09258 0.23357
 H513 H 0.41770 0.12164 0.20974
 H514 H 0.47141 0.14969 0.28888
 H515 H 0.49201 0.17714 0.26255
 H516 H 0.44884 0.15193 0.20384
 C517 C 0.57955 0.08966 0.68307
 C518 C 0.57650 0.08750 0.70792
 C519 C 0.58635 0.06658 0.71926
 C520 C 0.60002 0.04954 0.70636
 C521 C 0.60313 0.05222 0.68189
 C522 C 0.59247 0.07213 0.67031
 C523 C 0.58239 0.06265 0.74336
 C524 C 0.56841 0.07880 0.75650
 C525 C 0.55855 0.10011 0.74618
 C526 C 0.56371 0.10512 0.72179
 C527 C 0.55657 0.12786 0.71230
 C528 C 0.54440 0.14496 0.72600
 C529 C 0.53801 0.13975 0.74936
 C530 C 0.54433 0.11697 0.75962
 C531 C 0.53586 0.11194 0.78285
 C532 C 0.52237 0.12914 0.79544
 C533 C 0.51710 0.15182 0.78543
 C534 C 0.52523 0.15721 0.76256
 H535 H 0.57160 0.10430 0.67289
 H536 H 0.60776 0.03379 0.71529
 H537 H 0.59441 0.07431 0.65131
 H538 H 0.58992 0.04673 0.75213
 H539 H 0.56639 0.07452 0.77504
 H540 H 0.56098 0.13340 0.69447
 H541 H 0.53964 0.16235 0.71808
 H542 H 0.53880 0.09468 0.79153
 H543 H 0.51603 0.12478 0.81314
 H544 H 0.52122 0.17493 0.75493
 C545 C 0.38354 0.92979 0.72072
 C546 C 0.40336 0.91491 0.71357
 C547 C 0.41201 0.91768 0.69003
 C548 C 0.40181 0.93535 0.67484
 C549 C 0.38246 0.95016 0.68241
 C550 C 0.37334 0.94700 0.70537
 C551 C 0.43079 0.90280 0.68173
 C552 C 0.44119 0.88506 0.69619
 C553 C 0.43353 0.88176 0.71987
 C554 C 0.41475 0.89738 0.72889
 C555 C 0.40842 0.89540 0.75307
 C556 C 0.41998 0.87885 0.76796
 C557 C 0.43793 0.86321 0.75937
 C558 C 0.44458 0.86391 0.73509
 C559 C 0.46211 0.84673 0.72720
 C560 C 0.47355 0.83077 0.74308
 C561 C 0.46808 0.83151 0.76728
 C562 C 0.44969 0.84723 0.77516
 H563 H 0.37518 0.92840 0.73792
 H564 H 0.40878 0.93737 0.65696
 H565 H 0.35825 0.95802 0.71164
 H566 H 0.43751 0.90484 0.66377
 H567 H 0.45577 0.87462 0.68841
 H568 H 0.39505 0.90695 0.76135
 H569 H 0.41484 0.87837 0.78651
 H570 H 0.46741 0.84513 0.70890
 H571 H 0.48730 0.81828 0.73655
 H572 H 0.44521 0.84767 0.79388
 C573 C 0.60996 0.94410 0.26374
 C574 C 0.59427 0.92588 0.27289
 C575 C 0.59421 0.92203 0.29778
 C576 C 0.60806 0.93714 0.31281
 C577 C 0.62318 0.95530 0.30335
 C578 C 0.62427 0.95837 0.27875
 C579 C 0.58050 0.90302 0.30745
 C580 C 0.56741 0.88724 0.29292
 C581 C 0.56670 0.89051 0.26809
 C582 C 0.57915 0.91101 0.25813
 C583 C 0.57565 0.91632 0.23386
 C584 C 0.56130 0.90152 0.21955
 C585 C 0.55062 0.88042 0.22860
 C586 C 0.55354 0.87427 0.25290
 C587 C 0.54384 0.85172 0.26074
 C588 C 0.53141 0.83632 0.24514
 C589 C 0.52757 0.84324 0.22157
 C590 C 0.53728 0.86521 0.21335
 H591 H 0.61213 0.94731 0.24501
 H592 H 0.60753 0.93441 0.33185
 H593 H 0.63601 0.97218 0.27107
 H594 H 0.58025 0.90002 0.32645
 H595 H 0.55727 0.87304 0.30176
 H596 H 0.58314 0.93235 0.22553
 H597 H 0.55894 0.90642 0.20105
 H598 H 0.54638 0.84507 0.27857
 H599 H 0.52480 0.81887 0.25146
 H600 H 0.53489 0.87014 0.19485
 C601 C 0.38907 0.25956 0.94919
 C602 C 0.40238 0.26908 0.92973
 C603 C 0.40151 0.29459 0.92580
 C604 C 0.38930 0.30987 0.94175
 C605 C 0.37676 0.30016 0.96119
 C606 C 0.37630 0.27492 0.96452
 C607 C 0.41282 0.30478 0.90601
 C608 C 0.42468 0.29016 0.88964
 C609 C 0.42646 0.26473 0.89291
 C610 C 0.41623 0.25420 0.91389
 C611 C 0.42085 0.22938 0.91872
 C612 C 0.43464 0.21520 0.90337
 C613 C 0.44348 0.22488 0.88218
 C614 C 0.43884 0.24958 0.87626
 C615 C 0.44643 0.25797 0.85367
 C616 C 0.45898 0.24268 0.83819
 C617 C 0.46490 0.21892 0.84495
 C618 C 0.45687 0.20994 0.86677
 H619 H 0.38772 0.24030 0.95272
 H620 H 0.38921 0.32940 0.93882
 H621 H 0.36643 0.26707 0.97932
 H622 H 0.41229 0.32428 0.90298
 H623 H 0.43318 0.29949 0.87498
 H624 H 0.41483 0.22057 0.93478
 H625 H 0.43815 0.19634 0.90802
 H626 H 0.44232 0.27599 0.84718
 H627 H 0.46444 0.24951 0.82096
 H628 H 0.46088 0.19122 0.87159
 C629 C 0.57389 0.67883 0.91859
 C630 C 0.57699 0.70379 0.91274
 C631 C 0.59511 0.71697 0.92538
 C632 C 0.60977 0.70543 0.94248
 C633 C 0.60670 0.68069 0.94782
 C634 C 0.58849 0.66758 0.93587
 C635 C 0.59868 0.74167 0.92091
 C636 C 0.58459 0.75383 0.90422
 C637 C 0.56633 0.74168 0.89099
 C638 C 0.56281 0.71612 0.89493
 C639 C 0.54555 0.70374 0.88067
 C640 C 0.53219 0.71582 0.86322
 C641 C 0.53506 0.74077 0.85952
 C642 C 0.55183 0.75418 0.87363
 C643 C 0.55326 0.77965 0.86983
 C644 C 0.53914 0.79105 0.85245
 C645 C 0.52307 0.77766 0.83822
 C646 C 0.52118 0.75245 0.84176
 H647 H 0.56023 0.66750 0.91035
 H648 H 0.62361 0.71589 0.95179
 H649 H 0.58559 0.64846 0.93974
 H650 H 0.61259 0.75179 0.93047
 H651 H 0.58892 0.77279 0.90179
 H652 H 0.54222 0.68448 0.88221
 H653 H 0.51935 0.70547 0.85256
 H654 H 0.56475 0.79148 0.88019
 H655 H 0.54058 0.81062 0.85027
 H656 H 0.50876 0.74197 0.83076
 C657 C 0.38742 0.70346 0.08990
 C658 C 0.41142 0.71270 0.08674
 C659 C 0.42332 0.70785 0.06493
 C660 C 0.41221 0.69284 0.04792
 C661 C 0.38866 0.68366 0.05159
 C662 C 0.37616 0.68941 0.07239
 C663 C 0.44610 0.71819 0.06013
 C664 C 0.45716 0.73379 0.07627
 C665 C 0.44628 0.73881 0.09839
 C666 C 0.42377 0.72695 0.10422
 C667 C 0.41477 0.72909 0.12755
 C668 C 0.42709 0.74276 0.14448
 C669 C 0.44819 0.75570 0.13857
 C670 C 0.45762 0.75462 0.11523
 C671 C 0.47773 0.76982 0.10959
 C672 C 0.48867 0.78445 0.12683
 C673 C 0.48055 0.78378 0.15035
 C674 C 0.45996 0.76971 0.15596
 H675 H 0.37661 0.70745 0.10536
 H676 H 0.42158 0.68884 0.03145
 H677 H 0.35772 0.68274 0.07521
 H678 H 0.45531 0.71450 0.04353
 H679 H 0.47483 0.74092 0.07134
 H680 H 0.39870 0.71951 0.13355
 H681 H 0.41981 0.74346 0.16232
 H682 H 0.48492 0.77133 0.09187
 H683 H 0.50375 0.79617 0.12179
 H684 H 0.45316 0.76958 0.17401
 C685 C 0.61417 0.27143 0.07293
 C686 C 0.59474 0.27988 0.08727
 C687 C 0.58655 0.30414 0.08366
 C688 C 0.59685 0.31876 0.06577
 C689 C 0.61570 0.30982 0.05144
 C690 C 0.62437 0.28616 0.05540
 C691 C 0.56806 0.31369 0.09782
 C692 C 0.55736 0.29974 0.11555
 C693 C 0.56449 0.27535 0.11963
 C694 C 0.58318 0.26512 0.10496
 C695 C 0.58926 0.24030 0.10804
 C696 C 0.57744 0.22589 0.12467
 C697 C 0.55940 0.23561 0.13922
 C698 C 0.55302 0.26060 0.13740
 C699 C 0.53523 0.26963 0.15335
 C700 C 0.52338 0.25415 0.16929
 C701 C 0.52876 0.22924 0.16985
 C702 C 0.54729 0.22022 0.15527
 H703 H 0.62215 0.25361 0.07486
 H704 H 0.59021 0.33717 0.06308
 H705 H 0.63908 0.27881 0.04475
 H706 H 0.56173 0.33222 0.09516
 H707 H 0.54302 0.30852 0.12540
 H708 H 0.60268 0.23111 0.09739
 H709 H 0.58240 0.20681 0.12603
 H710 H 0.52997 0.28852 0.15400
 H711 H 0.50947 0.26155 0.18086
 H712 H 0.55162 0.20095 0.15576
 C713 C 0.29603 0.05243 0.56169
 C714 C 0.29188 0.07709 0.56787
 C715 C 0.30411 0.08626 0.58821
 C716 C 0.31798 0.07068 0.60279
 C717 C 0.32096 0.04618 0.59682
 C718 C 0.31047 0.03731 0.57596
 C719 C 0.30214 0.11083 0.59407
 C720 C 0.28832 0.12664 0.58019
 C721 C 0.27501 0.11825 0.56033
 C722 C 0.27603 0.09288 0.55467
 C723 C 0.26038 0.08395 0.53672
 C724 C 0.24428 0.09924 0.52471
 C725 C 0.24387 0.12418 0.52932
 C726 C 0.25988 0.13420 0.54654
 C727 C 0.26012 0.15984 0.54915
 C728 C 0.24444 0.17464 0.53587
 C729 C 0.22775 0.16453 0.51976
 C730 C 0.22743 0.13917 0.51681
 H731 H 0.28859 0.04438 0.54583
 H732 H 0.32643 0.07755 0.61886
 H733 H 0.31284 0.01838 0.57107
 H734 H 0.31147 0.11797 0.60955
 H735 H 0.28750 0.14525 0.58617
 H736 H 0.25934 0.06490 0.53226
 H737 H 0.23216 0.09147 0.51149
 H738 H 0.27267 0.16906 0.56085
 H739 H 0.24541 0.19420 0.53818
 H740 H 0.21437 0.13103 0.50471
 C741 C 0.73673 0.07130 0.38285
 C742 C 0.72814 0.08251 0.40374
 C743 C 0.70419 0.07654 0.41149
 C744 C 0.69007 0.05912 0.39926
 C745 C 0.69913 0.04782 0.37874
 C746 C 0.72253 0.05440 0.37069
 C747 C 0.69443 0.08805 0.43134
 C748 C 0.70780 0.10555 0.44361
 C749 C 0.73186 0.11186 0.43683
 C750 C 0.74244 0.09957 0.41699
 C751 C 0.76718 0.10427 0.41138
 C752 C 0.78105 0.12059 0.42439
 C753 C 0.77085 0.13324 0.44327
 C754 C 0.74600 0.12952 0.44957
 C755 C 0.73648 0.14369 0.46839
 C756 C 0.75141 0.15984 0.48099
 C757 C 0.77625 0.16224 0.47540
 C758 C 0.78567 0.14931 0.45618
 H759 H 0.75419 0.07547 0.37503
 H760 H 0.67190 0.05463 0.40562
 H761 H 0.73016 0.04642 0.35479
 H762 H 0.67615 0.08361 0.43741
 H763 H 0.69892 0.11339 0.45881
 H764 H 0.77676 0.09504 0.39739
 H765 H 0.80008 0.12330 0.41960
 H766 H 0.71760 0.14283 0.47376
 H767 H 0.74367 0.17013 0.49551
 H768 H 0.80488 0.15123 0.45171
 C769 C 0.68095 0.92483 0.57820
 C770 C 0.70638 0.92191 0.58239
 C771 C 0.71714 0.93607 0.60065
 C772 C 0.70279 0.95170 0.61450
 C773 C 0.67769 0.95430 0.61012
 C774 C 0.66696 0.94086 0.59178
 C775 C 0.74223 0.93478 0.60493
 C776 C 0.75713 0.92003 0.59125
 C777 C 0.74742 0.90545 0.57291
 C778 C 0.72151 0.90576 0.56895
 C779 C 0.71157 0.88958 0.55204
 C780 C 0.72637 0.87380 0.53930
 C781 C 0.75169 0.87388 0.54238
 C782 C 0.76269 0.89007 0.55882
 C783 C 0.78858 0.89016 0.56041
 C784 C 0.80268 0.87417 0.54698
 C785 C 0.79160 0.85767 0.53148
 C786 C 0.76609 0.85762 0.52925
 H787 H 0.67137 0.91546 0.56424
 H788 H 0.71136 0.96237 0.62838
 H789 H 0.64762 0.94274 0.58788
 H790 H 0.75052 0.94549 0.61894
 H791 H 0.77624 0.92001 0.59596
 H792 H 0.69222 0.88813 0.54867
 H793 H 0.71787 0.86146 0.52676
 H794 H 0.79858 0.90253 0.57162
 H795 H 0.82243 0.87462 0.54877
 H796 H 0.75737 0.84450 0.51767
 C797 C 0.31689 0.91778 0.42200
 C798 C 0.29179 0.91245 0.41813
 C799 C 0.27935 0.92596 0.40036
 C800 C 0.29188 0.94320 0.38654
 C801 C 0.31679 0.94795 0.39036
 C802 C 0.32906 0.93528 0.40837
 C803 C 0.25442 0.92228 0.39643
 C804 C 0.24131 0.90565 0.40993
 C805 C 0.25278 0.89153 0.42772
 C806 C 0.27859 0.89444 0.43137
 C807 C 0.29041 0.87893 0.44779
 C808 C 0.27751 0.86148 0.46050
 C809 C 0.25227 0.85908 0.45781
 C810 C 0.23938 0.87427 0.44169
 C811 C 0.21358 0.87160 0.44044
 C812 C 0.20135 0.85446 0.45443
 C813 C 0.21430 0.83938 0.47004
 C814 C 0.23981 0.84155 0.47132
 H815 H 0.32759 0.90907 0.43565
 H816 H 0.28206 0.95319 0.37290
 H817 H 0.34826 0.93875 0.41185
 H818 H 0.24484 0.93253 0.38281
 H819 H 0.22220 0.90389 0.40554
 H820 H 0.30987 0.87938 0.45088
 H821 H 0.28743 0.84987 0.47278
 H822 H 0.20220 0.88282 0.42927
 H823 H 0.18159 0.85324 0.45331
 H824 H 0.25003 0.82953 0.48296
 C825 C 0.09069 0.42031 0.67820
 C826 C 0.09394 0.41817 0.70303
 C827 C 0.07726 0.40320 0.71566
 C828 C 0.05897 0.39012 0.70362
 C829 C 0.05624 0.39231 0.67902
 C830 C 0.07208 0.40768 0.66651
 C831 C 0.07879 0.40144 0.74026
 C832 C 0.09618 0.41462 0.75280
 C833 C 0.11331 0.42969 0.74110
 C834 C 0.11284 0.43064 0.71575
 C835 C 0.13157 0.44359 0.70397
 C836 C 0.14977 0.45572 0.71647
 C837 C 0.14970 0.45605 0.74116
 C838 C 0.13123 0.44344 0.75389
 C839 C 0.13136 0.44539 0.77892
 C840 C 0.14930 0.45889 0.79063
 C841 C 0.16768 0.47081 0.77792
 C842 C 0.16804 0.46904 0.75322
 H843 H 0.10183 0.43204 0.66733
 H844 H 0.04650 0.37859 0.71351
 H845 H 0.07020 0.40984 0.64750
 H846 H 0.06618 0.38993 0.75000
 H847 H 0.09615 0.41205 0.77173
 H848 H 0.13312 0.44415 0.68495
 H849 H 0.16390 0.46523 0.70665
 H850 H 0.11754 0.43723 0.78997
 H851 H 0.14877 0.46019 0.80979
 H852 H 0.18263 0.47774 0.74339
 C853 C 0.07298 0.57584 0.31759
 C854 C 0.07820 0.58047 0.29341
 C855 C 0.06428 0.59874 0.28173
 C856 C 0.04664 0.61223 0.29407
 C857 C 0.04202 0.60766 0.31807
 C858 C 0.05518 0.58921 0.32961
 C859 C 0.06800 0.60357 0.25777
 C860 C 0.08504 0.59048 0.24488
 C861 C 0.09946 0.57212 0.25557
 C862 C 0.09654 0.56755 0.28040
 C863 C 0.11232 0.55055 0.29144
 C864 C 0.13009 0.53819 0.27867
 C865 C 0.13255 0.54178 0.25434
 C866 C 0.11701 0.55848 0.24232
 C867 C 0.11952 0.56058 0.21743
 C868 C 0.13690 0.54700 0.20523
 C869 C 0.15244 0.53090 0.21725
 C870 C 0.15038 0.52858 0.24188
 H871 H 0.08204 0.56182 0.32770
 H872 H 0.03637 0.62627 0.28486
 H873 H 0.05185 0.58516 0.34813
 H874 H 0.05750 0.61762 0.24880
 H875 H 0.08685 0.59568 0.22656
 H876 H 0.11182 0.54673 0.31016
 H877 H 0.14191 0.52546 0.28796
 H878 H 0.10797 0.57207 0.20669
 H879 H 0.13797 0.54880 0.18612
 H880 H 0.16246 0.51618 0.25128
 C881 C 0.91840 0.37615 0.26849
 C882 C 0.90464 0.39630 0.27668
 C883 C 0.90870 0.40409 0.30031
 C884 C 0.92665 0.39291 0.31451
 C885 C 0.94077 0.37364 0.30573
 C886 C 0.93612 0.36513 0.28279
 C887 C 0.89511 0.42327 0.30961
 C888 C 0.87773 0.43527 0.29592
 C889 C 0.87346 0.42879 0.27205
 C890 C 0.88730 0.40912 0.26220
 C891 C 0.88393 0.40343 0.23801
 C892 C 0.86801 0.41671 0.22379
 C893 C 0.85445 0.43588 0.23308
 C894 C 0.85640 0.44186 0.25747
 C895 C 0.84137 0.46090 0.26608
 C896 C 0.82629 0.47423 0.25081
 C897 C 0.82574 0.46917 0.22653
 C898 C 0.83930 0.44950 0.21790
 H899 H 0.91602 0.36840 0.25114
 H900 H 0.92984 0.39946 0.33236
 H901 H 0.94654 0.35009 0.27561
 H902 H 0.89806 0.42924 0.32770
 H903 H 0.86842 0.45010 0.30447
 H904 H 0.89388 0.38919 0.22919
 H905 H 0.86647 0.41200 0.20519
 H906 H 0.84080 0.46606 0.28446
 H907 H 0.81539 0.48898 0.25791
 H908 H 0.83870 0.44536 0.19912
 C909 C 0.90933 0.61847 0.71347
 C910 C 0.91293 0.59429 0.72159
 C911 C 0.93562 0.58292 0.71644
 C912 C 0.95320 0.59489 0.70251
 C913 C 0.94926 0.61878 0.69477
 C914 C 0.92742 0.63057 0.70056
 C915 C 0.94085 0.55988 0.72559
 C916 C 0.92438 0.54812 0.74044
 C917 C 0.90150 0.55858 0.74593
 C918 C 0.89511 0.58133 0.73518
 C919 C 0.87096 0.59002 0.73787
 C920 C 0.85375 0.57715 0.75097
 C921 C 0.86020 0.55573 0.76277
 C922 C 0.88442 0.54661 0.76114
 C923 C 0.89064 0.52611 0.77515
 C924 C 0.87304 0.51428 0.78888
 C925 C 0.84861 0.52198 0.78853
 C926 C 0.84247 0.54318 0.77602
 H927 H 0.89317 0.62885 0.71763
 H928 H 0.97045 0.58604 0.69855
 H929 H 0.92435 0.64924 0.69504
 H930 H 0.95809 0.55103 0.72162
 H931 H 0.92970 0.53031 0.74669
 H932 H 0.86448 0.60630 0.72916
 H933 H 0.83526 0.58419 0.75209
 H934 H 0.90905 0.51913 0.77626
 H935 H 0.87844 0.49864 0.79941
 H936 H 0.82371 0.54964 0.77625
 C937 C 0.71428 0.61935 0.91316
 C938 C 0.71660 0.59372 0.91290
 C939 C 0.70498 0.58025 0.93113
 C940 C 0.68942 0.59195 0.94732
 C941 C 0.68737 0.61748 0.94749
 C942 C 0.70051 0.63100 0.93061
 C943 C 0.70945 0.55530 0.93343
 C944 C 0.72590 0.54364 0.91846
 C945 C 0.73705 0.55621 0.89951
 C946 C 0.73077 0.58113 0.89563
 C947 C 0.73806 0.59232 0.87423
 C948 C 0.75129 0.57952 0.85729
 C949 C 0.75929 0.55579 0.86183
 C950 C 0.75341 0.54437 0.88362
 C951 C 0.76474 0.52189 0.88893
 C952 C 0.78001 0.51056 0.87250
 C953 C 0.78300 0.52026 0.84964
 C954 C 0.77310 0.54335 0.84473
 H955 H 0.72389 0.63086 0.90075
 H956 H 0.68015 0.58124 0.96077
 H957 H 0.69964 0.65072 0.93041
 H958 H 0.70073 0.54483 0.94736
 H959 H 0.72863 0.52437 0.92129
 H960 H 0.73253 0.61060 0.86958
 H961 H 0.75577 0.58847 0.84071
 H962 H 0.76282 0.51322 0.90603
 H963 H 0.78908 0.49382 0.87759
 H964 H 0.77604 0.55164 0.82751
 C965 C 0.26859 0.37943 0.93289
 C966 C 0.27833 0.39916 0.91977
 C967 C 0.30331 0.40512 0.92335
 C968 C 0.31720 0.39298 0.94068
 C969 C 0.30700 0.37409 0.95430
 C970 C 0.28273 0.36709 0.94972
 C971 C 0.31431 0.42332 0.90978
 C972 C 0.30113 0.43569 0.89249
 C973 C 0.27606 0.43086 0.88859
 C974 C 0.26423 0.41305 0.90315
 C975 C 0.23860 0.41033 0.90123
 C976 C 0.22501 0.42429 0.88540
 C977 C 0.23646 0.44084 0.87029
 C978 C 0.26223 0.44386 0.87114
 C979 C 0.27311 0.45951 0.85418
 C980 C 0.25881 0.47237 0.83790
 C981 C 0.23331 0.47056 0.83832
 C982 C 0.22224 0.45442 0.85426
 H983 H 0.25020 0.37281 0.93032
 H984 H 0.33610 0.39836 0.94349
 H985 H 0.27431 0.35231 0.95953
 H986 H 0.33339 0.42800 0.91248
 H987 H 0.31092 0.44972 0.88306
 H988 H 0.22830 0.39817 0.91242
 H989 H 0.20531 0.42192 0.88485
 H990 H 0.29265 0.46161 0.85253
 H991 H 0.26777 0.48355 0.82470
 H992 H 0.20248 0.45248 0.85414
 C993 C 0.32136 0.57303 0.07778
 C994 C 0.29718 0.57938 0.08434
 C995 C 0.28603 0.59912 0.07218
 C996 C 0.29902 0.61246 0.05511
 C997 C 0.32311 0.60619 0.04896
 C998 C 0.33397 0.58612 0.06035
 C999 C 0.26189 0.60553 0.07704
 C1000 C 0.24822 0.59247 0.09337
 C1001 C 0.25838 0.57267 0.10601
 C1002 C 0.28356 0.56671 0.10222
 C1003 C 0.29438 0.54869 0.11679
 C1004 C 0.28096 0.53660 0.13413
 C1005 C 0.25607 0.54131 0.13713
 C1006 C 0.24428 0.55899 0.12271
 C1007 C 0.21869 0.56191 0.12530
 C1008 C 0.20560 0.54820 0.14176
 C1009 C 0.21741 0.53127 0.15643
 C1010 C 0.24280 0.52821 0.15429
 H1011 H 0.33088 0.55772 0.08544
 H1012 H 0.29005 0.62766 0.04635
 H1013 H 0.35242 0.58053 0.05595
 H1014 H 0.25334 0.62074 0.06793
 H1015 H 0.22985 0.59890 0.09622
 H1016 H 0.31348 0.54397 0.11568
 H1017 H 0.29010 0.52310 0.14506
 H1018 H 0.20804 0.57401 0.11431
 H1019 H 0.18593 0.55056 0.14275
 H1020 H 0.25212 0.51521 0.16565
 C1021 C 0.72484 0.38799 0.06584
 C1022 C 0.71611 0.40811 0.07895
 C1023 C 0.69133 0.41500 0.07570
 C1024 C 0.67650 0.40301 0.05899
 C1025 C 0.68552 0.38325 0.04584
 C1026 C 0.70978 0.37576 0.04976
 C1027 C 0.68137 0.43376 0.08922
 C1028 C 0.69529 0.44554 0.10635
 C1029 C 0.72011 0.43950 0.11016
 C1030 C 0.73099 0.42131 0.09545
 C1031 C 0.75646 0.41733 0.09730
 C1032 C 0.77072 0.43020 0.11338
 C1033 C 0.76014 0.44697 0.12876
 C1034 C 0.73460 0.45150 0.12779
 C1035 C 0.72459 0.46745 0.14491
 C1036 C 0.73952 0.47902 0.16157
 C1037 C 0.76487 0.47556 0.16142
 C1038 C 0.77502 0.45922 0.14520
 H1039 H 0.74306 0.38080 0.06801
 H1040 H 0.65770 0.40889 0.05660
 H1041 H 0.71738 0.36044 0.04022
 H1042 H 0.66246 0.43923 0.08674
 H1043 H 0.68624 0.45994 0.11586
 H1044 H 0.76613 0.40487 0.08598
 H1045 H 0.79026 0.42675 0.11396
 H1046 H 0.70521 0.47077 0.14638
 H1047 H 0.73114 0.49042 0.17487
 H1048 H 0.79462 0.45603 0.14545
 C1049 C 0.93000 0.68993 0.58628
 C1050 C 0.92325 0.71428 0.59125
 C1051 C 0.93378 0.72542 0.61149
 C1052 C 0.94938 0.71223 0.62660
 C1053 C 0.95589 0.68805 0.62151
 C1054 C 0.94614 0.67720 0.60104
 C1055 C 0.92890 0.74978 0.61651
 C1056 C 0.91423 0.76363 0.60159
 C1057 C 0.90316 0.75342 0.58128
 C1058 C 0.90680 0.72806 0.57665
 C1059 C 0.89344 0.71724 0.55797
 C1060 C 0.87738 0.73077 0.54406
 C1061 C 0.87461 0.75574 0.54761
 C1062 C 0.88796 0.76758 0.56583
 C1063 C 0.88570 0.79319 0.56768
 C1064 C 0.87009 0.80619 0.55270
 C1065 C 0.85611 0.79425 0.53544
 C1066 C 0.85843 0.76896 0.53306
 H1067 H 0.92369 0.68040 0.57075
 H1068 H 0.95696 0.72118 0.64209
 H1069 H 0.95090 0.65867 0.59634
 H1070 H 0.93679 0.75836 0.63205
 H1071 H 0.91125 0.78222 0.60692
 H1072 H 0.89436 0.69805 0.55414
 H1073 H 0.86720 0.72160 0.53018
 H1074 H 0.89614 0.80381 0.58015
 H1075 H 0.86894 0.82579 0.55459
 H1076 H 0.84736 0.75946 0.52009
 C1077 C 0.93348 0.26470 0.38608
 C1078 C 0.92048 0.27364 0.40592
 C1079 C 0.92268 0.29876 0.41122
 C1080 C 0.93846 0.31375 0.39808
 C1081 C 0.95162 0.30456 0.37869
 C1082 C 0.94858 0.27995 0.37266
 C1083 C 0.90908 0.30889 0.42960
 C1084 C 0.89282 0.29477 0.44258
 C1085 C 0.89011 0.26962 0.43817
 C1086 C 0.90510 0.25866 0.42038
 C1087 C 0.90468 0.23306 0.41810
 C1088 C 0.88972 0.21870 0.43229
 C1089 C 0.87392 0.22928 0.44867
 C1090 C 0.87338 0.25494 0.45143
 C1091 C 0.85562 0.26487 0.46688
 C1092 C 0.83979 0.24981 0.47963
 C1093 C 0.84160 0.22449 0.47798
 C1094 C 0.85844 0.21432 0.46221
 H1095 H 0.93191 0.24614 0.38012
 H1096 H 0.94010 0.33281 0.40284
 H1097 H 0.95814 0.27223 0.35765
 H1098 H 0.91079 0.32807 0.43385
 H1099 H 0.88320 0.30395 0.45661
 H1100 H 0.91642 0.22345 0.40598
 H1101 H 0.89027 0.19909 0.43016
 H1102 H 0.85286 0.28420 0.46880
 H1103 H 0.82576 0.25802 0.49047
 H1104 H 0.85926 0.19468 0.46032
 C1105 C 0.07745 0.27897 0.61413
 C1106 C 0.08868 0.28570 0.59254
 C1107 C 0.08270 0.30880 0.58281
 C1108 C 0.06507 0.32373 0.59369
 C1109 C 0.05357 0.31645 0.61481
 C1110 C 0.06034 0.29405 0.62498
 C1111 C 0.09431 0.31686 0.56225
 C1112 C 0.11181 0.30257 0.55110
 C1113 C 0.11798 0.27919 0.55974
 C1114 C 0.10565 0.27033 0.58040
 C1115 C 0.11008 0.24612 0.58779
 C1116 C 0.12594 0.23105 0.57550
 C1117 C 0.13852 0.23957 0.55572
 C1118 C 0.13536 0.26396 0.54792
 C1119 C 0.14969 0.27196 0.52850
 C1120 C 0.16509 0.25589 0.51648
 C1121 C 0.16653 0.23137 0.52322
 C1122 C 0.15383 0.22355 0.54333
 H1123 H 0.08174 0.26234 0.62341
 H1124 H 0.06049 0.34115 0.58571
 H1125 H 0.05226 0.28786 0.64145
 H1126 H 0.08986 0.33450 0.55469
 H1127 H 0.11962 0.31009 0.53516
 H1128 H 0.10083 0.23783 0.60258
 H1129 H 0.12829 0.21242 0.58153
 H1130 H 0.14948 0.29049 0.52218
 H1131 H 0.17538 0.26247 0.50138
 H1132 H 0.15515 0.20464 0.54881
 C1133 C 0.08211 0.70713 0.38194
 C1134 C 0.08373 0.70809 0.40690
 C1135 C 0.06523 0.69637 0.42030
 C1136 C 0.04740 0.68200 0.40897
 C1137 C 0.04582 0.68144 0.38411
 C1138 C 0.06304 0.69465 0.37083
 C1139 C 0.06426 0.69970 0.44482
 C1140 C 0.08064 0.71530 0.45611
 C1141 C 0.09979 0.72663 0.44346
 C1142 C 0.10251 0.72125 0.41891
 C1143 C 0.12420 0.72854 0.40736
 C1144 C 0.14235 0.74132 0.41939
 C1145 C 0.13875 0.74880 0.44275
 C1146 C 0.11685 0.74253 0.45470
 C1147 C 0.11245 0.75325 0.47700
 C1148 C 0.12969 0.76872 0.48737
 C1149 C 0.15261 0.77259 0.47677
 C1150 C 0.15678 0.76276 0.45419
 H1151 H 0.09464 0.71692 0.37064
 H1152 H 0.03373 0.67263 0.41952
 H1153 H 0.06222 0.69486 0.35163
 H1154 H 0.05017 0.69087 0.45526
 H1155 H 0.07872 0.71731 0.47505
 H1156 H 0.12808 0.72348 0.38928
 H1157 H 0.15904 0.74601 0.41009
 H1158 H 0.09530 0.75090 0.48620
 H1159 H 0.12504 0.77757 0.50386
 H1160 H 0.17405 0.76614 0.44534
 C1161 C 0.56005 0.94346 0.69595
 C1162 C 0.56984 0.92172 0.70567
 C1163 C 0.59422 0.91542 0.69964
 C1164 C 0.60878 0.93156 0.68643
 C1165 C 0.59902 0.95341 0.67783
 C1166 C 0.57445 0.95890 0.68207
 C1167 C 0.60399 0.89320 0.70701
 C1168 C 0.59003 0.87688 0.72010
 C1169 C 0.56602 0.88271 0.72732
 C1170 C 0.55626 0.90601 0.72101
 C1171 C 0.53380 0.91329 0.73108
 C1172 C 0.52117 0.89820 0.74662
 C1173 C 0.52976 0.87485 0.75178
 C1174 C 0.55179 0.86640 0.74146
 C1175 C 0.55851 0.84185 0.74553
 C1176 C 0.54422 0.82667 0.75976
 C1177 C 0.52308 0.83547 0.77081
 C1178 C 0.51631 0.85983 0.76714
 H1179 H 0.54125 0.94879 0.69846
 H1180 H 0.62772 0.92709 0.68270
 H1181 H 0.56657 0.97565 0.67528
 H1182 H 0.62260 0.88826 0.70244
 H1183 H 0.59900 0.86021 0.72532
 H1184 H 0.52605 0.93110 0.72812
 H1185 H 0.50428 0.90473 0.75438
 H1186 H 0.57422 0.83361 0.73727
 H1187 H 0.54967 0.80783 0.76203
 H1188 H 0.50032 0.86705 0.77599
 C1189 C 0.41678 0.91336 0.31634
 C1190 C 0.41436 0.91055 0.29151
 C1191 C 0.39777 0.92619 0.27946
 C1192 C 0.38362 0.94317 0.29207
 C1193 C 0.38645 0.94573 0.31661
 C1194 C 0.40319 0.93077 0.32855
 C1195 C 0.39571 0.92513 0.25485
 C1196 C 0.41026 0.90940 0.24175
 C1197 C 0.42708 0.89349 0.25287
 C1198 C 0.42827 0.89325 0.27821
 C1199 C 0.44303 0.87550 0.28942
 C1200 C 0.45681 0.85909 0.27639
 C1201 C 0.45700 0.86006 0.25171
 C1202 C 0.44245 0.87748 0.23953
 C1203 C 0.44423 0.87832 0.21448
 C1204 C 0.45951 0.86232 0.20226
 C1205 C 0.47345 0.84495 0.21445
 C1206 C 0.47178 0.84366 0.23915
 H1207 H 0.42959 0.90296 0.32680
 H1208 H 0.37103 0.95502 0.28264
 H1209 H 0.40584 0.93256 0.34751
 H1210 H 0.38298 0.93691 0.24552
 H1211 H 0.40746 0.90975 0.22285
 H1212 H 0.44385 0.87336 0.30839
 H1213 H 0.46775 0.84569 0.28579
 H1214 H 0.43454 0.89150 0.20384
 H1215 H 0.46062 0.86364 0.18312
 H1216 H 0.48191 0.82974 0.24862
 C1217 C 0.62708 0.09428 0.29284
 C1218 C 0.60229 0.09143 0.28592
 C1219 C 0.59101 0.06855 0.29013
 C1220 C 0.60355 0.05014 0.30240
 C1221 C 0.62784 0.05351 0.30942
 C1222 C 0.63971 0.07540 0.30417
 C1223 C 0.56732 0.06409 0.28198
 C1224 C 0.55472 0.08164 0.26909
 C1225 C 0.56501 0.10480 0.26475
 C1226 C 0.58851 0.11027 0.27457
 C1227 C 0.59706 0.13451 0.27338
 C1228 C 0.58330 0.15269 0.26247
 C1229 C 0.56118 0.14718 0.25130
 C1230 C 0.55217 0.12297 0.25155
 C1231 C 0.53104 0.11775 0.23799
 C1232 C 0.51881 0.13609 0.22563
 C1233 C 0.52658 0.16037 0.22706
 C1234 C 0.54805 0.16573 0.23969
 H1235 H 0.63737 0.11061 0.28913
 H1236 H 0.59460 0.03289 0.30605
 H1237 H 0.65866 0.07805 0.30925
 H1238 H 0.55856 0.04668 0.28526
 H1239 H 0.53642 0.07690 0.26358
 H1240 H 0.61393 0.14019 0.28164
 H1241 H 0.59031 0.17117 0.26240
 H1242 H 0.52409 0.09950 0.23581
 H1243 H 0.50318 0.13120 0.21481
 H1244 H 0.55461 0.18435 0.24039
 C1245 C 0.42004 0.08139 0.67806
 C1246 C 0.41388 0.08634 0.70196
 C1247 C 0.39455 0.07267 0.71217
 C1248 C 0.38155 0.05553 0.69868
 C1249 C 0.38789 0.05089 0.67508
 C1250 C 0.40731 0.06386 0.66497
 C1251 C 0.38838 0.07593 0.73590
 C1252 C 0.40137 0.09205 0.75005
 C1253 C 0.42084 0.10607 0.74084
 C1254 C 0.42649 0.10396 0.71616
 C1255 C 0.44425 0.11977 0.70647
 C1256 C 0.45655 0.13661 0.72046
 C1257 C 0.45220 0.13795 0.74475
 C1258 C 0.43458 0.12245 0.75542
 C1259 C 0.43177 0.12377 0.78035
 C1260 C 0.44569 0.13993 0.79387
 C1261 C 0.46275 0.15536 0.78313
 C1262 C 0.46555 0.15463 0.75850
 H1263 H 0.43499 0.09027 0.66911
 H1264 H 0.36679 0.04529 0.70681
 H1265 H 0.41272 0.06048 0.64681
 H1266 H 0.37350 0.06566 0.74375
 H1267 H 0.39526 0.09352 0.76811
 H1268 H 0.44870 0.12001 0.68788
 H1269 H 0.46993 0.14847 0.71220
 H1270 H 0.41951 0.11211 0.79008
 H1271 H 0.44337 0.14015 0.81294
 H1272 H 0.47818 0.16707 0.75001
 C1273 C 0.57890 0.68278 0.07561
 C1274 C 0.58537 0.70643 0.08348
 C1275 C 0.60559 0.71790 0.07236
 C1276 C 0.61881 0.70596 0.05450
 C1277 C 0.61215 0.68257 0.04695
 C1278 C 0.59207 0.67117 0.05768
 C1279 C 0.61255 0.74133 0.07898
 C1280 C 0.59958 0.75402 0.09606
 C1281 C 0.57908 0.74367 0.10749
 C1282 C 0.57232 0.71919 0.10166
 C1283 C 0.55284 0.70830 0.11426
 C1284 C 0.53994 0.72103 0.13143
 C1285 C 0.54557 0.74522 0.13654
 C1286 C 0.56514 0.75698 0.12460
 C1287 C 0.56952 0.78181 0.12991
 C1288 C 0.55484 0.79435 0.14597
 C1289 C 0.53543 0.78270 0.15746
 C1290 C 0.53133 0.75790 0.15318
 H1291 H 0.56355 0.67283 0.08264
 H1292 H 0.63423 0.71509 0.04628
 H1293 H 0.58642 0.65312 0.05218
 H1294 H 0.62813 0.75010 0.07070
 H1295 H 0.60640 0.77194 0.10009
 H1296 H 0.54719 0.68975 0.11146
 H1297 H 0.52507 0.71191 0.14054
 H1298 H 0.58359 0.79241 0.12144
 H1299 H 0.55824 0.81356 0.14889
 H1300 H 0.51645 0.74871 0.16222
 C1301 C 0.38011 0.30047 0.09968
 C1302 C 0.40430 0.29167 0.09696
 C1303 C 0.41569 0.29480 0.07457
 C1304 C 0.40367 0.30737 0.05623
 C1305 C 0.37971 0.31562 0.05925
 C1306 C 0.36795 0.31192 0.08093
 C1307 C 0.43875 0.28486 0.07041
 C1308 C 0.45038 0.27092 0.08763
 C1309 C 0.43975 0.26721 0.11013
 C1310 C 0.41719 0.27914 0.11539
 C1311 C 0.40855 0.27851 0.13896
 C1312 C 0.42117 0.26598 0.15662
 C1313 C 0.44219 0.25269 0.15129
 C1314 C 0.45130 0.25247 0.12777
 C1315 C 0.47119 0.23692 0.12269
 C1316 C 0.48234 0.22325 0.14052
 C1317 C 0.47467 0.22519 0.16412
 C1318 C 0.45419 0.23955 0.16932
 H1319 H 0.36975 0.29782 0.11572
 H1320 H 0.41251 0.30974 0.03918
 H1321 H 0.34922 0.31793 0.08334
 H1322 H 0.44766 0.28737 0.05342
 H1323 H 0.46820 0.26392 0.08311
 H1324 H 0.39248 0.28835 0.14448
 H1325 H 0.41413 0.26635 0.17456
 H1326 H 0.47802 0.23432 0.10496
 H1327 H 0.49725 0.21122 0.13585
 H1328 H 0.44771 0.24062 0.18743
 C1329 C 0.57010 0.31574 0.92422
 C1330 C 0.57362 0.29068 0.91930
 C1331 C 0.59159 0.27805 0.93272
 C1332 C 0.60619 0.29043 0.94931
 C1333 C 0.60275 0.31531 0.95359
 C1334 C 0.58437 0.32773 0.94115
 C1335 C 0.59495 0.25311 0.92958
 C1336 C 0.58065 0.24020 0.91359
 C1337 C 0.56273 0.25191 0.89952
 C1338 C 0.55981 0.27772 0.90178
 C1339 C 0.54369 0.28977 0.88604
 C1340 C 0.53061 0.27707 0.86892
 C1341 C 0.53246 0.25182 0.86719
 C1342 C 0.54809 0.23876 0.88280
 C1343 C 0.54827 0.21302 0.88106
 C1344 C 0.53402 0.20101 0.86418
 C1345 C 0.51919 0.21409 0.84841
 C1346 C 0.51872 0.23953 0.84985
 H1347 H 0.55618 0.32652 0.91562
 H1348 H 0.62007 0.28055 0.95920
 H1349 H 0.58117 0.34692 0.94432
 H1350 H 0.60871 0.24338 0.93974
 H1351 H 0.58466 0.22106 0.91215
 H1352 H 0.54131 0.30924 0.88600
 H1353 H 0.51871 0.28716 0.85701
 H1354 H 0.55877 0.20156 0.89281
 H1355 H 0.53447 0.18129 0.86350
 H1356 H 0.50783 0.24983 0.83729
 C1357 C 0.42910 0.71018 0.94773
 C1358 C 0.42058 0.71482 0.92442
 C1359 C 0.39887 0.70286 0.91692
 C1360 C 0.38545 0.68837 0.93282
 C1361 C 0.39407 0.68437 0.95584
 C1362 C 0.41610 0.69496 0.96305
 C1363 C 0.39080 0.70528 0.89356
 C1364 C 0.40414 0.71880 0.87723
 C1365 C 0.42561 0.73137 0.88393
 C1366 C 0.43313 0.73047 0.90821
 C1367 C 0.45246 0.74576 0.91562
 C1368 C 0.46449 0.76093 0.89972
 C1369 C 0.45849 0.76069 0.87569
 C1370 C 0.43946 0.74539 0.86730
 C1371 C 0.43542 0.74440 0.84253
 C1372 C 0.44948 0.75835 0.82694
 C1373 C 0.46770 0.77404 0.83542
 C1374 C 0.47165 0.77554 0.85993
 H1375 H 0.44610 0.71745 0.95440
 H1376 H 0.36859 0.67968 0.92715
 H1377 H 0.42311 0.69169 0.98077
 H1378 H 0.37419 0.69626 0.88772
 H1379 H 0.39661 0.71985 0.85957
 H1380 H 0.45812 0.74709 0.93389
 H1381 H 0.47899 0.77263 0.90626
 H1382 H 0.42217 0.73236 0.83460
 H1383 H 0.44625 0.75665 0.80806
 H1384 H 0.48531 0.78801 0.86678
 C1385 C 0.69320 0.91314 0.40503
 C1386 C 0.71882 0.91436 0.40878
 C1387 C 0.73190 0.93343 0.39744
 C1388 C 0.71985 0.94972 0.38214
 C1389 C 0.69450 0.94836 0.37895
 C1390 C 0.68127 0.93012 0.39059
 C1391 C 0.75682 0.93652 0.40184
 C1392 C 0.76898 0.92166 0.41796
 C1393 C 0.75682 0.90242 0.42969
 C1394 C 0.73173 0.89783 0.42395
 C1395 C 0.72055 0.87664 0.43316
 C1396 C 0.73327 0.86078 0.44795
 C1397 C 0.75723 0.86588 0.45491
 C1398 C 0.76913 0.88717 0.44647
 C1399 C 0.79277 0.89246 0.45545
 C1400 C 0.80438 0.87668 0.47129
 C1401 C 0.79295 0.85519 0.47854
 C1402 C 0.76945 0.84974 0.47026
 H1403 H 0.68173 0.89994 0.41378
 H1404 H 0.73001 0.96426 0.37361
 H1405 H 0.66157 0.92906 0.38859
 H1406 H 0.76696 0.95096 0.39312
 H1407 H 0.78824 0.92521 0.42030
 H1408 H 0.70217 0.87132 0.42853
 H1409 H 0.72411 0.84450 0.45428
 H1410 H 0.80254 0.90889 0.45097
 H1411 H 0.82256 0.88108 0.47770
 H1412 H 0.76070 0.83297 0.47587
 C1413 C 0.32005 0.90837 0.58439
 C1414 C 0.29450 0.90944 0.58018
 C1415 C 0.28174 0.93040 0.58807
 C1416 C 0.29392 0.94859 0.60097
 C1417 C 0.31911 0.94701 0.60518
 C1418 C 0.33212 0.92702 0.59649
 C1419 C 0.25695 0.93323 0.58289
 C1420 C 0.24453 0.91596 0.56955
 C1421 C 0.25628 0.89461 0.56158
 C1422 C 0.28131 0.89071 0.56805
 C1423 C 0.29207 0.86798 0.56282
 C1424 C 0.27897 0.84982 0.55127
 C1425 C 0.25503 0.85390 0.54363
 C1426 C 0.24359 0.87665 0.54798
 C1427 C 0.22001 0.88060 0.53823
 C1428 C 0.20803 0.86233 0.52559
 C1429 C 0.21899 0.83959 0.52249
 C1430 C 0.24243 0.83536 0.53158
 H1431 H 0.33133 0.89372 0.57797
 H1432 H 0.28392 0.96438 0.60720
 H1433 H 0.35170 0.92566 0.59932
 H1434 H 0.24708 0.94916 0.58895
 H1435 H 0.22536 0.91943 0.56652
 H1436 H 0.31040 0.86330 0.56827
 H1437 H 0.28782 0.83247 0.54802
 H1438 H 0.21059 0.89778 0.53954
 H1439 H 0.18999 0.86586 0.51834
 H1440 H 0.25097 0.81777 0.52881
 C1441 C 0.31953 0.08146 0.41671
 C1442 C 0.29431 0.08656 0.41365
 C1443 C 0.28108 0.07216 0.39715
 C1444 C 0.29294 0.05405 0.38387
 C1445 C 0.31792 0.04935 0.38713
 C1446 C 0.33100 0.06315 0.40373
 C1447 C 0.25602 0.07574 0.39408
 C1448 C 0.24355 0.09294 0.40739
 C1449 C 0.25579 0.10770 0.42412
 C1450 C 0.28174 0.10510 0.42664
 C1451 C 0.29428 0.12134 0.44181
 C1452 C 0.28190 0.13908 0.45453
 C1453 C 0.25652 0.14109 0.45312
 C1454 C 0.24300 0.12523 0.43818
 C1455 C 0.21717 0.12735 0.43826
 C1456 C 0.20547 0.14463 0.45231
 C1457 C 0.21896 0.16046 0.46671
 C1458 C 0.24454 0.15881 0.46677
 H1459 H 0.33087 0.09089 0.42935
 H1460 H 0.28255 0.04327 0.37129
 H1461 H 0.35031 0.05983 0.40672
 H1462 H 0.24583 0.06492 0.38138
 H1463 H 0.22427 0.09456 0.40371
 H1464 H 0.31387 0.12120 0.44390
 H1465 H 0.29234 0.15120 0.46585
 H1466 H 0.20537 0.11555 0.42817
 H1467 H 0.18565 0.14539 0.45223
 H1468 H 0.25510 0.17113 0.47777
 C1469 C 0.70220 0.09199 0.61893
 C1470 C 0.71073 0.08915 0.59540
 C1471 C 0.70468 0.06729 0.58337
 C1472 C 0.68923 0.05000 0.59395
 C1473 C 0.68079 0.05333 0.61707
 C1474 C 0.68771 0.07413 0.62963
 C1475 C 0.71424 0.06270 0.56094
 C1476 C 0.73021 0.07907 0.55032
 C1477 C 0.73641 0.10128 0.56137
 C1478 C 0.72541 0.10699 0.58363
 C1479 C 0.72877 0.13060 0.59296
 C1480 C 0.74267 0.14794 0.58108
 C1481 C 0.75468 0.14212 0.56007
 C1482 C 0.75252 0.11840 0.55041
 C1483 C 0.76690 0.11269 0.53037
 C1484 C 0.78150 0.13032 0.51956
 C1485 C 0.78166 0.15436 0.52783
 C1486 C 0.76873 0.15996 0.54851
 H1487 H 0.70706 0.10741 0.62974
 H1488 H 0.68434 0.03351 0.58448
 H1489 H 0.68162 0.07670 0.64771
 H1490 H 0.70962 0.04606 0.55162
 H1491 H 0.73663 0.07430 0.53289
 H1492 H 0.71992 0.13657 0.60898
 H1493 H 0.74423 0.16604 0.58857
 H1494 H 0.76772 0.09459 0.52303
 H1495 H 0.79244 0.12523 0.50439
 H1496 H 0.76936 0.17836 0.55544
 C1497 C 0.89957 0.61521 0.30020
 C1498 C 0.90211 0.59099 0.29200
 C1499 C 0.92441 0.57870 0.29697
 C1500 C 0.94265 0.58988 0.31079
 C1501 C 0.93976 0.61385 0.31860
 C1502 C 0.91831 0.62650 0.31299
 C1503 C 0.92857 0.55554 0.28773
 C1504 C 0.91147 0.54458 0.27293
 C1505 C 0.88897 0.55601 0.26756
 C1506 C 0.88361 0.57886 0.27846
 C1507 C 0.85980 0.58853 0.27589
 C1508 C 0.84203 0.57662 0.26258
 C1509 C 0.84756 0.55521 0.25048
 C1510 C 0.87134 0.54500 0.25219
 C1511 C 0.87667 0.52453 0.23794
 C1512 C 0.85875 0.51403 0.22357
 C1513 C 0.83472 0.52299 0.22345
 C1514 C 0.82940 0.54392 0.23663
 H1515 H 0.88376 0.62624 0.29620
 H1516 H 0.95958 0.58033 0.31465
 H1517 H 0.91602 0.64522 0.31861
 H1518 H 0.94550 0.54598 0.29157
 H1519 H 0.91601 0.52664 0.26657
 H1520 H 0.85405 0.60492 0.28477
 H1521 H 0.82387 0.58448 0.26146
 H1522 H 0.89474 0.51670 0.23696
 H1523 H 0.86367 0.49866 0.21258
 H1524 H 0.81101 0.55134 0.23622
 C1525 C 0.92638 0.42984 0.68138
 C1526 C 0.91791 0.42210 0.70393
 C1527 C 0.92823 0.40051 0.71352
 C1528 C 0.94580 0.38728 0.70092
 C1529 C 0.95393 0.39510 0.67865
 C1530 C 0.94410 0.41653 0.66902
 C1531 C 0.92104 0.39207 0.73572
 C1532 C 0.90412 0.40479 0.74904
 C1533 C 0.89348 0.42660 0.74063
 C1534 C 0.89986 0.43503 0.71740
 C1535 C 0.88782 0.45589 0.70842
 C1536 C 0.87045 0.46830 0.72174
 C1537 C 0.86473 0.46083 0.74472
 C1538 C 0.87644 0.44009 0.75464
 C1539 C 0.87095 0.43397 0.77842
 C1540 C 0.85445 0.44766 0.79156
 C1541 C 0.84267 0.46788 0.78163
 C1542 C 0.84761 0.47421 0.75802
 H1543 H 0.91994 0.44623 0.67289
 H1544 H 0.95332 0.37080 0.70869
 H1545 H 0.95012 0.42307 0.65187
 H1546 H 0.92869 0.37541 0.74298
 H1547 H 0.89945 0.39665 0.76580
 H1548 H 0.89116 0.46295 0.69090
 H1549 H 0.86162 0.48415 0.71405
 H1550 H 0.87957 0.41915 0.78776
 H1551 H 0.85123 0.44269 0.80989
 H1552 H 0.83854 0.48987 0.75023
 C1553 C 0.06587 0.60812 0.74082
 C1554 C 0.08340 0.59226 0.73070
 C1555 C 0.08442 0.59088 0.70562
 C1556 C 0.06755 0.60372 0.69155
 C1557 C 0.05001 0.61889 0.70191
 C1558 C 0.04958 0.62128 0.72659
 C1559 C 0.10225 0.57672 0.69466
 C1560 C 0.11951 0.56415 0.70801
 C1561 C 0.11914 0.56465 0.73301
 C1562 C 0.10010 0.57800 0.74453
 C1563 C 0.09798 0.57609 0.76941
 C1564 C 0.11416 0.56203 0.78264
 C1565 C 0.13358 0.55001 0.77179
 C1566 C 0.13678 0.55166 0.74689
 C1567 C 0.15783 0.54060 0.73700
 C1568 C 0.17429 0.52766 0.75118
 C1569 C 0.17004 0.52484 0.77542
 C1570 C 0.14992 0.53636 0.78574
 H1571 H 0.06459 0.61115 0.75963
 H1572 H 0.06830 0.60216 0.67241
 H1573 H 0.03633 0.63312 0.73497
 H1574 H 0.10303 0.57551 0.67550
 H1575 H 0.13246 0.55343 0.69815
 H1576 H 0.08339 0.58463 0.77915
 H1577 H 0.11158 0.56079 0.80166
 H1578 H 0.16248 0.54222 0.71852
 H1579 H 0.19048 0.51986 0.74320
 H1580 H 0.14711 0.53473 0.80471
 C1581 C 0.04509 0.42793 0.28600
 C1582 C 0.06926 0.42113 0.27983
 C1583 C 0.07843 0.39883 0.28902
 C1584 C 0.06321 0.38322 0.30215
 C1585 C 0.03926 0.39010 0.30757
 C1586 C 0.03048 0.41269 0.29989
 C1587 C 0.10272 0.39224 0.28511
 C1588 C 0.11835 0.40750 0.27260
 C1589 C 0.10994 0.42956 0.26256
 C1590 C 0.08469 0.43581 0.26516
 C1591 C 0.07552 0.45598 0.25232
 C1592 C 0.09058 0.46971 0.23763
 C1593 C 0.11554 0.46467 0.23604
 C1594 C 0.12575 0.44512 0.24921
 C1595 C 0.15145 0.44210 0.24866
 C1596 C 0.16614 0.45726 0.23483
 C1597 C 0.15582 0.47569 0.22078
 C1598 C 0.13038 0.47909 0.22130
 H1599 H 0.03721 0.44516 0.28087
 H1600 H 0.07012 0.36589 0.30860
 H1601 H 0.01205 0.41835 0.30429
 H1602 H 0.10983 0.37522 0.29206
 H1603 H 0.13678 0.40097 0.27017
 H1604 H 0.05643 0.46094 0.25245
 H1605 H 0.08264 0.48468 0.22766
 H1606 H 0.16082 0.42864 0.25926
 H1607 H 0.18578 0.45454 0.23508
 H1608 H 0.12208 0.49301 0.21026
   
