data_POSCAR
  _audit_creation_date              2014-09-24
  _audit_creation_method            'ToBaCCo'
  _symmetry_space_group_name_H-M    'P1'
  _symmetry_Int_Tables_number       1
  _symmetry_cell_setting            triclinic
  loop_
  _symmetry_equiv_pos_as_xyz
 x,y,z
_cell_length_a 41.0490
_cell_length_b 41.0284
_cell_length_c 40.9958
_cell_angle_alpha 90.027100
_cell_angle_beta 89.967100
_cell_angle_gamma 89.970900
loop_
  _atom_site_label
  _atom_site_type_symbol
  _atom_site_fract_x
  _atom_site_fract_y
  _atom_site_fract_z
O1 O 0.87590 0.17014 0.79072
 O2 O 0.91114 0.12479 0.78100
 O3 O 0.79084 0.12350 0.83013
 O4 O 0.77876 0.09156 0.87238
 O5 O 0.83034 0.20955 0.87606
 O6 O 0.87571 0.21862 0.91153
 O7 O 0.87674 0.04036 0.91971
 O8 O 0.83860 0.03155 0.87725
 O9 O 0.95942 0.07964 0.87602
 O10 O 0.96955 0.12631 0.83900
 O11 O 0.92040 0.12339 0.95917
 O12 O 0.87396 0.16023 0.96960
 O13 O 0.87678 0.07943 0.95895
 O14 O 0.83931 0.12578 0.96918
 O15 O 0.95949 0.12343 0.91998
 O16 O 0.96947 0.16077 0.87358
 O17 O 0.92043 0.04050 0.87635
 O18 O 0.87563 0.03065 0.83850
 O19 O 0.87605 0.20930 0.82996
 O20 O 0.91186 0.21845 0.87535
 O21 O 0.79115 0.17046 0.87564
 O22 O 0.78371 0.12494 0.91368
 O23 O 0.82989 0.12434 0.79080
 O24 O 0.87520 0.08859 0.78131
 Zr25 Zr 0.87405 0.12600 0.81678
 O26 O 0.90468 0.09557 0.84446
 Zr27 Zr 0.81698 0.12610 0.87418
 O28 O 0.84494 0.09521 0.90427
 Zr29 Zr 0.87433 0.18321 0.87409
 O30 O 0.90472 0.15518 0.90449
 Zr31 Zr 0.87635 0.06659 0.87573
 O32 O 0.84531 0.09437 0.84525
 Zr33 Zr 0.93346 0.12390 0.87584
 O34 O 0.90573 0.15473 0.84512
 Zr35 Zr 0.87624 0.12372 0.93316
 O36 O 0.84556 0.15482 0.90563
 O37 O 0.84389 0.15637 0.84385
 O38 O 0.90683 0.09327 0.90637
 C39 C 0.87671 0.20009 0.79998
 C40 C 0.79999 0.12316 0.80011
 C41 C 0.80038 0.20039 0.87662
 C42 C 0.87697 0.04952 0.94968
 C43 C 0.95040 0.04961 0.87636
 C44 C 0.95032 0.12322 0.94995
 H45 H 0.91824 0.08231 0.82960
 H46 H 0.91815 0.16990 0.91801
 H47 H 0.82994 0.17027 0.82990
 H48 H 0.83037 0.08140 0.91758
 H49 H 0.82189 0.03863 0.86134
 H50 H 0.78589 0.07225 0.88493
 H51 H 0.96501 0.17656 0.89126
 H52 H 0.92902 0.21073 0.86024
 H53 H 0.89282 0.03590 0.82245
 H54 H 0.86026 0.07132 0.78910
 H55 H 0.89121 0.17639 0.96491
 H56 H 0.86097 0.21078 0.92896
 H57 H 0.92874 0.13924 0.78895
 H58 H 0.96511 0.10876 0.82306
 H59 H 0.79046 0.14219 0.92915
 H60 H 0.82368 0.10798 0.96474
 O61 O 0.82976 0.70886 0.37546
 O62 O 0.87506 0.71851 0.41087
 O63 O 0.87664 0.66958 0.29035
 O64 O 0.90875 0.62741 0.27830
 O65 O 0.79066 0.62360 0.32969
 O66 O 0.78146 0.58815 0.37513
 O67 O 0.95959 0.57993 0.37637
 O68 O 0.96839 0.62242 0.33809
 O69 O 0.92012 0.62372 0.45911
 O70 O 0.87336 0.66066 0.46917
 O71 O 0.87658 0.54057 0.41997
 O72 O 0.83977 0.53022 0.37338
 O73 O 0.92054 0.54075 0.37635
 O74 O 0.87436 0.53053 0.33882
 O75 O 0.87647 0.57972 0.45910
 O76 O 0.83907 0.62598 0.46914
 O77 O 0.95936 0.62335 0.42005
 O78 O 0.96937 0.66100 0.37532
 O79 O 0.79066 0.66965 0.37551
 O80 O 0.78145 0.62429 0.41128
 O81 O 0.82985 0.62409 0.29051
 O82 O 0.87530 0.58614 0.28307
 O83 O 0.87564 0.70883 0.32950
 O84 O 0.91122 0.71834 0.37485
 Zr85 Zr 0.87393 0.68284 0.37366
 O86 O 0.90432 0.65516 0.40429
 Zr87 Zr 0.87406 0.62554 0.31646
 O88 O 0.90485 0.59541 0.34446
 Zr89 Zr 0.81681 0.62557 0.37380
 O90 O 0.84478 0.59519 0.40426
 Zr91 Zr 0.93337 0.62391 0.37593
 O92 O 0.90566 0.65444 0.34489
 Zr93 Zr 0.87595 0.62381 0.43307
 O94 O 0.84515 0.65451 0.40531
 Zr95 Zr 0.87629 0.56656 0.37576
 O96 O 0.84529 0.59409 0.34500
 O97 O 0.84369 0.65581 0.34338
 O98 O 0.90665 0.59331 0.40642
 C99 C 0.79984 0.69960 0.37621
 C100 C 0.87690 0.69956 0.29956
 C101 C 0.79991 0.62307 0.29971
 C102 C 0.95044 0.54998 0.37658
 C103 C 0.95009 0.62340 0.44998
 C104 C 0.87671 0.54979 0.44992
 H105 H 0.91753 0.67000 0.41787
 H106 H 0.83005 0.58168 0.41769
 H107 H 0.82981 0.66976 0.32942
 H108 H 0.91870 0.58210 0.32988
 H109 H 0.96138 0.63844 0.32144
 H110 H 0.92795 0.61468 0.28538
 H111 H 0.82326 0.60837 0.46460
 H112 H 0.78914 0.63931 0.42854
 H113 H 0.96385 0.67725 0.39226
 H114 H 0.92854 0.71058 0.35993
 H115 H 0.82368 0.53480 0.39076
 H116 H 0.78934 0.57075 0.36035
 H117 H 0.86043 0.71065 0.42838
 H118 H 0.89090 0.67657 0.46476
 H119 H 0.85814 0.57061 0.28986
 H120 H 0.89211 0.53502 0.32313
 O121 O 0.37557 0.16958 0.29084
 O122 O 0.41108 0.12415 0.28142
 O123 O 0.29061 0.12273 0.33021
 O124 O 0.27859 0.09078 0.37252
 O125 O 0.32984 0.20895 0.37602
 O126 O 0.37508 0.21830 0.41152
 O127 O 0.37643 0.04009 0.42040
 O128 O 0.33824 0.03121 0.37775
 O129 O 0.45912 0.07945 0.37641
 O130 O 0.46927 0.12594 0.33947
 O131 O 0.41996 0.12328 0.45953
 O132 O 0.37334 0.16014 0.46973
 O133 O 0.37638 0.07925 0.45946
 O134 O 0.33888 0.12554 0.46950
 O135 O 0.45906 0.12327 0.42036
 O136 O 0.46896 0.16060 0.37387
 O137 O 0.42016 0.04020 0.37690
 O138 O 0.37562 0.02989 0.33936
 O139 O 0.37561 0.20880 0.33001
 O140 O 0.41134 0.21808 0.37547
 O141 O 0.29073 0.16977 0.37558
 O142 O 0.28322 0.12450 0.41369
 O143 O 0.32973 0.12360 0.29096
 O144 O 0.37509 0.08801 0.28159
 Zr145 Zr 0.37382 0.12544 0.31702
 O146 O 0.40437 0.09513 0.34490
 Zr147 Zr 0.31665 0.12550 0.37432
 O148 O 0.34458 0.09481 0.40465
 Zr149 Zr 0.37388 0.18276 0.37419
 O150 O 0.40426 0.15489 0.40476
 Zr151 Zr 0.37606 0.06617 0.37626
 O152 O 0.34511 0.09379 0.34553
 Zr153 Zr 0.43307 0.12362 0.37621
 O154 O 0.40539 0.15432 0.34534
 Zr155 Zr 0.37580 0.12345 0.43348
 O156 O 0.34512 0.15438 0.40576
 O157 O 0.34354 0.15578 0.34397
 O158 O 0.40649 0.09300 0.40682
 C159 C 0.37631 0.19956 0.30004
 C160 C 0.29982 0.12235 0.30020
 C161 C 0.29991 0.19971 0.37650
 C162 C 0.37660 0.04923 0.45043
 C163 C 0.45003 0.04949 0.37680
 C164 C 0.44989 0.12314 0.45031
 H165 H 0.41796 0.08184 0.33010
 H166 H 0.41765 0.16968 0.41825
 H167 H 0.32960 0.16961 0.32995
 H168 H 0.33002 0.08102 0.41799
 H169 H 0.32169 0.03816 0.36161
 H170 H 0.28563 0.07166 0.38540
 H171 H 0.46453 0.17635 0.39160
 H172 H 0.42853 0.21040 0.36035
 H173 H 0.39229 0.03554 0.32291
 H174 H 0.36022 0.07069 0.28940
 H175 H 0.39070 0.17621 0.46513
 H176 H 0.36039 0.21044 0.42898
 H177 H 0.42846 0.13894 0.28921
 H178 H 0.46467 0.10858 0.32338
 H179 H 0.29003 0.14168 0.42922
 H180 H 0.32320 0.10780 0.46502
 O181 O 0.12438 0.32957 0.29081
 O182 O 0.08898 0.37498 0.28133
 O183 O 0.20938 0.37639 0.33012
 O184 O 0.22156 0.40818 0.37243
 O185 O 0.16996 0.29023 0.37598
 O186 O 0.12466 0.28106 0.41154
 O187 O 0.12369 0.45933 0.42010
 O188 O 0.16193 0.46804 0.37749
 O189 O 0.04098 0.42006 0.37636
 O190 O 0.03076 0.37345 0.33940
 O191 O 0.08004 0.37630 0.45945
 O192 O 0.12647 0.33942 0.46973
 O193 O 0.12364 0.42022 0.45927
 O194 O 0.16116 0.37382 0.46928
 O195 O 0.04094 0.37631 0.42032
 O196 O 0.03088 0.33897 0.37393
 O197 O 0.08004 0.45923 0.37675
 O198 O 0.12467 0.46923 0.33900
 O199 O 0.12423 0.29040 0.33001
 O200 O 0.08843 0.28129 0.37549
 O201 O 0.20914 0.32933 0.37548
 O202 O 0.21668 0.37470 0.41362
 O203 O 0.17029 0.37549 0.29088
 O204 O 0.12497 0.41109 0.28146
 Zr205 Zr 0.12619 0.37374 0.31694
 O206 O 0.09568 0.40418 0.34477
 Zr207 Zr 0.18332 0.37365 0.37422
 O208 O 0.15545 0.40450 0.40448
 Zr209 Zr 0.12598 0.31652 0.37416
 O210 O 0.09565 0.34453 0.40470
 Zr211 Zr 0.12406 0.43313 0.37605
 O212 O 0.15497 0.40537 0.34538
 Zr213 Zr 0.06691 0.37581 0.37614
 O214 O 0.09455 0.34498 0.34530
 Zr215 Zr 0.12418 0.37596 0.43336
 O216 O 0.15479 0.34488 0.40569
 O217 O 0.15639 0.34338 0.34390
 O218 O 0.09358 0.40643 0.40667
 C219 C 0.12358 0.29961 0.30004
 C220 C 0.20018 0.37675 0.30013
 C221 C 0.19991 0.29941 0.37644
 C222 C 0.12345 0.45016 0.45007
 C223 C 0.05015 0.45001 0.37672
 C224 C 0.05012 0.37649 0.45026
 H225 H 0.08212 0.41745 0.32996
 H226 H 0.08223 0.32980 0.41822
 H227 H 0.17032 0.32951 0.32988
 H228 H 0.17005 0.41829 0.41779
 H229 H 0.17851 0.46101 0.36139
 H230 H 0.21448 0.42745 0.38510
 H231 H 0.03535 0.32317 0.39158
 H232 H 0.07128 0.28899 0.36038
 H233 H 0.10773 0.46378 0.32276
 H234 H 0.13983 0.42842 0.28925
 H235 H 0.10922 0.32327 0.46505
 H236 H 0.13939 0.28891 0.42896
 H237 H 0.07152 0.36031 0.28919
 H238 H 0.03531 0.39088 0.32337
 H239 H 0.20991 0.35747 0.42910
 H240 H 0.17675 0.39166 0.46489
 O241 O 0.62449 0.82961 0.29048
 O242 O 0.58921 0.87502 0.28093
 O243 O 0.70952 0.87618 0.32997
 O244 O 0.72146 0.90822 0.37225
 O245 O 0.66994 0.79015 0.37573
 O246 O 0.62463 0.78091 0.41113
 O247 O 0.62354 0.95919 0.41988
 O248 O 0.66177 0.96801 0.37737
 O249 O 0.54089 0.91985 0.37605
 O250 O 0.53066 0.87340 0.33911
 O251 O 0.57983 0.87616 0.45915
 O252 O 0.62633 0.83920 0.46940
 O253 O 0.62348 0.92007 0.45904
 O254 O 0.66092 0.87371 0.46913
 O255 O 0.54079 0.87612 0.41997
 O256 O 0.53102 0.83864 0.37338
 O257 O 0.57990 0.95906 0.37648
 O258 O 0.62460 0.96913 0.33878
 O259 O 0.62429 0.79040 0.32963
 O260 O 0.58841 0.78122 0.37507
 O261 O 0.70912 0.82926 0.37537
 O262 O 0.71662 0.87464 0.41346
 O263 O 0.67049 0.87538 0.29066
 O264 O 0.62517 0.91121 0.28130
 Zr265 Zr 0.62630 0.87373 0.31666
 O266 O 0.59567 0.90406 0.34449
 Zr267 Zr 0.68332 0.87359 0.37403
 O268 O 0.65535 0.90437 0.40428
 Zr269 Zr 0.62596 0.81644 0.37384
 O270 O 0.59558 0.84438 0.40439
 Zr271 Zr 0.62397 0.93302 0.37582
 O272 O 0.65500 0.90534 0.34519
 Zr273 Zr 0.56686 0.87565 0.37581
 O274 O 0.59460 0.84493 0.34494
 Zr275 Zr 0.62403 0.87582 0.43311
 O276 O 0.65472 0.84480 0.40543
 O277 O 0.65643 0.84333 0.34366
 O278 O 0.59346 0.90628 0.40639
 C279 C 0.62368 0.79965 0.29967
 C280 C 0.70039 0.87652 0.29994
 C281 C 0.69988 0.79933 0.37627
 C282 C 0.62330 0.95001 0.44985
 C283 C 0.55002 0.94981 0.37645
 C284 C 0.54991 0.87633 0.44993
 H285 H 0.58212 0.91734 0.32967
 H286 H 0.58214 0.82964 0.41788
 H287 H 0.67038 0.82946 0.32966
 H288 H 0.66991 0.91817 0.41761
 H289 H 0.67841 0.96100 0.36133
 H290 H 0.71438 0.92741 0.38503
 H291 H 0.53525 0.82304 0.39126
 H292 H 0.57130 0.78891 0.35990
 H293 H 0.60770 0.96367 0.32251
 H294 H 0.64018 0.92841 0.28908
 H295 H 0.60896 0.82315 0.46479
 H296 H 0.63921 0.78880 0.42866
 H297 H 0.57166 0.86046 0.28879
 H298 H 0.53537 0.89069 0.32297
 H299 H 0.70980 0.85744 0.42896
 H300 H 0.67658 0.89147 0.46469
 O301 O 0.62457 0.66980 0.20884
 O302 O 0.58921 0.62445 0.21838
 O303 O 0.70960 0.62302 0.16944
 O304 O 0.72157 0.59088 0.12719
 O305 O 0.67031 0.70909 0.12356
 O306 O 0.62498 0.71838 0.08812
 O307 O 0.62363 0.54016 0.07949
 O308 O 0.66184 0.53126 0.12200
 O309 O 0.54100 0.57962 0.12344
 O310 O 0.53095 0.62629 0.16044
 O311 O 0.58008 0.62333 0.04027
 O312 O 0.62668 0.66008 0.02998
 O313 O 0.62367 0.57923 0.04038
 O314 O 0.66115 0.62546 0.03022
 O315 O 0.54101 0.62343 0.07947
 O316 O 0.53108 0.66074 0.12589
 O317 O 0.57998 0.54034 0.12302
 O318 O 0.62466 0.53019 0.16059
 O319 O 0.62454 0.70900 0.16967
 O320 O 0.58880 0.71828 0.12424
 O321 O 0.70942 0.66988 0.12395
 O322 O 0.71687 0.62447 0.08593
 O323 O 0.67049 0.62394 0.20872
 O324 O 0.62520 0.58826 0.21812
 Zr325 Zr 0.62638 0.62567 0.18269
 O326 O 0.59578 0.59534 0.15491
 Zr327 Zr 0.68351 0.62563 0.12534
 O328 O 0.65552 0.59488 0.09512
 Zr329 Zr 0.62625 0.68292 0.12549
 O330 O 0.59583 0.65500 0.09500
 Zr331 Zr 0.62407 0.56631 0.12357
 O332 O 0.65509 0.59396 0.15419
 Zr333 Zr 0.56704 0.62379 0.12360
 O334 O 0.59478 0.65453 0.15439
 Zr335 Zr 0.62426 0.62348 0.06629
 O336 O 0.65499 0.65445 0.09391
 O337 O 0.65662 0.65597 0.15569
 O338 O 0.59361 0.59310 0.09300
 C339 C 0.62383 0.69976 0.19964
 C340 C 0.70040 0.62273 0.19945
 C341 C 0.70024 0.69984 0.12300
 C342 C 0.62343 0.54923 0.04946
 C343 C 0.55009 0.54964 0.12311
 C344 C 0.55016 0.62325 0.04951
 H345 H 0.58221 0.58210 0.16974
 H346 H 0.58243 0.66978 0.08151
 H347 H 0.67057 0.66983 0.16967
 H348 H 0.67007 0.58104 0.08177
 H349 H 0.67848 0.53824 0.13804
 H350 H 0.71452 0.57173 0.11435
 H351 H 0.53560 0.67657 0.10827
 H352 H 0.57161 0.71061 0.13934
 H353 H 0.60785 0.53577 0.17695
 H354 H 0.64016 0.57098 0.21034
 H355 H 0.60937 0.67621 0.03461
 H356 H 0.63967 0.71049 0.07066
 H357 H 0.57174 0.63912 0.21055
 H358 H 0.53542 0.60879 0.17640
 H359 H 0.71005 0.64162 0.07038
 H360 H 0.67682 0.60770 0.03469
 O361 O 0.37519 0.83061 0.70927
 O362 O 0.41062 0.87600 0.71869
 O363 O 0.29020 0.87746 0.66990
 O364 O 0.27825 0.90944 0.62758
 O365 O 0.32953 0.79122 0.62413
 O366 O 0.37481 0.78186 0.58858
 O367 O 0.37619 0.96009 0.57969
 O368 O 0.33793 0.96900 0.62228
 O369 O 0.45882 0.92068 0.62364
 O370 O 0.46896 0.87419 0.66055
 O371 O 0.41972 0.87678 0.54051
 O372 O 0.37309 0.83997 0.53039
 O373 O 0.37616 0.92088 0.54059
 O374 O 0.33864 0.87466 0.53059
 O375 O 0.45880 0.87680 0.57966
 O376 O 0.46865 0.83949 0.62621
 O377 O 0.41984 0.95997 0.62321
 O378 O 0.37520 0.97023 0.66077
 O379 O 0.37529 0.79137 0.67010
 O380 O 0.41104 0.78205 0.62463
 O381 O 0.29040 0.83041 0.62455
 O382 O 0.28294 0.87570 0.58640
 O383 O 0.32929 0.87659 0.70915
 O384 O 0.37464 0.91221 0.71847
 Zr385 Zr 0.37342 0.87474 0.68307
 O386 O 0.40402 0.90501 0.65517
 Zr387 Zr 0.31631 0.87468 0.62578
 O388 O 0.34429 0.90536 0.59545
 Zr389 Zr 0.37357 0.81740 0.62591
 O390 O 0.40398 0.84524 0.59533
 Zr391 Zr 0.37574 0.93400 0.62382
 O392 O 0.34474 0.90641 0.65454
 Zr393 Zr 0.43277 0.87651 0.62384
 O394 O 0.40504 0.84585 0.65474
 Zr395 Zr 0.37554 0.87669 0.56660
 O396 O 0.34483 0.84579 0.59434
 O397 O 0.34319 0.84440 0.65613
 O398 O 0.40620 0.90714 0.59324
 C399 C 0.37596 0.80062 0.70007
 C400 C 0.29938 0.87784 0.69991
 C401 C 0.29959 0.80046 0.62365
 C402 C 0.37640 0.95085 0.54972
 C403 C 0.44973 0.95067 0.62328
 C404 C 0.44965 0.87690 0.54970
 H405 H 0.41759 0.91829 0.66997
 H406 H 0.41738 0.83044 0.58184
 H407 H 0.32924 0.83059 0.67016
 H408 H 0.32974 0.91916 0.58211
 H409 H 0.32134 0.96207 0.63840
 H410 H 0.28530 0.92855 0.61470
 H411 H 0.46426 0.82376 0.60847
 H412 H 0.42822 0.78975 0.63972
 H413 H 0.39192 0.96462 0.67718
 H414 H 0.35972 0.92950 0.71067
 H415 H 0.39044 0.82389 0.53499
 H416 H 0.36008 0.78971 0.57115
 H417 H 0.42806 0.86126 0.71086
 H418 H 0.46431 0.89152 0.67667
 H419 H 0.28976 0.85850 0.57089
 H420 H 0.32295 0.89240 0.53510
 O421 O 0.87576 0.32995 0.70938
 O422 O 0.91104 0.37536 0.71891
 O423 O 0.79070 0.37661 0.67001
 O424 O 0.77857 0.40848 0.62773
 O425 O 0.83020 0.29046 0.62413
 O426 O 0.87559 0.28127 0.58865
 O427 O 0.87647 0.45949 0.58009
 O428 O 0.83823 0.46834 0.62263
 O429 O 0.95918 0.42027 0.62390
 O430 O 0.96932 0.37364 0.66093
 O431 O 0.92018 0.37640 0.54081
 O432 O 0.87374 0.33949 0.53053
 O433 O 0.87654 0.42032 0.54095
 O434 O 0.83912 0.37400 0.53085
 O435 O 0.95926 0.37646 0.57995
 O436 O 0.96932 0.33919 0.62635
 O437 O 0.92011 0.45946 0.62351
 O438 O 0.87539 0.46948 0.66122
 O439 O 0.87593 0.29073 0.67019
 O440 O 0.91171 0.28147 0.62478
 O441 O 0.79101 0.32959 0.62456
 O442 O 0.78348 0.37499 0.58650
 O443 O 0.82977 0.37578 0.70927
 O444 O 0.87501 0.41148 0.71869
 Zr445 Zr 0.87389 0.37406 0.68324
 O446 O 0.90444 0.40444 0.65545
 Zr447 Zr 0.81680 0.37391 0.62592
 O448 O 0.84471 0.40470 0.59571
 Zr449 Zr 0.87418 0.31676 0.62603
 O450 O 0.90455 0.34471 0.59554
 Zr451 Zr 0.87608 0.43337 0.62415
 O452 O 0.84512 0.40566 0.65477
 Zr453 Zr 0.93325 0.37603 0.62411
 O454 O 0.90557 0.34525 0.65491
 Zr455 Zr 0.87602 0.37612 0.56686
 O456 O 0.84537 0.34510 0.59449
 O457 O 0.84373 0.34366 0.65626
 O458 O 0.90659 0.40661 0.59355
 C459 C 0.87659 0.29999 0.70016
 C460 C 0.79987 0.37699 0.70001
 C461 C 0.80025 0.29965 0.62358
 C462 C 0.87671 0.45026 0.55013
 C463 C 0.95001 0.45023 0.62355
 C464 C 0.95009 0.37660 0.55001
 H465 H 0.91798 0.41772 0.67028
 H466 H 0.91799 0.32997 0.58203
 H467 H 0.82980 0.32980 0.67026
 H468 H 0.83012 0.41849 0.58238
 H469 H 0.82160 0.46133 0.63867
 H470 H 0.78565 0.42773 0.61507
 H471 H 0.96484 0.32334 0.60873
 H472 H 0.92890 0.28923 0.63983
 H473 H 0.89234 0.46407 0.67745
 H474 H 0.86008 0.42876 0.71089
 H475 H 0.89109 0.32341 0.53516
 H476 H 0.86086 0.28909 0.57122
 H477 H 0.92856 0.36074 0.71105
 H478 H 0.96484 0.39118 0.67687
 H479 H 0.79027 0.35776 0.57101
 H480 H 0.82345 0.39178 0.53530
 O481 O 0.79112 0.87540 0.16986
 O482 O 0.78168 0.91077 0.12439
 O483 O 0.83034 0.79021 0.12305
 O484 O 0.87247 0.77816 0.09087
 O485 O 0.87623 0.82954 0.20912
 O486 O 0.91166 0.87482 0.21844
 O487 O 0.92038 0.87604 0.04005
 O488 O 0.87781 0.83777 0.03123
 O489 O 0.87665 0.95875 0.07950
 O490 O 0.83979 0.96902 0.12608
 O491 O 0.95961 0.91949 0.12323
 O492 O 0.96978 0.87290 0.16008
 O493 O 0.95943 0.87596 0.07916
 O494 O 0.96943 0.83835 0.12546
 O495 O 0.92056 0.95868 0.12329
 O496 O 0.87413 0.96868 0.16074
 O497 O 0.87700 0.91971 0.04022
 O498 O 0.83941 0.87516 0.03003
 O499 O 0.83025 0.87541 0.20907
 O500 O 0.87570 0.91111 0.21826
 O501 O 0.87578 0.79038 0.16991
 O502 O 0.91370 0.78278 0.12449
 O503 O 0.79117 0.82939 0.12396
 O504 O 0.78185 0.87471 0.08823
 Zr505 Zr 0.81723 0.87349 0.12566
 O506 O 0.84508 0.90402 0.09528
 Zr507 Zr 0.87441 0.81626 0.12562
 O508 O 0.90469 0.84414 0.09483
 Zr509 Zr 0.87437 0.87359 0.18293
 O510 O 0.90491 0.90391 0.15497
 Zr511 Zr 0.87634 0.87564 0.06623
 O512 O 0.84565 0.84471 0.09393
 Zr513 Zr 0.87642 0.93274 0.12372
 O514 O 0.84557 0.90510 0.15449
 Zr515 Zr 0.93353 0.87537 0.12345
 O516 O 0.90584 0.84474 0.15447
 O517 O 0.84415 0.84322 0.15599
 O518 O 0.90692 0.90606 0.09302
 C519 C 0.80032 0.87617 0.19985
 C520 C 0.80038 0.79945 0.12276
 C521 C 0.87675 0.79959 0.19988
 C522 C 0.95038 0.87624 0.04913
 C523 C 0.87700 0.94962 0.04951
 C524 C 0.95047 0.94945 0.12310
 H525 H 0.83030 0.91762 0.08201
 H526 H 0.91842 0.91730 0.16974
 H527 H 0.83016 0.82931 0.16988
 H528 H 0.91798 0.82955 0.08099
 H529 H 0.86168 0.82123 0.03819
 H530 H 0.88534 0.78515 0.07172
 H531 H 0.89187 0.96427 0.17645
 H532 H 0.86063 0.92832 0.21058
 H533 H 0.82303 0.89190 0.03569
 H534 H 0.78960 0.85974 0.07094
 H535 H 0.96521 0.89026 0.17619
 H536 H 0.92910 0.86013 0.21053
 H537 H 0.78953 0.92824 0.13907
 H538 H 0.82371 0.96443 0.10872
 H539 H 0.92927 0.78961 0.14161
 H540 H 0.96502 0.82276 0.10759
 O541 O 0.37563 0.32962 0.20942
 O542 O 0.41107 0.37501 0.21894
 O543 O 0.29069 0.37655 0.17006
 O544 O 0.27858 0.40840 0.12778
 O545 O 0.33009 0.29034 0.12419
 O546 O 0.37541 0.28113 0.08863
 O547 O 0.37649 0.45943 0.08020
 O548 O 0.33828 0.46821 0.12283
 O549 O 0.45920 0.41999 0.12400
 O550 O 0.46926 0.37333 0.16102
 O551 O 0.42018 0.37637 0.04088
 O552 O 0.37378 0.33952 0.03048
 O553 O 0.37652 0.42030 0.04101
 O554 O 0.33904 0.37392 0.03096
 O555 O 0.45923 0.37628 0.08006
 O556 O 0.46923 0.33891 0.12637
 O557 O 0.42019 0.45924 0.12357
 O558 O 0.37549 0.46930 0.16136
 O559 O 0.37579 0.29045 0.17019
 O560 O 0.41163 0.28129 0.12471
 O561 O 0.29093 0.32950 0.12469
 O562 O 0.28348 0.37489 0.08655
 O563 O 0.32975 0.37561 0.20934
 O564 O 0.37505 0.41115 0.21885
 Zr565 Zr 0.37388 0.37380 0.18332
 O566 O 0.40443 0.40421 0.15555
 Zr567 Zr 0.31679 0.37380 0.12598
 O568 O 0.34471 0.40461 0.09579
 Zr569 Zr 0.37409 0.31657 0.12605
 O570 O 0.40447 0.34455 0.09557
 Zr571 Zr 0.37611 0.43322 0.12425
 O572 O 0.34515 0.40548 0.15486
 Zr573 Zr 0.43320 0.37579 0.12419
 O574 O 0.40552 0.34499 0.15496
 Zr575 Zr 0.37600 0.37604 0.06690
 O576 O 0.34534 0.34499 0.09451
 O577 O 0.34368 0.34349 0.15630
 O578 O 0.40660 0.40645 0.09364
 C579 C 0.37642 0.29965 0.20018
 C580 C 0.29987 0.37689 0.20006
 C581 C 0.30014 0.29955 0.12374
 C582 C 0.37671 0.45025 0.05022
 C583 C 0.45008 0.44996 0.12361
 C584 C 0.45009 0.37653 0.05011
 H585 H 0.41798 0.41747 0.17038
 H586 H 0.41790 0.32982 0.08205
 H587 H 0.32973 0.32964 0.17030
 H588 H 0.33014 0.41843 0.08248
 H589 H 0.32166 0.46117 0.13887
 H590 H 0.28568 0.42765 0.11514
 H591 H 0.46474 0.32309 0.10872
 H592 H 0.42877 0.28897 0.13985
 H593 H 0.39248 0.46388 0.17755
 H594 H 0.36026 0.42853 0.21101
 H595 H 0.39102 0.32334 0.03518
 H596 H 0.36070 0.28902 0.07120
 H597 H 0.42851 0.36028 0.21111
 H598 H 0.46479 0.39086 0.17698
 H599 H 0.29023 0.35761 0.07109
 H600 H 0.32343 0.39176 0.03536
 O601 O 0.37531 0.67059 0.79075
 O602 O 0.41075 0.62520 0.78117
 O603 O 0.29038 0.62370 0.83023
 O604 O 0.27838 0.59181 0.87255
 O605 O 0.32970 0.70992 0.87600
 O606 O 0.37503 0.71909 0.91156
 O607 O 0.37636 0.54083 0.92001
 O608 O 0.33813 0.53203 0.87748
 O609 O 0.45902 0.58021 0.87605
 O610 O 0.46897 0.62691 0.83899
 O611 O 0.41999 0.62393 0.95925
 O612 O 0.37352 0.66080 0.96966
 O613 O 0.37637 0.57997 0.95919
 O614 O 0.33888 0.62632 0.96932
 O615 O 0.45903 0.62398 0.92002
 O616 O 0.46898 0.66130 0.87368
 O617 O 0.42003 0.54097 0.87654
 O618 O 0.37530 0.53094 0.83885
 O619 O 0.37544 0.70978 0.82997
 O620 O 0.41123 0.71898 0.87538
 O621 O 0.29058 0.67075 0.87559
 O622 O 0.28322 0.62539 0.91377
 O623 O 0.32943 0.62461 0.79090
 O624 O 0.37477 0.58905 0.78137
 Zr625 Zr 0.37358 0.62642 0.81687
 O626 O 0.40420 0.59602 0.84460
 Zr627 Zr 0.31651 0.62645 0.87428
 O628 O 0.34451 0.59565 0.90445
 Zr629 Zr 0.37375 0.68367 0.87412
 O630 O 0.40420 0.65570 0.90455
 Zr631 Zr 0.37593 0.56702 0.87595
 O632 O 0.34490 0.59475 0.84539
 Zr633 Zr 0.43297 0.62443 0.87592
 O634 O 0.40521 0.65523 0.84518
 Zr635 Zr 0.37579 0.62422 0.93328
 O636 O 0.34505 0.65525 0.90571
 O637 O 0.34336 0.65674 0.84392
 O638 O 0.40641 0.59379 0.90651
 C639 C 0.37607 0.70056 0.79998
 C640 C 0.29954 0.62335 0.80021
 C641 C 0.29975 0.70071 0.87649
 C642 C 0.37659 0.55002 0.94999
 C643 C 0.44992 0.55023 0.87645
 C644 C 0.44991 0.62376 0.94999
 H645 H 0.41775 0.58275 0.82975
 H646 H 0.41763 0.67044 0.91804
 H647 H 0.32940 0.67059 0.82993
 H648 H 0.32996 0.58184 0.91779
 H649 H 0.32149 0.53906 0.86148
 H650 H 0.28548 0.57260 0.88526
 H651 H 0.46444 0.67715 0.89128
 H652 H 0.42841 0.71126 0.86028
 H653 H 0.39227 0.53636 0.82262
 H654 H 0.35997 0.57169 0.78922
 H655 H 0.39076 0.67695 0.96494
 H656 H 0.36028 0.71124 0.92897
 H657 H 0.42820 0.63989 0.78900
 H658 H 0.46455 0.60933 0.82309
 H659 H 0.28998 0.64266 0.92922
 H660 H 0.32323 0.60854 0.96488
 O661 O 0.12394 0.67061 0.70944
 O662 O 0.08858 0.62524 0.71896
 O663 O 0.20903 0.62376 0.67018
 O664 O 0.22125 0.59190 0.62789
 O665 O 0.16964 0.70991 0.62427
 O666 O 0.12438 0.71906 0.58868
 O667 O 0.12345 0.54079 0.58022
 O668 O 0.16159 0.53204 0.62282
 O669 O 0.04063 0.58014 0.62391
 O670 O 0.03036 0.62677 0.66083
 O671 O 0.07983 0.62383 0.54080
 O672 O 0.12627 0.66068 0.53053
 O673 O 0.12347 0.57988 0.54104
 O674 O 0.16096 0.62624 0.53100
 O675 O 0.04066 0.62387 0.57990
 O676 O 0.03057 0.66128 0.62632
 O677 O 0.07970 0.54094 0.62359
 O678 O 0.12432 0.53096 0.66136
 O679 O 0.12383 0.70976 0.67023
 O680 O 0.08810 0.71889 0.62474
 O681 O 0.20883 0.67079 0.62479
 O682 O 0.21641 0.62536 0.58667
 O683 O 0.16990 0.62468 0.70942
 O684 O 0.12457 0.58907 0.71881
 Zr685 Zr 0.12581 0.62643 0.68334
 O686 O 0.09531 0.59602 0.65551
 Zr687 Zr 0.18302 0.62647 0.62607
 O688 O 0.15517 0.59562 0.59583
 Zr689 Zr 0.12565 0.68363 0.62609
 O690 O 0.09536 0.65563 0.59555
 Zr691 Zr 0.12373 0.56701 0.62426
 O692 O 0.15463 0.59477 0.65490
 Zr693 Zr 0.06658 0.62437 0.62410
 O694 O 0.09419 0.65519 0.65494
 Zr695 Zr 0.12393 0.62415 0.56692
 O696 O 0.15451 0.65523 0.59458
 O697 O 0.15603 0.65677 0.65637
 O698 O 0.09329 0.59372 0.59360
 C699 C 0.12314 0.70057 0.70021
 C700 C 0.19981 0.62342 0.70018
 C701 C 0.19959 0.70073 0.62382
 C702 C 0.12328 0.54995 0.55024
 C703 C 0.04979 0.55017 0.62359
 C704 C 0.04989 0.62366 0.54996
 H705 H 0.08174 0.58276 0.67033
 H706 H 0.08195 0.67035 0.58202
 H707 H 0.16994 0.67063 0.67038
 H708 H 0.16979 0.58181 0.58254
 H709 H 0.17817 0.53908 0.63888
 H710 H 0.21419 0.57263 0.61524
 H711 H 0.03502 0.67702 0.60861
 H712 H 0.07091 0.71119 0.63983
 H713 H 0.10733 0.53641 0.67757
 H714 H 0.13949 0.57176 0.71104
 H715 H 0.10899 0.67684 0.53520
 H716 H 0.13915 0.71120 0.57127
 H717 H 0.07109 0.63986 0.71107
 H718 H 0.03492 0.60938 0.67689
 H719 H 0.20967 0.64261 0.57119
 H720 H 0.17657 0.60842 0.53544
 O721 O 0.12443 0.16959 0.20930
 O722 O 0.08902 0.12418 0.21869
 O723 O 0.20951 0.12280 0.16996
 O724 O 0.22165 0.09092 0.12761
 O725 O 0.17019 0.20903 0.12422
 O726 O 0.12492 0.21829 0.08864
 O727 O 0.12375 0.04013 0.07969
 O728 O 0.16203 0.03123 0.12224
 O729 O 0.04109 0.07935 0.12358
 O730 O 0.03086 0.12592 0.16062
 O731 O 0.08027 0.12330 0.04055
 O732 O 0.12684 0.16017 0.03045
 O733 O 0.12379 0.07929 0.04067
 O734 O 0.16134 0.12554 0.03068
 O735 O 0.04112 0.12321 0.07967
 O736 O 0.03104 0.16048 0.12617
 O737 O 0.08014 0.04014 0.12316
 O738 O 0.12475 0.02999 0.16078
 O739 O 0.12436 0.20882 0.17017
 O740 O 0.08868 0.21811 0.12472
 O741 O 0.20936 0.16988 0.12464
 O742 O 0.21693 0.12458 0.08646
 O743 O 0.17036 0.12365 0.20919
 O744 O 0.12504 0.08802 0.21848
 Zr745 Zr 0.12628 0.12546 0.18309
 O746 O 0.09578 0.09513 0.15519
 Zr747 Zr 0.18350 0.12558 0.12583
 O748 O 0.15563 0.09485 0.09549
 Zr749 Zr 0.12617 0.18279 0.12597
 O750 O 0.09584 0.15489 0.09539
 Zr751 Zr 0.12417 0.06619 0.12383
 O752 O 0.15508 0.09384 0.15458
 Zr753 Zr 0.06705 0.12358 0.12387
 O754 O 0.09468 0.15431 0.15477
 Zr755 Zr 0.12438 0.12348 0.06667
 O756 O 0.15501 0.15444 0.09441
 O757 O 0.15653 0.15583 0.15619
 O758 O 0.09373 0.09300 0.09327
 C759 C 0.12365 0.19956 0.20013
 C760 C 0.20027 0.12241 0.19996
 C761 C 0.20014 0.19983 0.12374
 C762 C 0.12352 0.04928 0.04968
 C763 C 0.05024 0.04938 0.12319
 C764 C 0.05033 0.12310 0.04973
 H765 H 0.08221 0.08183 0.16997
 H766 H 0.08244 0.16967 0.08190
 H767 H 0.17045 0.16966 0.17024
 H768 H 0.17021 0.08106 0.08214
 H769 H 0.17860 0.03819 0.13835
 H770 H 0.21463 0.07177 0.11476
 H771 H 0.03552 0.17629 0.10852
 H772 H 0.07145 0.21036 0.13975
 H773 H 0.10791 0.03551 0.17712
 H774 H 0.13996 0.07073 0.21067
 H775 H 0.10947 0.17624 0.03506
 H776 H 0.13972 0.21049 0.07124
 H777 H 0.07158 0.13889 0.21085
 H778 H 0.03539 0.10846 0.17662
 H779 H 0.21012 0.14178 0.07096
 H780 H 0.17699 0.10775 0.03512
 O781 O 0.70943 0.37630 0.83011
 O782 O 0.71890 0.41161 0.87557
 O783 O 0.67036 0.29107 0.87682
 O784 O 0.62821 0.27907 0.90904
 O785 O 0.62451 0.33033 0.79076
 O786 O 0.58887 0.37561 0.78153
 O787 O 0.58021 0.37683 0.95980
 O788 O 0.62285 0.33870 0.96865
 O789 O 0.62378 0.45968 0.92052
 O790 O 0.66068 0.46993 0.87392
 O791 O 0.54089 0.42037 0.87661
 O792 O 0.53092 0.37371 0.83965
 O793 O 0.54115 0.37675 0.92061
 O794 O 0.53113 0.33930 0.87437
 O795 O 0.57988 0.45958 0.87662
 O796 O 0.62638 0.46958 0.83925
 O797 O 0.62350 0.42063 0.95975
 O798 O 0.66115 0.37612 0.96989
 O799 O 0.67029 0.37629 0.79090
 O800 O 0.62487 0.41185 0.78161
 O801 O 0.62501 0.29120 0.82996
 O802 O 0.58702 0.28363 0.87534
 O803 O 0.70950 0.33024 0.87593
 O804 O 0.71870 0.37560 0.91177
 Zr805 Zr 0.68335 0.37437 0.87430
 O806 O 0.65547 0.40494 0.90466
 Zr807 Zr 0.62626 0.31712 0.87426
 O808 O 0.59595 0.34504 0.90501
 Zr809 Zr 0.62621 0.37442 0.81700
 O810 O 0.59566 0.40481 0.84493
 Zr811 Zr 0.62425 0.37655 0.93367
 O812 O 0.65497 0.34559 0.90599
 Zr813 Zr 0.62408 0.43366 0.87625
 O814 O 0.65496 0.40595 0.84548
 Zr815 Zr 0.56707 0.37625 0.87638
 O816 O 0.59478 0.34556 0.84541
 O817 O 0.65648 0.34409 0.84393
 O818 O 0.59361 0.40696 0.90689
 C819 C 0.70021 0.37706 0.80013
 C820 C 0.70031 0.30029 0.87710
 C821 C 0.62407 0.30038 0.80000
 C822 C 0.55030 0.37696 0.95056
 C823 C 0.62345 0.45054 0.95051
 C824 C 0.54998 0.45034 0.87676
 H825 H 0.67022 0.41855 0.91795
 H826 H 0.58216 0.41819 0.83016
 H827 H 0.67051 0.33018 0.83004
 H828 H 0.58266 0.33044 0.91882
 H829 H 0.63901 0.32216 0.96168
 H830 H 0.61529 0.28608 0.92817
 H831 H 0.60865 0.46518 0.82353
 H832 H 0.63976 0.42916 0.78937
 H833 H 0.67754 0.39284 0.96422
 H834 H 0.71099 0.36056 0.92900
 H835 H 0.53541 0.39117 0.82363
 H836 H 0.57155 0.36075 0.78935
 H837 H 0.71097 0.42914 0.86101
 H838 H 0.67672 0.46538 0.89133
 H839 H 0.57148 0.29041 0.85817
 H840 H 0.53573 0.32355 0.89203
 O841 O 0.12380 0.83062 0.79088
 O842 O 0.08838 0.87601 0.78145
 O843 O 0.20880 0.87745 0.83019
 O844 O 0.22078 0.90942 0.87253
 O845 O 0.16956 0.79123 0.87597
 O846 O 0.12425 0.78200 0.91159
 O847 O 0.12292 0.96018 0.92042
 O848 O 0.16105 0.96906 0.87779
 O849 O 0.04017 0.92087 0.87651
 O850 O 0.03010 0.87425 0.83953
 O851 O 0.07932 0.87695 0.95962
 O852 O 0.12595 0.84009 0.96971
 O853 O 0.12297 0.92099 0.95951
 O854 O 0.16037 0.87474 0.96953
 O855 O 0.04022 0.87697 0.92049
 O856 O 0.03030 0.83972 0.87398
 O857 O 0.07915 0.96011 0.87692
 O858 O 0.12379 0.97026 0.83934
 O859 O 0.12375 0.79142 0.83004
 O860 O 0.08807 0.78210 0.87548
 O861 O 0.20867 0.83040 0.87553
 O862 O 0.21610 0.87574 0.91370
 O863 O 0.16970 0.87657 0.79096
 O864 O 0.12433 0.91221 0.78168
 Zr865 Zr 0.12558 0.87476 0.81706
 O866 O 0.09497 0.90509 0.84496
 Zr867 Zr 0.18272 0.87469 0.87432
 O868 O 0.15473 0.90541 0.90464
 Zr869 Zr 0.12549 0.81746 0.87422
 O870 O 0.09505 0.84536 0.90478
 Zr871 Zr 0.12325 0.93407 0.87630
 O872 O 0.15427 0.90642 0.84558
 Zr873 Zr 0.06623 0.87666 0.87630
 O874 O 0.09399 0.84593 0.84542
 Zr875 Zr 0.12349 0.87679 0.93350
 O876 O 0.15423 0.84586 0.90578
 O877 O 0.15584 0.84441 0.84398
 O878 O 0.09281 0.90728 0.90690
 C879 C 0.12305 0.80065 0.80007
 C880 C 0.19961 0.87782 0.80018
 C881 C 0.19951 0.80045 0.87644
 C882 C 0.12278 0.95094 0.95038
 C883 C 0.04926 0.95085 0.87685
 C884 C 0.04938 0.87707 0.95045
 H885 H 0.08140 0.91836 0.83016
 H886 H 0.08166 0.83058 0.91827
 H887 H 0.16979 0.83058 0.82994
 H888 H 0.16929 0.91920 0.91798
 H889 H 0.17766 0.96208 0.86170
 H890 H 0.21371 0.92856 0.88538
 H891 H 0.03479 0.82390 0.89161
 H892 H 0.07083 0.78985 0.86048
 H893 H 0.10703 0.96467 0.82296
 H894 H 0.13925 0.92949 0.78947
 H895 H 0.10859 0.82402 0.96510
 H896 H 0.13906 0.78981 0.92897
 H897 H 0.07092 0.86133 0.78931
 H898 H 0.03464 0.89170 0.82351
 H899 H 0.20933 0.85851 0.92919
 H900 H 0.17614 0.89238 0.96495
 O901 O 0.70933 0.12403 0.67017
 O902 O 0.71870 0.08864 0.62469
 O903 O 0.67026 0.20926 0.62346
 O904 O 0.62811 0.22140 0.59138
 O905 O 0.62443 0.17013 0.70963
 O906 O 0.58879 0.12492 0.71894
 O907 O 0.58004 0.12361 0.54061
 O908 O 0.62268 0.16175 0.53171
 O909 O 0.62362 0.04078 0.57990
 O910 O 0.66048 0.03049 0.62648
 O911 O 0.54073 0.08028 0.62381
 O912 O 0.53072 0.12686 0.66077
 O913 O 0.54098 0.12382 0.57985
 O914 O 0.53111 0.16144 0.62617
 O915 O 0.57968 0.04100 0.62374
 O916 O 0.62610 0.03088 0.66114
 O917 O 0.62332 0.07980 0.54065
 O918 O 0.66101 0.12429 0.53045
 O919 O 0.67022 0.12411 0.70944
 O920 O 0.62472 0.08857 0.71876
 O921 O 0.62494 0.20925 0.67041
 O922 O 0.58691 0.21686 0.62507
 O923 O 0.70937 0.17003 0.62432
 O924 O 0.71856 0.12466 0.58851
 Zr925 Zr 0.68321 0.12597 0.62601
 O926 O 0.65529 0.09546 0.59567
 Zr927 Zr 0.62615 0.18332 0.62612
 O928 O 0.59582 0.15547 0.59538
 Zr929 Zr 0.62610 0.12604 0.68340
 O930 O 0.59550 0.09573 0.65548
 Zr931 Zr 0.62409 0.12390 0.56670
 O932 O 0.65484 0.15479 0.59435
 Zr933 Zr 0.62390 0.06682 0.62415
 O934 O 0.65481 0.09444 0.65488
 Zr935 Zr 0.56692 0.12433 0.62405
 O936 O 0.59467 0.15494 0.65502
 O937 O 0.65637 0.15631 0.65641
 O938 O 0.59345 0.09357 0.59354
 C939 C 0.70014 0.12329 0.70017
 C940 C 0.70020 0.19998 0.62314
 C941 C 0.62401 0.20008 0.70039
 C942 C 0.55012 0.12351 0.54987
 C943 C 0.62328 0.04990 0.54991
 C944 C 0.54980 0.05030 0.62360
 H945 H 0.67004 0.08183 0.58238
 H946 H 0.58198 0.08237 0.67027
 H947 H 0.67041 0.17019 0.67027
 H948 H 0.58254 0.17009 0.58157
 H949 H 0.63884 0.17827 0.53866
 H950 H 0.61525 0.21441 0.57223
 H951 H 0.60836 0.03533 0.67686
 H952 H 0.63964 0.07127 0.71099
 H953 H 0.67735 0.10751 0.53606
 H954 H 0.71084 0.13968 0.57127
 H955 H 0.53527 0.10949 0.67685
 H956 H 0.57144 0.13975 0.71111
 H957 H 0.71081 0.07117 0.63935
 H958 H 0.67653 0.03501 0.60907
 H959 H 0.57141 0.21014 0.64230
 H960 H 0.53557 0.17704 0.60834
 C961 C 0.37696 0.78350 0.75890
 C962 C 0.37684 0.77504 0.72565
 C963 C 0.37700 0.74183 0.71710
 C964 C 0.37703 0.71771 0.74117
 C965 C 0.37690 0.72616 0.77442
 C966 C 0.37700 0.75937 0.78297
 H967 H 0.37682 0.80881 0.76641
 H968 H 0.37689 0.73438 0.69176
 H969 H 0.37694 0.69240 0.73365
 H970 H 0.37687 0.76682 0.80831
 C971 C 0.37733 0.25836 0.28303
 C972 C 0.37719 0.22515 0.27447
 C973 C 0.37734 0.21670 0.24122
 C974 C 0.37737 0.24084 0.21716
 C975 C 0.37725 0.27404 0.22573
 C976 C 0.37736 0.28249 0.25898
 H977 H 0.37720 0.26580 0.30838
 H978 H 0.37721 0.19140 0.23370
 H979 H 0.37727 0.23340 0.19181
 H980 H 0.37725 0.30779 0.26650
 C981 C 0.62277 0.78261 0.24084
 C982 C 0.62283 0.77410 0.27407
 C983 C 0.62267 0.74089 0.28257
 C984 C 0.62271 0.71681 0.25845
 C985 C 0.62292 0.72532 0.22523
 C986 C 0.62281 0.75853 0.21673
 H987 H 0.62291 0.80792 0.23338
 H988 H 0.62274 0.73342 0.30790
 H989 H 0.62281 0.69150 0.26592
 H990 H 0.62298 0.76600 0.19140
 C991 C 0.12256 0.28247 0.24124
 C992 C 0.12270 0.27401 0.27448
 C993 C 0.12259 0.24081 0.28302
 C994 C 0.12261 0.21668 0.25894
 C995 C 0.12274 0.22514 0.22571
 C996 C 0.12257 0.25834 0.21717
 H997 H 0.12266 0.30777 0.23374
 H998 H 0.12272 0.23337 0.30836
 H999 H 0.12275 0.19138 0.26644
 H1000 H 0.12269 0.26579 0.19183
 C1001 C 0.12208 0.75937 0.71720
 C1002 C 0.12221 0.72618 0.72575
 C1003 C 0.12204 0.71774 0.75899
 C1004 C 0.12202 0.74187 0.78306
 C1005 C 0.12218 0.77507 0.77450
 C1006 C 0.12207 0.78351 0.74126
 H1007 H 0.12223 0.76680 0.69185
 H1008 H 0.12216 0.69244 0.76651
 H1009 H 0.12212 0.73444 0.80840
 H1010 H 0.12220 0.80881 0.73376
 C1011 C 0.87768 0.25885 0.78301
 C1012 C 0.87759 0.22565 0.77445
 C1013 C 0.87775 0.21716 0.74121
 C1014 C 0.87772 0.24125 0.71715
 C1015 C 0.87752 0.27445 0.72571
 C1016 C 0.87764 0.28295 0.75894
 H1017 H 0.87754 0.26631 0.80835
 H1018 H 0.87767 0.19185 0.73371
 H1019 H 0.87761 0.23379 0.69181
 H1020 H 0.87748 0.30826 0.76644
 C1021 C 0.78292 0.37806 0.75882
 C1022 C 0.77436 0.37803 0.72560
 C1023 C 0.74117 0.37832 0.71715
 C1024 C 0.71715 0.37832 0.74130
 C1025 C 0.72571 0.37803 0.77452
 C1026 C 0.75890 0.37807 0.78297
 H1027 H 0.80823 0.37783 0.76625
 H1028 H 0.73367 0.37828 0.69183
 H1029 H 0.69184 0.37830 0.73388
 H1030 H 0.76641 0.37784 0.80829
 C1031 C 0.28255 0.62208 0.74141
 C1032 C 0.27400 0.62229 0.77464
 C1033 C 0.24081 0.62218 0.78313
 C1034 C 0.21678 0.62222 0.75900
 C1035 C 0.22532 0.62234 0.72577
 C1036 C 0.25852 0.62209 0.71729
 H1037 H 0.30786 0.62215 0.73394
 H1038 H 0.23331 0.62237 0.80846
 H1039 H 0.19146 0.62241 0.76646
 H1040 H 0.26602 0.62220 0.69196
 C1041 C 0.28294 0.12109 0.24136
 C1042 C 0.27434 0.12127 0.27458
 C1043 C 0.24113 0.12111 0.28299
 C1044 C 0.21714 0.12114 0.25881
 C1045 C 0.22575 0.12130 0.22559
 C1046 C 0.25896 0.12110 0.21718
 H1047 H 0.30827 0.12121 0.23394
 H1048 H 0.23358 0.12127 0.30831
 H1049 H 0.19182 0.12129 0.26623
 H1050 H 0.26651 0.12125 0.19186
 C1051 C 0.78294 0.12218 0.74131
 C1052 C 0.77443 0.12219 0.77455
 C1053 C 0.74125 0.12193 0.78307
 C1054 C 0.71718 0.12199 0.75897
 C1055 C 0.72569 0.12229 0.72573
 C1056 C 0.75888 0.12223 0.71721
 H1057 H 0.80824 0.12239 0.73382
 H1058 H 0.73378 0.12196 0.80841
 H1059 H 0.69188 0.12204 0.76646
 H1060 H 0.76635 0.12248 0.69187
 C1061 C 0.71749 0.87741 0.24112
 C1062 C 0.72598 0.87743 0.27436
 C1063 C 0.75917 0.87762 0.28284
 C1064 C 0.78325 0.87750 0.25870
 C1065 C 0.77476 0.87718 0.22547
 C1066 C 0.74157 0.87729 0.21699
 H1067 H 0.69220 0.87724 0.23364
 H1068 H 0.76663 0.87760 0.30817
 H1069 H 0.80855 0.87741 0.26617
 H1070 H 0.73409 0.87705 0.19166
 C1071 C 0.78271 0.75831 0.37720
 C1072 C 0.77426 0.72511 0.37710
 C1073 C 0.74108 0.71655 0.37728
 C1074 C 0.71697 0.74059 0.37729
 C1075 C 0.72543 0.77380 0.37712
 C1076 C 0.75860 0.78235 0.37721
 H1077 H 0.80800 0.76582 0.37704
 H1078 H 0.73366 0.69122 0.37719
 H1079 H 0.69168 0.73310 0.37721
 H1080 H 0.76603 0.80767 0.37707
 C1081 C 0.78312 0.24090 0.62248
 C1082 C 0.77468 0.27412 0.62259
 C1083 C 0.74151 0.28271 0.62223
 C1084 C 0.71738 0.25869 0.62206
 C1085 C 0.72581 0.22547 0.62226
 C1086 C 0.75899 0.21688 0.62232
 H1087 H 0.80841 0.23337 0.62276
 H1088 H 0.73408 0.30804 0.62230
 H1089 H 0.69210 0.26624 0.62204
 H1090 H 0.76640 0.19155 0.62250
 C1091 C 0.75903 0.71672 0.12178
 C1092 C 0.72585 0.72533 0.12205
 C1093 C 0.71745 0.75856 0.12192
 C1094 C 0.74160 0.78256 0.12182
 C1095 C 0.77477 0.77395 0.12184
 C1096 C 0.78318 0.74072 0.12167
 H1097 H 0.76643 0.69138 0.12187
 H1098 H 0.69217 0.76611 0.12213
 H1099 H 0.73419 0.80789 0.12198
 H1100 H 0.80846 0.73317 0.12172
 C1101 C 0.28301 0.24081 0.12279
 C1102 C 0.27456 0.27403 0.12293
 C1103 C 0.24138 0.28260 0.12284
 C1104 C 0.21726 0.25857 0.12285
 C1105 C 0.22571 0.22535 0.12295
 C1106 C 0.25889 0.21678 0.12280
 H1107 H 0.30830 0.23329 0.12288
 H1108 H 0.23394 0.30793 0.12297
 H1109 H 0.19197 0.26609 0.12298
 H1110 H 0.26633 0.19145 0.12289
 C1111 C 0.28249 0.75947 0.87737
 C1112 C 0.27411 0.72624 0.87728
 C1113 C 0.24093 0.71766 0.87740
 C1114 C 0.21677 0.74169 0.87738
 C1115 C 0.22515 0.77492 0.87723
 C1116 C 0.25833 0.78350 0.87735
 H1117 H 0.30777 0.76701 0.87726
 H1118 H 0.23354 0.69233 0.87731
 H1119 H 0.19149 0.73415 0.87727
 H1120 H 0.26572 0.80883 0.87722
 C1121 C 0.28276 0.25843 0.37744
 C1122 C 0.27432 0.22522 0.37730
 C1123 C 0.24115 0.21664 0.37739
 C1124 C 0.21703 0.24068 0.37738
 C1125 C 0.22547 0.27388 0.37726
 C1126 C 0.25864 0.28245 0.37742
 H1127 H 0.30805 0.26594 0.37735
 H1128 H 0.23374 0.19132 0.37727
 H1129 H 0.19174 0.23317 0.37724
 H1130 H 0.26606 0.30778 0.37733
 C1131 C 0.53289 0.62294 0.99076
 C1132 C 0.52453 0.62302 1.02403
 C1133 C 0.49136 0.62299 1.03270
 C1134 C 0.46719 0.62314 1.00872
 C1135 C 0.47555 0.62331 0.97546
 C1136 C 0.50871 0.62308 0.96678
 H1137 H 0.55817 0.62285 0.98317
 H1138 H 0.48400 0.62295 1.05807
 H1139 H 0.44191 0.62319 1.01631
 H1140 H 0.51608 0.62309 0.94141
 C1141 C 0.46714 0.12292 0.50907
 C1142 C 0.47551 0.12286 0.47581
 C1143 C 0.50868 0.12264 0.46715
 C1144 C 0.53285 0.12274 0.49113
 C1145 C 0.52447 0.12306 0.52439
 C1146 C 0.49131 0.12302 0.53306
 H1147 H 0.44186 0.12299 0.51665
 H1148 H 0.51605 0.12248 0.44178
 H1149 H 0.55812 0.12264 0.48355
 H1150 H 0.48394 0.12315 0.55843
 C1151 C 0.53263 0.87699 0.50872
 C1152 C 0.52426 0.87679 0.47547
 C1153 C 0.49109 0.87699 0.46686
 C1154 C 0.46691 0.87714 0.49090
 C1155 C 0.47529 0.87710 0.52415
 C1156 C 0.50846 0.87714 0.53275
 H1157 H 0.55791 0.87695 0.51627
 H1158 H 0.48371 0.87696 0.44151
 H1159 H 0.44164 0.87721 0.48335
 H1160 H 0.51585 0.87721 0.55811
 C1161 C 1.03298 0.37705 0.50903
 C1162 C 1.02454 0.37690 0.47579
 C1163 C 0.99137 0.37703 0.46721
 C1164 C 0.96725 0.37706 0.49125
 C1165 C 0.97568 0.37695 0.52448
 C1166 C 1.00885 0.37708 0.53307
 H1167 H 1.05826 0.37706 0.51655
 H1168 H 0.98397 0.37703 0.44186
 H1169 H 0.94196 0.37707 0.48373
 H1170 H 1.01625 0.37711 0.55842
 C1171 C -0.03358 0.87710 0.99149
 C1172 C -0.02528 0.87678 1.02486
 C1173 C 0.00802 0.87697 1.03332
 C1174 C 0.03215 0.87719 1.00925
 C1175 C 0.02376 0.87725 0.97602
 C1176 C -0.00941 0.87733 0.96746
 H1177 H -0.05880 0.87710 0.98374
 H1178 H 0.01565 0.87686 1.05861
 H1179 H 0.05744 0.87724 1.01676
 H1180 H -0.01680 0.87748 0.94211
 C1181 C -0.03253 0.12270 0.00872
 C1182 C -0.02409 0.12283 -0.02453
 C1183 C 0.00910 0.12267 -0.03312
 C1184 C 0.03322 0.12265 -0.00907
 C1185 C 0.02476 0.12278 0.02417
 C1186 C -0.00842 0.12268 0.03276
 H1187 H -0.05782 0.12272 0.01625
 H1188 H 0.01652 0.12265 -0.05847
 H1189 H 0.05851 0.12261 -0.01660
 H1190 H -0.01585 0.12267 0.05811
 C1191 C 0.12272 1.03363 0.99194
 C1192 C 0.12296 1.02508 1.02527
 C1193 C 0.12267 0.99173 1.03351
 C1194 C 0.12246 0.96778 1.00926
 C1195 C 0.12251 0.97642 0.97608
 C1196 C 0.12249 1.00963 0.96774
 H1197 H 0.12279 1.05892 0.98436
 H1198 H 0.12271 0.98392 1.05875
 H1199 H 0.12236 0.94243 1.01661
 H1200 H 0.12242 1.01720 0.94244
 C1201 C 0.12284 0.50891 0.46725
 C1202 C 0.12300 0.47570 0.47570
 C1203 C 0.12284 0.46715 0.50892
 C1204 C 0.12279 0.49119 0.53307
 C1205 C 0.12291 0.52441 0.52462
 C1206 C 0.12280 0.53296 0.49140
 H1207 H 0.12284 0.51641 0.44192
 H1208 H 0.12284 0.44182 0.51635
 H1209 H 0.12275 0.48369 0.55840
 H1210 H 0.12277 0.55828 0.48397
 C1211 C 0.37723 0.50902 1.03302
 C1212 C 0.37711 0.47579 1.02458
 C1213 C 0.37725 0.46723 0.99135
 C1214 C 0.37722 0.49126 0.96719
 C1215 C 0.37705 0.52449 0.97563
 C1216 C 0.37719 0.53305 1.00886
 H1217 H 0.37724 0.51654 1.05835
 H1218 H 0.37728 0.44190 0.98391
 H1219 H 0.37723 0.48373 0.94187
 H1220 H 0.37718 0.55838 1.01630
 C1221 C 0.87729 0.53294 0.50876
 C1222 C 0.87711 0.52431 0.47555
 C1223 C 0.87721 0.49109 0.46712
 C1224 C 0.87721 0.46710 0.49129
 C1225 C 0.87712 0.47573 0.52450
 C1226 C 0.87730 0.50895 0.53293
 H1227 H 0.87733 0.55828 0.51616
 H1228 H 0.87718 0.48354 0.44180
 H1229 H 0.87719 0.44176 0.48388
 H1230 H 0.87735 0.51651 0.55824
 C1231 C 0.87728 1.03246 0.00846
 C1232 C 0.87740 1.02395 -0.02478
 C1233 C 0.87780 0.99077 -0.03333
 C1234 C 0.87781 0.96669 -0.00925
 C1235 C 0.87740 0.97519 0.02398
 C1236 C 0.87728 1.00838 0.03254
 H1237 H 0.87708 1.05777 0.01596
 H1238 H 0.87803 0.98331 -0.05867
 H1239 H 0.87803 0.94138 -0.01676
 H1240 H 0.87709 1.01583 0.05788
 C1241 C 0.62252 0.00876 0.46698
 C1242 C 0.62286 -0.02444 0.47546
 C1243 C 0.62291 -0.03296 0.50869
 C1244 C 0.62291 -0.00889 0.53282
 C1245 C 0.62286 0.02432 0.52433
 C1246 C 0.62252 0.03283 0.49110
 H1247 H 0.62235 0.01624 0.44165
 H1248 H 0.62307 -0.05828 0.51615
 H1249 H 0.62307 -0.01636 0.55815
 H1250 H 0.62235 0.05814 0.48364
 C1251 C 0.46718 0.99078 0.37723
 C1252 C 0.47563 1.02400 0.37711
 C1253 C 0.50879 1.03257 0.37715
 C1254 C 0.53289 1.00853 0.37705
 C1255 C 0.52444 0.97531 0.37690
 C1256 C 0.49128 0.96674 0.37712
 H1257 H 0.44189 0.98327 0.37730
 H1258 H 0.51620 1.05790 0.37717
 H1259 H 0.55818 1.01603 0.37700
 H1260 H 0.48386 0.94142 0.37713
 C1261 C 0.00919 -0.03348 0.12242
 C1262 C -0.02400 -0.02499 0.12275
 C1263 C -0.03253 0.00822 0.12284
 C1264 C -0.00849 0.03232 0.12286
 C1265 C 0.02470 0.02383 0.12279
 C1266 C 0.03323 -0.00938 0.12244
 H1267 H 0.01668 -0.05879 0.12223
 H1268 H -0.05784 0.01568 0.12298
 H1269 H -0.01598 0.05763 0.12302
 H1270 H 0.05854 -0.01685 0.12227
 C1271 C 0.53294 0.49092 0.12275
 C1272 C 0.52449 0.52415 0.12286
 C1273 C 0.49132 0.53272 0.12285
 C1274 C 0.46722 0.50869 0.12299
 C1275 C 0.47567 0.47546 0.12314
 C1276 C 0.50884 0.46688 0.12290
 H1277 H 0.55823 0.48339 0.12265
 H1278 H 0.48390 0.55806 0.12283
 H1279 H 0.44193 0.51621 0.12306
 H1280 H 0.51627 0.44155 0.12289
 C1281 C 0.00874 0.46730 0.62308
 C1282 C -0.02445 0.47580 0.62319
 C1283 C -0.03298 0.50901 0.62304
 C1284 C -0.00894 0.53310 0.62306
 C1285 C 0.02425 0.52461 0.62321
 C1286 C 0.03279 0.49140 0.62309
 H1287 H 0.01623 0.44199 0.62307
 H1288 H -0.05829 0.51647 0.62302
 H1289 H -0.01643 0.55842 0.62304
 H1290 H 0.05809 0.48394 0.62309
 C1291 C 0.46709 0.49146 0.87715
 C1292 C 0.47554 0.52468 0.87685
 C1293 C 0.50872 0.53320 0.87689
 C1294 C 0.53282 0.50912 0.87698
 C1295 C 0.52437 0.47590 0.87703
 C1296 C 0.49119 0.46738 0.87723
 H1297 H 0.44180 0.48396 0.87723
 H1298 H 0.51615 0.55852 0.87677
 H1299 H 0.55811 0.51662 0.87692
 H1300 H 0.48376 0.44206 0.87738
 C1301 C 0.62295 0.53339 0.99177
 C1302 C 0.62302 0.52496 1.02512
 C1303 C 0.62279 0.49163 1.03348
 C1304 C 0.62279 0.46760 1.00932
 C1305 C 0.62302 0.47612 0.97611
 C1306 C 0.62296 0.50931 0.96765
 H1307 H 0.62300 0.55865 0.98410
 H1308 H 0.62270 0.48392 1.05875
 H1309 H 0.62271 0.44228 1.01676
 H1310 H 0.62301 0.51678 0.94232
 C1311 C 0.37708 1.03355 0.50817
 C1312 C 0.37697 1.02502 0.47483
 C1313 C 0.37713 0.99165 0.46658
 C1314 C 0.37708 0.96770 0.49082
 C1315 C 0.37688 0.97633 0.52402
 C1316 C 0.37703 1.00956 0.53237
 H1317 H 0.37709 1.05884 0.51578
 H1318 H 0.37719 0.98384 0.44134
 H1319 H 0.37709 0.94235 0.48346
 H1320 H 0.37701 1.01713 0.55768
 C1321 C -0.03291 0.62315 0.50881
 C1322 C -0.02439 0.62311 0.47558
 C1323 C 0.00880 0.62288 0.46706
 C1324 C 0.03287 0.62295 0.49115
 C1325 C 0.02435 0.62325 0.52438
 C1326 C -0.00885 0.62322 0.53290
 H1327 H -0.05822 0.62322 0.51628
 H1328 H 0.01629 0.62273 0.44173
 H1329 H 0.05818 0.62285 0.48367
 H1330 H -0.01632 0.62333 0.55824
 C1331 C 0.46734 0.37711 0.99138
 C1332 C 0.47571 0.37701 1.02463
 C1333 C 0.50886 0.37732 1.03329
 C1334 C 0.53304 0.37745 1.00930
 C1335 C 0.52467 0.37727 0.97605
 C1336 C 0.49152 0.37723 0.96739
 H1337 H 0.44207 0.37699 0.98381
 H1338 H 0.51622 0.37738 1.05865
 H1339 H 0.55831 0.37759 1.01687
 H1340 H 0.48416 0.37720 0.94203
 C1341 C 0.50851 -0.03244 0.62304
 C1342 C 0.47534 -0.02384 0.62299
 C1343 C 0.46691 0.00939 0.62279
 C1344 C 0.49102 0.03341 0.62289
 C1345 C 0.52419 0.02482 0.62318
 C1346 C 0.53262 -0.00841 0.62313
 H1347 H 0.51592 -0.05777 0.62309
 H1348 H 0.44162 0.01693 0.62265
 H1349 H 0.48361 0.05875 0.62281
 H1350 H 0.55791 -0.01595 0.62324
 C1351 C -0.03259 0.49122 0.37699
 C1352 C -0.02404 0.52441 0.37704
 C1353 C 0.00914 0.53289 0.37742
 C1354 C 0.03317 0.50877 0.37745
 C1355 C 0.02463 0.47558 0.37711
 C1356 C -0.00856 0.46711 0.37702
 H1357 H -0.05790 0.48378 0.37681
 H1358 H 0.01662 0.55819 0.37759
 H1359 H 0.05848 0.51621 0.37764
 H1360 H -0.01604 0.44180 0.37687
 C1361 C -0.03365 0.99198 0.87712
 C1362 C -0.02529 1.02533 0.87679
 C1363 C 0.00801 1.03372 0.87689
 C1364 C 0.03209 1.00962 0.87705
 C1365 C 0.02364 0.97641 0.87710
 C1366 C -0.00952 0.96792 0.87726
 H1367 H -0.05888 0.98427 0.87718
 H1368 H 0.01568 1.05898 0.87677
 H1369 H 0.05738 1.01709 0.87702
 H1370 H -0.01695 0.94259 0.87742
 C1371 C 0.78307 0.62183 0.24085
 C1372 C 0.77445 0.62208 0.27406
 C1373 C 0.74124 0.62188 0.28248
 C1374 C 0.71727 0.62175 0.25829
 C1375 C 0.72588 0.62181 0.22508
 C1376 C 0.75910 0.62170 0.21666
 H1377 H 0.80840 0.62198 0.23344
 H1378 H 0.73369 0.62206 0.30779
 H1379 H 0.69194 0.62185 0.26571
 H1380 H 0.76665 0.62178 0.19135
 C1381 C 0.28238 0.87910 0.75878
 C1382 C 0.27384 0.87892 0.72555
 C1383 C 0.24063 0.87907 0.71713
 C1384 C 0.21660 0.87906 0.74131
 C1385 C 0.22515 0.87890 0.77454
 C1386 C 0.25835 0.87909 0.78296
 H1387 H 0.30769 0.87897 0.76621
 H1388 H 0.23312 0.87891 0.69181
 H1389 H 0.19129 0.87891 0.73389
 H1390 H 0.26586 0.87895 0.80827
 C1391 C 0.21714 0.37805 0.24132
 C1392 C 0.22569 0.37787 0.27454
 C1393 C 0.25887 0.37808 0.28301
 C1394 C 0.28290 0.37811 0.25887
 C1395 C 0.27435 0.37795 0.22565
 C1396 C 0.24117 0.37810 0.21718
 H1397 H 0.19183 0.37789 0.23389
 H1398 H 0.26637 0.37792 0.30833
 H1399 H 0.30821 0.37800 0.26631
 H1400 H 0.23367 0.37796 0.19186
 C1401 C 0.87789 0.75832 0.28264
 C1402 C 0.87785 0.72513 0.27404
 C1403 C 0.87802 0.71668 0.24080
 C1404 C 0.87794 0.74082 0.21677
 C1405 C 0.87769 0.77400 0.22538
 C1406 C 0.87782 0.78245 0.25862
 H1407 H 0.87775 0.76575 0.30799
 H1408 H 0.87795 0.69138 0.23326
 H1409 H 0.87785 0.73340 0.19142
 H1410 H 0.87763 0.80775 0.26616
 C1411 C 0.62317 0.28310 0.74124
 C1412 C 0.62329 0.27473 0.77449
 C1413 C 0.62316 0.24156 0.78314
 C1414 C 0.62314 0.21736 0.75914
 C1415 C 0.62326 0.22573 0.72588
 C1416 C 0.62316 0.25891 0.71724
 H1417 H 0.62329 0.30839 0.73367
 H1418 H 0.62326 0.23419 0.80850
 H1419 H 0.62323 0.19208 0.76671
 H1420 H 0.62326 0.26628 0.69188
 C1421 C 0.78324 0.25919 0.87773
 C1422 C 0.77480 0.22597 0.87762
 C1423 C 0.74161 0.21745 0.87797
 C1424 C 0.71749 0.24152 0.87814
 C1425 C 0.72593 0.27474 0.87796
 C1426 C 0.75912 0.28326 0.87789
 H1427 H 0.80853 0.26668 0.87745
 H1428 H 0.73417 0.19214 0.87790
 H1429 H 0.69220 0.23402 0.87816
 H1430 H 0.76655 0.30858 0.87772
 C1431 C 0.28245 0.74172 0.62278
 C1432 C 0.27400 0.77494 0.62289
 C1433 C 0.24082 0.78351 0.62281
 C1434 C 0.21670 0.75948 0.62285
 C1435 C 0.22516 0.72626 0.62299
 C1436 C 0.25834 0.71769 0.62284
 H1437 H 0.30774 0.73420 0.62287
 H1438 H 0.23339 0.80884 0.62291
 H1439 H 0.19141 0.76699 0.62299
 H1440 H 0.26578 0.69237 0.62295
   
