data_POSCAR
  _audit_creation_date              2014-09-24
  _audit_creation_method            'ToBaCCo'
  _symmetry_space_group_name_H-M    'P1'
  _symmetry_Int_Tables_number       1
  _symmetry_cell_setting            triclinic
  loop_
  _symmetry_equiv_pos_as_xyz
 x,y,z
_cell_length_a 34.7368
_cell_length_b 34.6543
_cell_length_c 34.6700
_cell_angle_alpha 89.998300
_cell_angle_beta 90.085300
_cell_angle_gamma 90.107000
loop_
  _atom_site_label
  _atom_site_type_symbol
  _atom_site_fract_x
  _atom_site_fract_y
  _atom_site_fract_z
C1 C 0.29567 0.45572 0.90539
 C2 C 0.32906 0.47176 0.92193
 C3 C 0.34629 0.45517 0.95484
 C4 C 0.32826 0.42308 0.97212
 C5 C 0.29486 0.40662 0.95608
 C6 C 0.27846 0.42359 0.92311
 H7 H 0.34291 0.49589 0.90770
 H8 H 0.34148 0.40937 0.99689
 H9 H 0.25346 0.41035 0.90986
 C10 C 0.45521 0.84710 0.45440
 C11 C 0.42302 0.82913 0.47151
 C12 C 0.40640 0.79576 0.45534
 C13 C 0.42327 0.77941 0.42235
 C14 C 0.45546 0.79655 0.40474
 C15 C 0.47163 0.82989 0.42141
 H16 H 0.40943 0.84234 0.49631
 H17 H 0.40995 0.75446 0.40904
 H18 H 0.49582 0.84367 0.40727
 C19 C 0.95440 0.90609 0.79569
 C20 C 0.92127 0.92285 0.77961
 C21 C 0.90450 0.95583 0.79610
 C22 C 0.92209 0.97281 0.82848
 C23 C 0.95517 0.95640 0.84547
 C24 C 0.97156 0.92354 0.82806
 H25 H 0.90725 0.90892 0.75540
 H26 H 0.90854 0.99757 0.84182
 H27 H 0.99649 0.91001 0.84107
 C28 C 0.45468 -0.09515 0.29510
 C29 C 0.47131 -0.07809 0.32794
 C30 C 0.45481 -0.04531 0.34504
 C31 C 0.42195 -0.02882 0.32808
 C32 C 0.40484 -0.04540 0.29528
 C33 C 0.42182 -0.07818 0.27864
 H34 H 0.49593 -0.09164 0.34150
 H35 H 0.40839 -0.00424 0.34172
 H36 H 0.40818 -0.09181 0.25404
 C37 C 0.79469 0.29336 0.34354
 C38 C 0.77857 0.32655 0.32671
 C39 C 0.79581 0.34425 0.29457
 C40 C 0.82890 0.32746 0.27843
 C41 C 0.84549 0.29422 0.29469
 C42 C 0.82775 0.27705 0.32683
 H43 H 0.75382 0.33997 0.34006
 H44 H 0.84301 0.34155 0.25440
 H45 H 0.84105 0.25220 0.34028
 C46 C -0.20458 0.84743 0.79605
 C47 C -0.22168 0.82949 0.82832
 C48 C -0.20540 0.79628 0.84533
 C49 C -0.17248 0.77993 0.82813
 C50 C -0.15494 0.79707 0.79586
 C51 C -0.17162 0.83032 0.77969
 H52 H -0.24659 0.84272 0.84162
 H53 H -0.15904 0.75492 0.84116
 H54 H -0.15756 0.84408 0.75542
 C55 C 0.95691 0.34221 0.45627
 C56 C 0.92462 0.32457 0.47319
 C57 C 0.90726 0.29198 0.45628
 C58 C 0.92370 0.27608 0.42284
 C59 C 0.95605 0.29315 0.40542
 C60 C 0.97283 0.32578 0.42280
 H61 H 0.91142 0.33777 0.49819
 H62 H 0.90981 0.25175 0.40895
 H63 H 0.99694 0.33986 0.40885
 C64 C 0.45386 0.45394 0.84693
 C65 C 0.42121 0.47073 0.82954
 C66 C 0.40426 0.45439 0.79649
 C67 C 0.42119 0.42154 0.77990
 C68 C 0.45392 0.40438 0.79643
 C69 C 0.47040 0.42120 0.82948
 H70 H 0.40758 0.49543 0.84290
 H71 H 0.40767 0.40811 0.75512
 H72 H 0.49502 0.40742 0.84280
 C73 C 0.79245 0.90817 0.95736
 C74 C 0.77639 0.92470 0.92398
 C75 C 0.79342 0.95702 0.90641
 C76 C 0.82606 0.97380 0.92364
 C77 C 0.84259 0.95779 0.95703
 C78 C 0.82502 0.92549 0.97412
 H79 H 0.75204 0.91084 0.91016
 H80 H 0.84013 0.99790 0.90958
 H81 H 0.83833 0.91217 0.99905
 C82 C 0.29572 0.84620 0.29442
 C83 C 0.32873 0.82910 0.27813
 C84 C 0.34532 0.79583 0.29440
 C85 C 0.32758 0.77866 0.32651
 C86 C 0.29451 0.79492 0.34320
 C87 C 0.27841 0.82816 0.32647
 H88 H 0.34294 0.84295 0.25401
 H89 H 0.34087 0.75379 0.33994
 H90 H 0.25355 0.84128 0.33995
 C91 C 0.79458 0.40627 0.45638
 C92 C 0.82719 0.42365 0.47310
 C93 C 0.84486 0.45610 0.45602
 C94 C 0.82787 0.47219 0.42272
 C95 C 0.79530 0.45522 0.40545
 C96 C 0.77852 0.42273 0.42296
 H97 H 0.84024 0.41029 0.49815
 H98 H 0.84144 0.49659 0.40866
 H99 H 0.75418 0.40882 0.40917
 C100 C 0.95662 0.84476 -0.04340
 C101 C 0.92420 0.82696 -0.02658
 C102 C 0.90693 0.79436 -0.04355
 C103 C 0.92356 0.77838 -0.07682
 C104 C 0.95605 0.79530 -0.09404
 C105 C 0.97287 0.82787 -0.07661
 H106 H 0.91072 0.83998 -0.00161
 H107 H 0.90972 0.75406 -0.09076
 H108 H 0.99727 0.84151 -0.09051
 C109 C 0.29542 0.34539 0.79466
 C110 C 0.32852 0.32863 0.77851
 C111 C 0.34509 0.29536 0.79473
 C112 C 0.32731 0.27814 0.82681
 C113 C 0.29424 0.29445 0.84350
 C114 C 0.27813 0.32764 0.82672
 H115 H 0.34267 0.34278 0.75454
 H116 H 0.34060 0.25328 0.84023
 H117 H 0.25337 0.34105 0.84008
 C118 C 0.15466 0.54563 0.54475
 C119 C 0.17242 0.52835 0.57684
 C120 C 0.20561 0.54458 0.59356
 C121 C 0.22189 0.57775 0.57680
 C122 C 0.20465 0.59553 0.54472
 C123 C 0.17140 0.57884 0.52854
 H124 H 0.15902 0.50352 0.59026
 H125 H 0.24675 0.59112 0.59017
 H126 H 0.15725 0.59300 0.50457
 C127 C 0.59444 0.70564 0.04370
 C128 C 0.57702 0.67311 0.02685
 C129 C 0.54359 0.65665 0.04282
 C130 C 0.52675 0.67414 0.07524
 C131 C 0.54369 0.70665 0.09266
 C132 C 0.57709 0.72260 0.07616
 H133 H 0.59089 0.65913 0.00265
 H134 H 0.50179 0.66090 0.08849
 H135 H 0.59100 0.74689 0.09008
 C136 C 0.70555 0.20485 0.65586
 C137 C 0.67312 0.22163 0.67321
 C138 C 0.65662 0.20555 0.70656
 C139 C 0.67388 0.17293 0.72335
 C140 C 0.70626 0.15528 0.70639
 C141 C 0.72243 0.17232 0.67320
 H142 H 0.65928 0.24595 0.65936
 H143 H 0.66049 0.15985 0.74835
 H144 H 0.74681 0.15877 0.65925
 C145 C 1.09312 0.04199 0.20574
 C146 C 1.07562 0.07434 0.22269
 C147 C 1.04332 0.09182 0.20566
 C148 C 1.02759 0.07552 0.17197
 C149 C 1.04468 0.04324 0.15416
 C150 C 1.07694 0.02621 0.17200
 H151 H 1.08867 0.08745 0.24788
 H152 H 1.00335 0.08961 0.15827
 H153 H 1.09105 0.00197 0.15829
 C154 C 0.04531 0.15511 1.04539
 C155 C 0.02835 0.17262 1.07771
 C156 C 0.04485 0.20560 1.09493
 C157 C 0.07777 0.22209 1.07774
 C158 C 0.09515 0.20505 1.04533
 C159 C 0.07830 0.17194 1.02907
 H160 H 0.00351 0.15903 1.09085
 H161 H 0.09138 0.24695 1.09095
 H162 H 0.09219 0.15796 1.00488
 C163 C 0.15651 0.70753 0.70647
 C164 C 0.17288 0.72352 0.67298
 C165 C 0.20534 0.70675 0.65561
 C166 C 0.22232 0.67435 0.67307
 C167 C 0.20647 0.65782 0.70655
 C168 C 0.17403 0.67515 0.72343
 H169 H 0.15890 0.74771 0.65902
 H170 H 0.24655 0.66049 0.65920
 H171 H 0.16086 0.66187 0.74844
 C172 C 1.20711 0.15650 0.20664
 C173 C 1.17471 0.17385 0.22355
 C174 C 1.15732 0.20634 0.20668
 C175 C 1.17379 0.22245 0.17332
 C176 C 1.20619 0.20562 0.15593
 C177 C 1.22307 0.17313 0.17329
 H178 H 1.16145 0.16049 0.24846
 H179 H 1.15987 0.24669 0.15940
 H180 H 1.24726 0.15924 0.15938
 C181 C 0.65512 1.04466 0.54352
 C182 C 0.67291 1.02749 0.57578
 C183 C 0.70553 1.04418 0.59308
 C184 C 0.72153 1.07773 0.57675
 C185 C 0.70457 1.09564 0.54444
 C186 C 0.67198 1.07811 0.52749
 H187 H 0.65995 1.00234 0.58906
 H188 H 0.74603 1.09118 0.59072
 H189 H 0.65823 1.09196 0.50308
 C190 C 0.54277 0.54224 0.15732
 C191 C 0.57558 0.52577 0.17445
 C192 C 0.59277 0.54252 0.20721
 C193 C 0.57565 0.57528 0.22380
 C194 C 0.54283 0.59229 0.20722
 C195 C 0.52618 0.57503 0.17446
 H196 H 0.58929 0.50135 0.16070
 H197 H 0.58945 0.58912 0.24820
 H198 H 0.50172 0.58868 0.16073
 C199 C 0.65695 0.70633 0.20621
 C200 C 0.67448 0.67395 0.22310
 C201 C 0.70686 0.65662 0.20611
 C202 C 0.72262 0.67313 0.17258
 C203 C 0.70562 0.70556 0.15520
 C204 C 0.67324 0.72235 0.17269
 H205 H 0.66136 0.66068 0.24814
 H206 H 0.74679 0.65927 0.15862
 H207 H 0.65926 0.74657 0.15881
 C208 C 0.15321 0.04502 1.04478
 C209 C 0.17124 0.02753 1.07675
 C210 C 0.20458 0.04355 1.09337
 C211 C 0.22090 0.07672 1.07668
 C212 C 0.20369 0.09469 1.04473
 C213 C 0.17034 0.07818 1.02852
 H214 H 0.15809 0.00260 1.09026
 H215 H 0.24589 0.08991 1.08999
 H216 H 0.15649 0.09257 1.00450
 C217 C 0.59416 0.20648 0.54405
 C218 C 0.57686 0.22344 0.57650
 C219 C 0.54330 0.20763 0.59281
 C220 C 0.52620 0.17530 0.57523
 C221 C 0.54307 0.15781 0.54285
 C222 C 0.57655 0.17418 0.52699
 H223 H 0.59094 0.24753 0.59060
 H224 H 0.50117 0.16210 0.58838
 H225 H 0.59040 0.16020 0.50277
 C226 C 0.09291 0.54410 0.70663
 C227 C 0.07544 0.57655 0.72346
 C228 C 0.04292 0.59382 0.70653
 C229 C 0.02697 0.57718 0.67311
 C230 C 0.04389 0.54469 0.65577
 C231 C 0.07641 0.52798 0.67321
 H232 H 0.08870 0.58991 0.74842
 H233 H 0.00270 0.59099 0.65919
 H234 H 0.09034 0.50374 0.65935
 C235 C 0.65668 0.54360 0.04273
 C236 C 0.67319 0.57708 0.02679
 C237 C 0.70573 0.59443 0.04367
 C238 C 0.72260 0.57694 0.07615
 C239 C 0.70661 0.54343 0.09260
 C240 C 0.67412 0.52660 0.07515
 H241 H 0.65925 0.59104 0.00257
 H242 H 0.74688 0.59082 0.09008
 H243 H 0.66087 0.50157 0.08837
 C244 C 0.04397 0.70650 0.59358
 C245 C 0.02775 0.67318 0.57696
 C246 C 0.04497 0.65525 0.54499
 C247 C 0.07819 0.67191 0.52879
 C248 C 0.09492 0.70523 0.54483
 C249 C 0.07716 0.72265 0.57683
 H250 H 0.00291 0.65986 0.59034
 H251 H 0.09232 0.65766 0.50489
 H252 H 0.09052 0.74759 0.59013
 C253 C 0.54297 1.04280 0.65577
 C254 C 0.57541 1.02594 0.67347
 C255 C 0.59222 1.04236 0.70657
 C256 C 0.57499 1.07502 0.72324
 C257 C 0.54244 1.09228 0.70644
 C258 C 0.52615 1.07541 0.67330
 H259 H 0.58933 1.00147 0.65998
 H260 H 0.58850 1.08858 0.74794
 H261 H 0.50177 1.08936 0.65969
 C262 C 0.45489 0.34586 0.95485
 C263 C 0.47139 0.32869 0.92191
 C264 C 0.45541 0.29525 0.90532
 C265 C 0.42340 0.27788 0.92302
 C266 C 0.40652 0.29418 0.95601
 C267 C 0.42293 0.32768 0.97209
 H268 H 0.49543 0.34263 0.90768
 H269 H 0.41019 0.25285 0.90974
 H270 H 0.40930 0.34087 0.99688
 C271 C 0.95610 0.45504 0.34314
 C272 C 0.92306 0.47134 0.32630
 C273 C 0.90531 0.45411 0.29418
 C274 C 0.92193 0.42090 0.27797
 C275 C 0.95503 0.40416 0.29423
 C276 C 0.97226 0.42188 0.32640
 H277 H 0.90975 0.49620 0.33968
 H278 H 0.90780 0.40676 0.25394
 H279 H 0.99700 0.40848 0.33988
 C280 C 0.29558 0.95551 0.40328
 C281 C 0.27810 0.92374 0.42166
 C282 C 0.29413 0.90740 0.45515
 C283 C 0.32727 0.92420 0.47130
 C284 C 0.34523 0.95600 0.45375
 C285 C 0.32873 0.97191 0.42026
 H286 H 0.25316 0.91016 0.40861
 H287 H 0.34048 0.91104 0.49636
 H288 H 0.34314 0.99580 0.40617
 O289 O 0.24726 0.60311 0.70121
 O290 O 0.31516 0.58926 0.70467
 O291 O 0.20081 0.50302 0.64788
 O292 O 0.20206 0.43868 0.65824
 O293 O 0.14759 0.54977 0.74776
 O294 O 0.16175 0.54591 0.81590
 O295 O 0.30015 0.39984 0.75330
 O296 O 0.29318 0.41087 0.68607
 O297 O 0.35061 0.49681 0.80037
 O298 O 0.33698 0.56793 0.79601
 O299 O 0.25403 0.45071 0.85104
 O300 O 0.18386 0.45373 0.83771
 O301 O 0.25413 0.39974 0.79976
 O302 O 0.18349 0.41317 0.79595
 O303 O 0.29995 0.49741 0.85118
 O304 O 0.29639 0.56752 0.83767
 O305 O 0.35050 0.45027 0.75426
 O306 O 0.33816 0.45616 0.68406
 O307 O 0.20099 0.60312 0.74757
 O308 O 0.20501 0.58912 0.81594
 O309 O 0.14766 0.50355 0.70122
 O310 O 0.16203 0.43442 0.70808
 O311 O 0.24681 0.54982 0.64800
 O312 O 0.31506 0.54587 0.66173
 Zr313 Zr 0.27096 0.54727 0.70366
 O314 O 0.30813 0.51351 0.73766
 Zr315 Zr 0.20319 0.47938 0.70373
 O316 O 0.23758 0.44232 0.73741
 Zr317 Zr 0.20343 0.54731 0.77157
 O318 O 0.23747 0.51325 0.80854
 Zr319 Zr 0.29600 0.45484 0.72829
 O320 O 0.26178 0.48855 0.69065
 Zr321 Zr 0.29594 0.52266 0.79622
 O322 O 0.26195 0.56030 0.76230
 Zr323 Zr 0.22840 0.45456 0.79610
 O324 O 0.19056 0.48864 0.76240
 O325 O 0.21284 0.53764 0.71336
 O326 O 0.28678 0.46404 0.78688
 C327 C 0.21973 0.61934 0.71995
 C328 C 0.21928 0.53093 0.63178
 C329 C 0.13140 0.53102 0.72006
 C330 C 0.28203 0.38384 0.78137
 C331 C 0.36635 0.46846 0.78242
 C332 C 0.28195 0.46916 0.86704
 H333 H 0.33514 0.51998 0.73157
 H334 H 0.23127 0.51941 0.83565
 H335 H 0.19641 0.55411 0.69691
 H336 H 0.23181 0.41511 0.73106
 H337 H 0.28071 0.42232 0.66306
 H338 H 0.21638 0.41564 0.66700
 H339 H 0.27328 0.56444 0.85402
 H340 H 0.23034 0.60211 0.81402
 H341 H 0.35529 0.47853 0.68855
 H342 H 0.31333 0.52034 0.64905
 H343 H 0.18681 0.47693 0.85407
 H344 H 0.14920 0.52027 0.81439
 H345 H 0.31406 0.60160 0.73040
 H346 H 0.35473 0.56356 0.77418
 H347 H 0.14767 0.43866 0.73236
 H348 H 0.18738 0.39604 0.77349
 O349 O 0.14775 0.04783 0.24688
 O350 O 0.16167 0.04426 0.31509
 O351 O 0.24779 0.10179 0.20114
 O352 O 0.31166 0.09133 0.20121
 O353 O 0.20026 0.00159 0.14752
 O354 O 0.20499 -0.06673 0.16143
 O355 O 0.35082 -0.00376 0.29992
 O356 O 0.33981 0.06385 0.29253
 O357 O 0.25438 -0.05014 0.35089
 O358 O 0.18398 -0.04754 0.33727
 O359 O 0.30062 -0.10127 0.25340
 O360 O 0.29674 -0.08802 0.18323
 O361 O 0.35089 -0.04997 0.25347
 O362 O 0.33704 -0.04582 0.18269
 O363 O 0.25457 -0.10158 0.29968
 O364 O 0.18407 -0.08852 0.29623
 O365 O 0.30077 -0.00399 0.35051
 O366 O 0.29526 0.06568 0.33807
 O367 O 0.14768 0.00110 0.20082
 O368 O 0.16196 -0.06707 0.20491
 O369 O 0.24613 0.04848 0.14755
 O370 O 0.31547 0.04144 0.16142
 O371 O 0.20108 0.10145 0.24705
 O372 O 0.20471 0.08744 0.31527
 Zr373 Zr 0.20352 0.04562 0.27090
 O374 O 0.23760 0.01183 0.30799
 Zr375 Zr 0.27098 0.04582 0.20291
 O376 O 0.30828 0.01236 0.23721
 Zr377 Zr 0.20344 -0.02240 0.20327
 O378 O 0.23774 -0.05919 0.23724
 Zr379 Zr 0.29605 0.02146 0.29575
 O380 O 0.26205 0.05890 0.26164
 Zr381 Zr 0.22872 -0.04686 0.29587
 O382 O 0.19079 -0.01316 0.26195
 Zr383 Zr 0.29613 -0.04638 0.22790
 O384 O 0.26181 -0.01288 0.19014
 O385 O 0.21293 0.03594 0.21270
 O386 O 0.28707 -0.03722 0.28649
 C387 C 0.13151 0.02882 0.21936
 C388 C 0.22011 0.11788 0.21976
 C389 C 0.21854 0.02962 0.13140
 C390 C 0.36671 -0.03178 0.28165
 C391 C 0.28264 -0.03197 0.36675
 C392 C 0.28271 -0.11742 0.28156
 H393 H 0.23125 0.01796 0.33507
 H394 H 0.23167 -0.08636 0.23105
 H395 H 0.19639 0.05249 0.19644
 H396 H 0.33538 0.01883 0.23138
 H397 H 0.32817 0.08684 0.28023
 H398 H 0.33462 0.08282 0.21578
 H399 H 0.18758 -0.10541 0.27351
 H400 H 0.14932 -0.06538 0.23042
 H401 H 0.27237 0.06188 0.35456
 H402 H 0.23016 0.10025 0.31371
 H403 H 0.27366 -0.10449 0.18625
 H404 H 0.23031 -0.06469 0.14849
 H405 H 0.14924 0.01857 0.31366
 H406 H 0.18707 -0.02450 0.35382
 H407 H 0.31082 0.01739 0.14671
 H408 H 0.35426 -0.02342 0.18676
 O409 O 0.50258 0.64743 0.20109
 O410 O 0.43481 0.66148 0.20428
 O411 O 0.54897 0.74771 0.14730
 O412 O 0.54815 0.81183 0.15763
 O413 O 0.60242 0.70076 0.24736
 O414 O 0.58853 0.70482 0.31552
 O415 O 0.45011 0.85081 0.25321
 O416 O 0.45745 0.84000 0.18555
 O417 O 0.39950 0.75412 0.29945
 O418 O 0.41295 0.68361 0.29657
 O419 O 0.49710 0.80065 0.35046
 O420 O 0.56703 0.79699 0.33692
 O421 O 0.49659 0.85103 0.29934
 O422 O 0.56731 0.83748 0.29485
 O423 O 0.45057 0.75457 0.35063
 O424 O 0.45432 0.68366 0.33738
 O425 O 0.39959 0.80036 0.25304
 O426 O 0.41194 0.79518 0.18357
 O427 O 0.54881 0.64745 0.24761
 O428 O 0.54520 0.66177 0.31574
 O429 O 0.60230 0.74691 0.20075
 O430 O 0.58816 0.81609 0.20752
 O431 O 0.50307 0.70082 0.14752
 O432 O 0.43480 0.70479 0.16137
 Zr433 Zr 0.47906 0.70341 0.20325
 O434 O 0.44214 0.73737 0.23724
 Zr435 Zr 0.54690 0.77121 0.20319
 O436 O 0.51276 0.80846 0.23679
 Zr437 Zr 0.54669 0.70341 0.27121
 O438 O 0.51292 0.73770 0.30814
 Zr439 Zr 0.45430 0.79601 0.22772
 O440 O 0.48826 0.76211 0.19013
 Zr441 Zr 0.45436 0.72851 0.29591
 O442 O 0.48809 0.69064 0.26199
 Zr443 Zr 0.52222 0.79628 0.29547
 O444 O 0.55976 0.76198 0.26184
 O445 O 0.53721 0.71293 0.21294
 O446 O 0.46372 0.78702 0.28634
 C447 C 0.52996 0.63111 0.22007
 C448 C 0.53042 0.71986 0.13118
 C449 C 0.61856 0.71945 0.21963
 C450 C 0.46838 0.86677 0.28127
 C451 C 0.38363 0.78218 0.28109
 C452 C 0.46894 0.78267 0.36646
 H453 H 0.41510 0.73091 0.23113
 H454 H 0.51919 0.73163 0.33527
 H455 H 0.55350 0.69635 0.19649
 H456 H 0.51853 0.83566 0.23039
 H457 H 0.46955 0.82839 0.16245
 H458 H 0.53388 0.83492 0.16630
 H459 H 0.47670 0.68764 0.35460
 H460 H 0.51962 0.64921 0.31423
 H461 H 0.39592 0.77182 0.18691
 H462 H 0.43678 0.73013 0.14832
 H463 H 0.56404 0.77389 0.35340
 H464 H 0.60128 0.73034 0.31382
 H465 H 0.43585 0.64928 0.23008
 H466 H 0.39629 0.68674 0.27363
 H467 H 0.60269 0.81177 0.23171
 H468 H 0.56294 0.85497 0.27274
 O469 O 0.00208 0.64858 0.70113
 O470 O -0.06587 0.66268 0.70464
 O471 O 0.04868 0.74842 0.64771
 O472 O 0.04697 0.81289 0.65789
 O473 O 0.10195 0.70188 0.74754
 O474 O 0.08805 0.70569 0.81572
 O475 O -0.05033 0.85193 0.75383
 O476 O -0.04334 0.84112 0.68624
 O477 O -0.10083 0.75512 0.80032
 O478 O -0.08751 0.68429 0.79636
 O479 O -0.00318 0.80075 0.85116
 O480 O 0.06681 0.79765 0.83706
 O481 O -0.00401 0.85189 0.80012
 O482 O 0.06644 0.83867 0.79573
 O483 O -0.04942 0.75437 0.85127
 O484 O -0.04641 0.68414 0.83740
 O485 O -0.10094 0.80144 0.75399
 O486 O -0.08880 0.79632 0.68431
 O487 O 0.04854 0.64857 0.74743
 O488 O 0.04481 0.66251 0.81571
 O489 O 0.10181 0.74816 0.70104
 O490 O 0.08755 0.81720 0.70769
 O491 O 0.00259 0.70171 0.64789
 O492 O -0.06568 0.70605 0.66154
 Zr493 Zr -0.02153 0.70450 0.70353
 O494 O -0.05845 0.73838 0.73763
 Zr495 Zr 0.04630 0.77230 0.70350
 O496 O 0.01218 0.80944 0.73732
 Zr497 Zr 0.04623 0.70437 0.77138
 O498 O 0.01245 0.73847 0.80841
 Zr499 Zr -0.04632 0.79707 0.72835
 O500 O -0.01239 0.76326 0.69057
 Zr501 Zr -0.04612 0.72923 0.79620
 O502 O -0.01236 0.69151 0.76219
 Zr503 Zr 0.02167 0.79712 0.79597
 O504 O 0.05921 0.76299 0.76214
 O505 O 0.03662 0.71406 0.71320
 O506 O -0.03685 0.78784 0.78694
 C507 C 0.02969 0.63233 0.71985
 C508 C 0.03020 0.72044 0.63167
 C509 C 0.11809 0.72065 0.71986
 C510 C -0.03209 0.86782 0.78196
 C511 C -0.11676 0.78328 0.78215
 C512 C -0.03098 0.78230 0.86726
 H513 H -0.08550 0.73196 0.73155
 H514 H 0.01881 0.73223 0.83548
 H515 H 0.05299 0.69753 0.69679
 H516 H 0.01794 0.83666 0.73099
 H517 H -0.03123 0.82958 0.66311
 H518 H 0.03315 0.83614 0.66686
 H519 H -0.02331 0.68722 0.85384
 H520 H 0.01944 0.64956 0.81383
 H521 H -0.10491 0.77303 0.68773
 H522 H -0.06373 0.73149 0.64868
 H523 H 0.06382 0.77456 0.85357
 H524 H 0.10093 0.73113 0.81397
 H525 H -0.06463 0.65028 0.73034
 H526 H -0.10478 0.68817 0.77399
 H527 H 0.10184 0.81313 0.73207
 H528 H 0.06243 0.85578 0.77325
 O529 O -0.00361 -0.04903 -0.10223
 O530 O 0.06465 -0.04514 -0.08872
 O531 O -0.04906 -0.10259 -0.00254
 O532 O -0.04783 -0.09247 0.06174
 O533 O -0.10251 -0.00170 -0.04853
 O534 O -0.08796 0.06609 -0.04504
 O535 O 0.05046 0.00296 0.10109
 O536 O 0.04373 -0.06441 0.08978
 O537 O 0.10072 0.05014 0.00384
 O538 O 0.08715 0.04658 -0.06652
 O539 O 0.00408 0.10054 0.05050
 O540 O -0.06625 0.08691 0.04727
 O541 O 0.00423 0.04908 0.10137
 O542 O -0.06610 0.04541 0.08798
 O543 O 0.04975 0.10096 0.00374
 O544 O 0.04567 0.08724 -0.06676
 O545 O 0.10094 0.00381 0.05004
 O546 O 0.08857 -0.06611 0.04484
 O547 O -0.04983 -0.00273 -0.10195
 O548 O -0.04475 0.06583 -0.08815
 O549 O -0.10236 -0.04870 -0.00277
 O550 O -0.08756 -0.04269 0.06639
 O551 O -0.00320 -0.10226 -0.04919
 O552 O 0.06495 -0.08835 -0.04551
 Zr553 Zr 0.02076 -0.04651 -0.04658
 O554 O 0.05803 -0.01257 -0.01272
 Zr555 Zr -0.04666 -0.04673 0.02133
 O556 O -0.01214 -0.01314 0.05850
 Zr557 Zr -0.04656 0.02148 -0.04632
 O558 O -0.01254 0.05834 -0.01210
 Zr559 Zr 0.04627 -0.02203 0.04596
 O560 O 0.01193 -0.05966 0.01213
 Zr561 Zr 0.04586 0.04605 -0.02166
 O562 O 0.01183 0.01219 -0.05943
 Zr563 Zr -0.02143 0.04559 0.04649
 O564 O -0.05930 0.01200 0.01227
 O565 O -0.03729 -0.03683 -0.03683
 O566 O 0.03698 0.03660 0.03698
 C567 C -0.03154 -0.03058 -0.11830
 C568 C -0.03072 -0.11871 -0.03052
 C569 C -0.11872 -0.02941 -0.02994
 C570 C 0.03225 0.03086 0.11737
 C571 C 0.11683 0.03205 0.03194
 C572 C 0.03180 0.11670 0.03200
 H573 H 0.08502 -0.01864 -0.01924
 H574 H -0.01880 0.08547 -0.01816
 H575 H -0.05390 -0.05329 -0.05318
 H576 H -0.01781 -0.01963 0.08567
 H577 H 0.03116 -0.08738 0.07831
 H578 H -0.03311 -0.08398 0.08467
 H579 H 0.02300 0.10408 -0.06314
 H580 H -0.01973 0.06335 -0.10156
 H581 H 0.10490 -0.06227 0.02182
 H582 H 0.06345 -0.10111 -0.02001
 H583 H -0.06288 0.10394 0.02464
 H584 H -0.10028 0.06485 -0.01934
 H585 H 0.06309 -0.01953 -0.10126
 H586 H 0.10373 0.02362 -0.06337
 H587 H -0.10191 -0.01836 0.06237
 H588 H -0.06244 0.02259 0.10472
 O589 O -0.04900 0.39712 0.49707
 O590 O -0.04576 0.41126 0.56528
 O591 O -0.10248 0.49686 0.45045
 O592 O -0.09232 0.56122 0.45190
 O593 O -0.00261 0.45019 0.39763
 O594 O 0.06539 0.45459 0.41170
 O595 O 0.00344 0.60076 0.55010
 O596 O -0.06418 0.58979 0.54269
 O597 O 0.04916 0.50355 0.60110
 O598 O 0.04647 0.43355 0.58765
 O599 O 0.10029 0.55017 0.50332
 O600 O 0.08650 0.54647 0.43305
 O601 O 0.04936 0.60090 0.50355
 O602 O 0.04509 0.58731 0.43307
 O603 O 0.10036 0.50412 0.54990
 O604 O 0.08671 0.43313 0.54591
 O605 O 0.00304 0.54990 0.60096
 O606 O -0.06611 0.54530 0.58834
 O607 O -0.00246 0.39717 0.45100
 O608 O 0.06559 0.41155 0.45519
 O609 O -0.04913 0.49627 0.39750
 O610 O -0.04252 0.56554 0.41167
 O611 O -0.10242 0.45037 0.49664
 O612 O -0.08873 0.45436 0.56503
 Zr613 Zr -0.04681 0.45308 0.52091
 O614 O -0.01287 0.48715 0.55802
 Zr615 Zr -0.04678 0.52076 0.45303
 O616 O -0.01318 0.55811 0.48735
 Zr617 Zr 0.02114 0.45310 0.45347
 O618 O 0.05798 0.48745 0.48742
 Zr619 Zr -0.02214 0.54583 0.54594
 O620 O -0.05977 0.51180 0.51178
 Zr621 Zr 0.04566 0.47823 0.54600
 O622 O 0.01179 0.44030 0.51210
 Zr623 Zr 0.04538 0.54600 0.47806
 O624 O 0.01177 0.51163 0.44034
 O625 O -0.03703 0.46256 0.46276
 O626 O 0.03635 0.53681 0.53669
 C627 C -0.03006 0.38086 0.46962
 C628 C -0.11870 0.46895 0.46888
 C629 C -0.03033 0.46870 0.38138
 C630 C 0.03134 0.61679 0.53171
 C631 C 0.03085 0.53151 0.61707
 C632 C 0.11626 0.53209 0.53146
 H633 H -0.01901 0.48070 0.58507
 H634 H 0.08504 0.48135 0.48120
 H635 H -0.05342 0.44594 0.44636
 H636 H -0.01954 0.58529 0.48154
 H637 H -0.08722 0.57817 0.53043
 H638 H -0.08352 0.58447 0.46594
 H639 H 0.10419 0.43732 0.52380
 H640 H 0.06377 0.39873 0.48063
 H641 H -0.06341 0.52149 0.60381
 H642 H -0.10166 0.47973 0.56310
 H643 H 0.10320 0.52362 0.43633
 H644 H 0.06356 0.48000 0.39879
 H645 H -0.02023 0.39867 0.56391
 H646 H 0.02299 0.43600 0.60354
 H647 H -0.01832 0.56130 0.39725
 H648 H 0.02255 0.60428 0.43689
 O649 O 0.60230 0.05024 0.50307
 O650 O 0.58893 0.04599 0.43502
 O651 O 0.50232 0.10292 0.54862
 O652 O 0.43838 0.09213 0.54817
 O653 O 0.54930 0.00277 0.60257
 O654 O 0.54597 -0.06514 0.58844
 O655 O 0.39969 -0.00269 0.44918
 O656 O 0.41067 0.06441 0.45616
 O657 O 0.49686 -0.04945 0.39899
 O658 O 0.56726 -0.04586 0.41300
 O659 O 0.45019 -0.10053 0.49574
 O660 O 0.45310 -0.08748 0.56581
 O661 O 0.39948 -0.04913 0.49539
 O662 O 0.41324 -0.04522 0.56654
 O663 O 0.49641 -0.10047 0.44963
 O664 O 0.56687 -0.08710 0.45420
 O665 O 0.45023 -0.00361 0.39906
 O666 O 0.45603 0.06669 0.41148
 O667 O 0.60259 0.00361 0.54912
 O668 O 0.58867 -0.06509 0.54495
 O669 O 0.50334 0.04928 0.60239
 O670 O 0.43427 0.04224 0.58779
 O671 O 0.54881 0.10290 0.50250
 O672 O 0.54540 0.08861 0.43427
 Zr673 Zr 0.54676 0.04706 0.47890
 O674 O 0.51309 0.01294 0.44168
 Zr675 Zr 0.47909 0.04682 0.54669
 O676 O 0.44207 0.01314 0.51212
 Zr677 Zr 0.54694 -0.02080 0.54658
 O678 O 0.51279 -0.05792 0.51258
 Zr679 Zr 0.45459 0.02231 0.45363
 O680 O 0.48819 0.05997 0.48799
 Zr681 Zr 0.52216 -0.04565 0.45402
 O682 O 0.55980 -0.01156 0.48799
 Zr683 Zr 0.45423 -0.04557 0.52140
 O684 O 0.48840 -0.01187 0.55934
 O685 O 0.53722 0.03742 0.53716
 O686 O 0.46368 -0.03632 0.46294
 C687 C 0.61870 0.03165 0.53073
 C688 C 0.52988 0.11919 0.52986
 C689 C 0.53075 0.03047 0.61889
 C690 C 0.38365 -0.03074 0.46733
 C691 C 0.46859 -0.03152 0.38316
 C692 C 0.46819 -0.11651 0.46754
 H693 H 0.51957 0.01907 0.41463
 H694 H 0.51887 -0.08505 0.51884
 H695 H 0.55353 0.05405 0.55364
 H696 H 0.41494 0.01948 0.51781
 H697 H 0.42199 0.08740 0.46883
 H698 H 0.41563 0.08362 0.53322
 H699 H 0.56307 -0.10408 0.47681
 H700 H 0.60162 -0.06301 0.51962
 H701 H 0.47809 0.06201 0.39413
 H702 H 0.51999 0.10139 0.43586
 H703 H 0.47652 -0.10346 0.56330
 H704 H 0.52020 -0.06420 0.60057
 H705 H 0.60145 0.02039 0.43654
 H706 H 0.56391 -0.02311 0.39611
 H707 H 0.43866 0.01807 0.60235
 H708 H 0.39574 -0.02316 0.56218
 O709 O 0.50275 0.60181 0.04863
 O710 O 0.43466 0.58788 0.04516
 O711 O 0.54845 0.50158 0.10227
 O712 O 0.54783 0.43743 0.09159
 O713 O 0.60197 0.54880 0.00183
 O714 O 0.58783 0.54478 -0.06610
 O715 O 0.44939 0.39844 -0.00415
 O716 O 0.45626 0.40924 0.06342
 O717 O 0.39883 0.49603 -0.05025
 O718 O 0.41257 0.56623 -0.04686
 O719 O 0.49542 0.44916 -0.10100
 O720 O 0.56612 0.45317 -0.08748
 O721 O 0.49569 0.39846 -0.05021
 O722 O 0.56591 0.41187 -0.04627
 O723 O 0.44940 0.49547 -0.10105
 O724 O 0.45411 0.56642 -0.08756
 O725 O 0.39878 0.44942 -0.00432
 O726 O 0.41127 0.45403 0.06550
 O727 O 0.54876 0.60188 0.00203
 O728 O 0.54455 0.58780 -0.06621
 O729 O 0.60193 0.50279 0.04858
 O730 O 0.58756 0.43344 0.04183
 O731 O 0.50259 0.54833 0.10210
 O732 O 0.43459 0.54463 0.08812
 Zr733 Zr 0.47876 0.54595 0.04627
 O734 O 0.44161 0.51209 0.01220
 Zr735 Zr 0.54641 0.47824 0.04620
 O736 O 0.51199 0.44107 0.01245
 Zr737 Zr 0.54617 0.54608 -0.02175
 O738 O 0.51218 0.51195 -0.05878
 Zr739 Zr 0.45354 0.45338 0.02138
 O740 O 0.48776 0.48718 0.05914
 Zr741 Zr 0.45378 0.52130 -0.04637
 O742 O 0.48772 0.55900 -0.01238
 Zr743 Zr 0.52125 0.45335 -0.04622
 O744 O 0.55905 0.48750 -0.01246
 O745 O 0.53685 0.53647 0.03656
 O746 O 0.46283 0.46267 -0.03713
 C747 C 0.53019 0.61810 0.02970
 C748 C 0.52984 0.52927 0.11850
 C749 C 0.61818 0.53024 0.02956
 C750 C 0.46755 0.38240 -0.03223
 C751 C 0.38278 0.46780 -0.03231
 C752 C 0.46720 0.46715 -0.11694
 H753 H 0.41462 0.51853 0.01831
 H754 H 0.51836 0.51809 -0.08590
 H755 H 0.55325 0.55295 0.05312
 H756 H 0.51770 0.41386 0.01877
 H757 H 0.46884 0.42059 0.08644
 H758 H 0.53315 0.41452 0.08297
 H759 H 0.47602 0.56207 -0.10520
 H760 H 0.51919 0.60064 -0.06437
 H761 H 0.39506 0.47719 0.06198
 H762 H 0.43607 0.51902 0.10070
 H763 H 0.56221 0.47546 -0.10485
 H764 H 0.60023 0.51912 -0.06471
 H765 H 0.43611 0.60054 0.01961
 H766 H 0.39613 0.56318 -0.02379
 H767 H 0.60197 0.43779 0.01759
 H768 H 0.56241 0.39518 -0.02341
 O769 O 0.75344 0.29849 0.39791
 O770 O 0.68525 0.29489 0.41166
 O771 O 0.79978 0.35158 0.49770
 O772 O 0.79854 0.34106 0.56212
 O773 O 0.85248 0.25102 0.45102
 O774 O 0.83784 0.18296 0.45489
 O775 O 0.70028 0.24596 0.60113
 O776 O 0.70793 0.31349 0.59018
 O777 O 0.64885 0.20059 0.50338
 O778 O 0.66302 0.20347 0.43301
 O779 O 0.74566 0.14823 0.55004
 O780 O 0.81626 0.16165 0.54646
 O781 O 0.74640 0.19962 0.60121
 O782 O 0.81638 0.20259 0.58767
 O783 O 0.69941 0.14853 0.50384
 O784 O 0.70325 0.16183 0.43363
 O785 O 0.64933 0.24659 0.55003
 O786 O 0.66238 0.31566 0.54575
 O787 O 0.79932 0.25176 0.39784
 O788 O 0.79453 0.18338 0.41161
 O789 O 0.85273 0.29775 0.49706
 O790 O 0.83865 0.29116 0.56607
 O791 O 0.75365 0.35158 0.45108
 O792 O 0.68551 0.33804 0.45490
 Zr793 Zr 0.72945 0.29594 0.45362
 O794 O 0.69225 0.26214 0.48751
 Zr795 Zr 0.79725 0.29560 0.52138
 O796 O 0.76283 0.26192 0.55848
 Zr797 Zr 0.79651 0.22763 0.45353
 O798 O 0.76232 0.19077 0.48759
 Zr799 Zr 0.70443 0.27134 0.54619
 O800 O 0.73869 0.30890 0.51234
 Zr801 Zr 0.70393 0.20344 0.47834
 O802 O 0.73805 0.23721 0.44062
 Zr803 Zr 0.77158 0.20313 0.54621
 O804 O 0.80950 0.23680 0.51214
 O805 O 0.78750 0.28595 0.46320
 O806 O 0.71315 0.21260 0.53700
 C807 C 0.78094 0.27967 0.38172
 C808 C 0.78121 0.36781 0.46991
 C809 C 0.86883 0.27873 0.46961
 C810 C 0.71858 0.21801 0.61720
 C811 C 0.63301 0.21904 0.53133
 C812 C 0.71747 0.13229 0.53188
 H813 H 0.66531 0.26850 0.48101
 H814 H 0.76834 0.16361 0.48142
 H815 H 0.80400 0.30240 0.44679
 H816 H 0.76871 0.26821 0.58567
 H817 H 0.72032 0.33651 0.57863
 H818 H 0.78462 0.33215 0.58535
 H819 H 0.72616 0.14524 0.43682
 H820 H 0.76915 0.18545 0.39876
 H821 H 0.64693 0.31311 0.52192
 H822 H 0.68747 0.35103 0.48026
 H823 H 0.81249 0.14459 0.52389
 H824 H 0.85051 0.18445 0.48044
 H825 H 0.68692 0.26951 0.39868
 H826 H 0.64655 0.22649 0.43617
 H827 H 0.85267 0.26665 0.56196
 H828 H 0.81347 0.22578 0.60403
 O829 O 0.75330 0.80083 -0.10236
 O830 O 0.68502 0.79574 -0.08919
 O831 O 0.79826 0.85328 -0.00194
 O832 O 0.79774 0.84236 0.06213
 O833 O 0.85233 0.75328 -0.04920
 O834 O 0.83807 0.68519 -0.04633
 O835 O 0.69998 0.74655 0.10048
 O836 O 0.70672 0.81409 0.08964
 O837 O 0.64908 0.70057 0.00264
 O838 O 0.66297 0.70395 -0.06759
 O839 O 0.74664 0.64929 0.04912
 O840 O 0.81654 0.66312 0.04602
 O841 O 0.74640 0.70050 0.10044
 O842 O 0.81684 0.70470 0.08665
 O843 O 0.70049 0.64922 0.00270
 O844 O 0.70408 0.66311 -0.06757
 O845 O 0.64914 0.74641 0.04944
 O846 O 0.66139 0.81589 0.04507
 O847 O 0.79951 0.75454 -0.10262
 O848 O 0.79474 0.68576 -0.08953
 O849 O 0.85205 0.79995 -0.00310
 O850 O 0.83777 0.79271 0.06598
 O851 O 0.75217 0.85318 -0.04860
 O852 O 0.68421 0.83857 -0.04554
 Zr853 Zr 0.72883 0.79720 -0.04683
 O854 O 0.69188 0.76288 -0.01315
 Zr855 Zr 0.79653 0.79712 0.02114
 O856 O 0.76232 0.76307 0.05803
 Zr857 Zr 0.79648 0.72964 -0.04720
 O858 O 0.76269 0.69231 -0.01323
 Zr859 Zr 0.70387 0.77196 0.04558
 O860 O 0.73787 0.80993 0.01198
 Zr861 Zr 0.70414 0.70433 -0.02250
 O862 O 0.73794 0.73863 -0.06011
 Zr863 Zr 0.77176 0.70448 0.04549
 O864 O 0.80938 0.73854 0.01149
 O865 O 0.78696 0.78779 -0.03713
 O866 O 0.71323 0.71336 0.03620
 C867 C 0.78125 0.78266 -0.11864
 C868 C 0.77948 0.86952 -0.02954
 C869 C 0.86842 0.78104 -0.03047
 C870 C 0.71847 0.71870 0.11648
 C871 C 0.63310 0.71870 0.03074
 C872 C 0.71881 0.63319 0.03065
 H873 H 0.66487 0.76897 -0.01964
 H874 H 0.76903 0.66526 -0.01953
 H875 H 0.80340 0.80458 -0.05326
 H876 H 0.76809 0.76934 0.08524
 H877 H 0.71904 0.83721 0.07820
 H878 H 0.78332 0.83349 0.08506
 H879 H 0.72724 0.64684 -0.06450
 H880 H 0.76955 0.68810 -0.10269
 H881 H 0.64544 0.81269 0.02165
 H882 H 0.68574 0.85130 -0.02002
 H883 H 0.81364 0.64682 0.02278
 H884 H 0.85062 0.68640 -0.02070
 H885 H 0.68713 0.77044 -0.10226
 H886 H 0.64674 0.72718 -0.06473
 H887 H 0.85230 0.76857 0.06152
 H888 H 0.81294 0.72712 0.10386
 O889 O 1.10247 0.20020 0.24718
 O890 O 1.08839 0.20324 0.31520
 O891 O 1.00238 0.14648 0.20059
 O892 O 0.93848 0.15702 0.20089
 O893 O 1.05012 0.24653 0.14748
 O894 O 1.04563 0.31466 0.16119
 O895 O 0.89966 0.25262 0.29978
 O896 O 0.91021 0.18503 0.29256
 O897 O 0.99692 0.29853 0.35072
 O898 O 1.06663 0.29594 0.33727
 O899 O 0.95040 0.34977 0.25277
 O900 O 0.95371 0.33620 0.18279
 O901 O 0.89961 0.29865 0.25315
 O902 O 0.91326 0.29423 0.18245
 O903 O 0.99629 0.34981 0.29946
 O904 O 1.06715 0.33620 0.29541
 O905 O 0.95048 0.25233 0.35060
 O906 O 0.95492 0.18276 0.33785
 O907 O 1.10268 0.24696 0.20115
 O908 O 1.08838 0.31519 0.20491
 O909 O 1.00400 0.20000 0.14729
 O910 O 0.93457 0.20703 0.16123
 O911 O 1.04914 0.14661 0.24658
 O912 O 1.04508 0.16034 0.31497
 Zr913 Zr 1.04665 0.20234 0.27078
 O914 O 1.01288 0.23639 0.30778
 Zr915 Zr 0.97920 0.20248 0.20267
 O916 O 0.94207 0.23605 0.23700
 Zr917 Zr 1.04694 0.27047 0.20320
 O918 O 1.01280 0.30738 0.23702
 Zr919 Zr 0.95433 0.22706 0.29561
 O920 O 0.98804 0.18939 0.26146
 Zr921 Zr 1.02201 0.29505 0.29562
 O922 O 1.05968 0.26107 0.26186
 Zr923 Zr 0.95434 0.29474 0.22763
 O924 O 0.98853 0.26115 0.18994
 O925 O 1.03729 0.21216 0.21257
 O926 O 0.96353 0.28568 0.28628
 C927 C 1.11881 0.21929 0.21985
 C928 C 1.03014 0.13031 0.21913
 C929 C 1.03180 0.21860 0.13117
 C930 C 0.88375 0.28059 0.28135
 C931 C 0.96899 0.28017 0.36670
 C932 C 0.96845 0.36574 0.28095
 H933 H 1.01932 0.23023 0.33485
 H934 H 1.01897 0.33451 0.23077
 H935 H 1.05385 0.19566 0.19631
 H936 H 0.91493 0.22966 0.23118
 H937 H 0.92152 0.16203 0.28001
 H938 H 0.91561 0.16552 0.21554
 H939 H 1.06282 0.35391 0.27346
 H940 H 1.10122 0.31339 0.23035
 H941 H 0.97831 0.18592 0.35383
 H942 H 1.01975 0.14734 0.31292
 H943 H 0.97702 0.35239 0.18556
 H944 H 1.02028 0.31277 0.14824
 H945 H 1.10096 0.22887 0.31396
 H946 H 1.06418 0.27238 0.35318
 H947 H 0.93931 0.23101 0.14645
 H948 H 0.89600 0.27187 0.18654
 O949 O 0.64713 1.04863 0.74715
 O950 O 0.66109 1.04563 0.81522
 O951 O 0.74688 1.10263 0.70091
 O952 O 0.81112 1.09257 0.70256
 O953 O 0.70042 1.00258 0.64757
 O954 O 0.70484 0.93433 0.66154
 O955 O 0.85005 0.99713 0.80103
 O956 O 0.83923 1.06471 0.79336
 O957 O 0.75274 0.95122 0.85151
 O958 O 0.68260 0.95362 0.83703
 O959 O 0.80012 0.89977 0.75461
 O960 O 0.79633 0.91293 0.68403
 O961 O 0.85046 0.95118 0.75434
 O962 O 0.83690 0.95475 0.68379
 O963 O 0.75392 0.89956 0.80073
 O964 O 0.68335 0.91234 0.79617
 O965 O 0.79905 0.99756 0.85151
 O966 O 0.79449 1.06680 0.83865
 O967 O 0.64723 1.00197 0.70102
 O968 O 0.66169 0.93387 0.70474
 O969 O 0.74642 1.04934 0.64778
 O970 O 0.81535 1.04266 0.66217
 O971 O 0.70027 1.10241 0.74680
 O972 O 0.70407 1.08878 0.81516
 Zr973 Zr 0.70291 1.04672 0.77101
 O974 O 0.73673 1.01290 0.80827
 Zr975 Zr 0.77063 1.04687 0.70342
 O976 O 0.80775 1.01334 0.73794
 Zr977 Zr 0.70312 0.97860 0.70343
 O978 O 0.73723 0.94179 0.73765
 Zr979 Zr 0.79529 1.02250 0.79643
 O980 O 0.76148 1.05999 0.76210
 Zr981 Zr 0.72786 0.95418 0.79619
 O982 O 0.69018 0.98792 0.76203
 Zr983 Zr 0.79569 0.95456 0.72872
 O984 O 0.76160 0.98810 0.69073
 O985 O 0.71252 1.03693 0.71286
 O986 O 0.78632 0.96379 0.78725
 C987 C 0.63089 1.02953 0.71972
 C988 C 0.71897 1.11880 0.71921
 C989 C 0.71895 1.03047 0.63145
 C990 C 0.86617 0.96930 0.78264
 C991 C 0.78055 0.96977 0.86760
 C992 C 0.78221 0.88370 0.78285
 H993 H 0.73016 1.01912 0.83528
 H994 H 0.73122 0.91460 0.73149
 H995 H 0.69594 1.05329 0.69643
 H996 H 0.83488 1.01979 0.73224
 H997 H 0.82774 1.08773 0.78096
 H998 H 0.83434 1.08372 0.71651
 H999 H 0.68738 0.89514 0.77378
 H1000 H 0.64918 0.93526 0.73034
 H1001 H 0.77080 1.06390 0.85415
 H1002 H 0.72930 1.10196 0.81324
 H1003 H 0.77363 0.89600 0.68742
 H1004 H 0.73040 0.93607 0.64907
 H1005 H 0.64854 1.01999 0.81386
 H1006 H 0.68558 0.97663 0.85365
 H1007 H 0.81113 1.01834 0.64777
 H1008 H 0.85369 0.97754 0.68745
 O1009 O 0.74761 0.60192 0.20070
 O1010 O 0.81557 0.58798 0.20428
 O1011 O 0.70116 0.50213 0.14723
 O1012 O 0.70226 0.43767 0.15760
 O1013 O 0.64791 0.54850 0.24764
 O1014 O 0.66236 0.54487 0.31561
 O1015 O 0.80044 0.39863 0.25301
 O1016 O 0.79288 0.40945 0.18560
 O1017 O 0.85115 0.49567 0.29921
 O1018 O 0.83739 0.56661 0.29548
 O1019 O 0.75414 0.44973 0.35070
 O1020 O 0.68379 0.45288 0.33682
 O1021 O 0.75440 0.39856 0.29945
 O1022 O 0.68405 0.41171 0.29574
 O1023 O 0.80030 0.49618 0.35068
 O1024 O 0.79708 0.56612 0.33716
 O1025 O 0.85094 0.44931 0.25293
 O1026 O 0.83820 0.45439 0.18337
 O1027 O 0.70139 0.60192 0.24709
 O1028 O 0.70557 0.58802 0.31541
 O1029 O 0.64782 0.50242 0.20096
 O1030 O 0.66209 0.43349 0.20731
 O1031 O 0.74729 0.54880 0.14743
 O1032 O 0.81536 0.54474 0.16118
 Zr1033 Zr 0.77127 0.54609 0.20311
 O1034 O 0.80836 0.51219 0.23703
 Zr1035 Zr 0.70340 0.47832 0.20314
 O1036 O 0.73771 0.44116 0.23687
 Zr1037 Zr 0.70386 0.54614 0.27110
 O1038 O 0.73789 0.51204 0.30802
 Zr1039 Zr 0.79614 0.45353 0.22768
 O1040 O 0.76201 0.48738 0.19006
 Zr1041 Zr 0.79636 0.52134 0.29563
 O1042 O 0.76238 0.55906 0.26178
 Zr1043 Zr 0.72870 0.45337 0.29561
 O1044 O 0.69093 0.48750 0.26187
 O1045 O 0.71311 0.53655 0.21283
 O1046 O 0.78713 0.46270 0.28634
 C1047 C 0.72011 0.61815 0.21947
 C1048 C 0.71981 0.52994 0.13110
 C1049 C 0.63156 0.52973 0.22005
 C1050 C 0.78234 0.38265 0.28113
 C1051 C 0.86697 0.46761 0.28089
 C1052 C 0.78205 0.46821 0.36674
 H1053 H 0.83535 0.51865 0.23084
 H1054 H 0.73171 0.51824 0.33513
 H1055 H 0.69664 0.55301 0.19640
 H1056 H 0.73191 0.41395 0.23054
 H1057 H 0.78059 0.42096 0.16253
 H1058 H 0.71630 0.41449 0.16644
 H1059 H 0.77376 0.56337 0.35327
 H1060 H 0.73091 0.60098 0.31343
 H1061 H 0.85449 0.47755 0.18687
 H1062 H 0.81348 0.51931 0.14829
 H1063 H 0.68717 0.47568 0.35365
 H1064 H 0.64973 0.51928 0.31416
 H1065 H 0.81421 0.60057 0.22987
 H1066 H 0.85475 0.56261 0.27326
 H1067 H 0.64819 0.43732 0.23192
 H1068 H 0.68757 0.39495 0.27293
 O1069 O 0.50226 0.14754 0.70065
 O1070 O 0.43454 0.16159 0.70397
 O1071 O 0.54878 0.24823 0.64773
 O1072 O 0.54863 0.31212 0.65856
 O1073 O 0.60202 0.20015 0.74760
 O1074 O 0.58815 0.20388 0.81565
 O1075 O 0.44968 0.35063 0.75404
 O1076 O 0.45729 0.34037 0.68649
 O1077 O 0.39923 0.25367 0.79970
 O1078 O 0.41253 0.18325 0.79644
 O1079 O 0.49695 0.29968 0.85110
 O1080 O 0.56649 0.29669 0.83776
 O1081 O 0.49600 0.35051 0.80033
 O1082 O 0.56716 0.33688 0.79541
 O1083 O 0.45030 0.25372 0.85093
 O1084 O 0.45394 0.18293 0.83722
 O1085 O 0.39939 0.30013 0.75351
 O1086 O 0.41213 0.29520 0.68375
 O1087 O 0.54830 0.14711 0.74734
 O1088 O 0.54450 0.16114 0.81573
 O1089 O 0.60217 0.24657 0.70126
 O1090 O 0.58812 0.31598 0.70871
 O1091 O 0.50277 0.20144 0.64758
 O1092 O 0.43451 0.20523 0.66145
 Zr1093 Zr 0.47880 0.20353 0.70329
 O1094 O 0.44187 0.23731 0.73743
 Zr1095 Zr 0.54684 0.27118 0.70381
 O1096 O 0.51259 0.30833 0.73745
 Zr1097 Zr 0.54629 0.20293 0.77135
 O1098 O 0.51259 0.23716 0.80838
 Zr1099 Zr 0.45413 0.29598 0.72824
 O1100 O 0.48819 0.26229 0.69057
 Zr1101 Zr 0.45404 0.22806 0.79604
 O1102 O 0.48770 0.19032 0.76195
 Zr1103 Zr 0.52193 0.29583 0.79606
 O1104 O 0.55951 0.26156 0.76243
 O1105 O 0.53695 0.21287 0.71313
 O1106 O 0.46344 0.28663 0.78682
 C1107 C 0.52954 0.13102 0.71959
 C1108 C 0.53013 0.22057 0.63140
 C1109 C 0.61828 0.21889 0.71999
 C1110 C 0.46779 0.36639 0.78232
 C1111 C 0.38340 0.28181 0.78145
 C1112 C 0.46877 0.28163 0.86696
 H1113 H 0.41484 0.23091 0.73124
 H1114 H 0.51885 0.23092 0.83548
 H1115 H 0.55320 0.19637 0.69656
 H1116 H 0.51837 0.33557 0.73122
 H1117 H 0.46970 0.32906 0.66342
 H1118 H 0.53403 0.33503 0.66713
 H1119 H 0.47634 0.18676 0.85445
 H1120 H 0.51906 0.14836 0.81382
 H1121 H 0.39552 0.27230 0.68744
 H1122 H 0.43653 0.23064 0.64854
 H1123 H 0.56420 0.27292 0.85339
 H1124 H 0.60094 0.22939 0.81418
 H1125 H 0.43555 0.14921 0.72969
 H1126 H 0.39603 0.18642 0.77338
 H1127 H 0.60281 0.31122 0.73273
 H1128 H 0.56229 0.35502 0.77394
 O1129 O 0.25297 0.79976 0.39742
 O1130 O 0.18472 0.79576 0.41113
 O1131 O 0.29875 0.85344 0.49723
 O1132 O 0.29739 0.84315 0.56170
 O1133 O 0.35229 0.75375 0.45064
 O1134 O 0.33844 0.68534 0.45511
 O1135 O 0.19988 0.74761 0.60074
 O1136 O 0.20660 0.81502 0.58950
 O1137 O 0.14921 0.70072 0.50332
 O1138 O 0.16331 0.70471 0.43246
 O1139 O 0.24606 0.65007 0.54989
 O1140 O 0.31643 0.66375 0.54664
 O1141 O 0.24625 0.70150 0.60097
 O1142 O 0.31642 0.70515 0.58748
 O1143 O 0.20015 0.64979 0.50322
 O1144 O 0.20375 0.66302 0.43325
 O1145 O 0.14918 0.74682 0.54987
 O1146 O 0.16144 0.81667 0.54468
 O1147 O 0.29930 0.75346 0.39758
 O1148 O 0.29524 0.68508 0.41163
 O1149 O 0.35203 0.80054 0.49662
 O1150 O 0.33792 0.79347 0.56582
 O1151 O 0.25282 0.85298 0.45040
 O1152 O 0.18473 0.83912 0.45424
 Zr1153 Zr 0.22889 0.79724 0.45312
 O1154 O 0.19181 0.76325 0.48699
 Zr1155 Zr 0.29658 0.79760 0.52105
 O1156 O 0.26229 0.76379 0.55814
 Zr1157 Zr 0.29663 0.72955 0.45334
 O1158 O 0.26260 0.69253 0.48738
 Zr1159 Zr 0.20382 0.77266 0.54566
 O1160 O 0.23792 0.81040 0.51184
 Zr1161 Zr 0.20411 0.70470 0.47790
 O1162 O 0.23810 0.73860 0.44023
 Zr1163 Zr 0.27163 0.70508 0.54601
 O1164 O 0.30942 0.73892 0.51196
 O1165 O 0.28698 0.78774 0.46288
 O1166 O 0.21316 0.71405 0.53656
 C1167 C 0.28071 0.78116 0.38135
 C1168 C 0.28033 0.86935 0.46919
 C1169 C 0.36829 0.78179 0.46907
 C1170 C 0.21831 0.71980 0.61689
 C1171 C 0.13328 0.71881 0.53145
 C1172 C 0.21820 0.63397 0.53142
 H1173 H 0.16480 0.76929 0.48047
 H1174 H 0.26886 0.66542 0.48126
 H1175 H 0.30332 0.80427 0.44640
 H1176 H 0.26806 0.77021 0.58532
 H1177 H 0.21907 0.83802 0.57800
 H1178 H 0.28345 0.83418 0.58489
 H1179 H 0.22705 0.64692 0.43621
 H1180 H 0.26995 0.68694 0.39856
 H1181 H 0.14516 0.81296 0.52157
 H1182 H 0.18631 0.85184 0.47976
 H1183 H 0.31320 0.64703 0.52374
 H1184 H 0.35120 0.68729 0.48059
 H1185 H 0.18647 0.77028 0.39836
 H1186 H 0.14579 0.72681 0.43644
 H1187 H 0.35243 0.76929 0.56150
 H1188 H 0.31312 0.72821 0.60394
 O1189 O 0.29959 0.35211 0.99744
 O1190 O 0.29579 0.33800 1.06581
 O1191 O 0.35231 0.25235 0.95110
 O1192 O 0.34170 0.18780 0.95267
 O1193 O 0.25281 0.29939 0.89779
 O1194 O 0.18465 0.29556 0.91175
 O1195 O 0.24549 0.14895 1.05005
 O1196 O 0.31329 0.15939 1.04281
 O1197 O 0.20088 0.24665 1.10121
 O1198 O 0.20440 0.31705 1.08721
 O1199 O 0.14918 0.20041 1.00361
 O1200 O 0.16306 0.20444 0.93280
 O1201 O 0.19962 0.14915 1.00332
 O1202 O 0.20344 0.16261 0.93334
 O1203 O 0.14950 0.24647 1.05016
 O1204 O 0.16314 0.31685 1.04634
 O1205 O 0.24659 0.19988 1.10107
 O1206 O 0.31549 0.20357 1.08867
 O1207 O 0.25320 0.35242 0.95107
 O1208 O 0.18500 0.33880 0.95505
 O1209 O 0.29916 0.25313 0.89787
 O1210 O 0.29205 0.18407 0.91178
 O1211 O 0.35232 0.29894 0.99731
 O1212 O 0.33877 0.29471 1.06554
 Zr1213 Zr 0.29681 0.29628 1.02135
 O1214 O 0.26274 0.26238 1.05829
 Zr1215 Zr 0.29648 0.22864 0.95337
 O1216 O 0.26248 0.19153 0.98747
 Zr1217 Zr 0.22899 0.29675 0.95356
 O1218 O 0.19188 0.26277 0.98747
 Zr1219 Zr 0.27158 0.20365 1.04607
 O1220 O 0.30947 0.23749 1.01216
 Zr1221 Zr 0.20433 0.27188 1.04609
 O1222 O 0.23836 0.30955 1.01222
 Zr1223 Zr 0.20399 0.20414 0.97812
 O1224 O 0.23797 0.23816 0.94049
 O1225 O 0.28703 0.28685 0.96313
 O1226 O 0.21316 0.21321 1.03676
 C1227 C 0.28101 0.36843 0.96975
 C1228 C 0.36844 0.28023 0.96967
 C1229 C 0.28051 0.28079 0.88167
 C1230 C 0.21751 0.13311 1.03152
 C1231 C 0.21905 0.21857 1.11719
 C1232 C 0.13343 0.21855 1.03180
 H1233 H 0.26899 0.26876 1.08535
 H1234 H 0.16486 0.26908 0.98122
 H1235 H 0.30354 0.30333 0.94676
 H1236 H 0.26859 0.16430 0.98163
 H1237 H 0.33643 0.17088 1.03070
 H1238 H 0.33247 0.16442 0.96619
 H1239 H 0.14639 0.31347 1.02349
 H1240 H 0.18682 0.35149 0.98057
 H1241 H 0.31346 0.22770 1.10371
 H1242 H 0.35163 0.26932 1.06354
 H1243 H 0.14582 0.22677 0.93679
 H1244 H 0.18632 0.27014 0.89882
 H1245 H 0.27059 0.35117 1.06392
 H1246 H 0.22725 0.31371 1.10392
 H1247 H 0.26770 0.18830 0.89753
 H1248 H 0.22649 0.14619 0.93644
   
