data_POSCAR
  _audit_creation_date              2014-09-24
  _audit_creation_method            'ToBaCCo'
  _symmetry_space_group_name_H-M    'P1'
  _symmetry_Int_Tables_number       1
  _symmetry_cell_setting            triclinic
  loop_
  _symmetry_equiv_pos_as_xyz
 x,y,z
_cell_length_a 61.9252
_cell_length_b 64.2362
_cell_length_c 63.8443
_cell_angle_alpha 89.696900
_cell_angle_beta 88.165300
_cell_angle_gamma 88.019700
loop_
  _atom_site_label
  _atom_site_type_symbol
  _atom_site_fract_x
  _atom_site_fract_y
  _atom_site_fract_z
C1 C 0.75213 0.60248 1.02183
 C2 C 0.76408 0.61186 1.00562
 C3 C 0.78432 0.61980 1.00948
 C4 C 0.79289 0.61869 1.02965
 C5 C 0.78042 0.60930 1.04583
 C6 C 0.76010 0.60080 1.04226
 C7 C 0.75556 0.61272 0.98432
 C8 C 0.73659 0.62447 0.98036
 C9 C 0.72851 0.62548 0.96007
 C10 C 0.73916 0.61390 0.94398
 C11 C 0.75794 0.60181 0.94782
 C12 C 0.76627 0.60157 0.96801
 H13 H 0.73712 0.59559 1.01785
 H14 H 0.79350 0.62623 0.99642
 H15 H 0.72856 0.63331 0.99294
 H16 H 0.78072 0.59226 0.97124
 H17 H 0.78585 0.61020 1.06168
 H18 H 0.73285 0.61441 0.92834
 C19 C 0.74165 0.39660 0.47460
 C20 C 0.75134 0.38748 0.49212
 C21 C 0.77150 0.37699 0.48975
 C22 C 0.78206 0.37552 0.47001
 C23 C 0.77243 0.38513 0.45266
 C24 C 0.75223 0.39572 0.45479
 C25 C 0.74051 0.38890 0.51302
 C26 C 0.72017 0.38035 0.51657
 C27 C 0.71048 0.38040 0.53677
 C28 C 0.72100 0.38997 0.55318
 C29 C 0.74137 0.39860 0.54987
 C30 C 0.75107 0.39785 0.52968
 H31 H 0.72617 0.40487 0.47654
 H32 H 0.77888 0.36985 0.50330
 H33 H 0.71246 0.37275 0.50382
 H34 H 0.76701 0.40395 0.52691
 H35 H 0.78033 0.38374 0.43732
 H36 H 0.71324 0.39070 0.56862
 C37 C 0.24203 -0.10217 -0.02920
 C38 C 0.25256 -0.11249 -0.01291
 C39 C 0.27354 -0.12101 -0.01632
 C40 C 0.28436 -0.11930 -0.03604
 C41 C 0.27347 -0.10847 -0.05213
 C42 C 0.25246 -0.09988 -0.04885
 C43 C 0.24212 -0.11335 0.00815
 C44 C 0.22316 -0.12436 0.01165
 C45 C 0.21355 -0.12589 0.03196
 C46 C 0.22332 -0.11541 0.04846
 C47 C 0.24197 -0.10382 0.04499
 C48 C 0.25134 -0.10309 0.02473
 H49 H 0.22599 -0.09529 -0.02630
 H50 H 0.28152 -0.12828 -0.00319
 H51 H 0.21683 -0.13260 -0.00143
 H52 H 0.26556 -0.09408 0.02160
 H53 H 0.28071 -0.10759 -0.06774
 H54 H 0.21615 -0.11564 0.06409
 C55 C 0.24965 0.10900 0.52650
 C56 C 0.26176 0.11764 0.50990
 C57 C 0.28218 0.12542 0.51361
 C58 C 0.29034 0.12495 0.53390
 C59 C 0.27781 0.11655 0.55043
 C60 C 0.25751 0.10832 0.54690
 C61 C 0.25290 0.11841 0.48869
 C62 C 0.23217 0.12722 0.48568
 C63 C 0.22317 0.12737 0.46579
 C64 C 0.23510 0.11833 0.44888
 C65 C 0.25582 0.10931 0.45165
 C66 C 0.26473 0.10965 0.47161
 H67 H 0.23426 0.10236 0.52329
 H68 H 0.29164 0.13188 0.50073
 H69 H 0.22300 0.13383 0.49893
 H70 H 0.28051 0.10241 0.47408
 H71 H 0.28374 0.11689 0.56619
 H72 H 0.22842 0.11871 0.43340
 C73 C 0.10529 0.52644 0.25789
 C74 C 0.11426 0.50929 0.26864
 C75 C 0.12262 0.51202 0.28851
 C76 C 0.12238 0.53181 0.29761
 C77 C 0.11347 0.54891 0.28665
 C78 C 0.10447 0.54661 0.26673
 C79 C 0.11465 0.48838 0.25913
 C80 C 0.12513 0.48489 0.23957
 C81 C 0.12623 0.46488 0.23079
 C82 C 0.11603 0.44856 0.24145
 C83 C 0.10531 0.45183 0.26093
 C84 C 0.10487 0.47182 0.26977
 H85 H 0.09801 0.52344 0.24309
 H86 H 0.12936 0.49869 0.29684
 H87 H 0.13307 0.49760 0.23160
 H88 H 0.09697 0.47455 0.28494
 H89 H 0.11469 0.56415 0.29351
 H90 H 0.11613 0.43329 0.23432
 C91 C -0.11033 -0.03007 0.24365
 C92 C -0.12078 -0.01292 0.25349
 C93 C -0.13131 -0.01552 0.27306
 C94 C -0.13145 -0.03512 0.28318
 C95 C -0.12047 -0.05211 0.27303
 C96 C -0.10999 -0.04972 0.25334
 C97 C -0.12014 0.00797 0.24364
 C98 C -0.12633 0.01099 0.22284
 C99 C -0.12549 0.03081 0.21317
 C100 C -0.11791 0.04744 0.22505
 C101 C -0.11164 0.04457 0.24582
 C102 C -0.11295 0.02481 0.25503
 H103 H -0.10231 -0.02804 0.22848
 H104 H -0.13873 -0.00188 0.28058
 H105 H -0.13128 -0.00240 0.21423
 H106 H -0.10780 0.02236 0.27095
 H107 H -0.12049 -0.06748 0.28001
 H108 H -0.11799 0.06310 0.21875
 C109 C 0.39343 0.47731 0.75188
 C110 C 0.38383 0.49522 0.76105
 C111 C 0.37434 0.49409 0.78125
 C112 C 0.37427 0.47512 0.79257
 C113 C 0.38455 0.45739 0.78309
 C114 C 0.39397 0.45833 0.76281
 C115 C 0.38375 0.51517 0.74941
 C116 C 0.37545 0.51639 0.72926
 C117 C 0.37531 0.53523 0.71803
 C118 C 0.38410 0.55285 0.72702
 C119 C 0.39254 0.55188 0.74722
 C120 C 0.39207 0.53296 0.75837
 H121 H 0.40092 0.47830 0.73635
 H122 H 0.36741 0.50826 0.78813
 H123 H 0.36894 0.50264 0.72239
 H124 H 0.39823 0.53199 0.77406
 H125 H 0.38405 0.44234 0.79074
 H126 H 0.38421 0.56737 0.71833
 C127 C 0.60982 1.02764 0.75146
 C128 C 0.61775 1.01010 0.76218
 C129 C 0.62588 1.01234 0.78228
 C130 C 0.62642 1.03212 0.79186
 C131 C 0.61790 1.04951 0.78073
 C132 C 0.60968 1.04737 0.76065
 C133 C 0.61749 0.98940 0.75220
 C134 C 0.62661 0.98651 0.73199
 C135 C 0.62596 0.96715 0.72201
 C136 C 0.61580 0.95064 0.73244
 C137 C 0.60652 0.95328 0.75268
 C138 C 0.60762 0.97272 0.76253
 H139 H 0.60326 1.02582 0.73606
 H140 H 0.63138 0.99841 0.79040
 H141 H 0.63411 0.99945 0.72398
 H142 H 0.60063 0.97499 0.77816
 H143 H 0.61877 1.06510 0.78688
 H144 H 0.61506 0.93571 0.72473
 C145 C -0.03223 0.24649 -0.11213
 C146 C -0.01470 0.25753 -0.12019
 C147 C -0.01838 0.27641 -0.13087
 C148 C -0.03963 0.28431 -0.13405
 C149 C -0.05697 0.27309 -0.12520
 C150 C -0.05346 0.25426 -0.11436
 C151 C 0.00750 0.24873 -0.11828
 C152 C 0.01299 0.22899 -0.12660
 C153 C 0.03419 0.22032 -0.12539
 C154 C 0.04943 0.23177 -0.11461
 C155 C 0.04406 0.25145 -0.10608
 C156 C 0.02314 0.26002 -0.10833
 H157 H -0.02927 0.23176 -0.10420
 H158 H -0.00453 0.28398 -0.13780
 H159 H 0.00080 0.22121 -0.13511
 H160 H 0.01881 0.27518 -0.10177
 H161 H -0.07338 0.27933 -0.12584
 H162 H 0.06556 0.22536 -0.11233
 C163 C 0.52458 0.25031 0.11155
 C164 C 0.50569 0.26084 0.11901
 C165 C 0.50687 0.28095 0.12726
 C166 C 0.52683 0.29057 0.12821
 C167 C 0.54559 0.27995 0.12038
 C168 C 0.54462 0.25988 0.11192
 C169 C 0.48463 0.25086 0.11807
 C170 C 0.48141 0.23171 0.12815
 C171 C 0.46114 0.22259 0.12805
 C172 C 0.44435 0.23243 0.11699
 C173 C 0.44746 0.25143 0.10652
 C174 C 0.46762 0.26069 0.10739
 H175 H 0.52353 0.23491 0.10488
 H176 H 0.49224 0.28905 0.13303
 H177 H 0.49442 0.22440 0.13680
 H178 H 0.47029 0.27535 0.09939
 H179 H 0.56111 0.28710 0.12141
 H180 H 0.42871 0.22540 0.11678
 C181 C 1.02970 0.75109 0.61270
 C182 C 1.01129 0.76183 0.62078
 C183 C 1.01329 0.78098 0.63083
 C184 C 1.03379 0.78927 0.63373
 C185 C 1.05218 0.77800 0.62555
 C186 C 1.05029 0.75916 0.61475
 C187 C 0.98991 0.75263 0.61927
 C188 C 0.98611 0.73316 0.62846
 C189 C 0.96560 0.72462 0.62788
 C190 C 0.94909 0.73546 0.61733
 C191 C 0.95274 0.75487 0.60784
 C192 C 0.97321 0.76347 0.60910
 H193 H 1.02779 0.73666 0.60436
 H194 H 0.99879 0.78855 0.63751
 H195 H 0.99893 0.72509 0.63675
 H196 H 0.97619 0.77861 0.60225
 H197 H 1.06810 0.78413 0.62695
 H198 H 0.93345 0.72858 0.61624
 C199 C 0.47016 0.74351 0.37808
 C200 C 0.48754 0.75460 0.36969
 C201 C 0.48370 0.77433 0.36078
 C202 C 0.46263 0.78306 0.36008
 C203 C 0.44539 0.77186 0.36880
 C204 C 0.44901 0.75213 0.37792
 C205 C 0.50983 0.74582 0.37068
 C206 C 0.51527 0.72606 0.36237
 C207 C 0.53664 0.71800 0.36288
 C208 C 0.55232 0.72966 0.37255
 C209 C 0.54707 0.74940 0.38093
 C210 C 0.52581 0.75745 0.37976
 H211 H 0.47319 0.72826 0.38494
 H212 H 0.49716 0.78263 0.35394
 H213 H 0.50302 0.71741 0.35479
 H214 H 0.52153 0.77262 0.38634
 H215 H 0.42918 0.77877 0.36904
 H216 H 0.56879 0.72351 0.37327
 C217 C 0.40740 -0.01942 0.26514
 H218 H 0.40914 -0.00434 0.27225
 C219 C 0.41549 -0.03743 0.27506
 H220 H 0.42351 -0.03605 0.28978
 C221 C 0.39307 -0.03968 0.23834
 H222 H 0.38360 -0.04078 0.22455
 C223 C 0.40103 -0.05795 0.24756
 H224 H 0.39811 -0.07271 0.24025
 N225 N 0.39600 -0.02090 0.24736
 C226 C 0.38658 0.03984 0.21772
 H227 H 0.36922 0.03905 0.21669
 C228 C 0.39702 0.05718 0.20994
 H229 H 0.38759 0.06959 0.20269
 C230 C 0.41980 0.02435 0.22834
 H231 H 0.42847 0.01148 0.23563
 C232 C 0.43102 0.04153 0.22059
 H233 H 0.44838 0.04189 0.22206
 Zn234 Zn 0.38021 0.00280 0.23747
 N235 N 0.39792 0.02406 0.22702
 C236 C 0.36612 0.03293 0.26737
 N237 N 0.36298 0.01334 0.26034
 C238 C 0.34881 0.00068 0.27038
 C239 C 0.33696 0.00770 0.28815
 C240 C 0.35469 0.04054 0.28502
 C241 C 0.37395 -0.01137 0.19728
 C242 C 0.36282 -0.01804 0.18006
 C243 C 0.32920 -0.00993 0.19899
 C244 C 0.34104 -0.00368 0.21602
 N245 N 0.36301 -0.00490 0.21498
 H246 H 0.37782 0.04262 0.25958
 H247 H 0.34696 -0.01499 0.26476
 H248 H 0.32600 -0.00268 0.29614
 H249 H 0.35736 0.05623 0.29023
 H250 H 0.39144 -0.01187 0.19678
 H251 H 0.37202 -0.02403 0.16658
 H252 H 0.31173 -0.00875 0.20009
 H253 H 0.33265 0.00210 0.23002
 C254 C 0.41947 0.05837 0.21160
 C255 C 0.41172 -0.05707 0.26656
 C256 C 0.34010 -0.01751 0.18076
 C257 C 0.33999 0.02784 0.29576
 C258 C 0.08381 1.02229 0.77586
 H259 H 0.08153 1.00648 0.78120
 C260 C 0.07325 1.03892 0.78652
 H261 H 0.06277 1.03579 0.79998
 C262 C 0.10178 1.04573 0.75307
 H263 H 0.11357 1.04855 0.74068
 C264 C 0.09158 1.06270 0.76317
 H265 H 0.09522 1.07829 0.75792
 N266 N 0.09805 1.02598 0.75969
 C267 C 0.11452 0.96798 0.72691
 H268 H 0.13175 0.97028 0.72600
 C269 C 0.10632 0.94997 0.71880
 H270 H 0.11734 0.93861 0.71133
 C271 C 0.07941 0.98002 0.73808
 H272 H 0.06912 0.99171 0.74586
 C273 C 0.07044 0.96207 0.73006
 H274 H 0.05320 0.95997 0.73178
 Zn275 Zn 0.11626 1.00390 0.74909
 N276 N 0.10119 0.98231 0.73675
 C277 C 0.12857 0.97259 0.77792
 N278 N 0.13148 0.99271 0.77204
 C279 C 0.14398 1.00534 0.78322
 C280 C 0.15437 0.99772 0.80096
 C281 C 0.13856 0.96439 0.79553
 C282 C 0.12652 1.02232 0.71067
 C283 C 0.13951 1.03030 0.69453
 C284 C 0.17101 1.01971 0.71381
 C285 C 0.15735 1.01228 0.72981
 N286 N 0.13553 1.01397 0.72807
 H287 H 0.11818 0.96290 0.76921
 H288 H 0.14566 1.02140 0.77845
 H289 H 0.16405 1.00802 0.80983
 H290 H 0.13614 0.94828 0.79983
 H291 H 0.10911 1.02315 0.70957
 H292 H 0.13181 1.03766 0.68130
 H293 H 0.18832 1.01789 0.71539
 H294 H 0.16421 1.00498 0.74347
 C295 C 0.08411 0.94656 0.72076
 C296 C 0.07764 1.05946 0.78054
 C297 C 0.16214 1.02910 0.69591
 C298 C 0.15156 0.97701 0.80738
 C299 C 0.59215 0.51541 0.27376
 H300 H 0.58962 0.49968 0.27922
 C301 C 0.58171 0.53226 0.28416
 H302 H 0.57117 0.52937 0.29763
 C303 C 0.61022 0.53836 0.25054
 H304 H 0.62187 0.54089 0.23795
 C305 C 0.60007 0.55555 0.26031
 H306 H 0.60362 0.57099 0.25458
 N307 N 0.60629 0.51875 0.25743
 C308 C 0.61830 0.46160 0.22200
 H309 H 0.63576 0.46161 0.22208
 C310 C 0.60811 0.44682 0.21033
 H311 H 0.61784 0.43528 0.20163
 C312 C 0.58448 0.47685 0.23319
 H313 H 0.57544 0.48884 0.24186
 C314 C 0.57355 0.46208 0.22186
 H315 H 0.55605 0.46272 0.22188
 Zn316 Zn 0.62327 0.49612 0.24610
 N317 N 0.60648 0.47628 0.23301
 C318 C 0.63494 0.46329 0.27371
 N319 N 0.63834 0.48349 0.26844
 C320 C 0.65124 0.49544 0.27991
 C321 C 0.66140 0.48710 0.29745
 C322 C 0.64471 0.45437 0.29116
 C323 C 0.63328 0.51431 0.20771
 C324 C 0.64600 0.52207 0.19126
 C325 C 0.67784 0.51142 0.21000
 C326 C 0.66443 0.50410 0.22629
 N327 N 0.64257 0.50593 0.22495
 H328 H 0.62431 0.45416 0.26466
 H329 H 0.65332 0.51157 0.27560
 H330 H 0.67130 0.49695 0.30662
 H331 H 0.64182 0.43826 0.29509
 H332 H 0.61584 0.51527 0.20693
 H333 H 0.63809 0.52937 0.17812
 H334 H 0.69519 0.50960 0.21126
 H335 H 0.67151 0.49685 0.23987
 C336 C 0.58548 0.44703 0.21001
 C337 C 0.58603 0.55270 0.27770
 C338 C 0.66865 0.52072 0.19221
 C339 C 0.65802 0.46634 0.30338
 C340 C 0.92261 0.48033 0.76280
 H341 H 0.92348 0.49569 0.76953
 C342 C 0.93269 0.46321 0.77257
 H343 H 0.94132 0.46556 0.78680
 C344 C 0.90852 0.45838 0.73724
 H345 H 0.89849 0.45638 0.72394
 C346 C 0.91841 0.44092 0.74639
 H347 H 0.91624 0.42573 0.73964
 N348 N 0.91036 0.47755 0.74580
 C349 C 0.89491 0.53671 0.71535
 H350 H 0.87760 0.53494 0.71521
 C351 C 0.90392 0.55441 0.70661
 H352 H 0.89342 0.56607 0.69947
 C353 C 0.92945 0.52341 0.72480
 H354 H 0.93922 0.51129 0.73206
 C355 C 0.93923 0.54100 0.71616
 H356 H 0.95655 0.54240 0.71694
 Zn357 Zn 0.89213 0.49989 0.73687
 N358 N 0.90761 0.52185 0.72452
 C359 C 0.87934 0.53010 0.76708
 N360 N 0.87662 0.51012 0.76099
 C361 C 0.86448 0.49697 0.77284
 C362 C 0.85428 0.50390 0.79152
 C363 C 0.86960 0.53759 0.78566
 C364 C 0.88262 0.48603 0.69721
 C365 C 0.87008 0.47950 0.68089
 C366 C 0.83851 0.48246 0.70406
 C367 C 0.85166 0.48913 0.71994
 N368 N 0.87334 0.49056 0.71631
 H369 H 0.88946 0.54021 0.75782
 H370 H 0.86304 0.48099 0.76795
 H371 H 0.84488 0.49320 0.80092
 H372 H 0.87196 0.55355 0.79019
 H373 H 0.89986 0.48750 0.69470
 H374 H 0.87782 0.47572 0.66587
 H375 H 0.82128 0.48143 0.70714
 H376 H 0.84450 0.49324 0.73506
 C377 C 0.92630 0.55694 0.70726
 C378 C 0.93003 0.44309 0.76474
 C379 C 0.84773 0.47759 0.68422
 C380 C 0.85700 0.52441 0.79821
 C381 C 0.27165 0.41584 -0.01182
 H382 H 0.27661 0.41450 0.00424
 C383 C 0.28441 0.42643 -0.02654
 H384 H 0.29905 0.43348 -0.02167
 C385 C 0.24714 0.40731 -0.03795
 H386 H 0.23306 0.39923 -0.04255
 C387 C 0.25925 0.41794 -0.05310
 H388 H 0.25429 0.41794 -0.06922
 N389 N 0.25360 0.40627 -0.01780
 C390 C 0.21320 0.39245 0.03717
 H391 H 0.21131 0.37606 0.03416
 C392 C 0.20359 0.40150 0.05506
 H393 H 0.19405 0.39201 0.06565
 C394 C 0.22822 0.42456 0.02699
 H395 H 0.23805 0.43335 0.01607
 C396 C 0.21877 0.43432 0.04476
 H397 H 0.22152 0.45062 0.04752
 Zn398 Zn 0.23971 0.38863 0.00184
 N399 N 0.22565 0.40386 0.02385
 C400 C 0.26529 0.37208 0.03409
 N401 N 0.26156 0.37089 0.01325
 C402 C 0.27462 0.35890 0.00029
 C403 C 0.29231 0.34759 0.00822
 C404 C 0.28279 0.36118 0.04260
 C405 C 0.20049 0.38447 -0.01745
 C406 C 0.18372 0.37453 -0.02696
 C407 C 0.20373 0.34181 -0.02349
 C408 C 0.22013 0.35240 -0.01395
 N409 N 0.21832 0.37339 -0.01134
 H410 H 0.25517 0.38204 0.04413
 H411 H 0.27165 0.35860 -0.01631
 H412 H 0.30286 0.33851 -0.00236
 H413 H 0.28555 0.36252 0.05920
 H414 H 0.19931 0.40110 -0.01485
 H415 H 0.16958 0.38367 -0.03145
 H416 H 0.20564 0.32516 -0.02579
 H417 H 0.23425 0.34381 -0.00866
 C418 C 0.20670 0.42257 0.05929
 C419 C 0.27841 0.42727 -0.04756
 C420 C 0.18521 0.35291 -0.03019
 C421 C 0.29675 0.34897 0.02959
 C422 C 0.78706 0.09558 1.02048
 H423 H 0.79585 0.10489 1.00920
 C424 C 0.79843 0.08386 1.03519
 H425 H 0.81590 0.08432 1.03497
 C426 C 0.75380 0.08335 1.03410
 H427 H 0.73634 0.08348 1.03372
 C428 C 0.76453 0.07157 1.04932
 H429 H 0.75512 0.06290 1.06072
 N430 N 0.76508 0.09589 1.02080
 C431 C 0.71212 0.10232 0.98468
 H432 H 0.70389 0.11074 0.99734
 C433 C 0.70000 0.09376 0.96906
 H434 H 0.68257 0.09580 0.96993
 C435 C 0.74461 0.08885 0.96862
 H436 H 0.76205 0.08714 0.96852
 C437 C 0.73310 0.08017 0.95250
 H438 H 0.74189 0.07205 0.93991
 Zn439 Zn 0.75001 0.11524 1.00349
 N440 N 0.73408 0.10050 0.98375
 C441 C 0.77319 0.13363 0.96874
 N442 N 0.77011 0.13293 0.98993
 C443 C 0.78170 0.14488 1.00267
 C444 C 0.79796 0.15727 0.99434
 C445 C 0.78935 0.14578 0.95972
 C446 C 0.72817 0.13048 1.04093
 C447 C 0.71244 0.14245 1.05201
 C448 C 0.70328 0.15985 1.01970
 C449 C 0.71915 0.14753 1.00924
 N450 N 0.73073 0.13272 1.01979
 H451 H 0.76342 0.12458 0.95876
 H452 H 0.77864 0.14435 1.01944
 H453 H 0.80716 0.16645 1.00482
 H454 H 0.79209 0.14550 0.94289
 H455 H 0.73808 0.11929 1.04926
 H456 H 0.71036 0.14020 1.06877
 H457 H 0.69358 0.17087 1.01082
 H458 H 0.72173 0.14921 0.99248
 C459 C 0.71051 0.08315 0.95226
 C460 C 0.78713 0.07235 1.05047
 C461 C 0.69944 0.15706 1.04131
 C462 C 0.80227 0.15752 0.97261
 C463 C 0.28705 0.58705 0.51674
 H464 H 0.29240 0.58630 0.50045
 C465 C 0.29912 0.57675 0.53205
 H466 H 0.31365 0.56783 0.52745
 C467 C 0.26218 0.60039 0.54270
 H468 H 0.24834 0.61027 0.54702
 C469 C 0.27356 0.59017 0.55842
 H470 H 0.26816 0.59223 0.57460
 N471 N 0.26902 0.59869 0.52230
 C472 C 0.22986 0.60962 0.46763
 H473 H 0.22815 0.62638 0.46902
 C474 C 0.21902 0.59942 0.45217
 H475 H 0.20918 0.60849 0.44150
 C476 C 0.24501 0.57759 0.47989
 H477 H 0.25496 0.56921 0.49093
 C478 C 0.23451 0.56670 0.46445
 H479 H 0.23645 0.54990 0.46368
 Zn480 Zn 0.25508 0.61508 0.50161
 N481 N 0.24255 0.59869 0.48107
 C482 C 0.28062 0.63084 0.46791
 N483 N 0.27610 0.63212 0.48886
 C484 C 0.28732 0.64469 0.50132
 C485 C 0.30374 0.65678 0.49273
 C486 C 0.29687 0.64266 0.45868
 C487 C 0.21554 0.62102 0.52304
 C488 C 0.19788 0.63188 0.53231
 C489 C 0.21413 0.66413 0.52187
 C490 C 0.23169 0.65262 0.51307
 N491 N 0.23216 0.63146 0.51401
 H492 H 0.27193 0.62036 0.45834
 H493 H 0.28358 0.64520 0.51798
 H494 H 0.31239 0.66682 0.50287
 H495 H 0.30048 0.64113 0.44204
 H496 H 0.21617 0.60417 0.52324
 H497 H 0.18525 0.62314 0.54001
 H498 H 0.21391 0.68094 0.52060
 H499 H 0.24475 0.66061 0.50525
 C500 C 0.22118 0.57768 0.45046
 C501 C 0.29244 0.57838 0.55322
 C502 C 0.19693 0.65377 0.53178
 C503 C 0.30873 0.65581 0.47113
 C504 C 0.77239 0.90764 0.48305
 H505 H 0.77797 0.90663 0.49892
 C506 C 0.78465 0.91783 0.46760
 H507 H 0.79954 0.92492 0.47173
 C508 C 0.74687 0.89856 0.45806
 H509 H 0.73259 0.89044 0.45417
 C510 C 0.75843 0.90881 0.44225
 H511 H 0.75283 0.90845 0.42636
 N512 N 0.75410 0.89794 0.47796
 C513 C 0.71118 0.88435 0.53109
 H514 H 0.70968 0.86792 0.52806
 C515 C 0.69914 0.89373 0.54744
 H516 H 0.68849 0.88434 0.55705
 C517 C 0.72756 0.91626 0.52255
 H518 H 0.73873 0.92487 0.51278
 C519 C 0.71591 0.92628 0.53899
 H520 H 0.71808 0.94268 0.54174
 Zn521 Zn 0.74084 0.88038 0.49812
 N522 N 0.72513 0.89560 0.51912
 C523 C 0.76430 0.86382 0.53192
 N524 N 0.76291 0.86400 0.51070
 C525 C 0.77769 0.85336 0.49827
 C526 C 0.79456 0.84171 0.50717
 C527 C 0.78083 0.85235 0.54145
 C528 C 0.70221 0.87245 0.47889
 C529 C 0.68654 0.86072 0.46972
 C530 C 0.70985 0.83007 0.47347
 C531 C 0.72504 0.84239 0.48270
 N532 N 0.72106 0.86322 0.48504
 H533 H 0.75274 0.87273 0.54155
 H534 H 0.77639 0.85403 0.48142
 H535 H 0.80606 0.83316 0.49706
 H536 H 0.78179 0.85265 0.55835
 H537 H 0.69930 0.88898 0.48129
 H538 H 0.67151 0.86836 0.46526
 H539 H 0.71349 0.81359 0.47140
 H540 H 0.73995 0.83527 0.48798
 C541 C 0.70149 0.91492 0.55166
 C542 C 0.77784 0.91818 0.44683
 C543 C 0.69027 0.83921 0.46683
 C544 C 0.79623 0.84108 0.52905
 C545 C -0.01689 0.27066 0.40539
 H546 H -0.00010 0.27484 0.40490
 C547 C -0.03224 0.28290 0.41670
 H548 H -0.02711 0.29632 0.42519
 C549 C -0.04414 0.24870 0.39402
 H550 H -0.04886 0.23584 0.38458
 C551 C -0.05996 0.26039 0.40524
 H552 H -0.07672 0.25630 0.40431
 N553 N -0.02310 0.25412 0.39411
 C554 C 0.03232 0.21306 0.37835
 H555 H 0.03007 0.21223 0.36165
 C556 C 0.04894 0.20134 0.38738
 H557 H 0.05958 0.19166 0.37745
 C558 C 0.02138 0.22721 0.41139
 H559 H 0.01050 0.23726 0.42064
 C560 C 0.03798 0.21582 0.42110
 H561 H 0.03975 0.21713 0.43785
 Zn562 Zn -0.00244 0.24089 0.37572
 N563 N 0.01907 0.22578 0.39034
 C564 C 0.03234 0.26411 0.35950
 N565 N 0.01056 0.26206 0.35946
 C566 C -0.00240 0.27596 0.34917
 C567 C 0.00652 0.29271 0.33830
 C568 C 0.04192 0.28056 0.34880
 C569 C -0.02311 0.20404 0.36797
 C570 C -0.03227 0.18856 0.35624
 C571 C -0.02652 0.20950 0.32514
 C572 C -0.01736 0.22456 0.33748
 N573 N -0.01594 0.22162 0.35851
 H574 H 0.04234 0.25327 0.36820
 H575 H -0.01972 0.27417 0.34969
 H576 H -0.00403 0.30360 0.33015
 H577 H 0.05924 0.28213 0.34941
 H578 H -0.02142 0.20196 0.38467
 H579 H -0.03742 0.17451 0.36407
 H580 H -0.02774 0.21223 0.30847
 H581 H -0.01125 0.23848 0.33020
 C582 C 0.05202 0.20268 0.40900
 C583 C -0.05415 0.27800 0.41641
 C584 C -0.03406 0.19114 0.33449
 C585 C 0.02897 0.29520 0.33810
 C586 C 1.01957 0.77153 0.09439
 H587 H 1.00324 0.77705 0.09146
 C588 C 1.03716 0.78214 0.08573
 H589 H 1.03423 0.79581 0.07611
 C590 C 1.04328 0.74793 0.11174
 H591 H 1.04577 0.73510 0.12245
 C592 C 1.06120 0.75799 0.10344
 H593 H 1.07722 0.75232 0.10746
 N594 N 1.02293 0.75489 0.10731
 C595 C 0.96356 0.72064 0.11455
 H596 H 0.96328 0.71981 0.13148
 C597 C 0.94819 0.71039 0.10346
 H598 H 0.93589 0.70193 0.11203
 C599 C 0.98003 0.73283 0.08299
 H600 H 0.99271 0.74135 0.07515
 C601 C 0.96478 0.72281 0.07119
 H602 H 0.96579 0.72369 0.05425
 Zn603 Zn 0.99926 0.74304 0.12214
 N604 N 0.97906 0.73157 0.10429
 C605 C 0.96432 0.76946 0.13662
 N606 N 0.98560 0.76425 0.13886
 C607 C 0.99780 0.77463 0.15244
 C608 C 0.98856 0.79080 0.16466
 C609 C 0.95441 0.78543 0.14859
 C610 C 1.01870 0.70405 0.12867
 C611 C 1.02657 0.68679 0.13972
 C612 C 1.01428 0.70352 0.17195
 C613 C 1.00684 0.72063 0.16025
 N614 N 1.00940 0.72066 0.13902
 H615 H 0.95500 0.76144 0.12537
 H616 H 1.01476 0.77035 0.15373
 H617 H 0.99847 0.79876 0.17553
 H618 H 0.93752 0.78950 0.14640
 H619 H 1.02026 0.70440 0.11175
 H620 H 1.03455 0.67409 0.13110
 H621 H 1.01183 0.70368 0.18881
 H622 H 0.99888 0.73375 0.16814
 C623 C 0.94874 0.71121 0.08149
 C624 C 1.05829 0.77563 0.09067
 C625 C 1.02442 0.68631 0.16170
 C626 C 0.96656 0.79635 0.16284
 C627 C 0.51706 0.27792 0.60187
 H628 H 0.50088 0.28468 0.60080
 C629 C 0.53461 0.28813 0.59269
 H630 H 0.53178 0.30277 0.58459
 C631 C 0.54054 0.25152 0.61525
 H632 H 0.54297 0.23760 0.62452
 C633 C 0.55844 0.26108 0.60623
 H634 H 0.57437 0.25404 0.60832
 N635 N 0.52036 0.26020 0.61325
 C636 C 0.46114 0.22636 0.62295
 H637 H 0.46116 0.22545 0.63987
 C638 C 0.44556 0.21616 0.61203
 H639 H 0.43343 0.20760 0.62070
 C640 C 0.47699 0.23884 0.59120
 H641 H 0.48945 0.24753 0.58323
 C642 C 0.46152 0.22895 0.57961
 H643 H 0.46219 0.23006 0.56267
 Zn644 Zn 0.49705 0.24949 0.62941
 N645 N 0.47642 0.23741 0.61249
 C646 C 0.46263 0.27689 0.64295
 N647 N 0.48401 0.27193 0.64485
 C648 C 0.49676 0.28365 0.65672
 C649 C 0.48803 0.30104 0.66745
 C650 C 0.45326 0.29416 0.65334
 C651 C 0.51403 0.20990 0.63845
 C652 C 0.52247 0.19359 0.65053
 C653 C 0.51689 0.21509 0.68129
 C654 C 0.50843 0.23099 0.66860
 N655 N 0.50753 0.22825 0.64753
 H656 H 0.45283 0.26765 0.63314
 H657 H 0.51382 0.27964 0.65759
 H658 H 0.49849 0.31037 0.67656
 H659 H 0.43619 0.29779 0.65171
 H660 H 0.51282 0.20803 0.62170
 H661 H 0.52746 0.17911 0.64293
 H662 H 0.51804 0.21778 0.69793
 H663 H 0.50286 0.24554 0.67560
 C664 C 0.44565 0.21730 0.59007
 C665 C 0.55571 0.27998 0.59533
 C666 C 0.52425 0.19614 0.67224
 C667 C 0.46601 0.30656 0.66571
 C668 C 0.48525 0.77713 0.90703
 H669 H 0.50122 0.78339 0.90550
 C670 C 0.46885 0.78806 0.91836
 H671 H 0.47233 0.80265 0.92574
 C672 C 0.46098 0.75096 0.89849
 H673 H 0.45775 0.73684 0.89024
 C674 C 0.44424 0.76119 0.90989
 H675 H 0.42828 0.75479 0.91026
 N676 N 0.48098 0.75908 0.89716
 C677 C 0.53975 0.72208 0.88300
 H678 H 0.53757 0.72016 0.86639
 C679 C 0.55760 0.71271 0.89239
 H680 H 0.56900 0.70335 0.88291
 C681 C 0.52729 0.73654 0.91546
 H682 H 0.51543 0.74595 0.92429
 C683 C 0.54498 0.72732 0.92556
 H684 H 0.54674 0.72983 0.94217
 Zn685 Zn 0.50267 0.74673 0.87919
 N686 N 0.52527 0.73404 0.89447
 C687 C 0.53572 0.77116 0.86147
 N688 N 0.51411 0.76799 0.86174
 C689 C 0.50047 0.78048 0.85056
 C690 C 0.50855 0.79674 0.83826
 C691 C 0.54446 0.78707 0.84933
 C692 C 0.48599 0.70761 0.87334
 C693 C 0.47804 0.69084 0.86254
 C694 C 0.48013 0.71116 0.83063
 C695 C 0.48823 0.72753 0.84204
 N696 N 0.49085 0.72551 0.86304
 H697 H 0.54629 0.76156 0.87089
 H698 H 0.48329 0.77789 0.85132
 H699 H 0.49752 0.80647 0.82935
 H700 H 0.56168 0.78944 0.84956
 H701 H 0.48844 0.70635 0.89001
 H702 H 0.47413 0.67678 0.87107
 H703 H 0.47830 0.71291 0.81389
 H704 H 0.49256 0.74172 0.83406
 C705 C 0.56059 0.71551 0.91387
 C706 C 0.44798 0.78017 0.91968
 C707 C 0.47505 0.69248 0.84089
 C708 C 0.53086 0.80011 0.83750
 C709 C 0.47287 -0.17996 0.35261
 C710 C 0.46910 -0.16065 0.34290
 C711 C 0.45102 -0.15728 0.33056
 C712 C 0.43668 -0.17352 0.32803
 C713 C 0.44046 -0.19281 0.33767
 C714 C 0.45859 -0.19628 0.35008
 N715 N 0.44756 -0.13741 0.32065
 N716 N 0.43085 -0.13356 0.31001
 C717 C 0.42666 -0.11411 0.29963
 C718 C 0.40736 -0.11148 0.28905
 C719 C 0.40258 -0.09296 0.27846
 C720 C 0.41716 -0.07663 0.27808
 C721 C 0.43652 -0.07918 0.28892
 C722 C 0.44127 -0.09783 0.29961
 H723 H 0.48684 -0.18205 0.36228
 H724 H 0.48025 -0.14828 0.34502
 H725 H 0.42263 -0.17139 0.31849
 H726 H 0.42935 -0.20513 0.33511
 H727 H 0.39594 -0.12388 0.28908
 H728 H 0.38729 -0.09135 0.27074
 H729 H 0.44808 -0.06692 0.28886
 H730 H 0.45633 -0.09956 0.30769
 C731 C 0.93675 0.30566 0.84330
 C732 C 0.93279 0.32341 0.83117
 C733 C 0.94814 0.33871 0.82907
 C734 C 0.96778 0.33609 0.83928
 C735 C 0.97190 0.31825 0.85144
 C736 C 0.95640 0.30263 0.85380
 N737 N 0.94314 0.35661 0.81647
 N738 N 0.95576 0.37168 0.81366
 C739 C 0.94960 0.38921 0.80088
 C740 C 0.96327 0.40608 0.79878
 C741 C 0.95719 0.42357 0.78682
 C742 C 0.93734 0.42434 0.77667
 C743 C 0.92379 0.40728 0.77870
 C744 C 0.92984 0.38993 0.79063
 H745 H 0.92458 0.29398 0.84351
 H746 H 0.91766 0.32518 0.82317
 H747 H 0.97987 0.34785 0.83796
 H748 H 0.98697 0.31728 0.85954
 H749 H 0.97856 0.40575 0.80657
 H750 H 0.96799 0.43643 0.78548
 H751 H 0.90820 0.40753 0.77149
 H752 H 0.91890 0.37717 0.79201
 C753 C 0.06188 1.19655 0.85817
 C754 C 0.06778 1.17796 0.84799
 C755 C 0.05241 1.16321 0.84414
 C756 C 0.03086 1.16712 0.85078
 C757 C 0.02482 1.18577 0.86098
 C758 C 0.04022 1.20099 0.86484
 N759 N 0.05924 1.14474 0.83300
 N760 N 0.04665 1.13022 0.82867
 C761 C 0.05454 1.11232 0.81704
 C762 C 0.04055 1.09627 0.81283
 C763 C 0.04795 1.07890 0.80109
 C764 C 0.06943 1.07749 0.79326
 C765 C 0.08342 1.09353 0.79776
 C766 C 0.07609 1.11073 0.80948
 H767 H 0.07436 1.20774 0.85970
 H768 H 0.08442 1.17517 0.84272
 H769 H 0.01870 1.15580 0.84807
 H770 H 0.00815 1.18777 0.86635
 H771 H 0.02390 1.09728 0.81854
 H772 H 0.03682 1.06677 0.79784
 H773 H 0.10018 1.09268 0.79234
 H774 H 0.08731 1.12282 0.81256
 C775 C 0.56274 0.69607 0.34101
 C776 C 0.56905 0.67736 0.33130
 C777 C 0.55579 0.66022 0.33261
 C778 C 0.53591 0.66195 0.34381
 C779 C 0.52956 0.68073 0.35368
 C780 C 0.54300 0.69797 0.35246
 N781 N 0.56320 0.64138 0.32247
 N782 N 0.55214 0.62508 0.32165
 C783 C 0.56080 0.60676 0.31121
 C784 C 0.54771 0.58967 0.30854
 C785 C 0.55582 0.57192 0.29781
 C786 C 0.57720 0.57106 0.28961
 C787 C 0.59037 0.58808 0.29280
 C788 C 0.58227 0.60573 0.30338
 H789 H 0.57325 0.70914 0.33934
 H790 H 0.58435 0.67621 0.32260
 H791 H 0.52542 0.64884 0.34505
 H792 H 0.51434 0.68168 0.36250
 H793 H 0.53115 0.59022 0.31453
 H794 H 0.54527 0.55908 0.29557
 H795 H 0.60707 0.58773 0.28720
 H796 H 0.59286 0.61858 0.30542
 C797 C 0.51724 0.31629 0.15682
 C798 C 0.52025 0.33529 0.16676
 C799 C 0.53431 0.34974 0.15789
 C800 C 0.54484 0.34524 0.13851
 C801 C 0.54189 0.32628 0.12860
 C802 C 0.52837 0.31143 0.13782
 N803 N 0.53879 0.36813 0.16937
 N804 N 0.55212 0.38123 0.16220
 C805 C 0.55819 0.39906 0.17371
 C806 C 0.57424 0.41151 0.16497
 C807 C 0.58252 0.42759 0.17655
 C808 C 0.57475 0.43159 0.19710
 C809 C 0.55786 0.41977 0.20554
 C810 C 0.54969 0.40349 0.19396
 H811 H 0.50685 0.30509 0.16437
 H812 H 0.51210 0.33851 0.18171
 H813 H 0.55575 0.35615 0.13126
 H814 H 0.55042 0.32309 0.11383
 H815 H 0.58088 0.40825 0.14939
 H816 H 0.59534 0.43665 0.16959
 H817 H 0.55168 0.42252 0.22138
 H818 H 0.53726 0.39404 0.20102
 C819 C 0.01937 0.82401 0.64494
 C820 C 0.02188 0.84286 0.65536
 C821 C 0.04072 0.84636 0.66608
 C822 C 0.05712 0.83074 0.66629
 C823 C 0.05482 0.81204 0.65572
 C824 C 0.03594 0.80826 0.64470
 N825 N 0.04329 0.86601 0.67612
 N826 N 0.05923 0.86876 0.68776
 C827 C 0.06346 0.88819 0.69738
 C828 C 0.08125 0.88896 0.71021
 C829 C 0.08739 0.90784 0.71837
 C830 C 0.07585 0.92644 0.71376
 C831 C 0.05737 0.92560 0.70159
 C832 C 0.05123 0.90656 0.69336
 H833 H 0.00479 0.82236 0.63630
 H834 H 0.00917 0.85485 0.65490
 H835 H 0.07185 0.83298 0.67455
 H836 H 0.06769 0.80033 0.65699
 H837 H 0.09073 0.87489 0.71346
 H838 H 0.10145 0.90797 0.72803
 H839 H 0.04824 0.93972 0.69778
 H840 H 0.03740 0.90628 0.68343
 C841 C 0.94182 0.70307 0.65105
 C842 C 0.93735 0.68457 0.66159
 C843 C 0.95187 0.66745 0.66024
 C844 C 0.97121 0.66905 0.64830
 C845 C 0.97580 0.68766 0.63780
 C846 C 0.96105 0.70482 0.63897
 N847 N 0.94622 0.64867 0.67091
 N848 N 0.95767 0.63184 0.66991
 C849 C 0.95078 0.61343 0.68065
 C850 C 0.96227 0.59448 0.67742
 C851 C 0.95479 0.57607 0.68655
 C852 C 0.93564 0.57643 0.69901
 C853 C 0.92469 0.59562 0.70287
 C854 C 0.93211 0.61390 0.69377
 H855 H 0.93033 0.71612 0.65253
 H856 H 0.92243 0.68351 0.67080
 H857 H 0.98266 0.65596 0.64702
 H858 H 0.99068 0.68856 0.62851
 H859 H 0.97671 0.59390 0.66739
 H860 H 0.96352 0.56150 0.68327
 H861 H 0.91017 0.59647 0.71279
 H862 H 0.92304 0.62834 0.69676
 C863 C 0.43816 0.20221 0.15299
 C864 C 0.43399 0.18421 0.16452
 C865 C 0.44847 0.16704 0.16357
 C866 C 0.46754 0.16813 0.15112
 C867 C 0.47185 0.18627 0.13966
 C868 C 0.45706 0.20340 0.14034
 N869 N 0.44290 0.14867 0.17499
 N870 N 0.45403 0.13164 0.17421
 C871 C 0.44691 0.11366 0.18556
 C872 C 0.45741 0.09424 0.18208
 C873 C 0.44915 0.07617 0.19128
 C874 C 0.43024 0.07738 0.20406
 C875 C 0.42049 0.09702 0.20840
 C876 C 0.42869 0.11495 0.19924
 H877 H 0.42667 0.21528 0.15409
 H878 H 0.41928 0.18354 0.17410
 H879 H 0.47895 0.15499 0.15015
 H880 H 0.48651 0.18680 0.12998
 H881 H 0.47150 0.09301 0.17162
 H882 H 0.45694 0.06121 0.18766
 H883 H 0.40615 0.09846 0.21853
 H884 H 0.42040 0.12976 0.20245
 C885 C 0.34543 0.48682 -0.18211
 C886 C 0.33391 0.48430 -0.16312
 C887 C 0.34033 0.46898 -0.14881
 C888 C 0.35873 0.45630 -0.15352
 C889 C 0.37011 0.45853 -0.17260
 C890 C 0.36354 0.47367 -0.18748
 N891 N 0.32723 0.46575 -0.13024
 N892 N 0.33338 0.45366 -0.11558
 C893 C 0.31977 0.44919 -0.09767
 C894 C 0.32838 0.43735 -0.08128
 C895 C 0.31510 0.43099 -0.06450
 C896 C 0.29285 0.43620 -0.06399
 C897 C 0.28433 0.44859 -0.08017
 C898 C 0.29770 0.45513 -0.09684
 H899 H 0.33914 0.49828 -0.19300
 H900 H 0.31963 0.49406 -0.15975
 H901 H 0.36408 0.44437 -0.14263
 H902 H 0.38437 0.44859 -0.17535
 H903 H 0.34533 0.43258 -0.08180
 H904 H 0.32204 0.42123 -0.05240
 H905 H 0.26727 0.45291 -0.08009
 H906 H 0.29065 0.46424 -0.10937
 C907 C 0.83937 0.97513 0.30872
 C908 C 0.82827 0.97228 0.32787
 C909 C 0.83522 0.95693 0.34192
 C910 C 0.85349 0.94430 0.33660
 C911 C 0.86445 0.94686 0.31732
 C912 C 0.85761 0.96234 0.30291
 N913 N 0.82294 0.95389 0.36103
 N914 N 0.82984 0.94222 0.37571
 C915 C 0.81704 0.93825 0.39431
 C916 C 0.82634 0.92679 0.41061
 C917 C 0.81382 0.92109 0.42819
 C918 C 0.79165 0.92660 0.42961
 C919 C 0.78248 0.93864 0.41351
 C920 C 0.79508 0.94451 0.39604
 H921 H 0.83280 0.98675 0.29814
 H922 H 0.81403 0.98195 0.33169
 H923 H 0.85918 0.93229 0.34724
 H924 H 0.87874 0.93708 0.31419
 H925 H 0.84322 0.92181 0.40943
 H926 H 0.82124 0.91159 0.44023
 H927 H 0.76546 0.94317 0.41427
 H928 H 0.78751 0.95336 0.38363
 C929 C 0.87569 0.05060 1.17992
 C930 C 0.86781 0.05487 1.16007
 C931 C 0.85165 0.04296 1.15196
 C932 C 0.84383 0.02613 1.16367
 C933 C 0.85174 0.02171 1.18357
 C934 C 0.86753 0.03418 1.19236
 N935 N 0.84286 0.04907 1.13231
 N936 N 0.82779 0.03953 1.12374
 C937 C 0.81881 0.04698 1.10456
 C938 C 0.80223 0.03615 1.09554
 C939 C 0.79223 0.04397 1.07761
 C940 C 0.79867 0.06285 1.06844
 C941 C 0.81562 0.07342 1.07738
 C942 C 0.82560 0.06557 1.09517
 H943 H 0.88858 0.06005 1.18516
 H944 H 0.87414 0.06775 1.15105
 H945 H 0.83123 0.01675 1.15771
 H946 H 0.84439 0.00925 1.19239
 H947 H 0.79682 0.02180 1.10261
 H948 H 0.77938 0.03534 1.07102
 H949 H 0.82071 0.08820 1.07108
 H950 H 0.83828 0.07435 1.10187
 C951 C 0.34521 0.52784 0.69418
 C952 C 0.33521 0.52998 0.67495
 C953 C 0.34515 0.54078 0.65840
 C954 C 0.36547 0.54928 0.66120
 C955 C 0.37544 0.54729 0.68051
 C956 C 0.36533 0.53666 0.69724
 N957 N 0.33371 0.54385 0.63944
 N958 N 0.34207 0.55242 0.62324
 C959 C 0.32988 0.55656 0.60488
 C960 C 0.34007 0.56561 0.58736
 C961 C 0.32809 0.57180 0.57005
 C962 C 0.30564 0.56918 0.57011
 C963 C 0.29561 0.55933 0.58737
 C964 C 0.30762 0.55303 0.60458
 H965 H 0.33693 0.51979 0.70685
 H966 H 0.31949 0.52350 0.67302
 H967 H 0.37343 0.55777 0.64865
 H968 H 0.39103 0.55407 0.68239
 H969 H 0.35720 0.56846 0.58741
 H970 H 0.33619 0.57953 0.55705
 H971 H 0.27838 0.55695 0.58773
 H972 H 0.29935 0.54602 0.61790
 C973 C 0.12091 0.54793 0.33328
 C974 C 0.13023 0.55194 0.35240
 C975 C 0.15046 0.54308 0.35706
 C976 C 0.16114 0.52960 0.34255
 C977 C 0.15178 0.52549 0.32339
 C978 C 0.13172 0.53489 0.31844
 N979 N 0.16017 0.54901 0.37608
 N980 N 0.17884 0.54239 0.38134
 C981 C 0.18845 0.54967 0.39996
 C982 C 0.20952 0.54290 0.40458
 C983 C 0.21999 0.55137 0.42152
 C984 C 0.20951 0.56685 0.43401
 C985 C 0.18806 0.57295 0.42984
 C986 C 0.17762 0.56447 0.41300
 H987 H 0.10531 0.55515 0.33001
 H988 H 0.12185 0.56234 0.36348
 H989 H 0.17684 0.52262 0.34580
 H990 H 0.16053 0.51551 0.31219
 H991 H 0.21805 0.53152 0.39465
 H992 H 0.23656 0.54646 0.42433
 H993 H 0.17946 0.58459 0.43942
 H994 H 0.16129 0.56989 0.40989
 C995 C 0.65201 0.02051 0.81895
 C996 C 0.66208 0.02379 0.83791
 C997 C 0.65625 0.04109 0.85025
 C998 C 0.63975 0.05490 0.84368
 C999 C 0.62965 0.05172 0.82478
 C1000 C 0.63578 0.03464 0.81175
 N1001 N 0.66774 0.04473 0.86896
 N1002 N 0.66358 0.06080 0.88014
 C1003 C 0.67507 0.06536 0.89858
 C1004 C 0.66965 0.08380 0.90928
 C1005 C 0.68099 0.08938 0.92680
 C1006 C 0.69803 0.07650 0.93408
 C1007 C 0.70334 0.05781 0.92340
 C1008 C 0.69195 0.05226 0.90577
 H1009 H 0.65800 0.00747 0.80957
 H1010 H 0.67486 0.01306 0.84274
 H1011 H 0.63470 0.06827 0.85310
 H1012 H 0.61663 0.06254 0.82082
 H1013 H 0.65677 0.09408 0.90379
 H1014 H 0.67675 0.10409 0.93433
 H1015 H 0.71623 0.04746 0.92870
 H1016 H 0.69642 0.03788 0.89772
 C1017 C 0.65625 0.97215 0.69558
 C1018 C 0.66583 0.96888 0.67569
 C1019 C 0.65523 0.95771 0.66058
 C1020 C 0.63471 0.94996 0.66553
 C1021 C 0.62515 0.95315 0.68543
 C1022 C 0.63587 0.96418 0.70071
 N1023 N 0.66594 0.95369 0.64071
 N1024 N 0.65695 0.94387 0.62630
 C1025 C 0.66777 0.93879 0.60674
 C1026 C 0.65701 0.92700 0.59227
 C1027 C 0.66771 0.91994 0.57394
 C1028 C 0.68944 0.92463 0.56975
 C1029 C 0.69995 0.93728 0.58385
 C1030 C 0.68923 0.94426 0.60226
 H1031 H 0.66498 0.98052 0.70710
 H1032 H 0.68169 0.97482 0.67212
 H1033 H 0.62618 0.94125 0.65412
 H1034 H 0.60932 0.94707 0.68884
 H1035 H 0.64046 0.92274 0.59551
 H1036 H 0.65913 0.91044 0.56322
 H1037 H 0.71674 0.94099 0.58109
 H1038 H 0.69788 0.95339 0.61324
 C1039 C 0.15189 0.44260 0.20894
 C1040 C 0.16278 0.43788 0.19003
 C1041 C 0.16057 0.45102 0.17266
 C1042 C 0.14760 0.46935 0.17450
 C1043 C 0.13669 0.47417 0.19353
 C1044 C 0.13850 0.46065 0.21084
 N1045 N 0.17108 0.44476 0.15331
 N1046 N 0.16993 0.45525 0.13639
 C1047 C 0.18022 0.44759 0.11737
 C1048 C 0.17862 0.45928 0.09885
 C1049 C 0.18760 0.45146 0.07992
 C1050 C 0.19814 0.43172 0.07929
 C1051 C 0.20014 0.42030 0.09799
 C1052 C 0.19130 0.42812 0.11681
 H1053 H 0.15390 0.43208 0.22210
 H1054 H 0.17279 0.42375 0.18879
 H1055 H 0.14565 0.47972 0.16122
 H1056 H 0.12641 0.48813 0.19455
 H1057 H 0.17013 0.47430 0.09904
 H1058 H 0.18580 0.46055 0.06572
 H1059 H 0.20853 0.40522 0.09805
 H1060 H 0.19290 0.41878 0.13087
 C1061 C -0.19486 0.34349 0.47657
 C1062 C -0.17588 0.33143 0.47309
 C1063 C -0.15894 0.33901 0.46055
 C1064 C -0.16107 0.35902 0.45165
 C1065 C -0.18014 0.37103 0.45496
 C1066 C -0.19728 0.36331 0.46734
 N1067 N -0.14030 0.32572 0.45621
 N1068 N -0.12369 0.33208 0.44618
 C1069 C -0.10559 0.31846 0.44077
 C1070 C -0.08748 0.32676 0.43057
 C1071 C -0.07033 0.31367 0.42340
 C1072 C -0.07113 0.29198 0.42620
 C1073 C -0.08905 0.28374 0.43701
 C1074 C -0.10612 0.29686 0.44430
 H1075 H -0.20791 0.33706 0.48598
 H1076 H -0.17448 0.31600 0.47992
 H1077 H -0.14822 0.36520 0.44183
 H1078 H -0.18152 0.38632 0.44781
 H1079 H -0.08691 0.34336 0.42768
 H1080 H -0.05688 0.32045 0.41489
 H1081 H -0.09000 0.26711 0.43953
 H1082 H -0.11995 0.29006 0.45215
 C1083 C 0.31973 0.87989 0.94490
 C1084 C 0.34002 0.87042 0.94062
 C1085 C 0.34657 0.85238 0.95127
 C1086 C 0.33282 0.84418 0.96690
 C1087 C 0.31259 0.85376 0.97147
 C1088 C 0.30541 0.87163 0.96026
 N1089 N 0.36684 0.84232 0.94534
 N1090 N 0.37262 0.82446 0.95233
 C1091 C 0.39257 0.81423 0.94565
 C1092 C 0.39622 0.79324 0.95088
 C1093 C 0.41457 0.78226 0.94296
 C1094 C 0.42975 0.79224 0.92990
 C1095 C 0.42652 0.81354 0.92539
 C1096 C 0.40803 0.82443 0.93309
 H1097 H 0.31568 0.89405 0.93645
 H1098 H 0.35059 0.87701 0.92867
 H1099 H 0.33753 0.83018 0.97535
 H1100 H 0.30224 0.84632 0.98301
 H1101 H 0.38446 0.78521 0.96057
 H1102 H 0.41676 0.76590 0.94679
 H1103 H 0.43785 0.82155 0.91519
 H1104 H 0.40561 0.84067 0.92888
 C1105 C 1.17969 0.85911 0.02004
 C1106 C 1.16091 0.84807 0.02427
 C1107 C 1.15668 0.83987 0.04424
 C1108 C 1.17163 0.84263 0.05996
 C1109 C 1.19031 0.85365 0.05585
 C1110 C 1.19472 0.86238 0.03585
 N1111 N 1.13719 0.82887 0.04838
 N1112 N 1.13299 0.82145 0.06652
 C1113 C 1.11393 0.81034 0.07186
 C1114 C 1.11161 0.80254 0.09223
 C1115 C 1.09350 0.79141 0.09825
 C1116 C 1.07725 0.78783 0.08394
 C1117 C 1.07941 0.79596 0.06349
 C1118 C 1.09770 0.80709 0.05744
 H1119 H 1.18173 0.86582 0.00456
 H1120 H 1.14949 0.84611 0.01199
 H1121 H 1.16896 0.83619 0.07549
 H1122 H 1.20159 0.85450 0.06837
 H1123 H 1.12395 0.80508 0.10349
 H1124 H 1.09211 0.78575 0.11423
 H1125 H 1.06716 0.79339 0.05214
 H1126 H 1.09917 0.81307 0.04159
 C1127 C 0.67304 0.37031 0.52718
 C1128 C 0.65411 0.35953 0.53155
 C1129 C 0.65200 0.34760 0.54988
 C1130 C 0.66912 0.34655 0.56383
 C1131 C 0.68795 0.35726 0.55951
 C1132 C 0.69014 0.36933 0.54119
 N1133 N 0.63253 0.33664 0.55415
 N1134 N 0.63026 0.32591 0.57083
 C1135 C 0.61137 0.31458 0.57619
 C1136 C 0.61082 0.30375 0.59520
 C1137 C 0.59280 0.29252 0.60128
 C1138 C 0.57488 0.29179 0.58834
 C1139 C 0.57540 0.30277 0.56919
 C1140 C 0.59355 0.31408 0.56312
 H1141 H 0.67422 0.37957 0.51299
 H1142 H 0.64106 0.36049 0.52066
 H1143 H 0.66802 0.33737 0.57807
 H1144 H 0.70098 0.35581 0.57040
 H1145 H 0.62442 0.30413 0.60544
 H1146 H 0.59277 0.28468 0.61634
 H1147 H 0.56189 0.30244 0.55886
 H1148 H 0.59367 0.32237 0.54831
 C1149 C 0.32585 0.12274 0.55160
 C1150 C 0.34531 0.13135 0.55690
 C1151 C 0.35108 0.15074 0.54889
 C1152 C 0.33741 0.16127 0.53489
 C1153 C 0.31790 0.15263 0.52950
 C1154 C 0.31175 0.13344 0.53811
 N1155 N 0.37023 0.15978 0.55624
 N1156 N 0.37653 0.17758 0.55030
 C1157 C 0.39513 0.18655 0.55899
 C1158 C 0.40123 0.20639 0.55240
 C1159 C 0.41817 0.21621 0.56197
 C1160 C 0.42915 0.20632 0.57842
 C1161 C 0.42346 0.18612 0.58448
 C1162 C 0.40664 0.17632 0.57488
 H1163 H 0.32169 0.10779 0.55822
 H1164 H 0.35574 0.12309 0.56768
 H1165 H 0.34153 0.17633 0.52854
 H1166 H 0.30728 0.16128 0.51919
 H1167 H 0.39248 0.21447 0.54021
 H1168 H 0.42214 0.23182 0.55707
 H1169 H 0.43186 0.17799 0.59688
 H1170 H 0.40234 0.16094 0.58023
 C1171 C 0.82594 0.61872 0.05018
 C1172 C 0.84548 0.62741 0.05506
 C1173 C 0.85302 0.64459 0.04394
 C1174 C 0.84110 0.65270 0.02727
 C1175 C 0.82157 0.64390 0.02214
 C1176 C 0.81332 0.62697 0.03383
 N1177 N 0.87229 0.65387 0.05067
 N1178 N 0.87969 0.67050 0.04274
 C1179 C 0.89851 0.67958 0.05090
 C1180 C 0.90484 0.69912 0.04359
 C1181 C 0.92178 0.70920 0.05292
 C1182 C 0.93258 0.69982 0.06976
 C1183 C 0.92685 0.67979 0.07634
 C1184 C 0.90999 0.66978 0.06706
 H1185 H 0.82114 0.60515 0.05904
 H1186 H 0.85468 0.62088 0.06781
 H1187 H 0.84663 0.66607 0.01849
 H1188 H 0.81251 0.65125 0.00976
 H1189 H 0.89615 0.70686 0.03114
 H1190 H 0.92582 0.72466 0.04757
 H1191 H 0.93517 0.67199 0.08899
 H1192 H 0.90562 0.65459 0.07289
 C1193 C 0.70937 0.65129 0.93711
 C1194 C 0.69112 0.66333 0.93198
 C1195 C 0.67245 0.66328 0.94487
 C1196 C 0.67234 0.65132 0.96337
 C1197 C 0.69071 0.63928 0.96861
 C1198 C 0.70931 0.63894 0.95535
 N1199 N 0.65376 0.67492 0.93821
 N1200 N 0.63571 0.67544 0.94835
 C1201 C 0.61732 0.68676 0.94039
 C1202 C 0.59741 0.68637 0.95142
 C1203 C 0.57895 0.69616 0.94316
 C1204 C 0.58020 0.70639 0.92365
 C1205 C 0.60034 0.70727 0.91297
 C1206 C 0.61870 0.69757 0.92122
 H1207 H 0.72358 0.65161 0.92678
 H1208 H 0.69139 0.67253 0.91771
 H1209 H 0.65804 0.65105 0.97356
 H1210 H 0.69020 0.62984 0.98271
 H1211 H 0.59610 0.67810 0.96620
 H1212 H 0.56362 0.69518 0.95168
 H1213 H 0.60188 0.71537 0.89811
 H1214 H 0.63389 0.69826 0.91241
 C1215 C 0.19528 0.15621 0.47185
 C1216 C 0.17508 0.16565 0.46807
 C1217 C 0.16063 0.15605 0.45510
 C1218 C 0.16649 0.13664 0.44614
 C1219 C 0.18669 0.12723 0.44984
 C1220 C 0.20139 0.13699 0.46258
 N1221 N 0.14057 0.16666 0.45054
 N1222 N 0.12686 0.15862 0.43886
 C1223 C 0.10720 0.16932 0.43327
 C1224 C 0.09356 0.15959 0.41960
 C1225 C 0.07523 0.17019 0.41227
 C1226 C 0.07019 0.19078 0.41853
 C1227 C 0.08345 0.20027 0.43291
 C1228 C 0.10187 0.18965 0.44019
 H1229 H 0.20635 0.16419 0.48157
 H1230 H 0.17080 0.18065 0.47500
 H1231 H 0.15560 0.12888 0.43606
 H1232 H 0.19082 0.11228 0.44273
 H1233 H 0.09747 0.14391 0.41421
 H1234 H 0.06515 0.16238 0.40143
 H1235 H 0.08005 0.21618 0.43788
 H1236 H 0.11219 0.19750 0.45076
 C1237 C 0.60682 0.06864 0.72779
 C1238 C 0.59838 0.08571 0.71672
 C1239 C 0.58404 0.10010 0.72661
 C1240 C 0.57845 0.09746 0.74795
 C1241 C 0.58703 0.08047 0.75911
 C1242 C 0.60116 0.06580 0.74908
 N1243 N 0.57529 0.11705 0.71455
 N1244 N 0.56074 0.12975 0.72184
 C1245 C 0.55212 0.14653 0.70942
 C1246 C 0.53473 0.15881 0.71750
 C1247 C 0.52566 0.17497 0.70551
 C1248 C 0.53395 0.17918 0.68521
 C1249 C 0.55164 0.16697 0.67729
 C1250 C 0.56059 0.15077 0.68923
 H1251 H 0.61786 0.05771 0.71975
 H1252 H 0.60287 0.08763 0.70030
 H1253 H 0.56741 0.10842 0.75594
 H1254 H 0.58231 0.07856 0.77547
 H1255 H 0.52802 0.15567 0.73302
 H1256 H 0.51191 0.18391 0.71200
 H1257 H 0.55872 0.17004 0.66191
 H1258 H 0.57414 0.14161 0.68268
 C1259 C 1.08708 0.58196 0.26714
 C1260 C 1.07769 0.59899 0.25670
 C1261 C 1.07534 0.59857 0.23506
 C1262 C 1.08280 0.58094 0.22378
 C1263 C 1.09251 0.56398 0.23408
 C1264 C 1.09484 0.56400 0.25608
 N1265 N 1.06557 0.61628 0.22491
 N1266 N 1.05958 0.61558 0.20605
 C1267 C 1.05029 0.63338 0.19565
 C1268 C 1.04097 0.63070 0.17625
 C1269 C 1.03218 0.64777 0.16544
 C1270 C 1.03287 0.66801 0.17372
 C1271 C 1.04217 0.67061 0.19333
 C1272 C 1.05071 0.65345 0.20425
 H1273 H 1.08733 0.58286 0.28402
 H1274 H 1.07184 0.61246 0.26560
 H1275 H 1.08147 0.58041 0.20692
 H1276 H 1.09885 0.55130 0.22439
 H1277 H 1.04047 0.61529 0.16951
 H1278 H 1.02476 0.64508 0.15061
 H1279 H 1.04331 0.68595 0.20004
 H1280 H 1.05799 0.65592 0.21919
 C1281 C 0.92177 0.93441 0.23304
 C1282 C 0.93228 0.91752 0.22289
 C1283 C 0.92254 0.89821 0.22222
 C1284 C 0.90211 0.89591 0.23204
 C1285 C 0.89161 0.91277 0.24228
 C1286 C 0.90129 0.93224 0.24281
 N1287 N 0.93359 0.88136 0.21128
 N1288 N 0.92528 0.86366 0.20933
 C1289 C 0.93621 0.84687 0.19819
 C1290 C 0.92552 0.82826 0.19569
 C1291 C 0.93543 0.81178 0.18438
 C1292 C 0.95633 0.81361 0.17543
 C1293 C 0.96717 0.83223 0.17823
 C1294 C 0.95719 0.84875 0.18946
 H1295 H 0.92972 0.94915 0.23341
 H1296 H 0.94803 0.91949 0.21542
 H1297 H 0.89423 0.88114 0.23171
 H1298 H 0.87575 0.91070 0.24946
 H1299 H 0.90938 0.82659 0.20239
 H1300 H 0.92678 0.79754 0.18271
 H1301 H 0.98318 0.83419 0.17133
 H1302 H 0.96579 0.86300 0.19117
 C1303 C 0.41708 0.42547 0.76424
 C1304 C 0.42637 0.40759 0.75475
 C1305 C 0.42255 0.40322 0.73376
 C1306 C 0.40932 0.41702 0.72228
 C1307 C 0.40010 0.43492 0.73171
 C1308 C 0.40387 0.43934 0.75280
 N1309 N 0.43223 0.38475 0.72449
 N1310 N 0.42869 0.37964 0.70571
 C1311 C 0.43827 0.36128 0.69615
 C1312 C 0.43284 0.35645 0.67569
 C1313 C 0.44181 0.33867 0.66583
 C1314 C 0.45648 0.32540 0.67629
 C1315 C 0.46199 0.33034 0.69684
 C1316 C 0.45293 0.34811 0.70672
 H1317 H 0.42043 0.42858 0.78045
 H1318 H 0.43656 0.39710 0.76375
 H1319 H 0.40608 0.41397 0.70604
 H1320 H 0.38977 0.44517 0.72259
 H1321 H 0.42163 0.36653 0.66736
 H1322 H 0.43749 0.33546 0.64989
 H1323 H 0.47309 0.32031 0.70535
 H1324 H 0.45736 0.35153 0.72257
 C1325 C 0.39193 0.59044 0.75415
 C1326 C 0.40048 0.60789 0.76345
 C1327 C 0.41889 0.60581 0.77553
 C1328 C 0.42890 0.58602 0.77802
 C1329 C 0.42044 0.56859 0.76866
 C1330 C 0.40177 0.57056 0.75673
 N1331 N 0.42693 0.62388 0.78533
 N1332 N 0.44264 0.62262 0.79771
 C1333 C 0.45079 0.64044 0.80782
 C1334 C 0.46687 0.63738 0.82252
 C1335 C 0.47484 0.65429 0.83316
 C1336 C 0.46691 0.67465 0.82915
 C1337 C 0.45100 0.67774 0.81412
 C1338 C 0.44291 0.66077 0.80358
 H1339 H 0.37738 0.59247 0.74529
 H1340 H 0.39258 0.62305 0.76145
 H1341 H 0.44324 0.58401 0.78718
 H1342 H 0.42864 0.55358 0.77065
 H1343 H 0.47312 0.62180 0.82586
 H1344 H 0.48730 0.65146 0.84445
 H1345 H 0.44450 0.69324 0.81083
 H1346 H 0.43048 0.66351 0.79225
 C1347 C -0.11077 0.06556 0.27883
 C1348 C -0.10335 0.08232 0.29014
 C1349 C -0.08877 0.09601 0.28083
 C1350 C -0.08172 0.09284 0.25991
 C1351 C -0.08922 0.07617 0.24854
 C1352 C -0.10378 0.06232 0.25790
 N1353 N -0.08130 0.11287 0.29295
 N1354 N -0.06708 0.12513 0.28584
 C1355 C -0.05955 0.14194 0.29800
 C1356 C -0.04251 0.15360 0.28994
 C1357 C -0.03434 0.16971 0.30165
 C1358 C -0.04324 0.17453 0.32167
 C1359 C -0.06064 0.16299 0.32956
 C1360 C -0.06869 0.14681 0.31787
 H1361 H -0.12216 0.05528 0.28637
 H1362 H -0.10893 0.08462 0.30624
 H1363 H -0.07043 0.10321 0.25235
 H1364 H -0.08340 0.07392 0.23250
 H1365 H -0.03531 0.14996 0.27465
 H1366 H -0.02075 0.17806 0.29522
 H1367 H -0.06812 0.16652 0.34474
 H1368 H -0.08200 0.13812 0.32438
 C1369 C 0.07421 0.43732 0.28196
 C1370 C 0.06379 0.42055 0.29140
 C1371 C 0.07348 0.40054 0.29089
 C1372 C 0.09399 0.39752 0.28110
 C1373 C 0.10444 0.41425 0.27171
 C1374 C 0.09459 0.43431 0.27184
 N1375 N 0.06221 0.38356 0.30025
 N1376 N 0.06984 0.36492 0.29927
 C1377 C 0.05891 0.34772 0.30856
 C1378 C 0.06858 0.32779 0.30683
 C1379 C 0.05870 0.31067 0.31612
 C1380 C 0.03889 0.31324 0.32735
 C1381 C 0.02904 0.33326 0.32881
 C1382 C 0.03896 0.35038 0.31951
 H1383 H 0.06611 0.45253 0.28214
 H1384 H 0.04799 0.42308 0.29891
 H1385 H 0.10192 0.38224 0.28064
 H1386 H 0.12028 0.41149 0.26438
 H1387 H 0.08390 0.32554 0.29835
 H1388 H 0.06655 0.29542 0.31449
 H1389 H 0.01391 0.33577 0.33757
 H1390 H 0.03118 0.36567 0.32107
 C1391 C 0.57576 0.93941 0.77460
 C1392 C 0.56516 0.92290 0.78433
 C1393 C 0.57398 0.90259 0.78304
 C1394 C 0.59368 0.89892 0.77188
 C1395 C 0.60429 0.91540 0.76213
 C1396 C 0.59544 0.93583 0.76335
 N1397 N 0.56280 0.88604 0.79330
 N1398 N 0.57006 0.86726 0.79265
 C1399 C 0.55927 0.85058 0.80309
 C1400 C 0.56903 0.83063 0.80250
 C1401 C 0.55957 0.81415 0.81332
 C1402 C 0.54005 0.81734 0.82489
 C1403 C 0.52995 0.83729 0.82502
 C1404 C 0.53951 0.85382 0.81426
 H1405 H 0.56839 0.95492 0.77559
 H1406 H 0.55000 0.92594 0.79287
 H1407 H 0.60090 0.88337 0.77073
 H1408 H 0.61955 0.91218 0.75382
 H1409 H 0.58421 0.82793 0.79387
 H1410 H 0.56758 0.79890 0.81270
 H1411 H 0.51501 0.84025 0.83395
 H1412 H 0.53164 0.86912 0.81492
 C1413 C 0.72548 0.58888 0.05799
 C1414 C 0.71392 0.57904 0.07415
 C1415 C 0.72444 0.57121 0.09168
 C1416 C 0.74684 0.57301 0.09280
 C1417 C 0.75855 0.58254 0.07656
 C1418 C 0.74815 0.59089 0.05877
 N1419 N 0.71202 0.56144 0.10804
 N1420 N 0.71973 0.55725 0.12589
 C1421 C 0.70723 0.54731 0.14209
 C1422 C 0.71435 0.54747 0.16266
 C1423 C 0.70200 0.53867 0.17893
 C1424 C 0.68241 0.52921 0.17483
 C1425 C 0.67573 0.52851 0.15397
 C1426 C 0.68790 0.53761 0.13780
 H1427 H 0.71622 0.59554 0.04540
 H1428 H 0.69658 0.57785 0.07319
 H1429 H 0.75540 0.56672 0.10607
 H1430 H 0.77591 0.58250 0.07785
 H1431 H 0.72924 0.55489 0.16615
 H1432 H 0.70755 0.53978 0.19478
 H1433 H 0.66107 0.52089 0.15007
 H1434 H 0.68224 0.53702 0.12195
 C1435 C 0.22187 1.10071 0.56497
 C1436 C 0.20978 1.09146 0.58113
 C1437 C 0.22011 1.08073 0.59730
 C1438 C 0.24278 1.07909 0.59706
 C1439 C 0.25490 1.08796 0.58068
 C1440 C 0.24461 1.09896 0.56443
 N1441 N 0.20722 1.07140 0.61355
 N1442 N 0.21503 1.06556 0.63091
 C1443 C 0.20200 1.05583 0.64681
 C1444 C 0.20883 1.05547 0.66748
 C1445 C 0.19600 1.04675 0.68343
 C1446 C 0.17625 1.03777 0.67888
 C1447 C 0.16986 1.03759 0.65790
 C1448 C 0.18248 1.04672 0.64208
 H1449 H 0.21334 1.10938 0.55303
 H1450 H 0.19230 1.09287 0.58120
 H1451 H 0.25109 1.07064 0.60929
 H1452 H 0.27232 1.08587 0.58061
 H1453 H 0.22387 1.06244 0.67130
 H1454 H 0.20135 1.04750 0.69937
 H1455 H 0.15513 1.03033 0.65362
 H1456 H 0.17707 1.04651 0.62613
 C1457 C 0.25300 0.92525 0.92093
 C1458 C 0.24280 0.93572 0.90453
 C1459 C 0.22099 0.93266 0.90088
 C1460 C 0.20934 0.91909 0.91398
 C1461 C 0.21952 0.90862 0.93039
 C1462 C 0.24149 0.91151 0.93398
 N1463 N 0.21121 0.94314 0.88355
 N1464 N 0.19152 0.94078 0.87927
 C1465 C 0.18170 0.95080 0.86172
 C1466 C 0.16018 0.94681 0.85773
 C1467 C 0.15030 0.95557 0.84026
 C1468 C 0.16185 0.96854 0.82643
 C1469 C 0.18336 0.97289 0.83070
 C1470 C 0.19325 0.96405 0.84819
 H1471 H 0.26986 0.92801 0.92349
 H1472 H 0.25192 0.94616 0.89457
 H1473 H 0.19247 0.91642 0.91143
 H1474 H 0.21030 0.89798 0.94004
 H1475 H 0.15110 0.93669 0.86810
 H1476 H 0.13361 0.95220 0.83756
 H1477 H 0.19268 0.98269 0.82023
 H1478 H 0.20993 0.96736 0.85096
 C1479 C 0.75486 0.41703 0.42182
 C1480 C 0.74557 0.42615 0.40418
 C1481 C 0.72360 0.42406 0.40058
 C1482 C 0.71084 0.41286 0.41503
 C1483 C 0.72009 0.40382 0.43275
 C1484 C 0.74223 0.40571 0.43627
 N1485 N 0.71472 0.43327 0.38212
 N1486 N 0.69515 0.43104 0.37733
 C1487 C 0.68626 0.44017 0.35884
 C1488 C 0.66489 0.43619 0.35414
 C1489 C 0.65574 0.44465 0.33613
 C1490 C 0.66783 0.45736 0.32249
 C1491 C 0.68927 0.46146 0.32732
 C1492 C 0.69844 0.45290 0.34531
 H1493 H 0.77190 0.41897 0.42426
 H1494 H 0.75555 0.43480 0.39321
 H1495 H 0.69380 0.41102 0.41260
 H1496 H 0.71001 0.39502 0.44351
 H1497 H 0.65532 0.42647 0.36447
 H1498 H 0.63909 0.44146 0.33301
 H1499 H 0.69903 0.47104 0.31702
 H1500 H 0.71501 0.45620 0.34860
 C1501 C 0.75180 0.39840 0.58759
 C1502 C 0.76263 0.40686 0.60424
 C1503 C 0.77473 0.42468 0.60128
 C1504 C 0.77574 0.43415 0.58139
 C1505 C 0.76481 0.42577 0.56472
 C1506 C 0.75275 0.40775 0.56761
 N1507 N 0.78601 0.43262 0.61860
 N1508 N 0.79857 0.44782 0.61666
 C1509 C 0.81002 0.45558 0.63396
 C1510 C 0.82527 0.47084 0.63022
 C1511 C 0.83736 0.47817 0.64658
 C1512 C 0.83424 0.47044 0.66706
 C1513 C 0.81857 0.45545 0.67089
 C1514 C 0.80662 0.44799 0.65446
 H1515 H 0.74299 0.38432 0.59029
 H1516 H 0.76181 0.39937 0.61947
 H1517 H 0.78493 0.44800 0.57872
 H1518 H 0.76563 0.43352 0.54963
 H1519 H 0.82798 0.47686 0.61452
 H1520 H 0.84914 0.48991 0.64324
 H1521 H 0.81596 0.44912 0.68648
 H1522 H 0.79488 0.43622 0.65776
 C1523 C 0.23822 -0.08284 0.07825
 C1524 C 0.24725 -0.07225 0.09472
 C1525 C 0.26963 -0.07046 0.09549
 C1526 C 0.28303 -0.07971 0.07974
 C1527 C 0.27408 -0.09070 0.06351
 C1528 C 0.25153 -0.09234 0.06247
 N1529 N 0.27846 -0.05964 0.11261
 N1530 N 0.29759 -0.05300 0.11160
 C1531 C 0.30702 -0.04303 0.12890
 C1532 C 0.32601 -0.03223 0.12540
 C1533 C 0.33631 -0.02328 0.14210
 C1534 C 0.32805 -0.02541 0.16278
 C1535 C 0.30872 -0.03602 0.16617
 C1536 C 0.29822 -0.04464 0.14937
 H1537 H 0.22079 -0.08333 0.07778
 H1538 H 0.23676 -0.06515 0.10678
 H1539 H 0.30044 -0.07878 0.08020
 H1540 H 0.28488 -0.09814 0.05194
 H1541 H 0.33289 -0.03082 0.10967
 H1542 H 0.35085 -0.01482 0.13878
 H1543 H 0.30204 -0.03829 0.18186
 H1544 H 0.28363 -0.05311 0.15245
 C1545 C 0.29021 0.10199 0.43064
 C1546 C 0.30146 0.09267 0.41361
 C1547 C 0.29068 0.08046 0.39946
 C1548 C 0.26843 0.07754 0.40258
 C1549 C 0.25717 0.08686 0.41957
 C1550 C 0.26791 0.09926 0.43375
 N1551 N 0.30261 0.07151 0.38195
 N1552 N 0.29385 0.06024 0.36849
 C1553 C 0.30582 0.05165 0.35081
 C1554 C 0.29517 0.03963 0.33640
 C1555 C 0.30628 0.03161 0.31863
 C1556 C 0.32827 0.03558 0.31498
 C1557 C 0.33898 0.04739 0.32968
 C1558 C 0.32788 0.05536 0.34742
 H1559 H 0.29888 0.11161 0.44117
 H1560 H 0.31859 0.09509 0.41133
 H1561 H 0.25975 0.06812 0.39188
 H1562 H 0.24006 0.08421 0.42174
 H1563 H 0.27816 0.03668 0.33883
 H1564 H 0.29755 0.02272 0.30750
 H1565 H 0.35600 0.05041 0.32750
 H1566 H 0.33652 0.06452 0.35838
 C1567 C 0.75645 0.57810 0.91689
 C1568 C 0.76647 0.56723 0.90013
 C1569 C 0.78886 0.56767 0.89673
 C1570 C 0.80131 0.57877 0.91064
 C1571 C 0.79132 0.58954 0.92750
 C1572 C 0.76875 0.58952 0.93064
 N1573 N 0.79842 0.55736 0.87870
 N1574 N 0.81843 0.55849 0.87382
 C1575 C 0.82796 0.54876 0.85546
 C1576 C 0.84960 0.55234 0.85019
 C1577 C 0.85911 0.54416 0.83175
 C1578 C 0.84712 0.53210 0.81829
 C1579 C 0.82554 0.52801 0.82390
 C1580 C 0.81598 0.53636 0.84231
 H1581 H 0.73906 0.57758 0.91910
 H1582 H 0.75672 0.55871 0.88956
 H1583 H 0.81867 0.57934 0.90833
 H1584 H 0.80116 0.59833 0.93776
 H1585 H 0.85901 0.56180 0.86023
 H1586 H 0.87587 0.54729 0.82797
 H1587 H 0.81591 0.51887 0.81376
 H1588 H 0.79920 0.53336 0.84608
 C1589 C 0.08677 0.75933 0.59612
 C1590 C 0.10479 0.74892 0.58684
 C1591 C 0.10594 0.72717 0.58607
 C1592 C 0.08907 0.71582 0.59521
 C1593 C 0.07124 0.72617 0.60486
 C1594 C 0.06973 0.74809 0.60526
 N1595 N 0.12430 0.71697 0.57590
 N1596 N 0.12407 0.69796 0.57043
 C1597 C 0.14243 0.68747 0.56058
 C1598 C 0.13967 0.66827 0.55102
 C1599 C 0.15724 0.65752 0.54136
 C1600 C 0.17809 0.66560 0.54147
 C1601 C 0.18077 0.68494 0.55119
 C1602 C 0.16308 0.69584 0.56054
 H1603 H 0.08604 0.77618 0.59573
 H1604 H 0.11768 0.75784 0.57981
 H1605 H 0.08976 0.69895 0.59503
 H1606 H 0.05869 0.71698 0.61210
 H1607 H 0.12380 0.66171 0.55089
 H1608 H 0.15439 0.64294 0.53367
 H1609 H 0.19659 0.69149 0.55194
 H1610 H 0.16561 0.71060 0.56802
 C1611 C 0.57951 0.26006 1.09090
 C1612 C 0.59819 0.24994 1.08262
 C1613 C 0.60228 0.22877 1.08662
 C1614 C 0.58740 0.21772 1.09907
 C1615 C 0.56865 0.22780 1.10730
 C1616 C 0.56452 0.24909 1.10330
 N1617 N 0.62142 0.21885 1.07758
 N1618 N 0.62659 0.19985 1.08121
 C1619 C 0.64547 0.18983 1.07178
 C1620 C 0.65024 0.16896 1.07667
 C1621 C 0.66803 0.15845 1.06712
 C1622 C 0.68138 0.16867 1.05239
 C1623 C 0.67675 0.18974 1.04774
 C1624 C 0.65897 0.20026 1.05737
 H1625 H 0.57663 0.27640 1.08733
 H1626 H 0.60947 0.25859 1.07296
 H1627 H 0.59021 0.20132 1.10237
 H1628 H 0.55750 0.21902 1.11696
 H1629 H 0.63993 0.16075 1.08771
 H1630 H 0.67098 0.14214 1.07081
 H1631 H 0.68686 0.19809 1.03664
 H1632 H 0.65565 0.21642 1.05336
 C1633 C 0.90890 0.24122 0.88335
 C1634 C 0.89130 0.23065 0.89188
 C1635 C 0.89239 0.22139 0.91170
 C1636 C 0.91142 0.22275 0.92298
 C1637 C 0.92903 0.23334 0.91449
 C1638 C 0.92796 0.24274 0.89459
 N1639 N 0.87401 0.21076 0.92001
 N1640 N 0.87412 0.20168 0.93777
 C1641 C 0.85582 0.19104 0.94620
 C1642 C 0.85760 0.18068 0.96541
 C1643 C 0.84020 0.16992 0.97402
 C1644 C 0.82056 0.16940 0.96356
 C1645 C 0.81878 0.17994 0.94429
 C1646 C 0.83625 0.19067 0.93566
 H1647 H 0.90767 0.24804 0.86787
 H1648 H 0.87677 0.22965 0.88300
 H1649 H 0.91265 0.21575 0.93838
 H1650 H 0.94337 0.23445 0.92364
 H1651 H 0.87262 0.18081 0.97364
 H1652 H 0.84227 0.16168 0.98869
 H1653 H 0.80382 0.18005 0.93596
 H1654 H 0.83445 0.19864 0.92081
 C1655 C 0.41080 0.74025 0.37790
 C1656 C 0.39357 0.72982 0.38733
 C1657 C 0.39593 0.71985 0.40669
 C1658 C 0.41588 0.72030 0.41656
 C1659 C 0.43314 0.73066 0.40712
 C1660 C 0.43078 0.74079 0.38771
 N1661 N 0.37792 0.70938 0.41596
 N1662 N 0.37882 0.70055 0.43381
 C1663 C 0.36090 0.68992 0.44304
 C1664 C 0.36309 0.68061 0.46275
 C1665 C 0.34607 0.66975 0.47202
 C1666 C 0.32652 0.66799 0.46165
 C1667 C 0.32430 0.67754 0.44193
 C1668 C 0.34132 0.68842 0.43269
 H1669 H 0.40858 0.74773 0.36285
 H1670 H 0.37830 0.72951 0.37954
 H1671 H 0.41811 0.71272 0.43155
 H1672 H 0.44825 0.73105 0.41518
 H1673 H 0.37811 0.68163 0.47085
 H1674 H 0.34839 0.66235 0.48710
 H1675 H 0.30936 0.67669 0.43367
 H1676 H 0.33921 0.69555 0.41746
 C1677 C 0.56552 0.78305 0.38591
 C1678 C 0.58159 0.79460 0.39476
 C1679 C 0.59615 0.78515 0.40849
 C1680 C 0.59452 0.76388 0.41330
 C1681 C 0.57855 0.75227 0.40436
 C1682 C 0.56388 0.76174 0.39058
 N1683 N 0.61244 0.79746 0.41721
 N1684 N 0.62533 0.79023 0.43079
 C1685 C 0.64167 0.80260 0.43935
 C1686 C 0.65399 0.79438 0.45562
 C1687 C 0.66984 0.80619 0.46452
 C1688 C 0.67373 0.82645 0.45715
 C1689 C 0.66148 0.83453 0.44061
 C1690 C 0.64556 0.82276 0.43182
 H1691 H 0.55459 0.79068 0.37516
 H1692 H 0.58273 0.81097 0.39090
 H1693 H 0.60560 0.75623 0.42389
 H1694 H 0.57751 0.73592 0.40836
 H1695 H 0.65111 0.77887 0.46156
 H1696 H 0.67876 0.79960 0.47742
 H1697 H 0.66433 0.84991 0.43431
 H1698 H 0.63636 0.82939 0.41913
 C1699 C 0.07331 0.25254 -0.07993
 C1700 C 0.08945 0.26299 -0.06990
 C1701 C 0.09319 0.28387 -0.07460
 C1702 C 0.08020 0.29442 -0.08919
 C1703 C 0.06390 0.28402 -0.09912
 C1704 C 0.06048 0.26290 -0.09476
 N1705 N 0.11043 0.29381 -0.06456
 N1706 N 0.11604 0.31214 -0.06940
 C1707 C 0.13339 0.32195 -0.05939
 C1708 C 0.13951 0.34163 -0.06634
 C1709 C 0.15641 0.35161 -0.05700
 C1710 C 0.16748 0.34209 -0.04037
 C1711 C 0.16129 0.32228 -0.03343
 C1712 C 0.14442 0.31228 -0.04286
 H1713 H 0.07083 0.23634 -0.07608
 H1714 H 0.09927 0.25472 -0.05861
 H1715 H 0.08274 0.31061 -0.09303
 H1716 H 0.05431 0.29232 -0.11057
 H1717 H 0.13121 0.34920 -0.07913
 H1718 H 0.16097 0.36670 -0.06296
 H1719 H 0.16924 0.31464 -0.02048
 H1720 H 0.13995 0.29708 -0.03714
 C1721 C 0.41631 0.24995 0.08239
 C1722 C 0.39912 0.25955 0.07193
 C1723 C 0.39475 0.28097 0.07396
 C1724 C 0.40802 0.29282 0.08642
 C1725 C 0.42527 0.28325 0.09680
 C1726 C 0.42952 0.26169 0.09501
 N1727 N 0.37659 0.29025 0.06359
 N1728 N 0.37107 0.30937 0.06600
 C1729 C 0.35282 0.31895 0.05608
 C1730 C 0.34708 0.33963 0.06096
 C1731 C 0.32898 0.34937 0.05222
 C1732 C 0.31630 0.33859 0.03829
 C1733 C 0.32232 0.31792 0.03303
 C1734 C 0.34040 0.30811 0.04194
 H1735 H 0.41936 0.23335 0.08053
 H1736 H 0.38906 0.25026 0.06235
 H1737 H 0.40498 0.30941 0.08826
 H1738 H 0.43503 0.29266 0.10658
 H1739 H 0.35657 0.34816 0.07175
 H1740 H 0.32494 0.36542 0.05629
 H1741 H 0.31278 0.30924 0.02240
 H1742 H 0.34457 0.29209 0.03791
 C1743 C 0.93946 0.77639 0.57758
 C1744 C 0.92276 0.78658 0.56692
 C1745 C 0.90153 0.78665 0.57510
 C1746 C 0.89715 0.77651 0.59425
 C1747 C 0.91381 0.76636 0.60494
 C1748 C 0.93514 0.76610 0.59668
 N1749 N 0.88474 0.79711 0.56376
 N1750 N 0.86507 0.79712 0.57017
 C1751 C 0.84811 0.80766 0.55916
 C1752 C 0.82698 0.80710 0.56749
 C1753 C 0.81008 0.81769 0.55755
 C1754 C 0.81406 0.82906 0.53903
 C1755 C 0.83527 0.82932 0.53049
 C1756 C 0.85218 0.81873 0.54048
 H1757 H 0.95567 0.77626 0.57071
 H1758 H 0.92633 0.79433 0.55217
 H1759 H 0.88088 0.77645 0.60098
 H1760 H 0.91003 0.75886 0.61977
 H1761 H 0.82364 0.79854 0.58182
 H1762 H 0.79387 0.81695 0.56434
 H1763 H 0.83887 0.83812 0.51637
 H1764 H 0.86841 0.81938 0.53376
   
