data_POSCAR
  _audit_creation_date              2014-09-24
  _audit_creation_method            'ToBaCCo'
  _symmetry_space_group_name_H-M    'P1'
  _symmetry_Int_Tables_number       1
  _symmetry_cell_setting            triclinic
  loop_
  _symmetry_equiv_pos_as_xyz
 x,y,z
_cell_length_a 37.9797
_cell_length_b 39.6710
_cell_length_c 44.3662
_cell_angle_alpha 89.986500
_cell_angle_beta 91.827800
_cell_angle_gamma 88.885600
loop_
  _atom_site_label
  _atom_site_type_symbol
  _atom_site_fract_x
  _atom_site_fract_y
  _atom_site_fract_z
C1 C 0.43059 -0.03298 0.26540
 C2 C 0.44724 -0.00703 0.25016
 C3 C 0.46205 -0.01369 0.22246
 C4 C 0.46029 -0.04551 0.20918
 C5 C 0.44157 -0.07129 0.22355
 C6 C 0.42670 -0.06532 0.25226
 C7 C 0.44975 0.02752 0.26253
 C8 C 0.46574 0.03323 0.29103
 C9 C 0.47126 0.06636 0.30140
 C10 C 0.45966 0.09357 0.28284
 C11 C 0.44256 0.08821 0.25472
 C12 C 0.43833 0.05509 0.24455
 H13 H 0.41951 -0.02733 0.28708
 H14 H 0.47593 0.00621 0.21131
 H15 H 0.47477 0.01176 0.30442
 H16 H 0.42548 0.05057 0.22280
 H17 H 0.44022 -0.09596 0.21321
 H18 H 0.46348 0.11919 0.29049
 C19 C 0.07710 -0.04850 0.73955
 C20 C 0.07326 -0.01434 0.74678
 C21 C 0.06191 -0.00515 0.77517
 C22 C 0.05463 -0.02937 0.79680
 C23 C 0.06034 -0.06378 0.79022
 C24 C 0.07117 -0.07343 0.76124
 C25 C 0.07856 0.01248 0.72453
 C26 C 0.05973 0.01236 0.69723
 C27 C 0.06042 0.03978 0.67711
 C28 C 0.08075 0.06842 0.68551
 C29 C 0.09852 0.06930 0.71437
 C30 C 0.09811 0.04051 0.73269
 H31 H 0.08545 -0.05558 0.71725
 H32 H 0.05771 0.02138 0.78010
 H33 H 0.04403 -0.00954 0.69197
 H34 H 0.11187 0.04021 0.75447
 H35 H 0.05483 -0.08284 0.80681
 H36 H 0.08062 0.09035 0.67097
 C37 C 0.58756 0.43135 0.25354
 C38 C 0.58892 0.46543 0.26120
 C39 C 0.57236 0.47707 0.28683
 C40 C 0.55489 0.45507 0.30539
 C41 C 0.55513 0.42022 0.29879
 C42 C 0.57099 0.40845 0.27226
 C43 C 0.60203 0.49049 0.24038
 C44 C 0.58435 0.49469 0.21274
 C45 C 0.58748 0.52434 0.19621
 C46 C 0.61060 0.54948 0.20675
 C47 C 0.62940 0.54498 0.23463
 C48 C 0.62505 0.51514 0.25095
 H49 H 0.59939 0.42270 0.23293
 H50 H 0.57201 0.50386 0.29177
 H51 H 0.56538 0.47603 0.20541
 H52 H 0.63769 0.51187 0.27304
 H53 H 0.54178 0.40286 0.31317
 H54 H 0.61201 0.57295 0.19445
 C55 C 0.90400 0.45374 0.75236
 C56 C 0.91849 0.48237 0.73942
 C57 C 0.93446 0.47977 0.71174
 C58 C 0.93763 0.44876 0.69708
 C59 C 0.92212 0.41983 0.70969
 C60 C 0.90514 0.42224 0.73781
 C61 C 0.92438 0.51295 0.75753
 C62 C 0.94552 0.50990 0.78360
 C63 C 0.95523 0.53825 0.80051
 C64 C 0.94215 0.57030 0.79155
 C65 C 0.92283 0.57392 0.76404
 C66 C 0.91409 0.54510 0.74712
 H67 H 0.89259 0.45602 0.77437
 H68 H 0.94720 0.50168 0.70272
 H69 H 0.95503 0.48497 0.79035
 H70 H 0.89955 0.54765 0.72579
 H71 H 0.92497 0.39560 0.69872
 H72 H 0.94975 0.59254 0.80415
 C73 C 0.27101 0.33436 1.02798
 C74 C 0.28187 0.34934 1.00131
 C75 C 0.31675 0.36053 0.99958
 C76 C 0.34063 0.35637 1.02444
 C77 C 0.32926 0.34008 1.05066
 C78 C 0.29426 0.32952 1.05294
 C79 C 0.25544 0.35358 0.97614
 C80 C 0.22441 0.37259 0.98101
 C81 C 0.19586 0.37177 0.96019
 C82 C 0.19914 0.35284 0.93353
 C83 C 0.22988 0.33379 0.92813
 C84 C 0.25793 0.33408 0.94970
 H85 H 0.24396 0.32626 1.02901
 H86 H 0.32499 0.37273 0.97920
 H87 H 0.22172 0.38623 1.00200
 H88 H 0.28111 0.31831 0.94644
 H89 H 0.34743 0.33704 1.06979
 H90 H 0.17707 0.35173 0.91748
 C91 C 0.72415 0.16132 1.04908
 C92 C 0.72668 0.14717 1.01990
 C93 C 0.69976 0.12641 1.00878
 C94 C 0.67023 0.11987 1.02581
 C95 C 0.66713 0.13507 1.05392
 C96 C 0.69350 0.15626 1.06584
 C97 C 0.75418 0.15687 0.99856
 C98 C 0.78722 0.14010 0.99866
 C99 C 0.81044 0.14512 0.97493
 C100 C 0.80015 0.16726 0.95113
 C101 C 0.76692 0.18345 0.95014
 C102 C 0.74440 0.17836 0.97428
 H103 H 0.74424 0.17831 1.05735
 H104 H 0.70155 0.11587 0.98631
 H105 H 0.79417 0.12242 1.01657
 H106 H 0.71827 0.18987 0.97362
 H107 H 0.64350 0.13074 1.06635
 H108 H 0.81753 0.17066 0.93257
 C109 C 0.22631 0.66313 0.55589
 C110 C 0.23151 0.64788 0.52776
 C111 C 0.20604 0.62595 0.51591
 C112 C 0.17532 0.61924 0.53171
 C113 C 0.17035 0.63483 0.55958
 C114 C 0.19549 0.65704 0.57160
 C115 C 0.26080 0.65829 0.50877
 C116 C 0.29269 0.63942 0.50836
 C117 C 0.31979 0.64911 0.48935
 C118 C 0.31457 0.67795 0.47121
 C119 C 0.28285 0.69631 0.47085
 C120 C 0.25590 0.68646 0.48962
 H121 H 0.24505 0.68126 0.56456
 H122 H 0.20965 0.61504 0.49380
 H123 H 0.29604 0.61723 0.52246
 H124 H 0.23109 0.70045 0.48918
 H125 H 0.14613 0.63102 0.57128
 H126 H 0.33492 0.68578 0.45625
 C127 C 0.78354 0.83874 0.54107
 C128 C 0.77649 0.85100 0.51181
 C129 C 0.80233 0.86894 0.49712
 C130 C 0.83508 0.87566 0.51137
 C131 C 0.84184 0.86330 0.54075
 C132 C 0.81655 0.84424 0.55542
 C133 C 0.74383 0.84286 0.49455
 C134 C 0.71508 0.86589 0.49361
 C135 C 0.68835 0.86311 0.47109
 C136 C 0.69068 0.83692 0.44980
 C137 C 0.71875 0.81343 0.45093
 C138 C 0.74494 0.81618 0.47371
 H139 H 0.76417 0.82360 0.55193
 H140 H 0.79656 0.87768 0.47430
 H141 H 0.71505 0.88732 0.50874
 H142 H 0.76779 0.79937 0.47363
 H143 H 0.86723 0.86721 0.55187
 H144 H 0.67090 0.83518 0.43172
 C145 C -0.04685 0.25964 0.33120
 C146 C -0.01380 0.24338 0.32974
 C147 C -0.01180 0.20826 0.33183
 C148 C -0.04085 0.18996 0.34054
 C149 C -0.07330 0.20649 0.34390
 C150 C -0.07717 0.24109 0.33700
 C151 C 0.01927 0.26229 0.33345
 C152 C 0.02126 0.28704 0.35592
 C153 C 0.05397 0.29726 0.36762
 C154 C 0.08494 0.28417 0.35568
 C155 C 0.08344 0.25999 0.33283
 C156 C 0.05062 0.24974 0.32120
 H157 H -0.04866 0.28675 0.32828
 H158 H 0.01376 0.19565 0.33143
 H159 H -0.00249 0.29528 0.36685
 H160 H 0.04948 0.23026 0.30411
 H161 H -0.09546 0.19193 0.35082
 H162 H 0.11019 0.29125 0.36554
 C163 C -0.04920 0.77172 0.15407
 C164 C -0.02196 0.76366 0.13428
 C165 C -0.02561 0.77284 0.10371
 C166 C -0.05495 0.79121 0.09306
 C167 C -0.08059 0.80109 0.11304
 C168 C -0.07864 0.79101 0.14334
 C169 C 0.01128 0.74631 0.14397
 C170 C 0.02236 0.71891 0.12661
 C171 C 0.05805 0.70929 0.12594
 C172 C 0.08193 0.72464 0.14585
 C173 C 0.07097 0.75038 0.16533
 C174 C 0.03553 0.76168 0.16395
 H175 H -0.04691 0.76407 0.17751
 H176 H -0.00469 0.76690 0.08839
 H177 H 0.00324 0.70799 0.11111
 H178 H 0.02735 0.78344 0.17693
 H179 H -0.10325 0.81549 0.10433
 H180 H 0.10945 0.71725 0.14526
 C181 C 0.42301 0.26514 0.63154
 C182 C 0.45591 0.25758 0.61913
 C183 C 0.46067 0.26260 0.58831
 C184 C 0.43283 0.27437 0.56971
 C185 C 0.40014 0.28114 0.58184
 C186 C 0.39534 0.27814 0.61273
 C187 C 0.48535 0.24197 0.63666
 C188 C 0.48760 0.20683 0.63657
 C189 C 0.51978 0.19036 0.64272
 C190 C 0.54943 0.20865 0.65084
 C191 C 0.54752 0.24397 0.65250
 C192 C 0.51528 0.26067 0.64504
 H193 H 0.41945 0.26196 0.65549
 H194 H 0.48643 0.25834 0.57896
 H195 H 0.46530 0.19246 0.62823
 H196 H 0.51393 0.28795 0.64403
 H197 H 0.37918 0.29192 0.56747
 H198 H 0.57396 0.19496 0.65515
 C199 C 0.45897 0.74743 0.83728
 C200 C 0.48838 0.72914 0.84864
 C201 C 0.48382 0.70002 0.86570
 C202 C 0.44996 0.69001 0.87318
 C203 C 0.42073 0.70811 0.86126
 C204 C 0.42490 0.73673 0.84323
 C205 C 0.52274 0.74512 0.85101
 C206 C 0.52895 0.76600 0.87576
 C207 C 0.56260 0.77806 0.88235
 C208 C 0.59018 0.76971 0.86339
 C209 C 0.58411 0.74927 0.83788
 C210 C 0.55024 0.73651 0.83207
 H211 H 0.46272 0.77071 0.82511
 H212 H 0.50704 0.68750 0.87547
 H213 H 0.50759 0.77135 0.89077
 H214 H 0.54527 0.71977 0.81318
 H215 H 0.39466 0.70044 0.86704
 H216 H 0.61620 0.77914 0.86865
 C217 C -0.28411 0.67207 0.99761
 C218 C -0.25658 0.68822 1.01328
 C219 C -0.26250 0.70303 1.04123
 C220 C -0.29619 0.70280 1.05328
 C221 C -0.32356 0.68556 1.03783
 C222 C -0.31766 0.66980 1.00977
 C223 C -0.22397 0.69467 0.99742
 C224 C -0.22666 0.71431 0.97156
 C225 C -0.19827 0.71770 0.95248
 C226 C -0.16577 0.70127 0.96044
 C227 C -0.16189 0.68383 0.98835
 C228 C -0.19142 0.68048 1.00649
 H229 H -0.27900 0.66125 0.97570
 H230 H -0.24157 0.71696 1.05241
 H231 H -0.25219 0.72561 0.96561
 H232 H -0.18935 0.66605 1.02724
 H233 H -0.34946 0.68534 1.04734
 H234 H -0.14330 0.70374 0.94623
 C235 C -0.31529 0.32040 0.50088
 C236 C -0.28313 0.30464 0.49446
 C237 C -0.28208 0.27748 0.47470
 C238 C -0.31286 0.26551 0.46109
 C239 C -0.34543 0.28056 0.46789
 C240 C -0.34692 0.30832 0.48783
 C241 C -0.25066 0.31216 0.51139
 C242 C -0.24589 0.29776 0.53991
 C243 C -0.21223 0.29464 0.55330
 C244 C -0.18339 0.30855 0.53879
 C245 C -0.18820 0.32421 0.51040
 C246 C -0.22191 0.32522 0.49657
 H247 H -0.31558 0.34081 0.51710
 H248 H -0.25688 0.26565 0.46986
 H249 H -0.26800 0.28587 0.55019
 H250 H -0.22577 0.33534 0.47398
 H251 H -0.36925 0.27132 0.45691
 H252 H -0.15722 0.30632 0.54913
 C253 C 0.19870 -0.17856 0.02276
 C254 C 0.22851 -0.19760 0.01538
 C255 C 0.22773 -0.21724 -0.01052
 C256 C 0.19950 -0.21525 -0.03156
 C257 C 0.17034 -0.19404 -0.02531
 C258 C 0.16917 -0.17701 0.00271
 C259 C 0.26228 -0.19578 0.03245
 C260 C 0.26615 -0.20885 0.06170
 C261 C 0.30005 -0.21441 0.07476
 C262 C 0.32980 -0.20472 0.05864
 C263 C 0.32588 -0.19025 0.02984
 C264 C 0.29210 -0.18621 0.01688
 H265 H 0.19894 -0.16415 0.04351
 H266 H 0.25096 -0.23251 -0.01515
 H267 H 0.24299 -0.21719 0.07300
 H268 H 0.28886 -0.17610 -0.00577
 H269 H 0.14797 -0.19247 -0.04105
 H270 H 0.35612 -0.20840 0.06840
 C271 C 0.21192 1.18779 0.48332
 C272 C 0.23618 1.20778 0.49893
 C273 C 0.22508 1.22868 0.52226
 C274 C 0.18978 1.22886 0.53065
 C275 C 0.16578 1.20730 0.51600
 C276 C 0.17682 1.18708 0.49184
 C277 C 0.27319 1.20605 0.49064
 C278 C 0.28284 1.22013 0.46324
 C279 C 0.31707 1.21535 0.45290
 C280 C 0.34144 1.19583 0.47061
 C281 C 0.33145 1.18015 0.49747
 C282 C 0.29743 1.18630 0.50778
 H283 H 0.22080 1.17182 0.46512
 H284 H 0.24391 1.24468 0.53392
 H285 H 0.26326 1.23443 0.45005
 H286 H 0.28898 1.17402 0.52806
 H287 H 0.13859 1.20711 0.52267
 H288 H 0.36783 1.19148 0.46276
 C289 C 0.10171 0.51800 0.21361
 C290 C 0.11375 0.51595 0.24400
 C291 C 0.13008 0.54405 0.25739
 C292 C 0.13496 0.57394 0.24096
 C293 C 0.12257 0.57557 0.21085
 C294 C 0.10527 0.54810 0.19712
 C295 C 0.10563 0.48637 0.26318
 C296 C 0.12618 0.45621 0.26235
 C297 C 0.11966 0.42948 0.28239
 C298 C 0.09179 0.43298 0.30230
 C299 C 0.07144 0.46252 0.30357
 C300 C 0.07849 0.48936 0.28414
 H301 H 0.08738 0.49723 0.20363
 H302 H 0.13846 0.54273 0.28095
 H303 H 0.14780 0.45418 0.24708
 H304 H 0.06299 0.51252 0.28534
 H305 H 0.12464 0.59898 0.19849
 H306 H 0.08610 0.41267 0.31766
 C307 C -0.10175 0.98490 0.19397
 C308 C -0.11509 0.99346 0.22217
 C309 C -0.14173 0.97428 0.23429
 C310 C -0.15451 0.94563 0.21925
 C311 C -0.13995 0.93649 0.19158
 C312 C -0.11391 0.95609 0.17849
 C313 C -0.09965 1.02058 0.24078
 C314 C -0.11772 1.05163 0.24360
 C315 C -0.10629 1.07561 0.26508
 C316 C -0.07593 1.06799 0.28316
 C317 C -0.05810 1.03691 0.28072
 C318 C -0.06994 1.01330 0.25947
 H319 H -0.08090 0.99980 0.18501
 H320 H -0.15166 0.98139 0.25609
 H321 H -0.14140 1.05615 0.22986
 H322 H -0.05690 0.98881 0.25825
 H323 H -0.14924 0.91435 0.17979
 H324 H -0.06667 1.08567 0.30014
 C325 C 0.40574 0.48944 -0.28966
 C326 C 0.38114 0.49696 -0.26747
 C327 C 0.34764 0.48270 -0.26944
 C328 C 0.33805 0.46283 -0.29432
 C329 C 0.36146 0.45826 -0.31785
 C330 C 0.39587 0.47062 -0.31545
 C331 C 0.39015 0.52022 -0.24251
 C332 C 0.37223 0.55140 -0.24011
 C333 C 0.38051 0.57370 -0.21632
 C334 C 0.40672 0.56371 -0.19459
 C335 C 0.42411 0.53217 -0.19628
 C336 C 0.41611 0.51094 -0.22080
 H337 H 0.43186 0.49989 -0.28756
 H338 H 0.32905 0.48724 -0.25178
 H339 H 0.35215 0.55808 -0.25704
 H340 H 0.42924 0.48656 -0.22263
 H341 H 0.35348 0.44304 -0.33707
 H342 H 0.41305 0.58020 -0.17585
 C343 C 0.56566 0.00692 -0.27415
 C344 C 0.58562 0.01822 -0.24912
 C345 C 0.60075 0.05046 -0.24991
 C346 C 0.59515 0.07151 -0.27546
 C347 C 0.57515 0.05909 -0.30044
 C348 C 0.56135 0.02632 -0.30051
 C349 C 0.59726 -0.00797 -0.22683
 C350 C 0.62406 -0.03010 -0.23581
 C351 C 0.62941 -0.06174 -0.22219
 C352 C 0.60885 -0.07063 -0.19786
 C353 C 0.58240 -0.04844 -0.18766
 C354 C 0.57655 -0.01704 -0.20235
 H355 H 0.55578 -0.01854 -0.27370
 H356 H 0.61762 0.05850 -0.23125
 H357 H 0.63886 -0.02370 -0.25546
 H358 H 0.55460 -0.00093 -0.19614
 H359 H 0.57173 0.07458 -0.32042
 H360 H 0.61239 -0.09533 -0.18765
 C361 C -0.01162 0.22127 0.93471
 C362 C -0.02679 0.24646 0.91612
 C363 C -0.05718 0.23999 0.89869
 C364 C -0.07141 0.20771 0.89828
 C365 C -0.05627 0.18267 0.91698
 C366 C -0.02596 0.18913 0.93487
 C367 C -0.00613 0.27568 0.90830
 C368 C 0.02527 0.27013 0.89361
 C369 C 0.04344 0.29698 0.88166
 C370 C 0.03101 0.33012 0.88581
 C371 C -0.00014 0.33589 0.90161
 C372 C -0.01920 0.30843 0.91188
 H373 H 0.01295 0.22595 0.94698
 H374 H -0.06712 0.25912 0.88305
 H375 H 0.03454 0.24445 0.88998
 H376 H -0.04367 0.31238 0.92342
 H377 H -0.06731 0.15774 0.91647
 H378 H 0.04561 0.35106 0.87724
 C379 C 0.48534 0.19545 0.07516
 C380 C 0.50261 0.22147 0.09072
 C381 C 0.52493 0.21387 0.11550
 C382 C 0.52927 0.18074 0.12585
 C383 C 0.51245 0.15489 0.11019
 C384 C 0.49105 0.16181 0.08444
 C385 C 0.49199 0.25697 0.08694
 C386 C 0.46425 0.26836 0.10444
 C387 C 0.46070 0.30252 0.11185
 C388 C 0.48326 0.32557 0.09940
 C389 C 0.51052 0.31487 0.08074
 C390 C 0.51511 0.28026 0.07488
 H391 H 0.46737 0.20144 0.05638
 H392 H 0.53665 0.23446 0.12801
 H393 H 0.44821 0.24981 0.11506
 H394 H 0.53749 0.27127 0.06241
 H395 H 0.51579 0.12935 0.11848
 H396 H 0.47986 0.35178 0.10530
 C397 C -0.01014 0.70638 0.57739
 C398 C 0.00721 0.73195 0.59328
 C399 C 0.03031 0.72365 0.61736
 C400 C 0.03470 0.69028 0.62721
 C401 C 0.01793 0.66470 0.61094
 C402 C -0.00416 0.67250 0.58572
 C403 C -0.00578 0.76697 0.59212
 C404 C -0.02896 0.77642 0.61443
 C405 C -0.03336 0.81029 0.62281
 C406 C -0.01761 0.83514 0.60557
 C407 C 0.00441 0.82599 0.58191
 C408 C 0.01116 0.79170 0.57586
 H409 H -0.02902 0.71297 0.55942
 H410 H 0.04182 0.74407 0.63020
 H411 H -0.04051 0.75640 0.62708
 H412 H 0.03014 0.78425 0.55928
 H413 H 0.02124 0.63890 0.61860
 H414 H -0.02109 0.86148 0.61143
 C415 C 0.50462 0.72739 0.46405
 C416 C 0.49247 0.75452 0.44600
 C417 C 0.45920 0.75326 0.43158
 C418 C 0.44012 0.72342 0.43172
 C419 C 0.45293 0.69612 0.44919
 C420 C 0.48573 0.69751 0.46453
 C421 C 0.51853 0.77565 0.43167
 C422 C 0.54439 0.75888 0.41539
 C423 C 0.56339 0.77579 0.39400
 C424 C 0.55836 0.81072 0.39034
 C425 C 0.53356 0.82835 0.40752
 C426 C 0.51307 0.81039 0.42775
 H427 H 0.53123 0.72773 0.47366
 H428 H 0.45123 0.77346 0.41630
 H429 H 0.54727 0.73170 0.41728
 H430 H 0.49213 0.82286 0.43971
 H431 H 0.43880 0.67273 0.44864
 H432 H 0.57362 0.82412 0.37417
 Zr433 Zr -0.00453 -0.06402 1.03069
 O434 O 0.02731 -0.06494 1.07077
 O435 O -0.02644 -0.11173 1.03290
 O436 O -0.03482 -0.06598 1.06968
 O437 O 0.06097 -0.08794 0.98146
 O438 O -0.07262 -0.02072 1.06538
 O439 O 0.03948 -0.09711 1.02808
 O440 O -0.06645 -0.11369 0.99354
 O441 O -0.05687 -0.05338 1.01728
 O442 O -0.00933 -0.07916 0.98571
 O443 O -0.01180 -0.01207 1.03810
 O444 O 0.03408 -0.03715 1.00804
 Zr445 Zr -0.03232 0.01170 0.95416
 Zr446 Zr -0.06351 -0.00098 1.02225
 Zr447 Zr 0.02649 -0.05084 0.96250
 Zr448 Zr -0.06093 -0.06688 0.97187
 O449 O 0.07902 -0.03815 0.95394
 O450 O -0.11436 -0.06997 0.98385
 O451 O -0.02511 -0.04025 0.94639
 O452 O -0.07053 -0.01499 0.97692
 O453 O -0.02749 0.02744 0.99897
 O454 O 0.02001 0.00126 0.96749
 C455 C -0.05028 -0.12645 1.01682
 C456 C 0.06192 -0.10264 1.00734
 C457 C -0.05960 -0.04669 1.07948
 O458 O -0.11781 -0.01137 1.02421
 O459 O -0.09312 0.04150 1.00538
 O460 O -0.07018 0.05042 0.95928
 C461 C -0.09120 0.05819 0.98049
 O462 O 0.06401 0.00443 1.04602
 Zr463 Zr 0.02400 0.01481 1.01277
 O464 O -0.00872 0.05842 0.95014
 O465 O -0.06022 0.03821 1.05449
 O466 O 0.01702 0.04835 1.04932
 O467 O 0.07548 0.02640 0.99947
 O468 O 0.02171 0.06404 0.99477
 C469 C 0.00834 0.07587 0.96989
 O470 O -0.06923 0.01355 0.91734
 O471 O 0.02493 -0.09375 0.93418
 O472 O -0.00812 0.00835 0.91237
 O473 O 0.03005 -0.03650 0.91709
 O474 O -0.05269 -0.10587 0.94002
 O475 O -0.09093 -0.05708 0.93146
 C476 C 0.01439 -0.01281 0.90175
 H477 H -0.00385 -0.10339 0.98264
 H478 H -0.09457 -0.00897 0.96914
 H479 H 0.03701 0.01355 0.95532
 H480 H -0.00871 -0.00676 1.05981
 H481 H -0.12336 -0.09159 0.97586
 H482 H -0.12760 0.00402 1.03955
 H483 H -0.08431 0.04197 1.06193
 H484 H 0.03775 0.06316 1.05001
 H485 H -0.07384 -0.12013 0.93958
 H486 H 0.04891 -0.09674 0.92625
 H487 H 0.08950 -0.03083 0.97352
 H488 H 0.08213 0.04766 1.00973
 H489 H -0.10959 -0.07405 0.92913
 H490 H -0.06598 0.03515 0.90657
 H491 H 0.02466 -0.08736 1.08027
 H492 H 0.05241 -0.00559 1.06343
 Zr493 Zr 0.49958 0.43384 0.53471
 O494 O 0.53509 0.42853 0.57229
 O495 O 0.47424 0.38737 0.53447
 O496 O 0.47459 0.43508 0.57666
 O497 O 0.56372 0.41070 0.48505
 O498 O 0.43430 0.47833 0.57183
 O499 O 0.53732 0.39494 0.52813
 O500 O 0.43737 0.38871 0.49291
 O501 O 0.44734 0.44680 0.52200
 O502 O 0.49420 0.42288 0.48882
 O503 O 0.49445 0.48573 0.54382
 O504 O 0.53979 0.46070 0.51390
 Zr505 Zr 0.47521 0.51567 0.46145
 Zr506 Zr 0.44302 0.49909 0.52899
 Zr507 Zr 0.53192 0.45082 0.46789
 Zr508 Zr 0.44318 0.43738 0.47561
 O509 O 0.58485 0.46526 0.46362
 O510 O 0.39006 0.43485 0.48853
 O511 O 0.48067 0.46394 0.45217
 O512 O 0.43569 0.48894 0.48287
 O513 O 0.48040 0.52754 0.50722
 O514 O 0.52717 0.50286 0.47433
 C515 C 0.45240 0.37367 0.51557
 C516 C 0.55986 0.39052 0.50735
 C517 C 0.45051 0.45483 0.58710
 O518 O 0.38862 0.48917 0.53081
 O519 O 0.41410 0.54259 0.51416
 O520 O 0.43763 0.55414 0.46873
 C521 C 0.41648 0.56067 0.49017
 O522 O 0.56582 0.49638 0.55656
 Zr523 Zr 0.53159 0.51276 0.52040
 O524 O 0.49951 0.56277 0.46124
 O525 O 0.44722 0.53707 0.56233
 O526 O 0.52629 0.54631 0.55730
 O527 O 0.58386 0.52032 0.50674
 O528 O 0.53211 0.56299 0.50522
 C529 C 0.51769 0.57776 0.48206
 O530 O 0.43930 0.52289 0.42436
 O531 O 0.53240 0.40978 0.43727
 O532 O 0.49743 0.51072 0.41828
 O533 O 0.53480 0.46529 0.42296
 O534 O 0.44876 0.40117 0.44083
 O535 O 0.41372 0.45127 0.43584
 C536 C 0.51853 0.48821 0.40735
 H537 H 0.49830 0.39892 0.48360
 H538 H 0.41183 0.49599 0.47540
 H539 H 0.54427 0.51541 0.46246
 H540 H 0.49843 0.49051 0.56553
 H541 H 0.38020 0.41413 0.47941
 H542 H 0.37917 0.50381 0.54686
 H543 H 0.42334 0.54073 0.57024
 H544 H 0.54757 0.56040 0.55839
 H545 H 0.42657 0.38843 0.43915
 H546 H 0.55676 0.40701 0.43010
 H547 H 0.59499 0.45030 0.44814
 H548 H 0.59189 0.54153 0.51626
 H549 H 0.39251 0.43721 0.43402
 H550 H 0.44413 0.54518 0.41534
 H551 H 0.53127 0.40608 0.58139
 H552 H 0.58339 0.51394 0.56110
 Zr553 Zr 0.48000 1.03923 0.54213
 O554 O 0.43562 1.01815 0.56206
 O555 O 0.49236 1.07645 0.57300
 O556 O 0.49560 1.02150 0.58546
 O557 O 0.43425 1.08894 0.48941
 O558 O 0.54364 0.98752 0.57736
 O559 O 0.43657 1.07415 0.53909
 O560 O 0.54447 1.09623 0.55681
 O561 O 0.53515 1.03621 0.54399
 O562 O 0.49774 1.07646 0.51333
 O563 O 0.49375 0.98936 0.53057
 O564 O 0.45643 1.02806 0.49985
 Zr565 Zr 0.54443 1.01282 0.45785
 Zr566 Zr 0.54922 0.98770 0.52991
 Zr567 Zr 0.47721 1.06400 0.47074
 Zr568 Zr 0.55235 1.07225 0.51440
 O569 O 0.43146 1.06049 0.44267
 O570 O 0.60005 1.06714 0.54029
 O571 O 0.53230 1.06291 0.47025
 O572 O 0.56816 1.02387 0.50024
 O573 O 0.52797 0.97552 0.48740
 O574 O 0.48949 1.01523 0.45643
 C575 C 0.51982 1.09437 0.57619
 C576 C 0.42305 1.09093 0.51635
 C577 C 0.52194 1.00290 0.59478
 O578 O 0.59933 0.99395 0.55117
 O579 O 0.58738 0.95696 0.50806
 O580 O 0.58489 0.97611 0.45951
 C581 C 0.59708 0.95614 0.48036
 O582 O 0.42330 0.97141 0.50524
 Zr583 Zr 0.47334 0.97946 0.48702
 O584 O 0.53323 0.97269 0.42867
 O585 O 0.54065 0.93723 0.54266
 O586 O 0.47464 0.93044 0.50599
 O587 O 0.43137 0.97562 0.45463
 O588 O 0.49018 0.94586 0.45328
 C589 C 0.51322 0.94746 0.43266
 O590 O 0.59022 1.03268 0.43916
 O591 O 0.48479 1.11616 0.46432
 O592 O 0.53209 1.03471 0.41512
 O593 O 0.48827 1.07261 0.42541
 O594 O 0.54699 1.12463 0.50542
 O595 O 0.59348 1.08781 0.48650
 C596 C 0.50967 1.05824 0.40738
 H597 H 0.49043 1.09949 0.51942
 H598 H 0.59415 1.02242 0.49925
 H599 H 0.47905 1.01052 0.43618
 H600 H 0.48488 0.97341 0.54558
 H601 H 0.60681 1.09005 0.54689
 H602 H 0.60545 0.97245 0.56163
 H603 H 0.56157 0.92998 0.55508
 H604 H 0.45729 0.91712 0.49412
 H605 H 0.56369 1.13625 0.51933
 H606 H 0.46454 1.12450 0.45158
 H607 H 0.41842 1.04109 0.45037
 H608 H 0.42599 0.95135 0.45252
 H609 H 0.60787 1.10479 0.49732
 H610 H 0.59519 1.01916 0.42092
 H611 H 0.43082 1.03185 0.58022
 H612 H 0.42719 0.96727 0.52709
 Zr613 Zr 0.00819 0.56999 1.03472
 O614 O -0.03297 0.56505 1.06540
 O615 O 0.03057 0.61442 1.04975
 O616 O 0.02846 0.56358 1.07907
 O617 O -0.04247 0.60706 0.97615
 O618 O 0.06826 0.51981 1.07716
 O619 O -0.03263 0.60655 1.02709
 O620 O 0.08369 0.61447 1.02739
 O621 O 0.06180 0.55764 1.03210
 O622 O 0.02505 0.59298 0.99551
 O623 O 0.01203 0.51711 1.03619
 O624 O -0.02457 0.55082 1.00005
 Zr625 Zr 0.05088 0.50684 0.95650
 Zr626 Zr 0.06570 0.50498 1.03089
 Zr627 Zr -0.00501 0.57190 0.96051
 Zr628 Zr 0.07797 0.57883 0.99217
 O629 O -0.05476 0.56890 0.93812
 O630 O 0.12972 0.57378 1.01123
 O631 O 0.04848 0.55998 0.95506
 O632 O 0.08379 0.52613 0.99104
 O633 O 0.03474 0.48374 0.99603
 O634 O -0.00255 0.51943 0.95962
 C635 C 0.06167 0.62564 1.04665
 C636 C -0.04947 0.61696 1.00295
 C637 C 0.05219 0.54383 1.09132
 O638 O 0.11909 0.50958 1.04511
 O639 O 0.09585 0.46340 1.01398
 O640 O 0.08445 0.46502 0.96320
 C641 C 0.09915 0.45178 0.98690
 O642 O -0.06138 0.50580 1.02820
 Zr643 Zr -0.01800 0.49824 0.99979
 O644 O 0.02694 0.46341 0.93929
 O645 O 0.05290 0.46252 1.05688
 O646 O -0.01692 0.45467 1.02734
 O647 O -0.06846 0.49510 0.97826
 O648 O -0.01969 0.45730 0.96972
 C649 C -0.00063 0.44811 0.94765
 O650 O 0.09573 0.51010 0.92953
 O651 O 0.00934 0.61775 0.94046
 O652 O 0.03624 0.51752 0.91166
 O653 O -0.00204 0.56234 0.91388
 O654 O 0.07838 0.62689 0.97127
 O655 O 0.11324 0.57671 0.95596
 C656 C 0.01499 0.53947 0.89939
 H657 H 0.02176 0.61780 0.99579
 H658 H 0.10869 0.51969 0.98777
 H659 H -0.01754 0.51115 0.94265
 H660 H 0.00394 0.50842 1.05564
 H661 H 0.14087 0.59608 1.00979
 H662 H 0.12424 0.49121 1.05982
 H663 H 0.07476 0.45566 1.06823
 H664 H -0.03941 0.44314 1.02296
 H665 H 0.09974 0.63839 0.97906
 H666 H -0.01145 0.62535 0.92802
 H667 H -0.06846 0.55310 0.95016
 H668 H -0.07856 0.47317 0.98390
 H669 H 0.13142 0.59406 0.95890
 H670 H 0.09473 0.49129 0.91480
 H671 H -0.03232 0.58506 1.07881
 H672 H -0.05365 0.49976 1.04904
 Zr673 Zr -0.02568 0.43340 0.45754
 O674 O -0.06809 0.43767 0.42550
 O675 O -0.00080 0.38891 0.44286
 O676 O -0.00888 0.44182 0.41300
 O677 O -0.07618 0.40180 0.51440
 O678 O 0.03294 0.48194 0.41841
 O679 O -0.06623 0.39835 0.46412
 O680 O 0.04758 0.38392 0.47430
 O681 O 0.02826 0.44213 0.46375
 O682 O -0.01009 0.41154 0.49893
 O683 O -0.02104 0.48611 0.45632
 O684 O -0.05787 0.45664 0.48984
 Zr685 Zr 0.01904 0.49808 0.53868
 Zr686 Zr 0.03258 0.49440 0.46455
 Zr687 Zr -0.03970 0.43651 0.53126
 Zr688 Zr 0.04284 0.42249 0.50610
 O689 O -0.09084 0.44913 0.54582
 O690 O 0.09484 0.42308 0.49013
 O691 O 0.01408 0.44520 0.54039
 O692 O 0.05046 0.47441 0.50633
 O693 O 0.00332 0.51970 0.49710
 O694 O -0.03482 0.48897 0.53241
 C695 C 0.02878 0.37500 0.45129
 C696 C -0.08293 0.39021 0.48787
 C697 C 0.01453 0.46137 0.40232
 O698 O 0.08507 0.48371 0.45241
 O699 O 0.06489 0.53282 0.48005
 O700 O 0.05977 0.53363 0.53107
 C701 C 0.07356 0.54377 0.50635
 O702 O -0.09205 0.50265 0.45832
 Zr703 Zr -0.04995 0.50889 0.49043
 O704 O -0.00379 0.54459 0.55050
 O705 O 0.02177 0.53818 0.43832
 O706 O -0.04919 0.55027 0.46017
 O707 O -0.09855 0.51321 0.51252
 O708 O -0.04818 0.55378 0.51556
 C709 C -0.02834 0.56301 0.53791
 O710 O 0.06051 0.49894 0.57170
 O711 O -0.03051 0.39054 0.55475
 O712 O 0.00495 0.48437 0.58345
 O713 O -0.03701 0.44436 0.57772
 O714 O 0.03997 0.37769 0.53181
 O715 O 0.08147 0.41853 0.54147
 C716 C -0.01726 0.46323 0.59407
 H717 H -0.01371 0.38689 0.49927
 H718 H 0.07579 0.47856 0.51035
 H719 H -0.04894 0.49904 0.54862
 H720 H -0.02932 0.49536 0.43656
 H721 H 0.10537 0.40023 0.49333
 H722 H 0.09148 0.50117 0.43768
 H723 H 0.04337 0.54294 0.42721
 H724 H -0.06927 0.56554 0.46480
 H725 H 0.05926 0.36241 0.52533
 H726 H -0.05255 0.38521 0.56499
 H727 H -0.09765 0.43117 0.55992
 H728 H -0.10849 0.53604 0.50817
 H729 H 0.08004 0.43980 0.55301
 H730 H 0.05677 0.51941 0.58417
 H731 H -0.06694 0.41756 0.41222
 H732 H -0.10733 0.52316 0.45790
 Zr733 Zr 0.48615 -0.08535 -0.03197
 O734 O 0.44407 -0.08621 -0.06442
 O735 O 0.51347 -0.12986 -0.04290
 O736 O 0.50426 -0.08110 -0.07678
 O737 O 0.43967 -0.11594 0.02805
 O738 O 0.53863 -0.03469 -0.07551
 O739 O 0.44770 -0.12169 -0.02241
 O740 O 0.56500 -0.12707 -0.01536
 O741 O 0.53884 -0.07147 -0.02779
 O742 O 0.50470 -0.10265 0.01027
 O743 O 0.48553 -0.03262 -0.03681
 O744 O 0.45296 -0.06241 -0.00023
 Zr745 Zr 0.52687 -0.01154 0.04345
 Zr746 Zr 0.53813 -0.01904 -0.03048
 Zr747 Zr 0.47395 -0.07784 0.04196
 Zr748 Zr 0.55669 -0.08719 0.01497
 O749 O 0.42271 -0.06822 0.05778
 O750 O 0.60791 -0.08402 -0.00242
 O751 O 0.52688 -0.06448 0.04868
 O752 O 0.55926 -0.03473 0.01157
 O753 O 0.50777 0.00585 0.00131
 O754 O 0.47399 -0.02522 0.03947
 C755 C 0.54511 -0.14006 -0.03605
 C756 C 0.43234 -0.12917 0.00225
 C757 C 0.52463 -0.05975 -0.08930
 O758 O 0.59102 -0.02560 -0.04335
 O759 O 0.56614 0.02364 -0.01824
 O760 O 0.56248 0.02755 0.03278
 C761 C 0.57401 0.03741 0.00712
 O762 O 0.41329 -0.02235 -0.03324
 Zr763 Zr 0.45573 -0.00975 -0.00322
 O764 O 0.50026 0.03373 0.05331
 O765 O 0.52193 0.02137 -0.05920
 O766 O 0.45119 0.02882 -0.03632
 O767 O 0.40797 -0.00721 0.02025
 O768 O 0.45473 0.03733 0.01865
 C769 C 0.47416 0.04953 0.04006
 O770 O 0.57047 -0.00714 0.07407
 O771 O 0.48800 -0.12137 0.06756
 O772 O 0.51553 -0.02186 0.08934
 O773 O 0.47785 -0.06593 0.08796
 O774 O 0.55899 -0.13170 0.04150
 O775 O 0.59278 -0.07932 0.05178
 C776 C 0.49618 -0.04389 0.10222
 H777 H 0.50307 -0.12744 0.01219
 H778 H 0.58407 -0.02794 0.01459
 H779 H 0.45963 -0.01501 0.05545
 H780 H 0.47597 -0.02593 -0.05701
 H781 H 0.62078 -0.10534 0.00272
 H782 H 0.59518 -0.00854 -0.05911
 H783 H 0.54261 0.02752 -0.07098
 H784 H 0.43007 0.04279 -0.03192
 H785 H 0.58068 -0.14433 0.03617
 H786 H 0.46700 -0.12745 0.07895
 H787 H 0.41822 -0.08563 0.07315
 H788 H 0.39597 0.01441 0.01469
 H789 H 0.61088 -0.09764 0.05232
 H790 H 0.56654 0.01368 0.08603
 H791 H 0.44669 -0.10743 -0.07605
 H792 H 0.39613 -0.00326 -0.03457
 Zr793 Zr 0.52806 0.54667 -0.04327
 O794 O 0.56705 0.54264 -0.07619
 O795 O 0.50029 0.58969 -0.05843
 O796 O 0.50582 0.53694 -0.08678
 O797 O 0.57872 0.58656 0.01260
 O798 O 0.47239 0.49039 -0.08017
 O799 O 0.56719 0.58437 -0.03808
 O800 O 0.45103 0.58990 -0.03043
 O801 O 0.47572 0.53324 -0.03662
 O802 O 0.51342 0.56956 -0.00304
 O803 O 0.52758 0.49361 -0.04267
 O804 O 0.56472 0.52812 -0.01032
 Zr805 Zr 0.49641 0.48377 0.03984
 Zr806 Zr 0.47554 0.48063 -0.03350
 Zr807 Zr 0.54756 0.54919 0.03025
 Zr808 Zr 0.46213 0.55469 0.00430
 O809 O 0.59991 0.54701 0.04781
 O810 O 0.40943 0.54829 -0.01164
 O811 O 0.49570 0.53689 0.03967
 O812 O 0.45970 0.50219 0.00710
 O813 O 0.51021 0.46035 -0.00049
 O814 O 0.54860 0.49661 0.03293
 C815 C 0.46931 0.60067 -0.05222
 C816 C 0.58370 0.59620 -0.01446
 C817 C 0.48529 0.51354 -0.09665
 O818 O 0.42187 0.48665 -0.04705
 O819 O 0.44583 0.44148 -0.01458
 O820 O 0.46288 0.44223 0.03516
 C821 C 0.44495 0.43011 0.01266
 O822 O 0.60092 0.47960 -0.04078
 Zr823 Zr 0.56152 0.47528 -0.00822
 O824 O 0.52469 0.44083 0.05473
 O825 O 0.48811 0.43548 -0.05645
 O826 O 0.56329 0.43337 -0.03777
 O827 O 0.61198 0.47354 0.01353
 O828 O 0.56375 0.43085 0.01780
 C829 C 0.54743 0.42211 0.04138
 O830 O 0.45523 0.48433 0.07096
 O831 O 0.53178 0.59441 0.05164
 O832 O 0.51276 0.49864 0.08379
 O833 O 0.55057 0.54164 0.07692
 O834 O 0.46081 0.60286 0.02500
 O835 O 0.43028 0.55276 0.04277
 C836 C 0.53399 0.52142 0.09368
 H837 H 0.51486 0.59444 -0.00385
 H838 H 0.43546 0.49588 0.01202
 H839 H 0.56506 0.48852 0.04923
 H840 H 0.53512 0.48429 -0.06219
 H841 H 0.39690 0.57028 -0.00959
 H842 H 0.41623 0.46756 -0.06067
 H843 H 0.46624 0.42849 -0.06728
 H844 H 0.58527 0.42039 -0.03271
 H845 H 0.43821 0.61401 0.01864
 H846 H 0.55311 0.60320 0.06215
 H847 H 0.61377 0.53465 0.03271
 H848 H 0.62346 0.45207 0.00739
 H849 H 0.41061 0.56941 0.04051
 H850 H 0.45998 0.46554 0.08541
 H851 H 0.56382 0.56247 -0.08971
 H852 H 0.61207 0.50176 -0.03778
 Zr853 Zr 0.04113 1.04718 0.43486
 O854 O 0.08817 1.03757 0.41172
 O855 O 0.01999 1.08780 0.41057
 O856 O 0.02962 1.03467 0.38947
 O857 O 0.08079 1.09069 0.49405
 O858 O -0.01482 0.99709 0.39232
 O859 O 0.07856 1.08508 0.44288
 O860 O -0.03539 1.09422 0.42823
 O861 O -0.01294 1.03849 0.43330
 O862 O 0.01936 1.07557 0.46959
 O863 O 0.03604 0.99475 0.43795
 O864 O 0.06827 1.03035 0.47425
 Zr865 Zr -0.01469 0.99567 0.51385
 Zr866 Zr -0.01842 0.98699 0.43897
 Zr867 Zr 0.04361 1.05671 0.50925
 Zr868 Zr -0.03409 1.06530 0.46876
 O869 O 0.09151 1.05398 0.53473
 O870 O -0.08413 1.06090 0.44663
 O871 O -0.01077 1.04864 0.51017
 O872 O -0.04141 1.01355 0.47444
 O873 O 0.00624 0.96770 0.47831
 O874 O 0.03942 1.00455 0.51496
 C875 C -0.01170 1.09940 0.40857
 C876 C 0.09046 1.09859 0.46750
 C877 C 0.00524 1.01648 0.37739
 O878 O -0.06909 0.99281 0.41806
 O879 O -0.05374 0.95152 0.45495
 O880 O -0.05304 0.95820 0.50604
 C881 C -0.06490 0.94474 0.48133
 O882 O 0.10902 0.98091 0.45752
 Zr883 Zr 0.05987 0.97843 0.47870
 O884 O 0.00428 0.95063 0.53410
 O885 O -0.00339 0.94058 0.41932
 O886 O 0.06453 0.93395 0.45264
 O887 O 0.10448 0.97402 0.50849
 O888 O 0.05302 0.93743 0.50761
 C889 C 0.03022 0.93092 0.52742
 O890 O -0.06108 1.00445 0.53813
 O891 O 0.02590 1.10423 0.52487
 O892 O -0.00353 1.01125 0.55887
 O893 O 0.03665 1.05301 0.55600
 O894 O -0.03485 1.11621 0.48335
 O895 O -0.07341 1.07063 0.50153
 C896 C 0.01710 1.03343 0.57101
 H897 H 0.02272 1.10006 0.46699
 H898 H -0.06699 1.00957 0.47533
 H899 H 0.05158 0.99670 0.53381
 H900 H 0.04653 0.98323 0.42051
 H901 H -0.09460 1.08392 0.44478
 H902 H -0.07252 0.97329 0.40439
 H903 H -0.02321 0.93416 0.40558
 H904 H 0.08553 0.92142 0.46086
 H905 H -0.05414 1.12788 0.47168
 H906 H 0.04552 1.11327 0.53750
 H907 H 0.10666 1.03755 0.52414
 H908 H 0.11492 0.95113 0.50586
 H909 H -0.08961 1.08960 0.49583
 H910 H -0.06181 0.98676 0.55391
 H911 H 0.08961 1.05506 0.39584
 H912 H 0.10440 0.97899 0.43553
 Zr913 Zr 0.66823 0.24454 0.22430
 O914 O 0.66852 0.28644 0.19474
 O915 O 0.62356 0.21975 0.20809
 O916 O 0.67496 0.22895 0.17950
 O917 O 0.63041 0.28666 0.28412
 O918 O 0.72459 0.19558 0.18061
 O919 O 0.62742 0.28017 0.23309
 O920 O 0.62653 0.16883 0.23190
 O921 O 0.68559 0.19420 0.22552
 O922 O 0.64785 0.22371 0.26308
 O923 O 0.72349 0.24577 0.22340
 O924 O 0.68739 0.27468 0.25990
 Zr925 Zr 0.74141 0.20281 0.30181
 Zr926 Zr 0.74065 0.19523 0.22688
 Zr927 Zr 0.66916 0.25154 0.29877
 Zr928 Zr 0.66697 0.17409 0.26509
 O929 O 0.67535 0.29811 0.32148
 O930 O 0.67472 0.12734 0.24286
 O931 O 0.68602 0.20103 0.30261
 O932 O 0.72223 0.17283 0.26608
 O933 O 0.76179 0.22347 0.26278
 O934 O 0.72399 0.25300 0.30060
 C935 C 0.61327 0.18945 0.21207
 C936 C 0.61795 0.29457 0.25777
 C937 C 0.69739 0.20914 0.16690
 O938 O 0.73917 0.14516 0.21048
 O939 O 0.78638 0.16787 0.24199
 O940 O 0.78763 0.17508 0.29301
 C941 C 0.80056 0.16351 0.26856
 O942 O 0.73032 0.31393 0.23111
 Zr943 Zr 0.74254 0.27302 0.26082
 O944 O 0.78533 0.22850 0.31920
 O945 O 0.78304 0.21332 0.20212
 O946 O 0.78678 0.27856 0.23340
 O947 O 0.73879 0.31844 0.28579
 O948 O 0.78747 0.27537 0.28963
 C949 C 0.79994 0.25570 0.31053
 O950 O 0.74508 0.15752 0.32714
 O951 O 0.62132 0.23722 0.31791
 O952 O 0.72831 0.20967 0.34732
 O953 O 0.67771 0.24150 0.34471
 O954 O 0.61953 0.16857 0.28839
 O955 O 0.67491 0.13668 0.29905
 C956 C 0.70198 0.22488 0.35940
 H957 H 0.62178 0.22493 0.26301
 H958 H 0.73101 0.14927 0.26832
 H959 H 0.73217 0.26592 0.31850
 H960 H 0.73114 0.25609 0.20442
 H961 H 0.65282 0.11440 0.24460
 H962 H 0.75804 0.14286 0.19564
 H963 H 0.79146 0.19417 0.18977
 H964 H 0.79962 0.29863 0.24069
 H965 H 0.60802 0.14808 0.28039
 H966 H 0.61390 0.25598 0.33117
 H967 H 0.65572 0.30042 0.33557
 H968 H 0.76080 0.33092 0.28294
 H969 H 0.65804 0.11827 0.29551
 H970 H 0.76535 0.15955 0.34166
 H971 H 0.64720 0.28501 0.18131
 H972 H 0.74989 0.33007 0.23187
 Zr973 Zr 0.83755 0.75111 0.71562
 O974 O 0.83536 0.71421 0.68112
 O975 O 0.88696 0.77150 0.70862
 O976 O 0.83680 0.77230 0.67200
 O977 O 0.86364 0.69744 0.77414
 O978 O 0.79075 0.81002 0.67129
 O979 O 0.87057 0.70867 0.72435
 O980 O 0.88074 0.82350 0.72905
 O981 O 0.82676 0.80263 0.72011
 O982 O 0.85734 0.76421 0.75844
 O983 O 0.78281 0.75701 0.70867
 O984 O 0.81117 0.72009 0.74567
 Zr985 Zr 0.76298 0.79309 0.78870
 Zr986 Zr 0.77229 0.80836 0.71566
 Zr987 Zr 0.82889 0.73582 0.78857
 Zr988 Zr 0.84454 0.81530 0.76333
 O989 O 0.81465 0.68831 0.80567
 O990 O 0.84306 0.86733 0.75241
 O991 O 0.81808 0.78738 0.79552
 O992 O 0.78989 0.82384 0.75880
 O993 O 0.74373 0.77974 0.74571
 O994 O 0.77407 0.74157 0.78413
 C995 C 0.89563 0.80252 0.71119
 C996 C 0.87607 0.69047 0.74816
 C997 C 0.81691 0.79491 0.65890
 O998 O 0.78312 0.85889 0.70445
 O999 O 0.73018 0.83969 0.72793
 O1000 O 0.72437 0.83112 0.77828
 C1001 C 0.71579 0.84602 0.75317
 O1002 O 0.76673 0.68986 0.70894
 Zr1003 Zr 0.75674 0.72875 0.74066
 O1004 O 0.71406 0.77164 0.79742
 O1005 O 0.72964 0.79966 0.68499
 O1006 O 0.71553 0.73184 0.70732
 O1007 O 0.75164 0.68112 0.76163
 O1008 O 0.70872 0.72949 0.76284
 C1009 C 0.69700 0.74764 0.78441
 O1010 O 0.76154 0.83328 0.82012
 O1011 O 0.87635 0.74208 0.81409
 O1012 O 0.77130 0.77783 0.83405
 O1013 O 0.81815 0.74100 0.83445
 O1014 O 0.89399 0.81101 0.78659
 O1015 O 0.84839 0.84520 0.80274
 C1016 C 0.79427 0.75829 0.84769
 H1017 H 0.88293 0.75925 0.76086
 H1018 H 0.78432 0.84793 0.76244
 H1019 H 0.76249 0.72785 0.79946
 H1020 H 0.77551 0.75001 0.68802
 H1021 H 0.86696 0.87598 0.75696
 H1022 H 0.76612 0.86564 0.68802
 H1023 H 0.72525 0.82096 0.67369
 H1024 H 0.69949 0.71292 0.71081
 H1025 H 0.90779 0.83070 0.78051
 H1026 H 0.88097 0.72073 0.82525
 H1027 H 0.83299 0.68156 0.82101
 H1028 H 0.72862 0.67198 0.75483
 H1029 H 0.82417 0.85324 0.80675
 H1030 H 0.73962 0.83119 0.83155
 H1031 H 0.85813 0.71450 0.67074
 H1032 H 0.74533 0.67626 0.70590
 Zr1033 Zr 0.18904 0.24465 0.76869
 O1034 O 0.21656 0.20506 0.79178
 O1035 O 0.14507 0.24898 0.79514
 O1036 O 0.20555 0.25932 0.81314
 O1037 O 0.15239 0.19508 0.71011
 O1038 O 0.22671 0.31241 0.80734
 O1039 O 0.16506 0.19676 0.76070
 O1040 O 0.11909 0.29820 0.77894
 O1041 O 0.17997 0.29693 0.76998
 O1042 O 0.14976 0.25557 0.73583
 O1043 O 0.23770 0.26745 0.76176
 O1044 O 0.20907 0.22661 0.72798
 Zr1045 Zr 0.20947 0.31395 0.68682
 Zr1046 Zr 0.22738 0.31977 0.76036
 Zr1047 Zr 0.17082 0.24077 0.69464
 Zr1048 Zr 0.14186 0.30756 0.73660
 O1049 O 0.19140 0.19929 0.67032
 O1050 O 0.13215 0.35407 0.75870
 O1051 O 0.15992 0.29269 0.69392
 O1052 O 0.18875 0.33207 0.72729
 O1053 O 0.24873 0.30380 0.71993
 O1054 O 0.21908 0.26208 0.68595
 C1055 C 0.12381 0.27410 0.79832
 C1056 C 0.15276 0.18202 0.73647
 C1057 C 0.21822 0.28720 0.82372
 O1058 O 0.20695 0.36371 0.78107
 O1059 O 0.25037 0.36308 0.74140
 O1060 O 0.23425 0.36028 0.69157
 C1061 C 0.24924 0.37488 0.71421
 O1062 O 0.27194 0.20862 0.74653
 Zr1063 Zr 0.25613 0.25148 0.72034
 O1064 O 0.25674 0.31124 0.66328
 O1065 O 0.28002 0.32147 0.77724
 O1066 O 0.30508 0.26350 0.74165
 O1067 O 0.26878 0.21096 0.69116
 O1068 O 0.28904 0.26985 0.68754
 C1069 C 0.28485 0.29286 0.66740
 O1070 O 0.18119 0.35358 0.66424
 O1071 O 0.11692 0.23871 0.68135
 O1072 O 0.19323 0.30101 0.64260
 O1073 O 0.16602 0.25086 0.64797
 O1074 O 0.09025 0.29111 0.72548
 O1075 O 0.11865 0.34212 0.70482
 C1076 C 0.17711 0.27521 0.63186
 H1077 H 0.12756 0.24394 0.73983
 H1078 H 0.18413 0.35669 0.72615
 H1079 H 0.22817 0.25395 0.66654
 H1080 H 0.25515 0.26134 0.77800
 H1081 H 0.10656 0.35562 0.76235
 H1082 H 0.22665 0.37370 0.79297
 H1083 H 0.28166 0.34203 0.78984
 H1084 H 0.32376 0.25079 0.73114
 H1085 H 0.07397 0.30429 0.73815
 H1086 H 0.11450 0.21914 0.66761
 H1087 H 0.17176 0.19006 0.65778
 H1088 H 0.29482 0.20900 0.69081
 H1089 H 0.09539 0.34995 0.71184
 H1090 H 0.19567 0.36140 0.64745
 H1091 H 0.20117 0.19753 0.80804
 H1092 H 0.29658 0.20224 0.74215
 Zr1093 Zr 0.30808 0.78517 0.31558
 O1094 O 0.30035 0.82907 0.34185
 O1095 O 0.35320 0.76429 0.33791
 O1096 O 0.29621 0.77400 0.36084
 O1097 O 0.34668 0.82512 0.25450
 O1098 O 0.25418 0.73369 0.35711
 O1099 O 0.34417 0.82440 0.30576
 O1100 O 0.35138 0.71011 0.32145
 O1101 O 0.29805 0.73341 0.31571
 O1102 O 0.33555 0.76406 0.27991
 O1103 O 0.25284 0.77992 0.31244
 O1104 O 0.28751 0.81026 0.27678
 Zr1105 Zr 0.24862 0.73014 0.23564
 Zr1106 Zr 0.24397 0.72782 0.31047
 Zr1107 Zr 0.31298 0.78639 0.24109
 Zr1108 Zr 0.32408 0.71285 0.27943
 O1109 O 0.30565 0.82969 0.21370
 O1110 O 0.32303 0.66342 0.29759
 O1111 O 0.30411 0.73451 0.23910
 O1112 O 0.26985 0.70533 0.27437
 O1113 O 0.22152 0.75084 0.27191
 O1114 O 0.25830 0.78196 0.23543
 C1115 C 0.36185 0.73283 0.34018
 C1116 C 0.35531 0.83664 0.28066
 C1117 C 0.27546 0.75244 0.37248
 O1118 O 0.25355 0.68036 0.33130
 O1119 O 0.20679 0.69253 0.29485
 O1120 O 0.21151 0.69173 0.24378
 C1121 C 0.19895 0.68053 0.26854
 O1122 O 0.23967 0.84704 0.29812
 Zr1123 Zr 0.23310 0.80220 0.27255
 O1124 O 0.20032 0.74904 0.21721
 O1125 O 0.19562 0.74150 0.32987
 O1126 O 0.18774 0.80552 0.29917
 O1127 O 0.22752 0.84493 0.24394
 O1128 O 0.18877 0.79697 0.24371
 C1129 C 0.18053 0.77453 0.22407
 O1130 O 0.25491 0.68578 0.20959
 O1131 O 0.36379 0.77247 0.22663
 O1132 O 0.26376 0.73840 0.19041
 O1133 O 0.31029 0.77362 0.19563
 O1134 O 0.37732 0.71379 0.26644
 O1135 O 0.32845 0.67626 0.24470
 C1136 C 0.28976 0.75483 0.17989
 H1137 H 0.36109 0.76832 0.28227
 H1138 H 0.26612 0.68075 0.27331
 H1139 H 0.24955 0.79302 0.21656
 H1140 H 0.24151 0.79048 0.32998
 H1141 H 0.34760 0.65448 0.29840
 H1142 H 0.23360 0.67628 0.34463
 H1143 H 0.18962 0.72263 0.34328
 H1144 H 0.17224 0.82365 0.29048
 H1145 H 0.39006 0.69608 0.27843
 H1146 H 0.37103 0.79047 0.21276
 H1147 H 0.29099 0.84561 0.22531
 H1148 H 0.20431 0.85573 0.24770
 H1149 H 0.35114 0.66370 0.24728
 H1150 H 0.23506 0.68519 0.19448
 H1151 H 0.32073 0.83033 0.35635
 H1152 H 0.21699 0.85972 0.29846
 Zr1153 Zr 0.16866 0.75477 0.72688
 O1154 O 0.17159 0.79311 0.69386
 O1155 O 0.12206 0.73162 0.71324
 O1156 O 0.17346 0.73438 0.68349
 O1157 O 0.13467 0.80639 0.78248
 O1158 O 0.22046 0.69773 0.68729
 O1159 O 0.13054 0.79358 0.73243
 O1160 O 0.12389 0.68211 0.73917
 O1161 O 0.18213 0.70376 0.73248
 O1162 O 0.14731 0.74051 0.76760
 O1163 O 0.22382 0.75152 0.72507
 O1164 O 0.19060 0.78763 0.75920
 Zr1165 Zr 0.23977 0.71746 0.80648
 Zr1166 Zr 0.23715 0.70055 0.73320
 Zr1167 Zr 0.17148 0.77086 0.80043
 Zr1168 Zr 0.16242 0.69010 0.77379
 O1169 O 0.18175 0.81933 0.81822
 O1170 O 0.16641 0.63945 0.75881
 O1171 O 0.18442 0.71988 0.80843
 O1172 O 0.21750 0.68468 0.77435
 O1173 O 0.26099 0.73154 0.76565
 O1174 O 0.22651 0.76834 0.80101
 C1175 C 0.11152 0.70158 0.71800
 C1176 C 0.12229 0.81153 0.75550
 C1177 C 0.19458 0.71219 0.67244
 O1178 O 0.23076 0.64936 0.72122
 O1179 O 0.28070 0.67119 0.75075
 O1180 O 0.28277 0.68455 0.80071
 C1181 C 0.29451 0.66882 0.77770
 O1182 O 0.23368 0.82022 0.72681
 Zr1183 Zr 0.24551 0.78187 0.75922
 O1184 O 0.28686 0.74095 0.81961
 O1185 O 0.28086 0.71183 0.70691
 O1186 O 0.28795 0.78260 0.72930
 O1187 O 0.24773 0.82927 0.78123
 O1188 O 0.29291 0.78250 0.78483
 C1189 C 0.30438 0.76437 0.80712
 O1190 O 0.24012 0.67607 0.83673
 O1191 O 0.12329 0.76222 0.82155
 O1192 O 0.22920 0.73160 0.85081
 O1193 O 0.18075 0.76631 0.84745
 O1194 O 0.11343 0.69151 0.79543
 O1195 O 0.16724 0.65828 0.81229
 C1196 C 0.20472 0.74963 0.86260
 H1197 H 0.12137 0.74363 0.76737
 H1198 H 0.22442 0.66099 0.77894
 H1199 H 0.23662 0.78246 0.81740
 H1200 H 0.23179 0.75895 0.70514
 H1201 H 0.14332 0.62895 0.76186
 H1202 H 0.24916 0.64382 0.70657
 H1203 H 0.28720 0.69078 0.69619
 H1204 H 0.30207 0.80272 0.73426
 H1205 H 0.10068 0.67101 0.78909
 H1206 H 0.11742 0.78304 0.83282
 H1207 H 0.16235 0.82502 0.83187
 H1208 H 0.27038 0.83954 0.77617
 H1209 H 0.14783 0.64196 0.81183
 H1210 H 0.26084 0.67829 0.85075
 H1211 H 0.15003 0.79183 0.68070
 H1212 H 0.25350 0.83604 0.72627
 Zr1213 Zr 0.32132 0.24825 0.20758
 O1214 O 0.31138 0.21058 0.17475
 O1215 O 0.36412 0.27164 0.18926
 O1216 O 0.30597 0.26923 0.16519
 O1217 O 0.36922 0.19917 0.25958
 O1218 O 0.25843 0.30292 0.17545
 O1219 O 0.35982 0.20827 0.20925
 O1220 O 0.36990 0.31980 0.21680
 O1221 O 0.30876 0.29920 0.21509
 O1222 O 0.35118 0.26286 0.24557
 O1223 O 0.26650 0.25094 0.21264
 O1224 O 0.30748 0.21526 0.24218
 Zr1225 Zr 0.26826 0.28415 0.29594
 Zr1226 Zr 0.25476 0.30160 0.22277
 Zr1227 Zr 0.33500 0.23259 0.28070
 Zr1228 Zr 0.33712 0.31288 0.25391
 O1229 O 0.32991 0.18355 0.29869
 O1230 O 0.32843 0.36256 0.23722
 O1231 O 0.32338 0.28299 0.29076
 O1232 O 0.28304 0.31721 0.26147
 O1233 O 0.23881 0.27019 0.25741
 O1234 O 0.28100 0.23364 0.28800
 C1235 C 0.37736 0.30066 0.19435
 C1236 C 0.37472 0.19232 0.23187
 C1237 C 0.28044 0.28957 0.15721
 O1238 O 0.25885 0.35238 0.20895
 O1239 O 0.21677 0.33216 0.24442
 O1240 O 0.22566 0.31895 0.29416
 C1241 C 0.20944 0.33511 0.27249
 O1242 O 0.25813 0.18220 0.21516
 Zr1243 Zr 0.25337 0.22017 0.24865
 O1244 O 0.22272 0.26130 0.31189
 O1245 O 0.20462 0.29040 0.20367
 O1246 O 0.20456 0.21928 0.22407
 O1247 O 0.25743 0.17244 0.27016
 O1248 O 0.21269 0.21807 0.27910
 C1249 C 0.20418 0.23682 0.30131
 O1250 O 0.27530 0.32385 0.32732
 O1251 O 0.38705 0.24183 0.29674
 O1252 O 0.28745 0.26695 0.33908
 O1253 O 0.33710 0.23721 0.32757
 O1254 O 0.38943 0.31179 0.27214
 O1255 O 0.34072 0.34665 0.29102
 C1256 C 0.31598 0.25019 0.34653
 H1257 H 0.37683 0.26005 0.24276
 H1258 H 0.27739 0.34093 0.26666
 H1259 H 0.27498 0.21893 0.30504
 H1260 H 0.25385 0.24352 0.19402
 H1261 H 0.35159 0.37364 0.23704
 H1262 H 0.23729 0.35793 0.19663
 H1263 H 0.19598 0.31105 0.19301
 H1264 H 0.19213 0.19875 0.23018
 H1265 H 0.40140 0.33169 0.26408
 H1266 H 0.39575 0.22114 0.30734
 H1267 H 0.35184 0.17839 0.31064
 H1268 H 0.23416 0.16169 0.26778
 H1269 H 0.35875 0.36370 0.28717
 H1270 H 0.25712 0.32148 0.34273
 H1271 H 0.33003 0.21214 0.15967
 H1272 H 0.23849 0.16629 0.21664
 Zr1273 Zr 0.71429 0.71809 0.29213
 O1274 O 0.74461 0.68196 0.31728
 O1275 O 0.66623 0.71678 0.31366
 O1276 O 0.72134 0.73345 0.33772
 O1277 O 0.69307 0.66505 0.23212
 O1278 O 0.73623 0.78866 0.33388
 O1279 O 0.69675 0.66843 0.28341
 O1280 O 0.63575 0.76146 0.29272
 O1281 O 0.69782 0.76876 0.29219
 O1282 O 0.67883 0.72486 0.25552
 O1283 O 0.76043 0.74632 0.28969
 O1284 O 0.74251 0.70309 0.25405
 Zr1285 Zr 0.73635 0.79097 0.21267
 Zr1286 Zr 0.74297 0.79677 0.28760
 Zr1287 Zr 0.70736 0.71274 0.21744
 Zr1288 Zr 0.66410 0.77558 0.25480
 O1289 O 0.73763 0.67546 0.19531
 O1290 O 0.64563 0.81975 0.27666
 O1291 O 0.68982 0.76313 0.21500
 O1292 O 0.70827 0.80575 0.25070
 O1293 O 0.77155 0.78466 0.24956
 O1294 O 0.75297 0.74049 0.21250
 C1295 C 0.64051 0.73826 0.31282
 C1296 C 0.68985 0.65257 0.25852
 C1297 C 0.72828 0.76254 0.34928
 O1298 O 0.71423 0.83774 0.30594
 O1299 O 0.76238 0.84255 0.27205
 O1300 O 0.75842 0.83878 0.22076
 C1301 C 0.76696 0.85419 0.24545
 O1302 O 0.80537 0.69245 0.27684
 Zr1303 Zr 0.78662 0.73392 0.25015
 O1304 O 0.78566 0.79436 0.19367
 O1305 O 0.79225 0.80435 0.30987
 O1306 O 0.83031 0.75072 0.27666
 O1307 O 0.80790 0.69663 0.22132
 O1308 O 0.82144 0.75889 0.22178
 C1309 C 0.81601 0.78175 0.20147
 O1310 O 0.70756 0.82926 0.18883
 O1311 O 0.65664 0.70174 0.19926
 O1312 O 0.72405 0.77696 0.16727
 O1313 O 0.70365 0.72351 0.17132
 O1314 O 0.61722 0.75396 0.23702
 O1315 O 0.64167 0.80839 0.22121
 C1316 C 0.71088 0.74973 0.15600
 H1317 H 0.65771 0.71082 0.25710
 H1318 H 0.70094 0.82980 0.24917
 H1319 H 0.76502 0.73426 0.19378
 H1320 H 0.77613 0.74208 0.30758
 H1321 H 0.61963 0.81845 0.27734
 H1322 H 0.73048 0.84952 0.32014
 H1323 H 0.78926 0.82437 0.32296
 H1324 H 0.85191 0.74098 0.26787
 H1325 H 0.59733 0.76498 0.24737
 H1326 H 0.65931 0.68189 0.18589
 H1327 H 0.72121 0.66333 0.18151
 H1328 H 0.83388 0.69856 0.22259
 H1329 H 0.61709 0.81432 0.22622
 H1330 H 0.72335 0.83837 0.17355
 H1331 H 0.72885 0.67215 0.33223
 H1332 H 0.83074 0.68847 0.27343
 Zr1333 Zr 0.78713 0.26572 0.79220
 O1334 O 0.77880 0.30677 0.82173
 O1335 O 0.83144 0.24315 0.81351
 O1336 O 0.77404 0.24941 0.83611
 O1337 O 0.83010 0.30910 0.73534
 O1338 O 0.72712 0.21495 0.82792
 O1339 O 0.82481 0.30504 0.78620
 O1340 O 0.83343 0.19110 0.79188
 O1341 O 0.77479 0.21444 0.78882
 O1342 O 0.81544 0.24622 0.75637
 O1343 O 0.73189 0.26311 0.78633
 O1344 O 0.76998 0.29469 0.75451
 Zr1345 Zr 0.73008 0.22058 0.70646
 Zr1346 Zr 0.72041 0.21171 0.78054
 Zr1347 Zr 0.79641 0.27256 0.71842
 Zr1348 Zr 0.80164 0.19577 0.75217
 O1349 O 0.79311 0.31767 0.69302
 O1350 O 0.79467 0.14737 0.77118
 O1351 O 0.78546 0.22153 0.71255
 O1352 O 0.74728 0.19136 0.74403
 O1353 O 0.70151 0.23907 0.74280
 O1354 O 0.74198 0.27164 0.71014
 C1355 C 0.84275 0.21245 0.81232
 C1356 C 0.83751 0.31874 0.76223
 C1357 C 0.74975 0.22983 0.84538
 O1358 O 0.72654 0.16260 0.79882
 O1359 O 0.68227 0.17895 0.76083
 O1360 O 0.68793 0.18701 0.71031
 C1361 C 0.67342 0.17308 0.73297
 O1362 O 0.71376 0.33104 0.77752
 Zr1363 Zr 0.71537 0.28952 0.74743
 O1364 O 0.68466 0.24295 0.68602
 O1365 O 0.67118 0.22586 0.79808
 O1366 O 0.66745 0.29219 0.77053
 O1367 O 0.71651 0.33564 0.72346
 O1368 O 0.67386 0.28918 0.71492
 C1369 C 0.66582 0.26883 0.69342
 O1370 O 0.73618 0.17709 0.67930
 O1371 O 0.84781 0.25805 0.70578
 O1372 O 0.74813 0.23180 0.66265
 O1373 O 0.79661 0.26342 0.67239
 O1374 O 0.85419 0.19378 0.73739
 O1375 O 0.80535 0.15965 0.71698
 C1376 C 0.77566 0.24770 0.65448
 H1377 H 0.84114 0.24896 0.75963
 H1378 H 0.74194 0.16729 0.74081
 H1379 H 0.73510 0.28465 0.69177
 H1380 H 0.72001 0.27272 0.80402
 H1381 H 0.81814 0.13603 0.77277
 H1382 H 0.70567 0.15864 0.81110
 H1383 H 0.66339 0.20635 0.80993
 H1384 H 0.65408 0.31226 0.76277
 H1385 H 0.86605 0.17422 0.74755
 H1386 H 0.85668 0.27672 0.69343
 H1387 H 0.77865 0.33367 0.70472
 H1388 H 0.69321 0.34692 0.72566
 H1389 H 0.82379 0.14252 0.72243
 H1390 H 0.71761 0.17833 0.66306
 H1391 H 0.79891 0.30650 0.83658
 H1392 H 0.73776 0.34033 0.77888
 N1393 N 0.50452 1.10120 0.36889
 N1394 N 0.49297 1.10430 0.34056
 C1395 C 0.48725 1.07293 0.32989
 C1396 C 0.49662 1.05030 0.35285
 N1397 N 0.50728 1.06904 0.37664
 H1398 H 0.49292 1.02333 0.35335
 N1399 N 0.01771 0.50804 0.85344
 N1400 N 0.00084 0.50606 0.82710
 C1401 C -0.02059 0.53351 0.82460
 C1402 C -0.01587 0.55287 0.85030
 N1403 N 0.00791 0.53566 0.86785
 H1404 H -0.03073 0.57508 0.85690
 N1405 N 0.01126 0.01663 0.85416
 N1406 N 0.02119 0.01280 0.82613
 C1407 C 0.03870 -0.01708 0.82470
 C1408 C 0.03931 -0.03158 0.85301
 N1409 N 0.02205 -0.00952 0.87066
 H1410 H 0.05117 -0.05543 0.86013
 N1411 N 0.50951 0.50910 0.35587
 N1412 N 0.51742 0.49985 0.32817
 C1413 C 0.53574 0.47032 0.33044
 C1414 C 0.53948 0.46212 0.36043
 N1415 N 0.52299 0.48700 0.37553
 H1416 H 0.55388 0.44085 0.37039
 N1417 N 0.51472 0.51799 0.14503
 N1418 N 0.52790 0.52050 0.17285
 C1419 C 0.56193 0.52938 0.17091
 C1420 C 0.56929 0.53215 0.14076
 N1421 N 0.53918 0.52463 0.12551
 H1422 H 0.59464 0.53585 0.13091
 N1423 N 0.00060 1.01466 0.62009
 N1424 N 0.01191 1.01557 0.64848
 C1425 C 0.03904 1.03711 0.65051
 C1426 C 0.04356 1.05004 0.62171
 N1427 N 0.01931 1.03475 0.60341
 H1428 H 0.06452 1.06588 0.61433
 N1429 N 0.00508 0.46707 0.64620
 N1430 N -0.00542 0.46071 0.67379
 C1431 C -0.03821 0.44798 0.67143
 C1432 C -0.04770 0.44756 0.64104
 N1433 N -0.02007 0.45971 0.62616
 H1434 H -0.07311 0.44147 0.63094
 N1435 N 0.52292 -0.03634 0.15221
 N1436 N 0.51487 -0.03916 0.18090
 C1437 C 0.48150 -0.05031 0.18189
 C1438 C 0.46915 -0.05377 0.15228
 N1439 N 0.49577 -0.04464 0.13459
 H1440 H 0.44267 -0.05954 0.14444
 N1441 N 0.42899 0.38152 0.04197
 N1442 N 0.40195 0.36159 0.04574
 C1443 C 0.37703 0.36989 0.02451
 C1444 C 0.39022 0.39577 0.00718
 N1445 N 0.42265 0.40225 0.01898
 H1446 H 0.37658 0.41024 -0.01044
 N1447 N -0.11464 0.91671 0.45825
 N1448 N -0.14230 0.89914 0.46557
 C1449 C -0.13954 0.89332 0.49552
 C1450 C -0.10874 0.90817 0.50640
 N1451 N -0.09419 0.92254 0.48230
 H1452 H -0.09871 0.90973 0.52946
 N1453 N -0.10581 0.11059 0.95488
 N1454 N -0.13093 0.13408 0.95292
 C1455 C -0.15533 0.12632 0.97310
 C1456 C -0.14387 0.09686 0.98786
 N1457 N -0.11293 0.08792 0.97557
 H1458 H -0.15746 0.08244 1.00445
 N1459 N 0.40285 0.61478 0.46766
 N1460 N 0.37812 0.63861 0.46705
 C1461 C 0.35322 0.62943 0.48629
 C1462 C 0.36392 0.59872 0.49908
 N1463 N 0.39500 0.59060 0.48665
 H1464 H 0.35003 0.58326 0.51471
 N1465 N 0.11605 0.57711 0.48144
 N1466 N 0.14355 0.59622 0.48697
 C1467 C 0.14708 0.59921 0.51710
 C1468 C 0.12021 0.58117 0.53007
 N1469 N 0.10153 0.56770 0.50679
 H1470 H 0.11552 0.57736 0.55375
 N1471 N 0.60804 0.07654 -0.02074
 N1472 N 0.63415 0.09779 -0.01703
 C1473 C 0.64134 0.09960 0.01280
 C1474 C 0.61830 0.07875 0.02748
 N1475 N 0.59807 0.06475 0.00552
 H1476 H 0.61774 0.07292 0.05129
 N1477 N 0.62345 0.92180 0.44210
 N1478 N 0.64676 0.89707 0.43874
 C1479 C 0.66055 0.88955 0.46634
 C1480 C 0.64456 0.91082 0.48707
 N1481 N 0.62153 0.93051 0.47080
 H1482 H 0.64903 0.91175 0.51127
 N1483 N 0.10531 0.39650 0.96543
 N1484 N 0.13037 0.37552 0.95649
 C1485 C 0.16126 0.38741 0.96729
 C1486 C 0.15407 0.41649 0.98372
 N1487 N 0.11872 0.42109 0.98209
 H1488 H 0.17274 0.43397 0.99349
 N1489 N 0.07521 0.33592 0.43783
 N1490 N 0.08365 0.31607 0.41516
 C1491 C 0.05601 0.31720 0.39532
 C1492 C 0.03019 0.33802 0.40659
 N1493 N 0.04321 0.34905 0.43313
 H1494 H 0.00499 0.34531 0.39622
 N1495 N 0.59344 -0.17558 -0.05347
 N1496 N 0.59954 -0.19686 -0.07585
 C1497 C 0.56838 -0.20101 -0.09072
 C1498 C 0.54313 -0.18188 -0.07679
 N1499 N 0.55968 -0.16655 -0.05370
 H1500 H 0.51574 -0.17799 -0.08366
 N1501 N -0.04053 -0.18628 1.01732
 N1502 N -0.03939 -0.20957 1.03877
 C1503 C -0.05731 -0.19651 1.06190
 C1504 C -0.06985 -0.16509 1.05376
 N1505 N -0.05879 -0.15940 1.02595
 H1506 H -0.08034 -0.14589 1.06856
 N1507 N 0.42024 0.32233 0.50501
 N1508 N 0.41605 0.29274 0.51808
 C1509 C 0.43997 0.29059 0.54127
 C1510 C 0.45893 0.31962 0.54180
 N1511 N 0.44527 0.33900 0.51961
 H1512 H 0.47654 0.32816 0.55980
 N1513 N 0.50417 1.10543 0.62748
 N1514 N 0.50417 1.13071 0.64686
 C1515 C 0.52349 1.15500 0.63474
 C1516 C 0.53516 1.14404 0.60722
 N1517 N 0.52242 1.11304 0.60354
 H1518 H 0.54709 1.15886 0.58992
 N1519 N 0.10471 0.65799 1.07599
 N1520 N 0.10436 0.67966 1.09875
 C1521 C 0.07012 0.68681 1.10411
 C1522 C 0.04974 0.66913 1.08378
 N1523 N 0.07206 0.65172 1.06674
 H1524 H 0.02134 0.66764 1.08198
 N1525 N 0.41986 0.63385 -0.07299
 N1526 N 0.41370 0.65732 -0.09380
 C1527 C 0.44505 0.66451 -0.10564
 C1528 C 0.47062 0.64448 -0.09145
 N1529 N 0.45387 0.62610 -0.07126
 H1530 H 0.49866 0.64321 -0.09506
 N1531 N -0.00206 1.11307 0.35702
 N1532 N -0.01003 1.13693 0.33717
 C1533 C -0.03522 1.15663 0.34926
 C1534 C -0.04281 1.14373 0.37732
 N1535 N -0.02078 1.11710 0.38142
 H1536 H -0.05807 1.15562 0.39472
 N1537 N 0.76623 0.76916 0.89472
 N1538 N 0.76754 0.75860 0.92291
 C1539 C 0.79545 0.73707 0.92621
 C1540 C 0.81172 0.73516 0.89871
 N1541 N 0.79215 0.75518 0.87968
 H1542 H 0.83343 0.71879 0.89249
 N1543 N 0.35840 0.23590 0.38624
 N1544 N 0.35971 0.22562 0.41459
 C1545 C 0.32663 0.22779 0.42464
 C1546 C 0.30485 0.24048 0.40120
 N1547 N 0.32585 0.24486 0.37766
 H1548 H 0.27643 0.24319 0.40029
 N1549 N 0.72091 0.20634 0.40979
 N1550 N 0.71618 0.21572 0.43804
 C1551 C 0.69070 0.24001 0.43742
 C1552 C 0.68007 0.24525 0.40790
 N1553 N 0.69971 0.22412 0.39141
 H1554 H 0.66330 0.26556 0.39902
 N1555 N 0.22718 0.73153 0.91112
 N1556 N 0.22636 0.74023 0.93972
 C1557 C 0.20272 0.76591 0.94190
 C1558 C 0.18837 0.77236 0.91324
 N1559 N 0.20507 0.75066 0.89477
 H1560 H 0.17057 0.79270 0.90615
 N1561 N 0.33146 0.74691 0.14126
 N1562 N 0.33607 0.75723 0.11339
 C1563 C 0.30477 0.76960 0.10286
 C1564 C 0.28044 0.76578 0.12534
 N1565 N 0.29832 0.75157 0.14894
 H1566 H 0.25385 0.77603 0.12588
 N1567 N 0.81727 0.24290 0.61508
 N1568 N 0.82283 0.25752 0.58888
 C1569 C 0.79272 0.27404 0.58080
 C1570 C 0.76827 0.26839 0.60263
 N1571 N 0.78453 0.24861 0.62354
 H1572 H 0.74252 0.28023 0.60462
 N1573 N 0.18059 0.29732 0.58107
 N1574 N 0.18394 0.28568 0.55333
 C1575 C 0.17871 0.25218 0.55441
 C1576 C 0.17224 0.24359 0.58383
 N1577 N 0.17361 0.27248 0.59974
 H1578 H 0.17112 0.21847 0.59326
 N1579 N 0.67055 0.75367 0.11299
 N1580 N 0.66645 0.73913 0.08622
 C1581 C 0.69700 0.72274 0.08074
 C1582 C 0.72005 0.72817 0.10492
 N1583 N 0.70278 0.74800 0.12438
 H1584 H 0.74587 0.71670 0.10901
 N1585 N 0.16511 0.63749 0.29260
 N1586 N 0.14899 0.60890 0.28644
 C1587 C 0.15001 0.60411 0.25641
 C1588 C 0.16742 0.63138 0.24424
 N1589 N 0.17644 0.65158 0.26773
 H1590 H 0.17413 0.63532 0.22099
 N1591 N 0.62593 0.15214 0.70087
 N1592 N 0.60512 0.12591 0.69792
 C1593 C 0.61152 0.10551 0.72192
 C1594 C 0.63729 0.12088 0.74014
 N1595 N 0.64550 0.14987 0.72601
 H1596 H 0.65020 0.11107 0.76049
 N1597 N 0.85706 0.15061 0.29318
 N1598 N 0.88252 0.12740 0.29280
 C1599 C 0.87438 0.10564 0.27032
 C1600 C 0.84293 0.11693 0.25649
 N1601 N 0.83313 0.14485 0.27158
 H1602 H 0.82758 0.10521 0.23854
 N1603 N 0.34670 0.65202 0.80688
 N1604 N 0.36982 0.62677 0.80944
 C1605 C 0.36266 0.60501 0.78678
 C1606 C 0.33421 0.61844 0.76975
 N1607 N 0.32511 0.64766 0.78327
 H1608 H 0.32015 0.60735 0.75074
 N1609 N 0.25923 0.42303 0.68250
 N1610 N 0.28230 0.44723 0.67941
 C1611 C 0.30400 0.44595 0.70399
 C1612 C 0.29362 0.41991 0.72230
 N1613 N 0.26559 0.40624 0.70796
 H1614 H 0.30733 0.40969 0.74214
 N1615 N 0.78485 0.90803 0.26606
 N1616 N 0.80624 0.93282 0.25981
 C1617 C 0.81953 0.92618 0.23251
 C1618 C 0.80483 0.89648 0.22198
 N1619 N 0.78354 0.88611 0.24362
 H1620 H 0.81040 0.88257 0.20166
 N1621 N 0.68170 0.88994 0.72782
 N1622 N 0.65954 0.91498 0.73352
 C1623 C 0.65299 0.91360 0.76316
 C1624 C 0.67188 0.88638 0.77558
 N1625 N 0.68954 0.87246 0.75261
 H1626 H 0.67359 0.87831 0.79890
 N1627 N 0.16475 0.35365 0.30643
 N1628 N 0.14102 0.37801 0.30970
 C1629 C 0.14222 0.39842 0.28541
 C1630 C 0.16788 0.38530 0.26674
 N1631 N 0.18113 0.35732 0.28084
 H1632 H 0.17653 0.39533 0.24559
 N1633 N 0.11657 0.25655 0.84957
 N1634 N 0.09726 0.26345 0.87306
 C1635 C 0.07482 0.28871 0.86469
 C1636 C 0.08068 0.29695 0.83500
 N1637 N 0.10672 0.27594 0.82643
 H1638 H 0.06604 0.31464 0.82059
 N1639 N 0.61696 0.71408 0.35794
 N1640 N 0.59770 0.72398 0.38075
 C1641 C 0.58626 0.75573 0.37447
 C1642 C 0.59842 0.76474 0.34683
 N1643 N 0.61726 0.73808 0.33727
 H1644 H 0.59504 0.78864 0.33521
 N1645 N 0.57338 0.14694 0.19181
 N1646 N 0.55117 0.14350 0.16840
 C1647 C 0.55010 0.17333 0.15365
 C1648 C 0.57204 0.19508 0.16876
 N1649 N 0.58589 0.17783 0.19232
 H1650 H 0.57868 0.22055 0.16270
 N1651 N 0.07463 0.65749 0.69569
 N1652 N 0.05489 0.65322 0.67078
 C1653 C 0.05420 0.68295 0.65585
 C1654 C 0.07370 0.70545 0.67251
 N1655 N 0.08576 0.68887 0.69710
 H1656 H 0.07995 0.73116 0.66695
 N1657 N 0.92678 0.84693 0.68547
 N1658 N 0.94473 0.84998 0.66046
 C1659 C 0.94912 0.81856 0.64920
 C1660 C 0.93393 0.79632 0.66850
 N1661 N 0.92047 0.81478 0.69067
 H1662 H 0.93097 0.76939 0.66626
 N1663 N 0.41745 0.34153 0.17347
 N1664 N 0.43930 0.34313 0.15080
 C1665 C 0.43707 0.31353 0.13578
 C1666 C 0.41327 0.29391 0.14987
 N1667 N 0.40197 0.31197 0.17325
 H1668 H 0.40543 0.26851 0.14438
 N1669 N 0.38243 0.68962 0.37528
 N1670 N 0.40137 0.68642 0.40066
 C1671 C 0.41240 0.71749 0.40833
 C1672 C 0.39942 0.73997 0.38660
 N1673 N 0.38137 0.72143 0.36633
 H1674 H 0.40361 0.76678 0.38487
 N1675 N 0.87499 0.16909 0.84124
 N1676 N 0.89687 0.16681 0.86503
 C1677 C 0.90206 0.19857 0.87496
 C1678 C 0.88270 0.22035 0.85652
 N1679 N 0.86655 0.20105 0.83574
 H1680 H 0.88093 0.24759 0.85756
 N1681 N 0.52577 0.97321 0.64302
 N1682 N 0.53588 0.97911 0.67139
 C1683 C 0.54595 1.01164 0.67322
 C1684 C 0.54127 1.02550 0.64459
 N1685 N 0.52868 1.00079 0.62667
 H1686 H 0.54781 1.05044 0.63702
 N1687 N 0.05384 0.58061 1.13457
 N1688 N 0.06787 0.58299 1.16210
 C1689 C 0.08591 0.55403 1.16790
 C1690 C 0.08238 0.53346 1.14251
 N1691 N 0.06212 0.55125 1.12221
 H1692 H 0.09393 0.50867 1.13897
 N1693 N -0.08812 -0.08534 1.11268
 N1694 N -0.10391 -0.08511 1.13885
 C1695 C -0.10013 -0.05397 1.15077
 C1696 C -0.08150 -0.03498 1.13071
 N1697 N -0.07463 -0.05553 1.10740
 H1698 H -0.07474 -0.00863 1.13220
 N1699 N 0.46917 0.45907 0.63938
 N1700 N 0.45534 0.46566 0.66582
 C1701 C 0.42005 0.46406 0.66184
 C1702 C 0.41280 0.45625 0.63181
 N1703 N 0.44416 0.45322 0.61868
 H1704 H 0.38736 0.45550 0.62012
 N1705 N 0.48001 0.48484 -0.14467
 N1706 N 0.46386 0.48886 -0.17134
 C1707 C 0.44890 0.52002 -0.17180
 C1708 C 0.45694 0.53517 -0.14426
 N1709 N 0.47646 0.51240 -0.12820
 H1710 H 0.44743 0.55912 -0.13575
 N1711 N 0.01975 1.03575 0.32723
 N1712 N 0.00359 1.04156 0.30074
 C1713 C -0.02885 1.02860 0.30219
 C1714 C -0.03221 1.01498 0.33058
 N1715 N -0.00124 1.01972 0.34546
 H1716 H -0.05596 1.00586 0.34040
 N1717 N -0.00010 0.44493 0.35035
 N1718 N 0.01350 0.44645 0.32321
 C1719 C 0.04340 0.46422 0.32591
 C1720 C 0.04811 0.47274 0.35601
 N1721 N 0.02038 0.46041 0.37044
 H1722 H 0.07089 0.48428 0.36670
 N1723 N 0.53119 -0.09339 -0.13500
 N1724 N 0.54684 -0.09134 -0.16124
 C1725 C 0.55940 -0.05983 -0.16341
 C1726 C 0.55100 -0.04266 -0.13748
 N1727 N 0.53346 -0.06444 -0.12031
 H1728 H 0.55896 -0.01759 -0.13088
 N1729 N 0.63081 0.62245 -0.04155
 N1730 N 0.65854 0.64128 -0.03514
 C1731 C 0.65588 0.65206 -0.00634
 C1732 C 0.62510 0.63935 0.00449
 N1733 N 0.61042 0.62085 -0.01800
 H1734 H 0.61592 0.64071 0.02732
 N1735 N 0.13235 1.13206 0.44050
 N1736 N 0.15540 1.15607 0.44615
 C1737 C 0.15272 1.16437 0.47552
 C1738 C 0.12757 1.14453 0.48780
 N1739 N 0.11566 1.12466 0.46528
 H1740 H 0.11986 1.14352 0.51107
 N1741 N 0.09875 -0.13703 1.04145
 N1742 N 0.12740 -0.15655 1.04110
 C1743 C 0.13728 -0.15845 1.01219
 C1744 C 0.11364 -0.13930 0.99471
 N1745 N 0.09012 -0.12631 1.01391
 H1746 H 0.11413 -0.13444 0.97072
 N1747 N 0.56470 0.33107 0.49763
 N1748 N 0.58917 0.30863 0.49014
 C1749 C 0.62059 0.32340 0.49463
 C1750 C 0.61444 0.35579 0.50520
 N1751 N 0.57929 0.35942 0.50691
 H1752 H 0.63322 0.37570 0.50870
 N1753 N -0.12786 0.35937 0.45915
 N1754 N -0.15652 0.34197 0.46441
 C1755 C -0.15829 0.33873 0.49464
 C1756 C -0.12981 0.35469 0.50771
 N1757 N -0.11154 0.36730 0.48490
 H1758 H -0.12416 0.35863 0.53152
 N1759 N 0.38729 -0.16231 -0.02394
 N1760 N 0.35823 -0.17844 -0.01735
 C1761 C 0.35667 -0.17916 0.01303
 C1762 C 0.38576 -0.16297 0.02480
 N1763 N 0.40415 -0.15273 0.00109
 H1764 H 0.39139 -0.15675 0.04821
 N1765 N 0.37636 1.11871 0.54544
 N1766 N 0.35188 1.14284 0.54117
 C1767 C 0.35513 1.15476 0.51283
 C1768 C 0.38209 1.13681 0.49989
 N1769 N 0.39459 1.11463 0.52073
 H1770 H 0.39125 1.13896 0.47713
 N1771 N -0.08870 0.65149 1.03291
 N1772 N -0.11842 0.66933 1.02979
 C1773 C -0.12755 0.66989 1.00013
 C1774 C -0.10210 0.65160 0.98504
 N1775 N -0.07842 0.64045 1.00641
 H1776 H -0.10207 0.64519 0.96132
 N1777 N -0.05485 0.61948 0.53670
 N1778 N -0.04871 0.64952 0.54864
 C1779 C -0.02164 0.64526 0.56884
 C1780 C -0.01156 0.61177 0.56900
 N1781 N -0.03282 0.59660 0.54878
 H1782 H 0.01057 0.59987 0.58109
 N1783 N 0.44496 0.10492 0.03544
 N1784 N 0.44916 0.13577 0.04642
 C1785 C 0.47537 0.13349 0.06766
 C1786 C 0.48693 0.10047 0.06933
 N1787 N 0.46740 0.08350 0.04910
 H1788 H 0.50898 0.08996 0.08250
 N1789 N 0.02506 0.13339 0.98290
 N1790 N 0.01546 0.16446 0.97460
 C1791 C -0.00715 0.16134 0.95069
 C1792 C -0.01032 0.12777 0.94414
 N1793 N 0.00995 0.11119 0.96463
 H1794 H -0.02698 0.11619 0.92698
 N1795 N 0.53954 0.63226 0.49886
 N1796 N 0.53060 0.66460 0.49583
 C1797 C 0.50330 0.66621 0.47561
 C1798 C 0.49653 0.63398 0.46573
 N1799 N 0.51966 0.61362 0.48064
 H1800 H 0.47625 0.62586 0.44981
 N1801 N 0.54064 0.91630 0.39206
 N1802 N 0.54722 0.88437 0.38503
 C1803 C 0.52928 0.86530 0.40429
 C1804 C 0.51110 0.88664 0.42302
 N1805 N 0.51889 0.91810 0.41474
 H1806 H 0.49656 0.88015 0.44272
 N1807 N -0.04383 0.40746 0.93139
 N1808 N -0.04494 0.37751 0.91841
 C1809 C -0.01196 0.37002 0.90973
 C1810 C 0.00945 0.39648 0.91763
 N1811 N -0.01144 0.41907 0.93127
 H1812 H 0.03786 0.39758 0.91667
 N1813 N 0.56780 0.36379 0.03680
 N1814 N 0.55751 0.33397 0.04638
 C1815 C 0.53415 0.34003 0.06813
 C1816 C 0.53138 0.37437 0.07205
 N1817 N 0.55223 0.38833 0.05199
 H1818 H 0.51302 0.38840 0.08558
 N1819 N 0.05771 0.87581 0.53540
 N1820 N 0.05136 0.84701 0.54908
 C1821 C 0.02188 0.85216 0.56472
 C1822 C 0.01040 0.88504 0.56032
 N1823 N 0.03347 0.89887 0.54193
 H1824 H -0.01335 0.89717 0.56825
 N1825 N 0.24415 0.29957 0.11210
 N1826 N 0.24707 0.31010 0.08401
 C1827 C 0.28155 0.31571 0.07975
 C1828 C 0.29988 0.30759 0.10653
 N1829 N 0.27547 0.29770 0.12592
 H1830 H 0.32775 0.30970 0.11190
 N1831 N 0.85763 0.80128 0.61833
 N1832 N 0.85882 0.81496 0.59117
 C1833 C 0.82631 0.82761 0.58437
 C1834 C 0.80502 0.82125 0.60837
 N1835 N 0.82564 0.80479 0.62904
 H1836 H 0.77756 0.82826 0.61074
 N1837 N 0.15611 0.70725 0.62826
 N1838 N 0.15502 0.69233 0.60162
 C1839 C 0.18668 0.67709 0.59830
 C1840 C 0.20738 0.68308 0.62387
 N1841 N 0.18718 0.70199 0.64200
 H1842 H 0.23385 0.67379 0.62914
 N1843 N 0.65530 0.19522 0.12780
 N1844 N 0.65319 0.17990 0.10144
 C1845 C 0.68639 0.17365 0.09270
 C1846 C 0.70932 0.18595 0.11506
 N1847 N 0.68856 0.19896 0.13662
 H1848 H 0.73777 0.18370 0.11645
 N1849 N 0.71700 0.22695 0.89141
 N1850 N 0.72056 0.21477 0.91918
 C1851 C 0.75406 0.20316 0.92301
 C1852 C 0.77112 0.20918 0.89618
 N1853 N 0.74705 0.22419 0.87725
 H1854 H 0.79747 0.20142 0.89022
 N1855 N 0.29613 0.76655 0.42355
 N1856 N 0.29761 0.75262 0.45075
 C1857 C 0.27829 0.72442 0.44925
 C1858 C 0.26553 0.72123 0.41991
 N1859 N 0.27705 0.74802 0.40464
 H1860 H 0.25266 0.69961 0.40995
 N1861 N 0.73453 0.74328 0.40180
 N1862 N 0.73270 0.75614 0.42939
 C1863 C 0.72282 0.78886 0.42613
 C1864 C 0.71902 0.79570 0.39573
 N1865 N 0.72655 0.76674 0.38133
 H1866 H 0.71226 0.81963 0.38508
 N1867 N 0.23581 0.26659 0.87417
 N1868 N 0.24060 0.27850 0.90196
 C1869 C 0.23108 0.31148 0.90124
 C1870 C 0.22019 0.31932 0.87197
 N1871 N 0.22355 0.29070 0.85581
 H1872 H 0.21081 0.34348 0.86326
 N1873 N 0.86776 0.36398 0.78997
 N1874 N 0.88557 0.39154 0.78396
 C1875 C 0.89011 0.39268 0.75382
 C1876 C 0.87430 0.36441 0.74162
 N1877 N 0.86058 0.34722 0.76484
 H1878 H 0.87109 0.35815 0.71795
 N1879 N 0.38055 0.88652 0.30462
 N1880 N 0.39878 0.91334 0.29729
 C1881 C 0.40835 0.90975 0.26830
 C1882 C 0.39513 0.87912 0.25823
 N1883 N 0.37787 0.86557 0.28153
 H1884 H 0.39624 0.86860 0.23576
 N1885 N 0.08480 0.84819 0.72384
 N1886 N 0.07082 0.87900 0.72457
 C1887 C 0.07639 0.89087 0.75280
 C1888 C 0.09422 0.86617 0.76945
 N1889 N 0.09909 0.84003 0.75051
 H1890 H 0.10561 0.86834 0.79203
 N1891 N 0.57651 0.33241 0.23081
 N1892 N 0.56257 0.36297 0.23441
 C1893 C 0.57065 0.37278 0.26293
 C1894 C 0.59029 0.34714 0.27661
 N1895 N 0.59343 0.32249 0.25587
 H1896 H 0.60482 0.34826 0.29798
 N1897 N 0.67693 0.60026 0.28449
 N1898 N 0.66125 0.57137 0.27861
 C1899 C 0.65031 0.57202 0.24928
 C1900 C 0.66002 0.60240 0.23733
 N1901 N 0.67651 0.61917 0.25996
 H1902 H 0.65493 0.61183 0.21468
 N1903 N 0.13883 0.13079 0.76355
 N1904 N 0.12497 0.10098 0.75805
 C1905 C 0.11531 0.09965 0.72841
 C1906 C 0.12376 0.13032 0.71590
 N1907 N 0.13843 0.14888 0.73858
 H1908 H 0.12005 0.13823 0.69264
 N1909 N 0.39768 0.14480 0.20244
 N1910 N 0.41523 0.11603 0.20806
 C1911 C 0.42701 0.11708 0.23714
 C1912 C 0.41626 0.14752 0.24890
 N1913 N 0.39800 0.16408 0.22680
 H1914 H 0.41836 0.15547 0.27222
 N1915 N 0.90354 0.64647 0.71849
 N1916 N 0.91516 0.61495 0.72171
 C1917 C 0.91431 0.60758 0.75136
 C1918 C 0.90197 0.63573 0.76631
 N1919 N 0.89545 0.65941 0.74495
 H1920 H 0.89609 0.63798 0.78995
 N1921 N 0.84230 0.82228 0.16953
 N1922 N 0.87077 0.82593 0.15378
 C1923 C 0.89293 0.79994 0.16103
 C1924 C 0.87722 0.78033 0.18243
 N1925 N 0.84531 0.79487 0.18638
 H1926 H 0.88586 0.75589 0.19101
 N1927 N 0.31273 0.31900 0.62507
 N1928 N 0.34213 0.31567 0.61009
 C1929 C 0.36206 0.29153 0.62429
 C1930 C 0.34412 0.28022 0.64852
 N1931 N 0.31345 0.29782 0.64806
 H1932 H 0.35171 0.26005 0.66400
 N1933 N 0.36125 0.79176 0.80681
 N1934 N 0.39429 0.78460 0.81550
 C1935 C 0.39361 0.75590 0.83180
 C1936 C 0.35913 0.74607 0.83317
 N1937 N 0.33987 0.76894 0.81742
 H1938 H 0.34901 0.72306 0.84235
 N1939 N 0.84945 0.29250 0.31964
 N1940 N 0.88357 0.28907 0.32630
 C1941 C 0.88942 0.25658 0.33444
 C1942 C 0.85748 0.24052 0.33337
 N1943 N 0.83347 0.26359 0.32370
 H1944 H 0.85262 0.21383 0.33530
 N1945 N 0.15051 0.20566 0.30495
 N1946 N 0.11723 0.21167 0.31149
 C1947 C 0.11593 0.24275 0.32369
 C1948 C 0.14952 0.25533 0.32503
 N1949 N 0.17030 0.23145 0.31307
 H1950 H 0.15751 0.28047 0.33138
 N1951 N 0.64186 0.71743 0.78218
 N1952 N 0.61136 0.71717 0.79582
 C1953 C 0.61300 0.74090 0.81758
 C1954 C 0.64552 0.75580 0.81677
 N1955 N 0.66261 0.74043 0.79446
 H1956 H 0.65570 0.77614 0.83054
 N1957 N 0.61187 0.30109 0.68136
 N1958 N 0.57947 0.29513 0.67091
 C1959 C 0.57946 0.26290 0.66118
 C1960 C 0.61317 0.24966 0.66544
 N1961 N 0.63245 0.27407 0.67815
 H1962 H 0.62239 0.22400 0.66216
 N1963 N 0.12312 0.80203 0.21466
 N1964 N 0.09300 0.79609 0.19982
 C1965 C 0.09757 0.76663 0.18513
 C1966 C 0.13143 0.75480 0.19143
 N1967 N 0.14646 0.77759 0.20965
 H1968 H 0.14386 0.73146 0.18439
   
