data_POSCAR
  _audit_creation_date              2014-09-24
  _audit_creation_method            'ToBaCCo'
  _symmetry_space_group_name_H-M    'P1'
  _symmetry_Int_Tables_number       1
  _symmetry_cell_setting            triclinic
  loop_
  _symmetry_equiv_pos_as_xyz
 x,y,z
_cell_length_a 71.5863
_cell_length_b 71.5535
_cell_length_c 71.6149
_cell_angle_alpha 89.998800
_cell_angle_beta 89.937700
_cell_angle_gamma 90.031200
loop_
  _atom_site_label
  _atom_site_type_symbol
  _atom_site_fract_x
  _atom_site_fract_y
  _atom_site_fract_z
C1 C 0.36036 0.33637 0.33673
 C2 C 0.35238 0.35236 0.32875
 C3 C 0.33639 0.36036 0.33673
 C4 C 0.32841 0.35238 0.35272
 C5 C 0.33638 0.33640 0.36072
 C6 C 0.35237 0.32841 0.35273
 H7 H 0.35843 0.35840 0.31623
 H8 H 0.31591 0.35844 0.35878
 H9 H 0.35841 0.31590 0.35878
 C10 C 0.36068 0.83658 -0.16428
 C11 C 0.35262 0.85254 -0.17228
 C12 C 0.33659 0.86048 -0.16430
 C13 C 0.32866 0.85247 -0.14828
 C14 C 0.33671 0.83654 -0.14027
 C15 C 0.35272 0.82861 -0.14826
 H16 H 0.35865 0.85860 -0.18482
 H17 H 0.31612 0.85845 -0.14218
 H18 H 0.35879 0.81614 -0.14215
 C19 C 0.85997 0.33694 -0.16383
 C20 C 0.85201 0.35295 -0.17180
 C21 C 0.83603 0.36097 -0.16380
 C22 C 0.82805 0.35298 -0.14779
 C23 C 0.83602 0.33698 -0.13982
 C24 C 0.85198 0.32898 -0.14784
 H25 H 0.85810 0.35895 -0.18432
 H26 H 0.81556 0.35902 -0.14168
 H27 H 0.85802 0.31647 -0.14180
 C28 C 0.86035 0.83693 0.33631
 C29 C 0.85232 0.85287 0.32829
 C30 C 0.83630 0.86085 0.33626
 C31 C 0.82837 0.85288 0.35231
 C32 C 0.83641 0.83694 0.36033
 C33 C 0.85240 0.82899 0.35234
 H34 H 0.85838 0.85886 0.31575
 H35 H 0.81585 0.85888 0.35840
 H36 H 0.85849 0.81652 0.35842
 C37 C 0.63965 0.66383 0.33683
 C38 C 0.64763 0.67180 0.35281
 C39 C 0.66358 0.66379 0.36082
 C40 C 0.67153 0.64778 0.35286
 C41 C 0.66357 0.63979 0.33687
 C42 C 0.64762 0.64781 0.32887
 H43 H 0.64160 0.68433 0.35884
 H44 H 0.68401 0.64171 0.35892
 H45 H 0.64158 0.64177 0.31637
 C46 C 0.63962 0.16320 -0.16373
 C47 C 0.64768 0.14727 -0.17175
 C48 C 0.66371 0.13932 -0.16381
 C49 C 0.67164 0.14732 -0.14779
 C50 C 0.66358 0.16325 -0.13977
 C51 C 0.64756 0.17117 -0.14773
 H52 H 0.64162 0.14125 -0.18427
 H53 H 0.68417 0.14134 -0.14172
 H54 H 0.64146 0.18364 -0.14165
 C55 C 0.13980 0.66325 -0.16380
 C56 C 0.14780 0.67122 -0.14783
 C57 C 0.16375 0.66321 -0.13984
 C58 C 0.17170 0.64720 -0.14781
 C59 C 0.16373 0.63920 -0.16380
 C60 C 0.14775 0.64724 -0.17177
 H61 H 0.14177 0.68374 -0.14178
 H62 H 0.18419 0.64116 -0.14172
 H63 H 0.14166 0.64122 -0.18428
 C64 C 0.13952 0.16355 0.33645
 C65 C 0.14754 0.14759 0.32844
 C66 C 0.16350 0.13958 0.33643
 C67 C 0.17142 0.14753 0.35245
 C68 C 0.16341 0.16349 0.36047
 C69 C 0.14745 0.17148 0.35248
 H70 H 0.14153 0.14157 0.31591
 H71 H 0.18391 0.14146 0.35851
 H72 H 0.14138 0.18397 0.35855
 C73 C 0.63958 0.33643 0.66363
 C74 C 0.64757 0.35241 0.67162
 C75 C 0.66359 0.36040 0.66366
 C76 C 0.67158 0.35241 0.64768
 C77 C 0.66360 0.33643 0.63968
 C78 C 0.64759 0.32845 0.64765
 H79 H 0.64151 0.35846 0.68412
 H80 H 0.68410 0.35846 0.64165
 H81 H 0.64154 0.31595 0.64160
 C82 C 0.63954 0.83666 1.16405
 C83 C 0.64750 0.82874 1.14800
 C84 C 0.66350 0.83672 1.14002
 C85 C 0.67152 0.85267 1.14804
 C86 C 0.66359 0.86063 1.16408
 C87 C 0.64758 0.85263 1.17207
 H88 H 0.64145 0.81625 1.14188
 H89 H 0.68403 0.85870 1.14194
 H90 H 0.64154 0.85865 1.18461
 C91 C 0.13910 0.33628 1.16376
 C92 C 0.14709 0.32831 1.14775
 C93 C 0.16308 0.33628 1.13975
 C94 C 0.17108 0.35227 1.14774
 C95 C 0.16312 0.36026 1.16373
 C96 C 0.14712 0.35228 1.17173
 H97 H 0.14105 0.31580 1.14166
 H98 H 0.18359 0.35831 1.14168
 H99 H 0.14111 0.35837 1.18424
 C100 C 0.13958 0.83632 0.66387
 C101 C 0.14762 0.85229 0.67188
 C102 C 0.16363 0.86029 0.66390
 C103 C 0.17157 0.85232 0.64787
 C104 C 0.16356 0.83636 0.63986
 C105 C 0.14756 0.82838 0.64784
 H106 H 0.14158 0.85833 0.68442
 H107 H 0.18409 0.85834 0.64177
 H108 H 0.14151 0.81589 0.64173
 C109 C 0.36047 0.66362 0.66358
 C110 C 0.35247 0.64764 0.67158
 C111 C 0.33649 0.63963 0.66361
 C112 C 0.32855 0.64759 0.64761
 C113 C 0.33654 0.66357 0.63960
 C114 C 0.35251 0.67157 0.64758
 H115 H 0.35849 0.64161 0.68409
 H116 H 0.31605 0.64152 0.64156
 H117 H 0.35857 0.68407 0.64152
 C118 C 0.36028 0.16325 1.16343
 C119 C 0.35229 0.17123 1.14747
 C120 C 0.33630 0.16324 1.13950
 C121 C 0.32831 0.14724 1.14749
 C122 C 0.33629 0.13924 1.16347
 C123 C 0.35229 0.14725 1.17142
 H124 H 0.35834 0.18374 1.14141
 H125 H 0.31580 0.14122 1.14141
 H126 H 0.35839 0.14123 1.18392
 C127 C 0.86041 0.66374 1.16335
 C128 C 0.85242 0.67172 1.14738
 C129 C 0.83642 0.66374 1.13942
 C130 C 0.82844 0.64774 1.14741
 C131 C 0.83642 0.63975 1.16338
 C132 C 0.85241 0.64774 1.17133
 H133 H 0.85847 0.68423 1.14132
 H134 H 0.81593 0.64169 1.14138
 H135 H 0.85846 0.64169 1.18382
 C136 C 0.86064 0.16361 0.66390
 C137 C 0.85261 0.14762 0.67191
 C138 C 0.83662 0.13960 0.66393
 C139 C 0.82870 0.14756 0.64790
 C140 C 0.83671 0.16353 0.63989
 C141 C 0.85268 0.17154 0.64787
 H142 H 0.85864 0.14159 0.68444
 H143 H 0.81620 0.14153 0.64181
 H144 H 0.85872 0.18403 0.64175
 C145 C 0.33624 0.36036 0.66386
 C146 C 0.35222 0.35238 0.67182
 C147 C 0.36021 0.33638 0.66385
 C148 C 0.35222 0.32839 0.64787
 C149 C 0.33624 0.33636 0.63990
 C150 C 0.32826 0.35236 0.64788
 H151 H 0.35827 0.35844 0.68431
 H152 H 0.35828 0.31588 0.64183
 H153 H 0.31576 0.35840 0.64184
 C154 C 0.33702 0.86069 0.16289
 C155 C 0.35301 0.85272 0.17086
 C156 C 0.36101 0.83673 0.16289
 C157 C 0.35303 0.82873 0.14692
 C158 C 0.33704 0.83669 0.13894
 C159 C 0.32905 0.85268 0.14692
 H160 H 0.35905 0.85878 0.18335
 H161 H 0.35908 0.81622 0.14088
 H162 H 0.31655 0.85871 0.14088
 C163 C 0.83648 0.36053 0.16333
 C164 C 0.85248 0.35255 0.17127
 C165 C 0.86048 0.33657 0.16327
 C166 C 0.85248 0.32860 0.14729
 C167 C 0.83648 0.33657 0.13934
 C168 C 0.82850 0.35254 0.14736
 H169 H 0.85854 0.35860 0.18376
 H170 H 0.85853 0.31610 0.14123
 H171 H 0.81599 0.35859 0.14134
 C172 C 0.83700 0.86113 0.66356
 C173 C 0.85300 0.85314 0.67152
 C174 C 0.86097 0.83714 0.66354
 C175 C 0.85297 0.82915 0.64758
 C176 C 0.83698 0.83712 0.63961
 C177 C 0.82902 0.85312 0.64760
 H178 H 0.85905 0.85920 0.68400
 H179 H 0.85901 0.81664 0.64153
 H180 H 0.81651 0.85917 0.64157
 C181 C 0.66365 0.63975 0.66397
 C182 C 0.67164 0.64774 0.64799
 C183 C 0.66368 0.66374 0.64000
 C184 C 0.64768 0.67171 0.64799
 C185 C 0.63968 0.66373 0.66397
 C186 C 0.64766 0.64773 0.67194
 H187 H 0.68415 0.64169 0.64193
 H188 H 0.64164 0.68422 0.64194
 H189 H 0.64159 0.64168 0.68444
 C190 C 0.66348 0.13901 0.16347
 C191 C 0.67147 0.14700 0.14748
 C192 C 0.66350 0.16299 0.13950
 C193 C 0.64751 0.17097 0.14749
 C194 C 0.63951 0.16299 0.16348
 C195 C 0.64749 0.14700 0.17145
 H196 H 0.68397 0.14095 0.14143
 H197 H 0.64147 0.18348 0.14144
 H198 H 0.64143 0.14095 0.18395
 C199 C 0.16360 0.63955 0.16331
 C200 C 0.14762 0.64756 0.17128
 C201 C 0.13965 0.66356 0.16329
 C202 C 0.14767 0.67151 0.14730
 C203 C 0.16365 0.66352 0.13932
 C204 C 0.17160 0.64752 0.14732
 H205 H 0.14155 0.64153 0.18379
 H206 H 0.14164 0.68402 0.14124
 H207 H 0.18410 0.64146 0.14128
 C208 C 0.16310 0.13875 0.66375
 C209 C 0.14710 0.14673 0.67172
 C210 C 0.13912 0.16272 0.66375
 C211 C 0.14713 0.17071 0.64778
 C212 C 0.16313 0.16275 0.63979
 C213 C 0.17110 0.14676 0.64777
 H214 H 0.14103 0.14066 0.68421
 H215 H 0.14109 0.18323 0.64174
 H216 H 0.18361 0.14072 0.64173
 C217 C 0.33669 0.63971 0.33626
 C218 C 0.35268 0.64772 0.32827
 C219 C 0.36067 0.66371 0.33623
 C220 C 0.35268 0.67168 0.35223
 C221 C 0.33670 0.66369 0.36024
 C222 C 0.32872 0.64769 0.35226
 H223 H 0.35872 0.64167 0.31576
 H224 H 0.35874 0.68419 0.35827
 H225 H 0.31622 0.64163 0.35832
 C226 C 0.33619 0.13887 0.83657
 C227 C 0.32818 0.14687 0.85254
 C228 C 0.33613 0.16287 0.86052
 C229 C 0.35213 0.17086 0.85254
 C230 C 0.36015 0.16288 0.83657
 C231 C 0.35219 0.14687 0.82861
 H232 H 0.31566 0.14081 0.85858
 H233 H 0.35817 0.18338 0.85859
 H234 H 0.35826 0.14082 0.81611
 C235 C 0.83671 0.63988 0.83658
 C236 C 0.85271 0.64786 0.82859
 C237 C 0.86068 0.66389 0.83652
 C238 C 0.85267 0.67190 0.85248
 C239 C 0.83667 0.66393 0.86048
 C240 C 0.82871 0.64790 0.85254
 H241 H 0.85877 0.64178 0.81610
 H242 H 0.85870 0.68443 0.85849
 H243 H 0.81621 0.64185 0.85860
 C244 C 0.83659 0.13918 0.33636
 C245 C 0.85256 0.14720 0.32836
 C246 C 0.86055 0.16320 0.33632
 C247 C 0.85257 0.17116 0.35233
 C248 C 0.83660 0.16315 0.36035
 C249 C 0.82863 0.14715 0.35237
 H250 H 0.85860 0.14117 0.31584
 H251 H 0.85862 0.18367 0.35837
 H252 H 0.81614 0.14107 0.35845
 C253 C 0.66346 0.36019 0.33674
 C254 C 0.67144 0.35219 0.35270
 C255 C 0.66348 0.33618 0.36067
 C256 C 0.64750 0.32818 0.35269
 C257 C 0.63951 0.33617 0.33673
 C258 C 0.64749 0.35219 0.32877
 H259 H 0.68394 0.35826 0.35875
 H260 H 0.64146 0.31566 0.35873
 H261 H 0.64143 0.35825 0.31628
 C262 C 0.66343 0.86119 0.83661
 C263 C 0.67139 0.85319 0.85259
 C264 C 0.66338 0.83721 0.86059
 C265 C 0.64739 0.82924 0.85262
 C266 C 0.63942 0.83722 0.83664
 C267 C 0.64743 0.85320 0.82865
 H268 H 0.68390 0.85924 0.85863
 H269 H 0.64132 0.81674 0.85868
 H270 H 0.64140 0.85926 0.81615
 C271 C 0.16292 0.36029 0.83668
 C272 C 0.17088 0.35227 0.85265
 C273 C 0.16290 0.33625 0.86060
 C274 C 0.14693 0.32827 0.85259
 C275 C 0.13896 0.33627 0.83663
 C276 C 0.14695 0.35229 0.82869
 H277 H 0.18337 0.35833 0.85871
 H278 H 0.14088 0.31574 0.85861
 H279 H 0.14091 0.35836 0.81620
 C280 C 0.16373 0.86062 0.33645
 C281 C 0.17168 0.85264 0.35244
 C282 C 0.16366 0.83667 0.36045
 C283 C 0.14766 0.82870 0.35248
 C284 C 0.13971 0.83667 0.33649
 C285 C 0.14773 0.85265 0.32850
 H286 H 0.18419 0.85868 0.35848
 H287 H 0.14159 0.81620 0.35854
 H288 H 0.14171 0.85869 0.31599
 O289 O 0.24842 1.01844 0.27337
 O290 O 0.27413 0.98203 0.24764
 O291 O 0.27409 1.01849 0.24765
 O292 O 0.24846 0.98199 0.27337
 O293 O 0.22660 0.98195 0.25157
 O294 O 0.25223 1.01845 0.22585
 O295 O 0.25227 0.98200 0.22584
 O296 O 0.22656 1.01840 0.25157
 Cu297 Cu 0.26348 1.00024 0.26271
 Cu298 Cu 0.23721 1.00020 0.23651
 C299 C 0.23319 1.02461 0.26677
 C300 C 0.26750 0.97582 0.23244
 C301 C 0.26745 1.02469 0.23245
 C302 C 0.23325 0.97576 0.26677
 O303 O 0.25161 0.51831 0.72654
 O304 O 0.22584 0.48189 0.75223
 O305 O 0.22588 0.51834 0.75221
 O306 O 0.25157 0.48186 0.72657
 O307 O 0.27338 0.48186 0.74841
 O308 O 0.24769 0.51835 0.77405
 O309 O 0.24765 0.48189 0.77408
 O310 O 0.27342 0.51831 0.74839
 Cu311 Cu 0.23652 0.50010 0.73718
 Cu312 Cu 0.26274 0.50010 0.76344
 C313 C 0.26682 0.52451 0.73317
 C314 C 0.23244 0.47568 0.76745
 C315 C 0.23249 0.52456 0.76742
 C316 C 0.26677 0.47565 0.73320
 O317 O 0.74803 -0.01887 0.22630
 O318 O 0.77375 0.01762 0.25189
 O319 O 0.77374 -0.01884 0.25194
 O320 O 0.74806 0.01758 0.22626
 O321 O 0.72622 0.01761 0.24813
 O322 O 0.75191 -0.01881 0.27381
 O323 O 0.75192 0.01764 0.27377
 O324 O 0.72620 -0.01884 0.24818
 Cu325 Cu 0.76310 -0.00063 0.23689
 Cu326 Cu 0.73686 -0.00060 0.26318
 C327 C 0.73281 -0.02507 0.23296
 C328 C 0.76714 0.02384 0.26711
 C329 C 0.76712 -0.02502 0.26717
 C330 C 0.73284 0.02380 0.23290
 O331 O 0.74825 0.48179 0.72655
 O332 O 0.77396 0.51823 0.75222
 O333 O 0.77393 0.48177 0.75220
 O334 O 0.74827 0.51824 0.72657
 O335 O 0.72642 0.51823 0.74843
 O336 O 0.75209 0.48176 0.77406
 O337 O 0.75211 0.51822 0.77408
 O338 O 0.72641 0.48178 0.74841
 Cu339 Cu 0.76331 0.50001 0.73718
 Cu340 Cu 0.73705 0.50000 0.76345
 C341 C 0.73303 0.47558 0.73318
 C342 C 0.76733 0.52443 0.76744
 C343 C 0.76730 0.47556 0.76742
 C344 C 0.73305 0.52445 0.73322
 O345 O 0.22623 0.51818 0.24809
 O346 O 0.25186 0.48175 0.27381
 O347 O 0.25192 0.51821 0.27374
 O348 O 0.22617 0.48173 0.24816
 O349 O 0.24801 0.48167 0.22630
 O350 O 0.27376 0.51814 0.25187
 O351 O 0.27370 0.48169 0.25195
 O352 O 0.24807 0.51812 0.22623
 Cu353 Cu 0.23684 0.49997 0.26316
 Cu354 Cu 0.26309 0.49990 0.23688
 C355 C 0.23286 0.52435 0.23286
 C356 C 0.26707 0.47552 0.26718
 C357 C 0.26715 0.52438 0.26708
 C358 C 0.23278 0.47549 0.23295
 O359 O 0.72652 0.98255 0.75192
 O360 O 0.75226 1.01901 0.72627
 O361 O 0.75227 0.98256 0.72628
 O362 O 0.72651 1.01900 0.75192
 O363 O 0.74830 1.01902 0.77378
 O364 O 0.77406 0.98258 0.74815
 O365 O 0.77405 1.01904 0.74814
 O366 O 0.74831 0.98257 0.77379
 Cu367 Cu 0.73719 1.00078 0.73689
 Cu368 Cu 0.76338 1.00080 0.76317
 C369 C 0.73311 0.97635 0.76715
 C370 C 0.76746 1.02523 0.73291
 C371 C 0.76747 0.97637 0.73293
 C372 C 0.73310 1.02521 0.76714
 O373 O 0.72615 0.48181 0.25215
 O374 O 0.75180 0.51829 0.22642
 O375 O 0.75180 0.48184 0.22641
 O376 O 0.72616 0.51827 0.25217
 O377 O 0.74804 0.51827 0.27395
 O378 O 0.77368 0.48184 0.24819
 O379 O 0.77368 0.51829 0.24820
 O380 O 0.74803 0.48182 0.27393
 Cu381 Cu 0.73677 0.50005 0.23709
 Cu382 Cu 0.76307 0.50006 0.26326
 C383 C 0.73280 0.47560 0.26734
 C384 C 0.76703 0.52450 0.23300
 C385 C 0.76704 0.47564 0.23299
 C386 C 0.73281 0.52447 0.26736
 O387 O 0.25186 -0.01920 0.77369
 O388 O 0.22605 0.01724 0.74816
 O389 O 0.22612 -0.01921 0.74809
 O390 O 0.25177 0.01726 0.77377
 O391 O 0.27358 0.01736 0.75187
 O392 O 0.24792 -0.01912 0.72619
 O393 O 0.24785 0.01734 0.72626
 O394 O 0.27366 -0.01909 0.75179
 Cu395 Cu 0.23675 -0.00099 0.76314
 Cu396 Cu 0.26295 -0.00087 0.73682
 C397 C 0.26708 -0.02535 0.76701
 C398 C 0.23263 0.02349 0.73294
 C399 C 0.23273 -0.02537 0.73285
 C400 C 0.26696 0.02352 0.76711
 O401 O 0.24759 0.27343 0.98181
 O402 O 0.27333 0.24779 1.01820
 O403 O 0.27328 0.24774 0.98178
 O404 O 0.24763 0.27347 1.01823
 O405 O 0.22579 0.25160 1.01830
 O406 O 0.25144 0.22587 0.98186
 O407 O 0.25149 0.22592 1.01828
 O408 O 0.22575 0.25155 0.98188
 Cu409 Cu 0.26266 0.26282 0.99999
 Cu410 Cu 0.23641 0.23653 1.00009
 C411 C 0.23237 0.26678 0.97565
 C412 C 0.26672 0.23257 1.02444
 C413 C 0.26665 0.23250 0.97562
 C414 C 0.23242 0.26684 1.02447
 O415 O 0.27385 0.74816 0.51820
 O416 O 0.24817 0.77386 0.48181
 O417 O 0.24814 0.77382 0.51823
 O418 O 0.27387 0.74819 0.48177
 O419 O 0.25204 0.72631 0.48177
 O420 O 0.22631 0.75194 0.51822
 O421 O 0.22633 0.75198 0.48180
 O422 O 0.25202 0.72628 0.51819
 Cu423 Cu 0.26321 0.76322 0.50000
 Cu424 Cu 0.23697 0.73692 0.49999
 C425 C 0.26723 0.73292 0.52439
 C426 C 0.23296 0.76722 0.47561
 C427 C 0.23293 0.76717 0.52444
 C428 C 0.26725 0.73296 0.47556
 O429 O 0.22659 0.74799 -0.01859
 O430 O 0.25230 0.77373 0.01776
 O431 O 0.25228 0.77370 -0.01866
 O432 O 0.22660 0.74803 0.01783
 O433 O 0.24843 0.72618 0.01782
 O434 O 0.27412 0.75185 -0.01867
 O435 O 0.27414 0.75188 0.01775
 O436 O 0.24842 0.72614 -0.01860
 Cu437 Cu 0.23724 0.76307 -0.00041
 Cu438 Cu 0.26348 0.73681 -0.00043
 C439 C 0.23320 0.73276 -0.02479
 C440 C 0.26752 0.76711 0.02395
 C441 C 0.26749 0.76707 -0.02488
 C442 C 0.23322 0.73281 0.02403
 O443 O 0.27352 0.25170 0.48212
 O444 O 0.24783 0.22592 0.51851
 O445 O 0.24784 0.22599 0.48209
 O446 O 0.27351 0.25165 0.51854
 O447 O 0.25165 0.27348 0.51859
 O448 O 0.22599 0.24783 0.48215
 O449 O 0.22598 0.24775 0.51857
 O450 O 0.25167 0.27354 0.48217
 Cu451 Cu 0.26288 0.23661 0.50031
 Cu452 Cu 0.23662 0.26285 0.50038
 C453 C 0.26690 0.26693 0.47595
 C454 C 0.23261 0.23252 0.52474
 C455 C 0.23262 0.23262 0.47591
 C456 C 0.26687 0.26686 0.52477
 O457 O 0.75183 0.72676 0.98178
 O458 O 0.72612 0.75239 1.01826
 O459 O 0.72614 0.75244 0.98184
 O460 O 0.75181 0.72670 1.01820
 O461 O 0.77365 0.74857 1.01822
 O462 O 0.74798 0.77431 0.98185
 O463 O 0.74797 0.77426 1.01828
 O464 O 0.77367 0.74863 0.98180
 Cu465 Cu 0.73677 0.73737 1.00002
 Cu466 Cu 0.76302 0.76365 1.00004
 C467 C 0.76705 0.73341 0.97558
 C468 C 0.73275 0.76761 1.02448
 C469 C 0.73276 0.76768 0.97565
 C470 C 0.76702 0.73333 1.02440
 O471 O 0.74826 0.27346 0.48188
 O472 O 0.77400 0.24785 0.51830
 O473 O 0.77396 0.24779 0.48187
 O474 O 0.74830 0.27352 0.51830
 O475 O 0.72646 0.25164 0.51838
 O476 O 0.75213 0.22591 0.48195
 O477 O 0.75216 0.22597 0.51837
 O478 O 0.72643 0.25158 0.48196
 Cu479 Cu 0.76333 0.26286 0.50008
 Cu480 Cu 0.73709 0.23657 0.50017
 C481 C 0.73304 0.26681 0.47573
 C482 C 0.76738 0.23262 0.52454
 C483 C 0.76734 0.23255 0.47570
 C484 C 0.73308 0.26688 0.52454
 O485 O 0.72606 0.24798 -0.01829
 O486 O 0.75173 0.27370 0.01812
 O487 O 0.75167 0.27377 -0.01830
 O488 O 0.72611 0.24791 0.01814
 O489 O 0.74802 0.22613 0.01804
 O490 O 0.77358 0.25199 -0.01840
 O491 O 0.77364 0.25192 0.01802
 O492 O 0.74797 0.22620 -0.01838
 Cu493 Cu 0.73668 0.26304 -0.00007
 Cu494 Cu 0.76301 0.23686 -0.00019
 C495 C 0.73273 0.23279 -0.02453
 C496 C 0.76698 0.26711 0.02427
 C497 C 0.76690 0.26721 -0.02455
 C498 C 0.73279 0.23270 0.02429
 O499 O 0.77393 0.75235 0.48202
 O500 O 0.74831 0.72663 0.51851
 O501 O 0.74825 0.72663 0.48209
 O502 O 0.77399 0.75235 0.51844
 O503 O 0.75214 0.77419 0.51850
 O504 O 0.72640 0.74847 0.48215
 O505 O 0.72646 0.74847 0.51857
 O506 O 0.75208 0.77419 0.48208
 Cu507 Cu 0.76333 0.73729 0.50026
 Cu508 Cu 0.73707 0.76353 0.50033
 C509 C 0.76729 0.76757 0.47583
 C510 C 0.73309 0.73325 0.52475
 C511 C 0.73303 0.73325 0.47593
 C512 C 0.76737 0.76757 0.52466
 O513 O 0.98193 0.25202 0.22596
 O514 O 1.01834 0.22637 0.25167
 O515 O 0.98191 0.22632 0.25164
 O516 O 1.01837 0.25207 0.22599
 O517 O 1.01831 0.27392 0.24783
 O518 O 0.98185 0.24817 0.27347
 O519 O 1.01828 0.24823 0.27351
 O520 O 0.98187 0.27388 0.24780
 Cu521 Cu 1.00015 0.23699 0.23661
 Cu522 Cu 1.00007 0.26326 0.26286
 C523 C 0.97570 0.26724 0.23258
 C524 C 1.02451 0.23301 0.26689
 C525 C 0.97567 0.23294 0.26685
 C526 C 1.02455 0.26730 0.23262
 O527 O 0.51806 0.27349 0.74820
 O528 O 0.48162 0.24772 0.77387
 O529 O 0.51806 0.24774 0.77383
 O530 O 0.48162 0.27347 0.74825
 O531 O 0.48162 0.25166 0.72637
 O532 O 0.51806 0.22593 0.75195
 O533 O 0.48162 0.22591 0.75199
 O534 O 0.51805 0.25168 0.72632
 Cu535 Cu 0.49984 0.26280 0.76325
 Cu536 Cu 0.49984 0.23659 0.73695
 C537 C 0.52426 0.26689 0.73297
 C538 C 0.47542 0.23250 0.76723
 C539 C 0.52426 0.23253 0.76717
 C540 C 0.47541 0.26687 0.73303
 O541 O -0.01870 0.27355 0.75172
 O542 O 0.01773 0.24767 0.72620
 O543 O -0.01870 0.24778 0.72612
 O544 O 0.01774 0.27344 0.75180
 O545 O 0.01759 0.25165 0.77370
 O546 O -0.01885 0.22599 0.74801
 O547 O 0.01759 0.22588 0.74809
 O548 O -0.01884 0.25176 0.77362
 Cu549 Cu -0.00047 0.26281 0.73675
 Cu550 Cu -0.00065 0.23662 0.76307
 C551 C -0.02497 0.26699 0.76694
 C552 C 0.02386 0.23245 0.73288
 C553 C -0.02498 0.23259 0.73277
 C554 C 0.02386 0.26684 0.76705
 O555 O 0.51817 0.24777 0.22632
 O556 O 0.48174 0.27348 0.25201
 O557 O 0.51818 0.27344 0.25202
 O558 O 0.48173 0.24782 0.22630
 O559 O 0.48166 0.22594 0.24811
 O560 O 0.51810 0.25155 0.27383
 O561 O 0.48167 0.25160 0.27382
 O562 O 0.51809 0.22588 0.24813
 Cu563 Cu 0.49996 0.26284 0.23696
 Cu564 Cu 0.49987 0.23654 0.26317
 C565 C 0.52433 0.23252 0.23292
 C566 C 0.47550 0.26684 0.26721
 C567 C 0.52434 0.26678 0.26723
 C568 C 0.47549 0.23259 0.23290
 O569 O 0.98227 0.75232 0.72610
 O570 O 1.01863 0.72650 0.75171
 O571 O 0.98220 0.72659 0.75175
 O572 O 1.01871 0.75224 0.72607
 O573 O 1.01877 0.77407 0.74794
 O574 O 0.98226 0.74842 0.77362
 O575 O 1.01869 0.74833 0.77358
 O576 O 0.98233 0.77415 0.74797
 Cu577 Cu 1.00045 0.73721 0.73670
 Cu578 Cu 1.00052 0.76344 0.76298
 C579 C 0.97611 0.76755 0.73275
 C580 C 1.02485 0.73310 0.76693
 C581 C 0.97601 0.73322 0.76698
 C582 C 1.02496 0.76744 0.73271
 O583 O 0.48234 0.75229 0.22598
 O584 O 0.51868 0.72667 0.25180
 O585 O 0.48225 0.72663 0.25169
 O586 O 0.51878 0.75235 0.22610
 O587 O 0.51866 0.77423 0.24791
 O588 O 0.48214 0.74851 0.27350
 O589 O 0.51857 0.74855 0.27361
 O590 O 0.48223 0.77417 0.24779
 Cu591 Cu 0.50052 0.73728 0.23669
 Cu592 Cu 0.50039 0.76357 0.26290
 C593 C 0.47609 0.76752 0.23256
 C594 C 0.52481 0.73332 0.26703
 C595 C 0.47598 0.73326 0.26687
 C596 C 0.52494 0.76759 0.23273
 O597 O 0.01823 0.75216 0.27363
 O598 O -0.01820 0.72651 0.24792
 O599 O 0.01824 0.72648 0.24793
 O600 O -0.01820 0.75220 0.27360
 O601 O -0.01813 0.77407 0.25177
 O602 O 0.01830 0.74834 0.22611
 O603 O -0.01813 0.74838 0.22609
 O604 O 0.01831 0.77403 0.25180
 Cu605 Cu 0.00001 0.73713 0.26297
 Cu606 Cu 0.00009 0.76341 0.23674
 C607 C 0.02447 0.76738 0.26701
 C608 C -0.02437 0.73316 0.23271
 C609 C 0.02447 0.73311 0.23272
 C610 C -0.02437 0.76744 0.26698
 O611 O 0.51801 0.75250 0.77393
 O612 O 0.48165 0.72673 0.74825
 O613 O 0.51808 0.72673 0.74833
 O614 O 0.48157 0.75250 0.77385
 O615 O 0.48166 0.77430 0.75195
 O616 O 0.51817 0.74853 0.72643
 O617 O 0.48173 0.74852 0.72635
 O618 O 0.51810 0.77430 0.75204
 Cu619 Cu 0.49982 0.73742 0.76330
 Cu620 Cu 0.49992 0.76361 0.73698
 C621 C 0.52425 0.76771 0.76728
 C622 C 0.47550 0.73331 0.73300
 C623 C 0.52434 0.73332 0.73311
 C624 C 0.47540 0.76771 0.76717
 C625 C 0.42874 0.29235 0.31549
 C626 C 0.42594 0.31380 0.31656
 C627 C 0.40527 0.31109 0.31146
 C628 C 0.40783 0.28980 0.31053
 C629 C 0.43322 0.29423 0.29458
 C630 C 0.41255 0.29153 0.28950
 C631 C 0.43067 0.31553 0.29550
 C632 C 0.40976 0.31297 0.29056
 C633 C 0.38950 0.32032 0.32068
 C634 C 0.37632 0.32773 0.32809
 C635 C 0.44858 0.28466 0.28502
 C636 C 0.46099 0.27661 0.27698
 H637 H 0.43671 0.28376 0.32563
 H638 H 0.43126 0.32307 0.32779
 H639 H 0.39826 0.27932 0.31682
 H640 H 0.40721 0.28227 0.27827
 H641 H 0.44024 0.32600 0.28921
 H642 H 0.40179 0.32154 0.28041
 C643 C 0.42845 0.79329 0.81522
 C644 C 0.42554 0.81474 0.81617
 C645 C 0.40490 0.81191 0.81104
 C646 C 0.40756 0.79062 0.81024
 C647 C 0.43296 0.79508 0.79431
 C648 C 0.41231 0.79226 0.78921
 C649 C 0.43031 0.81637 0.79511
 C650 C 0.40942 0.81369 0.79014
 C651 C 0.38907 0.82109 0.82019
 C652 C 0.37583 0.82845 0.82756
 C653 C 0.44838 0.78553 0.78483
 C654 C 0.46084 0.77748 0.77685
 H655 H 0.43644 0.78480 0.82542
 H656 H 0.43080 0.82409 0.82736
 H657 H 0.39803 0.78013 0.81656
 H658 H 0.40704 0.78292 0.77802
 H659 H 0.43985 0.82686 0.78878
 H660 H 0.40143 0.82218 0.77993
 C661 C -0.07174 0.29277 0.81505
 C662 C -0.07449 0.31423 0.81605
 C663 C -0.09516 0.31155 0.81094
 C664 C -0.09265 0.29025 0.81008
 C665 C -0.06723 0.29456 0.79414
 C666 C -0.08791 0.29190 0.78905
 C667 C -0.06973 0.31587 0.79499
 C668 C -0.09065 0.31335 0.79003
 C669 C -0.11092 0.32083 0.82012
 C670 C -0.12408 0.32828 0.82752
 C671 C -0.05189 0.28493 0.78463
 C672 C -0.03948 0.27682 0.77664
 H673 H -0.06380 0.28420 0.82523
 H674 H -0.06916 0.32352 0.82726
 H675 H -0.10225 0.27981 0.81639
 H676 H -0.09326 0.28262 0.77785
 H677 H -0.06013 0.32630 0.78867
 H678 H -0.09859 0.32191 0.77985
 C679 C -0.07121 0.79296 0.31518
 C680 C -0.07402 0.81441 0.31624
 C681 C -0.09468 0.81169 0.31110
 C682 C -0.09211 0.79039 0.31020
 C683 C -0.06669 0.79482 0.29429
 C684 C -0.08736 0.79212 0.28917
 C685 C -0.06925 0.81612 0.29518
 C686 C -0.09015 0.81355 0.29021
 C687 C -0.11047 0.82091 0.32030
 C688 C -0.12366 0.82831 0.32769
 C689 C -0.05132 0.78525 0.28475
 C690 C -0.03890 0.77721 0.27673
 H691 H -0.06325 0.78438 0.32534
 H692 H -0.06872 0.82369 0.32747
 H693 H -0.10168 0.77992 0.31647
 H694 H -0.09268 0.78285 0.27794
 H695 H -0.05967 0.82659 0.28890
 H696 H -0.09812 0.82212 0.28004
 C697 C 0.58495 0.69944 0.28479
 C698 C 0.59651 0.70782 0.30102
 C699 C 0.59486 0.68914 0.31148
 C700 C 0.58353 0.68062 0.29538
 C701 C 0.56699 0.70600 0.29454
 C702 C 0.56531 0.68732 0.30499
 C703 C 0.57832 0.71452 0.31063
 C704 C 0.57690 0.69570 0.32124
 C705 C 0.61059 0.67992 0.32074
 C706 C 0.62373 0.67250 0.32817
 C707 C 0.55167 0.71556 0.28492
 C708 C 0.53929 0.72359 0.27684
 H709 H 0.58810 0.70108 0.26970
 H710 H 0.60951 0.71615 0.29949
 H711 H 0.58585 0.66658 0.28922
 H712 H 0.55230 0.67901 0.30651
 H713 H 0.57601 0.72857 0.31680
 H714 H 0.57377 0.69405 0.33634
 C715 C 0.56775 0.20170 0.81552
 C716 C 0.57430 0.18143 0.81158
 C717 C 0.59462 0.18836 0.81115
 C718 C 0.58832 0.20847 0.81523
 C719 C 0.56661 0.20518 0.79438
 C720 C 0.58693 0.21209 0.79396
 C721 C 0.57291 0.18507 0.79028
 C722 C 0.59346 0.19184 0.79001
 C723 C 0.61042 0.17917 0.82031
 C724 C 0.62362 0.17179 0.82768
 C725 C 0.55123 0.21473 0.78487
 C726 C 0.53879 0.22277 0.77688
 H727 H 0.55700 0.20586 0.82590
 H728 H 0.56929 0.16872 0.81893
 H729 H 0.59483 0.21799 0.82560
 H730 H 0.59196 0.22479 0.78662
 H731 H 0.56639 0.17555 0.77992
 H732 H 0.60420 0.18769 0.77962
 C733 C 1.06814 0.70206 0.81533
 C734 C 1.07463 0.68178 0.81136
 C735 C 1.09497 0.68863 0.81100
 C736 C 1.08873 0.70876 0.81511
 C737 C 1.06706 0.70559 0.79419
 C738 C 1.08741 0.71242 0.79384
 C739 C 1.07330 0.68546 0.79007
 C740 C 1.09388 0.69217 0.78987
 C741 C 1.11071 0.67937 0.82019
 C742 C 1.12387 0.67193 0.82758
 C743 C 1.05173 0.71521 0.78466
 C744 C 1.03934 0.72329 0.77665
 H745 H 1.05738 0.70624 0.82569
 H746 H 1.06955 0.66907 0.81867
 H747 H 1.09524 0.71823 0.82551
 H748 H 1.09250 0.72513 0.78654
 H749 H 1.06678 0.67599 0.77967
 H750 H 1.10463 0.68800 0.77950
 C751 C 1.08128 0.19336 0.28439
 C752 C 1.09693 0.20333 0.29551
 C753 C 1.09467 0.18883 0.31117
 C754 C 1.07926 0.17871 0.30020
 C755 C 1.06675 0.20568 0.29428
 C756 C 1.06447 0.19118 0.30995
 C757 C 1.08217 0.21579 0.30526
 C758 C 1.08015 0.20115 0.32107
 C759 C 1.11042 0.17961 0.32040
 C760 C 1.12358 0.17220 0.32781
 C761 C 1.05141 0.21523 0.28471
 C762 C 1.03901 0.22326 0.27666
 H763 H 1.08159 0.19026 0.26921
 H764 H 1.11044 0.20823 0.28967
 H765 H 1.07824 0.16335 0.29822
 H766 H 1.05095 0.18629 0.31577
 H767 H 1.08321 0.23114 0.30723
 H768 H 1.07986 0.20425 0.33625
 C769 C 0.58721 0.29209 0.71118
 C770 C 0.59234 0.28986 0.69029
 C771 C 0.59459 0.31117 0.68883
 C772 C 0.58969 0.31353 0.70959
 C773 C 0.56659 0.29430 0.70566
 C774 C 0.56883 0.31560 0.70420
 C775 C 0.57149 0.29193 0.68490
 C776 C 0.57399 0.31339 0.68329
 C777 C 0.61039 0.32039 0.67964
 C778 C 0.62359 0.32779 0.67225
 C779 C 0.55122 0.28472 0.71520
 C780 C 0.53879 0.27667 0.72322
 H781 H 0.59248 0.28323 0.72276
 H782 H 0.60218 0.27938 0.68447
 H783 H 0.59734 0.32252 0.71964
 H784 H 0.55899 0.32608 0.71003
 H785 H 0.56384 0.28294 0.67485
 H786 H 0.56873 0.32226 0.67171
 C787 C 0.56534 0.80779 0.18841
 C788 C 0.57875 0.82200 0.19776
 C789 C 0.59538 0.81185 0.18874
 C790 C 0.58223 0.79780 0.17925
 C791 C 0.56735 0.79498 0.20551
 C792 C 0.58398 0.78485 0.19649
 C793 C 0.58051 0.80903 0.21500
 C794 C 0.59737 0.79904 0.20584
 C795 C 0.61120 0.82107 0.17958
 C796 C 0.62441 0.82847 0.17221
 C797 C 0.55195 0.78541 0.21502
 C798 C 0.53950 0.77736 0.22301
 H799 H 0.55199 0.81128 0.18136
 H800 H 0.57678 0.83738 0.19818
 H801 H 0.58311 0.79329 0.16444
 H802 H 0.58597 0.76947 0.19607
 H803 H 0.57963 0.81354 0.22980
 H804 H 0.61071 0.79553 0.21291
 C805 C 1.08753 0.29247 0.21088
 C806 C 1.09268 0.29022 0.19000
 C807 C 1.09495 0.31152 0.18852
 C808 C 1.09003 0.31391 0.20927
 C809 C 1.06693 0.29468 0.20534
 C810 C 1.06918 0.31598 0.20387
 C811 C 1.07184 0.29229 0.18458
 C812 C 1.07435 0.31375 0.18296
 C813 C 1.11076 0.32072 0.17933
 C814 C 1.12397 0.32811 0.17194
 C815 C 1.05153 0.28512 0.21487
 C816 C 1.03909 0.27708 0.22289
 H817 H 1.09279 0.28361 0.22247
 H818 H 1.10252 0.27973 0.18420
 H819 H 1.09768 0.32290 0.21932
 H820 H 1.05934 0.32647 0.20968
 H821 H 1.06419 0.28330 0.17454
 H822 H 1.06911 0.32261 0.17137
 C823 C 1.08663 0.78587 0.70208
 C824 C 1.08632 0.79334 0.68179
 C825 C 1.09541 0.81156 0.68860
 C826 C 1.09595 0.80422 0.70875
 C827 C 1.06737 0.79474 0.70541
 C828 C 1.07646 0.81296 0.71222
 C829 C 1.06681 0.80207 0.68525
 C830 C 1.07616 0.82045 0.69191
 C831 C 1.11123 0.82075 0.67942
 C832 C 1.12445 0.82814 0.67204
 C833 C 1.05197 0.78520 0.71494
 C834 C 1.03952 0.77718 0.72296
 H835 H 1.09078 0.77155 0.70636
 H836 H 1.09055 0.78538 0.66917
 H837 H 1.10811 0.80521 0.71832
 H838 H 1.07224 0.82092 0.72484
 H839 H 1.05465 0.80108 0.67569
 H840 H 1.07204 0.83477 0.68763
 C841 C 0.43484 0.68702 0.69550
 C842 C 0.41652 0.68060 0.70510
 C843 C 0.40535 0.68896 0.68881
 C844 C 0.42341 0.69523 0.67905
 C845 C 0.43327 0.70587 0.70566
 C846 C 0.42209 0.71423 0.68937
 C847 C 0.41519 0.69959 0.71540
 C848 C 0.40379 0.70780 0.69898
 C849 C 0.38959 0.67971 0.67961
 C850 C 0.37642 0.67229 0.67221
 C851 C 0.44861 0.71546 0.71521
 C852 C 0.46101 0.72352 0.72324
 H853 H 0.44779 0.67859 0.69418
 H854 H 0.41405 0.66667 0.71147
 H855 H 0.42661 0.69333 0.66400
 H856 H 0.42456 0.72816 0.68301
 H857 H 0.41198 0.70148 0.73045
 H858 H 0.39086 0.71625 0.70031
 C859 C 0.43509 0.19353 0.18768
 C860 C 0.42239 0.17841 0.19661
 C861 C 0.40521 0.18850 0.18865
 C862 C 0.41766 0.20346 0.17957
 C863 C 0.43318 0.20532 0.20551
 C864 C 0.41599 0.21539 0.19755
 C865 C 0.42073 0.19035 0.21458
 C866 C 0.40332 0.20029 0.20648
 C867 C 0.38943 0.17930 0.17944
 C868 C 0.37625 0.17190 0.17204
 C869 C 0.44854 0.21485 0.21508
 C870 C 0.46096 0.22286 0.22313
 H871 H 0.44834 0.19086 0.18006
 H872 H 0.42484 0.16310 0.19611
 H873 H 0.41621 0.20875 0.16507
 H874 H 0.41353 0.23069 0.19804
 H875 H 0.42216 0.18506 0.22908
 H876 H 0.39008 0.20296 0.21411
 C877 C -0.08475 0.71559 0.19915
 C878 C -0.08347 0.70530 0.18016
 C879 C -0.09465 0.68899 0.18854
 C880 C -0.09616 0.69915 0.20738
 C881 C -0.06668 0.70583 0.20536
 C882 C -0.07787 0.68953 0.21373
 C883 C -0.06515 0.69568 0.18652
 C884 C -0.07659 0.67922 0.19475
 C885 C -0.11044 0.67978 0.17934
 C886 C -0.12362 0.67237 0.17196
 C887 C -0.05131 0.71539 0.21491
 C888 C -0.03889 0.72341 0.22295
 H889 H -0.08794 0.73065 0.20106
 H890 H -0.08594 0.71167 0.16626
 H891 H -0.10909 0.70047 0.21585
 H892 H -0.07540 0.68315 0.22764
 H893 H -0.05221 0.69436 0.17806
 H894 H -0.07342 0.66415 0.19283
 C895 C -0.08538 0.21502 0.69924
 C896 C -0.08410 0.20474 0.68025
 C897 C -0.09528 0.18842 0.68862
 C898 C -0.09678 0.19857 0.70747
 C899 C -0.06730 0.20527 0.70544
 C900 C -0.07849 0.18895 0.71381
 C901 C -0.06578 0.19512 0.68660
 C902 C -0.07722 0.17865 0.69482
 C903 C -0.11107 0.17921 0.67944
 C904 C -0.12426 0.17180 0.67206
 C905 C -0.05193 0.21482 0.71499
 C906 C -0.03951 0.22285 0.72302
 H907 H -0.08857 0.23008 0.70117
 H908 H -0.08659 0.21112 0.66635
 H909 H -0.10970 0.19989 0.71595
 H910 H -0.07601 0.18257 0.72772
 H911 H -0.05285 0.19381 0.67812
 H912 H -0.07404 0.16359 0.69289
 C913 C 0.28875 0.42552 0.31380
 C914 C 0.29044 0.40542 0.30596
 C915 C 0.31118 0.40527 0.31145
 C916 C 0.30965 0.42514 0.31944
 C917 C 0.29436 0.43323 0.29457
 C918 C 0.31510 0.43310 0.30005
 C919 C 0.29590 0.41335 0.28660
 C920 C 0.31678 0.41298 0.29222
 C921 C 0.32038 0.38950 0.32067
 C922 C 0.32777 0.37632 0.32808
 C923 C 0.28482 0.44858 0.28500
 C924 C 0.27680 0.46100 0.27695
 H925 H 0.27712 0.43085 0.32257
 H926 H 0.28040 0.39386 0.30849
 H927 H 0.31541 0.42980 0.33305
 H928 H 0.32514 0.44466 0.29751
 H929 H 0.29015 0.40867 0.27299
 H930 H 0.32841 0.40765 0.28345
 C931 C 0.28914 -0.07534 0.81347
 C932 C 0.29083 -0.09544 0.80561
 C933 C 0.31160 -0.09553 0.81097
 C934 C 0.31007 -0.07567 0.81898
 C935 C 0.29461 -0.06761 0.79421
 C936 C 0.31539 -0.06769 0.79956
 C937 C 0.29615 -0.08748 0.78622
 C938 C 0.31707 -0.08780 0.79171
 C939 C 0.32088 -0.11129 0.82014
 C940 C 0.32834 -0.12445 0.82752
 C941 C 0.28498 -0.05227 0.78470
 C942 C 0.27689 -0.03986 0.77672
 H943 H 0.27755 -0.07004 0.82231
 H944 H 0.28083 -0.10701 0.80820
 H945 H 0.31590 -0.07100 0.83256
 H946 H 0.32538 -0.05611 0.79697
 H947 H 0.29033 -0.09217 0.77265
 H948 H 0.32866 -0.09311 0.78287
 C949 C 0.78894 0.42540 0.81389
 C950 C 0.79061 0.40532 0.80598
 C951 C 0.81135 0.40514 0.81149
 C952 C 0.80983 0.42498 0.81954
 C953 C 0.79457 0.43317 0.79469
 C954 C 0.81531 0.43300 0.80018
 C955 C 0.79610 0.41332 0.78665
 C956 C 0.81697 0.41291 0.79229
 C957 C 0.82051 0.38932 0.82067
 C958 C 0.82788 0.37611 0.82804
 C959 C 0.78505 0.44857 0.78516
 C960 C 0.77704 0.46101 0.77715
 H961 H 0.77731 0.43072 0.82266
 H962 H 0.78055 0.39377 0.80847
 H963 H 0.81558 0.42959 0.83317
 H964 H 0.82536 0.44456 0.79769
 H965 H 0.79035 0.40869 0.77302
 H966 H 0.82860 0.40759 0.78351
 C967 C 0.78892 -0.07500 0.31376
 C968 C 0.79068 -0.09510 0.30591
 C969 C 0.81141 -0.09517 0.31141
 C970 C 0.80981 -0.07532 0.31942
 C971 C 0.79452 -0.06726 0.29454
 C972 C 0.81526 -0.06733 0.30004
 C973 C 0.79613 -0.08713 0.28656
 C974 C 0.81701 -0.08744 0.29219
 C975 C 0.82065 -0.11092 0.32064
 C976 C 0.82808 -0.12408 0.32806
 C977 C 0.78493 -0.05193 0.28497
 C978 C 0.77689 -0.03953 0.27693
 H979 H 0.77726 -0.06972 0.32252
 H980 H 0.78067 -0.10669 0.30843
 H981 H 0.81554 -0.07065 0.33304
 H982 H 0.82525 -0.05573 0.29751
 H983 H 0.79040 -0.09182 0.27294
 H984 H 0.82866 -0.09272 0.28343
 C985 C 0.30965 0.56451 0.69099
 C986 C 0.29985 0.57952 0.67886
 C987 C 0.31117 0.59473 0.68891
 C988 C 0.32113 0.57998 0.70089
 C989 C 0.29427 0.56678 0.70579
 C990 C 0.30559 0.58200 0.71583
 C991 C 0.28432 0.58154 0.69381
 C992 C 0.29579 0.59698 0.70371
 C993 C 0.32041 0.61049 0.67968
 C994 C 0.32784 0.62367 0.67226
 C995 C 0.28468 0.55143 0.71536
 C996 C 0.27662 0.53902 0.72340
 H997 H 0.31524 0.55097 0.68587
 H998 H 0.29760 0.57867 0.66355
 H999 H 0.33637 0.57951 0.70370
 H1000 H 0.30785 0.58286 0.73114
 H1001 H 0.26908 0.58202 0.69100
 H1002 H 0.29018 0.61050 0.70884
 C1003 C 0.28463 1.08234 0.19390
 C1004 C 0.29682 1.09728 0.20372
 C1005 C 0.31154 1.09509 0.18825
 C1006 C 0.29949 1.08039 0.17828
 C1007 C 0.29473 1.06707 0.20509
 C1008 C 0.30945 1.06487 0.18962
 C1009 C 0.30678 1.08178 0.21505
 C1010 C 0.32165 1.07983 0.19943
 C1011 C 0.32073 1.11090 0.17904
 C1012 C 0.32812 1.12411 0.17165
 C1013 C 0.28519 1.05168 0.21465
 C1014 C 0.27718 1.03924 0.22269
 H1015 H 0.26930 1.08321 0.19173
 H1016 H 0.29172 1.11077 0.20942
 H1017 H 0.29660 1.08000 0.16306
 H1018 H 0.31454 1.05136 0.18394
 H1019 H 0.30967 1.08219 0.23027
 H1020 H 0.33698 1.07898 0.20160
 C1021 C 0.81555 0.57013 0.20574
 C1022 C 0.81487 0.57408 0.18446
 C1023 C 0.81117 0.59480 0.18868
 C1024 C 0.81201 0.59110 0.20979
 C1025 C 0.79434 0.56683 0.20558
 C1026 C 0.79067 0.58756 0.20978
 C1027 C 0.79350 0.57052 0.18447
 C1028 C 0.78997 0.59149 0.18853
 C1029 C 0.82038 0.61059 0.17944
 C1030 C 0.82778 0.62377 0.17203
 C1031 C 0.78480 0.55146 0.21517
 C1032 C 0.77678 0.53903 0.22323
 H1033 H 0.82596 0.56117 0.21292
 H1034 H 0.82493 0.56872 0.17394
 H1035 H 0.81972 0.59974 0.22011
 H1036 H 0.78061 0.59294 0.22030
 H1037 H 0.78579 0.56189 0.17416
 H1038 H 0.77955 0.60045 0.18136
 C1039 C 0.81608 1.07086 0.70581
 C1040 C 0.81548 1.07480 0.68454
 C1041 C 0.81177 1.09553 0.68874
 C1042 C 0.81252 1.09183 0.70985
 C1043 C 0.79488 1.06756 0.70558
 C1044 C 0.79118 1.08829 0.70977
 C1045 C 0.79411 1.07125 0.68446
 C1046 C 0.79056 1.09222 0.68852
 C1047 C 0.82100 1.11131 0.67953
 C1048 C 0.82842 1.12450 0.67212
 C1049 C 0.78529 1.05219 0.71514
 C1050 C 0.77724 1.03976 0.72316
 H1051 H 0.82647 1.06190 0.71303
 H1052 H 0.82557 1.06944 0.67405
 H1053 H 0.82020 1.10047 0.72019
 H1054 H 0.78109 1.09367 0.72024
 H1055 H 0.78643 1.06261 0.67413
 H1056 H 0.78017 1.10117 0.68130
 C1057 C 0.68795 0.56485 0.30694
 C1058 C 0.69706 0.57779 0.32172
 C1059 C 0.68874 0.59480 0.31164
 C1060 C 0.67948 0.58212 0.29701
 C1061 C 0.70553 0.56680 0.29477
 C1062 C 0.69720 0.58383 0.28470
 C1063 C 0.71479 0.57949 0.30939
 C1064 C 0.70632 0.59673 0.29946
 C1065 C 0.67956 0.61060 0.32085
 C1066 C 0.67218 0.62380 0.32825
 C1067 C 0.71506 0.55143 0.28519
 C1068 C 0.72307 0.53900 0.27714
 H1069 H 0.68051 0.55156 0.30990
 H1070 H 0.69690 0.57548 0.33705
 H1071 H 0.66486 0.58339 0.29203
 H1072 H 0.69736 0.58614 0.26937
 H1073 H 0.72941 0.57824 0.31438
 H1074 H 0.71377 0.61002 0.29649
 C1075 C 0.68516 1.06708 0.80097
 C1076 C 0.69124 1.07581 0.81983
 C1077 C 0.68867 1.09536 0.81134
 C1078 C 0.68244 1.08688 0.79265
 C1079 C 0.70562 1.06745 0.79448
 C1080 C 0.70304 1.08701 0.78601
 C1081 C 0.71185 1.07593 0.81317
 C1082 C 0.70913 1.09572 0.80484
 C1083 C 0.67940 1.11110 0.82057
 C1084 C 0.67195 1.12426 0.82798
 C1085 C 0.71523 1.05212 0.78492
 C1086 C 0.72330 1.03972 0.77688
 H1087 H 0.67542 1.05513 0.79928
 H1088 H 0.68628 1.07138 0.83384
 H1089 H 0.67025 1.09156 0.78431
 H1090 H 0.70799 1.09145 0.77200
 H1091 H 0.72405 1.07126 0.82151
 H1092 H 0.71888 1.10766 0.80653
 C1093 C 0.19453 0.58258 0.78454
 C1094 C 0.17850 0.58066 0.79897
 C1095 C 0.18841 0.59501 0.81148
 C1096 C 0.20429 0.59715 0.79720
 C1097 C 0.20520 0.56696 0.79469
 C1098 C 0.21509 0.58132 0.80720
 C1099 C 0.18931 0.56480 0.80897
 C1100 C 0.19907 0.57941 0.82164
 C1101 C 0.17923 0.61084 0.82066
 C1102 C 0.17187 0.62406 0.82804
 C1103 C 0.21473 0.55156 0.78516
 C1104 C 0.22275 0.53911 0.77715
 H1105 H 0.19277 0.58371 0.76919
 H1106 H 0.16335 0.58058 0.79569
 H1107 H 0.21035 0.61063 0.79245
 H1108 H 0.23024 0.58142 0.81049
 H1109 H 0.18326 0.55132 0.81370
 H1110 H 0.20083 0.57828 0.83700
 C1111 C 0.20861 1.08755 0.28929
 C1112 C 0.18720 1.09044 0.29015
 C1113 C 0.18885 1.09474 0.31110
 C1114 C 0.21013 1.09209 0.31037
 C1115 C 0.20576 1.06684 0.29419
 C1116 C 0.20742 1.07114 0.31514
 C1117 C 0.18448 1.06949 0.29491
 C1118 C 0.18598 1.07404 0.31602
 C1119 C 0.17960 1.11049 0.32034
 C1120 C 0.17217 1.12364 0.32776
 C1121 C 0.21535 1.05151 0.28461
 C1122 C 0.22341 1.03911 0.27655
 H1123 H 0.21803 1.09294 0.27819
 H1124 H 0.17878 1.09854 0.27997
 H1125 H 0.22058 1.10155 0.31683
 H1126 H 0.21585 1.06303 0.32532
 H1127 H 0.17404 1.06002 0.28844
 H1128 H 0.17657 1.06867 0.32712
 C1129 C 0.69075 0.43555 0.69059
 C1130 C 0.70066 0.42020 0.67896
 C1131 C 0.68883 0.40532 0.68895
 C1132 C 0.67877 0.42041 0.70043
 C1133 C 0.70568 0.43328 0.70582
 C1134 C 0.69384 0.41840 0.71580
 C1135 C 0.71573 0.41819 0.69434
 C1136 C 0.70376 0.40308 0.70418
 C1137 C 0.67962 0.38954 0.67972
 C1138 C 0.67222 0.37636 0.67231
 C1139 C 0.71523 0.44864 0.71539
 C1140 C 0.72327 0.46106 0.72343
 H1141 H 0.68551 0.44907 0.68511
 H1142 H 0.70336 0.42076 0.66370
 H1143 H 0.66346 0.42114 0.70283
 H1144 H 0.69114 0.41783 0.73106
 H1145 H 0.73103 0.41744 0.69194
 H1146 H 0.70901 0.38956 0.70967
 C1147 C 0.69046 -0.06511 0.19046
 C1148 C 0.70033 -0.08050 0.17885
 C1149 C 0.68848 -0.09534 0.18887
 C1150 C 0.67845 -0.08021 0.20034
 C1151 C 0.70539 -0.06738 0.20569
 C1152 C 0.69353 -0.08223 0.21570
 C1153 C 0.71540 -0.08252 0.19422
 C1154 C 0.70341 -0.09758 0.20410
 C1155 C 0.67923 -0.11111 0.17968
 C1156 C 0.67180 -0.12428 0.17228
 C1157 C 0.71498 -0.05202 0.21522
 C1158 C 0.72303 -0.03960 0.22323
 H1159 H 0.68524 -0.05158 0.18497
 H1160 H 0.70302 -0.07997 0.16359
 H1161 H 0.66315 -0.07944 0.20274
 H1162 H 0.69084 -0.08277 0.23096
 H1163 H 0.73070 -0.08330 0.19181
 H1164 H 0.70864 -0.11110 0.20961
 C1165 C 0.18492 0.43351 0.19917
 C1166 C 0.19107 0.42471 0.18036
 C1167 C 0.18844 0.40519 0.18892
 C1168 C 0.18214 0.41374 0.20757
 C1169 C 0.20535 0.43316 0.20571
 C1170 C 0.20271 0.41364 0.21425
 C1171 C 0.21165 0.42461 0.18706
 C1172 C 0.20887 0.40486 0.19546
 C1173 C 0.17920 0.38941 0.17973
 C1174 C 0.17178 0.37623 0.17235
 C1175 C 0.21494 0.44853 0.21524
 C1176 C 0.22300 0.46096 0.22324
 H1177 H 0.17518 0.44547 0.20080
 H1178 H 0.18618 0.42908 0.16632
 H1179 H 0.16991 0.40909 0.21589
 H1180 H 0.20760 0.40925 0.22828
 H1181 H 0.22389 0.42926 0.17873
 H1182 H 0.21862 0.39291 0.19384
 C1183 C 0.20923 -0.08843 0.70951
 C1184 C 0.18792 -0.09210 0.70983
 C1185 C 0.18849 -0.09566 0.68868
 C1186 C 0.20967 -0.09221 0.68823
 C1187 C 0.20537 -0.06769 0.70551
 C1188 C 0.20595 -0.07123 0.68436
 C1189 C 0.18419 -0.07113 0.70597
 C1190 C 0.18461 -0.07493 0.68467
 C1191 C 0.17926 -0.11143 0.67948
 C1192 C 0.17184 -0.12461 0.67208
 C1193 C 0.21494 -0.05233 0.71506
 C1194 C 0.22298 -0.03990 0.72309
 H1195 H 0.21946 -0.09382 0.71983
 H1196 H 0.18040 -0.10086 0.72020
 H1197 H 0.22004 -0.10105 0.68083
 H1198 H 0.21347 -0.06248 0.67400
 H1199 H 0.17382 -0.06229 0.71338
 H1200 H 0.17438 -0.06956 0.67434
 C1201 C 0.31333 0.28853 0.42569
 C1202 C 0.30532 0.29050 0.40571
 C1203 C 0.31112 0.31117 0.40567
 C1204 C 0.31928 0.30936 0.42542
 C1205 C 0.29425 0.29432 0.43365
 C1206 C 0.30004 0.31500 0.43363
 C1207 C 0.28611 0.29615 0.41389
 C1208 C 0.29204 0.31697 0.41363
 C1209 C 0.32033 0.32038 0.38989
 C1210 C 0.32774 0.32777 0.37670
 C1211 C 0.28469 0.28476 0.44902
 C1212 C 0.27665 0.27671 0.46143
 H1213 H 0.32198 0.27673 0.43083
 H1214 H 0.30759 0.28052 0.39406
 H1215 H 0.33302 0.31490 0.42998
 H1216 H 0.29776 0.32497 0.44529
 H1217 H 0.27237 0.29061 0.40932
 H1218 H 0.28339 0.32876 0.40849
 C1219 C 0.31386 0.78864 -0.07524
 C1220 C 0.30581 0.79059 -0.09521
 C1221 C 0.31158 0.81127 -0.09526
 C1222 C 0.31978 0.80948 -0.07553
 C1223 C 0.29479 0.79441 -0.06725
 C1224 C 0.30055 0.81510 -0.06729
 C1225 C 0.28661 0.79621 -0.08699
 C1226 C 0.29251 0.81704 -0.08727
 C1227 C 0.32075 0.82049 -0.11107
 C1228 C 0.32812 0.82789 -0.12427
 C1229 C 0.28526 0.78485 -0.05186
 C1230 C 0.27724 0.77682 -0.03942
 H1231 H 0.32253 0.77685 -0.07011
 H1232 H 0.30807 0.78061 -0.10686
 H1233 H 0.33352 0.81504 -0.07100
 H1234 H 0.29828 0.82507 -0.05563
 H1235 H 0.27286 0.79066 -0.09154
 H1236 H 0.28383 0.82882 -0.09240
 C1237 C 0.81319 0.28904 -0.07484
 C1238 C 0.80516 0.29097 -0.09482
 C1239 C 0.81085 0.31167 -0.09486
 C1240 C 0.81904 0.30990 -0.07512
 C1241 C 0.79409 0.29473 -0.06687
 C1242 C 0.79978 0.31544 -0.06689
 C1243 C 0.78593 0.29652 -0.08662
 C1244 C 0.79175 0.31736 -0.08689
 C1245 C 0.82002 0.32092 -0.11065
 C1246 C 0.82740 0.32834 -0.12384
 C1247 C 0.78459 0.28511 -0.05150
 C1248 C 0.77660 0.27703 -0.03908
 H1249 H 0.82191 0.27728 -0.06972
 H1250 H 0.80747 0.28100 -0.10648
 H1251 H 0.83276 0.31550 -0.07057
 H1252 H 0.79746 0.32539 -0.05523
 H1253 H 0.77221 0.29091 -0.09119
 H1254 H 0.78303 0.32912 -0.09202
 C1255 C 0.81358 0.78912 0.42541
 C1256 C 0.80551 0.79107 0.40545
 C1257 C 0.81130 0.81175 0.40538
 C1258 C 0.81953 0.80995 0.42511
 C1259 C 0.79453 0.79491 0.43343
 C1260 C 0.80031 0.81559 0.43338
 C1261 C 0.78632 0.79672 0.41370
 C1262 C 0.79224 0.81754 0.41340
 C1263 C 0.82046 0.82095 0.38956
 C1264 C 0.82782 0.82833 0.37634
 C1265 C 0.78502 0.78536 0.44883
 C1266 C 0.77702 0.77733 0.46128
 H1267 H 0.82225 0.77733 0.43053
 H1268 H 0.80774 0.78108 0.39380
 H1269 H 0.83328 0.81550 0.42962
 H1270 H 0.79807 0.82557 0.44504
 H1271 H 0.77257 0.79118 0.40917
 H1272 H 0.78357 0.82933 0.40828
 C1273 C 0.69870 0.28439 0.58453
 C1274 C 0.70728 0.30024 0.59648
 C1275 C 0.68889 0.31116 0.59478
 C1276 C 0.68016 0.29543 0.58306
 C1277 C 0.70574 0.29428 0.56683
 C1278 C 0.68735 0.30519 0.56511
 C1279 C 0.71446 0.31001 0.57855
 C1280 C 0.69592 0.32107 0.57709
 C1281 C 0.67967 0.32038 0.61055
 C1282 C 0.67225 0.32779 0.62373
 C1283 C 0.71530 0.28471 0.55148
 C1284 C 0.72333 0.27666 0.53906
 H1285 H 0.69995 0.26920 0.58743
 H1286 H 0.71538 0.29831 0.60955
 H1287 H 0.66595 0.28955 0.58510
 H1288 H 0.67926 0.30711 0.55204
 H1289 H 0.72867 0.31589 0.57653
 H1290 H 0.69467 0.33626 0.57421
 C1291 C 0.71448 0.79858 1.08598
 C1292 C 0.70658 0.81872 1.08553
 C1293 C 0.68864 0.81161 1.09495
 C1294 C 0.69640 0.79161 1.09563
 C1295 C 0.70544 0.79484 1.06689
 C1296 C 0.68750 0.78774 1.07631
 C1297 C 0.69768 0.81485 1.06619
 C1298 C 0.67958 0.80789 1.07587
 C1299 C 0.67946 0.82078 1.11077
 C1300 C 0.67209 0.82814 1.12400
 C1301 C 0.71498 0.78533 1.05149
 C1302 C 0.72300 0.77733 1.03904
 H1303 H 0.72893 0.79465 1.08998
 H1304 H 0.71433 0.83156 1.08950
 H1305 H 0.69578 0.78216 1.10790
 H1306 H 0.67975 0.77489 1.07235
 H1307 H 0.69832 0.82429 1.05391
 H1308 H 0.66513 0.81183 1.07189
 C1309 C 0.19889 0.31474 1.06663
 C1310 C 0.17989 0.30878 1.07519
 C1311 C 0.18829 0.31105 1.09479
 C1312 C 0.20713 0.31716 1.08649
 C1313 C 0.20512 0.29420 1.06680
 C1314 C 0.21350 0.29648 1.08641
 C1315 C 0.18629 0.28809 1.07511
 C1316 C 0.19454 0.29051 1.09495
 C1317 C 0.17910 0.32026 1.11058
 C1318 C 0.17170 0.32766 1.12378
 C1319 C 0.21466 0.28464 1.05143
 C1320 C 0.22268 0.27660 1.03900
 H1321 H 0.20078 0.32460 1.05481
 H1322 H 0.16597 0.31395 1.07076
 H1323 H 0.21559 0.32922 1.09134
 H1324 H 0.22742 0.29132 1.09087
 H1325 H 0.17782 0.27603 1.07026
 H1326 H 0.19265 0.28064 1.10677
 C1327 C 0.18566 0.78994 0.57346
 C1328 C 0.19270 0.79013 0.59390
 C1329 C 0.18874 0.81121 0.59483
 C1330 C 0.18154 0.81118 0.57463
 C1331 C 0.20557 0.79443 0.56681
 C1332 C 0.20162 0.81551 0.56773
 C1333 C 0.21275 0.79447 0.58702
 C1334 C 0.20866 0.81569 0.58818
 C1335 C 0.17955 0.82038 0.61064
 C1336 C 0.17216 0.82776 0.62386
 C1337 C 0.21513 0.78490 0.55142
 C1338 C 0.22316 0.77690 0.53898
 H1339 H 0.17630 0.77925 0.56723
 H1340 H 0.18893 0.77979 0.60484
 H1341 H 0.16860 0.81816 0.56972
 H1342 H 0.20540 0.82584 0.55679
 H1343 H 0.22569 0.78749 0.59195
 H1344 H 0.21801 0.82637 0.59441
 C1345 C 0.31174 0.69291 0.56463
 C1346 C 0.32079 0.70292 0.58156
 C1347 C 0.31136 0.68876 0.59465
 C1348 C 0.30246 0.67859 0.57798
 C1349 C 0.29454 0.70558 0.56668
 C1350 C 0.28511 0.69142 0.57978
 C1351 C 0.30344 0.71573 0.58335
 C1352 C 0.29416 0.70143 0.59667
 C1353 C 0.32055 0.67957 0.61043
 C1354 C 0.32793 0.67218 0.62362
 C1355 C 0.28500 0.71513 0.55131
 C1356 C 0.27697 0.72316 0.53890
 H1357 H 0.31886 0.68952 0.55128
 H1358 H 0.33557 0.70755 0.58247
 H1359 H 0.30216 0.66322 0.57596
 H1360 H 0.27034 0.68679 0.57887
 H1361 H 0.30375 0.73111 0.58539
 H1362 H 0.28702 0.70484 0.61001
 C1363 C 0.31131 0.19260 1.06460
 C1364 C 0.32043 0.20261 1.08148
 C1365 C 0.31102 0.18847 1.09462
 C1366 C 0.30206 0.17830 1.07800
 C1367 C 0.29413 0.20529 1.06669
 C1368 C 0.28473 0.19115 1.07984
 C1369 C 0.30310 0.21545 1.08332
 C1370 C 0.29385 0.20117 1.09669
 C1371 C 0.32025 0.17928 1.11038
 C1372 C 0.32766 0.17188 1.12355
 C1373 C 0.28455 0.21482 1.05135
 C1374 C 0.27649 0.22284 1.03894
 H1375 H 0.31838 0.18918 1.05123
 H1376 H 0.33521 0.20722 1.08234
 H1377 H 0.30173 0.16292 1.07599
 H1378 H 0.26995 0.18653 1.07899
 H1379 H 0.30343 0.23082 1.08534
 H1380 H 0.28676 0.20460 1.11005
 C1381 C 0.78879 0.70806 1.08725
 C1382 C 0.79043 0.68662 1.08967
 C1383 C 0.81118 0.68903 1.09455
 C1384 C 0.80968 0.71033 1.09236
 C1385 C 0.79435 0.70592 1.06663
 C1386 C 0.81510 0.70833 1.07151
 C1387 C 0.79584 0.68461 1.06881
 C1388 C 0.81676 0.68687 1.07394
 C1389 C 0.82039 0.67980 1.11031
 C1390 C 0.82778 0.67238 1.12347
 C1391 C 0.78480 0.71550 1.05130
 C1392 C 0.77677 0.72355 1.03890
 H1393 H 0.77719 0.71688 1.09256
 H1394 H 0.78038 0.67759 1.09731
 H1395 H 0.81547 0.72081 1.10222
 H1396 H 0.82514 0.71736 1.06387
 H1397 H 0.79004 0.67414 1.05895
 H1398 H 0.82836 0.67804 1.06865
 C1399 C 0.78911 0.20757 0.58747
 C1400 C 0.79083 0.18614 0.58994
 C1401 C 0.81156 0.18864 0.59488
 C1402 C 0.80997 0.20994 0.59264
 C1403 C 0.79473 0.20540 0.56687
 C1404 C 0.81546 0.20792 0.57181
 C1405 C 0.79631 0.18411 0.56910
 C1406 C 0.81720 0.18646 0.57429
 C1407 C 0.82074 0.17948 0.61068
 C1408 C 0.82812 0.17212 0.62389
 C1409 C 0.78518 0.21491 0.55149
 C1410 C 0.77715 0.22291 0.53906
 H1411 H 0.77745 0.21634 0.59272
 H1412 H 0.78080 0.17708 0.59756
 H1413 H 0.81568 0.22046 0.60249
 H1414 H 0.82549 0.21698 0.56418
 H1415 H 0.79059 0.17359 0.55924
 H1416 H 0.82886 0.17768 0.56906
 C1417 C 0.68849 0.71365 0.42341
 C1418 C 0.69778 0.70851 0.40456
 C1419 C 0.68880 0.68904 0.40573
 C1420 C 0.67936 0.69403 0.42435
 C1421 C 0.70565 0.70589 0.43368
 C1422 C 0.69668 0.68641 0.43487
 C1423 C 0.71507 0.70089 0.41505
 C1424 C 0.70596 0.68127 0.41599
 C1425 C 0.67959 0.67983 0.38996
 C1426 C 0.67220 0.67243 0.37679
 C1427 C 0.71522 0.71545 0.44903
 C1428 C 0.72326 0.72348 0.46143
 H1429 H 0.68141 0.72707 0.42664
 H1430 H 0.69813 0.71750 0.39193
 H1431 H 0.66457 0.69110 0.42799
 H1432 H 0.69634 0.67744 0.44751
 H1433 H 0.72986 0.70381 0.41139
 H1434 H 0.71304 0.66786 0.41276
 C1435 C 0.70458 0.18411 -0.06941
 C1436 C 0.68352 0.18579 -0.07416
 C1437 C 0.68868 0.18853 -0.09481
 C1438 C 0.70958 0.18670 -0.09031
 C1439 C 0.70545 0.20541 -0.06683
 C1440 C 0.71059 0.20813 -0.08749
 C1441 C 0.68455 0.20725 -0.07133
 C1442 C 0.68956 0.20983 -0.09222
 C1443 C 0.67952 0.17931 -0.11060
 C1444 C 0.67216 0.17189 -0.12379
 C1445 C 0.71498 0.21498 -0.05147
 C1446 C 0.72299 0.22302 -0.03905
 H1447 H 0.71086 0.17364 -0.05986
 H1448 H 0.67228 0.17650 -0.06886
 H1449 H 0.71976 0.17815 -0.09829
 H1450 H 0.72183 0.21742 -0.09281
 H1451 H 0.67437 0.21580 -0.06335
 H1452 H 0.68329 0.22030 -0.10177
 C1453 C 0.21108 0.68589 -0.07439
 C1454 C 0.19006 0.68072 -0.07498
 C1455 C 0.18900 0.68848 -0.09495
 C1456 C 0.20987 0.69349 -0.09460
 C1457 C 0.20585 0.70536 -0.06702
 C1458 C 0.20478 0.71310 -0.08700
 C1459 C 0.18498 0.70036 -0.06736
 C1460 C 0.18377 0.70796 -0.08758
 C1461 C 0.17979 0.67926 -0.11071
 C1462 C 0.17239 0.67185 -0.12388
 C1463 C 0.21540 0.71494 -0.05168
 C1464 C 0.22344 0.72299 -0.03928
 H1465 H 0.22241 0.67692 -0.06879
 H1466 H 0.18390 0.66730 -0.07021
 H1467 H 0.22000 0.69057 -0.10597
 H1468 H 0.21093 0.72652 -0.09179
 H1469 H 0.17485 0.70329 -0.05598
 H1470 H 0.17244 0.71693 -0.09319
 C1471 C 0.21088 0.18613 0.42580
 C1472 C 0.18996 0.18054 0.42534
 C1473 C 0.18854 0.18860 0.40551
 C1474 C 0.20930 0.19403 0.40573
 C1475 C 0.20534 0.20537 0.43354
 C1476 C 0.20390 0.21341 0.41370
 C1477 C 0.18457 0.19994 0.43334
 C1478 C 0.18299 0.20784 0.41325
 C1479 C 0.17936 0.17944 0.38969
 C1480 C 0.17199 0.17208 0.37648
 C1481 C 0.21487 0.21488 0.44893
 C1482 C 0.22289 0.22289 0.46137
 H1483 H 0.22246 0.17730 0.43113
 H1484 H 0.18413 0.16692 0.42995
 H1485 H 0.21937 0.19150 0.39421
 H1486 H 0.20973 0.22702 0.40908
 H1487 H 0.17451 0.20248 0.44486
 H1488 H 0.17142 0.21667 0.40791
 C1489 C 0.29174 0.42840 0.68515
 C1490 C 0.31320 0.42594 0.68350
 C1491 C 0.31099 0.40532 0.68908
 C1492 C 0.28969 0.40754 0.69057
 C1493 C 0.29413 0.43330 0.70590
 C1494 C 0.29193 0.41268 0.71145
 C1495 C 0.31542 0.43109 0.70441
 C1496 C 0.31336 0.41023 0.70982
 C1497 C 0.32020 0.38953 0.67988
 C1498 C 0.32760 0.37634 0.67248
 C1499 C 0.28456 0.44868 0.71544
 C1500 C 0.27653 0.46111 0.72346
 H1501 H 0.28275 0.43605 0.67511
 H1502 H 0.32205 0.43120 0.67190
 H1503 H 0.27921 0.39768 0.68478
 H1504 H 0.28308 0.40739 0.72305
 H1505 H 0.32589 0.44095 0.71021
 H1506 H 0.32235 0.40258 0.71986
 C1507 C 0.28644 0.92225 0.18887
 C1508 C 0.30534 0.92360 0.17838
 C1509 C 0.31174 0.90560 0.18815
 C1510 C 0.29299 0.90402 0.19849
 C1511 C 0.29488 0.93355 0.20504
 C1512 C 0.30129 0.91554 0.21479
 C1513 C 0.31363 0.93516 0.19471
 C1514 C 0.32019 0.91690 0.20432
 C1515 C 0.32096 0.88983 0.17893
 C1516 C 0.32837 0.87666 0.17152
 C1517 C 0.28531 0.94890 0.21461
 C1518 C 0.27727 0.96131 0.22266
 H1519 H 0.27245 0.92463 0.18262
 H1520 H 0.30711 0.92674 0.16330
 H1521 H 0.28460 0.89105 0.19995
 H1522 H 0.29952 0.91239 0.22987
 H1523 H 0.32201 0.94814 0.19326
 H1524 H 0.33417 0.91452 0.21057
 C1525 C 0.80695 0.41903 0.21538
 C1526 C 0.79697 0.40319 0.20455
 C1527 C 0.81122 0.40542 0.18865
 C1528 C 0.82136 0.42104 0.19934
 C1529 C 0.79437 0.43337 0.20555
 C1530 C 0.80862 0.43562 0.18966
 C1531 C 0.78425 0.41775 0.19486
 C1532 C 0.79864 0.41975 0.17882
 C1533 C 0.82044 0.38966 0.17941
 C1534 C 0.82784 0.37649 0.17199
 C1535 C 0.78481 0.44872 0.21514
 C1536 C 0.77678 0.46113 0.22320
 H1537 H 0.81026 0.41890 0.23052
 H1538 H 0.79227 0.38968 0.21057
 H1539 H 0.83672 0.42221 0.20108
 H1540 H 0.81331 0.44914 0.18365
 H1541 H 0.76889 0.41656 0.19312
 H1542 H 0.79534 0.41987 0.16368
 C1543 C 0.79365 0.93002 0.68459
 C1544 C 0.81506 0.92679 0.68419
 C1545 C 0.81176 0.90608 0.68880
 C1546 C 0.79051 0.90906 0.68905
 C1547 C 0.79488 0.93405 0.70563
 C1548 C 0.79159 0.91333 0.71022
 C1549 C 0.81614 0.93107 0.70538
 C1550 C 0.81298 0.91012 0.70983
 C1551 C 0.82098 0.89029 0.67960
 C1552 C 0.82838 0.87710 0.67220
 C1553 C 0.78531 0.94942 0.71517
 C1554 C 0.77726 0.96184 0.72319
 H1555 H 0.78560 0.93838 0.67432
 H1556 H 0.82482 0.93214 0.67338
 H1557 H 0.78007 0.89984 0.68224
 H1558 H 0.78184 0.90797 0.72102
 H1559 H 0.82657 0.94030 0.71220
 H1560 H 0.82103 0.90176 0.72011
 C1561 C 0.70419 0.56901 0.68467
 C1562 C 0.68328 0.57417 0.68697
 C1563 C 0.68887 0.59479 0.68916
 C1564 C 0.70962 0.58988 0.68670
 C1565 C 0.70572 0.56679 0.70595
 C1566 C 0.71129 0.58742 0.70812
 C1567 C 0.68497 0.57170 0.70841
 C1568 C 0.69041 0.59256 0.71044
 C1569 C 0.67967 0.61058 0.67997
 C1570 C 0.67227 0.62377 0.67259
 C1571 C 0.71527 0.55142 0.71548
 C1572 C 0.72330 0.53898 0.72348
 H1573 H 0.70997 0.55915 0.67418
 H1574 H 0.67166 0.56890 0.67817
 H1575 H 0.71965 0.59753 0.67767
 H1576 H 0.72291 0.59271 0.71691
 H1577 H 0.67494 0.56405 0.71745
 H1578 H 0.68464 0.60241 0.72093
 C1579 C 0.68589 0.07322 0.21053
 C1580 C 0.69333 0.09354 0.20964
 C1581 C 0.68869 0.09407 0.18871
 C1582 C 0.68111 0.07399 0.18944
 C1583 C 0.70552 0.06610 0.20556
 C1584 C 0.70090 0.06662 0.18462
 C1585 C 0.71308 0.08619 0.20481
 C1586 C 0.70832 0.08695 0.18374
 C1587 C 0.67950 0.10985 0.17950
 C1588 C 0.67210 0.12304 0.17210
 C1589 C 0.71507 0.05074 0.21512
 C1590 C 0.72309 0.03832 0.22315
 H1591 H 0.67678 0.06741 0.22166
 H1592 H 0.69011 0.10478 0.21983
 H1593 H 0.66786 0.06916 0.18302
 H1594 H 0.70412 0.05537 0.17444
 H1595 H 0.72634 0.09104 0.21123
 H1596 H 0.71744 0.09277 0.17262
 C1597 C 0.18597 0.57381 0.21046
 C1598 C 0.19343 0.59412 0.20953
 C1599 C 0.18877 0.59462 0.18860
 C1600 C 0.18116 0.57455 0.18938
 C1601 C 0.20558 0.56665 0.20548
 C1602 C 0.20093 0.56714 0.18454
 C1603 C 0.21317 0.58673 0.20469
 C1604 C 0.20838 0.58746 0.18362
 C1605 C 0.17959 0.61040 0.17937
 C1606 C 0.17221 0.62358 0.17196
 C1607 C 0.21511 0.55129 0.21505
 C1608 C 0.22313 0.53887 0.22309
 H1609 H 0.17686 0.56803 0.22161
 H1610 H 0.19025 0.60538 0.21970
 H1611 H 0.16789 0.56973 0.18297
 H1612 H 0.20412 0.55587 0.17438
 H1613 H 0.22644 0.59157 0.21108
 H1614 H 0.21750 0.59324 0.17247
 C1615 C 0.19225 0.06372 0.68876
 C1616 C 0.17819 0.07726 0.69815
 C1617 C 0.18834 0.09380 0.68894
 C1618 C 0.20224 0.08052 0.67940
 C1619 C 0.20520 0.06582 0.70573
 C1620 C 0.21533 0.08236 0.69651
 C1621 C 0.19130 0.07910 0.71526
 C1622 C 0.20129 0.09587 0.70590
 C1623 C 0.17912 0.10959 0.67976
 C1624 C 0.17172 0.12277 0.67237
 C1625 C 0.21478 0.05044 0.71524
 C1626 C 0.22284 0.03802 0.72324
 H1627 H 0.18865 0.05033 0.68182
 H1628 H 0.16281 0.07535 0.69872
 H1629 H 0.20664 0.08128 0.66455
 H1630 H 0.23071 0.08429 0.69594
 H1631 H 0.18690 0.07835 0.73011
 H1632 H 0.20491 0.10925 0.71286
 C1633 C 0.29402 0.58710 0.28753
 C1634 C 0.29025 0.59351 0.30784
 C1635 C 0.31143 0.59474 0.31109
 C1636 C 0.31533 0.58856 0.29091
 C1637 C 0.29455 0.56674 0.29431
 C1638 C 0.31573 0.56795 0.29755
 C1639 C 0.29065 0.57291 0.31448
 C1640 C 0.31198 0.57438 0.31788
 C1641 C 0.32065 0.61053 0.32026
 C1642 C 0.32806 0.62373 0.32764
 C1643 C 0.28498 0.55136 0.28479
 C1644 C 0.27693 0.53892 0.27679
 H1645 H 0.28653 0.59217 0.27495
 H1646 H 0.27988 0.60419 0.31217
 H1647 H 0.32558 0.59517 0.28132
 H1648 H 0.32610 0.55726 0.29321
 H1649 H 0.28039 0.56631 0.32407
 H1650 H 0.31948 0.56933 0.33047
 C1651 C 0.29146 0.08656 0.78942
 C1652 C 0.28975 0.09122 0.81046
 C1653 C 0.31102 0.09388 0.81133
 C1654 C 0.31287 0.08945 0.79041
 C1655 C 0.29424 0.06588 0.79446
 C1656 C 0.31552 0.06853 0.79532
 C1657 C 0.29239 0.07030 0.81537
 C1658 C 0.31382 0.07321 0.81639
 C1659 C 0.32020 0.10968 0.82054
 C1660 C 0.32758 0.12288 0.82794
 C1661 C 0.28471 0.05049 0.78490
 C1662 C 0.27670 0.03806 0.77686
 H1663 H 0.28216 0.09189 0.77822
 H1664 H 0.27925 0.10072 0.81679
 H1665 H 0.32140 0.09750 0.78025
 H1666 H 0.32601 0.05902 0.78898
 H1667 H 0.28386 0.06225 0.82553
 H1668 H 0.32312 0.06790 0.82759
 C1669 C 0.79407 0.58717 0.78794
 C1670 C 0.79033 0.59356 0.80826
 C1671 C 0.81151 0.59484 0.81147
 C1672 C 0.81538 0.58868 0.79128
 C1673 C 0.79467 0.56680 0.79470
 C1674 C 0.81585 0.56807 0.79790
 C1675 C 0.79079 0.57295 0.81489
 C1676 C 0.81212 0.57447 0.81825
 C1677 C 0.82071 0.61065 0.82063
 C1678 C 0.82810 0.62387 0.82799
 C1679 C 0.78512 0.55141 0.78518
 C1680 C 0.77709 0.53897 0.77718
 H1681 H 0.78654 0.59223 0.77538
 H1682 H 0.77993 0.60421 0.81262
 H1683 H 0.82560 0.59533 0.78168
 H1684 H 0.82624 0.55741 0.79354
 H1685 H 0.78057 0.56631 0.82449
 H1686 H 0.81966 0.56944 0.83082
 C1687 C 0.79174 0.08688 0.28931
 C1688 C 0.79007 0.09156 0.31035
 C1689 C 0.81135 0.09420 0.31117
 C1690 C 0.81315 0.08975 0.29026
 C1691 C 0.79450 0.06620 0.29436
 C1692 C 0.81579 0.06883 0.29518
 C1693 C 0.79270 0.07065 0.31528
 C1694 C 0.81414 0.07353 0.31625
 C1695 C 0.82056 0.11000 0.32036
 C1696 C 0.82796 0.12320 0.32775
 C1697 C 0.78494 0.05082 0.28484
 C1698 C 0.77691 0.03838 0.27683
 H1699 H 0.78242 0.09221 0.27813
 H1700 H 0.77960 0.10108 0.31669
 H1701 H 0.82167 0.09778 0.28007
 H1702 H 0.82626 0.05931 0.28883
 H1703 H 0.78418 0.06262 0.32546
 H1704 H 0.82346 0.06822 0.32743
 C1705 C 0.69174 0.41980 0.28515
 C1706 C 0.70176 0.40315 0.29464
 C1707 C 0.68867 0.40521 0.31153
 C1708 C 0.67850 0.42163 0.30219
 C1709 C 0.70550 0.43323 0.29469
 C1710 C 0.69241 0.43531 0.31158
 C1711 C 0.71566 0.41680 0.30404
 C1712 C 0.70243 0.41863 0.32108
 C1713 C 0.67948 0.38940 0.32073
 C1714 C 0.67208 0.37619 0.32812
 C1715 C 0.71504 0.44862 0.28514
 C1716 C 0.72306 0.46106 0.27711
 H1717 H 0.68744 0.42045 0.27028
 H1718 H 0.70551 0.38976 0.28777
 H1719 H 0.66311 0.42343 0.30153
 H1720 H 0.68868 0.44871 0.31844
 H1721 H 0.73104 0.41498 0.30470
 H1722 H 0.70673 0.41797 0.33595
 C1723 C 0.69185 0.92068 0.78497
 C1724 C 0.70182 0.90399 0.79443
 C1725 C 0.68877 0.90609 0.81134
 C1726 C 0.67864 0.92256 0.80202
 C1727 C 0.70568 0.93405 0.79449
 C1728 C 0.69263 0.93618 0.81140
 C1729 C 0.71579 0.91758 0.80381
 C1730 C 0.70260 0.91946 0.82087
 C1731 C 0.67952 0.89032 0.82056
 C1732 C 0.67209 0.87715 0.82797
 C1733 C 0.71527 0.94941 0.78493
 C1734 C 0.72333 0.96183 0.77690
 H1735 H 0.68753 0.92135 0.77010
 H1736 H 0.70550 0.89058 0.78755
 H1737 H 0.66326 0.92442 0.80139
 H1738 H 0.68896 0.94959 0.81826
 H1739 H 0.73116 0.91569 0.80444
 H1740 H 0.70691 0.91877 0.83574
 C1741 C 0.18913 0.42179 0.78613
 C1742 C 0.19884 0.40372 0.79298
 C1743 C 0.18818 0.40531 0.81154
 C1744 C 0.17831 0.42316 0.80484
 C1745 C 0.20504 0.43333 0.79475
 C1746 C 0.19439 0.43495 0.81331
 C1747 C 0.21489 0.41548 0.80145
 C1748 C 0.20409 0.41685 0.82016
 C1749 C 0.17896 0.38950 0.82072
 C1750 C 0.17155 0.37629 0.82809
 C1751 C 0.21461 0.44872 0.78521
 C1752 C 0.22266 0.46115 0.77720
 H1753 H 0.18308 0.42400 0.77204
 H1754 H 0.20057 0.39070 0.78472
 H1755 H 0.16317 0.42613 0.80634
 H1756 H 0.19266 0.44797 0.82156
 H1757 H 0.23003 0.41249 0.79996
 H1758 H 0.21014 0.41464 0.83425
 C1759 C 0.19210 0.92004 0.28471
 C1760 C 0.20210 0.90338 0.29421
 C1761 C 0.18905 0.90551 0.31112
 C1762 C 0.17890 0.92193 0.30177
 C1763 C 0.20591 0.93345 0.29420
 C1764 C 0.19286 0.93560 0.31111
 C1765 C 0.21605 0.91702 0.30356
 C1766 C 0.20286 0.91891 0.32062
 C1767 C 0.17982 0.88974 0.32037
 C1768 C 0.17240 0.87658 0.32780
 C1769 C 0.21547 0.94881 0.28461
 C1770 C 0.22350 0.96123 0.27655
 H1771 H 0.18779 0.92067 0.26984
 H1772 H 0.20580 0.88997 0.28737
 H1773 H 0.16351 0.92377 0.30113
 H1774 H 0.18917 0.94902 0.31795
 H1775 H 0.23143 0.91516 0.30420
 H1776 H 0.20717 0.91827 0.33549
 C1777 C 0.43494 0.30576 0.68778
 C1778 C 0.41730 0.29590 0.68002
 C1779 C 0.40513 0.31113 0.68902
 C1780 C 0.42253 0.32115 0.69663
 C1781 C 0.43310 0.29426 0.70580
 C1782 C 0.42094 0.30949 0.71480
 C1783 C 0.41571 0.28426 0.69819
 C1784 C 0.40332 0.29963 0.70705
 C1785 C 0.38936 0.32035 0.67985
 C1786 C 0.37617 0.32775 0.67246
 C1787 C 0.44847 0.28469 0.71532
 C1788 C 0.46089 0.27664 0.72332
 H1789 H 0.44813 0.30818 0.67996
 H1790 H 0.41562 0.29042 0.66562
 H1791 H 0.42515 0.33642 0.69588
 H1792 H 0.42261 0.31497 0.72920
 H1793 H 0.41307 0.26899 0.69894
 H1794 H 0.39014 0.29720 0.71487
 C1795 C 0.42984 0.79340 0.18406
 C1796 C 0.40889 0.79029 0.18854
 C1797 C 0.40592 0.81155 0.18817
 C1798 C 0.42662 0.81482 0.18354
 C1799 C 0.43385 0.79477 0.20509
 C1800 C 0.43089 0.81603 0.20473
 C1801 C 0.41314 0.79152 0.20970
 C1802 C 0.40994 0.81291 0.20919
 C1803 C 0.39015 0.82073 0.17893
 C1804 C 0.37697 0.82811 0.17152
 C1805 C 0.44920 0.78525 0.21469
 C1806 C 0.46160 0.77724 0.22276
 H1807 H 0.43820 0.78528 0.17383
 H1808 H 0.39967 0.77981 0.18178
 H1809 H 0.43198 0.82451 0.17268
 H1810 H 0.44011 0.82650 0.21149
 H1811 H 0.40776 0.78183 0.22056
 H1812 H 0.40158 0.82103 0.21943
 C1813 C 0.91918 0.30726 0.21509
 C1814 C 0.92113 0.32153 0.19893
 C1815 C 0.90543 0.31136 0.18843
 C1816 C 0.90324 0.29724 0.20444
 C1817 C 0.93340 0.29454 0.20525
 C1818 C 0.91769 0.28438 0.19474
 C1819 C 0.93561 0.30866 0.18924
 C1820 C 0.91964 0.29865 0.17858
 C1821 C 0.88964 0.32056 0.17924
 C1822 C 0.87645 0.32795 0.17187
 C1823 C 0.94877 0.28500 0.21480
 C1824 C 0.96119 0.27698 0.22282
 H1825 H 0.91916 0.31069 0.23020
 H1826 H 0.92237 0.33691 0.20055
 H1827 H 0.88976 0.29264 0.21060
 H1828 H 0.91644 0.26900 0.19312
 H1829 H 0.94910 0.31325 0.18309
 H1830 H 0.91965 0.29521 0.16347
 C1831 C 0.93193 0.79702 0.68423
 C1832 C 0.91113 0.79126 0.68584
 C1833 C 0.90590 0.81188 0.68871
 C1834 C 0.92646 0.81781 0.68696
 C1835 C 0.93385 0.79500 0.70550
 C1836 C 0.92862 0.81562 0.70838
 C1837 C 0.91328 0.78909 0.70724
 C1838 C 0.90782 0.80985 0.70998
 C1839 C 0.89012 0.82111 0.67953
 C1840 C 0.87694 0.82851 0.67215
 C1841 C 0.94920 0.78541 0.71503
 C1842 C 0.96161 0.77735 0.72303
 H1843 H 0.94203 0.79164 0.67376
 H1844 H 0.90376 0.78134 0.67647
 H1845 H 0.93169 0.82972 0.67851
 H1846 H 0.93599 0.82553 0.71776
 H1847 H 0.90803 0.77718 0.71568
 H1848 H 0.89774 0.81522 0.72046
 C1849 C 0.58056 0.30725 0.28491
 C1850 C 0.57862 0.32109 0.30144
 C1851 C 0.59460 0.31091 0.31148
 C1852 C 0.59677 0.29722 0.29510
 C1853 C 0.56665 0.29407 0.29462
 C1854 C 0.58264 0.28391 0.30466
 C1855 C 0.56445 0.30776 0.31100
 C1856 C 0.58070 0.29774 0.32120
 C1857 C 0.61038 0.32012 0.32070
 C1858 C 0.62355 0.32752 0.32810
 C1859 C 0.55129 0.28453 0.28505
 C1860 C 0.53887 0.27651 0.27700
 H1861 H 0.58033 0.31105 0.26989
 H1862 H 0.57714 0.33648 0.30021
 H1863 H 0.61023 0.29298 0.28866
 H1864 H 0.58413 0.26851 0.30589
 H1865 H 0.55099 0.31199 0.31743
 H1866 H 0.58094 0.29393 0.33622
 C1867 C 0.58038 0.80832 0.78489
 C1868 C 0.57845 0.82214 0.80144
 C1869 C 0.59448 0.81197 0.81143
 C1870 C 0.59664 0.79831 0.79502
 C1871 C 0.56652 0.79511 0.79461
 C1872 C 0.58256 0.78496 0.80460
 C1873 C 0.56433 0.80877 0.81102
 C1874 C 0.58062 0.79876 0.82116
 C1875 C 0.61026 0.82119 0.82063
 C1876 C 0.62344 0.82859 0.82802
 C1877 C 0.55116 0.78554 0.78506
 C1878 C 0.53875 0.77749 0.77703
 H1879 H 0.58011 0.81215 0.76987
 H1880 H 0.57694 0.83753 0.80025
 H1881 H 0.61009 0.79411 0.78855
 H1882 H 0.58408 0.76957 0.80580
 H1883 H 0.55087 0.81296 0.81748
 H1884 H 0.58091 0.79493 0.83618
 C1885 C 0.08023 0.30712 0.78468
 C1886 C 0.07826 0.32118 0.80101
 C1887 C 0.09408 0.31102 0.81132
 C1888 C 0.09629 0.29710 0.79513
 C1889 C 0.06614 0.29417 0.79443
 C1890 C 0.08197 0.28402 0.80475
 C1891 C 0.06391 0.30809 0.81062
 C1892 C 0.08000 0.29807 0.82108
 C1893 C 0.10984 0.32023 0.82055
 C1894 C 0.12301 0.32763 0.82797
 C1895 C 0.05079 0.28462 0.78486
 C1896 C 0.03838 0.27659 0.77681
 H1897 H 0.08016 0.31073 0.76961
 H1898 H 0.07691 0.33657 0.79958
 H1899 H 0.10977 0.29268 0.78886
 H1900 H 0.08334 0.26863 0.80618
 H1901 H 0.05042 0.31249 0.81688
 H1902 H 0.08008 0.29446 0.83616
 C1903 C 0.08086 0.80762 0.28463
 C1904 C 0.07892 0.82166 0.30099
 C1905 C 0.09476 0.81147 0.31125
 C1906 C 0.09693 0.79758 0.29504
 C1907 C 0.06679 0.79467 0.29439
 C1908 C 0.08263 0.78449 0.30466
 C1909 C 0.06459 0.80856 0.31060
 C1910 C 0.08069 0.79852 0.32102
 C1911 C 0.11054 0.82066 0.32047
 C1912 C 0.12373 0.82805 0.32787
 C1913 C 0.05142 0.78514 0.28482
 C1914 C 0.03900 0.77712 0.27678
 H1915 H 0.08077 0.81126 0.26956
 H1916 H 0.07758 0.83705 0.29959
 H1917 H 0.11040 0.79317 0.28874
 H1918 H 0.08399 0.76910 0.30606
 H1919 H 0.05111 0.81296 0.31689
 H1920 H 0.08080 0.79488 0.33609
 C1921 C 0.57027 0.70637 0.68477
 C1922 C 0.59123 0.71017 0.68862
 C1923 C 0.59471 0.68899 0.68916
 C1924 C 0.57400 0.68503 0.68516
 C1925 C 0.56671 0.70589 0.70593
 C1926 C 0.57019 0.68471 0.70647
 C1927 C 0.58743 0.70983 0.70990
 C1928 C 0.59114 0.68852 0.71031
 C1929 C 0.61051 0.67977 0.67998
 C1930 C 0.62370 0.67236 0.67260
 C1931 C 0.55133 0.71547 0.71543
 C1932 C 0.53889 0.72353 0.72342
 H1933 H 0.56152 0.71381 0.67438
 H1934 H 0.60005 0.72054 0.68118
 H1935 H 0.56867 0.67473 0.67488
 H1936 H 0.56136 0.67434 0.71392
 H1937 H 0.59279 0.72013 0.72018
 H1938 H 0.59990 0.68108 0.72071
 C1939 C 0.57013 0.20563 0.18441
 C1940 C 0.59110 0.20944 0.18821
 C1941 C 0.59459 0.18826 0.18873
 C1942 C 0.57387 0.18430 0.18478
 C1943 C 0.56662 0.20514 0.20557
 C1944 C 0.57010 0.18396 0.20610
 C1945 C 0.58735 0.20908 0.20951
 C1946 C 0.59107 0.18777 0.20989
 C1947 C 0.61036 0.17904 0.17952
 C1948 C 0.62354 0.17163 0.17211
 C1949 C 0.55126 0.21471 0.21513
 C1950 C 0.53885 0.22276 0.22316
 H1951 H 0.56135 0.21309 0.17404
 H1952 H 0.59990 0.21981 0.18076
 H1953 H 0.56851 0.17400 0.17450
 H1954 H 0.56130 0.17359 0.21356
 H1955 H 0.59273 0.21938 0.21978
 H1956 H 0.59985 0.18032 0.22026
 C1957 C 0.07769 0.71391 0.18881
 C1958 C 0.09616 0.70790 0.19832
 C1959 C 0.09473 0.68885 0.18853
 C1960 C 0.07650 0.69471 0.17887
 C1961 C 0.06677 0.70572 0.20538
 C1962 C 0.06532 0.68667 0.19559
 C1963 C 0.08501 0.69985 0.21503
 C1964 C 0.08381 0.68066 0.20510
 C1965 C 0.11051 0.67963 0.17932
 C1966 C 0.12369 0.67221 0.17192
 C1967 C 0.05141 0.71529 0.21494
 C1968 C 0.03899 0.72333 0.22297
 H1969 H 0.07501 0.72769 0.18222
 H1970 H 0.10901 0.71653 0.19934
 H1971 H 0.07318 0.69249 0.16389
 H1972 H 0.05247 0.67805 0.19458
 H1973 H 0.08834 0.70207 0.23000
 H1974 H 0.08651 0.66688 0.21169
 C1975 C 0.08110 0.19326 0.71576
 C1976 C 0.07912 0.17800 0.70054
 C1977 C 0.09416 0.18800 0.68893
 C1978 C 0.09637 0.20311 0.70402
 C1979 C 0.06618 0.20493 0.70570
 C1980 C 0.08123 0.21492 0.69409
 C1981 C 0.06394 0.18982 0.69062
 C1982 C 0.07925 0.19967 0.67886
 C1983 C 0.10995 0.17876 0.67976
 C1984 C 0.12314 0.17135 0.67238
 C1985 C 0.05081 0.21454 0.71520
 C1986 C 0.03839 0.22262 0.72319
 H1987 H 0.08169 0.19072 0.73105
 H1988 H 0.07843 0.16271 0.70309
 H1989 H 0.10987 0.20847 0.70943
 H1990 H 0.08193 0.23021 0.69154
 H1991 H 0.05043 0.18447 0.68522
 H1992 H 0.07866 0.20221 0.66358
 C1993 C 0.41379 0.70422 0.28609
 C1994 C 0.41344 0.68335 0.29181
 C1995 C 0.40561 0.68900 0.31098
 C1996 C 0.40573 0.70973 0.30539
 C1997 C 0.43360 0.70587 0.29415
 C1998 C 0.42578 0.71152 0.31332
 C1999 C 0.43350 0.68514 0.29972
 C2000 C 0.42542 0.69063 0.31905
 C2001 C 0.38982 0.67977 0.32018
 C2002 C 0.37664 0.67236 0.32759
 C2003 C 0.44899 0.71544 0.28461
 C2004 C 0.46143 0.72349 0.27660
 H2005 H 0.40917 0.70991 0.27244
 H2006 H 0.40819 0.67166 0.28307
 H2007 H 0.39414 0.71974 0.30783
 H2008 H 0.43102 0.72321 0.32206
 H2009 H 0.44510 0.67514 0.29728
 H2010 H 0.43002 0.68494 0.33271
 C2011 C 0.43082 0.20362 0.81583
 C2012 C 0.40996 0.20896 0.81373
 C2013 C 0.40512 0.18818 0.81136
 C2014 C 0.42573 0.18267 0.81361
 C2015 C 0.43310 0.20507 0.79454
 C2016 C 0.42826 0.18428 0.79217
 C2017 C 0.41247 0.21056 0.79231
 C2018 C 0.40740 0.18964 0.79008
 C2019 C 0.38933 0.17894 0.82056
 C2020 C 0.37613 0.17153 0.82795
 C2021 C 0.44847 0.21466 0.78500
 C2022 C 0.46089 0.22272 0.77697
 H2023 H 0.44063 0.20948 0.82630
 H2024 H 0.40226 0.21901 0.82269
 H2025 H 0.43100 0.17110 0.82248
 H2026 H 0.43597 0.17424 0.78321
 H2027 H 0.40718 0.22212 0.78344
 H2028 H 0.39760 0.18379 0.77960
 C2029 C 0.91311 0.70747 0.78832
 C2030 C 0.91104 0.68605 0.79068
 C2031 C 0.90564 0.68910 0.81123
 C2032 C 0.90749 0.71038 0.80899
 C2033 C 0.93364 0.70592 0.79435
 C2034 C 0.92825 0.70897 0.81489
 C2035 C 0.93181 0.68464 0.79657
 C2036 C 0.92617 0.68753 0.81728
 C2037 C 0.88985 0.67991 0.82045
 C2038 C 0.87666 0.67251 0.82787
 C2039 C 0.94903 0.71546 0.78478
 C2040 C 0.96146 0.72347 0.77674
 H2041 H 0.90790 0.71576 0.77630
 H2042 H 0.90379 0.67653 0.78083
 H2043 H 0.89731 0.72086 0.81420
 H2044 H 0.93550 0.71850 0.82474
 H2045 H 0.94199 0.67416 0.79136
 H2046 H 0.93135 0.67923 0.82929
 C2047 C 0.93543 0.19290 0.31143
 C2048 C 0.91842 0.20284 0.32041
 C2049 C 0.90543 0.18855 0.31103
 C2050 C 0.92219 0.17845 0.30220
 C2051 C 0.93338 0.20548 0.29417
 C2052 C 0.92039 0.19119 0.28480
 C2053 C 0.91661 0.21557 0.30300
 C2054 C 0.90340 0.20114 0.29377
 C2055 C 0.88967 0.17930 0.32025
 C2056 C 0.87650 0.17187 0.32766
 C2057 C 0.94873 0.21508 0.28462
 C2058 C 0.96115 0.22315 0.27659
 H2059 H 0.94879 0.18962 0.31858
 H2060 H 0.91743 0.20752 0.33515
 H2061 H 0.92431 0.16309 0.30198
 H2062 H 0.92137 0.18651 0.27006
 H2063 H 0.91448 0.23093 0.30323
 H2064 H 0.89005 0.20443 0.28661
 C2065 C 0.28957 0.29094 0.58776
 C2066 C 0.31074 0.28982 0.59203
 C2067 C 0.31102 0.31108 0.59501
 C2068 C 0.28999 0.31234 0.59097
 C2069 C 0.29419 0.29421 0.56706
 C2070 C 0.29447 0.31547 0.57003
 C2071 C 0.31523 0.29294 0.57109
 C2072 C 0.31566 0.31436 0.57431
 C2073 C 0.32022 0.32031 0.61077
 C2074 C 0.32762 0.32772 0.62395
 C2075 C 0.28465 0.28464 0.55171
 C2076 C 0.27662 0.27661 0.53929
 H2077 H 0.27874 0.28121 0.59313
 H2078 H 0.31754 0.27937 0.60125
 H2079 H 0.27971 0.32042 0.59931
 H2080 H 0.28767 0.32591 0.56081
 H2081 H 0.32550 0.28486 0.56275
 H2082 H 0.32649 0.32410 0.56897
 C2083 C 0.29212 0.78950 0.08684
 C2084 C 0.31354 0.79044 0.08968
 C2085 C 0.31178 0.81138 0.09408
 C2086 C 0.29050 0.81057 0.09147
 C2087 C 0.29491 0.79451 0.06617
 C2088 C 0.29315 0.81545 0.07056
 C2089 C 0.31619 0.79531 0.06877
 C2090 C 0.31459 0.81641 0.07341
 C2091 C 0.32100 0.82061 0.10983
 C2092 C 0.32841 0.82803 0.12299
 C2093 C 0.28534 0.78493 0.05083
 C2094 C 0.27729 0.77688 0.03844
 H2095 H 0.28278 0.77833 0.09221
 H2096 H 0.32203 0.78026 0.09772
 H2097 H 0.28003 0.81695 0.10098
 H2098 H 0.28465 0.82562 0.06252
 H2099 H 0.32665 0.78893 0.05925
 H2100 H 0.32394 0.82759 0.06807
 C2101 C 0.79150 0.28948 0.08721
 C2102 C 0.81292 0.29037 0.09008
 C2103 C 0.81120 0.31132 0.09447
 C2104 C 0.78992 0.31056 0.09182
 C2105 C 0.79433 0.29447 0.06653
 C2106 C 0.79261 0.31542 0.07091
 C2107 C 0.81562 0.29523 0.06916
 C2108 C 0.81405 0.31633 0.07380
 C2109 C 0.82043 0.32053 0.11023
 C2110 C 0.82784 0.32793 0.12339
 C2111 C 0.78477 0.28491 0.05119
 C2112 C 0.77673 0.27688 0.03878
 H2113 H 0.78212 0.27833 0.09256
 H2114 H 0.82137 0.28018 0.09813
 H2115 H 0.77946 0.31696 0.10131
 H2116 H 0.78416 0.32561 0.06286
 H2117 H 0.82607 0.28882 0.05967
 H2118 H 0.82343 0.32748 0.06847
 C2119 C 0.79022 0.79169 0.58758
 C2120 C 0.81140 0.79057 0.59179
 C2121 C 0.81168 0.81184 0.59477
 C2122 C 0.79064 0.81309 0.59079
 C2123 C 0.79479 0.79496 0.56687
 C2124 C 0.79506 0.81622 0.56983
 C2125 C 0.81583 0.79370 0.57084
 C2126 C 0.81627 0.81512 0.57407
 C2127 C 0.82092 0.82106 0.61052
 C2128 C 0.82833 0.82847 0.62367
 C2129 C 0.78520 0.78539 0.55154
 C2130 C 0.77715 0.77734 0.53915
 H2131 H 0.77941 0.78196 0.59297
 H2132 H 0.81822 0.78013 0.60099
 H2133 H 0.78038 0.82117 0.59916
 H2134 H 0.78824 0.82666 0.56063
 H2135 H 0.82609 0.78562 0.56247
 H2136 H 0.82708 0.82486 0.56869
 C2137 C 0.28990 0.70885 0.41253
 C2138 C 0.31104 0.71015 0.40813
 C2139 C 0.31147 0.68888 0.40521
 C2140 C 0.29046 0.68745 0.40938
 C2141 C 0.29462 0.70569 0.43321
 C2142 C 0.29504 0.68442 0.43030
 C2143 C 0.31563 0.70713 0.42905
 C2144 C 0.31621 0.68570 0.42589
 C2145 C 0.32068 0.67970 0.38941
 C2146 C 0.32807 0.67231 0.37622
 C2147 C 0.28506 0.71522 0.44859
 C2148 C 0.27702 0.72323 0.46103
 H2149 H 0.27897 0.71847 0.40720
 H2150 H 0.31772 0.72063 0.39884
 H2151 H 0.28021 0.67926 0.40112
 H2152 H 0.28836 0.67394 0.43959
 H2153 H 0.32587 0.71532 0.43731
 H2154 H 0.32714 0.67607 0.43119
 C2155 C 0.31013 0.19112 0.93555
 C2156 C 0.30048 0.17804 0.92124
 C2157 C 0.31083 0.18817 0.90540
 C2158 C 0.32064 0.20109 0.91945
 C2159 C 0.29398 0.20508 0.93334
 C2160 C 0.30434 0.21520 0.91748
 C2161 C 0.28419 0.19216 0.91928
 C2162 C 0.29469 0.20214 0.90321
 C2163 C 0.32005 0.17894 0.88964
 C2164 C 0.32747 0.17152 0.87647
 C2165 C 0.28443 0.21467 0.94869
 C2166 C 0.27640 0.22272 0.96110
 H2167 H 0.31637 0.18670 0.94903
 H2168 H 0.29899 0.16266 0.92261
 H2169 H 0.33573 0.20466 0.91934
 H2170 H 0.30583 0.23058 0.91610
 H2171 H 0.26910 0.18859 0.91938
 H2172 H 0.28844 0.20657 0.88974
 C2173 C 0.81060 0.69212 0.93551
 C2174 C 0.80097 0.67907 0.92115
 C2175 C 0.81136 0.68923 0.90535
 C2176 C 0.82114 0.70212 0.91944
 C2177 C 0.79446 0.70609 0.93329
 C2178 C 0.80485 0.71623 0.91748
 C2179 C 0.78469 0.69319 0.91919
 C2180 C 0.79522 0.70320 0.90315
 C2181 C 0.82060 0.68001 0.88959
 C2182 C 0.82802 0.67259 0.87643
 C2183 C 0.78488 0.71564 0.94864
 C2184 C 0.77682 0.72367 0.96106
 H2185 H 0.81681 0.68767 0.94899
 H2186 H 0.79948 0.66369 0.92249
 H2187 H 0.83623 0.70568 0.91937
 H2188 H 0.80635 0.73162 0.91613
 H2189 H 0.76959 0.68963 0.91925
 H2190 H 0.78900 0.70766 0.88968
 C2191 C 0.78983 0.20829 0.41268
 C2192 C 0.81096 0.20962 0.40822
 C2193 C 0.81142 0.18835 0.40535
 C2194 C 0.79043 0.18689 0.40958
 C2195 C 0.79462 0.20519 0.43335
 C2196 C 0.79508 0.18391 0.43050
 C2197 C 0.81562 0.20666 0.42913
 C2198 C 0.81623 0.18523 0.42602
 C2199 C 0.82061 0.17915 0.38954
 C2200 C 0.82799 0.17176 0.37634
 C2201 C 0.78509 0.21475 0.44874
 C2202 C 0.77708 0.22278 0.46117
 H2203 H 0.77887 0.21788 0.40736
 H2204 H 0.81759 0.22009 0.39888
 H2205 H 0.78017 0.17865 0.40137
 H2206 H 0.78844 0.17345 0.43983
 H2207 H 0.82587 0.21490 0.43734
 H2208 H 0.82720 0.17564 0.43132
 C2209 C 0.68445 0.29734 0.43229
 C2210 C 0.68819 0.31770 0.42589
 C2211 C 0.68875 0.31093 0.40554
 C2212 C 0.68487 0.29073 0.41169
 C2213 C 0.70564 0.29410 0.43347
 C2214 C 0.70619 0.28735 0.41311
 C2215 C 0.70952 0.31430 0.42732
 C2216 C 0.70993 0.30768 0.40673
 C2217 C 0.67953 0.32013 0.38978
 C2218 C 0.67212 0.32754 0.37662
 C2219 C 0.71521 0.28456 0.44881
 C2220 C 0.72326 0.27654 0.46122
 H2221 H 0.67409 0.29297 0.44298
 H2222 H 0.68068 0.33029 0.43097
 H2223 H 0.67463 0.28113 0.40508
 H2224 H 0.71369 0.27476 0.40802
 H2225 H 0.71977 0.32389 0.43393
 H2226 H 0.72031 0.31204 0.39605
 C2227 C 0.68467 0.79267 0.92855
 C2228 C 0.68303 0.81413 0.92609
 C2229 C 0.68859 0.81194 0.90548
 C2230 C 0.69009 0.79064 0.90769
 C2231 C 0.70543 0.79507 0.93341
 C2232 C 0.71098 0.79290 0.91280
 C2233 C 0.70395 0.81638 0.93121
 C2234 C 0.70935 0.81434 0.91035
 C2235 C 0.67939 0.82116 0.88972
 C2236 C 0.67200 0.82857 0.87655
 C2237 C 0.71498 0.78550 0.94876
 C2238 C 0.72301 0.77746 0.96116
 H2239 H 0.67463 0.78365 0.93620
 H2240 H 0.67143 0.82297 0.93138
 H2241 H 0.68428 0.78016 0.89785
 H2242 H 0.72257 0.78407 0.90749
 H2243 H 0.70976 0.82686 0.94106
 H2244 H 0.71940 0.82336 0.90270
 C2245 C 0.19449 0.31275 0.93504
 C2246 C 0.20417 0.31950 0.91687
 C2247 C 0.18812 0.31096 0.90547
 C2248 C 0.17829 0.30436 0.92338
 C2249 C 0.20498 0.29410 0.93340
 C2250 C 0.18894 0.28556 0.92199
 C2251 C 0.21480 0.30070 0.91548
 C2252 C 0.19862 0.29230 0.90385
 C2253 C 0.17892 0.32018 0.88971
 C2254 C 0.17152 0.32759 0.87655
 C2255 C 0.21455 0.28454 0.94874
 C2256 C 0.22259 0.27652 0.96114
 H2257 H 0.19290 0.32105 0.94804
 H2258 H 0.21032 0.33356 0.91459
 H2259 H 0.16317 0.30598 0.92644
 H2260 H 0.18278 0.27150 0.92427
 H2261 H 0.22991 0.29909 0.91240
 H2262 H 0.20022 0.28399 0.89086
 C2263 C 0.21174 0.79306 0.41281
 C2264 C 0.19107 0.79014 0.40717
 C2265 C 0.18883 0.81142 0.40537
 C2266 C 0.20937 0.81448 0.41079
 C2267 C 0.20564 0.79457 0.43333
 C2268 C 0.20342 0.81585 0.43155
 C2269 C 0.18511 0.79151 0.42793
 C2270 C 0.18272 0.81295 0.42589
 C2271 C 0.17965 0.82063 0.38960
 C2272 C 0.17227 0.82803 0.37642
 C2273 C 0.21519 0.78501 0.44869
 C2274 C 0.22321 0.77698 0.46110
 H2275 H 0.22377 0.78478 0.40759
 H2276 H 0.18589 0.77967 0.39697
 H2277 H 0.21924 0.82402 0.40357
 H2278 H 0.20860 0.82631 0.44175
 H2279 H 0.17524 0.78196 0.43515
 H2280 H 0.17068 0.82123 0.43108
 C2281 C 0.69773 0.68598 0.56622
 C2282 C 0.70671 0.68176 0.58544
 C2283 C 0.68894 0.68900 0.59507
 C2284 C 0.67980 0.69307 0.57610
 C2285 C 0.70578 0.70587 0.56709
 C2286 C 0.68802 0.71311 0.57672
 C2287 C 0.71490 0.70179 0.58607
 C2288 C 0.69700 0.70889 0.59593
 C2289 C 0.67973 0.67978 0.61085
 C2290 C 0.67232 0.67238 0.62404
 C2291 C 0.71533 0.71544 0.55172
 C2292 C 0.72336 0.72348 0.53929
 H2293 H 0.69814 0.67667 0.55382
 H2294 H 0.71429 0.66877 0.58920
 H2295 H 0.66526 0.68938 0.57218
 H2296 H 0.68043 0.72610 0.57296
 H2297 H 0.72944 0.70548 0.59001
 H2298 H 0.69660 0.71821 0.60831
 C2299 C 0.70392 0.21323 0.08643
 C2300 C 0.68307 0.20747 0.08680
 C2301 C 0.68874 0.18828 0.09457
 C2302 C 0.70945 0.19391 0.09443
 C2303 C 0.70555 0.20520 0.06660
 C2304 C 0.71123 0.18601 0.07436
 C2305 C 0.68483 0.19958 0.06672
 C2306 C 0.69036 0.18024 0.07474
 C2307 C 0.67954 0.17905 0.11035
 C2308 C 0.67214 0.17163 0.12353
 C2309 C 0.71508 0.21480 0.05124
 C2310 C 0.72308 0.22288 0.03881
 H2311 H 0.70960 0.22690 0.09107
 H2312 H 0.67138 0.21619 0.09209
 H2313 H 0.71948 0.19147 0.10599
 H2314 H 0.72292 0.17729 0.06908
 H2315 H 0.67482 0.20203 0.05516
 H2316 H 0.68468 0.16656 0.07012
 C2317 C 0.18818 0.69347 0.06446
 C2318 C 0.19719 0.67858 0.07733
 C2319 C 0.18896 0.68870 0.09437
 C2320 C 0.17980 0.70344 0.08176
 C2321 C 0.20585 0.70551 0.06638
 C2322 C 0.19762 0.71561 0.08344
 C2323 C 0.21501 0.69077 0.07900
 C2324 C 0.20664 0.70074 0.09628
 C2325 C 0.17973 0.67951 0.11016
 C2326 C 0.17231 0.67213 0.12335
 C2327 C 0.21542 0.71505 0.05101
 C2328 C 0.22346 0.72307 0.03857
 H2329 H 0.18070 0.69060 0.05119
 H2330 H 0.19691 0.66324 0.07499
 H2331 H 0.16522 0.70855 0.08307
 H2332 H 0.19790 0.73095 0.08579
 H2333 H 0.22959 0.68566 0.07770
 H2334 H 0.21413 0.70363 0.10953
 C2335 C 0.18400 0.20463 0.56991
 C2336 C 0.18523 0.18343 0.57422
 C2337 C 0.18841 0.18810 0.59492
 C2338 C 0.18703 0.20913 0.59085
 C2339 C 0.20526 0.20504 0.56699
 C2340 C 0.20842 0.20968 0.58769
 C2341 C 0.20664 0.18400 0.57105
 C2342 C 0.20967 0.18851 0.59198
 C2343 C 0.17919 0.17884 0.61068
 C2344 C 0.17178 0.17141 0.62384
 C2345 C 0.21481 0.21465 0.55164
 C2346 C 0.22285 0.22272 0.53924
 H2347 H 0.17355 0.21137 0.56066
 H2348 H 0.17558 0.17253 0.56886
 H2349 H 0.17886 0.21936 0.59917
 H2350 H 0.21807 0.22058 0.59306
 H2351 H 0.21482 0.17377 0.56273
 H2352 H 0.22012 0.18178 0.60123
   
