data_POSCAR
  _audit_creation_date              2014-09-24
  _audit_creation_method            'ToBaCCo'
  _symmetry_space_group_name_H-M    'P1'
  _symmetry_Int_Tables_number       1
  _symmetry_cell_setting            triclinic
  loop_
  _symmetry_equiv_pos_as_xyz
 x,y,z
_cell_length_a 60.1299
_cell_length_b 60.3291
_cell_length_c 59.8761
_cell_angle_alpha 90.240600
_cell_angle_beta 90.084800
_cell_angle_gamma 89.896100
loop_
  _atom_site_label
  _atom_site_type_symbol
  _atom_site_fract_x
  _atom_site_fract_y
  _atom_site_fract_z
C1 C 0.13638 -0.03128 0.25370
 C2 C 0.12782 -0.01026 0.25909
 C3 C 0.11783 -0.00677 0.27998
 C4 C 0.11505 -0.02440 0.29487
 C5 C 0.12276 -0.04558 0.28890
 C6 C 0.13417 -0.04914 0.26865
 C7 C 0.12798 0.00780 0.24246
 C8 C 0.11832 0.00451 0.22132
 C9 C 0.11562 0.02234 0.20640
 C10 C 0.12345 0.04343 0.21289
 C11 C 0.13439 0.04655 0.23338
 C12 C 0.13636 0.02873 0.24820
 H13 H 0.14444 -0.03366 0.23769
 H14 H 0.11126 0.00946 0.28420
 H15 H 0.11189 -0.01175 0.21709
 H16 H 0.14424 0.03117 0.26432
 H17 H 0.12071 -0.05903 0.30066
 H18 H 0.12199 0.05734 0.20159
 C19 C 0.36301 -0.03008 0.74555
 C20 C 0.37186 -0.00922 0.74039
 C21 C 0.38194 -0.00589 0.71952
 C22 C 0.38432 -0.02355 0.70439
 C23 C 0.37606 -0.04451 0.71006
 C24 C 0.36486 -0.04774 0.73033
 C25 C 0.37167 0.00885 0.75712
 C26 C 0.38089 0.00544 0.77842
 C27 C 0.38335 0.02322 0.79357
 C28 C 0.37578 0.04438 0.78713
 C29 C 0.36526 0.04760 0.76647
 C30 C 0.36348 0.02985 0.75143
 H31 H 0.35481 -0.03257 0.76145
 H32 H 0.38882 0.01020 0.71549
 H33 H 0.38713 -0.01088 0.78263
 H34 H 0.35587 0.03238 0.73521
 H35 H 0.37754 -0.05811 0.69826
 H36 H 0.37706 0.05828 0.79858
 C37 C 0.86271 0.47160 0.24716
 C38 C 0.87160 0.49247 0.24204
 C39 C 0.88193 0.49576 0.22129
 C40 C 0.88455 0.47805 0.20626
 C41 C 0.87623 0.45710 0.21188
 C42 C 0.86478 0.45390 0.23201
 C43 C 0.87133 0.51055 0.25876
 C44 C 0.88084 0.50724 0.27993
 C45 C 0.88334 0.52505 0.29504
 C46 C 0.87548 0.54614 0.28869
 C47 C 0.86467 0.54924 0.26816
 C48 C 0.86289 0.53146 0.25314
 H49 H 0.85435 0.46913 0.26298
 H50 H 0.88885 0.51184 0.21731
 H51 H 0.88728 0.49097 0.28406
 H52 H 0.85510 0.53390 0.23700
 H53 H 0.87789 0.44347 0.20015
 H54 H 0.87679 0.56005 0.30012
 C55 C 0.63718 0.46837 0.75483
 C56 C 0.62865 0.48938 0.76029
 C57 C 0.61899 0.49288 0.78137
 C58 C 0.61667 0.47527 0.79642
 C59 C 0.62462 0.45418 0.79044
 C60 C 0.63540 0.45074 0.76995
 C61 C 0.62859 0.50737 0.74358
 C62 C 0.61874 0.50392 0.72255
 C63 C 0.61627 0.52157 0.70755
 C64 C 0.62427 0.54263 0.71350
 C65 C 0.63524 0.54601 0.73394
 C66 C 0.63714 0.52835 0.74902
 H67 H 0.64502 0.46572 0.73874
 H68 H 0.61233 0.50907 0.78562
 H69 H 0.61205 0.48777 0.71833
 H70 H 0.64511 0.53095 0.76507
 H71 H 0.62317 0.44061 0.80216
 H72 H 0.62270 0.55622 0.70182
 C73 C 0.24697 0.13067 1.02971
 C74 C 0.24142 0.12216 1.00861
 C75 C 0.22044 0.11256 1.00516
 C76 C 0.20552 0.11006 1.02315
 C77 C 0.21187 0.11796 1.04443
 C78 C 0.23219 0.12885 1.04762
 C79 C 0.25815 0.12285 0.99060
 C80 C 0.27919 0.11340 0.99427
 C81 C 0.29645 0.11601 0.97867
 C82 C 0.29224 0.12857 0.95937
 C83 C 0.27097 0.13716 0.95502
 C84 C 0.25384 0.13404 0.97057
 H85 H 0.26293 0.13867 1.03218
 H86 H 0.21627 0.10624 0.98871
 H87 H 0.28212 0.10443 1.00965
 H88 H 0.23758 0.14125 0.96763
 H89 H 0.20056 0.11668 1.05843
 H90 H 0.30525 0.13096 0.94711
 C91 C 0.75421 0.36657 1.02975
 C92 C 0.75750 0.37605 1.00863
 C93 C 0.77833 0.38485 1.00314
 C94 C 0.79612 0.38341 1.01818
 C95 C 0.79310 0.37264 1.03865
 C96 C 0.77207 0.36444 1.04490
 C97 C 0.73963 0.37553 0.99171
 C98 C 0.71904 0.38575 0.99581
 C99 C 0.70186 0.38480 0.97977
 C100 C 0.70588 0.37360 0.95945
 C101 C 0.72650 0.36361 0.95514
 C102 C 0.74324 0.36448 0.97139
 H103 H 0.73799 0.35991 1.03380
 H104 H 0.78073 0.39261 0.98702
 H105 H 0.71650 0.39420 1.01161
 H106 H 0.75917 0.35663 0.96821
 H107 H 0.80703 0.37161 1.05010
 H108 H 0.69304 0.37270 0.94676
 C109 C 0.25527 0.86652 0.52931
 C110 C 0.25888 0.87681 0.50868
 C111 C 0.27978 0.88593 0.50390
 C112 C 0.29751 0.88398 0.51915
 C113 C 0.29396 0.87227 0.53913
 C114 C 0.27284 0.86398 0.54451
 C115 C 0.24129 0.87688 0.49148
 C116 C 0.22067 0.88696 0.49564
 C117 C 0.20394 0.88668 0.47925
 C118 C 0.20805 0.87636 0.45861
 C119 C 0.22862 0.86625 0.45429
 C120 C 0.24515 0.86649 0.47083
 H121 H 0.23908 0.85958 0.53305
 H122 H 0.28217 0.89418 0.48804
 H123 H 0.21766 0.89491 0.51162
 H124 H 0.26107 0.85862 0.46767
 H125 H 0.30734 0.87040 0.55113
 H126 H 0.19520 0.87616 0.44589
 C127 C 0.74552 0.63327 0.52809
 C128 C 0.74129 0.62348 0.50722
 C129 C 0.72062 0.61358 0.50307
 C130 C 0.70419 0.61348 0.51969
 C131 C 0.70862 0.62323 0.54055
 C132 C 0.72928 0.63313 0.54487
 C133 C 0.75859 0.62391 0.48983
 C134 C 0.77946 0.61441 0.49406
 C135 C 0.79697 0.61660 0.47866
 C136 C 0.79324 0.62898 0.45912
 C137 C 0.77212 0.63768 0.45429
 C138 C 0.75474 0.63487 0.46959
 H139 H 0.76151 0.64096 0.53124
 H140 H 0.71734 0.60608 0.48693
 H141 H 0.78200 0.60563 0.50962
 H142 H 0.73856 0.64210 0.46626
 H143 H 0.69596 0.62313 0.55342
 H144 H 0.80645 0.63107 0.44703
 C145 C -0.02986 0.25376 0.13211
 C146 C -0.00864 0.25850 0.12358
 C147 C -0.00412 0.27972 0.11510
 C148 C -0.02088 0.29603 0.11429
 C149 C -0.04184 0.29108 0.12343
 C150 C -0.04628 0.27027 0.13271
 C151 C 0.00897 0.24137 0.12376
 C152 C 0.00543 0.22078 0.11332
 C153 C 0.02204 0.20425 0.11357
 C154 C 0.04240 0.20894 0.12426
 C155 C 0.04624 0.22959 0.13438
 C156 C 0.02940 0.24567 0.13426
 H157 H -0.03320 0.23761 0.13921
 H158 H 0.01225 0.28307 0.10836
 H159 H -0.01039 0.21771 0.10520
 H160 H 0.03220 0.26161 0.14219
 H161 H -0.05485 0.30353 0.12367
 H162 H 0.05552 0.19660 0.12462
 C163 C -0.02949 0.74634 0.36876
 C164 C -0.00848 0.74155 0.37791
 C165 C -0.00416 0.72026 0.38638
 C166 C -0.02093 0.70410 0.38629
 C167 C -0.04159 0.70895 0.37656
 C168 C -0.04589 0.72990 0.36751
 C169 C 0.00894 0.75881 0.37814
 C170 C 0.00430 0.77988 0.38706
 C171 C 0.01991 0.79705 0.38547
 C172 C 0.04014 0.79309 0.37452
 C173 C 0.04533 0.77191 0.36624
 C174 C 0.02978 0.75472 0.36836
 H175 H -0.03270 0.76256 0.36171
 H176 H 0.01189 0.71661 0.39378
 H177 H -0.01160 0.78295 0.39502
 H178 H 0.03342 0.73849 0.36142
 H179 H -0.05440 0.69634 0.37601
 H180 H 0.05224 0.80632 0.37316
 C181 C 0.47243 0.24589 0.86780
 C182 C 0.49282 0.24173 0.87845
 C183 C 0.49725 0.22054 0.88701
 C184 C 0.48185 0.20315 0.88420
 C185 C 0.46215 0.20735 0.87214
 C186 C 0.45714 0.22869 0.86435
 C187 C 0.51008 0.25917 0.87904
 C188 C 0.50529 0.28019 0.88798
 C189 C 0.52067 0.29769 0.88612
 C190 C 0.54079 0.29376 0.87472
 C191 C 0.54616 0.27257 0.86660
 C192 C 0.53084 0.25526 0.86905
 H193 H 0.46897 0.26223 0.86118
 H194 H 0.51291 0.21766 0.89551
 H195 H 0.48933 0.28289 0.89594
 H196 H 0.53457 0.23904 0.86212
 H197 H 0.45008 0.19426 0.86957
 H198 H 0.55286 0.30694 0.87290
 C199 C 0.46974 0.75536 0.63472
 C200 C 0.49101 0.75964 0.62604
 C201 C 0.49570 0.78054 0.61692
 C202 C 0.47909 0.79684 0.61585
 C203 C 0.45814 0.79258 0.62511
 C204 C 0.45343 0.77202 0.63483
 C205 C 0.50827 0.74220 0.62617
 C206 C 0.50408 0.72159 0.61611
 C207 C 0.52044 0.70499 0.61599
 C208 C 0.54118 0.70920 0.62590
 C209 C 0.54563 0.72980 0.63591
 C210 C 0.52905 0.74622 0.63609
 H211 H 0.46621 0.73938 0.64210
 H212 H 0.51192 0.78371 0.60975
 H213 H 0.48806 0.71850 0.60837
 H214 H 0.53232 0.76217 0.64380
 H215 H 0.44541 0.80532 0.62468
 H216 H 0.55389 0.69644 0.62576
 C217 C 0.86602 1.02628 0.75566
 C218 C 0.87695 1.00612 0.75942
 C219 C 0.88763 1.00234 0.77986
 C220 C 0.88745 1.01858 0.79683
 C221 C 0.87621 1.03875 0.79281
 C222 C 0.86555 1.04274 0.77227
 C223 C 0.87731 0.98892 0.74187
 C224 C 0.88779 0.99309 0.72146
 C225 C 0.88819 0.97691 0.70444
 C226 C 0.87775 0.95633 0.70840
 C227 C 0.86733 0.95193 0.72894
 C228 C 0.86722 0.96838 0.74559
 H229 H 0.85794 1.02909 0.73973
 H230 H 0.89604 0.98664 0.78238
 H231 H 0.89554 1.00910 0.71898
 H232 H 0.85928 0.96528 0.76151
 H233 H 0.87577 1.05149 0.80560
 H234 H 0.87775 0.94363 0.69557
 C235 C 0.36416 0.52795 0.25577
 C236 C 0.37432 0.50744 0.25988
 C237 C 0.38444 0.50351 0.28057
 C238 C 0.38457 0.51994 0.29723
 C239 C 0.37424 0.54046 0.29297
 C240 C 0.36397 0.54460 0.27225
 C241 C 0.37468 0.49015 0.24240
 C242 C 0.38496 0.49432 0.22187
 C243 C 0.38571 0.47790 0.20522
 C244 C 0.37588 0.45716 0.20931
 C245 C 0.36548 0.45277 0.22986
 C246 C 0.36503 0.46940 0.24635
 H247 H 0.35645 0.53089 0.23968
 H248 H 0.39228 0.48761 0.28358
 H249 H 0.39242 0.51039 0.21896
 H250 H 0.35718 0.46628 0.26231
 H251 H 0.37425 0.55322 0.30576
 H252 H 0.37636 0.44443 0.19651
 C253 C 0.63395 1.03085 0.24362
 C254 C 0.62340 1.01049 0.23989
 C255 C 0.61292 1.00632 0.21941
 C256 C 0.61285 1.02242 0.20256
 C257 C 0.62353 1.04281 0.20645
 C258 C 0.63418 1.04712 0.22695
 C259 C 0.62357 0.99344 0.25738
 C260 C 0.61306 0.99747 0.27786
 C261 C 0.61340 0.98143 0.29488
 C262 C 0.62457 0.96120 0.29084
 C263 C 0.63501 0.95697 0.27024
 C264 C 0.63442 0.97324 0.25360
 H265 H 0.64202 1.03390 0.25953
 H266 H 0.60490 0.99047 0.21665
 H267 H 0.60476 1.01324 0.28039
 H268 H 0.64239 0.97026 0.23764
 H269 H 0.62361 1.05530 0.19351
 H270 H 0.62512 0.94859 0.30366
 C271 C 0.13441 0.52923 0.74493
 C272 C 0.12389 0.50887 0.74120
 C273 C 0.11312 0.50479 0.72086
 C274 C 0.11274 0.52100 0.70414
 C275 C 0.12343 0.54139 0.70799
 C276 C 0.13434 0.54562 0.72836
 C277 C 0.12416 0.49179 0.75863
 C278 C 0.11361 0.49574 0.77908
 C279 C 0.11374 0.47955 0.79583
 C280 C 0.12475 0.45930 0.79189
 C281 C 0.13547 0.45521 0.77140
 C282 C 0.13501 0.47158 0.75482
 H283 H 0.14265 0.53222 0.76076
 H284 H 0.10508 0.48894 0.71813
 H285 H 0.10532 0.51147 0.78186
 H286 H 0.14309 0.46869 0.73890
 H287 H 0.12326 0.55396 0.69513
 H288 H 0.12498 0.44674 0.80476
 C289 C 0.74623 0.86701 -0.03045
 C290 C 0.74157 0.87723 -0.00995
 C291 C 0.72079 0.88711 -0.00640
 C292 C 0.70456 0.88693 -0.02328
 C293 C 0.70938 0.87658 -0.04380
 C294 C 0.73019 0.86653 -0.04749
 C295 C 0.75844 0.87742 0.00788
 C296 C 0.77886 0.88802 0.00450
 C297 C 0.79526 0.88811 0.02131
 C298 C 0.79068 0.87729 0.04164
 C299 C 0.77016 0.86672 0.04518
 C300 C 0.75413 0.86688 0.02818
 H301 H 0.76237 0.85939 -0.03304
 H302 H 0.71733 0.89491 0.00956
 H303 H 0.78182 0.89609 -0.01136
 H304 H 0.73823 0.85881 0.03065
 H305 H 0.69693 0.87631 -0.05690
 H306 H 0.80302 0.87705 0.05483
 C307 C 0.24537 0.36657 0.46996
 C308 C 0.24081 0.37653 0.49061
 C309 C 0.22008 0.38646 0.49434
 C310 C 0.20382 0.38657 0.47750
 C311 C 0.20854 0.37646 0.45683
 C312 C 0.22929 0.36638 0.45296
 C313 C 0.25781 0.37661 0.50830
 C314 C 0.27839 0.38675 0.50459
 C315 C 0.29477 0.38688 0.52130
 C316 C 0.29031 0.37660 0.54184
 C317 C 0.26971 0.36631 0.54570
 C318 C 0.25351 0.36645 0.52881
 H319 H 0.26148 0.35895 0.46723
 H320 H 0.21670 0.39411 0.51039
 H321 H 0.28157 0.39452 0.48862
 H322 H 0.23753 0.35865 0.53154
 H323 H 0.19606 0.37642 0.44376
 H324 H 0.30289 0.37658 0.55482
 C325 C 0.25326 0.63426 -0.02983
 C326 C 0.25731 0.62371 -0.00944
 C327 C 0.27795 0.61366 -0.00550
 C328 C 0.29463 0.61401 -0.02186
 C329 C 0.29040 0.62467 -0.04228
 C330 C 0.26976 0.63490 -0.04635
 C331 C 0.24007 0.62355 0.00798
 C332 C 0.21956 0.61328 0.00398
 C333 C 0.20285 0.61327 0.02044
 C334 C 0.20722 0.62385 0.04107
 C335 C 0.22783 0.63406 0.04524
 C336 C 0.24415 0.63381 0.02856
 H337 H 0.23725 0.64204 -0.03272
 H338 H 0.28095 0.60564 0.01039
 H339 H 0.21678 0.60541 -0.01209
 H340 H 0.26012 0.64160 0.03151
 H341 H 0.30320 0.62508 -0.05498
 H342 H 0.19464 0.62413 0.05401
 C343 C 0.75449 0.13512 0.46979
 C344 C 0.75833 0.12427 0.49004
 C345 C 0.77882 0.11393 0.49397
 C346 C 0.79578 0.11440 0.47779
 C347 C 0.79168 0.12554 0.45751
 C348 C 0.77110 0.13586 0.45340
 C349 C 0.74096 0.12399 0.50732
 C350 C 0.72048 0.11378 0.50307
 C351 C 0.70386 0.11346 0.51950
 C352 C 0.70797 0.12364 0.54028
 C353 C 0.72845 0.13400 0.54467
 C354 C 0.74489 0.13403 0.52807
 H355 H 0.73855 0.14301 0.46690
 H356 H 0.78141 0.10564 0.50979
 H357 H 0.71757 0.10611 0.48693
 H358 H 0.76080 0.14187 0.53120
 H359 H 0.80447 0.12621 0.44481
 H360 H 0.69521 0.12351 0.55304
 C361 C 1.02846 0.75395 0.86697
 C362 C 1.00859 0.75752 0.87859
 C363 C 1.00504 0.77762 0.88985
 C364 C 1.02121 0.79447 0.88950
 C365 C 1.04111 0.79063 0.87759
 C366 C 1.04487 0.77043 0.86636
 C367 C 0.99126 0.74032 0.87863
 C368 C 0.99501 0.72010 0.88940
 C369 C 0.97868 0.70338 0.88928
 C370 C 0.95840 0.70749 0.87804
 C371 C 0.95448 0.72783 0.86728
 C372 C 0.97106 0.74414 0.86769
 H373 H 1.03106 0.73831 0.85839
 H374 H 0.98949 0.78002 0.89868
 H375 H 1.01082 0.71752 0.89773
 H376 H 0.96832 0.75991 0.85950
 H377 H 1.05380 0.80333 0.87700
 H378 H 0.94557 0.69492 0.87764
 C379 C 0.52916 0.25501 0.36583
 C380 C 0.50897 0.25871 0.37688
 C381 C 0.50509 0.27902 0.38760
 C382 C 0.52127 0.29575 0.38741
 C383 C 0.54148 0.29190 0.37620
 C384 C 0.54554 0.27156 0.36531
 C385 C 0.49167 0.24146 0.37689
 C386 C 0.49564 0.22101 0.38715
 C387 C 0.47913 0.20457 0.38733
 C388 C 0.45855 0.20886 0.37695
 C389 C 0.45444 0.22932 0.36652
 C390 C 0.47113 0.24555 0.36665
 H391 H 0.53199 0.23924 0.35756
 H392 H 0.48935 0.28175 0.39600
 H393 H 0.51161 0.21798 0.39499
 H394 H 0.46821 0.26145 0.35879
 H395 H 0.55403 0.30475 0.37590
 H396 H 0.44574 0.19626 0.37696
 C397 C 1.02943 0.24655 0.63639
 C398 C 1.00928 0.24266 0.62534
 C399 C 1.00573 0.22246 0.61432
 C400 C 1.02219 0.20581 0.61428
 C401 C 1.04238 0.20996 0.62564
 C402 C 1.04614 0.23030 0.63664
 C403 C 0.99177 0.25975 0.62538
 C404 C 0.99505 0.27975 0.61408
 C405 C 0.97845 0.29626 0.61394
 C406 C 0.95840 0.29219 0.62550
 C407 C 0.95493 0.27207 0.63680
 C408 C 0.97176 0.25595 0.63662
 H409 H 1.03203 0.26232 0.64474
 H410 H 0.98999 0.21985 0.60588
 H411 H 1.01068 0.28229 0.60546
 H412 H 0.96935 0.24033 0.64515
 H413 H 1.05531 0.19744 0.62591
 H414 H 0.94537 0.30461 0.62570
 C415 C 0.52881 0.74758 0.13565
 C416 C 0.50846 0.74328 0.12510
 C417 C 0.50495 0.72283 0.11452
 C418 C 0.52169 0.70657 0.11433
 C419 C 0.54206 0.71104 0.12504
 C420 C 0.54574 0.73152 0.13577
 C421 C 0.49077 0.76020 0.12509
 C422 C 0.49405 0.78041 0.11417
 C423 C 0.47720 0.79655 0.11383
 C424 C 0.45695 0.79223 0.12476
 C425 C 0.45351 0.77198 0.13585
 C426 C 0.47055 0.75604 0.13585
 H427 H 0.53139 0.76348 0.14374
 H428 H 0.48912 0.71965 0.10645
 H429 H 0.50977 0.78347 0.10591
 H430 H 0.46815 0.74030 0.14416
 H431 H 0.55505 0.69858 0.12501
 H432 H 0.44387 0.80459 0.12461
 O433 O -0.01612 0.98835 0.93915
 O434 O 0.01995 1.00629 0.93782
 O435 O -0.00832 0.93638 0.98647
 O436 O 0.00375 0.93266 1.02176
 O437 O -0.06246 0.98302 0.99306
 O438 O -0.06458 1.02015 1.00747
 O439 O 0.04815 0.99487 1.04715
 O440 O 0.05241 0.96228 1.02718
 O441 O 0.04571 1.04557 0.99744
 O442 O 0.02061 1.04892 0.96175
 O443 O -0.00145 1.04469 1.04873
 O444 O -0.03601 1.02300 1.05545
 O445 O 0.01819 1.01129 1.06360
 O446 O -0.02027 0.99610 1.06782
 O447 O 0.01020 1.06171 1.01700
 O448 O -0.00185 1.06546 0.98072
 O449 O 0.06201 1.01606 1.01452
 O450 O 0.06443 0.97996 0.99367
 O451 O -0.04610 1.00375 0.95659
 O452 O -0.05304 1.03569 0.97890
 O453 O -0.04504 0.95296 1.00787
 O454 O -0.02219 0.94825 1.04085
 O455 O 0.00496 0.95343 0.95533
 O456 O 0.03872 0.97446 0.95218
 Zr457 Zr 0.00803 0.98681 0.96476
 O458 O 0.02936 1.00716 0.98384
 Zr459 Zr -0.01145 0.96215 1.01031
 O460 O 0.00908 0.98152 1.03120
 Zr461 Zr -0.03690 1.00672 0.99035
 O462 O -0.01747 1.02815 1.01013
 Zr463 Zr 0.03764 0.99123 1.01382
 O464 O 0.01832 0.96973 0.99370
 Zr465 Zr 0.01221 1.03591 0.99342
 O466 O -0.00858 1.01664 0.97254
 Zr467 Zr -0.00697 1.01152 1.03910
 O468 O -0.02873 0.99086 1.02047
 O469 O -0.02115 0.97751 0.98094
 O470 O 0.02214 1.02079 1.02302
 C471 C -0.03592 0.99650 0.93916
 C472 C -0.00111 0.93618 0.96622
 C473 C -0.06244 0.96329 1.00105
 C474 C 0.03825 1.00388 1.06389
 C475 C 0.06235 1.03582 1.00670
 C476 C 0.00490 1.06179 1.03775
 H477 H 0.04284 1.01060 0.97506
 H478 H -0.02622 1.04161 1.01364
 H479 H -0.03071 0.96788 0.97156
 H480 H 0.01302 0.97296 1.04468
 H481 H 0.04923 0.95011 1.01651
 H482 H 0.01676 0.93710 1.03082
 H483 H -0.01758 1.06581 0.98550
 H484 H -0.04269 1.04289 0.96833
 H485 H 0.07831 0.98147 1.00251
 H486 H 0.03630 0.96799 0.93712
 H487 H -0.04199 1.03559 1.04677
 H488 H -0.06483 1.01307 1.02235
 H489 H 0.01856 0.99773 0.92372
 H490 H 0.03561 1.04338 0.95784
 H491 H -0.03298 0.95882 1.04743
 H492 H -0.01090 0.98306 1.07128
 O493 O 0.54331 0.54812 0.49889
 O494 O 0.52258 0.54957 0.46385
 O495 O 0.49551 0.54478 0.54990
 O496 O 0.46472 0.52455 0.55751
 O497 O 0.54754 0.49617 0.54715
 O498 O 0.55313 0.46341 0.52464
 O499 O 0.43689 0.48295 0.49276
 O500 O 0.43355 0.51693 0.50995
 O501 O 0.48179 0.49035 0.43991
 O502 O 0.52182 0.50725 0.43898
 O503 O 0.49035 0.43776 0.48507
 O504 O 0.50553 0.43503 0.52346
 O505 O 0.45522 0.45276 0.50629
 O506 O 0.47821 0.44558 0.53885
 O507 O 0.50348 0.45555 0.45441
 O508 O 0.53398 0.47675 0.44584
 O509 O 0.45111 0.50286 0.45827
 O510 O 0.44893 0.53779 0.47971
 O511 O 0.56179 0.51689 0.50971
 O512 O 0.56501 0.47963 0.49659
 O513 O 0.51698 0.50989 0.56486
 O514 O 0.48008 0.49283 0.56737
 O515 O 0.50747 0.56253 0.51861
 O516 O 0.48996 0.56328 0.48235
 Zr517 Zr 0.51031 0.53716 0.49461
 O518 O 0.48993 0.51779 0.47367
 Zr519 Zr 0.49232 0.51132 0.54005
 O520 O 0.47122 0.49095 0.52086
 Zr521 Zr 0.53704 0.49257 0.51360
 O522 O 0.51792 0.47153 0.49314
 Zr523 Zr 0.46189 0.50718 0.49136
 O524 O 0.48097 0.52863 0.51183
 Zr525 Zr 0.50674 0.48864 0.46474
 O526 O 0.52820 0.50895 0.48394
 Zr527 Zr 0.48859 0.46267 0.50989
 O528 O 0.50906 0.48177 0.53153
 O529 O 0.52082 0.52129 0.52356
 O530 O 0.47785 0.47823 0.48076
 C531 C 0.56109 0.53744 0.50413
 C532 C 0.50143 0.56225 0.53918
 C533 C 0.53730 0.50335 0.56460
 C534 C 0.43756 0.46280 0.49961
 C535 C 0.46135 0.49665 0.44052
 C536 C 0.49709 0.43809 0.46470
 H537 H 0.48567 0.52670 0.46051
 H538 H 0.52702 0.45847 0.48906
 H539 H 0.53031 0.53093 0.53297
 H540 H 0.45802 0.48705 0.52983
 H541 H 0.43778 0.53052 0.51824
 H542 H 0.45120 0.51763 0.55120
 H543 H 0.54365 0.46835 0.45617
 H544 H 0.56526 0.48681 0.48175
 H545 H 0.43369 0.53515 0.47392
 H546 H 0.49824 0.57745 0.48345
 H547 H 0.51917 0.43261 0.51455
 H548 H 0.54309 0.45648 0.53568
 H549 H 0.52881 0.56459 0.46632
 H550 H 0.51079 0.51817 0.43357
 H551 H 0.48944 0.47936 0.56852
 H552 H 0.46703 0.45493 0.54651
 O553 O 0.45587 -0.04874 0.49510
 O554 O 0.47646 -0.05010 0.46005
 O555 O 0.50580 -0.04625 0.54528
 O556 O 0.53498 -0.02497 0.55454
 O557 O 0.45226 0.00275 0.54449
 O558 O 0.44630 0.03564 0.52258
 O559 O 0.56223 0.01648 0.48939
 O560 O 0.56576 -0.01770 0.50595
 O561 O 0.51675 0.00975 0.43684
 O562 O 0.47677 -0.00736 0.43589
 O563 O 0.50881 0.06169 0.48301
 O564 O 0.49407 0.06425 0.52135
 O565 O 0.54401 0.04650 0.50364
 O566 O 0.52112 0.05312 0.53678
 O567 O 0.49518 0.04424 0.45217
 O568 O 0.46458 0.02312 0.44346
 O569 O 0.54755 -0.00313 0.45472
 O570 O 0.55006 -0.03822 0.47537
 O571 O 0.43742 -0.01778 0.50690
 O572 O 0.43408 0.01963 0.49434
 O573 O 0.48290 -0.01158 0.56156
 O574 O 0.51992 0.00611 0.56401
 O575 O 0.49046 -0.06306 0.51479
 O576 O 0.50928 -0.06380 0.47867
 Zr577 Zr 0.48879 -0.03773 0.49093
 O578 O 0.50894 -0.01818 0.47016
 Zr579 Zr 0.50742 -0.01239 0.53662
 O580 O 0.52827 0.00818 0.51764
 Zr581 Zr 0.46225 0.00658 0.51090
 O582 O 0.48117 0.02785 0.49070
 Zr583 Zr 0.53721 -0.00776 0.48779
 O584 O 0.51840 -0.02944 0.50800
 Zr585 Zr 0.49204 0.01104 0.46189
 O586 O 0.47076 -0.00948 0.48086
 Zr587 Zr 0.51070 0.03654 0.50737
 O588 O 0.49046 0.01720 0.52878
 O589 O 0.47867 -0.02215 0.52026
 O590 O 0.52110 0.02128 0.47787
 C591 C 0.43814 -0.03828 0.50092
 C592 C 0.49807 -0.06328 0.53484
 C593 C 0.46264 -0.00483 0.56165
 C594 C 0.56161 0.03657 0.49661
 C595 C 0.53717 0.00336 0.43720
 C596 C 0.50184 0.06158 0.46270
 H597 H 0.51305 -0.02698 0.45681
 H598 H 0.47204 0.04096 0.48694
 H599 H 0.46930 -0.03188 0.52958
 H600 H 0.54158 0.01198 0.52657
 H601 H 0.56169 -0.03147 0.51389
 H602 H 0.54853 -0.01938 0.54715
 H603 H 0.45498 0.03133 0.45405
 H604 H 0.43362 0.01252 0.47942
 H605 H 0.56526 -0.03550 0.46959
 H606 H 0.50106 -0.07798 0.47980
 H607 H 0.48017 0.06655 0.51280
 H608 H 0.45651 0.04253 0.53357
 H609 H 0.47050 -0.06523 0.46236
 H610 H 0.48780 -0.01814 0.43016
 H611 H 0.51016 0.01923 0.56577
 H612 H 0.53280 0.04396 0.54386
 O613 O 0.00516 0.45393 1.04775
 O614 O 0.03859 0.47594 1.05100
 O615 O -0.04690 0.50303 1.04656
 O616 O -0.05574 0.53313 1.02652
 O617 O -0.04454 0.45150 0.99595
 O618 O -0.02230 0.44674 0.96280
 O619 O 0.00899 0.56218 0.98550
 O620 O -0.00783 0.56459 1.01998
 O621 O 0.06177 0.51711 0.99149
 O622 O 0.06286 0.47689 1.00805
 O623 O 0.01667 0.50989 0.93868
 O624 O -0.02117 0.49514 0.93511
 O625 O -0.00471 0.54455 0.95472
 O626 O -0.03729 0.52127 0.94710
 O627 O 0.04720 0.49607 0.95628
 O628 O 0.05594 0.46546 0.97668
 O629 O 0.04357 0.54735 1.00512
 O630 O 0.02267 0.54879 1.04037
 O631 O -0.00930 0.43697 1.01689
 O632 O 0.00612 0.43446 0.97965
 O633 O -0.06264 0.48201 1.00914
 O634 O -0.06482 0.51975 0.99453
 O635 O -0.01650 0.48776 1.06340
 O636 O 0.01889 0.50763 1.06513
 Zr637 Zr 0.00772 0.48747 1.03818
 O638 O 0.02838 0.50834 1.01925
 Zr639 Zr -0.03774 0.50628 1.01263
 O640 O -0.01877 0.52777 0.99270
 Zr641 Zr -0.01138 0.46205 0.99268
 O642 O 0.00879 0.48158 0.97197
 Zr643 Zr 0.01068 0.53661 1.00928
 O644 O -0.00951 0.51702 1.03037
 Zr645 Zr 0.03714 0.49227 0.98950
 O646 O 0.01826 0.47032 1.00937
 Zr647 Zr -0.00798 0.51104 0.96378
 O648 O -0.02934 0.49020 0.98247
 O649 O -0.02127 0.47760 1.02192
 O650 O 0.02109 0.52134 0.97973
 C651 C -0.00218 0.43685 1.03714
 C652 C -0.03659 0.49505 1.06363
 C653 C -0.06215 0.46179 1.00233
 C654 C 0.00187 0.56197 0.96522
 C655 C 0.06116 0.53732 0.99838
 C656 C 0.03691 0.50297 0.93887
 H657 H 0.04153 0.51237 1.02833
 H658 H 0.01281 0.47278 0.95861
 H659 H -0.03075 0.46795 1.03123
 H660 H -0.02778 0.54102 0.98916
 H661 H -0.01563 0.56017 1.03382
 H662 H -0.04843 0.54687 1.02145
 H663 H 0.04534 0.45537 0.96915
 H664 H 0.02021 0.43341 0.98817
 H665 H 0.02825 0.56407 1.03808
 H666 H 0.01756 0.49921 1.07924
 H667 H -0.01278 0.48120 0.93281
 H668 H -0.03339 0.45687 0.95608
 H669 H 0.03619 0.46964 1.06607
 H670 H 0.06861 0.48786 1.01893
 H671 H -0.06602 0.51115 0.98046
 H672 H -0.04423 0.53317 0.95613
 O673 O 0.00721 0.43607 0.51487
 O674 O -0.01131 0.43544 0.47876
 O675 O 0.06064 0.48155 0.50687
 O676 O 0.06550 0.51636 0.49506
 O677 O 0.01485 0.48967 0.56183
 O678 O -0.02203 0.50453 0.56439
 O679 O 0.00341 0.54365 0.45125
 O680 O 0.03535 0.52265 0.44640
 O681 O -0.04918 0.49608 0.45389
 O682 O -0.05347 0.46067 0.47858
 O683 O -0.04559 0.54670 0.50141
 O684 O -0.02356 0.55254 0.53606
 O685 O -0.01159 0.56041 0.48189
 O686 O 0.00397 0.56370 0.52055
 O687 O -0.06402 0.51582 0.48977
 O688 O -0.06882 0.47970 0.50183
 O689 O -0.01932 0.51226 0.43734
 O690 O 0.01603 0.49018 0.43416
 O691 O -0.00711 0.45377 0.54534
 O692 O -0.03851 0.47668 0.55262
 O693 O 0.04537 0.50297 0.54396
 O694 O 0.05077 0.53578 0.52123
 O695 O 0.04250 0.45104 0.49366
 O696 O 0.02093 0.44876 0.45977
 Zr697 Zr 0.00928 0.46149 0.49078
 O698 O -0.01081 0.48113 0.46972
 Zr699 Zr 0.03570 0.50590 0.51042
 O700 O 0.01678 0.52725 0.49017
 Zr701 Zr -0.00928 0.48736 0.53634
 O702 O -0.03033 0.50774 0.51722
 Zr703 Zr 0.00601 0.51042 0.46145
 O704 O 0.02718 0.48973 0.48047
 Zr705 Zr -0.03907 0.49152 0.48735
 O706 O -0.02016 0.47011 0.50781
 Zr707 Zr -0.01274 0.53595 0.50679
 O708 O 0.00756 0.51676 0.52826
 O709 O 0.01949 0.47720 0.52013
 O710 O -0.02303 0.52043 0.47750
 C711 C -0.00057 0.43629 0.53490
 C712 C 0.06016 0.46141 0.49970
 C713 C 0.03497 0.49683 0.56157
 C714 C -0.00459 0.56057 0.46163
 C715 C -0.03943 0.50519 0.43719
 C716 C -0.06321 0.53643 0.49512
 H717 H -0.01478 0.47260 0.45615
 H718 H -0.04358 0.51165 0.52616
 H719 H 0.02896 0.46761 0.52959
 H720 H 0.02581 0.54035 0.48626
 H721 H 0.04717 0.51157 0.44930
 H722 H 0.06121 0.52525 0.48190
 H723 H -0.06894 0.48475 0.51756
 H724 H -0.04613 0.46644 0.54217
 H725 H 0.01462 0.49909 0.42035
 H726 H 0.02696 0.43362 0.46204
 H727 H -0.03643 0.54433 0.54206
 H728 H -0.01472 0.51922 0.56459
 H729 H -0.00318 0.42118 0.47996
 H730 H -0.04807 0.45660 0.46351
 H731 H 0.04080 0.54235 0.53263
 H732 H 0.01706 0.56679 0.51108
 O733 O 0.51602 0.99029 0.06002
 O734 O 0.48052 1.00961 0.06128
 O735 O 0.50597 0.93700 0.01423
 O736 O 0.49365 0.93229 -0.02076
 O737 O 0.56132 0.98180 0.00543
 O738 O 0.56436 1.01821 -0.00962
 O739 O 0.44967 0.99621 -0.04653
 O740 O 0.44536 0.96382 -0.02707
 O741 O 0.45549 1.04798 -0.00087
 O742 O 0.47928 1.05157 0.03569
 O743 O 0.50146 1.04321 -0.05088
 O744 O 0.53471 1.01999 -0.05785
 O745 O 0.48009 1.01018 -0.06419
 O746 O 0.51802 0.99298 -0.06869
 O747 O 0.49138 1.06184 -0.01937
 O748 O 0.50380 1.06578 0.01744
 O749 O 0.43664 1.01713 -0.01195
 O750 O 0.43516 0.98104 0.00761
 O751 O 0.54625 1.00388 0.04175
 O752 O 0.55336 1.03520 0.01858
 O753 O 0.54294 0.95162 -0.00800
 O754 O 0.51932 0.94681 -0.04078
 O755 O 0.49388 0.95546 0.04523
 O756 O 0.46078 0.97764 0.04845
 Zr757 Zr 0.49148 0.98862 0.03488
 O758 O 0.47052 1.00907 0.01565
 Zr759 Zr 0.50954 0.96181 -0.01030
 O760 O 0.48903 0.98107 -0.03124
 Zr761 Zr 0.53648 1.00626 0.00808
 O762 O 0.51743 1.02753 -0.01211
 Zr763 Zr 0.46107 0.99226 -0.01356
 O764 O 0.48025 0.97082 0.00662
 Zr765 Zr 0.48829 1.03689 0.00479
 O766 O 0.50873 1.01766 0.02600
 Zr767 Zr 0.50582 1.01020 -0.04034
 O768 O 0.52739 0.98962 -0.02148
 O769 O 0.52012 0.97787 0.01849
 O770 O 0.47724 1.02095 -0.02404
 C771 C 0.53609 0.99761 0.05950
 C772 C 0.49925 0.93767 0.03465
 C773 C 0.56070 0.96176 -0.00186
 C774 C 0.45965 1.00404 -0.06375
 C775 C 0.43769 1.03778 -0.00686
 C776 C 0.49622 1.06098 -0.04022
 H777 H 0.45735 1.01328 0.02461
 H778 H 0.52659 1.04048 -0.01617
 H779 H 0.52956 0.96825 0.02796
 H780 H 0.48449 0.97223 -0.04441
 H781 H 0.44858 0.95146 -0.01672
 H782 H 0.48056 0.93672 -0.02972
 H783 H 0.51916 1.06594 0.01155
 H784 H 0.54355 1.04274 0.02950
 H785 H 0.42090 0.98238 -0.00063
 H786 H 0.46337 0.97175 0.06368
 H787 H 0.54164 1.03229 -0.04939
 H788 H 0.56406 1.01090 -0.02444
 H789 H 0.48196 1.00164 0.07566
 H790 H 0.46384 1.04709 0.03913
 H791 H 0.53061 0.95663 -0.04754
 H792 H 0.50778 0.98057 -0.07192
 O793 O 0.43743 0.51907 0.00919
 O794 O 0.43588 0.48354 -0.00980
 O795 O 0.48257 0.50959 0.06305
 O796 O 0.51731 0.49777 0.06827
 O797 O 0.49193 0.56415 0.01698
 O798 O 0.50704 0.56628 -0.01981
 O799 O 0.54268 0.45191 0.00284
 O800 O 0.52416 0.44864 0.03674
 O801 O 0.49690 0.45702 -0.04770
 O802 O 0.46244 0.48125 -0.05324
 O803 O 0.54824 0.50320 -0.04352
 O804 O 0.55541 0.53615 -0.02112
 O805 O 0.56161 0.48292 -0.00748
 O806 O 0.56496 0.52160 0.00706
 O807 O 0.51765 0.48990 -0.06146
 O808 O 0.48075 0.50630 -0.06622
 O809 O 0.50808 0.43880 -0.01642
 O810 O 0.48907 0.43837 0.02013
 O811 O 0.45573 0.54878 -0.00527
 O812 O 0.47903 0.55490 -0.03684
 O813 O 0.50476 0.54620 0.04777
 O814 O 0.53749 0.52236 0.05313
 O815 O 0.45174 0.49744 0.04454
 O816 O 0.44849 0.46411 0.02265
 Zr817 Zr 0.46223 0.49446 0.01123
 O818 O 0.48129 0.47307 -0.00900
 Zr819 Zr 0.50709 0.51272 0.03807
 O820 O 0.52790 0.49174 0.01914
 Zr821 Zr 0.48927 0.53883 -0.00725
 O822 O 0.50953 0.51926 -0.02821
 Zr823 Zr 0.51024 0.46377 0.00808
 O824 O 0.49020 0.48341 0.02939
 Zr825 Zr 0.49257 0.49013 -0.03720
 O826 O 0.47140 0.51096 -0.01827
 Zr827 Zr 0.53743 0.50805 -0.01030
 O828 O 0.51853 0.53003 0.00988
 O829 O 0.47861 0.52314 0.02160
 O830 O 0.52116 0.47941 -0.02085
 C831 C 0.43802 0.53889 0.00139
 C832 C 0.46223 0.50296 0.06241
 C833 C 0.49899 0.56381 0.03725
 C834 C 0.56054 0.46221 -0.00266
 C835 C 0.50280 0.43944 -0.03719
 C836 C 0.53817 0.49563 -0.06091
 H837 H 0.47224 0.45996 -0.01300
 H838 H 0.51389 0.52796 -0.04144
 H839 H 0.46919 0.53278 0.03112
 H840 H 0.54086 0.48731 0.02829
 H841 H 0.51389 0.45181 0.04926
 H842 H 0.52536 0.48405 0.06418
 H843 H 0.48966 0.51990 -0.06829
 H844 H 0.46914 0.54440 -0.04480
 H845 H 0.49724 0.42410 0.01917
 H846 H 0.43331 0.46687 0.02852
 H847 H 0.54648 0.54356 -0.03280
 H848 H 0.52170 0.56620 -0.01225
 H849 H 0.42157 0.48508 -0.00174
 H850 H 0.45689 0.46755 -0.04617
 H851 H 0.54376 0.53435 0.04384
 H852 H 0.56763 0.51237 0.02043
 O853 O -0.06249 0.01950 0.50936
 O854 O -0.06388 -0.01606 0.49020
 O855 O -0.01675 0.01057 0.56264
 O856 O 0.01809 -0.00131 0.56743
 O857 O -0.00840 0.06496 0.51641
 O858 O 0.00658 0.06704 0.47939
 O859 O 0.04348 -0.04670 0.50230
 O860 O 0.02504 -0.05006 0.53622
 O861 O -0.00326 -0.04246 0.45198
 O862 O -0.03805 -0.01832 0.44692
 O863 O 0.04775 0.00437 0.45522
 O864 O 0.05463 0.03775 0.47772
 O865 O 0.06176 -0.01567 0.49097
 O866 O 0.06524 0.02280 0.50532
 O867 O 0.01710 -0.00942 0.43777
 O868 O -0.01986 0.00648 0.43325
 O869 O 0.00905 -0.06023 0.48309
 O870 O -0.00990 -0.06090 0.51969
 O871 O -0.04457 0.04911 0.49424
 O872 O -0.02163 0.05571 0.46280
 O873 O 0.00526 0.04720 0.54694
 O874 O 0.03792 0.02370 0.55222
 O875 O -0.04749 -0.00234 0.54451
 O876 O -0.05099 -0.03539 0.52256
 Zr877 Zr -0.03747 -0.00497 0.51105
 O878 O -0.01839 -0.02632 0.49076
 Zr879 Zr 0.00753 0.01371 0.53739
 O880 O 0.02837 -0.00703 0.51824
 Zr881 Zr -0.01098 0.03957 0.49220
 O882 O 0.00912 0.02007 0.47099
 Zr883 Zr 0.01088 -0.03523 0.50753
 O884 O -0.00920 -0.01573 0.52894
 Zr885 Zr -0.00766 -0.00928 0.46234
 O886 O -0.02873 0.01152 0.48142
 Zr887 Zr 0.03734 0.00924 0.48858
 O888 O 0.01852 0.03104 0.50902
 O889 O -0.02123 0.02387 0.52121
 O890 O 0.02124 -0.01962 0.47838
 C891 C -0.06213 0.03920 0.50123
 C892 C -0.03693 0.00343 0.56224
 C893 C -0.00088 0.06473 0.53652
 C894 C 0.06109 -0.03629 0.49623
 C895 C 0.00326 -0.05986 0.46246
 C896 C 0.03755 -0.00345 0.43802
 H897 H -0.02733 -0.03954 0.48692
 H898 H 0.01320 0.02876 0.45766
 H899 H -0.03063 0.03345 0.53081
 H900 H 0.04149 -0.01128 0.52723
 H901 H 0.01474 -0.04699 0.54875
 H902 H 0.02668 -0.01467 0.56323
 H903 H -0.01130 0.02030 0.43115
 H904 H -0.03114 0.04499 0.45467
 H905 H -0.00153 -0.07506 0.51872
 H906 H -0.06618 -0.03272 0.52845
 H907 H 0.04579 0.04463 0.46565
 H908 H 0.02120 0.06721 0.48701
 H909 H -0.07816 -0.01451 0.49831
 H910 H -0.04317 -0.03228 0.45380
 H911 H 0.04427 0.03536 0.54256
 H912 H 0.06792 0.01388 0.51888
 O913 O 0.68656 0.24159 0.26518
 O914 O 0.68565 0.25992 0.22920
 O915 O 0.73240 0.18820 0.25633
 O916 O 0.76737 0.18353 0.24420
 O917 O 0.74062 0.23371 0.31168
 O918 O 0.75537 0.27050 0.31445
 O919 O 0.79417 0.24557 0.20081
 O920 O 0.77335 0.21375 0.19588
 O921 O 0.74593 0.29781 0.20419
 O922 O 0.71064 0.30194 0.22944
 O923 O 0.79705 0.29456 0.25191
 O924 O 0.80336 0.27204 0.28587
 O925 O 0.81106 0.26061 0.23137
 O926 O 0.81479 0.24503 0.26975
 O927 O 0.76600 0.31264 0.24004
 O928 O 0.73000 0.31738 0.25240
 O929 O 0.76232 0.26815 0.18729
 O930 O 0.74054 0.23283 0.18406
 O931 O 0.70447 0.25539 0.29578
 O932 O 0.72719 0.28689 0.30302
 O933 O 0.75403 0.20335 0.29348
 O934 O 0.78684 0.19811 0.27050
 O935 O 0.70164 0.20638 0.24366
 O936 O 0.69918 0.22786 0.20989
 Zr937 Zr 0.71198 0.23947 0.24091
 O938 O 0.73146 0.25956 0.21988
 Zr939 Zr 0.75676 0.21311 0.25999
 O940 O 0.77799 0.23214 0.23977
 Zr941 Zr 0.73806 0.25783 0.28643
 O942 O 0.75826 0.27893 0.26733
 Zr943 Zr 0.76091 0.24289 0.21125
 O944 O 0.74035 0.22170 0.23024
 Zr945 Zr 0.74179 0.28770 0.23765
 O946 O 0.72054 0.26876 0.25815
 Zr947 Zr 0.78665 0.26157 0.25653
 O948 O 0.76762 0.24116 0.27795
 O949 O 0.72793 0.22920 0.27004
 O950 O 0.77089 0.27187 0.22743
 C951 C 0.68688 0.24906 0.28535
 C952 C 0.71213 0.18873 0.24938
 C953 C 0.74787 0.21366 0.31121
 C954 C 0.81116 0.25358 0.21108
 C955 C 0.75497 0.28813 0.18732
 C956 C 0.78658 0.31207 0.24572
 H957 H 0.72279 0.26351 0.20641
 H958 H 0.76211 0.29212 0.27638
 H959 H 0.71841 0.21971 0.27948
 H960 H 0.79116 0.22320 0.23568
 H961 H 0.76236 0.20190 0.19880
 H962 H 0.77640 0.18789 0.23116
 H963 H 0.73479 0.31728 0.26820
 H964 H 0.71671 0.29440 0.29275
 H965 H 0.74939 0.23427 0.17019
 H966 H 0.68404 0.22179 0.21220
 H967 H 0.79492 0.28462 0.29228
 H968 H 0.77005 0.26304 0.31463
 H969 H 0.67141 0.25174 0.23040
 H970 H 0.70646 0.29662 0.21436
 H971 H 0.79351 0.20813 0.28180
 H972 H 0.81775 0.23188 0.26028
 O973 O 0.75324 0.69939 0.70647
 O974 O 0.78843 0.69763 0.72732
 O975 O 0.70265 0.70613 0.75398
 O976 O 0.69559 0.72709 0.78445
 O977 O 0.70752 0.75187 0.70062
 O978 O 0.73000 0.78480 0.69519
 O979 O 0.76122 0.76720 0.81209
 O980 O 0.74330 0.73380 0.81599
 O981 O 0.81379 0.75793 0.76751
 O982 O 0.81509 0.73702 0.73160
 O983 O 0.77076 0.81046 0.75755
 O984 O 0.73341 0.81511 0.74252
 O985 O 0.74887 0.79738 0.79295
 O986 O 0.71619 0.80470 0.76880
 O987 O 0.80099 0.79151 0.74472
 O988 O 0.80542 0.77139 0.71339
 O989 O 0.79515 0.74592 0.79821
 O990 O 0.77298 0.71168 0.80089
 O991 O 0.74454 0.73072 0.68718
 O992 O 0.75694 0.76856 0.68315
 O993 O 0.68882 0.74265 0.73223
 O994 O 0.68712 0.75880 0.76944
 O995 O 0.73346 0.68688 0.74302
 O996 O 0.76965 0.68522 0.76011
 Zr997 Zr 0.75808 0.71128 0.73930
 O998 O 0.77934 0.73051 0.75946
 Zr999 Zr 0.71358 0.73926 0.75677
 O1000 O 0.73324 0.75940 0.77768
 Zr1001 Zr 0.74069 0.75566 0.71155
 O1002 O 0.76155 0.77641 0.73052
 Zr1003 Zr 0.76208 0.74235 0.78741
 O1004 O 0.74113 0.72122 0.76855
 Zr1005 Zr 0.78937 0.75882 0.74214
 O1006 O 0.76983 0.73855 0.72074
 Zr1007 Zr 0.74507 0.78675 0.75963
 O1008 O 0.72308 0.76795 0.73931
 O1009 O 0.72970 0.72785 0.72840
 O1010 O 0.77348 0.77045 0.77082
 C1011 C 0.74886 0.70988 0.68833
 C1012 C 0.71293 0.68807 0.74887
 C1013 C 0.68961 0.74739 0.71138
 C1014 C 0.75503 0.78757 0.81095
 C1015 C 0.81296 0.75181 0.78805
 C1016 C 0.79109 0.80939 0.75093
 H1017 H 0.79229 0.72136 0.76389
 H1018 H 0.76615 0.78901 0.72110
 H1019 H 0.72001 0.71831 0.71908
 H1020 H 0.72437 0.76394 0.79082
 H1021 H 0.73495 0.72019 0.81208
 H1022 H 0.70261 0.73328 0.79804
 H1023 H 0.80285 0.76056 0.70122
 H1024 H 0.77130 0.76067 0.68184
 H1025 H 0.77873 0.71447 0.81618
 H1026 H 0.76816 0.67092 0.75201
 H1027 H 0.74100 0.81556 0.72788
 H1028 H 0.71869 0.79180 0.70496
 H1029 H 0.78556 0.68265 0.72108
 H1030 H 0.82941 0.74507 0.73276
 H1031 H 0.68664 0.77252 0.76044
 H1032 H 0.70936 0.79706 0.78167
 O1033 O 0.29943 0.20777 0.74496
 O1034 O 0.30086 0.22879 0.71038
 O1035 O 0.29807 0.25697 0.79600
 O1036 O 0.27747 0.28703 0.80479
 O1037 O 0.24793 0.20498 0.79511
 O1038 O 0.21505 0.19916 0.77294
 O1039 O 0.23475 0.31468 0.74095
 O1040 O 0.26939 0.31765 0.75717
 O1041 O 0.24091 0.26938 0.68778
 O1042 O 0.25787 0.22932 0.68662
 O1043 O 0.18899 0.26154 0.73398
 O1044 O 0.18732 0.24649 0.77288
 O1045 O 0.20458 0.29659 0.75483
 O1046 O 0.19765 0.27435 0.78732
 O1047 O 0.20629 0.24810 0.70300
 O1048 O 0.22717 0.21758 0.69400
 O1049 O 0.25362 0.30005 0.70592
 O1050 O 0.28924 0.30214 0.72605
 O1051 O 0.26849 0.18988 0.75744
 O1052 O 0.23102 0.18685 0.74490
 O1053 O 0.26274 0.23530 0.81227
 O1054 O 0.24619 0.27228 0.81506
 O1055 O 0.31446 0.24184 0.76520
 O1056 O 0.31493 0.26115 0.72942
 Zr1057 Zr 0.28877 0.24084 0.74147
 O1058 O 0.26908 0.26126 0.72094
 Zr1059 Zr 0.26403 0.25958 0.78735
 O1060 O 0.24316 0.28053 0.76864
 Zr1061 Zr 0.24428 0.21486 0.76150
 O1062 O 0.22290 0.23391 0.74142
 Zr1063 Zr 0.25889 0.28947 0.73880
 O1064 O 0.28085 0.27041 0.75870
 Zr1065 Zr 0.23962 0.24470 0.71265
 O1066 O 0.26018 0.22321 0.73144
 Zr1067 Zr 0.21449 0.26334 0.75830
 O1068 O 0.23407 0.24308 0.77956
 O1069 O 0.27336 0.23081 0.77082
 O1070 O 0.22960 0.27369 0.72884
 C1071 C 0.28887 0.19025 0.75092
 C1072 C 0.31499 0.24914 0.78537
 C1073 C 0.25550 0.21530 0.81235
 C1074 C 0.21460 0.31414 0.74813
 C1075 C 0.24710 0.28977 0.68831
 C1076 C 0.18896 0.25465 0.71362
 H1077 H 0.27778 0.26536 0.70758
 H1078 H 0.20968 0.22491 0.73764
 H1079 H 0.28303 0.22125 0.78009
 H1080 H 0.23948 0.29377 0.77769
 H1081 H 0.28337 0.31341 0.76480
 H1082 H 0.27107 0.30055 0.79807
 H1083 H 0.21917 0.20790 0.70459
 H1084 H 0.23794 0.18642 0.72991
 H1085 H 0.28647 0.31737 0.72051
 H1086 H 0.32913 0.25282 0.73037
 H1087 H 0.18398 0.23340 0.76346
 H1088 H 0.20823 0.20932 0.78401
 H1089 H 0.31602 0.22268 0.71257
 H1090 H 0.26856 0.24030 0.68076
 H1091 H 0.23255 0.26323 0.81650
 H1092 H 0.20752 0.28496 0.79513
 O1093 O 0.20499 0.74514 0.29851
 O1094 O 0.22668 0.71250 0.30377
 O1095 O 0.25221 0.79730 0.29388
 O1096 O 0.28317 0.80439 0.27403
 O1097 O 0.20066 0.79180 0.24548
 O1098 O 0.19550 0.76895 0.21301
 O1099 O 0.31237 0.73930 0.23392
 O1100 O 0.31506 0.75662 0.26803
 O1101 O 0.26749 0.68637 0.24142
 O1102 O 0.23288 0.68212 0.25722
 O1103 O 0.25927 0.73010 0.18806
 O1104 O 0.24460 0.76703 0.18348
 O1105 O 0.29408 0.75166 0.20303
 O1106 O 0.26989 0.78444 0.19562
 O1107 O 0.24585 0.70005 0.20642
 O1108 O 0.21265 0.69438 0.23065
 O1109 O 0.29788 0.70490 0.25425
 O1110 O 0.29989 0.72651 0.28901
 O1111 O 0.18711 0.75710 0.26720
 O1112 O 0.18444 0.74050 0.23032
 O1113 O 0.23156 0.81076 0.25630
 O1114 O 0.26944 0.81261 0.24161
 O1115 O 0.24069 0.76663 0.31270
 O1116 O 0.26004 0.73034 0.31379
 Zr1117 Zr 0.23844 0.74174 0.28811
 O1118 O 0.25877 0.72056 0.26894
 Zr1119 Zr 0.25617 0.78626 0.26063
 O1120 O 0.27769 0.76676 0.24096
 Zr1121 Zr 0.21185 0.75884 0.24255
 O1122 O 0.23133 0.73854 0.22167
 Zr1123 Zr 0.28699 0.73786 0.25805
 O1124 O 0.26767 0.75880 0.27898
 Zr1125 Zr 0.24249 0.71082 0.23962
 O1126 O 0.22086 0.72993 0.25999
 Zr1127 Zr 0.26059 0.75519 0.21262
 O1128 O 0.23957 0.77673 0.23113
 O1129 O 0.22785 0.76991 0.27117
 O1130 O 0.27136 0.72668 0.22896
 C1131 C 0.18748 0.75141 0.28784
 C1132 C 0.24642 0.78711 0.31180
 C1133 C 0.21099 0.80974 0.25057
 C1134 C 0.31180 0.74570 0.21345
 C1135 C 0.28784 0.68716 0.24799
 C1136 C 0.25246 0.70993 0.18871
 H1137 H 0.26287 0.70752 0.27806
 H1138 H 0.22235 0.73430 0.20851
 H1139 H 0.21825 0.77959 0.28043
 H1140 H 0.29086 0.77569 0.23700
 H1141 H 0.31072 0.76474 0.28176
 H1142 H 0.29693 0.79711 0.26874
 H1143 H 0.20637 0.70195 0.21744
 H1144 H 0.18370 0.72676 0.23927
 H1145 H 0.31524 0.72100 0.28648
 H1146 H 0.25329 0.73348 0.32857
 H1147 H 0.22994 0.75970 0.18247
 H1148 H 0.20545 0.77975 0.20566
 H1149 H 0.22149 0.71623 0.31905
 H1150 H 0.22507 0.68737 0.27077
 H1151 H 0.26066 0.81338 0.22764
 H1152 H 0.28289 0.79084 0.20347
 O1153 O 0.23167 0.68718 0.75824
 O1154 O 0.26759 0.68571 0.74015
 O1155 O 0.24010 0.73300 0.81191
 O1156 O 0.25199 0.76785 0.81670
 O1157 O 0.18554 0.74122 0.76529
 O1158 O 0.18355 0.75584 0.72806
 O1159 O 0.29693 0.79332 0.75288
 O1160 O 0.30059 0.77399 0.78644
 O1161 O 0.29385 0.74487 0.70216
 O1162 O 0.26847 0.71089 0.69687
 O1163 O 0.24596 0.79675 0.70443
 O1164 O 0.21225 0.80352 0.72687
 O1165 O 0.26598 0.81121 0.74029
 O1166 O 0.22750 0.81473 0.75417
 O1167 O 0.26055 0.76630 0.68731
 O1168 O 0.24516 0.73009 0.68207
 O1169 O 0.31039 0.76095 0.73231
 O1170 O 0.31245 0.74029 0.76836
 O1171 O 0.20158 0.70503 0.74361
 O1172 O 0.19512 0.72750 0.71179
 O1173 O 0.20336 0.75447 0.79610
 O1174 O 0.22637 0.78731 0.80145
 O1175 O 0.25267 0.70215 0.79378
 O1176 O 0.28660 0.69933 0.77259
 Zr1177 Zr 0.25597 0.71225 0.76049
 O1178 O 0.27738 0.73128 0.74043
 Zr1179 Zr 0.23685 0.75712 0.78665
 O1180 O 0.25745 0.77798 0.76765
 Zr1181 Zr 0.21111 0.73846 0.74128
 O1182 O 0.23065 0.75837 0.72021
 Zr1183 Zr 0.28588 0.76065 0.75719
 O1184 O 0.26652 0.74053 0.77845
 Zr1185 Zr 0.26026 0.74167 0.71186
 O1186 O 0.23939 0.72076 0.73074
 Zr1187 Zr 0.24117 0.78668 0.73782
 O1188 O 0.21943 0.76794 0.75816
 O1189 O 0.22691 0.72840 0.77038
 O1190 O 0.27024 0.77069 0.72788
 C1191 C 0.21174 0.68753 0.75037
 C1192 C 0.24688 0.71274 0.81149
 C1193 C 0.18578 0.74843 0.78553
 C1194 C 0.28653 0.81072 0.74626
 C1195 C 0.31063 0.75360 0.71217
 C1196 C 0.25409 0.78657 0.68738
 H1197 H 0.29078 0.72246 0.73673
 H1198 H 0.22195 0.76232 0.70678
 H1199 H 0.21731 0.71902 0.77986
 H1200 H 0.26155 0.79112 0.77669
 H1201 H 0.29768 0.76327 0.79857
 H1202 H 0.26522 0.77658 0.81250
 H1203 H 0.23049 0.73741 0.68073
 H1204 H 0.20592 0.71784 0.70392
 H1205 H 0.32638 0.74900 0.76725
 H1206 H 0.28411 0.68429 0.77874
 H1207 H 0.20572 0.79483 0.71445
 H1208 H 0.18313 0.77038 0.73577
 H1209 H 0.26627 0.67162 0.74850
 H1210 H 0.28244 0.70559 0.70379
 H1211 H 0.21472 0.79358 0.79161
 H1212 H 0.23604 0.81717 0.76809
 O1213 O 0.25345 0.19897 0.20759
 O1214 O 0.28827 0.19751 0.22879
 O1215 O 0.20223 0.20618 0.25445
 O1216 O 0.19483 0.22736 0.28462
 O1217 O 0.20735 0.25141 0.20070
 O1218 O 0.22971 0.28396 0.19470
 O1219 O 0.26037 0.26797 0.31232
 O1220 O 0.24249 0.23461 0.31656
 O1221 O 0.31308 0.25859 0.26817
 O1222 O 0.31473 0.23731 0.23248
 O1223 O 0.26989 0.31070 0.25762
 O1224 O 0.23294 0.31532 0.24238
 O1225 O 0.24778 0.29788 0.29290
 O1226 O 0.21502 0.30456 0.26812
 O1227 O 0.30027 0.29181 0.24507
 O1228 O 0.30491 0.27146 0.21388
 O1229 O 0.29437 0.24671 0.29888
 O1230 O 0.27230 0.21240 0.30183
 O1231 O 0.24441 0.22989 0.18779
 O1232 O 0.25721 0.26794 0.18357
 O1233 O 0.18845 0.24247 0.23228
 O1234 O 0.18651 0.25892 0.26941
 O1235 O 0.23315 0.18688 0.24393
 O1236 O 0.26918 0.18560 0.26162
 Zr1237 Zr 0.25778 0.21129 0.24026
 O1238 O 0.27886 0.23087 0.26026
 Zr1239 Zr 0.21306 0.23934 0.25702
 O1240 O 0.23250 0.25971 0.27790
 Zr1241 Zr 0.24045 0.25525 0.21178
 O1242 O 0.26098 0.27636 0.23071
 Zr1243 Zr 0.26137 0.24289 0.28796
 O1244 O 0.24057 0.22150 0.26924
 Zr1245 Zr 0.28882 0.25905 0.24266
 O1246 O 0.26956 0.23837 0.22142
 Zr1247 Zr 0.24429 0.28692 0.25963
 O1248 O 0.22260 0.26783 0.23927
 O1249 O 0.22944 0.22763 0.22891
 O1250 O 0.27270 0.27086 0.27114
 C1251 C 0.24906 0.20913 0.18927
 C1252 C 0.21256 0.18810 0.24955
 C1253 C 0.18937 0.24707 0.21139
 C1254 C 0.25402 0.28827 0.31099
 C1255 C 0.31218 0.25266 0.28875
 C1256 C 0.29027 0.30968 0.25116
 H1257 H 0.29183 0.22183 0.26486
 H1258 H 0.26558 0.28891 0.22121
 H1259 H 0.21984 0.21798 0.21960
 H1260 H 0.22352 0.26434 0.29094
 H1261 H 0.23421 0.22093 0.31278
 H1262 H 0.20190 0.23345 0.29823
 H1263 H 0.30248 0.26049 0.20179
 H1264 H 0.27118 0.25942 0.18200
 H1265 H 0.27799 0.21539 0.31710
 H1266 H 0.26773 0.17116 0.25376
 H1267 H 0.24014 0.31531 0.22754
 H1268 H 0.21870 0.29138 0.20448
 H1269 H 0.28552 0.18239 0.22288
 H1270 H 0.32899 0.24547 0.23362
 H1271 H 0.18590 0.27247 0.26017
 H1272 H 0.20847 0.29741 0.28140
 O1273 O 0.74726 0.70625 0.29500
 O1274 O 0.71267 0.70379 0.27418
 O1275 O 0.79776 0.70885 0.24513
 O1276 O 0.80482 0.72890 0.21416
 O1277 O 0.79626 0.75871 0.29705
 O1278 O 0.77328 0.79090 0.30321
 O1279 O 0.73995 0.76979 0.18717
 O1280 O 0.75690 0.73568 0.18394
 O1281 O 0.68797 0.76256 0.23346
 O1282 O 0.68811 0.74597 0.27395
 O1283 O 0.73289 0.81543 0.24055
 O1284 O 0.77154 0.81848 0.25535
 O1285 O 0.75343 0.80026 0.20521
 O1286 O 0.78612 0.80802 0.22740
 O1287 O 0.70274 0.79765 0.25466
 O1288 O 0.69490 0.77704 0.28550
 O1289 O 0.70579 0.75013 0.20234
 O1290 O 0.72693 0.71513 0.20003
 O1291 O 0.76109 0.73702 0.31236
 O1292 O 0.74573 0.77375 0.31583
 O1293 O 0.81315 0.74398 0.26641
 O1294 O 0.81490 0.76071 0.22917
 O1295 O 0.76712 0.69114 0.25857
 O1296 O 0.73073 0.68995 0.24148
 Zr1297 Zr 0.74311 0.71638 0.26150
 O1298 O 0.72186 0.73543 0.24119
 Zr1299 Zr 0.78795 0.74226 0.24214
 O1300 O 0.76838 0.76233 0.22121
 Zr1301 Zr 0.76257 0.76137 0.28742
 O1302 O 0.74166 0.78207 0.26851
 Zr1303 Zr 0.73889 0.74585 0.21258
 O1304 O 0.75962 0.72471 0.23158
 Zr1305 Zr 0.71322 0.76468 0.25801
 O1306 O 0.73285 0.74477 0.27940
 Zr1307 Zr 0.75772 0.79071 0.23867
 O1308 O 0.77979 0.77197 0.25888
 O1309 O 0.77216 0.73250 0.27116
 O1310 O 0.72856 0.77489 0.22861
 C1311 C 0.75446 0.71677 0.31231
 C1312 C 0.78735 0.69142 0.25166
 C1313 C 0.81336 0.75113 0.28663
 C1314 C 0.74665 0.79001 0.18762
 C1315 C 0.68827 0.75624 0.21292
 C1316 C 0.71275 0.81506 0.24773
 H1317 H 0.70869 0.72642 0.23723
 H1318 H 0.73772 0.79520 0.27763
 H1319 H 0.78183 0.72299 0.28048
 H1320 H 0.77705 0.76616 0.20776
 H1321 H 0.76517 0.72213 0.18820
 H1322 H 0.79821 0.73563 0.20066
 H1323 H 0.70567 0.78442 0.29555
 H1324 H 0.73155 0.76550 0.31683
 H1325 H 0.72090 0.71763 0.18481
 H1326 H 0.73217 0.67585 0.24982
 H1327 H 0.76246 0.82144 0.26880
 H1328 H 0.78392 0.79800 0.29287
 H1329 H 0.71528 0.68886 0.28053
 H1330 H 0.68227 0.73515 0.26297
 H1331 H 0.81623 0.77426 0.23845
 H1332 H 0.79381 0.79841 0.21643
 O1333 O 0.76760 0.18421 0.74194
 O1334 O 0.73175 0.18309 0.76046
 O1335 O 0.75870 0.22951 0.68831
 O1336 O 0.74661 0.26418 0.68338
 O1337 O 0.81346 0.23872 0.73468
 O1338 O 0.81552 0.25325 0.77180
 O1339 O 0.70170 0.29041 0.74721
 O1340 O 0.69793 0.27047 0.71388
 O1341 O 0.70561 0.24356 0.79858
 O1342 O 0.73077 0.20834 0.80279
 O1343 O 0.75136 0.29475 0.79512
 O1344 O 0.78606 0.30107 0.77367
 O1345 O 0.73274 0.30857 0.75910
 O1346 O 0.77148 0.31164 0.74565
 O1347 O 0.74091 0.26354 0.81352
 O1348 O 0.75377 0.22762 0.81825
 O1349 O 0.68857 0.25831 0.76812
 O1350 O 0.68649 0.23698 0.73227
 O1351 O 0.79776 0.20230 0.75613
 O1352 O 0.80420 0.22516 0.78813
 O1353 O 0.79541 0.25143 0.70386
 O1354 O 0.77198 0.28398 0.69844
 O1355 O 0.74621 0.19883 0.70647
 O1356 O 0.71257 0.19606 0.72797
 Zr1357 Zr 0.74316 0.20927 0.73982
 O1358 O 0.72175 0.22854 0.75997
 Zr1359 Zr 0.76190 0.25391 0.71343
 O1360 O 0.74120 0.27493 0.73239
 Zr1361 Zr 0.78799 0.23576 0.75868
 O1362 O 0.76844 0.25591 0.77974
 Zr1363 Zr 0.71295 0.25766 0.74312
 O1364 O 0.73237 0.23734 0.72185
 Zr1365 Zr 0.73902 0.23925 0.78842
 O1366 O 0.75990 0.21814 0.76947
 Zr1367 Zr 0.75750 0.28400 0.76212
 O1368 O 0.77935 0.26507 0.74182
 O1369 O 0.77210 0.22536 0.72970
 O1370 O 0.72865 0.26804 0.77235
 C1371 C 0.78761 0.18467 0.74958
 C1372 C 0.75192 0.20928 0.68874
 C1373 C 0.81311 0.24580 0.71445
 C1374 C 0.71214 0.30798 0.75338
 C1375 C 0.68862 0.25180 0.78848
 C1376 C 0.74553 0.28428 0.81282
 H1377 H 0.70842 0.21980 0.76387
 H1378 H 0.77721 0.25996 0.79311
 H1379 H 0.78173 0.21594 0.72017
 H1380 H 0.73701 0.28792 0.72328
 H1381 H 0.70084 0.25958 0.70180
 H1382 H 0.73317 0.27266 0.68758
 H1383 H 0.76934 0.23285 0.81838
 H1384 H 0.79406 0.21454 0.79547
 H1385 H 0.67250 0.24563 0.73339
 H1386 H 0.71514 0.18092 0.72197
 H1387 H 0.79206 0.29292 0.78665
 H1388 H 0.81518 0.26812 0.76489
 H1389 H 0.73318 0.16883 0.75228
 H1390 H 0.71578 0.20417 0.79743
 H1391 H 0.78374 0.29037 0.70809
 H1392 H 0.76287 0.31407 0.73178
 C1393 C 0.08447 1.01379 1.14546
 N1394 N 0.08869 1.03439 1.15353
 N1395 N 0.09898 1.03709 1.17305
 C1396 C 0.10512 1.01933 1.18555
 N1397 N 0.10072 0.99868 1.17743
 N1398 N 0.09075 0.99596 1.15770
 C1399 C 0.07269 1.01103 1.12415
 N1400 N 0.07655 0.99319 1.11078
 N1401 N 0.06582 0.99097 1.09138
 C1402 C 0.05058 1.00631 1.08490
 N1403 N 0.04664 1.02403 1.09837
 N1404 N 0.05764 1.02645 1.11753
 C1405 C 0.58380 0.51273 0.64617
 N1406 N 0.59686 0.49639 0.65461
 N1407 N 0.60711 0.49908 0.67421
 C1408 C 0.60488 0.51832 0.68592
 N1409 N 0.59194 0.53467 0.67735
 N1410 N 0.58148 0.53186 0.65794
 C1411 C 0.57188 0.50984 0.62493
 N1412 N 0.55356 0.52225 0.62065
 N1413 N 0.54256 0.51992 0.60149
 C1414 C 0.54963 0.50532 0.58571
 N1415 N 0.56808 0.49296 0.58987
 N1416 N 0.57893 0.49508 0.60923
 C1417 C 0.41672 -0.01465 0.64320
 N1418 N 0.40379 0.00173 0.65186
 N1419 N 0.39358 -0.00100 0.67141
 C1420 C 0.39571 -0.02031 0.68285
 N1421 N 0.40851 -0.03670 0.67406
 N1422 N 0.41895 -0.03387 0.65470
 C1423 C 0.42852 -0.01171 0.62198
 N1424 N 0.44670 -0.02424 0.61739
 N1425 N 0.45758 -0.02180 0.59823
 C1426 C 0.45052 -0.00696 0.58278
 N1427 N 0.43222 0.00552 0.58727
 N1428 N 0.42149 0.00328 0.60662
 C1429 C -0.08240 0.48646 1.14537
 N1430 N -0.08034 0.46733 1.15702
 N1431 N -0.09094 0.46468 1.17632
 C1432 C -0.10376 0.48118 1.18487
 N1433 N -0.10571 0.50041 1.17329
 N1434 N -0.09532 0.50296 1.15381
 C1435 C -0.07056 0.48913 1.12414
 N1436 N -0.07741 0.50412 1.10870
 N1437 N -0.06671 0.50604 1.08929
 C1438 C -0.04863 0.49325 1.08483
 N1439 N -0.04175 0.47841 1.10036
 N1440 N -0.05259 0.47629 1.11958
 C1441 C -0.08601 0.51626 0.35612
 N1442 N -0.09216 0.49849 0.34361
 N1443 N -0.10197 0.50130 0.32384
 C1444 C -0.10635 0.52197 0.31594
 N1445 N -0.10038 0.53969 0.32871
 N1446 N -0.09023 0.53690 0.34828
 C1447 C -0.07432 0.51336 0.37742
 N1448 N -0.05927 0.52868 0.38430
 N1449 N -0.04819 0.52598 0.40336
 C1450 C -0.05204 0.50809 0.41645
 N1451 N -0.06729 0.49287 0.40972
 N1452 N -0.07810 0.49537 0.39043
 C1453 C 0.41319 1.01442 -0.14496
 N1454 N 0.40707 0.99663 -0.15746
 N1455 N 0.39750 0.99943 -0.17736
 C1456 C 0.39336 1.02011 -0.18539
 N1457 N 0.39930 1.03782 -0.17261
 N1458 N 0.40921 1.03505 -0.15293
 C1459 C 0.42481 1.01161 -0.12362
 N1460 N 0.44010 1.02679 -0.11701
 N1461 N 0.45113 1.02426 -0.09791
 C1462 C 0.44698 1.00670 -0.08448
 N1463 N 0.43149 0.99160 -0.09092
 N1464 N 0.42071 0.99392 -0.11027
 C1465 C 0.58488 0.48439 -0.14197
 N1466 N 0.59771 0.50072 -0.15065
 N1467 N 0.60775 0.49792 -0.17032
 C1468 C 0.60553 0.47860 -0.18186
 N1469 N 0.59283 0.46226 -0.17306
 N1470 N 0.58257 0.46516 -0.15357
 C1471 C 0.57309 0.48747 -0.12072
 N1472 N 0.55486 0.47509 -0.11621
 N1473 N 0.54382 0.47783 -0.09715
 C1474 C 0.55078 0.49282 -0.08171
 N1475 N 0.56916 0.50511 -0.08607
 N1476 N 0.58005 0.50258 -0.10533
 C1477 C 0.08338 -0.01492 0.35649
 N1478 N 0.09650 0.00120 0.34786
 N1479 N 0.10646 -0.00170 0.32816
 C1480 C 0.10385 -0.02092 0.31653
 N1481 N 0.09085 -0.03706 0.32529
 N1482 N 0.08068 -0.03405 0.34480
 C1483 C 0.07180 -0.01174 0.37784
 N1484 N 0.05354 -0.02402 0.38252
 N1485 N 0.04272 -0.02122 0.40169
 C1486 C 0.04991 -0.00627 0.41707
 N1487 N 0.06832 0.00591 0.41252
 N1488 N 0.07900 0.00332 0.39316
 C1489 C 0.14434 1.08022 1.01503
 N1490 N 0.15658 1.08594 0.99693
 N1491 N 0.17645 1.09544 0.99947
 C1492 C 0.18467 1.09988 1.02020
 N1493 N 0.17218 1.09425 1.03821
 N1494 N 0.15255 1.08445 1.03569
 C1495 C 0.12291 1.06897 1.01262
 N1496 N 0.11609 1.05464 1.02859
 N1497 N 0.09675 1.04415 1.02662
 C1498 C 0.08330 1.04794 1.00882
 N1499 N 0.08998 1.06246 0.99292
 N1500 N 0.10955 1.07269 0.99471
 C1501 C 0.64270 0.58293 0.50906
 N1502 N 0.64404 0.60212 0.52087
 N1503 N 0.66361 0.61192 0.52413
 C1504 C 0.68249 0.60303 0.51546
 N1505 N 0.68109 0.58399 0.50338
 N1506 N 0.66156 0.57402 0.50039
 C1507 C 0.62141 0.57142 0.50668
 N1508 N 0.62096 0.54923 0.50295
 N1509 N 0.60167 0.53847 0.50197
 C1510 C 0.58216 0.54955 0.50437
 N1511 N 0.58258 0.57180 0.50780
 N1512 N 0.60190 0.58253 0.50910
 C1513 C 0.64130 0.41522 -0.00949
 N1514 N 0.64395 0.40059 -0.02652
 N1515 N 0.66351 0.39079 -0.02994
 C1516 C 0.68113 0.39493 -0.01628
 N1517 N 0.67826 0.40934 0.00101
 N1518 N 0.65880 0.41947 0.00420
 C1519 C 0.62016 0.42696 -0.00664
 N1520 N 0.61989 0.44819 0.00091
 N1521 N 0.60081 0.45936 0.00226
 C1522 C 0.58132 0.44958 -0.00353
 N1523 N 0.58154 0.42824 -0.01079
 N1524 N 0.60067 0.41719 -0.01253
 C1525 C 0.14255 -0.08231 0.48986
 N1526 N 0.16152 -0.07337 0.49826
 N1527 N 0.18101 -0.08347 0.49527
 C1528 C 0.18228 -0.10270 0.48348
 N1529 N 0.16328 -0.11162 0.47508
 N1530 N 0.14375 -0.10168 0.47833
 C1531 C 0.12128 -0.07066 0.49231
 N1532 N 0.10169 -0.08167 0.49029
 N1533 N 0.08241 -0.07083 0.49191
 C1534 C 0.08210 -0.04856 0.49526
 N1535 N 0.10169 -0.03758 0.49721
 N1536 N 0.12093 -0.04845 0.49591
 C1537 C 0.35773 -0.08553 0.50768
 N1538 N 0.33979 -0.08075 0.49480
 N1539 N 0.32048 -0.09101 0.49814
 C1540 C 0.31822 -0.10612 0.51478
 N1541 N 0.33629 -0.11082 0.52762
 N1542 N 0.35570 -0.10087 0.52402
 C1543 C 0.37870 -0.07360 0.50474
 N1544 N 0.39839 -0.08362 0.50937
 N1545 N 0.41741 -0.07248 0.50761
 C1546 C 0.41735 -0.05082 0.50158
 N1547 N 0.39765 -0.04077 0.49704
 N1548 N 0.37866 -0.05203 0.49841
 C1549 C -0.14309 0.41490 1.00644
 N1550 N -0.16245 0.42420 0.99948
 N1551 N -0.18173 0.41383 1.00259
 C1552 C -0.18239 0.39391 1.01304
 N1553 N -0.16299 0.38459 1.01994
 N1554 N -0.14368 0.39482 1.01655
 C1555 C -0.12204 0.42691 1.00424
 N1556 N -0.10231 0.41595 1.00506
 N1557 N -0.08319 0.42704 1.00400
 C1558 C -0.08314 0.44948 1.00244
 N1559 N -0.10287 0.46042 1.00166
 N1560 N -0.12197 0.44932 1.00240
 C1561 C -0.14311 0.58479 0.48842
 N1562 N -0.16089 0.57999 0.50142
 N1563 N -0.18009 0.59067 0.49863
 C1564 C -0.18240 0.60625 0.48244
 N1565 N -0.16449 0.61098 0.46947
 N1566 N -0.14517 0.60059 0.47252
 C1567 C -0.12228 0.57248 0.49087
 N1568 N -0.10251 0.58222 0.48617
 N1569 N -0.08361 0.57081 0.48788
 C1570 C -0.08389 0.54914 0.49390
 N1571 N -0.10366 0.53937 0.49845
 N1572 N -0.12252 0.55090 0.49714
 C1573 C 0.35721 1.08543 -0.01247
 N1574 N 0.33969 1.08022 0.00073
 N1575 N 0.32022 1.09048 -0.00179
 C1576 C 0.31734 1.10604 -0.01791
 N1577 N 0.33500 1.11118 -0.03109
 N1578 N 0.35458 1.10121 -0.02832
 C1579 C 0.37827 1.07341 -0.01037
 N1580 N 0.39786 1.08330 -0.01555
 N1581 N 0.41692 1.07207 -0.01410
 C1582 C 0.41696 1.05047 -0.00785
 N1583 N 0.39736 1.04058 -0.00282
 N1584 N 0.37837 1.05190 -0.00388
 C1585 C 0.01248 1.14361 1.08292
 N1586 N 0.02971 1.14677 1.09719
 N1587 N 0.03280 1.16637 1.10700
 C1588 C 0.01856 1.18352 1.10328
 N1589 N 0.00111 1.18015 1.08919
 N1590 N -0.00174 1.16066 1.07902
 C1591 C 0.00972 1.12229 1.07147
 N1592 N 0.00228 1.12148 1.05008
 N1593 N 0.00075 1.10216 1.03932
 C1594 C 0.00622 1.08295 1.04973
 N1595 N 0.01340 1.08373 1.07122
 N1596 N 0.01533 1.10309 1.08183
 C1597 C 0.50881 0.64383 0.58487
 N1598 N 0.52062 0.64495 0.60417
 N1599 N 0.52429 0.66441 0.61411
 C1600 C 0.51604 0.68342 0.60525
 N1601 N 0.50400 0.68224 0.58608
 N1602 N 0.50060 0.66283 0.57598
 C1603 C 0.50578 0.62259 0.57329
 N1604 N 0.50209 0.62207 0.55094
 N1605 N 0.50044 0.60281 0.54013
 C1606 C 0.50208 0.58336 0.55134
 N1607 N 0.50548 0.58386 0.57376
 N1608 N 0.50745 0.60315 0.58453
 C1609 C -0.01238 0.64255 0.41722
 N1610 N 0.00466 0.65181 0.40568
 N1611 N 0.00213 0.67151 0.39593
 C1612 C -0.01761 0.68246 0.39714
 N1613 N -0.03461 0.67308 0.40858
 N1614 N -0.03199 0.65360 0.41856
 C1615 C -0.00986 0.62122 0.42860
 N1616 N -0.02338 0.61625 0.44598
 N1617 N -0.02151 0.59695 0.45645
 C1618 C -0.00630 0.58170 0.44974
 N1619 N 0.00717 0.58654 0.43223
 N1620 N 0.00551 0.60605 0.42191
 C1621 C 0.49164 1.14204 -0.08662
 N1622 N 0.50483 1.15947 -0.08113
 N1623 N 0.50207 1.17905 -0.09099
 C1624 C 0.48573 1.18213 -0.10641
 N1625 N 0.47262 1.16455 -0.11186
 N1626 N 0.47562 1.14487 -0.10231
 C1627 C 0.49384 1.12082 -0.07497
 N1628 N 0.48827 1.10152 -0.08529
 N1629 N 0.48945 1.08235 -0.07437
 C1630 C 0.49580 1.08188 -0.05261
 N1631 N 0.50126 1.10119 -0.04227
 N1632 N 0.50047 1.12030 -0.05331
 C1633 C 0.50938 0.35850 -0.08415
 N1634 N 0.49624 0.34090 -0.07931
 N1635 N 0.49950 0.32140 -0.08934
 C1636 C 0.51633 0.31859 -0.10426
 N1637 N 0.52940 0.33633 -0.10904
 N1638 N 0.52589 0.35592 -0.09933
 C1639 C 0.50659 0.37965 -0.07236
 N1640 N 0.51178 0.39906 -0.08248
 N1641 N 0.51012 0.41821 -0.07142
 C1642 C 0.50365 0.41856 -0.04971
 N1643 N 0.49857 0.39914 -0.03956
 N1644 N 0.49984 0.38004 -0.05074
 C1645 C 0.00924 -0.14138 0.41622
 N1646 N 0.00138 -0.16027 0.42556
 N1647 N 0.00430 -0.17977 0.41547
 C1648 C 0.01545 -0.18116 0.39581
 N1649 N 0.02330 -0.16225 0.38647
 N1650 N 0.02012 -0.14269 0.39641
 C1651 C 0.00695 -0.12010 0.42795
 N1652 N 0.00837 -0.10062 0.41675
 N1653 N 0.00683 -0.08135 0.42765
 C1654 C 0.00417 -0.08092 0.45017
 N1655 N 0.00283 -0.10040 0.46134
 N1656 N 0.00405 -0.11963 0.45041
 C1657 C 0.48941 -0.14370 0.58171
 N1658 N 0.46970 -0.15449 0.58031
 N1659 N 0.46647 -0.17327 0.59139
 C1660 C 0.48292 -0.18215 0.60405
 N1661 N 0.50276 -0.17145 0.60535
 N1662 N 0.50590 -0.15244 0.59449
 C1663 C 0.49258 -0.12306 0.56930
 N1664 N 0.50765 -0.10763 0.57600
 N1665 N 0.50959 -0.08853 0.56501
 C1666 C 0.49676 -0.08439 0.54679
 N1667 N 0.48192 -0.09994 0.54003
 N1668 N 0.47977 -0.11884 0.55116
 C1669 C -0.01077 0.35624 1.08353
 N1670 N 0.00679 0.34289 1.08833
 N1671 N 0.00362 0.32342 1.09832
 C1672 C -0.01716 0.31675 1.10423
 N1673 N -0.03457 0.33040 1.09965
 N1674 N -0.03147 0.34962 1.08932
 C1675 C -0.00787 0.37701 1.07134
 N1676 N -0.02337 0.38324 1.05613
 N1677 N -0.02125 0.40220 1.04508
 C1678 C -0.00379 0.41583 1.04913
 N1679 N 0.01168 0.40973 1.06450
 N1680 N 0.00978 0.39051 1.07528
 C1681 C 0.76408 0.33403 0.10599
 N1682 N 0.74606 0.33968 0.09356
 N1683 N 0.74859 0.34940 0.07376
 C1684 C 0.76921 0.35417 0.06578
 N1685 N 0.78714 0.34867 0.07847
 N1686 N 0.78465 0.33862 0.09805
 C1687 C 0.76160 0.32247 0.12731
 N1688 N 0.77740 0.30787 0.13403
 N1689 N 0.77521 0.29698 0.15319
 C1690 C 0.75736 0.30062 0.16655
 N1691 N 0.74164 0.31542 0.15998
 N1692 N 0.74363 0.32604 0.14059
 C1693 C 0.26394 0.83178 0.60566
 N1694 N 0.28312 0.82937 0.59399
 N1695 N 0.28589 0.83964 0.57457
 C1696 C 0.26946 0.85245 0.56589
 N1697 N 0.25016 0.85472 0.57748
 N1698 N 0.24749 0.84466 0.59708
 C1699 C 0.26114 0.82029 0.62700
 N1700 N 0.24603 0.82733 0.64234
 N1701 N 0.24386 0.81681 0.66177
 C1702 C 0.25655 0.79875 0.66639
 N1703 N 0.27154 0.79170 0.65099
 N1704 N 0.27391 0.80236 0.63174
 C1705 C 0.74119 0.66360 0.60668
 N1706 N 0.72853 0.64504 0.60537
 N1707 N 0.72478 0.63529 0.58571
 C1708 C 0.73375 0.64362 0.56670
 N1709 N 0.74662 0.66204 0.56810
 N1710 N 0.75013 0.67194 0.58770
 C1711 C 0.74427 0.67516 0.62805
 N1712 N 0.74952 0.69701 0.62835
 N1713 N 0.75125 0.70794 0.64763
 C1714 C 0.74812 0.69736 0.66732
 N1715 N 0.74317 0.67540 0.66707
 N1716 N 0.74114 0.66452 0.64774
 C1717 C 0.24432 0.16045 0.10879
 N1718 N 0.23311 0.14095 0.10808
 N1719 N 0.22958 0.13065 0.08868
 C1720 C 0.23739 0.13932 0.06931
 N1721 N 0.24891 0.15864 0.07011
 N1722 N 0.25220 0.16908 0.08947
 C1723 C 0.24667 0.17274 0.12983
 N1724 N 0.25039 0.19491 0.12957
 N1725 N 0.25131 0.20644 0.14855
 C1726 C 0.24881 0.19617 0.16851
 N1727 N 0.24536 0.17394 0.16882
 N1728 N 0.24415 0.16244 0.14979
 C1729 C 0.26181 0.17112 0.89496
 N1730 N 0.28045 0.17413 0.90737
 N1731 N 0.28316 0.16348 0.92658
 C1732 C 0.26718 0.14967 0.93431
 N1733 N 0.24834 0.14685 0.92206
 N1734 N 0.24575 0.15731 0.90264
 C1735 C 0.25947 0.18261 0.87357
 N1736 N 0.24539 0.17512 0.85746
 N1737 N 0.24413 0.18536 0.83779
 C1738 C 0.25675 0.20355 0.83368
 N1739 N 0.27066 0.21106 0.84987
 N1740 N 0.27212 0.20070 0.86937
 C1741 C 0.76284 0.67149 0.39412
 N1742 N 0.74665 0.65803 0.40212
 N1743 N 0.74940 0.64751 0.42148
 C1744 C 0.76854 0.64987 0.43334
 N1745 N 0.78471 0.66328 0.42526
 N1746 N 0.78184 0.67401 0.40610
 C1747 C 0.76009 0.68325 0.37294
 N1748 N 0.77247 0.70153 0.36876
 N1749 N 0.77043 0.71222 0.34948
 C1750 C 0.75618 0.70486 0.33352
 N1751 N 0.74385 0.68648 0.33760
 N1752 N 0.74568 0.67592 0.35705
 C1753 C 0.23940 0.83426 0.39305
 N1754 N 0.22752 0.85339 0.39401
 N1755 N 0.22412 0.86360 0.41348
 C1756 C 0.23271 0.85520 0.43267
 N1757 N 0.24481 0.83620 0.43165
 N1758 N 0.24794 0.82583 0.41222
 C1759 C 0.24216 0.82233 0.37184
 N1760 N 0.24609 0.80019 0.37177
 N1761 N 0.24764 0.78905 0.35259
 C1762 C 0.24565 0.79971 0.33277
 N1763 N 0.24200 0.82193 0.33280
 N1764 N 0.24013 0.83302 0.35202
 C1765 C 0.73701 0.33109 0.89414
 N1766 N 0.72516 0.35023 0.89500
 N1767 N 0.72182 0.36057 0.91442
 C1768 C 0.73045 0.35229 0.93364
 N1769 N 0.74252 0.33327 0.93272
 N1770 N 0.74560 0.32277 0.91335
 C1771 C 0.73989 0.31918 0.87294
 N1772 N 0.74407 0.29708 0.87285
 N1773 N 0.74592 0.28602 0.85365
 C1774 C 0.74397 0.29672 0.83384
 N1775 N 0.74003 0.31889 0.83390
 N1776 N 0.73786 0.32990 0.85313
 C1777 C 0.83335 0.39296 0.24212
 N1778 N 0.82387 0.41207 0.24948
 N1779 N 0.83421 0.43140 0.24690
 C1780 C 0.85430 0.43234 0.23662
 N1781 N 0.86380 0.41320 0.22934
 N1782 N 0.85359 0.39384 0.23218
 C1783 C 0.82139 0.37189 0.24382
 N1784 N 0.83243 0.35227 0.24248
 N1785 N 0.82139 0.33316 0.24334
 C1786 C 0.79889 0.33301 0.24522
 N1787 N 0.78786 0.35262 0.24648
 N1788 N 0.79892 0.37172 0.24592
 C1789 C 0.33337 0.89146 0.74114
 N1790 N 0.32404 0.91064 0.74850
 N1791 N 0.33440 0.92992 0.74564
 C1792 C 0.35433 0.93075 0.73506
 N1793 N 0.36367 0.91154 0.72773
 N1794 N 0.35346 0.89222 0.73086
 C1795 C 0.32140 0.87043 0.74324
 N1796 N 0.33241 0.85078 0.74215
 N1797 N 0.32135 0.83171 0.74343
 C1798 C 0.29886 0.83163 0.74547
 N1799 N 0.28787 0.85127 0.74648
 N1800 N 0.29896 0.87033 0.74552
 C1801 C 0.16359 0.89023 0.25616
 N1802 N 0.16860 0.90808 0.24341
 N1803 N 0.15863 0.92752 0.24701
 C1804 C 0.14360 0.93001 0.26381
 N1805 N 0.13864 0.91201 0.27647
 N1806 N 0.14829 0.89249 0.27261
 C1807 C 0.17543 0.86918 0.25318
 N1808 N 0.16540 0.84969 0.25823
 N1809 N 0.17657 0.83065 0.25677
 C1810 C 0.19829 0.83048 0.25063
 N1811 N 0.20834 0.84997 0.24563
 N1812 N 0.19705 0.86897 0.24670
 C1813 C 0.66583 0.38931 0.75829
 N1814 N 0.64601 0.39049 0.76904
 N1815 N 0.63611 0.41000 0.77241
 C1816 C 0.64552 0.42901 0.76487
 N1817 N 0.66517 0.42776 0.75379
 N1818 N 0.67521 0.40829 0.75069
 C1819 C 0.67758 0.36808 0.75606
 N1820 N 0.69997 0.36770 0.75331
 N1821 N 0.71092 0.34852 0.75240
 C1822 C 0.69985 0.32899 0.75391
 N1823 N 0.67741 0.32934 0.75641
 N1824 N 0.66648 0.34856 0.75764
 C1825 C 0.66582 0.60729 0.74562
 N1826 N 0.67503 0.58829 0.75345
 N1827 N 0.66494 0.56888 0.75034
 C1828 C 0.64539 0.56771 0.73901
 N1829 N 0.63614 0.58675 0.73126
 N1830 N 0.64609 0.60620 0.73462
 C1831 C 0.67772 0.62842 0.74772
 N1832 N 0.66684 0.64805 0.74553
 N1833 N 0.67795 0.66714 0.74640
 C1834 C 0.70037 0.66725 0.74916
 N1835 N 0.71121 0.64762 0.75135
 N1836 N 0.70008 0.62857 0.75078
 C1837 C 0.16514 0.10758 0.24581
 N1838 N 0.17431 0.08846 0.25339
 N1839 N 0.16414 0.06912 0.25005
 C1840 C 0.14457 0.06816 0.23876
 N1841 N 0.13535 0.08732 0.23127
 N1842 N 0.14538 0.10669 0.23486
 C1843 C 0.17713 0.12862 0.24810
 N1844 N 0.16634 0.14830 0.24599
 N1845 N 0.17753 0.16733 0.24698
 C1846 C 0.19995 0.16733 0.24978
 N1847 N 0.21070 0.14765 0.25189
 N1848 N 0.19948 0.12865 0.25121
 C1849 C 0.33496 0.10887 0.75447
 N1850 N 0.35496 0.10784 0.76494
 N1851 N 0.36485 0.08837 0.76837
 C1852 C 0.35525 0.06926 0.76117
 N1853 N 0.33542 0.07036 0.75035
 N1854 N 0.32539 0.08980 0.74718
 C1855 C 0.32321 0.13006 0.75234
 N1856 N 0.30075 0.13048 0.75015
 N1857 N 0.28983 0.14969 0.74956
 C1858 C 0.30101 0.16918 0.75085
 N1859 N 0.32351 0.16878 0.75276
 N1860 N 0.33441 0.14955 0.75367
 C1861 C 0.83377 0.61024 0.25611
 N1862 N 0.85387 0.60941 0.26641
 N1863 N 0.86393 0.59003 0.26990
 C1864 C 0.85439 0.57081 0.26293
 N1865 N 0.83445 0.57170 0.25230
 N1866 N 0.82425 0.59105 0.24909
 C1867 C 0.82191 0.63136 0.25381
 N1868 N 0.79942 0.63167 0.25187
 N1869 N 0.78843 0.65084 0.25103
 C1870 C 0.79956 0.67038 0.25181
 N1871 N 0.82209 0.67007 0.25348
 N1872 N 0.83305 0.65090 0.25463
 C1873 C 0.89290 0.26120 0.16542
 N1874 N 0.90174 0.24451 0.15293
 N1875 N 0.92122 0.24717 0.14262
 C1876 C 0.93235 0.26671 0.14421
 N1877 N 0.92340 0.28333 0.15662
 N1878 N 0.90415 0.28058 0.16715
 C1879 C 0.87170 0.25861 0.17725
 N1880 N 0.86711 0.27178 0.19507
 N1881 N 0.84786 0.26998 0.20583
 C1882 C 0.83231 0.25518 0.19898
 N1883 N 0.83680 0.24204 0.18105
 N1884 N 0.85623 0.24364 0.17043
 C1885 C 0.39203 0.76294 0.66638
 N1886 N 0.40262 0.78275 0.66730
 N1887 N 0.42202 0.78557 0.65707
 C1888 C 0.43178 0.76859 0.64580
 N1889 N 0.42127 0.74867 0.64499
 N1890 N 0.40165 0.74593 0.65499
 C1891 C 0.37082 0.76012 0.67808
 N1892 N 0.35607 0.74420 0.67188
 N1893 N 0.33670 0.74215 0.68254
 C1894 C 0.33161 0.75576 0.69994
 N1895 N 0.34645 0.77153 0.70617
 N1896 N 0.36560 0.77378 0.69535
 C1897 C 0.39695 0.23938 0.83064
 N1898 N 0.40850 0.22024 0.82780
 N1899 N 0.42761 0.21690 0.83854
 C1900 C 0.43608 0.23272 0.85229
 N1901 N 0.42463 0.25199 0.85500
 N1902 N 0.40532 0.25521 0.84446
 C1903 C 0.37579 0.24265 0.81879
 N1904 N 0.36031 0.25735 0.82628
 N1905 N 0.34087 0.25955 0.81571
 C1906 C 0.33639 0.24735 0.79712
 N1907 N 0.35197 0.23285 0.78959
 N1908 N 0.37122 0.23044 0.80028
 C1909 C 0.89411 0.74096 0.33371
 N1910 N 0.90482 0.72122 0.33210
 N1911 N 0.92375 0.71774 0.34306
 C1912 C 0.93290 0.73398 0.35582
 N1913 N 0.92229 0.75384 0.35734
 N1914 N 0.90312 0.75722 0.34660
 C1915 C 0.87332 0.74444 0.32134
 N1916 N 0.85798 0.75956 0.32819
 N1917 N 0.83881 0.76187 0.31717
 C1918 C 0.83451 0.74936 0.29874
 N1919 N 0.84997 0.73444 0.29183
 N1920 N 0.86894 0.73192 0.30300
 C1921 C 0.10620 0.76168 0.33387
 N1922 N 0.09468 0.78084 0.33114
 N1923 N 0.07541 0.78407 0.34156
 C1924 C 0.06673 0.76811 0.35484
 N1925 N 0.07817 0.74884 0.35747
 N1926 N 0.09765 0.74573 0.34727
 C1927 C 0.12730 0.75840 0.32202
 N1928 N 0.14305 0.74411 0.32967
 N1929 N 0.16236 0.74180 0.31893
 C1930 C 0.16640 0.75346 0.30000
 N1931 N 0.15056 0.76757 0.29234
 N1932 N 0.13146 0.77011 0.30322
 C1933 C 0.60726 0.26274 0.83436
 N1934 N 0.59845 0.24650 0.84726
 N1935 N 0.57890 0.24947 0.85736
 C1936 C 0.56759 0.26887 0.85513
 N1937 N 0.57650 0.28509 0.84232
 N1938 N 0.59586 0.28202 0.83201
 C1939 C 0.62852 0.25960 0.82271
 N1940 N 0.63337 0.27223 0.80469
 N1941 N 0.65251 0.26959 0.79387
 C1942 C 0.66770 0.25446 0.80084
 N1943 N 0.66298 0.24190 0.81901
 N1944 N 0.64364 0.24434 0.82968
 C1945 C 0.60757 0.74100 0.66598
 N1946 N 0.58879 0.74998 0.67478
 N1947 N 0.56914 0.74672 0.66501
 C1948 C 0.56749 0.73406 0.64628
 N1949 N 0.58629 0.72506 0.63750
 N1950 N 0.60599 0.72857 0.64710
 C1951 C 0.62902 0.74378 0.67734
 N1952 N 0.64847 0.74070 0.66622
 N1953 N 0.66788 0.74242 0.67689
 C1954 C 0.66848 0.74699 0.69911
 N1955 N 0.64903 0.75006 0.71019
 N1956 N 0.62967 0.74865 0.69947
 C1957 C 0.10769 0.24124 0.16526
 N1958 N 0.08869 0.24969 0.17411
 N1959 N 0.06917 0.24636 0.16408
 C1960 C 0.06791 0.23417 0.14501
 N1961 N 0.08694 0.22575 0.13616
 N1962 N 0.10648 0.22932 0.14603
 C1963 C 0.12902 0.24396 0.17687
 N1964 N 0.14856 0.24114 0.16585
 N1965 N 0.16788 0.24266 0.17670
 C1966 C 0.16831 0.24674 0.19901
 N1967 N 0.14876 0.24955 0.21000
 N1968 N 0.12948 0.24834 0.19911
 C1969 C -0.08063 1.00748 0.85691
 N1970 N -0.07828 0.99298 0.83970
 N1971 N -0.08870 0.99649 0.82036
 C1972 C -0.10168 1.01475 0.81734
 N1973 N -0.10385 1.02927 0.83464
 N1974 N -0.09365 1.02564 0.85404
 C1975 C -0.06929 1.00380 0.87831
 N1976 N -0.07614 1.01482 0.89685
 N1977 N -0.06571 1.01204 0.91625
 C1978 C -0.04789 0.99828 0.91784
 N1979 N -0.04098 0.98723 0.89929
 N1980 N -0.05160 0.98983 0.87989
 C1981 C 0.41601 0.50757 0.35859
 N1982 N 0.42203 0.49621 0.33994
 N1983 N 0.41196 0.50009 0.32051
 C1984 C 0.39564 0.51563 0.31890
 N1985 N 0.38970 0.52704 0.33757
 N1986 N 0.39964 0.52302 0.35705
 C1987 C 0.42730 0.50360 0.37999
 N1988 N 0.41878 0.51199 0.39922
 N1989 N 0.42937 0.50915 0.41855
 C1990 C 0.44894 0.49792 0.41939
 N1991 N 0.45745 0.48943 0.40017
 N1992 N 0.44675 0.49211 0.38084
 C1993 C 0.58222 -0.00674 0.35517
 N1994 N 0.57945 0.00742 0.33785
 N1995 N 0.58966 0.00370 0.31845
 C1996 C 0.60280 -0.01448 0.31546
 N1997 N 0.60539 -0.02865 0.33287
 N1998 N 0.59542 -0.02479 0.35234
 C1999 C 0.57100 -0.00293 0.37659
 N2000 N 0.57852 -0.01315 0.39527
 N2001 N 0.56801 -0.01052 0.41464
 C2002 C 0.54945 0.00224 0.41605
 N2003 N 0.54190 0.01253 0.39737
 N2004 N 0.55259 0.01011 0.37800
 C2005 C 0.08185 0.49205 0.85687
 N2006 N 0.07570 0.50313 0.83817
 N2007 N 0.08589 0.49920 0.81881
 C2008 C 0.10245 0.48389 0.81735
 N2009 N 0.10851 0.47277 0.83607
 N2010 N 0.09845 0.47683 0.85546
 C2011 C 0.07057 0.49608 0.87823
 N2012 N 0.07919 0.48772 0.89737
 N2013 N 0.06868 0.49054 0.91671
 C2014 C 0.04910 0.50174 0.91767
 N2015 N 0.04048 0.51022 0.89853
 N2016 N 0.05110 0.50753 0.87916
 C2017 C 0.08020 0.50858 0.64340
 N2018 N 0.09667 0.52389 0.64471
 N2019 N 0.10695 0.52789 0.66402
 C2020 C 0.10126 0.51662 0.68273
 N2021 N 0.08484 0.50121 0.68136
 N2022 N 0.07442 0.49734 0.66208
 C2023 C 0.06873 0.50458 0.62213
 N2024 N 0.04940 0.49297 0.62130
 N2025 N 0.03868 0.49015 0.60198
 C2026 C 0.04707 0.49866 0.58280
 N2027 N 0.06650 0.51005 0.58365
 N2028 N 0.07709 0.51301 0.60295
 C2029 C 0.58120 1.00960 0.14139
 N2030 N 0.59751 1.02507 0.14288
 N2031 N 0.60751 1.02919 0.16231
 C2032 C 0.60170 1.01790 0.18098
 N2033 N 0.58544 1.00234 0.17943
 N2034 N 0.57530 0.99834 0.16003
 C2035 C 0.56989 1.00551 0.12003
 N2036 N 0.55072 0.99366 0.11915
 N2037 N 0.54005 0.99078 0.09981
 C2038 C 0.54832 0.99945 0.08066
 N2039 N 0.56761 1.01108 0.08155
 N2040 N 0.57817 1.01410 0.10087
 C2041 C 0.41733 0.49067 0.14420
 N2042 N 0.40117 0.47505 0.14558
 N2043 N 0.39117 0.47094 0.16496
 C2044 C 0.39682 0.48241 0.18368
 N2045 N 0.41293 0.49812 0.18224
 N2046 N 0.42307 0.50210 0.16290
 C2047 C 0.42862 0.49479 0.12289
 N2048 N 0.44791 0.50646 0.12218
 N2049 N 0.45853 0.50941 0.10288
 C2050 C 0.45010 0.50099 0.08358
 N2051 N 0.43069 0.48955 0.08430
 N2052 N 0.42019 0.48644 0.10359
 C2053 C -0.08075 -0.01031 0.64437
 N2054 N -0.09320 -0.02886 0.64702
 N2055 N -0.10310 -0.03306 0.66643
 C2056 C -0.10122 -0.01875 0.68393
 N2057 N -0.08882 -0.00011 0.68112
 N2058 N -0.07867 0.00396 0.66180
 C2059 C -0.06971 -0.00593 0.62299
 N2060 N -0.05200 0.00798 0.62180
 N2061 N -0.04160 0.01125 0.60242
 C2062 C -0.04878 0.00099 0.58352
 N2063 N -0.06663 -0.01270 0.58472
 N2064 N -0.07683 -0.01618 0.60410
 C2065 C -0.14460 0.91945 1.01136
 N2066 N -0.16133 0.92165 0.99630
 N2067 N -0.18068 0.91142 0.99945
 C2068 C -0.18422 0.89879 1.01789
 N2069 N -0.16741 0.89677 1.03296
 N2070 N -0.14797 0.90678 1.02970
 C2071 C -0.12321 0.93059 1.00803
 N2072 N -0.10496 0.92377 1.01945
 N2073 N -0.08556 0.93401 1.01684
 C2074 C -0.08372 0.95159 1.00291
 N2075 N -0.10199 0.95848 0.99149
 N2076 N -0.12137 0.94805 0.99391
 C2077 C 0.35603 0.41783 0.50966
 N2078 N 0.33769 0.42376 0.49786
 N2079 N 0.31827 0.41384 0.50150
 C2080 C 0.31638 0.39777 0.51722
 N2081 N 0.33474 0.39191 0.52906
 N2082 N 0.35421 0.40170 0.52529
 C2083 C 0.37735 0.42899 0.50599
 N2084 N 0.39631 0.42072 0.51504
 N2085 N 0.41557 0.43124 0.51245
 C2086 C 0.41658 0.45048 0.50082
 N2087 N 0.39763 0.45873 0.49168
 N2088 N 0.37838 0.44810 0.49412
 C2089 C 0.35617 0.58344 -0.00981
 N2090 N 0.33788 0.57749 0.00196
 N2091 N 0.31838 0.58730 -0.00179
 C2092 C 0.31636 0.60328 -0.01759
 N2093 N 0.33468 0.60918 -0.02938
 N2094 N 0.35423 0.59949 -0.02552
 C2095 C 0.37758 0.57236 -0.00602
 N2096 N 0.39647 0.58044 -0.01530
 N2097 N 0.41580 0.57002 -0.01249
 C2098 C 0.41695 0.55106 -0.00039
 N2099 N 0.39807 0.54301 0.00896
 N2100 N 0.37875 0.55354 0.00628
 C2101 C -0.14394 0.08367 0.48953
 N2102 N -0.16112 0.08108 0.50393
 N2103 N -0.18051 0.09113 0.50022
 C2104 C -0.18363 0.10396 0.48183
 N2105 N -0.16636 0.10639 0.46741
 N2106 N -0.14690 0.09655 0.47124
 C2107 C -0.12258 0.07255 0.49340
 N2108 N -0.10410 0.07934 0.48244
 N2109 N -0.08477 0.06896 0.48540
 C2110 C -0.08324 0.05128 0.49927
 N2111 N -0.10173 0.04446 0.51025
 N2112 N -0.12104 0.05501 0.50748
 C2113 C 0.64288 0.08214 0.50690
 N2114 N 0.64450 0.09828 0.52268
 N2115 N 0.66386 0.10822 0.52669
 C2116 C 0.68233 0.10250 0.51497
 N2117 N 0.68065 0.08643 0.49908
 N2118 N 0.66132 0.07636 0.49519
 C2119 C 0.62164 0.07080 0.50308
 N2120 N 0.62071 0.05165 0.49110
 N2121 N 0.60152 0.04086 0.48862
 C2122 C 0.58255 0.04899 0.49785
 N2123 N 0.58347 0.06828 0.50957
 N2124 N 0.60265 0.07895 0.51219
 C2125 C 0.14263 0.58252 1.00873
 N2126 N 0.14571 0.59521 1.02723
 N2127 N 0.16516 0.60506 1.03104
 C2128 C 0.18227 0.60285 1.01638
 N2129 N 0.17902 0.59025 0.99776
 N2130 N 0.15966 0.58015 0.99407
 C2131 C 0.12131 0.57131 1.00496
 N2132 N 0.11986 0.55335 0.99127
 N2133 N 0.10063 0.54262 0.98880
 C2134 C 0.08211 0.54970 0.99969
 N2135 N 0.08355 0.56783 1.01312
 N2136 N 0.10280 0.57837 1.01579
 C2137 C 0.14223 0.41721 0.48889
 N2138 N 0.16040 0.42321 0.50090
 N2139 N 0.17993 0.41337 0.49735
 C2140 C 0.18208 0.39731 0.48152
 N2141 N 0.16387 0.39138 0.46947
 N2142 N 0.14430 0.40109 0.47314
 C2143 C 0.12079 0.42827 0.49251
 N2144 N 0.10193 0.41987 0.48337
 N2145 N 0.08254 0.43022 0.48610
 C2146 C 0.08133 0.44942 0.49795
 N2147 N 0.10019 0.45781 0.50714
 N2148 N 0.11957 0.44735 0.50456
 C2149 C 0.64275 0.91736 -0.01231
 N2150 N 0.64498 0.90127 -0.02807
 N2151 N 0.66462 0.89162 -0.03161
 C2152 C 0.68273 0.89760 -0.01942
 N2153 N 0.68041 0.91363 -0.00358
 N2154 N 0.66083 0.92340 -0.00016
 C2155 C 0.62128 0.92842 -0.00882
 N2156 N 0.61999 0.94741 0.00336
 N2157 N 0.60063 0.95789 0.00586
 C2158 C 0.58181 0.94964 -0.00355
 N2159 N 0.58307 0.93053 -0.01554
 N2160 N 0.60246 0.92014 -0.01819
 C2161 C 0.01040 0.85401 0.92208
 N2162 N -0.00387 0.83685 0.92481
 N2163 N -0.00044 0.81766 0.91422
 C2164 C 0.01753 0.81475 0.90069
 N2165 N 0.03184 0.83199 0.89819
 N2166 N 0.02828 0.85124 0.90855
 C2167 C 0.00669 0.87534 0.93341
 N2168 N 0.01706 0.89381 0.92595
 N2169 N 0.01415 0.91318 0.93625
 C2170 C 0.00092 0.91481 0.95453
 N2171 N -0.00946 0.89632 0.96207
 N2172 N -0.00674 0.87694 0.95159
 C2173 C 0.50875 0.35651 0.41949
 N2174 N 0.49767 0.33793 0.42564
 N2175 N 0.50162 0.31867 0.41540
 C2176 C 0.51694 0.31717 0.39878
 N2177 N 0.52807 0.33577 0.39274
 N2178 N 0.52399 0.35507 0.40284
 C2179 C 0.50465 0.37777 0.43084
 N2180 N 0.51292 0.39682 0.42226
 N2181 N 0.50993 0.41605 0.43281
 C2182 C 0.49864 0.41699 0.45242
 N2183 N 0.49027 0.39795 0.46100
 N2184 N 0.49312 0.37870 0.45033
 C2185 C -0.01163 0.35515 0.58040
 N2186 N -0.02969 0.35236 0.59364
 N2187 N -0.03297 0.33333 0.60434
 C2188 C -0.01818 0.31635 0.60248
 N2189 N -0.00003 0.31929 0.58925
 N2190 N 0.00313 0.33823 0.57833
 C2191 C -0.00818 0.37621 0.56867
 N2192 N 0.00571 0.37754 0.55083
 N2193 N 0.00832 0.39666 0.54002
 C2194 C -0.00264 0.41518 0.54688
 N2195 N -0.01635 0.41383 0.56481
 N2196 N -0.01916 0.39470 0.57543
 C2197 C 0.48770 0.85670 0.08043
 N2198 N 0.49943 0.83830 0.07474
 N2199 N 0.49611 0.81924 0.08540
 C2200 C 0.48080 0.81777 0.10201
 N2201 N 0.46900 0.83620 0.10759
 N2202 N 0.47244 0.85531 0.09707
 C2203 C 0.49131 0.87777 0.06873
 N2204 N 0.48281 0.89693 0.07708
 N2205 N 0.48574 0.91601 0.06638
 C2206 C 0.49715 0.91666 0.04684
 N2207 N 0.50567 0.89749 0.03845
 N2208 N 0.50290 0.87841 0.04927
 C2209 C 0.51057 0.64562 0.08214
 N2210 N 0.52606 0.64740 0.09857
 N2211 N 0.52968 0.66677 0.10872
 C2212 C 0.51783 0.68507 0.10296
 N2213 N 0.50227 0.68321 0.08656
 N2214 N 0.49878 0.66390 0.07628
 C2215 C 0.50685 0.62430 0.07076
 N2216 N 0.49498 0.62324 0.05146
 N2217 N 0.49220 0.60395 0.04085
 C2218 C 0.50100 0.58500 0.04931
 N2219 N 0.51268 0.58607 0.06871
 N2220 N 0.51561 0.60536 0.07920
 C2221 C 0.01128 0.14630 0.58166
 N2222 N 0.02949 0.14915 0.59477
 N2223 N 0.03309 0.16838 0.60518
 C2224 C 0.01849 0.18550 0.60314
 N2225 N 0.00020 0.18249 0.59005
 N2226 N -0.00327 0.16335 0.57942
 C2227 C 0.00749 0.12508 0.57014
 N2228 N -0.00640 0.12371 0.55225
 N2229 N -0.00928 0.10448 0.54154
 C2230 C 0.00138 0.08589 0.54856
 N2231 N 0.01508 0.08728 0.56656
 N2232 N 0.01816 0.10652 0.57707
 C2233 C 0.49116 0.14351 0.41853
 N2234 N 0.50282 0.16182 0.42459
 N2235 N 0.49908 0.18118 0.41459
 C2236 C 0.48340 0.18303 0.39832
 N2237 N 0.47171 0.16469 0.39235
 N2238 N 0.47557 0.14530 0.40220
 C2239 C 0.49497 0.12215 0.42963
 N2240 N 0.48614 0.10331 0.42096
 N2241 N 0.48887 0.08399 0.43128
 C2242 C 0.50041 0.08277 0.45074
 N2243 N 0.50933 0.10161 0.45942
 N2244 N 0.50675 0.12094 0.44898
 C2245 C -0.00982 0.64368 0.92089
 N2246 N -0.02807 0.64654 0.90786
 N2247 N -0.03186 0.66584 0.89779
 C2248 C -0.01741 0.68301 0.90009
 N2249 N 0.00093 0.67999 0.91309
 N2250 N 0.00459 0.66078 0.92340
 C2251 C -0.00590 0.62239 0.93208
 N2252 N -0.01644 0.60386 0.92478
 N2253 N -0.01343 0.58459 0.93510
 C2254 C 0.00005 0.58311 0.95324
 N2255 N 0.01061 0.60165 0.96060
 N2256 N 0.00781 0.62092 0.95009
 C2257 C 0.25787 0.66744 0.89305
 N2258 N 0.27323 0.65099 0.89436
 N2259 N 0.27703 0.64068 0.91362
 C2260 C 0.26549 0.64631 0.93227
 N2261 N 0.25002 0.66272 0.93090
 N2262 N 0.24635 0.67317 0.91168
 C2263 C 0.25411 0.67897 0.87185
 N2264 N 0.24266 0.69839 0.87113
 N2265 N 0.24005 0.70913 0.85188
 C2266 C 0.24862 0.70069 0.83266
 N2267 N 0.25986 0.68118 0.83341
 N2268 N 0.26262 0.67056 0.85264
 C2269 C 0.75927 0.16845 0.39279
 N2270 N 0.77479 0.15215 0.39417
 N2271 N 0.77861 0.14187 0.41343
 C2272 C 0.76693 0.14738 0.43204
 N2273 N 0.75132 0.16364 0.43061
 N2274 N 0.74763 0.17406 0.41138
 C2275 C 0.75544 0.17993 0.37157
 N2276 N 0.74361 0.19912 0.37080
 N2277 N 0.74089 0.20982 0.35154
 C2278 C 0.74971 0.20157 0.33236
 N2279 N 0.76134 0.18229 0.33315
 N2280 N 0.76421 0.17170 0.35239
 C2281 C 0.24303 0.33523 0.39181
 N2282 N 0.22735 0.35140 0.39314
 N2283 N 0.22296 0.36131 0.41256
 C2284 C 0.23419 0.35553 0.43136
 N2285 N 0.24999 0.33945 0.42994
 N2286 N 0.25425 0.32941 0.41057
 C2287 C 0.24718 0.32372 0.37061
 N2288 N 0.25885 0.30443 0.37012
 N2289 N 0.26151 0.29333 0.35103
 C2290 C 0.25280 0.30125 0.33171
 N2291 N 0.24141 0.32070 0.33217
 N2292 N 0.23859 0.33170 0.35128
 C2293 C 0.74403 0.83465 0.89175
 N2294 N 0.72851 0.85099 0.89284
 N2295 N 0.72410 0.86112 0.91214
 C2296 C 0.73515 0.85541 0.93105
 N2297 N 0.75079 0.83915 0.92989
 N2298 N 0.75507 0.82887 0.91063
 C2299 C 0.74821 0.82300 0.87062
 N2300 N 0.75957 0.80351 0.87023
 N2301 N 0.76224 0.79237 0.85114
 C2302 C 0.75384 0.80046 0.83174
 N2303 N 0.74276 0.82009 0.83213
 N2304 N 0.73994 0.83112 0.85121
 C2305 C 0.75703 0.83517 0.10601
 N2306 N 0.74609 0.82898 0.08715
 N2307 N 0.75017 0.83910 0.06784
 C2308 C 0.76547 0.85561 0.06662
 N2309 N 0.77641 0.86171 0.08551
 N2310 N 0.77221 0.85174 0.10484
 C2311 C 0.75302 0.82389 0.12727
 N2312 N 0.76134 0.83247 0.14651
 N2313 N 0.75869 0.82190 0.16577
 C2314 C 0.74772 0.80227 0.16653
 N2315 N 0.73926 0.79370 0.14731
 N2316 N 0.74178 0.80439 0.12802
 C2317 C 0.25680 0.33509 0.60674
 N2318 N 0.24576 0.32887 0.58796
 N2319 N 0.24975 0.33891 0.56860
 C2320 C 0.26510 0.35536 0.56724
 N2321 N 0.27616 0.36151 0.58604
 N2322 N 0.27202 0.35162 0.60543
 C2323 C 0.25290 0.32383 0.62803
 N2324 N 0.26114 0.33250 0.64725
 N2325 N 0.25862 0.32188 0.66651
 C2326 C 0.24787 0.30213 0.66728
 N2327 N 0.23949 0.29348 0.64806
 N2328 N 0.24186 0.30421 0.62878
 C2329 C 0.74051 0.16493 0.60635
 N2330 N 0.72509 0.14862 0.60454
 N2331 N 0.72120 0.13882 0.58494
 C2332 C 0.73271 0.14486 0.56644
 N2333 N 0.74822 0.16111 0.56833
 N2334 N 0.75198 0.17104 0.58789
 C2335 C 0.74437 0.17604 0.62785
 N2336 N 0.75602 0.19528 0.62895
 N2337 N 0.75876 0.20578 0.64839
 C2338 C 0.75014 0.19726 0.66746
 N2339 N 0.73870 0.17790 0.66637
 N2340 N 0.73581 0.16752 0.64692
 C2341 C 0.24098 0.66490 0.10675
 N2342 N 0.22533 0.64878 0.10513
 N2343 N 0.22107 0.63904 0.08558
 C2344 C 0.23239 0.64496 0.06693
 N2345 N 0.24813 0.66103 0.06863
 N2346 N 0.25226 0.67090 0.08813
 C2347 C 0.24516 0.67601 0.12819
 N2348 N 0.25701 0.69514 0.12914
 N2349 N 0.25982 0.70577 0.14850
 C2350 C 0.25109 0.69750 0.16763
 N2351 N 0.23950 0.67822 0.16669
 N2352 N 0.23655 0.66770 0.14732
 C2353 C 0.16654 0.60626 0.73961
 N2354 N 0.17230 0.58802 0.75148
 N2355 N 0.16198 0.56879 0.74798
 C2356 C 0.14566 0.56702 0.73235
 N2357 N 0.13998 0.58529 0.72045
 N2358 N 0.15017 0.60456 0.72406
 C2359 C 0.17798 0.62744 0.74320
 N2360 N 0.16986 0.64628 0.73395
 N2361 N 0.18045 0.66546 0.73666
 C2362 C 0.19963 0.66650 0.74861
 N2363 N 0.20775 0.64766 0.75792
 N2364 N 0.19705 0.62848 0.75535
 C2365 C 0.66672 0.10759 0.23821
 N2366 N 0.65019 0.10603 0.22282
 N2367 N 0.63989 0.08682 0.21919
 C2368 C 0.64561 0.06846 0.23093
 N2369 N 0.66210 0.07008 0.24640
 N2370 N 0.67253 0.08925 0.24991
 C2371 C 0.67826 0.12871 0.24186
 N2372 N 0.69763 0.12955 0.25353
 N2373 N 0.70839 0.14869 0.25619
 C2374 C 0.70001 0.16770 0.24746
 N2375 N 0.68055 0.16686 0.23598
 N2376 N 0.66990 0.14772 0.23316
 C2377 C 0.83304 0.10330 0.76066
 N2378 N 0.84932 0.10175 0.77631
 N2379 N 0.85957 0.08252 0.78004
 C2380 C 0.85405 0.06410 0.76816
 N2381 N 0.83782 0.06571 0.75241
 N2382 N 0.82744 0.08491 0.74880
 C2383 C 0.82155 0.12451 0.75694
 N2384 N 0.80244 0.12546 0.74483
 N2385 N 0.79171 0.14464 0.74218
 C2386 C 0.79983 0.16361 0.75136
 N2387 N 0.81904 0.16265 0.76328
 N2388 N 0.82965 0.14347 0.76607
 C2389 C 0.33305 0.60574 0.25940
 N2390 N 0.34918 0.60408 0.27521
 N2391 N 0.35895 0.58468 0.27935
 C2392 C 0.35308 0.56619 0.26774
 N2393 N 0.33701 0.56792 0.25184
 N2394 N 0.32711 0.58728 0.24783
 C2395 C 0.32186 0.62705 0.25531
 N2396 N 0.30264 0.62796 0.24340
 N2397 N 0.29199 0.64717 0.24062
 C2398 C 0.30032 0.66621 0.24942
 N2399 N 0.31969 0.66531 0.26109
 N2400 N 0.33023 0.64610 0.26403
 C2401 C 0.33543 0.39113 0.24154
 N2402 N 0.32921 0.40934 0.25339
 N2403 N 0.33890 0.42885 0.24980
 C2404 C 0.35502 0.43097 0.23407
 N2405 N 0.36120 0.41273 0.22222
 N2406 N 0.35165 0.39317 0.22593
 C2407 C 0.32432 0.36975 0.24506
 N2408 N 0.33269 0.35086 0.23593
 N2409 N 0.32214 0.33162 0.23839
 C2410 C 0.30276 0.33057 0.24996
 N2411 N 0.29444 0.34944 0.25916
 N2412 N 0.30508 0.36865 0.25685
 C2413 C 0.83653 0.89063 0.74060
 N2414 N 0.83050 0.90892 0.75242
 N2415 N 0.84037 0.92832 0.74879
 C2416 C 0.85650 0.93028 0.73304
 N2417 N 0.86246 0.91196 0.72118
 N2418 N 0.85272 0.89250 0.72494
 C2419 C 0.82531 0.86932 0.74427
 N2420 N 0.83355 0.85035 0.73521
 N2421 N 0.82295 0.83116 0.73787
 C2422 C 0.80365 0.83024 0.74958
 N2423 N 0.79545 0.84921 0.75871
 N2424 N 0.80614 0.86837 0.75620
 C2425 C 0.66725 0.89636 0.25829
 N2426 N 0.65097 0.89796 0.27390
 N2427 N 0.64081 0.91723 0.27776
 C2428 C 0.64643 0.93561 0.26606
 N2429 N 0.66266 0.93395 0.25036
 N2430 N 0.67296 0.91471 0.24662
 C2431 C 0.67867 0.87515 0.25448
 N2432 N 0.69788 0.87414 0.24259
 N2433 N 0.70864 0.85494 0.24003
 C2434 C 0.70041 0.83605 0.24907
 N2435 N 0.68108 0.83706 0.26071
 N2436 N 0.67044 0.85625 0.26342
 C2437 C 0.16846 0.39500 0.75944
 N2438 N 0.17399 0.41345 0.74785
 N2439 N 0.16344 0.43255 0.75161
 C2440 C 0.14713 0.43398 0.76724
 N2441 N 0.14170 0.41550 0.77889
 N2442 N 0.15211 0.39637 0.77500
 C2443 C 0.18011 0.37393 0.75554
 N2444 N 0.17205 0.35489 0.76431
 N2445 N 0.18284 0.33582 0.76142
 C2446 C 0.20217 0.33506 0.74975
 N2447 N 0.21024 0.35410 0.74089
 N2448 N 0.19933 0.37319 0.74364
 C2449 C 0.10462 0.75947 0.83181
 N2450 N 0.10351 0.77461 0.84861
 N2451 N 0.08452 0.77815 0.85948
 C2452 C 0.06591 0.76656 0.85411
 N2453 N 0.06707 0.75133 0.83734
 N2454 N 0.08604 0.74791 0.82633
 C2455 C 0.12566 0.75586 0.81986
 N2456 N 0.12634 0.74428 0.80035
 N2457 N 0.14548 0.74166 0.78938
 C2458 C 0.16464 0.75034 0.79768
 N2459 N 0.16392 0.76173 0.81726
 N2460 N 0.14481 0.76450 0.82811
 C2461 C 0.60565 0.26036 0.33146
 N2462 N 0.60433 0.27579 0.34798
 N2463 N 0.58524 0.27941 0.35866
 C2464 C 0.56674 0.26761 0.35336
 N2465 N 0.56812 0.25210 0.33688
 N2466 N 0.58717 0.24860 0.32606
 C2467 C 0.62674 0.25666 0.31964
 N2468 N 0.62750 0.24477 0.30031
 N2469 N 0.64665 0.24207 0.28939
 C2470 C 0.66576 0.25097 0.29755
 N2471 N 0.66498 0.26267 0.31696
 N2472 N 0.64585 0.26552 0.32775
 C2473 C 0.60651 0.74470 0.16775
 N2474 N 0.58774 0.75562 0.17395
 N2475 N 0.56847 0.75151 0.16371
 C2476 C 0.56717 0.73618 0.14705
 N2477 N 0.58597 0.72522 0.14095
 N2478 N 0.60526 0.72946 0.15105
 C2479 C 0.62779 0.74888 0.17911
 N2480 N 0.64698 0.74091 0.17029
 N2481 N 0.66625 0.74387 0.18085
 C2482 C 0.66709 0.75481 0.20069
 N2483 N 0.64790 0.76289 0.20951
 N2484 N 0.62860 0.76009 0.19883
 C2485 C 0.10683 0.24286 0.66909
 N2486 N 0.08813 0.25398 0.67515
 N2487 N 0.06887 0.25002 0.66483
 C2488 C 0.06751 0.23464 0.64820
 N2489 N 0.08623 0.22348 0.64226
 N2490 N 0.10551 0.22756 0.65244
 C2491 C 0.12816 0.24700 0.68038
 N2492 N 0.14726 0.23877 0.67160
 N2493 N 0.16660 0.24179 0.68200
 C2494 C 0.16763 0.25306 0.70164
 N2495 N 0.14853 0.26139 0.71045
 N2496 N 0.12916 0.25851 0.69993
 C2497 C 0.89467 0.25941 0.66972
 N2498 N 0.89569 0.27459 0.65308
 N2499 N 0.91484 0.27874 0.64275
 C2500 C 0.93371 0.26775 0.64855
 N2501 N 0.93263 0.25251 0.66518
 N2502 N 0.91351 0.24849 0.67564
 C2503 C 0.87349 0.25506 0.68112
 N2504 N 0.87285 0.24342 0.70051
 N2505 N 0.85362 0.24013 0.71107
 C2506 C 0.83431 0.24816 0.70248
 N2507 N 0.83497 0.25960 0.68301
 N2508 N 0.85418 0.26303 0.67257
 C2509 C 0.39311 0.75853 0.16814
 N2510 N 0.41204 0.74786 0.17425
 N2511 N 0.43119 0.75211 0.16395
 C2512 C 0.43221 0.76734 0.14731
 N2513 N 0.41326 0.77807 0.14131
 N2514 N 0.39408 0.77369 0.15147
 C2515 C 0.37195 0.75408 0.17952
 N2516 N 0.35259 0.76180 0.17087
 N2517 N 0.33343 0.75851 0.18144
 C2518 C 0.33287 0.74746 0.20114
 N2519 N 0.35223 0.73963 0.20980
 N2520 N 0.37141 0.74277 0.19911
 C2521 C 0.39341 0.24207 0.33496
 N2522 N 0.39487 0.22676 0.35146
 N2523 N 0.41425 0.22265 0.36145
 C2524 C 0.43289 0.23380 0.35543
 N2525 N 0.43136 0.24920 0.33899
 N2526 N 0.41202 0.25318 0.32887
 C2527 C 0.37215 0.24606 0.32352
 N2528 N 0.37143 0.25729 0.30391
 N2529 N 0.35226 0.25989 0.29300
 C2530 C 0.33307 0.25158 0.30146
 N2531 N 0.33378 0.24063 0.32122
 N2532 N 0.35296 0.23787 0.33201
 C2533 C 0.89400 0.74037 0.83450
 N2534 N 0.89517 0.72518 0.85115
 N2535 N 0.91439 0.72109 0.86147
 C2536 C 0.93315 0.73214 0.85565
 N2537 N 0.93192 0.74740 0.83905
 N2538 N 0.91274 0.75135 0.82859
 C2539 C 0.87285 0.74448 0.82288
 N2540 N 0.87230 0.75570 0.80325
 N2541 N 0.85317 0.75851 0.79230
 C2542 C 0.83387 0.75043 0.80072
 N2543 N 0.83443 0.73946 0.82048
 N2544 N 0.85354 0.73649 0.83132
   
