data_POSCAR
  _audit_creation_date              2014-09-24
  _audit_creation_method            'ToBaCCo'
  _symmetry_space_group_name_H-M    'P1'
  _symmetry_Int_Tables_number       1
  _symmetry_cell_setting            triclinic
  loop_
  _symmetry_equiv_pos_as_xyz
 x,y,z
_cell_length_a 68.1313
_cell_length_b 68.1836
_cell_length_c 68.1481
_cell_angle_alpha 89.997000
_cell_angle_beta 90.004100
_cell_angle_gamma 90.010400
loop_
  _atom_site_label
  _atom_site_type_symbol
  _atom_site_fract_x
  _atom_site_fract_y
  _atom_site_fract_z
C1 C 0.35647 1.35623 0.33087
 C2 C 0.36417 1.33896 0.33923
 C3 C 0.35557 1.33031 0.35578
 C4 C 0.33889 1.33895 0.36416
 C5 C 0.33067 1.35625 0.35635
 C6 C 0.33983 1.36480 0.33982
 H7 H 0.37753 1.33255 0.33354
 H8 H 0.33269 1.33223 0.37713
 H9 H 0.33285 1.37713 0.33273
 C10 C 0.35727 0.85648 0.83180
 C11 C 0.34023 0.86464 0.84000
 C12 C 0.33154 0.85666 0.85706
 C13 C 0.34059 0.84015 0.86574
 C14 C 0.35752 0.83168 0.85757
 C15 C 0.36580 0.84002 0.84069
 H16 H 0.33409 0.87756 0.83314
 H17 H 0.33385 0.83292 0.87816
 H18 H 0.37913 0.83386 0.83461
 C19 C 0.85671 1.35664 0.83153
 C20 C 0.86482 1.33968 0.83987
 C21 C 0.85640 1.33107 0.85654
 C22 C 0.83965 1.33965 0.86494
 C23 C 0.83115 1.35680 0.85697
 C24 C 0.84008 1.36517 0.84022
 H25 H 0.87794 1.33333 0.83354
 H26 H 0.83360 1.33301 0.87801
 H27 H 0.83344 1.37764 0.83299
 C28 C 0.85709 0.85685 0.33145
 C29 C 0.84028 0.86519 0.33999
 C30 C 0.83167 0.85682 0.35673
 C31 C 0.84018 0.84000 0.36503
 C32 C 0.85697 0.83142 0.35670
 C33 C 0.86538 0.84001 0.33996
 H34 H 0.83373 0.87809 0.33343
 H35 H 0.83385 0.83370 0.37818
 H36 H 0.87795 0.83313 0.33309
 C37 C 0.64246 0.64282 0.33146
 C38 C 0.65890 0.63405 0.34055
 C39 C 0.66776 0.64247 0.35716
 C40 C 0.65989 0.65973 0.36509
 C41 C 0.64350 0.66874 0.35651
 C42 C 0.63494 0.66024 0.33979
 H43 H 0.66548 0.62100 0.33439
 H44 H 0.66697 0.66656 0.37758
 H45 H 0.62175 0.66688 0.33395
 C46 C 0.64369 0.14351 0.83164
 C47 C 0.66038 0.13510 0.84033
 C48 C 0.66883 0.14308 0.85750
 C49 C 0.65989 0.15982 0.86583
 C50 C 0.64328 0.16850 0.85723
 C51 C 0.63524 0.16017 0.84021
 H52 H 0.66611 0.12170 0.83405
 H53 H 0.66648 0.16704 0.87833
 H54 H 0.62244 0.16680 0.83350
 C55 C 1.14180 0.64236 0.83231
 C56 C 1.13374 0.65925 0.84093
 C57 C 1.14239 0.66775 0.85760
 C58 C 1.15922 0.65906 0.86573
 C59 C 1.16749 0.64217 0.85733
 C60 C 1.15864 0.63389 0.84065
 H61 H 1.12083 0.66593 0.83452
 H62 H 1.16603 0.66560 0.87852
 H63 H 1.16501 0.62093 0.83402
 C64 C 1.14426 0.14388 0.33036
 C65 C 1.16078 0.13530 0.33952
 C66 C 1.16979 0.14390 0.35610
 C67 C 1.16153 0.16125 0.36376
 C68 C 1.14496 0.16990 0.35518
 C69 C 1.13651 0.16121 0.33857
 H70 H 1.16781 0.12292 0.33257
 H71 H 1.16762 0.16800 0.37676
 H72 H 1.12323 0.16764 0.33271
 C73 C 0.64304 1.35656 0.66819
 C74 C 0.63475 1.34001 0.65921
 C75 C 0.64307 1.33201 0.64219
 C76 C 0.65976 1.34089 0.63398
 C77 C 0.66859 1.35746 0.64276
 C78 C 0.65989 1.36512 0.65995
 H79 H 0.62189 1.33321 0.66563
 H80 H 0.66623 1.33421 0.62113
 H81 H 0.66587 1.37806 0.66691
 C82 C 0.64328 0.85617 1.16857
 C83 C 0.63494 0.83950 1.15981
 C84 C 0.64334 0.83107 1.14298
 C85 C 0.66023 0.83962 1.13483
 C86 C 0.66879 0.85631 1.14338
 C87 C 0.66016 0.86452 1.16021
 H88 H 0.62167 0.83324 1.16594
 H89 H 0.66714 0.83285 1.12222
 H90 H 0.66673 0.87733 1.16694
 C91 C 1.14302 1.35656 1.16864
 C92 C 1.13403 1.34049 1.15923
 C93 C 1.14219 1.33208 1.14231
 C94 C 1.15939 1.34007 1.13433
 C95 C 1.16888 1.35617 1.14322
 C96 C 1.16043 1.36419 1.16037
 H97 H 1.12102 1.33382 1.16539
 H98 H 1.16596 1.33277 1.12186
 H99 H 1.16660 1.37746 1.16644
 C100 C 1.14240 0.85685 0.66781
 C101 C 1.13431 0.84007 0.65900
 C102 C 1.14293 0.83173 0.64224
 C103 C 1.15979 0.84047 0.63421
 C104 C 1.16811 0.85725 0.64281
 C105 C 1.15926 0.86537 0.65956
 H106 H 1.12139 0.83334 0.66536
 H107 H 1.16660 0.83406 0.62136
 H108 H 1.16567 0.87824 0.66635
 C109 C 0.35635 0.64285 0.66844
 C110 C 0.33968 0.63466 0.65948
 C111 C 0.33092 0.64346 0.64288
 C112 C 0.33966 0.66066 0.63529
 C113 C 0.35648 0.66888 0.64392
 C114 C 0.36471 0.65988 0.66049
 H115 H 0.33319 0.62180 0.66612
 H116 H 0.33372 0.66763 0.62233
 H117 H 0.37755 0.66626 0.66734
 C118 C 0.35801 0.14272 1.16781
 C119 C 0.34117 0.13447 1.15924
 C120 C 0.33275 0.14277 1.14236
 C121 C 0.34149 0.15943 1.13395
 C122 C 0.35833 0.16790 1.14230
 C123 C 0.36652 0.15940 1.15919
 H124 H 0.33416 0.12200 1.16616
 H125 H 0.33533 0.16566 1.12070
 H126 H 0.37944 0.16592 1.16578
 C127 C 0.85759 0.64245 1.16816
 C128 C 0.84043 0.63486 1.15933
 C129 C 0.83233 0.64347 1.14246
 C130 C 0.84139 0.66001 1.13426
 C131 C 0.85840 0.66795 1.14270
 C132 C 0.86649 0.65901 1.15942
 H133 H 0.83341 0.62192 1.16524
 H134 H 0.83507 0.66685 1.12139
 H135 H 0.87932 0.66564 1.16599
 C136 C 0.85657 0.14339 0.66930
 C137 C 0.84004 0.13487 0.66010
 C138 C 0.83116 0.14343 0.64343
 C139 C 0.83961 0.16066 0.63571
 C140 C 0.85617 0.16928 0.64434
 C141 C 0.86446 0.16065 0.66105
 H142 H 0.83290 0.12257 0.66709
 H143 H 0.83397 0.16706 0.62232
 H144 H 0.87743 0.16734 0.66729
 C145 C 1.35729 0.35652 0.66818
 C146 C 1.34014 0.36454 0.66014
 C147 C 1.33139 0.35617 0.64351
 C148 C 1.34002 0.33957 0.63488
 C149 C 1.35734 0.33116 0.64257
 C150 C 1.36587 0.34004 0.65926
 H151 H 1.33319 0.37693 0.66726
 H152 H 1.33358 0.33388 0.62154
 H153 H 1.37882 0.33379 0.66597
 C154 C 1.35662 0.85605 1.16869
 C155 C 1.34018 0.86452 1.15969
 C156 C 1.33226 0.85645 1.14251
 C157 C 1.34111 0.83981 1.13417
 C158 C 1.35759 0.83081 1.14296
 C159 C 1.36519 0.83930 1.16028
 H160 H 1.33309 0.87702 1.16647
 H161 H 1.33447 0.83352 1.12121
 H162 H 1.37840 0.83353 1.16692
 C163 C 0.85729 0.35683 1.16776
 C164 C 0.86583 0.34000 1.15949
 C165 C 0.85818 0.33137 1.14225
 C166 C 0.84165 0.34028 1.13344
 C167 C 0.83280 0.35696 1.14169
 C168 C 0.84079 0.36519 1.15876
 H169 H 0.87874 0.33396 1.16646
 H170 H 0.83497 0.33387 1.12056
 H171 H 0.83400 0.37803 1.16520
 C172 C 0.85762 0.85697 0.66810
 C173 C 0.86591 0.84021 0.65942
 C174 C 0.85737 0.83164 0.64273
 C175 C 0.84042 0.84012 0.63465
 C176 C 0.83190 0.85686 0.64312
 C177 C 0.84065 0.86523 0.65980
 H178 H 0.87893 0.83370 0.66580
 H179 H 0.83401 0.83386 0.62153
 H180 H 0.83382 0.87777 0.66676
 C181 C 0.64211 0.64282 0.66782
 C182 C 0.65892 0.63424 0.65953
 C183 C 0.66776 0.64234 0.64276
 C184 C 0.65951 0.65916 0.63420
 C185 C 0.64271 0.66797 0.64227
 C186 C 0.63408 0.65965 0.65904
 H187 H 0.66528 0.62134 0.66629
 H188 H 0.66632 0.66556 0.62134
 H189 H 0.62120 0.66643 0.66542
 C190 C 0.64278 1.14358 1.16806
 C191 C 0.65984 1.13532 1.16006
 C192 C 0.66885 1.14369 1.14357
 C193 C 0.66062 1.16056 1.13506
 C194 C 0.64340 1.16921 1.14271
 C195 C 0.63458 1.16030 1.15924
 H196 H 0.66625 1.12245 1.16682
 H197 H 0.66760 1.16659 1.12215
 H198 H 0.62171 1.16672 1.16592
 C199 C 0.14197 0.64305 1.16818
 C200 C 0.13423 0.66017 1.15942
 C201 C 0.14307 0.66897 1.14285
 C202 C 0.16006 0.66010 1.13504
 C203 C 0.16794 0.64299 1.14329
 C204 C 0.15878 0.63452 1.15965
 H205 H 0.12129 0.66681 1.16568
 H206 H 0.16711 0.66615 1.12218
 H207 H 0.16544 0.62166 1.16612
 C208 C 0.14257 1.14342 0.66780
 C209 C 0.13441 1.16018 0.65900
 C210 C 0.14319 1.16903 0.64243
 C211 C 0.16034 1.16030 0.63470
 C212 C 0.16852 1.14339 0.64318
 C213 C 0.15955 1.13508 0.65972
 H214 H 0.12159 1.16666 0.66574
 H215 H 0.16728 1.16628 0.62175
 H216 H 0.16592 1.12218 0.66645
 C217 C 1.35752 0.64366 0.33178
 C218 C 1.34028 0.63563 0.33964
 C219 C 1.33136 0.64398 0.35618
 C220 C 1.33991 0.66057 0.36492
 C221 C 1.35731 0.66900 0.35742
 C222 C 1.36600 0.66014 0.34081
 H223 H 1.33341 0.62324 0.33243
 H224 H 1.33333 0.66623 0.37821
 H225 H 1.37901 0.66641 0.33424
 C226 C 1.35862 1.14297 0.83271
 C227 C 1.34135 1.13496 0.84050
 C228 C 1.33241 1.14330 0.85703
 C229 C 1.34097 1.15986 0.86583
 C230 C 1.35840 1.16826 0.85838
 C231 C 1.36711 1.15941 0.84179
 H232 H 1.33446 1.12260 0.83325
 H233 H 1.33436 1.16551 0.87910
 H234 H 1.38015 1.16567 0.83525
 C235 C 0.85715 0.64371 0.83103
 C236 C 0.86533 0.66050 0.83971
 C237 C 0.85692 0.66880 0.85660
 C238 C 0.84012 0.66009 0.86476
 C239 C 0.83166 0.64334 0.85622
 C240 C 0.84038 0.63516 0.83943
 H241 H 0.87817 0.66723 0.83318
 H242 H 0.83376 0.66619 0.87799
 H243 H 0.83368 0.62255 0.83243
 C244 C 0.85778 1.14250 0.33192
 C245 C 0.84081 1.13432 0.34032
 C246 C 0.83216 1.14273 0.35701
 C247 C 0.84078 1.15944 0.36542
 C248 C 0.85774 1.16786 0.35726
 C249 C 0.86618 1.15924 0.34054
 H250 H 0.83420 1.12147 0.33370
 H251 H 0.83444 1.16575 0.37856
 H252 H 0.87889 1.16599 0.33380
 C253 C 0.64229 0.35725 0.33186
 C254 C 0.63418 0.34014 0.34034
 C255 C 0.64271 0.33104 0.35690
 C256 C 0.65972 0.33958 0.36500
 C257 C 0.66800 0.35663 0.35703
 C258 C 0.65918 0.36539 0.34063
 H259 H 0.62119 0.33378 0.33390
 H260 H 0.66616 0.33363 0.37824
 H261 H 0.66640 0.37791 0.33406
 C262 C 0.64305 0.85696 0.83188
 C263 C 0.63463 0.84011 0.84024
 C264 C 0.64292 0.83131 0.85692
 C265 C 0.65975 0.83968 0.86538
 C266 C 0.66839 0.85654 0.85725
 C267 C 0.65989 0.86512 0.84053
 H268 H 0.62140 0.83398 0.83390
 H269 H 0.66628 0.83292 0.87819
 H270 H 0.66682 0.87774 0.83382
 C271 C 0.14279 0.35712 0.83128
 C272 C 0.13495 0.33990 0.83975
 C273 C 0.14331 0.33146 0.85659
 C274 C 0.15982 0.34026 0.86512
 C275 C 0.16801 0.35731 0.85706
 C276 C 0.15933 0.36573 0.84036
 H277 H 0.12202 0.33307 0.83357
 H278 H 0.16647 0.33368 0.87798
 H279 H 0.16616 0.37860 0.83408
 C280 C 0.14333 0.85688 0.33106
 C281 C 0.13534 0.83962 0.33931
 C282 C 0.14364 0.83086 0.35601
 C283 C 0.16021 0.83944 0.36468
 C284 C 0.16855 0.85654 0.35684
 C285 C 0.15997 0.86521 0.34021
 H286 H 0.12202 0.83332 0.33342
 H287 H 0.16676 0.83266 0.37747
 H288 H 0.16721 0.87778 0.33377
 O289 O 1.07202 1.01936 1.09727
 O290 O 1.09499 1.01948 1.12007
 C291 C 1.07898 1.02612 1.11318
 C292 C 1.06854 1.04218 1.12347
 C293 C 1.07530 1.04918 1.14164
 H294 H 1.08813 1.04259 1.14830
 O295 O 0.92991 0.98093 1.09782
 O296 O 0.90720 0.98092 1.12088
 C297 C 0.92313 0.97424 1.11384
 C298 C 0.93360 0.95818 1.12408
 C299 C 0.92689 0.95124 1.14228
 H300 H 0.91449 0.95828 1.14931
 O301 O 1.01984 1.09754 1.07051
 O302 O 1.01994 1.12052 1.09328
 C303 C 1.02655 1.11354 1.07731
 C304 C 1.04251 1.12386 1.06675
 C305 C 1.04913 1.14227 1.07317
 H306 H 1.04192 1.14937 1.08543
 O307 O 0.98194 0.90260 1.07105
 O308 O 0.98209 0.87970 1.09391
 C309 C 0.97532 0.88661 1.07796
 C310 C 0.95923 0.87627 1.06763
 C311 C 0.95254 0.85797 1.07432
 H312 H 0.95979 0.85095 1.08660
 O313 O 1.09825 1.07085 1.01843
 O314 O 1.12111 1.09376 1.01830
 C315 C 1.11425 1.07779 1.02503
 C316 C 1.12465 1.06742 1.04106
 C317 C 1.14295 1.07413 1.04777
 H318 H 1.14993 1.08646 1.04057
 O319 O 0.90275 0.92898 1.01974
 O320 O 0.87990 0.90607 1.01995
 C321 C 0.88683 0.92207 1.02654
 C322 C 0.87658 0.93253 1.04261
 C323 C 0.85837 0.92585 1.04960
 H324 H 0.85155 0.91314 1.04292
 O325 O 0.98166 1.07078 1.09765
 O326 O 0.98174 1.09364 1.12054
 C327 C 0.97502 1.07768 1.11364
 C328 C 0.95898 1.06727 1.12398
 C329 C 0.95220 1.07389 1.14229
 H330 H 0.95903 1.08651 1.14912
 O331 O 1.02018 0.92967 1.09782
 O332 O 1.02031 0.90691 1.12081
 C333 C 1.02693 0.92286 1.11380
 C334 C 1.04302 0.93333 1.12401
 C335 C 1.04974 0.92689 1.14239
 H336 H 1.04236 0.91481 1.14960
 O337 O 1.09874 0.98107 1.07032
 O338 O 1.12183 0.98109 1.09300
 C339 C 1.11476 0.97438 1.07709
 C340 C 1.12495 0.95831 1.06659
 C341 C 1.14320 0.95134 1.07318
 H342 H 1.15009 0.95805 1.08584
 O343 O 0.90282 1.01915 1.07108
 O344 O 0.88003 1.01917 1.09405
 C345 C 0.88689 1.02586 1.07805
 C346 C 0.87655 1.04194 1.06772
 C347 C 0.85838 1.04885 1.07457
 H348 H 0.85144 1.04175 1.08699
 O349 O 0.92936 1.09756 1.01925
 O350 O 0.90658 1.12053 1.01939
 C351 C 0.92255 1.11352 1.02601
 C352 C 0.93311 1.12375 1.04204
 C353 C 0.92650 1.14199 1.04901
 H354 H 0.91371 1.14873 1.04241
 O355 O 1.07145 0.90263 1.01877
 O356 O 1.09427 0.87970 1.01867
 C357 C 1.07837 0.88668 1.02547
 C358 C 1.06812 0.87648 1.04169
 C359 C 1.07485 0.85824 1.04851
 H360 H 1.08700 0.85114 1.04114
 O361 O 0.92986 1.01919 1.09779
 O362 O 0.90717 1.01920 1.12087
 C363 C 0.92309 1.02589 1.11381
 C364 C 0.93357 1.04195 1.12403
 C365 C 0.92702 1.04876 1.14233
 H366 H 0.91473 1.04161 1.14944
 O367 O 1.07210 0.98110 1.09742
 O368 O 1.09506 0.98115 1.12023
 C369 C 1.07906 0.97445 1.11338
 C370 C 1.06861 0.95846 1.12377
 C371 C 1.07527 0.95167 1.14207
 H372 H 1.08804 0.95836 1.14874
 O373 O 1.02025 0.90272 1.07103
 O374 O 1.02044 0.87984 1.09390
 C375 C 1.02706 0.88680 1.07792
 C376 C 1.04312 0.87656 1.06742
 C377 C 1.05018 0.85841 1.07415
 H378 H 1.04365 0.85172 1.08700
 O379 O 0.98155 1.09749 1.07062
 O380 O 0.98164 1.12046 1.09340
 C381 C 0.97489 1.11348 1.07748
 C382 C 0.95876 1.12375 1.06712
 C383 C 0.95206 1.14206 1.07375
 H384 H 0.95946 1.14917 1.08589
 O385 O 0.90240 1.07081 1.01937
 O386 O 0.87948 1.09365 1.01951
 C387 C 0.88647 1.07770 1.02617
 C388 C 0.87631 1.06728 1.04233
 C389 C 0.85814 1.07399 1.04942
 H390 H 0.85128 1.08666 1.04272
 O391 O 1.09835 0.92948 1.01852
 O392 O 1.12127 0.90665 1.01843
 C393 C 1.11436 0.92260 1.02514
 C394 C 1.12474 0.93300 1.04118
 C395 C 1.14300 0.92627 1.04796
 H396 H 1.14998 0.91393 1.04078
 O397 O 0.98189 0.92946 1.09790
 O398 O 0.98198 0.90667 1.12087
 C399 C 0.97521 0.92257 1.11389
 C400 C 0.95907 0.93293 1.12413
 C401 C 0.95212 0.92617 1.14233
 H402 H 0.95890 0.91351 1.14914
 O403 O 1.01998 1.07071 1.09744
 O404 O 1.02007 1.09358 1.12032
 C405 C 1.02675 1.07762 1.11337
 C406 C 1.04292 1.06728 1.12359
 C407 C 1.04977 1.07395 1.14184
 H408 H 1.04246 1.08612 1.14896
 O409 O 0.90283 0.98087 1.07116
 O410 O 0.88002 0.98086 1.09412
 C411 C 0.88691 0.97415 1.07814
 C412 C 0.87663 0.95800 1.06785
 C413 C 0.85842 0.95112 1.07462
 H414 H 0.85140 0.95827 1.08696
 O415 O 1.09874 1.01932 1.07027
 O416 O 1.12184 1.01941 1.09293
 C417 C 1.11476 1.02605 1.07702
 C418 C 1.12493 1.04211 1.06647
 C419 C 1.14321 1.04905 1.07299
 H420 H 1.15013 1.04233 1.08562
 O421 O 0.92981 0.90229 1.01966
 O422 O 0.90708 0.87925 1.01987
 C423 C 0.92305 0.88630 1.02644
 C424 C 0.93367 0.87609 1.04244
 C425 C 0.92718 0.85779 1.04935
 H426 H 0.91452 0.85089 1.04267
 O427 O 1.07134 1.09769 1.01855
 O428 O 1.09407 1.12071 1.01840
 C429 C 1.07818 1.11371 1.02518
 C430 C 1.06774 1.12398 1.04125
 C431 C 1.07418 1.14240 1.04790
 H432 H 1.08669 1.14934 1.04097
 Cu433 Cu 1.08310 1.00020 1.08155
 Cu434 Cu 1.11075 1.00029 1.10884
 Cu435 Cu 0.91863 1.00004 1.08215
 Cu436 Cu 0.89132 1.00004 1.10979
 Cu437 Cu 1.00075 1.08183 1.08178
 Cu438 Cu 1.00086 1.10935 1.10918
 Cu439 Cu 1.00106 0.91839 1.08216
 Cu440 Cu 1.00122 0.89099 1.10968
 C441 C 1.05226 1.05124 1.11464
 H442 H 1.04718 1.04616 1.10046
 C443 C 1.06601 1.06506 1.15098
 C444 C 0.94982 0.94905 1.11522
 H445 H 0.95490 0.95415 1.10105
 C446 C 0.93602 0.93522 1.15150
 C447 C 1.05179 1.11493 1.05066
 H448 H 1.04692 1.10060 1.04580
 C449 C 1.06497 1.15165 1.06386
 C450 C 0.94982 0.88511 1.05156
 H451 H 0.95473 0.89935 1.04650
 C452 C 0.93651 0.84863 1.06530
 C453 C 1.11586 1.05128 1.05038
 H454 H 1.10163 1.04620 1.04546
 C455 C 1.15233 1.06506 1.06374
 C456 C 0.88548 0.94873 1.05171
 H457 H 0.89966 0.95379 1.04658
 C458 C 0.84918 0.93504 1.06561
 C459 C 0.94967 1.05118 1.11507
 H460 H 0.95463 1.04617 1.10082
 C461 C 0.93621 1.06473 1.15157
 C462 C 1.05240 0.94928 1.11494
 H463 H 1.04741 0.95419 1.10068
 C464 C 1.06591 0.93589 1.15153
 C465 C 1.11593 0.94915 1.05047
 H466 H 1.10172 0.95424 1.04549
 C467 C 1.15233 0.93531 1.06397
 C468 C 0.88529 1.05114 1.05147
 H469 H 0.89943 1.04607 1.04629
 C470 C 0.84908 1.06488 1.06555
 C471 C 0.94933 1.11483 1.05111
 H472 H 0.95429 1.10061 1.04606
 C473 C 0.93589 1.15128 1.06486
 C474 C 1.05210 0.88540 1.05111
 H475 H 1.04697 0.89956 1.04605
 C476 C 1.06605 0.84910 1.06478
 O477 O 1.07085 0.98087 0.90178
 O478 O 1.09354 0.98082 0.87870
 C479 C 1.07763 0.97413 0.88579
 C480 C 1.06713 0.95803 0.87563
 C481 C 1.07371 0.95105 0.85738
 H482 H 1.08636 0.95776 0.85047
 O483 O 0.92862 1.01896 0.90268
 O484 O 0.90565 1.01892 0.87987
 C485 C 0.92163 1.02566 0.88675
 C486 C 0.93199 1.04174 0.87642
 C487 C 0.92514 1.04871 0.85826
 H488 H 0.91230 1.04208 0.85165
 O489 O 0.98069 1.09742 0.92903
 O490 O 0.98053 1.12031 0.90616
 C491 C 0.97393 1.11337 0.92217
 C492 C 0.95790 1.12366 0.93264
 C493 C 0.95106 1.14191 0.92598
 H494 H 0.95816 1.14892 0.91361
 O495 O 1.01917 0.90233 0.92907
 O496 O 1.01908 0.87938 0.90627
 C497 C 1.02585 0.88636 0.92218
 C498 C 1.04199 0.87613 0.93254
 C499 C 1.04888 0.85788 0.92587
 H500 H 1.04206 0.85102 0.91326
 O501 O 1.09810 0.92936 0.98022
 O502 O 1.12103 0.90653 0.98010
 C503 C 1.11403 0.92246 0.97341
 C504 C 1.12421 0.93285 0.95726
 C505 C 1.14240 0.92614 0.95024
 H506 H 1.14913 0.91338 0.95690
 O507 O 0.90224 1.07078 0.98109
 O508 O 0.87932 1.09361 0.98117
 C509 C 0.88623 1.07765 0.97446
 C510 C 0.87585 1.06715 0.95849
 C511 C 0.85752 1.07374 0.95172
 H512 H 0.85084 1.08651 0.95840
 O513 O 1.01887 1.07057 0.90194
 O514 O 1.01871 1.09337 0.87898
 C515 C 1.02547 1.07745 0.88592
 C516 C 1.04154 1.06708 0.87556
 C517 C 1.04830 1.07381 0.85730
 H518 H 1.04111 1.08614 0.85031
 O519 O 0.98071 0.92919 0.90244
 O520 O 0.98059 0.90636 0.87951
 C521 C 0.97393 0.92231 0.88650
 C522 C 0.95779 0.93271 0.87629
 C523 C 0.95101 0.92614 0.85798
 H524 H 0.95823 0.91391 0.85086
 O525 O 1.09782 1.01927 0.92836
 O526 O 1.12063 1.01929 0.90540
 C527 C 1.11375 1.02600 0.92138
 C528 C 1.12404 1.04211 0.93173
 C529 C 1.14220 1.04909 0.92491
 H530 H 1.14895 1.04238 0.91218
 O531 O 0.90206 0.98056 0.92968
 O532 O 0.87900 0.98043 0.90698
 C533 C 0.88608 0.97377 0.92289
 C534 C 0.87595 0.95765 0.93339
 C535 C 0.85772 0.95063 0.92679
 H536 H 0.85081 0.95732 0.91414
 O537 O 1.07103 1.09755 0.98026
 O538 O 1.09380 1.12054 0.98008
 C539 C 1.07783 1.11352 0.97348
 C540 C 1.06734 1.12370 0.95740
 C541 C 1.07406 1.14186 0.95038
 H542 H 1.08647 1.14890 0.95739
 O543 O 0.92955 0.90220 0.98138
 O544 O 0.90682 0.87917 0.98155
 C545 C 0.92270 0.88619 0.97474
 C546 C 0.93304 0.87596 0.95860
 C547 C 0.92641 0.85766 0.95185
 H548 H 0.91418 0.85056 0.95911
 O549 O 0.92876 0.98069 0.90263
 O550 O 0.90582 0.98060 0.87980
 C551 C 0.92184 0.97397 0.88668
 C552 C 0.93233 0.95797 0.87635
 C553 C 0.92573 0.95117 0.85803
 H554 H 0.91307 0.95793 0.85120
 O555 O 1.07079 1.01913 0.90165
 O556 O 1.09348 1.01914 0.87856
 C557 C 1.07755 1.02581 0.88561
 C558 C 1.06700 1.04183 0.87538
 C559 C 1.07357 1.04878 0.85712
 H560 H 1.08624 1.04209 0.85023
 O561 O 0.98089 0.90228 0.92927
 O562 O 0.98076 0.87934 0.90647
 C563 C 0.97417 0.88629 0.92246
 C564 C 0.95820 0.87599 0.93302
 C565 C 0.95134 0.85769 0.92646
 H566 H 0.95804 0.85086 0.91377
 O567 O 1.01900 1.09746 0.92879
 O568 O 1.01887 1.12035 0.90593
 C569 C 1.02567 1.11342 0.92185
 C570 C 1.04183 1.12369 0.93216
 C571 C 1.04879 1.14185 0.92533
 H572 H 1.04201 1.14863 0.91265
 O573 O 0.90261 0.92895 0.98147
 O574 O 0.87976 0.90604 0.98163
 C575 C 0.88663 0.92199 0.97486
 C576 C 0.87624 0.93232 0.95878
 C577 C 0.85801 0.92552 0.95199
 H578 H 0.85106 0.91315 0.95915
 O579 O 1.09805 1.07086 0.98013
 O580 O 1.12092 1.09375 0.97997
 C581 C 1.11395 1.07779 0.97331
 C582 C 1.12412 1.06743 0.95713
 C583 C 1.14229 1.07419 0.95011
 H584 H 1.14935 1.08655 0.95719
 O585 O 1.01902 0.92921 0.90222
 O586 O 1.01893 0.90637 0.87931
 C587 C 1.02566 0.92232 0.88623
 C588 C 1.04172 0.93270 0.87587
 C589 C 1.04849 0.92596 0.85762
 H590 H 1.04131 0.91362 0.85064
 O591 O 0.98056 1.07047 0.90223
 O592 O 0.98038 1.09326 0.87926
 C593 C 0.97374 1.07732 0.88629
 C594 C 0.95755 1.06691 0.87616
 C595 C 0.95061 1.07355 0.85793
 H596 H 0.95786 1.08573 0.85076
 O597 O 0.90190 1.01882 0.92971
 O598 O 0.87881 1.01874 0.90703
 C599 C 0.88585 1.02546 0.92294
 C600 C 0.87562 1.04153 0.93340
 C601 C 0.85721 1.04820 0.92697
 H602 H 0.84998 1.04079 0.91491
 O603 O 1.09788 0.98102 0.92851
 O604 O 1.12070 0.98098 0.90555
 C605 C 1.11384 0.97433 0.92157
 C606 C 1.12416 0.95829 0.93198
 C607 C 1.14244 0.95149 0.92530
 H608 H 1.14950 0.95876 0.91306
 O609 O 1.07118 0.90253 0.98048
 O610 O 1.09401 0.87961 0.98036
 C611 C 1.07801 0.88655 0.97377
 C612 C 1.06750 0.87625 0.95777
 C613 C 1.07416 0.85801 0.95091
 H614 H 1.08655 0.85100 0.95798
 O615 O 0.92913 1.09762 0.98096
 O616 O 0.90635 1.12058 0.98104
 C617 C 0.92226 1.11359 0.97427
 C618 C 0.93265 1.12381 0.95813
 C619 C 0.92600 1.14206 0.95124
 H620 H 0.91340 1.14894 0.95805
 Cu621 Cu 1.08206 1.00008 0.91737
 Cu622 Cu 1.10937 1.00005 0.88974
 Cu623 Cu 0.91764 0.99976 0.91845
 Cu624 Cu 0.89001 0.99966 0.89113
 Cu625 Cu 1.08239 1.08194 0.99937
 Cu626 Cu 1.10977 1.10949 0.99918
 Cu627 Cu 1.08248 0.91829 0.99951
 Cu628 Cu 1.10995 0.89083 0.99938
 Cu629 Cu 0.91806 1.08190 1.00015
 Cu630 Cu 0.89064 1.10940 1.00029
 Cu631 Cu 0.91846 0.91790 1.00056
 Cu632 Cu 0.89110 0.89032 1.00077
 Cu633 Cu 0.99980 1.08170 0.91779
 Cu634 Cu 0.99960 1.10911 0.89028
 Cu635 Cu 0.99996 0.91804 0.91804
 Cu636 Cu 0.99982 0.89057 0.89058
 C637 C 1.05101 0.94886 0.88466
 H638 H 1.04604 0.95396 0.89887
 C639 C 1.06450 0.93501 0.84828
 C640 C 0.94829 1.05086 0.88516
 H641 H 0.95343 1.04580 0.89933
 C642 C 0.93435 1.06461 0.84888
 C643 C 0.94872 1.11483 0.94884
 H644 H 0.95374 1.10062 0.95389
 C645 C 0.93511 1.15121 0.93515
 C646 C 1.05129 0.88509 0.94861
 H647 H 1.04625 0.89929 0.95365
 C648 C 1.06498 0.84873 0.93495
 C649 C 1.11530 0.94902 0.94811
 H650 H 1.10111 0.95405 0.95321
 C651 C 1.15167 0.93537 0.93428
 C652 C 0.88470 1.05096 0.94932
 H653 H 0.89899 1.04602 0.95423
 C654 C 0.84804 1.06434 0.93597
 C655 C 1.05086 1.05096 0.88438
 H656 H 1.04589 1.04588 0.89860
 C657 C 1.06433 1.06479 0.84798
 C658 C 0.94848 0.94876 0.88526
 H659 H 0.95347 0.95373 0.89951
 C660 C 0.93498 0.93525 0.84874
 C661 C 1.11522 1.05127 0.94796
 H662 H 1.10108 1.04615 0.95312
 C663 C 1.15143 1.06514 0.93400
 C664 C 0.88499 0.94851 0.94950
 H665 H 0.89919 0.95365 0.95449
 C666 C 0.84864 0.93456 0.93599
 C667 C 1.05110 1.11483 0.94831
 H668 H 1.04601 1.10069 0.95347
 C669 C 1.06492 1.15103 0.93433
 C670 C 0.94906 0.88490 0.94921
 H671 H 0.95408 0.89914 0.95417
 C672 C 0.93544 0.84843 0.93578
 O673 O 0.98061 0.42891 0.40211
 O674 O 0.98054 0.40603 0.37924
 C675 C 0.97382 0.42196 0.38621
 C676 C 0.95761 0.43228 0.37604
 C677 C 0.95062 0.42558 0.35783
 H678 H 0.95742 0.41297 0.35095
 O679 O 1.01823 0.57045 0.40172
 O680 O 1.01803 0.59324 0.37876
 C681 C 1.02481 0.57732 0.38569
 C682 C 1.04090 0.56698 0.37535
 C683 C 1.04757 0.57364 0.35702
 H684 H 1.04016 0.58578 0.34995
 O685 O 0.90181 0.48026 0.42945
 O686 O 0.87873 0.48012 0.40675
 C687 C 0.88581 0.47349 0.42268
 C688 C 0.87565 0.45743 0.43322
 C689 C 0.85732 0.45053 0.42675
 H690 H 0.85034 0.45730 0.41418
 O691 O 1.09741 0.51927 0.42825
 O692 O 1.12024 0.51933 0.40532
 C693 C 1.11334 0.52601 0.42130
 C694 C 1.12361 0.54212 0.43167
 C695 C 1.14176 0.54914 0.42487
 H696 H 1.14853 0.54244 0.41214
 O697 O 0.92944 0.40201 0.48110
 O698 O 0.90673 0.37896 0.48124
 C699 C 0.92262 0.38600 0.47446
 C700 C 0.93302 0.37575 0.45836
 C701 C 0.92649 0.35739 0.45167
 H702 H 0.91427 0.35027 0.45893
 O703 O 1.07043 0.59757 0.48007
 O704 O 1.09317 0.62059 0.47992
 C705 C 1.07722 0.61355 0.47329
 C706 C 1.06670 0.62372 0.45721
 C707 C 1.07339 0.64189 0.45014
 H708 H 1.08610 0.64874 0.45680
 O709 O 0.92847 0.51852 0.40236
 O710 O 0.90553 0.51840 0.37953
 C711 C 0.92151 0.52515 0.38639
 C712 C 0.93184 0.54122 0.37603
 C713 C 0.92517 0.54788 0.35771
 H714 H 0.91299 0.54050 0.35065
 O715 O 1.07040 0.48097 0.40156
 O716 O 1.09312 0.48099 0.37851
 C717 C 1.07720 0.47428 0.38555
 C718 C 1.06679 0.45814 0.37536
 C719 C 1.07347 0.45124 0.35714
 H720 H 1.08569 0.45849 0.35001
 O721 O 1.01918 0.40238 0.42889
 O722 O 1.01919 0.37939 0.40612
 C723 C 1.02595 0.38644 0.42201
 C724 C 1.04221 0.37634 0.43231
 C725 C 1.04931 0.35826 0.42545
 H726 H 1.04226 0.35123 0.41306
 O727 O 0.98011 0.59731 0.42885
 O728 O 0.97992 0.62022 0.40601
 C729 C 0.97334 0.61327 0.42201
 C730 C 0.95733 0.62352 0.43255
 C731 C 0.95044 0.64178 0.42594
 H732 H 0.95716 0.64862 0.41327
 O733 O 0.90177 0.57036 0.48095
 O734 O 0.87876 0.59311 0.48099
 C735 C 0.88574 0.57717 0.47430
 C736 C 0.87542 0.56666 0.45831
 C737 C 0.85707 0.57317 0.45153
 H738 H 0.85020 0.58579 0.45833
 O739 O 1.09787 0.42971 0.48038
 O740 O 1.12088 0.40697 0.48033
 C741 C 1.11385 0.42289 0.47363
 C742 C 1.12401 0.43326 0.45745
 C743 C 1.14226 0.42661 0.45055
 H744 H 1.14942 0.41446 0.45785
 O745 O 0.97993 0.57043 0.40199
 O746 O 0.97970 0.59324 0.37904
 C747 C 0.97309 0.57729 0.38607
 C748 C 0.95698 0.56679 0.37590
 C749 C 0.94998 0.57337 0.35767
 H750 H 0.95659 0.58612 0.35088
 O751 O 1.01891 0.42905 0.40186
 O752 O 1.01890 0.40618 0.37899
 C753 C 1.02559 0.42215 0.38588
 C754 C 1.04161 0.43260 0.37554
 C755 C 1.04862 0.42579 0.35738
 H756 H 1.04200 0.41296 0.35074
 O757 O 1.09744 0.48101 0.42827
 O758 O 1.12028 0.48101 0.40534
 C759 C 1.11340 0.47432 0.42133
 C760 C 1.12376 0.45831 0.43178
 C761 C 1.14192 0.45133 0.42497
 H762 H 1.14854 0.45790 0.41211
 O763 O 0.90175 0.51853 0.42939
 O764 O 0.87869 0.51842 0.40668
 C765 C 0.88571 0.52517 0.42258
 C766 C 0.87544 0.54123 0.43301
 C767 C 0.85708 0.54793 0.42648
 H768 H 0.84996 0.54069 0.41425
 O769 O 0.92862 0.59725 0.48082
 O770 O 0.90574 0.62013 0.48084
 C771 C 0.92169 0.61319 0.47411
 C772 C 0.93205 0.62346 0.45800
 C773 C 0.92537 0.64172 0.45120
 H774 H 0.91307 0.64877 0.45838
 O775 O 1.07116 0.40267 0.48042
 O776 O 1.09407 0.37983 0.48034
 C777 C 1.07808 0.38674 0.47368
 C778 C 1.06768 0.37645 0.45759
 C779 C 1.07458 0.35836 0.45050
 H780 H 1.08737 0.35165 0.45714
 O781 O 1.07038 0.51922 0.40153
 O782 O 1.09309 0.51930 0.37848
 C783 C 1.07716 0.52595 0.38552
 C784 C 1.06658 0.54196 0.37530
 C785 C 1.07317 0.54896 0.35706
 H786 H 1.08598 0.54240 0.35030
 O787 O 0.92859 0.48027 0.40248
 O788 O 0.90563 0.48012 0.37967
 C789 C 0.92165 0.47351 0.38656
 C790 C 0.93208 0.45747 0.37625
 C791 C 0.92532 0.45058 0.35805
 H792 H 0.91290 0.45764 0.35108
 O793 O 1.01841 0.59732 0.42859
 O794 O 1.01825 0.62022 0.40573
 C795 C 1.02506 0.61328 0.42165
 C796 C 1.04123 0.62356 0.43193
 C797 C 1.04812 0.64173 0.42509
 H798 H 1.04098 0.64870 0.41272
 O799 O 0.98089 0.40211 0.42905
 O800 O 0.98085 0.37911 0.40630
 C801 C 0.97422 0.38608 0.42227
 C802 C 0.95827 0.37576 0.43286
 C803 C 0.95151 0.35741 0.42637
 H804 H 0.95828 0.35054 0.41374
 O805 O 1.09746 0.57086 0.47999
 O806 O 1.12029 0.59378 0.47985
 C807 C 1.11337 0.57780 0.47320
 C808 C 1.12360 0.56746 0.45705
 C809 C 1.14175 0.57426 0.45005
 H810 H 1.14877 0.58664 0.45712
 O811 O 0.90237 0.42869 0.48121
 O812 O 0.87954 0.40575 0.48135
 C813 C 0.88639 0.42173 0.47461
 C814 C 0.87596 0.43208 0.45859
 C815 C 0.85764 0.42539 0.45191
 H816 H 0.85066 0.41306 0.45912
 Cu817 Cu 0.99989 0.41791 0.41775
 Cu818 Cu 0.99986 0.39037 0.39037
 Cu819 Cu 0.99919 0.58159 0.41758
 Cu820 Cu 0.99896 0.60903 0.39009
 Cu821 Cu 0.91745 0.49941 0.41820
 Cu822 Cu 0.88983 0.49926 0.39087
 Cu823 Cu 1.08164 0.50012 0.41720
 Cu824 Cu 1.10897 0.50016 0.38960
 C825 C 0.94834 0.44835 0.38503
 H826 H 0.95346 0.45342 0.39920
 C827 C 0.93448 0.43463 0.34873
 C828 C 1.05035 0.55099 0.38424
 H829 H 1.04541 0.54591 0.39847
 C830 C 1.06376 0.56480 0.34778
 C831 C 0.88474 0.44822 0.44926
 H832 H 0.89900 0.45328 0.45415
 C833 C 0.84820 0.43452 0.43600
 C834 C 1.11475 0.55126 0.44789
 H835 H 1.10062 0.54611 0.45303
 C836 C 1.15094 0.56522 0.43395
 C837 C 0.94904 0.38472 0.44897
 H838 H 0.95398 0.39900 0.45388
 C839 C 0.93562 0.34811 0.43568
 C840 C 1.05051 0.61477 0.44811
 H841 H 1.04545 0.60062 0.45329
 C842 C 1.06421 0.65100 0.43408
 C843 C 0.94790 0.55062 0.38489
 H844 H 0.95299 0.54568 0.39911
 C845 C 0.93408 0.56400 0.34841
 C846 C 1.05071 0.44887 0.38433
 H847 H 1.04563 0.45398 0.39849
 C848 C 1.06455 0.43501 0.34805
 C849 C 1.05138 0.38521 0.44850
 H850 H 1.04616 0.39929 0.45369
 C851 C 1.06551 0.34918 0.43441
 C852 C 0.94816 0.61458 0.44870
 H853 H 0.95321 0.60037 0.45369
 C854 C 0.93446 0.65099 0.43517
 C855 C 0.88439 0.55058 0.44905
 H856 H 0.89868 0.54566 0.45400
 C857 C 0.84778 0.56390 0.43562
 C858 C 1.11500 0.44926 0.44811
 H859 H 1.10083 0.45433 0.45322
 C860 C 1.15131 0.43547 0.43426
 O861 O 1.01971 0.42948 0.59771
 O862 O 1.01991 0.40669 0.62067
 C863 C 1.02649 0.42267 0.61368
 C864 C 1.04258 0.43315 0.62388
 C865 C 1.04946 0.42654 0.64214
 H866 H 1.04221 0.41433 0.64927
 O867 O 0.98099 0.57088 0.59755
 O868 O 0.98098 0.59376 0.62041
 C869 C 0.97432 0.57777 0.61353
 C870 C 0.95829 0.56733 0.62386
 C871 C 0.95136 0.57404 0.64208
 H872 H 0.95813 0.58668 0.64894
 O873 O 0.90242 0.51886 0.57102
 O874 O 0.87955 0.51881 0.59392
 C875 C 0.88643 0.52550 0.57793
 C876 C 0.87605 0.54151 0.56753
 C877 C 0.85780 0.54829 0.57427
 H878 H 0.85083 0.54115 0.58665
 O879 O 1.09814 0.48127 0.57047
 O880 O 1.12119 0.48138 0.59320
 C881 C 1.11416 0.47462 0.57730
 C882 C 1.12439 0.45851 0.56688
 C883 C 1.14254 0.45146 0.57366
 H884 H 1.14934 0.45814 0.58638
 O885 O 1.07114 0.40274 0.51872
 O886 O 1.09403 0.37988 0.51865
 C887 C 1.07807 0.38679 0.52540
 C888 C 1.06776 0.37649 0.54154
 C889 C 1.07447 0.35822 0.54828
 H890 H 1.08663 0.35115 0.54090
 O891 O 0.92879 0.59730 0.51909
 O892 O 0.90591 0.62018 0.51916
 C893 C 0.92192 0.61327 0.52579
 C894 C 0.93242 0.62361 0.54177
 C895 C 0.92586 0.64194 0.54848
 H896 H 0.91352 0.64897 0.54133
 O897 O 0.92953 0.48075 0.59790
 O898 O 0.90677 0.48069 0.62090
 C899 C 0.92272 0.47404 0.61390
 C900 C 0.93323 0.45801 0.62416
 C901 C 0.92657 0.45105 0.64239
 H902 H 0.91389 0.45776 0.64922
 O903 O 1.07121 0.51943 0.59741
 O904 O 1.09411 0.51960 0.62028
 C905 C 1.07809 0.52619 0.61336
 C906 C 1.06756 0.54218 0.62364
 C907 C 1.07403 0.54895 0.64201
 H908 H 1.08662 0.54215 0.64893
 O909 O 0.98150 0.40232 0.57101
 O910 O 0.98167 0.37941 0.59385
 C911 C 0.97489 0.38633 0.57792
 C912 C 0.95880 0.37599 0.56756
 C913 C 0.95187 0.35780 0.57437
 H914 H 0.95865 0.35104 0.58706
 O915 O 1.01910 0.59773 0.57042
 O916 O 1.01919 0.62072 0.59317
 C917 C 1.02583 0.61372 0.57721
 C918 C 1.04186 0.62396 0.56668
 C919 C 1.04883 0.64219 0.57330
 H920 H 1.04215 0.64903 0.58600
 O921 O 0.90259 0.42873 0.51950
 O922 O 0.87975 0.40581 0.51968
 C923 C 0.88669 0.42179 0.52632
 C924 C 0.87645 0.43221 0.54241
 C925 C 0.85825 0.42551 0.54942
 H926 H 0.85152 0.41273 0.54280
 O927 O 1.09758 0.57085 0.51830
 O928 O 1.12042 0.59377 0.51816
 C929 C 1.11356 0.57781 0.52492
 C930 C 1.12392 0.56751 0.54102
 C931 C 1.14220 0.57427 0.54773
 H932 H 1.14923 0.58645 0.54035
 O933 O 1.01927 0.57092 0.59734
 O934 O 1.01931 0.59379 0.62023
 C935 C 1.02600 0.57784 0.61329
 C936 C 1.04210 0.56745 0.62357
 C937 C 1.04876 0.57399 0.64193
 H938 H 1.04150 0.58621 0.64903
 O939 O 0.98142 0.42926 0.59779
 O940 O 0.98158 0.40646 0.62075
 C941 C 0.97478 0.42237 0.61378
 C942 C 0.95866 0.43271 0.62407
 C943 C 0.95180 0.42597 0.64229
 H944 H 0.95893 0.41363 0.64931
 O945 O 1.09797 0.51954 0.57043
 O946 O 1.12100 0.51974 0.59315
 C947 C 1.11393 0.52636 0.57722
 C948 C 1.12408 0.54245 0.56667
 C949 C 1.14227 0.54954 0.57330
 H950 H 1.14904 0.54300 0.58610
 O951 O 0.90264 0.48061 0.57101
 O952 O 0.87978 0.48055 0.59391
 C953 C 0.88670 0.47387 0.57793
 C954 C 0.87644 0.45776 0.56758
 C955 C 0.85816 0.45098 0.57424
 H956 H 0.85106 0.45831 0.58642
 O957 O 1.07060 0.59763 0.51838
 O958 O 1.09335 0.62064 0.51825
 C959 C 1.07745 0.61363 0.52504
 C960 C 1.06710 0.62388 0.54117
 C961 C 1.07384 0.64211 0.54800
 H962 H 1.08616 0.64914 0.54082
 O963 O 0.92963 0.40205 0.51940
 O964 O 0.90690 0.37903 0.51957
 C965 C 0.92285 0.38608 0.52618
 C966 C 0.93335 0.37591 0.54227
 C967 C 0.92666 0.35773 0.54927
 H968 H 0.91429 0.35066 0.54222
 O969 O 1.07143 0.48117 0.59748
 O970 O 1.09435 0.48128 0.62032
 C971 C 1.07840 0.47450 0.61342
 C972 C 1.06805 0.45840 0.62374
 C973 C 1.07486 0.45145 0.64192
 H974 H 1.08765 0.45812 0.64858
 O975 O 0.92943 0.51905 0.59773
 O976 O 0.90666 0.51901 0.62073
 C977 C 0.92256 0.52578 0.61370
 C978 C 0.93290 0.54196 0.62387
 C979 C 0.92611 0.54898 0.64201
 H980 H 0.91366 0.54200 0.64902
 O981 O 0.98079 0.59764 0.57058
 O982 O 0.98083 0.62065 0.59331
 C983 C 0.97408 0.61362 0.57741
 C984 C 0.95795 0.62381 0.56699
 C985 C 0.95115 0.64214 0.57351
 H986 H 0.95803 0.64908 0.58605
 O987 O 1.01980 0.40259 0.57087
 O988 O 1.02003 0.37968 0.59371
 C989 C 1.02663 0.38667 0.57773
 C990 C 1.04271 0.37647 0.56721
 C991 C 1.04976 0.35829 0.57388
 H992 H 1.04320 0.35156 0.58669
 O993 O 1.09803 0.42962 0.51870
 O994 O 1.12101 0.40685 0.51866
 C995 C 1.11402 0.42277 0.52539
 C996 C 1.12429 0.43314 0.54151
 C997 C 1.14244 0.42632 0.54850
 H998 H 1.14942 0.41392 0.54143
 O999 O 0.90192 0.57043 0.51923
 O1000 O 0.87892 0.59318 0.51932
 C1001 C 0.88596 0.57726 0.52600
 C1002 C 0.87579 0.56682 0.54213
 C1003 C 0.85754 0.57341 0.54910
 H1004 H 0.85063 0.58603 0.54234
 Cu1005 Cu 1.00059 0.41819 0.58205
 Cu1006 Cu 1.00082 0.39077 0.60955
 Cu1007 Cu 1.00003 0.58200 0.58169
 Cu1008 Cu 1.00009 0.60954 0.60907
 Cu1009 Cu 0.91828 0.41767 0.50029
 Cu1010 Cu 0.89095 0.39007 0.50047
 Cu1011 Cu 1.08226 0.41847 0.49956
 Cu1012 Cu 1.10981 0.39110 0.49949
 Cu1013 Cu 0.91756 0.58155 0.50002
 Cu1014 Cu 0.89003 0.60895 0.50008
 Cu1015 Cu 1.08174 0.58193 0.49920
 Cu1016 Cu 1.10909 0.60950 0.49904
 Cu1017 Cu 0.91830 0.49982 0.58212
 Cu1018 Cu 0.89090 0.49975 0.60968
 Cu1019 Cu 1.08239 0.50034 0.58167
 Cu1020 Cu 1.10998 0.50052 0.60902
 C1021 C 1.05182 0.44923 0.61492
 H1022 H 1.04672 0.45427 0.60074
 C1023 C 1.06566 0.43551 0.65126
 C1024 C 0.94909 0.55114 0.61500
 H1025 H 0.95420 0.54602 0.60084
 C1026 C 0.93524 0.56499 0.65121
 C1027 C 0.88482 0.55075 0.55133
 H1028 H 0.89903 0.54577 0.54623
 C1029 C 0.84844 0.56425 0.56517
 C1030 C 1.11549 0.44936 0.55068
 H1031 H 1.10135 0.45453 0.54555
 C1032 C 1.15166 0.43535 0.56459
 C1033 C 1.05173 0.38538 0.55096
 H1034 H 1.04661 0.39957 0.54596
 C1035 C 1.06563 0.34901 0.56450
 C1036 C 0.94859 0.61476 0.55100
 H1037 H 0.95357 0.60050 0.54608
 C1038 C 0.93511 0.65132 0.56435
 C1039 C 0.94939 0.44885 0.61522
 H1040 H 0.95443 0.45395 0.60103
 C1041 C 0.93575 0.43503 0.65156
 C1042 C 1.05147 0.55142 0.61464
 H1043 H 1.04658 0.54647 0.60035
 C1044 C 1.06472 0.56485 0.65127
 C1045 C 0.94954 0.38482 0.55139
 H1046 H 0.95460 0.39898 0.54625
 C1047 C 0.93579 0.34858 0.56533
 C1048 C 1.05099 0.61502 0.55049
 H1049 H 1.04589 0.60083 0.54548
 C1050 C 1.06483 0.65137 0.56407
 C1051 C 0.88535 0.44843 0.55151
 H1052 H 0.89955 0.45345 0.54643
 C1053 C 0.84896 0.43481 0.56533
 C1054 C 1.11510 0.55145 0.55044
 H1055 H 1.10091 0.54630 0.54547
 C1056 C 1.15148 0.56545 0.56392
 O1057 O 0.57149 1.01946 0.59757
 O1058 O 0.59443 1.01952 0.62040
 C1059 C 0.57844 1.02620 0.61350
 C1060 C 0.56806 1.04229 0.62378
 C1061 C 0.57475 1.04909 0.64205
 H1062 H 0.58707 1.04193 0.64908
 O1063 O 0.42985 0.98103 0.59844
 O1064 O 0.40713 0.98102 0.62149
 C1065 C 0.42304 0.97432 0.61445
 C1066 C 0.43353 0.95825 0.62465
 C1067 C 0.42696 0.95133 0.64293
 H1068 H 0.41432 0.95807 0.64983
 O1069 O 0.51959 1.09784 0.57073
 O1070 O 0.51975 1.12085 0.59346
 C1071 C 0.52635 1.11383 0.57750
 C1072 C 0.54238 1.12403 0.56694
 C1073 C 0.54931 1.14231 0.57346
 H1074 H 0.54259 1.14921 0.58610
 O1075 O 0.48141 0.90253 0.57126
 O1076 O 0.48156 0.87963 0.59412
 C1077 C 0.47474 0.88657 0.57822
 C1078 C 0.45854 0.87632 0.56797
 C1079 C 0.45163 0.85816 0.57483
 H1080 H 0.45881 0.85117 0.58717
 O1081 O 0.59807 1.07070 0.51859
 O1082 O 0.62099 1.09354 0.51842
 C1083 C 0.61409 1.07759 0.52518
 C1084 C 0.62446 1.06724 0.54124
 C1085 C 0.64279 1.07391 0.54793
 H1086 H 0.64985 1.08608 0.54056
 O1087 O 0.40254 0.92929 0.51993
 O1088 O 0.37958 0.90650 0.52010
 C1089 C 0.38659 0.92245 0.52672
 C1090 C 0.37640 0.93294 0.54282
 C1091 C 0.35814 0.92635 0.54976
 H1092 H 0.35124 0.91372 0.54301
 O1093 O 0.48151 1.07102 0.59793
 O1094 O 0.48159 1.09393 0.62077
 C1095 C 0.47489 1.07794 0.61392
 C1096 C 0.45890 1.06751 0.62432
 C1097 C 0.45218 1.07420 0.64262
 H1098 H 0.45936 1.08654 0.64959
 O1099 O 0.51986 0.92946 0.59785
 O1100 O 0.52004 0.90666 0.62081
 C1101 C 0.52666 0.92262 0.61380
 C1102 C 0.54274 0.93309 0.62401
 C1103 C 0.54955 0.92654 0.64232
 H1104 H 0.54239 0.91427 0.64944
 O1105 O 0.59821 0.98115 0.57063
 O1106 O 0.62127 0.98116 0.59334
 C1107 C 0.61422 0.97445 0.57743
 C1108 C 0.62442 0.95835 0.56697
 C1109 C 0.64264 0.95138 0.57363
 H1110 H 0.64949 0.95810 0.58630
 O1111 O 0.40291 1.01930 0.57164
 O1112 O 0.38007 1.01934 0.59457
 C1113 C 0.38697 1.02602 0.57858
 C1114 C 0.37665 1.04208 0.56818
 C1115 C 0.35839 1.04888 0.57489
 H1116 H 0.35140 1.04175 0.58725
 O1117 O 0.42946 1.09763 0.51938
 O1118 O 0.40664 1.12056 0.51944
 C1119 C 0.42265 1.11364 0.52605
 C1120 C 0.43318 1.12399 0.54200
 C1121 C 0.42671 1.14240 0.54860
 H1122 H 0.41456 1.14951 0.54123
 O1123 O 0.57108 0.90259 0.51897
 O1124 O 0.59394 0.87969 0.51890
 C1125 C 0.57800 0.88664 0.52565
 C1126 C 0.56768 0.87637 0.54179
 C1127 C 0.57439 0.85812 0.54859
 H1128 H 0.58668 0.85108 0.54137
 O1129 O 0.42988 1.01930 0.59842
 O1130 O 0.40716 1.01934 0.62147
 C1131 C 0.42308 1.02602 0.61442
 C1132 C 0.43357 1.04211 0.62460
 C1133 C 0.42702 1.04904 0.64288
 H1134 H 0.41441 1.04228 0.64980
 O1135 O 0.57155 0.98120 0.59770
 O1136 O 0.59448 0.98121 0.62054
 C1137 C 0.57849 0.97452 0.61365
 C1138 C 0.56808 0.95848 0.62398
 C1139 C 0.57471 0.95170 0.64229
 H1140 H 0.58733 0.95852 0.64912
 O1141 O 0.51971 0.90253 0.57103
 O1142 O 0.51990 0.87962 0.59388
 C1143 C 0.52647 0.88657 0.57787
 C1144 C 0.54247 0.87631 0.56732
 C1145 C 0.54941 0.85806 0.57392
 H1146 H 0.54273 0.85121 0.58662
 O1147 O 0.48129 1.09785 0.57103
 O1148 O 0.48138 1.12088 0.59375
 C1149 C 0.47460 1.11384 0.57787
 C1150 C 0.45849 1.12407 0.56743
 C1151 C 0.45167 1.14239 0.57396
 H1152 H 0.45843 1.14920 0.58663
 O1153 O 0.40251 1.07083 0.51973
 O1154 O 0.37957 1.09364 0.51982
 C1155 C 0.38659 1.07773 0.52654
 C1156 C 0.37643 1.06735 0.54273
 C1157 C 0.35818 1.07396 0.54967
 H1158 H 0.35126 1.08655 0.54286
 O1159 O 0.59796 0.92946 0.51885
 O1160 O 0.62091 0.90666 0.51880
 C1161 C 0.61396 0.92260 0.52552
 C1162 C 0.62427 0.93300 0.54159
 C1163 C 0.64250 0.92625 0.54846
 H1164 H 0.64950 0.91389 0.54134
 O1165 O 0.48157 0.92940 0.59810
 O1166 O 0.48172 0.90660 0.62106
 C1167 C 0.47497 0.92253 0.61412
 C1168 C 0.45892 0.93292 0.62447
 C1169 C 0.45216 0.92623 0.64274
 H1170 H 0.45935 0.91391 0.64975
 O1171 O 0.51978 1.07115 0.59775
 O1172 O 0.51992 1.09403 0.62062
 C1173 C 0.52658 1.07807 0.61367
 C1174 C 0.54270 1.06765 0.62389
 C1175 C 0.54961 1.07427 0.64215
 H1176 H 0.54284 1.08689 0.64902
 O1177 O 0.40290 0.98104 0.57164
 O1178 O 0.38006 0.98103 0.59456
 C1179 C 0.38694 0.97435 0.57858
 C1180 C 0.37660 0.95829 0.56819
 C1181 C 0.35834 0.95150 0.57490
 H1182 H 0.35134 0.95866 0.58725
 O1183 O 0.59829 1.01941 0.57064
 O1184 O 0.62135 1.01948 0.59334
 C1185 C 0.61430 1.02614 0.57741
 C1186 C 0.62453 1.04216 0.56686
 C1187 C 0.64276 1.04916 0.57348
 H1188 H 0.64951 1.04258 0.58627
 O1189 O 0.42935 0.90237 0.51991
 O1190 O 0.40650 0.87945 0.52011
 C1191 C 0.42249 0.88643 0.52671
 C1192 C 0.43299 0.87622 0.54278
 C1193 C 0.42628 0.85806 0.54986
 H1194 H 0.41354 0.85124 0.54324
 O1195 O 0.57111 1.09751 0.51876
 O1196 O 0.59394 1.12045 0.51860
 C1197 C 0.57802 1.11350 0.52539
 C1198 C 0.56768 1.12382 0.54149
 C1199 C 0.57438 1.14210 0.54821
 H1200 H 0.58669 1.14911 0.54100
 Cu1201 Cu 0.58258 1.00031 0.58186
 Cu1202 Cu 0.61020 1.00034 0.60919
 Cu1203 Cu 0.41867 1.00016 0.58274
 Cu1204 Cu 0.39131 1.00018 0.61033
 Cu1205 Cu 0.50053 1.08218 0.58208
 Cu1206 Cu 0.50067 1.10974 0.60944
 Cu1207 Cu 0.50063 0.91826 0.58227
 Cu1208 Cu 0.50083 0.89083 0.60977
 C1209 C 0.55192 1.05155 0.61492
 H1210 H 0.54685 1.04654 0.60071
 C1211 C 0.56563 1.06508 0.65134
 C1212 C 0.44963 0.94905 0.61564
 H1213 H 0.45460 0.95412 0.60142
 C1214 C 0.43617 0.93531 0.65208
 C1215 C 0.55155 1.11500 0.55083
 H1216 H 0.54648 1.10077 0.54589
 C1217 C 0.56531 1.15145 0.56420
 C1218 C 0.44924 0.88513 0.55183
 H1219 H 0.45431 0.89926 0.54664
 C1220 C 0.43550 0.84893 0.56590
 C1221 C 0.61558 1.05121 0.55065
 H1222 H 0.60135 1.04613 0.54570
 C1223 C 0.65204 1.06502 0.56410
 C1224 C 0.38542 0.94903 0.55202
 H1225 H 0.39963 0.95401 0.54694
 C1226 C 0.34900 0.93553 0.56580
 C1227 C 0.44963 1.05134 0.61554
 H1228 H 0.45457 1.04628 0.60130
 C1229 C 0.43623 1.06508 0.65200
 C1230 C 0.55198 0.94918 0.61506
 H1231 H 0.54697 0.95413 0.60081
 C1232 C 0.56554 0.93573 0.65157
 C1233 C 0.61545 0.94917 0.55083
 H1234 H 0.60126 0.95428 0.54579
 C1235 C 0.65178 0.93532 0.56449
 C1236 C 0.38545 1.05129 0.55198
 H1237 H 0.39966 1.04629 0.54690
 C1238 C 0.34904 1.06482 0.56574
 C1239 C 0.44923 1.11507 0.55136
 H1240 H 0.45417 1.10078 0.54647
 C1241 C 0.43579 1.15171 0.56462
 C1242 C 0.55159 0.88524 0.55114
 H1243 H 0.54652 0.89945 0.54615
 C1244 C 0.56538 0.84886 0.56466
 O1245 O 0.57051 0.98073 0.40182
 O1246 O 0.59323 0.98063 0.37877
 C1247 C 0.57730 0.97396 0.38584
 C1248 C 0.56681 0.95784 0.37569
 C1249 C 0.57343 0.95082 0.35748
 H1250 H 0.58610 0.95751 0.35059
 O1251 O 0.42875 1.01891 0.40261
 O1252 O 0.40579 1.01890 0.37979
 C1253 C 0.42180 1.02559 0.38666
 C1254 C 0.43221 1.04163 0.37632
 C1255 C 0.42546 1.04853 0.35810
 H1256 H 0.41275 1.04179 0.35133
 O1257 O 0.48070 1.09740 0.42916
 O1258 O 0.48054 1.12030 0.40631
 C1259 C 0.47392 1.11334 0.42230
 C1260 C 0.45782 1.12356 0.43273
 C1261 C 0.45085 1.14172 0.42597
 H1262 H 0.45791 1.14873 0.41357
 O1263 O 0.51891 0.90230 0.42927
 O1264 O 0.51882 0.87931 0.40651
 C1265 C 0.52562 0.88634 0.42239
 C1266 C 0.54185 0.87617 0.43268
 C1267 C 0.54884 0.85803 0.42589
 H1268 H 0.54172 0.85098 0.41355
 O1269 O 0.59778 0.92945 0.48054
 O1270 O 0.62075 0.90666 0.48048
 C1271 C 0.61374 0.92258 0.47378
 C1272 C 0.62393 0.93295 0.45762
 C1273 C 0.64217 0.92627 0.45074
 H1274 H 0.64926 0.91399 0.45790
 O1275 O 0.40226 1.07058 0.48143
 O1276 O 0.37932 1.09340 0.48149
 C1277 C 0.38623 1.07742 0.47481
 C1278 C 0.37587 1.06699 0.45879
 C1279 C 0.35758 1.07367 0.45203
 H1280 H 0.35053 1.08590 0.45931
 O1281 O 0.51887 1.07059 0.40202
 O1282 O 0.51872 1.09341 0.37909
 C1283 C 0.52547 1.07747 0.38600
 C1284 C 0.54149 1.06708 0.37562
 C1285 C 0.54828 1.07382 0.35737
 H1286 H 0.54113 1.08618 0.35040
 O1287 O 0.48041 0.92903 0.40254
 O1288 O 0.48026 0.90612 0.37970
 C1289 C 0.47360 0.92209 0.38664
 C1290 C 0.45742 0.93243 0.37645
 C1291 C 0.45039 0.92564 0.35831
 H1292 H 0.45745 0.91326 0.35128
 O1293 O 0.59749 1.01909 0.42842
 O1294 O 0.62034 1.01907 0.40551
 C1295 C 0.61344 1.02579 0.42148
 C1296 C 0.62375 1.04187 0.43186
 C1297 C 0.64196 1.04879 0.42511
 H1298 H 0.64873 1.04205 0.41241
 O1299 O 0.40202 0.98072 0.42973
 O1300 O 0.37893 0.98066 0.40705
 C1301 C 0.38600 0.97400 0.42297
 C1302 C 0.37581 0.95793 0.43350
 C1303 C 0.35755 0.95096 0.42691
 H1304 H 0.35065 0.95768 0.41426
 O1305 O 0.57087 1.09752 0.48048
 O1306 O 0.59369 1.12047 0.48031
 C1307 C 0.57769 1.11350 0.47373
 C1308 C 0.56718 1.12376 0.45770
 C1309 C 0.57373 1.14207 0.45092
 H1310 H 0.58593 1.14919 0.45819
 O1311 O 0.42929 0.90232 0.48164
 O1312 O 0.40647 0.87937 0.48180
 C1313 C 0.42241 0.88631 0.47503
 C1314 C 0.43279 0.87598 0.45896
 C1315 C 0.42629 0.85756 0.45241
 H1316 H 0.41421 0.85043 0.45987
 O1317 O 0.42867 0.98065 0.40265
 O1318 O 0.40570 0.98059 0.37984
 C1319 C 0.42169 0.97390 0.38673
 C1320 C 0.43205 0.95779 0.37646
 C1321 C 0.42522 0.95077 0.35832
 H1322 H 0.41249 0.95748 0.35156
 O1323 O 0.57056 1.01899 0.40163
 O1324 O 0.59327 1.01897 0.37858
 C1325 C 0.57735 1.02566 0.38561
 C1326 C 0.56686 1.04173 0.37539
 C1327 C 0.57346 1.04869 0.35714
 H1328 H 0.58611 1.04197 0.35025
 O1329 O 0.48059 0.90224 0.42949
 O1330 O 0.48046 0.87922 0.40675
 C1331 C 0.47385 0.88624 0.42272
 C1332 C 0.45788 0.87597 0.43332
 C1333 C 0.45104 0.85763 0.42685
 H1334 H 0.45771 0.85084 0.41413
 O1335 O 0.51903 1.09746 0.42888
 O1336 O 0.51890 1.12039 0.40606
 C1337 C 0.52570 1.11343 0.42196
 C1338 C 0.54183 1.12370 0.43232
 C1339 C 0.54873 1.14194 0.42561
 H1340 H 0.54199 1.14866 0.41288
 O1341 O 0.40237 0.92914 0.48162
 O1342 O 0.37943 0.90632 0.48176
 C1343 C 0.38637 0.92224 0.47499
 C1344 C 0.37603 0.93260 0.45890
 C1345 C 0.35778 0.92585 0.45210
 H1346 H 0.35080 0.91348 0.45924
 O1347 O 0.59774 1.07065 0.48028
 O1348 O 0.62066 1.09350 0.48010
 C1349 C 0.61366 1.07755 0.47345
 C1350 C 0.62383 1.06718 0.45728
 C1351 C 0.64204 1.07387 0.45033
 H1352 H 0.64913 1.08618 0.45745
 O1353 O 0.51871 0.92908 0.40232
 O1354 O 0.51860 0.90619 0.37945
 C1355 C 0.52534 0.92216 0.38633
 C1356 C 0.54140 0.93252 0.37595
 C1357 C 0.54821 0.92573 0.35773
 H1358 H 0.54105 0.91336 0.35077
 O1359 O 0.48058 1.07052 0.40232
 O1360 O 0.48041 1.09333 0.37937
 C1361 C 0.47377 1.07738 0.38638
 C1362 C 0.45762 1.06696 0.37622
 C1363 C 0.45067 1.07362 0.35800
 H1364 H 0.45779 1.08594 0.35090
 O1365 O 0.40200 1.01899 0.42960
 O1366 O 0.37893 1.01899 0.40691
 C1367 C 0.38600 1.02570 0.42281
 C1368 C 0.37579 1.04178 0.43329
 C1369 C 0.35759 1.04879 0.42661
 H1370 H 0.35084 1.04217 0.41383
 O1371 O 0.59754 0.98085 0.42852
 O1372 O 0.62040 0.98076 0.40561
 C1373 C 0.61351 0.97414 0.42162
 C1374 C 0.62384 0.95816 0.43211
 C1375 C 0.64208 0.95126 0.42542
 H1376 H 0.64886 0.95795 0.41270
 O1377 O 0.57097 0.90251 0.48067
 O1378 O 0.59383 0.87962 0.48059
 C1379 C 0.57784 0.88655 0.47395
 C1380 C 0.56737 0.87626 0.45791
 C1381 C 0.57416 0.85811 0.45089
 H1382 H 0.58692 0.85137 0.45754
 O1383 O 0.42910 1.09749 0.48110
 O1384 O 0.40627 1.12042 0.48113
 C1385 C 0.42218 1.11343 0.47436
 C1386 C 0.43252 1.12363 0.45817
 C1387 C 0.42574 1.14180 0.45117
 H1388 H 0.41307 1.14861 0.45793
 Cu1389 Cu 0.58174 0.99992 0.41739
 Cu1390 Cu 0.60910 0.99985 0.38980
 Cu1391 Cu 0.41766 0.99982 0.41842
 Cu1392 Cu 0.39002 0.99978 0.39111
 Cu1393 Cu 0.58217 1.08180 0.49955
 Cu1394 Cu 0.60962 1.10928 0.49934
 Cu1395 Cu 0.58216 0.91829 0.49976
 Cu1396 Cu 0.60966 0.89087 0.49969
 Cu1397 Cu 0.41812 1.08184 0.50041
 Cu1398 Cu 0.39065 1.10930 0.50048
 Cu1399 Cu 0.41817 0.91807 0.50076
 Cu1400 Cu 0.39069 0.89062 0.50095
 Cu1401 Cu 0.49982 1.08171 0.41789
 Cu1402 Cu 0.49963 1.10916 0.39041
 Cu1403 Cu 0.49966 0.91795 0.41818
 Cu1404 Cu 0.49952 0.89041 0.39081
 C1405 C 0.55067 0.94870 0.38471
 H1406 H 0.54568 0.95384 0.39890
 C1407 C 0.56423 0.93475 0.34839
 C1408 C 0.44841 1.05084 0.38516
 H1409 H 0.45351 1.04580 0.39934
 C1410 C 0.43458 1.06454 0.34884
 C1411 C 0.44868 1.11473 0.44896
 H1412 H 0.45380 1.10059 0.45408
 C1413 C 0.43480 1.15094 0.43506
 C1414 C 0.55110 0.88507 0.44882
 H1415 H 0.54596 0.89920 0.45396
 C1416 C 0.56500 0.84889 0.43487
 C1417 C 0.61498 0.94902 0.44834
 H1418 H 0.60078 0.95407 0.45339
 C1419 C 0.65134 0.93531 0.43463
 C1420 C 0.38473 1.05090 0.44947
 H1421 H 0.39894 1.04581 0.45447
 C1422 C 0.34834 1.06473 0.43588
 C1423 C 0.55075 1.05091 0.38441
 H1424 H 0.54577 1.04581 0.39861
 C1425 C 0.56428 1.06475 0.34803
 C1426 C 0.44827 0.94863 0.38530
 H1427 H 0.45343 0.95377 0.39943
 C1428 C 0.43428 0.93469 0.34914
 C1429 C 0.61490 1.05105 0.44806
 H1430 H 0.60072 1.04598 0.45317
 C1431 C 0.65121 1.06480 0.43425
 C1432 C 0.38483 0.94876 0.44962
 H1433 H 0.39903 0.95387 0.45460
 C1434 C 0.34844 0.93491 0.43610
 C1435 C 0.55108 1.11481 0.44845
 H1436 H 0.54608 1.10059 0.45348
 C1437 C 0.56466 1.15127 0.43482
 C1438 C 0.44874 0.88495 0.44947
 H1439 H 0.45370 0.89924 0.45432
 C1440 C 0.43527 0.84827 0.43632
 O1441 O 0.48049 0.42897 0.90257
 O1442 O 0.48036 0.40603 0.87976
 C1443 C 0.47369 0.42200 0.88668
 C1444 C 0.45751 0.43232 0.87646
 C1445 C 0.45062 0.42561 0.85824
 H1446 H 0.45780 0.41332 0.85117
 O1447 O 0.51835 0.57035 0.90212
 O1448 O 0.51816 0.59317 0.87919
 C1449 C 0.52495 0.57725 0.88611
 C1450 C 0.54103 0.56692 0.87575
 C1451 C 0.54779 0.57368 0.85749
 H1452 H 0.54058 0.58601 0.85052
 O1453 O 0.40194 0.48033 0.92989
 O1454 O 0.37886 0.48014 0.90720
 C1455 C 0.38595 0.47353 0.92313
 C1456 C 0.37582 0.45743 0.93365
 C1457 C 0.35761 0.45041 0.92702
 H1458 H 0.35049 0.45744 0.91467
 O1459 O 0.59750 0.51903 0.92833
 O1460 O 0.62029 0.51906 0.90535
 C1461 C 0.61342 0.52575 0.92135
 C1462 C 0.62373 0.54184 0.93171
 C1463 C 0.64194 0.54877 0.92494
 H1464 H 0.64870 0.54202 0.91224
 O1465 O 0.42940 0.40218 0.98178
 O1466 O 0.40675 0.37908 0.98199
 C1467 C 0.42263 0.38612 0.97520
 C1468 C 0.43305 0.37582 0.95914
 C1469 C 0.42666 0.35734 0.95268
 H1470 H 0.41465 0.35014 0.96019
 O1471 O 0.57073 0.59741 0.98022
 O1472 O 0.59344 0.62046 0.97999
 C1473 C 0.57746 0.61341 0.97344
 C1474 C 0.56684 0.62362 0.95745
 C1475 C 0.57339 0.64188 0.95050
 H1476 H 0.58610 0.64874 0.95714
 O1477 O 0.42847 0.51860 0.90270
 O1478 O 0.40549 0.51848 0.87990
 C1479 C 0.42147 0.52524 0.88675
 C1480 C 0.43179 0.54132 0.87638
 C1481 C 0.42502 0.54810 0.85814
 H1482 H 0.41266 0.54092 0.85117
 O1483 O 0.57050 0.48067 0.90171
 O1484 O 0.59316 0.48065 0.87860
 C1485 C 0.57728 0.47394 0.88570
 C1486 C 0.56680 0.45779 0.87558
 C1487 C 0.57344 0.45072 0.85739
 H1488 H 0.58609 0.45742 0.85047
 O1489 O 0.51900 0.40234 0.92935
 O1490 O 0.51892 0.37930 0.90665
 C1491 C 0.52570 0.38636 0.92252
 C1492 C 0.54189 0.37619 0.93287
 C1493 C 0.54878 0.35796 0.92619
 H1494 H 0.54161 0.35087 0.91390
 O1495 O 0.48015 0.59712 0.92924
 O1496 O 0.47996 0.62005 0.90641
 C1497 C 0.47338 0.61309 0.92242
 C1498 C 0.45739 0.62338 0.93296
 C1499 C 0.45071 0.64175 0.92649
 H1500 H 0.45790 0.64885 0.91422
 O1501 O 0.40170 0.57034 0.98133
 O1502 O 0.37877 0.59317 0.98135
 C1503 C 0.38571 0.57721 0.97465
 C1504 C 0.37542 0.56676 0.95860
 C1505 C 0.35720 0.57345 0.95164
 H1506 H 0.35039 0.58615 0.95835
 O1507 O 0.59793 0.42957 0.98055
 O1508 O 0.62087 0.40675 0.98047
 C1509 C 0.61388 0.42269 0.97378
 C1510 C 0.62406 0.43305 0.95760
 C1511 C 0.64241 0.42654 0.95087
 H1512 H 0.64962 0.41448 0.95828
 O1513 O 0.48004 0.57034 0.90226
 O1514 O 0.47983 0.59316 0.87933
 C1515 C 0.47322 0.57720 0.88633
 C1516 C 0.45711 0.56672 0.87615
 C1517 C 0.45012 0.57331 0.85791
 H1518 H 0.45684 0.58595 0.85101
 O1519 O 0.51879 0.42902 0.90231
 O1520 O 0.51869 0.40608 0.87950
 C1521 C 0.52541 0.42206 0.88634
 C1522 C 0.54145 0.43241 0.87593
 C1523 C 0.54828 0.42557 0.85774
 H1524 H 0.54115 0.41316 0.85083
 O1525 O 0.59752 0.48077 0.92841
 O1526 O 0.62032 0.48074 0.90544
 C1527 C 0.61347 0.47407 0.92146
 C1528 C 0.62383 0.45809 0.93193
 C1529 C 0.64210 0.45123 0.92527
 H1530 H 0.64877 0.45787 0.91247
 O1531 O 0.40173 0.51860 0.92970
 O1532 O 0.37865 0.51846 0.90701
 C1533 C 0.38569 0.52523 0.92290
 C1534 C 0.37544 0.54134 0.93329
 C1535 C 0.35721 0.54822 0.92657
 H1536 H 0.35017 0.54108 0.91425
 O1537 O 0.42856 0.59721 0.98119
 O1538 O 0.40577 0.62018 0.98127
 C1539 C 0.42169 0.61320 0.97452
 C1540 C 0.43212 0.62346 0.95844
 C1541 C 0.42563 0.64184 0.95173
 H1542 H 0.41308 0.64875 0.95862
 O1543 O 0.57111 0.40262 0.98076
 O1544 O 0.59395 0.37970 0.98067
 C1545 C 0.57795 0.38663 0.97406
 C1546 C 0.56742 0.37630 0.95809
 C1547 C 0.57409 0.35805 0.95119
 H1548 H 0.58681 0.35128 0.95790
 O1549 O 0.57037 0.51893 0.90171
 O1550 O 0.59302 0.51899 0.87860
 C1551 C 0.57710 0.52564 0.88568
 C1552 C 0.56653 0.54168 0.87551
 C1553 C 0.57309 0.54868 0.85726
 H1554 H 0.58576 0.54202 0.85035
 O1555 O 0.42852 0.48035 0.90272
 O1556 O 0.40555 0.48019 0.87992
 C1557 C 0.42158 0.47358 0.88680
 C1558 C 0.43203 0.45755 0.87649
 C1559 C 0.42533 0.45061 0.85827
 H1560 H 0.41261 0.45731 0.85148
 O1561 O 0.51845 0.59724 0.92895
 O1562 O 0.51827 0.62016 0.90612
 C1563 C 0.52509 0.61322 0.92202
 C1564 C 0.54124 0.62351 0.93231
 C1565 C 0.54799 0.64178 0.92558
 H1566 H 0.54074 0.64880 0.91331
 O1567 O 0.48070 0.40221 0.92955
 O1568 O 0.48059 0.37916 0.90685
 C1569 C 0.47399 0.38618 0.92281
 C1570 C 0.45808 0.37588 0.93346
 C1571 C 0.45136 0.35747 0.92708
 H1572 H 0.45805 0.35066 0.91438
 O1573 O 0.59773 0.57066 0.98008
 O1574 O 0.62055 0.59360 0.97983
 C1575 C 0.61362 0.57760 0.97323
 C1576 C 0.62381 0.56721 0.95708
 C1577 C 0.64201 0.57390 0.95011
 H1578 H 0.64909 0.58624 0.95720
 O1579 O 0.40235 0.42888 0.98181
 O1580 O 0.37958 0.40589 0.98197
 C1581 C 0.38639 0.42186 0.97519
 C1582 C 0.37600 0.43216 0.95911
 C1583 C 0.35778 0.42533 0.95225
 H1584 H 0.35105 0.41264 0.95905
 Cu1585 Cu 0.49975 0.41794 0.91822
 Cu1586 Cu 0.49963 0.39033 0.89090
 Cu1587 Cu 0.49926 0.58147 0.91793
 Cu1588 Cu 0.49903 0.60893 0.89046
 Cu1589 Cu 0.41747 0.49948 0.91853
 Cu1590 Cu 0.38981 0.49930 0.89123
 Cu1591 Cu 0.58171 0.49985 0.91734
 Cu1592 Cu 0.60898 0.49986 0.88968
 C1593 C 0.44824 0.44842 0.88536
 H1594 H 0.45331 0.45349 0.89955
 C1595 C 0.43452 0.43464 0.84903
 C1596 C 0.55038 0.55079 0.88454
 H1597 H 0.54543 0.54568 0.89875
 C1598 C 0.56382 0.56469 0.84815
 C1599 C 0.38479 0.44832 0.94981
 H1600 H 0.39897 0.45348 0.95482
 C1601 C 0.34850 0.43435 0.93619
 C1602 C 0.61489 0.55105 0.94790
 H1603 H 0.60072 0.54598 0.95302
 C1604 C 0.65119 0.56480 0.93404
 C1605 C 0.44891 0.38486 0.94959
 H1606 H 0.45378 0.39921 0.95437
 C1607 C 0.43567 0.34804 0.93661
 C1608 C 0.55064 0.61465 0.94838
 H1609 H 0.54569 0.60044 0.95347
 C1610 C 0.56407 0.65106 0.93456
 C1611 C 0.44796 0.55060 0.88516
 H1612 H 0.45309 0.54562 0.89936
 C1613 C 0.43407 0.56410 0.84879
 C1614 C 0.55069 0.44865 0.88463
 H1615 H 0.54568 0.45383 0.89880
 C1616 C 0.56428 0.43460 0.84837
 C1617 C 0.55119 0.38514 0.94894
 H1618 H 0.54614 0.39934 0.95399
 C1619 C 0.56488 0.34879 0.93524
 C1620 C 0.44812 0.61445 0.94906
 H1621 H 0.45303 0.60015 0.95396
 C1622 C 0.43483 0.65110 0.93576
 C1623 C 0.38432 0.55059 0.94943
 H1624 H 0.39851 0.54553 0.95451
 C1625 C 0.34799 0.56429 0.93562
 C1626 C 0.61501 0.44898 0.94818
 H1627 H 0.60076 0.45395 0.95318
 C1628 C 0.65155 0.43547 0.93466
 O1629 O 0.52005 0.42988 1.09822
 O1630 O 0.52024 0.40712 1.12121
 C1631 C 0.52685 0.42308 1.11419
 C1632 C 0.54296 0.43355 1.12436
 C1633 C 0.54967 0.42715 1.14275
 H1634 H 0.54227 0.41510 1.15000
 O1635 O 0.48128 0.57059 1.09768
 O1636 O 0.48135 0.59353 1.12049
 C1637 C 0.47463 0.57755 1.11365
 C1638 C 0.45857 0.56721 1.12404
 C1639 C 0.45179 0.57401 1.14227
 H1640 H 0.45897 0.58636 1.14922
 O1641 O 0.40235 0.51896 1.07151
 O1642 O 0.37955 0.51898 1.09448
 C1643 C 0.38640 0.52564 1.07846
 C1644 C 0.37602 0.54166 1.06806
 C1645 C 0.35779 0.54848 1.07482
 H1646 H 0.35085 0.54139 1.08723
 O1647 O 0.59866 0.48123 1.07056
 O1648 O 0.62177 0.48132 1.09322
 C1649 C 0.61470 0.47457 1.07734
 C1650 C 0.62488 0.45848 1.06685
 C1651 C 0.64316 0.45154 1.07342
 H1652 H 0.65008 0.45828 1.08604
 O1653 O 0.57124 0.40282 1.01906
 O1654 O 0.59406 0.37989 1.01898
 C1655 C 0.57815 0.38687 1.02577
 C1656 C 0.56787 0.37666 1.04198
 C1657 C 0.57456 0.35840 1.04876
 H1658 H 0.58668 0.35127 1.04135
 O1659 O 0.42877 0.59719 1.01946
 O1660 O 0.40596 0.62013 1.01960
 C1661 C 0.42195 0.61316 1.02621
 C1662 C 0.43254 0.62343 1.04219
 C1663 C 0.42590 0.64166 1.04916
 H1664 H 0.41307 0.64836 1.04261
 O1665 O 0.42944 0.48079 1.09831
 O1666 O 0.40675 0.48077 1.12139
 C1667 C 0.42268 0.47410 1.11434
 C1668 C 0.43324 0.45810 1.12460
 C1669 C 0.42656 0.45107 1.14279
 H1670 H 0.41371 0.45760 1.14948
 O1671 O 0.57188 0.51949 1.09743
 O1672 O 0.59482 0.51969 1.12026
 C1673 C 0.57879 0.52628 1.11335
 C1674 C 0.56825 0.54227 1.12363
 C1675 C 0.57478 0.54914 1.14194
 H1676 H 0.58755 0.54251 1.14870
 O1677 O 0.48176 0.40277 1.07158
 O1678 O 0.48196 0.37986 1.09442
 C1679 C 0.47517 0.38677 1.07848
 C1680 C 0.45912 0.37640 1.06810
 C1681 C 0.45245 0.35804 1.07470
 H1682 H 0.45937 0.35120 1.08728
 O1683 O 0.51946 0.59735 1.07048
 O1684 O 0.51956 0.62036 1.09323
 C1685 C 0.52618 0.61335 1.07726
 C1686 C 0.54219 0.62363 1.06673
 C1687 C 0.54897 0.64194 1.07329
 H1688 H 0.54184 0.64901 1.08561
 O1689 O 0.40248 0.42893 1.02012
 O1690 O 0.37971 0.40594 1.02032
 C1691 C 0.38660 0.42195 1.02694
 C1692 C 0.37633 0.43234 1.04303
 C1693 C 0.35818 0.42553 1.05007
 H1694 H 0.35152 0.41271 1.04345
 O1695 O 0.59802 0.57077 1.01838
 O1696 O 0.62083 0.59373 1.01817
 C1697 C 0.61400 0.57777 1.02497
 C1698 C 0.62441 0.56752 1.04107
 C1699 C 0.64263 0.57438 1.04782
 H1700 H 0.64956 0.58673 1.04060
 O1701 O 0.51961 0.57061 1.09751
 O1702 O 0.51967 0.59352 1.12035
 C1703 C 0.52636 0.57756 1.11343
 C1704 C 0.54252 0.56725 1.12370
 C1705 C 0.54914 0.57379 1.14208
 H1706 H 0.54168 0.58585 1.14924
 O1707 O 0.48175 0.42969 1.09839
 O1708 O 0.48191 0.40690 1.12134
 C1709 C 0.47511 0.42280 1.11439
 C1710 C 0.45895 0.43310 1.12466
 C1711 C 0.45218 0.42640 1.14294
 H1712 H 0.45955 0.41425 1.15003
 O1713 O 0.59862 0.51947 1.07046
 O1714 O 0.62172 0.51967 1.09313
 C1715 C 0.61462 0.52626 1.07719
 C1716 C 0.62475 0.54233 1.06660
 C1717 C 0.64297 0.54942 1.07316
 H1718 H 0.64990 0.54280 1.08584
 O1719 O 0.40242 0.48071 1.07159
 O1720 O 0.37961 0.48068 1.09454
 C1721 C 0.38649 0.47399 1.07856
 C1722 C 0.37624 0.45784 1.06823
 C1723 C 0.35801 0.45094 1.07495
 H1724 H 0.35092 0.45819 1.08719
 O1725 O 0.57100 0.59747 1.01850
 O1726 O 0.59370 0.62053 1.01830
 C1727 C 0.57783 0.61349 1.02512
 C1728 C 0.56743 0.62373 1.04124
 C1729 C 0.57403 0.64204 1.04804
 H1730 H 0.58662 0.64892 1.04118
 O1731 O 0.42971 0.40244 1.02004
 O1732 O 0.40705 0.37934 1.02027
 C1733 C 0.42300 0.38644 1.02684
 C1734 C 0.43361 0.37628 1.04286
 C1735 C 0.42720 0.35792 1.04964
 H1736 H 0.41494 0.35075 1.04249
 O1737 O 0.57205 0.48125 1.09766
 O1738 O 0.59500 0.48137 1.12048
 C1739 C 0.57901 0.47463 1.11363
 C1740 C 0.56857 0.45866 1.12406
 C1741 C 0.57522 0.45191 1.14238
 H1742 H 0.58798 0.45862 1.14905
 O1743 O 0.42940 0.51905 1.09820
 O1744 O 0.40673 0.51910 1.12129
 C1745 C 0.42263 0.52579 1.11420
 C1746 C 0.43314 0.54190 1.12433
 C1747 C 0.42655 0.54894 1.14256
 H1748 H 0.41388 0.54225 1.14946
 O1749 O 0.48114 0.59731 1.07065
 O1750 O 0.48126 0.62034 1.09337
 C1751 C 0.47447 0.61331 1.07749
 C1752 C 0.45830 0.62354 1.06716
 C1753 C 0.45158 0.64184 1.07379
 H1754 H 0.45900 0.64898 1.08590
 O1755 O 0.52006 0.40295 1.07142
 O1756 O 0.52030 0.38007 1.09429
 C1757 C 0.52688 0.38703 1.07828
 C1758 C 0.54291 0.37677 1.06774
 C1759 C 0.54994 0.35859 1.07443
 H1760 H 0.54340 0.35190 1.08728
 O1761 O 0.59822 0.42959 1.01885
 O1762 O 0.62114 0.40675 1.01877
 C1763 C 0.61423 0.42271 1.02548
 C1764 C 0.62462 0.43312 1.04149
 C1765 C 0.64290 0.42641 1.04825
 H1766 H 0.64987 0.41406 1.04108
 O1767 O 0.40183 0.57042 1.01962
 O1768 O 0.37888 0.59322 1.01971
 C1769 C 0.38588 0.57730 1.02640
 C1770 C 0.37573 0.56689 1.04257
 C1771 C 0.35750 0.57353 1.04956
 H1772 H 0.35059 0.58614 1.04279
 Cu1773 Cu 0.50089 0.41861 1.08261
 Cu1774 Cu 0.50113 0.39120 1.11012
 Cu1775 Cu 0.50037 0.58166 1.08180
 Cu1776 Cu 0.50047 0.60924 1.10915
 Cu1777 Cu 0.41825 0.41792 1.00091
 Cu1778 Cu 0.39099 0.39025 1.00116
 Cu1779 Cu 0.58234 0.41844 0.99981
 Cu1780 Cu 0.60980 0.39097 0.99971
 Cu1781 Cu 0.41749 0.58150 1.00039
 Cu1782 Cu 0.39004 0.60897 1.00049
 Cu1783 Cu 0.58210 0.58178 0.99931
 Cu1784 Cu 0.60942 0.60938 0.99905
 Cu1785 Cu 0.41818 0.49988 1.08260
 Cu1786 Cu 0.39088 0.49989 1.11024
 Cu1787 Cu 0.58301 0.50034 1.08176
 Cu1788 Cu 0.61065 0.50053 1.10905
 C1789 C 0.55236 0.44946 1.11525
 H1790 H 0.54738 0.45434 1.10097
 C1791 C 0.56584 0.43616 1.15188
 C1792 C 0.44927 0.55104 1.11529
 H1793 H 0.45425 0.54589 1.10110
 C1794 C 0.43577 0.56499 1.15164
 C1795 C 0.38476 0.55084 1.05181
 H1796 H 0.39895 0.54582 1.04668
 C1797 C 0.34843 0.56443 1.06569
 C1798 C 0.61584 0.44928 1.05077
 H1799 H 0.60161 0.45436 1.04581
 C1800 C 0.65226 0.43549 1.06422
 C1801 C 0.55190 0.38562 1.05143
 H1802 H 0.54679 0.39980 1.04641
 C1803 C 0.56576 0.34925 1.06502
 C1804 C 0.44883 0.61457 1.05120
 H1805 H 0.45380 0.60035 1.04615
 C1806 C 0.43533 0.65100 1.06496
 C1807 C 0.44952 0.44910 1.11573
 H1808 H 0.45453 0.45420 1.10154
 C1809 C 0.43593 0.43522 1.15211
 C1810 C 0.55202 0.55134 1.11471
 H1811 H 0.54711 0.54635 1.10044
 C1812 C 0.56531 0.56488 1.15132
 C1813 C 0.44970 0.38530 1.05206
 H1814 H 0.45456 0.39959 1.04708
 C1815 C 0.43649 0.34870 1.06557
 C1816 C 0.55140 0.61474 1.05058
 H1817 H 0.54641 0.60050 1.04561
 C1818 C 0.56490 0.65125 1.06407
 C1819 C 0.38515 0.44858 1.05212
 H1820 H 0.39930 0.45369 1.04700
 C1821 C 0.34887 0.43475 1.06601
 C1822 C 0.61569 0.55137 1.05043
 H1823 H 0.60150 0.54617 1.04548
 C1824 C 0.65201 0.56546 1.06387
 C1825 C 1.12028 1.11933 1.27803
 C1826 C 1.11865 1.13946 1.28186
 C1827 C 1.12626 1.14747 1.29911
 C1828 C 1.13600 1.13560 1.31306
 C1829 C 1.13746 1.11530 1.30906
 C1830 C 1.12962 1.10731 1.29187
 C1831 C 1.11245 1.11101 1.25951
 C1832 C 1.10155 1.09352 1.25961
 C1833 C 1.09390 1.08593 1.24214
 C1834 C 1.09714 1.09557 1.22418
 C1835 C 1.10828 1.11294 1.22412
 C1836 C 1.11578 1.12060 1.24159
 C1837 C 1.08889 1.08766 1.20557
 C1838 C 1.08168 1.10043 1.19106
 C1839 C 1.07425 1.09310 1.17343
 C1840 C 1.07367 1.07279 1.16990
 C1841 C 1.08070 1.06000 1.18448
 C1842 C 1.08827 1.06735 1.20208
 H1843 H 1.11143 1.14907 1.27146
 H1844 H 1.12522 1.16320 1.30088
 H1845 H 1.14408 1.10528 1.31945
 H1846 H 1.13107 1.09170 1.28927
 H1847 H 1.09860 1.08595 1.27326
 H1848 H 1.08515 1.07269 1.24277
 H1849 H 1.11143 1.12053 1.21052
 H1850 H 1.12441 1.13393 1.24105
 H1851 H 1.08167 1.11614 1.19336
 H1852 H 1.06922 1.10339 1.16243
 H1853 H 1.08027 1.04427 1.18232
 H1854 H 1.09389 1.05710 1.21284
 C1855 C 1.11674 0.61779 0.77966
 C1856 C 1.12314 0.60549 0.79493
 C1857 C 1.13115 0.61345 0.81206
 C1858 C 1.13295 0.63386 0.81429
 C1859 C 1.12648 0.64615 0.79904
 C1860 C 1.11847 0.63820 0.78193
 C1861 C 1.10850 0.60940 0.76131
 C1862 C 1.09227 0.61820 0.75213
 C1863 C 1.08487 0.61068 0.73456
 C1864 C 1.09353 0.59419 0.72574
 C1865 C 1.10961 0.58522 0.73504
 C1866 C 1.11701 0.59275 0.75263
 C1867 C 1.08603 0.58659 0.70674
 C1868 C 1.08460 0.56631 0.70331
 C1869 C 1.07766 0.55923 0.68534
 C1870 C 1.07200 0.57229 0.67042
 C1871 C 1.07345 0.59256 0.67385
 C1872 C 1.08038 0.59962 0.69179
 H1873 H 1.12174 0.58972 0.79372
 H1874 H 1.13575 0.60362 0.82367
 H1875 H 1.12799 0.66191 0.80017
 H1876 H 1.11398 0.64805 0.77030
 H1877 H 1.08518 0.63085 0.75863
 H1878 H 1.07224 0.61770 0.72793
 H1879 H 1.11678 0.57266 0.72847
 H1880 H 1.12971 0.58580 0.75920
 H1881 H 1.08859 0.55590 0.71463
 H1882 H 1.07647 0.54354 0.68321
 H1883 H 1.06955 0.60298 0.66251
 H1884 H 1.08165 0.61532 0.69384
 C1885 C 0.61919 1.11876 0.77880
 C1886 C 0.60686 1.12524 0.79402
 C1887 C 0.61478 1.13322 0.81117
 C1888 C 0.63521 1.13492 0.81349
 C1889 C 0.64753 1.12845 0.79828
 C1890 C 0.63962 1.12046 0.78114
 C1891 C 0.61083 1.11038 0.76050
 C1892 C 0.61966 1.09408 0.75149
 C1893 C 0.61209 1.08645 0.73403
 C1894 C 0.59551 1.09494 0.72518
 C1895 C 0.58655 1.11112 0.73430
 C1896 C 0.59413 1.11875 0.75177
 C1897 C 0.58779 1.08713 0.70636
 C1898 C 0.56747 1.08557 0.70312
 C1899 C 0.56026 1.07836 0.68531
 C1900 C 0.57322 1.07255 0.67036
 C1901 C 0.59353 1.07411 0.67360
 C1902 C 0.60073 1.08131 0.69139
 H1903 H 0.59107 1.12387 0.79277
 H1904 H 0.60492 1.13783 0.82275
 H1905 H 0.66332 1.12986 0.79950
 H1906 H 0.64950 1.11592 0.76956
 H1907 H 0.63234 1.08709 0.75803
 H1908 H 0.61912 1.07377 0.72754
 H1909 H 0.57392 1.11815 0.72770
 H1910 H 0.58716 1.13149 0.75821
 H1911 H 0.55713 1.08969 0.71447
 H1912 H 0.54454 1.07709 0.68333
 H1913 H 0.60388 1.07010 0.66224
 H1914 H 0.61645 1.08266 0.69330
 C1915 C 0.61753 0.61815 1.27956
 C1916 C 0.62705 0.60618 1.29336
 C1917 C 0.63517 0.61420 1.31039
 C1918 C 0.63391 0.63452 1.31431
 C1919 C 0.62406 0.64638 1.30044
 C1920 C 0.61612 0.63833 1.28334
 C1921 C 0.60933 0.60969 1.26117
 C1922 C 0.59168 0.61688 1.25324
 C1923 C 0.58430 0.60936 1.23565
 C1924 C 0.59430 0.59437 1.22567
 C1925 C 0.61177 0.58695 1.23370
 C1926 C 0.61924 0.59457 1.25122
 C1927 C 0.58671 0.58674 1.20675
 C1928 C 0.58647 0.56650 1.20291
 C1929 C 0.57941 0.55939 1.18500
 C1930 C 0.57259 0.57238 1.17049
 C1931 C 0.57293 0.59264 1.17436
 C1932 C 0.57982 0.59972 1.19231
 H1933 H 0.62798 0.59048 1.29114
 H1934 H 0.64173 0.60416 1.32078
 H1935 H 0.62325 0.66214 1.30210
 H1936 H 0.60930 0.64807 1.27281
 H1937 H 0.58347 0.62825 1.26070
 H1938 H 0.57065 0.61515 1.22993
 H1939 H 0.61990 0.57556 1.22618
 H1940 H 0.63303 0.58891 1.25672
 H1941 H 0.59149 0.55616 1.21388
 H1942 H 0.57908 0.54369 1.18262
 H1943 H 0.56817 0.60308 1.16338
 H1944 H 0.58014 0.61541 1.19476
 C1945 C 0.88165 0.88073 1.27827
 C1946 C 0.89397 0.87454 1.29361
 C1947 C 0.88602 0.86688 1.31091
 C1948 C 0.86558 0.86531 1.31325
 C1949 C 0.85328 0.87161 1.29795
 C1950 C 0.86122 0.87923 1.28067
 C1951 C 0.89002 0.88859 1.25975
 C1952 C 0.88181 0.88340 1.24156
 C1953 C 0.88946 0.89097 1.22413
 C1954 C 0.90551 0.90391 1.22446
 C1955 C 0.91385 0.90898 1.24264
 C1956 C 0.90619 0.90140 1.26009
 C1957 C 0.91340 0.91216 1.20590
 C1958 C 0.93374 0.91402 1.20298
 C1959 C 0.94110 0.92157 1.18537
 C1960 C 0.92828 0.92748 1.17034
 C1961 C 0.90794 0.92572 1.17332
 C1962 C 0.90059 0.91816 1.19089
 H1963 H 0.90977 0.87535 1.29213
 H1964 H 0.89586 0.86228 1.32251
 H1965 H 0.83748 0.87037 1.29922
 H1966 H 0.85134 0.88408 1.26920
 H1967 H 0.86959 0.87328 1.24079
 H1968 H 0.88295 0.88649 1.21034
 H1969 H 0.92606 0.91912 1.24339
 H1970 H 0.91267 0.90587 1.27390
 H1971 H 0.94399 0.90936 1.21420
 H1972 H 0.95684 0.92290 1.18356
 H1973 H 0.89769 0.92993 1.16193
 H1974 H 0.88485 0.91713 1.19277
 C1975 C 0.88091 0.38100 0.77836
 C1976 C 0.87915 0.36060 0.78073
 C1977 C 0.87141 0.35274 0.79800
 C1978 C 0.86525 0.36508 0.81333
 C1979 C 0.86709 0.38549 0.81101
 C1980 C 0.87486 0.39336 0.79373
 C1981 C 0.88891 0.38930 0.75986
 C1982 C 0.90185 0.40535 0.76022
 C1983 C 0.90954 0.41294 0.74277
 C1984 C 0.90447 0.40463 0.72459
 C1985 C 0.89142 0.38868 0.72423
 C1986 C 0.88373 0.38111 0.74165
 C1987 C 0.91280 0.41248 0.70604
 C1988 C 0.91880 0.39966 0.69105
 C1989 C 0.92637 0.40698 0.67346
 C1990 C 0.92811 0.42730 0.67045
 C1991 C 0.92221 0.44013 0.68547
 C1992 C 0.91467 0.43280 0.70309
 H1993 H 0.88389 0.35068 0.76927
 H1994 H 0.86997 0.33697 0.79924
 H1995 H 0.86263 0.39536 0.82263
 H1996 H 0.87587 0.40914 0.79227
 H1997 H 0.90632 0.41182 0.77403
 H1998 H 0.91976 0.42509 0.74354
 H1999 H 0.88694 0.38219 0.71044
 H2000 H 0.87351 0.36897 0.74085
 H2001 H 0.91776 0.38393 0.69296
 H2002 H 0.93058 0.39673 0.66209
 H2003 H 0.92352 0.45585 0.68363
 H2004 H 0.91001 0.44305 0.71430
 C2005 C 0.38250 0.88120 0.77931
 C2006 C 0.37585 0.89345 0.79451
 C2007 C 0.36775 0.88546 0.81157
 C2008 C 0.36609 0.86503 0.81380
 C2009 C 0.37280 0.85278 0.79864
 C2010 C 0.38091 0.86077 0.78159
 C2011 C 0.39092 0.88966 0.76107
 C2012 C 0.40729 0.88094 0.75206
 C2013 C 0.41493 0.88860 0.73465
 C2014 C 0.40637 0.90515 0.72583
 C2015 C 0.39013 0.91401 0.73494
 C2016 C 0.38248 0.90634 0.75236
 C2017 C 0.41418 0.91295 0.70703
 C2018 C 0.41568 0.93327 0.70386
 C2019 C 0.42287 0.94054 0.68607
 C2020 C 0.42872 0.92765 0.67108
 C2021 C 0.42721 0.90734 0.67426
 C2022 C 0.42004 0.90008 0.69203
 H2023 H 0.37716 0.90924 0.79331
 H2024 H 0.36299 0.89525 0.82313
 H2025 H 0.37145 0.83700 0.79981
 H2026 H 0.38559 0.85095 0.77002
 H2027 H 0.41433 0.86828 0.75858
 H2028 H 0.42766 0.88165 0.72816
 H2029 H 0.38304 0.92661 0.72836
 H2030 H 0.36968 0.91322 0.75879
 H2031 H 0.41152 0.94355 0.71523
 H2032 H 0.42409 0.95626 0.68414
 H2033 H 0.43125 0.89704 0.66286
 H2034 H 0.41874 0.88436 0.69390
 C2035 C 0.38103 0.38073 1.27879
 C2036 C 0.38265 0.36061 1.28268
 C2037 C 0.37484 0.35262 1.29985
 C2038 C 0.36492 0.36450 1.31366
 C2039 C 0.36347 0.38479 1.30960
 C2040 C 0.37150 0.39276 1.29249
 C2041 C 0.38906 0.38904 1.26036
 C2042 C 0.39993 0.40654 1.26056
 C2043 C 0.40772 0.41416 1.24316
 C2044 C 0.40467 0.40451 1.22517
 C2045 C 0.39358 0.38711 1.22501
 C2046 C 0.38594 0.37943 1.24241
 C2047 C 0.41302 0.41247 1.20663
 C2048 C 0.42034 0.39975 1.19214
 C2049 C 0.42781 0.40713 1.17454
 C2050 C 0.42831 0.42744 1.17103
 C2051 C 0.42119 0.44019 1.18560
 C2052 C 0.41359 0.43279 1.20317
 H2053 H 0.39001 0.35100 1.27238
 H2054 H 0.37589 0.33689 1.30167
 H2055 H 0.35670 0.39481 1.31989
 H2056 H 0.37005 0.40836 1.28985
 H2057 H 0.40273 0.41413 1.27423
 H2058 H 0.41643 0.42742 1.24387
 H2059 H 0.39057 0.37951 1.21139
 H2060 H 0.37734 0.36608 1.24179
 H2061 H 0.42040 0.38403 1.19441
 H2062 H 0.43291 0.39687 1.16354
 H2063 H 0.42156 0.45592 1.18347
 H2064 H 0.40789 0.44300 1.21391
 C2065 C 0.88011 1.11882 0.72181
 C2066 C 0.87086 1.10681 0.70790
 C2067 C 0.86314 1.11482 0.69066
 C2068 C 0.86466 1.13512 0.68668
 C2069 C 0.87430 1.14698 0.70071
 C2070 C 0.88179 1.13895 0.71801
 C2071 C 0.88785 1.11047 0.74035
 C2072 C 0.88443 1.12003 0.75827
 C2073 C 0.89187 1.11236 0.77576
 C2074 C 0.90305 1.09502 0.77572
 C2075 C 0.90636 1.08540 0.75776
 C2076 C 0.89878 1.09300 0.74027
 C2077 C 0.91129 1.08714 0.79433
 C2078 C 0.91197 1.06682 0.79782
 C2079 C 0.91957 1.05949 0.81542
 C2080 C 0.92660 1.07231 0.82998
 C2081 C 0.92595 1.09262 0.82646
 C2082 C 0.91847 1.09992 0.80884
 H2083 H 0.86937 1.09121 0.71048
 H2084 H 0.85659 1.10482 0.68022
 H2085 H 0.87537 1.16271 0.69897
 H2086 H 0.88894 1.14855 0.72846
 H2087 H 0.87578 1.13335 0.75879
 H2088 H 0.88867 1.11993 0.78935
 H2089 H 0.91514 1.07218 0.75715
 H2090 H 0.90179 1.08545 0.72662
 H2091 H 0.90637 1.05656 0.78707
 H2092 H 0.92005 1.04377 0.81757
 H2093 H 0.93097 1.10292 0.83745
 H2094 H 0.91844 1.11564 0.80654
 C2095 C 0.88092 0.61773 0.22069
 C2096 C 0.86084 0.61629 0.21646
 C2097 C 0.85322 0.62414 0.19913
 C2098 C 0.86545 0.63394 0.18553
 C2099 C 0.88569 0.63521 0.18995
 C2100 C 0.89329 0.62713 0.20720
 C2101 C 0.88887 0.60968 0.23927
 C2102 C 0.90631 0.59870 0.23936
 C2103 C 0.91369 0.59104 0.25691
 C2104 C 0.90387 0.59434 0.27477
 C2105 C 0.88649 0.60548 0.27463
 C2106 C 0.87904 0.61298 0.25708
 C2107 C 0.91168 0.58625 0.29348
 C2108 C 0.89884 0.57918 0.30800
 C2109 C 0.90611 0.57194 0.32575
 C2110 C 0.92641 0.57143 0.32937
 C2111 C 0.93928 0.57831 0.31478
 C2112 C 0.93200 0.58569 0.29708
 H2113 H 0.85098 0.60904 0.22660
 H2114 H 0.83751 0.62324 0.19704
 H2115 H 0.89598 0.64184 0.17985
 H2116 H 0.90886 0.62845 0.21012
 H2117 H 0.91405 0.59576 0.22580
 H2118 H 0.92693 0.58228 0.25643
 H2119 H 0.87877 0.60866 0.28814
 H2120 H 0.86573 0.62166 0.25746
 H2121 H 0.88313 0.57913 0.30563
 H2122 H 0.89576 0.56702 0.33675
 H2123 H 0.95501 0.57792 0.31701
 H2124 H 0.94230 0.59122 0.28632
 C2125 C 0.38131 1.11841 0.22135
 C2126 C 0.37517 1.10604 0.20604
 C2127 C 0.36770 1.11391 0.18863
 C2128 C 0.36629 1.13432 0.18613
 C2129 C 0.37256 1.14668 0.20138
 C2130 C 0.37998 1.13882 0.21879
 C2131 C 0.38896 1.11012 0.23999
 C2132 C 0.38365 1.11848 0.25808
 C2133 C 0.39100 1.11088 0.27564
 C2134 C 0.40383 1.09475 0.27553
 C2135 C 0.40902 1.08628 0.25745
 C2136 C 0.40166 1.09388 0.23987
 C2137 C 0.41187 1.08693 0.29421
 C2138 C 0.41357 1.06661 0.29728
 C2139 C 0.42097 1.05932 0.31497
 C2140 C 0.42691 1.07220 0.32994
 C2141 C 0.42528 1.09251 0.32684
 C2142 C 0.41786 1.09979 0.30918
 H2143 H 0.37585 1.09025 0.20765
 H2144 H 0.36313 1.10402 0.17706
 H2145 H 0.37144 1.16246 0.19999
 H2146 H 0.38481 1.14874 0.23023
 H2147 H 0.37361 1.13077 0.25868
 H2148 H 0.38644 1.11750 0.28934
 H2149 H 0.41909 1.07400 0.25688
 H2150 H 0.40621 1.08728 0.22616
 H2151 H 0.40891 1.05634 0.28609
 H2152 H 0.42220 1.04361 0.31688
 H2153 H 0.42950 1.10280 0.33818
 H2154 H 0.41695 1.11552 0.30718
 C2155 C 0.38028 0.61814 0.72155
 C2156 C 0.39277 0.62428 0.70632
 C2157 C 0.38503 0.63217 0.68903
 C2158 C 0.36463 0.63401 0.68657
 C2159 C 0.35215 0.62772 0.70173
 C2160 C 0.35988 0.61987 0.71901
 C2161 C 0.38844 0.61014 0.74011
 C2162 C 0.38012 0.61532 0.75825
 C2163 C 0.38765 0.60773 0.77573
 C2164 C 0.40368 0.59478 0.77550
 C2165 C 0.41210 0.58968 0.75737
 C2166 C 0.40456 0.59728 0.73987
 C2167 C 0.41153 0.58661 0.79413
 C2168 C 0.43187 0.58485 0.79713
 C2169 C 0.43919 0.57746 0.81481
 C2170 C 0.42634 0.57161 0.82985
 C2171 C 0.40601 0.57325 0.82679
 C2172 C 0.39869 0.58066 0.80914
 H2173 H 0.40855 0.62330 0.70791
 H2174 H 0.39500 0.63676 0.67754
 H2175 H 0.33638 0.62918 0.70037
 H2176 H 0.34986 0.61506 0.73036
 H2177 H 0.36793 0.62549 0.75896
 H2178 H 0.38107 0.61223 0.78948
 H2179 H 0.42431 0.57953 0.75670
 H2180 H 0.41113 0.59281 0.72611
 H2181 H 0.44213 0.58947 0.78592
 H2182 H 0.45493 0.57621 0.81669
 H2183 H 0.39574 0.56909 0.83817
 H2184 H 0.38295 0.58163 0.80719
 C2185 C 1.11789 0.88085 0.72095
 C2186 C 1.12402 0.89330 0.70570
 C2187 C 1.13183 0.88553 0.68839
 C2188 C 1.13363 0.86514 0.68595
 C2189 C 1.12732 0.85269 0.70112
 C2190 C 1.11955 0.86046 0.71843
 C2191 C 1.11002 0.88906 0.73954
 C2192 C 1.11530 0.88078 0.75767
 C2193 C 1.10785 0.88838 0.77518
 C2194 C 1.09493 0.90445 0.77498
 C2195 C 1.08973 0.91282 0.75686
 C2196 C 1.09719 0.90520 0.73933
 C2197 C 1.08689 0.91234 0.79363
 C2198 C 1.08517 0.93268 0.79659
 C2199 C 1.07785 0.94005 0.81428
 C2200 C 1.07202 0.92725 0.82936
 C2201 C 1.07364 0.90692 0.82634
 C2202 C 1.08098 0.89956 0.80869
 H2203 H 1.12309 0.90908 0.70728
 H2204 H 1.13640 0.89548 0.67688
 H2205 H 1.12871 0.83693 0.69977
 H2206 H 1.11474 0.85048 0.72981
 H2207 H 1.12544 0.86857 0.75834
 H2208 H 1.11242 0.88184 0.78891
 H2209 H 1.07960 0.92504 0.75622
 H2210 H 1.09265 0.91174 0.72558
 H2211 H 1.08977 0.94290 0.78533
 H2212 H 1.07662 0.95578 0.81612
 H2213 H 1.06950 0.89669 0.83776
 H2214 H 1.08191 0.88382 0.80678
 C2215 C 1.11892 0.38048 0.22120
 C2216 C 1.10672 0.37151 0.20728
 C2217 C 1.11456 0.36367 0.19003
 C2218 C 1.13491 0.36474 0.18606
 C2219 C 1.14699 0.37405 0.20013
 C2220 C 1.13912 0.38169 0.21743
 C2221 C 1.11068 0.38842 0.23971
 C2222 C 1.12015 0.38492 0.25767
 C2223 C 1.11249 0.39243 0.27512
 C2224 C 1.09524 0.40376 0.27501
 C2225 C 1.08574 0.40722 0.25701
 C2226 C 1.09334 0.39957 0.23956
 C2227 C 1.08729 0.41199 0.29360
 C2228 C 1.06694 0.41274 0.29698
 C2229 C 1.05955 0.42032 0.31455
 C2230 C 1.07233 0.42727 0.32919
 C2231 C 1.09266 0.42655 0.32578
 C2232 C 1.10004 0.41908 0.30819
 H2233 H 1.09107 0.37037 0.20983
 H2234 H 1.10439 0.35741 0.17958
 H2235 H 1.16275 0.37477 0.19836
 H2236 H 1.14887 0.38861 0.22790
 H2237 H 1.13337 0.37611 0.25824
 H2238 H 1.11996 0.38914 0.28875
 H2239 H 1.07261 0.41613 0.25636
 H2240 H 1.08587 0.40268 0.22588
 H2241 H 1.05671 0.40721 0.28615
 H2242 H 1.04380 0.42085 0.31663
 H2243 H 1.10294 0.43151 0.33684
 H2244 H 1.11578 0.41898 0.30597
 C2245 C 0.61880 0.88041 0.22163
 C2246 C 0.62518 0.89281 0.20643
 C2247 C 0.63303 0.88498 0.18918
 C2248 C 0.63462 0.86457 0.18672
 C2249 C 0.62810 0.85218 0.20186
 C2250 C 0.62029 0.86001 0.21911
 C2251 C 0.61077 0.88868 0.24012
 C2252 C 0.61579 0.88037 0.25831
 C2253 C 0.60813 0.88798 0.27573
 C2254 C 0.59526 0.90408 0.27538
 C2255 C 0.59033 0.91249 0.25719
 C2256 C 0.59800 0.90487 0.23976
 C2257 C 0.58700 0.91200 0.29393
 C2258 C 0.58527 0.93234 0.29685
 C2259 C 0.57778 0.93973 0.31446
 C2260 C 0.57182 0.92696 0.32951
 C2261 C 0.57344 0.90663 0.32652
 C2262 C 0.58093 0.89924 0.30894
 H2263 H 0.62437 0.90860 0.20801
 H2264 H 0.63776 0.89489 0.17769
 H2265 H 0.62932 0.83641 0.20049
 H2266 H 0.61529 0.85007 0.23045
 H2267 H 0.62586 0.86811 0.25910
 H2268 H 0.61250 0.88141 0.28952
 H2269 H 0.58025 0.92474 0.25642
 H2270 H 0.59366 0.91143 0.22595
 H2271 H 0.58999 0.94255 0.28563
 H2272 H 0.57656 0.95546 0.31627
 H2273 H 0.56919 0.89641 0.33792
 H2274 H 0.58186 0.88350 0.30705
 C2275 C 0.61837 0.38024 0.72141
 C2276 C 0.62439 0.39276 0.70617
 C2277 C 0.63228 0.38509 0.68886
 C2278 C 0.63431 0.36473 0.68640
 C2279 C 0.62815 0.35220 0.70158
 C2280 C 0.62028 0.35987 0.71888
 C2281 C 0.61031 0.38837 0.73995
 C2282 C 0.61557 0.38016 0.75812
 C2283 C 0.60799 0.38775 0.77559
 C2284 C 0.59497 0.40374 0.77530
 C2285 C 0.58976 0.41200 0.75714
 C2286 C 0.59734 0.40440 0.73966
 C2287 C 0.58686 0.41170 0.79389
 C2288 C 0.58506 0.43204 0.79673
 C2289 C 0.57767 0.43949 0.81436
 C2290 C 0.57186 0.42675 0.82951
 C2291 C 0.57358 0.40641 0.82662
 C2292 C 0.58099 0.39898 0.80902
 H2293 H 0.62327 0.40853 0.70774
 H2294 H 0.63670 0.39510 0.67734
 H2295 H 0.62969 0.33645 0.70018
 H2296 H 0.61557 0.34982 0.73026
 H2297 H 0.62580 0.36803 0.75887
 H2298 H 0.61256 0.38128 0.78936
 H2299 H 0.57955 0.42415 0.75642
 H2300 H 0.59280 0.41087 0.72588
 H2301 H 0.58963 0.44222 0.78543
 H2302 H 0.57637 0.45522 0.81611
 H2303 H 0.56945 0.39623 0.83809
 H2304 H 0.58200 0.38323 0.80720
 C2305 C 1.27948 1.11868 1.11817
 C2306 C 1.28210 1.13908 1.11958
 C2307 C 1.29942 1.14686 1.12732
 C2308 C 1.31452 1.13442 1.13384
 C2309 C 1.31195 1.11402 1.13237
 C2310 C 1.29463 1.10623 1.12458
 C2311 C 1.26095 1.11049 1.11017
 C2312 C 1.26123 1.09430 1.09740
 C2313 C 1.24375 1.08679 1.08971
 C2314 C 1.22561 1.09530 1.09463
 C2315 C 1.22534 1.11139 1.10751
 C2316 C 1.24280 1.11890 1.11518
 C2317 C 1.20701 1.08749 1.08635
 C2318 C 1.19206 1.10034 1.08030
 C2319 C 1.17442 1.09306 1.07284
 C2320 C 1.17130 1.07275 1.07123
 C2321 C 1.18630 1.05988 1.07714
 C2322 C 1.20397 1.06717 1.08460
 H2323 H 1.27080 1.14905 1.11456
 H2324 H 1.30086 1.16263 1.12846
 H2325 H 1.32339 1.10408 1.13712
 H2326 H 1.29297 1.09046 1.12384
 H2327 H 1.27500 1.08767 1.09307
 H2328 H 1.24445 1.07454 1.07962
 H2329 H 1.21158 1.11803 1.11188
 H2330 H 1.24207 1.13116 1.12526
 H2331 H 1.19405 1.11607 1.08125
 H2332 H 1.16307 1.10335 1.06863
 H2333 H 1.18439 1.04417 1.07592
 H2334 H 1.21513 1.05690 1.08930
 C2335 C 1.27863 0.61970 0.61803
 C2336 C 1.28272 0.63979 0.61656
 C2337 C 1.29997 0.64756 0.62445
 C2338 C 1.31363 0.63547 0.63432
 C2339 C 1.30937 0.61521 0.63561
 C2340 C 1.29219 0.60746 0.62749
 C2341 C 1.26014 0.61159 0.60994
 C2342 C 1.26021 0.59413 0.59900
 C2343 C 1.24274 0.58659 0.59131
 C2344 C 1.22479 0.59626 0.59453
 C2345 C 1.22476 0.61366 0.60562
 C2346 C 1.24224 0.62127 0.61316
 C2347 C 1.20616 0.58829 0.58639
 C2348 C 1.19157 0.60099 0.57922
 C2349 C 1.17391 0.59358 0.57192
 C2350 C 1.17043 0.57326 0.57143
 C2351 C 1.18509 0.56054 0.57842
 C2352 C 1.20272 0.56796 0.58585
 H2353 H 1.27252 0.64956 0.60926
 H2354 H 1.30194 0.66327 0.62352
 H2355 H 1.31953 0.60501 0.64229
 H2356 H 1.28939 0.59188 0.62883
 H2357 H 1.27384 0.58649 0.59612
 H2358 H 1.24335 0.57334 0.58258
 H2359 H 1.21118 0.62128 0.60874
 H2360 H 1.24172 0.63459 0.62180
 H2361 H 1.19383 0.61671 0.57914
 H2362 H 1.16285 0.60383 0.56692
 H2363 H 1.18298 0.54480 0.57805
 H2364 H 1.21353 0.55776 0.59145
 C2365 C 0.77901 1.11911 0.61882
 C2366 C 0.79265 1.10703 0.62838
 C2367 C 0.80979 1.11495 0.63643
 C2368 C 0.81393 1.13522 0.63496
 C2369 C 0.80018 1.14715 0.62500
 C2370 C 0.78298 1.13921 0.61717
 C2371 C 0.76055 1.11087 0.61078
 C2372 C 0.74263 1.12054 0.61391
 C2373 C 0.72520 1.11292 0.60628
 C2374 C 0.72529 1.09554 0.59517
 C2375 C 0.74326 1.08584 0.59210
 C2376 C 0.76069 1.09338 0.59989
 C2377 C 0.70672 1.08763 0.58684
 C2378 C 0.70321 1.06731 0.58623
 C2379 C 0.68560 1.05996 0.57868
 C2380 C 0.67102 1.07276 0.57164
 C2381 C 0.67458 1.09306 0.57217
 C2382 C 0.69222 1.10039 0.57959
 H2383 H 0.78994 1.09145 0.62985
 H2384 H 0.82002 1.10490 0.64323
 H2385 H 0.80206 1.16286 0.62393
 H2386 H 0.77273 1.14886 0.60979
 H2387 H 0.74206 1.13388 0.62253
 H2388 H 0.71160 1.12055 0.60930
 H2389 H 0.74392 1.07258 0.58338
 H2390 H 0.77434 1.08575 0.59709
 H2391 H 0.71395 1.05707 0.59189
 H2392 H 0.68344 1.04424 0.57828
 H2393 H 0.66358 1.10336 0.56713
 H2394 H 0.69453 1.11610 0.57955
 C2395 C 0.77915 0.61991 1.11754
 C2396 C 0.78172 0.64028 1.11945
 C2397 C 0.79902 0.64791 1.12738
 C2398 C 0.81414 0.63535 1.13360
 C2399 C 0.81165 0.61499 1.13154
 C2400 C 0.79435 0.60735 1.12359
 C2401 C 0.76058 0.61181 1.10948
 C2402 C 0.76085 0.59573 1.09656
 C2403 C 0.74334 0.58812 1.08902
 C2404 C 0.72519 0.59643 1.09423
 C2405 C 0.72494 0.61246 1.10718
 C2406 C 0.74243 0.62006 1.11472
 C2407 C 0.70657 0.58844 1.08619
 C2408 C 0.69145 0.60114 1.08028
 C2409 C 0.67382 0.59367 1.07294
 C2410 C 0.67090 0.57333 1.07136
 C2411 C 0.68604 0.56061 1.07721
 C2412 C 0.70371 0.56809 1.08451
 H2413 H 0.77038 0.65034 1.11471
 H2414 H 0.80044 0.66365 1.12894
 H2415 H 0.82313 0.60496 1.13601
 H2416 H 0.79274 0.59159 1.12248
 H2417 H 0.77462 0.58923 1.09203
 H2418 H 0.74403 0.57594 1.07886
 H2419 H 0.71118 0.61896 1.11174
 H2420 H 0.74171 0.63222 1.12491
 H2421 H 0.69329 0.61689 1.08119
 H2422 H 0.66235 0.60384 1.06878
 H2423 H 0.68427 0.54488 1.07601
 H2424 H 0.71501 0.55793 1.08913
 C2425 C 1.27880 0.88052 0.88079
 C2426 C 1.28294 0.88220 0.86072
 C2427 C 1.30029 0.87457 0.85295
 C2428 C 1.31403 0.86476 0.86502
 C2429 C 1.30965 0.86315 0.88524
 C2430 C 1.29237 0.87103 0.89299
 C2431 C 1.26028 0.88854 0.88890
 C2432 C 1.26033 0.89949 0.90635
 C2433 C 1.24287 0.90729 0.91379
 C2434 C 1.22494 0.90414 0.90403
 C2435 C 1.22493 0.89298 0.88667
 C2436 C 1.24240 0.88535 0.87915
 C2437 C 1.20633 0.91246 0.91185
 C2438 C 1.19185 0.91964 0.89902
 C2439 C 1.17420 0.92710 0.90629
 C2440 C 1.17063 0.92776 0.92660
 C2441 C 1.18519 0.92079 0.93945
 C2442 C 1.20280 0.91318 0.93217
 H2443 H 1.27272 0.88951 0.85098
 H2444 H 1.30233 0.87569 0.83725
 H2445 H 1.31984 0.85644 0.89541
 H2446 H 1.28951 0.86952 0.90856
 H2447 H 1.27395 0.90234 0.91404
 H2448 H 1.24347 0.91606 0.92702
 H2449 H 1.21137 0.88991 0.87899
 H2450 H 1.24191 0.87670 0.86583
 H2451 H 1.19418 0.91959 0.88331
 H2452 H 1.16322 0.93209 0.89595
 H2453 H 1.18302 0.92128 0.95518
 H2454 H 1.21352 0.90759 0.94247
 C2455 C 1.27828 0.38092 0.38009
 C2456 C 1.28204 0.36077 0.38174
 C2457 C 1.29931 0.35271 0.37420
 C2458 C 1.31334 0.36455 0.36453
 C2459 C 1.30940 0.38487 0.36306
 C2460 C 1.29220 0.39290 0.37082
 C2461 C 1.25976 0.38930 0.38786
 C2462 C 1.25988 0.40679 0.39874
 C2463 C 1.24241 0.41445 0.40632
 C2464 C 1.22443 0.40485 0.40305
 C2465 C 1.22435 0.38747 0.39193
 C2466 C 1.24181 0.37975 0.38450
 C2467 C 1.20583 0.41279 0.41127
 C2468 C 1.19131 0.40005 0.41851
 C2469 C 1.17370 0.40741 0.42597
 C2470 C 1.17020 0.42772 0.42654
 C2471 C 1.18478 0.44049 0.41945
 C2472 C 1.20236 0.43311 0.41187
 H2473 H 1.27158 0.35119 0.38891
 H2474 H 1.30101 0.33698 0.37524
 H2475 H 1.31985 0.39485 0.35649
 H2476 H 1.28965 0.40851 0.36936
 H2477 H 1.27355 0.41434 0.40172
 H2478 H 1.24305 0.42770 0.41506
 H2479 H 1.21073 0.37992 0.38876
 H2480 H 1.24126 0.36642 0.37588
 H2481 H 1.19358 0.38434 0.41854
 H2482 H 1.16269 0.39713 0.43103
 H2483 H 1.18264 0.45622 0.41986
 H2484 H 1.21313 0.44334 0.40623
 C2485 C 0.77845 0.88127 0.38064
 C2486 C 0.78088 0.86086 0.37912
 C2487 C 0.79819 0.85297 0.37151
 C2488 C 0.81348 0.86529 0.36523
 C2489 C 0.81112 0.88571 0.36685
 C2490 C 0.79380 0.89361 0.37451
 C2491 C 0.75989 0.88960 0.38845
 C2492 C 0.76015 0.90577 0.40124
 C2493 C 0.74265 0.91339 0.40876
 C2494 C 0.72451 0.90500 0.40365
 C2495 C 0.72425 0.88894 0.39073
 C2496 C 0.74173 0.88133 0.38322
 C2497 C 0.70590 0.91284 0.41183
 C2498 C 0.69093 0.90000 0.41787
 C2499 C 0.67331 0.90730 0.42535
 C2500 C 0.67024 0.92762 0.42698
 C2501 C 0.68522 0.94047 0.42102
 C2502 C 0.70288 0.93316 0.41356
 H2503 H 0.76943 0.85096 0.38394
 H2504 H 0.79948 0.83719 0.37025
 H2505 H 0.82272 0.89557 0.36231
 H2506 H 0.79229 0.90940 0.37533
 H2507 H 0.77393 0.91229 0.40574
 H2508 H 0.74333 0.92561 0.41888
 H2509 H 0.71049 0.88239 0.38623
 H2510 H 0.74102 0.86910 0.37311
 H2511 H 0.69290 0.88427 0.41694
 H2512 H 0.66196 0.89703 0.42961
 H2513 H 0.68333 0.95619 0.42225
 H2514 H 0.71407 0.94342 0.40886
 C2515 C 0.77930 0.38185 0.88161
 C2516 C 0.79295 0.39363 0.87164
 C2517 C 0.80993 0.38545 0.86355
 C2518 C 0.81395 0.36519 0.86532
 C2519 C 0.80019 0.35352 0.87553
 C2520 C 0.78314 0.36171 0.88343
 C2521 C 0.76102 0.39045 0.88991
 C2522 C 0.75334 0.38354 0.90778
 C2523 C 0.73582 0.39114 0.91526
 C2524 C 0.72568 0.40594 0.90515
 C2525 C 0.73348 0.41311 0.88748
 C2526 C 0.75091 0.40540 0.87990
 C2527 C 0.70681 0.41358 0.91283
 C2528 C 0.70295 0.43382 0.91300
 C2529 C 0.68511 0.44095 0.92019
 C2530 C 0.67067 0.42798 0.92722
 C2531 C 0.67456 0.40772 0.92694
 C2532 C 0.69245 0.40062 0.91992
 H2533 H 0.79068 0.40929 0.87035
 H2534 H 0.82023 0.39535 0.85661
 H2535 H 0.80189 0.33780 0.87670
 H2536 H 0.77271 0.35210 0.89058
 H2537 H 0.76093 0.37234 0.91609
 H2538 H 0.73027 0.38554 0.92906
 H2539 H 0.72582 0.42436 0.87927
 H2540 H 0.75622 0.41085 0.86595
 H2541 H 0.71386 0.44414 0.90781
 H2542 H 0.68271 0.45664 0.92047
 H2543 H 0.66363 0.39728 0.93184
 H2544 H 0.69493 0.38493 0.91967
 C2545 C 0.72216 0.88044 1.11940
 C2546 C 0.70691 0.87431 1.10693
 C2547 C 0.68957 0.86655 1.11469
 C2548 C 0.68708 0.86480 1.13509
 C2549 C 0.70229 0.87102 1.14755
 C2550 C 0.71963 0.87875 1.13980
 C2551 C 0.74071 0.88845 1.11122
 C2552 C 0.75888 0.88333 1.11954
 C2553 C 0.77634 0.89099 1.11202
 C2554 C 0.77606 0.90395 1.09598
 C2555 C 0.75791 0.90899 1.08757
 C2556 C 0.74042 0.90132 1.09510
 C2557 C 0.79465 0.91221 1.08815
 C2558 C 0.79764 0.91398 1.06782
 C2559 C 0.81528 0.92147 1.06049
 C2560 C 0.83028 0.92742 1.07334
 C2561 C 0.82723 0.92577 1.09367
 C2562 C 0.80962 0.91825 1.10098
 H2563 H 0.70850 0.87525 1.09115
 H2564 H 0.67804 0.86203 1.10473
 H2565 H 0.70092 0.86965 1.16332
 H2566 H 0.73101 0.88354 1.14980
 H2567 H 0.75962 0.87317 1.13173
 H2568 H 0.79010 0.88655 1.11859
 H2569 H 0.75719 0.91914 1.07537
 H2570 H 0.72665 0.90575 1.08854
 H2571 H 0.78645 0.90928 1.05755
 H2572 H 0.81715 0.92272 1.04476
 H2573 H 0.83859 0.93001 1.10393
 H2574 H 0.80767 0.91728 1.11672
 C2575 C 0.72114 0.38179 0.61905
 C2576 C 0.70751 0.37245 0.60679
 C2577 C 0.69024 0.36453 0.61451
 C2578 C 0.68594 0.36590 0.63477
 C2579 C 0.69966 0.37567 0.64688
 C2580 C 0.71701 0.38338 0.63914
 C2581 C 0.73976 0.38963 0.61098
 C2582 C 0.75758 0.38620 0.62074
 C2583 C 0.77518 0.39349 0.61317
 C2584 C 0.77535 0.40455 0.59575
 C2585 C 0.75747 0.40797 0.58599
 C2586 C 0.73988 0.40051 0.59348
 C2587 C 0.79409 0.41251 0.58787
 C2588 C 0.79765 0.41302 0.56755
 C2589 C 0.81536 0.42036 0.56022
 C2590 C 0.82997 0.42727 0.57304
 C2591 C 0.82640 0.42676 0.59335
 C2592 C 0.80867 0.41956 0.60066
 H2593 H 0.71034 0.37104 0.59122
 H2594 H 0.68003 0.35793 0.60431
 H2595 H 0.69766 0.37666 0.66259
 H2596 H 0.72726 0.39059 0.64891
 H2597 H 0.75794 0.37758 0.63409
 H2598 H 0.78869 0.39023 0.62086
 H2599 H 0.75702 0.41668 0.57272
 H2600 H 0.72631 0.40354 0.58578
 H2601 H 0.78685 0.40750 0.55729
 H2602 H 0.81754 0.42074 0.54449
 H2603 H 0.83743 0.43170 0.60367
 H2604 H 0.80633 0.41965 0.61638
 C2605 C 0.22148 0.88169 0.61918
 C2606 C 0.20629 0.87560 0.60661
 C2607 C 0.18893 0.86779 0.61426
 C2608 C 0.18635 0.86594 0.63464
 C2609 C 0.20148 0.87217 0.64720
 C2610 C 0.21883 0.87996 0.63956
 C2611 C 0.24009 0.88966 0.61110
 C2612 C 0.25820 0.88442 0.61948
 C2613 C 0.27573 0.89197 0.61201
 C2614 C 0.27558 0.90494 0.59598
 C2615 C 0.25748 0.91010 0.58752
 C2616 C 0.23993 0.90254 0.59500
 C2617 C 0.29425 0.91306 0.58820
 C2618 C 0.29729 0.91484 0.56787
 C2619 C 0.31501 0.92221 0.56059
 C2620 C 0.33003 0.92801 0.57348
 C2621 C 0.32693 0.92635 0.59380
 C2622 C 0.30925 0.91896 0.60107
 H2623 H 0.20796 0.87659 0.59084
 H2624 H 0.17746 0.86327 0.60422
 H2625 H 0.20003 0.87074 0.66296
 H2626 H 0.23016 0.88473 0.64963
 H2627 H 0.25883 0.87425 0.63166
 H2628 H 0.28945 0.88744 0.61863
 H2629 H 0.25687 0.92026 0.57533
 H2630 H 0.22620 0.90705 0.58839
 H2631 H 0.28609 0.91025 0.55758
 H2632 H 0.31692 0.92348 0.54487
 H2633 H 0.33830 0.93048 0.60410
 H2634 H 0.30726 0.91798 0.61680
 C2635 C 0.22191 0.37948 1.11954
 C2636 C 0.20817 0.37029 1.10729
 C2637 C 0.19081 0.36255 1.11502
 C2638 C 0.18654 0.36399 1.13528
 C2639 C 0.20048 0.37341 1.14742
 C2640 C 0.21790 0.38093 1.13966
 C2641 C 0.24044 0.38750 1.11141
 C2642 C 0.25834 0.38423 1.12108
 C2643 C 0.27580 0.39192 1.11357
 C2644 C 0.27574 0.40320 1.09629
 C2645 C 0.25779 0.40642 1.08660
 C2646 C 0.24035 0.39859 1.09405
 C2647 C 0.29433 0.41158 1.08847
 C2648 C 0.29782 0.41237 1.06815
 C2649 C 0.31540 0.42005 1.06086
 C2650 C 0.32995 0.42704 1.07371
 C2651 C 0.32641 0.42632 1.09402
 C2652 C 0.30881 0.41877 1.10130
 H2653 H 0.21093 0.36895 1.09170
 H2654 H 0.18049 0.35612 1.10482
 H2655 H 0.19851 0.37437 1.16313
 H2656 H 0.22824 0.38800 1.14945
 H2657 H 0.25887 0.37548 1.13434
 H2658 H 0.28939 0.38880 1.12119
 H2659 H 0.25716 0.41529 1.07344
 H2660 H 0.22671 0.40152 1.08643
 H2661 H 0.28710 0.40677 1.05785
 H2662 H 0.31755 0.42059 1.04513
 H2663 H 0.33740 0.43133 1.10435
 H2664 H 0.30650 0.41866 1.11702
 C2665 C 0.72049 1.11813 0.88265
 C2666 C 0.70693 1.12824 0.89441
 C2667 C 0.69001 1.13647 0.88621
 C2668 C 0.68598 1.13468 0.86594
 C2669 C 0.69968 1.12436 0.85428
 C2670 C 0.71665 1.11633 0.86250
 C2671 C 0.73868 1.10965 0.89127
 C2672 C 0.74619 1.09172 0.88435
 C2673 C 0.76365 1.08409 0.89192
 C2674 C 0.77391 1.09411 0.90671
 C2675 C 0.76627 1.11183 0.91392
 C2676 C 0.74889 1.11956 0.90623
 C2677 C 0.79274 1.08628 0.91429
 C2678 C 0.79666 1.08605 0.93452
 C2679 C 0.81450 1.07878 0.94159
 C2680 C 0.82889 1.07175 0.92855
 C2681 C 0.82493 1.07208 0.90829
 C2682 C 0.80703 1.07917 0.90126
 H2683 H 0.70920 1.12954 0.91008
 H2684 H 0.67978 1.14350 0.89608
 H2685 H 0.69796 1.12317 0.83855
 H2686 H 0.72703 1.10910 0.85289
 H2687 H 0.73851 1.08349 0.87314
 H2688 H 0.76907 1.07026 0.88630
 H2689 H 0.77402 1.11995 0.92517
 H2690 H 0.74371 1.13354 0.91169
 H2691 H 0.78580 1.09126 0.94489
 H2692 H 0.81695 1.07846 0.95728
 H2693 H 0.83581 1.06718 0.89781
 H2694 H 0.80450 1.07946 0.88557
 C2695 C 0.72005 0.61712 0.38222
 C2696 C 0.71783 0.61858 0.36176
 C2697 C 0.70085 0.62672 0.35367
 C2698 C 0.68567 0.63358 0.36583
 C2699 C 0.68787 0.63212 0.38629
 C2700 C 0.70487 0.62398 0.39439
 C2701 C 0.73824 0.60866 0.39074
 C2702 C 0.74704 0.61718 0.40735
 C2703 C 0.76451 0.60958 0.41496
 C2704 C 0.77358 0.59330 0.40613
 C2705 C 0.76463 0.58463 0.38970
 C2706 C 0.74717 0.59221 0.38210
 C2707 C 0.79249 0.58561 0.41377
 C2708 C 0.80738 0.57975 0.40075
 C2709 C 0.82525 0.57268 0.40785
 C2710 C 0.82867 0.57127 0.42814
 C2711 C 0.81380 0.57713 0.44118
 C2712 C 0.79590 0.58423 0.43407
 H2713 H 0.72940 0.61378 0.35200
 H2714 H 0.69976 0.62799 0.33787
 H2715 H 0.67633 0.63709 0.39601
 H2716 H 0.70604 0.62282 0.41020
 H2717 H 0.74067 0.63002 0.41417
 H2718 H 0.77119 0.61674 0.42747
 H2719 H 0.77108 0.57186 0.38278
 H2720 H 0.74057 0.58511 0.36951
 H2721 H 0.80534 0.58097 0.38504
 H2722 H 0.83655 0.56863 0.39744
 H2723 H 0.81591 0.57599 0.45688
 H2724 H 0.78462 0.58840 0.44445
 C2725 C 0.22186 1.11928 0.38058
 C2726 C 0.20803 1.10726 0.37122
 C2727 C 0.19094 1.11528 0.36319
 C2728 C 0.18703 1.13561 0.36450
 C2729 C 0.20098 1.14748 0.37424
 C2730 C 0.21813 1.13944 0.38204
 C2731 C 0.24026 1.11091 0.38863
 C2732 C 0.25827 1.12038 0.38538
 C2733 C 0.27563 1.11269 0.39308
 C2734 C 0.27538 1.09542 0.40437
 C2735 C 0.25733 1.08590 0.40753
 C2736 C 0.23997 1.09353 0.39968
 C2737 C 0.29388 1.08746 0.41281
 C2738 C 0.29725 1.06713 0.41359
 C2739 C 0.31479 1.05974 0.42125
 C2740 C 0.32942 1.07250 0.42824
 C2741 C 0.32600 1.09282 0.42754
 C2742 C 0.30843 1.10020 0.42000
 H2743 H 0.21056 1.09163 0.36989
 H2744 H 0.18054 1.10528 0.35656
 H2745 H 0.19930 1.16323 0.37516
 H2746 H 0.22853 1.14904 0.38927
 H2747 H 0.25896 1.13363 0.37664
 H2748 H 0.28930 1.12017 0.38998
 H2749 H 0.25656 1.07274 0.41639
 H2750 H 0.22625 1.08605 0.40257
 H2751 H 0.28646 1.05691 0.40799
 H2752 H 0.31687 1.04401 0.42177
 H2753 H 0.33704 1.10309 0.43253
 H2754 H 0.30622 1.11592 0.41991
 C2755 C 0.22074 0.61792 0.88142
 C2756 C 0.21817 0.61943 0.86101
 C2757 C 0.20084 0.62713 0.85322
 C2758 C 0.18568 0.63351 0.86565
 C2759 C 0.18818 0.63188 0.88606
 C2760 C 0.20551 0.62415 0.89386
 C2761 C 0.23933 0.61007 0.88966
 C2762 C 0.23912 0.59736 0.90589
 C2763 C 0.25665 0.58990 0.91352
 C2764 C 0.27477 0.59500 0.90507
 C2765 C 0.27497 0.60781 0.88892
 C2766 C 0.25746 0.61526 0.88130
 C2767 C 0.29342 0.58693 0.91297
 C2768 C 0.30843 0.58091 0.90017
 C2769 C 0.32606 0.57351 0.90753
 C2770 C 0.32911 0.57192 0.92787
 C2771 C 0.31408 0.57787 0.94068
 C2772 C 0.29641 0.58527 0.93332
 H2773 H 0.22953 0.61454 0.85104
 H2774 H 0.19944 0.62839 0.83744
 H2775 H 0.17668 0.63652 0.89600
 H2776 H 0.20712 0.62334 0.90964
 H2777 H 0.22537 0.59290 0.91249
 H2778 H 0.25600 0.57985 0.92581
 H2779 H 0.28871 0.61230 0.88231
 H2780 H 0.25813 0.62530 0.86901
 H2781 H 0.30649 0.58180 0.88443
 H2782 H 0.33744 0.56927 0.89728
 H2783 H 0.31595 0.57668 0.95642
 H2784 H 0.28520 0.58995 0.94355
 C2785 C 1.11686 1.27998 1.11687
 C2786 C 1.11858 1.28194 1.13733
 C2787 C 1.12668 1.29887 1.14554
 C2788 C 1.13324 1.31426 1.13350
 C2789 C 1.13152 1.31234 1.11303
 C2790 C 1.12341 1.29538 1.10481
 C2791 C 1.10851 1.26180 1.10825
 C2792 C 1.11700 1.25322 1.09153
 C2793 C 1.10960 1.23566 1.08393
 C2794 C 1.09354 1.22631 1.09289
 C2795 C 1.08484 1.23509 1.10939
 C2796 C 1.09223 1.25262 1.11698
 C2797 C 1.08614 1.20725 1.08535
 C2798 C 1.08063 1.19232 1.09845
 C2799 C 1.07377 1.17433 1.09147
 C2800 C 1.07223 1.17084 1.07120
 C2801 C 1.07777 1.18575 1.05807
 C2802 C 1.08466 1.20376 1.06507
 H2803 H 1.11402 1.27020 1.14700
 H2804 H 1.12819 1.29973 1.16133
 H2805 H 1.13627 1.32405 1.10340
 H2806 H 1.12207 1.29439 1.08900
 H2807 H 1.12971 1.25981 1.08462
 H2808 H 1.11677 1.22914 1.07135
 H2809 H 1.07222 1.22843 1.11640
 H2810 H 1.08514 1.25906 1.12966
 H2811 H 1.08195 1.19442 1.11415
 H2812 H 1.06997 1.16301 1.10195
 H2813 H 1.07652 1.18357 1.04238
 H2814 H 1.08857 1.21507 1.05462
 C2815 C 1.11896 0.77856 0.61774
 C2816 C 1.10649 0.79383 0.62381
 C2817 C 1.11425 0.81113 0.63161
 C2818 C 1.13465 0.81358 0.63348
 C2819 C 1.14712 0.79838 0.62726
 C2820 C 1.13937 0.78109 0.61948
 C2821 C 1.11076 0.75999 0.60984
 C2822 C 1.11905 0.74186 0.61510
 C2823 C 1.11146 0.72437 0.60761
 C2824 C 1.09539 0.72458 0.59468
 C2825 C 1.08701 0.74269 0.58950
 C2826 C 1.09462 0.76020 0.59699
 C2827 C 1.08749 0.70595 0.58660
 C2828 C 1.06715 0.70297 0.58490
 C2829 C 1.05977 0.68530 0.57754
 C2830 C 1.07259 0.67026 0.57165
 C2831 C 1.09293 0.67329 0.57326
 C2832 C 1.10029 0.69092 0.58065
 H2833 H 1.09071 0.79226 0.62282
 H2834 H 1.10428 0.82265 0.63611
 H2835 H 1.16289 0.79973 0.62871
 H2836 H 1.14937 0.76970 0.61473
 H2837 H 1.13126 0.74118 0.62525
 H2838 H 1.11801 0.71064 0.61217
 H2839 H 1.07479 0.74334 0.57936
 H2840 H 1.08808 0.77395 0.59245
 H2841 H 1.05691 0.71420 0.58954
 H2842 H 1.04403 0.68344 0.57632
 H2843 H 1.10318 0.66190 0.56906
 H2844 H 1.11604 0.69285 0.58157
 C2845 C 0.61904 1.27888 0.61770
 C2846 C 0.60657 1.29414 0.62379
 C2847 C 0.61435 1.31144 0.63160
 C2848 C 0.63475 1.31388 0.63341
 C2849 C 0.64721 1.29869 0.62716
 C2850 C 0.63944 1.28140 0.61939
 C2851 C 0.61084 1.26029 0.60983
 C2852 C 0.61916 1.24218 0.61511
 C2853 C 0.61162 1.22467 0.60761
 C2854 C 0.59558 1.22484 0.59465
 C2855 C 0.58715 1.24293 0.58946
 C2856 C 0.59470 1.26047 0.59697
 C2857 C 0.58776 1.20619 0.58655
 C2858 C 0.56743 1.20315 0.58481
 C2859 C 0.56012 1.18543 0.57748
 C2860 C 0.57300 1.17041 0.57167
 C2861 C 0.59333 1.17352 0.57329
 C2862 C 0.60062 1.19120 0.58064
 H2863 H 0.59079 1.29256 0.62284
 H2864 H 0.60440 1.32296 0.63615
 H2865 H 0.66298 1.30003 0.62860
 H2866 H 0.64943 1.27001 0.61462
 H2867 H 0.63136 1.24153 0.62527
 H2868 H 0.61821 1.21096 0.61216
 H2869 H 0.57494 1.24355 0.57931
 H2870 H 0.58813 1.27420 0.59244
 H2871 H 0.55715 1.21435 0.58941
 H2872 H 0.54439 1.18352 0.57625
 H2873 H 0.60362 1.16215 0.56915
 H2874 H 0.61636 1.19318 0.58158
 C2875 C 0.61850 0.77862 1.11780
 C2876 C 0.62000 0.78079 1.13825
 C2877 C 0.62802 0.79779 1.14638
 C2878 C 0.63473 0.81305 1.13425
 C2879 C 0.63328 0.81090 1.11379
 C2880 C 0.62524 0.79386 1.10565
 C2881 C 0.61004 0.76045 1.10924
 C2882 C 0.61850 0.75175 1.09256
 C2883 C 0.61087 0.73432 1.08490
 C2884 C 0.59463 0.72519 1.09376
 C2885 C 0.58601 0.73404 1.11028
 C2886 C 0.59363 0.75146 1.11792
 C2887 C 0.58689 0.70634 1.08607
 C2888 C 0.58111 0.69139 1.09904
 C2889 C 0.57395 0.67358 1.09189
 C2890 C 0.57238 0.67029 1.07159
 C2891 C 0.57818 0.68522 1.05860
 C2892 C 0.58537 0.70305 1.06576
 H2893 H 0.61527 0.76916 1.14800
 H2894 H 0.62927 0.79886 1.16218
 H2895 H 0.63811 0.82251 1.10408
 H2896 H 0.62405 0.79274 1.08985
 H2897 H 0.63131 0.75817 1.08570
 H2898 H 0.61798 0.72772 1.07232
 H2899 H 0.57327 0.72756 1.11722
 H2900 H 0.58656 0.75799 1.13056
 H2901 H 0.58244 0.69334 1.11475
 H2902 H 0.56997 0.66224 1.10227
 H2903 H 0.57692 0.68320 1.04289
 H2904 H 0.58948 0.71437 1.05541
 C2905 C 0.88128 1.27841 0.88122
 C2906 C 0.87498 1.29373 0.89349
 C2907 C 0.86696 1.31084 0.88551
 C2908 C 0.86505 1.31299 0.86509
 C2909 C 0.87138 1.29767 0.85283
 C2910 C 0.87940 1.28059 0.86080
 C2911 C 0.88969 1.26016 0.88965
 C2912 C 0.90590 1.25103 0.88076
 C2913 C 0.91354 1.23362 0.88839
 C2914 C 0.90514 1.22491 0.90510
 C2915 C 0.88905 1.23414 0.91412
 C2916 C 0.88141 1.25158 0.90648
 C2917 C 0.91295 1.20611 0.91287
 C2918 C 0.91462 1.20297 0.93320
 C2919 C 0.92185 1.18520 0.94044
 C2920 C 0.92757 1.17018 0.92753
 C2921 C 0.92589 1.17332 0.90722
 C2922 C 0.91867 1.19108 0.89998
 H2923 H 0.87650 1.29261 0.90927
 H2924 H 0.86249 1.32251 0.89532
 H2925 H 0.86982 1.29877 0.83705
 H2926 H 0.88382 1.26892 0.85097
 H2927 H 0.91281 1.25746 0.86798
 H2928 H 0.92615 1.22704 0.88131
 H2929 H 0.88209 1.22766 0.92684
 H2930 H 0.86875 1.25811 0.91350
 H2931 H 0.91058 1.21437 0.94350
 H2932 H 0.92321 1.18329 0.95616
 H2933 H 0.92983 1.16191 0.89690
 H2934 H 0.91722 1.19290 0.88426
 C2935 C 0.88107 0.77810 0.38067
 C2936 C 0.89353 0.79331 0.37444
 C2937 C 0.88574 0.81064 0.36672
 C2938 C 0.86532 0.81316 0.36514
 C2939 C 0.85288 0.79799 0.37148
 C2940 C 0.86066 0.78066 0.37915
 C2941 C 0.88927 0.75955 0.38862
 C2942 C 0.88089 0.74142 0.38351
 C2943 C 0.88837 0.72396 0.39116
 C2944 C 0.90442 0.72420 0.40412
 C2945 C 0.91291 0.74232 0.40912
 C2946 C 0.90542 0.75980 0.40146
 C2947 C 0.91217 0.70561 0.41240
 C2948 C 0.93249 0.70254 0.41419
 C2949 C 0.93974 0.68488 0.42168
 C2950 C 0.92682 0.66993 0.42760
 C2951 C 0.90650 0.67307 0.42595
 C2952 C 0.89926 0.69070 0.41844
 H2953 H 0.90932 0.79169 0.37526
 H2954 H 0.89569 0.82214 0.36211
 H2955 H 0.83710 0.79939 0.37024
 H2956 H 0.85068 0.76931 0.38403
 H2957 H 0.86866 0.74072 0.37337
 H2958 H 0.88174 0.71022 0.38674
 H2959 H 0.92513 0.74300 0.41927
 H2960 H 0.91203 0.77356 0.40587
 H2961 H 0.94281 0.71367 0.40950
 H2962 H 0.95546 0.68294 0.42294
 H2963 H 0.89618 0.66176 0.43017
 H2964 H 0.88353 0.69272 0.41746
 C2965 C 0.38022 1.27755 0.38049
 C2966 C 0.37394 1.29289 0.39276
 C2967 C 0.36597 1.31001 0.38477
 C2968 C 0.36408 1.31216 0.36434
 C2969 C 0.37037 1.29682 0.35209
 C2970 C 0.37835 1.27972 0.36007
 C2971 C 0.38865 1.25932 0.38894
 C2972 C 0.40489 1.25022 0.38007
 C2973 C 0.41261 1.23287 0.38778
 C2974 C 0.40426 1.22420 0.40453
 C2975 C 0.38812 1.23339 0.41351
 C2976 C 0.38041 1.25076 0.40580
 C2977 C 0.41220 1.20551 0.41242
 C2978 C 0.41388 1.20251 0.43277
 C2979 C 0.42125 1.18484 0.44013
 C2980 C 0.42711 1.16979 0.42731
 C2981 C 0.42541 1.17279 0.40698
 C2982 C 0.41804 1.19044 0.39962
 H2983 H 0.37546 1.29177 0.40853
 H2984 H 0.36154 1.32170 0.39457
 H2985 H 0.36883 1.29794 0.33631
 H2986 H 0.38276 1.26804 0.35025
 H2987 H 0.41178 1.25664 0.36727
 H2988 H 0.42526 1.22633 0.38073
 H2989 H 0.38119 1.22693 0.42626
 H2990 H 0.36771 1.25727 0.41280
 H2991 H 0.40975 1.21394 0.44299
 H2992 H 0.42262 1.18304 0.45586
 H2993 H 0.42945 1.16134 0.39674
 H2994 H 0.41659 1.19215 0.38389
 C2995 C 0.38240 0.77923 0.88273
 C2996 C 0.38085 0.78139 0.86228
 C2997 C 0.37286 0.79841 0.85417
 C2998 C 0.36621 0.81370 0.86631
 C2999 C 0.36775 0.81156 0.88676
 C3000 C 0.37576 0.79450 0.89489
 C3001 C 0.39075 0.76100 0.89126
 C3002 C 0.38222 0.75230 0.90791
 C3003 C 0.38969 0.73476 0.91549
 C3004 C 0.40584 0.72553 0.90657
 C3005 C 0.41454 0.73440 0.89011
 C3006 C 0.40709 0.75192 0.88255
 C3007 C 0.41336 0.70654 0.91414
 C3008 C 0.41902 0.69164 0.90107
 C3009 C 0.42599 0.67370 0.90809
 C3010 C 0.42750 0.67024 0.92836
 C3011 C 0.42183 0.68512 0.94146
 C3012 C 0.41483 0.70308 0.93443
 H3013 H 0.38550 0.76975 0.85253
 H3014 H 0.37154 0.79946 0.83837
 H3015 H 0.36297 0.82318 0.89648
 H3016 H 0.37698 0.79337 0.91069
 H3017 H 0.36946 0.75880 0.91480
 H3018 H 0.38251 0.72816 0.92803
 H3019 H 0.42722 0.72783 0.88314
 H3020 H 0.41420 0.75844 0.86993
 H3021 H 0.41772 0.69372 0.88537
 H3022 H 0.42988 0.66240 0.89763
 H3023 H 0.42305 0.68298 0.95716
 H3024 H 0.41081 0.71436 0.94486
 C3025 C 1.11854 0.72118 0.88161
 C3026 C 1.10603 0.70587 0.87571
 C3027 C 1.11375 0.68849 0.86805
 C3028 C 1.13415 0.68601 0.86616
 C3029 C 1.14665 0.70125 0.87221
 C3030 C 1.13893 0.71863 0.87984
 C3031 C 1.11038 0.73982 0.88939
 C3032 C 1.11865 0.75790 0.88395
 C3033 C 1.11113 0.77545 0.89135
 C3034 C 1.09514 0.77535 0.90438
 C3035 C 1.08677 0.75728 0.90974
 C3036 C 1.09431 0.73971 0.90233
 C3037 C 1.08735 0.79404 0.91241
 C3038 C 1.06702 0.79705 0.91427
 C3039 C 1.05974 0.81476 0.92163
 C3040 C 1.07263 0.82980 0.92735
 C3041 C 1.09295 0.82674 0.92557
 C3042 C 1.10022 0.80907 0.91819
 H3043 H 1.09025 0.70746 0.87673
 H3044 H 1.10376 0.67693 0.86369
 H3045 H 1.16241 0.69988 0.87074
 H3046 H 1.14896 0.73006 0.88447
 H3047 H 1.13081 0.75849 0.87373
 H3048 H 1.11767 0.78915 0.88667
 H3049 H 1.07461 0.75672 0.91996
 H3050 H 1.08778 0.72600 0.90700
 H3051 H 1.05672 0.78582 0.90977
 H3052 H 1.04402 0.81664 0.92298
 H3053 H 1.10326 0.83814 0.92963
 H3054 H 1.11596 0.80712 0.91715
 C3055 C 1.12072 0.22305 0.37942
 C3056 C 1.12266 0.22073 0.35902
 C3057 C 1.13044 0.20347 0.35118
 C3058 C 1.13646 0.18813 0.36356
 C3059 C 1.13443 0.19039 0.38396
 C3060 C 1.12664 0.20766 0.39181
 C3061 C 1.11264 0.24150 0.38774
 C3062 C 1.09965 0.24104 0.40376
 C3063 C 1.09198 0.25842 0.41148
 C3064 C 1.09713 0.27665 0.40334
 C3065 C 1.11018 0.27711 0.38738
 C3066 C 1.11786 0.25975 0.37968
 C3067 C 1.08885 0.29513 0.41136
 C3068 C 1.08279 0.31021 0.39867
 C3069 C 1.07514 0.32768 0.40616
 C3070 C 1.07338 0.33048 0.42652
 C3071 C 1.07939 0.31539 0.43922
 C3072 C 1.08700 0.29788 0.43172
 H3073 H 1.11801 0.23222 0.34908
 H3074 H 1.13197 0.20222 0.33541
 H3075 H 1.13874 0.17874 0.39386
 H3076 H 1.12550 0.20907 0.40759
 H3077 H 1.09513 0.22720 0.41011
 H3078 H 1.08175 0.25758 0.42360
 H3079 H 1.11469 0.29095 0.38101
 H3080 H 1.12810 0.26062 0.36756
 H3081 H 1.08383 0.30845 0.38292
 H3082 H 1.07086 0.33912 0.39601
 H3083 H 1.07807 0.31708 0.45497
 H3084 H 1.09171 0.28660 0.44187
 C3085 C 0.62010 0.72232 0.38068
 C3086 C 0.62617 0.70701 0.39310
 C3087 C 0.63376 0.68964 0.38528
 C3088 C 0.63541 0.68717 0.36487
 C3089 C 0.62932 0.70247 0.35246
 C3090 C 0.62175 0.71983 0.36027
 C3091 C 0.61210 0.74083 0.38894
 C3092 C 0.61717 0.75902 0.38066
 C3093 C 0.60947 0.77643 0.38824
 C3094 C 0.59653 0.77608 0.40429
 C3095 C 0.59155 0.75791 0.41267
 C3096 C 0.59924 0.74048 0.40507
 C3097 C 0.58821 0.79461 0.41218
 C3098 C 0.58643 0.79754 0.43252
 C3099 C 0.57882 0.81510 0.43989
 C3100 C 0.57276 0.83008 0.42709
 C3101 C 0.57444 0.82710 0.40675
 C3102 C 0.58207 0.80957 0.39938
 H3103 H 0.62527 0.70856 0.40889
 H3104 H 0.63817 0.67805 0.39521
 H3105 H 0.63059 0.70109 0.33668
 H3106 H 0.61700 0.73125 0.35031
 H3107 H 0.62730 0.75981 0.36845
 H3108 H 0.61387 0.79022 0.38168
 H3109 H 0.58140 0.75714 0.42487
 H3110 H 0.59483 0.72668 0.41160
 H3111 H 0.59119 0.78636 0.44275
 H3112 H 0.57756 0.81692 0.45563
 H3113 H 0.57011 0.83845 0.39651
 H3114 H 0.58305 0.80767 0.38364
 C3115 C 0.61926 0.22177 0.88148
 C3116 C 0.62513 0.20636 0.89387
 C3117 C 0.63283 0.18904 0.88602
 C3118 C 0.63477 0.18673 0.86562
 C3119 C 0.62879 0.20210 0.85324
 C3120 C 0.62111 0.21940 0.86108
 C3121 C 0.61136 0.24032 0.88975
 C3122 C 0.61666 0.25848 0.88155
 C3123 C 0.60906 0.27593 0.88910
 C3124 C 0.59599 0.27566 0.90504
 C3125 C 0.59080 0.25753 0.91337
 C3126 C 0.59839 0.24004 0.90580
 C3127 C 0.58774 0.29425 0.91285
 C3128 C 0.58591 0.29727 0.93317
 C3129 C 0.57842 0.31492 0.94045
 C3130 C 0.57252 0.32989 0.92757
 C3131 C 0.57423 0.32682 0.90725
 C3132 C 0.58176 0.30921 0.89998
 H3133 H 0.62406 0.20781 0.90965
 H3134 H 0.63717 0.17739 0.89592
 H3135 H 0.63032 0.20087 0.83747
 H3136 H 0.61650 0.23089 0.85113
 H3137 H 0.62691 0.25921 0.86943
 H3138 H 0.61362 0.28969 0.88260
 H3139 H 0.58056 0.25683 0.92550
 H3140 H 0.59382 0.22627 0.91227
 H3141 H 0.59056 0.28608 0.94345
 H3142 H 0.57713 0.31681 0.95618
 H3143 H 0.57003 0.33816 0.89696
 H3144 H 0.58278 0.30725 0.88424
 C3145 C 0.88312 0.72108 1.11888
 C3146 C 0.87704 0.70585 1.10636
 C3147 C 0.86918 0.68854 1.11407
 C3148 C 0.86728 0.68607 1.13446
 C3149 C 0.87354 0.70122 1.14697
 C3150 C 0.88137 0.71851 1.13926
 C3151 C 0.89103 0.73968 1.11074
 C3152 C 0.88576 0.75777 1.11909
 C3153 C 0.89326 0.77530 1.11159
 C3154 C 0.90620 0.77516 1.09554
 C3155 C 0.91139 0.75708 1.08708
 C3156 C 0.90389 0.73953 1.09461
 C3157 C 0.91427 0.79383 1.08773
 C3158 C 0.91596 0.79690 1.06740
 C3159 C 0.92325 0.81463 1.06010
 C3160 C 0.92908 0.82964 1.07298
 C3161 C 0.92751 0.82651 1.09330
 C3162 C 0.92020 0.80882 1.10059
 H3163 H 0.87804 0.70746 1.09059
 H3164 H 0.86463 0.67706 1.10409
 H3165 H 0.87204 0.69985 1.16273
 H3166 H 0.88614 0.72987 1.14930
 H3167 H 0.87560 0.75841 1.13129
 H3168 H 0.88870 0.78900 1.11819
 H3169 H 0.92153 0.75649 1.07487
 H3170 H 0.90842 0.72582 1.08801
 H3171 H 0.91135 0.78570 1.05712
 H3172 H 0.92444 0.81656 1.04437
 H3173 H 0.93167 0.83788 1.10359
 H3174 H 0.91929 0.80682 1.11632
 C3175 C 0.88111 0.22194 0.61971
 C3176 C 0.89332 0.20657 0.62606
 C3177 C 0.88525 0.18948 0.63401
 C3178 C 0.86480 0.18738 0.63582
 C3179 C 0.85261 0.20275 0.62947
 C3180 C 0.86067 0.21982 0.62151
 C3181 C 0.88963 0.24015 0.61132
 C3182 C 0.88085 0.24926 0.59504
 C3183 C 0.88860 0.26661 0.58737
 C3184 C 0.90531 0.27527 0.59581
 C3185 C 0.91422 0.26606 0.61197
 C3186 C 0.90647 0.24869 0.61964
 C3187 C 0.91321 0.29400 0.58795
 C3188 C 0.93355 0.29703 0.58632
 C3189 C 0.94091 0.31472 0.57896
 C3190 C 0.92807 0.32974 0.57307
 C3191 C 0.90773 0.32671 0.57475
 C3192 C 0.90039 0.30905 0.58210
 H3193 H 0.90911 0.20765 0.62460
 H3194 H 0.89501 0.17777 0.63849
 H3195 H 0.83682 0.20167 0.63095
 H3196 H 0.85090 0.23153 0.61706
 H3197 H 0.86807 0.24285 0.58809
 H3198 H 0.88160 0.27316 0.57470
 H3199 H 0.92695 0.27252 0.61896
 H3200 H 0.91341 0.24216 0.63235
 H3201 H 0.94379 0.28562 0.59047
 H3202 H 0.95664 0.31654 0.57763
 H3203 H 0.89748 0.33814 0.57069
 H3204 H 0.88466 0.30731 0.58351
 C3205 C 0.38128 0.72206 0.62029
 C3206 C 0.37937 0.71951 0.64067
 C3207 C 0.37146 0.70221 0.64832
 C3208 C 0.36527 0.68708 0.63577
 C3209 C 0.36731 0.68956 0.61540
 C3210 C 0.37524 0.70685 0.60774
 C3211 C 0.38936 0.74060 0.61217
 C3212 C 0.40227 0.74032 0.59608
 C3213 C 0.40985 0.75779 0.58847
 C3214 C 0.40470 0.77594 0.59679
 C3215 C 0.39175 0.77622 0.61284
 C3216 C 0.38417 0.75876 0.62043
 C3217 C 0.41281 0.79452 0.58882
 C3218 C 0.41881 0.80959 0.60155
 C3219 C 0.42625 0.82717 0.59410
 C3220 C 0.42786 0.83010 0.57375
 C3221 C 0.42192 0.81502 0.56101
 C3222 C 0.41451 0.79741 0.56846
 H3223 H 0.38410 0.73085 0.65073
 H3224 H 0.36991 0.70081 0.66407
 H3225 H 0.36287 0.67807 0.60537
 H3226 H 0.37635 0.70844 0.59197
 H3227 H 0.40677 0.72655 0.58956
 H3228 H 0.42001 0.75708 0.57627
 H3229 H 0.38724 0.78998 0.61936
 H3230 H 0.37398 0.75950 0.63261
 H3231 H 0.41789 0.80774 0.61730
 H3232 H 0.43049 0.83860 0.60429
 H3233 H 0.42313 0.81680 0.54527
 H3234 H 0.40983 0.78614 0.55829
 C3235 C 0.38341 0.22047 1.11765
 C3236 C 0.36296 0.21826 1.11914
 C3237 C 0.35486 0.20119 1.12705
 C3238 C 0.36703 0.18591 1.13365
 C3239 C 0.38749 0.18809 1.13215
 C3240 C 0.39559 0.20519 1.12423
 C3241 C 0.39194 0.23876 1.10943
 C3242 C 0.40856 0.24743 1.11805
 C3243 C 0.41615 0.26501 1.11068
 C3244 C 0.40728 0.27429 1.09455
 C3245 C 0.39084 0.26546 1.08576
 C3246 C 0.38326 0.24790 1.09311
 C3247 C 0.41487 0.29331 1.08711
 C3248 C 0.40179 0.30822 1.08150
 C3249 C 0.40883 0.32615 1.07454
 C3250 C 0.42911 0.32960 1.07300
 C3251 C 0.44220 0.31472 1.07869
 C3252 C 0.43516 0.29676 1.08568
 H3253 H 0.35319 0.22991 1.11453
 H3254 H 0.33906 0.20009 1.12834
 H3255 H 0.39722 0.17646 1.13687
 H3256 H 0.41140 0.20636 1.12304
 H3257 H 0.41541 0.24088 1.13080
 H3258 H 0.42867 0.27158 1.11792
 H3259 H 0.38390 0.27207 1.07309
 H3260 H 0.37066 0.24140 1.08593
 H3261 H 0.38609 0.30615 1.08279
 H3262 H 0.39837 0.33746 1.07064
 H3263 H 0.45790 0.31686 1.07746
 H3264 H 0.44559 0.28547 1.08968
 C3265 C 1.11803 1.11913 0.72082
 C3266 C 1.11976 1.13953 0.71842
 C3267 C 1.12754 1.14739 0.70116
 C3268 C 1.13377 1.13503 0.68589
 C3269 C 1.13191 1.11463 0.68820
 C3270 C 1.12410 1.10676 0.70547
 C3271 C 1.11015 1.11083 0.73937
 C3272 C 1.09730 1.09469 0.73910
 C3273 C 1.08980 1.08704 0.75660
 C3274 C 1.09497 1.09537 0.77475
 C3275 C 1.10792 1.11141 0.77501
 C3276 C 1.11542 1.11904 0.75754
 C3277 C 1.08684 1.08746 0.79337
 C3278 C 1.08090 1.10024 0.80841
 C3279 C 1.07350 1.09287 0.82605
 C3280 C 1.07187 1.07255 0.82906
 C3281 C 1.07774 1.05975 0.81399
 C3282 C 1.08511 1.06713 0.79632
 H3283 H 1.11500 1.14946 0.72987
 H3284 H 1.12900 1.16315 0.69992
 H3285 H 1.13644 1.10475 0.67662
 H3286 H 1.12312 1.09098 0.70694
 H3287 H 1.09277 1.08820 0.72533
 H3288 H 1.07965 1.07484 0.75591
 H3289 H 1.11247 1.11791 0.78878
 H3290 H 1.12558 1.13124 0.75827
 H3291 H 1.08184 1.11598 0.80651
 H3292 H 1.06933 1.10311 0.83746
 H3293 H 1.07650 1.04402 0.81583
 H3294 H 1.08973 1.05691 0.78507
 C3295 C 1.11734 0.61892 0.22039
 C3296 C 1.11578 0.63902 0.21641
 C3297 C 1.12357 0.64691 0.19918
 C3298 C 1.13341 0.63491 0.18540
 C3299 C 1.13476 0.61463 0.18954
 C3300 C 1.12674 0.60677 0.20671
 C3301 C 1.10943 0.61073 0.23893
 C3302 C 1.09853 0.59324 0.23891
 C3303 C 1.09095 0.58568 0.25641
 C3304 C 1.09424 0.59537 0.27434
 C3305 C 1.10532 0.61278 0.27431
 C3306 C 1.11275 0.62040 0.25681
 C3307 C 1.08613 0.58745 0.29300
 C3308 C 1.07898 0.60020 0.30755
 C3309 C 1.07172 0.59285 0.32524
 C3310 C 1.07124 0.57254 0.32879
 C3311 C 1.07822 0.55976 0.31418
 C3312 C 1.08562 0.56713 0.29651
 H3313 H 1.10852 0.64872 0.22670
 H3314 H 1.12264 0.66263 0.19733
 H3315 H 1.14144 0.60453 0.17929
 H3316 H 1.12815 0.59119 0.20943
 H3317 H 1.09558 0.58560 0.22529
 H3318 H 1.08223 0.57242 0.25585
 H3319 H 1.10850 0.62040 0.28788
 H3320 H 1.12138 0.63374 0.25728
 H3321 H 1.07889 0.61591 0.30524
 H3322 H 1.06673 0.60313 0.33627
 H3323 H 1.07787 0.54404 0.31635
 H3324 H 1.09120 0.55690 0.28573
 C3325 C 0.61816 1.11919 0.22100
 C3326 C 0.62430 1.10685 0.20566
 C3327 C 0.63214 1.11474 0.18842
 C3328 C 0.63395 1.13515 0.18611
 C3329 C 0.62764 1.14748 0.20138
 C3330 C 0.61983 1.13960 0.21861
 C3331 C 0.61026 1.11087 0.23953
 C3332 C 0.61550 1.11907 0.25771
 C3333 C 0.60797 1.11142 0.27516
 C3334 C 0.59503 1.09538 0.27487
 C3335 C 0.58989 1.08706 0.25670
 C3336 C 0.59743 1.09473 0.23922
 C3337 C 0.58687 1.08746 0.29347
 C3338 C 0.58510 1.06712 0.29639
 C3339 C 0.57770 1.05973 0.31405
 C3340 C 0.57185 1.07252 0.32913
 C3341 C 0.57351 1.09285 0.32614
 C3342 C 0.58093 1.10023 0.30852
 H3343 H 0.62337 1.09106 0.20713
 H3344 H 0.63674 1.10488 0.17684
 H3345 H 0.62906 1.16325 0.20015
 H3346 H 0.61502 1.14951 0.23006
 H3347 H 0.62565 1.13127 0.25846
 H3348 H 0.61250 1.11792 0.28894
 H3349 H 0.57975 1.07486 0.25598
 H3350 H 0.59292 1.08825 0.22543
 H3351 H 0.58972 1.05691 0.28514
 H3352 H 0.57644 1.04401 0.31587
 H3353 H 0.56935 1.10307 0.33756
 H3354 H 0.58190 1.11596 0.30664
 C3355 C 0.61749 0.61889 0.72095
 C3356 C 0.61923 0.63927 0.71843
 C3357 C 0.62706 0.64702 0.70114
 C3358 C 0.63332 0.63456 0.68596
 C3359 C 0.63145 0.61417 0.68840
 C3360 C 0.62360 0.60642 0.70569
 C3361 C 0.60954 0.61069 0.73951
 C3362 C 0.59668 0.59457 0.73927
 C3363 C 0.58915 0.58697 0.75678
 C3364 C 0.59432 0.59533 0.77491
 C3365 C 0.60727 0.61137 0.77514
 C3366 C 0.61479 0.61896 0.75766
 C3367 C 0.58624 0.58741 0.79353
 C3368 C 0.58030 0.60018 0.80859
 C3369 C 0.57294 0.59280 0.82623
 C3370 C 0.57133 0.57247 0.82923
 C3371 C 0.57718 0.55969 0.81415
 C3372 C 0.58453 0.56708 0.79648
 H3373 H 0.61445 0.64927 0.72981
 H3374 H 0.62851 0.66277 0.69979
 H3375 H 0.63598 0.60421 0.67689
 H3376 H 0.62261 0.59065 0.70726
 H3377 H 0.59216 0.58805 0.72550
 H3378 H 0.57900 0.57476 0.75610
 H3379 H 0.61181 0.61791 0.78890
 H3380 H 0.62495 0.63116 0.75836
 H3381 H 0.58123 0.61592 0.80669
 H3382 H 0.56877 0.60302 0.83766
 H3383 H 0.57597 0.54396 0.81599
 H3384 H 0.58915 0.55687 0.78522
 C3385 C 0.88245 0.88175 0.72076
 C3386 C 0.87579 0.89399 0.70556
 C3387 C 0.86783 0.88597 0.68843
 C3388 C 0.86635 0.86553 0.68614
 C3389 C 0.87306 0.85331 0.70133
 C3390 C 0.88101 0.86132 0.71844
 C3391 C 0.89069 0.89021 0.73909
 C3392 C 0.90707 0.88157 0.74817
 C3393 C 0.91450 0.88917 0.76570
 C3394 C 0.90574 0.90559 0.77456
 C3395 C 0.88951 0.91439 0.76536
 C3396 C 0.88207 0.90679 0.74781
 C3397 C 0.91330 0.91327 0.79350
 C3398 C 0.91464 0.93357 0.79687
 C3399 C 0.92169 0.94072 0.81477
 C3400 C 0.92755 0.92773 0.82968
 C3401 C 0.92615 0.90744 0.82631
 C3402 C 0.91912 0.90030 0.80843
 H3403 H 0.87695 0.90978 0.70680
 H3404 H 0.86302 0.89575 0.67688
 H3405 H 0.87179 0.83752 0.70016
 H3406 H 0.88569 0.85151 0.73002
 H3407 H 0.91425 0.86900 0.74163
 H3408 H 0.92723 0.88227 0.77225
 H3409 H 0.88228 0.92690 0.77196
 H3410 H 0.86927 0.91361 0.74132
 H3411 H 0.91051 0.94393 0.78556
 H3412 H 0.92283 0.95643 0.81685
 H3413 H 0.93018 0.89706 0.83764
 H3414 H 0.91792 0.88459 0.80642
 C3415 C 0.88083 0.38109 0.22123
 C3416 C 0.86044 0.37924 0.21860
 C3417 C 0.85283 0.37151 0.20121
 C3418 C 0.86541 0.36544 0.18605
 C3419 C 0.88579 0.36741 0.18861
 C3420 C 0.89341 0.37516 0.20600
 C3421 C 0.88890 0.38899 0.23987
 C3422 C 0.90495 0.40195 0.23974
 C3423 C 0.91247 0.40941 0.25731
 C3424 C 0.90411 0.40408 0.27539
 C3425 C 0.88811 0.39105 0.27551
 C3426 C 0.88060 0.38360 0.25796
 C3427 C 0.91195 0.41210 0.29408
 C3428 C 0.89911 0.41787 0.30915
 C3429 C 0.90643 0.42525 0.32681
 C3430 C 0.92676 0.42702 0.32983
 C3431 C 0.93961 0.42130 0.31475
 C3432 C 0.93228 0.41395 0.29705
 H3433 H 0.85036 0.38389 0.22997
 H3434 H 0.83707 0.37001 0.19974
 H3435 H 0.89584 0.36304 0.17710
 H3436 H 0.90918 0.37624 0.20765
 H3437 H 0.91149 0.40658 0.22602
 H3438 H 0.92463 0.41962 0.25672
 H3439 H 0.88157 0.38640 0.28922
 H3440 H 0.86846 0.37337 0.25857
 H3441 H 0.88337 0.41683 0.30723
 H3442 H 0.89616 0.42931 0.33824
 H3443 H 0.95534 0.42265 0.31659
 H3444 H 0.94255 0.40945 0.28579
 C3445 C 0.37979 0.88042 0.22230
 C3446 C 0.37820 0.86001 0.21986
 C3447 C 0.37074 0.85213 0.20247
 C3448 C 0.36469 0.86448 0.18710
 C3449 C 0.36630 0.88489 0.18952
 C3450 C 0.37378 0.89277 0.20692
 C3451 C 0.38763 0.88873 0.24086
 C3452 C 0.40049 0.90485 0.24056
 C3453 C 0.40806 0.91248 0.25804
 C3454 C 0.40294 0.90415 0.27620
 C3455 C 0.38996 0.88812 0.27649
 C3456 C 0.38240 0.88051 0.25903
 C3457 C 0.41116 0.91203 0.29478
 C3458 C 0.41718 0.89924 0.30979
 C3459 C 0.42476 0.90660 0.32735
 C3460 C 0.42651 0.92692 0.33032
 C3461 C 0.42055 0.93973 0.31529
 C3462 C 0.41299 0.93236 0.29770
 H3463 H 0.38291 0.85009 0.23135
 H3464 H 0.36949 0.83636 0.20114
 H3465 H 0.36191 0.89477 0.17787
 H3466 H 0.37465 0.90856 0.20843
 H3467 H 0.40501 0.91134 0.22678
 H3468 H 0.41823 0.92467 0.25732
 H3469 H 0.38546 0.88161 0.29027
 H3470 H 0.37225 0.86831 0.25977
 H3471 H 0.41616 0.88351 0.30791
 H3472 H 0.42900 0.89637 0.33874
 H3473 H 0.42187 0.95545 0.31710
 H3474 H 0.40832 0.94259 0.28648
 C3475 C 0.38113 0.38076 0.72154
 C3476 C 0.37482 0.39316 0.70631
 C3477 C 0.36721 0.38531 0.68895
 C3478 C 0.36582 0.36490 0.68641
 C3479 C 0.37227 0.35252 0.70157
 C3480 C 0.37984 0.36035 0.71893
 C3481 C 0.38887 0.38902 0.74017
 C3482 C 0.38371 0.38058 0.75826
 C3483 C 0.39111 0.38816 0.77580
 C3484 C 0.40386 0.40437 0.77568
 C3485 C 0.40891 0.41292 0.75760
 C3486 C 0.40149 0.40533 0.74003
 C3487 C 0.41193 0.41219 0.79435
 C3488 C 0.41353 0.43252 0.79745
 C3489 C 0.42091 0.43982 0.81515
 C3490 C 0.42691 0.42695 0.83011
 C3491 C 0.42539 0.40664 0.82697
 C3492 C 0.41799 0.39935 0.80930
 H3493 H 0.37546 0.40894 0.70796
 H3494 H 0.36247 0.39521 0.67746
 H3495 H 0.37116 0.33674 0.70016
 H3496 H 0.38479 0.35042 0.73030
 H3497 H 0.37372 0.36824 0.75887
 H3498 H 0.38665 0.38147 0.78950
 H3499 H 0.41890 0.42525 0.75700
 H3500 H 0.40593 0.41200 0.72631
 H3501 H 0.40881 0.44279 0.78629
 H3502 H 0.42206 0.45554 0.81709
 H3503 H 0.42967 0.39635 0.83829
 H3504 H 0.41716 0.38362 0.80728
 C3505 C 1.11885 0.88224 1.27929
 C3506 C 1.11705 0.86207 1.28300
 C3507 C 1.12491 0.85379 1.30001
 C3508 C 1.13506 0.86539 1.31388
 C3509 C 1.13684 0.88568 1.30998
 C3510 C 1.12879 0.89394 1.29302
 C3511 C 1.11055 0.89093 1.26105
 C3512 C 1.12056 0.90594 1.25101
 C3513 C 1.11300 0.91368 1.23358
 C3514 C 1.09536 0.90648 1.22572
 C3515 C 1.08524 0.89165 1.23582
 C3516 C 1.09269 0.88403 1.25332
 C3517 C 1.08773 0.91411 1.20683
 C3518 C 1.08072 0.90111 1.19246
 C3519 C 1.07371 0.90818 1.17455
 C3520 C 1.07336 0.92844 1.17065
 C3521 C 1.08033 0.94144 1.18509
 C3522 C 1.08752 0.93434 1.20295
 H3523 H 1.10994 0.85251 1.27249
 H3524 H 1.12375 0.83806 1.30163
 H3525 H 1.14375 0.89551 1.32035
 H3526 H 1.13007 0.90962 1.29084
 H3527 H 1.13449 0.91139 1.25637
 H3528 H 1.12121 0.92496 1.22597
 H3529 H 1.07146 0.88605 1.23023
 H3530 H 1.08438 0.87278 1.26086
 H3531 H 1.08100 0.88543 1.19495
 H3532 H 1.06886 0.89772 1.16362
 H3533 H 1.08001 0.95713 1.18269
 H3534 H 1.09265 0.94468 1.21387
 C3535 C 1.11904 0.38139 0.77873
 C3536 C 1.11733 0.36129 0.78267
 C3537 C 1.12486 0.35336 0.80001
 C3538 C 1.13457 0.36530 0.81392
 C3539 C 1.13609 0.38558 0.80980
 C3540 C 1.12834 0.39348 0.79253
 C3541 C 1.11134 0.38965 0.76014
 C3542 C 1.10047 0.40715 0.76010
 C3543 C 1.09303 0.41473 0.74254
 C3544 C 1.09644 0.40506 0.72463
 C3545 C 1.10753 0.38767 0.72471
 C3546 C 1.11482 0.38001 0.74226
 C3547 C 1.08838 0.41296 0.70594
 C3548 C 1.08130 0.40018 0.69138
 C3549 C 1.07396 0.40750 0.67370
 C3550 C 1.07335 0.42781 0.67018
 C3551 C 1.08030 0.44061 0.68478
 C3552 C 1.08777 0.43328 0.70243
 H3553 H 1.11015 0.35164 0.77229
 H3554 H 1.12377 0.33765 0.80186
 H3555 H 1.14266 0.39566 0.82014
 H3556 H 1.12984 0.40907 0.78985
 H3557 H 1.09741 0.41476 0.77370
 H3558 H 1.08430 0.42799 0.74306
 H3559 H 1.11080 0.38006 0.71116
 H3560 H 1.12343 0.36666 0.74184
 H3561 H 1.08127 0.38447 0.69368
 H3562 H 1.06900 0.39719 0.66268
 H3563 H 1.07985 0.45634 0.68262
 H3564 H 1.09331 0.44353 0.71322
 C3565 C 0.61851 0.88216 0.77928
 C3566 C 0.61999 0.86171 0.78145
 C3567 C 0.62791 0.85358 0.79851
 C3568 C 0.63454 0.86570 0.81382
 C3569 C 0.63311 0.88615 0.81166
 C3570 C 0.62518 0.89429 0.79457
 C3571 C 0.61017 0.89071 0.76106
 C3572 C 0.61872 0.90734 0.75237
 C3573 C 0.61121 0.91499 0.73487
 C3574 C 0.59499 0.90615 0.72568
 C3575 C 0.58628 0.88969 0.73453
 C3576 C 0.59378 0.88207 0.75201
 C3577 C 0.58738 0.91382 0.70676
 C3578 C 0.58161 0.90084 0.69182
 C3579 C 0.57452 0.90796 0.67397
 C3580 C 0.57301 0.92824 0.67062
 C3581 C 0.57882 0.94125 0.68553
 C3582 C 0.58593 0.93412 0.70341
 H3583 H 0.61533 0.85198 0.76979
 H3584 H 0.62915 0.83778 0.79958
 H3585 H 0.63787 0.89585 0.82330
 H3586 H 0.62401 0.91009 0.79344
 H3587 H 0.63152 0.91418 0.75885
 H3588 H 0.61840 0.92753 0.72828
 H3589 H 0.57355 0.88278 0.72799
 H3590 H 0.58664 0.86946 0.75853
 H3591 H 0.58289 0.88513 0.69382
 H3592 H 0.57053 0.89756 0.66263
 H3593 H 0.57761 0.95695 0.68347
 H3594 H 0.59004 0.94448 0.71473
 C3595 C 0.61786 0.38270 1.28010
 C3596 C 0.61604 0.36252 1.28377
 C3597 C 0.62385 0.35421 1.30079
 C3598 C 0.63397 0.36578 1.31471
 C3599 C 0.63574 0.38608 1.31086
 C3600 C 0.62774 0.39438 1.29389
 C3601 C 0.60969 0.39141 1.26181
 C3602 C 0.61981 0.40639 1.25183
 C3603 C 0.61240 0.41412 1.23433
 C3604 C 0.59482 0.40693 1.22633
 C3605 C 0.58459 0.39214 1.23638
 C3606 C 0.59189 0.38453 1.25395
 C3607 C 0.58736 0.41451 1.20735
 C3608 C 0.58043 0.40149 1.19298
 C3609 C 0.57354 0.40851 1.17500
 C3610 C 0.57324 0.42875 1.17104
 C3611 C 0.58016 0.44179 1.18547
 C3612 C 0.58722 0.43473 1.20341
 H3613 H 0.60899 0.35298 1.27321
 H3614 H 0.62273 0.33846 1.30233
 H3615 H 0.64263 0.39588 1.32127
 H3616 H 0.62904 0.41006 1.29175
 H3617 H 0.63370 0.41183 1.25729
 H3618 H 0.62069 0.42537 1.22676
 H3619 H 0.57084 0.38654 1.23068
 H3620 H 0.58351 0.37330 1.26144
 H3621 H 0.58067 0.38581 1.19551
 H3622 H 0.56874 0.39803 1.16408
 H3623 H 0.57988 0.45747 1.18302
 H3624 H 0.59230 0.44510 1.21432
 C3625 C 0.88271 1.11781 1.27928
 C3626 C 0.86227 1.11952 1.28143
 C3627 C 0.85421 1.12748 1.29851
 C3628 C 0.86641 1.13390 1.31385
 C3629 C 0.88686 1.13219 1.31172
 C3630 C 0.89492 1.12424 1.29461
 C3631 C 0.89120 1.10947 1.26102
 C3632 C 0.90793 1.11790 1.25238
 C3633 C 0.91554 1.11038 1.23488
 C3634 C 0.90659 1.09426 1.22563
 C3635 C 0.89002 1.08568 1.23442
 C3636 C 0.88241 1.09320 1.25190
 C3637 C 0.91427 1.08662 1.20672
 C3638 C 0.90128 1.08091 1.19176
 C3639 C 0.90841 1.07380 1.17392
 C3640 C 0.92871 1.07222 1.17061
 C3641 C 0.94172 1.07797 1.18555
 C3642 C 0.93458 1.08510 1.20341
 H3643 H 0.85249 1.11503 1.26974
 H3644 H 0.83842 1.12894 1.29955
 H3645 H 0.89661 1.13678 1.32339
 H3646 H 0.91072 1.12287 1.29349
 H3647 H 0.91487 1.13061 1.25892
 H3648 H 0.92817 1.11747 1.22834
 H3649 H 0.88301 1.07304 1.22784
 H3650 H 0.86972 1.08617 1.25838
 H3651 H 0.88556 1.08225 1.19372
 H3652 H 0.89802 1.06984 1.16256
 H3653 H 0.95743 1.07670 1.18351
 H3654 H 0.94495 1.08915 1.21475
 C3655 C 0.88160 0.61982 0.77790
 C3656 C 0.87889 0.64014 0.77997
 C3657 C 0.87112 0.64789 0.79728
 C3658 C 0.86575 0.63546 0.81283
 C3659 C 0.86845 0.61514 0.81077
 C3660 C 0.87640 0.60740 0.79351
 C3661 C 0.88962 0.61162 0.75941
 C3662 C 0.90409 0.59694 0.75983
 C3663 C 0.91167 0.58931 0.74236
 C3664 C 0.90478 0.59606 0.72414
 C3665 C 0.89027 0.61069 0.72374
 C3666 C 0.88283 0.61845 0.74119
 C3667 C 0.91263 0.58786 0.70558
 C3668 C 0.89986 0.58297 0.69015
 C3669 C 0.90721 0.57540 0.67258
 C3670 C 0.92749 0.57269 0.67002
 C3671 C 0.94028 0.57759 0.68544
 C3672 C 0.93290 0.58501 0.70310
 H3673 H 0.88293 0.65006 0.76823
 H3674 H 0.86902 0.66359 0.79840
 H3675 H 0.86454 0.60526 0.82258
 H3676 H 0.87819 0.59167 0.79224
 H3677 H 0.90969 0.59153 0.77369
 H3678 H 0.92274 0.57794 0.74309
 H3679 H 0.88482 0.61629 0.70990
 H3680 H 0.87157 0.62963 0.74043
 H3681 H 0.88416 0.58486 0.69173
 H3682 H 0.89705 0.57192 0.66087
 H3683 H 0.95596 0.57554 0.68388
 H3684 H 0.94307 0.58880 0.71470
 C3685 C 0.38293 1.11887 0.77953
 C3686 C 0.37652 1.10643 0.79468
 C3687 C 0.36877 1.11423 0.81200
 C3688 C 0.36734 1.13463 0.81457
 C3689 C 0.37392 1.14706 0.79949
 C3690 C 0.38162 1.13927 0.78217
 C3691 C 0.39075 1.11065 0.76093
 C3692 C 0.38560 1.11909 0.74283
 C3693 C 0.39303 1.11153 0.72530
 C3694 C 0.40582 1.09536 0.72544
 C3695 C 0.41088 1.08682 0.74353
 C3696 C 0.40341 1.09438 0.76108
 C3697 C 0.41389 1.08753 0.70677
 C3698 C 0.41555 1.06721 0.70371
 C3699 C 0.42288 1.05990 0.68599
 C3700 C 0.42875 1.07277 0.67097
 C3701 C 0.42718 1.09308 0.67409
 C3702 C 0.41985 1.10037 0.69178
 H3703 H 0.37718 1.09065 0.79300
 H3704 H 0.36393 1.10431 0.82343
 H3705 H 0.37278 1.16284 0.80093
 H3706 H 0.38664 1.14923 0.77086
 H3707 H 0.37558 1.13140 0.74221
 H3708 H 0.38856 1.11820 0.71159
 H3709 H 0.42090 1.07451 0.74414
 H3710 H 0.40783 1.08772 0.77481
 H3711 H 0.41091 1.05693 0.71490
 H3712 H 0.42407 1.04418 0.68407
 H3713 H 0.43135 1.10336 0.66272
 H3714 H 0.41897 1.11610 0.69377
 C3715 C 0.38194 0.61941 1.27871
 C3716 C 0.37550 0.60702 1.29389
 C3717 C 0.36770 0.61487 1.31116
 C3718 C 0.36624 0.63528 1.31366
 C3719 C 0.37283 0.64766 1.29855
 C3720 C 0.38059 0.63982 1.28128
 C3721 C 0.38986 0.61113 1.26017
 C3722 C 0.38481 0.61951 1.24202
 C3723 C 0.39234 0.61188 1.22455
 C3724 C 0.40511 0.59569 1.22481
 C3725 C 0.41006 0.58722 1.24296
 C3726 C 0.40251 0.59486 1.26045
 C3727 C 0.41324 0.58776 1.20621
 C3728 C 0.41488 0.56742 1.20325
 C3729 C 0.42227 0.56002 1.18560
 C3730 C 0.42823 0.57279 1.17054
 C3731 C 0.42669 0.59313 1.17356
 C3732 C 0.41930 0.60052 1.19118
 H3733 H 0.37619 0.59123 1.29227
 H3734 H 0.36286 0.60498 1.32262
 H3735 H 0.37168 0.66344 1.29993
 H3736 H 0.38563 0.64975 1.26995
 H3737 H 0.37481 0.63183 1.24129
 H3738 H 0.38795 0.61850 1.21080
 H3739 H 0.42007 0.57491 1.24367
 H3740 H 0.40687 0.58824 1.27422
 H3741 H 0.41017 0.55721 1.21447
 H3742 H 0.42344 0.54429 1.18377
 H3743 H 0.43093 0.60335 1.16216
 H3744 H 0.41844 0.61626 1.19309
 C3745 C 1.11919 1.27807 0.88042
 C3746 C 1.13961 1.28054 0.87871
 C3747 C 1.14741 1.29790 0.87111
 C3748 C 1.13498 1.31318 0.86503
 C3749 C 1.11457 1.31077 0.86685
 C3750 C 1.10676 1.29341 0.87448
 C3751 C 1.11093 1.25948 0.88824
 C3752 C 1.09483 1.25970 0.90114
 C3753 C 1.08719 1.24218 0.90859
 C3754 C 1.09549 1.22406 0.90330
 C3755 C 1.11150 1.22385 0.89031
 C3756 C 1.11914 1.24135 0.88287
 C3757 C 1.08758 1.20544 0.91139
 C3758 C 1.10038 1.19038 0.91727
 C3759 C 1.09302 1.17279 0.92476
 C3760 C 1.07268 1.16984 0.92655
 C3761 C 1.05986 1.18490 0.92071
 C3762 C 1.06724 1.20253 0.91324
 H3763 H 1.14957 1.26909 0.88338
 H3764 H 1.16318 1.29925 0.86971
 H3765 H 1.10464 1.32237 0.86248
 H3766 H 1.09098 1.29188 0.87546
 H3767 H 1.08836 1.27345 0.90576
 H3768 H 1.07501 1.24284 0.91878
 H3769 H 1.11799 1.21011 0.88569
 H3770 H 1.13132 1.24067 0.87269
 H3771 H 1.11613 1.19226 0.91623
 H3772 H 1.10326 1.16138 0.92891
 H3773 H 1.04413 1.18310 0.92206
 H3774 H 1.05701 1.21378 0.90866
 C3775 C 1.11922 0.77760 0.37988
 C3776 C 1.12103 0.78013 0.35949
 C3777 C 1.12886 0.79743 0.35178
 C3778 C 1.13509 0.81260 0.36427
 C3779 C 1.13322 0.81011 0.38466
 C3780 C 1.12536 0.79282 0.39238
 C3781 C 1.11108 0.75912 0.38805
 C3782 C 1.09815 0.75949 0.40412
 C3783 C 1.09041 0.74206 0.41170
 C3784 C 1.09543 0.72389 0.40336
 C3785 C 1.10842 0.72352 0.38734
 C3786 C 1.11615 0.74093 0.37978
 C3787 C 1.08714 0.70536 0.41127
 C3788 C 1.08109 0.69033 0.39851
 C3789 C 1.07354 0.67278 0.40592
 C3790 C 1.07186 0.66984 0.42626
 C3791 C 1.07781 0.68489 0.43903
 C3792 C 1.08534 0.70247 0.43162
 H3793 H 1.11622 0.76878 0.34947
 H3794 H 1.13029 0.79882 0.33601
 H3795 H 1.13771 0.82162 0.39466
 H3796 H 1.12433 0.79124 0.40816
 H3797 H 1.09374 0.77328 0.41064
 H3798 H 1.08023 0.74284 0.42387
 H3799 H 1.11284 0.70973 0.38082
 H3800 H 1.12634 0.74012 0.36762
 H3801 H 1.08209 0.69219 0.38276
 H3802 H 1.06929 0.66138 0.39570
 H3803 H 1.07654 0.68310 0.45477
 H3804 H 1.09004 0.71370 0.44183
 C3805 C 0.61820 1.27885 0.38135
 C3806 C 0.60620 1.29258 0.37180
 C3807 C 0.61417 1.30968 0.36376
 C3808 C 0.63447 1.31372 0.36515
 C3809 C 0.64638 1.29987 0.37496
 C3810 C 0.63839 1.28271 0.38281
 C3811 C 0.60977 1.26049 0.38964
 C3812 C 0.61701 1.25266 0.40732
 C3813 C 0.60946 1.23515 0.41484
 C3814 C 0.59439 1.22515 0.40496
 C3815 C 0.58694 1.23307 0.38745
 C3816 C 0.59459 1.25050 0.37983
 C3817 C 0.58671 1.20634 0.41273
 C3818 C 0.56643 1.20264 0.41319
 C3819 C 0.55925 1.18485 0.42047
 C3820 C 0.57222 1.17032 0.42731
 C3821 C 0.59252 1.17405 0.42674
 C3822 C 0.59966 1.19189 0.41963
 H3823 H 0.59050 1.29031 0.37082
 H3824 H 0.60408 1.32004 0.35723
 H3825 H 0.66214 1.30165 0.37585
 H3826 H 0.64817 1.27222 0.38964
 H3827 H 0.62841 1.26015 0.41546
 H3828 H 0.61528 1.22951 0.42851
 H3829 H 0.57549 1.22553 0.37942
 H3830 H 0.58890 1.25592 0.36603
 H3831 H 0.55611 1.21363 0.40816
 H3832 H 0.54353 1.18258 0.42097
 H3833 H 0.60294 1.16305 0.43149
 H3834 H 0.61538 1.19424 0.41916
 C3835 C 0.61843 0.77813 0.88086
 C3836 C 0.61997 0.78075 0.86046
 C3837 C 0.62779 0.79804 0.85273
 C3838 C 0.63426 0.81312 0.86522
 C3839 C 0.63262 0.81056 0.88562
 C3840 C 0.62476 0.79326 0.89336
 C3841 C 0.61039 0.75960 0.88901
 C3842 C 0.59762 0.75986 0.90521
 C3843 C 0.58995 0.74238 0.91273
 C3844 C 0.59490 0.72427 0.90422
 C3845 C 0.60776 0.72401 0.88810
 C3846 C 0.61542 0.74147 0.88059
 C3847 C 0.58667 0.70568 0.91205
 C3848 C 0.58056 0.69074 0.89921
 C3849 C 0.57311 0.67312 0.90652
 C3850 C 0.57158 0.67000 0.92684
 C3851 C 0.57757 0.68497 0.93970
 C3852 C 0.58501 0.70263 0.93238
 H3853 H 0.61501 0.76947 0.85044
 H3854 H 0.62905 0.79949 0.83696
 H3855 H 0.63731 0.82200 0.89560
 H3856 H 0.62392 0.79161 0.90914
 H3857 H 0.59327 0.77362 0.91185
 H3858 H 0.57988 0.74307 0.92500
 H3859 H 0.61214 0.71027 0.88145
 H3860 H 0.62550 0.74075 0.86833
 H3861 H 0.58144 0.69273 0.88347
 H3862 H 0.56883 0.66178 0.89624
 H3863 H 0.57641 0.68305 0.95543
 H3864 H 0.58975 0.71378 0.94265
 C3865 C 0.88251 1.27889 1.11849
 C3866 C 0.88404 1.28296 1.13859
 C3867 C 0.87632 1.30028 1.14635
 C3868 C 0.86659 1.31403 1.13425
 C3869 C 0.86526 1.30978 1.11398
 C3870 C 0.87320 1.29253 1.10624
 C3871 C 0.89040 1.26031 1.11040
 C3872 C 0.90134 1.26023 1.09293
 C3873 C 0.90888 1.24269 1.08545
 C3874 C 0.90551 1.22481 1.09520
 C3875 C 0.89439 1.22493 1.11259
 C3876 C 0.88700 1.24248 1.12014
 C3877 C 0.91356 1.20612 1.08734
 C3878 C 0.92066 1.19159 1.10015
 C3879 C 0.92790 1.17387 1.09285
 C3880 C 0.92840 1.17028 1.07255
 C3881 C 0.92147 1.18487 1.05971
 C3882 C 0.91410 1.20255 1.06702
 H3883 H 0.89123 1.27271 1.14837
 H3884 H 0.87727 1.30224 1.16207
 H3885 H 0.85868 1.32000 1.10378
 H3886 H 0.87182 1.28974 1.09065
 H3887 H 0.90435 1.27381 1.08525
 H3888 H 0.91763 1.24318 1.07220
 H3889 H 0.89116 1.21141 1.12026
 H3890 H 0.87835 1.24208 1.13347
 H3891 H 0.92073 1.19394 1.11586
 H3892 H 0.93285 1.16287 1.10318
 H3893 H 0.92185 1.18266 1.04398
 H3894 H 0.90855 1.21332 1.05675
 C3895 C 0.88201 0.77907 0.61761
 C3896 C 0.86159 0.78128 0.61945
 C3897 C 0.85363 0.79834 0.62753
 C3898 C 0.86591 0.81361 0.63396
 C3899 C 0.88634 0.81143 0.63210
 C3900 C 0.89431 0.79435 0.62401
 C3901 C 0.89040 0.76081 0.60919
 C3902 C 0.90718 0.75215 0.61749
 C3903 C 0.91472 0.73466 0.60990
 C3904 C 0.90565 0.72544 0.59383
 C3905 C 0.88902 0.73425 0.58537
 C3906 C 0.88149 0.75172 0.59296
 C3907 C 0.91327 0.70655 0.58611
 C3908 C 0.90025 0.69158 0.58048
 C3909 C 0.90734 0.67372 0.57338
 C3910 C 0.92763 0.67040 0.57173
 C3911 C 0.94067 0.68536 0.57735
 C3912 C 0.93357 0.70324 0.58446
 H3913 H 0.85174 0.76965 0.61498
 H3914 H 0.83785 0.79944 0.62909
 H3915 H 0.89617 0.82305 0.63666
 H3916 H 0.91009 0.79319 0.62254
 H3917 H 0.91422 0.75865 0.63017
 H3918 H 0.92738 0.72810 0.61690
 H3919 H 0.88191 0.72769 0.57277
 H3920 H 0.86875 0.75822 0.58602
 H3921 H 0.88454 0.69354 0.58191
 H3922 H 0.89693 0.66236 0.56952
 H3923 H 0.95638 0.68332 0.57601
 H3924 H 0.94397 0.71458 0.58843
 C3925 C 0.38237 1.27959 0.61738
 C3926 C 0.39422 1.29327 0.62720
 C3927 C 0.38608 1.31019 0.63543
 C3928 C 0.36576 1.31412 0.63395
 C3929 C 0.35402 1.30036 0.62381
 C3930 C 0.36218 1.28337 0.61578
 C3931 C 0.39094 1.26131 0.60905
 C3932 C 0.38385 1.25352 0.59130
 C3933 C 0.39142 1.23601 0.58383
 C3934 C 0.40637 1.22596 0.59383
 C3935 C 0.41372 1.23386 0.61138
 C3936 C 0.40603 1.25129 0.61896
 C3937 C 0.41399 1.20708 0.58617
 C3938 C 0.43424 1.20326 0.58584
 C3939 C 0.44134 1.18539 0.57872
 C3940 C 0.42833 1.17087 0.57194
 C3941 C 0.40805 1.17472 0.57238
 C3942 C 0.40097 1.19265 0.57932
 H3943 H 0.40992 1.29106 0.62830
 H3944 H 0.39604 1.32050 0.64225
 H3945 H 0.33827 1.30202 0.62282
 H3946 H 0.35251 1.27292 0.60873
 H3947 H 0.37253 1.26104 0.58308
 H3948 H 0.38569 1.23038 0.57011
 H3949 H 0.42507 1.22628 0.61951
 H3950 H 0.41161 1.25667 0.63282
 H3951 H 0.44460 1.21423 0.59084
 H3952 H 0.45705 1.18302 0.57831
 H3953 H 0.39758 1.16374 0.56768
 H3954 H 0.38527 1.19510 0.57970
 C3955 C 0.38198 0.77847 1.11894
 C3956 C 0.38354 0.78248 1.13905
 C3957 C 0.37582 0.79976 1.14689
 C3958 C 0.36604 0.81354 1.13485
 C3959 C 0.36470 0.80937 1.11456
 C3960 C 0.37264 0.79215 1.10675
 C3961 C 0.38984 0.75991 1.11078
 C3962 C 0.40072 0.75987 1.09327
 C3963 C 0.40824 0.74234 1.08573
 C3964 C 0.40491 0.72445 1.09546
 C3965 C 0.39385 0.72453 1.11288
 C3966 C 0.38648 0.74206 1.12049
 C3967 C 0.41296 0.70577 1.08755
 C3968 C 0.42013 0.69125 1.10033
 C3969 C 0.42738 0.67355 1.09300
 C3970 C 0.42782 0.66997 1.07269
 C3971 C 0.42082 0.68455 1.05988
 C3972 C 0.41343 0.70222 1.06723
 H3973 H 0.39076 0.77220 1.14878
 H3974 H 0.37680 0.80168 1.16261
 H3975 H 0.35810 0.81961 1.10441
 H3976 H 0.37124 0.78942 1.09116
 H3977 H 0.40371 0.77346 1.08561
 H3978 H 0.41695 0.74286 1.07245
 H3979 H 0.39065 0.71099 1.12054
 H3980 H 0.37786 0.74163 1.13384
 H3981 H 0.42025 0.69358 1.11604
 H3982 H 0.43239 0.66255 1.10330
 H3983 H 0.42114 0.68235 1.04415
 H3984 H 0.40784 0.71299 1.05698
 C3985 C 0.88166 0.72117 0.88201
 C3986 C 0.86121 0.71890 0.88042
 C3987 C 0.85322 0.70189 0.87226
 C3988 C 0.86547 0.68675 0.86550
 C3989 C 0.88592 0.68899 0.86713
 C3990 C 0.89392 0.70602 0.87530
 C3991 C 0.89010 0.73938 0.89048
 C3992 C 0.90674 0.74817 0.88202
 C3993 C 0.91438 0.76559 0.88969
 C3994 C 0.90553 0.77461 0.90599
 C3995 C 0.88903 0.76570 0.91458
 C3996 C 0.88141 0.74829 0.90692
 C3997 C 0.91327 0.79342 0.91381
 C3998 C 0.90033 0.80832 0.91976
 C3999 C 0.90754 0.82611 0.92693
 C4000 C 0.92785 0.82941 0.92834
 C4001 C 0.94080 0.81451 0.92240
 C4002 C 0.93359 0.79670 0.91521
 H4003 H 0.85139 0.73044 0.88515
 H4004 H 0.83742 0.70074 0.87089
 H4005 H 0.89573 0.67747 0.86231
 H4006 H 0.90972 0.70722 0.87658
 H4007 H 0.91360 0.74181 0.86918
 H4008 H 0.92693 0.77224 0.88258
 H4009 H 0.88210 0.77212 0.92736
 H4010 H 0.86878 0.74170 0.91397
 H4011 H 0.88461 0.80638 0.91852
 H4012 H 0.89718 0.83744 0.93104
 H4013 H 0.95653 0.81653 0.92354
 H4014 H 0.94392 0.78540 0.91099
 C4015 C 0.88253 0.22043 0.38224
 C4016 C 0.86209 0.21821 0.38054
 C4017 C 0.85409 0.20116 0.37248
 C4018 C 0.86633 0.18592 0.36593
 C4019 C 0.88678 0.18813 0.36760
 C4020 C 0.89479 0.20521 0.37566
 C4021 C 0.89095 0.23866 0.39070
 C4022 C 0.90763 0.24742 0.38230
 C4023 C 0.91518 0.26490 0.38994
 C4024 C 0.90622 0.27399 0.40614
 C4025 C 0.88970 0.26507 0.41469
 C4026 C 0.88216 0.24761 0.40706
 C4027 C 0.91383 0.29287 0.41389
 C4028 C 0.90079 0.30775 0.41972
 C4029 C 0.90787 0.32560 0.42684
 C4030 C 0.92816 0.32901 0.42831
 C4031 C 0.94122 0.31415 0.42251
 C4032 C 0.93413 0.29627 0.41537
 H4033 H 0.85227 0.22981 0.38514
 H4034 H 0.83830 0.20005 0.37105
 H4035 H 0.89657 0.17654 0.36291
 H4036 H 0.91058 0.20639 0.37701
 H4037 H 0.91458 0.24102 0.36953
 H4038 H 0.92776 0.27155 0.38287
 H4039 H 0.88269 0.27152 0.42740
 H4040 H 0.86950 0.24103 0.41407
 H4041 H 0.88508 0.30572 0.41842
 H4042 H 0.89745 0.33690 0.43085
 H4043 H 0.95693 0.31626 0.42371
 H4044 H 0.94454 0.28500 0.41125
 C4045 C 0.38209 0.72052 0.38299
 C4046 C 0.39404 0.70688 0.37322
 C4047 C 0.38597 0.68997 0.36487
 C4048 C 0.36564 0.68603 0.36616
 C4049 C 0.35381 0.69975 0.37624
 C4050 C 0.36189 0.71672 0.38440
 C4051 C 0.39058 0.73877 0.39144
 C4052 C 0.38339 0.74646 0.40920
 C4053 C 0.39091 0.76395 0.41680
 C4054 C 0.40591 0.77407 0.40692
 C4055 C 0.41333 0.76627 0.38936
 C4056 C 0.40571 0.74886 0.38166
 C4057 C 0.41350 0.79290 0.41472
 C4058 C 0.43375 0.79675 0.41505
 C4059 C 0.44084 0.81462 0.42222
 C4060 C 0.42781 0.82909 0.42906
 C4061 C 0.40754 0.82519 0.42868
 C4062 C 0.40048 0.80727 0.42168
 H4063 H 0.40974 0.70910 0.37226
 H4064 H 0.39599 0.67970 0.35811
 H4065 H 0.33804 0.69807 0.37708
 H4066 H 0.35217 0.72714 0.39141
 H4067 H 0.37203 0.73889 0.41732
 H4068 H 0.38512 0.76950 0.43052
 H4069 H 0.42472 0.77390 0.38132
 H4070 H 0.41136 0.74355 0.36780
 H4071 H 0.44412 0.78584 0.40998
 H4072 H 0.45654 0.81702 0.42258
 H4073 H 0.39706 0.83613 0.43345
 H4074 H 0.38478 0.80480 0.42131
 C4075 C 0.38312 0.21980 0.88393
 C4076 C 0.36292 0.21600 0.88532
 C4077 C 0.35486 0.19902 0.87717
 C4078 C 0.36672 0.18529 0.86714
 C4079 C 0.38705 0.18923 0.86589
 C4080 C 0.39509 0.20615 0.87422
 C4081 C 0.39157 0.23809 0.89232
 C4082 C 0.40667 0.24819 0.88250
 C4083 C 0.41422 0.26566 0.89011
 C4084 C 0.40676 0.27352 0.90764
 C4085 C 0.39181 0.26338 0.91757
 C4086 C 0.38436 0.24583 0.91005
 C4087 C 0.41424 0.29243 0.91533
 C4088 C 0.40113 0.30676 0.92220
 C4089 C 0.40809 0.32476 0.92909
 C4090 C 0.42833 0.32878 0.92944
 C4091 C 0.44145 0.31436 0.92268
 C4092 C 0.43447 0.29641 0.91563
 H4093 H 0.35318 0.22643 0.89228
 H4094 H 0.33909 0.19734 0.87799
 H4095 H 0.39708 0.17894 0.85917
 H4096 H 0.41080 0.20838 0.87329
 H4097 H 0.41234 0.24284 0.86866
 H4098 H 0.42557 0.27331 0.88204
 H4099 H 0.38599 0.26897 0.93126
 H4100 H 0.37303 0.23825 0.91820
 H4101 H 0.38545 0.30420 0.92184
 H4102 H 0.39755 0.33567 0.93380
 H4103 H 0.45714 0.31686 0.92304
 H4104 H 0.44490 0.28552 0.91062
 C4105 C 1.11978 0.72161 1.11838
 C4106 C 1.13989 0.71745 1.11705
 C4107 C 1.14750 0.70009 1.12484
 C4108 C 1.13524 0.68640 1.13446
 C4109 C 1.11497 0.69074 1.13560
 C4110 C 1.10739 0.70803 1.12760
 C4111 C 1.11180 0.74019 1.11037
 C4112 C 1.09436 0.74027 1.09938
 C4113 C 1.08689 0.75781 1.09182
 C4114 C 1.09663 0.77569 1.09521
 C4115 C 1.11404 0.77557 1.10632
 C4116 C 1.12157 0.75802 1.11374
 C4117 C 1.08873 0.79439 1.08720
 C4118 C 1.10149 0.80895 1.08009
 C4119 C 1.09414 0.82663 1.07283
 C4120 C 1.07381 0.83017 1.07235
 C4121 C 1.06103 0.81556 1.07933
 C4122 C 1.06840 0.79791 1.08671
 H4123 H 1.14977 0.72766 1.10994
 H4124 H 1.16322 0.69803 1.12402
 H4125 H 1.10465 0.68055 1.14201
 H4126 H 1.09180 0.71087 1.12882
 H4127 H 1.08666 0.72670 1.09637
 H4128 H 1.07364 0.75732 1.08306
 H4129 H 1.12171 0.78909 1.10955
 H4130 H 1.13488 0.75842 1.12242
 H4131 H 1.11721 0.80664 1.07999
 H4132 H 1.10442 0.83766 1.06783
 H4133 H 1.04529 0.81773 1.07898
 H4134 H 1.05816 0.78712 1.09229
 C4135 C 1.11951 0.22155 0.61805
 C4136 C 1.10725 0.20798 0.62747
 C4137 C 1.11497 0.19073 0.63544
 C4138 C 1.13522 0.18640 0.63403
 C4139 C 1.14733 0.20008 0.62421
 C4140 C 1.13960 0.21740 0.61647
 C4141 C 1.11143 0.24011 0.61011
 C4142 C 1.12122 0.25794 0.61338
 C4143 C 1.11365 0.27547 0.60596
 C4144 C 1.09619 0.27557 0.59494
 C4145 C 1.08641 0.25769 0.59167
 C4146 C 1.09391 0.24017 0.59924
 C4147 C 1.08829 0.29426 0.58689
 C4148 C 1.06796 0.29780 0.58641
 C4149 C 1.06059 0.31546 0.57902
 C4150 C 1.07338 0.33005 0.57202
 C4151 C 1.09370 0.32649 0.57247
 C4152 C 1.10105 0.30880 0.57972
 H4153 H 1.09168 0.21082 0.62890
 H4154 H 1.10475 0.18057 0.64209
 H4155 H 1.16304 0.19806 0.62320
 H4156 H 1.14938 0.22760 0.60920
 H4157 H 1.13459 0.25835 0.62197
 H4158 H 1.12135 0.28900 0.60911
 H4159 H 1.07312 0.25718 0.58299
 H4160 H 1.08619 0.22659 0.59632
 H4161 H 1.05771 0.28703 0.59201
 H4162 H 1.04486 0.31763 0.57869
 H4163 H 1.10400 0.33750 0.56746
 H4164 H 1.11677 0.30647 0.57960
 C4165 C 0.61899 0.72130 0.61791
 C4166 C 0.63938 0.71867 0.61961
 C4167 C 0.64705 0.70132 0.62735
 C4168 C 0.63452 0.68618 0.63356
 C4169 C 0.61413 0.68873 0.63172
 C4170 C 0.60645 0.70609 0.62396
 C4171 C 0.61088 0.73993 0.61005
 C4172 C 0.59472 0.73982 0.59723
 C4173 C 0.58719 0.75739 0.58979
 C4174 C 0.59567 0.77545 0.59501
 C4175 C 0.61176 0.77555 0.60791
 C4176 C 0.61927 0.75800 0.61535
 C4177 C 0.58784 0.79414 0.58700
 C4178 C 0.60070 0.80913 0.58106
 C4179 C 0.59340 0.82681 0.57374
 C4180 C 0.57307 0.82992 0.57217
 C4181 C 0.56020 0.81492 0.57804
 C4182 C 0.56751 0.79720 0.58535
 H4183 H 0.64944 0.73002 0.61487
 H4184 H 0.66282 0.69989 0.62878
 H4185 H 0.60410 0.67725 0.63622
 H4186 H 0.59067 0.70773 0.62300
 H4187 H 0.58810 0.72612 0.59267
 H4188 H 0.57495 0.75683 0.57967
 H4189 H 0.61839 0.78924 0.61249
 H4190 H 0.63150 0.75860 0.62548
 H4191 H 0.61644 0.80713 0.58195
 H4192 H 0.60369 0.83817 0.56955
 H4193 H 0.54447 0.81684 0.57686
 H4194 H 0.55723 0.78600 0.58997
 C4195 C 0.61965 0.22172 1.11838
 C4196 C 0.63975 0.21762 1.11684
 C4197 C 0.64751 0.20030 1.12456
 C4198 C 0.63540 0.18656 1.13431
 C4199 C 0.61513 0.19084 1.13567
 C4200 C 0.60740 0.20809 1.12773
 C4201 C 0.61155 0.24030 1.11049
 C4202 C 0.59403 0.24037 1.09964
 C4203 C 0.58651 0.25792 1.09212
 C4204 C 0.59629 0.27579 1.09542
 C4205 C 0.61375 0.27567 1.10644
 C4206 C 0.62133 0.25812 1.11381
 C4207 C 0.58839 0.29449 1.08740
 C4208 C 0.60116 0.30901 1.08022
 C4209 C 0.59382 0.32671 1.07298
 C4210 C 0.57350 0.33029 1.07256
 C4211 C 0.56070 0.31572 1.07959
 C4212 C 0.56806 0.29805 1.08697
 H4213 H 0.64953 0.22786 1.10962
 H4214 H 0.66323 0.19833 1.12359
 H4215 H 0.60493 0.18063 1.14225
 H4216 H 0.59182 0.21089 1.12912
 H4217 H 0.58631 0.22680 1.09668
 H4218 H 0.57321 0.25742 1.08344
 H4219 H 0.62145 0.28919 1.10961
 H4220 H 0.63470 0.25853 1.12239
 H4221 H 0.61687 0.30667 1.08007
 H4222 H 0.60411 0.33771 1.06794
 H4223 H 0.54497 0.31792 1.07929
 H4224 H 0.55781 0.28729 1.09258
 C4225 C 1.27859 1.11908 0.87988
 C4226 C 1.29390 1.10668 0.87378
 C4227 C 1.31136 1.11451 0.86638
 C4228 C 1.31392 1.13492 0.86498
 C4229 C 1.29863 1.14731 0.87113
 C4230 C 1.28117 1.13949 0.87849
 C4231 C 1.25998 1.11081 0.88765
 C4232 C 1.24185 1.11917 0.88245
 C4233 C 1.22434 1.11159 0.88995
 C4234 C 1.22454 1.09549 0.90282
 C4235 C 1.24265 1.08704 0.90791
 C4236 C 1.26018 1.09461 0.90041
 C4237 C 1.20590 1.08766 0.91098
 C4238 C 1.20290 1.06733 0.91274
 C4239 C 1.18526 1.06001 0.92026
 C4240 C 1.17028 1.07286 0.92625
 C4241 C 1.17333 1.09317 0.92457
 C4242 C 1.19093 1.10049 0.91703
 H4243 H 1.29228 1.09090 0.87450
 H4244 H 1.32294 1.10460 0.86191
 H4245 H 1.30008 1.16309 0.87004
 H4246 H 1.26974 1.14943 0.88328
 H4247 H 1.24119 1.13143 0.87238
 H4248 H 1.21060 1.11821 0.88547
 H4249 H 1.24330 1.07479 0.91801
 H4250 H 1.27393 1.08803 0.90489
 H4251 H 1.21408 1.05708 0.90804
 H4252 H 1.18339 1.04429 0.92153
 H4253 H 1.16198 1.10344 0.92883
 H4254 H 1.19289 1.11622 0.91607
 C4255 C 1.27774 0.61960 0.37934
 C4256 C 1.28024 0.64001 0.37791
 C4257 C 1.29763 0.64789 0.37044
 C4258 C 1.31293 0.63555 0.36422
 C4259 C 1.31045 0.61513 0.36566
 C4260 C 1.29305 0.60724 0.37316
 C4261 C 1.25919 0.61127 0.38721
 C4262 C 1.25951 0.59507 0.39997
 C4263 C 1.24204 0.58744 0.40757
 C4264 C 1.22387 0.59583 0.40258
 C4265 C 1.22356 0.61193 0.38970
 C4266 C 1.24101 0.61956 0.38211
 C4267 C 1.20530 0.58793 0.41082
 C4268 C 1.19030 0.60070 0.41692
 C4269 C 1.17275 0.59333 0.42450
 C4270 C 1.16977 0.57300 0.42619
 C4271 C 1.18478 0.56021 0.42017
 C4272 C 1.20237 0.56760 0.41260
 H4273 H 1.26881 0.64992 0.38274
 H4274 H 1.29902 0.66367 0.36933
 H4275 H 1.32204 0.60525 0.36114
 H4276 H 1.29150 0.59146 0.37391
 H4277 H 1.27330 0.58853 0.40439
 H4278 H 1.24278 0.57520 0.41766
 H4279 H 1.20978 0.61850 0.38529
 H4280 H 1.24025 0.63183 0.37204
 H4281 H 1.19220 0.61644 0.41595
 H4282 H 1.16137 0.60356 0.42880
 H4283 H 1.18297 0.54449 0.42143
 H4284 H 1.21357 0.55738 0.40786
 C4285 C 0.77867 1.11856 0.38065
 C4286 C 0.78124 1.13896 0.37917
 C4287 C 0.79863 1.14676 0.37164
 C4288 C 0.81387 1.13436 0.36540
 C4289 C 0.81137 1.11395 0.36698
 C4290 C 0.79397 1.10614 0.37456
 C4291 C 0.76004 1.11031 0.38840
 C4292 C 0.76018 1.09412 0.40116
 C4293 C 0.74262 1.08654 0.40860
 C4294 C 0.72453 1.09501 0.40343
 C4295 C 0.72439 1.11111 0.39056
 C4296 C 0.74194 1.11867 0.38313
 C4297 C 0.70585 1.08720 0.41152
 C4298 C 0.69088 1.10005 0.41750
 C4299 C 0.67322 1.09278 0.42494
 C4300 C 0.67012 1.07247 0.42658
 C4301 C 0.68510 1.05959 0.42066
 C4302 C 0.70279 1.06688 0.41324
 H4303 H 0.76982 1.14891 0.38396
 H4304 H 0.80003 1.16254 0.37041
 H4305 H 0.82292 1.10403 0.36247
 H4306 H 0.79237 1.09036 0.37536
 H4307 H 0.77391 1.08752 0.40569
 H4308 H 0.74321 1.07430 0.41869
 H4309 H 0.71068 1.11773 0.38602
 H4310 H 0.74131 1.13093 0.37305
 H4311 H 0.69287 1.11578 0.41657
 H4312 H 0.66188 1.10307 0.42915
 H4313 H 0.68318 1.04387 0.42190
 H4314 H 0.71397 1.05660 0.40859
 C4315 C 0.77829 0.61871 0.87968
 C4316 C 0.78078 0.63913 0.87840
 C4317 C 0.79812 0.64707 0.87090
 C4318 C 0.81339 0.63479 0.86450
 C4319 C 0.81096 0.61436 0.86584
 C4320 C 0.79360 0.60641 0.87339
 C4321 C 0.75972 0.61035 0.88746
 C4322 C 0.75998 0.59409 0.90014
 C4323 C 0.74248 0.58649 0.90771
 C4324 C 0.72434 0.59498 0.90275
 C4325 C 0.72409 0.61111 0.88992
 C4326 C 0.74157 0.61870 0.88237
 C4327 C 0.70573 0.58718 0.91101
 C4328 C 0.69081 0.60004 0.91711
 C4329 C 0.67320 0.59277 0.92467
 C4330 C 0.67008 0.57246 0.92632
 C4331 C 0.68503 0.55958 0.92032
 C4332 C 0.70267 0.56686 0.91277
 H4333 H 0.76935 0.64900 0.88333
 H4334 H 0.79945 0.66287 0.86984
 H4335 H 0.82253 0.60453 0.86118
 H4336 H 0.79206 0.59061 0.87404
 H4337 H 0.77375 0.58749 0.90454
 H4338 H 0.74317 0.57421 0.91776
 H4339 H 0.71034 0.61774 0.88552
 H4340 H 0.74086 0.63101 0.87234
 H4341 H 0.69280 0.61577 0.91616
 H4342 H 0.66189 0.60307 0.92895
 H4343 H 0.68312 0.54387 0.92157
 H4344 H 0.71382 0.55657 0.90804
 C4345 C 1.27930 0.88092 1.11803
 C4346 C 1.28174 0.86050 1.11949
 C4347 C 1.29897 0.85259 1.12726
 C4348 C 1.31419 0.86491 1.13374
 C4349 C 1.31182 0.88533 1.13217
 C4350 C 1.29458 0.89325 1.12436
 C4351 C 1.26079 0.88926 1.11012
 C4352 C 1.26111 0.90547 1.09738
 C4353 C 1.24364 0.91312 1.08981
 C4354 C 1.22547 0.90473 1.09482
 C4355 C 1.22516 0.88863 1.10768
 C4356 C 1.24260 0.88098 1.11524
 C4357 C 1.20689 0.91264 1.08662
 C4358 C 1.19187 0.89986 1.08058
 C4359 C 1.17425 0.90723 1.07314
 C4360 C 1.17124 0.92755 1.07153
 C4361 C 1.18629 0.94035 1.07746
 C4362 C 1.20394 0.93297 1.08489
 H4363 H 1.27033 0.85061 1.11453
 H4364 H 1.30025 0.83681 1.12851
 H4365 H 1.32336 0.89517 1.13694
 H4366 H 1.29306 0.90904 1.12359
 H4367 H 1.27491 0.91201 1.09298
 H4368 H 1.24438 0.92538 1.07973
 H4369 H 1.21137 0.88207 1.11212
 H4370 H 1.24184 0.86872 1.12531
 H4371 H 1.19378 0.88412 1.08151
 H4372 H 1.16286 0.89699 1.06892
 H4373 H 1.18445 0.95608 1.07624
 H4374 H 1.21516 0.94320 1.08958
 C4375 C 1.27803 0.38058 0.61979
 C4376 C 1.29331 0.39293 0.62609
 C4377 C 1.31062 0.38503 0.63377
 C4378 C 1.31306 0.36461 0.63526
 C4379 C 1.29780 0.35228 0.62891
 C4380 C 1.28049 0.36017 0.62127
 C4381 C 1.25956 0.38892 0.61177
 C4382 C 1.24133 0.38068 0.61675
 C4383 C 1.22394 0.38835 0.60905
 C4384 C 1.22438 0.40445 0.59618
 C4385 C 1.24261 0.41279 0.59129
 C4386 C 1.26000 0.40511 0.59900
 C4387 C 1.20588 0.41243 0.58785
 C4388 C 1.20304 0.43277 0.58606
 C4389 C 1.18551 0.44022 0.57843
 C4390 C 1.17045 0.42749 0.57237
 C4391 C 1.17334 0.40715 0.57407
 C4392 C 1.19085 0.39971 0.58171
 H4393 H 1.29178 0.40872 0.62532
 H4394 H 1.32219 0.39490 0.63839
 H4395 H 1.29916 0.33650 0.63005
 H4396 H 1.26908 0.35027 0.61634
 H4397 H 1.24047 0.36842 0.62682
 H4398 H 1.21012 0.38182 0.61339
 H4399 H 1.24344 0.42503 0.58120
 H4400 H 1.27384 0.41162 0.59467
 H4401 H 1.21427 0.44295 0.59083
 H4402 H 1.18377 0.45596 0.57716
 H4403 H 1.16193 0.39697 0.56975
 H4404 H 1.19267 0.38397 0.58268
 C4405 C 0.77856 0.88122 0.61934
 C4406 C 0.78103 0.86081 0.62084
 C4407 C 0.79835 0.85295 0.62848
 C4408 C 0.81360 0.86530 0.63480
 C4409 C 0.81116 0.88571 0.63327
 C4410 C 0.79384 0.89359 0.62559
 C4411 C 0.76005 0.88952 0.61137
 C4412 C 0.76041 0.90567 0.59855
 C4413 C 0.74297 0.91326 0.59085
 C4414 C 0.72478 0.90487 0.59581
 C4415 C 0.72443 0.88882 0.60874
 C4416 C 0.74185 0.88123 0.61643
 C4417 C 0.70624 0.91273 0.58748
 C4418 C 0.69125 0.89992 0.58142
 C4419 C 0.67367 0.90726 0.57384
 C4420 C 0.67067 0.92758 0.57214
 C4421 C 0.68568 0.94040 0.57810
 C4422 C 0.70329 0.93306 0.58566
 H4423 H 0.76962 0.85090 0.61595
 H4424 H 0.79969 0.83717 0.62967
 H4425 H 0.82273 0.89559 0.63787
 H4426 H 0.79230 0.90937 0.62479
 H4427 H 0.77422 0.91221 0.59417
 H4428 H 0.74374 0.92547 0.58072
 H4429 H 0.71063 0.88226 0.61313
 H4430 H 0.74106 0.86901 0.62654
 H4431 H 0.69316 0.88419 0.58242
 H4432 H 0.66230 0.89701 0.56960
 H4433 H 0.68385 0.95612 0.57681
 H4434 H 0.71449 0.94330 0.59037
 C4435 C 0.77972 0.38126 1.11731
 C4436 C 0.78217 0.36085 1.11891
 C4437 C 0.79945 0.35300 1.12662
 C4438 C 0.81471 0.36536 1.13290
 C4439 C 0.81236 0.38577 1.13115
 C4440 C 0.79506 0.39363 1.12340
 C4441 C 0.76112 0.38955 1.10954
 C4442 C 0.76131 0.40572 1.09673
 C4443 C 0.74376 0.41336 1.08933
 C4444 C 0.72564 0.40500 1.09458
 C4445 C 0.72546 0.38894 1.10750
 C4446 C 0.74299 0.38131 1.11489
 C4447 C 0.70698 0.41289 1.08655
 C4448 C 0.69191 0.40009 1.08069
 C4449 C 0.67423 0.40743 1.07337
 C4450 C 0.67121 0.42776 1.07172
 C4451 C 0.68629 0.44057 1.07751
 C4452 C 0.70401 0.43322 1.08482
 H4453 H 0.77071 0.35093 1.11413
 H4454 H 0.80073 0.33723 1.12800
 H4455 H 0.82393 0.39565 1.13573
 H4456 H 0.79355 0.40942 1.12251
 H4457 H 0.77506 0.41223 1.09215
 H4458 H 0.74439 0.42558 1.07921
 H4459 H 0.71173 0.38241 1.11211
 H4460 H 0.74233 0.36909 1.12502
 H4461 H 0.69383 0.38435 1.08163
 H4462 H 0.66281 0.39719 1.06925
 H4463 H 0.68444 0.45630 1.07627
 H4464 H 0.71527 0.44345 1.08938
 C4465 C 0.72213 1.11912 1.11988
 C4466 C 0.70691 1.12519 1.10734
 C4467 C 0.68959 1.13306 1.11501
 C4468 C 0.68709 1.13500 1.13539
 C4469 C 0.70224 1.12880 1.14793
 C4470 C 0.71957 1.12096 1.14026
 C4471 C 0.74068 1.11106 1.11175
 C4472 C 0.75885 1.11625 1.12001
 C4473 C 0.77632 1.10867 1.11242
 C4474 C 0.77604 1.09571 1.09639
 C4475 C 0.75787 1.09056 1.08807
 C4476 C 0.74039 1.09815 1.09566
 C4477 C 0.79463 1.08759 1.08843
 C4478 C 0.79750 1.08581 1.06808
 C4479 C 0.81512 1.07839 1.06064
 C4480 C 0.83023 1.07252 1.07339
 C4481 C 0.82732 1.07421 1.09374
 C4482 C 0.80973 1.08165 1.10117
 H4483 H 0.70851 1.12413 1.09157
 H4484 H 0.67809 1.13752 1.10500
 H4485 H 0.70082 1.13028 1.16369
 H4486 H 0.73092 1.11620 1.15031
 H4487 H 0.75959 1.12643 1.13218
 H4488 H 0.79009 1.11319 1.11894
 H4489 H 0.75716 1.08040 1.07588
 H4490 H 0.72661 1.09365 1.08915
 H4491 H 0.78622 1.09043 1.05789
 H4492 H 0.81688 1.07711 1.04490
 H4493 H 0.83877 1.07003 1.10394
 H4494 H 0.80789 1.08264 1.11692
 C4495 C 0.72101 0.61784 0.61896
 C4496 C 0.70580 0.62394 0.60644
 C4497 C 0.68846 0.63176 0.61415
 C4498 C 0.68595 0.63359 0.63454
 C4499 C 0.70110 0.62732 0.64705
 C4500 C 0.71843 0.61954 0.63935
 C4501 C 0.73961 0.60992 0.61082
 C4502 C 0.75773 0.61519 0.61915
 C4503 C 0.77526 0.60770 0.61161
 C4504 C 0.77508 0.59474 0.59557
 C4505 C 0.75697 0.58954 0.58716
 C4506 C 0.73943 0.59705 0.59471
 C4507 C 0.79374 0.58667 0.58772
 C4508 C 0.79673 0.58490 0.56739
 C4509 C 0.81443 0.57755 0.56005
 C4510 C 0.82950 0.57177 0.57290
 C4511 C 0.82646 0.57345 0.59322
 C4512 C 0.80879 0.58081 0.60055
 H4513 H 0.70742 0.62298 0.59067
 H4514 H 0.67698 0.63630 0.60415
 H4515 H 0.69969 0.62875 0.66281
 H4516 H 0.72978 0.61476 0.64938
 H4517 H 0.75839 0.62535 0.63134
 H4518 H 0.78899 0.61226 0.61818
 H4519 H 0.75634 0.57939 0.57496
 H4520 H 0.72568 0.59251 0.58814
 H4521 H 0.78548 0.58946 0.55713
 H4522 H 0.81629 0.57628 0.54432
 H4523 H 0.83787 0.56934 0.60349
 H4524 H 0.80685 0.58178 0.61629
 C4525 C 0.22138 1.11827 0.61913
 C4526 C 0.20617 1.12456 0.60669
 C4527 C 0.18899 1.13262 0.61448
 C4528 C 0.18664 1.13457 0.63488
 C4529 C 0.20181 1.12819 0.64731
 C4530 C 0.21898 1.12014 0.63953
 C4531 C 0.23976 1.10994 0.61088
 C4532 C 0.24888 1.09376 0.61983
 C4533 C 0.26637 1.08617 0.61231
 C4534 C 0.27517 1.09458 0.59565
 C4535 C 0.26596 1.11066 0.58660
 C4536 C 0.24846 1.11825 0.59412
 C4537 C 0.29400 1.08679 0.58794
 C4538 C 0.29720 1.08515 0.56762
 C4539 C 0.31501 1.07797 0.56041
 C4540 C 0.33003 1.07227 0.57335
 C4541 C 0.32682 1.07390 0.59366
 C4542 C 0.30902 1.08107 0.60086
 H4543 H 0.20746 1.12304 0.59093
 H4544 H 0.17744 1.13712 0.60455
 H4545 H 0.20055 1.12978 0.66307
 H4546 H 0.23055 1.11571 0.64948
 H4547 H 0.24237 1.08683 0.63256
 H4548 H 0.27293 1.07357 0.61942
 H4549 H 0.27252 1.11765 0.57392
 H4550 H 0.24195 1.13090 0.58707
 H4551 H 0.28581 1.08917 0.55729
 H4552 H 0.31696 1.07664 0.54469
 H4553 H 0.33823 1.06997 0.60400
 H4554 H 0.30715 1.08248 0.61658
 C4555 C 0.22116 0.61838 1.11953
 C4556 C 0.21860 0.62019 1.13992
 C4557 C 0.20128 0.62802 1.14760
 C4558 C 0.18612 0.63423 1.13508
 C4559 C 0.18861 0.63230 1.11470
 C4560 C 0.20593 0.62444 1.10701
 C4561 C 0.23974 0.61039 1.11140
 C4562 C 0.23951 0.59747 1.09534
 C4563 C 0.25703 0.58990 1.08779
 C4564 C 0.27516 0.59510 1.09615
 C4565 C 0.27538 0.60811 1.11215
 C4566 C 0.25788 0.61566 1.11968
 C4567 C 0.29380 0.58698 1.08829
 C4568 C 0.30887 0.58114 1.10110
 C4569 C 0.32651 0.57373 1.09377
 C4570 C 0.32951 0.57199 1.07344
 C4571 C 0.31442 0.57775 1.06061
 C4572 C 0.29674 0.58514 1.06795
 H4573 H 0.22997 0.61544 1.14996
 H4574 H 0.19988 0.62951 1.16336
 H4575 H 0.17710 0.63680 1.10470
 H4576 H 0.20753 0.62340 1.09123
 H4577 H 0.22575 0.59293 1.08881
 H4578 H 0.25636 0.57971 1.07563
 H4579 H 0.28913 0.61268 1.11868
 H4580 H 0.25857 0.62587 1.13184
 H4581 H 0.30696 0.58216 1.11684
 H4582 H 0.33794 0.56964 1.10402
 H4583 H 0.31625 0.57643 1.04488
 H4584 H 0.28548 0.58969 1.05771
 C4585 C 0.72165 0.88054 0.88157
 C4586 C 0.70639 0.89299 0.87546
 C4587 C 0.68907 0.88522 0.86765
 C4588 C 0.68663 0.86483 0.86583
 C4589 C 0.70185 0.85239 0.87205
 C4590 C 0.71915 0.86015 0.87982
 C4591 C 0.74018 0.88873 0.88960
 C4592 C 0.75836 0.88049 0.88442
 C4593 C 0.77581 0.88804 0.89207
 C4594 C 0.77551 0.90402 0.90509
 C4595 C 0.75734 0.91236 0.91019
 C4596 C 0.73987 0.90480 0.90253
 C4597 C 0.79409 0.91190 0.91332
 C4598 C 0.79702 0.93223 0.91514
 C4599 C 0.81466 0.93959 0.92260
 C4600 C 0.82973 0.92679 0.92844
 C4601 C 0.82674 0.90646 0.92674
 C4602 C 0.80913 0.89911 0.91927
 H4603 H 0.70794 0.90876 0.87645
 H4604 H 0.67753 0.89517 0.86314
 H4605 H 0.70051 0.83663 0.87062
 H4606 H 0.73055 0.85016 0.88460
 H4607 H 0.75912 0.86834 0.87422
 H4608 H 0.78959 0.88153 0.88758
 H4609 H 0.75661 0.92452 0.92038
 H4610 H 0.72608 0.91130 0.90700
 H4611 H 0.78578 0.94245 0.91052
 H4612 H 0.81648 0.95532 0.92389
 H4613 H 0.83816 0.89623 0.93090
 H4614 H 0.80724 0.88337 0.91826
 C4615 C 0.72075 0.38112 0.38203
 C4616 C 0.71863 0.36073 0.37988
 C4617 C 0.70153 0.35283 0.37179
 C4618 C 0.68614 0.36512 0.36567
 C4619 C 0.68826 0.38551 0.36781
 C4620 C 0.70539 0.39343 0.37589
 C4621 C 0.73901 0.38946 0.39054
 C4622 C 0.74761 0.40636 0.38244
 C4623 C 0.76506 0.41391 0.39017
 C4624 C 0.77428 0.40473 0.40618
 C4625 C 0.76555 0.38796 0.41441
 C4626 C 0.74812 0.38042 0.40668
 C4627 C 0.79310 0.41242 0.41407
 C4628 C 0.80812 0.39948 0.41975
 C4629 C 0.82592 0.40665 0.42695
 C4630 C 0.82914 0.42694 0.42865
 C4631 C 0.81411 0.43990 0.42302
 C4632 C 0.79629 0.43272 0.41582
 H4633 H 0.73034 0.35089 0.38415
 H4634 H 0.70049 0.33708 0.37002
 H4635 H 0.67655 0.39534 0.36348
 H4636 H 0.70649 0.40918 0.37760
 H4637 H 0.74108 0.41350 0.36984
 H4638 H 0.77156 0.42668 0.38332
 H4639 H 0.77210 0.38076 0.42696
 H4640 H 0.74167 0.36757 0.41345
 H4641 H 0.80626 0.38378 0.41826
 H4642 H 0.83734 0.39631 0.43084
 H4643 H 0.81607 0.45560 0.42440
 H4644 H 0.78491 0.44306 0.41183
 C4645 C 0.22160 0.88081 0.38140
 C4646 C 0.20617 0.89317 0.37552
 C4647 C 0.18891 0.88532 0.36766
 C4648 C 0.18669 0.86493 0.36555
 C4649 C 0.20207 0.85258 0.37155
 C4650 C 0.21931 0.86042 0.37939
 C4651 C 0.24010 0.88909 0.38943
 C4652 C 0.25832 0.88101 0.38413
 C4653 C 0.27574 0.88859 0.39183
 C4654 C 0.27536 0.90445 0.40500
 C4655 C 0.25716 0.91264 0.41020
 C4656 C 0.23971 0.90504 0.40250
 C4657 C 0.29392 0.91231 0.41330
 C4658 C 0.29681 0.93263 0.41525
 C4659 C 0.31445 0.93998 0.42274
 C4660 C 0.32953 0.92717 0.42852
 C4661 C 0.32657 0.90685 0.42672
 C4662 C 0.30897 0.89951 0.41920
 H4663 H 0.20756 0.90895 0.37671
 H4664 H 0.17725 0.89519 0.36331
 H4665 H 0.20091 0.83682 0.36990
 H4666 H 0.23082 0.85049 0.38400
 H4667 H 0.25914 0.86897 0.37381
 H4668 H 0.28955 0.88220 0.38726
 H4669 H 0.25638 0.92470 0.42050
 H4670 H 0.22590 0.91141 0.40707
 H4671 H 0.28555 0.94287 0.41067
 H4672 H 0.31625 0.95570 0.42410
 H4673 H 0.33799 0.89661 0.43084
 H4674 H 0.30710 0.88378 0.41809
 C4675 C 0.22117 0.38104 0.88184
 C4676 C 0.21882 0.37959 0.86140
 C4677 C 0.20151 0.37209 0.85339
 C4678 C 0.18612 0.36588 0.86563
 C4679 C 0.18838 0.36747 0.88607
 C4680 C 0.20571 0.37501 0.89409
 C4681 C 0.23978 0.38862 0.89028
 C4682 C 0.23959 0.40136 0.90650
 C4683 C 0.25715 0.40868 0.91421
 C4684 C 0.27527 0.40341 0.90587
 C4685 C 0.27545 0.39052 0.88978
 C4686 C 0.25792 0.38322 0.88208
 C4687 C 0.29394 0.41147 0.91373
 C4688 C 0.30895 0.41739 0.90089
 C4689 C 0.32659 0.42484 0.90820
 C4690 C 0.32963 0.42658 0.92852
 C4691 C 0.31462 0.42069 0.94138
 C4692 C 0.29694 0.41325 0.93407
 H4693 H 0.23037 0.38434 0.85156
 H4694 H 0.20031 0.37082 0.83760
 H4695 H 0.17672 0.36293 0.89586
 H4696 H 0.20714 0.37578 0.90989
 H4697 H 0.22584 0.40598 0.91299
 H4698 H 0.25653 0.41878 0.92646
 H4699 H 0.28918 0.38590 0.88326
 H4700 H 0.25857 0.37313 0.86983
 H4701 H 0.30701 0.41641 0.88515
 H4702 H 0.33796 0.42903 0.89791
 H4703 H 0.31650 0.42199 0.95711
 H4704 H 0.28572 0.40865 0.94433
   
