data_POSCAR
  _audit_creation_date              2014-09-24
  _audit_creation_method            'ToBaCCo'
  _symmetry_space_group_name_H-M    'P1'
  _symmetry_Int_Tables_number       1
  _symmetry_cell_setting            triclinic
  loop_
  _symmetry_equiv_pos_as_xyz
 x,y,z
_cell_length_a 59.2356
_cell_length_b 59.4355
_cell_length_c 58.7066
_cell_angle_alpha 92.416300
_cell_angle_beta 93.880200
_cell_angle_gamma 94.771000
loop_
  _atom_site_label
  _atom_site_type_symbol
  _atom_site_fract_x
  _atom_site_fract_y
  _atom_site_fract_z
C1 C 0.72466 0.67949 0.96778
 H2 H 0.74217 0.68263 0.96383
 C3 C 0.70810 0.69235 0.95793
 H4 H 0.71318 0.70573 0.94691
 C5 C 0.69669 0.65793 0.98647
 H6 H 0.69208 0.64398 0.99691
 C7 C 0.67968 0.67012 0.97687
 H8 H 0.66223 0.66533 0.98024
 N9 N 0.71878 0.66309 0.98231
 C10 C 0.78273 0.64828 1.01806
 H11 H 0.77857 0.63022 1.01829
 C12 C 0.80383 0.65772 1.02728
 H13 H 0.81590 0.64672 1.03437
 C14 C 0.77206 0.68427 1.00785
 H15 H 0.75950 0.69458 1.00061
 C16 C 0.79313 0.69448 1.01689
 H17 H 0.79664 0.71262 1.01643
 Zn18 Zn 0.74042 0.64483 0.99588
 N19 N 0.76748 0.66146 1.00825
 C20 C 0.76848 0.62699 0.96434
 N21 N 0.74774 0.62390 0.97290
 C22 C 0.73185 0.60753 0.96383
 C23 C 0.73672 0.59331 0.94550
 C24 C 0.77398 0.61332 0.94604
 C25 C 0.71951 0.64514 1.03605
 C26 C 0.70799 0.63716 1.05433
 C27 C 0.71562 0.59923 1.04273
 C28 C 0.72630 0.60801 1.02400
 N29 N 0.72759 0.63059 1.02083
 H30 H 0.78064 0.64051 0.97126
 H31 H 0.71529 0.60577 0.97060
 H32 H 0.72385 0.58053 0.93825
 H33 H 0.79061 0.61608 0.93953
 H34 H 0.72150 0.66311 1.03354
 H35 H 0.70220 0.64964 1.06600
 H36 H 0.71414 0.58108 1.04403
 H37 H 0.73332 0.59677 1.01191
 C38 C 0.80936 0.68109 1.02669
 C39 C 0.68524 0.68787 0.96266
 C40 C 0.70529 0.61373 1.05794
 C41 C 0.75796 0.59634 0.93624
 C42 C 0.73412 0.36960 0.50480
 H43 H 0.74981 0.37323 0.51534
 C44 C 0.71733 0.35393 0.51155
 H45 H 0.72013 0.34583 0.52755
 C46 C 0.71132 0.37642 0.47147
 H47 H 0.70910 0.38523 0.45586
 C48 C 0.69410 0.36073 0.47751
 H49 H 0.67881 0.35747 0.46627
 N50 N 0.73090 0.38041 0.48505
 C51 C 0.79699 0.39649 0.45874
 H52 H 0.79804 0.41474 0.45866
 C53 C 0.81418 0.38473 0.44987
 H54 H 0.82847 0.39403 0.44298
 C55 C 0.77658 0.36208 0.46681
 H56 H 0.76178 0.35322 0.47309
 C57 C 0.79323 0.34969 0.45795
 H58 H 0.79120 0.33140 0.45785
 Zn59 Zn 0.75472 0.40122 0.47727
 N60 N 0.77871 0.38505 0.46707
 C61 C 0.78665 0.42300 0.51135
 N62 N 0.76434 0.41974 0.50382
 C63 C 0.74797 0.42809 0.51611
 C64 C 0.75374 0.43991 0.53704
 C65 C 0.79320 0.43497 0.53205
 C66 C 0.74298 0.40909 0.43162
 C67 C 0.73521 0.42097 0.41306
 C68 C 0.73031 0.45244 0.43914
 C69 C 0.73847 0.44006 0.45717
 N70 N 0.74436 0.41870 0.45315
 H71 H 0.79940 0.41587 0.50167
 H72 H 0.73032 0.42497 0.50992
 H73 H 0.74047 0.44608 0.54680
 H74 H 0.81098 0.43690 0.53807
 H75 H 0.74791 0.39213 0.42888
 H76 H 0.73460 0.41305 0.39606
 H77 H 0.72504 0.46913 0.44285
 H78 H 0.73977 0.44743 0.47439
 C79 C 0.81225 0.36101 0.44922
 C80 C 0.69699 0.34922 0.49780
 C81 C 0.72850 0.44290 0.41668
 C82 C 0.77661 0.44328 0.54532
 C83 C 0.22719 -0.13632 0.01173
 H84 H 0.24331 -0.13448 0.02174
 C85 C 0.20889 -0.14950 0.01948
 H86 H 0.21118 -0.15756 0.03556
 C87 C 0.20433 -0.12650 -0.02038
 H88 H 0.20243 -0.11720 -0.03569
 C89 C 0.18569 -0.13979 -0.01346
 H90 H 0.16982 -0.14090 -0.02390
 N91 N 0.22455 -0.12486 -0.00771
 C92 C 0.28834 -0.10891 -0.03840
 H93 H 0.28549 -0.09195 -0.04318
 C94 C 0.30758 -0.11869 -0.04507
 H95 H 0.31928 -0.10919 -0.05521
 C96 C 0.27631 -0.14188 -0.01967
 H97 H 0.26416 -0.15081 -0.00965
 C98 C 0.29538 -0.15236 -0.02603
 H99 H 0.29779 -0.16924 -0.02065
 Zn100 Zn 0.24891 -0.10455 -0.01583
 N101 N 0.27335 -0.12038 -0.02561
 C102 C 0.28131 -0.07557 0.01091
 N103 N 0.25969 -0.08543 0.01005
 C104 C 0.24677 -0.08360 0.02824
 C105 C 0.25610 -0.07296 0.04884
 C106 C 0.29128 -0.06478 0.03111
 C107 C 0.23476 -0.06531 -0.03659
 C108 C 0.22649 -0.05303 -0.05467
 C109 C 0.22723 -0.08615 -0.07978
 C110 C 0.23536 -0.09770 -0.06120
 N111 N 0.23872 -0.08728 -0.04011
 H112 H 0.29123 -0.07686 -0.00376
 H113 H 0.22948 -0.09117 0.02710
 H114 H 0.24595 -0.07279 0.06349
 H115 H 0.30876 -0.05770 0.03165
 H116 H 0.23748 -0.05743 -0.01957
 H117 H 0.22245 -0.03606 -0.05039
 H118 H 0.22605 -0.09520 -0.09621
 H119 H 0.23907 -0.11513 -0.06357
 C120 C 0.31150 -0.14058 -0.03863
 C121 C 0.18768 -0.15121 0.00695
 C122 C 0.22209 -0.06334 -0.07699
 C123 C 0.27891 -0.06408 0.05066
 C124 C 0.20886 0.17114 0.47482
 H125 H 0.22525 0.17225 0.46767
 C126 C 0.19198 0.18447 0.46661
 H127 H 0.19578 0.19623 0.45353
 C128 C 0.18388 0.15393 0.50008
 H129 H 0.18049 0.14154 0.51263
 C130 C 0.16652 0.16676 0.49228
 H131 H 0.15000 0.16393 0.49900
 N132 N 0.20449 0.15611 0.49114
 C133 C 0.26818 0.13520 0.52180
 H134 H 0.26329 0.11722 0.52098
 C135 C 0.28948 0.14342 0.53164
 H136 H 0.30097 0.13160 0.53821
 C137 C 0.25921 0.17225 0.51351
 H138 H 0.24730 0.18337 0.50646
 C139 C 0.28055 0.18123 0.52308
 H140 H 0.28489 0.19930 0.52343
 Zn141 Zn 0.22593 0.13527 0.49901
 N142 N 0.25364 0.14954 0.51277
 C143 C 0.25347 0.12126 0.46482
 N144 N 0.23192 0.11943 0.47164
 C145 C 0.21466 0.10779 0.45843
 C146 C 0.21897 0.09674 0.43785
 C147 C 0.25843 0.11081 0.44429
 C148 C 0.21414 0.12457 0.54236
 C149 C 0.20497 0.11192 0.55951
 C150 C 0.19523 0.08088 0.53173
 C151 C 0.20507 0.09398 0.51516
 N152 N 0.21388 0.11557 0.52065
 H153 H 0.26687 0.13109 0.47509
 H154 H 0.19752 0.10722 0.46381
 H155 H 0.20515 0.08743 0.42753
 H156 H 0.27573 0.11229 0.43926
 H157 H 0.22125 0.14177 0.54627
 H158 H 0.20495 0.11949 0.57662
 H159 H 0.18779 0.06390 0.52712
 H160 H 0.20527 0.08698 0.49793
 C161 C 0.29601 0.16668 0.53222
 C162 C 0.17029 0.18210 0.47507
 C163 C 0.19508 0.08994 0.55417
 C164 C 0.24110 0.09832 0.43058
 C165 C 0.17445 0.47384 0.21778
 H166 H 0.17442 0.46349 0.23251
 C167 C 0.18551 0.46727 0.19861
 H168 H 0.19382 0.45173 0.19881
 C169 C 0.16187 0.50556 0.19910
 H170 H 0.15210 0.52009 0.19901
 C171 C 0.17302 0.49986 0.17976
 H172 H 0.17218 0.51057 0.16533
 N173 N 0.16260 0.49246 0.21754
 C174 C 0.14913 0.51299 0.28695
 H175 H 0.13079 0.51124 0.28450
 C176 C 0.15961 0.52038 0.30815
 H177 H 0.14922 0.52450 0.32197
 C178 C 0.18484 0.51003 0.27158
 H179 H 0.19447 0.50596 0.25719
 C180 C 0.19611 0.51767 0.29261
 H181 H 0.21449 0.51932 0.29440
 Zn182 Zn 0.14430 0.49767 0.24213
 N183 N 0.16174 0.50766 0.26932
 C184 C 0.13294 0.45960 0.26692
 N185 N 0.12771 0.46984 0.24719
 C186 C 0.11265 0.45945 0.23071
 C187 C 0.10188 0.43807 0.23404
 C188 C 0.12275 0.43832 0.27085
 C189 C 0.13669 0.54187 0.23541
 C190 C 0.12492 0.56086 0.23186
 C191 C 0.08977 0.53684 0.22894
 C192 C 0.10231 0.51818 0.23267
 N193 N 0.12538 0.52104 0.23559
 H194 H 0.14550 0.46761 0.27951
 H195 H 0.10928 0.46762 0.21486
 H196 H 0.09003 0.42991 0.22076
 H197 H 0.12708 0.43062 0.28679
 H198 H 0.15502 0.54369 0.23809
 H199 H 0.13440 0.57719 0.23138
 H200 H 0.07142 0.53440 0.22672
 H201 H 0.09360 0.50155 0.23344
 C202 C 0.18337 0.52265 0.31125
 C203 C 0.18457 0.48014 0.17904
 C204 C 0.10114 0.55854 0.22863
 C205 C 0.10710 0.42720 0.25428
 C206 C -0.14533 0.00276 0.22517
 H207 H -0.14546 0.01064 0.24211
 C208 C -0.15994 0.00927 0.20746
 H209 H -0.17176 0.02136 0.21186
 C210 C -0.13005 -0.02318 0.20014
 H211 H -0.11790 -0.03534 0.19712
 C212 C -0.14409 -0.01696 0.18180
 H213 H -0.14181 -0.02448 0.16513
 N214 N -0.13110 -0.01354 0.22140
 C215 C -0.11629 -0.04249 0.28730
 H216 H -0.09829 -0.04380 0.28617
 C217 C -0.12696 -0.05060 0.30615
 H218 H -0.11709 -0.05813 0.31956
 C219 C -0.15102 -0.03092 0.27127
 H220 H -0.16049 -0.02362 0.25753
 C221 C -0.16229 -0.03845 0.29004
 H222 H -0.18031 -0.03677 0.29064
 Zn223 Zn -0.11156 -0.02127 0.24636
 N224 N -0.12829 -0.03260 0.27047
 C225 C -0.09074 0.01173 0.27943
 N226 N -0.09319 0.00523 0.25683
 C227 C -0.08362 0.01818 0.24088
 C228 C -0.07149 0.03888 0.24740
 C229 C -0.07835 0.03206 0.28672
 C230 C -0.10378 -0.06395 0.22818
 C231 C -0.09110 -0.08145 0.22131
 C232 C -0.05687 -0.05827 0.23442
 C233 C -0.07023 -0.04095 0.24042
 N234 N -0.09323 -0.04405 0.23710
 H235 H -0.09871 0.00140 0.29183
 H236 H -0.08597 0.01268 0.22302
 H237 H -0.06440 0.04930 0.23449
 H238 H -0.07693 0.03725 0.30471
 H239 H -0.12213 -0.06608 0.22609
 H240 H -0.10001 -0.09668 0.21332
 H241 H -0.03865 -0.05557 0.23782
 H242 H -0.06222 -0.02518 0.24811
 C243 C -0.15017 -0.04834 0.30777
 C244 C -0.15955 -0.00041 0.18506
 C245 C -0.06724 -0.07889 0.22450
 C246 C -0.06887 0.04604 0.27057
 C247 C 0.37874 0.50008 0.73359
 H248 H 0.37807 0.50793 0.75039
 C249 C 0.36507 0.50714 0.71541
 H250 H 0.35412 0.52047 0.71855
 C251 C 0.39495 0.47445 0.70881
 H252 H 0.40703 0.46217 0.70603
 C253 C 0.38141 0.48081 0.69021
 H254 H 0.38286 0.47279 0.67354
 N255 N 0.39346 0.48408 0.73004
 C256 C 0.39392 0.44678 0.78693
 H257 H 0.40157 0.43345 0.77808
 C258 C 0.38151 0.44163 0.80569
 H259 H 0.37965 0.42434 0.81087
 C260 C 0.38798 0.48553 0.79200
 H261 H 0.39112 0.50273 0.78701
 C262 C 0.37562 0.48116 0.81098
 H263 H 0.36877 0.49499 0.82007
 Zn264 Zn 0.41336 0.47612 0.75470
 N265 N 0.39652 0.46839 0.78012
 C266 C 0.43305 0.52102 0.75310
 N267 N 0.43363 0.50152 0.76438
 C268 C 0.44640 0.50065 0.78439
 C269 C 0.45806 0.52029 0.79463
 C270 C 0.44432 0.54107 0.76279
 C271 C 0.41709 0.43200 0.73696
 C272 C 0.42777 0.41428 0.72723
 C273 C 0.46360 0.43698 0.73350
 C274 C 0.45226 0.45421 0.74341
 N275 N 0.42935 0.45156 0.74466
 H276 H 0.42287 0.52133 0.73715
 H277 H 0.44651 0.48492 0.79301
 H278 H 0.46749 0.51942 0.81097
 H279 H 0.44236 0.55665 0.75425
 H280 H 0.39882 0.43054 0.73751
 H281 H 0.41761 0.39919 0.72044
 H282 H 0.48175 0.43955 0.73201
 H283 H 0.46166 0.46998 0.74933
 C284 C 0.37206 0.45892 0.81787
 C285 C 0.36640 0.49759 0.69329
 C286 C 0.45124 0.41684 0.72499
 C287 C 0.45637 0.54103 0.78424
 C288 C 0.66775 0.98430 0.70624
 H289 H 0.67709 0.99103 0.72182
 C290 C 0.67952 0.97684 0.68788
 H291 H 0.69790 0.97775 0.68957
 C292 C 0.63259 0.97586 0.68462
 H293 H 0.61427 0.97566 0.68350
 C294 C 0.64365 0.96837 0.66585
 H295 H 0.63367 0.96210 0.65041
 N296 N 0.64467 0.98354 0.70432
 C297 C 0.64221 1.02491 0.76472
 H298 H 0.63012 1.03534 0.75679
 C299 C 0.65279 1.03174 0.78611
 H300 H 0.64787 1.04724 0.79380
 C301 C 0.65996 0.99078 0.76494
 H302 H 0.66214 0.97449 0.75683
 C303 C 0.67134 0.99713 0.78621
 H304 H 0.68297 0.98574 0.79323
 Zn305 Zn 0.62745 0.99439 0.72784
 N306 N 0.64582 1.00470 0.75459
 C307 C 0.59203 0.97628 0.75247
 N308 N 0.60707 0.97088 0.73708
 C309 C 0.60999 0.94895 0.73133
 C310 C 0.59798 0.93142 0.74177
 C311 C 0.57927 0.95933 0.76285
 C312 C 0.62677 1.03591 0.70894
 C313 C 0.61839 1.05569 0.70131
 C314 C 0.58050 1.04016 0.70773
 C315 C 0.58965 1.02048 0.71514
 N316 N 0.61251 1.01899 0.71612
 H317 H 0.59057 0.99382 0.75736
 H318 H 0.62265 0.94501 0.71970
 H319 H 0.60161 0.91418 0.73789
 H320 H 0.56738 0.96416 0.77498
 H321 H 0.64483 1.03416 0.70959
 H322 H 0.63018 1.06890 0.69574
 H323 H 0.56238 1.04139 0.70781
 H324 H 0.57849 1.00666 0.72041
 C325 C 0.66768 1.01784 0.79763
 C326 C 0.66743 0.96883 0.66731
 C327 C 0.59502 1.05827 0.70106
 C328 C 0.58269 0.93649 0.75818
 C329 C 0.01523 0.23943 -0.13393
 H330 H 0.02364 0.25631 -0.13139
 C331 C 0.02346 0.22385 -0.14903
 H332 H 0.03787 0.22915 -0.15850
 C333 C -0.01339 0.21205 -0.12406
 H334 H -0.02733 0.20734 -0.11378
 C335 C -0.00550 0.19581 -0.13873
 H336 H -0.01350 0.17872 -0.13942
 N337 N -0.00278 0.23329 -0.12172
 C338 C -0.02849 0.29589 -0.09674
 H339 H -0.02885 0.29280 -0.07873
 C340 C -0.03715 0.31526 -0.10526
 H341 H -0.04431 0.32692 -0.09367
 C342 C -0.01981 0.28369 -0.13383
 H343 H -0.01347 0.27118 -0.14503
 C344 C -0.02810 0.30290 -0.14304
 H345 H -0.02747 0.30514 -0.16120
 Zn346 Zn -0.01028 0.25388 -0.09855
 N347 N -0.02005 0.28058 -0.11104
 C348 C 0.02517 0.28182 -0.07352
 N349 N 0.01633 0.26025 -0.07895
 C350 C 0.02767 0.24226 -0.07268
 C351 C 0.04913 0.24557 -0.06112
 C352 C 0.04651 0.28591 -0.06175
 C353 C -0.05535 0.23914 -0.09327
 C354 C -0.07378 0.22890 -0.08288
 C355 C -0.04814 0.22137 -0.05088
 C356 C -0.03034 0.23221 -0.06175
 N357 N -0.03416 0.24047 -0.08272
 H358 H 0.01613 0.29589 -0.07907
 H359 H 0.02041 0.22529 -0.07753
 H360 H 0.05824 0.23107 -0.05688
 H361 H 0.05374 0.30316 -0.05836
 H362 H -0.05787 0.24578 -0.11005
 H363 H -0.08999 0.22736 -0.09269
 H364 H -0.04417 0.21576 -0.03392
 H365 H -0.01342 0.23387 -0.05342
 C366 C -0.03716 0.31890 -0.12875
 C367 C 0.01345 0.20150 -0.15117
 C368 C -0.07055 0.21924 -0.06136
 C369 C 0.05897 0.26764 -0.05593
 C370 C 0.48831 0.22561 0.17293
 H371 H 0.48256 0.24234 0.17489
 C372 C 0.47989 0.20843 0.18643
 H373 H 0.46808 0.21227 0.19903
 C374 C 0.51011 0.20015 0.15372
 H375 H 0.52146 0.19676 0.14059
 C376 C 0.50211 0.18251 0.16679
 H377 H 0.50740 0.16576 0.16342
 N378 N 0.50298 0.22118 0.15676
 C379 C 0.53722 0.28516 0.13817
 H380 H 0.53841 0.28063 0.12033
 C381 C 0.54679 0.30616 0.14696
 H382 H 0.55457 0.31781 0.13549
 C383 C 0.52567 0.27540 0.17455
 H384 H 0.51762 0.26333 0.18531
 C385 C 0.53506 0.29639 0.18413
 H386 H 0.53412 0.30021 0.20222
 Zn387 Zn 0.51255 0.24352 0.13626
 N388 N 0.52642 0.27043 0.15177
 C389 C 0.49157 0.26535 0.09995
 N390 N 0.48732 0.25166 0.11743
 C391 C 0.46563 0.24589 0.12272
 C392 C 0.44742 0.25532 0.11139
 C393 C 0.47390 0.27480 0.08794
 C394 C 0.55547 0.23087 0.12937
 C395 C 0.57367 0.22466 0.11741
 C396 C 0.54893 0.22082 0.08275
 C397 C 0.53110 0.22705 0.09545
 N398 N 0.53479 0.23225 0.11826
 H399 H 0.50877 0.26935 0.09550
 H400 H 0.46238 0.23477 0.13638
 H401 H 0.43049 0.25154 0.11686
 H402 H 0.47784 0.28582 0.07427
 H403 H 0.55787 0.23500 0.14754
 H404 H 0.58997 0.22361 0.12665
 H405 H 0.54589 0.21730 0.06451
 H406 H 0.51444 0.22800 0.08701
 C407 C 0.54556 0.31219 0.17016
 C408 C 0.48656 0.18644 0.18322
 C409 C 0.57066 0.21989 0.09371
 C410 C 0.45153 0.27054 0.09417
 C411 C 0.97697 0.71456 0.67198
 H412 H 0.97248 0.73181 0.67334
 C413 C 0.96603 0.69806 0.68462
 H414 H 0.95369 0.70302 0.69621
 C415 C 0.99807 0.68721 0.65466
 H416 H 1.00995 0.68289 0.64234
 C417 C 0.98727 0.67013 0.66664
 H418 H 0.99113 0.65287 0.66328
 N419 N 0.99269 0.70891 0.65740
 C420 C 1.02646 0.77303 0.63956
 H421 H 1.02611 0.76893 0.62140
 C422 C 1.03600 0.79405 0.64831
 H423 H 1.04279 0.80613 0.63670
 C424 C 1.01727 0.76230 0.67648
 H425 H 1.01011 0.74978 0.68737
 C426 C 1.02657 0.78334 0.68600
 H427 H 1.02650 0.78688 0.70424
 Zn428 Zn 1.00423 0.73083 0.63777
 N429 N 1.01709 0.75777 0.65355
 C430 C 0.97125 0.75834 0.62130
 N431 N 0.97947 0.73783 0.61810
 C432 C 0.96875 0.72183 0.60292
 C433 C 0.94901 0.72635 0.59005
 C434 C 0.95154 0.76343 0.60904
 C435 C 1.04614 0.71481 0.63540
 C436 C 1.06580 0.70875 0.62593
 C437 C 1.04779 0.71280 0.58831
 C438 C 1.02831 0.71877 0.59858
 N439 N 1.02796 0.71976 0.62176
 H440 H 0.97952 0.77058 0.63393
 H441 H 0.97530 0.70544 0.60115
 H442 H 0.94048 0.71343 0.57819
 H443 H 0.94523 0.77983 0.61190
 H444 H 1.04546 0.71602 0.65377
 H445 H 1.08003 0.70483 0.63719
 H446 H 1.04812 0.71266 0.56989
 H447 H 1.01386 0.72333 0.58808
 C448 C 1.03602 0.79953 0.67178
 C449 C 0.97080 0.67535 0.68174
 C450 C 1.06700 0.70806 0.60211
 C451 C 0.94006 0.74729 0.59334
 C452 C 0.50541 0.74840 0.35899
 H453 H 0.51295 0.76560 0.36171
 C454 C 0.51502 0.73333 0.34438
 H455 H 0.52957 0.73929 0.33541
 C456 C 0.47812 0.71950 0.36848
 H457 H 0.46439 0.71390 0.37865
 C458 C 0.48731 0.70382 0.35418
 H459 H 0.48039 0.68635 0.35351
 N460 N 0.48755 0.74121 0.37097
 C461 C 0.46134 0.80196 0.39983
 H462 H 0.46168 0.79773 0.41759
 C463 C 0.45259 0.82192 0.39311
 H464 H 0.44701 0.83302 0.40627
 C465 C 0.46921 0.79249 0.36182
 H466 H 0.47519 0.78069 0.34959
 C467 C 0.46088 0.81243 0.35433
 H468 H 0.46031 0.81513 0.33621
 Zn469 Zn 0.47985 0.76065 0.39506
 N470 N 0.46942 0.78774 0.38425
 C471 C 0.51627 0.78803 0.41956
 N472 N 0.50683 0.76665 0.41418
 C473 C 0.51784 0.74832 0.41999
 C474 C 0.53960 0.75105 0.43090
 C475 C 0.53797 0.79154 0.43072
 C476 C 0.43581 0.74128 0.40003
 C477 C 0.41843 0.72957 0.41082
 C478 C 0.44411 0.72871 0.44451
 C479 C 0.46094 0.74051 0.43313
 N480 N 0.45668 0.74609 0.41113
 H481 H 0.50744 0.80237 0.41437
 H482 H 0.51005 0.73152 0.41523
 H483 H 0.54842 0.73627 0.43475
 H484 H 0.54569 0.80863 0.43407
 H485 H 0.43286 0.74613 0.38260
 H486 H 0.40214 0.72523 0.40151
 H487 H 0.44787 0.72414 0.46194
 H488 H 0.47747 0.74493 0.44181
 C489 C 0.45211 0.82760 0.36996
 C490 C 0.50644 0.71052 0.34240
 C491 C 0.42264 0.72281 0.43322
 C492 C 0.55010 0.77288 0.43594
 C493 C 0.37420 -0.00959 0.28089
 C494 C 0.36255 -0.01857 0.25786
 C495 C 0.35111 -0.00323 0.24626
 C496 C 0.35207 0.01998 0.25896
 C497 C 0.38907 0.01166 0.27530
 C498 C 0.37771 0.02717 0.26350
 C499 C 0.35521 -0.00013 0.29401
 C500 C 0.34358 0.01517 0.28259
 H501 H 0.36352 -0.03574 0.25126
 H502 H 0.34219 0.03208 0.24954
 H503 H 0.40693 0.01419 0.28081
 H504 H 0.35282 -0.00276 0.31181
 C505 C 0.08408 1.03580 0.75394
 C506 C 0.09665 1.04213 0.73286
 C507 C 0.10999 1.02630 0.72545
 C508 C 0.10958 1.00521 0.73955
 C509 C 0.07089 1.01278 0.74684
 C510 C 0.08428 0.99674 0.73931
 C511 C 0.10260 1.02983 0.77174
 C512 C 0.11587 1.01379 0.76437
 H513 H 0.09486 1.05777 0.72435
 H514 H 0.12083 0.99262 0.73334
 H515 H 0.05282 1.00918 0.74768
 H516 H 0.10332 1.03600 0.78942
 C517 C 0.58982 0.54855 0.25317
 C518 C 0.60163 0.55656 0.23229
 C519 C 0.61474 0.54146 0.22278
 C520 C 0.61523 0.51947 0.23571
 C521 C 0.57690 0.52565 0.24522
 C522 C 0.59019 0.51037 0.23612
 C523 C 0.60904 0.54203 0.26978
 C524 C 0.62229 0.52676 0.26081
 H525 H 0.59979 0.57318 0.22593
 H526 H 0.62628 0.50720 0.22861
 H527 H 0.55927 0.52123 0.24787
 H528 H 0.61021 0.54696 0.28783
 C529 C 0.86789 0.46811 0.77289
 C530 C 0.85130 0.46312 0.75163
 C531 C 0.84226 0.48165 0.74340
 C532 C 0.84998 0.50363 0.75738
 C533 C 0.88525 0.48678 0.76607
 C534 C 0.87614 0.50541 0.75772
 C535 C 0.85373 0.47990 0.78993
 C536 C 0.84442 0.49853 0.78204
 H537 H 0.84679 0.44653 0.74357
 H538 H 0.84163 0.51817 0.75053
 H539 H 0.90332 0.48519 0.76824
 H540 H 0.85163 0.47415 0.80697
 C541 C 0.27356 0.38055 -0.02280
 C542 C 0.25290 0.36301 -0.02511
 C543 C 0.24832 0.35292 -0.00540
 C544 C 0.26475 0.36125 0.01510
 C545 C 0.26794 0.39712 -0.00350
 C546 C 0.26359 0.38700 0.01638
 C547 C 0.29297 0.36801 -0.01240
 C548 C 0.28851 0.35796 0.00736
 H549 H 0.24115 0.36085 -0.04015
 H550 H 0.26089 0.35293 0.03115
 H551 H 0.26715 0.41507 -0.00542
 H552 H 0.30900 0.36723 -0.02014
 C553 C 0.74259 0.09370 1.03120
 C554 C 0.72430 0.11008 1.03455
 C555 C 0.72070 0.12347 1.01681
 C556 C 0.73530 0.11913 0.99681
 C557 C 0.73423 0.08025 1.00867
 C558 C 0.73025 0.09365 0.99063
 C559 C 0.76346 0.10855 1.02522
 C560 C 0.75998 0.12166 1.00712
 H561 H 0.71390 0.11001 1.04905
 H562 H 0.73228 0.13024 0.98245
 H563 H 0.73013 0.06215 1.00751
 H564 H 0.77973 0.10848 1.03479
 C565 C 0.25383 0.59126 0.54844
 C566 C 0.23505 0.60672 0.55342
 C567 C 0.22823 0.61868 0.53533
 C568 C 0.24088 0.61443 0.51378
 C569 C 0.24432 0.57669 0.52718
 C570 C 0.23775 0.58873 0.50903
 C571 C 0.27268 0.60739 0.53992
 C572 C 0.26619 0.61920 0.52157
 H573 H 0.22729 0.60816 0.56947
 H574 H 0.23511 0.62423 0.49913
 H575 H 0.24397 0.55842 0.52629
 H576 H 0.28983 0.60911 0.54783
 C577 C 0.77497 0.86734 0.47813
 C578 C 0.75282 0.85216 0.47361
 C579 C 0.74503 0.84248 0.49246
 C580 C 0.76041 0.84841 0.51434
 C581 C 0.77000 0.88437 0.49736
 C582 C 0.76241 0.87441 0.51626
 C583 C 0.79163 0.85235 0.48983
 C584 C 0.78401 0.84195 0.50837
 H585 H 0.74305 0.85096 0.45725
 H586 H 0.75391 0.84023 0.52953
 H587 H 0.77234 0.90252 0.49655
 H588 H 0.80841 0.85061 0.48405
 C589 C -0.02974 0.27026 0.36805
 C590 C -0.03745 0.24793 0.35449
 C591 C -0.02125 0.23982 0.34189
 C592 C 0.00146 0.25438 0.34407
 C593 C -0.00834 0.26485 0.38239
 C594 C 0.00813 0.25641 0.37004
 C595 C -0.02094 0.28616 0.35027
 C596 C -0.00473 0.27805 0.33766
 H597 H -0.05354 0.23825 0.35587
 H598 H 0.01408 0.24741 0.33326
 H599 H -0.00674 0.26748 0.40077
 H600 H -0.02670 0.30286 0.34836
 C601 C 1.04245 0.74656 0.11238
 C602 C 1.04729 0.72695 0.12778
 C603 C 1.03028 0.72080 0.14109
 C604 C 1.00957 0.73433 0.13784
 C605 C 1.01996 0.73820 0.09872
 C606 C 1.00270 0.73181 0.11205
 C607 C 1.03598 0.76544 0.12867
 C608 C 1.01862 0.75933 0.14191
 H609 H 1.06132 0.71658 0.12642
 H610 H 0.99608 0.72873 0.14902
 H611 H 1.01808 0.73716 0.08023
 H612 H 1.04321 0.78269 0.12791
 C613 C 0.53560 0.24721 0.57874
 C614 C 0.54142 0.22723 0.59309
 C615 C 0.52546 0.22093 0.60772
 C616 C 0.50477 0.23501 0.60663
 C617 C 0.51217 0.23953 0.56679
 C618 C 0.49589 0.23338 0.58127
 C619 C 0.53108 0.26568 0.59635
 C620 C 0.51474 0.25974 0.61072
 H621 H 0.55596 0.21768 0.59113
 H622 H 0.49187 0.22979 0.61860
 H623 H 0.50895 0.23895 0.54840
 H624 H 0.54037 0.28220 0.59720
 C625 C 0.46763 0.76429 0.88308
 C626 C 0.46487 0.74146 0.86937
 C627 C 0.48367 0.73631 0.85887
 C628 C 0.50365 0.75450 0.86256
 C629 C 0.48883 0.76271 0.89934
 C630 C 0.50772 0.75737 0.88879
 C631 C 0.47526 0.78138 0.86576
 C632 C 0.49421 0.77662 0.85534
 H633 H 0.45013 0.72947 0.86878
 H634 H 0.51861 0.75014 0.85345
 H635 H 0.48853 0.76524 0.91767
 H636 H 0.46698 0.79671 0.86292
 C637 C 0.41584 -0.12376 0.36699
 C638 C 0.42239 -0.11328 0.34700
 C639 C 0.44006 -0.12231 0.33542
 C640 C 0.44979 -0.14170 0.34302
 C641 C 0.44270 -0.15244 0.36261
 C642 C 0.42579 -0.14280 0.37459
 C643 C 0.44799 -0.11197 0.31627
 C644 C 0.43866 -0.09293 0.30814
 C645 C 0.42054 -0.08362 0.31860
 C646 C 0.41204 -0.09421 0.33815
 C647 C 0.39306 -0.08578 0.34783
 C648 C 0.38268 -0.06776 0.33878
 C649 C 0.39092 -0.05707 0.31998
 C650 C 0.41021 -0.06448 0.30983
 C651 C 0.41804 -0.05255 0.29111
 C652 C 0.40672 -0.03466 0.28252
 C653 C 0.38731 -0.02769 0.29228
 C654 C 0.37955 -0.03924 0.31105
 H655 H 0.40308 -0.11770 0.37733
 H656 H 0.46356 -0.14782 0.33395
 H657 H 0.41920 -0.15046 0.38943
 H658 H 0.46162 -0.11871 0.30740
 H659 H 0.44575 -0.08621 0.29317
 H660 H 0.38529 -0.09313 0.36214
 H661 H 0.36792 -0.06218 0.34661
 H662 H 0.43284 -0.05660 0.28261
 H663 H 0.41296 -0.02644 0.26778
 H664 H 0.36417 -0.03513 0.31853
 C665 C 0.94565 0.37857 0.86443
 C666 C 0.93280 0.37671 0.84308
 C667 C 0.93062 0.35539 0.83098
 C668 C 0.94031 0.33678 0.84031
 C669 C 0.95278 0.33884 0.86155
 C670 C 0.95542 0.35995 0.87343
 C671 C 0.91867 0.35261 0.80966
 C672 C 0.90902 0.37062 0.79974
 C673 C 0.91071 0.39225 0.81094
 C674 C 0.92216 0.39519 0.83327
 C675 C 0.92218 0.41635 0.84519
 C676 C 0.91152 0.43403 0.83561
 C677 C 0.90087 0.43159 0.81363
 C678 C 0.90079 0.41088 0.80076
 C679 C 0.89118 0.40986 0.77799
 C680 C 0.88089 0.42811 0.76897
 C681 C 0.87936 0.44803 0.78233
 C682 C 0.89030 0.44982 0.80442
 H683 H 0.94882 0.39423 0.87449
 H684 H 0.93782 0.32049 0.83105
 H685 H 0.96535 0.36219 0.88967
 H686 H 0.91679 0.33629 0.80044
 H687 H 0.89975 0.36682 0.78343
 H688 H 0.92984 0.41968 0.86228
 H689 H 0.91171 0.44985 0.84555
 H690 H 0.89186 0.39542 0.76642
 H691 H 0.87465 0.42646 0.75123
 H692 H 0.89059 0.46555 0.81453
 C693 C 0.05754 1.16736 0.82314
 C694 C 0.04428 1.14896 0.81149
 C695 C 0.02035 1.14839 0.81209
 C696 C 0.01034 1.16589 0.82349
 C697 C 0.02379 1.18389 0.83514
 C698 C 0.04745 1.18436 0.83477
 C699 C 0.00654 1.13016 0.80169
 C700 C 0.01594 1.11199 0.79140
 C701 C 0.03968 1.11157 0.79063
 C702 C 0.05399 1.13083 0.79993
 C703 C 0.07754 1.13139 0.79730
 C704 C 0.08699 1.11330 0.78711
 C705 C 0.07348 1.09385 0.77931
 C706 C 0.04966 1.09259 0.78084
 C707 C 0.03698 1.07215 0.77291
 C708 C 0.04759 1.05385 0.76406
 C709 C 0.07124 1.05521 0.76275
 C710 C 0.08388 1.07553 0.77015
 H711 H 0.07583 1.16878 0.82439
 H712 H -0.00800 1.16531 0.82348
 H713 H 0.05841 1.19758 0.84416
 H714 H -0.01178 1.12970 0.80191
 H715 H 0.00404 1.09859 0.78393
 H716 H 0.08922 1.14578 0.80266
 H717 H 0.10519 1.11446 0.78562
 H718 H 0.01885 1.06954 0.77374
 H719 H 0.03696 1.03877 0.75842
 H720 H 0.10216 1.07690 0.76912
 C721 C 0.55419 0.67794 0.32209
 C722 C 0.54253 0.65873 0.31017
 C723 C 0.51846 0.65762 0.30803
 C724 C 0.50680 0.67486 0.31779
 C725 C 0.51866 0.69342 0.33007
 C726 C 0.54244 0.69482 0.33188
 C727 C 0.50607 0.63913 0.29649
 C728 C 0.51693 0.62141 0.28730
 C729 C 0.54084 0.62145 0.28920
 C730 C 0.55386 0.64053 0.30066
 C731 C 0.57778 0.64068 0.30241
 C732 C 0.58862 0.62281 0.29359
 C733 C 0.57621 0.60403 0.28265
 C734 C 0.55219 0.60302 0.28013
 C735 C 0.54062 0.58361 0.26850
 C736 C 0.55241 0.56603 0.26002
 C737 C 0.57619 0.56686 0.26306
 C738 C 0.58787 0.58626 0.27408
 H739 H 0.57241 0.68036 0.32462
 H740 H 0.48839 0.67370 0.31602
 H741 H 0.55211 0.70871 0.34160
 H742 H 0.48767 0.63821 0.29473
 H743 H 0.50594 0.60779 0.27889
 H744 H 0.58880 0.65439 0.31059
 H745 H 0.60702 0.62370 0.29544
 H746 H 0.52244 0.58147 0.26538
 H747 H 0.54259 0.55213 0.25062
 H748 H 0.60628 0.58758 0.27586
 C749 C 0.58166 0.36798 0.17753
 C750 C 0.56890 0.38115 0.19168
 C751 C 0.54954 0.37020 0.20078
 C752 C 0.54244 0.34750 0.19441
 C753 C 0.55451 0.33517 0.17919
 C754 C 0.57451 0.34547 0.17140
 C755 C 0.53709 0.38206 0.21582
 C756 C 0.54335 0.40464 0.22207
 C757 C 0.56211 0.41651 0.21302
 C758 C 0.57466 0.40472 0.19704
 C759 C 0.59205 0.41706 0.18634
 C760 C 0.59738 0.43996 0.19139
 C761 C 0.58601 0.45146 0.20765
 C762 C 0.56843 0.43991 0.21897
 C763 C 0.55813 0.45229 0.23598
 C764 C 0.56493 0.47508 0.24125
 C765 C 0.58204 0.48648 0.22968
 C766 C 0.59232 0.47451 0.21272
 H767 H 0.59733 0.37449 0.17099
 H768 H 0.52699 0.33972 0.20066
 H769 H 0.58464 0.33611 0.16029
 H770 H 0.52228 0.37380 0.22285
 H771 H 0.53262 0.41252 0.23355
 H772 H 0.60151 0.40963 0.17337
 H773 H 0.61075 0.44874 0.18258
 H774 H 0.54525 0.44474 0.24604
 H775 H 0.55710 0.48357 0.25494
 H776 H 0.60535 0.48310 0.20337
 C777 C 0.07287 0.85479 0.67916
 C778 C 0.06066 0.86800 0.69384
 C779 C 0.04125 0.85724 0.70304
 C780 C 0.03374 0.83467 0.69651
 C781 C 0.04534 0.82234 0.68088
 C782 C 0.06525 0.83245 0.67279
 C783 C 0.02915 0.86918 0.71834
 C784 C 0.03574 0.89166 0.72471
 C785 C 0.05458 0.90336 0.71562
 C786 C 0.06697 0.89143 0.69959
 C787 C 0.08486 0.90346 0.68932
 C788 C 0.09077 0.92620 0.69476
 C789 C 0.07937 0.93789 0.71084
 C790 C 0.06124 0.92671 0.72170
 C791 C 0.05067 0.93943 0.73827
 C792 C 0.05788 0.96213 0.74368
 C793 C 0.07571 0.97303 0.73273
 C794 C 0.08618 0.96079 0.71615
 H795 H 0.08842 0.86112 0.67227
 H796 H 0.01833 0.82698 0.70294
 H797 H 0.07492 0.82306 0.66124
 H798 H 0.01432 0.86106 0.72546
 H799 H 0.02528 0.89957 0.73645
 H800 H 0.09442 0.89593 0.67651
 H801 H 0.10456 0.93471 0.68632
 H802 H 0.03714 0.93227 0.74778
 H803 H 0.04977 0.97097 0.75694
 H804 H 0.09972 0.96908 0.70721
 C805 C 0.92213 0.64090 0.70648
 C806 C 0.93203 0.62099 0.71276
 C807 C 0.95523 0.61950 0.70885
 C808 C 0.96793 0.63754 0.69969
 C809 C 0.95780 0.65706 0.69327
 C810 C 0.93477 0.65846 0.69682
 C811 C 0.96560 0.59989 0.71376
 C812 C 0.95328 0.58130 0.72174
 C813 C 0.93008 0.58178 0.72569
 C814 C 0.91959 0.60232 0.72220
 C815 C 0.89714 0.60361 0.72852
 C816 C 0.88506 0.58525 0.73718
 C817 C 0.89458 0.56470 0.73938
 C818 C 0.91708 0.56253 0.73339
 C819 C 0.92543 0.54098 0.73488
 C820 C 0.91218 0.52268 0.74255
 C821 C 0.89017 0.52505 0.74932
 C822 C 0.88156 0.54626 0.74750
 H823 H 0.90442 0.64314 0.70799
 H824 H 0.98577 0.63620 0.69735
 H825 H 0.92615 0.67292 0.69146
 H826 H 0.98339 0.59872 0.71101
 H827 H 0.96264 0.56688 0.72515
 H828 H 0.88852 0.61883 0.72749
 H829 H 0.86791 0.58710 0.74193
 H830 H 0.94191 0.53750 0.72961
 H831 H 0.91927 0.50650 0.74267
 H832 H 0.86470 0.54876 0.75240
 C833 C 0.47988 0.13131 0.21344
 C834 C 0.45632 0.12886 0.21666
 C835 C 0.44326 0.14672 0.20993
 C836 C 0.45331 0.16562 0.19967
 C837 C 0.47648 0.16736 0.19588
 C838 C 0.48967 0.15018 0.20321
 C839 C 0.42011 0.14553 0.21309
 C840 C 0.40938 0.12686 0.22251
 C841 C 0.42138 0.10830 0.22900
 C842 C 0.44525 0.10931 0.22602
 C843 C 0.45714 0.09055 0.23208
 C844 C 0.44618 0.07144 0.24056
 C845 C 0.42297 0.07018 0.24355
 C846 C 0.41025 0.08862 0.23804
 C847 C 0.38680 0.08642 0.24162
 C848 C 0.37654 0.06675 0.24994
 C849 C 0.38907 0.04841 0.25520
 C850 C 0.41242 0.05039 0.25187
 H851 H 0.49129 0.11896 0.21854
 H852 H 0.44283 0.17868 0.19391
 H853 H 0.50772 0.15128 0.20095
 H854 H 0.41007 0.15919 0.20808
 H855 H 0.39146 0.12746 0.22415
 H856 H 0.47502 0.08988 0.23018
 H857 H 0.45604 0.05741 0.24477
 H858 H 0.37576 0.09955 0.23821
 H859 H 0.35862 0.06628 0.25225
 H860 H 0.42250 0.03636 0.25522
 C861 C 0.35073 0.46156 -0.12275
 C862 C 0.33486 0.44228 -0.12333
 C863 C 0.33098 0.42916 -0.14419
 C864 C 0.34285 0.43492 -0.16328
 C865 C 0.35883 0.45371 -0.16219
 C866 C 0.36243 0.46712 -0.14190
 C867 C 0.31543 0.41017 -0.14594
 C868 C 0.30422 0.40320 -0.12716
 C869 C 0.30824 0.41494 -0.10566
 C870 C 0.32316 0.43527 -0.10389
 C871 C 0.32607 0.44769 -0.08270
 C872 C 0.31565 0.44005 -0.06364
 C873 C 0.30208 0.41967 -0.06478
 C874 C 0.29806 0.40685 -0.08579
 C875 C 0.28488 0.38589 -0.08576
 C876 C 0.27637 0.37801 -0.06576
 C877 C 0.28001 0.39086 -0.04502
 C878 C 0.29313 0.41168 -0.04476
 H879 H 0.35487 0.47249 -0.10770
 H880 H 0.33970 0.42468 -0.17909
 H881 H 0.37480 0.48168 -0.14062
 H882 H 0.31208 0.40036 -0.16198
 H883 H 0.29241 0.38844 -0.13017
 H884 H 0.33644 0.46347 -0.08016
 H885 H 0.31865 0.45004 -0.04767
 H886 H 0.28158 0.37461 -0.10066
 H887 H 0.26765 0.36124 -0.06656
 H888 H 0.29728 0.42131 -0.02873
 C889 C 0.81560 0.95109 0.35991
 C890 C 0.81843 0.92934 0.36810
 C891 C 0.83081 0.91466 0.35503
 C892 C 0.84094 0.92206 0.33544
 C893 C 0.83845 0.94381 0.32799
 C894 C 0.82541 0.95810 0.34011
 C895 C 0.83317 0.89269 0.36159
 C896 C 0.82331 0.88473 0.38077
 C897 C 0.81108 0.89869 0.39458
 C898 C 0.80936 0.92162 0.38867
 C899 C 0.79926 0.93619 0.40386
 C900 C 0.79104 0.92861 0.42406
 C901 C 0.79184 0.90609 0.42962
 C902 C 0.80119 0.89066 0.41457
 C903 C 0.79993 0.86769 0.42000
 C904 C 0.79112 0.86070 0.44016
 C905 C 0.78351 0.87621 0.45599
 C906 C 0.78332 0.89890 0.45018
 H907 H 0.80567 0.96298 0.36819
 H908 H 0.85067 0.91080 0.32580
 H909 H 0.82315 0.97494 0.33448
 H910 H 0.84271 0.88145 0.35172
 H911 H 0.82635 0.86768 0.38482
 H912 H 0.79817 0.95386 0.40102
 H913 H 0.78387 0.94053 0.43541
 H914 H 0.80513 0.85456 0.40879
 H915 H 0.79041 0.84288 0.44354
 H916 H 0.77635 0.91109 0.46128
 C917 C 0.80829 0.00032 1.12761
 C918 C 0.79963 0.02178 1.12832
 C919 C 0.80397 0.03519 1.14890
 C920 C 0.81717 0.02777 1.16741
 C921 C 0.82634 0.00663 1.16645
 C922 C 0.82126 -0.00704 1.14621
 C923 C 0.79544 0.05625 1.15096
 C924 C 0.78310 0.06467 1.13286
 C925 C 0.77901 0.05248 1.11160
 C926 C 0.78721 0.03056 1.10931
 C927 C 0.78326 0.01850 1.08795
 C928 C 0.77244 0.02780 1.06926
 C929 C 0.76491 0.04938 1.07103
 C930 C 0.76765 0.06182 1.09235
 C931 C 0.75967 0.08356 1.09327
 C932 C 0.75067 0.09293 1.07374
 C933 C 0.74841 0.08092 1.05249
 C934 C 0.75543 0.05893 1.05137
 H935 H 0.80528 -0.01136 1.11299
 H936 H 0.82109 0.03936 1.18209
 H937 H 0.82666 -0.02392 1.14461
 H938 H 0.79849 0.06650 1.16677
 H939 H 0.77738 0.08113 1.13614
 H940 H 0.78880 0.00192 1.08488
 H941 H 0.77030 0.01809 1.05309
 H942 H 0.76071 0.09425 1.10862
 H943 H 0.74632 0.11024 1.07523
 H944 H 0.75467 0.04958 1.03507
 C945 C 0.35073 0.51641 0.63381
 C946 C 0.32852 0.52312 0.63561
 C947 C 0.31894 0.52114 0.65700
 C948 C 0.33103 0.51226 0.67548
 C949 C 0.35307 0.50580 0.67341
 C950 C 0.36271 0.50801 0.65239
 C951 C 0.29749 0.52835 0.65998
 C952 C 0.28563 0.53840 0.64249
 C953 C 0.29460 0.54120 0.62101
 C954 C 0.31586 0.53239 0.61717
 C955 C 0.32372 0.53307 0.59502
 C956 C 0.31204 0.54331 0.57760
 C957 C 0.29226 0.55354 0.58157
 C958 C 0.28311 0.55258 0.60321
 C959 C 0.26318 0.56361 0.60626
 C960 C 0.25328 0.57561 0.58880
 C961 C 0.26281 0.57707 0.56758
 C962 C 0.28188 0.56518 0.56401
 H963 H 0.35970 0.51816 0.61855
 H964 H 0.32326 0.51051 0.69158
 H965 H 0.37993 0.50380 0.65038
 H966 H 0.28996 0.52666 0.67622
 H967 H 0.26926 0.54359 0.64632
 H968 H 0.33882 0.52556 0.59045
 H969 H 0.31888 0.54365 0.56093
 H970 H 0.25509 0.56388 0.62214
 H971 H 0.23820 0.58370 0.59237
 H972 H 0.28919 0.56571 0.54757
 C973 C 0.22042 0.55669 0.35774
 C974 C 0.21158 0.54840 0.37795
 C975 C 0.19475 0.52988 0.37547
 C976 C 0.18632 0.52114 0.35371
 C977 C 0.19439 0.53036 0.33395
 C978 C 0.21189 0.54778 0.33614
 C979 C 0.18603 0.52040 0.39467
 C980 C 0.19331 0.52905 0.41646
 C981 C 0.20946 0.54794 0.41999
 C982 C 0.21859 0.55794 0.40040
 C983 C 0.23386 0.57751 0.40388
 C984 C 0.24000 0.58707 0.42562
 C985 C 0.23149 0.57740 0.44485
 C986 C 0.21640 0.55749 0.44243
 C987 C 0.20892 0.54802 0.46268
 C988 C 0.21582 0.55817 0.48417
 C989 C 0.23028 0.57808 0.48628
 C990 C 0.23808 0.58759 0.46656
 H991 H 0.23381 0.57012 0.35796
 H992 H 0.17310 0.50728 0.35211
 H993 H 0.21848 0.55506 0.32107
 H994 H 0.17323 0.50617 0.39282
 H995 H 0.18539 0.52081 0.43021
 H996 H 0.24105 0.58627 0.39003
 H997 H 0.25156 0.60227 0.42739
 H998 H 0.19791 0.53267 0.46263
 H999 H 0.20963 0.55051 0.49923
 H1000 H 0.24972 0.60274 0.46813
 C1001 C 0.69472 0.01406 0.85722
 C1002 C 0.69505 0.03650 0.86626
 C1003 C 0.68661 0.05271 0.85166
 C1004 C 0.67886 0.04669 0.82893
 C1005 C 0.67773 0.02413 0.82011
 C1006 C 0.68612 0.00802 0.83479
 C1007 C 0.68565 0.07495 0.85982
 C1008 C 0.69182 0.08129 0.88251
 C1009 C 0.69994 0.06570 0.89788
 C1010 C 0.70293 0.04335 0.88934
 C1011 C 0.71405 0.02887 0.90403
 C1012 C 0.72167 0.03594 0.92638
 C1013 C 0.71761 0.05725 0.93531
 C1014 C 0.70591 0.07206 0.92137
 C1015 C 0.70023 0.09254 0.93163
 C1016 C 0.70742 0.09882 0.95421
 C1017 C 0.72075 0.08515 0.96745
 C1018 C 0.72529 0.06401 0.95803
 H1019 H 0.70005 0.00052 0.86740
 H1020 H 0.67399 0.06009 0.81823
 H1021 H 0.68518 -0.00972 0.82970
 H1022 H 0.67956 0.08756 0.84864
 H1023 H 0.69077 0.09884 0.88737
 H1024 H 0.71786 0.01219 0.89844
 H1025 H 0.73058 0.02445 0.93687
 H1026 H 0.68972 0.10384 0.92280
 H1027 H 0.70231 0.11456 0.96124
 H1028 H 0.73520 0.05301 0.96814
 C1029 C 0.68317 0.95869 0.60639
 C1030 C 0.70106 0.94439 0.60898
 C1031 C 0.70796 0.93874 0.63150
 C1032 C 0.69735 0.94717 0.65040
 C1033 C 0.67944 0.96097 0.64743
 C1034 C 0.67259 0.96672 0.62528
 C1035 C 0.72518 0.92442 0.63508
 C1036 C 0.73529 0.91486 0.61680
 C1037 C 0.72870 0.91943 0.59399
 C1038 C 0.71194 0.93512 0.59006
 C1039 C 0.70659 0.94095 0.56736
 C1040 C 0.71650 0.93113 0.54905
 C1041 C 0.73190 0.91490 0.55248
 C1042 C 0.73827 0.90878 0.57498
 C1043 C 0.75351 0.89174 0.57740
 C1044 C 0.76167 0.88117 0.55834
 C1045 C 0.75520 0.88720 0.53627
 C1046 C 0.74060 0.90437 0.53344
 H1047 H 0.67658 0.96368 0.59000
 H1048 H 0.70261 0.94238 0.66745
 H1049 H 0.65893 0.97756 0.62253
 H1050 H 0.73073 0.92027 0.65226
 H1051 H 0.74845 0.90404 0.62121
 H1052 H 0.69484 0.95325 0.56308
 H1053 H 0.71172 0.93605 0.53193
 H1054 H 0.75904 0.88570 0.59370
 H1055 H 0.77312 0.86816 0.56093
 H1056 H 0.73526 0.90889 0.51632
 C1057 C 0.19149 0.46757 0.11605
 C1058 C 0.21117 0.45559 0.11641
 C1059 C 0.22214 0.45204 0.13802
 C1060 C 0.21394 0.46070 0.15824
 C1061 C 0.19427 0.47235 0.15759
 C1062 C 0.18320 0.47562 0.13625
 C1063 C 0.24105 0.43954 0.13942
 C1064 C 0.24879 0.42961 0.11992
 C1065 C 0.23818 0.43223 0.09803
 C1066 C 0.21986 0.44644 0.09615
 C1067 C 0.21093 0.45111 0.07410
 C1068 C 0.21881 0.44137 0.05458
 C1069 C 0.23550 0.42621 0.05619
 C1070 C 0.24534 0.42123 0.07792
 C1071 C 0.26141 0.40486 0.07861
 C1072 C 0.26737 0.39405 0.05860
 C1073 C 0.25785 0.39937 0.03726
 C1074 C 0.24210 0.41564 0.03613
 H1075 H 0.18157 0.47030 0.10051
 H1076 H 0.22285 0.45814 0.17454
 H1077 H 0.16758 0.48387 0.13508
 H1078 H 0.24971 0.43699 0.15586
 H1079 H 0.26349 0.42026 0.12255
 H1080 H 0.19802 0.46263 0.07128
 H1081 H 0.21140 0.44543 0.03802
 H1082 H 0.26917 0.39948 0.09435
 H1083 H 0.27954 0.38144 0.05982
 H1084 H 0.23432 0.41944 0.01963
 C1085 C -0.16138 0.31710 0.41355
 C1086 C -0.13778 0.32287 0.41822
 C1087 C -0.13100 0.34145 0.43384
 C1088 C -0.14728 0.35394 0.44374
 C1089 C -0.17051 0.34801 0.43873
 C1090 C -0.17735 0.32945 0.42367
 C1091 C -0.10802 0.34747 0.43959
 C1092 C -0.09146 0.33554 0.43017
 C1093 C -0.09721 0.31717 0.41420
 C1094 C -0.12077 0.31087 0.40796
 C1095 C -0.12654 0.29304 0.39140
 C1096 C -0.11001 0.28178 0.38120
 C1097 C -0.08705 0.28755 0.38717
 C1098 C -0.08021 0.30512 0.40391
 C1099 C -0.05660 0.31008 0.40926
 C1100 C -0.04070 0.29839 0.39814
 C1101 C -0.04752 0.28101 0.38157
 C1102 C -0.07090 0.27602 0.37603
 H1103 H -0.16820 0.30305 0.40230
 H1104 H -0.14188 0.36811 0.45565
 H1105 H -0.19523 0.32461 0.41945
 H1106 H -0.10274 0.36159 0.45160
 H1107 H -0.07418 0.34143 0.43561
 H1108 H -0.14378 0.28751 0.38551
 H1109 H -0.11533 0.26837 0.36838
 H1110 H -0.04975 0.32304 0.42177
 H1111 H -0.02283 0.30337 0.40222
 H1112 H -0.07685 0.26369 0.36244
 C1113 C 0.37286 0.85325 0.94959
 C1114 C 0.37244 0.83037 0.94165
 C1115 C 0.35137 0.81703 0.94097
 C1116 C 0.33172 0.82641 0.94776
 C1117 C 0.33243 0.84919 0.95515
 C1118 C 0.35323 0.86239 0.95620
 C1119 C 0.34987 0.79445 0.93319
 C1120 C 0.36864 0.78486 0.92536
 C1121 C 0.38989 0.79751 0.92504
 C1122 C 0.39198 0.82046 0.93393
 C1123 C 0.41348 0.83278 0.93456
 C1124 C 0.43204 0.82343 0.92594
 C1125 C 0.43001 0.80149 0.91624
 C1126 C 0.40904 0.78809 0.91583
 C1127 C 0.40805 0.76597 0.90571
 C1128 C 0.42672 0.75794 0.89571
 C1129 C 0.44728 0.77154 0.89542
 C1130 C 0.44881 0.79310 0.90647
 H1131 H 0.38797 0.86474 0.95065
 H1132 H 0.31568 0.81607 0.94668
 H1133 H 0.35437 0.87995 0.96223
 H1134 H 0.33388 0.78411 0.93286
 H1135 H 0.36581 0.76736 0.91960
 H1136 H 0.41664 0.84986 0.94158
 H1137 H 0.44810 0.83369 0.92651
 H1138 H 0.39296 0.75446 0.90475
 H1139 H 0.42447 0.74102 0.88816
 H1140 H 0.46465 0.80371 0.90679
 C1141 C 1.12732 0.83291 0.02241
 C1142 C 1.12960 0.81328 0.03493
 C1143 C 1.15146 0.80518 0.03735
 C1144 C 1.17001 0.81630 0.02753
 C1145 C 1.16758 0.83603 0.01568
 C1146 C 1.14600 0.84408 0.01311
 C1147 C 1.15486 0.78619 0.04983
 C1148 C 1.13734 0.77561 0.06101
 C1149 C 1.11547 0.78349 0.05992
 C1150 C 1.11120 0.80183 0.04568
 C1151 C 1.08871 0.80805 0.04271
 C1152 C 1.07121 0.79737 0.05400
 C1153 C 1.07547 0.78053 0.06919
 C1154 C 1.09770 0.77355 0.07255
 C1155 C 1.10147 0.75757 0.08923
 C1156 C 1.08393 0.74873 0.10172
 C1157 C 1.06163 0.75492 0.09782
 C1158 C 1.05771 0.77103 0.08146
 H1159 H 1.11151 0.84054 0.02011
 H1160 H 1.18649 0.80964 0.02937
 H1161 H 1.14359 0.85952 0.00446
 H1162 H 1.17142 0.77963 0.05134
 H1163 H 1.14142 0.76094 0.07011
 H1164 H 1.08395 0.82097 0.03144
 H1165 H 1.05424 0.80273 0.05120
 H1166 H 1.11806 0.75230 0.09387
 H1167 H 1.08852 0.73764 0.11500
 H1168 H 1.04084 0.77670 0.07881
 C1169 C 0.66768 0.29825 0.52374
 C1170 C 0.64448 0.30251 0.52142
 C1171 C 0.63885 0.32182 0.50957
 C1172 C 0.65591 0.33668 0.50154
 C1173 C 0.67886 0.33269 0.50489
 C1174 C 0.68446 0.31310 0.51564
 C1175 C 0.61626 0.32652 0.50615
 C1176 C 0.59901 0.31286 0.51476
 C1177 C 0.60370 0.29398 0.52756
 C1178 C 0.62681 0.28863 0.53083
 C1179 C 0.63156 0.27007 0.54407
 C1180 C 0.61459 0.25775 0.55454
 C1181 C 0.59212 0.26309 0.55203
 C1182 C 0.58618 0.28081 0.53798
 C1183 C 0.56300 0.28502 0.53560
 C1184 C 0.54689 0.27321 0.54785
 C1185 C 0.55298 0.25646 0.56268
 C1186 C 0.57573 0.25124 0.56425
 H1187 H 0.67355 0.28365 0.53176
 H1188 H 0.65129 0.35180 0.49332
 H1189 H 0.70198 0.30919 0.51785
 H1190 H 0.61184 0.34115 0.49692
 H1191 H 0.58215 0.31802 0.51153
 H1192 H 0.64843 0.26494 0.54732
 H1193 H 0.61922 0.24406 0.56508
 H1194 H 0.55671 0.29767 0.52484
 H1195 H 0.52957 0.27785 0.54638
 H1196 H 0.58128 0.23882 0.57578
 C1197 C 0.35091 0.17327 0.56983
 C1198 C 0.36490 0.18862 0.55800
 C1199 C 0.35504 0.19774 0.53809
 C1200 C 0.33238 0.19119 0.53024
 C1201 C 0.31912 0.17534 0.54174
 C1202 C 0.32853 0.16675 0.56175
 C1203 C 0.36793 0.21302 0.52583
 C1204 C 0.39057 0.21931 0.53259
 C1205 C 0.40140 0.21049 0.55203
 C1206 C 0.38830 0.19499 0.56504
 C1207 C 0.39913 0.18615 0.58447
 C1208 C 0.42189 0.19201 0.59092
 C1209 C 0.43490 0.20695 0.57840
 C1210 C 0.42492 0.21650 0.55882
 C1211 C 0.43903 0.23164 0.54688
 C1212 C 0.46189 0.23688 0.55408
 C1213 C 0.47166 0.22727 0.57338
 C1214 C 0.45794 0.21233 0.58545
 H1215 H 0.35669 0.16572 0.58528
 H1216 H 0.32531 0.19782 0.51464
 H1217 H 0.31852 0.15474 0.57117
 H1218 H 0.36047 0.22010 0.51065
 H1219 H 0.39915 0.23109 0.52197
 H1220 H 0.39053 0.17444 0.59515
 H1221 H 0.42942 0.18469 0.60593
 H1222 H 0.43302 0.23989 0.53196
 H1223 H 0.47181 0.24892 0.54465
 H1224 H 0.46517 0.20459 0.60029
 C1225 C 0.86683 0.71501 0.03184
 C1226 C 0.87749 0.70674 0.05180
 C1227 C 0.86445 0.69084 0.06399
 C1228 C 0.84209 0.68333 0.05616
 C1229 C 0.83213 0.69106 0.03597
 C1230 C 0.84457 0.70724 0.02412
 C1231 C 0.87382 0.68219 0.08381
 C1232 C 0.89611 0.68847 0.09169
 C1233 C 0.91013 0.70380 0.08000
 C1234 C 0.90058 0.71340 0.05993
 C1235 C 0.91446 0.72923 0.04866
 C1236 C 0.93686 0.73540 0.05656
 C1237 C 0.94649 0.72599 0.07588
 C1238 C 0.93336 0.70994 0.08782
 C1239 C 0.94413 0.70067 0.10710
 C1240 C 0.96658 0.70754 0.11447
 C1241 C 0.97932 0.72372 0.10294
 C1242 C 0.96921 0.73271 0.08344
 H1243 H 0.87530 0.72717 0.02151
 H1244 H 0.83244 0.67113 0.06573
 H1245 H 0.83732 0.71340 0.00838
 H1246 H 0.86382 0.67020 0.09330
 H1247 H 0.90178 0.68093 0.10718
 H1248 H 0.90851 0.73732 0.03361
 H1249 H 0.94678 0.74769 0.04737
 H1250 H 0.93580 0.68799 0.11694
 H1251 H 0.97398 0.69994 0.12932
 H1252 H 0.97882 0.74541 0.07446
 C1253 C 0.64902 0.71858 0.92014
 C1254 C 0.62975 0.72239 0.93238
 C1255 C 0.62986 0.71559 0.95524
 C1256 C 0.64847 0.70554 0.96521
 C1257 C 0.66700 0.70102 0.95261
 C1258 C 0.66722 0.70798 0.93010
 C1259 C 0.61118 0.71833 0.96796
 C1260 C 0.59173 0.72649 0.95815
 C1261 C 0.59033 0.73267 0.93518
 C1262 C 0.61011 0.73191 0.92253
 C1263 C 0.60951 0.74066 0.90053
 C1264 C 0.58993 0.74880 0.89076
 C1265 C 0.56997 0.74789 0.90217
 C1266 C 0.56982 0.73965 0.92447
 C1267 C 0.54888 0.73792 0.93478
 C1268 C 0.52906 0.74406 0.92340
 C1269 C 0.52928 0.75247 0.90145
 C1270 C 0.55001 0.75471 0.89115
 H1271 H 0.65018 0.72273 0.90255
 H1272 H 0.64826 0.70075 0.98282
 H1273 H 0.68113 0.70450 0.91981
 H1274 H 0.61135 0.71355 0.98559
 H1275 H 0.57809 0.72810 0.96920
 H1276 H 0.62409 0.74177 0.89049
 H1277 H 0.59025 0.75529 0.87380
 H1278 H 0.54697 0.73089 0.95122
 H1279 H 0.51335 0.74139 0.93168
 H1280 H 0.55071 0.76150 0.87436
 C1281 C 0.11537 0.21076 0.46965
 C1282 C 0.11207 0.21324 0.44580
 C1283 C 0.12968 0.20740 0.43206
 C1284 C 0.14884 0.19786 0.44172
 C1285 C 0.15122 0.19433 0.46522
 C1286 C 0.13456 0.20148 0.47908
 C1287 C 0.12791 0.21071 0.40866
 C1288 C 0.10900 0.21963 0.39846
 C1289 C 0.09064 0.22505 0.41122
 C1290 C 0.09195 0.22120 0.43518
 C1291 C 0.07279 0.22460 0.44753
 C1292 C 0.05310 0.23168 0.43698
 C1293 C 0.05183 0.23625 0.41386
 C1294 C 0.07070 0.23350 0.40072
 C1295 C 0.06873 0.23937 0.37760
 C1296 C 0.04870 0.24695 0.36792
 C1297 C 0.02975 0.24892 0.38073
 C1298 C 0.03162 0.24345 0.40382
 H1299 H 0.10354 0.21600 0.48155
 H1300 H 0.16152 0.19246 0.43070
 H1301 H 0.13629 0.19980 0.49740
 H1302 H 0.14133 0.20632 0.39805
 H1303 H 0.10896 0.22135 0.38027
 H1304 H 0.07213 0.22118 0.46535
 H1305 H 0.03870 0.23367 0.44712
 H1306 H 0.08250 0.23873 0.36658
 H1307 H 0.04841 0.25143 0.35030
 H1308 H 0.01727 0.24437 0.41416
 C1309 C 0.59195 0.12093 0.69318
 C1310 C 0.57193 0.12166 0.67874
 C1311 C 0.55839 0.10104 0.67345
 C1312 C 0.56562 0.08047 0.68107
 C1313 C 0.58624 0.07998 0.69425
 C1314 C 0.59890 0.10050 0.70069
 C1315 C 0.53791 0.10101 0.66022
 C1316 C 0.53072 0.12090 0.65168
 C1317 C 0.54407 0.14171 0.65555
 C1318 C 0.56513 0.14203 0.66915
 C1319 C 0.57920 0.16248 0.67190
 C1320 C 0.57331 0.18177 0.66129
 C1321 C 0.55298 0.18172 0.64792
 C1322 C 0.53762 0.16201 0.64545
 C1323 C 0.51672 0.16344 0.63248
 C1324 C 0.51219 0.18306 0.62122
 C1325 C 0.52824 0.20174 0.62254
 C1326 C 0.54831 0.20118 0.63639
 H1327 H 0.60265 0.13582 0.69916
 H1328 H 0.55551 0.06477 0.67612
 H1329 H 0.61439 0.10081 0.71166
 H1330 H 0.52738 0.08535 0.65624
 H1331 H 0.51489 0.11922 0.64135
 H1332 H 0.59545 0.16402 0.68145
 H1333 H 0.58502 0.19686 0.66334
 H1334 H 0.50364 0.14964 0.63045
 H1335 H 0.49656 0.18322 0.61058
 H1336 H 0.56065 0.21581 0.63763
 C1337 C 1.08637 0.61923 0.23098
 C1338 C 1.06987 0.61955 0.21240
 C1339 C 1.06176 0.59854 0.20115
 C1340 C 1.07109 0.57846 0.20729
 C1341 C 1.08871 0.57885 0.22451
 C1342 C 1.09563 0.59925 0.23676
 C1343 C 1.04495 0.59777 0.18327
 C1344 C 1.03677 0.61747 0.17542
 C1345 C 1.04539 0.63895 0.18495
 C1346 C 1.06186 0.63999 0.20408
 C1347 C 1.07058 0.66145 0.21357
 C1348 C 1.06459 0.68120 0.20392
 C1349 C 1.04943 0.68047 0.18467
 C1350 C 1.03891 0.65945 0.17534
 C1351 C 1.02311 0.65991 0.15613
 C1352 C 1.01931 0.68015 0.14583
 C1353 C 1.03086 0.70047 0.15444
 C1354 C 1.04543 0.70068 0.17415
 H1355 H 1.09287 0.63412 0.24118
 H1356 H 1.06549 0.56272 0.19779
 H1357 H 1.10867 0.59987 0.25069
 H1358 H 1.03838 0.58173 0.17487
 H1359 H 1.02412 0.61524 0.16128
 H1360 H 1.08276 0.66370 0.22810
 H1361 H 1.07238 0.69724 0.21132
 H1362 H 1.01387 0.64493 0.14820
 H1363 H 1.00818 0.67976 0.13038
 H1364 H 1.05439 0.71654 0.18072
 C1365 C 0.98113 0.89013 0.20224
 C1366 C 0.97248 0.86720 0.20195
 C1367 C 0.95036 0.86236 0.20923
 C1368 C 0.93801 0.87979 0.21743
 C1369 C 0.94664 0.90253 0.21732
 C1370 C 0.96833 0.90740 0.20956
 C1371 C 0.94045 0.84017 0.20791
 C1372 C 0.95151 0.82279 0.19830
 C1373 C 0.97342 0.82683 0.19046
 C1374 C 0.98467 0.84905 0.19386
 C1375 C 1.00777 0.85231 0.18929
 C1376 C 1.01909 0.83475 0.18037
 C1377 C 1.00762 0.81358 0.17476
 C1378 C 0.98454 0.80936 0.17947
 C1379 C 0.97326 0.78817 0.17203
 C1380 C 0.98442 0.77201 0.16027
 C1381 C 1.00739 0.77603 0.15599
 C1382 C 1.01897 0.79678 0.16387
 H1383 H 0.99732 0.89534 0.19591
 H1384 H 0.92149 0.87550 0.22369
 H1385 H 0.97534 0.92470 0.20851
 H1386 H 0.92365 0.83628 0.21374
 H1387 H 0.94269 0.80614 0.19778
 H1388 H 1.01775 0.86821 0.19299
 H1389 H 1.03683 0.83803 0.17711
 H1390 H 0.95544 0.78403 0.17391
 H1391 H 0.97452 0.75669 0.15380
 H1392 H 1.03678 0.80024 0.16107
 C1393 C 0.48448 0.38986 0.68019
 C1394 C 0.47929 0.36646 0.68282
 C1395 C 0.46649 0.35998 0.70139
 C1396 C 0.45778 0.37644 0.71546
 C1397 C 0.46219 0.39950 0.71182
 C1398 C 0.47603 0.40601 0.69445
 C1399 C 0.46222 0.33715 0.70561
 C1400 C 0.47038 0.32049 0.69181
 C1401 C 0.48253 0.32602 0.67264
 C1402 C 0.48635 0.34936 0.66767
 C1403 C 0.49635 0.35486 0.64726
 C1404 C 0.50289 0.33826 0.63245
 C1405 C 0.50030 0.31557 0.63757
 C1406 C 0.49046 0.30901 0.65786
 C1407 C 0.48915 0.28570 0.66243
 C1408 C 0.49705 0.26976 0.64730
 C1409 C 0.50633 0.27642 0.62706
 C1410 C 0.50757 0.29941 0.62230
 H1411 H 0.49516 0.39630 0.66739
 H1412 H 0.44742 0.37132 0.72920
 H1413 H 0.47975 0.42374 0.69138
 H1414 H 0.45250 0.33208 0.71982
 H1415 H 0.46618 0.30330 0.69617
 H1416 H 0.49868 0.37190 0.64176
 H1417 H 0.51027 0.34332 0.61684
 H1418 H 0.48263 0.27930 0.67781
 H1419 H 0.49622 0.25225 0.65174
 H1420 H 0.51406 0.30495 0.60648
 C1421 C 0.46611 0.58659 0.83163
 C1422 C 0.47379 0.60589 0.82004
 C1423 C 0.47811 0.60271 0.79671
 C1424 C 0.47358 0.58132 0.78535
 C1425 C 0.46460 0.56273 0.79681
 C1426 C 0.46148 0.56554 0.82015
 C1427 C 0.48630 0.62101 0.78463
 C1428 C 0.48953 0.64265 0.79489
 C1429 C 0.48443 0.64696 0.81774
 C1430 C 0.47664 0.62821 0.83059
 C1431 C 0.47112 0.63250 0.85330
 C1432 C 0.47225 0.65428 0.86288
 C1433 C 0.47923 0.67271 0.85046
 C1434 C 0.48610 0.66944 0.82796
 C1435 C 0.49390 0.68895 0.81663
 C1436 C 0.49372 0.71065 0.82688
 C1437 C 0.48561 0.71355 0.84850
 C1438 C 0.47894 0.69451 0.86040
 H1439 H 0.46299 0.58713 0.84948
 H1440 H 0.47652 0.57927 0.76738
 H1441 H 0.45445 0.55160 0.82950
 H1442 H 0.48986 0.61865 0.76685
 H1443 H 0.49547 0.65580 0.78414
 H1444 H 0.46520 0.61942 0.86412
 H1445 H 0.46727 0.65674 0.88019
 H1446 H 0.50010 0.68810 0.79982
 H1447 H 0.49931 0.72523 0.81761
 H1448 H 0.47331 0.69672 0.87749
 C1449 C -0.03170 0.09275 0.30392
 C1450 C -0.03926 0.11246 0.29421
 C1451 C -0.05633 0.10958 0.27591
 C1452 C -0.06498 0.08787 0.26758
 C1453 C -0.05770 0.06864 0.27781
 C1454 C -0.04098 0.07124 0.29595
 C1455 C -0.06517 0.12836 0.26641
 C1456 C -0.05847 0.15000 0.27551
 C1457 C -0.04213 0.15374 0.29422
 C1458 C -0.03125 0.13485 0.30266
 C1459 C -0.01281 0.13901 0.31925
 C1460 C -0.00615 0.16071 0.32835
 C1461 C -0.01805 0.17897 0.32188
 C1462 C -0.03634 0.17575 0.30482
 C1463 C -0.04881 0.19449 0.29989
 C1464 C -0.04349 0.21532 0.31166
 C1465 C -0.02531 0.21835 0.32823
 C1466 C -0.01228 0.20033 0.33295
 H1467 H -0.01934 0.09338 0.31833
 H1468 H -0.07826 0.08591 0.25381
 H1469 H -0.03524 0.05653 0.30414
 H1470 H -0.07793 0.12629 0.25216
 H1471 H -0.06617 0.16358 0.26722
 H1472 H -0.00288 0.12579 0.32531
 H1473 H 0.00801 0.16308 0.34116
 H1474 H -0.06346 0.19335 0.28784
 H1475 H -0.05384 0.22912 0.30804
 H1476 H 0.00158 0.20265 0.34612
 C1477 C 0.09900 0.36814 0.27560
 C1478 C 0.07512 0.36337 0.27310
 C1479 C 0.06223 0.37922 0.26178
 C1480 C 0.07286 0.39943 0.25447
 C1481 C 0.09631 0.40450 0.25860
 C1482 C 0.10930 0.38839 0.26858
 C1483 C 0.03870 0.37528 0.25858
 C1484 C 0.02740 0.35671 0.26765
 C1485 C 0.03925 0.34127 0.28048
 C1486 C 0.06356 0.34406 0.28235
 C1487 C 0.07543 0.32795 0.29418
 C1488 C 0.06407 0.31080 0.30537
 C1489 C 0.04047 0.30892 0.30524
 C1490 C 0.02763 0.32367 0.29225
 C1491 C 0.00369 0.32084 0.29262
 C1492 C -0.00675 0.30524 0.30650
 C1493 C 0.00617 0.29170 0.32027
 C1494 C 0.02969 0.29299 0.31886
 H1495 H 0.11025 0.35699 0.28354
 H1496 H 0.06268 0.41181 0.24673
 H1497 H 0.12755 0.39169 0.27143
 H1498 H 0.02881 0.38707 0.24950
 H1499 H 0.00921 0.35523 0.26462
 H1500 H 0.09367 0.32832 0.29557
 H1501 H 0.07395 0.29928 0.31486
 H1502 H -0.00752 0.33092 0.28307
 H1503 H -0.02506 0.30417 0.30692
 H1504 H 0.03981 0.28267 0.32953
 C1505 C 0.55820 0.90628 0.80781
 C1506 C 0.55169 0.88421 0.79843
 C1507 C 0.55633 0.87932 0.77546
 C1508 C 0.56586 0.89640 0.76221
 C1509 C 0.57175 0.91839 0.77168
 C1510 C 0.56810 0.92290 0.79472
 C1511 C 0.55156 0.85740 0.76589
 C1512 C 0.54256 0.84009 0.77870
 C1513 C 0.53722 0.84419 0.80150
 C1514 C 0.54108 0.86682 0.81119
 C1515 C 0.53363 0.87150 0.83310
 C1516 C 0.52318 0.85468 0.84533
 C1517 C 0.52012 0.83243 0.83655
 C1518 C 0.52751 0.82663 0.81476
 C1519 C 0.52493 0.80344 0.80736
 C1520 C 0.51461 0.78707 0.82071
 C1521 C 0.50631 0.79334 0.84156
 C1522 C 0.50947 0.81597 0.84951
 H1523 H 0.55659 0.91114 0.82547
 H1524 H 0.56862 0.89249 0.74447
 H1525 H 0.57341 0.93928 0.80299
 H1526 H 0.55506 0.85350 0.74834
 H1527 H 0.53931 0.82370 0.76999
 H1528 H 0.53491 0.88827 0.84104
 H1529 H 0.51744 0.85918 0.86195
 H1530 H 0.53096 0.79739 0.79151
 H1531 H 0.51267 0.76955 0.81450
 H1532 H 0.50371 0.82078 0.86604
 C1533 C 0.66243 0.60994 0.10080
 C1534 C 0.66645 0.58956 0.11118
 C1535 C 0.68457 0.57765 0.10387
 C1536 C 0.69693 0.58514 0.08550
 C1537 C 0.69291 0.60568 0.07520
 C1538 C 0.67547 0.61788 0.08353
 C1539 C 0.69059 0.55865 0.11534
 C1540 C 0.67950 0.55175 0.13439
 C1541 C 0.66107 0.56295 0.14199
 C1542 C 0.65355 0.58117 0.12915
 C1543 C 0.63312 0.59018 0.13439
 C1544 C 0.62123 0.58272 0.15254
 C1545 C 0.62955 0.56655 0.16662
 C1546 C 0.64966 0.55648 0.16177
 C1547 C 0.65778 0.54093 0.17735
 C1548 C 0.64645 0.53591 0.19697
 C1549 C 0.62649 0.54588 0.20153
 C1550 C 0.61792 0.56072 0.18579
 H1551 H 0.64973 0.62061 0.10618
 H1552 H 0.71082 0.57566 0.08058
 H1553 H 0.67069 0.63323 0.07596
 H1554 H 0.70444 0.54936 0.10993
 H1555 H 0.68529 0.53712 0.14248
 H1556 H 0.62549 0.60262 0.12426
 H1557 H 0.60562 0.59016 0.15593
 H1558 H 0.67335 0.53310 0.17533
 H1559 H 0.65381 0.52467 0.20885
 H1560 H 0.60215 0.56811 0.18848
 C1561 C 0.14890 1.05949 0.58535
 C1562 C 0.15959 1.05794 0.60750
 C1563 C 0.18316 1.06467 0.61077
 C1564 C 0.19481 1.07457 0.59313
 C1565 C 0.18356 1.07721 0.57180
 C1566 C 0.16077 1.06896 0.56783
 C1567 C 0.19487 1.06198 0.63175
 C1568 C 0.18365 1.05311 0.64983
 C1569 C 0.15997 1.04735 0.64788
 C1570 C 0.14766 1.05034 0.62653
 C1571 C 0.12373 1.04686 0.62524
 C1572 C 0.11215 1.04115 0.64423
 C1573 C 0.12390 1.03783 0.66502
 C1574 C 0.14799 1.03986 0.66694
 C1575 C 0.15899 1.03462 0.68804
 C1576 C 0.14653 1.02924 0.70676
 C1577 C 0.12291 1.02916 0.70508
 C1578 C 0.11163 1.03295 0.68408
 H1579 H 0.13141 1.05350 0.58098
 H1580 H 0.21262 1.08053 0.59607
 H1581 H 0.15187 1.07059 0.55132
 H1582 H 0.21293 1.06695 0.63430
 H1583 H 0.19389 1.05204 0.66556
 H1584 H 0.11329 1.04955 0.61002
 H1585 H 0.09374 1.03947 0.64265
 H1586 H 0.17716 1.03444 0.69057
 H1587 H 0.15541 1.02590 0.72285
 H1588 H 0.09323 1.03231 0.68271
 C1589 C 0.20349 0.98332 0.88794
 C1590 C 0.19225 0.97158 0.86841
 C1591 C 0.19206 0.94776 0.86731
 C1592 C 0.20214 0.93634 0.88528
 C1593 C 0.21295 0.94801 0.90512
 C1594 C 0.21351 0.97186 0.90574
 C1595 C 0.18142 0.93519 0.84841
 C1596 C 0.17059 0.94567 0.83064
 C1597 C 0.16973 0.96935 0.83106
 C1598 C 0.18093 0.98258 0.85017
 C1599 C 0.18003 1.00627 0.85060
 C1600 C 0.16809 1.01665 0.83342
 C1601 C 0.15664 1.00397 0.81503
 C1602 C 0.15759 0.98020 0.81329
 C1603 C 0.14588 0.96826 0.79403
 C1604 C 0.13303 0.97934 0.77793
 C1605 C 0.13151 1.00268 0.78022
 C1606 C 0.14379 1.01496 0.79859
 H1607 H 0.20504 1.00147 0.89008
 H1608 H 0.20002 0.91809 0.88394
 H1609 H 0.22252 0.98229 0.91950
 H1610 H 0.18131 0.91692 0.84739
 H1611 H 0.16275 0.93454 0.81690
 H1612 H 0.18811 1.01740 0.86422
 H1613 H 0.16756 1.03485 0.83475
 H1614 H 0.14585 0.95028 0.79101
 H1615 H 0.12353 0.96932 0.76409
 H1616 H 0.14302 1.03312 0.80031
 C1617 C 0.71382 0.49105 0.37931
 C1618 C 0.69947 0.47988 0.36129
 C1619 C 0.69605 0.45599 0.36125
 C1620 C 0.70559 0.44413 0.37917
 C1621 C 0.71916 0.45552 0.39729
 C1622 C 0.72344 0.47904 0.39690
 C1623 C 0.68288 0.44397 0.34348
 C1624 C 0.67274 0.45510 0.32573
 C1625 C 0.67494 0.47892 0.32526
 C1626 C 0.68827 0.49154 0.34351
 C1627 C 0.68929 0.51538 0.34380
 C1628 C 0.67738 0.52653 0.32719
 C1629 C 0.66435 0.51449 0.30934
 C1630 C 0.66349 0.49056 0.30764
 C1631 C 0.65081 0.47931 0.28853
 C1632 C 0.63833 0.49124 0.27284
 C1633 C 0.63814 0.51472 0.27550
 C1634 C 0.65167 0.52630 0.29347
 H1635 H 0.71818 0.50903 0.38026
 H1636 H 0.70194 0.42596 0.37923
 H1637 H 0.73442 0.48830 0.41022
 H1638 H 0.68029 0.42569 0.34332
 H1639 H 0.66263 0.44445 0.31295
 H1640 H 0.69855 0.52604 0.35714
 H1641 H 0.67819 0.54484 0.32850
 H1642 H 0.64994 0.46129 0.28528
 H1643 H 0.62803 0.48184 0.25911
 H1644 H 0.65192 0.54456 0.29536
 C1645 C 0.80905 0.47866 0.59400
 C1646 C 0.79783 0.47134 0.61329
 C1647 C 0.77875 0.45523 0.60939
 C1648 C 0.77132 0.44706 0.58713
 C1649 C 0.78307 0.45398 0.56837
 C1650 C 0.80185 0.46995 0.57199
 C1651 C 0.76757 0.44678 0.62778
 C1652 C 0.77573 0.45283 0.65010
 C1653 C 0.79525 0.46802 0.65492
 C1654 C 0.80552 0.47859 0.63628
 C1655 C 0.82326 0.49583 0.64128
 C1656 C 0.83187 0.50133 0.66361
 C1657 C 0.82359 0.48952 0.68176
 C1658 C 0.80507 0.47276 0.67774
 C1659 C 0.79802 0.46050 0.69657
 C1660 C 0.80951 0.46415 0.71811
 C1661 C 0.82794 0.48046 0.72177
 C1662 C 0.83442 0.49366 0.70377
 H1663 H 0.82401 0.49040 0.59540
 H1664 H 0.75700 0.43440 0.58450
 H1665 H 0.81118 0.47554 0.55771
 H1666 H 0.75272 0.43480 0.62489
 H1667 H 0.76619 0.44541 0.66329
 H1668 H 0.83079 0.50555 0.62823
 H1669 H 0.84577 0.51441 0.66660
 H1670 H 0.78451 0.44711 0.69501
 H1671 H 0.80439 0.45372 0.73189
 H1672 H 0.84896 0.50607 0.70655
 C1673 C 0.32268 -0.05596 0.10095
 C1674 C 0.31162 -0.04360 0.11737
 C1675 C 0.28977 -0.03692 0.11078
 C1676 C 0.27930 -0.04322 0.08894
 C1677 C 0.29032 -0.05600 0.07318
 C1678 C 0.31216 -0.06206 0.07938
 C1679 C 0.27838 -0.02416 0.12605
 C1680 C 0.28810 -0.01787 0.14784
 C1681 C 0.30963 -0.02440 0.15543
 C1682 C 0.32143 -0.03775 0.14003
 C1683 C 0.34246 -0.04521 0.14792
 C1684 C 0.35176 -0.03978 0.16995
 C1685 C 0.34070 -0.02655 0.18502
 C1686 C 0.31962 -0.01838 0.17804
 C1687 C 0.30955 -0.00452 0.19408
 C1688 C 0.31980 0.00047 0.21609
 C1689 C 0.34030 -0.00820 0.22290
 C1690 C 0.35072 -0.02153 0.20716
 H1691 H 0.33949 -0.06129 0.10411
 H1692 H 0.26252 -0.03815 0.08420
 H1693 H 0.32103 -0.07212 0.06766
 H1694 H 0.26168 -0.01899 0.12112
 H1695 H 0.27801 -0.00818 0.15851
 H1696 H 0.35214 -0.05572 0.13765
 H1697 H 0.36786 -0.04609 0.17525
 H1698 H 0.29382 0.00285 0.19019
 H1699 H 0.31142 0.01085 0.22794
 H1700 H 0.36693 -0.02782 0.21207
 C1701 C 0.24770 0.05223 0.38576
 C1702 C 0.26237 0.06339 0.37088
 C1703 C 0.26757 0.08702 0.37479
 C1704 C 0.25974 0.09843 0.39372
 C1705 C 0.24652 0.08680 0.40904
 C1706 C 0.23997 0.06382 0.40452
 C1707 C 0.28114 0.09909 0.36025
 C1708 C 0.29081 0.08812 0.34251
 C1709 C 0.28761 0.06440 0.33883
 C1710 C 0.27271 0.05187 0.35290
 C1711 C 0.26950 0.02815 0.34919
 C1712 C 0.28150 0.01688 0.33344
 C1713 C 0.29693 0.02872 0.32049
 C1714 C 0.29963 0.05268 0.32229
 C1715 C 0.31509 0.06376 0.30814
 C1716 C 0.32843 0.05150 0.29429
 C1717 C 0.32669 0.02792 0.29384
 C1718 C 0.31038 0.01661 0.30640
 H1719 H 0.24221 0.03450 0.38374
 H1720 H 0.26445 0.11638 0.39693
 H1721 H 0.22959 0.05456 0.41608
 H1722 H 0.28478 0.11723 0.36291
 H1723 H 0.30135 0.09878 0.33242
 H1724 H 0.25834 0.01759 0.35877
 H1725 H 0.27909 -0.00141 0.33182
 H1726 H 0.31787 0.08187 0.30784
 H1727 H 0.34106 0.06059 0.28496
 H1728 H 0.30881 -0.00172 0.30587
 C1729 C 0.76533 0.54540 0.89721
 C1730 C 0.77768 0.55510 0.87962
 C1731 C 0.78195 0.57896 0.88048
 C1732 C 0.77487 0.59221 0.89856
 C1733 C 0.76354 0.58224 0.91627
 C1734 C 0.75844 0.55880 0.91517
 C1735 C 0.79365 0.58955 0.86353
 C1736 C 0.80206 0.57701 0.84606
 C1737 C 0.79919 0.55315 0.84485
 C1738 C 0.78636 0.54202 0.86162
 C1739 C 0.78308 0.51818 0.86010
 C1740 C 0.79276 0.50558 0.84349
 C1741 C 0.80607 0.51611 0.82768
 C1742 C 0.80918 0.54003 0.82776
 C1743 C 0.82272 0.54971 0.81108
 C1744 C 0.83342 0.53620 0.79581
 C1745 C 0.83100 0.51266 0.79648
 C1746 C 0.81678 0.50274 0.81210
 H1747 H 0.76103 0.52750 0.89789
 H1748 H 0.77843 0.61043 0.89901
 H1749 H 0.74968 0.55069 0.92864
 H1750 H 0.79669 0.60781 0.86397
 H1751 H 0.81103 0.58665 0.83388
 H1752 H 0.77334 0.50858 0.87174
 H1753 H 0.79014 0.48730 0.84333
 H1754 H 0.82593 0.56767 0.80964
 H1755 H 0.84438 0.54433 0.78408
 H1756 H 0.81436 0.48447 0.81243
 C1757 C 0.12977 0.70545 0.59540
 C1758 C 0.13014 0.68970 0.57670
 C1759 C 0.10910 0.68209 0.56473
 C1760 C 0.08854 0.68866 0.57251
 C1761 C 0.08851 0.70293 0.59215
 C1762 C 0.10934 0.71180 0.60295
 C1763 C 0.10865 0.66748 0.54545
 C1764 C 0.12853 0.65958 0.53816
 C1765 C 0.14976 0.66557 0.55028
 C1766 C 0.15055 0.68088 0.56989
 C1767 C 0.17149 0.68594 0.58279
 C1768 C 0.19075 0.67571 0.57743
 C1769 C 0.19017 0.66046 0.55871
 C1770 C 0.17002 0.65586 0.54421
 C1771 C 0.17096 0.64114 0.52468
 C1772 C 0.19047 0.63011 0.52100
 C1773 C 0.20945 0.63337 0.53660
 C1774 C 0.20950 0.64913 0.55494
 H1775 H 0.14492 0.71320 0.60468
 H1776 H 0.07253 0.68191 0.56380
 H1777 H 0.10986 0.72365 0.61755
 H1778 H 0.09267 0.66178 0.53606
 H1779 H 0.12654 0.64799 0.52343
 H1780 H 0.17346 0.69703 0.59789
 H1781 H 0.20622 0.67947 0.58837
 H1782 H 0.15685 0.63753 0.51214
 H1783 H 0.19030 0.61813 0.50653
 H1784 H 0.22444 0.65198 0.56678
 C1785 C 0.63074 0.21833 1.07587
 C1786 C 0.62878 0.20004 1.05940
 C1787 C 0.60667 0.18983 1.05283
 C1788 C 0.58768 0.19681 1.06346
 C1789 C 0.59021 0.21399 1.08077
 C1790 C 0.61181 0.22506 1.08633
 C1791 C 0.60364 0.17223 1.03618
 C1792 C 0.62215 0.16365 1.02665
 C1793 C 0.64463 0.17218 1.03368
 C1794 C 0.64798 0.19105 1.04992
 C1795 C 0.67045 0.19963 1.05692
 C1796 C 0.68898 0.18920 1.04973
 C1797 C 0.68597 0.17005 1.03502
 C1798 C 0.66388 0.16174 1.02596
 C1799 C 0.66204 0.14258 1.01049
 C1800 C 0.68102 0.13109 1.00607
 C1801 C 0.70233 0.13855 1.01653
 C1802 C 0.70492 0.15843 1.03029
 H1803 H 0.64665 0.22769 1.08137
 H1804 H 0.57104 0.18817 1.05891
 H1805 H 0.61415 0.23894 1.09906
 H1806 H 0.58675 0.16463 1.03077
 H1807 H 0.61820 0.14979 1.01425
 H1808 H 0.67443 0.21401 1.06868
 H1809 H 0.70587 0.19585 1.05633
 H1810 H 0.64612 0.13547 1.00220
 H1811 H 0.67882 0.11556 0.99552
 H1812 H 0.72153 0.16406 1.03843
 C1813 C 0.89778 0.17874 0.97357
 C1814 C 0.87496 0.18207 0.96711
 C1815 C 0.87084 0.19964 0.95229
 C1816 C 0.88895 0.21197 0.94289
 C1817 C 0.91182 0.20791 0.94854
 C1818 C 0.91569 0.19140 0.96465
 C1819 C 0.84863 0.20488 0.94690
 C1820 C 0.83036 0.19309 0.95600
 C1821 C 0.83355 0.17493 0.97029
 C1822 C 0.85617 0.16876 0.97512
 C1823 C 0.85923 0.14905 0.98714
 C1824 C 0.84094 0.13615 0.99477
 C1825 C 0.81895 0.14265 0.99132
 C1826 C 0.81487 0.16232 0.97942
 C1827 C 0.79228 0.16858 0.97742
 C1828 C 0.77458 0.15555 0.98649
 C1829 C 0.77871 0.13577 0.99765
 C1830 C 0.80100 0.12942 0.99978
 H1831 H 0.90245 0.16657 0.98576
 H1832 H 0.88490 0.22557 0.93204
 H1833 H 0.93255 0.18685 0.96960
 H1834 H 0.84530 0.21839 0.93561
 H1835 H 0.81379 0.19811 0.95084
 H1836 H 0.87558 0.14262 0.99023
 H1837 H 0.84410 0.12099 1.00369
 H1838 H 0.78781 0.18378 0.96950
 H1839 H 0.75771 0.16129 0.98507
 H1840 H 0.80455 0.11394 1.00791
 C1841 C 0.39504 0.67644 0.46673
 C1842 C 0.37190 0.68099 0.46543
 C1843 C 0.36589 0.70023 0.45368
 C1844 C 0.38239 0.71376 0.44312
 C1845 C 0.40514 0.70879 0.44444
 C1846 C 0.41125 0.69010 0.45641
 C1847 C 0.34349 0.70594 0.45261
 C1848 C 0.32685 0.69316 0.46319
 C1849 C 0.33189 0.67378 0.47502
 C1850 C 0.35467 0.66727 0.47560
 C1851 C 0.35946 0.64710 0.48610
 C1852 C 0.34288 0.63411 0.49635
 C1853 C 0.32089 0.64068 0.49677
 C1854 C 0.31492 0.66055 0.48617
 C1855 C 0.29225 0.66633 0.48743
 C1856 C 0.27645 0.65293 0.49880
 C1857 C 0.28265 0.63343 0.50927
 C1858 C 0.30486 0.62732 0.50787
 H1859 H 0.40136 0.66266 0.47583
 H1860 H 0.37758 0.72842 0.43416
 H1861 H 0.42870 0.68582 0.45756
 H1862 H 0.33878 0.72061 0.44362
 H1863 H 0.31004 0.69881 0.46149
 H1864 H 0.37587 0.64056 0.48645
 H1865 H 0.34741 0.61878 0.50423
 H1866 H 0.28625 0.68126 0.48018
 H1867 H 0.25944 0.65814 0.49976
 H1868 H 0.30975 0.61192 0.51535
 C1869 C 0.61342 0.76842 0.43979
 C1870 C 0.62147 0.78508 0.45703
 C1871 C 0.60510 0.79616 0.46884
 C1872 C 0.58181 0.79187 0.46227
 C1873 C 0.57433 0.77614 0.44436
 C1874 C 0.59029 0.76412 0.43361
 C1875 C 0.61206 0.81175 0.48687
 C1876 C 0.63497 0.81709 0.49315
 C1877 C 0.65198 0.80749 0.48114
 C1878 C 0.64510 0.79141 0.46260
 C1879 C 0.66200 0.78302 0.44952
 C1880 C 0.68471 0.79061 0.45381
 C1881 C 0.69165 0.80635 0.47166
 C1882 C 0.67561 0.81431 0.48625
 C1883 C 0.68394 0.82924 0.50497
 C1884 C 0.70685 0.83731 0.50776
 C1885 C 0.72206 0.83079 0.49205
 C1886 C 0.71454 0.81477 0.47449
 H1887 H 0.62450 0.75837 0.43068
 H1888 H 0.56946 0.80090 0.47096
 H1889 H 0.58490 0.75177 0.41980
 H1890 H 0.59963 0.82010 0.49612
 H1891 H 0.63880 0.82963 0.50695
 H1892 H 0.65818 0.77126 0.43506
 H1893 H 0.69697 0.78430 0.44277
 H1894 H 0.67320 0.83522 0.51760
 H1895 H 0.71244 0.84956 0.52160
 H1896 H 0.72647 0.80938 0.46257
 C1897 C 0.12262 0.26569 -0.05054
 C1898 C 0.12969 0.28331 -0.03395
 C1899 C 0.11261 0.29375 -0.02264
 C1900 C 0.08951 0.28807 -0.02925
 C1901 C 0.08296 0.27167 -0.04680
 C1902 C 0.09966 0.26009 -0.05684
 C1903 C 0.11863 0.31028 -0.00524
 C1904 C 0.14128 0.31740 0.00064
 C1905 C 0.15890 0.30868 -0.01116
 C1906 C 0.15300 0.29135 -0.02876
 C1907 C 0.17044 0.28355 -0.04149
 C1908 C 0.19262 0.29312 -0.03806
 C1909 C 0.19851 0.31036 -0.02140
 C1910 C 0.18208 0.31766 -0.00691
 C1911 C 0.18949 0.33429 0.01065
 C1912 C 0.21164 0.34466 0.01215
 C1913 C 0.22696 0.33875 -0.00369
 C1914 C 0.22061 0.32104 -0.01985
 H1915 H 0.13433 0.25601 -0.05918
 H1916 H 0.07660 0.29673 -0.02105
 H1917 H 0.09500 0.24720 -0.07033
 H1918 H 0.10566 0.31810 0.00369
 H1919 H 0.14434 0.33062 0.01387
 H1920 H 0.16737 0.27076 -0.05513
 H1921 H 0.20523 0.28727 -0.04893
 H1922 H 0.17851 0.33998 0.02319
 H1923 H 0.21640 0.35821 0.02493
 H1924 H 0.23269 0.31623 -0.03187
 C1925 C 0.42057 0.31798 0.06906
 C1926 C 0.39810 0.30805 0.06446
 C1927 C 0.39331 0.28541 0.07059
 C1928 C 0.41072 0.27308 0.07985
 C1929 C 0.43303 0.28310 0.08379
 C1930 C 0.43758 0.30574 0.07856
 C1931 C 0.37118 0.27522 0.06750
 C1932 C 0.35357 0.28701 0.05860
 C1933 C 0.35751 0.30943 0.05180
 C1934 C 0.38027 0.31988 0.05421
 C1935 C 0.38461 0.34158 0.04575
 C1936 C 0.36739 0.35282 0.03546
 C1937 C 0.34508 0.34316 0.03351
 C1938 C 0.33960 0.32157 0.04205
 C1939 C 0.31639 0.31313 0.04037
 C1940 C 0.29971 0.32523 0.02969
 C1941 C 0.30563 0.34593 0.02030
 C1942 C 0.32826 0.35498 0.02268
 H1943 H 0.42556 0.33538 0.06608
 H1944 H 0.40687 0.25560 0.08386
 H1945 H 0.45437 0.31431 0.08225
 H1946 H 0.36738 0.25793 0.07217
 H1947 H 0.33706 0.27780 0.05667
 H1948 H 0.40136 0.35019 0.04612
 H1949 H 0.37163 0.36930 0.02887
 H1950 H 0.31054 0.29731 0.04718
 H1951 H 0.28222 0.31806 0.02820
 H1952 H 0.33281 0.37135 0.01598
 C1953 C 0.89658 0.75600 0.54500
 C1954 C 0.88017 0.76749 0.55634
 C1955 C 0.88299 0.77006 0.58052
 C1956 C 0.90208 0.76263 0.59245
 C1957 C 0.91876 0.75253 0.58079
 C1958 C 0.91553 0.74869 0.55710
 C1959 C 0.86713 0.78062 0.59270
 C1960 C 0.84893 0.78973 0.58144
 C1961 C 0.84595 0.78881 0.55735
 C1962 C 0.86159 0.77714 0.54459
 C1963 C 0.85863 0.77630 0.52049
 C1964 C 0.84199 0.78761 0.50921
 C1965 C 0.82737 0.79991 0.52138
 C1966 C 0.82846 0.80002 0.54556
 C1967 C 0.81235 0.81195 0.55685
 C1968 C 0.79721 0.82465 0.54470
 C1969 C 0.79763 0.82600 0.52102
 C1970 C 0.81206 0.81269 0.50941
 H1971 H 0.89560 0.75273 0.52677
 H1972 H 0.90426 0.76515 0.61090
 H1973 H 0.92816 0.74075 0.54778
 H1974 H 0.86907 0.78233 0.61121
 H1975 H 0.83786 0.79802 0.59223
 H1976 H 0.86936 0.76756 0.50969
 H1977 H 0.84089 0.78712 0.49067
 H1978 H 0.81116 0.81215 0.57507
 H1979 H 0.78574 0.83400 0.55411
 H1980 H 0.81178 0.81265 0.49092
   
