data_POSCAR
  _audit_creation_date              2014-09-24
  _audit_creation_method            'ToBaCCo'
  _symmetry_space_group_name_H-M    'P1'
  _symmetry_Int_Tables_number       1
  _symmetry_cell_setting            triclinic
  loop_
  _symmetry_equiv_pos_as_xyz
 x,y,z
_cell_length_a 77.4688
_cell_length_b 75.2204
_cell_length_c 77.1332
_cell_angle_alpha 88.170400
_cell_angle_beta 90.168700
_cell_angle_gamma 89.848600
loop_
  _atom_site_label
  _atom_site_type_symbol
  _atom_site_fract_x
  _atom_site_fract_y
  _atom_site_fract_z
C1 C 0.29424 0.45842 0.94051
 C2 C 0.28591 0.44409 0.94895
 C3 C 0.29437 0.43365 0.96171
 C4 C 0.31139 0.43798 0.96651
 C5 C 0.31983 0.45277 0.95858
 C6 C 0.31092 0.46294 0.94576
 H7 H 0.27277 0.44080 0.94554
 H8 H 0.31804 0.42962 0.97596
 H9 H 0.31728 0.47409 0.93923
 C10 C 0.44127 0.82726 0.43514
 C11 C 0.44688 0.81745 0.42105
 C12 C 0.43880 0.80147 0.41678
 C13 C 0.42439 0.79565 0.42630
 C14 C 0.41836 0.80537 0.44035
 C15 C 0.42684 0.82110 0.44467
 H16 H 0.45754 0.82244 0.41326
 H17 H 0.41777 0.78375 0.42245
 H18 H 0.42168 0.82858 0.45521
 C19 C 0.92124 0.90687 0.82701
 C20 C 0.90390 0.91108 0.82417
 C21 C 0.89574 0.92410 0.83371
 C22 C 0.90483 0.93236 0.84705
 C23 C 0.92212 0.92764 0.85088
 C24 C 0.93028 0.91494 0.84048
 H25 H 0.89693 0.90484 0.81378
 H26 H 0.89831 0.94225 0.85460
 H27 H 0.94351 0.91102 0.84267
 C28 C 0.45341 -0.07290 0.29782
 C29 C 0.43883 -0.06489 0.29023
 C30 C 0.42888 -0.05267 0.29916
 C31 C 0.43399 -0.04778 0.31587
 C32 C 0.44899 -0.05526 0.32362
 C33 C 0.45857 -0.06781 0.31445
 H34 H 0.43473 -0.06873 0.27742
 H35 H 0.42647 -0.03799 0.32248
 H36 H 0.46993 -0.07362 0.32052
 C37 C 0.82678 0.31477 0.34375
 C38 C 0.84195 0.30733 0.33722
 C39 C 0.84993 0.31438 0.32225
 C40 C 0.84255 0.32942 0.31377
 C41 C 0.82730 0.33720 0.31997
 C42 C 0.81949 0.32980 0.33507
 H43 H 0.84766 0.29584 0.34392
 H44 H 0.84872 0.33541 0.30247
 H45 H 0.80826 0.33608 0.34044
 C46 C -0.17653 0.84341 0.81245
 C47 C -0.15987 0.83850 0.80685
 C48 C -0.15073 0.82447 0.81517
 C49 C -0.15827 0.81537 0.82926
 C50 C -0.17491 0.81953 0.83483
 C51 C -0.18405 0.83357 0.82645
 H52 H -0.15384 0.84597 0.79629
 H53 H -0.15120 0.80463 0.83580
 H54 H -0.19668 0.83690 0.83124
 C55 C 0.93194 0.33504 0.43188
 C56 C 0.91704 0.32750 0.43963
 C57 C 0.90956 0.31201 0.43307
 C58 C 0.91704 0.30417 0.41867
 C59 C 0.93183 0.31131 0.41081
 C60 C 0.93913 0.32679 0.41742
 H61 H 0.91095 0.33380 0.45034
 H62 H 0.91127 0.29234 0.41348
 H63 H 0.95022 0.33278 0.41111
 C64 C 0.42094 0.43076 0.83886
 C65 C 0.40473 0.43556 0.83206
 C66 C 0.39896 0.42910 0.81619
 C67 C 0.40938 0.41717 0.80735
 C68 C 0.42576 0.41212 0.81379
 C69 C 0.43142 0.41899 0.82963
 H70 H 0.39651 0.44417 0.83942
 H71 H 0.40439 0.41181 0.79552
 H72 H 0.44382 0.41480 0.83482
 C73 C 0.82341 0.91539 0.93345
 C74 C 0.81474 0.92622 0.92086
 C75 C 0.82251 0.94165 0.91370
 C76 C 0.83913 0.94618 0.91908
 C77 C 0.84795 0.93596 0.93172
 C78 C 0.84002 0.92062 0.93894
 H79 H 0.80207 0.92274 0.91647
 H80 H 0.84526 0.95796 0.91345
 H81 H 0.84697 0.91242 0.94842
 C82 C 0.31220 0.80516 0.30428
 C83 C 0.32939 0.80104 0.29970
 C84 C 0.33752 0.78548 0.30646
 C85 C 0.32842 0.77425 0.31808
 C86 C 0.31145 0.77828 0.32295
 C87 C 0.30341 0.79344 0.31569
 H88 H 0.33656 0.80996 0.29130
 H89 H 0.33463 0.76231 0.32325
 H90 H 0.29028 0.79646 0.31952
 C91 C 0.80247 0.43574 0.45044
 C92 C 0.79576 0.43626 0.43355
 C93 C 0.80160 0.44880 0.42123
 C94 C 0.81473 0.46070 0.42566
 C95 C 0.82205 0.46011 0.44241
 C96 C 0.81569 0.44747 0.45475
 H97 H 0.78609 0.42675 0.42978
 H98 H 0.81951 0.47012 0.41590
 H99 H 0.82112 0.44609 0.46763
 C100 C 0.92379 0.84352 -0.07758
 C101 C 0.90617 0.83973 -0.07587
 C102 C 0.89828 0.82694 -0.08591
 C103 C 0.90776 0.81865 -0.09885
 C104 C 0.92514 0.82314 -0.10176
 C105 C 0.93323 0.83523 -0.09074
 H106 H 0.89867 0.84597 -0.06585
 H107 H 0.90153 0.80896 -0.10685
 H108 H 0.94674 0.83807 -0.09247
 C109 C 0.31685 0.34067 0.81789
 C110 C 0.31141 0.33484 0.83456
 C111 C 0.32016 0.32093 0.84352
 C112 C 0.33449 0.31309 0.83579
 C113 C 0.34013 0.31862 0.81929
 C114 C 0.33127 0.33250 0.81039
 H115 H 0.30094 0.34156 0.84084
 H116 H 0.34136 0.30246 0.84272
 H117 H 0.33576 0.33730 0.79782
 C118 C 0.16478 0.53631 0.56046
 C119 C 0.17072 0.53031 0.57683
 C120 C 0.18465 0.53855 0.58497
 C121 C 0.19302 0.55281 0.57631
 C122 C 0.18703 0.55930 0.56007
 C123 C 0.17302 0.55090 0.55221
 H124 H 0.16425 0.51928 0.58345
 H125 H 0.20434 0.55862 0.58199
 H126 H 0.16840 0.55623 0.53988
 C127 C 0.58294 0.68404 0.06334
 C128 C 0.57486 0.68886 0.07872
 C129 C 0.56021 0.67972 0.08501
 C130 C 0.55396 0.66517 0.07585
 C131 C 0.56203 0.65997 0.06043
 C132 C 0.57652 0.66945 0.05439
 H133 H 0.58038 0.69958 0.08589
 H134 H 0.54305 0.65782 0.08102
 H135 H 0.58297 0.66507 0.04286
 C136 C 0.70038 0.21443 0.68792
 C137 C 0.70739 0.20012 0.69773
 C138 C 0.69927 0.19369 0.71304
 C139 C 0.68423 0.20229 0.71856
 C140 C 0.67702 0.21656 0.70893
 C141 C 0.68535 0.22284 0.69380
 H142 H 0.71881 0.19380 0.69281
 H143 H 0.67764 0.19740 0.73014
 H144 H 0.68022 0.23434 0.68679
 C145 C 1.08637 0.05818 0.18929
 C146 C 1.07938 0.07411 0.19542
 C147 C 1.06480 0.08205 0.18737
 C148 C 1.05728 0.07383 0.17314
 C149 C 1.06393 0.05795 0.16677
 C150 C 1.07868 0.05039 0.17482
 H151 H 1.08560 0.08037 0.20620
 H152 H 1.04607 0.07995 0.16693
 H153 H 1.08471 0.03895 0.16942
 C154 C 0.07451 0.14806 1.07358
 C155 C 0.09041 0.15521 1.06778
 C156 C 0.09718 0.17055 1.07536
 C157 C 0.08790 0.17867 1.08858
 C158 C 0.07195 0.17190 1.09442
 C159 C 0.06555 0.15653 1.08684
 H160 H 0.09776 0.14860 1.05799
 H161 H 0.09358 0.19014 1.09439
 H162 H 0.05337 0.15101 1.09134
 C163 C 0.18839 0.71101 0.70102
 C164 C 0.19668 0.69685 0.70995
 C165 C 0.21168 0.68902 0.70336
 C166 C 0.21850 0.69581 0.68773
 C167 C 0.21027 0.70969 0.67835
 C168 C 0.19523 0.71738 0.68509
 H169 H 0.19097 0.69177 0.72185
 H170 H 0.22994 0.68972 0.68239
 H171 H 0.18893 0.72809 0.67788
 C172 C 1.16694 0.13690 0.17242
 C173 C 1.17579 0.14667 0.15943
 C174 C 1.17207 0.16482 0.15638
 C175 C 1.15950 0.17301 0.16651
 C176 C 1.15085 0.16334 0.17969
 C177 C 1.15424 0.14520 0.18214
 H178 H 1.18526 0.13999 0.15166
 H179 H 1.15655 0.18695 0.16410
 H180 H 1.14767 0.13770 0.19239
 C181 C 0.65489 1.06411 0.56282
 C182 C 0.66243 1.05690 0.57806
 C183 C 0.67634 1.06516 0.58618
 C184 C 0.68297 1.08110 0.57881
 C185 C 0.67578 1.08868 0.56337
 C186 C 0.66176 1.08001 0.55556
 H187 H 0.65729 1.04470 0.58385
 H188 H 0.69333 1.08763 0.58538
 H189 H 0.65634 1.08584 0.54378
 C190 C 0.54187 0.54657 0.17548
 C191 C 0.53472 0.56235 0.18142
 C192 C 0.54249 0.57151 0.19486
 C193 C 0.55763 0.56454 0.20258
 C194 C 0.56498 0.54866 0.19692
 C195 C 0.55692 0.53959 0.18343
 H196 H 0.52321 0.56783 0.17521
 H197 H 0.56422 0.57170 0.21257
 H198 H 0.56212 0.52707 0.17932
 C199 C 0.68965 0.70710 0.19268
 C200 C 0.69739 0.71413 0.17751
 C201 C 0.71204 0.70596 0.17046
 C202 C 0.71919 0.69098 0.17905
 C203 C 0.71159 0.68369 0.19408
 C204 C 0.69711 0.69209 0.20112
 H205 H 0.69179 0.72584 0.17120
 H206 H 0.73029 0.68444 0.17352
 H207 H 0.69186 0.68702 0.21324
 C208 C 0.18704 0.04337 1.04461
 C209 C 0.19375 0.05833 1.03568
 C210 C 0.20643 0.06886 1.04303
 C211 C 0.21286 0.06422 1.05958
 C212 C 0.20675 0.04910 1.06871
 C213 C 0.19373 0.03870 1.06121
 H214 H 0.18868 0.06224 1.02298
 H215 H 0.22228 0.07258 1.06570
 H216 H 0.18859 0.02750 1.06855
 C217 C 0.56672 0.19862 0.53693
 C218 C 0.56023 0.20708 0.55154
 C219 C 0.54464 0.20166 0.55923
 C220 C 0.53536 0.18754 0.55209
 C221 C 0.54180 0.17891 0.53750
 C222 C 0.55734 0.18466 0.53000
 H223 H 0.56753 0.21750 0.55750
 H224 H 0.52310 0.18351 0.55757
 H225 H 0.56241 0.17792 0.51888
 C226 C 0.07594 0.57490 0.68026
 C227 C 0.06938 0.59048 0.68756
 C228 C 0.05523 0.59955 0.67982
 C229 C 0.04758 0.59265 0.66497
 C230 C 0.05395 0.57722 0.65751
 C231 C 0.06830 0.56858 0.66514
 H232 H 0.07540 0.59559 0.69899
 H233 H 0.03665 0.59951 0.65899
 H234 H 0.07381 0.55697 0.65936
 C235 C 0.67291 0.54322 0.04824
 C236 C 0.68004 0.55857 0.04042
 C237 C 0.69313 0.56806 0.04870
 C238 C 0.69946 0.56168 0.06497
 C239 C 0.69262 0.54595 0.07274
 C240 C 0.67947 0.53694 0.06415
 H241 H 0.67538 0.56330 0.02787
 H242 H 0.70961 0.56876 0.07137
 H243 H 0.67395 0.52501 0.07012
 C244 C 0.05429 0.69968 0.57419
 C245 C 0.06960 0.70616 0.56663
 C246 C 0.07649 0.69845 0.55183
 C247 C 0.06772 0.68420 0.54436
 C248 C 0.05258 0.67726 0.55200
 C249 C 0.04600 0.68518 0.56683
 H250 H 0.07662 0.71685 0.57246
 H251 H 0.07255 0.67880 0.53253
 H252 H 0.03435 0.67992 0.57280
 C253 C 0.54737 1.05648 0.66974
 C254 C 0.56353 1.05017 0.67573
 C255 C 0.57174 1.05763 0.69004
 C256 C 0.56355 1.07170 0.69852
 C257 C 0.54736 1.07810 0.69273
 C258 C 0.53936 1.07019 0.67863
 H259 H 0.57001 1.03945 0.66942
 H260 H 0.56946 1.07748 0.70968
 H261 H 0.52691 1.07524 0.67420
 C262 C 0.44274 0.32758 0.92829
 C263 C 0.44544 0.32214 0.91126
 C264 C 0.43603 0.30807 0.90440
 C265 C 0.42303 0.30002 0.91448
 C266 C 0.41956 0.30563 0.93130
 C267 C 0.42973 0.31914 0.93830
 H268 H 0.45491 0.32911 0.90336
 H269 H 0.41546 0.28939 0.90913
 H270 H 0.42733 0.32299 0.95140
 C271 C 0.93097 0.43283 0.33150
 C272 C 0.91418 0.43865 0.32708
 C273 C 0.90602 0.43259 0.31210
 C274 C 0.91467 0.42057 0.30168
 C275 C 0.93133 0.41462 0.30583
 C276 C 0.93939 0.42074 0.32085
 H277 H 0.90717 0.44716 0.33562
 H278 H 0.90832 0.41574 0.29020
 H279 H 0.95204 0.41586 0.32464
 C280 C 0.30501 0.93475 0.42041
 C281 C 0.29931 0.91805 0.42703
 C282 C 0.30592 0.91083 0.44277
 C283 C 0.31805 0.92058 0.45208
 C284 C 0.32401 0.93711 0.44564
 C285 C 0.31728 0.94410 0.42998
 H286 H 0.28962 0.91074 0.42026
 H287 H 0.32279 0.91514 0.46434
 H288 H 0.32193 0.95688 0.42506
 O289 O 0.23376 0.55530 0.74764
 O290 O 0.26249 0.54821 0.75120
 O291 O 0.21379 0.51058 0.71974
 O292 O 0.21022 0.48140 0.72421
 O293 O 0.18628 0.53109 0.76428
 O294 O 0.19001 0.52723 0.79456
 O295 O 0.25334 0.45941 0.76875
 O296 O 0.25176 0.46621 0.73920
 O297 O 0.27456 0.50196 0.79342
 O298 O 0.26954 0.53400 0.79331
 O299 O 0.22837 0.48034 0.81212
 O300 O 0.19849 0.48194 0.80366
 O301 O 0.23103 0.45834 0.78790
 O302 O 0.19901 0.46590 0.78310
 O303 O 0.24947 0.50105 0.81470
 O304 O 0.24910 0.53413 0.80919
 O305 O 0.27573 0.48191 0.77199
 O306 O 0.27238 0.49012 0.74041
 O307 O 0.21181 0.55472 0.76727
 O308 O 0.21013 0.54520 0.79763
 O309 O 0.18716 0.51184 0.74214
 O310 O 0.19278 0.47870 0.74507
 O311 O 0.23401 0.53221 0.72246
 O312 O 0.26441 0.52643 0.73151
 Zr313 Zr 0.24287 0.52899 0.74822
 O314 O 0.25780 0.51193 0.76439
 Zr315 Zr 0.21150 0.49915 0.74485
 O316 O 0.22562 0.48045 0.76021
 Zr317 Zr 0.21042 0.52805 0.77643
 O318 O 0.22372 0.51040 0.79347
 Zr319 Zr 0.25221 0.48553 0.75855
 O320 O 0.23829 0.50257 0.74114
 Zr321 Zr 0.25037 0.51431 0.79035
 O322 O 0.23700 0.53312 0.77446
 Zr323 Zr 0.21962 0.48394 0.78641
 O324 O 0.20417 0.50160 0.77091
 O325 O 0.21634 0.52550 0.75039
 O326 O 0.24612 0.48783 0.78468
 C327 C 0.22178 0.56282 0.75632
 C328 C 0.22305 0.52346 0.71360
 C329 C 0.17963 0.52379 0.75104
 C330 C 0.24411 0.45139 0.78038
 C331 C 0.28210 0.48961 0.78519
 C332 C 0.24012 0.48824 0.82074
 H333 H 0.27018 0.51458 0.76262
 H334 H 0.21992 0.51244 0.80546
 H335 H 0.20991 0.53400 0.74271
 H336 H 0.22305 0.46826 0.75654
 H337 H 0.24898 0.47263 0.72813
 H338 H 0.21982 0.47286 0.72603
 H339 H 0.23875 0.53180 0.81639
 H340 H 0.22149 0.55118 0.79777
 H341 H 0.28034 0.47978 0.74120
 H342 H 0.26424 0.53640 0.72276
 H343 H 0.19800 0.49313 0.81003
 H344 H 0.18432 0.51556 0.79340
 H345 H 0.26193 0.55199 0.76336
 H346 H 0.27733 0.53358 0.78319
 H347 H 0.18482 0.48099 0.75477
 H348 H 0.20229 0.45768 0.77390
 O349 O 0.20272 -0.00332 0.23741
 O350 O 0.20471 -0.00763 0.26718
 O351 O 0.24659 0.02884 0.22414
 O352 O 0.27502 0.02727 0.22429
 O353 O 0.23508 -0.01927 0.19487
 O354 O 0.23822 -0.04963 0.20044
 O355 O 0.29191 -0.01558 0.27272
 O356 O 0.28311 0.01355 0.26965
 O357 O 0.25007 -0.04653 0.28763
 O358 O 0.22132 -0.05068 0.27805
 O359 O 0.28056 -0.06178 0.24576
 O360 O 0.28342 -0.05392 0.21663
 O361 O 0.29876 -0.03406 0.25093
 O362 O 0.29520 -0.02981 0.21730
 O363 O 0.25779 -0.06769 0.26355
 O364 O 0.22519 -0.06556 0.25688
 O365 O 0.26705 -0.02234 0.29149
 O366 O 0.25707 0.00920 0.28594
 O367 O 0.20789 -0.02271 0.21593
 O368 O 0.21889 -0.05417 0.21867
 O369 O 0.25095 0.00586 0.19792
 O370 O 0.28212 0.00628 0.20912
 O371 O 0.22248 0.02362 0.24032
 O372 O 0.22397 0.01475 0.27201
 Zr373 Zr 0.22612 -0.00240 0.25080
 O374 O 0.24100 -0.01763 0.26866
 Zr375 Zr 0.25935 0.00434 0.22416
 O376 O 0.27600 -0.00912 0.24176
 Zr377 Zr 0.23404 -0.03087 0.21982
 O378 O 0.25062 -0.04646 0.23589
 Zr379 Zr 0.26645 -0.00850 0.26724
 O380 O 0.25141 0.00767 0.25007
 Zr381 Zr 0.24237 -0.04439 0.26159
 O382 O 0.22501 -0.02970 0.24535
 Zr383 Zr 0.27588 -0.03607 0.23584
 O384 O 0.25997 -0.02246 0.21733
 O385 O 0.23391 -0.00404 0.22513
 O386 O 0.26773 -0.03535 0.26147
 C387 C 0.19810 -0.01176 0.22398
 C388 C 0.23210 0.03355 0.23051
 C389 C 0.24196 -0.00490 0.18888
 C390 C 0.30239 -0.02570 0.26483
 C391 C 0.25980 -0.03684 0.29690
 C392 C 0.27220 -0.07187 0.25642
 H393 H 0.23624 -0.01638 0.28045
 H394 H 0.25046 -0.05888 0.23209
 H395 H 0.22656 0.00310 0.21702
 H396 H 0.28766 -0.00386 0.24100
 H397 H 0.27670 0.02409 0.26505
 H398 H 0.28047 0.02735 0.23589
 H399 H 0.23050 -0.07315 0.24811
 H400 H 0.21040 -0.05367 0.22821
 H401 H 0.26543 0.00920 0.29570
 H402 H 0.21395 0.02277 0.26991
 H403 H 0.27293 -0.06038 0.21313
 H404 H 0.25049 -0.04846 0.19705
 H405 H 0.20176 -0.02033 0.26596
 H406 H 0.21796 -0.03963 0.28380
 H407 H 0.28140 -0.00293 0.20026
 H408 H 0.30265 -0.02048 0.22207
 O409 O 0.51582 0.77415 0.29945
 O410 O 0.54516 0.76856 0.29523
 O411 O 0.49945 0.80184 0.25307
 O412 O 0.50023 0.79732 0.22436
 O413 O 0.46978 0.75744 0.27299
 O414 O 0.47346 0.72592 0.27246
 O415 O 0.54086 0.75008 0.20918
 O416 O 0.54033 0.78028 0.21376
 O417 O 0.55942 0.72483 0.25450
 O418 O 0.55218 0.72643 0.28563
 O419 O 0.51443 0.70596 0.23214
 O420 O 0.48400 0.71605 0.23124
 O421 O 0.51866 0.73031 0.20852
 O422 O 0.48713 0.73502 0.21264
 O423 O 0.53389 0.70361 0.25422
 O424 O 0.53183 0.71002 0.28540
 O425 O 0.56235 0.74635 0.23334
 O426 O 0.55944 0.77871 0.23831
 O427 O 0.49312 0.75496 0.29853
 O428 O 0.49159 0.72374 0.29258
 O429 O 0.47268 0.77918 0.25203
 O430 O 0.48095 0.77666 0.22149
 O431 O 0.51908 0.79900 0.27503
 O432 O 0.54919 0.78888 0.27292
 Zr433 Zr 0.52706 0.77234 0.27479
 O434 O 0.54271 0.75523 0.26058
 Zr435 Zr 0.49811 0.77613 0.24291
 O436 O 0.51278 0.75931 0.22726
 Zr437 Zr 0.49388 0.74444 0.27354
 O438 O 0.50812 0.72616 0.25918
 Zr439 Zr 0.53900 0.76062 0.23398
 O440 O 0.52463 0.77918 0.24816
 Zr441 Zr 0.53455 0.72892 0.26466
 O442 O 0.52009 0.74578 0.28051
 Zr443 Zr 0.50597 0.73264 0.23253
 O444 O 0.48985 0.74965 0.24687
 O445 O 0.50078 0.77084 0.26932
 O446 O 0.53222 0.73400 0.23806
 C447 C 0.50271 0.76620 0.30628
 C448 C 0.50839 0.80808 0.26559
 C449 C 0.46390 0.77055 0.26361
 C450 C 0.53184 0.73820 0.20172
 C451 C 0.56796 0.73291 0.24239
 C452 C 0.52532 0.69717 0.24168
 H453 H 0.55493 0.75686 0.26389
 H454 H 0.50391 0.71403 0.26202
 H455 H 0.49378 0.77901 0.27626
 H456 H 0.51104 0.76278 0.21491
 H457 H 0.53741 0.79175 0.21899
 H458 H 0.50834 0.79343 0.21537
 H459 H 0.52093 0.70352 0.28360
 H460 H 0.50269 0.72324 0.29898
 H461 H 0.56792 0.77759 0.22880
 H462 H 0.54877 0.79763 0.28227
 H463 H 0.48388 0.70831 0.24185
 H464 H 0.46851 0.72713 0.26063
 H465 H 0.54314 0.75654 0.30041
 H466 H 0.56059 0.73626 0.28448
 H467 H 0.47353 0.76601 0.22280
 H468 H 0.49012 0.74547 0.20514
 O469 O 0.01947 0.73073 0.72062
 O470 O -0.01027 0.73505 0.72273
 O471 O 0.03744 0.77834 0.69426
 O472 O 0.03639 0.80762 0.69805
 O473 O 0.06332 0.75840 0.74046
 O474 O 0.05679 0.75999 0.77095
 O475 O -0.00962 0.82319 0.74064
 O476 O -0.00496 0.81907 0.71066
 O477 O -0.02905 0.77864 0.76313
 O478 O -0.02147 0.74610 0.76280
 O479 O 0.01328 0.80222 0.78477
 O480 O 0.04482 0.80193 0.77885
 O481 O 0.01229 0.82515 0.76027
 O482 O 0.04409 0.82029 0.75929
 O483 O -0.00625 0.77972 0.78590
 O484 O -0.00283 0.74713 0.78123
 O485 O -0.03026 0.79900 0.74070
 O486 O -0.02388 0.79341 0.70996
 O487 O 0.04011 0.73220 0.74166
 O488 O 0.03886 0.73911 0.77173
 O489 O 0.06197 0.77953 0.71870
 O490 O 0.05340 0.81097 0.71998
 O491 O 0.01846 0.75529 0.69558
 O492 O -0.01272 0.75750 0.70229
 Zr493 Zr 0.00778 0.75609 0.72061
 O494 O -0.00956 0.77106 0.73532
 Zr495 Zr 0.03647 0.78896 0.71914
 O496 O 0.02028 0.80537 0.73358
 Zr497 Zr 0.03819 0.75815 0.75100
 O498 O 0.02214 0.77326 0.76701
 Zr499 Zr -0.00557 0.79824 0.72978
 O500 O 0.01050 0.78329 0.71356
 Zr501 Zr -0.00393 0.76765 0.76182
 O502 O 0.01223 0.75099 0.74727
 Zr503 Zr 0.02484 0.80036 0.76018
 O504 O 0.04251 0.78537 0.74566
 O505 O 0.03368 0.76192 0.72461
 O506 O -0.00109 0.79465 0.75628
 C507 C 0.03181 0.72393 0.72993
 C508 C 0.02960 0.76516 0.68758
 C509 C 0.07008 0.76775 0.72796
 C510 C -0.00125 0.83124 0.75249
 C511 C -0.03686 0.79072 0.75384
 C512 C 0.00124 0.79322 0.79234
 H513 H -0.02155 0.76761 0.73257
 H514 H 0.02511 0.77074 0.77932
 H515 H 0.04141 0.75462 0.71752
 H516 H 0.02217 0.81799 0.73017
 H517 H -0.00126 0.81364 0.69974
 H518 H 0.02776 0.81684 0.70069
 H519 H 0.00706 0.74958 0.78892
 H520 H 0.02747 0.73317 0.77183
 H521 H -0.03237 0.80331 0.70969
 H522 H -0.01116 0.74793 0.69387
 H523 H 0.04389 0.79143 0.78684
 H524 H 0.06174 0.77209 0.76985
 H525 H -0.00984 0.73047 0.73490
 H526 H -0.02943 0.74754 0.75281
 H527 H 0.06018 0.80958 0.73084
 H528 H 0.04207 0.82787 0.74876
 O529 O 0.06494 -0.00391 0.00406
 O530 O 0.05867 -0.00640 -0.02581
 O531 O 0.02302 0.02593 0.02373
 O532 O -0.00625 0.02412 0.02292
 O533 O 0.03877 -0.02219 0.05035
 O534 O 0.03447 -0.05315 0.04526
 O535 O -0.02840 -0.01925 -0.01877
 O536 O -0.02071 0.01112 -0.01671
 O537 O 0.01265 -0.04568 -0.03989
 O538 O 0.04437 -0.04647 -0.03436
 O539 O -0.00995 -0.06533 0.00386
 O540 O -0.00672 -0.05910 0.03595
 O541 O -0.03019 -0.03928 0.00394
 O542 O -0.02374 -0.03864 0.03499
 O543 O 0.01207 -0.06861 -0.01524
 O544 O 0.04373 -0.06447 -0.01459
 O545 O -0.00667 -0.02285 -0.04077
 O546 O 0.00241 0.00885 -0.03753
 O547 O 0.06276 -0.02492 0.02593
 O548 O 0.05364 -0.05530 0.02636
 O549 O 0.02043 0.00151 0.04908
 O550 O -0.01047 0.00242 0.04221
 O551 O 0.04361 0.02312 0.00298
 O552 O 0.03870 0.01617 -0.02768
 Zr553 Zr 0.03977 -0.00253 -0.00649
 O554 O 0.02302 -0.01702 -0.02235
 Zr555 Zr 0.00982 0.00134 0.02393
 O556 O -0.00822 -0.01299 0.00935
 Zr557 Zr 0.03687 -0.03307 0.02562
 O558 O 0.02018 -0.04887 0.01112
 Zr559 Zr -0.00272 -0.01008 -0.01722
 O560 O 0.01412 0.00609 -0.00275
 Zr561 Zr 0.02479 -0.04413 -0.01547
 O562 O 0.04290 -0.02993 -0.00087
 Zr563 Zr -0.00536 -0.04041 0.01487
 O564 O 0.01124 -0.02593 0.03108
 O565 O 0.03526 -0.00597 0.01996
 O566 O -0.00089 -0.03724 -0.01157
 C567 C 0.07130 -0.01357 0.01664
 C568 C 0.03589 0.03186 0.01473
 C569 C 0.03140 -0.00872 0.05703
 C570 C -0.03661 -0.03080 -0.00927
 C571 C 0.00042 -0.03660 -0.04722
 C572 C -0.00163 -0.07405 -0.00753
 H573 H 0.02580 -0.01466 -0.03471
 H574 H 0.02187 -0.06151 0.01460
 H575 H 0.04338 0.00088 0.02707
 H576 H -0.02004 -0.00878 0.01182
 H577 H -0.01406 0.02190 -0.01395
 H578 H -0.01631 0.02130 0.01560
 H579 H 0.04189 -0.07172 -0.00383
 H580 H 0.05951 -0.05538 0.01498
 H581 H -0.00767 0.00907 -0.04549
 H582 H 0.04906 0.02389 -0.02727
 H583 H 0.00155 -0.06880 0.03377
 H584 H 0.02292 -0.05159 0.05047
 H585 H 0.06271 -0.01886 -0.02441
 H586 H 0.04351 -0.03608 -0.04250
 H587 H -0.01000 -0.00883 0.04922
 H588 H -0.02950 -0.02692 0.03362
 O589 O 0.04211 0.52040 0.48789
 O590 O 0.03225 0.51799 0.45940
 O591 O 0.00333 0.55137 0.51239
 O592 O -0.02508 0.54996 0.51718
 O593 O 0.02181 0.50248 0.53740
 O594 O 0.01620 0.47180 0.53296
 O595 O -0.05361 0.50857 0.47751
 O596 O -0.04472 0.53804 0.47827
 O597 O -0.01635 0.48047 0.45109
 O598 O 0.01516 0.47737 0.45307
 O599 O -0.03400 0.46089 0.49882
 O600 O -0.02777 0.46731 0.52914
 O601 O -0.05340 0.48835 0.50014
 O602 O -0.04241 0.48919 0.53070
 O603 O -0.01627 0.45742 0.47575
 O604 O 0.01600 0.45965 0.47312
 O605 O -0.03440 0.50427 0.45241
 O606 O -0.02411 0.53538 0.45513
 O607 O 0.04229 0.49947 0.50994
 O608 O 0.03217 0.46903 0.51129
 O609 O 0.00433 0.52678 0.53839
 O610 O -0.02753 0.52822 0.53562
 O611 O 0.02149 0.54786 0.48960
 O612 O 0.01261 0.54073 0.45970
 Zr613 Zr 0.01590 0.52225 0.48084
 O614 O -0.00314 0.50820 0.46740
 Zr615 Zr -0.00967 0.52691 0.51497
 O616 O -0.02991 0.51351 0.50273
 Zr617 Zr 0.01631 0.49181 0.51309
 O618 O -0.00293 0.47664 0.50115
 Zr619 Zr -0.02762 0.51629 0.47568
 O620 O -0.00865 0.53176 0.48794
 Zr621 Zr -0.00178 0.48101 0.47415
 O622 O 0.01870 0.49471 0.48601
 Zr623 Zr -0.02745 0.48605 0.50807
 O624 O -0.00816 0.49965 0.52191
 O625 O 0.01482 0.51897 0.50769
 O626 O -0.02644 0.48900 0.48119
 C627 C 0.04984 0.51074 0.49959
 C628 C 0.01511 0.55697 0.50186
 C629 C 0.01581 0.51616 0.54494
 C630 C -0.06108 0.49746 0.48802
 C631 C -0.02853 0.49050 0.44499
 C632 C -0.02830 0.45205 0.48605
 H633 H -0.00174 0.51047 0.45478
 H634 H -0.00137 0.46395 0.50449
 H635 H 0.02394 0.52570 0.51363
 H636 H -0.04110 0.51825 0.50667
 H637 H -0.03746 0.54858 0.48037
 H638 H -0.03531 0.54838 0.50972
 H639 H 0.01447 0.45206 0.48372
 H640 H 0.03634 0.46890 0.49917
 H641 H -0.03499 0.53615 0.44834
 H642 H 0.02295 0.54846 0.45891
 H643 H -0.01835 0.45867 0.52734
 H644 H 0.00550 0.47358 0.53968
 H645 H 0.03569 0.50530 0.46006
 H646 H 0.01464 0.48823 0.44551
 H647 H -0.02595 0.51726 0.54291
 H648 H -0.04897 0.50044 0.52926
 O649 O 0.47810 -0.05240 0.50094
 O650 O 0.48467 -0.04874 0.52951
 O651 O 0.44306 -0.00925 0.48846
 O652 O 0.44332 0.02041 0.48836
 O653 O 0.48526 -0.02067 0.45365
 O654 O 0.51524 -0.01495 0.45423
 O655 O 0.49003 0.04154 0.52700
 O656 O 0.46211 0.03173 0.52897
 O657 O 0.52267 -0.00085 0.54071
 O658 O 0.52553 -0.03176 0.53187
 O659 O 0.53200 0.02910 0.49532
 O660 O 0.52075 0.03027 0.46659
 O661 O 0.50526 0.04765 0.50231
 O662 O 0.49798 0.04282 0.47013
 O663 O 0.53981 0.00632 0.51377
 O664 O 0.53873 -0.02676 0.50980
 O665 O 0.49952 0.01655 0.54669
 O666 O 0.46900 0.00580 0.54661
 O667 O 0.49329 -0.04728 0.47598
 O668 O 0.52252 -0.03520 0.47233
 O669 O 0.46179 -0.00361 0.45935
 O670 O 0.46097 0.02805 0.46859
 O671 O 0.45087 -0.03248 0.50645
 O672 O 0.46323 -0.02941 0.53611
 Zr673 Zr 0.47697 -0.02764 0.51234
 O674 O 0.49307 -0.01122 0.52676
 Zr675 Zr 0.46597 0.00530 0.48472
 O676 O 0.48087 0.02342 0.49866
 Zr677 Zr 0.50002 -0.01998 0.47654
 O678 O 0.51664 -0.00239 0.48930
 Zr679 Zr 0.48346 0.01481 0.52473
 O680 O 0.46634 -0.00186 0.51139
 Zr681 Zr 0.51778 -0.00988 0.51572
 O682 O 0.50238 -0.02839 0.50268
 Zr683 Zr 0.50616 0.02348 0.48896
 O684 O 0.49085 0.00640 0.47383
 O685 O 0.47502 -0.02066 0.48608
 O686 O 0.50854 0.01614 0.51507
 C687 C 0.48493 -0.05745 0.48680
 C688 C 0.43978 -0.02370 0.49717
 C689 C 0.47078 -0.01336 0.44936
 C690 C 0.49858 0.05205 0.51685
 C691 C 0.51417 0.00937 0.55058
 C692 C 0.54286 0.02103 0.50543
 H693 H 0.49337 -0.01565 0.53898
 H694 H 0.52816 -0.00255 0.48384
 H695 H 0.46753 -0.02885 0.47966
 H696 H 0.47544 0.03533 0.49776
 H697 H 0.45161 0.02466 0.52674
 H698 H 0.44571 0.02832 0.49807
 H699 H 0.54404 -0.02220 0.49891
 H700 H 0.52457 -0.04244 0.48308
 H701 H 0.46975 0.01499 0.55552
 H702 H 0.45566 -0.04003 0.53606
 H703 H 0.52753 0.01964 0.46363
 H704 H 0.51232 -0.00274 0.45002
 H705 H 0.49699 -0.05112 0.52712
 H706 H 0.51692 -0.03318 0.54125
 H707 H 0.46962 0.02808 0.45917
 H708 H 0.48846 0.04971 0.47521
 O709 O 0.54079 0.52003 -0.00456
 O710 O 0.53105 0.51861 -0.03287
 O711 O 0.49573 0.53650 0.02339
 O712 O 0.46899 0.52679 0.02820
 O713 O 0.52718 0.49292 0.04339
 O714 O 0.52989 0.46284 0.03699
 O715 O 0.45168 0.48334 -0.01562
 O716 O 0.45277 0.51365 -0.01364
 O717 O 0.49572 0.46876 -0.04439
 O718 O 0.52598 0.47317 -0.04225
 O719 O 0.48367 0.44099 0.00267
 O720 O 0.48686 0.44606 0.03247
 O721 O 0.45732 0.46167 0.00491
 O722 O 0.46818 0.46416 0.03615
 O723 O 0.50053 0.44440 -0.02129
 O724 O 0.53184 0.45584 -0.02266
 O725 O 0.47137 0.48530 -0.04138
 O726 O 0.47327 0.51824 -0.03653
 O727 O 0.54704 0.49785 0.01532
 O728 O 0.54461 0.46543 0.01454
 O729 O 0.50352 0.51036 0.04718
 O730 O 0.47193 0.50360 0.04369
 O731 O 0.51439 0.54044 0.00086
 O732 O 0.50583 0.53413 -0.02992
 Zr733 Zr 0.51491 0.51534 -0.01090
 O734 O 0.50055 0.49740 -0.02566
 Zr735 Zr 0.48972 0.50932 0.02350
 O736 O 0.47353 0.49226 0.00972
 Zr737 Zr 0.52394 0.48327 0.01846
 O738 O 0.50900 0.46441 0.00567
 Zr739 Zr 0.47487 0.49757 -0.01720
 O740 O 0.48891 0.51668 -0.00316
 Zr741 Zr 0.50892 0.47109 -0.02091
 O742 O 0.52504 0.48927 -0.00825
 Zr743 Zr 0.48295 0.46624 0.01312
 O744 O 0.49847 0.48311 0.02807
 O745 O 0.51528 0.50931 0.01560
 O746 O 0.48308 0.47132 -0.01358
 C747 C 0.55114 0.51156 0.00579
 C748 C 0.50593 0.54609 0.01397
 C749 C 0.51770 0.50300 0.05249
 C750 C 0.44734 0.46970 -0.00618
 C751 C 0.48116 0.47479 -0.04986
 C752 C 0.49085 0.43513 -0.01095
 H753 H 0.50133 0.50095 -0.03810
 H754 H 0.51379 0.45240 0.00813
 H755 H 0.52252 0.51761 0.02215
 H756 H 0.46156 0.49351 0.01392
 H757 H 0.45702 0.52551 -0.01046
 H758 H 0.46057 0.52513 0.01874
 H759 H 0.53132 0.44608 -0.01377
 H760 H 0.54914 0.46813 0.00276
 H761 H 0.46283 0.51614 -0.04364
 H762 H 0.51335 0.54477 -0.02977
 H763 H 0.49906 0.44226 0.03177
 H764 H 0.51926 0.46075 0.04383
 H765 H 0.53755 0.50735 -0.03386
 H766 H 0.52384 0.48484 -0.04815
 H767 H 0.47671 0.49345 0.05065
 H768 H 0.45804 0.47209 0.03471
 O769 O 0.74439 0.28286 0.45926
 O770 O 0.71512 0.27810 0.46310
 O771 O 0.76040 0.31144 0.50347
 O772 O 0.76124 0.30789 0.53210
 O773 O 0.78931 0.26513 0.48737
 O774 O 0.78470 0.23382 0.49107
 O775 O 0.71713 0.26390 0.55105
 O776 O 0.71906 0.29362 0.54349
 O777 O 0.69832 0.23739 0.50846
 O778 O 0.70644 0.23572 0.47798
 O779 O 0.74281 0.21803 0.53460
 O780 O 0.77233 0.22542 0.53522
 O781 O 0.73931 0.24421 0.55492
 O782 O 0.77200 0.24779 0.54915
 O783 O 0.72298 0.21486 0.51315
 O784 O 0.72653 0.21884 0.48078
 O785 O 0.69627 0.26005 0.52721
 O786 O 0.70054 0.29184 0.51850
 O787 O 0.76655 0.26296 0.46216
 O788 O 0.76586 0.23134 0.47142
 O789 O 0.78689 0.28793 0.50590
 O790 O 0.77844 0.28652 0.53713
 O791 O 0.74103 0.30856 0.48149
 O792 O 0.71061 0.29888 0.48341
 Zr793 Zr 0.73265 0.28201 0.48377
 O794 O 0.71643 0.26612 0.49956
 Zr795 Zr 0.76155 0.28605 0.51553
 O796 O 0.74607 0.27105 0.53284
 Zr797 Zr 0.76484 0.25302 0.48817
 O798 O 0.75011 0.23612 0.50481
 Zr799 Zr 0.72007 0.27304 0.52541
 O800 O 0.73523 0.29011 0.50955
 Zr801 Zr 0.72377 0.23926 0.49885
 O802 O 0.73866 0.25489 0.48109
 Zr803 Zr 0.75218 0.24403 0.53068
 O804 O 0.76900 0.25920 0.51435
 O805 O 0.75879 0.27981 0.48968
 O806 O 0.72603 0.24602 0.52471
 C807 C 0.75751 0.27455 0.45335
 C808 C 0.75160 0.31765 0.49048
 C809 C 0.79540 0.27861 0.49518
 C810 C 0.72595 0.25267 0.56027
 C811 C 0.69006 0.24669 0.51944
 C812 C 0.73131 0.20911 0.52666
 H813 H 0.70433 0.26802 0.49581
 H814 H 0.75396 0.22369 0.50362
 H815 H 0.76598 0.28761 0.48209
 H816 H 0.74779 0.27521 0.54475
 H817 H 0.72242 0.30471 0.53712
 H818 H 0.75140 0.30602 0.54006
 H819 H 0.73686 0.21174 0.48410
 H820 H 0.75491 0.23154 0.46477
 H821 H 0.69179 0.29165 0.52787
 H822 H 0.71158 0.30755 0.47349
 H823 H 0.77452 0.21955 0.52415
 H824 H 0.78970 0.23532 0.50275
 H825 H 0.71666 0.26569 0.45949
 H826 H 0.69921 0.24655 0.47683
 H827 H 0.78648 0.27635 0.53615
 H828 H 0.76823 0.25728 0.55689
 O829 O 0.79064 0.74737 -0.03455
 O830 O 0.78653 0.71755 -0.02903
 O831 O 0.74382 0.76318 -0.06211
 O832 O 0.71553 0.76427 -0.05704
 O833 O 0.76392 0.79508 -0.02051
 O834 O 0.76297 0.79249 0.00990
 O835 O 0.70095 0.72063 -0.00990
 O836 O 0.70649 0.71993 -0.03884
 O837 O 0.74566 0.70411 0.01682
 O838 O 0.77572 0.71150 0.01549
 O839 O 0.72109 0.75034 0.03143
 O840 O 0.71897 0.77997 0.02119
 O841 O 0.69891 0.74400 0.00806
 O842 O 0.70329 0.77754 0.00018
 O843 O 0.74357 0.73117 0.03564
 O844 O 0.77561 0.73444 0.02844
 O845 O 0.72545 0.69938 -0.00397
 O846 O 0.73155 0.70145 -0.03604
 O847 O 0.78892 0.77187 -0.01795
 O848 O 0.78218 0.77279 0.01364
 O849 O 0.74378 0.79156 -0.04163
 O850 O 0.71223 0.78244 -0.03741
 O851 O 0.76730 0.74512 -0.05864
 O852 O 0.76410 0.71316 -0.04759
 Zr853 Zr 0.76607 0.73607 -0.03237
 O854 O 0.75225 0.72018 -0.01425
 Zr855 Zr 0.73405 0.76543 -0.03697
 O856 O 0.71837 0.74986 -0.02022
 Zr857 Zr 0.76400 0.77070 -0.00670
 O858 O 0.74892 0.75674 0.01184
 Zr859 Zr 0.72591 0.72295 -0.01980
 O860 O 0.73972 0.73802 -0.03885
 Zr861 Zr 0.75514 0.72965 0.01096
 O862 O 0.77122 0.74379 -0.00678
 Zr863 Zr 0.72253 0.75798 0.00516
 O864 O 0.73743 0.77461 -0.01174
 O865 O 0.76025 0.76303 -0.03198
 O866 O 0.72881 0.73107 0.00563
 C867 C 0.79691 0.76159 -0.02835
 C868 C 0.75734 0.75546 -0.06783
 C869 C 0.75537 0.80070 -0.03387
 C870 C 0.69285 0.72996 0.00108
 C871 C 0.73412 0.69458 0.00968
 C872 C 0.73039 0.73986 0.04098
 H873 H 0.75596 0.70764 -0.01499
 H874 H 0.75112 0.76162 0.02338
 H875 H 0.76724 0.77014 -0.04036
 H876 H 0.70616 0.75119 -0.02385
 H877 H 0.71183 0.72313 -0.05016
 H878 H 0.70927 0.75296 -0.05508
 H879 H 0.77244 0.74488 0.03524
 H880 H 0.78990 0.76231 0.01309
 H881 H 0.72258 0.69223 -0.03408
 H882 H 0.77286 0.71401 -0.05694
 H883 H 0.73041 0.78292 0.02601
 H884 H 0.75105 0.79721 0.00910
 H885 H 0.79063 0.71856 -0.01694
 H886 H 0.77616 0.70353 0.00555
 H887 H 0.71448 0.79179 -0.02895
 H888 H 0.69457 0.77247 -0.00764
 O889 O 1.01692 0.20826 0.23219
 O890 O 0.98712 0.21455 0.23291
 O891 O 1.03922 0.25376 0.20692
 O892 O 1.03989 0.28310 0.21001
 O893 O 1.06063 0.23280 0.25473
 O894 O 1.05272 0.23546 0.28466
 O895 O 0.99332 0.30342 0.24859
 O896 O 0.99814 0.29729 0.21941
 O897 O 0.96902 0.26021 0.27180
 O898 O 0.97397 0.22784 0.27265
 O899 O 1.01224 0.28103 0.29532
 O900 O 1.04321 0.27916 0.29114
 O901 O 1.01351 0.30376 0.27012
 O902 O 1.04517 0.29633 0.27085
 O903 O 0.99097 0.26024 0.29576
 O904 O 0.99247 0.22704 0.29128
 O905 O 0.97049 0.28072 0.24955
 O906 O 0.97735 0.27344 0.21911
 O907 O 1.03589 0.20856 0.25484
 O908 O 1.03314 0.21623 0.28480
 O909 O 1.06225 0.25400 0.23306
 O910 O 1.05537 0.28608 0.23275
 O911 O 1.01870 0.23214 0.20716
 O912 O 0.98727 0.23694 0.21197
 Zr913 Zr 1.00655 0.23429 0.23149
 O914 O 0.98945 0.25076 0.24505
 Zr915 Zr 1.03736 0.26504 0.23141
 O916 O 1.02147 0.28284 0.24445
 Zr917 Zr 1.03511 0.23475 0.26372
 O918 O 1.01945 0.25144 0.27846
 Zr919 Zr 0.99540 0.27751 0.23935
 O920 O 1.01140 0.26114 0.22433
 Zr921 Zr 0.99340 0.24759 0.27191
 O922 O 1.00901 0.22942 0.25847
 Zr923 Zr 1.02436 0.27813 0.27128
 O924 O 1.04170 0.26147 0.25824
 O925 O 1.03246 0.23839 0.23707
 O926 O 0.99828 0.27428 0.26613
 C927 C 1.02820 0.20079 0.24238
 C928 C 1.03107 0.24099 0.19992
 C929 C 1.06879 0.24153 0.24274
 C930 C 1.00156 0.31107 0.26078
 C931 C 0.96262 0.27297 0.26229
 C932 C 0.99938 0.27303 0.30248
 H933 H 0.97740 0.24814 0.24174
 H934 H 1.02166 0.24896 0.29093
 H935 H 1.04014 0.23047 0.23059
 H936 H 1.02444 0.29519 0.24084
 H937 H 1.00194 0.29110 0.20894
 H938 H 1.03108 0.29247 0.21143
 H939 H 1.00168 0.22930 0.29984
 H940 H 1.02163 0.21065 0.28389
 H941 H 0.96955 0.28392 0.21836
 H942 H 0.98863 0.22708 0.20384
 H943 H 1.04216 0.26816 0.29843
 H944 H 1.05871 0.24706 0.28360
 H945 H 0.98681 0.21002 0.24510
 H946 H 0.96772 0.22856 0.26146
 H947 H 1.06167 0.28442 0.24387
 H948 H 1.04376 0.30433 0.26051
 O949 O 0.75060 1.05773 0.73348
 O950 O 0.77890 1.04875 0.73720
 O951 O 0.72608 1.01422 0.70902
 O952 O 0.72337 0.98470 0.71439
 O953 O 0.70167 1.03792 0.75209
 O954 O 0.70543 1.03636 0.78219
 O955 O 0.76414 0.96227 0.76085
 O956 O 0.76323 0.96736 0.73094
 O957 O 0.78835 1.00599 0.78237
 O958 O 0.78468 1.03768 0.78095
 O959 O 0.74082 0.98744 0.80254
 O960 O 0.71074 0.99097 0.79381
 O961 O 0.74203 0.96398 0.78010
 O962 O 0.71055 0.97307 0.77472
 O963 O 0.76366 1.00630 0.80361
 O964 O 0.76405 1.03980 0.79653
 O965 O 0.78765 0.98325 0.76363
 O966 O 0.78541 0.98975 0.73126
 O967 O 0.72881 1.06012 0.75309
 O968 O 0.72692 1.05272 0.78418
 O969 O 0.70051 1.01633 0.73211
 O970 O 0.70514 0.98351 0.73544
 O971 O 0.74866 1.03346 0.71006
 O972 O 0.77879 1.02529 0.71913
 Zr973 Zr 0.75786 1.03093 0.73580
 O974 O 0.77182 1.01419 0.75317
 Zr975 Zr 0.72467 1.00314 0.73445
 O976 O 0.73778 0.98457 0.75096
 Zr977 Zr 0.72574 1.03422 0.76413
 O978 O 0.73785 1.01677 0.78227
 Zr979 Zr 0.76469 0.98778 0.74914
 O980 O 0.75163 1.00442 0.73056
 Zr981 Zr 0.76460 1.01884 0.77885
 O982 O 0.75252 1.03738 0.76168
 Zr983 Zr 0.73209 0.99016 0.77680
 O984 O 0.71777 1.00784 0.76027
 O985 O 0.73117 1.02944 0.73839
 O986 O 0.75875 0.99231 0.77490
 C987 C 0.73921 1.06667 0.74156
 C988 C 0.73620 1.02596 0.70207
 C989 C 0.69396 1.02949 0.74014
 C990 C 0.75462 0.95567 0.77304
 C991 C 0.79473 0.99201 0.77583
 C992 C 0.75360 0.99445 0.81039
 H993 H 0.78434 1.01595 0.75129
 H994 H 0.73429 1.01977 0.79412
 H995 H 0.72499 1.03788 0.73045
 H996 H 0.73449 0.97232 0.74808
 H997 H 0.76090 0.97328 0.71952
 H998 H 0.73162 0.97508 0.71753
 H999 H 0.75445 1.03755 0.80474
 H1000 H 0.73858 1.05805 0.78371
 H1001 H 0.79274 0.97902 0.73305
 H1002 H 0.77919 1.03456 0.70970
 H1003 H 0.71159 1.00209 0.80025
 H1004 H 0.69943 1.02475 0.78246
 H1005 H 0.77859 1.05377 0.74890
 H1006 H 0.79202 1.03681 0.77053
 H1007 H 0.69780 0.98606 0.74555
 H1008 H 0.71332 0.96407 0.76607
 O1009 O 0.72753 0.49924 0.20229
 O1010 O 0.73289 0.46885 0.20894
 O1011 O 0.69245 0.51490 0.24163
 O1012 O 0.69157 0.51570 0.27041
 O1013 O 0.73822 0.54681 0.23014
 O1014 O 0.76815 0.54318 0.23721
 O1015 O 0.73463 0.47450 0.29763
 O1016 O 0.70632 0.47443 0.28651
 O1017 O 0.76709 0.45525 0.26003
 O1018 O 0.77120 0.46185 0.22877
 O1019 O 0.77900 0.50192 0.28403
 O1020 O 0.76986 0.53346 0.27983
 O1021 O 0.75080 0.49941 0.30124
 O1022 O 0.74820 0.53119 0.29365
 O1023 O 0.78595 0.48166 0.26394
 O1024 O 0.78614 0.48365 0.23115
 O1025 O 0.74276 0.45230 0.27625
 O1026 O 0.71307 0.45408 0.26389
 O1027 O 0.74567 0.52258 0.20640
 O1028 O 0.77388 0.52447 0.21872
 O1029 O 0.71331 0.54322 0.24540
 O1030 O 0.71014 0.53533 0.27656
 O1031 O 0.69949 0.49508 0.22112
 O1032 O 0.70952 0.46423 0.22663
 Zr1033 Zr 0.72502 0.48743 0.22744
 O1034 O 0.73881 0.47178 0.24609
 Zr1035 Zr 0.71502 0.51741 0.25652
 O1036 O 0.72817 0.50303 0.27628
 Zr1037 Zr 0.75081 0.52205 0.23316
 O1038 O 0.76564 0.50795 0.25196
 Zr1039 Zr 0.72874 0.47584 0.27090
 O1040 O 0.71360 0.48999 0.25208
 Zr1041 Zr 0.76440 0.48055 0.24753
 O1042 O 0.75121 0.49489 0.22746
 Zr1043 Zr 0.75423 0.51078 0.27637
 O1044 O 0.74060 0.52667 0.25783
 O1045 O 0.72505 0.51456 0.23188
 O1046 O 0.75447 0.48356 0.27228
 C1047 C 0.73631 0.51283 0.19678
 C1048 C 0.68885 0.50564 0.22837
 C1049 C 0.72377 0.55252 0.23600
 C1050 C 0.74322 0.48529 0.30696
 C1051 C 0.75744 0.44670 0.27097
 C1052 C 0.78920 0.49040 0.27759
 H1053 H 0.73814 0.45908 0.24321
 H1054 H 0.77764 0.51237 0.25170
 H1055 H 0.71842 0.52154 0.22303
 H1056 H 0.72242 0.50505 0.28748
 H1057 H 0.69636 0.47660 0.27863
 H1058 H 0.69323 0.50649 0.27969
 H1059 H 0.79245 0.49438 0.23465
 H1060 H 0.77601 0.51273 0.21368
 H1061 H 0.71242 0.44567 0.27404
 H1062 H 0.70296 0.46448 0.21555
 H1063 H 0.77972 0.53283 0.27174
 H1064 H 0.76490 0.54835 0.24838
 H1065 H 0.74525 0.47111 0.20656
 H1066 H 0.76150 0.45342 0.22776
 H1067 H 0.71986 0.54386 0.27659
 H1068 H 0.73656 0.52874 0.29838
 O1069 O 0.54303 0.24260 0.73116
 O1070 O 0.53944 0.24941 0.76028
 O1071 O 0.49996 0.20840 0.72103
 O1072 O 0.47093 0.21013 0.72332
 O1073 O 0.51191 0.25169 0.68505
 O1074 O 0.50700 0.28335 0.68551
 O1075 O 0.45199 0.25990 0.75961
 O1076 O 0.45985 0.22955 0.76132
 O1077 O 0.49484 0.28926 0.77272
 O1078 O 0.52537 0.29055 0.76259
 O1079 O 0.46625 0.30191 0.72844
 O1080 O 0.46703 0.29031 0.69764
 O1081 O 0.44714 0.27568 0.73435
 O1082 O 0.45064 0.27006 0.70348
 O1083 O 0.48870 0.30806 0.74630
 O1084 O 0.52054 0.30590 0.74111
 O1085 O 0.47611 0.26666 0.77863
 O1086 O 0.48505 0.23491 0.77902
 O1087 O 0.53825 0.25945 0.70650
 O1088 O 0.52792 0.28900 0.70162
 O1089 O 0.49452 0.22821 0.69204
 O1090 O 0.46454 0.22823 0.70162
 O1091 O 0.52278 0.21537 0.73817
 O1092 O 0.52039 0.22728 0.76747
 Zr1093 Zr 0.51893 0.24223 0.74368
 O1094 O 0.50334 0.25893 0.75844
 Zr1095 Zr 0.48637 0.23267 0.71748
 O1096 O 0.46935 0.24908 0.73108
 Zr1097 Zr 0.51205 0.26687 0.70766
 O1098 O 0.49629 0.28482 0.72101
 Zr1099 Zr 0.47751 0.25064 0.75693
 O1100 O 0.49340 0.23250 0.74384
 Zr1101 Zr 0.50348 0.28470 0.74733
 O1102 O 0.52055 0.26847 0.73352
 Zr1103 Zr 0.47080 0.27542 0.72112
 O1104 O 0.48623 0.25851 0.70603
 O1105 O 0.51190 0.24093 0.71770
 O1106 O 0.47784 0.27667 0.74705
 C1107 C 0.54805 0.25029 0.71691
 C1108 C 0.51393 0.20439 0.72941
 C1109 C 0.50419 0.23711 0.68147
 C1110 C 0.44246 0.26956 0.74933
 C1111 C 0.48391 0.28102 0.78253
 C1112 C 0.47439 0.31212 0.73874
 H1113 H 0.50751 0.25861 0.77058
 H1114 H 0.49710 0.29684 0.71555
 H1115 H 0.51959 0.23305 0.71115
 H1116 H 0.45749 0.24433 0.73046
 H1117 H 0.46638 0.21839 0.75969
 H1118 H 0.46160 0.21400 0.73106
 H1119 H 0.51634 0.31197 0.73034
 H1120 H 0.53361 0.29217 0.71260
 H1121 H 0.47579 0.23570 0.78781
 H1122 H 0.53080 0.21956 0.76734
 H1123 H 0.47489 0.30065 0.69765
 H1124 H 0.49515 0.28051 0.68167
 H1125 H 0.54303 0.26158 0.75665
 H1126 H 0.52587 0.28171 0.77235
 H1127 H 0.46398 0.23824 0.69298
 H1128 H 0.44551 0.25850 0.70709
 O1129 O 0.27394 0.77709 0.48411
 O1130 O 0.26826 0.77893 0.51329
 O1131 O 0.30289 0.72790 0.48138
 O1132 O 0.29885 0.69916 0.48806
 O1133 O 0.26141 0.73934 0.44515
 O1134 O 0.23080 0.73760 0.44707
 O1135 O 0.25113 0.69123 0.53047
 O1136 O 0.28022 0.69719 0.53023
 O1137 O 0.22477 0.73910 0.53518
 O1138 O 0.22543 0.76811 0.52021
 O1139 O 0.21018 0.70439 0.49648
 O1140 O 0.22085 0.69723 0.46824
 O1141 O 0.23434 0.68375 0.50755
 O1142 O 0.24089 0.68172 0.47547
 O1143 O 0.20576 0.73055 0.50978
 O1144 O 0.21140 0.76215 0.49922
 O1145 O 0.24612 0.72036 0.54464
 O1146 O 0.27760 0.72635 0.54178
 O1147 O 0.25668 0.77009 0.46135
 O1148 O 0.22670 0.76131 0.45988
 O1149 O 0.28279 0.72049 0.45437
 O1150 O 0.27970 0.69107 0.47008
 O1151 O 0.29878 0.75483 0.49337
 O1152 O 0.28755 0.75830 0.52355
 Zr1153 Zr 0.27256 0.75461 0.50087
 O1154 O 0.25508 0.74309 0.51879
 Zr1155 Zr 0.27824 0.71644 0.48111
 O1156 O 0.26168 0.70316 0.49874
 Zr1157 Zr 0.24727 0.74435 0.46773
 O1158 O 0.22909 0.73177 0.48423
 Zr1159 Zr 0.26115 0.71605 0.52248
 O1160 O 0.27976 0.72786 0.50567
 Zr1161 Zr 0.22990 0.74340 0.50860
 O1162 O 0.24699 0.75713 0.49156
 Zr1163 Zr 0.23629 0.70513 0.48930
 O1164 O 0.25310 0.71705 0.47071
 O1165 O 0.27253 0.74319 0.47669
 O1166 O 0.23574 0.71669 0.51346
 C1167 C 0.26665 0.78075 0.46942
 C1168 C 0.30827 0.74308 0.48622
 C1169 C 0.27482 0.72970 0.44253
 C1170 C 0.24089 0.68067 0.52271
 C1171 C 0.23257 0.72983 0.54708
 C1172 C 0.20062 0.71544 0.50442
 H1173 H 0.25584 0.74939 0.52982
 H1174 H 0.21751 0.73272 0.47886
 H1175 H 0.28064 0.74920 0.46853
 H1176 H 0.26548 0.69066 0.50042
 H1177 H 0.29147 0.70220 0.52651
 H1178 H 0.29562 0.69316 0.49915
 H1179 H 0.20501 0.75675 0.48960
 H1180 H 0.22539 0.77012 0.46906
 H1181 H 0.27611 0.71900 0.55257
 H1182 H 0.29641 0.76749 0.52096
 H1183 H 0.21427 0.70779 0.46398
 H1184 H 0.23237 0.72469 0.44545
 H1185 H 0.25625 0.78255 0.51053
 H1186 H 0.23489 0.77003 0.52857
 H1187 H 0.27057 0.69068 0.46109
 H1188 H 0.25011 0.67488 0.48158
 O1189 O 0.30258 0.26253 0.98905
 O1190 O 0.30089 0.23241 0.98492
 O1191 O 0.25396 0.28289 0.96949
 O1192 O 0.22597 0.27952 0.97534
 O1193 O 0.27380 0.29935 1.01951
 O1194 O 0.27477 0.28620 1.04731
 O1195 O 0.21627 0.22137 1.00650
 O1196 O 0.22001 0.23195 0.97845
 O1197 O 0.26404 0.20063 1.02358
 O1198 O 0.29335 0.21128 1.02465
 O1199 O 0.23686 0.23587 1.05459
 O1200 O 0.23266 0.26729 1.05509
 O1201 O 0.21389 0.23673 1.03136
 O1202 O 0.21579 0.27088 1.03511
 O1203 O 0.25999 0.21776 1.05085
 O1204 O 0.29129 0.22652 1.04561
 O1205 O 0.24210 0.20212 1.00390
 O1206 O 0.24622 0.21570 0.97393
 O1207 O 0.30089 0.27843 1.01364
 O1208 O 0.29520 0.26829 1.04389
 O1209 O 0.25305 0.30181 0.99860
 O1210 O 0.22259 0.28966 1.00026
 O1211 O 0.27788 0.26581 0.96583
 O1212 O 0.27816 0.23262 0.96628
 Zr1213 Zr 0.27907 0.24900 0.98817
 O1214 O 0.26706 0.22691 1.00028
 Zr1215 Zr 0.24527 0.27530 0.99444
 O1216 O 0.23130 0.25386 1.00572
 Zr1217 Zr 0.27634 0.27194 1.02420
 O1218 O 0.26314 0.25124 1.03754
 Zr1219 Zr 0.24032 0.22942 0.99680
 O1220 O 0.25237 0.25101 0.98339
 Zr1221 Zr 0.27090 0.22705 1.02725
 O1222 O 0.28512 0.24767 1.01486
 Zr1223 Zr 0.23643 0.25267 1.03242
 O1224 O 0.24938 0.27514 1.02141
 O1225 O 0.27181 0.27345 0.99766
 O1226 O 0.24428 0.22818 1.02352
 C1227 C 0.30886 0.27327 1.00003
 C1228 C 0.26705 0.27786 0.96069
 C1229 C 0.26420 0.30846 1.00898
 C1230 C 0.20834 0.22543 1.02042
 C1231 C 0.25235 0.19354 1.01434
 C1232 C 0.24669 0.22282 1.05931
 H1233 H 0.27148 0.21591 0.99516
 H1234 H 0.26563 0.25171 1.05009
 H1235 H 0.27797 0.28346 0.99183
 H1236 H 0.21886 0.25539 1.00320
 H1237 H 0.22460 0.23907 0.96848
 H1238 H 0.21988 0.26807 0.97435
 H1239 H 0.28756 0.23330 1.05573
 H1240 H 0.30299 0.25871 1.04013
 H1241 H 0.23787 0.20580 0.97299
 H1242 H 0.28657 0.23716 0.95753
 H1243 H 0.24395 0.26799 1.06104
 H1244 H 0.26243 0.28925 1.04877
 H1245 H 0.30598 0.23022 0.99658
 H1246 H 0.29352 0.20696 1.01267
 H1247 H 0.22450 0.29505 1.01165
 H1248 H 0.20698 0.26828 1.02624
 C1249 C 0.30851 0.35593 0.80841
 C1250 C 0.29192 0.36219 0.81198
 C1251 C 0.28462 0.37828 0.80330
 N1252 N 0.26869 0.38413 0.80775
 N1253 N 0.26214 0.39900 0.80049
 C1254 C 0.27128 0.40858 0.78846
 N1255 N 0.28716 0.40268 0.78393
 N1256 N 0.29372 0.38783 0.79120
 C1257 C 0.26465 0.42549 0.78085
 C1258 C 0.24912 0.43317 0.78602
 H1259 H 0.28396 0.35531 0.82151
 H1260 H 0.27281 0.43260 0.77160
 H1261 H 0.31575 0.36243 0.79803
 H1262 H 0.24108 0.42619 0.79546
 C1263 C 0.30343 -0.17927 0.29855
 C1264 C 0.31010 -0.16587 0.28754
 C1265 C 0.30029 -0.14945 0.28337
 N1266 N 0.30711 -0.13691 0.27241
 N1267 N 0.29857 -0.12187 0.26874
 C1268 C 0.28288 -0.11874 0.27591
 N1269 N 0.27605 -0.13127 0.28688
 N1270 N 0.28459 -0.14635 0.29054
 C1271 C 0.27352 -0.10196 0.27205
 C1272 C 0.28025 -0.08922 0.26047
 H1273 H 0.32276 -0.16698 0.28188
 H1274 H 0.26136 -0.09957 0.27846
 H1275 H 0.29043 -0.17732 0.30331
 H1276 H 0.29239 -0.09192 0.25412
 C1277 C 0.81537 0.85816 0.80396
 C1278 C 0.79922 0.86537 0.80813
 C1279 C 0.79233 0.88158 0.79913
 N1280 N 0.77704 0.88867 0.80410
 N1281 N 0.77090 0.90352 0.79637
 C1282 C 0.77983 0.91183 0.78334
 N1283 N 0.79506 0.90470 0.77833
 N1284 N 0.80119 0.88988 0.78605
 C1285 C 0.77374 0.92863 0.77495
 C1286 C 0.75878 0.93757 0.77992
 H1287 H 0.79142 0.85956 0.81839
 H1288 H 0.78192 0.93462 0.76502
 H1289 H 0.82239 0.86476 0.79347
 H1290 H 0.75064 0.93177 0.78998
 C1291 C 0.46200 0.91285 0.28811
 C1292 C 0.47550 0.90217 0.29441
 C1293 C 0.48087 0.88611 0.28541
 N1294 N 0.49401 0.87598 0.29192
 N1295 N 0.49826 0.86079 0.28459
 C1296 C 0.48950 0.85513 0.27051
 N1297 N 0.47646 0.86533 0.26391
 N1298 N 0.47224 0.88055 0.27121
 C1299 C 0.49329 0.83774 0.26314
 C1300 C 0.50609 0.82670 0.27025
 H1301 H 0.48178 0.90486 0.30656
 H1302 H 0.48521 0.83313 0.25273
 H1303 H 0.45650 0.90977 0.27563
 H1304 H 0.51408 0.83147 0.28066
 C1305 C -0.07054 0.89422 0.81532
 C1306 C -0.05329 0.89536 0.81037
 C1307 C -0.04624 0.88424 0.79674
 N1308 N -0.02921 0.88506 0.79280
 N1309 N -0.02265 0.87487 0.78062
 C1310 C -0.03293 0.86365 0.77180
 N1311 N -0.05000 0.86302 0.77557
 N1312 N -0.05654 0.87314 0.78780
 C1313 C -0.02566 0.85114 0.75950
 C1314 C -0.00796 0.84814 0.75858
 H1315 H -0.04489 0.90508 0.81603
 H1316 H -0.03446 0.84224 0.75315
 H1317 H -0.07886 0.88488 0.80893
 H1318 H 0.00077 0.85642 0.76575
 C1319 C -0.06887 -0.14484 -0.06570
 C1320 C -0.05123 -0.14185 -0.06351
 C1321 C -0.04481 -0.13005 -0.05009
 N1322 N -0.02760 -0.12871 -0.04726
 N1323 N -0.02156 -0.11780 -0.03543
 C1324 C -0.03250 -0.10786 -0.02594
 N1325 N -0.04972 -0.10928 -0.02870
 N1326 N -0.05577 -0.12023 -0.04051
 C1327 C -0.02586 -0.09451 -0.01411
 C1328 C -0.00824 -0.09119 -0.01299
 H1329 H -0.04170 -0.14866 -0.07106
 H1330 H -0.03496 -0.08563 -0.00815
 H1331 H -0.07755 -0.13832 -0.05690
 H1332 H 0.00073 -0.09979 -0.01950
 C1333 C -0.06012 0.35067 0.43763
 C1334 C -0.06524 0.36050 0.45189
 C1335 C -0.05630 0.37700 0.45649
 N1336 N -0.06152 0.38616 0.47045
 N1337 N -0.05368 0.40121 0.47460
 C1338 C -0.04032 0.40766 0.46493
 N1339 N -0.03510 0.39850 0.45101
 N1340 N -0.04292 0.38346 0.44688
 C1341 C -0.03166 0.42442 0.46900
 C1342 C -0.03639 0.43471 0.48297
 H1343 H -0.07591 0.35635 0.46001
 H1344 H -0.02141 0.42896 0.46043
 H1345 H -0.04903 0.35555 0.43040
 H1346 H -0.04661 0.43021 0.49158
 C1347 C 0.45017 -0.15701 0.43886
 C1348 C 0.44793 -0.14739 0.45387
 C1349 C 0.45749 -0.13095 0.45694
 N1350 N 0.45729 -0.12409 0.47295
 N1351 N 0.46548 -0.10899 0.47599
 C1352 C 0.47415 -0.10009 0.46314
 N1353 N 0.47434 -0.10693 0.44707
 N1354 N 0.46621 -0.12213 0.44403
 C1355 C 0.48217 -0.08276 0.46637
 C1356 C 0.48209 -0.07616 0.48301
 H1357 H 0.43969 -0.15223 0.46424
 H1358 H 0.48672 -0.07460 0.45550
 H1359 H 0.45997 -0.15235 0.42980
 H1360 H 0.47744 -0.08456 0.49367
 C1361 C 0.45307 0.34148 -0.06570
 C1362 C 0.45309 0.34772 -0.04885
 C1363 C 0.46347 0.36319 -0.04417
 N1364 N 0.46341 0.36862 -0.02759
 N1365 N 0.47202 0.38313 -0.02331
 C1366 C 0.48103 0.39275 -0.03543
 N1367 N 0.48124 0.38721 -0.05198
 N1368 N 0.47263 0.37268 -0.05627
 C1369 C 0.48923 0.40964 -0.03108
 C1370 C 0.48711 0.41659 -0.01473
 H1371 H 0.44544 0.34149 -0.03869
 H1372 H 0.49547 0.41747 -0.04128
 H1373 H 0.46189 0.34781 -0.07486
 H1374 H 0.48051 0.40878 -0.00475
 C1375 C 0.79673 0.42210 0.46334
 C1376 C 0.78027 0.41471 0.46279
 C1377 C 0.77600 0.39803 0.47208
 N1378 N 0.76111 0.38959 0.46820
 N1379 N 0.75775 0.37354 0.47508
 C1380 C 0.76914 0.36537 0.48613
 N1381 N 0.78386 0.37398 0.49034
 N1382 N 0.78727 0.39001 0.48337
 C1383 C 0.76616 0.34715 0.49272
 C1384 C 0.75378 0.33639 0.48523
 H1385 H 0.77064 0.42035 0.45402
 H1386 H 0.77464 0.34175 0.50278
 H1387 H 0.80590 0.41730 0.47304
 H1388 H 0.74580 0.34167 0.47470
 C1389 C 0.81621 0.89953 -0.05936
 C1390 C 0.80051 0.89195 -0.06453
 C1391 C 0.79364 0.87531 -0.05664
 N1392 N 0.77900 0.86806 -0.06310
 N1393 N 0.77260 0.85299 -0.05621
 C1394 C 0.78059 0.84464 -0.04254
 N1395 N 0.79517 0.85192 -0.03604
 N1396 N 0.80159 0.86695 -0.04294
 C1397 C 0.77406 0.82782 -0.03479
 C1398 C 0.75988 0.81850 -0.04118
 H1399 H 0.79289 0.89780 -0.07496
 H1400 H 0.78129 0.82220 -0.02388
 H1401 H 0.82351 0.89244 -0.04931
 H1402 H 0.75271 0.82382 -0.05225
 C1403 C 0.81965 0.30674 0.36008
 C1404 C 0.80282 0.30917 0.36608
 C1405 C 0.79664 0.30034 0.38231
 N1406 N 0.78012 0.30278 0.38759
 N1407 N 0.77444 0.29502 0.40227
 C1408 C 0.78503 0.28447 0.41225
 N1409 N 0.80153 0.28199 0.40694
 N1410 N 0.80721 0.28975 0.39226
 C1411 C 0.77913 0.27635 0.42891
 C1412 C 0.76269 0.27959 0.43547
 H1413 H 0.79380 0.31738 0.35867
 H1414 H 0.78829 0.26859 0.43664
 H1415 H 0.82803 0.29779 0.36751
 H1416 H 0.75379 0.28778 0.42784
 C1417 C 0.81822 0.80907 -0.15016
 C1418 C 0.80075 0.80578 -0.14721
 C1419 C 0.79512 0.79368 -0.13289
 N1420 N 0.77807 0.79078 -0.13004
 N1421 N 0.77292 0.78002 -0.11699
 C1422 C 0.78464 0.77166 -0.10638
 N1423 N 0.80167 0.77444 -0.10933
 N1424 N 0.80681 0.78520 -0.12235
 C1425 C 0.77923 0.76088 -0.09106
 C1426 C 0.76204 0.76005 -0.08585
 H1427 H 0.79106 0.81162 -0.15579
 H1428 H 0.78920 0.75543 -0.08254
 H1429 H 0.82758 0.80243 -0.14172
 H1430 H 0.75219 0.76615 -0.09410
 C1431 C 0.28629 0.46833 0.92561
 C1432 C 0.27362 0.46096 0.91513
 C1433 C 0.26804 0.46935 0.89861
 N1434 N 0.25631 0.46098 0.88867
 N1435 N 0.25180 0.46780 0.87317
 C1436 C 0.25889 0.48321 0.86702
 N1437 N 0.27054 0.49166 0.87701
 N1438 N 0.27504 0.48486 0.89253
 C1439 C 0.25473 0.49037 0.84958
 C1440 C 0.24308 0.48198 0.83872
 H1441 H 0.26845 0.44791 0.91822
 H1442 H 0.26140 0.50224 0.84500
 H1443 H 0.29181 0.48108 0.92173
 H1444 H 0.23613 0.47033 0.84341
 C1445 C 0.29937 -0.05752 0.40448
 C1446 C 0.28776 -0.06517 0.39299
 C1447 C 0.28374 -0.05680 0.37593
 N1448 N 0.27258 -0.06485 0.36514
 N1449 N 0.26921 -0.05779 0.34944
 C1450 C 0.27688 -0.04242 0.34391
 N1451 N 0.28798 -0.03430 0.35474
 N1452 N 0.29135 -0.04136 0.37046
 C1453 C 0.27359 -0.03482 0.32638
 C1454 C 0.26267 -0.04324 0.31486
 H1455 H 0.28161 -0.07773 0.39601
 H1456 H 0.28021 -0.02272 0.32235
 H1457 H 0.30479 -0.04474 0.40055
 H1458 H 0.25616 -0.05537 0.31902
 C1459 C -0.06952 -0.06421 -0.13511
 C1460 C -0.05266 -0.06804 -0.12937
 C1461 C -0.04472 -0.05955 -0.11432
 N1462 N -0.02872 -0.06471 -0.10896
 N1463 N -0.02132 -0.05744 -0.09528
 C1464 C -0.02964 -0.04467 -0.08645
 N1465 N -0.04563 -0.03945 -0.09184
 N1466 N -0.05305 -0.04675 -0.10551
 C1467 C -0.02182 -0.03681 -0.07102
 C1468 C -0.00619 -0.04287 -0.06389
 H1469 H -0.04478 -0.07780 -0.13558
 H1470 H -0.02902 -0.02655 -0.06462
 H1471 H -0.07676 -0.05446 -0.12804
 H1472 H 0.00073 -0.05352 -0.06999
 C1473 C -0.06021 0.43826 0.34755
 C1474 C -0.06464 0.45338 0.35659
 C1475 C -0.05590 0.45799 0.37279
 N1476 N -0.06062 0.47287 0.38105
 N1477 N -0.05299 0.47713 0.39584
 C1478 C -0.04034 0.46665 0.40292
 N1479 N -0.03560 0.45177 0.39465
 N1480 N -0.04324 0.44750 0.37986
 C1481 C -0.03189 0.47110 0.41931
 C1482 C -0.03656 0.48610 0.42839
 H1483 H -0.07461 0.46230 0.35171
 H1484 H -0.02191 0.46226 0.42441
 H1485 H -0.04945 0.43020 0.35221
 H1486 H -0.04662 0.49484 0.42329
 C1487 C 0.45523 -0.05058 0.34118
 C1488 C 0.44611 -0.04040 0.35296
 C1489 C 0.45306 -0.03676 0.37036
 N1490 N 0.44374 -0.02695 0.38149
 N1491 N 0.44981 -0.02367 0.39727
 C1492 C 0.46546 -0.03010 0.40251
 N1493 N 0.47477 -0.03989 0.39138
 N1494 N 0.46870 -0.04316 0.37562
 C1495 C 0.47243 -0.02672 0.41991
 C1496 C 0.46370 -0.01655 0.43196
 H1497 H 0.43348 -0.03514 0.34974
 H1498 H 0.48488 -0.03244 0.42331
 H1499 H 0.46768 -0.05587 0.34522
 H1500 H 0.45129 -0.01075 0.42855
 C1501 C 0.42594 0.43811 -0.14418
 C1502 C 0.44277 0.43868 -0.13774
 C1503 C 0.44690 0.44707 -0.12117
 N1504 N 0.46342 0.44712 -0.11533
 N1505 N 0.46739 0.45461 -0.10042
 C1506 C 0.45502 0.46241 -0.09074
 N1507 N 0.43848 0.46242 -0.09660
 N1508 N 0.43450 0.45490 -0.11153
 C1509 C 0.45935 0.47037 -0.07399
 C1510 C 0.47596 0.46884 -0.06710
 H1511 H 0.45334 0.43331 -0.14507
 H1512 H 0.44929 0.47678 -0.06672
 H1513 H 0.41582 0.44419 -0.13670
 H1514 H 0.48568 0.46185 -0.07434
 C1515 C 0.44475 0.79115 0.40190
 C1516 C 0.46181 0.79168 0.39614
 C1517 C 0.46736 0.78380 0.37991
 N1518 N 0.48365 0.78671 0.37413
 N1519 N 0.48870 0.78062 0.35895
 C1520 C 0.47764 0.77136 0.34898
 N1521 N 0.46140 0.76824 0.35487
 N1522 N 0.45632 0.77439 0.37004
 C1523 C 0.48281 0.76531 0.33184
 C1524 C 0.49821 0.77080 0.32407
 H1525 H 0.47145 0.79874 0.40338
 H1526 H 0.47385 0.75715 0.32481
 H1527 H 0.43548 0.78292 0.39536
 H1528 H 0.50687 0.77947 0.33089
 C1529 C -0.06552 0.81465 0.88385
 C1530 C -0.05054 0.82162 0.87621
 C1531 C -0.04211 0.81344 0.86131
 N1532 N -0.02783 0.82108 0.85417
 N1533 N -0.02027 0.81412 0.84043
 C1534 C -0.02669 0.79921 0.83334
 N1535 N -0.04091 0.79152 0.84053
 N1536 N -0.04848 0.79848 0.85426
 C1537 C -0.01898 0.79170 0.81773
 C1538 C -0.00469 0.79926 0.80933
 H1539 H -0.04505 0.83384 0.88069
 H1540 H -0.02530 0.78033 0.81224
 H1541 H -0.07125 0.80295 0.87841
 H1542 H 0.00162 0.81066 0.81477
 C1543 C 0.35569 0.78068 0.30248
 C1544 C 0.36585 0.78889 0.28959
 C1545 C 0.38392 0.78347 0.28676
 N1546 N 0.39349 0.79182 0.27424
 N1547 N 0.40985 0.78708 0.27162
 C1548 C 0.41726 0.77379 0.28143
 N1549 N 0.40769 0.76544 0.29392
 N1550 N 0.39136 0.77019 0.29655
 C1551 C 0.43529 0.76826 0.27876
 C1552 C 0.44595 0.77638 0.26632
 H1553 H 0.36065 0.79938 0.28121
 H1554 H 0.44027 0.75739 0.28688
 H1555 H 0.36138 0.76983 0.31013
 H1556 H 0.44102 0.78733 0.25827
 C1557 C -0.13313 0.81899 0.81001
 C1558 C -0.12623 0.82181 0.79347
 C1559 C -0.10936 0.81429 0.78870
 N1560 N -0.10322 0.81689 0.77237
 N1561 N -0.08814 0.80990 0.76781
 C1562 C -0.07863 0.79998 0.77940
 N1563 N -0.08477 0.79737 0.79573
 N1564 N -0.09985 0.80437 0.80028
 C1565 C -0.06180 0.79241 0.77459
 C1566 C -0.05452 0.79601 0.75836
 H1567 H -0.13355 0.82896 0.78353
 H1568 H -0.05466 0.78461 0.78427
 H1569 H -0.12571 0.81114 0.81941
 H1570 H -0.06150 0.80436 0.74900
 C1571 C 0.89359 0.30382 0.44026
 C1572 C 0.88602 0.30804 0.45602
 C1573 C 0.86978 0.29971 0.46187
 N1574 N 0.86207 0.30510 0.47658
 N1575 N 0.84714 0.29800 0.48177
 C1576 C 0.83939 0.28520 0.47246
 N1577 N 0.84717 0.27971 0.45784
 N1578 N 0.86207 0.28684 0.45263
 C1579 C 0.82258 0.27771 0.47763
 C1580 C 0.81311 0.28441 0.49129
 H1581 H 0.89186 0.31764 0.46432
 H1582 H 0.81715 0.26733 0.46987
 H1583 H 0.88749 0.29369 0.43268
 H1584 H 0.81838 0.29512 0.49871
 C1585 C 0.88036 0.82199 -0.08172
 C1586 C 0.87543 0.80428 -0.07956
 C1587 C 0.86018 0.79918 -0.06924
 N1588 N 0.85701 0.78176 -0.06549
 N1589 N 0.84388 0.77701 -0.05525
 C1590 C 0.83351 0.78950 -0.04829
 N1591 N 0.83664 0.80691 -0.05210
 N1592 N 0.84977 0.81166 -0.06233
 C1593 C 0.81866 0.78440 -0.03739
 C1594 C 0.81408 0.76666 -0.03465
 H1595 H 0.88403 0.79385 -0.08363
 H1596 H 0.81030 0.79481 -0.03281
 H1597 H 0.87204 0.83225 -0.07679
 H1598 H 0.82204 0.75633 -0.03998
 C1599 C -0.13437 -0.05835 -0.06361
 C1600 C -0.12655 -0.06194 -0.04758
 C1601 C -0.10965 -0.05424 -0.04313
 N1602 N -0.10308 -0.05682 -0.02692
 N1603 N -0.08797 -0.04972 -0.02265
 C1604 C -0.07884 -0.03973 -0.03440
 N1605 N -0.08540 -0.03717 -0.05062
 N1606 N -0.10052 -0.04426 -0.05489
 C1607 C -0.06189 -0.03218 -0.02989
 C1608 C -0.05456 -0.03529 -0.01356
 H1609 H -0.13325 -0.06977 -0.03772
 H1610 H -0.05470 -0.02493 -0.03984
 H1611 H -0.12772 -0.04967 -0.07286
 H1612 H -0.06169 -0.04299 -0.00389
 C1613 C -0.16396 0.47143 0.44588
 C1614 C -0.15630 0.47301 0.46220
 C1615 C -0.13947 0.48154 0.46463
 N1616 N -0.13191 0.48059 0.48051
 N1617 N -0.11604 0.48681 0.48281
 C1618 C -0.10711 0.49426 0.46933
 N1619 N -0.11477 0.49552 0.45349
 N1620 N -0.13066 0.48921 0.45116
 C1621 C -0.08908 0.49984 0.47155
 C1622 C -0.07971 0.49458 0.48630
 H1623 H -0.16211 0.46714 0.47371
 H1624 H -0.08272 0.50685 0.46090
 H1625 H -0.15846 0.47908 0.43512
 H1626 H -0.08599 0.48678 0.49650
 C1627 C 0.33744 -0.05256 0.45458
 C1628 C 0.34925 -0.05999 0.46646
 C1629 C 0.36419 -0.04990 0.47262
 N1630 N 0.37604 -0.05800 0.48319
 N1631 N 0.39024 -0.04942 0.48789
 C1632 C 0.39311 -0.03241 0.48218
 N1633 N 0.38115 -0.02424 0.47179
 N1634 N 0.36695 -0.03282 0.46710
 C1635 C 0.40934 -0.02324 0.48606
 C1636 C 0.42239 -0.03134 0.49598
 H1637 H 0.34846 -0.07388 0.47042
 H1638 H 0.41146 -0.01022 0.48002
 H1639 H 0.33906 -0.03876 0.45044
 H1640 H 0.42013 -0.04420 0.50228
 C1641 C 0.33699 0.45763 -0.03771
 C1642 C 0.34824 0.44876 -0.02608
 C1643 C 0.36633 0.45455 -0.02416
 N1644 N 0.37717 0.44563 -0.01305
 N1645 N 0.39356 0.45073 -0.01139
 C1646 C 0.39971 0.46491 -0.02081
 N1647 N 0.38887 0.47378 -0.03190
 N1648 N 0.37252 0.46870 -0.03355
 C1649 C 0.41768 0.47094 -0.01923
 C1650 C 0.42965 0.46279 -0.00798
 H1651 H 0.34419 0.43723 -0.01846
 H1652 H 0.42150 0.48247 -0.02708
 H1653 H 0.34208 0.46917 -0.04474
 H1654 H 0.42591 0.45128 -0.00009
 C1655 C 0.38193 0.43417 0.80874
 C1656 C 0.37348 0.44993 0.81264
 C1657 C 0.35655 0.45486 0.80529
 N1658 N 0.34877 0.47001 0.81029
 N1659 N 0.33338 0.47471 0.80394
 C1660 C 0.32519 0.46445 0.79233
 N1661 N 0.33299 0.44931 0.78726
 N1662 N 0.34840 0.44458 0.79365
 C1663 C 0.30813 0.46957 0.78537
 C1664 C 0.29922 0.48415 0.79159
 H1665 H 0.37944 0.45926 0.82119
 H1666 H 0.30239 0.46157 0.77547
 H1667 H 0.37622 0.42556 0.79931
 H1668 H 0.30483 0.49173 0.80189
 C1669 C 0.41308 -0.04580 0.29049
 C1670 C 0.39802 -0.04164 0.29930
 C1671 C 0.38147 -0.03924 0.29007
 N1672 N 0.36703 -0.03513 0.29900
 N1673 N 0.35186 -0.03366 0.29090
 C1674 C 0.35053 -0.03635 0.27360
 N1675 N 0.36495 -0.04053 0.26469
 N1676 N 0.38014 -0.04193 0.27278
 C1677 C 0.33375 -0.03486 0.26464
 C1678 C 0.31949 -0.02776 0.27288
 H1679 H 0.39800 -0.04147 0.31331
 H1680 H 0.33272 -0.03891 0.25133
 H1681 H 0.41253 -0.04637 0.27649
 H1682 H 0.32100 -0.02286 0.28587
 C1683 C 0.09113 0.56510 0.68748
 C1684 C 0.09695 0.56610 0.70456
 C1685 C 0.11197 0.55573 0.71100
 N1686 N 0.11733 0.55721 0.72765
 N1687 N 0.13105 0.54814 0.73356
 C1688 C 0.13991 0.53719 0.72307
 N1689 N 0.13451 0.53565 0.70644
 N1690 N 0.12080 0.54474 0.70052
 C1691 C 0.15557 0.52770 0.72922
 C1692 C 0.16250 0.53041 0.74562
 H1693 H 0.09027 0.57435 0.71363
 H1694 H 0.16235 0.51936 0.72027
 H1695 H 0.09764 0.55602 0.67903
 H1696 H 0.15587 0.53916 0.75431
 C1697 C 0.10221 0.05050 0.19768
 C1698 C 0.10837 0.03326 0.19493
 C1699 C 0.12476 0.02643 0.20230
 N1700 N 0.13103 0.01046 0.19741
 N1701 N 0.14594 0.00415 0.20378
 C1702 C 0.15509 0.01359 0.21535
 N1703 N 0.14878 0.02951 0.22028
 N1704 N 0.13393 0.03585 0.21386
 C1705 C 0.17160 0.00715 0.22268
 C1706 C 0.18072 -0.00765 0.21692
 H1707 H 0.10118 0.02425 0.18705
 H1708 H 0.17721 0.01513 0.23268
 H1709 H 0.10935 0.05883 0.20635
 H1710 H 0.17568 -0.01534 0.20641
 C1711 C 0.67356 0.71545 0.19901
 C1712 C 0.66175 0.70653 0.20981
 C1713 C 0.64501 0.71426 0.21455
 N1714 N 0.63434 0.70497 0.22539
 N1715 N 0.61892 0.71146 0.22948
 C1716 C 0.61357 0.72748 0.22283
 N1717 N 0.62425 0.73680 0.21201
 N1718 N 0.63970 0.73032 0.20794
 C1719 C 0.59640 0.73463 0.22691
 C1720 C 0.58532 0.72605 0.23868
 H1721 H 0.66427 0.69306 0.21442
 H1722 H 0.59241 0.74696 0.22042
 H1723 H 0.67030 0.72865 0.19398
 H1724 H 0.58951 0.71397 0.24548
 C1725 C 0.17213 0.71778 0.70853
 C1726 C 0.16311 0.73284 0.70255
 C1727 C 0.14646 0.73781 0.71023
 N1728 N 0.13773 0.75228 0.70391
 N1729 N 0.12241 0.75656 0.71041
 C1730 C 0.11524 0.74654 0.72348
 N1731 N 0.12400 0.73212 0.72983
 N1732 N 0.13931 0.72784 0.72334
 C1733 C 0.09799 0.75065 0.73023
 C1734 C 0.08815 0.76463 0.72320
 H1735 H 0.16806 0.74116 0.69203
 H1736 H 0.09264 0.74202 0.74035
 H1737 H 0.16687 0.71030 0.71952
 H1738 H 0.09355 0.77309 0.71296
 C1739 C 0.58380 0.20301 0.52940
 C1740 C 0.59256 0.21875 0.53247
 C1741 C 0.61059 0.22151 0.52729
 N1742 N 0.61904 0.23609 0.53264
 N1743 N 0.63563 0.23846 0.52888
 C1744 C 0.64441 0.22637 0.51960
 N1745 N 0.63591 0.21186 0.51403
 N1746 N 0.61929 0.20944 0.51787
 C1747 C 0.66283 0.22892 0.51572
 C1748 C 0.67207 0.24237 0.52351
 H1749 H 0.58641 0.22925 0.53948
 H1750 H 0.66912 0.22022 0.50676
 H1751 H 0.58991 0.19320 0.52142
 H1752 H 0.66565 0.25065 0.53277
 C1753 C 0.59843 0.69413 0.05750
 C1754 C 0.60492 0.69397 0.04064
 C1755 C 0.62069 0.70362 0.03545
 N1756 N 0.62725 0.70149 0.01938
 N1757 N 0.64177 0.70966 0.01455
 C1758 C 0.65026 0.72035 0.02557
 N1759 N 0.64359 0.72266 0.04160
 N1760 N 0.62909 0.71442 0.04647
 C1761 C 0.66673 0.72878 0.02053
 C1762 C 0.67547 0.72371 0.00572
 H1763 H 0.59845 0.68652 0.03080
 H1764 H 0.67257 0.73818 0.02913
 H1765 H 0.60478 0.70240 0.06683
 H1766 H 0.66989 0.71359 -0.00226
 C1767 C 0.17334 0.03450 0.03664
 C1768 C 0.16376 0.02044 0.04388
 C1769 C 0.14780 0.01456 0.03537
 N1770 N 0.13796 0.00165 0.04296
 N1771 N 0.12295 -0.00289 0.03590
 C1772 C 0.11723 0.00532 0.02099
 N1773 N 0.12714 0.01809 0.01332
 N1774 N 0.14214 0.02261 0.02037
 C1775 C 0.10017 0.00133 0.01372
 C1776 C 0.08942 -0.01126 0.02162
 H1777 H 0.16714 0.01426 0.05626
 H1778 H 0.09564 0.00913 0.00256
 H1779 H 0.16923 0.03964 0.02398
 H1780 H 0.09415 -0.01912 0.03266
 C1781 C 0.14937 0.52759 0.55306
 C1782 C 0.14296 0.53096 0.53632
 C1783 C 0.12642 0.52357 0.53057
 N1784 N 0.11949 0.52908 0.51513
 N1785 N 0.10407 0.52325 0.51018
 C1786 C 0.09505 0.51163 0.52048
 N1787 N 0.10208 0.50594 0.53580
 N1788 N 0.11747 0.51181 0.54077
 C1789 C 0.07752 0.50599 0.51588
 C1790 C 0.06848 0.51356 0.50182
 H1791 H 0.14969 0.53968 0.52726
 H1792 H 0.07107 0.49672 0.52471
 H1793 H 0.14244 0.51828 0.56147
 H1794 H 0.07485 0.52303 0.49312
 C1795 C 0.64070 0.05508 0.55572
 C1796 C 0.63096 0.06071 0.54119
 C1797 C 0.61579 0.05062 0.53538
 N1798 N 0.60573 0.05719 0.52221
 N1799 N 0.59173 0.04841 0.51718
 C1800 C 0.58732 0.03268 0.52510
 N1801 N 0.59744 0.02607 0.53817
 N1802 N 0.61139 0.03485 0.54321
 C1803 C 0.57157 0.02305 0.52033
 C1804 C 0.55974 0.02960 0.50800
 H1805 H 0.63388 0.07291 0.53408
 H1806 H 0.56878 0.01077 0.52749
 H1807 H 0.63670 0.04283 0.56230
 H1808 H 0.56240 0.04195 0.50090
 C1809 C 0.65830 0.53358 0.04056
 C1810 C 0.64616 0.54167 0.02947
 C1811 C 0.62985 0.53283 0.02524
 N1812 N 0.61785 0.54158 0.01535
 N1813 N 0.60255 0.53421 0.01238
 C1814 C 0.59869 0.51784 0.01922
 N1815 N 0.61074 0.50903 0.02898
 N1816 N 0.62604 0.51639 0.03194
 C1817 C 0.58156 0.50996 0.01685
 C1818 C 0.56876 0.51855 0.00701
 H1819 H 0.64778 0.55531 0.02494
 H1820 H 0.57884 0.49733 0.02342
 H1821 H 0.65591 0.52013 0.04538
 H1822 H 0.57164 0.53096 0.00012
 C1823 C 0.05581 0.05059 0.15227
 C1824 C 0.06000 0.03419 0.14526
 C1825 C 0.05183 0.02796 0.12932
 N1826 N 0.05655 0.01206 0.12297
 N1827 N 0.04976 0.00647 0.10823
 C1828 C 0.03798 0.01658 0.09931
 N1829 N 0.03317 0.03243 0.10572
 N1830 N 0.03997 0.03803 0.12045
 C1831 C 0.03098 0.01102 0.08260
 C1832 C 0.03652 -0.00445 0.07478
 H1833 H 0.06944 0.02540 0.15130
 H1834 H 0.02192 0.01984 0.07589
 H1835 H 0.04539 0.05813 0.14612
 H1836 H 0.04567 -0.01318 0.08145
 C1837 C 0.04564 0.57110 0.64140
 C1838 C 0.04846 0.55447 0.63432
 C1839 C 0.04040 0.54946 0.61790
 N1840 N 0.04431 0.53360 0.61094
 N1841 N 0.03732 0.52902 0.59592
 C1842 C 0.02615 0.54013 0.58733
 N1843 N 0.02218 0.55594 0.59433
 N1844 N 0.02918 0.56054 0.60931
 C1845 C 0.01848 0.53549 0.57064
 C1846 C 0.02298 0.52011 0.56207
 H1847 H 0.05674 0.54474 0.64077
 H1848 H 0.00931 0.54476 0.56472
 H1849 H 0.03667 0.58015 0.63486
 H1850 H 0.03236 0.51096 0.56782
 C1851 C 0.53903 0.05013 0.65492
 C1852 C 0.54585 0.03768 0.64371
 C1853 C 0.53713 0.03348 0.62738
 N1854 N 0.54490 0.02252 0.61615
 N1855 N 0.53752 0.01916 0.60100
 C1856 C 0.52210 0.02665 0.59651
 N1857 N 0.51427 0.03751 0.60778
 N1858 N 0.52166 0.04089 0.62293
 C1859 C 0.51400 0.02335 0.57967
 C1860 C 0.52198 0.01286 0.56748
 H1861 H 0.55818 0.03137 0.64612
 H1862 H 0.50159 0.02944 0.57679
 H1863 H 0.52659 0.05591 0.65149
 H1864 H 0.53443 0.00686 0.57042
 C1865 C 0.53346 0.53826 0.16056
 C1866 C 0.54247 0.52853 0.14844
 C1867 C 0.53473 0.52424 0.13165
 N1868 N 0.54430 0.51578 0.11975
 N1869 N 0.53785 0.51275 0.10410
 C1870 C 0.52160 0.51812 0.09974
 N1871 N 0.51198 0.52648 0.11168
 N1872 N 0.51843 0.52951 0.12734
 C1873 C 0.51456 0.51524 0.08232
 C1874 C 0.52406 0.50632 0.07002
 H1875 H 0.55596 0.52533 0.15050
 H1876 H 0.50175 0.52017 0.07916
 H1877 H 0.52015 0.54187 0.15782
 H1878 H 0.53672 0.50113 0.07345
 C1879 C 0.18982 0.53197 0.60256
 C1880 C 0.19935 0.54197 0.61414
 C1881 C 0.20261 0.53576 0.63214
 N1882 N 0.21213 0.54588 0.64282
 N1883 N 0.21478 0.54071 0.65929
 C1884 C 0.20796 0.52525 0.66572
 N1885 N 0.19845 0.51513 0.65504
 N1886 N 0.19583 0.52028 0.63855
 C1887 C 0.21044 0.51955 0.68397
 C1888 C 0.22089 0.52890 0.69524
 H1889 H 0.20397 0.55507 0.61038
 H1890 H 0.20385 0.50764 0.68861
 H1891 H 0.18486 0.51916 0.60701
 H1892 H 0.22780 0.54056 0.69046
 C1893 C 0.21364 0.04540 0.08641
 C1894 C 0.21336 0.02869 0.09475
 C1895 C 0.22062 0.02560 0.11227
 N1896 N 0.22063 0.00894 0.11949
 N1897 N 0.22696 0.00587 0.13537
 C1898 C 0.23354 0.01932 0.14469
 N1899 N 0.23356 0.03601 0.13747
 N1900 N 0.22724 0.03909 0.12154
 C1901 C 0.23992 0.01598 0.16256
 C1902 C 0.23863 -0.00089 0.17041
 H1903 H 0.20812 0.01738 0.08822
 H1904 H 0.24467 0.02702 0.16988
 H1905 H 0.21993 0.05622 0.09287
 H1906 H 0.23334 -0.01161 0.16300
 C1907 C 0.70882 0.21970 0.67131
 C1908 C 0.70017 0.22848 0.65764
 C1909 C 0.70799 0.23148 0.64045
 N1910 N 0.69891 0.24041 0.62789
 N1911 N 0.70546 0.24288 0.61208
 C1912 C 0.72133 0.23646 0.60815
 N1913 N 0.73045 0.22750 0.62071
 N1914 N 0.72389 0.22505 0.63658
 C1915 C 0.72849 0.23907 0.59057
 C1916 C 0.71983 0.24953 0.57810
 H1917 H 0.68688 0.23257 0.65910
 H1918 H 0.74068 0.23285 0.58747
 H1919 H 0.72190 0.21513 0.66920
 H1920 H 0.70790 0.25603 0.58157
 C1921 C 0.71978 0.71194 0.15376
 C1922 C 0.71059 0.72116 0.14075
 C1923 C 0.71741 0.72369 0.12307
 N1924 N 0.70772 0.73236 0.11081
 N1925 N 0.71327 0.73403 0.09453
 C1926 C 0.72868 0.72700 0.08986
 N1927 N 0.73841 0.71835 0.10213
 N1928 N 0.73287 0.71672 0.11844
 C1929 C 0.73467 0.72848 0.07178
 C1930 C 0.72519 0.73798 0.05921
 H1931 H 0.69753 0.72558 0.14302
 H1932 H 0.74666 0.72209 0.06834
 H1933 H 0.73264 0.70720 0.15085
 H1934 H 0.71339 0.74461 0.06289
 C1935 C 0.55178 0.68459 0.10152
 C1936 C 0.55369 0.70131 0.10874
 C1937 C 0.54715 0.70572 0.12599
 N1938 N 0.55145 0.72156 0.13273
 N1939 N 0.54616 0.72577 0.14849
 C1940 C 0.53630 0.71433 0.15813
 N1941 N 0.53187 0.69852 0.15134
 N1942 N 0.53724 0.69426 0.13558
 C1943 C 0.53056 0.71885 0.17566
 C1944 C 0.53714 0.73353 0.18411
 H1945 H 0.56057 0.71172 0.10173
 H1946 H 0.52136 0.71017 0.18222
 H1947 H 0.54387 0.67471 0.10819
 H1948 H 0.54693 0.74167 0.17780
 C1949 C 0.04701 0.70696 0.59025
 C1950 C 0.05146 0.72345 0.59675
 C1951 C 0.04479 0.72950 0.61340
 N1952 N 0.05027 0.74514 0.61973
 N1953 N 0.04476 0.75052 0.63504
 C1954 C 0.03353 0.74045 0.64460
 N1955 N 0.02796 0.72486 0.63822
 N1956 N 0.03349 0.71948 0.62292
 C1957 C 0.02775 0.74582 0.66179
 C1958 C 0.03419 0.76086 0.66970
 H1959 H 0.06015 0.73223 0.58969
 H1960 H 0.01869 0.73725 0.66869
 H1961 H 0.03757 0.69894 0.59725
 H1962 H 0.04342 0.76931 0.66290
 C1963 C 0.53514 0.58893 0.19944
 C1964 C 0.53918 0.59760 0.21461
 C1965 C 0.53357 0.61593 0.21752
 N1966 N 0.53898 0.62417 0.23191
 N1967 N 0.53479 0.64106 0.23439
 C1968 C 0.52502 0.65037 0.22258
 N1969 N 0.51942 0.64208 0.20825
 N1970 N 0.52365 0.62516 0.20575
 C1971 C 0.52093 0.66923 0.22503
 C1972 C 0.52844 0.67833 0.23854
 H1973 H 0.54709 0.59115 0.22453
 H1974 H 0.51236 0.67609 0.21592
 H1975 H 0.52632 0.59535 0.19026
 H1976 H 0.53730 0.67136 0.24729
 C1977 C 0.04796 0.61631 0.68649
 C1978 C 0.05617 0.62716 0.69833
 C1979 C 0.04891 0.64455 0.70292
 N1980 N 0.05719 0.65467 0.71457
 N1981 N 0.05105 0.67063 0.71845
 C1982 C 0.03641 0.67710 0.71079
 N1983 N 0.02811 0.66697 0.69917
 N1984 N 0.03423 0.65101 0.69531
 C1985 C 0.02974 0.69495 0.71453
 C1986 C 0.03746 0.70559 0.72682
 H1987 H 0.06850 0.62339 0.70392
 H1988 H 0.01867 0.69991 0.70722
 H1989 H 0.03578 0.62086 0.68098
 H1990 H 0.04835 0.70044 0.73429
 C1991 C 0.06674 0.13150 0.06697
 C1992 C 0.07213 0.12235 0.05244
 C1993 C 0.06318 0.10601 0.04712
 N1994 N 0.06837 0.09739 0.03282
 N1995 N 0.06039 0.08260 0.02805
 C1996 C 0.04689 0.07588 0.03738
 N1997 N 0.04171 0.08451 0.05164
 N1998 N 0.04968 0.09926 0.05640
 C1999 C 0.03812 0.05929 0.03262
 C2000 C 0.04306 0.04954 0.01836
 H2001 H 0.08284 0.12719 0.04469
 H2002 H 0.02791 0.05429 0.04101
 H2003 H 0.05566 0.12629 0.07398
 H2004 H 0.05341 0.05450 0.01013
 C2005 C 0.04324 0.66172 0.54522
 C2006 C 0.04987 0.65020 0.53303
 C2007 C 0.04069 0.63391 0.52831
 N2008 N 0.04748 0.62316 0.51627
 N2009 N 0.03964 0.60806 0.51235
 C2010 C 0.02472 0.60312 0.52036
 N2011 N 0.01791 0.61390 0.53236
 N2012 N 0.02573 0.62902 0.53624
 C2013 C 0.01629 0.58612 0.51678
 C2014 C 0.02238 0.57479 0.50420
 H2015 H 0.06236 0.65254 0.52722
 H2016 H 0.00524 0.58224 0.52459
 H2017 H 0.03078 0.65862 0.55088
 H2018 H 0.03316 0.57888 0.49611
 C2019 C 0.53305 0.16365 0.52971
 C2020 C 0.52328 0.15125 0.53920
 C2021 C 0.51855 0.13406 0.53190
 N2022 N 0.51032 0.12158 0.54188
 N2023 N 0.50701 0.10558 0.53576
 C2024 C 0.51185 0.10143 0.51945
 N2025 N 0.51995 0.11395 0.50943
 N2026 N 0.52324 0.12995 0.51554
 C2027 C 0.50898 0.08356 0.51279
 C2028 C 0.50080 0.07031 0.52271
 H2029 H 0.52038 0.15336 0.55269
 H2030 H 0.51367 0.08070 0.49997
 H2031 H 0.53631 0.16081 0.51643
 H2032 H 0.49592 0.07333 0.53543
 C2033 C 0.55638 0.64436 0.05051
 C2034 C 0.54036 0.63600 0.05227
 C2035 C 0.53570 0.62038 0.04211
 N2036 N 0.52021 0.61235 0.04464
 N2037 N 0.51600 0.59795 0.03592
 C2038 C 0.52710 0.59105 0.02428
 N2039 N 0.54254 0.59917 0.02163
 N2040 N 0.54676 0.61355 0.03037
 C2041 C 0.52304 0.57448 0.01532
 C2042 C 0.50837 0.56450 0.01942
 H2043 H 0.53086 0.64092 0.06119
 H2044 H 0.53250 0.56928 0.00648
 H2045 H 0.56524 0.63944 0.04093
 H2046 H 0.49931 0.56951 0.02877
 C2047 C 0.68172 0.10473 0.55541
 C2048 C 0.69555 0.11503 0.56112
 C2049 C 0.70049 0.13194 0.55218
 N2050 N 0.71395 0.14149 0.55822
 N2051 N 0.71842 0.15689 0.55048
 C2052 C 0.70961 0.16336 0.53638
 N2053 N 0.69617 0.15380 0.53030
 N2054 N 0.69170 0.13840 0.53805
 C2055 C 0.71413 0.18061 0.52790
 C2056 C 0.72748 0.19120 0.53397
 H2057 H 0.70312 0.11099 0.57234
 H2058 H 0.70643 0.18529 0.51692
 H2059 H 0.67499 0.10956 0.54384
 H2060 H 0.73504 0.18650 0.54504
 C2061 C 0.69946 0.58448 0.03962
 C2062 C 0.70811 0.59836 0.04749
 C2063 C 0.71161 0.61532 0.03791
 N2064 N 0.72063 0.62836 0.04560
 N2065 N 0.72344 0.64388 0.03723
 C2066 C 0.71727 0.64699 0.02089
 N2067 N 0.70821 0.63397 0.01323
 N2068 N 0.70546 0.61844 0.02157
 C2069 C 0.72010 0.66420 0.01158
 C2070 C 0.73085 0.67714 0.01828
 H2071 H 0.71176 0.59723 0.06103
 H2072 H 0.71383 0.66661 -0.00084
 H2073 H 0.69588 0.58634 0.02609
 H2074 H 0.73746 0.67433 0.03046
 C2075 C 0.21972 0.67282 0.71139
 C2076 C 0.21404 0.66440 0.72672
 C2077 C 0.21904 0.64604 0.73147
 N2078 N 0.21077 0.63728 0.74463
 N2079 N 0.21409 0.62018 0.74822
 C2080 C 0.22583 0.61123 0.73877
 N2081 N 0.23431 0.62006 0.72579
 N2082 N 0.23093 0.63714 0.72215
 C2083 C 0.22905 0.59218 0.74203
 C2084 C 0.21899 0.58200 0.75351
 H2085 H 0.20463 0.67058 0.73488
 H2086 H 0.23922 0.58593 0.73476
 H2087 H 0.22973 0.66636 0.70406
 H2088 H 0.20868 0.58823 0.76061
 C2089 C 0.17154 0.11843 0.17722
 C2090 C 0.18871 0.11328 0.17896
 C2091 C 0.19374 0.09765 0.18965
 N2092 N 0.21058 0.09508 0.19378
 N2093 N 0.21532 0.08158 0.20431
 C2094 C 0.20340 0.07021 0.21118
 N2095 N 0.18654 0.07271 0.20699
 N2096 N 0.18178 0.08626 0.19648
 C2097 C 0.20869 0.05480 0.22210
 C2098 C 0.22606 0.05130 0.22522
 H2099 H 0.19885 0.12214 0.17440
 H2100 H 0.19901 0.04514 0.22608
 H2101 H 0.16156 0.10998 0.18282
 H2102 H 0.23570 0.06071 0.22060
 C2103 C 0.70477 1.17834 0.72244
 C2104 C 0.71895 1.16781 0.71823
 C2105 C 0.72150 1.14994 0.72608
 N2106 N 0.73441 1.13951 0.72027
 N2107 N 0.73615 1.12280 0.72624
 C2108 C 0.72503 1.11588 0.73824
 N2109 N 0.71225 1.12638 0.74423
 N2110 N 0.71049 1.14309 0.73823
 C2111 C 0.72631 1.09716 0.74417
 C2112 C 0.73812 1.08567 0.73680
 H2113 H 0.72792 1.17188 0.70820
 H2114 H 0.71743 1.09223 0.75401
 H2115 H 0.69691 1.17381 0.73332
 H2116 H 0.74685 1.09071 0.72688
 C2117 C 0.71855 0.66676 0.20148
 C2118 C 0.70822 0.65427 0.21022
 C2119 C 0.71417 0.63607 0.21432
 N2120 N 0.70312 0.62418 0.22177
 N2121 N 0.70797 0.60740 0.22488
 C2122 C 0.72406 0.60185 0.22059
 N2123 N 0.73515 0.61375 0.21320
 N2124 N 0.73029 0.63056 0.21009
 C2125 C 0.72947 0.58329 0.22383
 C2126 C 0.71849 0.57089 0.23177
 H2127 H 0.69487 0.65731 0.21295
 H2128 H 0.74240 0.57942 0.22016
 H2129 H 0.73161 0.66308 0.19808
 H2130 H 0.70569 0.57494 0.23569
 C2131 C 0.53830 0.09322 0.70058
 C2132 C 0.54655 0.10691 0.70912
 C2133 C 0.53739 0.12355 0.71296
 N2134 N 0.54580 0.13679 0.72097
 N2135 N 0.53797 0.15229 0.72353
 C2136 C 0.52145 0.15517 0.71811
 N2137 N 0.51301 0.14189 0.71019
 N2138 N 0.52082 0.12638 0.70768
 C2139 C 0.51298 0.17257 0.72002
 C2140 C 0.52100 0.18625 0.72870
 H2141 H 0.56024 0.10615 0.71183
 H2142 H 0.50042 0.17477 0.71410
 H2143 H 0.52465 0.09468 0.69776
 H2144 H 0.53336 0.18375 0.73494
 C2145 C 1.05720 0.09921 0.19272
 C2146 C 1.06049 0.10742 0.20838
 C2147 C 1.05218 0.12447 0.21263
 N2148 N 1.05555 0.13205 0.22800
 N2149 N 1.04827 0.14751 0.23188
 C2150 C 1.03730 0.15598 0.22054
 N2151 N 1.03390 0.14837 0.20519
 N2152 N 1.04119 0.13292 0.20132
 C2153 C 1.02959 0.17341 0.22436
 C2154 C 1.03352 0.18228 0.23947
 H2155 H 1.06906 0.10127 0.21791
 H2156 H 1.02136 0.17978 0.21462
 H2157 H 1.04802 0.10555 0.18386
 H2158 H 1.04203 0.17596 0.24900
 C2159 C 0.19489 0.57490 0.55094
 C2160 C 0.20442 0.58790 0.55924
 C2161 C 0.21052 0.60407 0.54994
 N2162 N 0.21980 0.61634 0.55848
 N2163 N 0.22500 0.63126 0.55033
 C2164 C 0.22106 0.63447 0.53335
 N2165 N 0.21180 0.62219 0.52481
 N2166 N 0.20664 0.60727 0.53295
 C2167 C 0.22627 0.65101 0.52419
 C2168 C 0.23632 0.66393 0.53194
 H2169 H 0.20688 0.58677 0.57303
 H2170 H 0.22195 0.65309 0.51091
 H2171 H 0.19205 0.57684 0.53725
 H2172 H 0.24097 0.66173 0.54509
 C2173 C 0.21141 0.08542 1.03360
 C2174 C 0.22654 0.09465 1.03679
 C2175 C 0.22958 0.11235 1.02893
 N2176 N 0.24424 0.12117 1.03275
 N2177 N 0.24670 0.13768 1.02661
 C2178 C 0.23460 0.14600 1.01644
 N2179 N 0.21999 0.13712 1.01248
 N2180 N 0.21753 0.12057 1.01862
 C2181 C 0.23674 0.16468 1.01080
 C2182 C 0.25088 0.17425 1.01644
 H2183 H 0.23619 0.08915 1.04561
 H2184 H 0.22656 0.17126 1.00337
 H2185 H 0.20258 0.09067 1.02377
 H2186 H 0.26078 0.16755 1.02417
 C2187 C 0.21758 0.71514 0.66131
 C2188 C 0.20772 0.72170 0.64734
 C2189 C 0.21491 0.72303 0.62967
 N2190 N 0.20495 0.72897 0.61617
 N2191 N 0.21110 0.72930 0.60003
 C2192 C 0.22741 0.72361 0.59681
 N2193 N 0.23736 0.71774 0.61031
 N2194 N 0.23124 0.71747 0.62642
 C2195 C 0.23432 0.72329 0.57908
 C2196 C 0.22536 0.73026 0.56470
 H2197 H 0.19415 0.72457 0.64898
 H2198 H 0.24699 0.71750 0.57737
 H2199 H 0.23100 0.71185 0.65906
 H2200 H 0.21296 0.73665 0.56645
 C2201 C 0.18084 0.17573 1.14279
 C2202 C 0.19686 0.17159 1.13569
 C2203 C 0.20502 0.18344 1.12258
 N2204 N 0.22042 0.17905 1.11550
 N2205 N 0.22771 0.18965 1.10345
 C2206 C 0.21987 0.20507 1.09812
 N2207 N 0.20455 0.20947 1.10526
 N2208 N 0.19726 0.19888 1.11726
 C2209 C 0.22707 0.21664 1.08430
 C2210 C 0.24200 0.21257 1.07517
 H2211 H 0.20379 0.15973 1.13995
 H2212 H 0.21960 0.22833 1.08049
 H2213 H 0.17466 0.18814 1.13876
 H2214 H 0.24962 0.20098 1.07895
 C2215 C 0.69804 0.53830 0.08991
 C2216 C 0.71109 0.54464 0.10057
 C2217 C 0.71461 0.53589 0.11768
 N2218 N 0.72730 0.54200 0.12807
 N2219 N 0.73023 0.53432 0.14364
 C2220 C 0.72061 0.52024 0.14940
 N2221 N 0.70797 0.51412 0.13900
 N2222 N 0.70505 0.52177 0.12345
 C2223 C 0.72313 0.51210 0.16689
 C2224 C 0.73537 0.51850 0.17835
 H2225 H 0.71872 0.55605 0.09660
 H2226 H 0.71453 0.50151 0.17113
 H2227 H 0.69102 0.52667 0.09456
 H2228 H 0.74378 0.52925 0.17404
 C2229 C 0.68286 1.05686 0.60271
 C2230 C 0.69852 1.06084 0.61074
 C2231 C 0.70382 1.05187 0.62727
 N2232 N 0.71903 1.05608 0.63489
 N2233 N 0.72378 1.04825 0.64994
 C2234 C 0.71350 1.03588 0.65791
 N2235 N 0.69834 1.03163 0.65025
 N2236 N 0.69360 1.03945 0.63524
 C2237 C 0.71813 1.02756 0.67489
 C2238 C 0.73301 1.03207 0.68397
 H2239 H 0.70723 1.07049 0.60490
 H2240 H 0.70904 1.01828 0.68079
 H2241 H 0.67489 1.04661 0.60875
 H2242 H 0.74197 1.04152 0.67814
 C2243 C 0.53882 0.21113 0.57475
 C2244 C 0.52781 0.20389 0.58738
 C2245 C 0.52447 0.21299 0.60372
 N2246 N 0.51441 0.20511 0.61610
 N2247 N 0.51180 0.21286 0.63116
 C2248 C 0.51917 0.22879 0.63446
 N2249 N 0.52916 0.23672 0.62205
 N2250 N 0.53177 0.22896 0.60699
 C2251 C 0.51671 0.23729 0.65126
 C2252 C 0.50660 0.22947 0.66430
 H2253 H 0.52229 0.19084 0.58587
 H2254 H 0.52314 0.24979 0.65344
 H2255 H 0.54466 0.22392 0.57704
 H2256 H 0.50019 0.21699 0.66194
 C2257 C 1.06235 0.17952 0.10785
 C2258 C 1.06637 0.19554 0.11569
 C2259 C 1.05672 0.20212 0.13061
 N2260 N 1.06113 0.21794 0.13732
 N2261 N 1.05306 0.22390 0.15120
 C2262 C 1.04026 0.21427 0.15895
 N2263 N 1.03577 0.19848 0.15220
 N2264 N 1.04384 0.19251 0.13828
 C2265 C 1.03189 0.22036 0.17484
 C2266 C 1.03706 0.23594 0.18268
 H2267 H 1.07681 0.20383 0.11101
 H2268 H 1.02222 0.21193 0.18098
 H2269 H 1.05093 0.17253 0.11242
 H2270 H 1.04691 0.24416 0.17655
 C2271 C 0.66035 0.22390 0.71473
 C2272 C 0.64816 0.23148 0.70336
 C2273 C 0.63030 0.23486 0.70881
 N2274 N 0.61861 0.24146 0.69715
 N2275 N 0.60217 0.24366 0.70165
 C2276 C 0.59680 0.23925 0.71798
 N2277 N 0.60850 0.23272 0.72966
 N2278 N 0.62494 0.23056 0.72517
 C2279 C 0.57863 0.24109 0.72305
 C2280 C 0.56622 0.24844 0.71183
 H2281 H 0.65121 0.23364 0.68978
 H2282 H 0.57498 0.23660 0.73601
 H2283 H 0.65669 0.22126 0.72811
 H2284 H 0.56998 0.25340 0.69906
 C2285 C 1.13864 0.17176 0.19154
 C2286 C 1.13981 0.18952 0.19597
 C2287 C 1.12826 0.19704 0.20886
 N2288 N 1.12763 0.21488 0.21075
 N2289 N 1.11656 0.22191 0.22180
 C2290 C 1.10589 0.21131 0.23150
 N2291 N 1.10684 0.19345 0.22992
 N2292 N 1.11783 0.18643 0.21880
 C2293 C 1.09209 0.21889 0.24193
 C2294 C 1.08649 0.23627 0.23876
 H2295 H 1.14938 0.19817 0.19000
 H2296 H 1.08426 0.20981 0.24973
 H2297 H 1.12930 0.16326 0.19814
 H2298 H 1.09388 0.24505 0.23022
 C2299 C 0.09292 0.70561 0.54473
 C2300 C 0.10424 0.69583 0.53466
 C2301 C 0.12132 0.70265 0.52945
 N2302 N 0.13210 0.69230 0.52027
 N2303 N 0.14783 0.69800 0.51596
 C2304 C 0.15338 0.71427 0.52069
 N2305 N 0.14257 0.72467 0.52978
 N2306 N 0.12683 0.71897 0.53409
 C2307 C 0.17095 0.72049 0.51652
 C2308 C 0.18264 0.71005 0.50761
 H2309 H 0.10105 0.68242 0.53120
 H2310 H 0.17487 0.73339 0.52098
 H2311 H 0.09688 0.71867 0.54870
 H2312 H 0.17862 0.69718 0.50314
 C2313 C 0.11425 0.17830 1.07076
 C2314 C 0.12258 0.17682 1.05483
 C2315 C 0.13861 0.18688 1.05093
 N2316 N 0.14606 0.18620 1.03504
 N2317 N 0.16027 0.19558 1.03137
 C2318 C 0.16757 0.20604 1.04344
 N2319 N 0.16015 0.20667 1.05931
 N2320 N 0.14597 0.19731 1.06297
 C2321 C 0.18332 0.21655 1.03972
 C2322 C 0.19189 0.21608 1.02386
 H2323 H 0.11692 0.16896 1.04478
 H2324 H 0.18852 0.22452 1.04995
 H2325 H 0.12005 0.18685 1.08020
 H2326 H 0.18685 0.20778 1.01380
 C2327 C 0.58115 0.54227 0.20541
 C2328 C 0.59309 0.53102 0.19776
 C2329 C 0.60993 0.52696 0.20598
 N2330 N 0.62171 0.51685 0.19776
 N2331 N 0.63720 0.51365 0.20482
 C2332 C 0.64146 0.52047 0.22036
 N2333 N 0.62965 0.53050 0.22859
 N2334 N 0.61419 0.53367 0.22155
 C2335 C 0.65863 0.51765 0.22821
 C2336 C 0.67148 0.50745 0.22066
 H2337 H 0.59062 0.52583 0.18508
 H2338 H 0.66127 0.52409 0.24030
 H2339 H 0.58442 0.54784 0.21777
 H2340 H 0.66879 0.50070 0.20875
 C2341 C 0.58886 1.05019 0.69533
 C2342 C 0.59963 1.05704 0.70802
 C2343 C 0.61680 1.04935 0.71192
 N2344 N 0.62691 1.05668 0.72416
 N2345 N 0.64254 1.05006 0.72770
 C2346 C 0.64870 1.03588 0.71915
 N2347 N 0.63859 1.02851 0.70692
 N2348 N 0.62293 1.03513 0.70337
 C2349 C 0.66606 1.02859 0.72299
 C2350 C 0.67656 1.03599 0.73554
 H2351 H 0.59577 1.06848 0.71516
 H2352 H 0.67060 1.01731 0.71590
 H2353 H 0.59349 1.03882 0.68842
 H2354 H 0.67182 1.04727 0.74253
 C2355 C 0.88825 0.43774 0.30706
 C2356 C 0.87978 0.45303 0.31234
 C2357 C 0.86270 0.45780 0.30519
 N2358 N 0.85476 0.47314 0.30954
 N2359 N 0.83954 0.47769 0.30255
 C2360 C 0.83178 0.46704 0.29096
 N2361 N 0.83968 0.45171 0.28671
 N2362 N 0.85482 0.44718 0.29369
 C2363 C 0.81534 0.47177 0.28259
 C2364 C 0.80564 0.48670 0.28658
 H2365 H 0.88595 0.46206 0.32105
 H2366 H 0.81063 0.46285 0.27289
 H2367 H 0.88187 0.42945 0.29777
 H2368 H 0.80979 0.49530 0.29678
 C2369 C 0.87794 0.92910 0.82870
 C2370 C 0.87253 0.94675 0.82733
 C2371 C 0.85731 0.95209 0.81691
 N2372 N 0.85362 0.96959 0.81428
 N2373 N 0.84051 0.97470 0.80407
 C2374 C 0.83065 0.96253 0.79599
 N2375 N 0.83429 0.94501 0.79867
 N2376 N 0.84741 0.93989 0.80890
 C2377 C 0.81593 0.96815 0.78495
 C2378 C 0.81121 0.98599 0.78333
 H2379 H 0.88066 0.95711 0.83233
 H2380 H 0.80802 0.95811 0.77909
 H2381 H 0.87004 0.91900 0.82290
 H2382 H 0.81876 0.99581 0.78996
 C2383 C 0.35572 0.30990 0.81238
 C2384 C 0.36006 0.30958 0.79486
 C2385 C 0.37549 0.29997 0.78900
 N2386 N 0.37924 0.29957 0.77185
 N2387 N 0.39325 0.29108 0.76643
 C2388 C 0.40402 0.28261 0.77795
 N2389 N 0.40023 0.28294 0.79509
 N2390 N 0.38623 0.29143 0.80050
 C2391 C 0.41999 0.27392 0.77222
 C2392 C 0.42507 0.27465 0.75491
 H2393 H 0.35189 0.31605 0.78516
 H2394 H 0.42850 0.26801 0.78199
 H2395 H 0.36380 0.30256 0.82162
 H2396 H 0.41669 0.28103 0.74530
 C2397 C 0.86619 0.30585 0.31645
 C2398 C 0.87403 0.30903 0.30035
 C2399 C 0.89021 0.30003 0.29548
 N2400 N 0.89748 0.30370 0.27979
 N2401 N 0.91216 0.29582 0.27527
 C2402 C 0.92013 0.28391 0.28627
 N2403 N 0.91283 0.28019 0.30194
 N2404 N 0.89816 0.28809 0.30646
 C2405 C 0.93661 0.27539 0.28165
 C2406 C 0.94522 0.27970 0.26622
 H2407 H 0.86826 0.31812 0.29086
 H2408 H 0.94245 0.26611 0.29097
 H2409 H 0.87214 0.29616 0.32530
 H2410 H 0.93954 0.28936 0.25715
 C2411 C 0.40277 0.80002 0.45029
 C2412 C 0.39667 0.78259 0.45150
 C2413 C 0.38055 0.77789 0.46058
 N2414 N 0.37513 0.76076 0.46117
 N2415 N 0.36022 0.75636 0.46868
 C2416 C 0.35016 0.76893 0.47593
 N2417 N 0.35565 0.78605 0.47548
 N2418 N 0.37057 0.79046 0.46795
 C2419 C 0.33314 0.76439 0.48325
 C2420 C 0.32643 0.74726 0.48242
 H2421 H 0.40380 0.77198 0.44562
 H2422 H 0.32526 0.77499 0.48819
 H2423 H 0.39605 0.81020 0.45728
 H2424 H 0.33431 0.73679 0.47721
 C2425 C 0.40530 0.29692 0.94111
 C2426 C 0.39666 0.30456 0.95493
 C2427 C 0.38144 0.29605 0.96302
 N2428 N 0.37268 0.30428 0.97574
 N2429 N 0.35846 0.29701 0.98259
 C2430 C 0.35253 0.28121 0.97695
 N2431 N 0.36136 0.27296 0.96435
 N2432 N 0.37554 0.28022 0.95753
 C2433 C 0.33633 0.27333 0.98333
 C2434 C 0.32617 0.28053 0.99630
 H2435 H 0.40038 0.31749 0.95939
 H2436 H 0.33191 0.26154 0.97693
 H2437 H 0.40063 0.28438 0.93643
 H2438 H 0.33072 0.29181 1.00339
 C2439 C 0.79388 0.44882 0.40376
 C2440 C 0.78984 0.46449 0.39462
 C2441 C 0.77961 0.46450 0.37857
 N2442 N 0.77288 0.47998 0.37214
 N2443 N 0.76348 0.48027 0.35768
 C2444 C 0.76041 0.46509 0.34909
 N2445 N 0.76716 0.44958 0.35552
 N2446 N 0.77651 0.44927 0.37006
 C2447 C 0.75125 0.46573 0.33233
 C2448 C 0.74488 0.48181 0.32560
 H2449 H 0.79309 0.47717 0.40004
 H2450 H 0.75158 0.45417 0.32430
 H2451 H 0.78924 0.43630 0.39899
 H2452 H 0.74515 0.49339 0.33359
 C2453 C 0.81416 0.95320 0.90014
 C2454 C 0.79701 0.95190 0.89473
 C2455 C 0.79021 0.96313 0.88030
 N2456 N 0.77415 0.96016 0.87396
 N2457 N 0.76820 0.96967 0.86034
 C2458 C 0.77807 0.98256 0.85264
 N2459 N 0.79401 0.98568 0.85913
 N2460 N 0.79998 0.97614 0.87270
 C2461 C 0.77231 0.99225 0.83683
 C2462 C 0.75721 0.98781 0.82814
 H2463 H 0.78835 0.94231 0.90068
 H2464 H 0.78098 1.00205 0.83108
 H2465 H 0.82213 0.96338 0.89397
 H2466 H 0.74864 0.97785 0.83379
 C2467 C 0.30180 0.76751 0.33605
 C2468 C 0.30970 0.75723 0.34922
 C2469 C 0.30001 0.75087 0.36458
 N2470 N 0.30831 0.74190 0.37768
 N2471 N 0.30004 0.73749 0.39232
 C2472 C 0.28318 0.74194 0.39439
 N2473 N 0.27484 0.75073 0.38121
 N2474 N 0.28309 0.75509 0.36657
 C2475 C 0.27431 0.73870 0.41100
 C2476 C 0.28223 0.72979 0.42500
 H2477 H 0.32353 0.75526 0.34931
 H2478 H 0.26159 0.74444 0.41253
 H2479 H 0.28796 0.76954 0.33664
 H2480 H 0.29468 0.72351 0.42331
 C2481 C 0.31541 0.31439 0.86117
 C2482 C 0.29961 0.31740 0.86926
 C2483 C 0.29577 0.30901 0.88635
 N2484 N 0.28041 0.31193 0.89422
 N2485 N 0.27684 0.30406 0.90953
 C2486 C 0.28849 0.29296 0.91748
 N2487 N 0.30381 0.29007 0.90962
 N2488 N 0.30738 0.29794 0.89437
 C2489 C 0.28492 0.28394 0.93426
 C2490 C 0.26994 0.28684 0.94372
 H2491 H 0.28969 0.32538 0.86291
 H2492 H 0.29465 0.27484 0.93942
 H2493 H 0.32474 0.30592 0.86792
 H2494 H 0.26034 0.29624 0.93883
 C2495 C 0.43917 0.30180 0.88664
 C2496 C 0.45435 0.30538 0.87745
 C2497 C 0.45719 0.29947 0.85973
 N2498 N 0.47160 0.30473 0.85107
 N2499 N 0.47453 0.29945 0.83503
 C2500 C 0.46316 0.28867 0.82709
 N2501 N 0.44875 0.28337 0.83575
 N2502 N 0.44577 0.28872 0.85178
 C2503 C 0.46646 0.28227 0.80964
 C2504 C 0.48018 0.28850 0.79948
 H2505 H 0.46478 0.31259 0.88329
 H2506 H 0.45786 0.27227 0.80470
 H2507 H 0.42934 0.29371 0.88076
 H2508 H 0.48829 0.29912 0.80399
 C2509 C 0.93875 0.30258 0.39532
 C2510 C 0.95538 0.30526 0.38886
 C2511 C 0.96143 0.29675 0.37307
 N2512 N 0.97741 0.30049 0.36684
 N2513 N 0.98297 0.29321 0.35236
 C2514 C 0.97278 0.28188 0.34359
 N2515 N 0.95683 0.27805 0.34987
 N2516 N 0.95125 0.28536 0.36434
 C2517 C 0.97860 0.27415 0.32733
 C2518 C 0.99405 0.27931 0.31948
 H2519 H 0.96437 0.31373 0.39542
 H2520 H 0.97020 0.26481 0.32104
 H2521 H 0.93041 0.29329 0.38889
 H2522 H 1.00213 0.28907 0.32555
 C2523 C 0.43694 0.39924 0.80472
 C2524 C 0.43407 0.39387 0.78771
 C2525 C 0.44441 0.37995 0.77956
 N2526 N 0.43946 0.37367 0.76400
 N2527 N 0.44831 0.36072 0.75663
 C2528 C 0.46254 0.35363 0.76453
 N2529 N 0.46758 0.36002 0.78002
 N2530 N 0.45868 0.37291 0.78742
 C2531 C 0.47216 0.33878 0.75713
 C2532 C 0.46631 0.32923 0.74300
 H2533 H 0.42375 0.39966 0.77996
 H2534 H 0.48361 0.33428 0.76409
 H2535 H 0.44787 0.39365 0.81181
 H2536 H 0.45457 0.33328 0.73629
 C2537 C 0.93926 0.40129 0.29461
 C2538 C 0.95676 0.39699 0.29464
 C2539 C 0.96346 0.38231 0.28447
 N2540 N 0.98012 0.37708 0.28643
 N2541 N 0.98606 0.36305 0.27819
 C2542 C 0.97557 0.35376 0.26763
 N2543 N 0.95898 0.35918 0.26542
 N2544 N 0.95303 0.37319 0.27370
 C2545 C 0.98154 0.33730 0.25979
 C2546 C 0.99706 0.32938 0.26491
 H2547 H 0.96578 0.40404 0.30263
 H2548 H 0.97281 0.33040 0.25132
 H2549 H 0.93078 0.39447 0.28583
 H2550 H 1.00539 0.33607 0.27391
 C2551 C 0.30052 0.89321 0.45008
 C2552 C 0.29292 0.87988 0.44043
 C2553 C 0.28906 0.86215 0.44814
 N2554 N 0.28125 0.84970 0.43849
 N2555 N 0.27796 0.83352 0.44524
 C2556 C 0.28243 0.82921 0.46190
 N2557 N 0.29025 0.84165 0.47153
 N2558 N 0.29349 0.85782 0.46479
 C2559 C 0.27911 0.81143 0.46965
 C2560 C 0.27002 0.79830 0.46110
 H2561 H 0.29021 0.88205 0.42677
 H2562 H 0.28381 0.80873 0.48271
 H2563 H 0.30360 0.89024 0.46358
 H2564 H 0.26492 0.80107 0.44821
 C2565 C 0.28524 0.41755 0.96839
 C2566 C 0.29047 0.40686 0.98255
 C2567 C 0.28188 0.38978 0.98659
 N2568 N 0.28723 0.37947 1.00032
 N2569 N 0.28024 0.36353 1.00344
 C2570 C 0.26764 0.35729 0.99297
 N2571 N 0.26217 0.36767 0.97934
 N2572 N 0.26915 0.38361 0.97622
 C2573 C 0.26088 0.33911 0.99541
 C2574 C 0.26715 0.32774 1.00855
 H2575 H 0.30124 0.41064 0.99057
 H2576 H 0.25195 0.33417 0.98588
 H2577 H 0.27377 0.41366 0.96139
 H2578 H 0.27613 0.33282 1.01797
 C2579 C 0.82055 0.35347 0.31067
 C2580 C 0.80379 0.36019 0.31238
 C2581 C 0.79774 0.37642 0.30281
 N2582 N 0.78120 0.38205 0.30468
 N2583 N 0.77553 0.39671 0.29628
 C2584 C 0.78617 0.40635 0.28564
 N2585 N 0.80271 0.40072 0.28375
 N2586 N 0.80838 0.38604 0.29216
 C2587 C 0.78014 0.42285 0.27651
 C2588 C 0.76339 0.42942 0.27848
 H2589 H 0.79460 0.35329 0.32068
 H2590 H 0.78927 0.43026 0.26852
 H2591 H 0.82912 0.36022 0.30157
 H2592 H 0.75445 0.42206 0.28673
   
