data_POSCAR
  _audit_creation_date              2014-09-24
  _audit_creation_method            'ToBaCCo'
  _symmetry_space_group_name_H-M    'P1'
  _symmetry_Int_Tables_number       1
  _symmetry_cell_setting            triclinic
  loop_
  _symmetry_equiv_pos_as_xyz
 x,y,z
_cell_length_a 57.9296
_cell_length_b 60.0866
_cell_length_c 60.1211
_cell_angle_alpha 89.951700
_cell_angle_beta 89.984700
_cell_angle_gamma 89.978000
loop_
  _atom_site_label
  _atom_site_type_symbol
  _atom_site_fract_x
  _atom_site_fract_y
  _atom_site_fract_z
C1 C 0.31121 0.31406 -0.01152
 C2 C 0.31141 0.31363 0.01118
 C3 C 0.29616 0.32829 0.02472
 C4 C 0.32783 0.29929 0.02366
 C5 C 0.32598 0.29893 -0.02502
 C6 C 0.29708 0.33043 -0.02411
 C7 C 0.30585 0.34155 0.04149
 C8 C 0.29209 0.35614 0.05376
 C9 C 0.26828 0.35788 0.04952
 C10 C 0.25846 0.34408 0.03315
 C11 C 0.27223 0.32929 0.02102
 C12 C 0.35172 0.30092 0.02008
 C13 C 0.36699 0.28736 0.03192
 C14 C 0.35868 0.27214 0.04778
 C15 C 0.33477 0.27084 0.05161
 C16 C 0.31950 0.28435 0.03969
 C17 C 0.32543 0.27583 -0.02205
 C18 C 0.34004 0.26196 -0.03436
 C19 C 0.35568 0.27074 -0.05035
 C20 C 0.35526 0.29417 -0.05352
 C21 C 0.34072 0.30789 -0.04110
 C22 C 0.28175 0.32297 -0.04054
 C23 C 0.26857 0.33816 -0.05271
 C24 C 0.27056 0.36113 -0.04875
 C25 C 0.28613 0.36859 -0.03244
 C26 C 0.29940 0.35338 -0.02035
 H27 H 0.32421 0.34091 0.04483
 H28 H 0.30016 0.36606 0.06661
 H29 H 0.24022 0.34503 0.02937
 H30 H 0.26427 0.31887 0.00850
 H31 H 0.35853 0.31276 0.00818
 H32 H 0.38534 0.28904 0.02892
 H33 H 0.30114 0.28298 0.04279
 H34 H 0.31392 0.26851 -0.00988
 H35 H 0.33954 0.24451 -0.03014
 H36 H 0.36531 0.30236 -0.06623
 H37 H 0.34112 0.32569 -0.04398
 H38 H 0.27986 0.30533 -0.04378
 H39 H 0.25659 0.33192 -0.06504
 H40 H 0.28833 0.38620 -0.02931
 H41 H 0.31156 0.35951 -0.00813
 H42 H 0.32785 0.25916 0.06360
 C43 C 0.69171 0.68866 -0.01135
 C44 C 0.69130 0.68869 0.01134
 C45 C 0.70593 0.67335 0.02474
 C46 C 0.67506 0.70301 0.02398
 C47 C 0.67701 0.70395 -0.02478
 C48 C 0.70554 0.67213 -0.02394
 C49 C 0.69559 0.65991 0.04103
 C50 C 0.70876 0.64482 0.05327
 C51 C 0.73261 0.64272 0.04947
 C52 C 0.74309 0.65663 0.03356
 C53 C 0.72990 0.67193 0.02144
 C54 C 0.65114 0.70156 0.02051
 C55 C 0.63603 0.71497 0.03267
 C56 C 0.64454 0.72983 0.04876
 C57 C 0.66848 0.73097 0.05242
 C58 C 0.68358 0.71761 0.04019
 C59 C 0.67677 0.72702 -0.02095
 C60 C 0.66155 0.74080 -0.03269
 C61 C 0.64658 0.73181 -0.04879
 C62 C 0.64771 0.70886 -0.05327
 C63 C 0.66269 0.69512 -0.04138
 C64 C 0.72199 0.67939 -0.03943
 C65 C 0.73495 0.66397 -0.05153
 C66 C 0.73147 0.64101 -0.04853
 C67 C 0.71475 0.63380 -0.03317
 C68 C 0.70185 0.64923 -0.02104
 H69 H 0.67718 0.66086 0.04404
 H70 H 0.70021 0.63479 0.06577
 H71 H 0.76139 0.65539 0.03014
 H72 H 0.73834 0.68246 0.00929
 H73 H 0.64421 0.68998 0.00845
 H74 H 0.61765 0.71343 0.02978
 H75 H 0.70197 0.71881 0.04321
 H76 H 0.68803 0.73430 -0.00856
 H77 H 0.66112 0.75837 -0.02876
 H78 H 0.63692 0.70146 -0.06596
 H79 H 0.66272 0.67742 -0.04482
 H80 H 0.72486 0.69701 -0.04205
 H81 H 0.74745 0.67001 -0.06350
 H82 H 0.71179 0.61622 -0.03041
 H83 H 0.68893 0.64333 -0.00942
 H84 H 0.67554 0.74238 0.06457
 C85 C 0.69299 0.31074 1.00752
 C86 C 0.69216 0.31046 0.98485
 C87 C 0.70716 0.32507 0.97102
 C88 C 0.67515 0.29651 0.97276
 C89 C 0.67843 0.29570 1.02133
 C90 C 0.70711 0.32735 1.01967
 C91 C 0.69722 0.33834 0.95434
 C92 C 0.71086 0.35270 0.94167
 C93 C 0.73474 0.35413 0.94545
 C94 C 0.74479 0.34054 0.96183
 C95 C 0.73116 0.32594 0.97432
 C96 C 0.65138 0.29918 0.97644
 C97 C 0.63547 0.28606 0.96494
 C98 C 0.64306 0.27011 0.94947
 C99 C 0.66687 0.26766 0.94567
 C100 C 0.68276 0.28086 0.95711
 C101 C 0.67797 0.27261 1.01764
 C102 C 0.66299 0.25899 1.02981
 C103 C 0.64849 0.26814 1.04621
 C104 C 0.64980 0.29111 1.05052
 C105 C 0.66455 0.30471 1.03819
 C106 C 0.72403 0.32028 1.03469
 C107 C 0.73711 0.33578 1.04654
 C108 C 0.73326 0.35890 1.04402
 C109 C 0.71597 0.36574 1.02887
 C110 C 0.70312 0.35017 1.01689
 H111 H 0.67877 0.33793 0.95144
 H112 H 0.70265 0.36312 0.92927
 H113 H 0.76321 0.34111 0.96484
 H114 H 0.73932 0.31544 0.98668
 H115 H 0.64518 0.31143 0.98822
 H116 H 0.61725 0.28822 0.96829
 H117 H 0.70104 0.27876 0.95392
 H118 H 0.68891 0.26519 1.00506
 H119 H 0.66239 0.24140 1.02600
 H120 H 0.63935 0.29864 1.06341
 H121 H 0.66476 0.32242 1.04153
 H122 H 0.72709 0.30267 1.03726
 H123 H 0.74944 0.32938 1.05843
 H124 H 0.71270 0.38314 1.02552
 H125 H 0.68997 0.35593 1.00545
 H126 H 0.67317 0.25574 0.93361
 C127 C 0.31001 0.68726 1.01657
 C128 C 0.30928 0.68766 0.99387
 C129 C 0.29489 0.67170 0.98104
 C130 C 0.32395 0.70305 0.98058
 C131 C 0.32671 0.70104 1.02935
 C132 C 0.29497 0.67217 1.02978
 C133 C 0.29736 0.64863 0.98400
 C134 C 0.28411 0.63380 0.97149
 C135 C 0.26840 0.64173 0.95552
 C136 C 0.26619 0.66483 0.95239
 C137 C 0.27936 0.67965 0.96501
 C138 C 0.33806 0.69438 0.96372
 C139 C 0.35294 0.70823 0.95186
 C140 C 0.35416 0.73111 0.95663
 C141 C 0.33942 0.73993 0.97302
 C142 C 0.32431 0.72605 0.98475
 C143 C 0.31880 0.71480 1.04651
 C144 C 0.33423 0.72786 1.05868
 C145 C 0.35815 0.72756 1.05400
 C146 C 0.36592 0.71327 1.03686
 C147 C 0.35045 0.70004 1.02494
 C148 C 0.27096 0.67190 1.02690
 C149 C 0.25726 0.65680 1.03870
 C150 C 0.26719 0.64160 1.05396
 C151 C 0.29135 0.64274 1.05724
 C152 C 0.30494 0.65776 1.04535
 H153 H 0.30971 0.64213 0.99587
 H154 H 0.28649 0.61609 0.97397
 H155 H 0.25411 0.67143 0.94033
 H156 H 0.27735 0.69738 0.96235
 H157 H 0.33791 0.67673 0.96005
 H158 H 0.36358 0.70096 0.93896
 H159 H 0.31323 0.73318 0.99739
 H160 H 0.30053 0.71573 1.05025
 H161 H 0.32700 0.73889 1.07106
 H162 H 0.38407 0.71143 1.03311
 H163 H 0.35703 0.68892 1.01227
 H164 H 0.26284 0.68314 1.01517
 H165 H 0.23903 0.65657 1.03489
 H166 H 0.30003 0.63255 1.06948
 H167 H 0.32342 0.65794 1.04812
 H168 H 0.33994 0.75745 0.97715
 C169 C -0.01415 0.31254 0.31572
 C170 C 0.00940 0.31173 0.31530
 C171 C 0.02257 0.29780 0.33129
 C172 C 0.02326 0.32581 0.29992
 C173 C -0.02739 0.32868 0.30196
 C174 C -0.02788 0.29799 0.33076
 C175 C 0.02004 0.30082 0.35431
 C176 C 0.03278 0.28787 0.36922
 C177 C 0.04838 0.27175 0.36137
 C178 C 0.05102 0.26892 0.33830
 C179 C 0.03833 0.28194 0.32340
 C180 C 0.04096 0.33918 0.30854
 C181 C 0.05323 0.35359 0.29471
 C182 C 0.04803 0.35505 0.27191
 C183 C 0.03087 0.34101 0.26311
 C184 C 0.01876 0.32637 0.27696
 C185 C -0.04514 0.32109 0.28812
 C186 C -0.05766 0.33599 0.27498
 C187 C -0.05277 0.35905 0.27529
 C188 C -0.03508 0.36650 0.28968
 C189 C -0.02278 0.35155 0.30297
 C190 C -0.02494 0.27484 0.33087
 C191 C -0.03729 0.26153 0.34578
 C192 C -0.05324 0.27099 0.36093
 C193 C -0.05656 0.29431 0.35998
 C194 C -0.04408 0.30752 0.34515
 H195 H 0.00825 0.31325 0.36071
 H196 H 0.03028 0.29032 0.38690
 H197 H 0.06316 0.25687 0.33177
 H198 H 0.04068 0.27957 0.30569
 H199 H 0.04493 0.33887 0.32614
 H200 H 0.06675 0.36370 0.30194
 H201 H 0.00552 0.31584 0.26984
 H202 H -0.04902 0.30348 0.28717
 H203 H -0.07044 0.32904 0.26388
 H204 H -0.03116 0.38399 0.29154
 H205 H -0.00965 0.35786 0.31413
 H206 H -0.01275 0.26707 0.31962
 H207 H -0.03336 0.24395 0.34588
 H208 H -0.06929 0.30261 0.37015
 H209 H -0.04692 0.32534 0.34509
 H210 H 0.02637 0.34173 0.24565
 C211 C -0.01062 0.68653 0.68341
 C212 C 0.01293 0.68736 0.68354
 C213 C 0.02585 0.70125 0.66730
 C214 C 0.02700 0.67348 0.69894
 C215 C -0.02370 0.67044 0.69738
 C216 C -0.02456 0.70116 0.66862
 C217 C 0.02290 0.69821 0.64433
 C218 C 0.03524 0.71123 0.62918
 C219 C 0.05087 0.72746 0.63672
 C220 C 0.05397 0.73028 0.65974
 C221 C 0.04167 0.71719 0.67488
 C222 C 0.04473 0.66012 0.69032
 C223 C 0.05715 0.64586 0.70420
 C224 C 0.05206 0.64453 0.72704
 C225 C 0.03487 0.65857 0.73581
 C226 C 0.02263 0.67307 0.72193
 C227 C -0.04145 0.67806 0.71122
 C228 C -0.05393 0.66321 0.72444
 C229 C -0.04902 0.64015 0.72421
 C230 C -0.03127 0.63266 0.70988
 C231 C -0.01901 0.64757 0.69650
 C232 C -0.02170 0.72431 0.66872
 C233 C -0.03440 0.73775 0.65419
 C234 C -0.05060 0.72841 0.63923
 C235 C -0.05374 0.70506 0.63991
 C236 C -0.04094 0.69172 0.65437
 H237 H 0.01105 0.68572 0.63816
 H238 H 0.03238 0.70877 0.61155
 H239 H 0.06614 0.74241 0.66603
 H240 H 0.04435 0.71960 0.69255
 H241 H 0.04861 0.66032 0.67270
 H242 H 0.07068 0.63575 0.69697
 H243 H 0.00938 0.68360 0.72903
 H244 H -0.04538 0.69567 0.71209
 H245 H -0.06673 0.67019 0.73551
 H246 H -0.02731 0.61517 0.70811
 H247 H -0.00588 0.64122 0.68535
 H248 H -0.00937 0.73199 0.67986
 H249 H -0.03056 0.75534 0.65424
 H250 H -0.06661 0.69683 0.62983
 H251 H -0.04370 0.67389 0.65428
 H252 H 0.03044 0.65796 0.75329
 C253 C 1.00876 0.68310 0.31691
 C254 C 0.98524 0.68276 0.31750
 C255 C 0.97206 0.69840 0.33173
 C256 C 0.97154 0.66643 0.30455
 C257 C 1.02219 0.66826 0.30189
 C258 C 1.02223 0.69776 0.33198
 C259 C 0.95925 0.69017 0.34973
 C260 C 0.94792 0.70481 0.36409
 C261 C 0.94871 0.72784 0.36029
 C262 C 0.96091 0.73605 0.34185
 C263 C 0.97271 0.72142 0.32775
 C264 C 0.97551 0.64348 0.30671
 C265 C 0.96304 0.62833 0.29384
 C266 C 0.94615 0.63584 0.27881
 C267 C 0.94178 0.65880 0.27717
 C268 C 0.95432 0.67394 0.28998
 C269 C 1.01784 0.66753 0.27897
 C270 C 1.02991 0.65272 0.26529
 C271 C 1.04694 0.63829 0.27412
 C272 C 1.05164 0.63988 0.29717
 C273 C 1.03948 0.65461 0.31075
 C274 C 1.03869 0.71239 0.32322
 C275 C 1.05143 0.72627 0.33726
 C276 C 1.04798 0.72592 0.36055
 C277 C 1.03158 0.71076 0.36914
 C278 C 1.01913 0.69674 0.35507
 H279 H 0.95859 0.67245 0.35299
 H280 H 0.93846 0.69817 0.37816
 H281 H 0.96172 0.75378 0.33867
 H282 H 0.98245 0.72800 0.31385
 H283 H 0.98837 0.63733 0.31826
 H284 H 0.96648 0.61072 0.29577
 H285 H 0.95093 0.69158 0.28818
 H286 H 1.00477 0.67818 0.27170
 H287 H 1.02492 0.65211 0.24799
 H288 H 1.06522 0.63029 0.30493
 H289 H 1.04340 0.65517 0.32836
 H290 H 1.04141 0.71333 0.30542
 H291 H 1.06320 0.73790 0.32953
 H292 H 1.02890 0.70884 0.38683
 H293 H 1.00717 0.68490 0.36226
 H294 H 0.92902 0.66510 0.26561
 C295 C 1.01428 0.31523 0.68485
 C296 C 0.99071 0.31516 0.68518
 C297 C 0.97682 0.29990 0.67099
 C298 C 0.97755 0.33138 0.69879
 C299 C 1.02800 0.33001 0.69970
 C300 C 1.02752 0.30136 0.66886
 C301 C 0.95926 0.30869 0.65752
 C302 C 0.94667 0.29492 0.64334
 C303 C 0.95139 0.27198 0.64220
 C304 C 0.96852 0.26306 0.65621
 C305 C 0.98096 0.27686 0.67062
 C306 C 0.98052 0.35435 0.69571
 C307 C 0.96799 0.36949 0.70854
 C308 C 0.95219 0.36190 0.72459
 C309 C 0.94905 0.33888 0.72742
 C310 C 0.96153 0.32375 0.71452
 C311 C 1.02411 0.33059 0.72276
 C312 C 1.03629 0.34549 0.73623
 C313 C 1.05296 0.35981 0.72697
 C314 C 1.05745 0.35849 0.70401
 C315 C 1.04509 0.34380 0.69055
 C316 C 1.04488 0.28714 0.67661
 C317 C 1.05730 0.27382 0.66181
 C318 C 1.05266 0.27433 0.63872
 C319 C 1.03538 0.28913 0.63112
 C320 C 1.02321 0.30260 0.64596
 H321 H 0.95556 0.32637 0.65767
 H322 H 0.93320 0.30228 0.63325
 H323 H 0.97268 0.24551 0.65572
 H324 H 0.99408 0.26961 0.68122
 H325 H 0.99255 0.36053 0.68337
 H326 H 0.97086 0.38713 0.70610
 H327 H 0.95885 0.30607 0.71692
 H328 H 1.01139 0.31975 0.73029
 H329 H 1.03227 0.34611 0.75380
 H330 H 1.07056 0.36882 0.69639
 H331 H 1.04859 0.34348 0.67285
 H332 H 1.04852 0.28602 0.69425
 H333 H 1.06977 0.26242 0.66885
 H334 H 1.03172 0.29115 0.61360
 H335 H 1.01039 0.31405 0.63955
 H336 H 0.93673 0.33258 0.73942
 C337 C 0.31176 -0.00898 0.30903
 C338 C 0.31144 0.01372 0.30941
 C339 C 0.32595 0.02724 0.29404
 C340 C 0.29753 0.02620 0.32598
 C341 C 0.29680 -0.02264 0.32386
 C342 C 0.32832 -0.02135 0.29486
 C343 C 0.34021 0.04402 0.30269
 C344 C 0.35443 0.05647 0.28866
 C345 C 0.35473 0.05236 0.26566
 C346 C 0.34016 0.03585 0.25692
 C347 C 0.32569 0.02358 0.27095
 C348 C 0.30032 0.02239 0.34887
 C349 C 0.28714 0.03422 0.36431
 C350 C 0.27118 0.05034 0.35715
 C351 C 0.26873 0.05439 0.33424
 C352 C 0.28184 0.04247 0.31881
 C353 C 0.27286 -0.01908 0.32514
 C354 C 0.25937 -0.03135 0.34006
 C355 C 0.26950 -0.04771 0.35370
 C356 C 0.29332 -0.05179 0.35169
 C357 C 0.30679 -0.03938 0.33698
 C358 C 0.32020 -0.03646 0.27901
 C359 C 0.33566 -0.04847 0.26584
 C360 C 0.35978 -0.04602 0.26851
 C361 C 0.36768 -0.03082 0.28477
 C362 C 0.35214 -0.01866 0.29772
 H363 H 0.34066 0.04720 0.32042
 H364 H 0.36562 0.06897 0.29585
 H365 H 0.33983 0.03258 0.23921
 H366 H 0.31440 0.01114 0.26381
 H367 H 0.31276 0.01028 0.35476
 H368 H 0.28970 0.03104 0.38186
 H369 H 0.27959 0.04575 0.30122
 H370 H 0.26468 -0.00657 0.31483
 H371 H 0.24111 -0.02770 0.34123
 H372 H 0.30160 -0.06462 0.36150
 H373 H 0.32517 -0.04261 0.33615
 H374 H 0.30182 -0.03895 0.27685
 H375 H 0.32846 -0.06041 0.25433
 H376 H 0.38586 -0.02754 0.28713
 H377 H 0.35871 -0.00714 0.31004
 H378 H 0.25646 0.06659 0.32823
 C379 C 0.68613 -0.01336 0.68908
 C380 C 0.68697 0.00934 0.68952
 C381 C 0.67297 0.02280 0.70536
 C382 C 0.70111 0.02203 0.67327
 C383 C 0.70099 -0.02662 0.67378
 C384 C 0.66962 -0.02611 0.70310
 C385 C 0.65946 0.04044 0.69725
 C386 C 0.64581 0.05302 0.71166
 C387 C 0.64529 0.04820 0.73451
 C388 C 0.65905 0.03077 0.74274
 C389 C 0.67300 0.01836 0.72833
 C390 C 0.69749 0.01964 0.65031
 C391 C 0.71066 0.03189 0.63517
 C392 C 0.72757 0.04686 0.64273
 C393 C 0.73100 0.04934 0.66574
 C394 C 0.71778 0.03713 0.68087
 C395 C 0.72501 -0.02344 0.67295
 C396 C 0.73851 -0.03531 0.65774
 C397 C 0.72833 -0.05094 0.64333
 C398 C 0.70440 -0.05465 0.64484
 C399 C 0.69091 -0.04261 0.65985
 C400 C 0.67766 -0.04353 0.71649
 C401 C 0.66239 -0.05574 0.72970
 C402 C 0.63851 -0.05084 0.72993
 C403 C 0.63062 -0.03340 0.71606
 C404 C 0.64592 -0.02142 0.70268
 H405 H 0.65917 0.04424 0.67964
 H406 H 0.63522 0.06622 0.70484
 H407 H 0.65916 0.02690 0.76034
 H408 H 0.68369 0.00520 0.73507
 H409 H 0.68443 0.00833 0.64415
 H410 H 0.70773 0.02954 0.61754
 H411 H 0.72062 0.03935 0.69854
 H412 H 0.73327 -0.01155 0.68389
 H413 H 0.75684 -0.03192 0.65698
 H414 H 0.69604 -0.06693 0.63443
 H415 H 0.67247 -0.04554 0.66036
 H416 H 0.69590 -0.04746 0.71699
 H417 H 0.66973 -0.06835 0.74042
 H418 H 0.61247 -0.02944 0.71465
 H419 H 0.63923 -0.00851 0.69187
 H420 H 0.74366 0.06100 0.67204
 C421 C 0.31078 1.00867 0.68825
 C422 C 0.31070 0.98603 0.68715
 C423 C 0.32500 0.97247 0.70246
 C424 C 0.29725 0.97365 0.67019
 C425 C 0.29613 1.02267 0.67349
 C426 C 0.32683 1.02058 0.70336
 C427 C 0.34310 0.95960 0.69392
 C428 C 0.35723 0.94734 0.70818
 C429 C 0.35321 0.94725 0.73129
 C430 C 0.33468 0.95990 0.73971
 C431 C 0.32079 0.97250 0.72542
 C432 C 0.29999 0.97808 0.64741
 C433 C 0.28723 0.96621 0.63165
 C434 C 0.27178 0.94947 0.63838
 C435 C 0.26937 0.94485 0.66119
 C436 C 0.28204 0.95678 0.67692
 C437 C 0.27229 1.01894 0.67145
 C438 C 0.25912 1.03151 0.65650
 C439 C 0.26949 1.04831 0.64360
 C440 C 0.29318 1.05257 0.64640
 C441 C 0.30633 1.03988 0.66115
 C442 C 0.31817 1.03527 0.71943
 C443 C 0.33325 1.04703 0.73324
 C444 C 0.35727 1.04450 0.73099
 C445 C 0.36587 1.02979 0.71481
 C446 C 0.35079 1.01800 0.70107
 H447 H 0.34662 0.95952 0.67622
 H448 H 0.37158 0.93826 0.70108
 H449 H 0.33075 0.95995 0.75730
 H450 H 0.30671 0.98221 0.73223
 H451 H 0.31206 0.99066 0.64184
 H452 H 0.28974 0.96987 0.61418
 H453 H 0.27979 0.95303 0.69442
 H454 H 0.26394 1.00606 0.68115
 H455 H 0.24095 1.02773 0.65471
 H456 H 0.30161 1.06573 0.63716
 H457 H 0.32464 1.04324 0.66260
 H458 H 0.29972 1.03762 0.72123
 H459 H 0.32615 1.05848 0.74534
 H460 H 0.38428 1.02738 0.71280
 H461 H 0.35780 1.00704 0.68848
 H462 H 0.25745 0.93219 0.66689
 C463 C 0.68970 1.01422 0.31211
 C464 C 0.69012 0.99157 0.31133
 C465 C 0.67466 0.97902 0.29614
 C466 C 0.70501 0.97823 0.32646
 C467 C 0.70274 1.02696 0.32904
 C468 C 0.67520 1.02733 0.29662
 C469 C 0.65061 0.98159 0.29740
 C470 C 0.63614 0.96950 0.28331
 C471 C 0.64542 0.95434 0.26792
 C472 C 0.66951 0.95156 0.26692
 C473 C 0.68398 0.96376 0.28096
 C474 C 0.69514 0.96119 0.33927
 C475 C 0.70857 0.94911 0.35430
 C476 C 0.73219 0.95383 0.35691
 C477 C 0.74221 0.97048 0.34357
 C478 C 0.72878 0.98244 0.32837
 C479 C 0.71939 1.04242 0.32234
 C480 C 0.73211 1.05424 0.33812
 C481 C 0.72820 1.05123 0.36115
 C482 C 0.71093 1.03588 0.36762
 C483 C 0.69845 1.02390 0.35176
 C484 C 0.67973 1.02739 0.27369
 C485 C 0.66530 1.03913 0.25917
 C486 C 0.64597 1.05057 0.26742
 C487 C 0.64163 1.05065 0.29038
 C488 C 0.65633 1.03935 0.30491
 H489 H 0.64303 0.99278 0.30947
 H490 H 0.61764 0.97165 0.28479
 H491 H 0.67715 0.94009 0.25515
 H492 H 0.70249 0.96142 0.27991
 H493 H 0.67690 0.95749 0.33792
 H494 H 0.70041 0.93604 0.36389
 H495 H 0.73688 0.99518 0.31829
 H496 H 0.72269 1.04519 0.30482
 H497 H 0.74436 1.06637 0.33201
 H498 H 0.70756 1.03224 0.38493
 H499 H 0.68550 1.01208 0.35721
 H500 H 0.69430 1.01823 0.26709
 H501 H 0.66888 1.03888 0.24149
 H502 H 0.62689 1.05951 0.29704
 H503 H 0.65263 1.03944 0.32257
 H504 H 0.76032 0.97461 0.34521
 O505 O 0.87217 0.84081 0.47875
 O506 O 0.84005 0.87168 0.52183
 O507 O 0.87100 0.84026 0.52193
 O508 O 0.84114 0.87247 0.47836
 O509 O 0.81318 0.84756 0.47786
 O510 O 0.84365 0.81478 0.52036
 O511 O 0.81260 0.84626 0.52092
 O512 O 0.84397 0.81617 0.47701
 Cu513 Cu 0.85884 0.85887 0.50029
 Cu514 Cu 0.82561 0.82865 0.49896
 C515 C 0.86350 0.82323 0.47050
 C516 C 0.82083 0.86420 0.52878
 C517 C 0.86250 0.82190 0.52848
 C518 C 0.82194 0.86560 0.47078
 O519 O 0.16132 0.13023 0.52232
 O520 O 0.13087 0.16155 0.47857
 O521 O 0.16189 0.13006 0.47895
 O522 O 0.13068 0.16202 0.52174
 O523 O 0.15880 0.18677 0.52215
 O524 O 0.18930 0.15552 0.47862
 O525 O 0.15833 0.18698 0.47897
 O526 O 0.18937 0.15504 0.52185
 Cu527 Cu 0.14343 0.14341 0.50038
 Cu528 Cu 0.17674 0.17358 0.50039
 C529 C 0.18062 0.13721 0.52950
 C530 C 0.13924 0.17976 0.47146
 C531 C 0.18094 0.13738 0.47142
 C532 C 0.13942 0.17989 0.52925
 O533 O 0.13051 0.83848 0.51819
 O534 O 0.16038 0.87001 0.47412
 O535 O 0.12948 0.83846 0.47499
 O536 O 0.16157 0.86995 0.51745
 O537 O 0.18888 0.84436 0.51718
 O538 O 0.15745 0.81356 0.47389
 O539 O 0.18831 0.84505 0.47402
 O540 O 0.15785 0.81295 0.51712
 Cu541 Cu 0.14272 0.85677 0.49626
 Cu542 Cu 0.17589 0.82645 0.49550
 C543 C 0.13894 0.82018 0.52503
 C544 C 0.17957 0.86299 0.46666
 C545 C 0.13799 0.82061 0.46717
 C546 C 0.18073 0.86253 0.52460
 O547 O 0.86963 0.16124 0.52470
 O548 O 0.83795 0.13039 0.48140
 O549 O 0.86917 0.16157 0.48129
 O550 O 0.83829 0.13006 0.52469
 O551 O 0.81108 0.15574 0.52525
 O552 O 0.84160 0.18690 0.48158
 O553 O 0.81036 0.15571 0.48217
 O554 O 0.84241 0.18692 0.52475
 Cu555 Cu 0.85653 0.14327 0.50299
 Cu556 Cu 0.82364 0.17388 0.50349
 C557 C 0.86150 0.17946 0.53201
 C558 C 0.81863 0.13769 0.47451
 C559 C 0.86064 0.17965 0.47400
 C560 C 0.81932 0.13746 0.53230
 O561 O 0.47530 0.87099 0.84439
 O562 O 0.52128 0.84104 0.87455
 O563 O 0.51999 0.87114 0.84321
 O564 O 0.47613 0.84088 0.87579
 O565 O 0.47599 0.81418 0.85063
 O566 O 0.51920 0.84467 0.81781
 O567 O 0.52062 0.81464 0.84909
 O568 O 0.47423 0.84405 0.81947
 Cu569 Cu 0.49824 0.85865 0.86208
 Cu570 Cu 0.49748 0.82676 0.83169
 C571 C 0.46694 0.86260 0.82676
 C572 C 0.52877 0.82266 0.86697
 C573 C 0.52694 0.86316 0.82482
 C574 C 0.46864 0.82227 0.86881
 O575 O 0.47911 0.12929 0.15591
 O576 O 0.52521 0.15881 0.12550
 O577 O 0.52401 0.12783 0.15604
 O578 O 0.48025 0.16016 0.12544
 O579 O 0.48039 0.18545 0.15201
 O580 O 0.52578 0.15430 0.18142
 O581 O 0.52510 0.18509 0.15110
 O582 O 0.48079 0.15453 0.18248
 Cu583 Cu 0.50208 0.14142 0.13810
 Cu584 Cu 0.50307 0.17239 0.16939
 C585 C 0.47223 0.13677 0.17453
 C586 C 0.53281 0.17718 0.13297
 C587 C 0.53250 0.13565 0.17387
 C588 C 0.47278 0.17832 0.13353
 O589 O 0.47524 0.15873 0.87196
 O590 O 0.52111 0.12789 0.84257
 O591 O 0.52020 0.15934 0.87240
 O592 O 0.47608 0.12747 0.84174
 O593 O 0.47620 0.15299 0.81535
 O594 O 0.52019 0.18468 0.84584
 O595 O 0.52097 0.15324 0.81601
 O596 O 0.47543 0.18414 0.84547
 Cu597 Cu 0.49812 0.14079 0.85982
 Cu598 Cu 0.49820 0.17129 0.82802
 C599 C 0.46762 0.17683 0.86383
 C600 C 0.52883 0.13527 0.82420
 C601 C 0.52768 0.17753 0.86437
 C602 C 0.46868 0.13476 0.82321
 O603 O 0.47915 0.83958 0.13016
 O604 O 0.52406 0.87145 0.15959
 O605 O 0.52391 0.84015 0.12953
 O606 O 0.47912 0.87099 0.16013
 O607 O 0.48032 0.84592 0.18692
 O608 O 0.52429 0.81457 0.15586
 O609 O 0.52508 0.84579 0.18583
 O610 O 0.47943 0.81450 0.15698
 Cu611 Cu 0.50148 0.85811 0.14221
 Cu612 Cu 0.50232 0.82764 0.17405
 C613 C 0.47166 0.82153 0.13850
 C614 C 0.53226 0.86407 0.17776
 C615 C 0.53162 0.82196 0.13736
 C616 C 0.47224 0.86386 0.17888
 O617 O 0.87183 0.52291 0.83584
 O618 O 0.84149 0.47888 0.86691
 O619 O 0.87199 0.47975 0.83526
 O620 O 0.84101 0.52232 0.86765
 O621 O 0.81312 0.52245 0.84269
 O622 O 0.84418 0.48015 0.81020
 O623 O 0.81359 0.47923 0.84195
 O624 O 0.84381 0.52335 0.81100
 Cu625 Cu 0.85935 0.50100 0.85396
 Cu626 Cu 0.82587 0.50134 0.82397
 C627 C 0.86312 0.53052 0.81799
 C628 C 0.82236 0.47147 0.85970
 C629 C 0.86343 0.47274 0.81712
 C630 C 0.82169 0.52959 0.86076
 O631 O 0.15623 0.47693 0.13046
 O632 O 0.12475 0.51971 0.16244
 O633 O 0.15592 0.52039 0.13106
 O634 O 0.12513 0.47625 0.16178
 O635 O 0.15262 0.47630 0.18716
 O636 O 0.18336 0.52008 0.15648
 O637 O 0.15232 0.51946 0.18773
 O638 O 0.18374 0.47693 0.15582
 Cu639 Cu 0.13774 0.49835 0.14389
 Cu640 Cu 0.17075 0.49816 0.17433
 C641 C 0.17544 0.46968 0.13767
 C642 C 0.13315 0.52686 0.18062
 C643 C 0.17499 0.52772 0.13851
 C644 C 0.13361 0.46880 0.17981
 O645 O 0.86972 0.47650 0.16297
 O646 O 0.83994 0.52050 0.13134
 O647 O 0.86953 0.51963 0.16394
 O648 O 0.83986 0.47705 0.13042
 O649 O 0.81116 0.47674 0.15453
 O650 O 0.84096 0.51893 0.18819
 O651 O 0.81136 0.51986 0.15558
 O652 O 0.84097 0.47571 0.18703
 Cu653 Cu 0.85761 0.49846 0.14470
 Cu654 Cu 0.82325 0.49774 0.17375
 C655 C 0.86053 0.46870 0.18051
 C656 C 0.82052 0.52770 0.13804
 C657 C 0.86039 0.52645 0.18190
 C658 C 0.82033 0.46972 0.13668
 O659 O 0.12922 0.48053 0.83784
 O660 O 0.15951 0.52374 0.87005
 O661 O 0.12897 0.52406 0.83817
 O662 O 0.15990 0.48055 0.86958
 O663 O 0.18771 0.48096 0.84452
 O664 O 0.15686 0.52428 0.81319
 O665 O 0.18737 0.52421 0.84504
 O666 O 0.15706 0.48113 0.81281
 Cu667 Cu 0.14156 0.50218 0.85638
 Cu668 Cu 0.17504 0.50269 0.82640
 C669 C 0.13795 0.47347 0.81978
 C670 C 0.17871 0.53127 0.86313
 C671 C 0.13763 0.53157 0.82025
 C672 C 0.17918 0.47341 0.86247
 C673 C 0.22734 0.40522 0.08646
 C674 C 0.24996 0.41041 0.07988
 C675 C 0.26305 0.39518 0.06770
 C676 C 0.25395 0.37425 0.06199
 C677 C 0.23119 0.36914 0.06840
 C678 C 0.21799 0.38451 0.08043
 C679 C 0.21375 0.42133 0.09979
 C680 C 0.19064 0.42601 0.09446
 C681 C 0.17814 0.44171 0.10674
 C682 C 0.18843 0.45281 0.12477
 C683 C 0.21144 0.44785 0.13027
 C684 C 0.22399 0.43237 0.11785
 H685 H 0.28028 0.39992 0.06258
 H686 H 0.22371 0.35310 0.06454
 H687 H 0.16043 0.44514 0.10212
 H688 H 0.21988 0.45611 0.14405
 H689 H 0.20066 0.38002 0.08546
 H690 H 0.18239 0.41784 0.08052
 H691 H 0.25745 0.42640 0.08397
 H692 H 0.24170 0.42890 0.12248
 C693 C 0.77155 0.59413 0.08672
 C694 C 0.74912 0.58936 0.07932
 C695 C 0.73669 0.60500 0.06701
 C696 C 0.74630 0.62590 0.06197
 C697 C 0.76890 0.63056 0.06917
 C698 C 0.78143 0.61480 0.08134
 C699 C 0.78441 0.57758 0.10018
 C700 C 0.80762 0.57269 0.09550
 C701 C 0.81942 0.55653 0.10783
 C702 C 0.80831 0.54515 0.12524
 C703 C 0.78520 0.55034 0.13012
 C704 C 0.77336 0.56631 0.11767
 H705 H 0.71957 0.60062 0.06128
 H706 H 0.77673 0.64657 0.06581
 H707 H 0.83723 0.55293 0.10369
 H708 H 0.77614 0.54188 0.14343
 H709 H 0.79864 0.61894 0.08700
 H710 H 0.81649 0.58105 0.08201
 H711 H 0.74125 0.57340 0.08289
 H712 H 0.75555 0.56994 0.12179
 C713 C 0.77415 0.40234 0.90841
 C714 C 0.75851 0.38812 0.89754
 C715 C 0.74595 0.37229 0.90952
 C716 C 0.74892 0.37014 0.93260
 C717 C 0.76491 0.38393 0.94343
 C718 C 0.77732 0.39993 0.93149
 C719 C 0.78668 0.41990 0.89579
 C720 C 0.80961 0.42546 0.90113
 C721 C 0.82118 0.44223 0.88947
 C722 C 0.81017 0.45371 0.87208
 C723 C 0.78732 0.44808 0.86663
 C724 C 0.77569 0.43146 0.87841
 H725 H 0.73395 0.36164 0.90073
 H726 H 0.76731 0.38279 0.96126
 H727 H 0.83883 0.44609 0.89398
 H728 H 0.77830 0.45672 0.85342
 H729 H 0.78894 0.41080 0.94046
 H730 H 0.81872 0.41668 0.91419
 H731 H 0.75599 0.38917 0.87973
 H732 H 0.75792 0.42794 0.87411
 C733 C 0.22894 0.59566 0.91592
 C734 C 0.23901 0.61456 0.90614
 C735 C 0.25167 0.62957 0.91901
 C736 C 0.25463 0.62597 0.94193
 C737 C 0.24452 0.60711 0.95173
 C738 C 0.23176 0.59214 0.93888
 C739 C 0.21578 0.57953 0.90219
 C740 C 0.19505 0.57030 0.91009
 C741 C 0.18288 0.55484 0.89730
 C742 C 0.19122 0.54818 0.87638
 C743 C 0.21189 0.55752 0.86843
 C744 C 0.22400 0.57305 0.88118
 H745 H 0.25945 0.64385 0.91096
 H746 H 0.24634 0.60401 0.96940
 H747 H 0.16700 0.54798 0.90390
 H748 H 0.21881 0.55272 0.85240
 H749 H 0.22439 0.57762 0.94685
 H750 H 0.18816 0.57517 0.92610
 H751 H 0.23696 0.61781 0.88853
 H752 H 0.24006 0.57969 0.87477
 C753 C 0.08795 0.23205 0.40735
 C754 C 0.08491 0.25497 0.41098
 C755 C 0.07204 0.26782 0.39610
 C756 C 0.06201 0.25807 0.37719
 C757 C 0.06511 0.23517 0.37351
 C758 C 0.07789 0.22228 0.38846
 C759 C 0.10142 0.21839 0.42332
 C760 C 0.09354 0.19724 0.42981
 C761 C 0.10592 0.18461 0.44528
 C762 C 0.12651 0.19282 0.45453
 C763 C 0.13454 0.21385 0.44781
 C764 C 0.12211 0.22651 0.43241
 H765 H 0.07013 0.28547 0.39925
 H766 H 0.05741 0.22716 0.35919
 H767 H 0.09924 0.16849 0.45012
 H768 H 0.15036 0.22064 0.45459
 H769 H 0.08009 0.20470 0.38514
 H770 H 0.07754 0.19065 0.42326
 H771 H 0.09226 0.26291 0.42550
 H772 H 0.12876 0.24262 0.42751
 C773 C 0.08905 0.76753 0.58992
 C774 C 0.07935 0.77719 0.60905
 C775 C 0.06703 0.76419 0.62427
 C776 C 0.06402 0.74127 0.62062
 C777 C 0.07367 0.73162 0.60147
 C778 C 0.08609 0.74459 0.58632
 C779 C 0.10212 0.78129 0.57372
 C780 C 0.12264 0.77325 0.56418
 C781 C 0.13472 0.78598 0.54860
 C782 C 0.12652 0.80703 0.54211
 C783 C 0.10609 0.81516 0.55179
 C784 C 0.09406 0.80245 0.56745
 H785 H 0.05961 0.77212 0.63877
 H786 H 0.07183 0.71397 0.59831
 H787 H 0.15042 0.77924 0.54150
 H788 H 0.09928 0.83129 0.54714
 H789 H 0.09315 0.73672 0.57162
 H790 H 0.12944 0.75713 0.56890
 H791 H 0.08150 0.79478 0.61237
 H792 H 0.07817 0.80899 0.57435
 C793 C 0.91369 0.77139 0.40572
 C794 C 0.90850 0.77203 0.38291
 C795 C 0.92028 0.75823 0.36800
 C796 C 0.93701 0.74322 0.37579
 C797 C 0.94220 0.74259 0.39858
 C798 C 0.93081 0.75674 0.41340
 C799 C 0.90084 0.78546 0.42164
 C800 C 0.91269 0.79922 0.43665
 C801 C 0.90051 0.81195 0.45219
 C802 C 0.87632 0.81072 0.45333
 C803 C 0.86449 0.79696 0.43826
 C804 C 0.87664 0.78464 0.42238
 H805 H 0.91600 0.75889 0.35048
 H806 H 0.95512 0.73117 0.40487
 H807 H 0.91004 0.82235 0.46368
 H808 H 0.84585 0.79577 0.43873
 H809 H 0.93497 0.75590 0.43095
 H810 H 0.93136 0.80011 0.43631
 H811 H 0.89538 0.78326 0.37667
 H812 H 0.86720 0.77402 0.41103
 C813 C 0.91351 0.23107 0.59588
 C814 C 0.91994 0.22256 0.61675
 C815 C 0.93229 0.23574 0.63180
 C816 C 0.93864 0.25764 0.62618
 C817 C 0.93257 0.26590 0.60508
 C818 C 0.92005 0.25283 0.59018
 C819 C 0.89983 0.21750 0.58009
 C820 C 0.88084 0.22689 0.56900
 C821 C 0.86821 0.21441 0.55367
 C822 C 0.87444 0.19231 0.54890
 C823 C 0.89336 0.18285 0.56011
 C824 C 0.90584 0.19529 0.57567
 H825 H 0.93642 0.22893 0.64799
 H826 H 0.93767 0.28246 0.59995
 H827 H 0.85374 0.22218 0.54532
 H828 H 0.89855 0.16586 0.55682
 H829 H 0.91567 0.25966 0.57404
 H830 H 0.87570 0.24390 0.57229
 H831 H 0.91495 0.20588 0.62160
 H832 H 0.92051 0.18772 0.58390
 C833 C 0.40259 0.08892 0.22472
 C834 C 0.39997 0.06578 0.22211
 C835 C 0.38406 0.05399 0.23504
 C836 C 0.37057 0.06503 0.25101
 C837 C 0.37290 0.08816 0.25341
 C838 C 0.38863 0.09998 0.24034
 C839 C 0.42019 0.10137 0.21163
 C840 C 0.43267 0.11888 0.22143
 C841 C 0.44939 0.13046 0.20932
 C842 C 0.45421 0.12469 0.18716
 C843 C 0.44180 0.10719 0.17732
 C844 C 0.42492 0.09572 0.18939
 H845 H 0.38279 0.03612 0.23305
 H846 H 0.36247 0.09711 0.26539
 H847 H 0.45876 0.14376 0.21744
 H848 H 0.44503 0.10243 0.16023
 H849 H 0.38981 0.11784 0.24247
 H850 H 0.42983 0.12342 0.23864
 H851 H 0.41066 0.05665 0.21049
 H852 H 0.41541 0.08256 0.18120
 C853 C 0.59857 0.08578 0.77572
 C854 C 0.61344 0.09661 0.76071
 C855 C 0.62890 0.08444 0.74768
 C856 C 0.63004 0.06116 0.74949
 C857 C 0.61577 0.05034 0.76498
 C858 C 0.60013 0.06250 0.77789
 C859 C 0.58102 0.09866 0.78845
 C860 C 0.57524 0.09282 0.81042
 C861 C 0.55834 0.10471 0.82208
 C862 C 0.54695 0.12279 0.81208
 C863 C 0.55285 0.12874 0.79020
 C864 C 0.56958 0.11677 0.77851
 H865 H 0.63996 0.09322 0.73610
 H866 H 0.61615 0.03238 0.76653
 H867 H 0.55427 0.09978 0.83896
 H868 H 0.54428 0.14248 0.78195
 H869 H 0.58875 0.05357 0.78905
 H870 H 0.58391 0.07917 0.81870
 H871 H 0.61311 0.11454 0.75897
 H872 H 0.57322 0.12148 0.76148
 C873 C 0.39885 0.91013 0.77452
 C874 C 0.38865 0.93010 0.78178
 C875 C 0.37381 0.94207 0.76786
 C876 C 0.36846 0.93422 0.74644
 C877 C 0.37821 0.91397 0.73941
 C878 C 0.39336 0.90223 0.75315
 C879 C 0.41555 0.89783 0.78887
 C880 C 0.41708 0.87446 0.78791
 C881 C 0.43368 0.86303 0.80032
 C882 C 0.44880 0.87463 0.81437
 C883 C 0.44690 0.89786 0.81595
 C884 C 0.43062 0.90935 0.80318
 H885 H 0.36689 0.95771 0.77380
 H886 H 0.37420 0.90712 0.72323
 H887 H 0.43462 0.84508 0.79899
 H888 H 0.45849 0.90721 0.82654
 H889 H 0.40109 0.88713 0.74676
 H890 H 0.40544 0.86491 0.77757
 H891 H 0.39211 0.93656 0.79824
 H892 H 0.43032 0.92734 0.80412
 C893 C 0.59945 0.91574 0.22688
 C894 C 0.61894 0.90582 0.23668
 C895 C 0.63404 0.91841 0.24971
 C896 C 0.62994 0.94117 0.25331
 C897 C 0.61062 0.95116 0.24328
 C898 C 0.59557 0.93859 0.23017
 C899 C 0.58288 0.90220 0.21379
 C900 C 0.57319 0.91055 0.19404
 C901 C 0.55700 0.89805 0.18215
 C902 C 0.55008 0.87697 0.18982
 C903 C 0.55996 0.86854 0.20945
 C904 C 0.57620 0.88100 0.22127
 H905 H 0.64867 0.91021 0.25737
 H906 H 0.60715 0.96872 0.24557
 H907 H 0.54975 0.90501 0.16707
 H908 H 0.55499 0.85238 0.21583
 H909 H 0.58059 0.94666 0.22301
 H910 H 0.57820 0.92673 0.18774
 H911 H 0.62250 0.88829 0.23426
 H912 H 0.58314 0.87424 0.23658
 C913 C 0.40142 0.22975 0.91301
 C914 C 0.38222 0.22055 0.92378
 C915 C 0.36705 0.23400 0.93593
 C916 C 0.37054 0.25733 0.93784
 C917 C 0.39030 0.26617 0.92698
 C918 C 0.40531 0.25266 0.91483
 C919 C 0.41753 0.21560 0.89997
 C920 C 0.42468 0.19475 0.90805
 C921 C 0.44070 0.18198 0.89619
 C922 C 0.44983 0.18975 0.87595
 C923 C 0.44228 0.21039 0.86766
 C924 C 0.42635 0.22316 0.87955
 H925 H 0.35204 0.22580 0.94270
 H926 H 0.39535 0.28339 0.92855
 H927 H 0.44617 0.16616 0.90304
 H928 H 0.44889 0.21684 0.85209
 H929 H 0.42038 0.26016 0.90724
 H930 H 0.41833 0.18857 0.92383
 H931 H 0.37858 0.20293 0.92236
 H932 H 0.42091 0.23901 0.87273
 C933 C 0.59711 0.77235 0.91599
 C934 C 0.59151 0.75063 0.92267
 C935 C 0.60744 0.73769 0.93433
 C936 C 0.62950 0.74606 0.93940
 C937 C 0.63498 0.76795 0.93297
 C938 C 0.61890 0.78101 0.92146
 C939 C 0.58025 0.78567 0.90306
 C940 C 0.57559 0.80792 0.90866
 C941 C 0.55894 0.82005 0.89690
 C942 C 0.54687 0.81023 0.87915
 C943 C 0.55193 0.78811 0.87331
 C944 C 0.56834 0.77595 0.88520
 H945 H 0.60237 0.72115 0.93953
 H946 H 0.65187 0.77484 0.93639
 H947 H 0.55545 0.83708 0.90175
 H948 H 0.54295 0.78005 0.85973
 H949 H 0.62368 0.79767 0.91636
 H950 H 0.58446 0.81575 0.92244
 H951 H 0.57467 0.74371 0.91902
 H952 H 0.57180 0.75891 0.88039
 C953 C 0.40525 0.76834 0.09016
 C954 C 0.41025 0.76172 0.06834
 C955 C 0.39491 0.74825 0.05651
 C956 C 0.37386 0.74115 0.06608
 C957 C 0.36898 0.74809 0.08806
 C958 C 0.38450 0.76134 0.09992
 C959 C 0.42175 0.78236 0.10277
 C960 C 0.42726 0.77724 0.12494
 C961 C 0.44333 0.79006 0.13662
 C962 C 0.45405 0.80841 0.12642
 C963 C 0.44824 0.81373 0.10435
 C964 C 0.43234 0.80078 0.09262
 H965 H 0.39937 0.74425 0.03951
 H966 H 0.35361 0.74263 0.09669
 H967 H 0.44743 0.78553 0.15360
 H968 H 0.45622 0.82774 0.09601
 H969 H 0.38020 0.76624 0.11675
 H970 H 0.41949 0.76302 0.13311
 H971 H 0.42620 0.76682 0.06043
 H972 H 0.42822 0.80523 0.07561
 C973 C 0.59987 0.22777 0.08267
 C974 C 0.59414 0.24950 0.07614
 C975 C 0.60980 0.26242 0.06412
 C976 C 0.63171 0.25400 0.05854
 C977 C 0.63734 0.23211 0.06489
 C978 C 0.62153 0.21909 0.07675
 C979 C 0.58329 0.21441 0.09588
 C980 C 0.57856 0.19218 0.09031
 C981 C 0.56221 0.17998 0.10238
 C982 C 0.55053 0.18972 0.12042
 C983 C 0.55563 0.21184 0.12620
 C984 C 0.57174 0.22407 0.11400
 H985 H 0.60463 0.27897 0.05902
 H986 H 0.65414 0.22519 0.06110
 H987 H 0.55868 0.16296 0.09756
 H988 H 0.54694 0.21984 0.13999
 H989 H 0.62641 0.20242 0.08175
 H990 H 0.58715 0.18440 0.07633
 H991 H 0.57739 0.25645 0.08016
 H992 H 0.57525 0.24111 0.11879
 C993 C 0.23051 0.08615 0.59551
 C994 C 0.25331 0.07964 0.59102
 C995 C 0.26580 0.06722 0.60652
 C996 C 0.25587 0.06117 0.62701
 C997 C 0.23296 0.06757 0.63143
 C998 C 0.22039 0.07986 0.61580
 C999 C 0.21745 0.09952 0.57902
 C1000 C 0.19449 0.09419 0.57375
 C1001 C 0.18249 0.10645 0.55769
 C1002 C 0.19313 0.12442 0.54676
 C1003 C 0.21599 0.12992 0.55231
 C1004 C 0.22805 0.11755 0.56819
 H1005 H 0.28320 0.06213 0.60233
 H1006 H 0.22488 0.06343 0.64714
 H1007 H 0.16488 0.10182 0.55382
 H1008 H 0.22468 0.14368 0.54421
 H1009 H 0.20289 0.08484 0.61975
 H1010 H 0.18598 0.08027 0.58173
 H1011 H 0.26140 0.08391 0.57534
 H1012 H 0.24565 0.12217 0.57212
 C1013 C 0.76691 0.08764 0.40920
 C1014 C 0.74456 0.08016 0.41412
 C1015 C 0.73192 0.06804 0.39848
 C1016 C 0.74114 0.06329 0.37723
 C1017 C 0.76369 0.07098 0.37250
 C1018 C 0.77639 0.08283 0.38831
 C1019 C 0.78025 0.10053 0.42581
 C1020 C 0.80350 0.09542 0.43006
 C1021 C 0.81598 0.10746 0.44590
 C1022 C 0.80554 0.12504 0.45759
 C1023 C 0.78234 0.13026 0.45316
 C1024 C 0.76979 0.11805 0.43752
 H1025 H 0.71451 0.06332 0.40294
 H1026 H 0.77213 0.06721 0.35691
 H1027 H 0.83383 0.10305 0.44893
 H1028 H 0.77379 0.14368 0.46192
 H1029 H 0.79361 0.08842 0.38409
 H1030 H 0.81190 0.08188 0.42137
 H1031 H 0.73687 0.08361 0.43017
 H1032 H 0.75195 0.12246 0.43440
 C1033 C 0.76884 0.91317 0.59486
 C1034 C 0.74632 0.92020 0.58985
 C1035 C 0.73333 0.93199 0.60548
 C1036 C 0.74245 0.93684 0.62661
 C1037 C 0.76508 0.92987 0.63157
 C1038 C 0.77816 0.91826 0.61581
 C1039 C 0.78240 0.90041 0.57828
 C1040 C 0.80557 0.90579 0.57394
 C1041 C 0.81810 0.89406 0.55786
 C1042 C 0.80777 0.87652 0.54600
 C1043 C 0.78469 0.87098 0.55060
 C1044 C 0.77211 0.88287 0.56647
 H1045 H 0.71621 0.93754 0.60086
 H1046 H 0.77255 0.93303 0.64776
 H1047 H 0.83586 0.89870 0.55473
 H1048 H 0.77623 0.85758 0.54175
 H1049 H 0.79541 0.91284 0.62017
 H1050 H 0.81386 0.91934 0.58271
 H1051 H 0.73885 0.91682 0.57369
 H1052 H 0.75435 0.87823 0.56964
 C1053 C 0.22965 0.91474 0.40136
 C1054 C 0.25220 0.92164 0.40635
 C1055 C 0.26493 0.93405 0.39102
 C1056 C 0.25551 0.93967 0.37020
 C1057 C 0.23279 0.93297 0.36531
 C1058 C 0.21996 0.92071 0.38078
 C1059 C 0.21647 0.90117 0.41757
 C1060 C 0.19337 0.90623 0.42257
 C1061 C 0.18131 0.89380 0.43847
 C1062 C 0.19204 0.87591 0.44946
 C1063 C 0.21502 0.87065 0.44414
 C1064 C 0.22713 0.88321 0.42845
 H1065 H 0.28213 0.93939 0.39558
 H1066 H 0.22510 0.93678 0.34935
 H1067 H 0.16360 0.89823 0.44218
 H1068 H 0.22379 0.85697 0.45230
 H1069 H 0.20266 0.91545 0.37646
 H1070 H 0.18481 0.92008 0.41452
 H1071 H 0.25993 0.91761 0.42225
 H1072 H 0.24485 0.87880 0.42472
 C1073 C 0.08923 0.40773 0.76745
 C1074 C 0.08280 0.41293 0.74555
 C1075 C 0.07091 0.39747 0.73255
 C1076 C 0.06539 0.37630 0.74105
 C1077 C 0.07181 0.37114 0.76303
 C1078 C 0.08349 0.38674 0.77613
 C1079 C 0.10196 0.42420 0.78110
 C1080 C 0.09536 0.42849 0.80317
 C1081 C 0.10702 0.44450 0.81577
 C1082 C 0.12571 0.45632 0.80662
 C1083 C 0.13248 0.45176 0.78464
 C1084 C 0.12065 0.43597 0.77198
 H1085 H 0.06578 0.40225 0.71591
 H1086 H 0.06815 0.35491 0.77003
 H1087 H 0.10143 0.44761 0.83267
 H1088 H 0.14678 0.46059 0.77711
 H1089 H 0.08845 0.38224 0.79291
 H1090 H 0.08090 0.41975 0.81053
 H1091 H 0.08668 0.42913 0.73858
 H1092 H 0.12622 0.43282 0.75508
 C1093 C 0.08307 0.59152 0.23343
 C1094 C 0.08085 0.58807 0.25639
 C1095 C 0.06895 0.60330 0.26966
 C1096 C 0.05886 0.62267 0.26044
 C1097 C 0.06102 0.62582 0.23720
 C1098 C 0.07291 0.61047 0.22395
 C1099 C 0.09609 0.57537 0.21953
 C1100 C 0.08772 0.56875 0.19861
 C1101 C 0.09977 0.55308 0.18589
 C1102 C 0.12050 0.54379 0.19377
 C1103 C 0.12898 0.55066 0.21457
 C1104 C 0.11691 0.56622 0.22730
 H1105 H 0.06703 0.59913 0.28705
 H1106 H 0.05450 0.64058 0.22907
 H1107 H 0.09277 0.54815 0.16994
 H1108 H 0.14493 0.54390 0.22112
 H1109 H 0.07464 0.61375 0.20632
 H1110 H 0.07162 0.57537 0.19228
 H1111 H 0.08800 0.57330 0.26410
 H1112 H 0.12396 0.57123 0.24321
 C1113 C 0.91009 0.40448 0.23412
 C1114 C 0.89991 0.38447 0.24101
 C1115 C 0.91207 0.36951 0.25442
 C1116 C 0.93481 0.37422 0.26159
 C1117 C 0.94480 0.39452 0.25459
 C1118 C 0.93266 0.40932 0.24100
 C1119 C 0.89715 0.42040 0.21995
 C1120 C 0.90796 0.43079 0.20178
 C1121 C 0.89594 0.44617 0.18873
 C1122 C 0.87290 0.45162 0.19369
 C1123 C 0.86204 0.44107 0.21175
 C1124 C 0.87401 0.42555 0.22469
 H1125 H 0.90307 0.35470 0.25979
 H1126 H 0.96240 0.39882 0.25876
 H1127 H 0.90480 0.45401 0.17494
 H1128 H 0.84431 0.44491 0.21600
 H1129 H 0.94091 0.42470 0.23599
 H1130 H 0.92570 0.42694 0.19761
 H1131 H 0.88251 0.38031 0.23592
 H1132 H 0.86533 0.41793 0.23871
 C1133 C 0.91352 0.59476 0.76515
 C1134 C 0.90342 0.61479 0.75821
 C1135 C 0.91570 0.62975 0.74490
 C1136 C 0.93849 0.62502 0.73789
 C1137 C 0.94843 0.60471 0.74497
 C1138 C 0.93616 0.58992 0.75847
 C1139 C 0.90040 0.57881 0.77912
 C1140 C 0.91092 0.56839 0.79742
 C1141 C 0.89868 0.55301 0.81030
 C1142 C 0.87573 0.54758 0.80501
 C1143 C 0.86516 0.55815 0.78679
 C1144 C 0.87734 0.57367 0.77404
 H1145 H 0.90674 0.64457 0.73947
 H1146 H 0.96605 0.60040 0.74091
 H1147 H 0.90732 0.54515 0.82421
 H1148 H 0.84751 0.55433 0.78228
 H1149 H 0.94436 0.57453 0.76354
 H1150 H 0.92859 0.57223 0.80184
 H1151 H 0.88597 0.61896 0.76315
 H1152 H 0.86888 0.58131 0.75990
 C1153 C 0.77058 0.59372 0.91304
 C1154 C 0.74682 0.59062 0.91659
 C1155 C 0.73418 0.60589 0.92916
 C1156 C 0.74500 0.62465 0.93840
 C1157 C 0.76877 0.62774 0.93491
 C1158 C 0.78145 0.61240 0.92241
 C1159 C 0.78391 0.57758 0.89950
 C1160 C 0.80598 0.57059 0.90625
 C1161 C 0.81833 0.55509 0.89363
 C1162 C 0.80890 0.54634 0.87395
 C1163 C 0.78691 0.55351 0.86712
 C1164 C 0.77455 0.56892 0.87977
 H1165 H 0.71584 0.60319 0.93139
 H1166 H 0.77761 0.64193 0.94201
 H1167 H 0.83521 0.54988 0.89936
 H1168 H 0.77917 0.54713 0.85203
 H1169 H 0.79970 0.61531 0.91980
 H1170 H 0.81353 0.57682 0.92149
 H1171 H 0.73803 0.57626 0.90977
 H1172 H 0.75772 0.57423 0.87400
 C1173 C 0.23046 0.40814 0.91332
 C1174 C 0.23328 0.41088 0.93637
 C1175 C 0.24628 0.39563 0.94869
 C1176 C 0.25664 0.37726 0.93823
 C1177 C 0.25369 0.37444 0.91520
 C1178 C 0.24078 0.38973 0.90288
 C1179 C 0.21705 0.42456 0.90015
 C1180 C 0.22515 0.43180 0.87934
 C1181 C 0.21277 0.44754 0.86706
 C1182 C 0.19197 0.45634 0.87528
 C1183 C 0.18376 0.44895 0.89602
 C1184 C 0.19621 0.43327 0.90835
 H1185 H 0.24808 0.39811 0.96644
 H1186 H 0.26165 0.36056 0.90665
 H1187 H 0.21960 0.45290 0.85116
 H1188 H 0.16779 0.45539 0.90282
 H1189 H 0.23872 0.38708 0.88518
 H1190 H 0.24130 0.42559 0.87271
 H1191 H 0.22571 0.42501 0.94484
 H1192 H 0.18941 0.42781 0.92422
 C1193 C 0.22667 0.59387 0.08927
 C1194 C 0.25024 0.59025 0.08553
 C1195 C 0.26343 0.60577 0.07385
 C1196 C 0.25352 0.62564 0.06555
 C1197 C 0.22962 0.62893 0.06916
 C1198 C 0.21644 0.61327 0.08081
 C1199 C 0.21297 0.57745 0.10214
 C1200 C 0.19082 0.57103 0.09510
 C1201 C 0.17836 0.55497 0.10695
 C1202 C 0.18776 0.54513 0.12615
 C1203 C 0.20975 0.55186 0.13335
 C1204 C 0.22222 0.56779 0.12146
 H1205 H 0.28126 0.60149 0.07073
 H1206 H 0.22099 0.64401 0.06398
 H1207 H 0.16145 0.55015 0.10098
 H1208 H 0.21748 0.54467 0.14810
 H1209 H 0.19832 0.61662 0.08372
 H1210 H 0.18334 0.57809 0.08017
 H1211 H 0.25847 0.57515 0.09135
 H1212 H 0.23911 0.57264 0.12746
 C1213 C 0.77118 0.40591 0.08248
 C1214 C 0.74899 0.41102 0.07472
 C1215 C 0.73668 0.39576 0.06185
 C1216 C 0.74608 0.37470 0.05656
 C1217 C 0.76854 0.36982 0.06441
 C1218 C 0.78091 0.38526 0.07704
 C1219 C 0.78397 0.42201 0.09648
 C1220 C 0.80732 0.42671 0.09228
 C1221 C 0.81919 0.44220 0.10533
 C1222 C 0.80800 0.45307 0.12300
 C1223 C 0.78471 0.44814 0.12734
 C1224 C 0.77280 0.43286 0.11415
 H1225 H 0.71932 0.40031 0.05704
 H1226 H 0.77710 0.35438 0.06027
 H1227 H 0.83712 0.44565 0.10159
 H1228 H 0.77559 0.45625 0.14081
 H1229 H 0.79804 0.38093 0.08283
 H1230 H 0.81627 0.41868 0.07866
 H1231 H 0.74112 0.42690 0.07862
 H1232 H 0.75488 0.42935 0.11789
 C1233 C 0.91178 0.76874 0.59330
 C1234 C 0.91536 0.74606 0.58911
 C1235 C 0.92768 0.73288 0.60410
 C1236 C 0.93682 0.74191 0.62396
 C1237 C 0.93308 0.76484 0.62796
 C1238 C 0.92081 0.77800 0.61284
 C1239 C 0.89880 0.78266 0.57718
 C1240 C 0.90666 0.80404 0.57150
 C1241 C 0.89480 0.81685 0.55579
 C1242 C 0.87476 0.80859 0.54552
 C1243 C 0.86674 0.78732 0.55144
 C1244 C 0.87866 0.77448 0.56706
 H1245 H 0.93074 0.71579 0.59935
 H1246 H 0.93873 0.77274 0.64315
 H1247 H 0.90143 0.83317 0.55160
 H1248 H 0.85133 0.78049 0.54388
 H1249 H 0.91797 0.79539 0.61668
 H1250 H 0.92225 0.81068 0.57888
 H1251 H 0.90905 0.73857 0.57390
 H1252 H 0.87205 0.75817 0.57131
 C1253 C 0.91009 0.23127 0.40810
 C1254 C 0.91894 0.22169 0.38863
 C1255 C 0.93095 0.23463 0.37312
 C1256 C 0.93458 0.25765 0.37665
 C1257 C 0.92574 0.26697 0.39651
 C1258 C 0.91368 0.25401 0.41187
 C1259 C 0.89713 0.21769 0.42450
 C1260 C 0.87696 0.22610 0.43438
 C1261 C 0.86500 0.21363 0.45025
 C1262 C 0.87302 0.19251 0.45670
 C1263 C 0.89310 0.18400 0.44668
 C1264 C 0.90499 0.19644 0.43068
 H1265 H 0.93642 0.22648 0.35799
 H1266 H 0.92881 0.28414 0.40094
 H1267 H 0.84957 0.22065 0.45760
 H1268 H 0.89971 0.16778 0.45127
 H1269 H 0.90752 0.26175 0.42703
 H1270 H 0.87034 0.24230 0.42973
 H1271 H 0.91611 0.20422 0.38513
 H1272 H 0.92060 0.18964 0.42347
 C1273 C 0.08949 0.23292 0.59345
 C1274 C 0.09961 0.23951 0.61356
 C1275 C 0.08752 0.25295 0.62851
 C1276 C 0.06494 0.26047 0.62366
 C1277 C 0.05497 0.25370 0.60329
 C1278 C 0.06703 0.24006 0.58851
 C1279 C 0.10244 0.21892 0.57747
 C1280 C 0.09170 0.20082 0.56693
 C1281 C 0.10381 0.18791 0.55152
 C1282 C 0.12685 0.19297 0.54620
 C1283 C 0.13761 0.21101 0.55686
 C1284 C 0.12556 0.22378 0.57241
 H1285 H 0.09649 0.25811 0.64340
 H1286 H 0.03746 0.25814 0.59891
 H1287 H 0.09504 0.17413 0.54358
 H1288 H 0.15534 0.21533 0.55312
 H1289 H 0.05884 0.23526 0.57305
 H1290 H 0.07396 0.19659 0.57071
 H1291 H 0.11693 0.23419 0.61779
 H1292 H 0.13418 0.23777 0.58014
 C1293 C 0.08617 0.76810 0.40400
 C1294 C 0.06406 0.76069 0.40990
 C1295 C 0.05153 0.74688 0.39567
 C1296 C 0.06064 0.74020 0.37491
 C1297 C 0.08281 0.74810 0.36901
 C1298 C 0.09540 0.76170 0.38342
 C1299 C 0.09969 0.78212 0.41951
 C1300 C 0.12300 0.77731 0.42376
 C1301 C 0.13550 0.78992 0.43910
 C1302 C 0.12500 0.80776 0.45035
 C1303 C 0.10179 0.81283 0.44576
 C1304 C 0.08924 0.80007 0.43058
 H1305 H 0.03432 0.74219 0.40084
 H1306 H 0.09111 0.74307 0.35371
 H1307 H 0.15336 0.78562 0.44225
 H1308 H 0.09322 0.82646 0.45416
 H1309 H 0.11243 0.76724 0.37846
 H1310 H 0.13140 0.76344 0.41559
 H1311 H 0.05654 0.76537 0.42572
 H1312 H 0.07134 0.80425 0.42744
 C1313 C 0.59191 0.91254 0.77087
 C1314 C 0.58695 0.93454 0.76474
 C1315 C 0.60213 0.94653 0.75123
 C1316 C 0.62297 0.93694 0.74359
 C1317 C 0.62781 0.91478 0.75003
 C1318 C 0.61245 0.90278 0.76335
 C1319 C 0.57561 0.89975 0.78494
 C1320 C 0.56994 0.87768 0.77957
 C1321 C 0.55422 0.86575 0.79257
 C1322 C 0.54399 0.87560 0.81134
 C1323 C 0.54988 0.89761 0.81687
 C1324 C 0.56545 0.90959 0.80374
 H1325 H 0.59774 0.96365 0.74762
 H1326 H 0.64300 0.90614 0.74415
 H1327 H 0.55004 0.84883 0.78788
 H1328 H 0.54228 0.90567 0.83121
 H1329 H 0.61672 0.88581 0.76787
 H1330 H 0.57736 0.86976 0.76505
 H1331 H 0.57116 0.94246 0.77028
 H1332 H 0.56969 0.92651 0.80838
 C1333 C 0.40684 0.91565 0.22981
 C1334 C 0.38499 0.92107 0.22140
 C1335 C 0.36950 0.93360 0.23408
 C1336 C 0.37555 0.94137 0.25550
 C1337 C 0.39777 0.93601 0.26361
 C1338 C 0.41307 0.92323 0.25101
 C1339 C 0.42313 0.90206 0.21656
 C1340 C 0.43510 0.88432 0.22648
 C1341 C 0.45076 0.87169 0.21413
 C1342 C 0.45495 0.87669 0.19165
 C1343 C 0.44288 0.89438 0.18169
 C1344 C 0.42701 0.90686 0.19400
 H1345 H 0.35312 0.93779 0.22654
 H1346 H 0.40323 0.94074 0.28014
 H1347 H 0.45981 0.85819 0.22229
 H1348 H 0.44573 0.89862 0.16440
 H1349 H 0.42989 0.91932 0.25784
 H1350 H 0.43223 0.88015 0.24379
 H1351 H 0.37978 0.91542 0.20505
 H1352 H 0.41811 0.92055 0.18601
 C1353 C 0.59933 0.08555 0.22442
 C1354 C 0.59123 0.06852 0.23837
 C1355 C 0.60646 0.05711 0.25231
 C1356 C 0.63010 0.06222 0.25216
 C1357 C 0.63832 0.07886 0.23781
 C1358 C 0.62299 0.09064 0.22422
 C1359 C 0.58294 0.09841 0.21067
 C1360 C 0.58212 0.12169 0.21234
 C1361 C 0.56572 0.13381 0.20034
 C1362 C 0.55020 0.12289 0.18610
 C1363 C 0.55141 0.09963 0.18403
 C1364 C 0.56748 0.08746 0.19642
 H1365 H 0.59984 0.04426 0.26323
 H1366 H 0.65650 0.08308 0.23754
 H1367 H 0.56520 0.15174 0.20216
 H1368 H 0.53959 0.09081 0.17323
 H1369 H 0.62956 0.10370 0.21352
 H1370 H 0.59381 0.13042 0.22335
 H1371 H 0.57302 0.06444 0.23886
 H1372 H 0.56788 0.06951 0.19489
 C1373 C 0.40384 0.08300 0.77143
 C1374 C 0.40807 0.08005 0.74861
 C1375 C 0.39302 0.06747 0.73556
 C1376 C 0.37335 0.05759 0.74502
 C1377 C 0.36911 0.06048 0.76786
 C1378 C 0.38426 0.07300 0.78096
 C1379 C 0.41982 0.09656 0.78513
 C1380 C 0.42660 0.08940 0.80641
 C1381 C 0.44230 0.10189 0.81892
 C1382 C 0.45144 0.12184 0.81044
 C1383 C 0.44432 0.12915 0.78931
 C1384 C 0.42873 0.11664 0.77680
 H1385 H 0.39660 0.06574 0.71797
 H1386 H 0.35419 0.05291 0.77563
 H1387 H 0.44744 0.09580 0.83514
 H1388 H 0.45097 0.14447 0.78230
 H1389 H 0.38049 0.07512 0.79847
 H1390 H 0.42015 0.07389 0.81318
 H1391 H 0.42315 0.08735 0.74086
 H1392 H 0.42356 0.12274 0.76059
 C1393 C 0.59764 0.77037 0.08679
 C1394 C 0.59435 0.76742 0.06382
 C1395 C 0.60959 0.75431 0.05147
 C1396 C 0.62849 0.74392 0.06181
 C1397 C 0.63186 0.74699 0.08475
 C1398 C 0.61659 0.76004 0.09711
 C1399 C 0.58117 0.78391 0.09998
 C1400 C 0.57383 0.77665 0.12105
 C1401 C 0.55791 0.78912 0.13327
 C1402 C 0.54902 0.80914 0.12471
 C1403 C 0.55656 0.81651 0.10374
 C1404 C 0.57244 0.80401 0.09150
 H1405 H 0.60669 0.75243 0.03378
 H1406 H 0.64615 0.73901 0.09321
 H1407 H 0.55242 0.78294 0.14935
 H1408 H 0.55008 0.83189 0.09670
 H1409 H 0.61968 0.76218 0.11474
 H1410 H 0.58004 0.76109 0.12790
 H1411 H 0.57977 0.77499 0.05545
 H1412 H 0.57802 0.81016 0.07543
 C1413 C 0.40613 0.23088 0.08453
 C1414 C 0.40916 0.23435 0.06159
 C1415 C 0.39375 0.24769 0.04967
 C1416 C 0.37491 0.25779 0.06040
 C1417 C 0.37178 0.25419 0.08330
 C1418 C 0.38724 0.24091 0.09525
 C1419 C 0.42280 0.21710 0.09729
 C1420 C 0.43033 0.22391 0.11843
 C1421 C 0.44640 0.21123 0.13026
 C1422 C 0.45527 0.19141 0.12123
 C1423 C 0.44756 0.18448 0.10018
 C1424 C 0.43153 0.19721 0.08832
 H1425 H 0.39647 0.24998 0.03199
 H1426 H 0.35755 0.26191 0.09207
 H1427 H 0.45202 0.21706 0.14641
 H1428 H 0.45402 0.16928 0.09278
 H1429 H 0.38433 0.23837 0.11286
 H1430 H 0.42413 0.23929 0.12565
 H1431 H 0.42368 0.22702 0.05292
 H1432 H 0.42583 0.19140 0.07219
 C1433 C 0.59417 0.23001 0.91340
 C1434 C 0.61422 0.22038 0.92238
 C1435 C 0.63010 0.23338 0.93408
 C1436 C 0.62617 0.25626 0.93717
 C1437 C 0.60605 0.26585 0.92833
 C1438 C 0.59025 0.25288 0.91652
 C1439 C 0.57744 0.21633 0.90070
 C1440 C 0.56770 0.22452 0.88093
 C1441 C 0.55173 0.21182 0.86905
 C1442 C 0.54505 0.19068 0.87673
 C1443 C 0.55489 0.18243 0.89646
 C1444 C 0.57098 0.19511 0.90828
 H1445 H 0.64537 0.22552 0.94089
 H1446 H 0.60267 0.28347 0.93029
 H1447 H 0.54450 0.21865 0.85390
 H1448 H 0.55009 0.16621 0.90283
 H1449 H 0.57484 0.26071 0.90998
 H1450 H 0.57258 0.24070 0.87453
 H1451 H 0.61776 0.20283 0.92009
 H1452 H 0.57806 0.18847 0.92358
 C1453 C 0.40285 0.77184 0.92075
 C1454 C 0.38112 0.78042 0.92659
 C1455 C 0.36532 0.76733 0.93839
 C1456 C 0.37103 0.74546 0.94472
 C1457 C 0.39305 0.73719 0.93936
 C1458 C 0.40871 0.75017 0.92742
 C1459 C 0.41927 0.78510 0.90728
 C1460 C 0.43069 0.77526 0.88918
 C1461 C 0.44650 0.78745 0.87660
 C1462 C 0.45142 0.80971 0.88195
 C1463 C 0.43992 0.81962 0.90001
 C1464 C 0.42386 0.80746 0.91247
 H1465 H 0.34844 0.77414 0.94206
 H1466 H 0.39827 0.72066 0.94447
 H1467 H 0.45505 0.77932 0.86279
 H1468 H 0.44331 0.83676 0.90449
 H1469 H 0.42551 0.74331 0.92347
 H1470 H 0.42726 0.75813 0.88467
 H1471 H 0.37615 0.79704 0.92149
 H1472 H 0.41536 0.81537 0.92642
 C1473 C 0.77195 0.91731 0.40539
 C1474 C 0.74913 0.92371 0.40994
 C1475 C 0.73641 0.93577 0.39433
 C1476 C 0.74613 0.94155 0.37369
 C1477 C 0.76911 0.93538 0.36925
 C1478 C 0.78192 0.92346 0.38499
 C1479 C 0.78507 0.90393 0.42180
 C1480 C 0.80803 0.90925 0.42712
 C1481 C 0.82008 0.89683 0.44304
 C1482 C 0.80947 0.87870 0.45374
 C1483 C 0.78660 0.87325 0.44815
 C1484 C 0.77452 0.88577 0.43244
 H1485 H 0.71897 0.94071 0.39853
 H1486 H 0.77704 0.93934 0.35343
 H1487 H 0.83769 0.90142 0.44696
 H1488 H 0.77793 0.85938 0.45608
 H1489 H 0.79943 0.91856 0.38100
 H1490 H 0.81651 0.92326 0.41925
 H1491 H 0.74117 0.91952 0.42570
 H1492 H 0.75693 0.88115 0.42846
 C1493 C 0.23256 0.91244 0.59007
 C1494 C 0.23536 0.93557 0.58782
 C1495 C 0.24815 0.94759 0.60345
 C1496 C 0.25832 0.93674 0.62170
 C1497 C 0.25547 0.91362 0.62396
 C1498 C 0.24277 0.90161 0.60830
 C1499 C 0.21916 0.89962 0.57340
 C1500 C 0.22712 0.87885 0.56591
 C1501 C 0.21460 0.86679 0.55015
 C1502 C 0.19379 0.87520 0.54155
 C1503 C 0.18576 0.89594 0.54911
 C1504 C 0.19834 0.90804 0.56484
 H1505 H 0.24987 0.96541 0.60139
 H1506 H 0.26330 0.90478 0.63773
 H1507 H 0.22131 0.85089 0.54463
 H1508 H 0.16978 0.90288 0.54283
 H1509 H 0.24073 0.88384 0.61059
 H1510 H 0.24325 0.87206 0.57200
 H1511 H 0.22788 0.94434 0.57383
 H1512 H 0.19163 0.92388 0.57049
 C1513 C 0.23141 0.08735 0.40506
 C1514 C 0.23463 0.06430 0.40760
 C1515 C 0.24749 0.05228 0.39203
 C1516 C 0.25730 0.06303 0.37355
 C1517 C 0.25390 0.08604 0.37090
 C1518 C 0.24113 0.09807 0.38651
 C1519 C 0.21825 0.10023 0.42186
 C1520 C 0.22626 0.12110 0.42901
 C1521 C 0.21409 0.13316 0.44503
 C1522 C 0.19360 0.12466 0.45422
 C1523 C 0.18551 0.10384 0.44699
 C1524 C 0.19774 0.09173 0.43101
 H1525 H 0.24963 0.03453 0.39438
 H1526 H 0.26143 0.09480 0.35693
 H1527 H 0.22082 0.14913 0.45027
 H1528 H 0.16976 0.09684 0.45372
 H1529 H 0.23875 0.11577 0.38400
 H1530 H 0.24217 0.12795 0.42248
 H1531 H 0.22752 0.05563 0.42183
 H1532 H 0.19103 0.07580 0.42564
 C1533 C 0.76749 0.08567 0.59633
 C1534 C 0.74368 0.08259 0.59310
 C1535 C 0.73077 0.06990 0.60809
 C1536 C 0.74137 0.06008 0.62668
 C1537 C 0.76519 0.06313 0.62990
 C1538 C 0.77813 0.07574 0.61485
 C1539 C 0.78111 0.09922 0.58041
 C1540 C 0.80302 0.09211 0.57331
 C1541 C 0.81556 0.10463 0.55785
 C1542 C 0.80648 0.12456 0.54926
 C1543 C 0.78471 0.13181 0.55663
 C1544 C 0.77216 0.11926 0.57200
 H1545 H 0.71241 0.06801 0.60529
 H1546 H 0.77386 0.05559 0.64398
 H1547 H 0.83227 0.09858 0.55249
 H1548 H 0.77725 0.14711 0.55037
 H1549 H 0.79641 0.07797 0.61785
 H1550 H 0.81026 0.07663 0.57935
 H1551 H 0.73505 0.08983 0.57885
 H1552 H 0.75547 0.12530 0.57741
 C1553 C 0.90914 0.58967 0.23725
 C1554 C 0.93294 0.58704 0.24096
 C1555 C 0.94490 0.60194 0.25455
 C1556 C 0.93334 0.61983 0.26468
 C1557 C 0.90954 0.62245 0.26099
 C1558 C 0.89756 0.60750 0.24745
 C1559 C 0.89645 0.57380 0.22284
 C1560 C 0.87444 0.56611 0.22897
 C1561 C 0.86266 0.55089 0.21559
 C1562 C 0.87260 0.54306 0.19575
 C1563 C 0.89451 0.55091 0.18951
 C1564 C 0.90632 0.56610 0.20292
 H1565 H 0.96328 0.59964 0.25689
 H1566 H 0.90014 0.63596 0.26873
 H1567 H 0.84582 0.54512 0.22090
 H1568 H 0.90263 0.54524 0.17431
 H1569 H 0.87928 0.61007 0.24474
 H1570 H 0.86651 0.57155 0.24434
 H1571 H 0.94228 0.57332 0.23353
 H1572 H 0.92311 0.57197 0.19761
 C1573 C 0.91379 0.40854 0.76436
 C1574 C 0.91672 0.41214 0.74144
 C1575 C 0.92922 0.39703 0.72854
 C1576 C 0.93895 0.37795 0.73828
 C1577 C 0.93597 0.37431 0.76119
 C1578 C 0.92357 0.38949 0.77411
 C1579 C 0.90068 0.42469 0.77806
 C1580 C 0.90886 0.43112 0.79909
 C1581 C 0.89671 0.44664 0.81182
 C1582 C 0.87606 0.45597 0.80384
 C1583 C 0.86777 0.44937 0.78289
 C1584 C 0.87998 0.43393 0.77012
 H1585 H 0.93107 0.40014 0.71089
 H1586 H 0.94347 0.35985 0.76916
 H1587 H 0.90357 0.45140 0.82788
 H1588 H 0.85190 0.45623 0.77628
 H1589 H 0.92142 0.38621 0.79170
 H1590 H 0.92490 0.42445 0.80552
 H1591 H 0.90957 0.42680 0.73353
 H1592 H 0.87312 0.42907 0.75409
 C1593 C 0.08809 0.59700 0.76820
 C1594 C 0.08188 0.61789 0.77681
 C1595 C 0.07020 0.63336 0.76352
 C1596 C 0.06430 0.62816 0.74142
 C1597 C 0.07018 0.60705 0.73305
 C1598 C 0.08204 0.59173 0.74623
 C1599 C 0.10106 0.58074 0.78190
 C1600 C 0.12011 0.56948 0.77285
 C1601 C 0.13212 0.55375 0.78544
 C1602 C 0.12520 0.54875 0.80728
 C1603 C 0.10619 0.56011 0.81639
 C1604 C 0.09433 0.57607 0.80386
 H1605 H 0.06618 0.64954 0.77043
 H1606 H 0.06541 0.60223 0.71632
 H1607 H 0.14668 0.54529 0.77793
 H1608 H 0.10048 0.55665 0.83320
 H1609 H 0.08628 0.57559 0.73932
 H1610 H 0.12580 0.57295 0.75604
 H1611 H 0.08651 0.62241 0.79366
 H1612 H 0.07960 0.58444 0.81115
 C1613 C 0.08396 0.40289 0.23108
 C1614 C 0.07775 0.40806 0.25304
 C1615 C 0.06589 0.39264 0.26610
 C1616 C 0.06016 0.37155 0.25761
 C1617 C 0.06616 0.36647 0.23551
 C1618 C 0.07786 0.38203 0.22234
 C1619 C 0.09700 0.41922 0.21756
 C1620 C 0.09045 0.42398 0.19557
 C1621 C 0.10235 0.44006 0.18322
 C1622 C 0.12120 0.45145 0.19255
 C1623 C 0.12796 0.44635 0.21441
 C1624 C 0.11593 0.43049 0.22681
 H1625 H 0.06101 0.39736 0.28283
 H1626 H 0.06224 0.35031 0.22851
 H1627 H 0.09676 0.44360 0.16639
 H1628 H 0.14241 0.45482 0.22208
 H1629 H 0.08260 0.37760 0.20549
 H1630 H 0.07582 0.41560 0.18812
 H1631 H 0.08189 0.42417 0.26005
 H1632 H 0.12148 0.42696 0.24364
   
