data_POSCAR
  _audit_creation_date              2014-09-24
  _audit_creation_method            'ToBaCCo'
  _symmetry_space_group_name_H-M    'P1'
  _symmetry_Int_Tables_number       1
  _symmetry_cell_setting            triclinic
  loop_
  _symmetry_equiv_pos_as_xyz
 x,y,z
_cell_length_a 37.0130
_cell_length_b 38.4053
_cell_length_c 46.0175
_cell_angle_alpha 89.939600
_cell_angle_beta 89.969100
_cell_angle_gamma 90.039600
loop_
  _atom_site_label
  _atom_site_type_symbol
  _atom_site_fract_x
  _atom_site_fract_y
  _atom_site_fract_z
Zr1 Zr 0.24878 0.24875 0.30089
 O2 O 0.27691 0.27570 0.33404
 O3 O 0.21366 0.21730 0.32529
 O4 O 0.21423 0.28202 0.32453
 O5 O 0.31522 0.18681 0.29014
 O6 O 0.18545 0.31353 0.28952
 O7 O 0.28305 0.21555 0.32491
 O8 O 0.17990 0.19011 0.29068
 O9 O 0.20131 0.25099 0.27625
 O10 O 0.24763 0.20324 0.27603
 O11 O 0.25284 0.29476 0.27625
 O12 O 0.29730 0.24892 0.27671
 Zr13 Zr 0.25173 0.25109 0.19949
 Zr14 Zr 0.20666 0.29529 0.25000
 Zr15 Zr 0.29396 0.20449 0.25032
 Zr16 Zr 0.20156 0.20643 0.25043
 O17 O 0.35109 0.20657 0.24928
 O18 O 0.14539 0.21721 0.24956
 O19 O 0.24779 0.20458 0.22383
 O20 O 0.20371 0.25074 0.22395
 O21 O 0.25302 0.29693 0.22401
 O22 O 0.29882 0.24884 0.22449
 C23 C 0.18826 0.19651 0.31734
 C24 C 0.30747 0.19366 0.31684
 C25 C 0.19171 0.30561 0.31623
 O26 O 0.14963 0.29306 0.24746
 O27 O 0.18978 0.31719 0.21030
 O28 O 0.22008 0.28674 0.17551
 C29 C 0.19762 0.31048 0.18361
 O30 O 0.32357 0.31152 0.28889
 Zr31 Zr 0.29898 0.29337 0.25001
 O32 O 0.28662 0.28280 0.17515
 O33 O 0.21331 0.34994 0.25236
 O34 O 0.29228 0.34819 0.25094
 O35 O 0.35555 0.28480 0.24835
 O36 O 0.31739 0.31301 0.20982
 C37 C 0.30989 0.30575 0.18318
 O38 O 0.22193 0.22574 0.16641
 O39 O 0.28739 0.14977 0.25148
 O40 O 0.28392 0.21589 0.17568
 O41 O 0.31098 0.18281 0.21062
 O42 O 0.20605 0.15141 0.25210
 O43 O 0.18085 0.18409 0.21162
 C44 C 0.30481 0.19090 0.18389
 H45 H 0.24722 0.18178 0.28795
 H46 H 0.18222 0.25125 0.21116
 H47 H 0.32110 0.24769 0.21263
 H48 H 0.25396 0.31551 0.28897
 H49 H 0.13256 0.19544 0.25479
 H50 H 0.14080 0.31739 0.24840
 H51 H 0.18883 0.36030 0.25130
 H52 H 0.31584 0.35881 0.24578
 H53 H 0.18183 0.14198 0.25689
 H54 H 0.31196 0.13958 0.25228
 H55 H 0.35975 0.18217 0.24861
 H56 H 0.36716 0.30736 0.24355
 H57 H 0.15964 0.16938 0.21631
 H58 H 0.23148 0.23409 0.14748
 H59 H 0.26748 0.26716 0.35295
 H60 H 0.34064 0.33059 0.28422
 Zr61 Zr 0.75143 0.75122 0.30071
 O62 O 0.72355 0.72423 0.33405
 O63 O 0.78646 0.78292 0.32491
 O64 O 0.78617 0.71816 0.32439
 O65 O 0.68452 0.81267 0.28986
 O66 O 0.81510 0.68673 0.28943
 O67 O 0.71697 0.78428 0.32468
 O68 O 0.81995 0.81022 0.29012
 O69 O 0.79886 0.74917 0.27596
 O70 O 0.75224 0.79665 0.27568
 O71 O 0.74761 0.70512 0.27623
 O72 O 0.70287 0.75066 0.27663
 Zr73 Zr 0.74828 0.74853 0.19930
 Zr74 Zr 0.79375 0.70477 0.24988
 Zr75 Zr 0.70587 0.79503 0.25008
 Zr76 Zr 0.79827 0.79367 0.24998
 O77 O 0.64875 0.79261 0.24913
 O78 O 0.85450 0.78322 0.24901
 O79 O 0.75198 0.79513 0.22348
 O80 O 0.79634 0.74926 0.22367
 O81 O 0.74734 0.70275 0.22399
 O82 O 0.70123 0.75059 0.22441
 C83 C 0.81173 0.80382 0.31682
 C84 C 0.69236 0.80596 0.31657
 C85 C 0.80879 0.69466 0.31613
 O86 O 0.85076 0.70736 0.24727
 O87 O 0.81077 0.68291 0.21023
 O88 O 0.78016 0.71305 0.17539
 C89 C 0.80286 0.68951 0.18352
 O90 O 0.67705 0.68791 0.28909
 Zr91 Zr 0.70141 0.70613 0.25010
 O92 O 0.71348 0.71655 0.17517
 O93 O 0.78745 0.65009 0.25242
 O94 O 0.70849 0.65136 0.25119
 O95 O 0.64479 0.71438 0.24856
 O96 O 0.68299 0.68627 0.21003
 C97 C 0.69035 0.69351 0.18333
 O98 O 0.77782 0.77394 0.16603
 O99 O 0.71208 0.84980 0.25105
 O100 O 0.71585 0.78353 0.17545
 O101 O 0.68869 0.81654 0.21034
 O102 O 0.79339 0.84866 0.25145
 O103 O 0.81875 0.81603 0.21104
 C104 C 0.69488 0.80845 0.18364
 H105 H 0.75254 0.81815 0.28753
 H106 H 0.81781 0.74886 0.21083
 H107 H 0.67892 0.75159 0.21259
 H108 H 0.74664 0.68439 0.28902
 H109 H 0.86721 0.80509 0.25412
 H110 H 0.85975 0.68308 0.24828
 H111 H 0.81200 0.63987 0.25135
 H112 H 0.68499 0.64057 0.24613
 H113 H 0.81755 0.85825 0.25617
 H114 H 0.68744 0.85984 0.25186
 H115 H 0.63993 0.81696 0.24838
 H116 H 0.63330 0.69176 0.24387
 H117 H 0.83985 0.83090 0.21563
 H118 H 0.76826 0.76548 0.14717
 H119 H 0.73296 0.73289 0.35289
 H120 H 0.66008 0.66874 0.28453
 Zr121 Zr 0.75138 0.24851 -0.30085
 O122 O 0.72360 0.27542 -0.33424
 O123 O 0.78634 0.21668 -0.32500
 O124 O 0.78621 0.28145 -0.32462
 O125 O 0.68429 0.18720 -0.28979
 O126 O 0.81523 0.31291 -0.28974
 O127 O 0.71682 0.21542 -0.32471
 O128 O 0.81975 0.18946 -0.29017
 O129 O 0.79881 0.25059 -0.27614
 O130 O 0.75207 0.20316 -0.27572
 O131 O 0.74768 0.29470 -0.27648
 O132 O 0.70282 0.24922 -0.27674
 Zr133 Zr 0.74823 0.25156 -0.19944
 Zr134 Zr 0.79380 0.29508 -0.25015
 Zr135 Zr 0.70571 0.20494 -0.25008
 Zr136 Zr 0.79811 0.20619 -0.25006
 O137 O 0.64860 0.20741 -0.24907
 O138 O 0.85437 0.21659 -0.24916
 O139 O 0.75181 0.20487 -0.22352
 O140 O 0.79629 0.25068 -0.22384
 O141 O 0.74740 0.29725 -0.22424
 O142 O 0.70118 0.24946 -0.22451
 C143 C 0.81155 0.19578 -0.31688
 C144 C 0.69214 0.19381 -0.31652
 C145 C 0.80891 0.30492 -0.31641
 O146 O 0.85081 0.29244 -0.24754
 O147 O 0.81083 0.31712 -0.21059
 O148 O 0.78016 0.28715 -0.17564
 C149 C 0.80288 0.31066 -0.18386
 O150 O 0.67715 0.31198 -0.28931
 Zr151 Zr 0.70147 0.29383 -0.25029
 O152 O 0.71350 0.28363 -0.17535
 O153 O 0.78766 0.34976 -0.25287
 O154 O 0.70870 0.34860 -0.25153
 O155 O 0.64483 0.28563 -0.24869
 O156 O 0.68310 0.31385 -0.21025
 C157 C 0.69044 0.30668 -0.18355
 O158 O 0.77773 0.22625 -0.16613
 O159 O 0.71177 0.15016 -0.25095
 O160 O 0.71574 0.21667 -0.17549
 O161 O 0.68851 0.18358 -0.21029
 O162 O 0.79308 0.15120 -0.25138
 O163 O 0.81853 0.18393 -0.21108
 C164 C 0.69471 0.19175 -0.18361
 H165 H 0.75231 0.18163 -0.28752
 H166 H 0.81776 0.25112 -0.21102
 H167 H 0.67887 0.24853 -0.21267
 H168 H 0.74677 0.31538 -0.28931
 H169 H 0.86703 0.19468 -0.25422
 H170 H 0.85986 0.31670 -0.24863
 H171 H 0.81224 0.35995 -0.25184
 H172 H 0.68523 0.35943 -0.24646
 H173 H 0.81721 0.14155 -0.25610
 H174 H 0.68710 0.14015 -0.25171
 H175 H 0.63972 0.18308 -0.24825
 H176 H 0.63339 0.30828 -0.24403
 H177 H 0.83960 0.16903 -0.21566
 H178 H 0.76819 0.23479 -0.14728
 H179 H 0.73299 0.26667 -0.35307
 H180 H 0.66021 0.33116 -0.28476
 Zr181 Zr 0.24766 0.75286 -0.30087
 O182 O 0.27534 0.72609 -0.33437
 O183 O 0.21282 0.78497 -0.32491
 O184 O 0.21273 0.72006 -0.32468
 O185 O 0.31495 0.81385 -0.28975
 O186 O 0.18352 0.68859 -0.28980
 O187 O 0.28240 0.78605 -0.32466
 O188 O 0.17968 0.81217 -0.29007
 O189 O 0.20020 0.75084 -0.27613
 O190 O 0.24718 0.79806 -0.27565
 O191 O 0.25111 0.70653 -0.27654
 O192 O 0.29620 0.75175 -0.27678
 Zr193 Zr 0.25072 0.74920 -0.19940
 Zr194 Zr 0.20497 0.70621 -0.25019
 Zr195 Zr 0.29351 0.79590 -0.25004
 Zr196 Zr 0.20113 0.79509 -0.24997
 O197 O 0.35060 0.79311 -0.24912
 O198 O 0.14482 0.78492 -0.24914
 O199 O 0.24740 0.79602 -0.22344
 O200 O 0.20270 0.75047 -0.22380
 O201 O 0.25133 0.70364 -0.22429
 O202 O 0.29779 0.75123 -0.22452
 C203 C 0.18769 0.80612 -0.31690
 C204 C 0.30719 0.80768 -0.31660
 C205 C 0.18992 0.69662 -0.31648
 O206 O 0.14798 0.70910 -0.24761
 O207 O 0.18768 0.68414 -0.21062
 O208 O 0.21846 0.71363 -0.17568
 C209 C 0.19545 0.69027 -0.18377
 O210 O 0.32153 0.68890 -0.28943
 Zr211 Zr 0.29730 0.70700 -0.25038
 O212 O 0.28531 0.71681 -0.17541
 O213 O 0.21085 0.65151 -0.25293
 O214 O 0.28979 0.65228 -0.25172
 O215 O 0.35398 0.71496 -0.24881
 O216 O 0.31559 0.68668 -0.21040
 C217 C 0.30829 0.69372 -0.18366
 O218 O 0.22140 0.77444 -0.16599
 O219 O 0.28775 0.85071 -0.25072
 O220 O 0.28340 0.78389 -0.17542
 O221 O 0.31083 0.81698 -0.21022
 O222 O 0.20644 0.85006 -0.25114
 O223 O 0.18070 0.81725 -0.21098
 C224 C 0.30457 0.80876 -0.18354
 H225 H 0.24705 0.81966 -0.28740
 H226 H 0.18121 0.75008 -0.21098
 H227 H 0.32011 0.75201 -0.21269
 H228 H 0.25193 0.68590 -0.28941
 H229 H 0.13227 0.80689 -0.25420
 H230 H 0.13880 0.68489 -0.24872
 H231 H 0.18623 0.64143 -0.25189
 H232 H 0.31319 0.64131 -0.24668
 H233 H 0.18239 0.85985 -0.25589
 H234 H 0.31246 0.86061 -0.25153
 H235 H 0.35962 0.81738 -0.24826
 H236 H 0.36532 0.69225 -0.24419
 H237 H 0.15969 0.83222 -0.21555
 H238 H 0.23090 0.76572 -0.14718
 H239 H 0.26598 0.73503 -0.35316
 H240 H 0.33842 0.66966 -0.28491
 Zr241 Zr 1.25205 1.25201 0.80057
 O242 O 1.22354 1.22544 0.83379
 O243 O 1.28727 1.28333 0.82479
 O244 O 1.28650 1.21899 0.82461
 O245 O 1.18640 1.31453 0.78923
 O246 O 1.31533 1.18710 0.78990
 O247 O 1.21814 1.28576 0.82426
 O248 O 1.32144 1.30999 0.79008
 O249 O 1.29958 1.24931 0.77603
 O250 O 1.25365 1.29732 0.77538
 O251 O 1.24772 1.20582 0.77633
 O252 O 1.20361 1.25206 0.77633
 Zr253 Zr 1.24931 1.24895 0.69920
 Zr254 Zr 1.29399 1.20484 0.75018
 Zr255 Zr 1.20742 1.29625 0.74960
 Zr256 Zr 1.29976 1.29365 0.74988
 O257 O 1.15029 1.29453 0.74846
 O258 O 1.35585 1.28245 0.74909
 O259 O 1.25365 1.29561 0.72319
 O260 O 1.29726 1.24915 0.72376
 O261 O 1.24769 1.20331 0.72409
 O262 O 1.20218 1.25173 0.72411
 C263 C 1.31291 1.30380 0.81675
 C264 C 1.19409 1.30790 0.81597
 C265 C 1.30918 1.19542 0.81656
 O266 O 1.35105 1.20657 0.74759
 O267 O 1.31096 1.18273 0.71069
 O268 O 1.28095 1.21307 0.67563
 C269 C 1.30336 1.18942 0.68396
 O270 O 1.17681 1.18985 0.78901
 Zr271 Zr 1.20166 1.20739 0.74999
 O272 O 1.21423 1.21716 0.67507
 O273 O 1.28688 1.15028 0.75301
 O274 O 1.20794 1.15253 0.75136
 O275 O 1.14516 1.21630 0.74817
 O276 O 1.18321 1.18745 0.70997
 C277 C 1.19081 1.19438 0.68326
 O278 O 1.27933 1.27371 0.66586
 O279 O 1.21433 1.35095 0.75045
 O280 O 1.21764 1.28439 0.67508
 O281 O 1.19098 1.31805 0.70977
 O282 O 1.29566 1.34871 0.75121
 O283 O 1.32082 1.31556 0.71096
 C284 C 1.19722 1.30982 0.68310
 H285 H 1.25425 1.31888 0.78713
 H286 H 1.31880 1.24844 0.71101
 H287 H 1.17997 1.25299 0.71218
 H288 H 1.24649 1.18521 0.78923
 H289 H 1.36884 1.30415 0.75424
 H290 H 1.35968 1.18218 0.74879
 H291 H 1.31129 1.13975 0.75208
 H292 H 1.18429 1.14203 0.74633
 H293 H 1.31991 1.35799 0.75604
 H294 H 1.18983 1.36131 0.75113
 H295 H 1.14181 1.31898 0.74762
 H296 H 1.13341 1.19376 0.74360
 H297 H 1.34203 1.33026 0.71561
 H298 H 1.26972 1.26524 0.64701
 H299 H 1.23290 1.23406 0.85266
 H300 H 1.15967 1.17080 0.78451
 Zr301 Zr 0.74811 0.74798 0.80070
 O302 O 0.77672 0.77460 0.83377
 O303 O 0.71282 0.71686 0.82510
 O304 O 0.71375 0.78115 0.82467
 O305 O 0.81358 0.68527 0.78951
 O306 O 0.68496 0.81301 0.78989
 O307 O 0.78199 0.71426 0.82448
 O308 O 0.67848 0.69025 0.79055
 O309 O 0.70056 0.75070 0.77623
 O310 O 0.74636 0.70258 0.77570
 O311 O 0.75251 0.79408 0.77628
 O312 O 0.79651 0.74771 0.77638
 Zr313 Zr 0.75073 0.75066 0.69933
 Zr314 Zr 0.70621 0.79507 0.75020
 Zr315 Zr 0.79256 0.70344 0.74984
 Zr316 Zr 0.70023 0.70627 0.75026
 O317 O 0.84969 0.70498 0.74862
 O318 O 0.64417 0.71756 0.74943
 O319 O 0.74630 0.70408 0.72350
 O320 O 0.70281 0.75067 0.72397
 O321 O 0.75249 0.79638 0.72403
 O322 O 0.79787 0.74787 0.72418
 C323 C 0.68706 0.69651 0.81718
 C324 C 0.80598 0.69204 0.81623
 C325 C 0.69111 0.80475 0.81656
 O326 O 0.64915 0.79347 0.74773
 O327 O 0.68925 0.81705 0.71063
 O328 O 0.71913 0.78648 0.67566
 C329 C 0.69677 0.81021 0.68392
 O330 O 0.82346 0.80990 0.78879
 Zr331 Zr 0.79853 0.79229 0.74988
 O332 O 0.78583 0.78228 0.67502
 O333 O 0.71348 0.84963 0.75276
 O334 O 0.79240 0.84717 0.75100
 O335 O 0.85501 0.78327 0.74802
 O336 O 0.81700 0.81200 0.70974
 C337 C 0.80935 0.80499 0.68308
 O338 O 0.72062 0.72581 0.66616
 O339 O 0.78546 0.64876 0.75091
 O340 O 0.78235 0.71513 0.67529
 O341 O 0.80898 0.68151 0.71006
 O342 O 0.70417 0.65121 0.75190
 O343 O 0.67914 0.68423 0.71145
 C344 C 0.80277 0.68971 0.68337
 H345 H 0.74571 0.68107 0.78756
 H346 H 0.68125 0.75138 0.71125
 H347 H 0.82007 0.74652 0.71223
 H348 H 0.75381 0.81473 0.78909
 H349 H 0.63113 0.69590 0.75469
 H350 H 0.64058 0.81788 0.74881
 H351 H 0.68909 0.86021 0.75183
 H352 H 0.81606 0.85759 0.74589
 H353 H 0.67988 0.64203 0.75680
 H354 H 0.80993 0.63833 0.75160
 H355 H 0.85809 0.68051 0.74788
 H356 H 0.86681 0.80578 0.74335
 H357 H 0.65793 0.66955 0.71619
 H358 H 0.73021 0.73419 0.64726
 H359 H 0.76736 0.76607 0.85269
 H360 H 0.84059 0.82894 0.78419
 Zr361 Zr 1.25211 0.74795 0.19941
 O362 O 1.22380 0.77480 0.16629
 O363 O 1.28713 0.71654 0.17509
 O364 O 1.28680 0.78082 0.17544
 O365 O 1.18600 0.68574 0.21056
 O366 O 1.31588 0.81245 0.21017
 O367 O 1.21803 0.71448 0.17563
 O368 O 1.32109 0.68957 0.20971
 O369 O 1.29966 0.75030 0.22392
 O370 O 1.25337 0.70254 0.22448
 O371 O 1.24813 0.79409 0.22375
 O372 O 1.20365 0.74809 0.22365
 Zr373 Zr 1.24934 0.75068 0.30073
 Zr374 Zr 1.29440 0.79472 0.24988
 Zr375 Zr 1.20711 0.70378 0.25025
 Zr376 Zr 1.29949 0.70587 0.24995
 O377 O 1.14999 0.70581 0.25142
 O378 O 1.35566 0.71674 0.25077
 O379 O 1.25334 0.70407 0.27664
 O380 O 1.29732 0.75030 0.27617
 O381 O 1.24808 0.79642 0.27598
 O382 O 1.20220 0.74824 0.27585
 C383 C 1.31263 0.69592 0.18306
 C384 C 1.19381 0.69243 0.18385
 C385 C 1.30965 0.80423 0.18351
 O386 O 1.35144 0.79268 0.25243
 O387 O 1.31150 0.81659 0.28943
 O388 O 1.28116 0.78629 0.32439
 C389 C 1.30377 0.80984 0.31614
 O390 O 1.17735 0.81051 0.21113
 Zr391 Zr 1.20203 0.79269 0.25010
 O392 O 1.21448 0.78253 0.32498
 O393 O 1.28770 0.84934 0.24718
 O394 O 1.20872 0.84751 0.24886
 O395 O 1.14546 0.78411 0.25193
 O396 O 1.18370 0.81257 0.29020
 C397 C 1.19122 0.80547 0.31688
 O398 O 1.27919 0.72563 0.33397
 O399 O 1.21359 0.64904 0.24928
 O400 O 1.21744 0.71537 0.32478
 O401 O 1.19051 0.68196 0.29006
 O402 O 1.29501 0.65084 0.24848
 O403 O 1.32030 0.68370 0.28883
 C404 C 1.19683 0.69009 0.31673
 H405 H 1.25382 0.68102 0.21266
 H406 H 1.31885 0.75084 0.28892
 H407 H 1.17998 0.74707 0.28779
 H408 H 1.24705 0.81475 0.21090
 H409 H 1.36849 0.69498 0.24557
 H410 H 1.36024 0.81702 0.25129
 H411 H 1.31219 0.85972 0.24813
 H412 H 1.18515 0.85813 0.25394
 H413 H 1.31922 0.64145 0.24363
 H414 H 1.18901 0.63883 0.24859
 H415 H 1.14134 0.68141 0.25221
 H416 H 1.13388 0.80670 0.25655
 H417 H 1.34143 0.66892 0.28416
 H418 H 1.26965 0.73407 0.35286
 H419 H 1.23310 0.76621 0.14738
 H420 H 1.16035 0.82964 0.21569
 Zr421 Zr 0.74832 1.25206 0.19922
 O422 O 0.77653 1.22543 0.16594
 O423 O 0.71331 1.28374 0.17507
 O424 O 0.71358 1.21930 0.17519
 O425 O 0.81467 1.31401 0.21057
 O426 O 0.68446 1.18753 0.20991
 O427 O 0.78259 1.28566 0.17553
 O428 O 0.67950 1.31056 0.20986
 O429 O 0.70079 1.24964 0.22381
 O430 O 0.74722 1.29728 0.22447
 O431 O 0.75220 1.20575 0.22345
 O432 O 0.79678 1.25159 0.22344
 Zr433 Zr 0.75114 1.24854 0.30064
 Zr434 Zr 0.70594 1.20502 0.24964
 Zr435 Zr 0.79347 1.29571 0.25021
 Zr436 Zr 0.70110 1.29387 0.25001
 O437 O 0.85058 1.29350 0.25130
 O438 O 0.64491 1.28313 0.25085
 O439 O 0.74726 1.29533 0.27667
 O440 O 0.70317 1.24925 0.27610
 O441 O 0.75225 1.20299 0.27570
 O442 O 0.79826 1.25105 0.27568
 C443 C 0.68788 1.30439 0.18317
 C444 C 0.80690 1.30757 0.18382
 C445 C 0.69071 1.19585 0.18325
 O446 O 0.64890 1.20724 0.25220
 O447 O 0.68868 1.18291 0.28914
 O448 O 0.71911 1.21282 0.32421
 C449 C 0.69638 1.18941 0.31588
 O450 O 0.82289 1.18915 0.21073
 Zr451 Zr 0.79829 1.20681 0.24976
 O452 O 0.78599 1.21641 0.32471
 O453 O 0.71250 1.15040 0.24682
 O454 O 0.79143 1.15201 0.24838
 O455 O 0.85488 1.21528 0.25151
 O456 O 0.81666 1.18660 0.28976
 C457 C 0.80921 1.19351 0.31649
 O458 O 0.72142 1.27340 0.33404
 O459 O 0.78711 1.35047 0.24944
 O460 O 0.78317 1.28368 0.32476
 O461 O 0.81018 1.31721 0.29007
 O462 O 0.70580 1.34890 0.24874
 O463 O 0.68034 1.31581 0.28897
 C464 C 0.80387 1.30896 0.31673
 H465 H 0.74682 1.31888 0.21273
 H466 H 0.68164 1.24868 0.28886
 H467 H 0.82050 1.25209 0.28759
 H468 H 0.75322 1.18517 0.21054
 H469 H 0.63213 1.30497 0.24575
 H470 H 0.64001 1.18293 0.25099
 H471 H 0.68799 1.14007 0.24774
 H472 H 0.81496 1.14129 0.25339
 H473 H 0.68164 1.35841 0.24394
 H474 H 0.81171 1.36064 0.24875
 H475 H 0.85931 1.31787 0.25218
 H476 H 0.86643 1.19264 0.25606
 H477 H 0.65928 1.33071 0.28436
 H478 H 0.73097 1.26477 0.35286
 H479 H 0.76723 1.23421 0.14708
 H480 H 0.83986 1.16996 0.21521
 N481 N 0.56433 1.03674 0.03141
 N482 N 0.58968 1.05974 0.03788
 N483 N 0.53908 0.96352 0.05143
 N484 N 0.54696 0.94113 0.07225
 N485 N 0.56438 0.96353 0.03139
 N486 N 0.59018 0.94117 0.03811
 N487 N 0.53890 1.03671 0.05135
 N488 N 0.54620 1.05968 0.07183
 C489 C 0.57754 1.07421 0.06286
 C490 C 0.57846 0.92698 0.06332
 N491 N 0.43579 0.96328 0.03151
 N492 N 0.41054 0.94017 0.03800
 N493 N 0.46100 1.03650 0.05141
 N494 N 0.45302 1.05876 0.07227
 N495 N 0.43567 1.03647 0.03141
 N496 N 0.40976 1.05868 0.03822
 N497 N 0.46122 0.96334 0.05143
 N498 N 0.45403 0.94028 0.07190
 Mn499 Mn 0.50005 1.00002 0.05161
 C500 C 0.42276 0.92568 0.06294
 C501 C 0.42144 1.07282 0.06342
 N502 N 0.56434 0.96340 -0.03145
 N503 N 0.58975 0.94052 -0.03800
 N504 N 0.53897 1.03654 -0.05142
 N505 N 0.54676 1.05905 -0.07218
 N506 N 0.56428 1.03659 -0.03141
 N507 N 0.58999 1.05910 -0.03808
 N508 N 0.53890 0.96336 -0.05136
 N509 N 0.54627 0.94048 -0.07189
 Mn510 Mn 0.56466 1.00006 -0.00002
 C511 C 0.57765 0.92606 -0.06298
 C512 C 0.57820 1.07332 -0.06323
 N513 N 0.43568 1.03657 -0.03143
 N514 N 0.41033 1.05954 -0.03794
 N515 N 0.46098 0.96337 -0.05135
 N516 N 0.45305 0.94100 -0.07214
 N517 N 0.43567 0.96336 -0.03131
 N518 N 0.40984 0.94100 -0.03801
 N519 N 0.46109 1.03656 -0.05139
 N520 N 0.45378 1.05952 -0.07190
 Mn521 Mn 0.43537 0.99992 0.00005
 Mn522 Mn 0.49999 0.99996 -0.05159
 Cl523 Cl 0.50002 0.99999 0.00001
 C524 C 0.42246 1.07401 -0.06294
 C525 C 0.42153 0.92683 -0.06320
 N526 N 1.03846 0.43829 0.53138
 N527 N 1.06201 0.41366 0.53799
 N528 N 0.96251 0.46216 0.55151
 N529 N 0.93957 0.45413 0.57243
 N530 N 0.96258 0.43789 0.53140
 N531 N 0.93974 0.41272 0.53815
 N532 N 1.03842 0.46271 0.55137
 N533 N 1.06194 0.45537 0.57202
 C534 C 1.07686 0.42513 0.56308
 C535 C 0.92513 0.42368 0.56344
 N536 N 0.96179 0.56171 0.53149
 N537 N 0.93825 0.58631 0.53817
 N538 N 1.03791 0.53789 0.55136
 N539 N 1.06059 0.54618 0.57237
 N540 N 1.03769 0.56218 0.53122
 N541 N 1.06019 0.58759 0.53804
 N542 N 0.96198 0.53729 0.55151
 N543 N 0.93857 0.54459 0.57227
 Mn544 Mn 1.00021 0.50000 0.55165
 C545 C 0.92356 0.57482 0.56335
 C546 C 1.07478 0.57679 0.56340
 N547 N 0.96230 0.43783 0.46867
 N548 N 0.93905 0.41292 0.46204
 N549 N 1.03801 0.46254 0.44850
 N550 N 1.06079 0.45464 0.42745
 N551 N 1.03820 0.43825 0.46863
 N552 N 1.06107 0.41320 0.46176
 N553 N 0.96208 0.46227 0.44866
 N554 N 0.93869 0.45467 0.42798
 Mn555 Mn 1.00039 0.43778 0.50003
 C556 C 0.92411 0.42423 0.43692
 C557 C 1.07544 0.42425 0.43638
 N558 N 1.03761 0.56208 0.46849
 N559 N 1.06114 0.58677 0.46192
 N560 N 0.96181 0.53741 0.44863
 N561 N 0.93899 0.54537 0.42763
 N562 N 0.96174 0.56170 0.46873
 N563 N 0.93891 0.58681 0.46187
 N564 N 1.03771 0.53765 0.44851
 N565 N 1.06129 0.54502 0.42790
 Mn566 Mn 0.99970 0.56219 0.49998
 Mn567 Mn 0.99990 0.49997 0.44837
 Cl568 Cl 1.00005 0.49999 0.50001
 C569 C 1.07609 0.57532 0.43686
 C570 C 0.92444 0.57580 0.43655
 N571 N 1.03869 0.43847 0.03105
 N572 N 1.06203 0.41368 0.03779
 N573 N 0.96278 0.46290 0.05105
 N574 N 0.93990 0.45503 0.07207
 N575 N 0.96273 0.43853 0.03101
 N576 N 0.93984 0.41344 0.03795
 N577 N 1.03874 0.46293 0.05100
 N578 N 1.06211 0.45548 0.07174
 C579 C 1.07686 0.42510 0.06292
 C580 C 0.92533 0.42455 0.06326
 N581 N 0.96291 0.56256 0.03104
 N582 N 0.93952 0.58731 0.03778
 N583 N 1.03877 0.53804 0.05089
 N584 N 1.06181 0.54575 0.07179
 N585 N 1.03884 0.56243 0.03083
 N586 N 1.06189 0.58740 0.03764
 N587 N 0.96284 0.53805 0.05099
 N588 N 0.93943 0.54544 0.07174
 Mn589 Mn 1.00078 0.50048 0.05117
 C590 C 0.92467 0.57582 0.06292
 C591 C 1.07647 0.57615 0.06288
 N592 N 0.96264 0.43860 -0.03187
 N593 N 0.93920 0.41388 -0.03858
 N594 N 1.03865 0.46297 -0.05185
 N595 N 1.06177 0.45525 -0.07269
 N596 N 1.03858 0.43859 -0.03179
 N597 N 1.06163 0.41362 -0.03852
 N598 N 0.96270 0.46307 -0.05186
 N599 N 0.93931 0.45567 -0.07260
 Mn600 Mn 1.00065 0.43826 -0.00040
 C601 C 0.92443 0.42533 -0.06374
 C602 C 1.07635 0.42484 -0.06374
 N603 N 1.03894 0.56264 -0.03208
 N604 N 1.06198 0.58764 -0.03911
 N605 N 0.96293 0.53819 -0.05184
 N606 N 0.93962 0.54580 -0.07257
 N607 N 0.96298 0.56254 -0.03180
 N608 N 0.93973 0.58739 -0.03843
 N609 N 1.03890 0.53817 -0.05204
 N610 N 1.06190 0.54586 -0.07304
 Mn611 Mn 1.00092 0.56284 -0.00050
 Mn612 Mn 1.00080 0.50059 -0.05209
 Cl613 Cl 1.00080 0.50054 -0.00046
 C614 C 1.07656 0.57637 -0.06439
 C615 C 0.92493 0.57612 -0.06357
 N616 N 0.56370 1.03620 0.53172
 N617 N 0.58917 1.05901 0.53833
 N618 N 0.53876 0.96287 0.55169
 N619 N 0.54699 0.94069 0.57257
 N620 N 0.56401 0.96305 0.53159
 N621 N 0.59009 0.94102 0.53834
 N622 N 0.53834 1.03603 0.55172
 N623 N 0.54584 1.05871 0.57238
 C624 C 0.57720 1.07323 0.56344
 C625 C 0.57861 0.92683 0.56360
 N626 N 0.43531 0.96231 0.53200
 N627 N 0.40956 0.93987 0.53894
 N628 N 0.46040 1.03557 0.55186
 N629 N 0.45230 1.05775 0.57275
 N630 N 0.43510 1.03550 0.53184
 N631 N 0.40910 1.05759 0.53864
 N632 N 0.46075 0.96238 0.55192
 N633 N 0.45302 0.94000 0.57281
 Mn634 Mn 0.49957 0.99921 0.55199
 C635 C 0.42145 0.92573 0.56414
 C636 C 0.42068 1.07170 0.56386
 N637 N 0.56395 0.96303 0.46879
 N638 N 0.58958 0.94044 0.46210
 N639 N 0.53840 1.03613 0.44884
 N640 N 0.54657 1.05808 0.42775
 N641 N 0.56371 1.03622 0.46886
 N642 N 0.58978 1.05820 0.46183
 N643 N 0.53850 0.96294 0.44888
 N644 N 0.54609 0.94030 0.42822
 Mn645 Mn 0.56414 0.99963 0.50025
 C646 C 0.57761 0.92609 0.43704
 C647 C 0.57824 1.07211 0.43648
 N648 N 0.43504 1.03570 0.46902
 N649 N 0.40944 1.05838 0.46244
 N650 N 0.46059 0.96271 0.44904
 N651 N 0.45253 0.94061 0.42809
 N652 N 0.43533 0.96255 0.46912
 N653 N 0.40940 0.94036 0.46229
 N654 N 0.46044 1.03586 0.44905
 N655 N 0.45286 1.05864 0.42846
 Mn656 Mn 0.43489 0.99901 0.50049
 Mn657 Mn 0.49947 0.99941 0.44877
 Cl658 Cl 0.49952 0.99931 0.50038
 C659 C 0.42140 1.07286 0.43739
 C660 C 0.42100 0.92644 0.43699
 N661 N 1.06467 1.03599 0.53171
 N662 N 1.08998 1.05900 0.53814
 N663 N 1.03898 0.96287 0.55169
 N664 N 1.04602 0.93990 0.57223
 N665 N 1.06455 0.96281 0.53187
 N666 N 1.08978 0.93977 0.53851
 N667 N 1.03920 1.03600 0.55160
 N668 N 1.04643 1.05902 0.57204
 C669 C 1.07775 1.07350 0.56304
 C670 C 1.07735 0.92534 0.56344
 N671 N 0.93597 0.96304 0.53144
 N672 N 0.91069 0.93992 0.53772
 N673 N 0.96150 1.03613 0.55143
 N674 N 0.95448 1.05932 0.57176
 N675 N 0.93610 1.03621 0.53150
 N676 N 0.91100 1.05948 0.53783
 N677 N 0.96128 0.96301 0.55144
 N678 N 0.95398 0.93987 0.57180
 Mn679 Mn 1.00023 0.99950 0.55175
 C680 C 0.92278 0.92535 0.56265
 C681 C 0.92332 1.07401 0.56271
 N682 N 1.06476 0.96287 0.46905
 N683 N 1.09012 0.93993 0.46263
 N684 N 1.03943 1.03605 0.44904
 N685 N 1.04632 1.05950 0.42884
 N686 N 1.06484 1.03605 0.46895
 N687 N 1.08983 1.05952 0.46275
 N688 N 1.03944 0.96294 0.44906
 N689 N 1.04681 0.94004 0.42857
 Mn690 Mn 1.06509 0.99943 0.50039
 C691 C 1.07806 0.92553 0.43763
 C692 C 1.07743 1.07423 0.43795
 N693 N 0.93628 1.03618 0.46870
 N694 N 0.91087 1.05900 0.46208
 N695 N 0.96174 0.96299 0.44888
 N696 N 0.95479 0.93979 0.42854
 N697 N 0.93618 0.96300 0.46870
 N698 N 0.91105 0.93978 0.46228
 N699 N 0.96174 1.03612 0.44880
 N700 N 0.95440 1.05891 0.42818
 Mn701 Mn 0.93575 0.99961 0.50009
 Mn702 Mn 1.00060 0.99953 0.44873
 Cl703 Cl 1.00042 0.99951 0.50024
 C704 C 0.92303 1.07335 0.43706
 C705 C 0.92351 0.92519 0.43746
 N706 N 0.56392 0.53658 0.03125
 N707 N 0.58920 0.55961 0.03769
 N708 N 0.53838 0.46341 0.05108
 N709 N 0.54522 0.44007 0.07134
 N710 N 0.56390 0.46344 0.03123
 N711 N 0.58891 0.44009 0.03755
 N712 N 0.53849 0.53650 0.05117
 N713 N 0.54570 0.55947 0.07163
 C714 C 0.57697 0.57402 0.06262
 C715 C 0.57639 0.42541 0.06233
 N716 N 0.43543 0.46344 0.03103
 N717 N 0.41024 0.44024 0.03730
 N718 N 0.46090 0.53649 0.05106
 N719 N 0.45420 0.55995 0.07122
 N720 N 0.43545 0.53657 0.03118
 N721 N 0.41060 0.56013 0.03737
 N722 N 0.46080 0.46342 0.05098
 N723 N 0.45365 0.44019 0.07129
 Mn724 Mn 0.49963 0.49995 0.05130
 C725 C 0.42248 0.42561 0.06215
 C726 C 0.42316 0.57478 0.06211
 N727 N 0.56401 0.46371 -0.03148
 N728 N 0.58931 0.44072 -0.03790
 N729 N 0.53847 0.53686 -0.05128
 N730 N 0.54507 0.56059 -0.07128
 N731 N 0.56392 0.53684 -0.03140
 N732 N 0.58867 0.56059 -0.03742
 N733 N 0.53866 0.46380 -0.05144
 N734 N 0.54593 0.44085 -0.07191
 Mn735 Mn 0.56434 0.50014 -0.00011
 C736 C 0.57716 0.42632 -0.06285
 C737 C 0.57605 0.57546 -0.06207
 N738 N 0.43544 0.53671 -0.03153
 N739 N 0.40999 0.55952 -0.03806
 N740 N 0.46108 0.46369 -0.05148
 N741 N 0.45447 0.44019 -0.07164
 N742 N 0.43556 0.46357 -0.03164
 N743 N 0.41076 0.43995 -0.03784
 N744 N 0.46087 0.53677 -0.05145
 N745 N 0.45349 0.55963 -0.07200
 Mn746 Mn 0.43506 0.50007 -0.00024
 Mn747 Mn 0.49978 0.50028 -0.05164
 Cl748 Cl 0.49970 0.50011 -0.00017
 C749 C 0.42212 0.57398 -0.06304
 C750 C 0.42342 0.42530 -0.06256
 C751 C 0.36225 1.13245 0.11898
 C752 C 0.34017 1.16029 0.11061
 C753 C 0.32104 1.17918 0.13161
 C754 C 0.32385 1.17040 0.16127
 C755 C 0.34594 1.14216 0.16931
 C756 C 0.36493 1.12340 0.14834
 C757 C 0.38244 1.11286 0.09785
 C758 C 0.40001 1.09526 0.08142
 H759 H 0.33787 1.16749 0.08791
 H760 H 0.30437 1.20079 0.12466
 H761 H 0.34879 1.13459 0.19187
 H762 H 0.38189 1.10186 0.15506
 C763 C 0.85914 0.63029 0.61835
 C764 C 0.83870 0.65936 0.61013
 C765 C 0.81975 0.67846 0.63113
 C766 C 0.82118 0.66877 0.66065
 C767 C 0.84142 0.63919 0.66850
 C768 C 0.86019 0.62017 0.64753
 C769 C 0.88038 0.61136 0.59739
 C770 C 0.89942 0.59493 0.58113
 H771 H 0.83779 0.66751 0.58760
 H772 H 0.80452 0.70111 0.62431
 H773 H 0.84311 0.63083 0.69094
 H774 H 0.87597 0.59778 0.65417
 C775 C 0.63740 0.86691 0.11873
 C776 C 0.65958 0.83917 0.11034
 C777 C 0.67869 0.82024 0.13135
 C778 C 0.67576 0.82889 0.16101
 C779 C 0.65353 0.85701 0.16906
 C780 C 0.63456 0.87581 0.14809
 C781 C 0.61729 0.88661 0.09762
 C782 C 0.59979 0.90435 0.08123
 H783 H 0.66199 0.83209 0.08764
 H784 H 0.69547 0.79872 0.12439
 H785 H 0.65058 0.86449 0.19162
 H786 H 0.61752 0.89728 0.15482
 C787 C 1.14114 0.36942 0.61800
 C788 C 1.14010 0.37954 0.64717
 C789 C 1.15877 0.36045 0.66816
 C790 C 1.17888 0.33078 0.66035
 C791 C 1.18029 0.32108 0.63085
 C792 C 1.16144 0.34026 0.60982
 C793 C 1.11998 0.38843 0.59705
 C794 C 1.10098 0.40494 0.58081
 H795 H 1.12442 0.40200 0.65377
 H796 H 1.15710 0.36882 0.69058
 H797 H 1.19543 0.29837 0.62407
 H798 H 1.16233 0.33210 0.58731
 C799 C 0.63709 1.13350 -0.11862
 C800 C 0.63427 1.12452 -0.14796
 C801 C 0.65329 1.14325 -0.16896
 C802 C 0.67555 1.17139 -0.16095
 C803 C 0.67845 1.18014 -0.13132
 C804 C 0.65929 1.16127 -0.11027
 C805 C 0.61697 1.11383 -0.09749
 C806 C 0.59948 1.09605 -0.08111
 H807 H 0.61722 1.10302 -0.15464
 H808 H 0.65037 1.13570 -0.19150
 H809 H 0.69526 1.20168 -0.12440
 H810 H 0.66168 1.16840 -0.08759
 C811 C 1.14053 0.63081 0.38191
 C812 C 1.16114 0.65979 0.39006
 C813 C 1.18005 0.67886 0.36899
 C814 C 1.17839 0.66922 0.33949
 C815 C 1.15796 0.63973 0.33170
 C816 C 1.13923 0.62075 0.35274
 C817 C 1.11933 0.61193 0.40291
 C818 C 1.10028 0.59549 0.41918
 H819 H 1.16222 0.66789 0.41259
 H820 H 1.19544 0.70144 0.37575
 H821 H 1.15611 0.63143 0.30927
 H822 H 1.12330 0.59842 0.34617
 C823 C 0.36241 0.86682 -0.11857
 C824 C 0.36532 0.87575 -0.14794
 C825 C 0.34626 0.85707 -0.16891
 C826 C 0.32384 0.82902 -0.16087
 C827 C 0.32084 0.82032 -0.13121
 C828 C 0.34006 0.83914 -0.11019
 C829 C 0.38259 0.88647 -0.09746
 C830 C 0.40015 0.90420 -0.08109
 H831 H 0.38249 0.89716 -0.15467
 H832 H 0.34927 0.86459 -0.19147
 H833 H 0.30392 0.79886 -0.12426
 H834 H 0.33757 0.83204 -0.08749
 C835 C 0.86028 0.36817 0.38189
 C836 C 0.86174 0.37812 0.35268
 C837 C 0.84302 0.35913 0.33167
 C838 C 0.82241 0.32974 0.33950
 C839 C 0.82063 0.32017 0.36904
 C840 C 0.83953 0.33925 0.39009
 C841 C 0.88132 0.38721 0.40291
 C842 C 0.90019 0.40382 0.41919
 H843 H 0.87775 0.40039 0.34606
 H844 H 0.84499 0.36739 0.30921
 H845 H 0.80511 0.29768 0.37584
 H846 H 0.83830 0.33123 0.41264
 C847 C 1.14080 0.36954 0.11840
 C848 C 1.13604 0.37690 0.14791
 C849 C 1.15489 0.35804 0.16897
 C850 C 1.17893 0.33132 0.16090
 C851 C 1.18401 0.32440 0.13110
 C852 C 1.16499 0.34337 0.11000
 C853 C 1.11978 0.38843 0.09721
 C854 C 1.10087 0.40487 0.08080
 H855 H 1.11739 0.39706 0.15471
 H856 H 1.15027 0.36423 0.19162
 H857 H 1.20228 0.30407 0.12408
 H858 H 1.16888 0.33738 0.08722
 C859 C 0.63879 0.86816 0.61909
 C860 C 0.66369 0.84272 0.61055
 C861 C 0.68308 0.82408 0.63156
 C862 C 0.67769 0.83072 0.66136
 C863 C 0.65285 0.85667 0.66956
 C864 C 0.63360 0.87517 0.64859
 C865 C 0.61829 0.88742 0.59798
 C866 C 0.60039 0.90472 0.58157
 H867 H 0.66798 0.83719 0.58773
 H868 H 0.70197 0.80432 0.62448
 H869 H 0.64797 0.86255 0.69224
 H870 H 0.61448 0.89489 0.65543
 C871 C 1.13971 0.63266 -0.12038
 C872 C 1.13351 0.62672 -0.14991
 C873 C 1.15234 0.64562 -0.17100
 C874 C 1.17804 0.67125 -0.16309
 C875 C 1.18440 0.67661 -0.13307
 C876 C 1.16535 0.65753 -0.11200
 C877 C 1.11891 0.61349 -0.09908
 C878 C 1.10024 0.59685 -0.08253
 H879 H 1.11376 0.60754 -0.15671
 H880 H 1.14629 0.64015 -0.19358
 H881 H 1.20383 0.69576 -0.12568
 H882 H 1.17043 0.66239 -0.08919
 C883 C 0.63815 1.13108 0.38064
 C884 C 0.63242 1.12475 0.35109
 C885 C 0.65168 1.14341 0.33015
 C886 C 0.67710 1.16884 0.33841
 C887 C 0.68298 1.17483 0.36824
 C888 C 0.66359 1.15604 0.38922
 C889 C 0.61771 1.11160 0.40178
 C890 C 0.59991 1.09422 0.41828
 H891 H 0.61288 1.10543 0.34419
 H892 H 0.64638 1.13802 0.30745
 H893 H 0.70232 1.19418 0.37538
 H894 H 0.66832 1.16108 0.41206
 C895 C 0.86032 0.63098 0.11837
 C896 C 0.86514 0.62367 0.14789
 C897 C 0.84608 0.64234 0.16893
 C898 C 0.82175 0.66882 0.16083
 C899 C 0.81662 0.67569 0.13102
 C900 C 0.83584 0.65691 0.10994
 C901 C 0.88151 0.61226 0.09718
 C902 C 0.90054 0.59595 0.08078
 H903 H 0.88400 0.60370 0.15472
 H904 H 0.85075 0.63620 0.19159
 H905 H 0.79813 0.69584 0.12398
 H906 H 0.83190 0.66285 0.08715
 C907 C 0.36102 1.13094 0.61929
 C908 C 0.33598 1.15623 0.61068
 C909 C 0.31673 1.17507 0.63163
 C910 C 0.32239 1.16878 0.66146
 C911 C 0.34740 1.14301 0.66974
 C912 C 0.36651 1.12430 0.64882
 C913 C 0.38134 1.11145 0.59822
 C914 C 0.39908 1.09397 0.58183
 H915 H 0.33146 1.16149 0.58783
 H916 H 0.29770 1.19469 0.62449
 H917 H 0.35251 1.13739 0.69244
 H918 H 0.38575 1.10471 0.65572
 C919 C 0.86016 0.36981 -0.11900
 C920 C 0.83573 0.34385 -0.11044
 C921 C 0.81657 0.32486 -0.13142
 C922 C 0.82173 0.33153 -0.16127
 C923 C 0.84602 0.35803 -0.16949
 C924 C 0.86500 0.37692 -0.14856
 C925 C 0.88130 0.38873 -0.09791
 C926 C 0.90031 0.40515 -0.08157
 H927 H 0.83176 0.33806 -0.08762
 H928 H 0.79811 0.30470 -0.12429
 H929 H 0.85070 0.36403 -0.19218
 H930 H 0.88383 0.39690 -0.15548
 C931 C 0.36147 0.86766 0.38117
 C932 C 0.33602 0.84263 0.38962
 C933 C 0.31678 0.82401 0.36853
 C934 C 0.32287 0.83025 0.33875
 C935 C 0.34830 0.85575 0.33062
 C936 C 0.36740 0.87424 0.35168
 C937 C 0.38172 0.88696 0.40240
 C938 C 0.39942 0.90430 0.41891
 H939 H 0.33115 0.83743 0.41243
 H940 H 0.29741 0.80460 0.37555
 H941 H 0.35374 0.86130 0.30796
 H942 H 0.38697 0.89363 0.34492
 C943 C 1.13096 1.13944 0.38314
 C944 C 1.12014 1.13745 0.35408
 C945 C 1.13834 1.15651 0.33280
 C946 C 1.16776 1.17792 0.34027
 C947 C 1.17804 1.18030 0.36969
 C948 C 1.15977 1.16108 0.39098
 C949 C 1.11310 1.11796 0.40434
 C950 C 1.09730 1.09865 0.42062
 H951 H 1.09790 1.12072 0.34778
 H952 H 1.12960 1.15409 0.31044
 H953 H 1.20060 1.19648 0.37620
 H954 H 1.16841 1.16272 0.41343
 C955 C 0.62924 0.64067 -0.11679
 C956 C 0.61815 0.63876 -0.14578
 C957 C 0.63653 0.65744 -0.16717
 C958 C 0.66637 0.67836 -0.15983
 C959 C 0.67687 0.68071 -0.13047
 C960 C 0.65842 0.66187 -0.10908
 C961 C 0.61143 0.61934 -0.09555
 C962 C 0.59574 0.60002 -0.07928
 H963 H 0.59561 0.62233 -0.15194
 H964 H 0.62762 0.65509 -0.18949
 H965 H 0.69974 0.69655 -0.12407
 H966 H 0.66726 0.66340 -0.08667
 C967 C 0.86915 1.13851 0.61766
 C968 C 0.84075 1.16053 0.60961
 C969 C 0.82233 1.17974 0.63080
 C970 C 0.83207 1.17699 0.66032
 C971 C 0.86105 1.15515 0.66801
 C972 C 0.87939 1.13610 0.64684
 C973 C 0.88729 1.11723 0.59648
 C974 C 0.90328 1.09814 0.58017
 H975 H 0.83255 1.16252 0.58708
 H976 H 0.80014 1.19626 0.62411
 H977 H 0.86938 1.15242 0.69046
 H978 H 0.90132 1.11908 0.65330
 C979 C 0.36994 0.63957 0.11710
 C980 C 0.34119 0.66127 0.10933
 C981 C 0.32290 0.68023 0.13069
 C982 C 0.33312 0.67752 0.16011
 C983 C 0.36250 0.65606 0.16752
 C984 C 0.38072 0.63725 0.14615
 C985 C 0.38773 0.61832 0.09581
 C986 C 0.40342 0.59913 0.07946
 H987 H 0.33259 0.66315 0.08688
 H988 H 0.30039 0.69648 0.12423
 H989 H 0.37118 0.65340 0.18988
 H990 H 0.40293 0.62045 0.15237
 C991 C 1.13181 0.86185 0.61918
 C992 C 1.15852 0.83803 0.61112
 C993 C 1.17695 0.81892 0.63238
 C994 C 1.16904 0.82348 0.66226
 C995 C 1.14149 0.84732 0.66983
 C996 C 1.12322 0.86622 0.64851
 C997 C 1.11355 0.88277 0.59777
 C998 C 1.09749 0.90155 0.58122
 H999 H 1.16538 0.83445 0.58842
 H1000 H 1.19769 0.80095 0.62526
 H1001 H 1.13408 0.85186 0.69229
 H1002 H 1.10254 0.88462 0.65498
 C1003 C 0.63024 0.36105 0.11746
 C1004 C 0.61985 0.36354 0.14660
 C1005 C 0.63821 0.34468 0.16789
 C1006 C 0.66734 0.32298 0.16031
 C1007 C 0.67720 0.32015 0.13083
 C1008 C 0.65877 0.33916 0.10954
 C1009 C 0.61220 0.38221 0.09619
 C1010 C 0.59631 0.40126 0.07981
 H1011 H 0.59782 0.38048 0.15295
 H1012 H 0.62980 0.34745 0.19031
 H1013 H 0.69951 0.30372 0.12423
 H1014 H 0.66707 0.33714 0.08702
 C1015 C 0.86940 0.86082 0.38238
 C1016 C 0.84094 0.83880 0.39038
 C1017 C 0.82251 0.81967 0.36916
 C1018 C 0.83228 0.82250 0.33964
 C1019 C 0.86133 0.84434 0.33199
 C1020 C 0.87968 0.86331 0.35320
 C1021 C 0.88753 0.88205 0.40359
 C1022 C 0.90350 0.90110 0.41994
 H1023 H 0.83271 0.83676 0.41292
 H1024 H 0.80027 0.80316 0.37582
 H1025 H 0.86968 0.84713 0.30955
 H1026 H 0.90165 0.88033 0.34677
 C1027 C 0.37035 0.36025 -0.11745
 C1028 C 0.34149 0.33866 -0.10962
 C1029 C 0.32318 0.31965 -0.13094
 C1030 C 0.33348 0.32220 -0.16035
 C1031 C 0.36297 0.34354 -0.16781
 C1032 C 0.38122 0.36240 -0.14650
 C1033 C 0.38812 0.38160 -0.09622
 C1034 C 0.40377 0.40087 -0.07990
 H1035 H 0.33282 0.33693 -0.08717
 H1036 H 0.30057 0.30350 -0.12443
 H1037 H 0.37171 0.34607 -0.19018
 H1038 H 0.40351 0.37912 -0.15276
 C1039 C 1.13702 0.36679 -0.11929
 C1040 C 1.16361 0.34298 -0.11077
 C1041 C 1.18217 0.32355 -0.13175
 C1042 C 1.17425 0.32776 -0.16149
 C1043 C 1.14738 0.35176 -0.16968
 C1044 C 1.12896 0.37106 -0.14874
 C1045 C 1.11729 0.38676 -0.09817
 C1046 C 1.09938 0.40401 -0.08174
 H1047 H 1.16998 0.33943 -0.08798
 H1048 H 1.20274 0.30538 -0.12468
 H1049 H 1.14052 0.35575 -0.19232
 H1050 H 1.10835 0.38936 -0.15556
 C1051 C 0.63403 0.86338 0.38178
 C1052 C 0.66219 0.84112 0.39002
 C1053 C 0.68102 0.82204 0.36893
 C1054 C 0.67194 0.82510 0.33930
 C1055 C 0.64336 0.84736 0.33139
 C1056 C 0.62463 0.86628 0.35245
 C1057 C 0.61504 0.88415 0.40293
 C1058 C 0.59835 0.90269 0.41929
 H1059 H 0.66978 0.83873 0.41267
 H1060 H 0.70290 0.80523 0.37580
 H1061 H 0.63550 0.85039 0.30886
 H1062 H 0.60293 0.88345 0.34579
 C1063 C 0.86348 0.63362 -0.11895
 C1064 C 0.83705 0.65759 -0.11044
 C1065 C 0.81831 0.67684 -0.13144
 C1066 C 0.82590 0.67230 -0.16121
 C1067 C 0.85259 0.64811 -0.16939
 C1068 C 0.87118 0.62899 -0.14843
 C1069 C 0.88346 0.61389 -0.09783
 C1070 C 0.90161 0.59680 -0.08145
 H1071 H 0.83096 0.66142 -0.08763
 H1072 H 0.79789 0.69516 -0.12439
 H1073 H 0.85919 0.64386 -0.19204
 H1074 H 0.89167 0.61057 -0.15524
 C1075 C 0.36528 1.13591 0.38217
 C1076 C 0.33728 1.15837 0.39037
 C1077 C 0.31863 1.17757 0.36923
 C1078 C 0.32774 1.17442 0.33961
 C1079 C 0.35617 1.15197 0.33175
 C1080 C 0.37472 1.13294 0.35285
 C1081 C 0.38410 1.11504 0.40336
 C1082 C 0.40070 1.09639 0.41971
 H1083 H 0.32967 1.16082 0.41301
 H1084 H 0.29686 1.19452 0.37606
 H1085 H 0.36403 1.14888 0.30923
 H1086 H 0.39631 1.11562 0.34623
 C1087 C 1.13679 0.63404 0.11878
 C1088 C 1.16362 0.65773 0.11042
 C1089 C 1.18213 0.67701 0.13151
 C1090 C 1.17395 0.67277 0.16121
 C1091 C 1.14682 0.64891 0.16925
 C1092 C 1.12844 0.62976 0.14819
 C1093 C 1.11718 0.61417 0.09753
 C1094 C 1.09937 0.59698 0.08099
 H1095 H 1.17022 0.66128 0.08767
 H1096 H 1.20290 0.69506 0.12456
 H1097 H 1.13976 0.64492 0.19185
 H1098 H 1.10765 0.61155 0.15488
 C1099 C 0.63356 1.13627 0.61850
 C1100 C 0.66184 1.15839 0.61016
 C1101 C 0.68074 1.17752 0.63117
 C1102 C 0.67162 1.17464 0.66082
 C1103 C 0.64291 1.15253 0.66882
 C1104 C 0.62411 1.13357 0.64784
 C1105 C 0.61454 1.11540 0.59744
 C1106 C 0.59786 1.09676 0.58114
 H1107 H 0.66947 1.16062 0.58750
 H1108 H 0.70272 1.19421 0.62424
 H1109 H 0.63503 1.14965 0.69136
 H1110 H 0.60232 1.11650 0.65457
 C1111 C 0.86465 0.36632 0.11907
 C1112 C 0.87280 0.37031 0.14853
 C1113 C 0.85417 0.35106 0.16947
 C1114 C 0.82697 0.32736 0.16128
 C1115 C 0.81898 0.32342 0.13152
 C1116 C 0.83774 0.34280 0.11055
 C1117 C 0.88449 0.38634 0.09792
 C1118 C 0.90240 0.40363 0.08143
 H1119 H 0.89363 0.38837 0.15537
 H1120 H 0.86111 0.35485 0.19210
 H1121 H 0.79817 0.30550 0.12444
 H1122 H 0.83126 0.33946 0.08777
 C1123 C 0.36432 0.86373 0.61993
 C1124 C 0.33765 0.83987 0.61161
 C1125 C 0.31865 0.82081 0.63270
 C1126 C 0.32592 0.82537 0.66267
 C1127 C 0.35322 0.84944 0.67051
 C1128 C 0.37205 0.86828 0.64940
 C1129 C 0.38361 0.88426 0.59866
 C1130 C 0.40052 0.90259 0.58216
 H1131 H 0.33138 0.83613 0.58883
 H1132 H 0.29808 0.80276 0.62536
 H1133 H 0.36015 0.85409 0.69305
 H1134 H 0.39261 0.88667 0.65614
 C1135 C 0.36687 1.13751 -0.11813
 C1136 C 0.37345 1.13162 -0.14764
 C1137 C 0.35497 1.15070 -0.16874
 C1138 C 0.32946 1.17612 -0.16071
 C1139 C 0.32326 1.18220 -0.13091
 C1140 C 0.34185 1.16295 -0.10976
 C1141 C 0.38558 1.11662 -0.09689
 C1142 C 0.40202 1.09783 -0.08055
 H1143 H 0.39273 1.11200 -0.15438
 H1144 H 0.36056 1.14527 -0.19139
 H1145 H 0.30385 1.20156 -0.12394
 H1146 H 0.33652 1.16772 -0.08697
 C1147 C 0.86515 0.63505 0.38086
 C1148 C 0.84127 0.66137 0.38945
 C1149 C 0.82306 0.68114 0.36847
 C1150 C 0.82863 0.67476 0.33866
 C1151 C 0.85291 0.64835 0.33040
 C1152 C 0.87097 0.62871 0.35134
 C1153 C 0.88444 0.61464 0.40196
 C1154 C 0.90192 0.59699 0.41840
 H1155 H 0.83671 0.66658 0.41229
 H1156 H 0.80457 0.70124 0.37559
 H1157 H 0.85791 0.64263 0.30771
 H1158 H 0.88951 0.60850 0.34446
 C1159 C 0.63298 1.13794 0.11796
 C1160 C 0.62605 1.13235 0.14747
 C1161 C 0.64450 1.15147 0.16855
 C1162 C 0.67035 1.17663 0.16051
 C1163 C 0.67687 1.18244 0.13071
 C1164 C 0.65831 1.16315 0.10958
 C1165 C 0.61434 1.11696 0.09674
 C1166 C 0.59795 1.09809 0.08043
 H1167 H 0.60653 1.11292 0.15424
 H1168 H 0.63865 1.14625 0.19120
 H1169 H 0.69655 1.20158 0.12373
 H1170 H 0.66392 1.16770 0.08678
 C1171 C 1.13353 0.63690 0.61887
 C1172 C 1.12715 0.63110 0.64841
 C1173 C 1.14516 0.65083 0.66929
 C1174 C 1.16999 0.67681 0.66098
 C1175 C 1.17607 0.68271 0.63115
 C1176 C 1.15790 0.66283 0.61022
 C1177 C 1.11441 0.61621 0.59784
 C1178 C 1.09708 0.59830 0.58148
 H1179 H 1.10823 0.61121 0.65534
 H1180 H 1.13972 0.64549 0.69198
 H1181 H 1.19499 0.70246 0.62399
 H1182 H 1.16292 0.66762 0.58736
 C1183 C 0.63344 0.86279 -0.11820
 C1184 C 0.62708 0.86884 -0.14773
 C1185 C 0.64557 0.84974 -0.16880
 C1186 C 0.67088 0.82414 -0.16073
 C1187 C 0.67688 0.81793 -0.13093
 C1188 C 0.65828 0.83719 -0.10981
 C1189 C 0.61466 0.88362 -0.09698
 C1190 C 0.59816 0.90235 -0.08063
 H1191 H 0.60794 0.88858 -0.15451
 H1192 H 0.64013 0.85528 -0.19146
 H1193 H 0.69613 0.79843 -0.12392
 H1194 H 0.66345 0.83228 -0.08700
 C1195 C 1.13518 0.36525 0.38082
 C1196 C 1.15884 0.33877 0.38947
 C1197 C 1.17715 0.31903 0.36854
 C1198 C 1.17190 0.32559 0.33872
 C1199 C 1.14787 0.35221 0.33039
 C1200 C 1.12972 0.37182 0.35127
 C1201 C 1.11571 0.38559 0.40185
 C1202 C 1.09809 0.40315 0.41826
 H1203 H 1.16312 0.33339 0.41232
 H1204 H 1.19543 0.29877 0.37571
 H1205 H 1.14313 0.35808 0.30769
 H1206 H 1.11136 0.39216 0.34434
 C1207 C 0.36744 0.86200 0.11816
 C1208 C 0.37425 0.86773 0.14764
 C1209 C 0.35576 0.84868 0.16878
 C1210 C 0.33001 0.82345 0.16077
 C1211 C 0.32360 0.81751 0.13100
 C1212 C 0.34220 0.83673 0.10983
 C1213 C 0.38606 0.88292 0.09689
 C1214 C 0.40242 0.90177 0.08054
 H1215 H 0.39371 0.88723 0.15435
 H1216 H 0.36151 0.85398 0.19142
 H1217 H 0.30400 0.79830 0.12406
 H1218 H 0.33669 0.83210 0.08704
 C1219 C 0.86550 0.36438 0.61887
 C1220 C 0.84148 0.33817 0.61027
 C1221 C 0.82319 0.31843 0.63124
 C1222 C 0.82883 0.32474 0.66105
 C1223 C 0.85327 0.35103 0.66931
 C1224 C 0.87140 0.37064 0.64839
 C1225 C 0.88488 0.38478 0.59781
 C1226 C 0.90247 0.40245 0.58145
 H1227 H 0.83687 0.33304 0.58742
 H1228 H 0.80457 0.29842 0.62414
 H1229 H 0.85834 0.35669 0.69200
 H1230 H 0.89007 0.39076 0.65526
 C1231 C 1.13354 1.13646 0.61808
 C1232 C 1.12501 1.13229 0.64747
 C1233 C 1.14351 1.15126 0.66857
 C1234 C 1.17095 1.17480 0.66059
 C1235 C 1.17921 1.17905 0.63090
 C1236 C 1.16061 1.15992 0.60977
 C1237 C 1.11476 1.11576 0.59691
 C1238 C 1.09823 1.09714 0.58060
 H1239 H 1.10414 1.11414 0.65412
 H1240 H 1.13634 1.14733 0.69115
 H1241 H 1.20019 1.19691 0.62401
 H1242 H 1.16747 1.16325 0.58705
 C1243 C 0.63297 0.63623 0.11794
 C1244 C 0.62494 0.63129 0.14733
 C1245 C 0.64353 0.65000 0.16853
 C1246 C 0.67052 0.67404 0.16062
 C1247 C 0.67830 0.67901 0.13093
 C1248 C 0.65962 0.66015 0.10971
 C1249 C 0.61409 0.61587 0.09665
 C1250 C 0.59749 0.59747 0.08025
 H1251 H 0.60439 0.61277 0.15391
 H1252 H 0.63674 0.64552 0.19112
 H1253 H 0.69894 0.69728 0.12409
 H1254 H 0.66608 0.66405 0.08697
 C1255 C 1.13412 0.86312 0.38234
 C1256 C 1.12587 0.86774 0.35295
 C1257 C 1.14434 0.84889 0.33176
 C1258 C 1.17146 0.82501 0.33963
 C1259 C 1.17947 0.82034 0.36932
 C1260 C 1.16089 0.83935 0.39054
 C1261 C 1.11528 0.88361 0.40362
 C1262 C 1.09867 0.90206 0.42001
 H1263 H 1.10522 0.88613 0.34637
 H1264 H 1.13737 0.85316 0.30918
 H1265 H 1.20020 0.80222 0.37614
 H1266 H 1.16754 0.83566 0.41326
 C1267 C 0.63320 0.36414 -0.11817
 C1268 C 0.62526 0.36911 -0.14757
 C1269 C 0.64380 0.35035 -0.16877
 C1270 C 0.67067 0.32624 -0.16085
 C1271 C 0.67838 0.32125 -0.13115
 C1272 C 0.65974 0.34016 -0.10993
 C1273 C 0.61433 0.38451 -0.09688
 C1274 C 0.59772 0.40289 -0.08048
 H1275 H 0.60480 0.38769 -0.15415
 H1276 H 0.63708 0.35485 -0.19136
 H1277 H 0.69891 0.30292 -0.12430
 H1278 H 0.66613 0.33622 -0.08719
 C1279 C 0.86670 1.13557 0.38166
 C1280 C 0.87457 1.13086 0.35221
 C1281 C 0.85595 1.14977 0.33111
 C1282 C 0.82905 1.17381 0.33914
 C1283 C 0.82139 1.17854 0.36887
 C1284 C 0.84012 1.15947 0.39000
 C1285 C 0.88572 1.11510 0.40288
 C1286 C 0.90242 1.09670 0.41930
 H1287 H 0.89506 1.11238 0.34552
 H1288 H 0.86265 1.14545 0.30849
 H1289 H 0.80084 1.19678 0.37582
 H1290 H 0.83375 1.16324 0.41277
 C1291 C 0.36564 0.63590 -0.11845
 C1292 C 0.37332 0.63086 -0.14789
 C1293 C 0.35471 0.64971 -0.16902
 C1294 C 0.32803 0.67398 -0.16102
 C1295 C 0.32056 0.67900 -0.13129
 C1296 C 0.33927 0.66001 -0.11013
 C1297 C 0.38469 0.61557 -0.09719
 C1298 C 0.40143 0.59726 -0.08076
 H1299 H 0.39364 0.61220 -0.15454
 H1300 H 0.36124 0.64516 -0.19164
 H1301 H 0.30018 0.69744 -0.12437
 H1302 H 0.33308 0.66401 -0.08736
 C1303 C 0.86683 0.86240 0.61763
 C1304 C 0.83955 0.83916 0.60944
 C1305 C 0.82087 0.82018 0.63067
 C1306 C 0.82928 0.82439 0.66032
 C1307 C 0.85695 0.84770 0.66817
 C1308 C 0.87553 0.86651 0.64698
 C1309 C 0.88564 0.88302 0.59640
 C1310 C 0.90223 0.90164 0.58011
 H1311 H 0.83256 0.83590 0.58675
 H1312 H 0.79970 0.80249 0.62388
 H1313 H 0.86425 0.85157 0.69072
 H1314 H 0.89656 0.88450 0.65353
 C1315 C 0.36694 0.36289 0.11742
 C1316 C 0.37551 0.36746 0.14674
 C1317 C 0.35707 0.34875 0.16806
 C1318 C 0.32967 0.32510 0.16034
 C1319 C 0.32138 0.32045 0.13071
 C1320 C 0.33992 0.33932 0.10937
 C1321 C 0.38558 0.38337 0.09606
 C1322 C 0.40204 0.40193 0.07966
 H1323 H 0.39636 0.38573 0.15317
 H1324 H 0.36425 0.35297 0.19059
 H1325 H 0.30041 0.30248 0.12403
 H1326 H 0.33303 0.33571 0.08669
   
