data_POSCAR
  _audit_creation_date              2014-09-24
  _audit_creation_method            'ToBaCCo'
  _symmetry_space_group_name_H-M    'P1'
  _symmetry_Int_Tables_number       1
  _symmetry_cell_setting            triclinic
  loop_
  _symmetry_equiv_pos_as_xyz
 x,y,z
_cell_length_a 49.2064
_cell_length_b 49.2122
_cell_length_c 49.1801
_cell_angle_alpha 89.963900
_cell_angle_beta 90.016500
_cell_angle_gamma 89.990500
loop_
  _atom_site_label
  _atom_site_type_symbol
  _atom_site_fract_x
  _atom_site_fract_y
  _atom_site_fract_z
C1 C 0.35971 1.36095 0.32480
 C2 C 0.33640 1.37254 0.33639
 C3 C 0.32475 1.36093 0.35970
 C4 C 0.33650 1.33775 0.37141
 C5 C 0.35979 1.32617 0.35984
 C6 C 0.37140 1.33778 0.33657
 H7 H 0.32717 1.39033 0.32714
 H8 H 0.32741 1.32854 0.38928
 H9 H 0.38927 1.32858 0.32750
 C10 C 0.35932 0.86064 0.82577
 C11 C 0.33605 0.87222 0.83740
 C12 C 0.32437 0.86053 0.86064
 C13 C 0.33606 0.83725 0.87224
 C14 C 0.35933 0.82567 0.86061
 C15 C 0.37096 0.83739 0.83740
 H16 H 0.32693 0.89006 0.82819
 H17 H 0.32694 0.82797 0.89006
 H18 H 0.38880 0.82826 0.82823
 C19 C 0.85947 1.36058 0.82562
 C20 C 0.83617 1.37218 0.83720
 C21 C 0.82449 1.36054 0.86047
 C22 C 0.83620 1.33731 0.87214
 C23 C 0.85948 1.32573 0.86056
 C24 C 0.87112 1.33739 0.83734
 H25 H 0.82703 1.38998 0.82792
 H26 H 0.82707 1.32806 0.88997
 H27 H 0.88898 1.32825 0.82821
 C28 C 0.86045 0.86050 0.32472
 C29 C 0.83720 0.87212 0.33641
 C30 C 0.82558 0.86046 0.35967
 C31 C 0.83724 0.83722 0.37128
 C32 C 0.86046 0.82558 0.35964
 C33 C 0.87208 0.83723 0.33638
 H34 H 0.82796 0.88996 0.32729
 H35 H 0.82808 0.82803 0.38911
 H36 H 0.88990 0.82801 0.32725
 C37 C 0.63863 0.63886 0.32657
 C38 C 0.66189 0.62724 0.33817
 C39 C 0.67363 0.63889 0.36135
 C40 C 0.66205 0.66216 0.37296
 C41 C 0.63878 0.67381 0.36138
 C42 C 0.62707 0.66213 0.33819
 H43 H 0.67104 0.60941 0.32898
 H44 H 0.67132 0.67137 0.39072
 H45 H 0.60925 0.67132 0.32902
 C46 C 0.63921 0.13930 0.82491
 C47 C 0.66247 0.12764 0.83658
 C48 C 0.67406 0.13919 0.85990
 C49 C 0.66237 0.16235 0.87159
 C50 C 0.63914 0.17403 0.85998
 C51 C 0.62755 0.16249 0.83667
 H52 H 0.67174 0.10987 0.82740
 H53 H 0.67152 0.17146 0.88947
 H54 H 0.60972 0.17175 0.82755
 C55 C 1.13874 0.63875 0.82626
 C56 C 1.12711 0.66200 0.83789
 C57 C 1.13873 0.67362 0.86115
 C58 C 1.16195 0.66196 0.87281
 C59 C 1.17358 0.63872 0.86120
 C60 C 1.16195 0.62711 0.83794
 H61 H 1.10933 0.67121 0.82867
 H62 H 1.17114 0.67114 0.89062
 H63 H 1.17115 0.60931 0.82876
 C64 C 1.14065 0.13949 0.32454
 C65 C 1.16397 0.12791 0.33619
 C66 C 1.17562 0.13957 0.35946
 C67 C 1.16388 0.16278 0.37109
 C68 C 1.14060 0.17436 0.35947
 C69 C 1.12898 0.16270 0.33623
 H70 H 1.17318 0.11009 0.32702
 H71 H 1.17298 0.17203 0.38893
 H72 H 1.11110 0.17188 0.32713
 C73 C 0.64040 1.36098 0.67417
 C74 C 0.66370 1.37255 0.66258
 C75 C 0.67535 1.36093 0.63929
 C76 C 0.66359 1.33774 0.62762
 C77 C 0.64030 1.32619 0.63922
 C78 C 0.62870 1.33783 0.66246
 H79 H 0.67288 1.39032 0.67185
 H80 H 0.67269 1.32850 0.60978
 H81 H 0.61084 1.32870 0.67161
 C82 C 0.63887 0.86098 1.17396
 C83 C 0.62727 0.83772 1.16235
 C84 C 0.63893 0.82602 1.13916
 C85 C 0.66218 0.83764 1.12754
 C86 C 0.67380 0.86090 1.13912
 C87 C 0.66212 0.87258 1.16231
 H88 H 0.60946 0.82854 1.17155
 H89 H 0.67141 0.82841 1.10977
 H90 H 0.67129 0.89040 1.17147
 C91 C 1.14047 1.36055 1.17512
 C92 C 1.12881 1.33733 1.16343
 C93 C 1.14042 1.32568 1.14019
 C94 C 1.16369 1.33728 1.12857
 C95 C 1.17541 1.36049 1.14020
 C96 C 1.16376 1.37214 1.16347
 H97 H 1.11094 1.32814 1.17253
 H98 H 1.17279 1.32804 1.11073
 H99 H 1.17296 1.38996 1.17265
 C100 C 1.13894 0.86093 0.67379
 C101 C 1.12737 0.83767 0.66215
 C102 C 1.13902 0.82606 0.63890
 C103 C 1.16222 0.83777 0.62726
 C104 C 1.17381 0.86103 0.63889
 C105 C 1.16214 0.87261 0.66213
 H106 H 1.10960 0.82844 0.67135
 H107 H 1.17143 0.82860 0.60946
 H108 H 1.17129 0.89044 0.67132
 C109 C 0.35949 0.63950 0.67419
 C110 C 0.33623 0.62789 0.66257
 C111 C 0.32452 0.63955 0.63932
 C112 C 0.33617 0.66283 0.62771
 C113 C 0.35943 0.67444 0.63934
 C114 C 0.37108 0.66275 0.66255
 H115 H 0.32713 0.61004 0.67180
 H116 H 0.32702 0.67210 0.60989
 H117 H 0.38892 0.67190 0.67172
 C118 C 0.36153 0.13841 1.17322
 C119 C 0.33827 0.12678 1.16162
 C120 C 0.32660 0.13839 1.13837
 C121 C 0.33823 0.16160 1.12668
 C122 C 0.36149 0.17323 1.13827
 C123 C 0.37315 0.16161 1.16151
 H124 H 0.32907 0.10901 1.17088
 H125 H 0.32900 0.17080 1.10888
 H126 H 0.39095 0.17082 1.17069
 C127 C 0.86083 0.63895 1.17489
 C128 C 0.83755 0.62734 1.16323
 C129 C 0.82588 0.63900 1.14000
 C130 C 0.83752 0.66224 1.12836
 C131 C 0.86077 0.67387 1.13997
 C132 C 0.87244 0.66221 1.16320
 H133 H 0.82833 0.60952 1.17237
 H134 H 0.82831 0.67143 1.11055
 H135 H 0.89028 0.67143 1.17232
 C136 C 0.85926 0.13976 0.67558
 C137 C 0.83594 0.12820 0.66395
 C138 C 0.82429 0.13984 0.64065
 C139 C 0.83605 0.16303 0.62898
 C140 C 0.85934 0.17460 0.64058
 C141 C 0.87094 0.16295 0.66384
 H142 H 0.82672 0.11039 0.67316
 H143 H 0.82696 0.17226 0.61111
 H144 H 0.88883 0.17211 0.67292
 C145 C 1.36110 0.36007 0.67382
 C146 C 1.37272 0.33679 0.66223
 C147 C 1.36111 0.32513 0.63895
 C148 C 1.33789 0.33684 0.62727
 C149 C 1.32628 0.36011 0.63886
 C150 C 1.33791 0.37172 0.66211
 H151 H 1.39051 0.32764 0.67152
 H152 H 1.32866 0.32773 0.60943
 H153 H 1.32875 0.38955 0.67125
 C154 C 1.36086 0.86074 1.17535
 C155 C 1.37248 0.83746 1.16371
 C156 C 1.36088 0.82585 1.14044
 C157 C 1.33769 0.83753 1.12875
 C158 C 1.32604 0.86077 1.14034
 C159 C 1.33764 0.87239 1.16361
 H160 H 1.39028 0.82820 1.17289
 H161 H 1.32853 0.82837 1.11091
 H162 H 1.32840 0.89022 1.17270
 C163 C 0.86114 0.36076 1.17476
 C164 C 0.87277 0.33751 1.16308
 C165 C 0.86112 0.32588 1.13985
 C166 C 0.83786 0.33751 1.12824
 C167 C 0.82621 0.36072 1.13987
 C168 C 0.83786 0.37236 1.16310
 H169 H 0.89061 0.32828 1.17220
 H170 H 0.82866 0.32832 1.11043
 H171 H 0.82861 0.39017 1.17224
 C172 C 0.86099 0.86079 0.67383
 C173 C 0.83776 0.87246 0.66221
 C174 C 0.82606 0.86087 0.63898
 C175 C 0.83765 0.83763 0.62733
 C176 C 0.86089 0.82594 0.63893
 C177 C 0.87257 0.83755 0.66217
 H178 H 0.82861 0.89027 0.67142
 H179 H 0.82841 0.82847 0.60953
 H180 H 0.89037 0.82833 0.67134
 C181 C 0.63931 0.63926 0.67418
 C182 C 0.62767 0.66252 0.66257
 C183 C 0.63927 0.67422 0.63934
 C184 C 0.66249 0.66260 0.62766
 C185 C 0.67415 0.63933 0.63924
 C186 C 0.66253 0.62765 0.66248
 H187 H 0.60987 0.67168 0.67180
 H188 H 0.67166 0.67182 0.60985
 H189 H 0.67172 0.60982 0.67164
 C190 C 0.63933 1.14021 1.17411
 C191 C 0.66255 1.12859 1.16247
 C192 C 0.67424 1.14023 1.13926
 C193 C 0.66265 1.16352 1.12763
 C194 C 0.63938 1.17519 1.13926
 C195 C 0.62773 1.16348 1.16249
 H196 H 0.67170 1.11074 1.17164
 H197 H 0.67191 1.17267 1.10983
 H198 H 0.60990 1.17261 1.17173
 C199 C 0.13953 0.64051 1.17524
 C200 C 0.12797 0.66385 1.16364
 C201 C 0.13963 0.67554 1.14038
 C202 C 0.16284 0.66381 1.12872
 C203 C 0.17440 0.64050 1.14029
 C204 C 0.16273 0.62884 1.16352
 H205 H 0.11016 0.67305 1.17284
 H206 H 0.17208 0.67294 1.11089
 H207 H 0.17190 0.61094 1.17258
 C208 C 0.13905 1.14028 0.67395
 C209 C 0.12744 1.16357 0.66234
 C210 C 0.13907 1.17526 0.63908
 C211 C 0.16230 1.16356 0.62743
 C212 C 0.17390 1.14028 0.63904
 C213 C 0.16225 1.12865 0.66227
 H214 H 0.10964 1.17271 0.67160
 H215 H 0.17154 1.17270 0.60960
 H216 H 0.17140 1.11080 0.67143
 C217 C 1.36094 0.64033 0.32608
 C218 C 1.37248 0.66366 0.33762
 C219 C 1.36080 0.67537 0.36084
 C220 C 1.33758 0.66365 0.37250
 C221 C 1.32605 0.64032 0.36094
 C222 C 1.33776 0.62867 0.33776
 H223 H 1.39027 0.67282 0.32835
 H224 H 1.32828 0.67279 0.39029
 H225 H 1.32866 0.61079 0.32865
 C226 C 1.36058 1.14065 0.82582
 C227 C 1.33738 1.12898 0.83748
 C228 C 1.32570 1.14057 0.86071
 C229 C 1.33727 1.16384 0.87233
 C230 C 1.36050 1.17557 0.86070
 C231 C 1.37215 1.16392 0.83744
 H232 H 1.32825 1.11113 0.82831
 H233 H 1.32801 1.17294 0.89016
 H234 H 1.38996 1.17308 0.82819
 C235 C 0.86095 0.63893 0.82599
 C236 C 0.87258 0.66216 0.83762
 C237 C 0.86098 0.67380 0.86088
 C238 C 0.83777 0.66215 0.87254
 C239 C 0.82612 0.63892 0.86093
 C240 C 0.83774 0.62730 0.83768
 H241 H 0.89037 0.67136 0.82840
 H242 H 0.82860 0.67133 0.89036
 H243 H 0.82854 0.60949 0.82851
 C244 C 0.86167 1.13848 0.32676
 C245 C 0.83842 1.12691 0.33841
 C246 C 0.82676 1.13860 0.36161
 C247 C 0.83841 1.16185 0.37319
 C248 C 0.86167 1.17344 0.36155
 C249 C 0.87331 1.16172 0.33836
 H250 H 0.82921 1.10911 0.32924
 H251 H 0.82920 1.17111 0.39094
 H252 H 0.89112 1.17088 0.32914
 C253 C 0.63955 0.35950 0.32481
 C254 C 0.62796 0.33623 0.33652
 C255 C 0.63965 0.32460 0.35979
 C256 C 0.66292 0.33629 0.37136
 C257 C 0.67451 0.35953 0.35968
 C258 C 0.66282 0.37114 0.33644
 H259 H 0.61010 0.32705 0.32738
 H260 H 0.67219 0.32720 0.38920
 H261 H 0.67201 0.38898 0.32728
 C262 C 0.63903 0.86091 0.82622
 C263 C 0.62742 0.83765 0.83785
 C264 C 0.63908 0.82596 0.86107
 C265 C 0.66233 0.83758 0.87269
 C266 C 0.67396 0.86083 0.86108
 C267 C 0.66228 0.87251 0.83786
 H268 H 0.60960 0.82849 0.82867
 H269 H 0.67155 0.82835 0.89048
 H270 H 0.67145 0.89033 0.82868
 C271 C 0.13913 0.36074 0.82468
 C272 C 0.12746 0.33751 0.83637
 C273 C 0.13901 0.32592 0.85970
 C274 C 0.16219 0.33758 0.87139
 C275 C 0.17389 0.36078 0.85975
 C276 C 0.16234 0.37237 0.83642
 H277 H 0.10966 0.32826 0.82720
 H278 H 0.17131 0.32843 0.88927
 H279 H 0.17162 0.39018 0.82728
 C280 C 0.13902 0.86094 0.32524
 C281 C 0.12744 0.83765 0.33688
 C282 C 0.13908 0.82601 0.36014
 C283 C 0.16227 0.83769 0.37181
 C284 C 0.17387 0.86096 0.36021
 C285 C 0.16223 0.87260 0.33696
 H286 H 0.10965 0.82838 0.32771
 H287 H 0.17146 0.82850 0.38963
 H288 H 0.17144 0.89045 0.32785
 O289 O 0.97359 0.90192 0.86482
 O290 O 0.97359 0.87034 0.83303
 C291 C 0.96432 0.89243 0.84267
 C292 C 0.94212 0.90692 0.82839
 C293 C 0.93275 0.89784 0.80299
 H294 H 0.94227 0.88056 0.79319
 O295 O 1.02624 1.09809 0.86443
 O296 O 1.02629 1.12971 0.83263
 C297 C 1.03556 1.10762 0.84231
 C298 C 1.05786 1.09318 0.82815
 C299 C 1.06731 1.10233 0.80279
 H300 H 1.05778 1.11960 0.79296
 O301 O 0.86478 0.97358 0.90188
 O302 O 0.83292 0.97344 0.87033
 C303 C 0.84265 0.96423 0.89243
 C304 C 0.82848 0.94200 0.90698
 C305 C 0.80307 0.93260 0.89795
 H306 H 0.79321 0.94211 0.88068
 O307 O 1.13546 1.02663 0.90192
 O308 O 1.16723 1.02668 0.87031
 C309 C 1.15757 1.03594 0.89240
 C310 C 1.17175 1.05822 0.90685
 C311 C 1.19708 1.06773 0.89772
 H312 H 1.20692 1.05826 0.88043
 O313 O 0.90207 0.86450 0.97376
 O314 O 0.87045 0.83274 0.97373
 C315 C 0.89255 0.84238 0.96447
 C316 C 0.90702 0.82817 0.94224
 C317 C 0.89795 0.80279 0.93282
 H318 H 0.88069 0.79296 0.94234
 O319 O 1.09784 1.13552 0.97343
 O320 O 1.12945 1.16729 0.97336
 C321 C 1.10735 1.15764 0.96411
 C322 C 1.09287 1.17183 0.94182
 C323 C 1.10198 1.19718 0.93232
 H324 H 1.11927 1.20700 0.94180
 O325 O 0.90170 1.02666 0.86441
 O326 O 0.87000 1.02658 0.83269
 C327 C 0.89209 1.03591 0.84228
 C328 C 0.90643 1.05821 0.82800
 C329 C 0.89707 1.06780 0.80276
 H330 H 0.87969 1.05837 0.79306
 O331 O 1.09823 0.97364 0.86474
 O332 O 1.12981 0.97361 0.83293
 C333 C 1.10771 0.96436 0.84260
 C334 C 1.09321 0.94215 0.82838
 C335 C 1.10224 0.93278 0.80296
 H336 H 1.11949 0.94230 0.79310
 O337 O 1.02660 0.86471 0.90210
 O338 O 1.02665 0.83295 0.87049
 C339 C 1.03588 0.84258 0.89261
 C340 C 1.05806 0.82832 0.90715
 C341 C 1.06739 0.80289 0.89811
 H342 H 1.05786 0.79309 0.88083
 O343 O 0.97323 1.13533 0.90159
 O344 O 0.97320 1.16714 0.86999
 C345 C 0.96395 1.15748 0.89210
 C346 C 0.94175 1.17170 0.90663
 C347 C 0.93223 1.19704 0.89750
 H348 H 0.94162 1.20683 0.88013
 O349 O 0.86464 1.09813 0.97358
 O350 O 0.83286 1.12974 0.97358
 C351 C 0.84250 1.10765 0.96430
 C352 C 0.82827 1.09319 0.94205
 C353 C 0.80291 1.10232 0.93256
 H354 H 0.79310 1.11962 0.94203
 O355 O 1.13547 0.90178 0.97372
 O356 O 1.16728 0.87020 0.97367
 C357 C 1.15759 0.89228 0.96439
 C358 C 1.17177 0.90674 0.94208
 C359 C 1.19705 0.89753 0.93252
 H360 H 1.20682 0.88018 0.94196
 O361 O 0.97319 1.09828 0.86421
 O362 O 0.97317 1.12991 0.83244
 C363 C 0.96389 1.10783 0.84208
 C364 C 0.94158 1.09341 0.82789
 C365 C 0.93189 1.10269 0.80265
 H366 H 0.94126 1.12007 0.79287
 O367 O 1.02659 0.90193 0.86484
 O368 O 1.02665 0.87034 0.83305
 C369 C 1.03588 0.89244 0.84270
 C370 C 1.05806 0.90696 0.82844
 C371 C 1.06741 0.89791 0.80302
 H372 H 1.05790 0.88064 0.79321
 O373 O 1.13545 0.97359 0.90197
 O374 O 1.16721 0.97356 0.87034
 C375 C 1.15756 0.96428 0.89244
 C376 C 1.17176 0.94197 0.90689
 C377 C 1.19705 0.93242 0.89766
 H378 H 1.20682 0.94188 0.88032
 O379 O 0.86470 1.02659 0.90185
 O380 O 0.83284 1.02651 0.87030
 C381 C 0.84253 1.03581 0.89238
 C382 C 0.82829 1.05803 0.90686
 C383 C 0.80294 1.06747 0.89771
 H384 H 0.79315 1.05799 0.88039
 O385 O 0.90186 1.13533 0.97354
 O386 O 0.87026 1.16711 0.97356
 C387 C 0.89233 1.15746 0.96426
 C388 C 0.90673 1.17169 0.94197
 C389 C 0.89754 1.19702 0.93252
 H390 H 0.88026 1.20681 0.94207
 O391 O 1.09825 0.86458 0.97387
 O392 O 1.12987 0.83281 0.97381
 C393 C 1.10775 0.84245 0.96458
 C394 C 1.09322 0.82824 0.94237
 C395 C 1.10223 0.80281 0.93301
 H396 H 1.11948 0.79295 0.94255
 O397 O 1.09822 1.02664 0.86469
 O398 O 1.12982 1.02669 0.83289
 C399 C 1.10771 1.03593 0.84253
 C400 C 1.09319 1.05814 0.82826
 C401 C 1.10232 1.06763 0.80289
 H402 H 1.11968 1.05822 0.79313
 O403 O 0.90196 0.97365 0.86462
 O404 O 0.87028 0.97349 0.83288
 C405 C 0.89243 0.96431 0.84252
 C406 C 0.90694 0.94210 0.82831
 C407 C 0.89789 0.93269 0.80290
 H408 H 0.88062 0.94219 0.79305
 O409 O 1.02623 1.13537 0.90156
 O410 O 1.02627 1.16717 0.86995
 C411 C 1.03551 1.15751 0.89206
 C412 C 1.05772 1.17175 0.90657
 C413 C 1.06715 1.19710 0.89741
 H414 H 1.05768 1.20687 0.88006
 O415 O 0.97360 0.86465 0.90202
 O416 O 0.97360 0.83289 0.87040
 C417 C 0.96434 0.84251 0.89251
 C418 C 0.94215 0.82825 0.90701
 C419 C 0.93276 0.80287 0.89791
 H420 H 0.94225 0.79308 0.88060
 O421 O 1.13520 1.09844 0.97345
 O422 O 1.16698 1.13003 0.97340
 C423 C 1.15734 1.10793 0.96416
 C424 C 1.17161 1.09345 0.94196
 C425 C 1.19694 1.10263 0.93252
 H426 H 1.20668 1.11998 0.94197
 O427 O 0.86494 0.90179 0.97371
 O428 O 0.83314 0.87021 0.97368
 C429 C 0.84280 0.89231 0.96442
 C430 C 0.82856 0.90681 0.94219
 C431 C 0.80315 0.89774 0.93283
 H432 H 0.79335 0.88046 0.94236
 Cu433 Cu 1.00009 0.88647 0.88662
 Cu434 Cu 1.00013 0.84845 0.84855
 Cu435 Cu 0.99971 1.11359 0.88611
 Cu436 Cu 0.99974 1.15166 0.84806
 Cu437 Cu 0.88646 1.00013 0.88634
 Cu438 Cu 0.84832 0.99999 0.84837
 Cu439 Cu 1.11369 1.00013 0.88650
 Cu440 Cu 1.15171 1.00013 0.84844
 C441 C 0.92925 0.92924 0.84075
 H442 H 0.93610 0.93612 0.86052
 C443 C 0.91078 0.91070 0.79029
 C444 C 1.07077 1.07089 0.84058
 H445 H 1.06384 1.06396 0.86030
 C446 C 1.08940 1.08959 0.79021
 C447 C 0.84093 0.92913 0.92929
 H448 H 0.86069 0.93601 0.93614
 C449 C 0.79045 0.91062 0.91085
 C450 C 1.15931 1.07106 0.92916
 H451 H 1.13961 1.06410 0.93608
 C452 C 1.20963 1.08980 0.91053
 C453 C 0.92931 0.84060 0.92936
 H454 H 0.93619 0.86033 0.93625
 C455 C 0.91080 0.79019 0.91080
 C456 C 1.07055 1.15941 0.92896
 H457 H 1.06365 1.13969 0.93591
 C458 C 1.08914 1.20976 0.91025
 C459 C 0.92887 1.07099 0.84025
 H460 H 0.93596 1.06396 0.85989
 C461 C 0.90977 1.08991 0.79012
 C462 C 1.07093 0.92927 0.84082
 H463 H 1.06409 0.93612 0.86059
 C464 C 1.08936 0.91080 0.79032
 C465 C 1.07094 0.84069 0.92947
 H466 H 1.06412 0.86046 0.93631
 C467 C 1.08933 0.79019 0.91102
 C468 C 0.92902 1.15932 0.92905
 H469 H 0.93598 1.13961 0.93597
 C470 C 0.91026 1.20965 0.91043
 C471 C 0.84065 1.07086 0.92922
 H472 H 0.86037 1.06394 0.93615
 C473 C 0.79029 1.08947 0.91053
 C474 C 1.15942 0.92915 0.92929
 H475 H 1.13976 0.93613 0.93629
 C476 C 1.20965 0.91034 0.91045
 O477 O 1.02668 0.90174 1.13579
 O478 O 1.02672 0.87016 1.16763
 C479 C 1.03596 0.89226 1.15796
 C480 C 1.05817 0.90678 1.17219
 C481 C 1.06763 0.89767 1.19757
 H482 H 1.05817 0.88036 1.20739
 O483 O 0.97393 1.09801 1.13561
 O484 O 0.97378 1.12959 1.16741
 C485 C 0.96461 1.10746 1.15775
 C486 C 0.94245 1.09289 1.17198
 C487 C 0.93315 1.10183 1.19746
 H488 H 0.94269 1.11906 1.20733
 O489 O 0.86476 1.02645 1.09844
 O490 O 0.83301 1.02651 1.13008
 C491 C 0.84265 1.03576 1.10797
 C492 C 0.82843 1.05802 1.09348
 C493 C 0.80308 1.06751 1.10262
 H494 H 0.79329 1.05807 1.11995
 O495 O 1.13540 0.97347 1.09852
 O496 O 1.16727 0.97348 1.13006
 C497 C 1.15758 0.96421 1.10799
 C498 C 1.17182 0.94201 1.09349
 C499 C 1.19719 0.93261 1.10262
 H500 H 1.20698 0.94209 1.11994
 O501 O 1.09845 0.86451 1.02693
 O502 O 1.13009 0.83277 1.02694
 C503 C 1.10801 0.84240 1.03625
 C504 C 1.09362 0.82819 1.05858
 C505 C 1.10288 0.80292 1.06818
 H506 H 1.12023 0.79317 1.05874
 O507 O 0.90198 1.13525 1.02660
 O508 O 0.87039 1.16704 1.02668
 C509 C 0.89249 1.15737 1.03591
 C510 C 0.90701 1.17157 1.05816
 C511 C 0.89792 1.19695 1.06758
 H512 H 0.88063 1.20677 1.05808
 O513 O 0.90195 0.97331 1.13562
 O514 O 0.87035 0.97330 1.16741
 C515 C 0.89243 0.96401 1.15776
 C516 C 0.90686 0.94173 1.17199
 C517 C 0.89763 0.93221 1.19730
 H518 H 0.88029 0.94166 1.20705
 O519 O 1.09833 1.02653 1.13584
 O520 O 1.13006 1.02657 1.16752
 C521 C 1.10795 1.03584 1.15793
 C522 C 1.09359 1.05815 1.17215
 C523 C 1.10290 1.06772 1.19740
 H524 H 1.12025 1.05825 1.20715
 O525 O 0.97378 0.86445 1.09851
 O526 O 0.97374 0.83268 1.13015
 C527 C 0.96449 0.84232 1.10803
 C528 C 0.94226 0.82811 1.09354
 C529 C 0.93282 0.80275 1.10266
 H530 H 0.94230 0.79293 1.11997
 O531 O 1.02681 1.13546 1.09845
 O532 O 1.02674 1.16723 1.13006
 C533 C 1.03602 1.15761 1.10796
 C534 C 1.05821 1.17189 1.09346
 C535 C 1.06775 1.19718 1.10267
 H536 H 1.05837 1.20690 1.12007
 O537 O 0.86486 0.90174 1.02674
 O538 O 0.83307 0.87016 1.02677
 C539 C 0.84271 0.89226 1.03601
 C540 C 0.82846 0.90678 1.05819
 C541 C 0.80304 0.89775 1.06754
 H542 H 0.79322 0.88047 1.05803
 O543 O 1.13505 1.09825 1.02647
 O544 O 1.16686 1.12982 1.02648
 C545 C 1.15721 1.10771 1.03574
 C546 C 1.17148 1.09316 1.05792
 C547 C 1.19697 1.10210 1.06716
 H548 H 1.20681 1.11934 1.05759
 O549 O 1.02694 1.09829 1.13576
 O550 O 1.02687 1.12989 1.16754
 C551 C 1.03620 1.10782 1.15790
 C552 C 1.05849 1.09340 1.17214
 C553 C 1.06812 1.10266 1.19740
 H554 H 1.05874 1.12005 1.20714
 O555 O 0.97366 0.90163 1.13575
 O556 O 0.97363 0.87003 1.16757
 C557 C 0.96434 0.89211 1.15788
 C558 C 0.94204 0.90655 1.17206
 C559 C 0.93249 0.89735 1.19737
 H560 H 0.94193 0.88001 1.20717
 O561 O 1.13521 1.02647 1.09830
 O562 O 1.16711 1.02653 1.12980
 C563 C 1.15738 1.03576 1.10771
 C564 C 1.17157 1.05795 1.09311
 C565 C 1.19706 1.06722 1.10202
 H566 H 1.20696 1.05766 1.11924
 O567 O 0.86480 0.97344 1.09832
 O568 O 0.83303 0.97343 1.12994
 C569 C 0.84266 0.96418 1.10783
 C570 C 0.82842 0.94199 1.09333
 C571 C 0.80300 0.93263 1.10236
 H572 H 0.79316 0.94216 1.11962
 O573 O 1.09806 1.13569 1.02651
 O574 O 1.12969 1.16743 1.02651
 C575 C 1.10762 1.15780 1.03580
 C576 C 1.09324 1.17199 1.05812
 C577 C 1.10246 1.19727 1.06765
 H578 H 1.11976 1.20707 1.05815
 O579 O 0.90209 0.86453 1.02681
 O580 O 0.87047 0.83277 1.02684
 C581 C 0.89258 0.84240 1.03610
 C582 C 0.90706 0.82815 1.05835
 C583 C 0.89793 0.80280 1.06780
 H584 H 0.88062 0.79301 1.05832
 O585 O 1.09818 0.97350 1.13576
 O586 O 1.12988 0.97348 1.16747
 C587 C 1.10776 0.96422 1.15788
 C588 C 1.09331 0.94198 1.17215
 C589 C 1.10246 0.93255 1.19753
 H590 H 1.11976 0.94205 1.20733
 O591 O 0.90215 1.02632 1.13553
 O592 O 0.87058 1.02637 1.16735
 C593 C 0.89270 1.03558 1.15769
 C594 C 0.90726 1.05773 1.17195
 C595 C 0.89829 1.06699 1.19743
 H596 H 0.88105 1.05745 1.20727
 O597 O 0.97380 1.13525 1.09839
 O598 O 0.97365 1.16702 1.13000
 C599 C 0.96444 1.15735 1.10788
 C600 C 0.94220 1.17155 1.09336
 C601 C 0.93278 1.19692 1.10245
 H602 H 0.94229 1.20673 1.11974
 O603 O 1.02681 0.86447 1.09864
 O604 O 1.02685 0.83272 1.13029
 C605 C 1.03613 0.84237 1.10819
 C606 C 1.05844 0.82818 1.09378
 C607 C 1.06802 0.80292 1.10305
 H608 H 1.05858 0.79315 1.12041
 O609 O 1.13553 0.90184 1.02678
 O610 O 1.16735 0.87028 1.02680
 C611 C 1.15768 0.89237 1.03606
 C612 C 1.17189 0.90686 1.05829
 C613 C 1.19726 0.89777 1.06775
 H614 H 1.20709 0.88049 1.05828
 O615 O 0.86474 1.09808 1.02663
 O616 O 0.83297 1.12970 1.02669
 C617 C 0.84262 1.10760 1.03595
 C618 C 0.82842 1.09314 1.05822
 C619 C 0.80308 1.10230 1.06766
 H620 H 0.79329 1.11960 1.05814
 Cu621 Cu 1.00023 0.88624 1.11400
 Cu622 Cu 1.00024 0.84821 1.15210
 Cu623 Cu 1.00039 1.11359 1.11389
 Cu624 Cu 1.00023 1.15161 1.15194
 Cu625 Cu 0.88666 0.88630 1.00026
 Cu626 Cu 0.84860 0.84829 1.00026
 Cu627 Cu 1.11375 0.88634 1.00033
 Cu628 Cu 1.15184 0.84834 1.00030
 Cu629 Cu 0.88647 1.11353 1.00008
 Cu630 Cu 0.84844 1.15158 1.00014
 Cu631 Cu 1.11336 1.11382 0.99997
 Cu632 Cu 1.15143 1.15183 0.99993
 Cu633 Cu 0.88658 0.99988 1.11380
 Cu634 Cu 0.84856 0.99991 1.15189
 Cu635 Cu 1.11360 0.99999 1.11396
 Cu636 Cu 1.15178 1.00001 1.15189
 C637 C 1.07098 0.92912 1.15979
 H638 H 1.06405 0.93602 1.14005
 C639 C 1.08963 0.91053 1.21019
 C640 C 0.92954 1.07064 1.15952
 H641 H 0.93633 1.06387 1.13970
 C642 C 0.91122 1.08890 1.21013
 C643 C 0.84079 1.07081 1.07109
 H644 H 0.86050 1.06387 1.06417
 C645 C 0.79046 1.08952 1.08972
 C646 C 1.15947 0.92918 1.07113
 H647 H 1.13973 0.93606 1.06421
 C648 C 1.20987 0.91063 1.08978
 C649 C 1.07121 0.84052 1.07136
 H650 H 1.06419 0.86017 1.06434
 C651 C 1.09010 0.79033 1.09028
 C652 C 0.92934 1.15917 1.07102
 H653 H 0.93623 1.13943 1.06414
 C654 C 0.91079 1.20957 1.08959
 C655 C 0.92925 0.92892 1.15967
 H656 H 0.93624 0.93590 1.13999
 C657 C 0.91042 0.91015 1.20994
 C658 C 1.07120 1.07096 1.15983
 H659 H 1.06415 1.06395 1.14018
 C660 C 1.09020 1.08984 1.20998
 C661 C 0.92941 0.84051 1.07119
 H662 H 0.93633 0.86023 1.06427
 C663 C 0.91079 0.79014 1.08982
 C664 C 1.07092 1.15961 1.07100
 H665 H 1.06394 1.13994 1.06401
 C666 C 1.08975 1.20982 1.08979
 C667 C 0.84084 0.92909 1.07105
 H668 H 0.86062 0.93594 1.06420
 C669 C 0.79035 0.91065 1.08949
 C670 C 1.15907 1.07089 1.07086
 H671 H 1.13925 1.06410 1.06411
 C672 C 1.20971 1.08915 1.08907
 O673 O 0.97391 0.40179 0.36394
 O674 O 0.97381 0.37014 0.33222
 C675 C 0.96457 0.39225 0.34184
 C676 C 0.94229 0.40668 0.32763
 C677 C 0.93281 0.39754 0.30228
 H678 H 0.94232 0.38027 0.29246
 O679 O 1.02672 0.59798 0.36398
 O680 O 1.02670 0.62964 0.33223
 C681 C 1.03601 0.60755 0.34186
 C682 C 1.05832 0.59319 0.32764
 C683 C 1.06787 0.60251 0.30238
 H684 H 1.05839 0.61986 0.29264
 O685 O 0.86481 0.47312 0.40133
 O686 O 0.83301 0.47312 0.36972
 C687 C 0.84267 0.46384 0.39182
 C688 C 0.82847 0.44158 0.40630
 C689 C 0.80317 0.43204 0.39709
 H690 H 0.79340 0.44147 0.37972
 O691 O 1.13562 0.52640 0.40131
 O692 O 1.16746 0.52653 0.36976
 C693 C 1.15776 0.53573 0.39187
 C694 C 1.17194 0.55793 0.40644
 C695 C 1.19731 0.56743 0.39740
 H696 H 1.20715 0.55802 0.38008
 O697 O 0.90220 0.36467 0.47337
 O698 O 0.87070 0.33279 0.47325
 C699 C 0.89279 0.34252 0.46405
 C700 C 0.90737 0.32834 0.44185
 C701 C 0.89844 0.30286 0.43258
 H702 H 0.88124 0.29298 0.44216
 O703 O 1.09828 0.63515 0.47319
 O704 O 1.12983 0.66697 0.47313
 C705 C 1.10775 0.65729 0.46387
 C706 C 1.09325 0.67149 0.44161
 C707 C 1.10231 0.69689 0.43218
 H708 H 1.11958 0.70672 0.44170
 O709 O 0.90197 0.52621 0.36412
 O710 O 0.87033 0.52629 0.33235
 C711 C 0.89244 0.53553 0.34199
 C712 C 0.90690 0.55777 0.32776
 C713 C 0.89773 0.56726 0.30241
 H714 H 0.88039 0.55781 0.29263
 O715 O 1.09851 0.47345 0.36391
 O716 O 1.13017 0.47348 0.33218
 C717 C 1.10807 0.46418 0.34179
 C718 C 1.09366 0.44190 0.32757
 C719 C 1.10293 0.43233 0.30230
 H720 H 1.12029 0.44178 0.29255
 O721 O 1.02697 0.36458 0.40118
 O722 O 1.02693 0.33276 0.36962
 C723 C 1.03622 0.34242 0.39170
 C724 C 1.05845 0.32818 0.40619
 C725 C 1.06798 0.30288 0.39700
 H726 H 1.05856 0.29313 0.37963
 O727 O 0.97364 0.63506 0.40125
 O728 O 0.97357 0.66688 0.36965
 C729 C 0.96433 0.65720 0.39175
 C730 C 0.94209 0.67141 0.40624
 C731 C 0.93262 0.69675 0.39708
 H732 H 0.94208 0.70654 0.37975
 O733 O 0.86489 0.59782 0.47315
 O734 O 0.83308 0.62940 0.47306
 C735 C 0.84274 0.60729 0.46385
 C736 C 0.82849 0.59276 0.44168
 C737 C 0.80304 0.60176 0.43238
 H738 H 0.79321 0.61901 0.44193
 O739 O 1.13568 0.40166 0.47296
 O740 O 1.16746 0.37006 0.47298
 C741 C 1.15780 0.39214 0.46367
 C742 C 1.17201 0.40659 0.44137
 C743 C 1.19732 0.39740 0.43183
 H744 H 1.20709 0.38005 0.44127
 O745 O 0.97368 0.59785 0.36405
 O746 O 0.97360 0.62949 0.33228
 C747 C 0.96436 0.60738 0.34192
 C748 C 0.94211 0.59292 0.32771
 C749 C 0.93261 0.60208 0.30236
 H750 H 0.94208 0.61939 0.29255
 O751 O 1.02696 0.40181 0.36393
 O752 O 1.02693 0.37016 0.33220
 C753 C 1.03623 0.39226 0.34181
 C754 C 1.05851 0.40668 0.32757
 C755 C 1.06811 0.39744 0.30230
 H756 H 1.05871 0.38007 0.29255
 O757 O 1.13567 0.47338 0.40121
 O758 O 1.16750 0.47343 0.36965
 C759 C 1.15781 0.46411 0.39172
 C760 C 1.17201 0.44182 0.40618
 C761 C 1.19731 0.43230 0.39698
 H762 H 1.20708 0.44177 0.37964
 O763 O 0.86482 0.52613 0.40142
 O764 O 0.83300 0.52620 0.36983
 C765 C 0.84267 0.53542 0.39194
 C766 C 0.82844 0.55760 0.40649
 C767 C 0.80298 0.56694 0.39750
 H768 H 0.79311 0.55742 0.38026
 O769 O 0.90201 0.63511 0.47308
 O770 O 0.87038 0.66687 0.47297
 C771 C 0.89248 0.65722 0.46373
 C772 C 0.90694 0.67142 0.44145
 C773 C 0.89779 0.69676 0.43197
 H774 H 0.88049 0.70656 0.44145
 O775 O 1.09847 0.36445 0.47302
 O776 O 1.13008 0.33268 0.47305
 C777 C 1.10799 0.34232 0.46375
 C778 C 1.09356 0.32812 0.44147
 C779 C 1.10277 0.30282 0.43195
 H780 H 1.12009 0.29304 0.44144
 O781 O 1.09852 0.52647 0.36392
 O782 O 1.13019 0.52659 0.33220
 C783 C 1.10807 0.53582 0.34182
 C784 C 1.09360 0.55811 0.32761
 C785 C 1.10284 0.56776 0.30234
 H786 H 1.12022 0.55841 0.29258
 O787 O 0.90202 0.47321 0.36409
 O788 O 0.87039 0.47321 0.33231
 C789 C 0.89251 0.46396 0.34194
 C790 C 0.90701 0.44177 0.32768
 C791 C 0.89785 0.43231 0.30233
 H792 H 0.88050 0.44174 0.29256
 O793 O 1.02665 0.63505 0.40133
 O794 O 1.02663 0.66688 0.36974
 C795 C 1.03590 0.65721 0.39185
 C796 C 1.05810 0.67145 0.40637
 C797 C 1.06748 0.69685 0.39728
 H798 H 1.05798 0.70665 0.37997
 O799 O 0.97396 0.36478 0.40140
 O800 O 0.97386 0.33294 0.36987
 C801 C 0.96466 0.34263 0.39198
 C802 C 0.94250 0.32839 0.40659
 C803 C 0.93323 0.30291 0.39765
 H804 H 0.94275 0.29307 0.38040
 O805 O 1.13547 0.59791 0.47325
 O806 O 1.16720 0.62956 0.47321
 C807 C 1.15758 0.60744 0.46396
 C808 C 1.17184 0.59300 0.44173
 C809 C 1.19720 0.60216 0.43237
 H810 H 1.20697 0.61944 0.44192
 O811 O 0.86471 0.40161 0.47327
 O812 O 0.83304 0.36991 0.47313
 C813 C 0.84264 0.39204 0.46389
 C814 C 0.82845 0.40645 0.44157
 C815 C 0.80315 0.39724 0.43204
 H816 H 0.79337 0.37993 0.44152
 Cu817 Cu 1.00046 0.38642 0.38576
 Cu818 Cu 1.00036 0.34832 0.34779
 Cu819 Cu 1.00018 0.61331 0.38581
 Cu820 Cu 1.00012 0.65141 0.34779
 Cu821 Cu 0.88657 0.49966 0.38591
 Cu822 Cu 0.84849 0.49971 0.34787
 Cu823 Cu 1.11391 0.49993 0.38574
 Cu824 Cu 1.15202 0.50002 0.34777
 C825 C 0.92941 0.42898 0.34002
 H826 H 0.93635 0.43591 0.35974
 C827 C 0.91073 0.41033 0.28967
 C828 C 1.07116 0.57080 0.33995
 H829 H 1.06416 0.56374 0.35960
 C830 C 1.08999 0.58983 0.28977
 C831 C 0.84080 0.42881 0.42873
 H832 H 0.86048 0.43579 0.43571
 C833 C 0.79056 0.41001 0.40994
 C834 C 1.15950 0.57069 0.42880
 H835 H 1.13977 0.56375 0.43566
 C836 C 1.20989 0.58941 0.41034
 C837 C 0.92960 0.34082 0.42888
 H838 H 0.93637 0.36063 0.43566
 C839 C 0.91134 0.29020 0.41063
 C840 C 1.07096 0.65908 0.42873
 H841 H 1.06409 0.63933 0.43562
 C842 C 1.08944 0.70952 0.41016
 C843 C 0.92928 0.57058 0.34010
 H844 H 0.93623 0.56363 0.35982
 C845 C 0.91056 0.58928 0.28976
 C846 C 1.07127 0.42910 0.33989
 H847 H 1.06424 0.43611 0.35955
 C848 C 1.09019 0.41024 0.28971
 C849 C 1.07122 0.34049 0.42861
 H850 H 1.06425 0.36017 0.43558
 C851 C 1.09000 0.29025 0.40986
 C852 C 0.92928 0.65905 0.42862
 H853 H 0.93621 0.63934 0.43556
 C854 C 0.91060 0.70938 0.40992
 C855 C 0.84089 0.57048 0.42877
 H856 H 0.86069 0.56366 0.43558
 C857 C 0.79033 0.58888 0.41044
 C858 C 1.15967 0.42899 0.42856
 H859 H 1.13999 0.43596 0.43554
 C860 C 1.20992 0.41023 0.40976
 O861 O 1.02668 0.40160 0.63520
 O862 O 1.02677 0.36998 0.66701
 C863 C 1.03601 0.39208 0.65734
 C864 C 1.05828 0.40654 0.67153
 C865 C 1.06775 0.39740 0.69690
 H866 H 1.05826 0.38011 0.70673
 O867 O 0.97355 0.59784 0.63507
 O868 O 0.97352 0.62940 0.66688
 C869 C 0.96427 0.60732 0.65722
 C870 C 0.94205 0.59282 0.67145
 C871 C 0.93266 0.60188 0.69685
 H872 H 0.94217 0.61915 0.70667
 O873 O 0.86465 0.52620 0.59782
 O874 O 0.83289 0.52626 0.62945
 C875 C 0.84254 0.53551 0.60733
 C876 C 0.82835 0.55777 0.59285
 C877 C 0.80299 0.56724 0.60196
 H878 H 0.79317 0.55775 0.61926
 O879 O 1.13564 0.47334 0.59780
 O880 O 1.16742 0.47327 0.62943
 C881 C 1.15778 0.46405 0.60730
 C882 C 1.17202 0.44186 0.59278
 C883 C 1.19740 0.43243 0.60187
 H884 H 1.20722 0.44189 0.61918
 O885 O 1.09843 0.36452 0.52609
 O886 O 1.13004 0.33275 0.52619
 C887 C 1.10794 0.34240 0.53543
 C888 C 1.09346 0.32820 0.55772
 C889 C 1.10262 0.30285 0.56722
 H890 H 1.11993 0.29306 0.55776
 O891 O 0.90202 0.63516 0.52613
 O892 O 0.87040 0.66693 0.52609
 C893 C 0.89250 0.65729 0.53538
 C894 C 0.90696 0.67152 0.55761
 C895 C 0.89787 0.69690 0.56701
 H896 H 0.88060 0.70673 0.55747
 O897 O 0.90188 0.47316 0.63505
 O898 O 0.87029 0.47315 0.66685
 C899 C 0.89238 0.46388 0.65720
 C900 C 0.90686 0.44165 0.67146
 C901 C 0.89767 0.43219 0.69679
 H902 H 0.88033 0.44165 0.70654
 O903 O 1.09835 0.52621 0.63508
 O904 O 1.12993 0.52623 0.66692
 C905 C 1.10782 0.53546 0.65725
 C906 C 1.09327 0.55763 0.67150
 C907 C 1.10228 0.56697 0.69695
 H908 H 1.11955 0.55747 0.70679
 O909 O 0.97363 0.36434 0.59805
 O910 O 0.97366 0.33256 0.62969
 C911 C 0.96435 0.34221 0.60760
 C912 C 0.94204 0.32802 0.59319
 C913 C 0.93243 0.30278 0.60249
 H914 H 0.94185 0.29303 0.61987
 O915 O 1.02657 0.63509 0.59789
 O916 O 1.02660 0.66683 0.62953
 C917 C 1.03584 0.65721 0.60741
 C918 C 1.05804 0.67147 0.59292
 C919 C 1.06741 0.69687 0.60199
 H920 H 1.05790 0.70667 0.61927
 O921 O 0.86463 0.40161 0.52633
 O922 O 0.83293 0.36994 0.52626
 C923 C 0.84251 0.39204 0.53557
 C924 C 0.82823 0.40647 0.55782
 C925 C 0.80291 0.39728 0.56732
 H926 H 0.79315 0.37995 0.55787
 O927 O 1.13557 0.59805 0.52631
 O928 O 1.16729 0.62970 0.52632
 C929 C 1.15768 0.60760 0.53561
 C930 C 1.17191 0.59318 0.55791
 C931 C 1.19719 0.60243 0.56747
 H932 H 1.20693 0.61979 0.55802
 O933 O 1.02656 0.59781 0.63507
 O934 O 1.02659 0.62937 0.66689
 C935 C 1.03584 0.60728 0.65723
 C936 C 1.05805 0.59277 0.67148
 C937 C 1.06737 0.60178 0.69693
 H938 H 1.05782 0.61902 0.70676
 O939 O 0.97364 0.40158 0.63523
 O940 O 0.97366 0.36998 0.66704
 C941 C 0.96437 0.39206 0.65737
 C942 C 0.94208 0.40650 0.67157
 C943 C 0.93255 0.39735 0.69691
 H944 H 0.94201 0.38004 0.70674
 O945 O 1.13568 0.52636 0.59798
 O946 O 1.16744 0.52637 0.62963
 C947 C 1.15779 0.53567 0.60753
 C948 C 1.17197 0.55798 0.59311
 C949 C 1.19724 0.56755 0.60234
 H950 H 1.20703 0.55811 0.61970
 O951 O 0.86456 0.47318 0.59791
 O952 O 0.83280 0.47317 0.62953
 C953 C 0.84243 0.46390 0.60744
 C954 C 0.82821 0.44165 0.59298
 C955 C 0.80289 0.43215 0.60216
 H956 H 0.79311 0.44162 0.61948
 O957 O 1.09824 0.63515 0.52624
 O958 O 1.12979 0.66697 0.52623
 C959 C 1.10770 0.65730 0.53550
 C960 C 1.09320 0.67152 0.55771
 C961 C 1.10225 0.69692 0.56710
 H962 H 1.11951 0.70676 0.55758
 O963 O 0.90189 0.36442 0.52643
 O964 O 0.87035 0.33258 0.52636
 C965 C 0.89240 0.34226 0.53570
 C966 C 0.90683 0.32805 0.55801
 C967 C 0.89754 0.30281 0.56763
 H968 H 0.88016 0.29308 0.55823
 O969 O 1.09849 0.47321 0.63510
 O970 O 1.13009 0.47315 0.66691
 C971 C 1.10800 0.46390 0.65724
 C972 C 1.09352 0.44166 0.67148
 C973 C 1.10266 0.43219 0.69685
 H974 H 1.11998 0.44165 0.70664
 O975 O 0.90185 0.52616 0.63508
 O976 O 0.87026 0.52621 0.66689
 C977 C 0.89236 0.53545 0.65722
 C978 C 0.90687 0.55765 0.67145
 C979 C 0.89780 0.56704 0.69686
 H980 H 0.88052 0.55754 0.70669
 O981 O 0.97357 0.63511 0.59787
 O982 O 0.97353 0.66685 0.62951
 C983 C 0.96429 0.65723 0.60738
 C984 C 0.94209 0.67149 0.59287
 C985 C 0.93268 0.69687 0.60194
 H986 H 0.94216 0.70666 0.61925
 O987 O 1.02667 0.36449 0.59789
 O988 O 1.02677 0.33270 0.62952
 C989 C 1.03600 0.34237 0.60740
 C990 C 1.05826 0.32818 0.59291
 C991 C 1.06774 0.30284 0.60207
 H992 H 1.05827 0.29304 0.61939
 O993 O 1.13565 0.40174 0.52602
 O994 O 1.16743 0.37014 0.52610
 C995 C 1.15778 0.39225 0.53533
 C996 C 1.17201 0.40674 0.55755
 C997 C 1.19740 0.39764 0.56696
 H998 H 1.20720 0.38036 0.55745
 O999 O 0.86480 0.59796 0.52618
 O1000 O 0.83301 0.62956 0.52615
 C1001 C 0.84266 0.60747 0.53544
 C1002 C 0.82841 0.59299 0.55768
 C1003 C 0.80306 0.60214 0.56711
 H1004 H 0.79328 0.61946 0.55763
 Cu1005 Cu 1.00014 0.38617 0.61343
 Cu1006 Cu 1.00023 0.34812 0.65150
 Cu1007 Cu 1.00006 0.61330 0.61331
 Cu1008 Cu 1.00006 0.65129 0.65140
 Cu1009 Cu 0.88651 0.38626 0.49987
 Cu1010 Cu 0.84858 0.34811 0.49973
 Cu1011 Cu 1.11389 0.38625 0.49951
 Cu1012 Cu 1.15193 0.34822 0.49959
 Cu1013 Cu 0.88661 0.61335 0.49964
 Cu1014 Cu 0.84853 0.65137 0.49955
 Cu1015 Cu 1.11373 0.61339 0.49976
 Cu1016 Cu 1.15171 0.65149 0.49971
 Cu1017 Cu 0.88640 0.49967 0.61329
 Cu1018 Cu 0.84838 0.49970 0.65137
 Cu1019 Cu 1.11388 0.49978 0.61332
 Cu1020 Cu 1.15190 0.49975 0.65141
 C1021 C 1.07114 0.42885 0.65912
 H1022 H 1.06421 0.43578 0.63939
 C1023 C 1.08980 0.41020 0.70951
 C1024 C 0.92918 0.57051 0.65905
 H1025 H 0.93605 0.56364 0.63929
 C1026 C 0.91068 0.58902 0.70951
 C1027 C 0.84075 0.57062 0.57052
 H1028 H 0.86047 0.56369 0.56361
 C1029 C 0.79040 0.58929 0.58912
 C1030 C 1.15963 0.42904 0.57043
 H1031 H 1.13988 0.43593 0.56354
 C1032 C 1.21004 0.41046 0.58898
 C1033 C 1.07110 0.34056 0.57054
 H1034 H 1.06416 0.36027 0.56360
 C1035 C 1.08978 0.29023 0.58926
 C1036 C 0.92926 0.65912 0.57051
 H1037 H 0.93615 0.63938 0.56364
 C1038 C 0.91071 0.70953 0.58903
 C1039 C 0.92925 0.42885 0.65915
 H1040 H 0.93621 0.43579 0.63944
 C1041 C 0.91048 0.41017 0.70947
 C1042 C 1.07096 0.57050 0.65907
 H1043 H 1.06414 0.56367 0.63928
 C1044 C 1.08935 0.58891 0.70961
 C1045 C 0.92926 0.34035 0.57076
 H1046 H 0.93630 0.35998 0.56371
 C1047 C 0.91031 0.29022 0.58974
 C1048 C 1.07091 0.65910 0.57059
 H1049 H 1.06405 0.63935 0.56372
 C1050 C 1.08937 0.70955 0.58910
 C1051 C 0.84057 0.42884 0.57062
 H1052 H 0.86026 0.43581 0.56367
 C1053 C 0.79029 0.41011 0.58936
 C1054 C 1.15961 0.57077 0.57071
 H1055 H 1.13995 0.56376 0.56371
 C1056 C 1.20981 0.58964 0.58955
 O1057 O 0.47318 0.90197 0.36468
 O1058 O 0.47322 0.87041 0.33287
 C1059 C 0.46393 0.89248 0.34252
 C1060 C 0.44169 0.90695 0.32827
 C1061 C 0.43221 0.89778 0.30293
 H1062 H 0.44166 0.88044 0.29318
 O1063 O 0.52661 1.09872 0.36485
 O1064 O 0.52663 1.13025 0.33296
 C1065 C 0.53588 1.10817 0.34267
 C1066 C 0.55806 1.09364 0.32843
 C1067 C 0.56748 1.10275 0.30304
 H1068 H 0.55801 1.12007 0.29325
 O1069 O 0.36448 0.97388 0.40184
 O1070 O 0.33277 0.97392 0.37014
 C1071 C 0.34236 0.96464 0.39228
 C1072 C 0.32809 0.94242 0.40674
 C1073 C 0.30272 0.93302 0.39759
 H1074 H 0.29293 0.94255 0.38029
 O1075 O 0.63530 1.02667 0.40202
 O1076 O 0.66705 1.02669 0.37037
 C1077 C 0.65744 1.03592 0.39251
 C1078 C 0.67175 1.05806 0.40704
 C1079 C 0.69723 1.06730 0.39805
 H1080 H 0.70705 1.05775 0.38080
 O1081 O 0.40156 0.86474 0.47338
 O1082 O 0.36987 0.83306 0.47341
 C1083 C 0.39199 0.84263 0.46412
 C1084 C 0.40642 0.82837 0.44188
 C1085 C 0.39723 0.80305 0.43239
 H1086 H 0.37990 0.79329 0.44185
 O1087 O 0.59853 1.13584 0.47351
 O1088 O 0.63019 1.16756 0.47342
 C1089 C 0.60808 1.15794 0.46416
 C1090 C 0.59363 1.17216 0.44187
 C1091 C 0.60288 1.19742 0.43224
 H1092 H 0.62028 1.20715 0.44162
 O1093 O 0.40198 1.02675 0.36474
 O1094 O 0.37047 1.02687 0.33284
 C1095 C 0.39257 1.03606 0.34257
 C1096 C 0.40715 1.05823 0.32836
 C1097 C 0.39825 1.06748 0.30283
 H1098 H 0.38107 1.05789 0.29292
 O1099 O 0.59793 0.97379 0.36479
 O1100 O 0.62948 0.97376 0.33295
 C1101 C 0.60739 0.96452 0.34263
 C1102 C 0.59286 0.94232 0.32840
 C1103 C 0.60191 0.93296 0.30298
 H1104 H 0.61918 0.94247 0.29315
 O1105 O 0.52618 0.86478 0.40198
 O1106 O 0.52630 0.83304 0.37035
 C1107 C 0.53551 0.84267 0.39248
 C1108 C 0.55774 0.82846 0.40701
 C1109 C 0.56712 0.80305 0.39800
 H1110 H 0.55760 0.79320 0.38075
 O1111 O 0.47362 1.13606 0.40194
 O1112 O 0.47358 1.16776 0.37022
 C1113 C 0.46432 1.15816 0.39235
 C1114 C 0.44204 1.17238 0.40675
 C1115 C 0.43254 1.19770 0.39753
 H1116 H 0.44203 1.20749 0.38022
 O1117 O 0.36449 1.09875 0.47319
 O1118 O 0.33272 1.13036 0.47313
 C1119 C 0.34237 1.10828 0.46386
 C1120 C 0.32819 1.09383 0.44156
 C1121 C 0.30292 1.10306 0.43193
 H1122 H 0.29314 1.12042 0.44131
 O1123 O 0.63530 0.90205 0.47351
 O1124 O 0.66705 0.87041 0.47357
 C1125 C 0.65742 0.89250 0.46425
 C1126 C 0.67164 0.90691 0.44195
 C1127 C 0.69694 0.89769 0.43241
 H1128 H 0.70672 0.88036 0.44187
 O1129 O 0.47363 1.09865 0.36491
 O1130 O 0.47360 1.13017 0.33301
 C1131 C 0.46437 1.10808 0.34271
 C1132 C 0.44224 1.09349 0.32844
 C1133 C 0.43301 1.10241 0.30291
 H1134 H 0.44254 1.11966 0.29305
 O1135 O 0.52619 0.90205 0.36478
 O1136 O 0.52630 0.87049 0.33296
 C1137 C 0.53550 0.89259 0.34264
 C1138 C 0.55770 0.90713 0.32841
 C1139 C 0.56708 0.89809 0.30300
 H1140 H 0.55758 0.88081 0.29317
 O1141 O 0.63531 0.97367 0.40186
 O1142 O 0.66704 0.97363 0.37019
 C1143 C 0.65741 0.96436 0.39230
 C1144 C 0.67163 0.94208 0.40674
 C1145 C 0.69692 0.93256 0.39753
 H1146 H 0.70669 0.94202 0.38018
 O1147 O 0.36450 1.02690 0.40168
 O1148 O 0.33281 1.02701 0.36996
 C1149 C 0.34242 1.03626 0.39208
 C1150 C 0.32822 1.05858 0.40645
 C1151 C 0.30295 1.06812 0.39716
 H1152 H 0.29320 1.05865 0.37982
 O1153 O 0.40173 1.13593 0.47331
 O1154 O 0.37013 1.16772 0.47326
 C1155 C 0.39224 1.15808 0.46403
 C1156 C 0.40676 1.17233 0.44183
 C1157 C 0.39758 1.19764 0.43230
 H1158 H 0.38022 1.20740 0.44171
 O1159 O 0.59797 0.86497 0.47360
 O1160 O 0.62954 0.83316 0.47367
 C1161 C 0.60745 0.84281 0.46438
 C1162 C 0.59294 0.82853 0.44220
 C1163 C 0.60200 0.80311 0.43287
 H1164 H 0.61928 0.79331 0.44241
 O1165 O 0.59811 1.02681 0.36473
 O1166 O 0.62968 1.02684 0.33291
 C1167 C 0.60761 1.03611 0.34259
 C1168 C 0.59316 1.05839 0.32839
 C1169 C 0.60226 1.06782 0.30300
 H1170 H 0.61953 1.05831 0.29317
 O1171 O 0.40163 0.97374 0.36455
 O1172 O 0.37009 0.97380 0.33268
 C1173 C 0.39213 0.96447 0.34239
 C1174 C 0.40656 0.94218 0.32820
 C1175 C 0.39739 0.93268 0.30286
 H1176 H 0.38009 0.94216 0.29304
 O1177 O 0.52667 1.13596 0.40200
 O1178 O 0.52670 1.16766 0.37029
 C1179 C 0.53599 1.15805 0.39240
 C1180 C 0.55833 1.17222 0.40678
 C1181 C 0.56790 1.19747 0.39748
 H1182 H 0.55842 1.20725 0.38015
 O1183 O 0.47317 0.86468 0.40184
 O1184 O 0.47321 0.83294 0.37021
 C1185 C 0.46391 0.84256 0.39230
 C1186 C 0.44163 0.82833 0.40673
 C1187 C 0.43214 0.80301 0.39756
 H1188 H 0.44162 0.79322 0.38025
 O1189 O 0.63549 1.09837 0.47370
 O1190 O 0.66733 1.12989 0.47361
 C1191 C 0.65764 1.10779 0.46441
 C1192 C 0.67185 1.09321 0.44224
 C1193 C 0.69732 1.10213 0.43293
 H1194 H 0.70721 1.11935 0.44247
 O1195 O 0.36447 0.90209 0.47336
 O1196 O 0.33260 0.87058 0.47339
 C1197 C 0.34230 0.89265 0.46410
 C1198 C 0.32807 0.90717 0.44188
 C1199 C 0.30270 0.89810 0.43242
 H1200 H 0.29289 0.88079 0.44188
 Cu1201 Cu 0.49967 0.88653 0.38650
 Cu1202 Cu 0.49978 0.84853 0.34841
 Cu1203 Cu 0.50013 1.11420 0.38662
 Cu1204 Cu 0.50012 1.15215 0.34843
 Cu1205 Cu 0.38630 1.00030 0.38638
 Cu1206 Cu 0.34836 1.00042 0.34821
 Cu1207 Cu 0.61350 1.00024 0.38652
 Cu1208 Cu 0.65149 1.00023 0.34841
 C1209 C 0.42890 0.92934 0.34060
 H1210 H 0.43585 0.93629 0.36030
 C1211 C 0.41019 0.91061 0.29027
 C1212 C 0.57087 1.07127 0.34080
 H1213 H 0.56397 1.06436 0.36055
 C1214 C 0.58944 1.08987 0.29038
 C1215 C 0.34046 0.92952 0.42907
 H1216 H 0.36019 0.93640 0.43600
 C1217 C 0.29008 0.91100 0.41041
 C1218 C 0.65937 1.07098 0.42933
 H1219 H 0.63955 1.06422 0.43614
 C1220 C 0.70996 1.08920 0.41098
 C1221 C 0.42880 0.84070 0.42907
 H1222 H 0.43576 0.86039 0.43602
 C1223 C 0.41007 0.79041 0.41037
 C1224 C 0.57117 1.15987 0.42916
 H1225 H 0.56416 1.14023 0.43620
 C1226 C 0.59004 1.21003 0.41019
 C1227 C 0.42934 1.07121 0.34087
 H1228 H 0.43608 1.06444 0.36072
 C1229 C 0.41116 1.08942 0.29016
 C1230 C 0.57056 0.92944 0.34082
 H1231 H 0.56371 0.93629 0.36059
 C1232 C 0.58904 0.91098 0.29033
 C1233 C 0.57062 0.84090 0.42930
 H1234 H 0.56375 0.86067 0.43612
 C1235 C 0.58911 0.79042 0.41092
 C1236 C 0.42917 1.16001 0.42909
 H1237 H 0.43612 1.14031 0.43606
 C1238 C 0.41045 1.21028 0.41029
 C1239 C 0.34053 1.07141 0.42884
 H1240 H 0.36019 1.06441 0.43588
 C1241 C 0.29034 1.09022 0.40986
 C1242 C 0.65930 0.92929 0.42914
 H1243 H 0.63962 0.93627 0.43612
 C1244 C 0.70953 0.91050 0.41034
 O1245 O 0.52615 0.90227 0.63539
 O1246 O 0.52622 0.87070 0.66724
 C1247 C 0.53546 0.89280 0.65755
 C1248 C 0.55769 0.90730 0.67177
 C1249 C 0.56708 0.89820 0.69718
 H1250 H 0.55757 0.88092 0.70700
 O1251 O 0.47351 1.09868 0.63532
 O1252 O 0.47345 1.13030 0.66708
 C1253 C 0.46420 1.10820 0.65744
 C1254 C 0.44194 1.09374 0.67166
 C1255 C 0.43248 1.10291 0.69700
 H1256 H 0.44197 1.12021 0.70679
 O1257 O 0.36452 1.02705 0.59811
 O1258 O 0.33271 1.02710 0.62968
 C1259 C 0.34237 1.03633 0.60757
 C1260 C 0.32813 1.05853 0.59303
 C1261 C 0.30276 1.06797 0.60211
 H1262 H 0.29295 1.05851 0.61944
 O1263 O 0.63526 0.97404 0.59825
 O1264 O 0.66700 0.97387 0.62993
 C1265 C 0.65737 0.96469 0.60778
 C1266 C 0.67157 0.94247 0.59327
 C1267 C 0.69698 0.93306 0.60233
 H1268 H 0.70682 0.94256 0.61960
 O1269 O 0.59799 0.86503 0.52663
 O1270 O 0.62958 0.83323 0.52677
 C1271 C 0.60747 0.84290 0.53598
 C1272 C 0.59296 0.82869 0.55821
 C1273 C 0.60204 0.80331 0.56764
 H1274 H 0.61934 0.79350 0.55816
 O1275 O 0.40169 1.13584 0.52634
 O1276 O 0.37009 1.16763 0.52636
 C1277 C 0.39218 1.15797 0.53564
 C1278 C 0.40667 1.17217 0.55790
 C1279 C 0.39753 1.19752 0.56736
 H1280 H 0.38021 1.20731 0.55789
 O1281 O 0.40169 0.97403 0.63545
 O1282 O 0.37004 0.97403 0.66719
 C1283 C 0.39214 0.96474 0.65757
 C1284 C 0.40654 0.94246 0.67182
 C1285 C 0.39731 0.93296 0.69713
 H1286 H 0.38000 0.94246 0.70690
 O1287 O 0.59811 1.02705 0.63553
 O1288 O 0.62966 1.02694 0.66739
 C1289 C 0.60760 1.03627 0.65770
 C1290 C 0.59316 1.05854 0.67191
 C1291 C 0.60232 1.06801 0.69725
 H1292 H 0.61962 1.05851 0.70707
 O1293 O 0.47314 0.86493 0.59828
 O1294 O 0.47314 0.83318 0.62994
 C1295 C 0.46387 0.84281 0.60782
 C1296 C 0.44164 0.82857 0.59334
 C1297 C 0.43213 0.80324 0.60251
 H1298 H 0.44156 0.79346 0.61987
 O1299 O 0.52653 1.13591 0.59811
 O1300 O 0.52654 1.16770 0.62969
 C1301 C 0.53581 1.15804 0.60760
 C1302 C 0.55807 1.17224 0.59312
 C1303 C 0.56755 1.19759 0.60222
 H1304 H 0.55807 1.20741 0.61951
 O1305 O 0.36459 0.90220 0.52639
 O1306 O 0.33272 0.87070 0.52649
 C1307 C 0.34243 0.89278 0.53570
 C1308 C 0.32824 0.90733 0.55790
 C1309 C 0.30283 0.89830 0.56729
 H1310 H 0.29300 0.88103 0.55780
 O1311 O 0.63566 1.09871 0.52675
 O1312 O 0.66747 1.13027 0.52674
 C1313 C 0.65778 1.10822 0.53607
 C1314 C 0.67193 1.09380 0.55843
 C1315 C 0.69717 1.10304 0.56811
 H1316 H 0.70696 1.12040 0.55871
 O1317 O 0.52653 1.09874 0.63543
 O1318 O 0.52654 1.13036 0.66718
 C1319 C 0.53581 1.10826 0.65757
 C1320 C 0.55804 1.09379 0.67184
 C1321 C 0.56753 1.10294 0.69719
 H1322 H 0.55808 1.12027 0.70696
 O1323 O 0.47313 0.90218 0.63548
 O1324 O 0.47313 0.87060 0.66731
 C1325 C 0.46386 0.89269 0.65763
 C1326 C 0.44162 0.90718 0.67185
 C1327 C 0.43207 0.89800 0.69716
 H1328 H 0.44147 0.88063 0.70695
 O1329 O 0.63543 1.02707 0.59841
 O1330 O 0.66714 1.02696 0.63011
 C1331 C 0.65755 1.03630 0.60800
 C1332 C 0.67182 1.05860 0.59363
 C1333 C 0.69705 1.06816 0.60298
 H1334 H 0.70675 1.05871 0.62038
 O1335 O 0.36461 0.97404 0.59808
 O1336 O 0.33279 0.97403 0.62964
 C1337 C 0.34246 0.96476 0.60756
 C1338 C 0.32824 0.94254 0.59306
 C1339 C 0.30283 0.93317 0.60212
 H1340 H 0.29301 0.94269 0.61939
 O1341 O 0.59828 1.13575 0.52654
 O1342 O 0.62992 1.16749 0.52654
 C1343 C 0.60779 1.15789 0.53579
 C1344 C 0.59329 1.17216 0.55797
 C1345 C 0.60244 1.19750 0.56739
 H1346 H 0.61977 1.20726 0.55791
 O1347 O 0.40165 0.86485 0.52643
 O1348 O 0.36996 0.83317 0.52654
 C1349 C 0.39209 0.84277 0.53577
 C1350 C 0.40652 0.82856 0.55806
 C1351 C 0.39735 0.80324 0.56755
 H1352 H 0.38005 0.79345 0.55804
 O1353 O 0.59799 0.97402 0.63543
 O1354 O 0.62954 0.97385 0.66728
 C1355 C 0.60744 0.96467 0.65758
 C1356 C 0.59289 0.94245 0.67178
 C1357 C 0.60196 0.93302 0.69719
 H1358 H 0.61925 0.94249 0.70702
 O1359 O 0.40177 1.02706 0.63534
 O1360 O 0.37013 1.02712 0.66709
 C1361 C 0.39224 1.03637 0.65746
 C1362 C 0.40672 1.05861 0.67168
 C1363 C 0.39758 1.06811 0.69702
 H1364 H 0.38025 1.05867 0.70682
 O1365 O 0.47350 1.13588 0.59806
 O1366 O 0.47344 1.16767 0.62964
 C1367 C 0.46418 1.15800 0.60755
 C1368 C 0.44191 1.17219 0.59306
 C1369 C 0.43245 1.19754 0.60219
 H1370 H 0.44195 1.20734 0.61948
 O1371 O 0.52616 0.86499 0.59827
 O1372 O 0.52623 0.83323 0.62993
 C1373 C 0.53548 0.84287 0.60781
 C1374 C 0.55773 0.82866 0.59335
 C1375 C 0.56714 0.80328 0.60246
 H1376 H 0.55763 0.79345 0.61974
 O1377 O 0.63516 0.90228 0.52656
 O1378 O 0.66693 0.87066 0.52669
 C1379 C 0.65729 0.89278 0.53588
 C1380 C 0.67153 0.90730 0.55809
 C1381 C 0.69693 0.89822 0.56747
 H1382 H 0.70674 0.88094 0.55796
 O1383 O 0.36448 1.09863 0.52625
 O1384 O 0.33270 1.13024 0.52627
 C1385 C 0.34235 1.10814 0.53552
 C1386 C 0.32812 1.09365 0.55776
 C1387 C 0.30275 1.10276 0.56716
 H1388 H 0.29294 1.12004 0.55763
 Cu1389 Cu 0.49964 0.88675 0.61368
 Cu1390 Cu 0.49969 0.84875 0.65180
 Cu1391 Cu 0.50003 1.11413 0.61357
 Cu1392 Cu 0.49999 1.15220 0.65158
 Cu1393 Cu 0.38625 0.88662 0.49987
 Cu1394 Cu 0.34810 0.84870 0.49997
 Cu1395 Cu 0.61344 0.88675 0.50006
 Cu1396 Cu 0.65146 0.84868 0.50019
 Cu1397 Cu 0.38626 1.11412 0.49977
 Cu1398 Cu 0.34822 1.15217 0.49976
 Cu1399 Cu 0.61382 1.11400 0.50013
 Cu1400 Cu 0.65192 1.15198 0.50007
 Cu1401 Cu 0.38632 1.00055 0.61359
 Cu1402 Cu 0.34823 1.00057 0.65159
 Cu1403 Cu 0.61354 1.00056 0.61373
 Cu1404 Cu 0.65151 1.00038 0.65187
 C1405 C 0.57057 0.92961 0.65936
 H1406 H 0.56370 0.93651 0.63960
 C1407 C 0.58908 0.91103 0.70983
 C1408 C 0.42909 1.07140 0.65930
 H1409 H 0.43602 1.06446 0.63959
 C1410 C 0.41044 1.09012 0.70963
 C1411 C 0.34051 1.07135 0.57066
 H1412 H 0.36025 1.06445 0.56378
 C1413 C 0.29011 1.08995 0.58920
 C1414 C 0.65915 0.92962 0.57095
 H1415 H 0.63939 0.93649 0.56409
 C1416 C 0.70961 0.91108 0.58944
 C1417 C 0.57061 0.84107 0.57103
 H1418 H 0.56373 0.86081 0.56412
 C1419 C 0.58916 0.79065 0.58963
 C1420 C 0.42904 1.15981 0.57073
 H1421 H 0.43597 1.14010 0.56381
 C1422 C 0.41040 1.21016 0.58937
 C1423 C 0.42888 0.92959 0.65948
 H1424 H 0.43587 0.93655 0.63979
 C1425 C 0.41005 0.91087 0.70976
 C1426 C 0.57084 1.07140 0.65951
 H1427 H 0.56390 1.06447 0.63979
 C1428 C 0.58953 1.09007 0.70985
 C1429 C 0.42886 0.84092 0.57093
 H1430 H 0.43581 0.86062 0.56398
 C1431 C 0.41012 0.79062 0.58963
 C1432 C 0.57092 1.15983 0.57080
 H1433 H 0.56399 1.14011 0.56390
 C1434 C 0.58959 1.21017 0.58938
 C1435 C 0.34065 0.92965 0.57076
 H1436 H 0.36041 0.93649 0.56389
 C1437 C 0.29018 0.91119 0.58926
 C1438 C 0.65957 1.07139 0.57117
 H1439 H 0.63994 1.06439 0.56409
 C1440 C 0.70969 1.09025 0.59025
 O1441 O 0.59792 0.52595 1.13575
 O1442 O 0.62952 0.52602 1.16756
 C1443 C 0.60741 0.53524 1.15788
 C1444 C 0.59288 0.55745 1.17208
 C1445 C 0.60189 0.56682 1.19752
 H1446 H 0.61914 0.55729 1.20740
 O1447 O 0.40157 0.47323 1.13564
 O1448 O 0.37000 0.47322 1.16745
 C1449 C 0.39208 0.46394 1.15778
 C1450 C 0.40653 0.44167 1.17201
 C1451 C 0.39731 0.43215 1.19732
 H1452 H 0.37997 0.44162 1.20707
 O1453 O 0.52635 0.63507 1.09834
 O1454 O 0.52644 0.66680 1.12999
 C1455 C 0.53567 0.65718 1.10787
 C1456 C 0.55788 0.67141 1.09338
 C1457 C 0.56725 0.69681 1.10243
 H1458 H 0.55772 0.70664 1.11969
 O1459 O 0.47348 0.36461 1.09838
 O1460 O 0.47335 0.33271 1.12990
 C1461 C 0.46418 0.34244 1.10778
 C1462 C 0.44203 0.32824 1.09315
 C1463 C 0.43278 0.30272 1.10203
 H1464 H 0.44235 0.29281 1.11924
 O1465 O 0.63526 0.59774 1.02685
 O1466 O 0.66704 0.62933 1.02690
 C1467 C 0.65738 0.60724 1.03617
 C1468 C 0.67158 0.59276 1.05844
 C1469 C 0.69694 0.60188 1.06790
 H1470 H 0.70675 0.61917 1.05841
 O1471 O 0.36421 0.40176 1.02668
 O1472 O 0.33250 0.37010 1.02674
 C1473 C 0.34212 0.39220 1.03602
 C1474 C 0.32792 0.40659 1.05834
 C1475 C 0.30265 0.39734 1.06792
 H1476 H 0.29289 0.38000 1.05849
 O1477 O 0.47330 0.59786 1.13551
 O1478 O 0.47334 0.62943 1.16733
 C1479 C 0.46405 0.60736 1.15767
 C1480 C 0.44182 0.59291 1.17192
 C1481 C 0.43242 0.60208 1.19728
 H1482 H 0.44194 0.61938 1.20703
 O1483 O 0.52642 0.40156 1.13594
 O1484 O 0.52635 0.36986 1.16765
 C1485 C 0.53567 0.39196 1.15806
 C1486 C 0.55797 0.40631 1.17232
 C1487 C 0.56753 0.39701 1.19759
 H1488 H 0.55806 0.37967 1.20734
 O1489 O 0.63522 0.47302 1.09854
 O1490 O 0.66701 0.47302 1.13016
 C1491 C 0.65737 0.46378 1.10804
 C1492 C 0.67165 0.44161 1.09352
 C1493 C 0.69704 0.43224 1.10261
 H1494 H 0.70683 0.44172 1.11993
 O1495 O 0.36434 0.52632 1.09846
 O1496 O 0.33259 0.52637 1.13010
 C1497 C 0.34223 0.53564 1.10799
 C1498 C 0.32805 0.55795 1.09354
 C1499 C 0.30277 0.56752 1.10275
 H1500 H 0.29298 0.55808 1.12010
 O1501 O 0.40169 0.63535 1.02678
 O1502 O 0.37006 0.66711 1.02677
 C1503 C 0.39217 0.65748 1.03605
 C1504 C 0.40665 0.67169 1.05830
 C1505 C 0.39754 0.69703 1.06780
 H1506 H 0.38023 0.70685 1.05835
 O1507 O 0.59816 0.36440 1.02677
 O1508 O 0.62973 0.33259 1.02685
 C1509 C 0.60765 0.34228 1.03610
 C1510 C 0.59318 0.32809 1.05840
 C1511 C 0.60234 0.30276 1.06789
 H1512 H 0.61964 0.29296 1.05841
 O1513 O 0.40156 0.52625 1.13569
 O1514 O 0.36999 0.52631 1.16751
 C1515 C 0.39208 0.53555 1.15783
 C1516 C 0.40660 0.55778 1.17203
 C1517 C 0.39751 0.56729 1.19739
 H1518 H 0.38019 0.55786 1.20722
 O1519 O 0.59816 0.47294 1.13594
 O1520 O 0.62977 0.47293 1.16773
 C1521 C 0.60769 0.46365 1.15808
 C1522 C 0.59324 0.44139 1.17232
 C1523 C 0.60248 0.43177 1.19759
 H1524 H 0.61987 0.44114 1.20735
 O1525 O 0.52650 0.36448 1.09861
 O1526 O 0.52643 0.33260 1.13014
 C1527 C 0.53576 0.34231 1.10809
 C1528 C 0.55802 0.32810 1.09362
 C1529 C 0.56751 0.30276 1.10279
 H1530 H 0.55806 0.29297 1.12012
 O1531 O 0.47334 0.63518 1.09837
 O1532 O 0.47338 0.66690 1.13002
 C1533 C 0.46410 0.65731 1.10791
 C1534 C 0.44187 0.67159 1.09346
 C1535 C 0.43246 0.69693 1.10263
 H1536 H 0.44197 0.70668 1.11995
 O1537 O 0.36449 0.59812 1.02683
 O1538 O 0.33270 0.62971 1.02681
 C1539 C 0.34236 0.60763 1.03611
 C1540 C 0.32813 0.59317 1.05837
 C1541 C 0.30284 0.60241 1.06790
 H1542 H 0.29311 0.61978 1.05846
 O1543 O 0.63541 0.40156 1.02669
 O1544 O 0.66716 0.36993 1.02678
 C1545 C 0.65753 0.39204 1.03601
 C1546 C 0.67174 0.40651 1.05826
 C1547 C 0.69714 0.39745 1.06769
 H1548 H 0.70699 0.38020 1.05817
 O1549 O 0.47338 0.40161 1.13581
 O1550 O 0.47323 0.36989 1.16751
 C1551 C 0.46400 0.39203 1.15789
 C1552 C 0.44170 0.40647 1.17208
 C1553 C 0.43214 0.39727 1.19739
 H1554 H 0.44156 0.37993 1.20720
 O1555 O 0.52631 0.59778 1.13553
 O1556 O 0.52639 0.62934 1.16735
 C1557 C 0.53559 0.60723 1.15769
 C1558 C 0.55775 0.59267 1.17197
 C1559 C 0.56707 0.60171 1.19741
 H1560 H 0.55756 0.61899 1.20721
 O1561 O 0.36428 0.47329 1.09847
 O1562 O 0.33253 0.47326 1.13011
 C1563 C 0.34216 0.46400 1.10800
 C1564 C 0.32794 0.44174 1.09355
 C1565 C 0.30268 0.43217 1.10281
 H1566 H 0.29293 0.44159 1.12018
 O1567 O 0.63524 0.52602 1.09864
 O1568 O 0.66702 0.52609 1.13027
 C1569 C 0.65736 0.53534 1.10815
 C1570 C 0.67157 0.55759 1.09366
 C1571 C 0.69693 0.56703 1.10280
 H1572 H 0.70673 0.55754 1.12011
 O1573 O 0.40166 0.36478 1.02655
 O1574 O 0.37013 0.33293 1.02660
 C1575 C 0.39224 0.34261 1.03581
 C1576 C 0.40684 0.32833 1.05795
 C1577 C 0.39793 0.30281 1.06715
 H1578 H 0.38071 0.29296 1.05757
 O1579 O 0.59810 0.63501 1.02676
 O1580 O 0.62971 0.66678 1.02681
 C1581 C 0.60760 0.65714 1.03604
 C1582 C 0.59308 0.67139 1.05823
 C1583 C 0.60213 0.69680 1.06759
 H1584 H 0.61941 0.70662 1.05808
 Cu1585 Cu 0.61346 0.49947 1.11405
 Cu1586 Cu 0.65152 0.49952 1.15212
 Cu1587 Cu 0.38610 0.49977 1.11389
 Cu1588 Cu 0.34810 0.49979 1.15198
 Cu1589 Cu 0.49982 0.61331 1.11376
 Cu1590 Cu 0.49990 0.65130 1.15187
 Cu1591 Cu 0.49996 0.38625 1.11404
 Cu1592 Cu 0.49982 0.34807 1.15198
 C1593 C 0.57062 0.57035 1.15961
 H1594 H 0.56379 0.56351 1.13982
 C1595 C 0.58900 0.58880 1.21013
 C1596 C 0.42891 0.42885 1.15969
 H1597 H 0.43591 0.43582 1.14000
 C1598 C 0.41007 0.41010 1.20997
 C1599 C 0.57077 0.65900 1.07109
 H1600 H 0.56392 0.63924 1.06424
 C1601 C 0.58923 0.70946 1.08955
 C1602 C 0.42908 0.34075 1.07092
 H1603 H 0.43584 0.36060 1.06419
 C1604 C 0.41088 0.29006 1.08904
 C1605 C 0.65920 0.57043 1.07130
 H1606 H 0.63947 0.56352 1.06438
 C1607 C 0.70956 0.58903 1.08994
 C1608 C 0.34026 0.42897 1.07113
 H1609 H 0.35991 0.43598 1.06412
 C1610 C 0.29008 0.41011 1.09003
 C1611 C 0.42894 0.57057 1.15960
 H1612 H 0.43583 0.56362 1.13987
 C1613 C 0.41040 0.58931 1.20996
 C1614 C 0.57080 0.42869 1.15999
 H1615 H 0.56380 0.43573 1.14033
 C1616 C 0.58965 0.40971 1.21019
 C1617 C 0.65930 0.42878 1.07115
 H1618 H 0.63954 0.43564 1.06426
 C1619 C 0.70974 0.41030 1.08972
 C1620 C 0.34043 0.57075 1.07116
 H1621 H 0.36009 0.56375 1.06418
 C1622 C 0.29022 0.58962 1.08996
 C1623 C 0.42900 0.65928 1.07110
 H1624 H 0.43590 0.63957 1.06415
 C1625 C 0.41043 0.70961 1.08983
 C1626 C 0.57084 0.34047 1.07124
 H1627 H 0.56390 0.36017 1.06428
 C1628 C 0.58954 0.29014 1.08994
 O1629 O 0.59812 0.47324 0.86486
 O1630 O 0.62969 0.47329 0.83304
 C1631 C 0.60761 0.46400 0.84270
 C1632 C 0.59316 0.44178 0.82845
 C1633 C 0.60233 0.43237 0.80310
 H1634 H 0.61964 0.44188 0.79333
 O1635 O 0.40174 0.52639 0.86460
 O1636 O 0.37012 0.52649 0.83281
 C1637 C 0.39222 0.53572 0.84247
 C1638 C 0.40667 0.55798 0.82825
 C1639 C 0.39750 0.56747 0.80291
 H1640 H 0.38019 0.55799 0.79312
 O1641 O 0.47323 0.63530 0.90196
 O1642 O 0.47327 0.66709 0.87034
 C1643 C 0.46397 0.65744 0.89243
 C1644 C 0.44171 0.67166 0.90688
 C1645 C 0.43217 0.69697 0.89768
 H1646 H 0.44160 0.70675 0.88033
 O1647 O 0.52637 0.36445 0.90205
 O1648 O 0.52638 0.33268 0.87045
 C1649 C 0.53563 0.34232 0.89256
 C1650 C 0.55785 0.32806 0.90706
 C1651 C 0.56727 0.30271 0.89791
 H1652 H 0.55777 0.29295 0.88059
 O1653 O 0.63546 0.40145 0.97364
 O1654 O 0.66719 0.36981 0.97364
 C1655 C 0.65757 0.39191 0.96434
 C1656 C 0.67178 0.40634 0.94205
 C1657 C 0.69707 0.39713 0.93248
 H1658 H 0.70684 0.37978 0.94191
 O1659 O 0.36459 0.59800 0.97379
 O1660 O 0.33276 0.62956 0.97370
 C1661 C 0.34245 0.60747 0.96448
 C1662 C 0.32824 0.59295 0.94225
 C1663 C 0.30280 0.60195 0.93291
 H1664 H 0.29294 0.61917 0.94246
 O1665 O 0.52628 0.59800 0.86488
 O1666 O 0.52640 0.62961 0.83308
 C1667 C 0.53562 0.60750 0.84276
 C1668 C 0.55786 0.59300 0.82857
 C1669 C 0.56729 0.60210 0.80318
 H1670 H 0.55780 0.61939 0.79334
 O1671 O 0.47345 0.40175 0.86471
 O1672 O 0.47342 0.37015 0.83293
 C1673 C 0.46418 0.39226 0.84256
 C1674 C 0.44197 0.40675 0.82829
 C1675 C 0.43257 0.39765 0.80290
 H1676 H 0.44209 0.38036 0.79311
 O1677 O 0.63538 0.52615 0.90214
 O1678 O 0.66712 0.52626 0.87049
 C1679 C 0.65750 0.53545 0.89263
 C1680 C 0.67174 0.55764 0.90714
 C1681 C 0.69713 0.56704 0.89806
 H1682 H 0.70695 0.55755 0.88077
 O1683 O 0.36448 0.47337 0.90178
 O1684 O 0.33271 0.47341 0.87015
 C1685 C 0.34233 0.46414 0.89226
 C1686 C 0.32804 0.44195 0.90676
 C1687 C 0.30270 0.43253 0.89758
 H1688 H 0.29296 0.44200 0.88022
 O1689 O 0.59809 0.63496 0.97374
 O1690 O 0.62970 0.66673 0.97372
 C1691 C 0.60759 0.65710 0.96445
 C1692 C 0.59309 0.67137 0.94224
 C1693 C 0.60217 0.69677 0.93286
 H1694 H 0.61948 0.70654 0.94236
 O1695 O 0.40143 0.36469 0.97351
 O1696 O 0.36986 0.33288 0.97350
 C1697 C 0.39194 0.34256 0.96422
 C1698 C 0.40641 0.32834 0.94196
 C1699 C 0.39721 0.30304 0.93245
 H1700 H 0.37985 0.29328 0.94188
 O1701 O 0.40178 0.47338 0.86462
 O1702 O 0.37017 0.47340 0.83281
 C1703 C 0.39227 0.46412 0.84247
 C1704 C 0.40676 0.44190 0.82824
 C1705 C 0.39768 0.43247 0.80285
 H1706 H 0.38038 0.44194 0.79302
 O1707 O 0.59809 0.52625 0.86496
 O1708 O 0.62966 0.52636 0.83314
 C1709 C 0.60756 0.53559 0.84282
 C1710 C 0.59306 0.55783 0.82860
 C1711 C 0.60215 0.56725 0.80321
 H1712 H 0.61945 0.55776 0.79341
 O1713 O 0.47333 0.36452 0.90194
 O1714 O 0.47328 0.33275 0.87033
 C1715 C 0.46399 0.34242 0.89242
 C1716 C 0.44167 0.32827 0.90685
 C1717 C 0.43214 0.30296 0.89766
 H1718 H 0.44163 0.29316 0.88036
 O1719 O 0.52626 0.63521 0.90208
 O1720 O 0.52638 0.66701 0.87046
 C1721 C 0.53559 0.65732 0.89258
 C1722 C 0.55784 0.67149 0.90709
 C1723 C 0.56726 0.69689 0.89804
 H1724 H 0.55773 0.70675 0.88078
 O1725 O 0.36423 0.40192 0.97361
 O1726 O 0.33249 0.37028 0.97359
 C1727 C 0.34211 0.39239 0.96432
 C1728 C 0.32791 0.40685 0.94204
 C1729 C 0.30256 0.39773 0.93253
 H1730 H 0.29273 0.38045 0.94203
 O1731 O 0.63535 0.59779 0.97381
 O1732 O 0.66714 0.62937 0.97379
 C1733 C 0.65749 0.60728 0.96454
 C1734 C 0.67174 0.59279 0.94233
 C1735 C 0.69713 0.60187 0.93294
 H1736 H 0.70694 0.61915 0.94244
 O1737 O 0.52646 0.40161 0.86472
 O1738 O 0.52650 0.37001 0.83294
 C1739 C 0.53576 0.39209 0.84260
 C1740 C 0.55803 0.40657 0.82839
 C1741 C 0.56754 0.39746 0.80303
 H1742 H 0.55810 0.38015 0.79321
 O1743 O 0.47327 0.59813 0.86471
 O1744 O 0.47331 0.62974 0.83291
 C1745 C 0.46402 0.60765 0.84255
 C1746 C 0.44180 0.59320 0.82828
 C1747 C 0.43229 0.60238 0.80294
 H1748 H 0.44173 0.61972 0.79316
 O1749 O 0.36466 0.52635 0.90194
 O1750 O 0.33286 0.52646 0.87033
 C1751 C 0.34253 0.53566 0.89246
 C1752 C 0.32829 0.55783 0.90701
 C1753 C 0.30284 0.56716 0.89800
 H1754 H 0.29301 0.55765 0.88072
 O1755 O 0.63541 0.47314 0.90203
 O1756 O 0.66714 0.47319 0.87037
 C1757 C 0.65752 0.46387 0.89247
 C1758 C 0.67175 0.44157 0.90688
 C1759 C 0.69704 0.43205 0.89764
 H1760 H 0.70679 0.44152 0.88029
 O1761 O 0.59813 0.36435 0.97372
 O1762 O 0.62969 0.33253 0.97372
 C1763 C 0.60760 0.34220 0.96445
 C1764 C 0.59308 0.32800 0.94222
 C1765 C 0.60218 0.30265 0.93274
 H1766 H 0.61950 0.29283 0.94219
 O1767 O 0.40168 0.63532 0.97373
 O1768 O 0.37003 0.66706 0.97365
 C1769 C 0.39213 0.65743 0.96440
 C1770 C 0.40657 0.67164 0.94211
 C1771 C 0.39736 0.69695 0.93259
 H1772 H 0.38004 0.70672 0.94207
 Cu1773 Cu 0.61359 0.49969 0.88667
 Cu1774 Cu 0.65158 0.49979 0.84857
 Cu1775 Cu 0.38634 0.49986 0.88640
 Cu1776 Cu 0.34828 0.49995 0.84833
 Cu1777 Cu 0.61353 0.61321 1.00029
 Cu1778 Cu 0.65159 0.65124 1.00030
 Cu1779 Cu 0.61363 0.38611 1.00019
 Cu1780 Cu 0.65162 0.34802 1.00025
 Cu1781 Cu 0.38629 0.61354 1.00029
 Cu1782 Cu 0.34820 0.65154 1.00022
 Cu1783 Cu 0.38603 0.38647 1.00008
 Cu1784 Cu 0.34806 0.34837 1.00012
 Cu1785 Cu 0.49974 0.61349 0.88658
 Cu1786 Cu 0.49985 0.65155 0.84851
 Cu1787 Cu 0.49991 0.38625 0.88652
 Cu1788 Cu 0.49989 0.34821 0.84848
 C1789 C 0.57082 0.42892 0.84079
 H1790 H 0.56387 0.43582 0.86051
 C1791 C 0.58956 0.41035 0.79043
 C1792 C 0.42901 0.57081 0.84063
 H1793 H 0.43596 0.56385 0.86035
 C1794 C 0.41028 0.58953 0.79030
 C1795 C 0.42893 0.65930 0.92928
 H1796 H 0.43590 0.63962 0.93626
 C1797 C 0.41013 0.70957 0.91052
 C1798 C 0.57072 0.34040 0.92940
 H1799 H 0.56382 0.36012 0.93633
 C1800 C 0.58930 0.29006 0.91072
 C1801 C 0.65943 0.42874 0.92927
 H1802 H 0.63976 0.43572 0.93627
 C1803 C 0.70965 0.40996 0.91041
 C1804 C 0.34069 0.57069 0.92934
 H1805 H 0.36048 0.56387 0.93617
 C1806 C 0.29015 0.58907 0.91093
 C1807 C 0.57072 0.57067 0.84098
 H1808 H 0.56382 0.56378 0.86073
 C1809 C 0.58930 0.58925 0.79055
 C1810 C 0.42910 0.42907 0.84066
 H1811 H 0.43598 0.43596 0.86040
 C1812 C 0.41057 0.41048 0.79023
 C1813 C 0.65935 0.57048 0.92947
 H1814 H 0.63960 0.56361 0.93634
 C1815 C 0.70978 0.58901 0.91094
 C1816 C 0.34034 0.42915 0.92917
 H1817 H 0.36005 0.43605 0.93612
 C1818 C 0.29001 0.41056 0.91044
 C1819 C 0.57073 0.65903 0.92938
 H1820 H 0.56384 0.63928 0.93625
 C1821 C 0.58928 0.70948 0.91090
 C1822 C 0.42882 0.34065 0.92918
 H1823 H 0.43580 0.36033 0.93614
 C1824 C 0.41005 0.29040 0.91043
 C1825 C 1.12982 1.12871 1.30143
 C1826 C 1.12039 1.11944 1.28080
 C1827 C 1.10957 1.10888 1.25640
 C1828 C 1.10058 1.10009 1.23536
 C1829 C 1.12747 0.62745 0.80175
 C1830 C 1.11834 0.61821 0.78098
 C1831 C 1.10796 0.60769 0.75640
 C1832 C 1.09935 0.59897 0.73519
 C1833 C 0.62847 1.12864 0.80171
 C1834 C 0.61917 1.11944 0.78098
 C1835 C 0.60855 1.10896 0.75647
 C1836 C 0.59973 1.10023 0.73534
 C1837 C 0.62728 0.62752 1.30212
 C1838 C 0.61809 0.61824 1.28140
 C1839 C 0.60767 0.60766 1.25687
 C1840 C 0.59903 0.59890 1.23569
 C1841 C 0.87122 0.87127 1.30158
 C1842 C 0.88057 0.88056 1.28090
 C1843 C 0.89125 0.89114 1.25646
 C1844 C 0.90013 0.89993 1.23537
 C1845 C 0.87093 0.37189 0.80119
 C1846 C 0.88038 0.38103 0.78050
 C1847 C 0.89121 0.39140 0.75604
 C1848 C 0.90018 0.40004 0.73493
 C1849 C 0.37075 0.87205 0.80136
 C1850 C 0.38012 0.88133 0.78070
 C1851 C 0.39084 0.89189 0.75627
 C1852 C 0.39975 0.90066 0.73519
 C1853 C 0.37053 0.37165 1.30164
 C1854 C 0.37997 0.38082 1.28095
 C1855 C 0.39078 0.39124 1.25650
 C1856 C 0.39975 0.39992 1.23540
 C1857 C 0.87009 1.12896 0.69870
 C1858 C 0.87953 1.11965 0.71934
 C1859 C 0.89034 1.10904 0.74373
 C1860 C 0.89934 1.10020 0.76476
 C1861 C 0.87161 0.62818 0.19803
 C1862 C 0.88092 0.61888 0.21871
 C1863 C 0.89153 0.60828 0.24318
 C1864 C 0.90034 0.59948 0.26429
 C1865 C 0.37283 1.12720 0.19776
 C1866 C 0.38205 1.11814 0.21858
 C1867 C 0.39254 1.10787 0.24322
 C1868 C 0.40120 1.09934 0.26450
 C1869 C 0.37094 0.62813 0.69862
 C1870 C 0.38035 0.61892 0.71929
 C1871 C 0.39110 0.60844 0.74375
 C1872 C 0.40002 0.59971 0.76485
 C1873 C 1.12763 0.87222 0.69828
 C1874 C 1.11846 0.88146 0.71903
 C1875 C 1.10804 0.89198 0.74358
 C1876 C 1.09939 0.90071 0.76477
 C1877 C 1.12965 0.37132 0.19823
 C1878 C 1.12024 0.38060 0.21888
 C1879 C 1.10948 0.39118 0.24328
 C1880 C 1.10053 0.39998 0.26432
 C1881 C 0.62753 0.87234 0.19840
 C1882 C 0.61831 0.88161 0.21912
 C1883 C 0.60783 0.89215 0.24363
 C1884 C 0.59913 0.90088 0.26480
 C1885 C 0.62899 0.37227 0.69863
 C1886 C 0.61957 0.38137 0.71934
 C1887 C 0.60878 0.39169 0.74383
 C1888 C 0.59983 0.40028 0.76495
 C1889 C 1.30205 1.12715 1.12714
 C1890 C 1.28124 1.11803 1.11800
 C1891 C 1.25661 1.10768 1.10761
 C1892 C 1.23535 1.09910 1.09900
 C1893 C 1.30138 0.62878 0.62856
 C1894 C 1.28071 0.61945 0.61925
 C1895 C 1.25628 0.60880 0.60864
 C1896 C 1.23522 0.59993 0.59981
 C1897 C 0.80116 1.12911 0.62983
 C1898 C 0.78050 1.11986 0.62041
 C1899 C 0.75610 1.10930 0.60963
 C1900 C 0.73506 1.10050 0.60065
 C1901 C 0.80141 0.62767 1.12866
 C1902 C 0.78070 0.61844 1.11941
 C1903 C 0.75619 0.60791 1.10886
 C1904 C 0.73506 0.59917 1.10010
 C1905 C 1.30123 0.87127 0.87142
 C1906 C 1.28056 0.88058 0.88073
 C1907 C 1.25613 0.89122 0.89135
 C1908 C 1.23506 0.90007 0.90019
 C1909 C 1.30159 0.37163 0.37047
 C1910 C 1.28090 0.38083 0.37984
 C1911 C 1.25644 0.39131 0.39057
 C1912 C 1.23535 0.40003 0.39948
 C1913 C 0.80115 0.87180 0.37110
 C1914 C 0.78048 0.88103 0.38047
 C1915 C 0.75604 0.89154 0.39118
 C1916 C 0.73496 0.90029 0.40007
 C1917 C 0.80132 0.37125 0.87122
 C1918 C 0.78063 0.38048 0.88055
 C1919 C 0.75617 0.39100 0.89124
 C1920 C 0.73508 0.39976 0.90012
 C1921 C 0.69830 0.87219 1.12783
 C1922 C 0.71905 0.88140 1.11864
 C1923 C 0.74361 0.89189 1.10820
 C1924 C 0.76480 0.90059 1.09954
 C1925 C 0.69853 0.37160 0.62853
 C1926 C 0.71924 0.38078 0.61918
 C1927 C 0.74372 0.39123 0.60848
 C1928 C 0.76483 0.39993 0.59960
 C1929 C 0.19826 0.87242 0.62759
 C1930 C 0.21897 0.88172 0.61842
 C1931 C 0.24349 0.89232 0.60800
 C1932 C 0.26465 0.90109 0.59934
 C1933 C 0.19855 0.37122 1.12939
 C1934 C 0.21920 0.38048 1.12000
 C1935 C 0.24363 0.39104 1.10926
 C1936 C 0.26468 0.39984 1.10034
 C1937 C 0.69851 1.12786 0.87130
 C1938 C 0.71921 1.11869 0.88068
 C1939 C 0.74369 1.10827 0.89140
 C1940 C 0.76481 1.09960 0.90029
 C1941 C 0.69815 0.62755 0.37256
 C1942 C 0.71893 0.61828 0.38163
 C1943 C 0.74352 0.60770 0.39192
 C1944 C 0.76474 0.59895 0.40047
 C1945 C 0.19877 1.12887 0.37029
 C1946 C 0.21944 1.11966 0.37972
 C1947 C 0.24387 1.10918 0.39052
 C1948 C 0.26494 1.10044 0.39950
 C1949 C 0.19807 0.62742 0.87252
 C1950 C 0.21882 0.61822 0.88173
 C1951 C 0.24338 0.60777 0.89220
 C1952 C 0.26458 0.59910 0.90088
 C1953 C 1.12897 1.30130 1.12878
 C1954 C 1.11961 1.28067 1.11948
 C1955 C 1.10892 1.25627 1.10887
 C1956 C 1.10003 1.23522 1.10004
 C1957 C 1.12776 0.80156 0.62759
 C1958 C 1.11858 0.78081 0.61838
 C1959 C 1.10812 0.75626 0.60789
 C1960 C 1.09944 0.73509 0.59918
 C1961 C 0.62883 1.30180 0.62787
 C1962 C 0.61944 1.28115 0.61866
 C1963 C 0.60871 1.25671 0.60820
 C1964 C 0.59983 1.23562 0.59950
 C1965 C 0.62764 0.80151 1.12789
 C1966 C 0.61845 0.78076 1.11872
 C1967 C 0.60798 0.75620 1.10827
 C1968 C 0.59929 0.73501 1.09960
 C1969 C 0.87093 1.30132 0.87193
 C1970 C 0.88032 1.28065 0.88114
 C1971 C 0.89107 1.25620 0.89160
 C1972 C 0.89998 1.23510 0.90030
 C1973 C 0.87182 0.80113 0.37101
 C1974 C 0.88109 0.78044 0.38030
 C1975 C 0.89165 0.75596 0.39090
 C1976 C 0.90042 0.73485 0.39971
 C1977 C 0.37125 1.30180 0.37129
 C1978 C 0.38062 1.28117 0.38061
 C1979 C 0.39132 1.25676 0.39122
 C1980 C 0.40020 1.23570 0.40004
 C1981 C 0.37078 0.80123 0.87193
 C1982 C 0.38018 0.78055 0.88112
 C1983 C 0.39093 0.75610 0.89160
 C1984 C 0.39985 0.73501 0.90032
 C1985 C 1.12746 0.69812 0.87245
 C1986 C 1.11832 0.71887 0.88169
 C1987 C 1.10795 0.74343 0.89222
 C1988 C 1.09933 0.76463 0.90095
 C1989 C 1.12915 0.19874 0.37086
 C1990 C 1.11980 0.21938 0.38017
 C1991 C 1.10913 0.24379 0.39079
 C1992 C 1.10027 0.26484 0.39961
 C1993 C 0.62753 0.69832 0.37266
 C1994 C 0.61835 0.71909 0.38183
 C1995 C 0.60788 0.74366 0.39225
 C1996 C 0.59918 0.76486 0.40090
 C1997 C 0.62780 0.19842 0.87145
 C1998 C 0.61859 0.21907 0.88085
 C1999 C 0.60813 0.24351 0.89158
 C2000 C 0.59943 0.26460 0.90047
 C2001 C 0.87210 0.69832 1.12859
 C2002 C 0.88134 0.71903 1.11932
 C2003 C 0.89188 0.74352 1.10875
 C2004 C 0.90063 0.76465 1.09998
 C2005 C 0.87084 0.19894 0.62910
 C2006 C 0.88026 0.21953 0.61972
 C2007 C 0.89101 0.24388 0.60901
 C2008 C 0.89995 0.26488 0.60010
 C2009 C 0.37084 0.69889 0.62803
 C2010 C 0.38022 0.71959 0.61887
 C2011 C 0.39096 0.74406 0.60845
 C2012 C 0.39987 0.76516 0.59977
 C2013 C 0.37273 0.19775 1.12698
 C2014 C 0.38189 0.21854 1.11785
 C2015 C 0.39231 0.24315 1.10750
 C2016 C 0.40093 0.26441 1.09894
 C2017 C 1.12774 1.12886 0.69841
 C2018 C 1.11859 1.11946 0.71911
 C2019 C 1.10819 1.10873 0.74360
 C2020 C 1.09952 1.09983 0.76473
 C2021 C 1.12876 0.62963 0.19834
 C2022 C 1.11951 0.62015 0.21897
 C2023 C 1.10899 0.60928 0.24336
 C2024 C 1.10022 0.60025 0.26440
 C2025 C 0.62798 1.12881 0.19855
 C2026 C 0.61876 1.11948 0.21925
 C2027 C 0.60827 1.10885 0.24374
 C2028 C 0.59956 1.10004 0.26488
 C2029 C 0.62799 0.62788 0.69864
 C2030 C 0.61874 0.61863 0.71936
 C2031 C 0.60820 0.60811 0.74388
 C2032 C 0.59944 0.59937 0.76503
 C2033 C 0.87234 0.87208 0.69831
 C2034 C 0.88156 0.88131 0.71904
 C2035 C 0.89203 0.89184 0.74358
 C2036 C 0.90072 0.90059 0.76475
 C2037 C 0.87190 0.37150 0.19791
 C2038 C 0.88119 0.38078 0.21860
 C2039 C 0.89176 0.39136 0.24308
 C2040 C 0.90055 0.40015 0.26420
 C2041 C 0.37156 0.87150 0.19852
 C2042 C 0.38078 0.88085 0.21922
 C2043 C 0.39128 0.89152 0.24370
 C2044 C 0.40001 0.90038 0.26481
 C2045 C 0.37238 0.37144 0.69830
 C2046 C 0.38151 0.38078 0.71903
 C2047 C 0.39187 0.39146 0.74355
 C2048 C 0.40050 0.40030 0.76471
 C2049 C 1.12830 0.87169 1.30206
 C2050 C 1.11906 0.88099 1.28135
 C2051 C 1.10854 0.89159 1.25684
 C2052 C 1.09979 0.90038 1.23570
 C2053 C 1.12845 0.37145 0.80146
 C2054 C 1.11923 0.38071 0.78071
 C2055 C 1.10871 0.39127 0.75618
 C2056 C 1.09996 0.40004 0.73503
 C2057 C 0.62767 0.87228 0.80176
 C2058 C 0.61843 0.88156 0.78104
 C2059 C 0.60791 0.89212 0.75652
 C2060 C 0.59919 0.90089 0.73536
 C2061 C 0.62872 0.37030 1.30169
 C2062 C 0.61939 0.37968 1.28104
 C2063 C 0.60876 0.39042 1.25663
 C2064 C 0.59992 0.39935 1.23558
 C2065 C 0.87295 1.12715 1.30228
 C2066 C 0.88213 1.11795 1.28153
 C2067 C 0.89257 1.10752 1.25695
 C2068 C 0.90121 1.09888 1.23573
 C2069 C 0.87224 0.62760 0.80150
 C2070 C 0.88143 0.61837 0.78076
 C2071 C 0.89190 0.60784 0.75622
 C2072 C 0.90059 0.59912 0.73505
 C2073 C 0.37193 1.12926 0.80137
 C2074 C 0.38113 1.11992 0.78068
 C2075 C 0.39159 1.10923 0.75621
 C2076 C 0.40029 1.10035 0.73510
 C2077 C 0.37227 0.62887 1.30166
 C2078 C 0.38139 0.61941 1.28099
 C2079 C 0.39173 0.60857 1.25653
 C2080 C 0.40033 0.59960 1.23543
 C2081 C 1.12765 1.30149 0.87111
 C2082 C 1.11844 1.28081 0.88047
 C2083 C 1.10797 1.25634 0.89115
 C2084 C 1.09926 1.23523 0.90002
 C2085 C 1.12780 0.80150 0.37147
 C2086 C 1.11863 0.78076 0.38072
 C2087 C 1.10819 0.75622 0.39127
 C2088 C 1.09952 0.73505 0.40002
 C2089 C 0.62893 1.30149 0.37066
 C2090 C 0.61967 1.28085 0.38009
 C2091 C 0.60910 1.25645 0.39087
 C2092 C 0.60030 1.23541 0.39983
 C2093 C 0.62778 0.80147 0.87238
 C2094 C 0.61857 0.78072 0.88160
 C2095 C 0.60809 0.75618 0.89210
 C2096 C 0.59938 0.73501 0.90081
 C2097 C 0.87242 1.30142 1.12847
 C2098 C 0.88159 1.28072 1.11916
 C2099 C 0.89202 1.25622 1.10854
 C2100 C 0.90070 1.23507 1.09974
 C2101 C 0.87217 0.80146 0.62758
 C2102 C 0.88137 0.78073 0.61835
 C2103 C 0.89187 0.75621 0.60784
 C2104 C 0.90059 0.73505 0.59913
 C2105 C 0.37181 1.30196 0.62823
 C2106 C 0.38104 1.28125 0.61895
 C2107 C 0.39153 1.25676 0.60835
 C2108 C 0.40026 1.23564 0.59954
 C2109 C 0.37218 0.80139 1.12905
 C2110 C 0.38132 0.78069 1.11969
 C2111 C 0.39171 0.75620 1.10897
 C2112 C 0.40035 0.73508 1.10008
 C2113 C 0.87231 0.69827 0.87219
 C2114 C 0.88152 0.71900 0.88142
 C2115 C 0.89201 0.74352 0.89194
 C2116 C 0.90071 0.76467 0.90068
 C2117 C 0.87297 0.19796 0.37275
 C2118 C 0.88219 0.21875 0.38182
 C2119 C 0.89268 0.24335 0.39213
 C2120 C 0.90135 0.26459 0.40068
 C2121 C 0.37146 0.69858 0.37154
 C2122 C 0.38066 0.71931 0.38080
 C2123 C 0.39116 0.74382 0.39138
 C2124 C 0.39990 0.76494 0.40018
 C2125 C 0.37121 0.19873 0.87146
 C2126 C 0.38047 0.21941 0.88077
 C2127 C 0.39104 0.24387 0.89139
 C2128 C 0.39983 0.26496 0.90021
 C2129 C 1.12892 0.69871 1.12960
 C2130 C 1.11968 0.71940 1.12023
 C2131 C 1.10914 0.74385 1.10951
 C2132 C 1.10036 0.76492 1.10059
 C2133 C 1.12837 0.19844 0.62832
 C2134 C 1.11915 0.21915 0.61899
 C2135 C 1.10867 0.24363 0.60833
 C2136 C 1.09994 0.26475 0.59948
 C2137 C 0.62791 0.69871 0.62806
 C2138 C 0.61863 0.71944 0.61888
 C2139 C 0.60805 0.74397 0.60843
 C2140 C 0.59928 0.76513 0.59974
 C2141 C 0.62863 0.19836 1.12854
 C2142 C 0.61929 0.21907 1.11932
 C2143 C 0.60862 0.24355 1.10884
 C2144 C 0.59976 0.26467 1.10012
 C2145 C 1.30129 1.12911 0.87204
 C2146 C 1.28062 1.11971 0.88124
 C2147 C 1.25617 1.10897 0.89169
 C2148 C 1.23508 1.10007 0.90039
 C2149 C 1.30163 0.62886 0.37225
 C2150 C 1.28095 0.61942 0.38137
 C2151 C 1.25649 0.60863 0.39171
 C2152 C 1.23537 0.59968 0.40030
 C2153 C 0.80222 1.12737 0.37287
 C2154 C 0.78143 1.11821 0.38200
 C2155 C 0.75682 1.10779 0.39238
 C2156 C 0.73558 1.09916 0.40098
 C2157 C 0.80167 0.62759 0.87230
 C2158 C 0.78095 0.61836 0.88155
 C2159 C 0.75645 0.60785 0.89209
 C2160 C 0.73529 0.59913 0.90083
 C2161 C 1.30162 0.87211 1.12889
 C2162 C 1.28094 0.88132 1.11953
 C2163 C 1.25647 0.89180 1.10885
 C2164 C 1.23535 0.90051 1.10000
 C2165 C 1.30185 0.37151 0.62750
 C2166 C 1.28116 0.38083 0.61827
 C2167 C 1.25668 0.39147 0.60779
 C2168 C 1.23554 0.40028 0.59909
 C2169 C 0.80158 0.87226 0.62771
 C2170 C 0.78084 0.88156 0.61856
 C2171 C 0.75631 0.89216 0.60816
 C2172 C 0.73514 0.90095 0.59951
 C2173 C 0.80172 0.37201 1.12852
 C2174 C 0.78098 0.38117 1.11924
 C2175 C 0.75644 0.39158 1.10865
 C2176 C 0.73527 0.40024 1.09986
 C2177 C 0.69869 1.12882 1.12797
 C2178 C 0.71939 1.11942 1.11884
 C2179 C 0.74387 1.10867 1.10847
 C2180 C 0.76499 1.09976 1.09983
 C2181 C 0.69860 0.62801 0.62786
 C2182 C 0.71930 0.61877 0.61858
 C2183 C 0.74379 0.60822 0.60802
 C2184 C 0.76491 0.59946 0.59926
 C2185 C 0.19833 1.12889 0.62770
 C2186 C 0.21902 1.11957 0.61848
 C2187 C 0.24350 1.10894 0.60801
 C2188 C 0.26462 1.10012 0.59931
 C2189 C 0.19877 0.62903 1.12888
 C2190 C 0.21939 0.61962 1.11959
 C2191 C 0.24378 0.60887 1.10901
 C2192 C 0.26483 0.59994 1.10020
 C2193 C 0.69845 0.87213 0.87239
 C2194 C 0.71919 0.88133 0.88161
 C2195 C 0.74373 0.89181 0.89209
 C2196 C 0.76491 0.90052 0.90079
 C2197 C 0.69894 0.37095 0.37103
 C2198 C 0.71961 0.38028 0.38030
 C2199 C 0.74405 0.39092 0.39089
 C2200 C 0.76513 0.39976 0.39970
 C2201 C 0.19829 0.87233 0.37160
 C2202 C 0.21898 0.88159 0.38088
 C2203 C 0.24346 0.89213 0.39145
 C2204 C 0.26459 0.90088 0.40023
 C2205 C 0.19830 0.37211 0.87120
 C2206 C 0.21898 0.38130 0.88059
 C2207 C 0.24344 0.39175 0.89131
 C2208 C 0.26454 0.40044 0.90019
   
