data_POSCAR
  _audit_creation_date              2014-09-24
  _audit_creation_method            'ToBaCCo'
  _symmetry_space_group_name_H-M    'P1'
  _symmetry_Int_Tables_number       1
  _symmetry_cell_setting            triclinic
  loop_
  _symmetry_equiv_pos_as_xyz
 x,y,z
_cell_length_a 60.4018
_cell_length_b 60.4101
_cell_length_c 60.4331
_cell_angle_alpha 89.972800
_cell_angle_beta 89.983900
_cell_angle_gamma 89.998000
loop_
  _atom_site_label
  _atom_site_type_symbol
  _atom_site_fract_x
  _atom_site_fract_y
  _atom_site_fract_z
C1 C 0.18995 0.22064 0.21459
 C2 C 0.20227 0.22687 0.19593
 C3 C 0.22064 0.21471 0.18975
 C4 C 0.22692 0.19608 0.20211
 C5 C 0.21478 0.18994 0.22051
 C6 C 0.19614 0.20229 0.22677
 C7 C 0.17138 0.22938 0.22447
 N8 N 0.16611 0.21678 0.24236
 C9 C 0.18122 0.20015 0.24385
 C10 C 0.22466 0.17138 0.22926
 N11 N 0.24252 0.16607 0.21662
 C12 C 0.24398 0.18115 0.19996
 C13 C 0.22934 0.22456 0.17115
 N14 N 0.21669 0.24241 0.16585
 C15 C 0.20008 0.24391 0.18097
 H16 H 0.16223 0.24371 0.21880
 H17 H 0.18157 0.18756 0.25659
 H18 H 0.21902 0.16226 0.24362
 H19 H 0.25669 0.18146 0.18734
 H20 H 0.24367 0.21890 0.16200
 H21 H 0.18747 0.25663 0.18131
 C22 C 0.68972 0.72052 0.71454
 C23 C 0.70205 0.72678 0.69589
 C24 C 0.72043 0.71462 0.68972
 C25 C 0.72669 0.69597 0.70206
 C26 C 0.71454 0.68981 0.72044
 C27 C 0.69589 0.70214 0.72670
 C28 C 0.67114 0.72925 0.72441
 N29 N 0.66586 0.71662 0.74229
 C30 C 0.68097 0.69998 0.74376
 C31 C 0.72441 0.67124 0.72918
 N32 N 0.74229 0.66595 0.71655
 C33 C 0.74376 0.68104 0.69991
 C34 C 0.72915 0.72449 0.67114
 N35 N 0.71651 0.74235 0.66585
 C36 C 0.69988 0.74383 0.68095
 H37 H 0.66200 0.74358 0.71877
 H38 H 0.68132 0.68738 0.75649
 H39 H 0.71876 0.66210 0.74352
 H40 H 0.75648 0.68138 0.68730
 H41 H 0.74349 0.71884 0.66200
 H42 H 0.68727 0.75656 0.68129
 C43 C 0.30985 0.77959 0.71485
 C44 C 0.29753 0.77336 0.69619
 C45 C 0.27921 0.78558 0.68999
 C46 C 0.27298 0.80425 0.70232
 C47 C 0.28508 0.81037 0.72064
 C48 C 0.30369 0.79799 0.72696
 C49 C 0.32837 0.77081 0.72476
 N50 N 0.33365 0.78344 0.74262
 C51 C 0.31858 0.80012 0.74405
 C52 C 0.27525 0.82895 0.72933
 N53 N 0.25727 0.83450 0.71675
 C54 C 0.25598 0.81921 0.70013
 C55 C 0.27048 0.77573 0.67142
 N56 N 0.28307 0.75782 0.66616
 C57 C 0.29967 0.75630 0.68128
 H58 H 0.33750 0.75646 0.71915
 H59 H 0.31824 0.81273 0.75675
 H60 H 0.28126 0.83767 0.74372
 H61 H 0.24356 0.81849 0.68730
 H62 H 0.25617 0.78142 0.66225
 H63 H 0.31223 0.74353 0.68165
 C64 C 0.81024 0.27940 0.21476
 C65 C 0.79794 0.27310 0.19611
 C66 C 0.77957 0.28525 0.18989
 C67 C 0.77329 0.30390 0.20218
 C68 C 0.78544 0.31008 0.22055
 C69 C 0.80408 0.29773 0.22684
 C70 C 0.82879 0.27069 0.22466
 N71 N 0.83427 0.28325 0.24265
 C72 C 0.81897 0.29989 0.24389
 C73 C 0.77556 0.32865 0.22926
 N74 N 0.75770 0.33394 0.21662
 C75 C 0.75623 0.31883 0.20000
 C76 C 0.77087 0.27535 0.17133
 N77 N 0.78352 0.25748 0.16609
 C78 C 0.80013 0.25602 0.18122
 H79 H 0.83754 0.25630 0.21867
 H80 H 0.81819 0.31271 0.25631
 H81 H 0.78119 0.33780 0.24359
 H82 H 0.74352 0.31848 0.18740
 H83 H 0.75655 0.28099 0.16216
 H84 H 0.81274 0.24330 0.18160
 C85 C 0.81022 0.72083 0.28482
 C86 C 0.79789 0.72713 0.30346
 C87 C 0.77950 0.71499 0.30965
 C88 C 0.77324 0.69634 0.29735
 C89 C 0.78541 0.69017 0.27899
 C90 C 0.80406 0.70252 0.27273
 C91 C 0.82879 0.72953 0.27495
 N92 N 0.83429 0.71697 0.25695
 C93 C 0.81898 0.70035 0.25568
 C94 C 0.77554 0.67159 0.27028
 N95 N 0.75767 0.66630 0.28291
 C96 C 0.75618 0.68141 0.29952
 C97 C 0.77077 0.72488 0.32820
 N98 N 0.78341 0.74276 0.33346
 C99 C 0.80005 0.74421 0.31836
 H100 H 0.83750 0.74394 0.28092
 H101 H 0.81824 0.68749 0.24331
 H102 H 0.78120 0.66244 0.25596
 H103 H 0.74345 0.68176 0.31212
 H104 H 0.75643 0.71925 0.33735
 H105 H 0.81266 0.75692 0.31800
 C106 C 0.31008 0.22080 -0.21501
 C107 C 0.29769 0.22711 -0.19641
 C108 C 0.27929 0.21496 -0.19027
 C109 C 0.27309 0.19629 -0.20259
 C110 C 0.28528 0.19013 -0.22085
 C111 C 0.30395 0.20247 -0.22709
 C112 C 0.32867 0.22949 -0.22483
 N113 N 0.33423 0.21690 -0.24280
 C114 C 0.31892 0.20028 -0.24408
 C115 C 0.27544 0.17155 -0.22955
 N116 N 0.25740 0.16605 -0.21705
 C117 C 0.25605 0.18137 -0.20046
 C118 C 0.27050 0.22486 -0.17175
 N119 N 0.28312 0.24274 -0.16646
 C120 C 0.29980 0.24420 -0.18152
 H121 H 0.33738 0.24390 -0.21884
 H122 H 0.31821 0.18742 -0.25646
 H123 H 0.28152 0.16278 -0.24389
 H124 H 0.24356 0.18215 -0.18769
 H125 H 0.25614 0.21922 -0.16263
 H126 H 0.31241 0.25692 -0.18185
 C127 C 0.69018 0.27901 -0.21491
 C128 C 0.70254 0.27273 -0.19629
 C129 C 0.72091 0.28490 -0.19014
 C130 C 0.72712 0.30357 -0.20248
 C131 C 0.71496 0.30971 -0.22077
 C132 C 0.69631 0.29735 -0.22702
 C133 C 0.67162 0.27030 -0.22476
 N134 N 0.66608 0.28287 -0.24274
 C135 C 0.68136 0.29952 -0.24403
 C136 C 0.72479 0.32830 -0.22949
 N137 N 0.74280 0.33382 -0.21696
 C138 C 0.74414 0.31851 -0.20035
 C139 C 0.72967 0.27503 -0.17159
 N140 N 0.71706 0.25714 -0.16629
 C141 C 0.70041 0.25565 -0.18137
 H142 H 0.66288 0.25591 -0.21874
 H143 H 0.68210 0.31235 -0.25645
 H144 H 0.71873 0.33706 -0.24384
 H145 H 0.75660 0.31775 -0.18757
 H146 H 0.74400 0.28069 -0.16247
 H147 H 0.68782 0.24292 -0.18170
 C148 C 0.18987 0.77936 0.28515
 C149 C 0.20219 0.77309 0.30379
 C150 C 0.22053 0.78529 0.30999
 C151 C 0.22682 0.80390 0.29761
 C152 C 0.21474 0.81004 0.27927
 C153 C 0.19608 0.79773 0.27300
 C154 C 0.17132 0.77062 0.27525
 N155 N 0.16608 0.78325 0.25737
 C156 C 0.18119 0.79988 0.25591
 C157 C 0.22463 0.82859 0.27056
 N158 N 0.24262 0.83410 0.28313
 C159 C 0.24387 0.81882 0.29977
 C160 C 0.22921 0.77546 0.32860
 N161 N 0.21662 0.75755 0.33386
 C162 C 0.20004 0.75601 0.31871
 H163 H 0.16217 0.75629 0.28088
 H164 H 0.18157 0.81248 0.24317
 H165 H 0.21864 0.83733 0.25617
 H166 H 0.25628 0.81807 0.31261
 H167 H 0.24383 0.78081 0.33745
 H168 H 0.18714 0.74358 0.31866
 C169 C 0.47082 0.44001 0.46508
 C170 C 0.47709 0.45235 0.44644
 C171 C 0.46493 0.47073 0.44027
 C172 C 0.44628 0.47699 0.45261
 C173 C 0.44011 0.46482 0.47098
 C174 C 0.45244 0.44618 0.47724
 C175 C 0.47955 0.42143 0.47495
 N176 N 0.46691 0.41614 0.49282
 C177 C 0.45028 0.43124 0.49430
 C178 C 0.42153 0.47469 0.47970
 N179 N 0.41623 0.49256 0.46707
 C180 C 0.43134 0.49404 0.45044
 C181 C 0.47480 0.47946 0.42170
 N182 N 0.49267 0.46682 0.41640
 C183 C 0.49414 0.45019 0.43151
 H184 H 0.49389 0.41229 0.46931
 H185 H 0.43767 0.43158 0.50702
 H186 H 0.41238 0.46904 0.49403
 H187 H 0.43169 0.50677 0.43783
 H188 H 0.46915 0.49379 0.41255
 H189 H 0.50687 0.43757 0.43184
 C190 C -0.02903 -0.06013 0.96490
 C191 C -0.02271 -0.04777 0.94628
 C192 C -0.03485 -0.02937 0.94014
 C193 C -0.05351 -0.02314 0.95247
 C194 C -0.05969 -0.03530 0.97075
 C195 C -0.04736 -0.05398 0.97699
 C196 C -0.02035 -0.07872 0.97474
 N197 N -0.03294 -0.08425 0.99271
 C198 C -0.04956 -0.06894 0.99400
 C199 C -0.07825 -0.02545 0.97946
 N200 N -0.08374 -0.00740 0.96695
 C201 C -0.06842 -0.00608 0.95034
 C202 C -0.02495 -0.02060 0.92160
 N203 N -0.00708 -0.03323 0.91630
 C204 C -0.00563 -0.04991 0.93137
 H205 H -0.00597 -0.08747 0.96873
 H206 H -0.06240 -0.06819 1.00641
 H207 H -0.08702 -0.03150 0.99381
 H208 H -0.06763 0.00640 0.93757
 H209 H -0.03058 -0.00624 0.91248
 H210 H 0.00708 -0.06252 0.93170
 C211 C 1.02902 0.56001 0.96502
 C212 C 1.02271 0.54766 0.94641
 C213 C 1.03488 0.52929 0.94024
 C214 C 1.05355 0.52307 0.95255
 C215 C 1.05972 0.53522 0.97083
 C216 C 1.04736 0.55387 0.97710
 C217 C 1.02031 0.57857 0.97488
 N218 N 1.03290 0.58409 0.99285
 C219 C 1.04954 0.56880 0.99411
 C220 C 1.07830 0.52537 0.97952
 N221 N 1.08381 0.50736 0.96698
 C222 C 1.06849 0.50604 0.95039
 C223 C 1.02498 0.52054 0.92170
 N224 N 1.00709 0.53315 0.91643
 C225 C 1.00562 0.54979 0.93151
 H226 H 1.00591 0.58730 0.96889
 H227 H 1.06239 0.56806 1.00651
 H228 H 1.08707 0.53141 0.99387
 H229 H 1.06771 0.49359 0.93761
 H230 H 1.03063 0.50621 0.91257
 H231 H 0.99289 0.56239 0.93186
 C232 C 0.52938 0.05996 0.46495
 C233 C 0.52308 0.04764 0.44633
 C234 C 0.53526 0.02928 0.44014
 C235 C 0.55394 0.02304 0.45244
 C236 C 0.56012 0.03515 0.47073
 C237 C 0.54779 0.05379 0.47704
 C238 C 0.52066 0.07852 0.47486
 N239 N 0.53333 0.08379 0.49269
 C240 C 0.54998 0.06870 0.49410
 C241 C 0.57871 0.02529 0.47940
 N242 N 0.58420 0.00729 0.46684
 C243 C 0.56887 0.00601 0.45025
 C244 C 0.52535 0.02053 0.42160
 N245 N 0.50745 0.03314 0.41636
 C246 C 0.50598 0.04977 0.43145
 H247 H 0.50630 0.08766 0.46926
 H248 H 0.56262 0.06835 0.50679
 H249 H 0.58749 0.03131 0.49375
 H250 H 0.56808 -0.00643 0.43744
 H251 H 0.53100 0.00621 0.41246
 H252 H 0.49324 0.06236 0.43182
 C253 C -0.02944 0.06030 0.53539
 C254 C -0.02317 0.04797 0.55403
 C255 C -0.03530 0.02957 0.56019
 C256 C -0.05393 0.02328 0.54785
 C257 C -0.06011 0.03544 0.52948
 C258 C -0.04780 0.05410 0.52323
 C259 C -0.02073 0.07889 0.52552
 N260 N -0.03336 0.08416 0.50764
 C261 C -0.04997 0.06903 0.50617
 C262 C -0.07865 0.02553 0.52074
 N263 N -0.08392 0.00765 0.53336
 C264 C -0.06883 0.00619 0.55000
 C265 C -0.02542 0.02084 0.57876
 N266 N -0.00757 0.03350 0.58405
 C267 C -0.00612 0.05015 0.56895
 H268 H -0.00642 0.08806 0.53116
 H269 H -0.06257 0.06867 0.49344
 H270 H -0.08779 0.03117 0.50641
 H271 H -0.06848 -0.00654 0.56260
 H272 H -0.03104 0.00649 0.58789
 H273 H 0.00659 0.06277 0.56861
 C274 C 0.47052 0.56012 0.03511
 C275 C 0.47678 0.54778 0.05376
 C276 C 0.46461 0.52940 0.05994
 C277 C 0.44597 0.52316 0.04760
 C278 C 0.43984 0.53534 0.02923
 C279 C 0.45221 0.55398 0.02299
 C280 C 0.47925 0.57868 0.02525
 N281 N 0.46671 0.58420 0.00725
 C282 C 0.45007 0.56891 0.00595
 C283 C 0.42126 0.52549 0.02048
 N284 N 0.41594 0.50761 0.03310
 C285 C 0.43103 0.50611 0.04974
 C286 C 0.47447 0.52067 0.07851
 N287 N 0.49234 0.53330 0.08380
 C288 C 0.49383 0.54993 0.06869
 H289 H 0.49362 0.58742 0.03128
 H290 H 0.43727 0.56816 -0.00649
 H291 H 0.41214 0.53116 0.00615
 H292 H 0.43134 0.49337 0.06234
 H293 H 0.46881 0.50634 0.08765
 H294 H 0.50656 0.56254 0.06835
 C295 C 0.52964 -0.06028 0.03556
 C296 C 0.52342 -0.04797 0.05422
 C297 C 0.53560 -0.02961 0.06039
 C298 C 0.55424 -0.02335 0.04804
 C299 C 0.56038 -0.03549 0.02965
 C300 C 0.54801 -0.05411 0.02339
 C301 C 0.52088 -0.07882 0.02568
 N302 N 0.53348 -0.08409 0.00779
 C303 C 0.55013 -0.06901 0.00631
 C304 C 0.57894 -0.02562 0.02090
 N305 N 0.58427 -0.00777 0.03353
 C306 C 0.56919 -0.00630 0.05019
 C307 C 0.52575 -0.02090 0.07898
 N308 N 0.50786 -0.03352 0.08427
 C309 C 0.50636 -0.05013 0.06916
 H310 H 0.50654 -0.08796 0.03134
 H311 H 0.56272 -0.06866 -0.00643
 H312 H 0.58806 -0.03125 0.00655
 H313 H 0.56887 0.00641 0.06280
 H314 H 0.53141 -0.00658 0.08812
 H315 H 0.49362 -0.06272 0.06882
 C316 C 1.02938 0.44018 0.53523
 C317 C 1.02311 0.45249 0.55387
 C318 C 1.03529 0.47083 0.56006
 C319 C 1.05395 0.47709 0.54772
 C320 C 1.06009 0.46501 0.52939
 C321 C 1.04773 0.44641 0.52306
 C322 C 1.02067 0.42161 0.52535
 N323 N 1.03326 0.41640 0.50743
 C324 C 1.04986 0.43155 0.50594
 C325 C 1.07866 0.47489 0.52069
 N326 N 1.08418 0.49287 0.53327
 C327 C 1.06889 0.49412 0.54990
 C328 C 1.02544 0.47952 0.57865
 N329 N 1.00756 0.46689 0.58394
 C330 C 1.00606 0.45029 0.56881
 H331 H 1.00603 0.41275 0.53068
 H332 H 1.06277 0.43161 0.49353
 H333 H 1.08737 0.46892 0.50627
 H334 H 1.06814 0.50652 0.56274
 H335 H 1.03111 0.49382 0.58782
 H336 H 0.99334 0.43769 0.56846
 C337 C 0.40885 0.01005 0.22047
 H338 H 0.40969 0.02509 0.23014
 C339 C 0.42336 0.00691 0.20275
 H340 H 0.43538 0.01958 0.19868
 C341 C 0.39239 -0.02502 0.21410
 H342 H 0.38056 -0.03758 0.21877
 C343 C 0.40661 -0.02883 0.19626
 H344 H 0.40552 -0.04422 0.18712
 N345 N 0.39359 -0.00570 0.22563
 C346 C 0.34106 0.02959 0.26044
 H347 H 0.34015 0.01991 0.27548
 C348 C 0.32664 0.04737 0.25725
 H349 H 0.31460 0.05149 0.26989
 C350 C 0.35764 0.03590 0.22541
 H351 H 0.36948 0.03118 0.21289
 C352 C 0.34351 0.05380 0.22155
 H353 H 0.34468 0.06294 0.20617
 Zn354 Zn 0.37491 -0.00029 0.25021
 N355 N 0.35634 0.02436 0.24473
 C356 C 0.39219 0.02445 0.28639
 N357 N 0.39344 0.00511 0.27489
 C358 C 0.40865 -0.01066 0.28015
 C359 C 0.42307 -0.00750 0.29793
 C360 C 0.40632 0.02827 0.30429
 C361 C 0.34109 -0.03012 0.23976
 C362 C 0.32661 -0.04788 0.24287
 C363 C 0.34326 -0.05436 0.27865
 C364 C 0.35744 -0.03648 0.27488
 N365 N 0.35628 -0.02493 0.25556
 H366 H 0.38041 0.03701 0.28164
 H367 H 0.40953 -0.02571 0.27050
 H368 H 0.43507 -0.02018 0.30207
 H369 H 0.40520 0.04367 0.31340
 H370 H 0.34028 -0.02044 0.22472
 H371 H 0.31465 -0.05197 0.23017
 H372 H 0.34432 -0.06351 0.29404
 H373 H 0.36922 -0.03178 0.28747
 C374 C 0.32792 0.05961 0.23765
 C375 C 0.42218 -0.01269 0.19052
 C376 C 0.32776 -0.06013 0.26247
 C377 C 0.42185 0.01212 0.31013
 C378 C 0.09143 -0.01005 0.72025
 H379 H 0.09060 -0.02509 0.72994
 C380 C 0.07693 -0.00692 0.70253
 H381 H 0.06492 -0.01960 0.69847
 C382 C 0.10787 0.02504 0.71385
 H383 H 0.11969 0.03760 0.71851
 C384 C 0.09366 0.02884 0.69600
 H385 H 0.09474 0.04422 0.68685
 N386 N 0.10668 0.00572 0.72540
 C387 C 0.15923 -0.02953 0.76023
 H388 H 0.16013 -0.01985 0.77526
 C389 C 0.17367 -0.04730 0.75705
 H390 H 0.18571 -0.05141 0.76969
 C391 C 0.14266 -0.03586 0.72521
 H392 H 0.13081 -0.03116 0.71269
 C393 C 0.15680 -0.05375 0.72137
 H394 H 0.15564 -0.06290 0.70600
 Zn395 Zn 0.12535 0.00031 0.74998
 N396 N 0.14395 -0.02432 0.74452
 C397 C 0.10808 -0.02446 0.78618
 N398 N 0.10681 -0.00512 0.77467
 C399 C 0.09158 0.01062 0.77992
 C400 C 0.07716 0.00745 0.79772
 C401 C 0.09396 -0.02830 0.80409
 C402 C 0.15914 0.03019 0.73953
 C403 C 0.17360 0.04797 0.74264
 C404 C 0.15691 0.05438 0.77842
 C405 C 0.14276 0.03649 0.77465
 N406 N 0.14395 0.02497 0.75533
 H407 H 0.11989 -0.03701 0.78144
 H408 H 0.09068 0.02568 0.77026
 H409 H 0.06516 0.02011 0.80186
 H410 H 0.09510 -0.04370 0.81322
 H411 H 0.15998 0.02052 0.72449
 H412 H 0.18557 0.05208 0.72994
 H413 H 0.15584 0.06352 0.79381
 H414 H 0.13098 0.03177 0.78724
 C415 C 0.17239 -0.05954 0.73746
 C416 C 0.07811 0.01269 0.69027
 C417 C 0.17242 0.06019 0.76225
 C418 C 0.07842 -0.01217 0.80993
 C419 C 0.59111 0.48971 0.22016
 H420 H 0.59027 0.47467 0.22985
 C421 C 0.57663 0.49284 0.20242
 H422 H 0.56464 0.48016 0.19833
 C423 C 0.60754 0.52481 0.21380
 H424 H 0.61935 0.53738 0.21848
 C425 C 0.59336 0.52861 0.19593
 H426 H 0.59445 0.54399 0.18678
 N427 N 0.60634 0.50548 0.22534
 C428 C 0.65886 0.47025 0.26023
 H429 H 0.65974 0.47993 0.27526
 C430 C 0.67332 0.45250 0.25707
 H431 H 0.68535 0.44840 0.26972
 C432 C 0.64234 0.46391 0.22520
 H433 H 0.63051 0.46861 0.21266
 C434 C 0.65651 0.44604 0.22137
 H435 H 0.65538 0.43689 0.20599
 Zn436 Zn 0.62499 0.50009 0.24994
 N437 N 0.64359 0.47545 0.24451
 C438 C 0.60770 0.47535 0.28615
 N439 N 0.60644 0.49467 0.27462
 C440 C 0.59121 0.51043 0.27986
 C441 C 0.57680 0.50728 0.29766
 C442 C 0.59358 0.47153 0.30407
 C443 C 0.65879 0.52994 0.23949
 C444 C 0.67326 0.54771 0.24258
 C445 C 0.65657 0.55416 0.27836
 C446 C 0.64240 0.53628 0.27460
 N447 N 0.64359 0.52474 0.25528
 H448 H 0.61950 0.46279 0.28142
 H449 H 0.59033 0.52548 0.27019
 H450 H 0.56480 0.51995 0.30179
 H451 H 0.59471 0.45614 0.31321
 H452 H 0.65963 0.52026 0.22446
 H453 H 0.68524 0.55181 0.22988
 H454 H 0.65550 0.56331 0.29373
 H455 H 0.63062 0.53158 0.28718
 C456 C 0.67208 0.44026 0.23748
 C457 C 0.57783 0.51245 0.19017
 C458 C 0.67209 0.55995 0.26218
 C459 C 0.57804 0.48767 0.30989
 C460 C 0.90872 0.51009 0.72039
 H461 H 0.90955 0.52511 0.73009
 C462 C 0.92322 0.50700 0.70265
 H463 H 0.93522 0.51969 0.69859
 C464 C 0.89229 0.47501 0.71395
 H465 H 0.88047 0.46244 0.71860
 C466 C 0.90649 0.47125 0.69610
 H467 H 0.90541 0.45589 0.68692
 N468 N 0.89348 0.49431 0.72552
 C469 C 0.84089 0.52950 0.76034
 H470 H 0.83997 0.51981 0.77538
 C471 C 0.82644 0.54727 0.75715
 H472 H 0.81439 0.55136 0.76978
 C473 C 0.85748 0.53585 0.72533
 H474 H 0.86934 0.53115 0.71281
 C475 C 0.84334 0.55374 0.72147
 H476 H 0.84450 0.56289 0.70610
 Zn477 Zn 0.87479 0.49967 0.75010
 N478 N 0.85618 0.52430 0.74464
 C479 C 0.89201 0.52441 0.78632
 N480 N 0.89330 0.50509 0.77480
 C481 C 0.90853 0.48934 0.78006
 C482 C 0.92293 0.49251 0.79786
 C483 C 0.90611 0.52824 0.80424
 C484 C 0.84101 0.46980 0.73964
 C485 C 0.82656 0.45201 0.74274
 C486 C 0.84322 0.44555 0.77852
 C487 C 0.85737 0.46345 0.77476
 N488 N 0.85619 0.47500 0.75544
 H489 H 0.88020 0.53696 0.78158
 H490 H 0.90945 0.47430 0.77039
 H491 H 0.93494 0.47985 0.80200
 H492 H 0.90495 0.54362 0.81337
 H493 H 0.84018 0.47949 0.72461
 H494 H 0.81459 0.44791 0.73003
 H495 H 0.84429 0.43639 0.79390
 H496 H 0.86914 0.46815 0.78735
 C497 C 0.82773 0.55952 0.73756
 C498 C 0.92204 0.48742 0.69037
 C499 C 0.82772 0.43976 0.76234
 C500 C 0.92166 0.51211 0.81007
 C501 C 0.21973 0.40903 0.01019
 H502 H 0.22945 0.40985 0.02521
 C503 C 0.20196 0.42350 0.00711
 H504 H 0.19788 0.43547 0.01982
 C505 C 0.21334 0.39266 -0.02490
 H506 H 0.21802 0.38088 -0.03750
 C507 C 0.19544 0.40683 -0.02864
 H508 H 0.18627 0.40576 -0.04401
 N509 N 0.22491 0.39384 -0.00561
 C510 C 0.26000 0.34130 0.02942
 H511 H 0.27502 0.34047 0.01970
 C512 C 0.25690 0.32680 0.04716
 H513 H 0.26959 0.31479 0.05120
 C514 C 0.22492 0.35775 0.03588
 H515 H 0.21235 0.36957 0.03124
 C516 C 0.22116 0.34354 0.05374
 H517 H 0.20579 0.34463 0.06293
 Zn518 Zn 0.24958 0.37523 -0.00030
 N519 N 0.24422 0.35655 0.02430
 C520 C 0.28579 0.39252 0.02440
 N521 N 0.27423 0.39382 0.00511
 C522 C 0.27941 0.40910 -0.01061
 C523 C 0.29719 0.42354 -0.00746
 C524 C 0.30369 0.40666 0.02821
 C525 C 0.23920 0.34148 -0.03022
 C526 C 0.24236 0.32705 -0.04800
 C527 C 0.27811 0.34384 -0.05443
 C528 C 0.27429 0.35797 -0.03653
 N529 N 0.25496 0.35670 -0.02499
 H530 H 0.28111 0.38068 0.03694
 H531 H 0.26970 0.41001 -0.02563
 H532 H 0.30128 0.43558 -0.02011
 H533 H 0.31287 0.40550 0.04357
 H534 H 0.22416 0.34058 -0.02053
 H535 H 0.22969 0.31505 -0.05211
 H536 H 0.29350 0.34497 -0.06357
 H537 H 0.28685 0.36977 -0.03181
 C538 C 0.23732 0.32799 0.05945
 C539 C 0.18969 0.42233 -0.01246
 C540 C 0.26197 0.32830 -0.06023
 C541 C 0.30946 0.42225 0.01211
 C542 C 0.72075 0.09086 -0.01024
 H543 H 0.73043 0.08998 -0.02527
 C544 C 0.70298 0.07641 -0.00707
 H545 H 0.69887 0.06439 -0.01972
 C546 C 0.71440 0.10737 0.02480
 H547 H 0.71910 0.11919 0.03734
 C548 C 0.69651 0.09322 0.02863
 H549 H 0.68735 0.09435 0.04401
 N550 N 0.72594 0.10612 0.00549
 C551 C 0.76090 0.15852 -0.02989
 H552 H 0.77595 0.15942 -0.02022
 C553 C 0.75773 0.17295 -0.04767
 H554 H 0.77039 0.18495 -0.05182
 C555 C 0.72582 0.14202 -0.03614
 H556 H 0.71326 0.13022 -0.03140
 C557 C 0.72198 0.15614 -0.05404
 H558 H 0.70658 0.15501 -0.06317
 Zn559 Zn 0.75058 0.12473 0.00004
 N560 N 0.74515 0.14329 -0.02463
 C561 C 0.78678 0.10735 -0.02465
 N562 N 0.77524 0.10614 -0.00533
 C563 C 0.78046 0.09093 0.01045
 C564 C 0.79823 0.07648 0.00733
 C565 C 0.80468 0.09320 -0.02843
 C566 C 0.74018 0.15859 0.02982
 C567 C 0.74329 0.17306 0.04757
 C568 C 0.77905 0.15633 0.05407
 C569 C 0.77527 0.14216 0.03620
 N570 N 0.75596 0.14337 0.02465
 H571 H 0.78207 0.11914 -0.03722
 H572 H 0.77077 0.09008 0.02549
 H573 H 0.80234 0.06449 0.02002
 H574 H 0.81383 0.09429 -0.04382
 H575 H 0.72514 0.15943 0.02013
 H576 H 0.73059 0.18505 0.05165
 H577 H 0.79442 0.15524 0.06323
 H578 H 0.78785 0.13036 0.03152
 C579 C 0.73811 0.17169 -0.05988
 C580 C 0.69073 0.07765 0.01252
 C581 C 0.76288 0.17186 0.05982
 C582 C 0.81047 0.07767 -0.01227
 C583 C 0.22005 0.59117 0.48986
 H584 H 0.22976 0.59029 0.47484
 C585 C 0.20228 0.57670 0.49300
 H586 H 0.19821 0.56468 0.48035
 C587 C 0.21364 0.60768 0.52489
 H588 H 0.21831 0.61951 0.53743
 C589 C 0.19575 0.59351 0.52869
 H590 H 0.18657 0.59464 0.54406
 N591 N 0.22521 0.60643 0.50559
 C592 C 0.26018 0.65889 0.47032
 H593 H 0.27521 0.65979 0.48002
 C594 C 0.25703 0.67334 0.45255
 H595 H 0.26968 0.68537 0.44846
 C596 C 0.22513 0.64235 0.46397
 H597 H 0.21259 0.63052 0.46866
 C598 C 0.22132 0.65649 0.44607
 H599 H 0.20595 0.65535 0.43691
 Zn600 Zn 0.24985 0.62505 0.50018
 N601 N 0.24444 0.64363 0.47552
 C602 C 0.28608 0.60771 0.47550
 N603 N 0.27452 0.60648 0.49481
 C604 C 0.27974 0.59125 0.51058
 C605 C 0.29753 0.57681 0.50746
 C606 C 0.30398 0.59358 0.47171
 C607 C 0.23943 0.65890 0.52997
 C608 C 0.24255 0.67338 0.54771
 C609 C 0.27832 0.65665 0.55420
 C610 C 0.27453 0.64247 0.53634
 N611 N 0.25521 0.64367 0.52480
 H612 H 0.28137 0.61951 0.46294
 H613 H 0.27004 0.59038 0.52562
 H614 H 0.30163 0.56482 0.52014
 H615 H 0.31314 0.59469 0.45633
 H616 H 0.22440 0.65974 0.52028
 H617 H 0.22986 0.68538 0.55178
 H618 H 0.29370 0.65557 0.56335
 H619 H 0.28711 0.63067 0.53166
 C620 C 0.23744 0.67207 0.44029
 C621 C 0.19000 0.57794 0.51258
 C622 C 0.26216 0.67220 0.55995
 C623 C 0.30978 0.57804 0.48786
 C624 C 0.72002 0.90891 0.51012
 H625 H 0.72968 0.90973 0.52517
 C626 C 0.70226 0.92338 0.50699
 H627 H 0.69814 0.93535 0.51969
 C628 C 0.71374 0.89255 0.47500
 H629 H 0.71846 0.88078 0.46243
 C630 C 0.69586 0.90672 0.47121
 H631 H 0.68673 0.90566 0.45581
 N632 N 0.72525 0.89372 0.49434
 C633 C 0.76018 0.84119 0.52953
 H634 H 0.77524 0.84035 0.51987
 C635 C 0.75701 0.82671 0.54727
 H636 H 0.76968 0.81470 0.55137
 C637 C 0.72508 0.85764 0.53583
 H638 H 0.71252 0.86946 0.53113
 C639 C 0.72124 0.84345 0.55369
 H640 H 0.70584 0.84455 0.56281
 Zn641 Zn 0.74988 0.87510 0.49974
 N642 N 0.74442 0.85644 0.52433
 C643 C 0.78602 0.89240 0.52457
 N644 N 0.77452 0.89368 0.50523
 C645 C 0.77977 0.90894 0.48951
 C646 C 0.79754 0.92338 0.49271
 C647 C 0.80391 0.90653 0.52843
 C648 C 0.73958 0.84136 0.46979
 C649 C 0.74277 0.82695 0.45200
 C650 C 0.77856 0.84371 0.44569
 C651 C 0.77470 0.85782 0.46359
 N652 N 0.75534 0.85657 0.47507
 H653 H 0.78128 0.88056 0.53709
 H654 H 0.77012 0.90984 0.47446
 H655 H 0.80168 0.93541 0.48007
 H656 H 0.81302 0.90539 0.54383
 H657 H 0.72451 0.84048 0.47942
 H658 H 0.73010 0.81497 0.44784
 H659 H 0.79397 0.84483 0.43659
 H660 H 0.78726 0.86960 0.46835
 C661 C 0.73738 0.82790 0.55948
 C662 C 0.69005 0.92222 0.48737
 C663 C 0.76242 0.82819 0.43982
 C664 C 0.80974 0.92211 0.51233
 C665 C 0.01019 0.22049 0.40875
 H666 H 0.02523 0.23017 0.40959
 C667 C 0.00704 0.20275 0.42323
 H668 H 0.01971 0.19866 0.43523
 C669 C -0.02490 0.21414 0.39230
 H670 H -0.03746 0.21883 0.38048
 C671 C -0.02871 0.19627 0.40648
 H672 H -0.04410 0.18713 0.40539
 N673 N -0.00557 0.22568 0.39351
 C674 C 0.02971 0.26057 0.34101
 H675 H 0.02004 0.27561 0.34012
 C676 C 0.04749 0.25739 0.32657
 H677 H 0.05160 0.27004 0.31455
 C678 C 0.03602 0.22551 0.35755
 H679 H 0.03130 0.21297 0.36938
 C680 C 0.05391 0.22166 0.34341
 H681 H 0.06305 0.20627 0.34455
 Zn682 Zn -0.00015 0.25029 0.37486
 N683 N 0.02449 0.24484 0.35628
 C684 C 0.02460 0.28649 0.39214
 N685 N 0.00526 0.27496 0.39340
 C686 C -0.01049 0.28019 0.40863
 C687 C -0.00732 0.29796 0.42306
 C688 C 0.02843 0.30438 0.40626
 C689 C -0.02999 0.23988 0.34106
 C690 C -0.04776 0.24300 0.32661
 C691 C -0.05424 0.27876 0.34331
 C692 C -0.03635 0.27498 0.35746
 N693 N -0.02480 0.25566 0.35626
 H694 H 0.03715 0.28176 0.38033
 H695 H -0.02554 0.27051 0.40952
 H696 H -0.01999 0.30207 0.43507
 H697 H 0.04382 0.31351 0.40514
 H698 H -0.02030 0.22485 0.34022
 H699 H -0.05185 0.23031 0.31462
 H700 H -0.06340 0.29414 0.34440
 H701 H -0.03166 0.28756 0.36925
 C702 C 0.05971 0.23777 0.32783
 C703 C -0.01257 0.19051 0.42203
 C704 C -0.06002 0.26260 0.32779
 C705 C 0.01229 0.31018 0.42182
 C706 C -0.01043 0.72005 0.09093
 H707 H -0.02546 0.72975 0.09005
 C708 C -0.00731 0.70226 0.07651
 H709 H -0.01999 0.69816 0.06452
 C710 C 0.02465 0.71368 0.10739
 H711 H 0.03721 0.71838 0.11919
 C712 C 0.02843 0.69577 0.09327
 H713 H 0.04380 0.68660 0.09440
 N714 N 0.00534 0.72525 0.10615
 C715 C -0.02987 0.76032 0.15856
 H716 H -0.02017 0.77535 0.15940
 C717 C -0.04763 0.75719 0.17303
 H718 H -0.05171 0.76987 0.18503
 C719 C -0.03625 0.72524 0.14213
 H720 H -0.03157 0.71267 0.13033
 C721 C -0.05413 0.72145 0.15630
 H722 H -0.06330 0.70607 0.15521
 Zn723 Zn -0.00004 0.74992 0.12471
 N724 N -0.02469 0.74455 0.14333
 C725 C -0.02475 0.78612 0.10734
 N726 N -0.00544 0.77456 0.10610
 C727 C 0.01032 0.77974 0.09085
 C728 C 0.00718 0.79752 0.07640
 C729 C -0.02855 0.80402 0.09319
 C730 C 0.02981 0.73957 0.15854
 C731 C 0.04758 0.74272 0.17298
 C732 C 0.05405 0.77845 0.15617
 C733 C 0.03616 0.77464 0.14203
 N734 N 0.02462 0.75532 0.14329
 H735 H -0.03731 0.78144 0.11917
 H736 H 0.02535 0.77004 0.08998
 H737 H 0.01986 0.80160 0.06438
 H738 H -0.04392 0.81319 0.09432
 H739 H 0.02012 0.72454 0.15942
 H740 H 0.05168 0.73006 0.18500
 H741 H 0.06320 0.79383 0.15504
 H742 H 0.03147 0.78719 0.13021
 C743 C -0.05989 0.73760 0.17184
 C744 C 0.01228 0.68999 0.07775
 C745 C 0.05983 0.76232 0.17174
 C746 C -0.01241 0.80978 0.07763
 C747 C 0.48985 0.22007 0.59157
 H748 H 0.47482 0.22977 0.59072
 C749 C 0.49298 0.20232 0.57711
 H750 H 0.48030 0.19824 0.56512
 C751 C 0.52494 0.21369 0.60802
 H752 H 0.53751 0.21837 0.61982
 C753 C 0.52873 0.19582 0.59385
 H754 H 0.54412 0.18666 0.59495
 N755 N 0.50562 0.22525 0.60680
 C756 C 0.47037 0.26021 0.65924
 H757 H 0.48006 0.27524 0.66012
 C758 C 0.45258 0.25707 0.67367
 H759 H 0.44847 0.26974 0.68567
 C760 C 0.46402 0.22515 0.64276
 H761 H 0.46873 0.21260 0.63095
 C762 C 0.44611 0.22134 0.65689
 H763 H 0.43695 0.20597 0.65576
 Zn764 Zn 0.50023 0.24988 0.62541
 N765 N 0.47558 0.24446 0.64401
 C766 C 0.47549 0.28607 0.60807
 N767 N 0.49482 0.27454 0.60683
 C768 C 0.51058 0.27976 0.59159
 C769 C 0.50742 0.29753 0.57714
 C770 C 0.47167 0.30396 0.59391
 C771 C 0.53010 0.23948 0.65921
 C772 C 0.54788 0.24260 0.67364
 C773 C 0.55435 0.27836 0.65688
 C774 C 0.53644 0.27457 0.64276
 N775 N 0.52489 0.25526 0.64399
 H776 H 0.46293 0.28135 0.61987
 H777 H 0.52563 0.27008 0.59072
 H778 H 0.52010 0.30164 0.56513
 H779 H 0.45627 0.31309 0.59502
 H780 H 0.52041 0.22444 0.66008
 H781 H 0.55199 0.22991 0.68563
 H782 H 0.56351 0.29374 0.65577
 H783 H 0.53174 0.28715 0.63096
 C784 C 0.44032 0.23748 0.67243
 C785 C 0.51258 0.19006 0.57831
 C786 C 0.56014 0.26220 0.67241
 C787 C 0.48781 0.30976 0.57836
 C788 C 0.51023 0.72002 0.90895
 H789 H 0.52529 0.72970 0.90978
 C790 C 0.50710 0.70226 0.92341
 H791 H 0.51979 0.69814 0.93539
 C792 C 0.47511 0.71372 0.89256
 H793 H 0.46254 0.71844 0.88077
 C794 C 0.47131 0.69584 0.90672
 H795 H 0.45592 0.68670 0.90564
 N796 N 0.49445 0.72525 0.89375
 C797 C 0.52964 0.76025 0.84127
 H798 H 0.51997 0.77531 0.84043
 C799 C 0.54738 0.75710 0.82678
 H800 H 0.55147 0.76978 0.81478
 C801 C 0.53598 0.72515 0.85771
 H802 H 0.53128 0.71259 0.86952
 C803 C 0.55383 0.72133 0.84352
 H804 H 0.56297 0.70594 0.84460
 Zn805 Zn 0.49984 0.74990 0.87515
 N806 N 0.52445 0.74449 0.85651
 C807 C 0.52463 0.78605 0.89248
 N808 N 0.50529 0.77453 0.89373
 C809 C 0.48956 0.77973 0.90899
 C810 C 0.49274 0.79748 0.92344
 C811 C 0.52847 0.80392 0.90663
 C812 C 0.46992 0.73958 0.84139
 C813 C 0.45214 0.74276 0.82696
 C814 C 0.44575 0.77851 0.84372
 C815 C 0.46365 0.77467 0.85785
 N816 N 0.47517 0.75533 0.85661
 H817 H 0.53717 0.78134 0.88065
 H818 H 0.47451 0.77006 0.90988
 H819 H 0.48008 0.80159 0.93546
 H820 H 0.54387 0.81305 0.90550
 H821 H 0.47959 0.72453 0.84051
 H822 H 0.44801 0.73009 0.81497
 H823 H 0.43663 0.79391 0.84484
 H824 H 0.46839 0.78722 0.86965
 C825 C 0.55960 0.73748 0.82797
 C826 C 0.48748 0.69003 0.92223
 C827 C 0.43993 0.76238 0.82819
 C828 C 0.51236 0.80971 0.92220
 C829 C 0.11181 0.22748 0.28601
 C830 C 0.12143 0.24534 0.27485
 C831 C 0.13926 0.24185 0.26051
 C832 C 0.14772 0.22040 0.25715
 C833 C 0.13792 0.20255 0.26848
 C834 C 0.12008 0.20609 0.28280
 C835 C 0.09345 0.23109 0.30075
 C836 C 0.07807 0.23413 0.31310
 H837 H 0.11520 0.26199 0.27727
 H838 H 0.14660 0.25597 0.25230
 H839 H 0.14381 0.18582 0.26605
 H840 H 0.11270 0.19212 0.29131
 C841 C 0.61159 0.72726 0.78600
 C842 C 0.61984 0.70587 0.78273
 C843 C 0.63766 0.70235 0.76838
 C844 C 0.64747 0.72022 0.75708
 C845 C 0.63903 0.74167 0.76049
 C846 C 0.62122 0.74514 0.77486
 C847 C 0.59327 0.73085 0.80078
 C848 C 0.57792 0.73387 0.81318
 H849 H 0.61247 0.69189 0.79122
 H850 H 0.64354 0.68562 0.76591
 H851 H 0.64637 0.75580 0.75231
 H852 H 0.61500 0.76178 0.77733
 C853 C 0.38787 0.77269 0.78635
 C854 C 0.37966 0.79410 0.78307
 C855 C 0.36185 0.79765 0.76873
 C856 C 0.35201 0.77980 0.75744
 C857 C 0.36041 0.75834 0.76087
 C858 C 0.37821 0.75483 0.77523
 C859 C 0.40621 0.76906 0.80111
 C860 C 0.42158 0.76602 0.81346
 H861 H 0.38706 0.80806 0.79154
 H862 H 0.35600 0.81439 0.76624
 H863 H 0.35304 0.74422 0.75270
 H864 H 0.38440 0.73817 0.77771
 C865 C -0.11207 0.27276 0.28590
 C866 C -0.11670 0.25745 0.26925
 C867 C -0.13449 0.26087 0.25486
 C868 C -0.14818 0.27982 0.25680
 C869 C -0.14313 0.29510 0.27385
 C870 C -0.12530 0.29156 0.28817
 C871 C -0.09373 0.26917 0.30067
 C872 C -0.07837 0.26617 0.31304
 H873 H -0.10656 0.24277 0.26738
 H874 H -0.13737 0.24834 0.24249
 H875 H -0.15259 0.31004 0.27628
 H876 H -0.12182 0.30357 0.30101
 C877 C -0.11196 0.72745 0.21374
 C878 C -0.11624 0.74244 0.23078
 C879 C -0.13405 0.73902 0.24515
 C880 C -0.14812 0.72040 0.24282
 C881 C -0.14342 0.70544 0.22539
 C882 C -0.12557 0.70897 0.21109
 C883 C -0.09360 0.73102 0.19898
 C884 C -0.07823 0.73402 0.18661
 H885 H -0.10580 0.75686 0.23296
 H886 H -0.13659 0.75128 0.25787
 H887 H -0.15320 0.69078 0.22258
 H888 H -0.12237 0.69721 0.19793
 C889 C 0.38811 0.22733 0.71416
 C890 C 0.38366 0.24244 0.73105
 C891 C 0.36580 0.23904 0.74536
 C892 C 0.35185 0.22031 0.74312
 C893 C 0.35673 0.20523 0.72585
 C894 C 0.37463 0.20874 0.71160
 C895 C 0.40651 0.23089 0.69946
 C896 C 0.42193 0.23389 0.68714
 H897 H 0.39400 0.25695 0.73315
 H898 H 0.36311 0.25140 0.75794
 H899 H 0.34706 0.19047 0.72314
 H900 H 0.37796 0.19688 0.69857
 C901 C 0.61229 0.27236 0.71417
 C902 C 0.61697 0.25706 0.73084
 C903 C 0.63480 0.26049 0.74517
 C904 C 0.64848 0.27943 0.74316
 C905 C 0.64339 0.29471 0.72611
 C906 C 0.62552 0.29117 0.71185
 C907 C 0.59392 0.26877 0.69945
 C908 C 0.57852 0.26577 0.68713
 H909 H 0.60683 0.24238 0.73275
 H910 H 0.63771 0.24796 0.75755
 H911 H 0.65284 0.30965 0.72363
 H912 H 0.62200 0.30317 0.69900
 C913 C 0.11186 0.77257 0.21362
 C914 C 0.12147 0.75470 0.22479
 C915 C 0.13926 0.75819 0.23916
 C916 C 0.14772 0.77964 0.24254
 C917 C 0.13793 0.79749 0.23121
 C918 C 0.12013 0.79396 0.21686
 C919 C 0.09354 0.76896 0.19885
 C920 C 0.07817 0.76593 0.18648
 H921 H 0.11524 0.73806 0.22235
 H922 H 0.14659 0.74406 0.24738
 H923 H 0.14382 0.81422 0.23365
 H924 H 0.11277 0.80793 0.20834
 C925 C 0.28615 0.11174 0.22733
 C926 C 0.27504 0.12141 0.24520
 C927 C 0.26071 0.13925 0.24170
 C928 C 0.25730 0.14768 0.22025
 C929 C 0.26858 0.13782 0.20240
 C930 C 0.28289 0.11998 0.20594
 C931 C 0.30087 0.09337 0.23095
 C932 C 0.31321 0.07798 0.23400
 H933 H 0.27749 0.11520 0.26184
 H934 H 0.25254 0.14662 0.25582
 H935 H 0.26611 0.14370 0.18567
 H936 H 0.29136 0.11257 0.19198
 C937 C 0.78593 0.61163 0.72725
 C938 C 0.78269 0.61989 0.70586
 C939 C 0.76838 0.63773 0.70233
 C940 C 0.75707 0.64756 0.72017
 C941 C 0.76046 0.63911 0.74162
 C942 C 0.77479 0.62127 0.74512
 C943 C 0.80066 0.59326 0.73087
 C944 C 0.81300 0.57788 0.73392
 H945 H 0.79118 0.61250 0.69191
 H946 H 0.76593 0.64362 0.68560
 H947 H 0.75227 0.64646 0.75574
 H948 H 0.77723 0.61505 0.76175
 C949 C 0.78590 0.38762 0.77249
 C950 C 0.76922 0.38296 0.75721
 C951 C 0.75488 0.36512 0.76065
 C952 C 0.75690 0.35142 0.77958
 C953 C 0.77398 0.35651 0.79483
 C954 C 0.78824 0.37438 0.79127
 C955 C 0.80063 0.40600 0.76889
 C956 C 0.81298 0.42139 0.76589
 H957 H 0.76730 0.39310 0.74254
 H958 H 0.74248 0.36222 0.74815
 H959 H 0.77647 0.34705 0.80976
 H960 H 0.80111 0.37789 0.80326
 C961 C 0.28584 -0.11219 0.27262
 C962 C 0.26918 -0.11683 0.25732
 C963 C 0.25480 -0.13464 0.26075
 C964 C 0.25676 -0.14832 0.27969
 C965 C 0.27381 -0.14326 0.29496
 C966 C 0.28812 -0.12542 0.29142
 C967 C 0.30061 -0.09384 0.26903
 C968 C 0.31299 -0.07847 0.26603
 H969 H 0.26730 -0.10669 0.24264
 H970 H 0.24242 -0.13752 0.24822
 H971 H 0.27626 -0.15271 0.30990
 H972 H 0.30097 -0.12192 0.30343
 C973 C 0.21418 -0.11168 0.72723
 C974 C 0.21181 -0.12496 0.70848
 C975 C 0.22608 -0.14283 0.70495
 C976 C 0.24318 -0.14789 0.72018
 C977 C 0.24523 -0.13415 0.73906
 C978 C 0.23090 -0.11631 0.74248
 C979 C 0.19945 -0.09330 0.73082
 C980 C 0.18712 -0.07791 0.73384
 H981 H 0.19892 -0.12147 0.69651
 H982 H 0.22355 -0.15233 0.69006
 H983 H 0.25766 -0.13701 0.75155
 H984 H 0.23285 -0.10613 0.75711
 C985 C 0.71399 0.38822 0.22724
 C986 C 0.71726 0.37996 0.20586
 C987 C 0.73160 0.36214 0.20235
 C988 C 0.74289 0.35232 0.22022
 C989 C 0.73948 0.36077 0.24165
 C990 C 0.72512 0.37859 0.24512
 C991 C 0.69922 0.40656 0.23083
 C992 C 0.68685 0.42192 0.23386
 H993 H 0.70877 0.38734 0.19189
 H994 H 0.73408 0.35625 0.18563
 H995 H 0.74766 0.35343 0.25578
 H996 H 0.72265 0.38481 0.26175
 C997 C 0.71399 0.61201 0.27230
 C998 C 0.71724 0.62028 0.29368
 C999 C 0.73157 0.63811 0.29718
 C1000 C 0.74288 0.64791 0.27931
 C1001 C 0.73949 0.63944 0.25788
 C1002 C 0.72513 0.62162 0.25442
 C1003 C 0.69922 0.59366 0.26872
 C1004 C 0.68685 0.57829 0.26573
 H1005 H 0.70874 0.61291 0.30765
 H1006 H 0.73403 0.64400 0.31390
 H1007 H 0.74768 0.64678 0.24375
 H1008 H 0.72269 0.61539 0.23779
 C1009 C 0.21426 0.11229 0.77241
 C1010 C 0.21189 0.12556 0.79117
 C1011 C 0.22616 0.14341 0.79472
 C1012 C 0.24329 0.14846 0.77950
 C1013 C 0.24535 0.13474 0.76061
 C1014 C 0.23099 0.11692 0.75717
 C1015 C 0.19952 0.09393 0.76882
 C1016 C 0.18717 0.07855 0.76582
 H1017 H 0.19898 0.12207 0.80313
 H1018 H 0.22364 0.15289 0.80963
 H1019 H 0.25778 0.13762 0.74813
 H1020 H 0.23295 0.10676 0.74252
 C1021 C 0.22724 0.28605 0.11149
 C1022 C 0.24514 0.27492 0.12109
 C1023 C 0.24170 0.26058 0.13893
 C1024 C 0.22026 0.25718 0.14743
 C1025 C 0.20238 0.26846 0.13764
 C1026 C 0.20586 0.28278 0.11980
 C1027 C 0.23080 0.30082 0.09315
 C1028 C 0.23377 0.31320 0.07778
 H1029 H 0.26177 0.27738 0.11483
 H1030 H 0.25585 0.25240 0.14625
 H1031 H 0.18566 0.26599 0.14356
 H1032 H 0.19187 0.29126 0.11244
 C1033 C 0.72714 0.78601 0.61153
 C1034 C 0.74503 0.77487 0.62115
 C1035 C 0.74156 0.76053 0.63898
 C1036 C 0.72011 0.75714 0.64745
 C1037 C 0.70224 0.76843 0.63764
 C1038 C 0.70575 0.78276 0.61981
 C1039 C 0.73074 0.80077 0.59318
 C1040 C 0.73376 0.81313 0.57781
 H1041 H 0.76167 0.77732 0.61491
 H1042 H 0.75570 0.75235 0.64631
 H1043 H 0.68552 0.76597 0.64355
 H1044 H 0.69178 0.79125 0.61244
 C1045 C 0.77273 0.78643 0.38772
 C1046 C 0.75485 0.77529 0.37809
 C1047 C 0.75834 0.76095 0.36028
 C1048 C 0.77979 0.75756 0.35182
 C1049 C 0.79765 0.76887 0.36162
 C1050 C 0.79412 0.78319 0.37945
 C1051 C 0.76911 0.80116 0.40607
 C1052 C 0.76607 0.81349 0.42146
 H1053 H 0.73821 0.77773 0.38432
 H1054 H 0.74421 0.75276 0.35294
 H1055 H 0.81438 0.76642 0.35573
 H1056 H 0.80809 0.79168 0.38682
 C1057 C 0.27230 0.28645 -0.11227
 C1058 C 0.25445 0.27531 -0.12192
 C1059 C 0.25798 0.26095 -0.13971
 C1060 C 0.27945 0.25755 -0.14811
 C1061 C 0.29729 0.26887 -0.13827
 C1062 C 0.29372 0.28320 -0.12047
 C1063 C 0.26865 0.30121 -0.09394
 C1064 C 0.26560 0.31356 -0.07857
 H1065 H 0.23779 0.27775 -0.11574
 H1066 H 0.24387 0.25275 -0.14708
 H1067 H 0.31404 0.26641 -0.14412
 H1068 H 0.30767 0.29170 -0.11307
 C1069 C 0.72780 0.21349 -0.11199
 C1070 C 0.74567 0.22464 -0.12165
 C1071 C 0.74216 0.23898 -0.13947
 C1072 C 0.72070 0.24235 -0.14791
 C1073 C 0.70286 0.23103 -0.13808
 C1074 C 0.70640 0.21671 -0.12024
 C1075 C 0.73143 0.19875 -0.09364
 C1076 C 0.73447 0.18641 -0.07825
 H1077 H 0.76231 0.22222 -0.11543
 H1078 H 0.75628 0.24718 -0.14683
 H1079 H 0.68612 0.23347 -0.14395
 H1080 H 0.69244 0.20821 -0.11285
 C1081 C 0.22723 0.71391 0.38820
 C1082 C 0.21678 0.70624 0.36902
 C1083 C 0.21328 0.72055 0.35117
 C1084 C 0.22021 0.74277 0.35226
 C1085 C 0.23072 0.75030 0.37164
 C1086 C 0.23418 0.73597 0.38947
 C1087 C 0.23081 0.69917 0.40656
 C1088 C 0.23383 0.68681 0.42194
 H1089 H 0.21138 0.68917 0.36784
 H1090 H 0.20543 0.71413 0.33642
 H1091 H 0.23598 0.76735 0.37314
 H1092 H 0.24224 0.74210 0.40427
 C1093 C 0.27237 0.71414 0.61192
 C1094 C 0.29376 0.71734 0.62021
 C1095 C 0.29729 0.73167 0.63801
 C1096 C 0.27944 0.74304 0.64778
 C1097 C 0.25800 0.73970 0.63930
 C1098 C 0.25451 0.72535 0.62150
 C1099 C 0.26876 0.69936 0.59361
 C1100 C 0.26574 0.68698 0.57826
 H1101 H 0.30772 0.70879 0.61287
 H1102 H 0.31402 0.73409 0.64392
 H1103 H 0.24388 0.74794 0.64661
 H1104 H 0.23787 0.72294 0.61525
 C1105 C 0.77298 0.21376 0.11185
 C1106 C 0.79435 0.21701 0.12015
 C1107 C 0.79783 0.23135 0.13797
 C1108 C 0.77995 0.24267 0.14772
 C1109 C 0.75852 0.23927 0.13923
 C1110 C 0.75508 0.22491 0.12143
 C1111 C 0.76941 0.19899 0.09353
 C1112 C 0.76644 0.18662 0.07816
 H1113 H 0.80834 0.20851 0.11282
 H1114 H 0.81455 0.23382 0.14388
 H1115 H 0.74437 0.24746 0.14654
 H1116 H 0.73845 0.22245 0.11517
 C1117 C 0.47756 0.36182 0.53648
 C1118 C 0.45617 0.37009 0.53323
 C1119 C 0.45265 0.38792 0.51891
 C1120 C 0.47052 0.39774 0.50761
 C1121 C 0.49197 0.38928 0.51100
 C1122 C 0.49545 0.37145 0.52535
 C1123 C 0.48116 0.34347 0.55124
 C1124 C 0.48418 0.32810 0.56361
 H1125 H 0.44220 0.36271 0.54172
 H1126 H 0.43592 0.39382 0.51644
 H1127 H 0.50611 0.39663 0.50282
 H1128 H 0.51209 0.36522 0.52780
 C1129 C -0.02254 0.86193 0.03582
 C1130 C -0.00724 0.86656 0.01913
 C1131 C -0.01064 0.88440 0.00479
 C1132 C -0.02954 0.89814 0.00681
 C1133 C -0.04481 0.89308 0.02388
 C1134 C -0.04130 0.87521 0.03815
 C1135 C -0.01898 0.84354 0.05055
 C1136 C -0.01599 0.82815 0.06289
 H1137 H 0.00740 0.85638 0.01721
 H1138 H 0.00188 0.88726 -0.00761
 H1139 H -0.05972 0.90258 0.02638
 H1140 H -0.05331 0.87172 0.05102
 C1141 C 0.02243 0.63785 0.03597
 C1142 C 0.00720 0.63329 0.01923
 C1143 C 0.01061 0.61547 0.00488
 C1144 C 0.02948 0.60168 0.00696
 C1145 C 0.04468 0.60666 0.02409
 C1146 C 0.04115 0.62452 0.03837
 C1147 C 0.01885 0.65622 0.05070
 C1148 C 0.01585 0.67161 0.06304
 H1149 H -0.00742 0.64351 0.01726
 H1150 H -0.00185 0.61267 -0.00757
 H1151 H 0.05955 0.59712 0.02665
 H1152 H 0.05311 0.62795 0.05129
 C1153 C 0.52274 0.13803 0.53641
 C1154 C 0.50484 0.12841 0.52531
 C1155 C 0.50830 0.11061 0.51095
 C1156 C 0.52975 0.10217 0.50749
 C1157 C 0.54763 0.11198 0.51875
 C1158 C 0.54413 0.12979 0.53310
 C1159 C 0.51916 0.15636 0.55119
 C1160 C 0.51617 0.17172 0.56356
 H1161 H 0.48820 0.13463 0.52781
 H1162 H 0.49415 0.10327 0.50280
 H1163 H 0.56436 0.10610 0.51624
 H1164 H 0.55812 0.13716 0.54156
 C1165 C -0.02277 0.13847 0.46396
 C1166 C -0.00488 0.12888 0.47511
 C1167 C -0.00834 0.11105 0.48947
 C1168 C -0.02977 0.10256 0.49285
 C1169 C -0.04765 0.11234 0.48154
 C1170 C -0.04415 0.13017 0.46720
 C1171 C -0.01918 0.15681 0.44919
 C1172 C -0.01617 0.17217 0.43681
 H1173 H 0.01176 0.13513 0.47266
 H1174 H 0.00580 0.10374 0.49766
 H1175 H -0.06437 0.10642 0.48399
 H1176 H -0.05812 0.13752 0.45870
 C1177 C 0.47727 0.63794 0.96409
 C1178 C 0.45846 0.62472 0.96178
 C1179 C 0.45490 0.60687 0.97607
 C1180 C 0.47016 0.60178 0.99313
 C1181 C 0.48912 0.61546 0.99512
 C1182 C 0.49256 0.63327 0.98076
 C1183 C 0.48087 0.65630 0.94934
 C1184 C 0.48388 0.67168 0.93699
 H1185 H 0.44646 0.62824 0.94893
 H1186 H 0.43996 0.59743 0.97360
 H1187 H 0.50163 0.61255 1.00750
 H1188 H 0.50725 0.64340 0.98266
 C1189 C 0.52270 0.86171 0.96408
 C1190 C 0.50484 0.87133 0.97526
 C1191 C 0.50837 0.88912 0.98962
 C1192 C 0.52983 0.89755 0.99299
 C1193 C 0.54766 0.88774 0.98164
 C1194 C 0.54410 0.86994 0.96730
 C1195 C 0.51905 0.84339 0.94931
 C1196 C 0.51600 0.82804 0.93694
 H1197 H 0.48819 0.86513 0.97283
 H1198 H 0.49425 0.89647 0.99784
 H1199 H 0.56441 0.89361 0.98408
 H1200 H 0.55805 0.86256 0.95877
 C1201 C 0.02259 0.36219 0.46370
 C1202 C 0.01563 0.36086 0.48574
 C1203 C 0.01912 0.37865 0.50011
 C1204 C 0.02966 0.39804 0.49262
 C1205 C 0.03661 0.39919 0.47041
 C1206 C 0.03308 0.38138 0.45607
 C1207 C 0.01897 0.34387 0.44892
 C1208 C 0.01593 0.32852 0.43656
 H1209 H 0.00755 0.34605 0.49184
 H1210 H 0.01385 0.37710 0.51715
 H1211 H 0.04448 0.41395 0.46403
 H1212 H 0.03848 0.38261 0.43901
 C1213 C 0.36189 0.53620 0.47768
 C1214 C 0.37151 0.52506 0.49556
 C1215 C 0.38934 0.51072 0.49209
 C1216 C 0.39783 0.50734 0.47066
 C1217 C 0.38803 0.51865 0.45280
 C1218 C 0.37018 0.53296 0.45630
 C1219 C 0.34353 0.55095 0.48126
 C1220 C 0.32814 0.56330 0.48427
 H1221 H 0.36526 0.52750 0.51219
 H1222 H 0.39668 0.50253 0.50623
 H1223 H 0.39394 0.51620 0.43608
 H1224 H 0.36281 0.54146 0.44233
 C1225 C 0.86255 0.03579 -0.02248
 C1226 C 0.86715 0.01905 -0.00723
 C1227 C 0.88496 0.00468 -0.01069
 C1228 C 0.89869 0.00673 -0.02959
 C1229 C 0.89366 0.02386 -0.04480
 C1230 C 0.87582 0.03816 -0.04124
 C1231 C 0.84420 0.05055 -0.01887
 C1232 C 0.82882 0.06292 -0.01586
 H1233 H 0.85698 0.01711 0.00741
 H1234 H 0.88781 -0.00776 0.00179
 H1235 H 0.90315 0.02637 -0.05971
 H1236 H 0.87236 0.05107 -0.05320
 C1237 C 0.63860 0.03585 0.02280
 C1238 C 0.62893 0.02475 0.00494
 C1239 C 0.61109 0.01042 0.00845
 C1240 C 0.60266 0.00701 0.02990
 C1241 C 0.61252 0.01828 0.04774
 C1242 C 0.63037 0.03259 0.04420
 C1243 C 0.65697 0.05059 0.01917
 C1244 C 0.67236 0.06292 0.01614
 H1245 H 0.63513 0.02721 -0.01170
 H1246 H 0.60371 0.00226 -0.00567
 H1247 H 0.60665 0.01581 0.06448
 H1248 H 0.63778 0.04106 0.05815
 C1249 C 0.13792 0.53607 0.52277
 C1250 C 0.12455 0.53848 0.54145
 C1251 C 0.10671 0.52418 0.54500
 C1252 C 0.10176 0.50700 0.52983
 C1253 C 0.11559 0.50490 0.51100
 C1254 C 0.13340 0.51927 0.50758
 C1255 C 0.15627 0.55083 0.51917
 C1256 C 0.17165 0.56319 0.51617
 H1257 H 0.12795 0.55144 0.55337
 H1258 H 0.09714 0.52676 0.55984
 H1259 H 0.11282 0.49240 0.49857
 H1260 H 0.14364 0.51728 0.49299
 C1261 C 0.13758 0.46421 -0.02254
 C1262 C 0.13295 0.48091 -0.00727
 C1263 C 0.11513 0.49526 -0.01069
 C1264 C 0.10140 0.49325 -0.02959
 C1265 C 0.10646 0.47616 -0.04483
 C1266 C 0.12432 0.46188 -0.04130
 C1267 C 0.15595 0.44946 -0.01897
 C1268 C 0.17133 0.43710 -0.01600
 H1269 H 0.14312 0.48283 0.00738
 H1270 H 0.11225 0.50767 0.00181
 H1271 H 0.09698 0.47368 -0.05974
 H1272 H 0.12780 0.44901 -0.05329
 C1273 C 0.63796 0.96411 0.47724
 C1274 C 0.63335 0.98079 0.49253
 C1275 C 0.61553 0.99516 0.48913
 C1276 C 0.60179 0.99317 0.47024
 C1277 C 0.60683 0.97610 0.45497
 C1278 C 0.62469 0.96180 0.45848
 C1279 C 0.65632 0.94935 0.48080
 C1280 C 0.67170 0.93698 0.48379
 H1281 H 0.64352 0.98269 0.50717
 H1282 H 0.61267 1.00755 0.50165
 H1283 H 0.59734 0.97363 0.44006
 H1284 H 0.62816 0.94894 0.44648
 C1285 C 0.86183 0.96393 0.52266
 C1286 C 0.87147 0.97509 0.50480
 C1287 C 0.88928 0.98944 0.50829
 C1288 C 0.89771 0.99283 0.52974
 C1289 C 0.88789 0.98151 0.54758
 C1290 C 0.87007 0.96717 0.54405
 C1291 C 0.84347 0.94919 0.51904
 C1292 C 0.82810 0.93684 0.51599
 H1293 H 0.86526 0.97265 0.48816
 H1294 H 0.89664 0.99764 0.49417
 H1295 H 0.89376 0.98396 0.56431
 H1296 H 0.86268 0.95867 0.55800
 C1297 C 0.36160 0.46403 0.02237
 C1298 C 0.36983 0.46725 0.04376
 C1299 C 0.38769 0.48154 0.04730
 C1300 C 0.39754 0.49285 0.02946
 C1301 C 0.38911 0.48948 0.00801
 C1302 C 0.37127 0.47517 0.00451
 C1303 C 0.34323 0.44931 0.01874
 C1304 C 0.32783 0.43697 0.01571
 H1305 H 0.36242 0.45875 0.05771
 H1306 H 0.39356 0.48398 0.06403
 H1307 H 0.39649 0.49767 -0.00610
 H1308 H 0.36506 0.47274 -0.01213
 C1309 C 0.53628 0.47745 0.36205
 C1310 C 0.53303 0.45606 0.37033
 C1311 C 0.51873 0.45255 0.38819
 C1312 C 0.50744 0.47042 0.39800
 C1313 C 0.51083 0.49186 0.38953
 C1314 C 0.52516 0.49533 0.37168
 C1315 C 0.55100 0.48104 0.34367
 C1316 C 0.56333 0.48406 0.32828
 H1317 H 0.54151 0.44209 0.36295
 H1318 H 0.51627 0.43583 0.39409
 H1319 H 0.50266 0.50600 0.39687
 H1320 H 0.52761 0.51197 0.36544
 C1321 C 0.03661 -0.02249 0.86204
 C1322 C 0.03335 -0.04390 0.87026
 C1323 C 0.01902 -0.04744 0.88809
 C1324 C 0.00773 -0.02959 0.89793
 C1325 C 0.01114 -0.00813 0.88952
 C1326 C 0.02549 -0.00462 0.87170
 C1327 C 0.05136 -0.01886 0.84368
 C1328 C 0.06370 -0.01581 0.82830
 H1329 H 0.04182 -0.05786 0.86286
 H1330 H 0.01654 -0.06418 0.89395
 H1331 H 0.00297 0.00599 0.89689
 H1332 H 0.02795 0.01203 0.86550
 C1333 C 0.03614 0.02287 0.63829
 C1334 C 0.03285 0.04426 0.63005
 C1335 C 0.01850 0.04777 0.61224
 C1336 C 0.00723 0.02990 0.60243
 C1337 C 0.01066 0.00845 0.61087
 C1338 C 0.02503 0.00498 0.62867
 C1339 C 0.05092 0.01927 0.65662
 C1340 C 0.06331 0.01627 0.67196
 H1341 H 0.04132 0.05824 0.63742
 H1342 H 0.01601 0.06451 0.60636
 H1343 H 0.00250 -0.00569 0.60352
 H1344 H 0.02751 -0.01166 0.63488
 C1345 C 0.53596 0.52264 0.13811
 C1346 C 0.53272 0.54403 0.12983
 C1347 C 0.51841 0.54755 0.11200
 C1348 C 0.50712 0.52969 0.10219
 C1349 C 0.51050 0.50824 0.11066
 C1350 C 0.52483 0.50477 0.12849
 C1351 C 0.55071 0.51904 0.15646
 C1352 C 0.56307 0.51603 0.17183
 H1353 H 0.54121 0.55800 0.13720
 H1354 H 0.51596 0.56428 0.10609
 H1355 H 0.50232 0.49411 0.10332
 H1356 H 0.52727 0.48813 0.13473
 C1357 C 0.46417 -0.02289 0.13855
 C1358 C 0.47534 -0.00501 0.12895
 C1359 C 0.48970 -0.00848 0.11114
 C1360 C 0.49308 -0.02992 0.10267
 C1361 C 0.48176 -0.04779 0.11246
 C1362 C 0.46742 -0.04428 0.13028
 C1363 C 0.44938 -0.01930 0.15687
 C1364 C 0.43699 -0.01629 0.17221
 H1365 H 0.47289 0.01162 0.13518
 H1366 H 0.49790 0.00565 0.10381
 H1367 H 0.48421 -0.06451 0.10656
 H1368 H 0.45891 -0.05825 0.13764
 C1369 C 0.96395 0.47738 0.63831
 C1370 C 0.97508 0.49529 0.62872
 C1371 C 0.98942 0.49186 0.61088
 C1372 C 0.99280 0.47044 0.60236
 C1373 C 0.98151 0.45255 0.61214
 C1374 C 0.96720 0.45602 0.62999
 C1375 C 0.94919 0.48092 0.65666
 C1376 C 0.93682 0.48389 0.67203
 H1377 H 0.97264 0.51191 0.63499
 H1378 H 0.99760 0.50602 0.60356
 H1379 H 0.98396 0.43584 0.60620
 H1380 H 0.95870 0.44202 0.63733
 C1381 C 0.96342 0.52241 0.86219
 C1382 C 0.97457 0.50455 0.87183
 C1383 C 0.98892 0.50806 0.88964
 C1384 C 0.99228 0.52951 0.89807
 C1385 C 0.98095 0.54735 0.88825
 C1386 C 0.96663 0.54381 0.87043
 C1387 C 0.94869 0.51879 0.84383
 C1388 C 0.93636 0.51574 0.82844
 H1389 H 0.97215 0.48791 0.86561
 H1390 H 0.99712 0.49394 0.89699
 H1391 H 0.98339 0.56409 0.89413
 H1392 H 0.95813 0.55777 0.86304
 C1393 C 0.46370 0.02241 0.36217
 C1394 C 0.46693 0.04381 0.37041
 C1395 C 0.48128 0.04735 0.38821
 C1396 C 0.49262 0.02951 0.39801
 C1397 C 0.48925 0.00805 0.38957
 C1398 C 0.47488 0.00455 0.37179
 C1399 C 0.44894 0.01879 0.34384
 C1400 C 0.43658 0.01575 0.32847
 H1401 H 0.45841 0.05777 0.36304
 H1402 H 0.48372 0.06408 0.39409
 H1403 H 0.49747 -0.00607 0.39691
 H1404 H 0.47245 -0.01209 0.36557
   
