data_POSCAR
  _audit_creation_date              2014-09-24
  _audit_creation_method            'ToBaCCo'
  _symmetry_space_group_name_H-M    'P1'
  _symmetry_Int_Tables_number       1
  _symmetry_cell_setting            triclinic
  loop_
  _symmetry_equiv_pos_as_xyz
 x,y,z
_cell_length_a 61.7663
_cell_length_b 61.5714
_cell_length_c 61.6757
_cell_angle_alpha 90.002900
_cell_angle_beta 90.066900
_cell_angle_gamma 90.059100
loop_
  _atom_site_label
  _atom_site_type_symbol
  _atom_site_fract_x
  _atom_site_fract_y
  _atom_site_fract_z
C1 C 0.32573 0.45374 0.92709
 C2 C 0.31853 0.46349 0.90783
 C3 C 0.30091 0.45479 0.89610
 C4 C 0.29009 0.43653 0.90467
 C5 C 0.29708 0.42664 0.92397
 C6 C 0.31504 0.43524 0.93515
 C7 C 0.34404 0.46177 0.93793
 C8 C 0.35221 0.45150 0.95673
 C9 C 0.34134 0.43284 0.96444
 C10 C 0.32281 0.42488 0.95395
 C11 C 0.31247 0.40611 0.96155
 C12 C 0.29436 0.39738 0.95075
 C13 C 0.28688 0.40780 0.93177
 H14 H 0.32713 0.47762 0.90218
 H15 H 0.27645 0.42970 0.89593
 H16 H 0.35253 0.47565 0.93121
 H17 H 0.34748 0.42370 0.97804
 H18 H 0.31885 0.39787 0.97572
 H19 H 0.27372 0.40107 0.92242
 C20 C 0.45421 0.82305 0.42499
 C21 C 0.46382 0.84233 0.43250
 C22 C 0.45608 0.85292 0.45135
 C23 C 0.43804 0.84386 0.46207
 C24 C 0.42819 0.82475 0.45462
 C25 C 0.43635 0.81424 0.43610
 C26 C 0.46167 0.81292 0.40601
 C27 C 0.45152 0.79411 0.39778
 C28 C 0.43359 0.78557 0.40908
 C29 C 0.42603 0.79547 0.42810
 C30 C 0.40763 0.78739 0.43870
 C31 C 0.39918 0.79782 0.45717
 C32 C 0.40968 0.81660 0.46495
 H33 H 0.47672 0.84919 0.42292
 H34 H 0.43125 0.85210 0.47604
 H35 H 0.47514 0.81999 0.39723
 H36 H 0.42480 0.77173 0.40299
 H37 H 0.39933 0.77333 0.43211
 H38 H 0.40319 0.82564 0.47844
 C39 C 0.95357 0.92682 0.82604
 C40 C 0.96316 0.90767 0.81841
 C41 C 0.95347 0.89541 0.80163
 C42 C 0.93494 0.90408 0.79134
 C43 C 0.92532 0.92339 0.79866
 C44 C 0.93456 0.93468 0.81623
 C45 C 0.96236 0.93773 0.84394
 C46 C 0.95239 0.95643 0.85259
 C47 C 0.93316 0.96399 0.84262
 C48 C 0.92444 0.95345 0.82439
 C49 C 0.90530 0.96100 0.81467
 C50 C 0.89603 0.95016 0.79679
 C51 C 0.90618 0.93111 0.78911
 H52 H 0.97818 0.90264 0.82580
 H53 H 0.92768 0.89547 0.77782
 H54 H 0.97655 0.93101 0.85183
 H55 H 0.92422 0.97747 0.84931
 H56 H 0.89733 0.97525 0.82122
 H57 H 0.89907 0.92161 0.77625
 C58 C 0.45401 -0.07191 0.32408
 C59 C 0.46413 -0.09055 0.31594
 C60 C 0.45618 -0.10107 0.29726
 C61 C 0.43758 -0.09259 0.28705
 C62 C 0.42719 -0.07399 0.29511
 C63 C 0.43548 -0.06359 0.31368
 C64 C 0.46166 -0.06202 0.34306
 C65 C 0.45108 -0.04391 0.35204
 C66 C 0.43246 -0.03581 0.34152
 C67 C 0.42470 -0.04547 0.32243
 C68 C 0.40580 -0.03775 0.31247
 C69 C 0.39727 -0.04788 0.29386
 C70 C 0.40815 -0.06619 0.28540
 H71 H 0.47762 -0.09712 0.32491
 H72 H 0.43082 -0.10092 0.27311
 H73 H 0.47564 -0.06879 0.35128
 H74 H 0.42331 -0.02255 0.34830
 H75 H 0.39730 -0.02408 0.31953
 H76 H 0.40171 -0.07507 0.27177
 C77 C 0.82484 0.29786 0.32837
 C78 C 0.81429 0.29009 0.34695
 C79 C 0.79579 0.30057 0.35523
 C80 C 0.78790 0.31906 0.34430
 C81 C 0.79817 0.32688 0.32561
 C82 C 0.81673 0.31632 0.31763
 C83 C 0.84378 0.28783 0.32085
 C84 C 0.85491 0.29596 0.30260
 C85 C 0.84648 0.31439 0.29197
 C86 C 0.82759 0.32464 0.29937
 C87 C 0.81981 0.34350 0.28920
 C88 C 0.80112 0.35418 0.29694
 C89 C 0.79052 0.34560 0.31523
 H90 H 0.82081 0.27612 0.35544
 H91 H 0.77423 0.32803 0.35038
 H92 H 0.84979 0.27409 0.32982
 H93 H 0.85500 0.32102 0.27810
 H94 H 0.82893 0.34991 0.27575
 H95 H 0.77646 0.35392 0.32168
 C96 C -0.20259 0.82413 0.82414
 C97 C -0.21270 0.84308 0.81652
 C98 C -0.20484 0.85410 0.79797
 C99 C -0.18629 0.84573 0.78759
 C100 C -0.17590 0.82700 0.79522
 C101 C -0.18412 0.81610 0.81349
 C102 C -0.21021 0.81359 0.84282
 C103 C -0.19966 0.79511 0.85119
 C104 C -0.18111 0.78733 0.84036
 C105 C -0.17335 0.79767 0.82163
 C106 C -0.15441 0.79036 0.81145
 C107 C -0.14580 0.80128 0.79332
 C108 C -0.15690 0.81959 0.78527
 H109 H -0.22612 0.84931 0.82577
 H110 H -0.17951 0.85428 0.77379
 H111 H -0.22414 0.82011 0.85128
 H112 H -0.17200 0.77379 0.84666
 H113 H -0.14590 0.77643 0.81801
 H114 H -0.15073 0.82875 0.77174
 C115 C 0.92227 0.32579 0.45162
 C116 C 0.92995 0.34487 0.46151
 C117 C 0.94903 0.35525 0.45410
 C118 C 0.95975 0.34627 0.43600
 C119 C 0.95215 0.32735 0.42589
 C120 C 0.93345 0.31699 0.43381
 C121 C 0.90315 0.31578 0.45887
 C122 C 0.89480 0.29715 0.44849
 C123 C 0.90652 0.28827 0.43098
 C124 C 0.92555 0.29819 0.42347
 C125 C 0.93638 0.28995 0.40526
 C126 C 0.95489 0.30036 0.39689
 C127 C 0.96265 0.31912 0.40749
 H128 H 0.92037 0.35169 0.47443
 H129 H 0.97392 0.35436 0.42946
 H130 H 0.89443 0.32271 0.47246
 H131 H 0.90109 0.27381 0.42278
 H132 H 0.92997 0.27577 0.39704
 H133 H 0.97636 0.32801 0.40131
 C134 C 0.42344 0.45220 0.82221
 C135 C 0.43134 0.46277 0.84076
 C136 C 0.44991 0.45506 0.85162
 C137 C 0.46042 0.43649 0.84341
 C138 C 0.45261 0.42569 0.82496
 C139 C 0.43405 0.43360 0.81431
 C140 C 0.40452 0.45949 0.81197
 C141 C 0.39577 0.44840 0.79400
 C142 C 0.40666 0.42984 0.78621
 C143 C 0.42565 0.42243 0.79625
 C144 C 0.43588 0.40349 0.78894
 C145 C 0.45434 0.39522 0.79950
 C146 C 0.46261 0.40662 0.81757
 H147 H 0.42232 0.47642 0.84692
 H148 H 0.47439 0.43004 0.85190
 H149 H 0.39615 0.47360 0.81833
 H150 H 0.40036 0.42055 0.77282
 H151 H 0.42912 0.39471 0.77526
 H152 H 0.47635 0.40064 0.82652
 C153 C 0.82222 0.92606 0.95464
 C154 C 0.81210 0.90730 0.96274
 C155 C 0.79352 0.89844 0.95262
 C156 C 0.78567 0.90870 0.93368
 C157 C 0.79550 0.92753 0.92554
 C158 C 0.81381 0.93624 0.93603
 C159 C 0.84114 0.93421 0.96438
 C160 C 0.85174 0.95283 0.95603
 C161 C 0.84310 0.96259 0.93721
 C162 C 0.82435 0.95450 0.92724
 C163 C 0.81655 0.96393 0.90808
 C164 C 0.79806 0.95555 0.89752
 C165 C 0.78777 0.93723 0.90647
 H166 H 0.81910 0.89917 0.97668
 H167 H 0.77250 0.90179 0.92445
 H168 H 0.84780 0.92529 0.97789
 H169 H 0.85142 0.97627 0.92990
 H170 H 0.82559 0.97727 0.90126
 H171 H 0.77395 0.93019 0.89818
 C172 C 0.32389 0.82615 0.29544
 C173 C 0.31438 0.84562 0.28856
 C174 C 0.29665 0.85478 0.29970
 C175 C 0.28782 0.84302 0.31734
 C176 C 0.29731 0.82358 0.32451
 C177 C 0.31542 0.81516 0.31356
 C178 C 0.34232 0.81806 0.28496
 C179 C 0.35251 0.79893 0.29227
 C180 C 0.34389 0.78816 0.31046
 C181 C 0.32550 0.79610 0.32114
 C182 C 0.31764 0.78574 0.33980
 C183 C 0.29956 0.79400 0.35104
 C184 C 0.28942 0.81287 0.34299
 H185 H 0.32115 0.85404 0.27467
 H186 H 0.27366 0.84863 0.32586
 H187 H 0.34902 0.82739 0.27177
 H188 H 0.35198 0.77385 0.31672
 H189 H 0.32630 0.77174 0.34569
 H190 H 0.27578 0.81968 0.35170
 C191 C 0.82575 0.42720 0.45412
 C192 C 0.81786 0.40816 0.46372
 C193 C 0.80099 0.39620 0.45397
 C194 C 0.79101 0.40474 0.43526
 C195 C 0.79856 0.42399 0.42564
 C196 C 0.81616 0.43512 0.43500
 C197 C 0.84373 0.43788 0.46298
 C198 C 0.85271 0.45637 0.45291
 C199 C 0.84296 0.46400 0.43359
 C200 C 0.82464 0.45374 0.42485
 C201 C 0.81519 0.46139 0.40561
 C202 C 0.79726 0.45078 0.39625
 C203 C 0.78929 0.43178 0.40636
 H204 H 0.82519 0.40289 0.47869
 H205 H 0.77762 0.39604 0.42789
 H206 H 0.85142 0.43114 0.47729
 H207 H 0.84988 0.47732 0.42455
 H208 H 0.82199 0.47552 0.39764
 H209 H 0.77642 0.42241 0.39913
 C210 C 0.95459 0.82268 -0.07547
 C211 C 0.96470 0.84143 -0.06729
 C212 C 0.95697 0.85165 -0.04832
 C213 C 0.93883 0.84274 -0.03781
 C214 C 0.92853 0.82415 -0.04583
 C215 C 0.93641 0.81406 -0.06473
 C216 C 0.96186 0.81295 -0.09473
 C217 C 0.95122 0.79468 -0.10370
 C218 C 0.93276 0.78654 -0.09278
 C219 C 0.92549 0.79597 -0.07341
 C220 C 0.90686 0.78806 -0.06303
 C221 C 0.89883 0.79798 -0.04409
 C222 C 0.90986 0.81616 -0.03571
 H223 H 0.97796 0.84831 -0.07638
 H224 H 0.93226 0.85082 -0.02365
 H225 H 0.97563 0.81994 -0.10311
 H226 H 0.92330 0.77339 -0.09937
 H227 H 0.89816 0.77446 -0.07005
 H228 H 0.90371 0.82489 -0.02187
 C229 C 0.32377 0.32579 0.79819
 C230 C 0.31430 0.34520 0.79089
 C231 C 0.29564 0.35371 0.80092
 C232 C 0.28583 0.34158 0.81762
 C233 C 0.29524 0.32234 0.82522
 C234 C 0.31429 0.31442 0.81555
 C235 C 0.34301 0.31805 0.78889
 C236 C 0.35296 0.29887 0.79659
 C237 C 0.34340 0.28794 0.81422
 C238 C 0.32421 0.29552 0.82370
 C239 C 0.31527 0.28495 0.84176
 C240 C 0.29619 0.29274 0.85161
 C241 C 0.28629 0.31143 0.84301
 H242 H 0.32173 0.35404 0.77763
 H243 H 0.27092 0.34687 0.82501
 H244 H 0.35034 0.32760 0.77620
 H245 H 0.35121 0.27361 0.82080
 H246 H 0.32390 0.27127 0.84848
 H247 H 0.27209 0.31808 0.85088
 C248 C 0.17483 0.54565 0.57190
 C249 C 0.15613 0.53799 0.56158
 C250 C 0.14726 0.54893 0.54363
 C251 C 0.15752 0.56806 0.53624
 C252 C 0.17633 0.57590 0.54642
 C253 C 0.18503 0.56462 0.56427
 C254 C 0.18286 0.53505 0.59032
 C255 C 0.20126 0.54297 0.60127
 C256 C 0.21155 0.56176 0.59324
 C257 C 0.20348 0.57271 0.57498
 C258 C 0.21312 0.59208 0.56787
 C259 C 0.20420 0.60400 0.55048
 C260 C 0.18605 0.59534 0.53957
 H261 H 0.14800 0.52373 0.56792
 H262 H 0.15064 0.57751 0.52321
 H263 H 0.17402 0.52120 0.59634
 H264 H 0.22539 0.56837 0.60182
 H265 H 0.22742 0.59762 0.57624
 H266 H 0.17919 0.60413 0.52596
 C267 C 0.57857 0.70130 0.07398
 C268 C 0.59713 0.70872 0.06320
 C269 C 0.60530 0.69778 0.04488
 C270 C 0.59404 0.67937 0.03718
 C271 C 0.57537 0.67184 0.04774
 C272 C 0.56766 0.68277 0.06623
 C273 C 0.57123 0.71176 0.09281
 C274 C 0.55310 0.70384 0.10425
 C275 C 0.54213 0.68553 0.09601
 C276 C 0.54934 0.67488 0.07727
 C277 C 0.53887 0.65604 0.06986
 C278 C 0.54653 0.64476 0.05149
 C279 C 0.56471 0.65308 0.04046
 H280 H 0.60570 0.72280 0.06940
 H281 H 0.59974 0.67036 0.02335
 H282 H 0.58012 0.72573 0.09841
 H283 H 0.52818 0.67923 0.10464
 H284 H 0.52515 0.65025 0.07894
 H285 H 0.57087 0.64451 0.02640
 C286 C 0.70603 0.17721 0.67941
 C287 C 0.71527 0.18592 0.66058
 C288 C 0.70638 0.20442 0.65052
 C289 C 0.68743 0.21359 0.65937
 C290 C 0.67793 0.20497 0.67819
 C291 C 0.68733 0.18675 0.68829
 C292 C 0.71474 0.15847 0.68890
 C293 C 0.70529 0.14904 0.70747
 C294 C 0.68615 0.15850 0.71579
 C295 C 0.67734 0.17733 0.70651
 C296 C 0.65813 0.18631 0.71468
 C297 C 0.64873 0.20481 0.70509
 C298 C 0.65867 0.21375 0.68650
 H299 H 0.72891 0.17760 0.65343
 H300 H 0.67971 0.22713 0.65124
 H301 H 0.72859 0.15081 0.68131
 H302 H 0.67742 0.15090 0.72894
 H303 H 0.65015 0.17855 0.72827
 H304 H 0.65117 0.22702 0.67785
 C305 C 1.07202 0.04456 0.17528
 C306 C 1.09077 0.03474 0.18362
 C307 C 1.10076 0.04274 0.20262
 C308 C 1.09181 0.06108 0.21280
 C309 C 1.07316 0.07109 0.20460
 C310 C 1.06318 0.06280 0.18580
 C311 C 1.06250 0.03689 0.15607
 C312 C 1.04406 0.04703 0.14705
 C313 C 1.03581 0.06571 0.15759
 C314 C 1.04507 0.07343 0.17692
 C315 C 1.03697 0.09218 0.18706
 C316 C 1.04666 0.10051 0.20604
 C317 C 1.06499 0.08985 0.21447
 H318 H 1.09787 0.02148 0.17466
 H319 H 1.09981 0.06801 0.22684
 H320 H 1.06979 0.02319 0.14780
 H321 H 1.02272 0.07499 0.15062
 H322 H 1.02338 0.10068 0.17986
 H323 H 1.07368 0.09642 0.22818
 C324 C 0.04468 0.17524 1.07319
 C325 C 0.03629 0.15649 1.06343
 C326 C 0.04613 0.14727 1.04499
 C327 C 0.06534 0.15698 1.03705
 C328 C 0.07385 0.17585 1.04661
 C329 C 0.06344 0.18504 1.06471
 C330 C 0.03498 0.18375 1.09186
 C331 C 0.04350 0.20230 1.10219
 C332 C 0.06240 0.21185 1.09362
 C333 C 0.07240 0.20338 1.07501
 C334 C 0.09169 0.21247 1.06710
 C335 C 0.10215 0.20370 1.04872
 C336 C 0.09306 0.18519 1.03879
 H337 H 0.02229 0.14869 1.07064
 H338 H 0.07437 0.14962 1.02398
 H339 H 0.02131 0.17518 1.09862
 H340 H 0.06967 0.22559 1.10188
 H341 H 0.09867 0.22587 1.07595
 H342 H 0.10127 0.17780 1.02513
 C343 C 0.17832 0.67540 0.70364
 C344 C 0.15983 0.68316 0.71432
 C345 C 0.14860 0.70150 0.70650
 C346 C 0.15647 0.71200 0.68779
 C347 C 0.17481 0.70429 0.67684
 C348 C 0.18578 0.68591 0.68480
 C349 C 0.18891 0.65669 0.71105
 C350 C 0.20687 0.64809 0.69991
 C351 C 0.21414 0.65879 0.68104
 C352 C 0.20374 0.67760 0.67349
 C353 C 0.21055 0.68771 0.65429
 C354 C 0.19956 0.70593 0.64590
 C355 C 0.18177 0.71424 0.65760
 H356 H 0.15405 0.67424 0.72820
 H357 H 0.14776 0.72585 0.68133
 H358 H 0.18278 0.64832 0.72525
 H359 H 0.22731 0.65233 0.67157
 H360 H 0.22419 0.68109 0.64545
 H361 H 0.17283 0.72811 0.65186
 C362 C 1.20503 0.17634 0.17751
 C363 C 1.21322 0.15734 0.18697
 C364 C 1.20370 0.14827 0.20569
 C365 C 1.18507 0.15852 0.21430
 C366 C 1.17678 0.17765 0.20504
 C367 C 1.18685 0.18660 0.18663
 C368 C 1.21426 0.18463 0.15848
 C369 C 1.20584 0.20343 0.14848
 C370 C 1.18755 0.21340 0.15768
 C371 C 1.17803 0.20515 0.17660
 C372 C 1.15925 0.21466 0.18501
 C373 C 1.14910 0.20614 0.20362
 C374 C 1.15800 0.18743 0.21337
 H375 H 1.22677 0.14921 0.17931
 H376 H 1.17627 0.15139 0.22765
 H377 H 1.22743 0.17573 0.15121
 H378 H 1.18033 0.22730 0.14969
 H379 H 1.15223 0.22814 0.17629
 H380 H 1.14990 0.18014 0.22714
 C381 C 0.67710 1.07165 0.54380
 C382 C 0.65913 1.06134 0.53450
 C383 C 0.65032 1.04239 0.54373
 C384 C 0.66001 1.03387 0.56263
 C385 C 0.67827 1.04382 0.57189
 C386 C 0.68671 1.06292 0.56256
 C387 C 0.68488 1.09115 0.53510
 C388 C 0.70140 1.10306 0.54561
 C389 C 0.71161 1.09351 0.56378
 C390 C 0.70422 1.07374 0.57244
 C391 C 0.71345 1.06516 0.59140
 C392 C 0.70555 1.04573 0.60065
 C393 C 0.68761 1.03549 0.59089
 H394 H 0.65127 1.06876 0.52065
 H395 H 0.65295 1.02004 0.57080
 H396 H 0.67772 1.09687 0.52017
 H397 H 0.72505 1.10176 0.57156
 H398 H 0.72618 1.07427 0.59931
 H399 H 0.68054 1.02125 0.59841
 C400 C 0.54830 0.57402 0.17215
 C401 C 0.54097 0.56378 0.15318
 C402 C 0.55138 0.54515 0.14500
 C403 C 0.56867 0.53623 0.15695
 C404 C 0.57620 0.54633 0.17588
 C405 C 0.56608 0.56533 0.18348
 C406 C 0.53856 0.59324 0.17944
 C407 C 0.54637 0.60416 0.19801
 C408 C 0.56420 0.59520 0.20917
 C409 C 0.57413 0.57597 0.20203
 C410 C 0.59247 0.56768 0.21269
 C411 C 0.60277 0.54863 0.20519
 C412 C 0.59429 0.53810 0.18680
 H413 H 0.52743 0.57065 0.14433
 H414 H 0.57669 0.52160 0.15176
 H415 H 0.52530 0.59962 0.17006
 H416 H 0.57060 0.60354 0.22328
 H417 H 0.59895 0.57672 0.22621
 H418 H 0.60240 0.52384 0.18048
 C419 C 0.67311 0.70273 0.17523
 C420 C 0.65440 0.71031 0.18564
 C421 C 0.64630 0.69992 0.20431
 C422 C 0.65822 0.68259 0.21324
 C423 C 0.67692 0.67487 0.20301
 C424 C 0.68432 0.68480 0.18384
 C425 C 0.68026 0.71235 0.15590
 C426 C 0.69821 0.70391 0.14453
 C427 C 0.70944 0.68614 0.15358
 C428 C 0.70258 0.67648 0.17303
 C429 C 0.71322 0.65812 0.18139
 C430 C 0.70597 0.64806 0.20065
 C431 C 0.68780 0.65674 0.21128
 H432 H 0.64559 0.72390 0.17879
 H433 H 0.65315 0.67467 0.22796
 H434 H 0.67144 0.72621 0.14995
 H435 H 0.72337 0.67958 0.14516
 H436 H 0.72651 0.65141 0.17224
 H437 H 0.68161 0.64878 0.22568
 C438 C 0.17515 0.04506 1.07424
 C439 C 0.15540 0.03710 1.06631
 C440 C 0.14381 0.04832 1.05001
 C441 C 0.15376 0.06653 1.04030
 C442 C 0.17367 0.07448 1.04789
 C443 C 0.18431 0.06384 1.06505
 C444 C 0.18536 0.03497 1.09188
 C445 C 0.20474 0.04335 1.10073
 C446 C 0.21352 0.06243 1.09143
 C447 C 0.20370 0.07243 1.07351
 C448 C 0.21254 0.09141 1.06449
 C449 C 0.20244 0.10185 1.04686
 C450 C 0.18266 0.09341 1.03906
 H451 H 0.14925 0.02212 1.07308
 H452 H 0.14584 0.07478 1.02694
 H453 H 0.17749 0.02117 1.09942
 H454 H 0.22753 0.07023 1.09855
 H455 H 0.22709 0.09831 1.07149
 H456 H 0.17362 0.10191 1.02668
 C457 C 0.57322 0.17885 0.54493
 C458 C 0.59212 0.18889 0.53720
 C459 C 0.60062 0.20759 0.54735
 C460 C 0.58986 0.21591 0.56568
 C461 C 0.57093 0.20615 0.57348
 C462 C 0.56255 0.18757 0.56312
 C463 C 0.56536 0.15970 0.53534
 C464 C 0.54676 0.14917 0.54353
 C465 C 0.53651 0.15799 0.56191
 C466 C 0.54418 0.17707 0.57167
 C467 C 0.53430 0.18522 0.59044
 C468 C 0.54236 0.20400 0.60077
 C469 C 0.56085 0.21417 0.59216
 H470 H 0.60065 0.18181 0.52357
 H471 H 0.59646 0.22942 0.57466
 H472 H 0.57441 0.15275 0.52207
 H473 H 0.52278 0.14962 0.56899
 H474 H 0.52096 0.17622 0.59733
 H475 H 0.56784 0.22801 0.60048
 C476 C 0.07347 0.54558 0.67865
 C477 C 0.09242 0.53799 0.68874
 C478 C 0.10106 0.54850 0.70715
 C479 C 0.09022 0.56691 0.71532
 C480 C 0.07123 0.57460 0.70548
 C481 C 0.06283 0.56393 0.68710
 C482 C 0.06556 0.53564 0.65971
 C483 C 0.04697 0.54374 0.64909
 C484 C 0.03661 0.56213 0.65778
 C485 C 0.04437 0.57224 0.67658
 C486 C 0.03445 0.59115 0.68440
 C487 C 0.04261 0.60196 0.70282
 C488 C 0.06105 0.59342 0.71321
 H489 H 0.10087 0.52418 0.68190
 H490 H 0.09671 0.57601 0.72878
 H491 H 0.07457 0.52221 0.65305
 H492 H 0.02276 0.56897 0.64941
 H493 H 0.02098 0.59766 0.67537
 H494 H 0.06791 0.60193 0.72700
 C495 C 0.67602 0.57662 0.04609
 C496 C 0.65690 0.56921 0.03627
 C497 C 0.64536 0.55140 0.04489
 C498 C 0.65407 0.54052 0.06303
 C499 C 0.67328 0.54767 0.07295
 C500 C 0.68421 0.56587 0.06449
 C501 C 0.68665 0.59516 0.03821
 C502 C 0.70520 0.60348 0.04863
 C503 C 0.71327 0.59242 0.06696
 C504 C 0.70298 0.57373 0.07482
 C505 C 0.71079 0.56328 0.09341
 C506 C 0.70019 0.54500 0.10206
 C507 C 0.68125 0.53739 0.09167
 H508 H 0.65124 0.57774 0.02211
 H509 H 0.64552 0.52667 0.06973
 H510 H 0.68006 0.60367 0.02430
 H511 H 0.72710 0.59841 0.07579
 H512 H 0.72496 0.56973 0.10159
 H513 H 0.67208 0.52404 0.09830
 C514 C 0.04688 0.67875 0.57461
 C515 C 0.03951 0.68913 0.59348
 C516 C 0.05041 0.70736 0.60207
 C517 C 0.06901 0.71505 0.59123
 C518 C 0.07650 0.70490 0.57230
 C519 C 0.06543 0.68671 0.56399
 C520 C 0.03648 0.66002 0.56672
 C521 C 0.04431 0.64915 0.54814
 C522 C 0.06284 0.65739 0.53776
 C523 C 0.07344 0.67594 0.54553
 C524 C 0.09244 0.68328 0.53554
 C525 C 0.10376 0.70142 0.54368
 C526 C 0.09545 0.71216 0.56205
 H527 H 0.02552 0.68268 0.60192
 H528 H 0.07834 0.72840 0.59764
 H529 H 0.02287 0.65374 0.57571
 H530 H 0.06943 0.64885 0.52388
 H531 H 0.09842 0.67419 0.52188
 H532 H 0.10418 0.72592 0.56872
 C533 C 0.54379 1.07074 0.67738
 C534 C 0.53608 1.06248 0.65764
 C535 C 0.54738 1.04595 0.64646
 C536 C 0.56518 1.03613 0.65697
 C537 C 0.57291 1.04407 0.67686
 C538 C 0.56234 1.06159 0.68697
 C539 C 0.53379 1.08874 0.68707
 C540 C 0.54213 1.09795 0.70624
 C541 C 0.56090 1.08876 0.71551
 C542 C 0.57082 1.07051 0.70623
 C543 C 0.58967 1.06169 0.71539
 C544 C 0.60008 1.04374 0.70582
 C545 C 0.59166 1.03535 0.68626
 H546 H 0.52139 1.06932 0.65093
 H547 H 0.57336 1.02247 0.64954
 H548 H 0.52015 1.09626 0.67898
 H549 H 0.56843 1.09623 0.72950
 H550 H 0.59658 1.06927 0.72965
 H551 H 0.60017 1.02260 0.67772
 C552 C 0.42763 0.32368 0.95436
 C553 C 0.43783 0.34246 0.96233
 C554 C 0.45643 0.35116 0.95217
 C555 C 0.46433 0.34063 0.93341
 C556 C 0.45442 0.32175 0.92543
 C557 C 0.43602 0.31326 0.93589
 C558 C 0.40864 0.31573 0.96408
 C559 C 0.39793 0.29724 0.95571
 C560 C 0.40655 0.28711 0.93718
 C561 C 0.42541 0.29496 0.92724
 C562 C 0.43326 0.28523 0.90826
 C563 C 0.45185 0.29338 0.89776
 C564 C 0.46219 0.31177 0.90654
 H565 H 0.43087 0.35074 0.97619
 H566 H 0.47759 0.34732 0.92421
 H567 H 0.40204 0.32462 0.97761
 H568 H 0.39814 0.27335 0.93012
 H569 H 0.42417 0.27188 0.90151
 H570 H 0.47607 0.31865 0.89825
 C571 C 0.92567 0.45338 0.32604
 C572 C 0.93521 0.46152 0.34503
 C573 C 0.95318 0.45115 0.35467
 C574 C 0.96085 0.43172 0.34506
 C575 C 0.95155 0.42353 0.32595
 C576 C 0.93401 0.43448 0.31634
 C577 C 0.90738 0.46347 0.31709
 C578 C 0.89750 0.45527 0.29813
 C579 C 0.90635 0.43663 0.28837
 C580 C 0.92434 0.42612 0.29741
 C581 C 0.93220 0.40688 0.28822
 C582 C 0.94906 0.39513 0.29821
 C583 C 0.95904 0.40406 0.31675
 H584 H 0.92833 0.47582 0.35263
 H585 H 0.97348 0.42225 0.35259
 H586 H 0.90059 0.47715 0.32564
 H587 H 0.89855 0.42973 0.27419
 H588 H 0.92490 0.40130 0.27333
 H589 H 0.97246 0.39556 0.32427
 C590 C 0.32724 0.95411 0.42498
 C591 C 0.31944 0.96390 0.40596
 C592 C 0.30086 0.95577 0.39534
 C593 C 0.29034 0.93753 0.40419
 C594 C 0.29803 0.92752 0.42309
 C595 C 0.31654 0.93584 0.43355
 C596 C 0.34607 0.96192 0.43510
 C597 C 0.35464 0.95177 0.45377
 C598 C 0.34386 0.93314 0.46184
 C599 C 0.32486 0.92534 0.45203
 C600 C 0.31449 0.90665 0.45998
 C601 C 0.29586 0.89820 0.44977
 C602 C 0.28790 0.90881 0.43115
 H603 H 0.32847 0.97734 0.39937
 H604 H 0.27635 0.93079 0.39594
 H605 H 0.35445 0.97571 0.42808
 H606 H 0.35033 0.92395 0.47525
 H607 H 0.32121 0.89829 0.47392
 H608 H 0.27436 0.90232 0.42219
 O609 O 0.19355 0.53010 0.74959
 O610 O 0.20365 0.53020 0.78731
 O611 O 0.25026 0.55613 0.71919
 O612 O 0.28567 0.54813 0.71792
 O613 O 0.21945 0.49936 0.69319
 O614 O 0.21947 0.46159 0.70343
 O615 O 0.30743 0.49596 0.77509
 O616 O 0.30335 0.53414 0.76901
 O617 O 0.25354 0.47439 0.80740
 O618 O 0.21368 0.47848 0.80179
 O619 O 0.27517 0.44196 0.75323
 O620 O 0.27083 0.44744 0.71340
 O621 O 0.30471 0.46903 0.74999
 O622 O 0.29494 0.46963 0.71072
 O623 O 0.25066 0.44474 0.78055
 O624 O 0.21112 0.45420 0.77970
 O625 O 0.28081 0.49905 0.80461
 O626 O 0.27966 0.53807 0.79576
 O627 O 0.19093 0.50313 0.72445
 O628 O 0.19662 0.46457 0.72882
 O629 O 0.24621 0.52471 0.69077
 O630 O 0.28514 0.51888 0.69691
 O631 O 0.22492 0.55867 0.74586
 O632 O 0.22908 0.55300 0.78448
 Zr633 Zr 0.22562 0.52809 0.76115
 O634 O 0.24473 0.50901 0.78206
 Zr635 Zr 0.26149 0.52398 0.72123
 O636 O 0.28233 0.50488 0.74041
 Zr637 Zr 0.22146 0.48795 0.72531
 O638 O 0.24049 0.46709 0.74452
 Zr639 Zr 0.27747 0.51204 0.77331
 O640 O 0.25861 0.53326 0.75401
 Zr641 Zr 0.23752 0.47603 0.77727
 O642 O 0.21638 0.49527 0.75827
 Zr643 Zr 0.27335 0.47207 0.73724
 O644 O 0.25410 0.49099 0.71607
 O645 O 0.22887 0.52066 0.72852
 O646 O 0.27024 0.47922 0.77004
 C647 C 0.18311 0.51927 0.73510
 C648 C 0.23564 0.56651 0.72978
 C649 C 0.23022 0.51394 0.68285
 C650 C 0.31492 0.47938 0.76491
 C651 C 0.27033 0.48425 0.81486
 C652 C 0.26549 0.43455 0.77011
 H653 H 0.24216 0.51341 0.79723
 H654 H 0.23608 0.45187 0.74205
 H655 H 0.21962 0.52994 0.71926
 H656 H 0.29756 0.50742 0.73620
 H657 H 0.29722 0.54716 0.76185
 H658 H 0.29872 0.54294 0.72564
 H659 H 0.21232 0.44358 0.76773
 H660 H 0.19042 0.46671 0.74346
 H661 H 0.26710 0.53727 0.80564
 H662 H 0.24367 0.55931 0.78232
 H663 H 0.25801 0.43845 0.71686
 H664 H 0.23351 0.46104 0.69573
 H665 H 0.19610 0.51603 0.78803
 H666 H 0.21709 0.49139 0.81073
 H667 H 0.28138 0.50512 0.68950
 H668 H 0.30532 0.48184 0.71171
 O669 O 0.24709 0.05708 0.22017
 O670 O 0.28591 0.04912 0.22206
 O671 O 0.22172 -0.00064 0.19116
 O672 O 0.22320 -0.03675 0.19815
 O673 O 0.19191 0.02691 0.24695
 O674 O 0.20052 0.02474 0.28582
 O675 O 0.27804 -0.05693 0.25240
 O676 O 0.27239 -0.05167 0.21345
 O677 O 0.30700 -0.00196 0.27572
 O678 O 0.29889 0.03859 0.27141
 O679 O 0.25350 -0.02672 0.30605
 O680 O 0.21288 -0.02382 0.29871
 O681 O 0.25226 -0.05588 0.27863
 O682 O 0.21347 -0.04910 0.27746
 O683 O 0.27904 -0.00017 0.30471
 O684 O 0.27754 0.03846 0.29640
 O685 O 0.30643 -0.02828 0.24989
 O686 O 0.29930 -0.02772 0.21213
 O687 O 0.22195 0.05724 0.24712
 O688 O 0.22346 0.05015 0.28470
 O689 O 0.19202 -0.00004 0.22169
 O690 O 0.19997 -0.03809 0.22596
 O691 O 0.24731 0.02601 0.19061
 O692 O 0.28514 0.02533 0.19761
 Zr693 Zr 0.26091 0.02563 0.22179
 O694 O 0.28220 0.00673 0.24066
 Zr695 Zr 0.22332 -0.01304 0.22302
 O696 O 0.24263 -0.03333 0.24264
 Zr697 Zr 0.22342 0.02597 0.26038
 O698 O 0.24339 0.00789 0.28135
 Zr699 Zr 0.27532 -0.02654 0.23667
 O700 O 0.25611 -0.00774 0.21529
 Zr701 Zr 0.27618 0.01288 0.27352
 O702 O 0.25624 0.03348 0.25464
 Zr703 Zr 0.23809 -0.02525 0.27552
 O704 O 0.21648 -0.00713 0.25598
 O705 O 0.22834 0.02000 0.22764
 O706 O 0.27084 -0.02023 0.26948
 C707 C 0.23223 0.06639 0.23152
 C708 C 0.23233 0.01463 0.18163
 C709 C 0.18277 0.01548 0.23202
 C710 C 0.26793 -0.06518 0.26870
 C711 C 0.31572 -0.01780 0.26526
 C712 C 0.26927 -0.01583 0.31430
 H713 H 0.29731 0.01021 0.23675
 H714 H 0.24025 0.01186 0.29655
 H715 H 0.21899 0.02906 0.21826
 H716 H 0.23931 -0.04877 0.23971
 H717 H 0.26637 -0.04500 0.20013
 H718 H 0.23028 -0.04995 0.20391
 H719 H 0.26421 0.03777 0.30523
 H720 H 0.23812 0.05667 0.28459
 H721 H 0.30609 -0.01322 0.21117
 H722 H 0.28474 0.01070 0.19098
 H723 H 0.21637 -0.01210 0.30912
 H724 H 0.19261 0.01084 0.28424
 H725 H 0.28458 0.05713 0.23591
 H726 H 0.30957 0.03483 0.26007
 H727 H 0.19279 -0.03611 0.24017
 H728 H 0.21419 -0.05800 0.26413
 O729 O 0.47469 0.80907 0.25203
 O730 O 0.47879 0.80307 0.21380
 O731 O 0.44162 0.75312 0.27410
 O732 O 0.44587 0.71692 0.27226
 O733 O 0.49690 0.77632 0.30797
 O734 O 0.53514 0.77258 0.30241
 O735 O 0.50148 0.69515 0.21859
 O736 O 0.46392 0.70256 0.22043
 O737 O 0.53150 0.74998 0.19441
 O738 O 0.53084 0.78911 0.20367
 O739 O 0.55558 0.72003 0.24927
 O740 O 0.54603 0.72029 0.28819
 O741 O 0.52633 0.69284 0.24572
 O742 O 0.52124 0.69864 0.28595
 O743 O 0.55818 0.74704 0.22427
 O744 O 0.55215 0.78728 0.22864
 O745 O 0.50494 0.72450 0.19182
 O746 O 0.46501 0.72956 0.19667
 O747 O 0.49995 0.80722 0.27891
 O748 O 0.53805 0.79737 0.27884
 O749 O 0.47025 0.75086 0.30563
 O750 O 0.47263 0.71207 0.29562
 O751 O 0.44394 0.78002 0.24885
 O752 O 0.45407 0.77942 0.21094
 Zr753 Zr 0.47592 0.77827 0.23732
 O754 O 0.49548 0.75948 0.21669
 Zr755 Zr 0.47241 0.73862 0.27377
 O756 O 0.49136 0.71776 0.25442
 Zr757 Zr 0.51191 0.77523 0.27737
 O758 O 0.53289 0.75585 0.25870
 Zr759 Zr 0.48850 0.72646 0.22162
 O760 O 0.46711 0.74536 0.24063
 Zr761 Zr 0.52810 0.76292 0.22574
 O762 O 0.50877 0.78407 0.24455
 Zr763 Zr 0.52418 0.72296 0.26186
 O764 O 0.50506 0.74218 0.28290
 O765 O 0.47935 0.77137 0.27008
 O766 O 0.52115 0.73002 0.22904
 C767 C 0.48530 0.81730 0.26799
 C768 C 0.43366 0.76916 0.26337
 C769 C 0.48090 0.76559 0.31593
 C770 C 0.51644 0.68513 0.22905
 C771 C 0.52146 0.73474 0.18432
 C772 C 0.56570 0.73042 0.23434
 H773 H 0.49310 0.76391 0.20148
 H774 H 0.54802 0.75846 0.26323
 H775 H 0.46997 0.78064 0.27919
 H776 H 0.48697 0.70249 0.25669
 H777 H 0.45090 0.70906 0.22716
 H778 H 0.45037 0.70442 0.26326
 H779 H 0.56159 0.78346 0.24103
 H780 H 0.53806 0.80538 0.26492
 H781 H 0.46926 0.74173 0.18712
 H782 H 0.44632 0.76534 0.21081
 H783 H 0.55559 0.73318 0.28792
 H784 H 0.53345 0.75785 0.30864
 H785 H 0.49341 0.80942 0.21563
 H786 H 0.51827 0.78850 0.19375
 H787 H 0.48578 0.71359 0.30469
 H788 H 0.50913 0.68896 0.28180
 O789 O 0.00095 0.69472 0.72049
 O790 O -0.03655 0.70476 0.71997
 O791 O 0.03145 0.75138 0.69394
 O792 O 0.03280 0.78708 0.70176
 O793 O 0.05734 0.72088 0.75081
 O794 O 0.04739 0.72160 0.78848
 O795 O -0.02499 0.80896 0.75354
 O796 O -0.01848 0.80487 0.71566
 O797 O -0.05663 0.75504 0.77539
 O798 O -0.05101 0.71503 0.77160
 O799 O -0.00265 0.77709 0.80790
 O800 O 0.03706 0.77341 0.80226
 O801 O -0.00049 0.80643 0.78096
 O802 O 0.03931 0.79752 0.77978
 O803 O -0.02954 0.75198 0.80538
 O804 O -0.02909 0.71265 0.79581
 O805 O -0.05419 0.78176 0.75005
 O806 O -0.04475 0.78061 0.71128
 O807 O 0.02606 0.69239 0.74747
 O808 O 0.02190 0.69862 0.78599
 O809 O 0.05986 0.74762 0.72543
 O810 O 0.05367 0.78680 0.73109
 O811 O 0.00493 0.72576 0.69162
 O812 O -0.03367 0.73012 0.69712
 Zr813 Zr -0.01042 0.72686 0.72209
 O814 O -0.03134 0.74601 0.74097
 Zr815 Zr 0.02941 0.76299 0.72600
 O816 O 0.01009 0.78399 0.74486
 Zr817 Zr 0.02535 0.72318 0.76228
 O818 O 0.00611 0.74236 0.78291
 Zr819 Zr -0.02272 0.77885 0.73764
 O820 O -0.00331 0.75991 0.71665
 Zr821 Zr -0.02656 0.73905 0.77397
 O822 O -0.00753 0.71783 0.75492
 Zr823 Zr 0.01314 0.77536 0.77772
 O824 O 0.03443 0.75596 0.75905
 O825 O 0.02215 0.73028 0.72956
 O826 O -0.01957 0.77190 0.77051
 C827 C 0.01535 0.68437 0.73146
 C828 C 0.02092 0.73653 0.68368
 C829 C 0.06769 0.73152 0.73616
 C830 C -0.01548 0.81642 0.77052
 C831 C -0.06433 0.77139 0.76498
 C832 C -0.01909 0.76687 0.81558
 H833 H -0.04647 0.74328 0.73653
 H834 H 0.00863 0.73804 0.79813
 H835 H 0.03136 0.72090 0.72039
 H836 H 0.01416 0.79930 0.74225
 H837 H -0.01104 0.79883 0.70279
 H838 H 0.02509 0.80019 0.70684
 H839 H -0.01678 0.71355 0.80604
 H840 H 0.00746 0.69202 0.78367
 H841 H -0.05452 0.76790 0.71203
 H842 H -0.03118 0.74451 0.69039
 H843 H 0.03402 0.76033 0.81106
 H844 H 0.05504 0.73572 0.78884
 H845 H -0.03745 0.69742 0.73422
 H846 H -0.06003 0.71841 0.75878
 H847 H 0.06087 0.78326 0.74499
 H848 H 0.03766 0.80827 0.76798
 O849 O -0.00260 -0.02624 -0.05807
 O850 O 0.03628 -0.02265 -0.05010
 O851 O -0.02715 -0.05771 -0.00253
 O852 O -0.02556 -0.05226 0.03414
 O853 O -0.05872 -0.00190 -0.02748
 O854 O -0.05133 0.03706 -0.02407
 O855 O 0.02723 0.00287 0.05682
 O856 O 0.02329 -0.03550 0.05022
 O857 O 0.05529 0.02978 0.00284
 O858 O 0.04724 0.02596 -0.03808
 O859 O 0.00120 0.05729 0.02826
 O860 O -0.03930 0.04872 0.02520
 O861 O 0.00053 0.02825 0.05682
 O862 O -0.03799 0.02676 0.04968
 O863 O 0.02621 0.05787 0.00126
 O864 O 0.02557 0.05077 -0.03688
 O865 O 0.05528 0.00354 0.02875
 O866 O 0.04948 -0.03566 0.02545
 O867 O -0.02871 -0.00017 -0.05752
 O868 O -0.02818 0.03758 -0.04925
 O869 O -0.05783 -0.02817 -0.00153
 O870 O -0.04999 -0.02537 0.03652
 O871 O -0.00082 -0.05657 -0.02832
 O872 O 0.03645 -0.04812 -0.02719
 Zr873 Zr 0.01132 -0.02486 -0.02675
 O874 O 0.03194 -0.00596 -0.00716
 Zr875 Zr -0.02650 -0.02639 0.01155
 O876 O -0.00786 -0.00685 0.03259
 Zr877 Zr -0.02760 0.01241 -0.02596
 O878 O -0.00835 0.03338 -0.00705
 Zr879 Zr 0.02505 -0.01144 0.02580
 O880 O 0.00656 -0.03278 0.00623
 Zr881 Zr 0.02467 0.02684 -0.01227
 O882 O 0.00540 0.00806 -0.03357
 Zr883 Zr -0.01337 0.02625 0.02585
 O884 O -0.03435 0.00663 0.00693
 O885 O -0.02150 -0.02035 -0.02114
 O886 O 0.01951 0.02148 0.02065
 C887 C -0.01800 -0.01531 -0.06698
 C888 C -0.01596 -0.06632 -0.01793
 C889 C -0.06744 -0.01750 -0.01662
 C890 C 0.01636 0.01822 0.06586
 C891 C 0.06399 0.01967 0.01891
 C892 C 0.01628 0.06662 0.01724
 H893 H 0.04720 -0.00915 -0.01071
 H894 H -0.01202 0.04860 -0.01053
 H895 H -0.03059 -0.02972 -0.03049
 H896 H -0.01113 -0.01050 0.04785
 H897 H 0.01732 -0.04874 0.04332
 H898 H -0.01888 -0.04669 0.04764
 H899 H 0.01140 0.05823 -0.03687
 H900 H -0.01380 0.03756 -0.05631
 H901 H 0.05867 -0.03337 0.01255
 H902 H 0.03705 -0.05440 -0.01242
 H903 H -0.03614 0.05966 0.01390
 H904 H -0.05897 0.03498 -0.01012
 H905 H 0.03399 -0.00887 -0.05804
 H906 H 0.05886 0.01563 -0.03419
 H907 H -0.05752 -0.01124 0.03524
 H908 H -0.03732 0.01283 0.05762
 O909 O 0.00008 0.55813 0.52864
 O910 O -0.03724 0.55031 0.52833
 O911 O 0.02711 0.50078 0.55751
 O912 O 0.02923 0.46561 0.55068
 O913 O 0.05611 0.52926 0.50029
 O914 O 0.04783 0.52855 0.46312
 O915 O -0.02975 0.44425 0.49923
 O916 O -0.02649 0.45003 0.53615
 O917 O -0.05796 0.49993 0.47299
 O918 O -0.05085 0.53760 0.47285
 O919 O -0.00275 0.47272 0.44369
 O920 O 0.03499 0.47283 0.45044
 O921 O -0.00460 0.44407 0.47236
 O922 O 0.03661 0.45212 0.47625
 O923 O -0.02961 0.49789 0.44381
 O924 O -0.02526 0.53914 0.45203
 O925 O -0.05788 0.47291 0.49810
 O926 O -0.04991 0.47701 0.53844
 O927 O 0.02601 0.55887 0.50246
 O928 O 0.02191 0.55092 0.46308
 O929 O 0.05697 0.50347 0.52669
 O930 O 0.04841 0.46329 0.52177
 O931 O 0.00193 0.52773 0.55824
 O932 O -0.03738 0.52438 0.55065
 Zr933 Zr -0.01256 0.52659 0.52715
 O934 O -0.03359 0.50818 0.50757
 Zr935 Zr 0.02590 0.48890 0.52573
 O936 O 0.00580 0.46799 0.50758
 Zr937 Zr 0.02452 0.52764 0.48816
 O938 O 0.00587 0.50780 0.46750
 Zr939 Zr -0.02706 0.47519 0.51284
 O940 O -0.00702 0.49355 0.53385
 Zr941 Zr -0.02686 0.51317 0.47448
 O942 O -0.00828 0.53442 0.49409
 Zr943 Zr 0.01084 0.47472 0.47465
 O944 O 0.03230 0.49458 0.49276
 O945 O 0.02007 0.52171 0.52097
 O946 O -0.02196 0.48018 0.47985
 C947 C 0.01523 0.56765 0.51805
 C948 C 0.01706 0.51633 0.56703
 C949 C 0.06568 0.51889 0.51557
 C950 C -0.02008 0.43522 0.48322
 C951 C -0.06693 0.48402 0.48292
 C952 C -0.01876 0.48250 0.43478
 H953 H -0.04873 0.51197 0.51107
 H954 H 0.00937 0.51118 0.45223
 H955 H 0.02937 0.53094 0.53025
 H956 H 0.00896 0.45268 0.51123
 H957 H -0.01819 0.45563 0.54870
 H958 H 0.01803 0.45443 0.54811
 H959 H -0.01533 0.53487 0.44021
 H960 H 0.00875 0.55957 0.46609
 H961 H -0.06094 0.48800 0.53464
 H962 H -0.03476 0.51085 0.55892
 H963 H 0.03592 0.48729 0.44353
 H964 H 0.05449 0.51394 0.46266
 H965 H -0.03764 0.55716 0.51381
 H966 H -0.05731 0.53884 0.48746
 H967 H 0.05799 0.46733 0.50956
 H968 H 0.03229 0.44028 0.48619
 O969 O 0.50331 0.05734 0.52709
 O970 O 0.46442 0.04906 0.52530
 O971 O 0.52954 0.00087 0.55650
 O972 O 0.52705 -0.03564 0.55052
 O973 O 0.55866 0.02688 0.50021
 O974 O 0.54977 0.02474 0.46156
 O975 O 0.47292 -0.05727 0.49646
 O976 O 0.47823 -0.05089 0.53555
 O977 O 0.44364 -0.00255 0.47207
 O978 O 0.45145 0.03795 0.47609
 O979 O 0.49709 -0.02743 0.44222
 O980 O 0.53765 -0.02439 0.44942
 O981 O 0.49888 -0.05659 0.47039
 O982 O 0.53737 -0.04918 0.47099
 O983 O 0.47178 -0.00069 0.44316
 O984 O 0.47296 0.03791 0.45130
 O985 O 0.44416 -0.02858 0.49818
 O986 O 0.45048 -0.02775 0.53522
 O987 O 0.52868 0.05729 0.50034
 O988 O 0.52668 0.04994 0.46263
 O989 O 0.55869 0.00028 0.52587
 O990 O 0.55042 -0.03782 0.52270
 O991 O 0.50380 0.02729 0.55676
 O992 O 0.46564 0.02567 0.55030
 Zr993 Zr 0.48962 0.02586 0.52587
 O994 O 0.46836 0.00665 0.50723
 Zr995 Zr 0.52727 -0.01258 0.52507
 O996 O 0.50801 -0.03322 0.50572
 Zr997 Zr 0.52703 0.02594 0.48714
 O998 O 0.50713 0.00745 0.46647
 Zr999 Zr 0.47527 -0.02653 0.51154
 O1000 O 0.49444 -0.00738 0.53279
 Zr1001 Zr 0.47436 0.01244 0.47430
 O1002 O 0.49422 0.03339 0.49292
 Zr1003 Zr 0.51252 -0.02559 0.47273
 O1004 O 0.53407 -0.00708 0.49200
 O1005 O 0.52218 0.02033 0.51990
 O1006 O 0.47973 -0.02066 0.47864
 C1007 C 0.51835 0.06652 0.51587
 C1008 C 0.51939 0.01670 0.56560
 C1009 C 0.56792 0.01556 0.51513
 C1010 C 0.48343 -0.06594 0.48066
 C1011 C 0.43491 -0.01830 0.48264
 C1012 C 0.48154 -0.01643 0.43374
 H1013 H 0.45322 0.01004 0.51114
 H1014 H 0.51027 0.01128 0.45123
 H1015 H 0.53171 0.02955 0.52894
 H1016 H 0.51143 -0.04857 0.50891
 H1017 H 0.48356 -0.04366 0.54889
 H1018 H 0.51986 -0.04891 0.54502
 H1019 H 0.48640 0.03734 0.44262
 H1020 H 0.51217 0.05674 0.46315
 H1021 H 0.44639 -0.01262 0.53861
 H1022 H 0.46704 0.01164 0.55802
 H1023 H 0.53417 -0.01276 0.43893
 H1024 H 0.55754 0.01076 0.46300
 H1025 H 0.46579 0.05704 0.51143
 H1026 H 0.44088 0.03430 0.48757
 H1027 H 0.55770 -0.03611 0.50852
 H1028 H 0.53687 -0.05780 0.48451
 O1029 O 0.44081 0.49617 -0.02565
 O1030 O 0.44679 0.53453 -0.02202
 O1031 O 0.49610 0.47385 -0.05928
 O1032 O 0.53223 0.47581 -0.05544
 O1033 O 0.47379 0.44042 -0.00328
 O1034 O 0.47795 0.44637 0.03488
 O1035 O 0.55453 0.53033 -0.00010
 O1036 O 0.54690 0.52794 -0.03771
 O1037 O 0.50032 0.55448 0.03015
 O1038 O 0.46142 0.54521 0.03008
 O1039 O 0.53058 0.49976 0.05434
 O1040 O 0.53021 0.46068 0.04498
 O1041 O 0.55727 0.50318 0.02472
 O1042 O 0.55151 0.46283 0.01995
 O1043 O 0.50367 0.52477 0.05706
 O1044 O 0.46339 0.52022 0.05140
 O1045 O 0.52540 0.55694 0.00330
 O1046 O 0.51979 0.55167 -0.03667
 O1047 O 0.44297 0.46944 -0.00021
 O1048 O 0.45325 0.46999 0.03783
 O1049 O 0.49884 0.44253 -0.03025
 O1050 O 0.53752 0.45276 -0.02851
 O1051 O 0.46931 0.49913 -0.05687
 O1052 O 0.47005 0.53720 -0.04701
 Zr1053 Zr 0.47150 0.51098 -0.02493
 O1054 O 0.49043 0.53185 -0.00566
 Zr1055 Zr 0.51099 0.47452 -0.02859
 O1056 O 0.53200 0.49412 -0.00997
 Zr1057 Zr 0.47500 0.47122 0.01141
 O1058 O 0.49459 0.49010 0.03207
 Zr1059 Zr 0.52326 0.52694 -0.01295
 O1060 O 0.50419 0.50766 -0.03406
 Zr1061 Zr 0.48743 0.52306 0.02711
 O1062 O 0.46613 0.50404 0.00809
 Zr1063 Zr 0.52726 0.48692 0.02300
 O1064 O 0.50786 0.46566 0.00421
 O1065 O 0.47843 0.47820 -0.02131
 O1066 O 0.52013 0.51974 0.01982
 C1067 C 0.43274 0.48025 -0.01484
 C1068 C 0.48001 0.48450 -0.06718
 C1069 C 0.48436 0.43228 -0.01927
 C1070 C 0.56470 0.51999 0.01484
 C1071 C 0.51538 0.56454 0.01990
 C1072 C 0.52033 0.51476 0.06450
 H1073 H 0.48596 0.54705 -0.00811
 H1074 H 0.49218 0.48568 0.04728
 H1075 H 0.46909 0.46896 -0.03053
 H1076 H 0.54718 0.49186 -0.01450
 H1077 H 0.54028 0.52115 -0.05069
 H1078 H 0.54469 0.48499 -0.05119
 H1079 H 0.46744 0.50802 0.06101
 H1080 H 0.44521 0.48388 0.03774
 H1081 H 0.50779 0.56133 -0.03227
 H1082 H 0.48398 0.53726 -0.05494
 H1083 H 0.51756 0.46108 0.05478
 H1084 H 0.49262 0.44016 0.03311
 H1085 H 0.44066 0.53284 -0.00729
 H1086 H 0.46168 0.55487 0.01727
 H1087 H 0.53623 0.44378 -0.01526
 H1088 H 0.56100 0.46693 0.00771
 O1089 O 0.69116 0.22490 0.50402
 O1090 O 0.69758 0.22749 0.46585
 O1091 O 0.74690 0.19203 0.52760
 O1092 O 0.78289 0.19642 0.52624
 O1093 O 0.72367 0.24885 0.55978
 O1094 O 0.72724 0.28686 0.55305
 O1095 O 0.80482 0.25094 0.47052
 O1096 O 0.79770 0.21324 0.47376
 O1097 O 0.75035 0.27992 0.44544
 O1098 O 0.71145 0.27985 0.45450
 O1099 O 0.78022 0.30571 0.49970
 O1100 O 0.77966 0.29719 0.53899
 O1101 O 0.80716 0.27638 0.49714
 O1102 O 0.80125 0.27229 0.53752
 O1103 O 0.75336 0.30776 0.47456
 O1104 O 0.71319 0.30179 0.47890
 O1105 O 0.77576 0.25328 0.44372
 O1106 O 0.77061 0.21334 0.44992
 O1107 O 0.69288 0.25078 0.53036
 O1108 O 0.70280 0.28908 0.52915
 O1109 O 0.74878 0.22183 0.55840
 O1110 O 0.78765 0.22402 0.54855
 O1111 O 0.71963 0.19408 0.50282
 O1112 O 0.72132 0.20265 0.46425
 Zr1113 Zr 0.72202 0.22555 0.48979
 O1114 O 0.74084 0.24463 0.46873
 Zr1115 Zr 0.76127 0.22304 0.52660
 O1116 O 0.78223 0.24149 0.50680
 Zr1117 Zr 0.72482 0.26282 0.52871
 O1118 O 0.74436 0.28332 0.50963
 Zr1119 Zr 0.77371 0.23773 0.47404
 O1120 O 0.75476 0.21678 0.49358
 Zr1121 Zr 0.73744 0.27759 0.47680
 O1122 O 0.71621 0.25870 0.49595
 Zr1123 Zr 0.77710 0.27461 0.51323
 O1124 O 0.75773 0.25606 0.53468
 O1125 O 0.72867 0.22996 0.52248
 O1126 O 0.77018 0.27068 0.48049
 C1127 C 0.68285 0.23591 0.51963
 C1128 C 0.73042 0.18405 0.51758
 C1129 C 0.73426 0.23305 0.56831
 C1130 C 0.81476 0.26627 0.48058
 C1131 C 0.76550 0.26954 0.43568
 C1132 C 0.76997 0.31552 0.48445
 H1133 H 0.73646 0.24179 0.45358
 H1134 H 0.74179 0.29862 0.51371
 H1135 H 0.71932 0.22091 0.53185
 H1136 H 0.79744 0.23716 0.50925
 H1137 H 0.79124 0.20033 0.48082
 H1138 H 0.79528 0.20054 0.51697
 H1139 H 0.71699 0.31162 0.49101
 H1140 H 0.69478 0.28855 0.51525
 H1141 H 0.75847 0.21727 0.44023
 H1142 H 0.73511 0.19451 0.46502
 H1143 H 0.76704 0.30702 0.53815
 H1144 H 0.74199 0.28563 0.55922
 H1145 H 0.69128 0.24222 0.46701
 H1146 H 0.71191 0.26686 0.44509
 H1147 H 0.78599 0.23737 0.55733
 H1148 H 0.81094 0.26010 0.53370
 O1149 O 0.75425 0.77633 -0.05958
 O1150 O 0.71591 0.77278 -0.05409
 O1151 O 0.77612 0.80895 -0.00316
 O1152 O 0.77390 0.80442 0.03282
 O1153 O 0.80917 0.75300 -0.02636
 O1154 O 0.80299 0.71472 -0.02294
 O1155 O 0.71911 0.74906 0.05364
 O1156 O 0.72175 0.78686 0.04653
 O1157 O 0.69517 0.71964 -0.00133
 O1158 O 0.70445 0.72017 -0.04005
 O1159 O 0.74972 0.69457 0.02872
 O1160 O 0.78843 0.70393 0.02922
 O1161 O 0.74601 0.72400 0.05619
 O1162 O 0.78629 0.72865 0.05082
 O1163 O 0.72463 0.69250 0.00180
 O1164 O 0.72956 0.69896 -0.03853
 O1165 O 0.69276 0.74616 0.02421
 O1166 O 0.69817 0.78620 0.01928
 O1167 O 0.78065 0.75063 -0.05751
 O1168 O 0.77959 0.71235 -0.04795
 O1169 O 0.80707 0.77966 -0.00086
 O1170 O 0.79666 0.77721 0.03779
 O1171 O 0.75110 0.80716 -0.03025
 O1172 O 0.71306 0.79733 -0.03036
 Zr1173 Zr 0.73911 0.77513 -0.02898
 O1174 O 0.71805 0.75561 -0.01052
 Zr1175 Zr 0.77515 0.77792 0.01104
 O1176 O 0.75536 0.75904 0.03156
 Zr1177 Zr 0.77841 0.73844 -0.02570
 O1178 O 0.75937 0.71753 -0.00660
 Zr1179 Zr 0.72274 0.76234 0.02254
 O1180 O 0.74220 0.78368 0.00397
 Zr1181 Zr 0.72658 0.72277 -0.01395
 O1182 O 0.74579 0.74208 -0.03482
 Zr1183 Zr 0.76240 0.72608 0.02629
 O1184 O 0.78382 0.74508 0.00737
 O1185 O 0.77167 0.77121 -0.02175
 O1186 O 0.72973 0.72951 0.01895
 C1187 C 0.77017 0.76556 -0.06763
 C1188 C 0.76557 0.81727 -0.01911
 C1189 C 0.81726 0.76886 -0.01550
 C1190 C 0.72930 0.73391 0.06370
 C1191 C 0.68515 0.72970 0.01389
 C1192 C 0.73478 0.68459 0.01819
 H1193 H 0.70294 0.75821 -0.01508
 H1194 H 0.76372 0.70233 -0.00926
 H1195 H 0.78099 0.78059 -0.03082
 H1196 H 0.75753 0.76333 0.04686
 H1197 H 0.72861 0.79991 0.04012
 H1198 H 0.76463 0.80001 0.04512
 H1199 H 0.74144 0.68902 -0.03439
 H1200 H 0.76584 0.71273 -0.05621
 H1201 H 0.68863 0.78205 0.00708
 H1202 H 0.71283 0.80495 -0.01623
 H1203 H 0.78841 0.69464 0.01614
 H1204 H 0.80928 0.71638 -0.00826
 H1205 H 0.71750 0.75809 -0.06041
 H1206 H 0.69530 0.73334 -0.04001
 H1207 H 0.80564 0.76399 0.03623
 H1208 H 0.78220 0.74077 0.06051
 O1209 O 1.00266 0.19110 0.22435
 O1210 O 0.96465 0.19746 0.22773
 O1211 O 1.02617 0.24732 0.19245
 O1212 O 1.02481 0.28334 0.19723
 O1213 O 1.05861 0.22281 0.24818
 O1214 O 1.05243 0.22592 0.28632
 O1215 O 0.97009 0.30480 0.25264
 O1216 O 0.97277 0.29822 0.21484
 O1217 O 0.94501 0.25011 0.28117
 O1218 O 0.95365 0.21113 0.28056
 O1219 O 1.00027 0.27896 0.30678
 O1220 O 1.03889 0.27870 0.29763
 O1221 O 0.99709 0.30670 0.27765
 O1222 O 1.03739 0.30041 0.27289
 O1223 O 0.97447 0.25266 0.30849
 O1224 O 0.97864 0.21217 0.30193
 O1225 O 0.94314 0.27596 0.25492
 O1226 O 0.94871 0.27127 0.21493
 O1227 O 1.02904 0.19221 0.25015
 O1228 O 1.02841 0.20156 0.28847
 O1229 O 1.05713 0.24875 0.22192
 O1230 O 1.04742 0.28769 0.22458
 O1231 O 1.00050 0.22078 0.19391
 O1232 O 0.96237 0.22166 0.20357
 Zr1233 Zr 0.98844 0.22209 0.22580
 O1234 O 0.96777 0.24080 0.24543
 Zr1235 Zr 1.02542 0.26130 0.22354
 O1236 O 1.00601 0.28213 0.24246
 Zr1237 Zr 1.02779 0.22406 0.26258
 O1238 O 1.00916 0.24348 0.28357
 Zr1239 Zr 0.97319 0.27383 0.23898
 O1240 O 0.99232 0.25506 0.21757
 Zr1241 Zr 0.97622 0.23692 0.27821
 O1242 O 0.99495 0.21577 0.25877
 Zr1243 Zr 1.01291 0.27643 0.27534
 O1244 O 1.03394 0.25713 0.25631
 O1245 O 1.02119 0.22848 0.22989
 O1246 O 0.98008 0.26983 0.27174
 C1247 C 1.01822 0.18246 0.23518
 C1248 C 1.01528 0.23166 0.18398
 C1249 C 1.06704 0.23380 0.23261
 C1250 C 0.98041 0.31451 0.26790
 C1251 C 0.93524 0.26555 0.27116
 C1252 C 0.98497 0.26879 0.31654
 H1253 H 0.95257 0.23656 0.24274
 H1254 H 1.01344 0.24062 0.29875
 H1255 H 1.03033 0.21924 0.22051
 H1256 H 1.00850 0.29744 0.23832
 H1257 H 0.97952 0.29184 0.20176
 H1258 H 1.01563 0.29574 0.20160
 H1259 H 0.99054 0.21606 0.31195
 H1260 H 1.01442 0.19371 0.28806
 H1261 H 0.93891 0.25921 0.21891
 H1262 H 0.96273 0.23575 0.19583
 H1263 H 1.03873 0.26541 0.30663
 H1264 H 1.05896 0.24056 0.28497
 H1265 H 0.96593 0.19105 0.24239
 H1266 H 0.94444 0.21151 0.26745
 H1267 H 1.05641 0.28578 0.23774
 H1268 H 1.03331 0.31053 0.26112
 O1269 O 0.74834 1.05808 0.72242
 O1270 O 0.78681 1.04960 0.72446
 O1271 O 0.72161 1.00204 0.69253
 O1272 O 0.72245 0.96568 0.69856
 O1273 O 0.69227 1.02856 0.74922
 O1274 O 0.70090 1.02608 0.78758
 O1275 O 0.77713 0.94320 0.75261
 O1276 O 0.77215 0.94901 0.71425
 O1277 O 0.80663 0.99717 0.77771
 O1278 O 0.79952 1.03769 0.77421
 O1279 O 0.75249 0.97262 0.80695
 O1280 O 0.71220 0.97602 0.79947
 O1281 O 0.75089 0.94381 0.77842
 O1282 O 0.71223 0.95164 0.77741
 O1283 O 0.77822 0.99902 0.80642
 O1284 O 0.77755 1.03789 0.79850
 O1285 O 0.80585 0.97129 0.75144
 O1286 O 0.79858 0.97343 0.71276
 O1287 O 0.72296 1.05831 0.74916
 O1288 O 0.72474 1.05062 0.78696
 O1289 O 0.69190 1.00232 0.72323
 O1290 O 0.69937 0.96388 0.72636
 O1291 O 0.74828 1.02760 0.69237
 O1292 O 0.78602 1.02590 0.69982
 Zr1293 Zr 0.76151 1.02645 0.72370
 O1294 O 0.78236 1.00695 0.74245
 Zr1295 Zr 0.72304 0.98870 0.72405
 O1296 O 0.74203 0.96764 0.74322
 Zr1297 Zr 0.72387 1.02690 0.76220
 O1298 O 0.74323 1.00788 0.78287
 Zr1299 Zr 0.77493 0.97394 0.73769
 O1300 O 0.75601 0.99336 0.71658
 Zr1301 Zr 0.77613 1.01253 0.77538
 O1302 O 0.75683 1.03384 0.75667
 Zr1303 Zr 0.73743 0.97493 0.77627
 O1304 O 0.71627 0.99402 0.75713
 O1305 O 0.72876 1.02148 0.72935
 O1306 O 0.77032 0.97957 0.77062
 C1307 C 0.73353 1.06745 0.73373
 C1308 C 0.73281 1.01704 0.68323
 C1309 C 0.68283 1.01755 0.73420
 C1310 C 0.76648 0.93453 0.76830
 C1311 C 0.81515 0.98132 0.76715
 C1312 C 0.76811 0.98337 0.81567
 H1313 H 0.79756 1.01028 0.73876
 H1314 H 0.74002 1.01160 0.79811
 H1315 H 0.71953 1.03083 0.72014
 H1316 H 0.73846 0.95235 0.73987
 H1317 H 0.76573 0.95569 0.70113
 H1318 H 0.72957 0.95232 0.70388
 H1319 H 0.76424 1.03712 0.80736
 H1320 H 0.73929 1.05735 0.78635
 H1321 H 0.80740 0.98679 0.71392
 H1322 H 0.78561 1.01123 0.69326
 H1323 H 0.71552 0.98781 0.80985
 H1324 H 0.69321 1.01202 0.78635
 H1325 H 0.78578 1.05709 0.73862
 H1326 H 0.80993 1.03423 0.76254
 H1327 H 0.69202 0.96578 0.74049
 H1328 H 0.71296 0.94297 0.76393
 O1329 O 0.69346 0.52843 0.24919
 O1330 O 0.70171 0.52802 0.28641
 O1331 O 0.75028 0.55753 0.22150
 O1332 O 0.78531 0.55075 0.21887
 O1333 O 0.72144 0.50044 0.19251
 O1334 O 0.72242 0.46308 0.20056
 O1335 O 0.80742 0.49934 0.27706
 O1336 O 0.80135 0.53620 0.27477
 O1337 O 0.75237 0.47235 0.30619
 O1338 O 0.71459 0.47241 0.29958
 O1339 O 0.77896 0.44364 0.25064
 O1340 O 0.77798 0.45022 0.21284
 O1341 O 0.80733 0.47249 0.25175
 O1342 O 0.79846 0.47630 0.21072
 O1343 O 0.75401 0.44356 0.27767
 O1344 O 0.71277 0.45163 0.27384
 O1345 O 0.77943 0.49737 0.30588
 O1346 O 0.77469 0.53807 0.29839
 O1347 O 0.69240 0.50231 0.22307
 O1348 O 0.70040 0.46287 0.22678
 O1349 O 0.74714 0.52692 0.19149
 O1350 O 0.78736 0.52192 0.19952
 O1351 O 0.72368 0.55812 0.24701
 O1352 O 0.72763 0.55039 0.28636
 Zr1353 Zr 0.72506 0.52695 0.26142
 O1354 O 0.74367 0.50728 0.28219
 Zr1355 Zr 0.76211 0.52574 0.22240
 O1356 O 0.78319 0.50755 0.24219
 Zr1357 Zr 0.72355 0.48805 0.22405
 O1358 O 0.74357 0.46731 0.24238
 Zr1359 Zr 0.77644 0.51263 0.27524
 O1360 O 0.75791 0.53373 0.25547
 Zr1361 Zr 0.73865 0.47418 0.27527
 O1362 O 0.71722 0.49385 0.25702
 Zr1363 Zr 0.77646 0.47457 0.23698
 O1364 O 0.75639 0.49275 0.21583
 O1365 O 0.72950 0.52089 0.22865
 O1366 O 0.77145 0.47964 0.26993
 C1367 C 0.68380 0.51789 0.23404
 C1368 C 0.73483 0.56696 0.23170
 C1369 C 0.73160 0.51586 0.18291
 C1370 C 0.81637 0.48346 0.26707
 C1371 C 0.76853 0.48203 0.31498
 C1372 C 0.76944 0.43471 0.26679
 H1373 H 0.74011 0.51068 0.29743
 H1374 H 0.74019 0.45201 0.23887
 H1375 H 0.72017 0.53021 0.21952
 H1376 H 0.79839 0.51130 0.23880
 H1377 H 0.79568 0.54873 0.26647
 H1378 H 0.79641 0.54832 0.23016
 H1379 H 0.71699 0.43976 0.26390
 H1380 H 0.69198 0.46577 0.24012
 H1381 H 0.76446 0.53374 0.30995
 H1382 H 0.74103 0.55875 0.28355
 H1383 H 0.76352 0.44337 0.21204
 H1384 H 0.73688 0.46277 0.19365
 H1385 H 0.69503 0.51341 0.28696
 H1386 H 0.71361 0.48694 0.30633
 H1387 H 0.78313 0.50986 0.18977
 H1388 H 0.81021 0.48646 0.21477
 O1389 O 0.55626 0.21936 0.74808
 O1390 O 0.54821 0.22120 0.78672
 O1391 O 0.49881 0.19027 0.72233
 O1392 O 0.46298 0.19717 0.72331
 O1393 O 0.52642 0.24649 0.69257
 O1394 O 0.52456 0.28510 0.70107
 O1395 O 0.44247 0.25140 0.77855
 O1396 O 0.44770 0.21264 0.77312
 O1397 O 0.49731 0.27515 0.80750
 O1398 O 0.53739 0.27140 0.79972
 O1399 O 0.47236 0.30524 0.75371
 O1400 O 0.47522 0.29802 0.71328
 O1401 O 0.44326 0.27729 0.75231
 O1402 O 0.45061 0.27627 0.71341
 O1403 O 0.49880 0.30418 0.77934
 O1404 O 0.53764 0.29577 0.77769
 O1405 O 0.47108 0.24924 0.80694
 O1406 O 0.47187 0.21107 0.79973
 O1407 O 0.55657 0.24632 0.72283
 O1408 O 0.54940 0.28416 0.72454
 O1409 O 0.49964 0.22106 0.69247
 O1410 O 0.46155 0.22513 0.70039
 O1411 O 0.52526 0.18974 0.74808
 O1412 O 0.52421 0.19692 0.78607
 Zr1413 Zr 0.52483 0.22100 0.76166
 O1414 O 0.50595 0.24001 0.78281
 Zr1415 Zr 0.48652 0.22218 0.72378
 O1416 O 0.46614 0.24168 0.74306
 Zr1417 Zr 0.52538 0.25969 0.72412
 O1418 O 0.50706 0.28067 0.74382
 Zr1419 Zr 0.47283 0.23585 0.77586
 O1420 O 0.49161 0.21447 0.75667
 Zr1421 Zr 0.51199 0.27296 0.77667
 O1422 O 0.53267 0.25394 0.75701
 Zr1423 Zr 0.47404 0.27464 0.73843
 O1424 O 0.49241 0.25521 0.71696
 O1425 O 0.51943 0.22686 0.72899
 O1426 O 0.47898 0.26876 0.77127
 C1427 C 0.56564 0.23072 0.73325
 C1428 C 0.51394 0.18072 0.73308
 C1429 C 0.51505 0.23161 0.68330
 C1430 C 0.43398 0.26732 0.76802
 C1431 C 0.48155 0.26465 0.81622
 C1432 C 0.48317 0.31366 0.76944
 H1433 H 0.50942 0.23616 0.79797
 H1434 H 0.51097 0.29590 0.74061
 H1435 H 0.52849 0.21748 0.71966
 H1436 H 0.45079 0.23862 0.73968
 H1437 H 0.45422 0.19937 0.76684
 H1438 H 0.44989 0.20271 0.73070
 H1439 H 0.53647 0.30505 0.76465
 H1440 H 0.55603 0.28374 0.73916
 H1441 H 0.48599 0.21087 0.80726
 H1442 H 0.50962 0.19025 0.78552
 H1443 H 0.48719 0.30821 0.71651
 H1444 H 0.51046 0.28398 0.69352
 H1445 H 0.55592 0.23526 0.78568
 H1446 H 0.53416 0.25941 0.80989
 H1447 H 0.46369 0.23924 0.69299
 H1448 H 0.44157 0.26303 0.71433
 O1449 O 0.27669 0.80891 0.49615
 O1450 O 0.27250 0.80324 0.53449
 O1451 O 0.30936 0.75264 0.47456
 O1452 O 0.30484 0.71649 0.47654
 O1453 O 0.25408 0.77589 0.44063
 O1454 O 0.21577 0.77230 0.44636
 O1455 O 0.24912 0.69536 0.53063
 O1456 O 0.28682 0.70248 0.52834
 O1457 O 0.21975 0.75040 0.55450
 O1458 O 0.22052 0.78945 0.54495
 O1459 O 0.19508 0.72044 0.49956
 O1460 O 0.20470 0.72012 0.46084
 O1461 O 0.22441 0.69290 0.50339
 O1462 O 0.22930 0.69848 0.46313
 O1463 O 0.19289 0.74733 0.52472
 O1464 O 0.19906 0.78748 0.52012
 O1465 O 0.24619 0.72486 0.55714
 O1466 O 0.28604 0.72961 0.55205
 O1467 O 0.25132 0.80696 0.46939
 O1468 O 0.21319 0.79735 0.46973
 O1469 O 0.28066 0.75040 0.44304
 O1470 O 0.27799 0.71168 0.45323
 O1471 O 0.30724 0.77966 0.49969
 O1472 O 0.29712 0.77959 0.53753
 Zr1473 Zr 0.27524 0.77823 0.51118
 O1474 O 0.25566 0.75961 0.53199
 Zr1475 Zr 0.27845 0.73832 0.47496
 O1476 O 0.25941 0.71765 0.49448
 Zr1477 Zr 0.23915 0.77506 0.47127
 O1478 O 0.21812 0.75588 0.49012
 Zr1479 Zr 0.26242 0.72653 0.52722
 O1480 O 0.28385 0.74526 0.50805
 Zr1481 Zr 0.22304 0.76310 0.52305
 O1482 O 0.24240 0.78408 0.50403
 Zr1483 Zr 0.22660 0.72294 0.48711
 O1484 O 0.24579 0.74195 0.46590
 O1485 O 0.27171 0.77112 0.47848
 O1486 O 0.22975 0.73014 0.51990
 C1487 C 0.26612 0.81705 0.48012
 C1488 C 0.31746 0.76864 0.48526
 C1489 C 0.27004 0.76511 0.43270
 C1490 C 0.23414 0.68531 0.52020
 C1491 C 0.22980 0.73525 0.56467
 C1492 C 0.18507 0.73095 0.51447
 H1493 H 0.25814 0.76412 0.54715
 H1494 H 0.20300 0.75855 0.48561
 H1495 H 0.28116 0.78027 0.46930
 H1496 H 0.26368 0.70234 0.49230
 H1497 H 0.29988 0.70892 0.52160
 H1498 H 0.30024 0.70401 0.48553
 H1499 H 0.18964 0.78368 0.50771
 H1500 H 0.21323 0.80537 0.48364
 H1501 H 0.28202 0.74197 0.56144
 H1502 H 0.30472 0.76545 0.53785
 H1503 H 0.19548 0.73324 0.46078
 H1504 H 0.21755 0.75764 0.44002
 H1505 H 0.25796 0.80970 0.53254
 H1506 H 0.23319 0.78894 0.55474
 H1507 H 0.26483 0.71322 0.44419
 H1508 H 0.24144 0.68885 0.46723
 O1509 O 0.30720 0.25181 0.97274
 O1510 O 0.29979 0.21282 0.97639
 O1511 O 0.25075 0.27558 0.94183
 O1512 O 0.21440 0.27367 0.94767
 O1513 O 0.27627 0.30764 0.99706
 O1514 O 0.27329 0.30056 1.03603
 O1515 O 0.19313 0.22044 1.00330
 O1516 O 0.19922 0.22446 0.96471
 O1517 O 0.24804 0.19300 1.02927
 O1518 O 0.28820 0.20170 1.02594
 O1519 O 0.22171 0.24770 1.05699
 O1520 O 0.22413 0.28798 1.04818
 O1521 O 0.19298 0.24766 1.02818
 O1522 O 0.19979 0.28642 1.02625
 O1523 O 0.24868 0.22262 1.05734
 O1524 O 0.28715 0.22400 1.04995
 O1525 O 0.22233 0.19231 1.00289
 O1526 O 0.22381 0.19832 0.96451
 O1527 O 0.30657 0.27801 0.99878
 O1528 O 0.29862 0.27748 1.03654
 O1529 O 0.25012 0.30636 0.97106
 O1530 O 0.21205 0.29812 0.97464
 O1531 O 0.27702 0.24968 0.94275
 O1532 O 0.27652 0.21211 0.95135
 Zr1533 Zr 0.27606 0.23747 0.97444
 O1534 O 0.25698 0.21668 0.99363
 Zr1535 Zr 0.23727 0.27487 0.97324
 O1536 O 0.21670 0.25596 0.99296
 Zr1537 Zr 0.27517 0.27657 1.01157
 O1538 O 0.25668 0.25723 1.03275
 Zr1539 Zr 0.22388 0.22301 0.98849
 O1540 O 0.24295 0.24173 0.96690
 Zr1541 Zr 0.26223 0.22413 1.02636
 O1542 O 0.28310 0.24355 1.00726
 Zr1543 Zr 0.22372 0.26185 1.02586
 O1544 O 0.24221 0.28300 1.00609
 O1545 O 0.27006 0.27028 0.97893
 O1546 O 0.22921 0.22881 1.02131
 C1547 C 0.31604 0.26738 0.98359
 C1548 C 0.26619 0.26461 0.93309
 C1549 C 0.26533 0.31612 0.98142
 C1550 C 0.18407 0.23151 1.01849
 C1551 C 0.23271 0.18360 1.01866
 C1552 C 0.23282 0.23264 1.06622
 H1553 H 0.26074 0.20144 0.99039
 H1554 H 0.26024 0.26106 1.04790
 H1555 H 0.27921 0.27941 0.96944
 H1556 H 0.20138 0.25902 0.98943
 H1557 H 0.20590 0.23053 0.95143
 H1558 H 0.20108 0.26681 0.95335
 H1559 H 0.28640 0.23793 1.05790
 H1560 H 0.30572 0.26308 1.03659
 H1561 H 0.23789 0.19074 0.96511
 H1562 H 0.26201 0.21192 0.94451
 H1563 H 0.23590 0.28532 1.05873
 H1564 H 0.25926 0.30808 1.03402
 H1565 H 0.30758 0.21504 0.99025
 H1566 H 0.28520 0.19079 1.01455
 H1567 H 0.21375 0.30605 0.98850
 H1568 H 0.19155 0.28536 1.01254
 C1569 C 0.28678 0.37562 0.79344
 C1570 C 0.26911 0.38632 0.80763
 C1571 C 0.26180 0.40562 0.79984
 C1572 C 0.27284 0.41289 0.77871
 C1573 C 0.29713 0.41265 0.78409
 C1574 C 0.30438 0.39330 0.79184
 C1575 C 0.27677 0.37452 0.77059
 C1576 C 0.26951 0.39394 0.76292
 H1577 H 0.26385 0.38066 0.82337
 H1578 H 0.25017 0.41535 0.80875
 H1579 H 0.30766 0.42665 0.78233
 H1580 H 0.32108 0.39095 0.79684
 H1581 H 0.27540 0.35962 0.76128
 H1582 H 0.26198 0.39563 0.74710
 C1583 C 0.28845 -0.12432 0.29257
 C1584 C 0.27094 -0.11315 0.30659
 C1585 C 0.26408 -0.09380 0.29857
 C1586 C 0.27529 -0.08687 0.27735
 C1587 C 0.29952 -0.08747 0.28280
 C1588 C 0.30638 -0.10687 0.29084
 C1589 C 0.27842 -0.12539 0.26967
 C1590 C 0.27163 -0.10589 0.26175
 H1591 H 0.26542 -0.11843 0.32236
 H1592 H 0.25268 -0.08378 0.30744
 H1593 H 0.31032 -0.07370 0.28086
 H1594 H 0.32303 -0.10942 0.29591
 H1595 H 0.27665 -0.14034 0.26049
 H1596 H 0.26417 -0.10421 0.24590
 C1597 C 0.78636 0.87460 0.79049
 C1598 C 0.76461 0.88230 0.80024
 C1599 C 0.75801 0.90202 0.79287
 C1600 C 0.77336 0.91241 0.77615
 C1601 C 0.79549 0.91300 0.78735
 C1602 C 0.80221 0.89343 0.79491
 C1603 C 0.78223 0.87542 0.76576
 C1604 C 0.77554 0.89517 0.75831
 H1605 H 0.75391 0.87267 0.81026
 H1606 H 0.74241 0.90874 0.79738
 H1607 H 0.80513 0.92763 0.78913
 H1608 H 0.81757 0.89151 0.80329
 H1609 H 0.78393 0.86150 0.75509
 H1610 H 0.77170 0.89808 0.74138
 C1611 C 0.46546 0.87739 0.28935
 C1612 C 0.48758 0.87022 0.29871
 C1613 C 0.49431 0.85043 0.29162
 C1614 C 0.47866 0.83954 0.27556
 C1615 C 0.45683 0.83889 0.28733
 C1616 C 0.45000 0.85853 0.29456
 C1617 C 0.46884 0.87617 0.26460
 C1618 C 0.47570 0.85638 0.25740
 H1619 H 0.49825 0.88030 0.30835
 H1620 H 0.51010 0.84395 0.29587
 H1621 H 0.44742 0.82417 0.28967
 H1622 H 0.43482 0.86050 0.30319
 H1623 H 0.46653 0.88984 0.25373
 H1624 H 0.47913 0.85317 0.24044
 C1625 C -0.03790 0.87474 0.79443
 C1626 C -0.05540 0.85705 0.79152
 C1627 C -0.04778 0.83794 0.78355
 C1628 C -0.02328 0.83785 0.77934
 C1629 C -0.01922 0.85722 0.76428
 C1630 C -0.02680 0.87643 0.77213
 C1631 C -0.02096 0.86353 0.80921
 C1632 C -0.01326 0.84448 0.80121
 H1633 H -0.07229 0.85911 0.79596
 H1634 H -0.05818 0.82396 0.78100
 H1635 H -0.01095 0.85596 0.74881
 H1636 H -0.02495 0.89156 0.76328
 H1637 H -0.01686 0.86839 0.82558
 H1638 H -0.00236 0.83430 0.81056
 C1639 C -0.03428 -0.12666 -0.04018
 C1640 C -0.03050 -0.12580 -0.01543
 C1641 C -0.02427 -0.10591 -0.00788
 C1642 C -0.02218 -0.08866 -0.02570
 C1643 C -0.00643 -0.09875 -0.04226
 C1644 C -0.01265 -0.11858 -0.04973
 C1645 C -0.05044 -0.10824 -0.04479
 C1646 C -0.04418 -0.08853 -0.03721
 H1647 H -0.03211 -0.13977 -0.00482
 H1648 H -0.02071 -0.10291 0.00910
 H1649 H 0.00902 -0.09164 -0.04672
 H1650 H -0.00199 -0.12802 -0.05997
 H1651 H -0.06563 -0.11056 -0.05338
 H1652 H -0.05405 -0.07409 -0.03922
 C1653 C -0.04315 0.37565 0.46292
 C1654 C -0.04686 0.39450 0.44693
 C1655 C -0.03902 0.41395 0.45377
 C1656 C -0.02823 0.41322 0.47613
 C1657 C -0.04543 0.40320 0.49121
 C1658 C -0.05308 0.38361 0.48451
 C1659 C -0.01851 0.37599 0.46750
 C1660 C -0.01076 0.39562 0.47428
 H1661 H -0.05494 0.39268 0.43139
 H1662 H -0.04023 0.42855 0.44403
 H1663 H -0.05009 0.41003 0.50675
 H1664 H -0.06345 0.37418 0.49506
 H1665 H -0.00813 0.36185 0.46604
 H1666 H 0.00613 0.39822 0.47841
 C1667 C 0.46443 -0.12636 0.45879
 C1668 C 0.46859 -0.12533 0.48352
 C1669 C 0.47492 -0.10540 0.49086
 C1670 C 0.47677 -0.08821 0.47294
 C1671 C 0.49228 -0.09841 0.45624
 C1672 C 0.48602 -0.11829 0.44900
 C1673 C 0.44823 -0.10787 0.45432
 C1674 C 0.45462 -0.08812 0.46177
 H1675 H 0.46721 -0.13923 0.49426
 H1676 H 0.47875 -0.10233 0.50777
 H1677 H 0.50779 -0.09146 0.45172
 H1678 H 0.49690 -0.12783 0.43909
 H1679 H 0.43289 -0.11016 0.44600
 H1680 H 0.44472 -0.07370 0.45994
 C1681 C 0.46507 0.37176 -0.04039
 C1682 C 0.48745 0.37894 -0.04924
 C1683 C 0.49394 0.39889 -0.04227
 C1684 C 0.47791 0.40991 -0.02675
 C1685 C 0.45634 0.41030 -0.03903
 C1686 C 0.44971 0.39055 -0.04620
 C1687 C 0.46801 0.37335 -0.01555
 C1688 C 0.47463 0.39328 -0.00846
 H1689 H 0.49856 0.36870 -0.05816
 H1690 H 0.50987 0.40532 -0.04604
 H1691 H 0.44694 0.42492 -0.04173
 H1692 H 0.43470 0.38845 -0.05516
 H1693 H 0.46572 0.35980 -0.00452
 H1694 H 0.47780 0.39668 0.00852
 C1695 C 0.79338 0.37435 0.46289
 C1696 C 0.79168 0.35664 0.44531
 C1697 C 0.78385 0.33733 0.45262
 C1698 C 0.77853 0.33715 0.47694
 C1699 C 0.79968 0.34440 0.48799
 C1700 C 0.80753 0.36363 0.48062
 C1701 C 0.77058 0.37554 0.47289
 C1702 C 0.76284 0.35615 0.48021
 H1703 H 0.79659 0.35896 0.42857
 H1704 H 0.78192 0.32335 0.44209
 H1705 H 0.80859 0.33466 0.49964
 H1706 H 0.82332 0.36920 0.48584
 H1707 H 0.76135 0.39048 0.47420
 H1708 H 0.74704 0.35452 0.48773
 C1709 C 0.78493 0.87786 -0.03987
 C1710 C 0.76232 0.87097 -0.04836
 C1711 C 0.75580 0.85101 -0.04148
 C1712 C 0.77207 0.83969 -0.02638
 C1713 C 0.79338 0.83926 -0.03906
 C1714 C 0.80002 0.85902 -0.04614
 C1715 C 0.78250 0.87605 -0.01499
 C1716 C 0.77587 0.85610 -0.00798
 H1717 H 0.75112 0.88144 -0.05693
 H1718 H 0.73973 0.84477 -0.04498
 H1719 H 0.80266 0.82459 -0.04199
 H1720 H 0.81490 0.86110 -0.05530
 H1721 H 0.78508 0.88948 -0.00388
 H1722 H 0.77299 0.85256 0.00901
 C1723 C 0.78625 0.29254 0.37658
 C1724 C 0.80236 0.29557 0.39538
 C1725 C 0.79530 0.28780 0.41471
 C1726 C 0.77259 0.27776 0.41385
 C1727 C 0.75813 0.29561 0.40411
 C1728 C 0.76511 0.30325 0.38467
 C1729 C 0.78095 0.26804 0.37661
 C1730 C 0.77385 0.26033 0.39609
 H1731 H 0.81807 0.30331 0.39362
 H1732 H 0.80498 0.28883 0.42937
 H1733 H 0.74300 0.30100 0.41122
 H1734 H 0.75527 0.31463 0.37566
 H1735 H 0.78231 0.25773 0.36240
 H1736 H 0.76925 0.24349 0.39851
 C1737 C 0.79249 0.78564 -0.12731
 C1738 C 0.76797 0.78087 -0.12680
 C1739 C 0.76050 0.77394 -0.10717
 C1740 C 0.77817 0.77228 -0.08971
 C1741 C 0.79542 0.75734 -0.09975
 C1742 C 0.80282 0.76418 -0.11938
 C1743 C 0.79625 0.80172 -0.10860
 C1744 C 0.78875 0.79480 -0.08911
 H1745 H 0.75745 0.78240 -0.14083
 H1746 H 0.74367 0.76967 -0.10445
 H1747 H 0.80051 0.74201 -0.09271
 H1748 H 0.81369 0.75405 -0.12870
 H1749 H 0.80423 0.81732 -0.11055
 H1750 H 0.79022 0.80454 -0.07452
 C1751 C 0.29346 0.46385 0.87422
 C1752 C 0.26988 0.47200 0.87469
 C1753 C 0.26225 0.47895 0.85515
 C1754 C 0.27880 0.47722 0.83670
 C1755 C 0.29867 0.48991 0.84486
 C1756 C 0.30636 0.48300 0.86434
 C1757 C 0.29377 0.44645 0.85627
 C1758 C 0.28607 0.45339 0.83680
 H1759 H 0.26009 0.47247 0.88929
 H1760 H 0.24598 0.48528 0.85306
 H1761 H 0.30634 0.50308 0.83604
 H1762 H 0.32056 0.49057 0.87127
 H1763 H 0.29989 0.43009 0.85860
 H1764 H 0.28561 0.44295 0.82262
 C1765 C 0.29268 -0.03526 0.37377
 C1766 C 0.30312 -0.01414 0.36521
 C1767 C 0.29534 -0.00763 0.34564
 C1768 C 0.27763 -0.02256 0.33624
 C1769 C 0.28788 -0.04522 0.33583
 C1770 C 0.29578 -0.05179 0.35532
 C1771 C 0.26820 -0.03022 0.37368
 C1772 C 0.26035 -0.02365 0.35407
 H1773 H 0.31440 -0.00397 0.37400
 H1774 H 0.30057 0.00746 0.33821
 H1775 H 0.28889 -0.05526 0.32140
 H1776 H 0.30362 -0.06743 0.35742
 H1777 H 0.25799 -0.03137 0.38795
 H1778 H 0.24350 -0.01931 0.35159
 C1779 C -0.03971 -0.03486 -0.12708
 C1780 C -0.04579 -0.04990 -0.10811
 C1781 C -0.03832 -0.04325 -0.08852
 C1782 C -0.02547 -0.02197 -0.08925
 C1783 C -0.00739 -0.02593 -0.10584
 C1784 C -0.01479 -0.03255 -0.12564
 C1785 C -0.04791 -0.01216 -0.12023
 C1786 C -0.04063 -0.00559 -0.10047
 H1787 H -0.05516 -0.06473 -0.10996
 H1788 H -0.04117 -0.05244 -0.07378
 H1789 H 0.00965 -0.02315 -0.10253
 H1790 H -0.00392 -0.03517 -0.13921
 H1791 H -0.05667 -0.00100 -0.13060
 H1792 H -0.04394 0.01058 -0.09430
 C1793 C -0.03844 0.45939 0.37506
 C1794 C -0.03482 0.48428 0.37560
 C1795 C -0.02829 0.49212 0.39528
 C1796 C -0.02574 0.47449 0.41270
 C1797 C -0.04767 0.46287 0.41332
 C1798 C -0.05423 0.45492 0.39384
 C1799 C -0.01649 0.45025 0.38288
 C1800 C -0.01006 0.45794 0.40248
 H1801 H -0.03668 0.49476 0.36158
 H1802 H -0.02479 0.50918 0.39803
 H1803 H -0.05743 0.46136 0.42783
 H1804 H -0.06952 0.44640 0.39192
 H1805 H -0.00547 0.44062 0.37320
 H1806 H 0.00575 0.45397 0.40909
 C1807 C 0.45904 -0.03520 0.37376
 C1808 C 0.48358 -0.03041 0.37432
 C1809 C 0.49114 -0.02408 0.39412
 C1810 C 0.47354 -0.02295 0.41164
 C1811 C 0.45619 -0.00777 0.40202
 C1812 C 0.44872 -0.01403 0.38226
 C1813 C 0.45541 -0.05185 0.39201
 C1814 C 0.46303 -0.04551 0.41168
 H1815 H 0.49402 -0.03153 0.36022
 H1816 H 0.50799 -0.01991 0.39695
 H1817 H 0.45110 0.00740 0.40939
 H1818 H 0.43790 -0.00358 0.37324
 H1819 H 0.44750 -0.06742 0.38962
 H1820 H 0.46178 -0.05570 0.42597
 C1821 C 0.45774 0.46457 -0.12690
 C1822 C 0.48227 0.46931 -0.12634
 C1823 C 0.48973 0.47622 -0.10668
 C1824 C 0.47204 0.47790 -0.08928
 C1825 C 0.45482 0.49287 -0.09935
 C1826 C 0.44742 0.48604 -0.11901
 C1827 C 0.45394 0.44849 -0.10821
 C1828 C 0.46143 0.45539 -0.08871
 H1829 H 0.49279 0.46779 -0.14034
 H1830 H 0.50656 0.48050 -0.10392
 H1831 H 0.44976 0.50820 -0.09232
 H1832 H 0.43658 0.49618 -0.12837
 H1833 H 0.44593 0.43291 -0.11018
 H1834 H 0.45992 0.44566 -0.07412
 C1835 C 0.45915 0.78496 0.37605
 C1836 C 0.45486 0.80108 0.35749
 C1837 C 0.46216 0.79442 0.33784
 C1838 C 0.47309 0.77208 0.33814
 C1839 C 0.49099 0.77395 0.35535
 C1840 C 0.48373 0.78064 0.37514
 C1841 C 0.44903 0.76336 0.36811
 C1842 C 0.45624 0.75678 0.34832
 H1843 H 0.44666 0.81653 0.35966
 H1844 H 0.46030 0.80421 0.32332
 H1845 H 0.50785 0.77001 0.35236
 H1846 H 0.49443 0.78231 0.38901
 H1847 H 0.43844 0.75297 0.37746
 H1848 H 0.45128 0.74142 0.34125
 C1849 C -0.04144 0.78617 0.87561
 C1850 C -0.04513 0.80262 0.85714
 C1851 C -0.03761 0.79607 0.83750
 C1852 C -0.02715 0.77350 0.83769
 C1853 C -0.00949 0.77478 0.85519
 C1854 C -0.01691 0.78131 0.87497
 C1855 C -0.05178 0.76481 0.86721
 C1856 C -0.04444 0.75842 0.84744
 H1857 H -0.05306 0.81820 0.85933
 H1858 H -0.03904 0.80608 0.82308
 H1859 H 0.00732 0.77049 0.85240
 H1860 H -0.00634 0.78244 0.88901
 H1861 H -0.06227 0.75414 0.87636
 H1862 H -0.04940 0.74311 0.84023
 C1863 C 0.37393 0.79104 0.28292
 C1864 C 0.39256 0.79529 0.29891
 C1865 C 0.41208 0.78791 0.29213
 C1866 C 0.41155 0.77694 0.26983
 C1867 C 0.39436 0.75901 0.27178
 C1868 C 0.37468 0.76637 0.27857
 C1869 C 0.38163 0.80114 0.26131
 C1870 C 0.40131 0.79386 0.25460
 H1871 H 0.39053 0.80349 0.31437
 H1872 H 0.42665 0.78970 0.30183
 H1873 H 0.39726 0.74211 0.26773
 H1874 H 0.36078 0.75570 0.28019
 H1875 H 0.37201 0.81154 0.25094
 H1876 H 0.40818 0.79865 0.23913
 C1877 C -0.12407 0.79376 0.78429
 C1878 C -0.12384 0.76952 0.77800
 C1879 C -0.10414 0.76208 0.77138
 C1880 C -0.08633 0.77950 0.77154
 C1881 C -0.09542 0.79797 0.75743
 C1882 C -0.11510 0.80538 0.76395
 C1883 C -0.10595 0.79611 0.80128
 C1884 C -0.08637 0.78860 0.79468
 H1885 H -0.13807 0.75917 0.77840
 H1886 H -0.10156 0.74543 0.76621
 H1887 H -0.08756 0.80420 0.74297
 H1888 H -0.12346 0.81750 0.75444
 H1889 H -0.10832 0.80323 0.81720
 H1890 H -0.07213 0.78922 0.80497
 C1891 C 0.87323 0.28776 0.45636
 C1892 C 0.85502 0.30483 0.45639
 C1893 C 0.83587 0.29754 0.46446
 C1894 C 0.83630 0.27369 0.47175
 C1895 C 0.84425 0.26119 0.45168
 C1896 C 0.86340 0.26847 0.44360
 C1897 C 0.87433 0.27960 0.47996
 C1898 C 0.85509 0.27229 0.48797
 H1899 H 0.85692 0.32123 0.45018
 H1900 H 0.82154 0.30770 0.46515
 H1901 H 0.83539 0.24803 0.44401
 H1902 H 0.86996 0.26130 0.42904
 H1903 H 0.88910 0.27941 0.48950
 H1904 H 0.85345 0.26593 0.50430
 C1905 C 0.87728 0.79023 -0.03486
 C1906 C 0.85859 0.79559 -0.05042
 C1907 C 0.83895 0.78838 -0.04372
 C1908 C 0.83946 0.77647 -0.02191
 C1909 C 0.85619 0.75825 -0.02483
 C1910 C 0.87596 0.76544 -0.03156
 C1911 C 0.87005 0.79956 -0.01272
 C1912 C 0.85026 0.79247 -0.00611
 H1913 H 0.86065 0.80437 -0.06555
 H1914 H 0.82433 0.79089 -0.05317
 H1915 H 0.85291 0.74126 -0.02148
 H1916 H 0.88956 0.75452 -0.03385
 H1917 H 0.88001 0.80926 -0.00199
 H1918 H 0.84368 0.79673 0.00964
 C1919 C -0.12773 -0.03938 -0.03556
 C1920 C -0.12620 -0.01438 -0.03340
 C1921 C -0.10635 -0.00697 -0.02703
 C1922 C -0.08974 -0.02510 -0.02314
 C1923 C -0.10080 -0.04021 -0.00660
 C1924 C -0.12061 -0.04753 -0.01292
 C1925 C -0.10895 -0.04558 -0.05073
 C1926 C -0.08929 -0.03809 -0.04431
 H1927 H -0.13975 -0.00346 -0.03603
 H1928 H -0.10299 0.01014 -0.02443
 H1929 H -0.09444 -0.04351 0.00948
 H1930 H -0.13079 -0.05628 -0.00160
 H1931 H -0.11098 -0.05509 -0.06543
 H1932 H -0.07467 -0.04108 -0.05357
 C1933 C -0.12692 0.46482 0.46089
 C1934 C -0.11955 0.48717 0.45220
 C1935 C -0.09981 0.49352 0.45955
 C1936 C -0.08911 0.47733 0.47531
 C1937 C -0.10597 0.47415 0.49329
 C1938 C -0.12578 0.46771 0.48580
 C1939 C -0.10820 0.44926 0.45546
 C1940 C -0.08862 0.45572 0.46306
 H1941 H -0.12959 0.49842 0.44318
 H1942 H -0.09339 0.50954 0.45593
 H1943 H -0.10281 0.47723 0.51033
 H1944 H -0.13951 0.46553 0.49656
 H1945 H -0.11024 0.43418 0.44654
 H1946 H -0.07409 0.44608 0.46086
 C1947 C 0.37508 -0.04053 0.46252
 C1948 C 0.37606 -0.01567 0.46604
 C1949 C 0.39576 -0.00817 0.47280
 C1950 C 0.41280 -0.02609 0.47564
 C1951 C 0.40216 -0.04238 0.49129
 C1952 C 0.38250 -0.04977 0.48464
 C1953 C 0.39396 -0.04543 0.44697
 C1954 C 0.41347 -0.03782 0.45375
 H1955 H 0.36229 -0.00493 0.46392
 H1956 H 0.39876 0.00886 0.47626
 H1957 H 0.40862 -0.04646 0.50715
 H1958 H 0.37264 -0.05932 0.49557
 H1959 H 0.39209 -0.05409 0.43174
 H1960 H 0.42810 -0.03983 0.44424
 C1961 C 0.37265 0.45883 -0.03434
 C1962 C 0.37993 0.44948 -0.01217
 C1963 C 0.39975 0.45656 -0.00553
 C1964 C 0.41053 0.47261 -0.02127
 C1965 C 0.41102 0.46079 -0.04312
 C1966 C 0.39141 0.45355 -0.04987
 C1967 C 0.37398 0.48365 -0.03086
 C1968 C 0.39377 0.49082 -0.02412
 H1969 H 0.36991 0.44003 -0.00128
 H1970 H 0.40629 0.45241 0.01028
 H1971 H 0.42563 0.45836 -0.05256
 H1972 H 0.38941 0.44479 -0.06504
 H1973 H 0.36036 0.49459 -0.03291
 H1974 H 0.39701 0.50779 -0.02059
 C1975 C 0.37417 0.45615 0.78480
 C1976 C 0.37441 0.48029 0.77815
 C1977 C 0.35487 0.48801 0.77136
 C1978 C 0.33674 0.47094 0.77170
 C1979 C 0.34550 0.45208 0.75790
 C1980 C 0.36502 0.44439 0.76461
 C1981 C 0.35598 0.45439 0.80175
 C1982 C 0.33656 0.46217 0.79497
 H1983 H 0.38884 0.49037 0.77844
 H1984 H 0.35261 0.50463 0.76594
 H1985 H 0.33752 0.44575 0.74353
 H1986 H 0.37313 0.43190 0.75537
 H1987 H 0.35819 0.44741 0.81777
 H1988 H 0.32227 0.46189 0.80520
 C1989 C 0.37564 -0.03985 0.28490
 C1990 C 0.35702 -0.04445 0.30081
 C1991 C 0.33743 -0.03691 0.29422
 C1992 C 0.33786 -0.02550 0.27214
 C1993 C 0.35503 -0.00759 0.27447
 C1994 C 0.37477 -0.01507 0.28109
 C1995 C 0.36789 -0.04949 0.26313
 C1996 C 0.34821 -0.04211 0.25660
 H1997 H 0.35911 -0.05299 0.31608
 H1998 H 0.32288 -0.03893 0.30386
 H1999 H 0.35204 0.00940 0.27091
 H2000 H 0.38862 -0.00439 0.28304
 H2001 H 0.37740 -0.05970 0.25251
 H2002 H 0.34140 -0.04667 0.24102
 C2003 C 0.12284 0.54085 0.71615
 C2004 C 0.13090 0.55107 0.73763
 C2005 C 0.15074 0.54393 0.74407
 C2006 C 0.16084 0.52702 0.72878
 C2007 C 0.14369 0.50900 0.72710
 C2008 C 0.12385 0.51621 0.72055
 C2009 C 0.14121 0.54517 0.69990
 C2010 C 0.16092 0.53793 0.70643
 H2011 H 0.12152 0.56156 0.74808
 H2012 H 0.15788 0.54890 0.75938
 H2013 H 0.14676 0.49212 0.73110
 H2014 H 0.11002 0.50543 0.71906
 H2015 H 0.13888 0.55333 0.68446
 H2016 H 0.17532 0.53982 0.69655
 C2017 C 0.12238 0.03407 0.21077
 C2018 C 0.12405 0.03188 0.23568
 C2019 C 0.14396 0.02558 0.24292
 C2020 C 0.16042 0.02183 0.22467
 C2021 C 0.14931 0.00526 0.20957
 C2022 C 0.12945 0.01155 0.20243
 C2023 C 0.14098 0.04943 0.20450
 C2024 C 0.16073 0.04309 0.21177
 H2025 H 0.11055 0.03447 0.24663
 H2026 H 0.14747 0.02297 0.25997
 H2027 H 0.15574 -0.01074 0.20600
 H2028 H 0.11925 0.00043 0.19340
 H2029 H 0.13875 0.06417 0.19508
 H2030 H 0.17530 0.05243 0.20864
 C2031 C 0.62461 0.70734 0.21353
 C2032 C 0.61472 0.69405 0.23238
 C2033 C 0.59539 0.70176 0.23951
 C2034 C 0.58738 0.72197 0.22725
 C2035 C 0.60591 0.73846 0.22923
 C2036 C 0.62533 0.73083 0.22209
 C2037 C 0.60663 0.70739 0.19620
 C2038 C 0.58731 0.71510 0.20333
 H2039 H 0.62125 0.67926 0.23919
 H2040 H 0.58637 0.69365 0.25227
 H2041 H 0.60396 0.75467 0.23586
 H2042 H 0.63998 0.74057 0.22266
 H2043 H 0.60881 0.70150 0.17976
 H2044 H 0.57313 0.71588 0.19295
 C2045 C 0.12718 0.70919 0.71611
 C2046 C 0.10847 0.70555 0.70004
 C2047 C 0.08903 0.71303 0.70699
 C2048 C 0.08969 0.72346 0.72955
 C2049 C 0.09968 0.70601 0.74433
 C2050 C 0.11927 0.69861 0.73744
 C2051 C 0.12671 0.73374 0.72106
 C2052 C 0.10714 0.74118 0.72803
 H2053 H 0.11036 0.69759 0.68444
 H2054 H 0.07442 0.71155 0.69730
 H2055 H 0.09257 0.70070 0.75953
 H2056 H 0.12847 0.68743 0.74735
 H2057 H 0.14073 0.74428 0.71960
 H2058 H 0.10445 0.75804 0.73243
 C2059 C 0.62237 0.21663 0.53985
 C2060 C 0.64095 0.20121 0.54598
 C2061 C 0.66076 0.20787 0.53918
 C2062 C 0.66051 0.22950 0.52686
 C2063 C 0.64420 0.22613 0.50831
 C2064 C 0.62427 0.21945 0.51509
 C2065 C 0.62935 0.23903 0.54887
 C2066 C 0.64931 0.24560 0.54221
 H2067 H 0.63868 0.18620 0.55494
 H2068 H 0.67534 0.19852 0.54226
 H2069 H 0.64785 0.22920 0.49137
 H2070 H 0.61093 0.21693 0.50389
 H2071 H 0.61907 0.24999 0.55792
 H2072 H 0.65574 0.26151 0.54624
 C2073 C 0.62663 0.70568 0.03512
 C2074 C 0.62588 0.72969 0.02805
 C2075 C 0.64515 0.73765 0.02077
 C2076 C 0.66356 0.72094 0.02109
 C2077 C 0.66433 0.71259 0.04450
 C2078 C 0.64518 0.70457 0.05177
 C2079 C 0.63563 0.69369 0.01502
 C2080 C 0.65487 0.70165 0.00780
 H2081 H 0.61130 0.73951 0.02846
 H2082 H 0.64702 0.75421 0.01505
 H2083 H 0.67882 0.71273 0.05448
 H2084 H 0.64344 0.69780 0.06794
 H2085 H 0.62778 0.68053 0.00646
 H2086 H 0.66284 0.69502 -0.00640
 C2087 C 0.12278 0.04100 0.04252
 C2088 C 0.10994 0.02644 0.05838
 C2089 C 0.09074 0.01929 0.05042
 C2090 C 0.08550 0.02753 0.02742
 C2091 C 0.08721 0.05236 0.02934
 C2092 C 0.10655 0.05942 0.03732
 C2093 C 0.12432 0.02772 0.02141
 C2094 C 0.10490 0.02074 0.01355
 H2095 H 0.11407 0.02378 0.07526
 H2096 H 0.07954 0.01013 0.06044
 H2097 H 0.07410 0.06341 0.02542
 H2098 H 0.10959 0.07650 0.04048
 H2099 H 0.13949 0.02410 0.01330
 H2100 H 0.10350 0.01123 -0.00120
 C2101 C 0.12568 0.54097 0.53463
 C2102 C 0.12486 0.51626 0.53033
 C2103 C 0.10508 0.50880 0.52385
 C2104 C 0.08787 0.52665 0.52205
 C2105 C 0.08762 0.53769 0.54432
 C2106 C 0.10725 0.54518 0.55084
 C2107 C 0.11770 0.55099 0.51314
 C2108 C 0.09796 0.54361 0.50668
 H2109 H 0.13880 0.50563 0.53178
 H2110 H 0.10212 0.49187 0.51992
 H2111 H 0.07318 0.53950 0.55417
 H2112 H 0.10948 0.55347 0.56622
 H2113 H 0.12713 0.56152 0.50272
 H2114 H 0.09091 0.54843 0.49128
 C2115 C 0.62867 0.03393 0.53541
 C2116 C 0.60995 0.04765 0.54439
 C2117 C 0.59007 0.04138 0.53741
 C2118 C 0.59041 0.02185 0.52204
 C2119 C 0.60575 0.02841 0.50358
 C2120 C 0.62579 0.03463 0.51053
 C2121 C 0.62283 0.01030 0.54131
 C2122 C 0.60283 0.00406 0.53444
 H2123 H 0.61217 0.06120 0.55544
 H2124 H 0.57535 0.04955 0.54251
 H2125 H 0.60151 0.02751 0.48652
 H2126 H 0.63864 0.03877 0.49928
 H2127 H 0.63391 -0.00124 0.54861
 H2128 H 0.59703 -0.01247 0.53642
 C2129 C 0.62360 0.54375 0.03575
 C2130 C 0.62453 0.52040 0.02682
 C2131 C 0.60514 0.51255 0.01971
 C2132 C 0.58638 0.52868 0.02207
 C2133 C 0.58648 0.53519 0.04610
 C2134 C 0.60578 0.54311 0.05320
 C2135 C 0.61332 0.55713 0.01717
 C2136 C 0.59402 0.54922 0.01007
 H2137 H 0.63930 0.51091 0.02598
 H2138 H 0.60336 0.49640 0.01286
 H2139 H 0.57241 0.53403 0.05656
 H2140 H 0.60806 0.54876 0.06973
 H2141 H 0.61966 0.57203 0.01041
 H2142 H 0.58482 0.55733 -0.00255
 C2143 C 0.03574 0.03947 0.12636
 C2144 C 0.03333 0.01451 0.12461
 C2145 C 0.02686 0.00736 0.10467
 C2146 C 0.02314 0.02568 0.08818
 C2147 C 0.00682 0.04085 0.09939
 C2148 C 0.01321 0.04787 0.11930
 C2149 C 0.05096 0.04569 0.10760
 C2150 C 0.04444 0.03846 0.08782
 H2151 H 0.03586 0.00343 0.13806
 H2152 H 0.02410 -0.00969 0.10116
 H2153 H -0.00923 0.04435 0.09312
 H2154 H 0.00194 0.05652 0.12960
 H2155 H 0.06577 0.05498 0.10972
 H2156 H 0.05373 0.04148 0.07320
 C2157 C 0.03901 0.53493 0.62736
 C2158 C 0.04844 0.51310 0.61951
 C2159 C 0.04111 0.50681 0.59967
 C2160 C 0.02478 0.52266 0.58934
 C2161 C 0.00686 0.52501 0.60639
 C2162 C 0.01427 0.53134 0.62627
 C2163 C 0.04389 0.55100 0.60890
 C2164 C 0.03644 0.54465 0.58917
 H2165 H 0.05853 0.50239 0.62907
 H2166 H 0.04555 0.49126 0.59270
 H2167 H -0.01009 0.52158 0.60325
 H2168 H 0.00357 0.53316 0.64009
 H2169 H 0.05257 0.56617 0.61119
 H2170 H 0.03870 0.55442 0.57469
 C2171 C 0.54046 0.03868 0.62519
 C2172 C 0.52856 0.05590 0.61140
 C2173 C 0.52148 0.04848 0.59194
 C2174 C 0.52715 0.02455 0.58744
 C2175 C 0.55186 0.02365 0.59034
 C2176 C 0.55885 0.03111 0.60993
 C2177 C 0.52478 0.01926 0.62636
 C2178 C 0.51788 0.01190 0.60670
 H2179 H 0.52745 0.07301 0.61545
 H2180 H 0.51397 0.05924 0.58019
 H2181 H 0.56301 0.01868 0.57768
 H2182 H 0.57598 0.03275 0.61351
 H2183 H 0.51956 0.01187 0.64147
 H2184 H 0.50682 -0.00171 0.60502
 C2185 C 0.54386 0.53585 0.12332
 C2186 C 0.55707 0.51701 0.11333
 C2187 C 0.54922 0.50978 0.09404
 C2188 C 0.52896 0.52197 0.08614
 C2189 C 0.51271 0.51995 0.10481
 C2190 C 0.52047 0.52718 0.12420
 C2191 C 0.54358 0.55317 0.10529
 C2192 C 0.53573 0.54596 0.08601
 H2193 H 0.57190 0.51028 0.11979
 H2194 H 0.55726 0.49702 0.08496
 H2195 H 0.49655 0.51324 0.10299
 H2196 H 0.51090 0.52660 0.13894
 H2197 H 0.54941 0.56968 0.10743
 H2198 H 0.53475 0.55632 0.07181
 C2199 C 0.20887 0.53354 0.62282
 C2200 C 0.19887 0.51176 0.63036
 C2201 C 0.20593 0.50503 0.65017
 C2202 C 0.22254 0.52039 0.66067
 C2203 C 0.24060 0.52258 0.64369
 C2204 C 0.23346 0.52942 0.62391
 C2205 C 0.20426 0.54943 0.64148
 C2206 C 0.21143 0.54263 0.66112
 H2207 H 0.18863 0.50131 0.62064
 H2208 H 0.20116 0.48950 0.65699
 H2209 H 0.25745 0.51869 0.64682
 H2210 H 0.24426 0.53127 0.61016
 H2211 H 0.19596 0.56483 0.63939
 H2212 H 0.20936 0.55225 0.67572
 C2213 C 0.21286 0.03494 0.12108
 C2214 C 0.21074 0.01008 0.12438
 C2215 C 0.21723 0.00301 0.14435
 C2216 C 0.22551 0.02129 0.15918
 C2217 C 0.24350 0.03233 0.14590
 C2218 C 0.23702 0.03928 0.12600
 C2219 C 0.20050 0.04497 0.14024
 C2220 C 0.20702 0.03780 0.15997
 H2221 H 0.20568 -0.00118 0.11180
 H2222 H 0.21734 -0.01405 0.14877
 H2223 H 0.26031 0.03314 0.15100
 H2224 H 0.24863 0.04538 0.11431
 H2225 H 0.18729 0.05646 0.13841
 H2226 H 0.19920 0.04293 0.17486
 C2227 C 0.71504 0.21264 0.62887
 C2228 C 0.70150 0.20382 0.60990
 C2229 C 0.70808 0.21077 0.59009
 C2230 C 0.72775 0.22595 0.59072
 C2231 C 0.72119 0.24447 0.60611
 C2232 C 0.71462 0.23754 0.62605
 C2233 C 0.73867 0.20656 0.62325
 C2234 C 0.74519 0.21337 0.60330
 H2235 H 0.68776 0.19299 0.61193
 H2236 H 0.69992 0.20594 0.57525
 H2237 H 0.72228 0.26157 0.60196
 H2238 H 0.71031 0.24881 0.63887
 H2239 H 0.75007 0.19931 0.63449
 H2240 H 0.76171 0.21130 0.59768
 C2241 C 0.70571 0.71294 0.12267
 C2242 C 0.70705 0.69524 0.10505
 C2243 C 0.71489 0.70235 0.08571
 C2244 C 0.72064 0.72661 0.08537
 C2245 C 0.69974 0.73806 0.09265
 C2246 C 0.69189 0.73096 0.11198
 C2247 C 0.72870 0.72264 0.12372
 C2248 C 0.73647 0.72974 0.10429
 H2249 H 0.70198 0.67854 0.10752
 H2250 H 0.71664 0.69168 0.07181
 H2251 H 0.69126 0.75021 0.08313
 H2252 H 0.67669 0.73720 0.11800
 H2253 H 0.73801 0.72397 0.13860
 H2254 H 0.75237 0.73706 0.10259
 C2255 C 0.54537 0.71351 0.12570
 C2256 C 0.52164 0.72120 0.12481
 C2257 C 0.51374 0.72847 0.14412
 C2258 C 0.53022 0.72752 0.16272
 C2259 C 0.53793 0.70385 0.16327
 C2260 C 0.54591 0.69659 0.14409
 C2261 C 0.55781 0.73320 0.13513
 C2262 C 0.54988 0.74042 0.15440
 H2263 H 0.51195 0.72117 0.11011
 H2264 H 0.49736 0.73457 0.14590
 H2265 H 0.53739 0.69371 0.17764
 H2266 H 0.55226 0.68026 0.14221
 H2267 H 0.57152 0.74121 0.12777
 H2268 H 0.55700 0.75418 0.16279
 C2269 C 0.04281 0.71671 0.62373
 C2270 C 0.01839 0.72190 0.62436
 C2271 C 0.01111 0.72875 0.64408
 C2272 C 0.02883 0.72992 0.66153
 C2273 C 0.03899 0.70720 0.66186
 C2274 C 0.04630 0.70037 0.64226
 C2275 C 0.05357 0.73791 0.63189
 C2276 C 0.04635 0.74466 0.65162
 H2277 H 0.00781 0.72069 0.61034
 H2278 H -0.00564 0.73327 0.64688
 H2279 H 0.04035 0.69730 0.67635
 H2280 H 0.05399 0.68466 0.64013
 H2281 H 0.06464 0.74793 0.62269
 H2282 H 0.05177 0.75979 0.65884
 C2283 C 0.53710 0.62584 0.20581
 C2284 C 0.52993 0.62540 0.22975
 C2285 C 0.52292 0.64493 0.23748
 C2286 C 0.52360 0.66328 0.22064
 C2287 C 0.54705 0.66358 0.21246
 C2288 C 0.55404 0.64417 0.20466
 C2289 C 0.51720 0.63511 0.19369
 C2290 C 0.51030 0.65459 0.20140
 H2291 H 0.53009 0.61086 0.23970
 H2292 H 0.51718 0.64704 0.25398
 H2293 H 0.55726 0.67794 0.21263
 H2294 H 0.57021 0.64206 0.19812
 H2295 H 0.50831 0.62716 0.18084
 H2296 H 0.49614 0.66262 0.19474
 C2297 C 0.03376 0.62377 0.71041
 C2298 C 0.01209 0.63161 0.70057
 C2299 C 0.00581 0.65159 0.70756
 C2300 C 0.02147 0.66199 0.72397
 C2301 C 0.02353 0.64507 0.74216
 C2302 C 0.02991 0.62509 0.73508
 C2303 C 0.04989 0.64216 0.70551
 C2304 C 0.04353 0.66200 0.71263
 H2305 H 0.00138 0.62195 0.69055
 H2306 H -0.00963 0.65860 0.70291
 H2307 H 0.01988 0.64838 0.75905
 H2308 H 0.03159 0.61136 0.74598
 H2309 H 0.06513 0.63974 0.69709
 H2310 H 0.05337 0.67644 0.71038
 C2311 C 0.03806 0.12682 0.03667
 C2312 C 0.04501 0.10778 0.05126
 C2313 C 0.03752 0.08811 0.04472
 C2314 C 0.02379 0.08887 0.02405
 C2315 C 0.00568 0.10520 0.02891
 C2316 C 0.01308 0.12507 0.03537
 C2317 C 0.04538 0.12030 0.01363
 C2318 C 0.03810 0.10050 0.00719
 H2319 H 0.05506 0.10963 0.06561
 H2320 H 0.04114 0.07327 0.05347
 H2321 H -0.01142 0.10171 0.02675
 H2322 H 0.00214 0.13851 0.03843
 H2323 H 0.05356 0.13094 0.00228
 H2324 H 0.04085 0.09455 -0.00915
 C2325 C 0.03502 0.62761 0.54016
 C2326 C 0.01323 0.62004 0.54978
 C2327 C 0.00654 0.60034 0.54235
 C2328 C 0.02200 0.58985 0.52578
 C2329 C 0.02446 0.60702 0.50792
 C2330 C 0.03119 0.62677 0.51541
 C2331 C 0.05076 0.60881 0.54477
 C2332 C 0.04402 0.58922 0.53725
 H2333 H 0.00284 0.62969 0.56009
 H2334 H -0.00904 0.59357 0.54691
 H2335 H 0.02082 0.60406 0.49096
 H2336 H 0.03315 0.64066 0.50477
 H2337 H 0.06600 0.61077 0.55335
 H2338 H 0.05352 0.57454 0.53932
 C2339 C 0.53896 0.12731 0.53482
 C2340 C 0.54722 0.12045 0.51222
 C2341 C 0.54034 0.10045 0.50584
 C2342 C 0.52556 0.08898 0.52239
 C2343 C 0.53864 0.08874 0.54352
 C2344 C 0.54562 0.10864 0.54997
 C2345 C 0.51411 0.12526 0.53278
 C2346 C 0.50714 0.10522 0.52638
 H2347 H 0.55605 0.13086 0.50117
 H2348 H 0.54393 0.09411 0.48982
 H2349 H 0.54227 0.07407 0.55260
 H2350 H 0.55519 0.11092 0.56458
 H2351 H 0.50298 0.13860 0.53554
 H2352 H 0.49015 0.10147 0.52386
 C2353 C 0.53679 0.62332 0.04367
 C2354 C 0.55347 0.60477 0.04462
 C2355 C 0.54616 0.58554 0.03667
 C2356 C 0.52269 0.58622 0.02855
 C2357 C 0.50962 0.59486 0.04794
 C2358 C 0.51687 0.61418 0.05583
 C2359 C 0.52947 0.62407 0.01977
 C2360 C 0.52216 0.60471 0.01189
 H2361 H 0.56967 0.60658 0.05122
 H2362 H 0.55614 0.57104 0.03643
 H2363 H 0.49554 0.58678 0.05472
 H2364 H 0.50846 0.62195 0.06908
 H2365 H 0.52976 0.63870 0.00996
 H2366 H 0.51628 0.60283 -0.00460
 C2367 C 0.70825 0.12428 0.53803
 C2368 C 0.69251 0.13639 0.52265
 C2369 C 0.69997 0.15590 0.51562
 C2370 C 0.72233 0.16210 0.52475
 C2371 C 0.71949 0.16052 0.54946
 C2372 C 0.71206 0.14091 0.55639
 C2373 C 0.72987 0.12343 0.52563
 C2374 C 0.73720 0.14313 0.51875
 H2375 H 0.67591 0.13170 0.51939
 H2376 H 0.68991 0.16667 0.50600
 H2377 H 0.72253 0.17389 0.56053
 H2378 H 0.70852 0.13785 0.57336
 H2379 H 0.73868 0.10850 0.52248
 H2380 H 0.75219 0.14502 0.50977
 C2381 C 0.71457 0.62503 0.04078
 C2382 C 0.69820 0.64362 0.04370
 C2383 C 0.70508 0.66311 0.03606
 C2384 C 0.72787 0.66261 0.02628
 C2385 C 0.74230 0.65303 0.04422
 C2386 C 0.73550 0.63343 0.05174
 C2387 C 0.72006 0.62521 0.01639
 C2388 C 0.72698 0.64484 0.00882
 H2389 H 0.68245 0.64161 0.05124
 H2390 H 0.69520 0.67764 0.03698
 H2391 H 0.75727 0.66040 0.04984
 H2392 H 0.74532 0.62460 0.06326
 H2393 H 0.71894 0.61099 0.00604
 H2394 H 0.73168 0.64738 -0.00794
 C2395 C 0.21619 0.62646 0.70755
 C2396 C 0.19970 0.60799 0.70439
 C2397 C 0.20644 0.58839 0.71182
 C2398 C 0.22920 0.58866 0.72175
 C2399 C 0.24376 0.59834 0.70396
 C2400 C 0.23709 0.61809 0.69660
 C2401 C 0.22168 0.62600 0.73196
 C2402 C 0.22841 0.60626 0.73937
 H2403 H 0.18399 0.61016 0.69678
 H2404 H 0.19646 0.57392 0.71063
 H2405 H 0.25871 0.59095 0.69841
 H2406 H 0.24695 0.62715 0.68527
 H2407 H 0.22077 0.64014 0.74243
 H2408 H 0.23314 0.60356 0.75611
 C2409 C 0.21143 0.12749 0.21358
 C2410 C 0.23639 0.12523 0.21446
 C2411 C 0.24347 0.10509 0.22044
 C2412 C 0.22511 0.08899 0.22528
 C2413 C 0.21130 0.10057 0.24256
 C2414 C 0.20433 0.12065 0.23661
 C2415 C 0.20388 0.10886 0.19876
 C2416 C 0.21105 0.08892 0.20481
 H2417 H 0.24756 0.13850 0.21140
 H2418 H 0.26052 0.10123 0.22223
 H2419 H 0.20869 0.09435 0.25882
 H2420 H 0.19653 0.13119 0.24830
 H2421 H 0.19376 0.11118 0.18454
 H2422 H 0.20715 0.07438 0.19572
 C2423 C 0.71321 1.12839 0.71536
 C2424 C 0.73814 1.12568 0.71514
 C2425 C 0.74509 1.10557 0.72130
 C2426 C 0.72664 1.08999 0.72739
 C2427 C 0.71393 1.10224 0.74502
 C2428 C 0.70709 1.12230 0.73888
 C2429 C 0.70462 1.10958 0.70137
 C2430 C 0.71165 1.08967 0.70759
 H2431 H 0.74942 1.13869 0.71146
 H2432 H 0.76213 1.10145 0.72254
 H2433 H 0.71195 1.09642 0.76152
 H2434 H 0.69997 1.13334 0.75055
 H2435 H 0.69396 1.11178 0.68752
 H2436 H 0.70712 1.07497 0.69901
 C2437 C 0.71522 0.62667 0.20897
 C2438 C 0.69932 0.60788 0.20480
 C2439 C 0.70602 0.58839 0.21254
 C2440 C 0.72816 0.58909 0.22376
 C2441 C 0.74351 0.59928 0.20687
 C2442 C 0.73686 0.61889 0.19924
 C2443 C 0.71931 0.62619 0.23369
 C2444 C 0.72598 0.60652 0.24140
 H2445 H 0.68398 0.60979 0.19639
 H2446 H 0.69636 0.57374 0.21085
 H2447 H 0.75902 0.59242 0.20228
 H2448 H 0.74721 0.62841 0.18874
 H2449 H 0.71758 0.64026 0.24414
 H2450 H 0.72980 0.60379 0.25837
 C2451 C 0.53346 0.11966 0.71433
 C2452 C 0.53727 0.12454 0.73857
 C2453 C 0.53056 0.14461 0.74484
 C2454 C 0.52035 0.15809 0.72648
 C2455 C 0.53737 0.15850 0.70845
 C2456 C 0.54424 0.13855 0.70218
 C2457 C 0.50889 0.12343 0.71140
 C2458 C 0.50208 0.14358 0.71767
 H2459 H 0.54315 0.11277 0.75027
 H2460 H 0.53120 0.14982 0.76165
 H2461 H 0.54305 0.17328 0.70075
 H2462 H 0.55601 0.13637 0.68930
 H2463 H 0.49762 0.11107 0.70589
 H2464 H 0.48517 0.14836 0.71719
 C2465 C 1.03879 0.12211 0.21525
 C2466 C 1.01397 0.12400 0.21730
 C2467 C 1.00701 0.14387 0.22418
 C2468 C 1.02544 0.16012 0.22847
 C2469 C 1.04025 0.14847 0.24478
 C2470 C 1.04708 0.12859 0.23803
 C2471 C 1.04538 0.14107 0.20046
 C2472 C 1.03839 0.16079 0.20730
 H2473 H 1.00286 0.11069 0.21417
 H2474 H 0.99001 0.14750 0.22677
 H2475 H 1.04374 0.15451 0.26095
 H2476 H 1.05572 0.11797 0.24903
 H2477 H 1.05471 0.13910 0.18568
 H2478 H 1.04161 0.17558 0.19830
 C2479 C 0.21317 0.62600 0.54320
 C2480 C 0.22275 0.62522 0.52016
 C2481 C 0.22986 0.64476 0.51260
 C2482 C 0.22685 0.66352 0.52867
 C2483 C 0.20267 0.66316 0.53445
 C2484 C 0.19557 0.64370 0.54210
 C2485 C 0.23118 0.63651 0.55716
 C2486 C 0.23830 0.65595 0.54952
 H2487 H 0.22398 0.61043 0.51066
 H2488 H 0.23710 0.64665 0.49668
 H2489 H 0.19210 0.67715 0.53296
 H2490 H 0.17894 0.64122 0.54724
 H2491 H 0.23719 0.63038 0.57245
 H2492 H 0.25034 0.66544 0.55818
 C2493 C 0.21131 0.12339 1.03846
 C2494 C 0.20386 0.12987 1.01549
 C2495 C 0.21105 0.14964 1.00898
 C2496 C 0.22545 0.16132 1.02573
 C2497 C 0.21195 0.16206 1.04653
 C2498 C 0.20450 0.14237 1.05310
 C2499 C 0.23625 0.12510 1.03718
 C2500 C 0.24362 0.14497 1.03056
 H2501 H 0.19553 0.11917 1.00429
 H2502 H 0.20815 0.15552 0.99264
 H2503 H 0.20900 0.17679 1.05569
 H2504 H 0.19497 0.14040 1.06776
 H2505 H 0.24716 0.11169 1.04046
 H2506 H 0.26071 0.14851 1.02845
 C2507 C 0.20689 0.71514 0.62410
 C2508 C 0.20568 0.69795 0.60599
 C2509 C 0.21327 0.70482 0.58649
 C2510 C 0.22135 0.72840 0.58652
 C2511 C 0.20209 0.74167 0.59510
 C2512 C 0.19452 0.73485 0.61466
 C2513 C 0.23073 0.72253 0.62432
 C2514 C 0.23827 0.72941 0.60473
 H2515 H 0.19910 0.68175 0.60826
 H2516 H 0.21324 0.69448 0.57223
 H2517 H 0.19501 0.75543 0.58668
 H2518 H 0.18115 0.74320 0.62224
 H2519 H 0.24076 0.72261 0.63878
 H2520 H 0.25469 0.73529 0.60248
 C2521 C 0.21424 0.21159 1.12674
 C2522 C 0.23660 0.20314 1.11952
 C2523 C 0.24275 0.21017 1.09961
 C2524 C 0.22629 0.22537 1.08857
 C2525 C 0.20497 0.21265 1.08839
 C2526 C 0.19874 0.20540 1.10821
 C2527 C 0.21654 0.23652 1.12507
 C2528 C 0.22279 0.24371 1.10508
 H2529 H 0.24785 0.19433 1.12972
 H2530 H 0.25872 0.20661 1.09319
 H2531 H 0.19536 0.20989 1.07391
 H2532 H 0.18388 0.19625 1.11057
 H2533 H 0.21400 0.24753 1.13857
 H2534 H 0.22541 0.26077 1.10152
 C2535 C 0.70846 0.53571 0.12346
 C2536 C 0.69847 0.51417 0.13145
 C2537 C 0.70621 0.50745 0.15098
 C2538 C 0.72344 0.52263 0.16090
 C2539 C 0.74088 0.52451 0.14330
 C2540 C 0.73307 0.53126 0.12372
 C2541 C 0.70477 0.55178 0.14219
 C2542 C 0.71261 0.54501 0.16161
 H2543 H 0.68763 0.50392 0.12219
 H2544 H 0.70139 0.49202 0.15800
 H2545 H 0.75779 0.52048 0.14587
 H2546 H 0.74338 0.53286 0.10958
 H2547 H 0.69658 0.56727 0.14031
 H2548 H 0.71122 0.55475 0.17621
 C2549 C 0.71397 1.03747 0.62242
 C2550 C 0.71485 1.01250 0.62479
 C2551 C 0.72122 1.00552 0.64482
 C2552 C 0.72631 1.02406 0.66071
 C2553 C 0.74335 1.03791 0.64882
 C2554 C 0.73701 1.04477 0.62884
 C2555 C 0.69944 1.04509 0.64112
 C2556 C 0.70583 1.03809 0.66100
 H2557 H 0.71154 1.00125 0.61164
 H2558 H 0.72309 0.98844 0.64875
 H2559 H 0.75960 1.04083 0.65487
 H2560 H 0.74825 1.05294 0.61809
 H2561 H 0.68518 1.05515 0.63888
 H2562 H 0.69702 1.04210 0.67564
 C2563 C 0.53366 0.21171 0.62251
 C2564 C 0.54864 0.20454 0.64108
 C2565 C 0.54227 0.21134 0.66099
 C2566 C 0.52137 0.22471 0.66083
 C2567 C 0.52566 0.24340 0.64492
 C2568 C 0.53200 0.23663 0.62485
 C2569 C 0.51094 0.20362 0.62911
 C2570 C 0.50463 0.21030 0.64915
 H2571 H 0.56313 0.19485 0.63873
 H2572 H 0.55131 0.20751 0.67559
 H2573 H 0.52335 0.26042 0.64888
 H2574 H 0.53491 0.24795 0.61168
 H2575 H 0.49978 0.19515 0.61850
 H2576 H 0.48854 0.20689 0.65535
 C2577 C 1.03454 0.21047 0.12373
 C2578 C 1.04943 0.20394 0.14260
 C2579 C 1.04282 0.21118 0.16228
 C2580 C 1.02174 0.22428 0.16166
 C2581 C 1.02600 0.24261 0.14528
 C2582 C 1.03265 0.23540 0.12544
 C2583 C 1.01180 0.20235 0.13042
 C2584 C 1.00527 0.20942 0.15026
 H2585 H 1.06414 0.19451 0.14059
 H2586 H 1.05195 0.20808 0.17698
 H2587 H 1.02353 0.25970 0.14879
 H2588 H 1.03572 0.24641 0.11204
 H2589 H 1.00067 0.19368 0.11995
 H2590 H 0.98915 0.20609 0.15642
 C2591 C 0.62678 0.21285 0.71318
 C2592 C 0.62408 0.21301 0.73809
 C2593 C 0.60393 0.21901 0.74495
 C2594 C 0.58825 0.22448 0.72638
 C2595 C 0.60019 0.24205 0.71322
 C2596 C 0.62028 0.23608 0.70647
 C2597 C 0.60831 0.19831 0.70490
 C2598 C 0.58832 0.20433 0.71180
 H2599 H 0.63707 0.20943 0.74940
 H2600 H 0.59977 0.22032 0.76200
 H2601 H 0.59409 0.25839 0.71072
 H2602 H 0.63102 0.24773 0.69884
 H2603 H 0.61079 0.18431 0.69449
 H2604 H 0.57383 0.19545 0.70735
 C2605 C 1.12744 0.21490 0.21168
 C2606 C 1.12561 0.21682 0.23656
 C2607 C 1.10572 0.22333 0.24363
 C2608 C 1.08938 0.22743 0.22525
 C2609 C 1.10069 0.24402 0.21048
 C2610 C 1.12059 0.23763 0.20353
 C2611 C 1.10876 0.19978 0.20507
 C2612 C 1.08901 0.20626 0.21218
 H2613 H 1.13897 0.21389 0.24762
 H2614 H 1.10212 0.22580 0.26068
 H2615 H 1.09440 0.26013 0.20709
 H2616 H 1.13098 0.24887 0.19492
 H2617 H 1.11093 0.18505 0.19565
 H2618 H 1.07440 0.19700 0.20895
 C2619 C 0.12542 0.70890 0.53442
 C2620 C 0.14380 0.70607 0.55105
 C2621 C 0.16335 0.71347 0.54423
 C2622 C 0.16309 0.72296 0.52125
 C2623 C 0.15354 0.70484 0.50698
 C2624 C 0.13389 0.69754 0.51371
 C2625 C 0.12584 0.73323 0.52855
 C2626 C 0.14551 0.74057 0.52170
 H2627 H 0.14161 0.69871 0.56690
 H2628 H 0.17777 0.71250 0.55426
 H2629 H 0.16103 0.69888 0.49223
 H2630 H 0.12515 0.68580 0.50405
 H2631 H 0.11175 0.74371 0.52938
 H2632 H 0.14821 0.75727 0.51676
 C2633 C 0.12390 0.21231 1.04050
 C2634 C 0.13150 0.23446 1.04945
 C2635 C 0.15126 0.24078 1.04213
 C2636 C 0.16185 0.22471 1.02621
 C2637 C 0.16216 0.20297 1.03831
 C2638 C 0.14248 0.19656 1.04581
 C2639 C 0.12505 0.21531 1.01566
 C2640 C 0.14488 0.22173 1.00822
 H2641 H 0.12174 0.24549 1.05897
 H2642 H 0.15792 0.25660 1.04616
 H2643 H 0.17663 0.19330 1.04057
 H2644 H 0.14028 0.18145 1.05463
 H2645 H 0.11133 0.21300 1.00490
 H2646 H 0.14805 0.22476 0.99118
 C2647 C 0.62415 0.54043 0.21447
 C2648 C 0.63192 0.55017 0.23618
 C2649 C 0.65152 0.54260 0.24283
 C2650 C 0.66170 0.52577 0.22740
 C2651 C 0.64437 0.50802 0.22517
 C2652 C 0.62473 0.51567 0.21850
 C2653 C 0.64284 0.54472 0.19857
 C2654 C 0.66231 0.53705 0.20526
 H2655 H 0.62244 0.56066 0.24657
 H2656 H 0.65840 0.54721 0.25837
 H2657 H 0.64716 0.49103 0.22894
 H2658 H 0.61074 0.50513 0.21671
 H2659 H 0.64089 0.55318 0.18325
 H2660 H 0.67689 0.53886 0.19562
 C2661 C 0.62185 1.03591 0.71444
 C2662 C 0.62742 1.01204 0.70931
 C2663 C 0.64747 1.00590 0.71601
 C2664 C 0.66026 1.02398 0.72758
 C2665 C 0.66046 1.04306 0.71163
 C2666 C 0.64051 1.04922 0.70475
 C2667 C 0.62515 1.03744 0.73925
 C2668 C 0.64527 1.03128 0.74608
 H2669 H 0.61610 1.00040 0.70251
 H2670 H 0.65308 0.98927 0.71446
 H2671 H 0.67508 1.05139 0.70657
 H2672 H 0.63818 1.06270 0.69364
 H2673 H 0.61252 1.04192 0.75061
 H2674 H 0.64977 1.03085 0.76309
 C2675 C 0.87611 0.46411 0.28952
 C2676 C 0.85738 0.44844 0.29459
 C2677 C 0.83785 0.45492 0.28684
 C2678 C 0.83847 0.47667 0.27481
 C2679 C 0.84902 0.49270 0.29086
 C2680 C 0.86864 0.48628 0.29839
 C2681 C 0.87526 0.46712 0.26466
 C2682 C 0.85556 0.47364 0.25699
 H2683 H 0.85938 0.43329 0.30339
 H2684 H 0.82330 0.44524 0.28883
 H2685 H 0.84250 0.50860 0.29472
 H2686 H 0.87847 0.49730 0.30791
 H2687 H 0.88909 0.46478 0.25408
 H2688 H 0.85255 0.47672 0.23992
 C2689 C 0.87453 0.95840 0.78762
 C2690 C 0.87433 0.98297 0.78261
 C2691 C 0.85478 0.99067 0.77571
 C2692 C 0.83708 0.97318 0.77430
 C2693 C 0.84685 0.95554 0.75957
 C2694 C 0.86635 0.94794 0.76636
 C2695 C 0.85589 0.95513 0.80382
 C2696 C 0.83647 0.96288 0.79693
 H2697 H 0.88849 0.99334 0.78399
 H2698 H 0.85225 1.00756 0.77134
 H2699 H 0.83981 0.95040 0.74427
 H2700 H 0.87552 0.93701 0.75617
 H2701 H 0.85785 0.94740 0.81953
 H2702 H 0.82197 0.96191 0.80679
 C2703 C 0.37452 0.29054 0.78776
 C2704 C 0.39298 0.29364 0.80426
 C2705 C 0.41244 0.28578 0.79765
 C2706 C 0.41204 0.27555 0.77499
 C2707 C 0.39423 0.25817 0.77606
 C2708 C 0.37463 0.26598 0.78266
 C2709 C 0.38302 0.30101 0.76667
 C2710 C 0.40255 0.29331 0.76016
 H2711 H 0.39086 0.30136 0.81994
 H2712 H 0.42682 0.28667 0.80771
 H2713 H 0.39670 0.24128 0.77168
 H2714 H 0.36039 0.25570 0.78377
 H2715 H 0.37405 0.31206 0.75640
 H2716 H 0.40980 0.29848 0.74499
 C2717 C 0.87636 0.28646 0.29465
 C2718 C 0.88504 0.26582 0.30600
 C2719 C 0.90440 0.25880 0.29821
 C2720 C 0.91353 0.27275 0.27966
 C2721 C 0.89541 0.27315 0.26261
 C2722 C 0.87602 0.28027 0.27042
 C2723 C 0.89497 0.30299 0.29672
 C2724 C 0.91424 0.29589 0.28885
 H2725 H 0.87672 0.25651 0.31830
 H2726 H 0.91201 0.24412 0.30428
 H2727 H 0.89755 0.26802 0.24591
 H2728 H 0.86163 0.28112 0.26034
 H2729 H 0.89315 0.31897 0.30394
 H2730 H 0.92877 0.30582 0.28931
 C2731 C 0.37761 0.79001 0.46628
 C2732 C 0.35910 0.79482 0.45031
 C2733 C 0.33943 0.78756 0.45687
 C2734 C 0.33971 0.77619 0.47897
 C2735 C 0.35664 0.75806 0.47674
 C2736 C 0.37646 0.76528 0.47015
 C2737 C 0.36998 0.79980 0.48806
 C2738 C 0.35017 0.79267 0.49454
 H2739 H 0.36131 0.80325 0.43500
 H2740 H 0.32494 0.78968 0.44713
 H2741 H 0.35346 0.74113 0.48044
 H2742 H 0.39020 0.75445 0.46835
 H2743 H 0.37972 0.80984 0.49868
 H2744 H 0.34333 0.79724 0.51010
 C2745 C 0.37625 0.28918 0.96454
 C2746 C 0.35766 0.29434 0.94875
 C2747 C 0.33799 0.28690 0.95519
 C2748 C 0.33832 0.27497 0.97700
 C2749 C 0.35524 0.25693 0.97425
 C2750 C 0.37506 0.26433 0.96781
 C2751 C 0.36869 0.29840 0.98654
 C2752 C 0.34892 0.29109 0.99292
 H2753 H 0.35983 0.30314 0.93365
 H2754 H 0.32346 0.28923 0.94555
 H2755 H 0.35205 0.23989 0.97748
 H2756 H 0.38878 0.25354 0.96567
 H2757 H 0.37844 0.30823 0.99735
 H2758 H 0.34222 0.29531 1.00862
 C2759 C 0.78842 0.45915 0.37466
 C2760 C 0.80459 0.45545 0.35607
 C2761 C 0.79796 0.46326 0.33656
 C2762 C 0.77560 0.47402 0.33703
 C2763 C 0.76047 0.45674 0.34693
 C2764 C 0.76701 0.44912 0.36651
 C2765 C 0.78396 0.48384 0.37429
 C2766 C 0.77732 0.49159 0.35462
 H2767 H 0.82012 0.44745 0.35816
 H2768 H 0.80787 0.46210 0.32211
 H2769 H 0.74506 0.45190 0.33994
 H2770 H 0.75655 0.43851 0.37578
 H2771 H 0.78551 0.49426 0.38840
 H2772 H 0.77336 0.50855 0.35194
 C2773 C 0.79006 0.96426 0.87579
 C2774 C 0.79437 0.94798 0.85737
 C2775 C 0.78687 0.95440 0.83768
 C2776 C 0.77582 0.97667 0.83785
 C2777 C 0.75799 0.97480 0.85508
 C2778 C 0.76541 0.96837 0.87492
 C2779 C 0.79992 0.98585 0.86774
 C2780 C 0.79261 0.99218 0.84797
 H2781 H 0.80256 0.93256 0.85969
 H2782 H 0.78850 0.94441 0.82328
 H2783 H 0.74108 0.97854 0.85205
 H2784 H 0.75479 0.96674 0.88883
 H2785 H 0.81012 0.99659 0.87717
 H2786 H 0.79728 1.00767 0.84098
 C2787 C 0.29188 0.78466 0.37268
 C2788 C 0.26731 0.78030 0.37354
 C2789 C 0.26001 0.77352 0.39328
 C2790 C 0.27790 0.77160 0.41051
 C2791 C 0.29475 0.75637 0.40028
 C2792 C 0.30199 0.76305 0.38052
 C2793 C 0.29617 0.80071 0.39131
 C2794 C 0.28885 0.79395 0.41092
 H2795 H 0.25662 0.78200 0.35966
 H2796 H 0.24315 0.76953 0.39624
 H2797 H 0.29971 0.74100 0.40732
 H2798 H 0.31262 0.75275 0.37114
 H2799 H 0.30441 0.81616 0.38923
 H2800 H 0.29074 0.80367 0.42549
 C2801 C 0.28783 0.28371 0.87301
 C2802 C 0.26297 0.28132 0.87430
 C2803 C 0.25555 0.27478 0.89410
 C2804 C 0.27363 0.27108 0.91081
 C2805 C 0.28894 0.25471 0.89981
 C2806 C 0.29626 0.26120 0.88006
 C2807 C 0.29377 0.29899 0.89182
 C2808 C 0.28632 0.29245 0.91143
 H2809 H 0.25217 0.28395 0.86066
 H2810 H 0.23851 0.27201 0.89737
 H2811 H 0.29251 0.23868 0.90621
 H2812 H 0.30543 0.25022 0.86989
 H2813 H 0.30304 0.31384 0.88982
 H2814 H 0.28912 0.30178 0.92612
 C2815 C 0.45985 0.28440 0.87615
 C2816 C 0.45535 0.30039 0.85752
 C2817 C 0.46278 0.29374 0.83791
 C2818 C 0.47397 0.27155 0.83836
 C2819 C 0.49188 0.27376 0.85551
 C2820 C 0.48451 0.28044 0.87528
 C2821 C 0.45009 0.26263 0.86845
 C2822 C 0.45734 0.25607 0.84874
 H2823 H 0.44708 0.31580 0.85965
 H2824 H 0.46101 0.30352 0.82337
 H2825 H 0.50879 0.27007 0.85249
 H2826 H 0.49520 0.28230 0.88914
 H2827 H 0.44005 0.25196 0.87809
 H2828 H 0.45278 0.24043 0.84200
 C2829 C 0.96444 0.29211 0.37561
 C2830 C 0.98568 0.30264 0.36752
 C2831 C 0.99261 0.29488 0.34809
 C2832 C 0.97798 0.27711 0.33839
 C2833 C 0.97654 0.25975 0.35621
 C2834 C 0.96951 0.26758 0.37566
 C2835 C 0.94837 0.29520 0.35679
 C2836 C 0.95538 0.28731 0.33749
 H2837 H 0.99564 0.31391 0.37656
 H2838 H 1.00782 0.30011 0.34100
 H2839 H 0.98099 0.24286 0.35384
 H2840 H 0.96805 0.25733 0.38990
 H2841 H 0.93272 0.30302 0.35851
 H2842 H 0.94570 0.28831 0.32284
 C2843 C 0.46347 0.37349 0.79185
 C2844 C 0.44696 0.35501 0.79496
 C2845 C 0.45365 0.33541 0.78742
 C2846 C 0.47639 0.33572 0.77750
 C2847 C 0.47555 0.35337 0.75995
 C2848 C 0.46886 0.37310 0.76744
 C2849 C 0.48435 0.36504 0.80279
 C2850 C 0.49097 0.34535 0.79535
 H2851 H 0.43126 0.35718 0.80257
 H2852 H 0.44364 0.32096 0.78846
 H2853 H 0.48013 0.35069 0.74318
 H2854 H 0.46783 0.38725 0.75699
 H2855 H 0.49415 0.37383 0.81439
 H2856 H 0.50582 0.33787 0.80107
 C2857 C 0.95680 0.37323 0.28953
 C2858 C 0.94220 0.36194 0.27256
 C2859 C 0.95011 0.34276 0.26519
 C2860 C 0.97181 0.33610 0.27553
 C2861 C 0.98702 0.35534 0.27140
 C2862 C 0.97919 0.37470 0.27869
 C2863 C 0.95947 0.35585 0.30733
 C2864 C 0.96737 0.33657 0.30004
 H2865 H 0.92605 0.36704 0.26803
 H2866 H 0.94086 0.33260 0.25417
 H2867 H 1.00258 0.35389 0.26337
 H2868 H 0.98811 0.38978 0.27684
 H2869 H 0.95509 0.35832 0.32419
 H2870 H 0.96994 0.32279 0.31069
 C2871 C 0.28642 0.87675 0.45786
 C2872 C 0.26452 0.86930 0.44819
 C2873 C 0.25763 0.84966 0.45558
 C2874 C 0.27294 0.83915 0.47222
 C2875 C 0.29502 0.83832 0.46091
 C2876 C 0.30198 0.85781 0.45339
 C2877 C 0.28252 0.87604 0.48256
 C2878 C 0.27552 0.85640 0.49005
 H2879 H 0.25407 0.87906 0.43801
 H2880 H 0.24197 0.84302 0.45109
 H2881 H 0.30446 0.82358 0.45907
 H2882 H 0.31733 0.85963 0.44500
 H2883 H 0.28465 0.88994 0.49318
 H2884 H 0.27179 0.85354 0.50701
 C2885 C 0.28510 0.37587 0.95881
 C2886 C 0.30109 0.35715 0.95489
 C2887 C 0.29433 0.33762 0.96252
 C2888 C 0.27204 0.33822 0.97340
 C2889 C 0.27393 0.35569 0.99105
 C2890 C 0.28067 0.37537 0.98344
 C2891 C 0.26359 0.36795 0.94874
 C2892 C 0.25689 0.34830 0.95628
 H2893 H 0.31652 0.35913 0.94669
 H2894 H 0.30400 0.32300 0.96092
 H2895 H 0.26990 0.35297 1.00796
 H2896 H 0.28226 0.38945 0.99393
 H2897 H 0.25335 0.37735 0.93803
 H2898 H 0.24149 0.34130 0.95142
 C2899 C 0.79288 0.37557 0.28752
 C2900 C 0.79587 0.39439 0.30368
 C2901 C 0.78793 0.41373 0.29670
 C2902 C 0.77775 0.41286 0.27404
 C2903 C 0.79554 0.40320 0.25943
 C2904 C 0.80335 0.38378 0.26634
 C2905 C 0.76840 0.37546 0.28237
 C2906 C 0.76052 0.39495 0.27540
 H2907 H 0.80361 0.39261 0.31940
 H2908 H 0.78874 0.42834 0.30648
 H2909 H 0.80083 0.41036 0.24425
 H2910 H 0.81471 0.37482 0.25645
 H2911 H 0.75823 0.36114 0.28375
 H2912 H 0.74367 0.39728 0.27095
   
