data_POSCAR
  _audit_creation_date              2014-09-24
  _audit_creation_method            'ToBaCCo'
  _symmetry_space_group_name_H-M    'P1'
  _symmetry_Int_Tables_number       1
  _symmetry_cell_setting            triclinic
  loop_
  _symmetry_equiv_pos_as_xyz
 x,y,z
_cell_length_a 38.7649
_cell_length_b 39.4202
_cell_length_c 48.7433
_cell_angle_alpha 89.934100
_cell_angle_beta 89.965700
_cell_angle_gamma 90.029300
loop_
  _atom_site_label
  _atom_site_type_symbol
  _atom_site_fract_x
  _atom_site_fract_y
  _atom_site_fract_z
Zr1 Zr 0.24670 0.25028 0.29766
 O2 O 0.27326 0.27726 0.32870
 O3 O 0.21162 0.22143 0.32067
 O4 O 0.21346 0.28375 0.31854
 O5 O 0.30866 0.18769 0.29036
 O6 O 0.18745 0.31416 0.28440
 O7 O 0.27778 0.21808 0.32183
 O8 O 0.17959 0.19451 0.28794
 O9 O 0.20222 0.25275 0.27341
 O10 O 0.24516 0.20515 0.27521
 O11 O 0.25237 0.29424 0.27357
 O12 O 0.29372 0.24845 0.27583
 Zr13 Zr 0.25250 0.24912 0.20212
 Zr14 Zr 0.20904 0.29502 0.24791
 Zr15 Zr 0.29023 0.20431 0.25190
 Zr16 Zr 0.20202 0.20849 0.25007
 O17 O 0.34482 0.20510 0.25218
 O18 O 0.14872 0.22022 0.24779
 O19 O 0.24692 0.20469 0.22599
 O20 O 0.20594 0.25081 0.22424
 O21 O 0.25416 0.29455 0.22428
 O22 O 0.29664 0.24662 0.22671
 C23 C 0.18711 0.20171 0.31297
 C24 C 0.30056 0.19584 0.31510
 C25 C 0.19248 0.30658 0.30974
 O26 O 0.15468 0.29404 0.24412
 O27 O 0.19488 0.31564 0.20964
 O28 O 0.22420 0.28399 0.17808
 C29 C 0.20327 0.30790 0.18490
 O30 O 0.31982 0.30920 0.28659
 Zr31 Zr 0.29719 0.29088 0.24976
 O32 O 0.28751 0.27806 0.17913
 O33 O 0.21683 0.34811 0.24942
 O34 O 0.29211 0.34444 0.24925
 O35 O 0.35102 0.28125 0.24955
 O36 O 0.31662 0.30820 0.21176
 C37 C 0.30994 0.30008 0.18677
 O38 O 0.22417 0.22412 0.17099
 O39 O 0.28234 0.15124 0.25388
 O40 O 0.28291 0.21321 0.18111
 O41 O 0.30748 0.18159 0.21524
 O42 O 0.20480 0.15488 0.25299
 O43 O 0.18311 0.18600 0.21343
 C44 C 0.30216 0.18891 0.18987
 H45 H 0.24380 0.18468 0.28693
 H46 H 0.18586 0.25139 0.21171
 H47 H 0.31824 0.24460 0.21600
 H48 H 0.25350 0.31479 0.28519
 H49 H 0.13578 0.19943 0.25280
 H50 H 0.14680 0.31795 0.24435
 H51 H 0.19380 0.35879 0.24765
 H52 H 0.31504 0.35406 0.24470
 H53 H 0.18125 0.14646 0.25707
 H54 H 0.30546 0.14071 0.25543
 H55 H 0.35254 0.18114 0.25233
 H56 H 0.36278 0.30284 0.24490
 H57 H 0.16234 0.17232 0.21766
 H58 H 0.23406 0.23128 0.15312
 H59 H 0.26353 0.26993 0.34659
 H60 H 0.33663 0.32733 0.28216
 Zr61 Zr 0.75329 0.74991 0.29781
 O62 O 0.72701 0.72282 0.32902
 O63 O 0.78828 0.77902 0.32064
 O64 O 0.78678 0.71666 0.31869
 O65 O 0.69077 0.81196 0.29047
 O66 O 0.81292 0.68639 0.28457
 O67 O 0.72198 0.78191 0.32196
 O68 O 0.82003 0.80609 0.28774
 O69 O 0.79772 0.74771 0.27345
 O70 O 0.75442 0.79500 0.27523
 O71 O 0.74789 0.70586 0.27385
 O72 O 0.70621 0.75131 0.27608
 Zr73 Zr 0.74724 0.75080 0.20227
 Zr74 Zr 0.79116 0.70534 0.24808
 Zr75 Zr 0.70929 0.79544 0.25202
 Zr76 Zr 0.79752 0.79193 0.24998
 O77 O 0.65471 0.79426 0.25240
 O78 O 0.85090 0.78061 0.24755
 O79 O 0.75253 0.79532 0.22600
 O80 O 0.79386 0.74954 0.22428
 O81 O 0.74599 0.70540 0.22456
 O82 O 0.70315 0.75304 0.22695
 C83 C 0.81267 0.79885 0.31282
 C84 C 0.69898 0.80393 0.31521
 C85 C 0.80787 0.69395 0.30990
 O86 O 0.84551 0.70673 0.24423
 O87 O 0.80550 0.68482 0.20984
 O88 O 0.77583 0.71616 0.17826
 C89 C 0.79702 0.69247 0.18509
 O90 O 0.68060 0.69035 0.28707
 Zr91 Zr 0.70298 0.70881 0.25013
 O92 O 0.71237 0.72154 0.17945
 O93 O 0.78377 0.65220 0.24972
 O94 O 0.70848 0.65530 0.24976
 O95 O 0.64909 0.71809 0.25007
 O96 O 0.68353 0.69130 0.21224
 C97 C 0.69009 0.69941 0.18721
 O98 O 0.77527 0.77597 0.17097
 O99 O 0.71679 0.84856 0.25384
 O100 O 0.71654 0.78647 0.18124
 O101 O 0.69184 0.81799 0.21534
 O102 O 0.79430 0.84552 0.25279
 O103 O 0.81614 0.81453 0.21323
 C104 C 0.69717 0.81067 0.18998
 H105 H 0.75566 0.81550 0.28690
 H106 H 0.81392 0.74909 0.21171
 H107 H 0.68151 0.75489 0.21629
 H108 H 0.74693 0.68532 0.28553
 H109 H 0.86370 0.80151 0.25245
 H110 H 0.85358 0.68288 0.24449
 H111 H 0.80688 0.64169 0.24794
 H112 H 0.68563 0.64549 0.24529
 H113 H 0.81779 0.85413 0.25680
 H114 H 0.69359 0.85894 0.25540
 H115 H 0.64681 0.81816 0.25250
 H116 H 0.63745 0.69643 0.24551
 H117 H 0.83677 0.82843 0.21737
 H118 H 0.76539 0.76868 0.15314
 H119 H 0.73675 0.73025 0.34686
 H120 H 0.66389 0.67212 0.28273
 Zr121 Zr 0.75368 0.24998 -0.29764
 O122 O 0.72740 0.27692 -0.32889
 O123 O 0.78863 0.22078 -0.32044
 O124 O 0.78717 0.28315 -0.31865
 O125 O 0.69119 0.18788 -0.29005
 O126 O 0.81332 0.31360 -0.28465
 O127 O 0.72238 0.21783 -0.32166
 O128 O 0.82038 0.19385 -0.28751
 O129 O 0.79813 0.25234 -0.27334
 O130 O 0.75484 0.20499 -0.27493
 O131 O 0.74830 0.29413 -0.27380
 O132 O 0.70661 0.24864 -0.27586
 Zr133 Zr 0.74769 0.24951 -0.20209
 Zr134 Zr 0.79158 0.29480 -0.24808
 Zr135 Zr 0.70972 0.20463 -0.25168
 Zr136 Zr 0.79795 0.20822 -0.24975
 O137 O 0.65514 0.20578 -0.25199
 O138 O 0.85133 0.21963 -0.24748
 O139 O 0.75297 0.20490 -0.22571
 O140 O 0.79431 0.25072 -0.22416
 O141 O 0.74642 0.29481 -0.22451
 O142 O 0.70359 0.24712 -0.22672
 C143 C 0.81298 0.20095 -0.31259
 C144 C 0.69941 0.19580 -0.31483
 C145 C 0.80826 0.30591 -0.30994
 O146 O 0.84594 0.29349 -0.24427
 O147 O 0.80591 0.31555 -0.20993
 O148 O 0.77626 0.28432 -0.17821
 C149 C 0.79743 0.30801 -0.18515
 O150 O 0.68100 0.30953 -0.28698
 Zr151 Zr 0.70341 0.29125 -0.25002
 O152 O 0.71284 0.27883 -0.17931
 O153 O 0.78419 0.34793 -0.24989
 O154 O 0.70891 0.34477 -0.24983
 O155 O 0.64952 0.28192 -0.24984
 O156 O 0.68400 0.30893 -0.21215
 C157 C 0.69057 0.30093 -0.18710
 O158 O 0.77575 0.22453 -0.17076
 O159 O 0.71717 0.15150 -0.25335
 O160 O 0.71702 0.21390 -0.18093
 O161 O 0.69231 0.18221 -0.21493
 O162 O 0.79474 0.15461 -0.25234
 O163 O 0.81662 0.18582 -0.21296
 C164 C 0.69766 0.18965 -0.18960
 H165 H 0.75605 0.18444 -0.28653
 H166 H 0.81437 0.25125 -0.21161
 H167 H 0.68196 0.24530 -0.21602
 H168 H 0.74734 0.31461 -0.28554
 H169 H 0.86413 0.19873 -0.25234
 H170 H 0.85400 0.31735 -0.24463
 H171 H 0.80730 0.35847 -0.24816
 H172 H 0.68606 0.35457 -0.24535
 H173 H 0.81822 0.14600 -0.25636
 H174 H 0.69396 0.14111 -0.25486
 H175 H 0.64723 0.18187 -0.25200
 H176 H 0.63788 0.30359 -0.24533
 H177 H 0.83729 0.17199 -0.21708
 H178 H 0.76586 0.23187 -0.15294
 H179 H 0.73712 0.26942 -0.34672
 H180 H 0.66427 0.32774 -0.28267
 Zr181 Zr 0.24579 0.75123 -0.29797
 O182 O 0.27206 0.72439 -0.32926
 O183 O 0.21109 0.78079 -0.32077
 O184 O 0.21226 0.71828 -0.31914
 O185 O 0.30866 0.81291 -0.29007
 O186 O 0.18579 0.68775 -0.28525
 O187 O 0.27750 0.78338 -0.32183
 O188 O 0.17936 0.80765 -0.28786
 O189 O 0.20120 0.74893 -0.27378
 O190 O 0.24478 0.79607 -0.27515
 O191 O 0.25079 0.70691 -0.27419
 O192 O 0.29275 0.75214 -0.27605
 Zr193 Zr 0.25127 0.75098 -0.20234
 Zr194 Zr 0.20737 0.70627 -0.24857
 Zr195 Zr 0.28977 0.79602 -0.25177
 Zr196 Zr 0.20152 0.79289 -0.25008
 O197 O 0.34434 0.79456 -0.25194
 O198 O 0.14806 0.78177 -0.24797
 O199 O 0.24638 0.79577 -0.22590
 O200 O 0.20478 0.75022 -0.22456
 O201 O 0.25240 0.70583 -0.22487
 O202 O 0.29550 0.75333 -0.22688
 C203 C 0.18677 0.80070 -0.31297
 C204 C 0.30061 0.80525 -0.31493
 C205 C 0.19104 0.69552 -0.31053
 O206 O 0.15299 0.70790 -0.24497
 O207 O 0.19259 0.68539 -0.21048
 O208 O 0.22227 0.71616 -0.17863
 C209 C 0.20092 0.69264 -0.18563
 O210 O 0.31803 0.69110 -0.28721
 Zr211 Zr 0.29557 0.70936 -0.25028
 O212 O 0.28590 0.72134 -0.17956
 O213 O 0.21447 0.65311 -0.25043
 O214 O 0.28974 0.65587 -0.25017
 O215 O 0.34950 0.71845 -0.25003
 O216 O 0.31480 0.69138 -0.21242
 C217 C 0.30817 0.69924 -0.18736
 O218 O 0.22321 0.77589 -0.17098
 O219 O 0.28260 0.84919 -0.25333
 O220 O 0.28203 0.78637 -0.18103
 O221 O 0.30709 0.81811 -0.21491
 O222 O 0.20510 0.84650 -0.25253
 O223 O 0.18276 0.81518 -0.21329
 C224 C 0.30157 0.81059 -0.18960
 H225 H 0.24375 0.81670 -0.28672
 H226 H 0.18464 0.74972 -0.21206
 H227 H 0.31709 0.75498 -0.21613
 H228 H 0.25171 0.68648 -0.28597
 H229 H 0.13541 0.80278 -0.25281
 H230 H 0.14478 0.68409 -0.24539
 H231 H 0.19129 0.64269 -0.24878
 H232 H 0.31251 0.64591 -0.24566
 H233 H 0.18170 0.85528 -0.25662
 H234 H 0.30587 0.85947 -0.25477
 H235 H 0.35239 0.81842 -0.25186
 H236 H 0.36102 0.69670 -0.24554
 H237 H 0.16221 0.82917 -0.21745
 H238 H 0.23297 0.76834 -0.15317
 H239 H 0.26248 0.73210 -0.34709
 H240 H 0.33464 0.67279 -0.28289
 Zr241 Zr 1.25277 1.24943 0.79778
 O242 O 1.22620 1.22185 0.82855
 O243 O 1.28706 1.27869 0.82115
 O244 O 1.28626 1.21629 0.81878
 O245 O 1.19018 1.31134 0.79029
 O246 O 1.31308 1.18653 0.78470
 O247 O 1.22112 1.28110 0.82185
 O248 O 1.31897 1.30649 0.78876
 O249 O 1.29757 1.24775 0.77385
 O250 O 1.25390 1.29473 0.77545
 O251 O 1.24794 1.20559 0.77354
 O252 O 1.20595 1.25076 0.77568
 Zr253 Zr 1.24796 1.25125 0.70225
 Zr254 Zr 1.29156 1.20560 0.74816
 Zr255 Zr 1.20907 1.29512 0.75189
 Zr256 Zr 1.29740 1.29218 0.75064
 O257 O 1.15450 1.29348 0.75195
 O258 O 1.35085 1.28101 0.74887
 O259 O 1.25269 1.29555 0.72629
 O260 O 1.29432 1.25002 0.72463
 O261 O 1.24671 1.20566 0.72427
 O262 O 1.20350 1.25293 0.72652
 C263 C 1.31123 1.29902 0.81372
 C264 C 1.19823 1.30318 0.81504
 C265 C 1.30766 1.19383 0.81003
 O266 O 1.34593 1.20731 0.74454
 O267 O 1.30613 1.18529 0.70992
 O268 O 1.27681 1.21687 0.67828
 C269 C 1.29782 1.19307 0.68517
 O270 O 1.18041 1.18974 0.78607
 Zr271 Zr 1.20333 1.20849 0.74944
 O272 O 1.21377 1.22188 0.67890
 O273 O 1.28454 1.15239 0.74961
 O274 O 1.20916 1.15501 0.74900
 O275 O 1.14938 1.21736 0.74873
 O276 O 1.18486 1.19092 0.71121
 C277 C 1.19177 1.19928 0.68628
 O278 O 1.27634 1.27690 0.67142
 O279 O 1.21608 1.34829 0.75399
 O280 O 1.21728 1.28687 0.68114
 O281 O 1.19188 1.31787 0.71522
 O282 O 1.29389 1.34575 0.75350
 O283 O 1.31660 1.31509 0.71420
 C284 C 1.19760 1.31084 0.68987
 H285 H 1.25484 1.31516 0.78721
 H286 H 1.31453 1.24976 0.71221
 H287 H 1.18201 1.25470 0.71565
 H288 H 1.24697 1.18495 0.78511
 H289 H 1.36348 1.30189 0.75408
 H290 H 1.35412 1.18350 0.74475
 H291 H 1.30773 1.14204 0.74788
 H292 H 1.18644 1.14509 0.74426
 H293 H 1.31728 1.35446 0.75775
 H294 H 1.19279 1.35847 0.75546
 H295 H 1.14640 1.31732 0.75210
 H296 H 1.13802 1.19565 0.74390
 H297 H 1.33727 1.32881 0.71861
 H298 H 1.26680 1.26974 0.65345
 H299 H 1.23561 1.22916 0.84653
 H300 H 1.16386 1.17146 0.78149
 Zr301 Zr 0.74722 0.75084 0.79762
 O302 O 0.77395 0.77852 0.82816
 O303 O 0.71285 0.72190 0.82123
 O304 O 0.71388 0.78422 0.81850
 O305 O 0.80954 0.68866 0.79037
 O306 O 0.68710 0.81388 0.78432
 O307 O 0.77879 0.71922 0.82181
 O308 O 0.68073 0.69407 0.78906
 O309 O 0.70238 0.75255 0.77377
 O310 O 0.74585 0.70541 0.77556
 O311 O 0.75218 0.79452 0.77312
 O312 O 0.79399 0.74916 0.77543
 Zr313 Zr 0.75184 0.74838 0.70210
 Zr314 Zr 0.70851 0.79452 0.74783
 Zr315 Zr 0.79064 0.70467 0.75191
 Zr316 Zr 0.70233 0.70797 0.75082
 O317 O 0.84521 0.70605 0.75184
 O318 O 0.64891 0.71932 0.74905
 O319 O 0.74697 0.70424 0.72640
 O320 O 0.70553 0.74997 0.72457
 O321 O 0.75332 0.79411 0.72385
 O322 O 0.79634 0.74669 0.72630
 C323 C 0.68856 0.70167 0.81396
 C324 C 0.80158 0.69703 0.81508
 C325 C 0.69253 0.80669 0.80968
 O326 O 0.65413 0.79302 0.74433
 O327 O 0.69397 0.81463 0.70951
 O328 O 0.72310 0.78273 0.67800
 C329 C 0.70220 0.80665 0.68479
 O330 O 0.81979 0.81013 0.78543
 Zr331 Zr 0.79673 0.79126 0.74896
 O332 O 0.78612 0.77744 0.67852
 O333 O 0.71575 0.84771 0.74896
 O334 O 0.79113 0.84476 0.74819
 O335 O 0.85065 0.78219 0.74820
 O336 O 0.81522 0.80846 0.71060
 C337 C 0.80824 0.79997 0.68574
 O338 O 0.72328 0.72266 0.67149
 O339 O 0.78337 0.65154 0.75435
 O340 O 0.78236 0.71253 0.68113
 O341 O 0.80771 0.68163 0.71533
 O342 O 0.70559 0.65442 0.75405
 O343 O 0.68299 0.68489 0.71456
 C344 C 0.80198 0.68855 0.68994
 H345 H 0.74485 0.68506 0.78745
 H346 H 0.68530 0.75023 0.71219
 H347 H 0.81780 0.74476 0.71540
 H348 H 0.75325 0.81523 0.78457
 H349 H 0.63621 0.69852 0.75442
 H350 H 0.64604 0.81687 0.74441
 H351 H 0.69260 0.85813 0.74721
 H352 H 0.81389 0.85455 0.74334
 H353 H 0.68217 0.64584 0.75838
 H354 H 0.80662 0.64127 0.75584
 H355 H 0.85320 0.68218 0.75213
 H356 H 0.86208 0.80384 0.74324
 H357 H 0.66230 0.67126 0.71909
 H358 H 0.73284 0.72965 0.65346
 H359 H 0.76455 0.77137 0.84620
 H360 H 0.83637 0.82835 0.78072
 Zr361 Zr 1.25319 0.75087 0.20237
 O362 O 1.22673 0.77868 0.17171
 O363 O 1.28743 0.72171 0.17888
 O364 O 1.28679 0.78407 0.18151
 O365 O 1.19046 0.68901 0.20959
 O366 O 1.31364 0.81361 0.21569
 O367 O 1.22153 0.71940 0.17816
 O368 O 1.31924 0.69367 0.21116
 O369 O 1.29796 0.75237 0.22631
 O370 O 1.25419 0.70545 0.22451
 O371 O 1.24843 0.79459 0.22678
 O372 O 1.20633 0.74948 0.22445
 Zr373 Zr 1.24824 0.74851 0.29787
 Zr374 Zr 1.29202 0.79438 0.25216
 Zr375 Zr 1.20931 0.70498 0.24806
 Zr376 Zr 1.29766 0.70780 0.24934
 O377 O 1.15476 0.70670 0.24801
 O378 O 1.35113 0.71890 0.25113
 O379 O 1.25290 0.70435 0.27366
 O380 O 1.29465 0.74982 0.27551
 O381 O 1.24713 0.79424 0.27604
 O382 O 1.20381 0.74703 0.27360
 C383 C 1.31153 0.70130 0.18623
 C384 C 1.19858 0.69730 0.18487
 C385 C 1.30822 0.80644 0.19035
 O386 O 1.34638 0.79260 0.25579
 O387 O 1.30656 0.81446 0.29048
 O388 O 1.27710 0.78272 0.32198
 C389 C 1.29816 0.80655 0.31520
 O390 O 1.18095 0.81060 0.21430
 Zr391 Zr 1.20377 0.79161 0.25086
 O392 O 1.21408 0.77777 0.32135
 O393 O 1.28514 0.84760 0.25090
 O394 O 1.20973 0.84507 0.25150
 O395 O 1.14980 0.78281 0.25155
 O396 O 1.18529 0.80896 0.28916
 C397 C 1.19215 0.80044 0.31406
 O398 O 1.27654 0.72265 0.32859
 O399 O 1.21619 0.65181 0.24576
 O400 O 1.21746 0.71282 0.31883
 O401 O 1.19203 0.68205 0.28464
 O402 O 1.29404 0.65425 0.24629
 O403 O 1.31674 0.68465 0.28569
 C404 C 1.19774 0.68894 0.31001
 H405 H 1.25509 0.68508 0.21268
 H406 H 1.31483 0.74998 0.28794
 H407 H 1.18231 0.74523 0.28446
 H408 H 1.24753 0.81530 0.21529
 H409 H 1.36372 0.69804 0.24584
 H410 H 1.35462 0.81640 0.25566
 H411 H 1.30836 0.85790 0.25269
 H412 H 1.18703 0.85499 0.25629
 H413 H 1.31741 0.64554 0.24201
 H414 H 1.19287 0.64168 0.24426
 H415 H 1.14660 0.68288 0.24777
 H416 H 1.13849 0.80452 0.25644
 H417 H 1.33742 0.67098 0.28123
 H418 H 1.26698 0.72970 0.34659
 H419 H 1.23616 0.77148 0.15370
 H420 H 1.16443 0.82887 0.21895
 Zr421 Zr 0.74772 1.24911 0.20209
 O422 O 0.77426 1.22156 0.17136
 O423 O 0.71369 1.27867 0.17867
 O424 O 0.71413 1.21619 0.18096
 O425 O 0.81071 1.31066 0.20990
 O426 O 0.68697 1.18640 0.21492
 O427 O 0.77975 1.28078 0.17818
 O428 O 0.68181 1.30645 0.21102
 O429 O 0.70279 1.24751 0.22591
 O430 O 0.74676 1.29428 0.22450
 O431 O 0.75213 1.20511 0.22633
 O432 O 0.79443 1.25004 0.22437
 Zr433 Zr 0.75203 1.25034 0.29772
 Zr434 Zr 0.70837 1.20519 0.25157
 Zr435 Zr 0.79148 1.29429 0.24821
 Zr436 Zr 0.70313 1.29182 0.24918
 O437 O 0.84602 1.29232 0.24836
 O438 O 0.64959 1.28093 0.25077
 O439 O 0.74772 1.29478 0.27369
 O440 O 0.70579 1.24951 0.27515
 O441 O 0.75309 1.20486 0.27562
 O442 O 0.79662 1.25194 0.27357
 C443 C 0.68960 1.29907 0.18606
 C444 C 0.80275 1.30271 0.18509
 C445 C 0.69256 1.19379 0.18961
 O446 O 0.65399 1.20720 0.25496
 O447 O 0.69332 1.18477 0.28973
 O448 O 0.72273 1.21597 0.32152
 C449 C 0.70153 1.19235 0.31454
 O450 O 0.81958 1.18885 0.21402
 Zr451 Zr 0.79663 1.20762 0.25059
 O452 O 0.78597 1.22069 0.32113
 O453 O 0.71507 1.15196 0.25010
 O454 O 0.79041 1.15418 0.25097
 O455 O 0.85063 1.21624 0.25143
 O456 O 0.81489 1.18981 0.28885
 C457 C 0.80793 1.19807 0.31378
 O458 O 0.72366 1.27594 0.32852
 O459 O 0.78483 1.34751 0.24617
 O460 O 0.78279 1.28578 0.31895
 O461 O 0.80856 1.31680 0.28498
 O462 O 0.70704 1.34538 0.24643
 O463 O 0.68390 1.31467 0.28559
 C464 C 0.80264 1.30971 0.31032
 H465 H 0.74602 1.31478 0.21278
 H466 H 0.68551 1.24930 0.28750
 H467 H 0.81806 1.25356 0.28451
 H468 H 0.75303 1.18452 0.21474
 H469 H 0.63713 1.30190 0.24555
 H470 H 0.64563 1.18344 0.25466
 H471 H 0.69180 1.14172 0.25171
 H472 H 0.81303 1.14410 0.25578
 H473 H 0.68374 1.35425 0.24211
 H474 H 0.80820 1.35757 0.24481
 H475 H 0.85429 1.31611 0.24831
 H476 H 0.86184 1.19445 0.25626
 H477 H 0.66334 1.32850 0.28113
 H478 H 0.73309 1.26863 0.34650
 H479 H 0.76499 1.22903 0.15337
 H480 H 0.83601 1.17049 0.21864
 O481 O 0.45992 1.06437 0.01905
 O482 O 0.53993 0.93521 0.01871
 O483 O 0.43429 0.96040 0.01867
 O484 O 0.56559 1.03915 0.01888
 O485 O 0.48196 0.94158 0.03379
 O486 O 0.51794 1.05781 0.03414
 O487 O 0.55892 0.98207 0.03397
 O488 O 0.44073 1.01738 0.03402
 C489 C 0.44422 1.04817 0.03713
 C490 C 0.55546 0.95125 0.03692
 C491 C 0.45067 0.94518 0.03687
 C492 C 0.54926 1.05434 0.03711
 O493 O 0.53970 1.06469 -0.01892
 O494 O 0.46020 0.93519 -0.01926
 O495 O 0.43413 1.03906 -0.01890
 O496 O 0.56576 0.96086 -0.01907
 O497 O 0.51818 0.94208 -0.03436
 O498 O 0.48173 1.05814 -0.03401
 O499 O 0.55894 1.01790 -0.03413
 O500 O 0.44088 0.98210 -0.03425
 Co501 Co 0.49984 1.05523 0.00005
 Co502 Co 0.50005 0.94454 -0.00027
 Co503 Co 0.44363 0.99975 -0.00011
 Co504 Co 0.55617 0.99998 -0.00009
 O505 O 0.49992 0.99988 -0.00011
 C506 C 0.55536 1.04869 -0.03709
 C507 C 0.44442 0.95131 -0.03732
 C508 C 0.45045 1.05447 -0.03706
 C509 C 0.54949 0.94568 -0.03734
 O510 O 0.95982 0.56433 0.51897
 O511 O 1.03997 0.43535 0.51888
 O512 O 0.93429 0.46031 0.51858
 O513 O 1.06554 0.53934 0.51884
 O514 O 0.98195 0.44164 0.53382
 O515 O 1.01783 0.55791 0.53404
 O516 O 1.05891 0.48228 0.53407
 O517 O 0.94065 0.51731 0.53393
 C518 C 0.94412 0.54811 0.53704
 C519 C 1.05550 0.45146 0.53706
 C520 C 0.95064 0.44513 0.53681
 C521 C 1.04916 0.55457 0.53703
 O522 O 1.03961 0.56469 0.48096
 O523 O 0.96038 0.43514 0.48071
 O524 O 0.93407 0.53898 0.48102
 O525 O 1.06590 0.46090 0.48110
 O526 O 1.01839 0.44205 0.46574
 O527 O 0.98167 0.55803 0.46589
 O528 O 1.05900 0.51788 0.46590
 O529 O 0.94097 0.48200 0.46568
 Co530 Co 0.99975 0.55522 0.49996
 Co531 Co 1.00015 0.44457 0.49979
 Co532 Co 0.94363 0.49967 0.49981
 Co533 Co 1.05620 0.50008 0.49997
 O534 O 0.99993 0.49989 0.49988
 C535 C 1.05533 0.54865 0.46284
 C536 C 0.94460 0.45122 0.46262
 C537 C 0.95038 0.55437 0.46285
 C538 C 1.04970 0.44568 0.46281
 O539 O 1.04424 0.48431 0.04667
 O540 O 1.04404 0.51786 -0.04769
 O541 O 1.04298 0.44279 -0.01587
 O542 O 1.04332 0.55892 0.01502
 O543 O 1.02230 0.46097 -0.05322
 O544 O 1.02257 0.54104 0.05244
 O545 O 1.02658 0.56508 -0.03142
 O546 O 1.02662 0.43703 0.03064
 C547 C 1.04855 0.45348 0.04389
 C548 C 1.04828 0.54875 -0.04503
 C549 C 1.04537 0.44529 -0.04095
 C550 C 1.04574 0.55654 0.04010
 O551 O 0.95749 0.51770 0.04676
 O552 O 0.95729 0.48419 -0.04746
 O553 O 0.95825 0.44297 0.01550
 O554 O 0.95838 0.55907 -0.01579
 O555 O 0.97892 0.54102 -0.05320
 O556 O 0.97920 0.46098 0.05275
 O557 O 0.97505 0.56499 0.03058
 O558 O 0.97471 0.43697 -0.03107
 Co559 Co 1.00086 0.50101 0.04453
 Co560 Co 1.00066 0.50101 -0.04529
 Co561 Co 1.00064 0.44585 -0.00021
 Co562 Co 1.00084 0.55610 -0.00039
 O563 O 1.00075 0.50099 -0.00035
 C564 C 0.95315 0.54853 0.04393
 C565 C 0.95292 0.45337 -0.04453
 C566 C 0.95604 0.44528 0.04061
 C567 C 0.95583 0.55656 -0.04085
 O568 O 0.54287 0.98316 0.54770
 O569 O 0.54274 1.01556 0.45324
 O570 O 0.54121 0.94106 0.48486
 O571 O 0.54186 1.05720 0.51626
 O572 O 0.52011 0.95887 0.44762
 O573 O 0.52065 1.03982 0.55359
 O574 O 0.52584 1.06295 0.46973
 O575 O 0.52553 0.93579 0.53147
 C576 C 0.54743 0.95239 0.54466
 C577 C 0.54740 1.04636 0.45615
 C578 C 0.54334 0.94330 0.45974
 C579 C 0.54399 1.05518 0.54138
 O580 O 0.45596 1.01595 0.54777
 O581 O 0.45565 0.98297 0.45354
 O582 O 0.45677 0.94157 0.51699
 O583 O 0.45722 1.05748 0.48470
 O584 O 0.47816 1.03958 0.44745
 O585 O 0.47824 0.95932 0.55407
 O586 O 0.47322 1.06319 0.53115
 O587 O 0.47251 0.93568 0.47033
 Co588 Co 0.49941 0.99955 0.54559
 Co589 Co 0.49918 0.99926 0.45564
 Co590 Co 0.49902 0.94434 0.50089
 Co591 Co 0.49952 1.05439 0.50048
 O592 O 0.49928 0.99938 0.50064
 C593 C 0.45142 1.04671 0.54459
 C594 C 0.45092 0.95224 0.45677
 C595 C 0.45486 0.94373 0.54213
 C596 C 0.45499 1.05521 0.45961
 O597 O 1.06536 1.02576 0.46990
 O598 O 0.93592 1.02560 0.53065
 O599 O 0.95984 1.01990 0.44716
 O600 O 1.04148 1.01987 0.55337
 O601 O 0.94189 1.04100 0.48422
 O602 O 1.05955 1.04096 0.51627
 O603 O 0.98410 1.04209 0.54736
 O604 O 1.01711 1.04226 0.45334
 C605 C 1.04826 1.04711 0.45664
 C606 C 0.95293 1.04686 0.54406
 C607 C 0.94450 1.04310 0.45916
 C608 C 1.05674 1.04313 0.54131
 O609 O 1.06521 0.97323 0.53101
 O610 O 0.93624 0.97324 0.46955
 O611 O 1.04196 0.97913 0.44743
 O612 O 0.95942 0.97887 0.55312
 O613 O 0.94167 0.95792 0.51593
 O614 O 1.05963 0.95796 0.48458
 O615 O 1.01690 0.95662 0.54747
 O616 O 0.98460 0.95669 0.45325
 Co617 Co 1.05660 0.99946 0.50042
 Co618 Co 0.94476 0.99945 0.50011
 Co619 Co 1.00086 0.99948 0.45540
 Co620 Co 1.00049 0.99936 0.54524
 O621 O 1.00068 0.99943 0.50030
 C622 C 1.04814 0.95196 0.54443
 C623 C 0.95338 0.95192 0.45633
 C624 C 1.05707 0.95584 0.45953
 C625 C 0.94430 0.95564 0.54096
 O626 O 0.55893 0.54216 -0.01526
 O627 O 0.44076 0.54197 0.01518
 O628 O 0.48283 0.54287 -0.04715
 O629 O 0.51666 0.54267 0.04690
 O630 O 0.43476 0.52536 -0.03117
 O631 O 0.56482 0.52538 0.03102
 O632 O 0.45909 0.52151 0.05250
 O633 O 0.54054 0.52196 -0.05264
 C634 C 0.55561 0.54506 -0.04024
 C635 C 0.44399 0.54468 0.04018
 C636 C 0.45151 0.54699 -0.04435
 C637 C 0.54796 0.54696 0.04410
 O638 O 0.55885 0.45839 0.01534
 O639 O 0.44087 0.45837 -0.01557
 O640 O 0.51709 0.45790 -0.04715
 O641 O 0.48280 0.45756 0.04675
 O642 O 0.43473 0.47491 0.03074
 O643 O 0.56509 0.47525 -0.03097
 O644 O 0.54031 0.47867 0.05265
 O645 O 0.45945 0.47880 -0.05286
 Co646 Co 0.55595 0.50028 0.00002
 Co647 Co 0.44374 0.50017 -0.00019
 Co648 Co 0.49997 0.50037 -0.04495
 Co649 Co 0.49973 0.50012 0.04469
 O650 O 0.49985 0.50024 -0.00011
 C651 C 0.55561 0.45562 0.04035
 C652 C 0.44423 0.45565 -0.04055
 C653 C 0.54837 0.45368 -0.04419
 C654 C 0.45155 0.45324 0.04377
 C655 C 0.35569 1.13334 0.13279
 C656 C 0.35138 1.09473 0.13528
 C657 C 0.36990 1.07694 0.11635
 C658 C 0.39090 1.09951 0.09681
 C659 C 0.41326 1.12171 0.11557
 C660 C 0.39475 1.13949 0.13448
 C661 C 0.34599 1.14170 0.10303
 C662 C 0.36449 1.12393 0.08413
 C663 C 0.33587 1.15269 0.15309
 C664 C 0.32008 1.16901 0.16980
 C665 C 0.41067 1.08058 0.07623
 C666 C 0.42638 1.06551 0.05873
 H667 H 0.33523 1.08246 0.15055
 H668 H 0.36963 1.04942 0.11542
 H669 H 0.44117 1.12329 0.11414
 H670 H 0.40682 1.15631 0.14926
 H671 H 0.32631 1.15996 0.09730
 H672 H 0.36065 1.12699 0.06220
 C673 C 0.85550 0.63300 0.63283
 C674 C 0.85108 0.59439 0.63516
 C675 C 0.86961 0.57667 0.61620
 C676 C 0.89073 0.59930 0.59679
 C677 C 0.91310 0.62132 0.61567
 C678 C 0.89458 0.63904 0.63462
 C679 C 0.84592 0.64157 0.60309
 C680 C 0.86443 0.62386 0.58415
 C681 C 0.83568 0.65230 0.65317
 C682 C 0.81990 0.66861 0.66989
 C683 C 0.91052 0.58045 0.57617
 C684 C 0.92626 0.56542 0.55865
 H685 H 0.83485 0.58207 0.65036
 H686 H 0.86926 0.54916 0.61516
 H687 H 0.94101 0.62285 0.61430
 H688 H 0.90664 0.65575 0.64949
 H689 H 0.82631 0.65993 0.59739
 H690 H 0.86067 0.62707 0.56223
 C691 C 0.64356 0.86600 0.13279
 C692 C 0.65314 0.85737 0.10306
 C693 C 0.63469 0.87510 0.08409
 C694 C 0.60844 0.89973 0.09670
 C695 C 0.62960 0.92234 0.11603
 C696 C 0.64808 0.90459 0.13502
 C697 C 0.60447 0.86004 0.13462
 C698 C 0.58600 0.87778 0.11565
 C699 C 0.66334 0.84671 0.15315
 C700 C 0.67916 0.83046 0.16989
 C701 C 0.58875 0.91863 0.07605
 C702 C 0.57313 0.93376 0.05852
 H703 H 0.67271 0.83897 0.09739
 H704 H 0.63845 0.87187 0.06218
 H705 H 0.63001 0.94985 0.11493
 H706 H 0.66433 0.91689 0.15017
 H707 H 0.59237 0.84337 0.14954
 H708 H 0.55809 0.87632 0.11430
 C709 C 1.14401 0.36626 0.63272
 C710 C 1.10493 0.36028 0.63463
 C711 C 1.08639 0.37804 0.61571
 C712 C 1.10875 0.40003 0.59674
 C713 C 1.13497 0.37543 0.58405
 C714 C 1.15350 0.35768 0.60297
 C715 C 1.14851 0.40485 0.63498
 C716 C 1.12996 0.42262 0.61605
 C717 C 1.16384 0.34694 0.65303
 C718 C 1.17965 0.33066 0.66977
 C719 C 1.08896 0.41893 0.57615
 C720 C 1.07326 0.43403 0.55865
 H721 H 1.09287 0.34359 0.64956
 H722 H 1.05847 0.37657 0.61442
 H723 H 1.13867 0.37224 0.56213
 H724 H 1.17306 0.33930 0.59725
 H725 H 1.16481 0.41714 0.65011
 H726 H 1.13036 0.45013 0.61496
 C727 C 0.64391 1.13431 -0.13249
 C728 C 0.64953 1.09582 -0.13408
 C729 C 0.63095 1.07798 -0.11520
 C730 C 0.60859 1.10042 -0.09660
 C731 C 0.58617 1.12134 -0.11627
 C732 C 0.60475 1.13917 -0.13515
 C733 C 0.65233 1.14384 -0.10273
 C734 C 0.63376 1.12603 -0.08386
 C735 C 0.66379 1.15366 -0.15275
 C736 C 0.67965 1.16991 -0.16948
 C737 C 0.58878 1.08144 -0.07608
 C738 C 0.57309 1.06625 -0.05862
 H739 H 0.66658 1.08365 -0.14875
 H740 H 0.63205 1.05053 -0.11368
 H741 H 0.55819 1.12207 -0.11546
 H742 H 0.59268 1.15518 -0.15052
 H743 H 0.67121 1.16290 -0.09698
 H744 H 0.63673 1.12983 -0.06193
 C745 C 1.14394 0.63362 0.36708
 C746 C 1.15458 0.64104 0.39679
 C747 C 1.13599 0.62338 0.41573
 C748 C 1.10857 0.60001 0.40313
 C749 C 1.12841 0.57729 0.38301
 C750 C 1.14702 0.59498 0.36404
 C751 C 1.10505 0.64091 0.36604
 C752 C 1.08645 0.62324 0.38500
 C753 C 1.16383 0.65284 0.34676
 C754 C 1.17971 0.66909 0.33004
 C755 C 1.08875 0.58120 0.42374
 C756 C 1.07305 0.56613 0.44126
 H757 H 1.17494 0.65861 0.40244
 H758 H 1.14044 0.62582 0.43763
 H759 H 1.12787 0.54976 0.38360
 H760 H 1.16245 0.58261 0.34838
 H761 H 1.09316 0.65840 0.35166
 H762 H 1.05864 0.62557 0.38687
 C763 C 0.35538 0.86577 -0.13245
 C764 C 0.39443 0.85954 -0.13425
 C765 C 0.41306 0.87737 -0.11545
 C766 C 0.39082 0.89969 -0.09668
 C767 C 0.36439 0.87536 -0.08384
 C768 C 0.34577 0.85754 -0.10264
 C769 C 0.35118 0.90437 -0.13502
 C770 C 0.36982 0.92221 -0.11621
 C771 C 0.33545 0.84641 -0.15267
 C772 C 0.31957 0.83019 -0.16939
 C773 C 0.41072 0.91869 -0.07622
 C774 C 0.42652 0.93386 -0.05883
 H775 H 0.40639 0.84263 -0.14902
 H776 H 0.44096 0.87574 -0.11411
 H777 H 0.36062 0.87240 -0.06190
 H778 H 0.32607 0.83932 -0.09680
 H779 H 0.33500 0.91660 -0.15028
 H780 H 0.36962 0.94973 -0.11536
 C781 C 0.85610 0.36529 0.36742
 C782 C 0.84672 0.35678 0.39723
 C783 C 0.86522 0.37470 0.41603
 C784 C 0.89131 0.39940 0.40321
 C785 C 0.86995 0.42180 0.38383
 C786 C 0.85143 0.40386 0.36500
 C787 C 0.89521 0.35952 0.36548
 C788 C 0.91372 0.37745 0.38429
 C789 C 0.83630 0.34581 0.34719
 C790 C 0.82053 0.32948 0.33048
 C791 C 0.91109 0.41849 0.42369
 C792 C 0.92680 0.43372 0.44110
 H793 H 0.82725 0.33832 0.40306
 H794 H 0.86159 0.37157 0.43798
 H795 H 0.86944 0.44931 0.38480
 H796 H 0.83504 0.41600 0.34985
 H797 H 0.90730 0.34283 0.35060
 H798 H 0.94165 0.37613 0.38554
 C799 C 1.15230 0.36427 0.12664
 C800 C 1.11336 0.35798 0.12906
 C801 C 1.09415 0.37678 0.11132
 C802 C 1.11564 0.40015 0.09278
 C803 C 1.14157 0.37654 0.07852
 C804 C 1.16086 0.35767 0.09633
 C805 C 1.15664 0.40272 0.13037
 C806 C 1.13738 0.42157 0.11258
 C807 C 1.17231 0.34389 0.14629
 C808 C 1.18724 0.32728 0.16340
 C809 C 1.09399 0.42022 0.07406
 C810 C 1.07429 0.43596 0.05969
 H811 H 1.10184 0.34023 0.14345
 H812 H 1.06621 0.37510 0.11056
 H813 H 1.14456 0.37486 0.05642
 H814 H 1.18035 0.33983 0.08948
 H815 H 1.17345 0.41415 0.14558
 H816 H 1.13771 0.44911 0.11258
 C817 C 0.65143 0.86297 0.62661
 C818 C 0.61252 0.85652 0.62886
 C819 C 0.59337 0.87544 0.61120
 C820 C 0.61490 0.89908 0.59292
 C821 C 0.64097 0.87573 0.57856
 C822 C 0.66021 0.85672 0.59630
 C823 C 0.65565 0.90139 0.63065
 C824 C 0.63644 0.92037 0.61294
 C825 C 0.67134 0.84251 0.64618
 C826 C 0.68618 0.82590 0.66329
 C827 C 0.59327 0.91925 0.57434
 C828 C 0.57344 0.93499 0.56016
 H829 H 0.60098 0.83857 0.64308
 H830 H 0.56543 0.87369 0.61032
 H831 H 0.64410 0.87431 0.55646
 H832 H 0.67981 0.83902 0.58939
 H833 H 0.67234 0.91269 0.64601
 H834 H 0.63668 0.94791 0.61313
 C835 C 1.15101 0.63811 -0.12918
 C836 C 1.15539 0.59963 -0.13273
 C837 C 1.13627 0.58084 -0.11476
 C838 C 1.11457 0.60230 -0.09494
 C839 C 1.09295 0.62549 -0.11351
 C840 C 1.11203 0.64424 -0.13143
 C841 C 1.15970 0.64492 -0.09892
 C842 C 1.14055 0.62611 -0.08093
 C843 C 1.17099 0.65846 -0.14902
 C844 C 1.18599 0.67503 -0.16621
 C845 C 1.09308 0.58222 -0.07594
 C846 C 1.07366 0.56643 -0.06127
 H847 H 1.17213 0.58815 -0.14797
 H848 H 1.13665 0.55330 -0.11465
 H849 H 1.06501 0.62708 -0.11263
 H850 H 1.10039 0.66184 -0.14586
 H851 H 1.17919 0.66287 -0.09223
 H852 H 1.14367 0.62797 -0.05886
 C853 C 0.65033 1.13585 0.37274
 C854 C 0.65649 1.09749 0.37017
 C855 C 0.63743 1.07853 0.38805
 C856 C 0.61405 1.09976 0.40678
 C857 C 0.59225 1.12140 0.38716
 C858 C 0.61126 1.14030 0.36933
 C859 C 0.65746 1.14404 0.40302
 C860 C 0.63838 1.12506 0.42092
 C861 C 0.67019 1.15634 0.35302
 C862 C 0.68517 1.17299 0.33593
 C863 C 0.59261 1.07957 0.42564
 C864 C 0.57306 1.06381 0.44016
 H865 H 0.67433 1.08622 0.35562
 H866 H 0.63896 1.05105 0.38882
 H867 H 0.56424 1.12185 0.38728
 H868 H 0.59950 1.15692 0.35421
 H869 H 0.67590 1.16300 0.40979
 H870 H 0.64050 1.12777 0.44302
 C871 C 0.84867 0.63679 0.12680
 C872 C 0.85941 0.60198 0.13809
 C873 C 0.87886 0.58342 0.12030
 C874 C 0.88573 0.60142 0.09289
 C875 C 0.90203 0.63554 0.10077
 C876 C 0.88260 0.65408 0.11855
 C877 C 0.83033 0.62909 0.09956
 C878 C 0.84984 0.61047 0.08172
 C879 C 0.82842 0.65688 0.14649
 C880 C 0.81329 0.67328 0.16360
 C881 C 0.90760 0.58161 0.07414
 C882 C 0.92739 0.56602 0.05975
 H883 H 0.85227 0.59267 0.15828
 H884 H 0.88834 0.55825 0.12526
 H885 H 0.92670 0.64442 0.09300
 H886 H 0.89064 0.67881 0.12597
 H887 H 0.80437 0.63748 0.09474
 H888 H 0.84057 0.60293 0.06162
 C889 C 0.34834 1.13652 0.62700
 C890 C 0.34433 1.09812 0.63132
 C891 C 0.36335 1.07908 0.61354
 C892 C 0.38452 1.10030 0.59317
 C893 C 0.40623 1.12414 0.61108
 C894 C 0.38726 1.14313 0.62882
 C895 C 0.33911 1.14253 0.59673
 C896 C 0.35817 1.12347 0.57892
 C897 C 0.32860 1.15705 0.64663
 C898 C 0.31383 1.17373 0.66373
 C899 C 0.40595 1.08006 0.57449
 C900 C 0.42561 1.06424 0.56021
 H901 H 0.32790 1.08687 0.64692
 H902 H 0.36322 1.05154 0.61391
 H903 H 0.43415 1.12599 0.60991
 H904 H 0.39893 1.16121 0.64281
 H905 H 0.31935 1.16012 0.58991
 H906 H 0.35473 1.12473 0.55685
 C907 C 0.84884 0.36427 -0.12710
 C908 C 0.88782 0.35876 -0.13021
 C909 C 0.90714 0.37750 -0.11252
 C910 C 0.88571 0.40005 -0.09334
 C911 C 0.86057 0.37564 -0.07900
 C912 C 0.84117 0.35683 -0.09676
 C913 C 0.84373 0.40273 -0.13024
 C914 C 0.86311 0.42152 -0.11251
 C915 C 0.82869 0.34396 -0.14669
 C916 C 0.81363 0.32738 -0.16374
 C917 C 0.90747 0.42007 -0.07466
 C918 C 0.92719 0.43579 -0.06031
 H919 H 0.89929 0.34158 -0.14502
 H920 H 0.93512 0.37633 -0.11223
 H921 H 0.85815 0.37340 -0.05688
 H922 H 0.82216 0.33848 -0.08984
 H923 H 0.82634 0.41418 -0.14503
 H924 H 0.86230 0.44904 -0.11213
 C925 C 0.34838 0.86280 0.37371
 C926 C 0.33457 0.89902 0.37757
 C927 C 0.35348 0.91799 0.39551
 C928 C 0.38430 0.89886 0.40782
 C929 C 0.40500 0.88624 0.38301
 C930 C 0.38618 0.86734 0.36513
 C931 C 0.34989 0.84773 0.40275
 C932 C 0.36879 0.86669 0.42069
 C933 C 0.32879 0.84238 0.35392
 C934 C 0.31411 0.82579 0.33673
 C935 C 0.40559 0.91901 0.42666
 C936 C 0.42516 0.93477 0.44106
 H937 H 0.31191 0.90885 0.36719
 H938 H 0.34701 0.94405 0.40050
 H939 H 0.43216 0.89169 0.37976
 H940 H 0.39722 0.85663 0.34659
 H941 H 0.33717 0.82431 0.40870
 H942 H 0.37225 0.85951 0.44202
 C943 C 1.13209 1.15073 0.37163
 C944 C 1.14101 1.11288 0.37033
 C945 C 1.12358 1.09373 0.38893
 C946 C 1.09889 1.11425 0.40706
 C947 C 1.07528 1.13315 0.38692
 C948 C 1.09276 1.15236 0.36827
 C949 C 1.13890 1.16110 0.40152
 C950 C 1.12139 1.14186 0.42020
 C951 C 1.15111 1.17057 0.35125
 C952 C 1.16728 1.18546 0.33393
 C953 C 1.08030 1.09267 0.42652
 C954 C 1.06542 1.07288 0.44114
 H955 H 1.15948 1.10205 0.35605
 H956 H 1.12712 1.06647 0.39059
 H957 H 1.04731 1.13169 0.38735
 H958 H 1.07980 1.16737 0.35269
 H959 H 1.15587 1.18173 0.40746
 H960 H 1.12333 1.14597 0.44216
 C961 C 0.63619 0.65006 -0.12612
 C962 C 0.63907 0.61186 -0.13149
 C963 C 0.62262 0.59250 -0.11247
 C964 C 0.60484 0.61317 -0.08987
 C965 C 0.58081 0.63770 -0.10515
 C966 C 0.59732 0.65713 -0.12424
 C967 C 0.64988 0.65504 -0.09683
 C968 C 0.63336 0.63559 -0.07772
 C969 C 0.65415 0.67014 -0.14699
 C970 C 0.66951 0.68521 -0.16469
 C971 C 0.58718 0.59131 -0.07003
 C972 C 0.57272 0.57124 -0.05537
 H973 H 0.65286 0.60093 -0.14874
 H974 H 0.62234 0.56498 -0.11344
 H975 H 0.55331 0.63972 -0.10126
 H976 H 0.58398 0.67580 -0.13672
 H977 H 0.67063 0.67235 -0.09156
 H978 H 0.63992 0.63622 -0.05608
 C979 C 0.86829 1.14979 0.62904
 C980 C 0.85994 1.11181 0.63065
 C981 C 0.87755 1.09276 0.61212
 C982 C 0.90183 1.11349 0.59374
 C983 C 0.92527 1.13293 0.61365
 C984 C 0.90761 1.15204 0.63223
 C985 C 0.86117 1.15978 0.59910
 C986 C 0.87885 1.14064 0.58049
 C987 C 0.84910 1.16958 0.64934
 C988 C 0.83284 1.18452 0.66655
 C989 C 0.92061 1.09204 0.57432
 C990 C 0.93564 1.07242 0.55967
 H991 H 0.84173 1.10083 0.64508
 H992 H 0.87440 1.06544 0.61069
 H993 H 0.95325 1.13188 0.61313
 H994 H 0.92045 1.16736 0.64765
 H995 H 0.84385 1.18009 0.59306
 H996 H 0.87671 1.14454 0.55851
 C997 C 0.36365 0.64939 0.12635
 C998 C 0.35451 0.61160 0.12808
 C999 C 0.37087 0.59225 0.10903
 C1000 C 0.39484 0.61252 0.09004
 C1001 C 0.41954 0.63135 0.10938
 C1002 C 0.40313 0.65075 0.12848
 C1003 C 0.35550 0.65968 0.09663
 C1004 C 0.37194 0.64024 0.07750
 C1005 C 0.34578 0.66950 0.14724
 C1006 C 0.33050 0.68466 0.16492
 C1007 C 0.41242 0.59071 0.07015
 C1008 C 0.42685 0.57073 0.05541
 H1009 H 0.33667 0.60094 0.14296
 H1010 H 0.36702 0.56502 0.10760
 H1011 H 0.44745 0.62970 0.10811
 H1012 H 0.41697 0.66572 0.14358
 H1013 H 0.33841 0.68040 0.09112
 H1014 H 0.36895 0.64430 0.05560
 C1015 C 1.13320 0.85020 0.63035
 C1016 C 1.09387 0.84727 0.63328
 C1017 C 1.07609 0.86612 0.61457
 C1018 C 1.09941 0.88601 0.59480
 C1019 C 1.12304 0.85928 0.58173
 C1020 C 1.14084 0.84041 0.60046
 C1021 C 1.14084 0.88831 0.63200
 C1022 C 1.12312 0.90710 0.61335
 C1023 C 1.15252 0.83063 0.65078
 C1024 C 1.16882 0.81579 0.66807
 C1025 C 1.08050 0.90719 0.57520
 C1026 C 1.06542 0.92659 0.56035
 H1027 H 1.08112 0.83169 0.64862
 H1028 H 1.04810 0.86669 0.61387
 H1029 H 1.12552 0.85547 0.55976
 H1030 H 1.15859 0.82042 0.59455
 H1031 H 1.15869 0.89957 0.64655
 H1032 H 1.12579 0.93447 0.61192
 C1033 C 0.63721 0.35127 0.12636
 C1034 C 0.59776 0.35000 0.12889
 C1035 C 0.58110 0.36936 0.10987
 C1036 C 0.60554 0.38807 0.09019
 C1037 C 0.62821 0.36025 0.07755
 C1038 C 0.64489 0.34086 0.09660
 C1039 C 0.64644 0.38905 0.12782
 C1040 C 0.62983 0.40836 0.10885
 C1041 C 0.65531 0.33115 0.14718
 C1042 C 0.67067 0.31591 0.16479
 C1043 C 0.58767 0.40982 0.07035
 C1044 C 0.57301 0.42970 0.05562
 H1045 H 0.58411 0.33513 0.14420
 H1046 H 0.55318 0.37106 0.10888
 H1047 H 0.63087 0.35610 0.05564
 H1048 H 0.66186 0.32008 0.09101
 H1049 H 0.66451 0.39974 0.14247
 H1050 H 0.63370 0.43558 0.10726
 C1051 C 0.86840 0.84951 0.37120
 C1052 C 0.90770 0.84736 0.36771
 C1053 C 0.92552 0.86631 0.38630
 C1054 C 0.90226 0.88549 0.40651
 C1055 C 0.87942 0.85816 0.41973
 C1056 C 0.86158 0.83918 0.40112
 C1057 C 0.86000 0.88748 0.36990
 C1058 C 0.87777 0.90637 0.38843
 C1059 C 0.84903 0.82989 0.35090
 C1060 C 0.83264 0.81511 0.33368
 C1061 C 0.92118 0.90679 0.42594
 C1062 C 0.93622 0.92635 0.44063
 H1063 H 0.92040 0.83222 0.35210
 H1064 H 0.95351 0.86741 0.38662
 H1065 H 0.87751 0.85402 0.44170
 H1066 H 0.84435 0.81877 0.40714
 H1067 H 0.84165 0.89858 0.35567
 H1068 H 0.87462 0.93366 0.39007
 C1069 C 0.36355 0.35101 -0.12659
 C1070 C 0.40290 0.35147 -0.13000
 C1071 C 0.41940 0.37087 -0.11096
 C1072 C 0.39490 0.38787 -0.09038
 C1073 C 0.37388 0.35872 -0.07783
 C1074 C 0.35735 0.33929 -0.09691
 C1075 C 0.35269 0.38841 -0.12706
 C1076 C 0.36915 0.40775 -0.10806
 C1077 C 0.34558 0.33089 -0.14742
 C1078 C 0.33025 0.31571 -0.16504
 C1079 C 0.41259 0.40968 -0.07053
 C1080 C 0.42707 0.42963 -0.05581
 H1081 H 0.41660 0.33770 -0.14590
 H1082 H 0.44725 0.37370 -0.11054
 H1083 H 0.37217 0.35375 -0.05596
 H1084 H 0.34147 0.31764 -0.09139
 H1085 H 0.33367 0.39880 -0.14109
 H1086 H 0.36420 0.43472 -0.10582
 C1087 C 1.14574 0.35561 -0.12537
 C1088 C 1.10862 0.36278 -0.13453
 C1089 C 1.09005 0.38101 -0.11603
 C1090 C 1.11035 0.39038 -0.09008
 C1091 C 1.14260 0.40892 -0.10055
 C1092 C 1.16123 0.39064 -0.11911
 C1093 C 1.14225 0.33815 -0.09732
 C1094 C 1.12361 0.35645 -0.07875
 C1095 C 1.16529 0.33614 -0.14578
 C1096 C 1.18060 0.32072 -0.16333
 C1097 C 1.08948 0.41012 -0.07070
 C1098 C 1.07041 0.42632 -0.05622
 H1099 H 1.09782 0.35425 -0.15389
 H1100 H 1.06335 0.38809 -0.11956
 H1101 H 1.15021 0.43412 -0.09392
 H1102 H 1.18479 0.40019 -0.12837
 H1103 H 1.15347 0.31364 -0.09246
 H1104 H 1.11888 0.34762 -0.05798
 C1105 C 0.64548 0.85552 0.37493
 C1106 C 0.60757 0.85982 0.36665
 C1107 C 0.58853 0.87755 0.38519
 C1108 C 0.60915 0.88936 0.41030
 C1109 C 0.63961 0.90952 0.39844
 C1110 C 0.65870 0.89174 0.37986
 C1111 C 0.64435 0.83908 0.40352
 C1112 C 0.62524 0.85688 0.42212
 C1113 C 0.66556 0.83651 0.35447
 C1114 C 0.68118 0.82135 0.33690
 C1115 C 0.58780 0.90862 0.42976
 C1116 C 0.56850 0.92450 0.44434
 H1117 H 0.59660 0.84976 0.34785
 H1118 H 0.56126 0.88266 0.38222
 H1119 H 0.64571 0.93544 0.40419
 H1120 H 0.68115 0.90244 0.36971
 H1121 H 0.65744 0.81560 0.40869
 H1122 H 0.62198 0.84865 0.44322
 C1123 C 0.85439 0.64516 -0.12519
 C1124 C 0.85893 0.60769 -0.13288
 C1125 C 0.87772 0.58966 -0.11432
 C1126 C 0.89016 0.61083 -0.08985
 C1127 C 0.85733 0.62658 -0.07768
 C1128 C 0.83848 0.64467 -0.09630
 C1129 C 0.89114 0.65871 -0.12118
 C1130 C 0.90992 0.64068 -0.10263
 C1131 C 0.83467 0.66440 -0.14563
 C1132 C 0.81927 0.67966 -0.16323
 C1133 C 0.91126 0.59133 -0.07046
 C1134 C 0.93054 0.57532 -0.05601
 H1135 H 0.84824 0.59628 -0.15127
 H1136 H 0.88310 0.56281 -0.11682
 H1137 H 0.84958 0.62378 -0.05639
 H1138 H 0.81457 0.65738 -0.09096
 H1139 H 0.90149 0.68061 -0.13193
 H1140 H 0.93637 0.64716 -0.09750
 C1141 C 0.35352 1.14376 0.37484
 C1142 C 0.38698 1.12904 0.36301
 C1143 C 0.40584 1.11111 0.38155
 C1144 C 0.38950 1.10955 0.41022
 C1145 C 0.35316 1.09516 0.40557
 C1146 C 0.33423 1.11315 0.38697
 C1147 C 0.36490 1.16474 0.39978
 C1148 C 0.38382 1.14676 0.41838
 C1149 C 0.33365 1.16296 0.35437
 C1150 C 0.31818 1.17827 0.33679
 C1151 C 0.41068 1.09011 0.42967
 C1152 C 0.42988 1.07410 0.44424
 H1153 H 0.39516 1.13240 0.34187
 H1154 H 0.43016 1.09914 0.37626
 H1155 H 0.34315 1.07288 0.41601
 H1156 H 0.30801 1.10627 0.38148
 H1157 H 0.35859 1.19134 0.40261
 H1158 H 0.39370 1.15795 0.43713
 C1159 C 1.14621 0.64541 0.12493
 C1160 C 1.15673 0.65244 0.09505
 C1161 C 1.13812 0.63433 0.07631
 C1162 C 1.11089 0.61103 0.08935
 C1163 C 1.08881 0.63448 0.10733
 C1164 C 1.10735 0.65252 0.12600
 C1165 C 1.14949 0.60683 0.12837
 C1166 C 1.13093 0.58877 0.10968
 C1167 C 1.16570 0.66466 0.14550
 C1168 C 1.18097 0.67993 0.16315
 C1169 C 1.09004 0.59149 0.06983
 C1170 C 1.07092 0.57541 0.05530
 H1171 H 1.17698 0.67002 0.08915
 H1172 H 1.14243 0.63639 0.05436
 H1173 H 1.06099 0.63678 0.10552
 H1174 H 1.09541 0.67023 0.14016
 H1175 H 1.16512 0.59475 0.14406
 H1176 H 1.13067 0.56123 0.10936
 C1177 C 0.64607 1.14367 0.62570
 C1178 C 0.65039 1.10507 0.62827
 C1179 C 0.63137 1.08712 0.60979
 C1180 C 0.60984 1.10947 0.59050
 C1181 C 0.63590 1.13378 0.57714
 C1182 C 0.65497 1.15177 0.59566
 C1183 C 0.60711 1.14981 0.62804
 C1184 C 0.58812 1.13188 0.60958
 C1185 C 0.66608 1.16288 0.64607
 C1186 C 0.68166 1.17820 0.66356
 C1187 C 0.58853 1.09002 0.57114
 C1188 C 0.56922 1.07403 0.55665
 H1189 H 0.66702 1.09291 0.64326
 H1190 H 0.63172 1.05960 0.60896
 H1191 H 0.63913 1.13657 0.55513
 H1192 H 0.67452 1.16998 0.58950
 H1193 H 0.59544 1.16682 0.64288
 H1194 H 0.56018 1.13357 0.60865
 C1195 C 0.85575 0.35532 0.12553
 C1196 C 0.89469 0.34868 0.12692
 C1197 C 0.91330 0.36693 0.10836
 C1198 C 0.89122 0.39012 0.09013
 C1199 C 0.87060 0.41214 0.11025
 C1200 C 0.85198 0.39388 0.12883
 C1201 C 0.84578 0.34818 0.09557
 C1202 C 0.86445 0.36649 0.07694
 C1203 C 0.83610 0.33581 0.14599
 C1204 C 0.82065 0.32033 0.16351
 C1205 C 0.91210 0.40991 0.07064
 C1206 C 0.93109 0.42617 0.05603
 H1207 H 0.90664 0.33112 0.14122
 H1208 H 0.94117 0.36496 0.10679
 H1209 H 0.87055 0.43968 0.10988
 H1210 H 0.83599 0.40579 0.14437
 H1211 H 0.82583 0.33036 0.08954
 H1212 H 0.86048 0.36435 0.05497
 C1213 C 0.35287 0.85557 0.62744
 C1214 C 0.39185 0.84958 0.62990
 C1215 C 0.41090 0.86739 0.61133
 C1216 C 0.38922 0.88957 0.59200
 C1217 C 0.36753 0.91202 0.61108
 C1218 C 0.34845 0.89419 0.62967
 C1219 C 0.34416 0.84718 0.59745
 C1220 C 0.36328 0.86505 0.57881
 C1221 C 0.33273 0.83647 0.64794
 C1222 C 0.31701 0.82122 0.66550
 C1223 C 0.41057 0.90893 0.57245
 C1224 C 0.42979 0.92487 0.55774
 H1225 H 0.40350 0.83274 0.64491
 H1226 H 0.43884 0.86576 0.61047
 H1227 H 0.36710 0.93953 0.61003
 H1228 H 0.33173 0.90645 0.64453
 H1229 H 0.32470 0.82885 0.59139
 H1230 H 0.36017 0.86202 0.55682
 C1231 C 0.36296 1.14011 -0.13289
 C1232 C 0.35490 1.10197 -0.13301
 C1233 C 0.37316 1.08400 -0.11405
 C1234 C 0.39768 1.10594 -0.09686
 C1235 C 0.37474 1.13363 -0.08434
 C1236 C 0.35649 1.15160 -0.10328
 C1237 C 0.40220 1.14246 -0.13680
 C1238 C 0.42047 1.12448 -0.11784
 C1239 C 0.34325 1.15946 -0.15321
 C1240 C 0.32697 1.17528 -0.16992
 C1241 C 0.41712 1.08682 -0.07625
 C1242 C 0.43264 1.07166 -0.05871
 H1243 H 0.33648 1.09013 -0.14677
 H1244 H 0.37041 1.05675 -0.11157
 H1245 H 0.37299 1.13869 -0.06249
 H1246 H 0.33911 1.17203 -0.09767
 H1247 H 0.41454 1.15694 -0.15302
 H1248 H 0.44846 1.12354 -0.11781
 C1249 C 0.86314 0.64013 0.36694
 C1250 C 0.85537 0.60194 0.36654
 C1251 C 0.87356 0.58392 0.38552
 C1252 C 0.89772 0.60589 0.40300
 C1253 C 0.87444 0.63330 0.41554
 C1254 C 0.85626 0.65130 0.39658
 C1255 C 0.90240 0.64281 0.36332
 C1256 C 0.92059 0.62479 0.38230
 C1257 C 0.84349 0.65953 0.34661
 C1258 C 0.82722 0.67538 0.32991
 C1259 C 0.91710 0.58673 0.42364
 C1260 C 0.93258 0.57156 0.44119
 H1261 H 0.83720 0.59009 0.35257
 H1262 H 0.87100 0.55664 0.38781
 H1263 H 0.87241 0.63815 0.43740
 H1264 H 0.83867 0.67157 0.40219
 H1265 H 0.91480 0.65753 0.34726
 H1266 H 0.94859 0.62406 0.38251
 C1267 C 0.63710 1.14021 0.13257
 C1268 C 0.64420 1.15100 0.10284
 C1269 C 0.62585 1.13300 0.08400
 C1270 C 0.60220 1.10596 0.09672
 C1271 C 0.57950 1.12532 0.11722
 C1272 C 0.59786 1.14333 0.13608
 C1273 C 0.64440 1.10194 0.13329
 C1274 C 0.62604 1.08393 0.11444
 C1275 C 0.65691 1.15959 0.15280
 C1276 C 0.67324 1.17537 0.16950
 C1277 C 0.58265 1.08678 0.07620
 C1278 C 0.56708 1.07158 0.05873
 H1279 H 0.66206 1.17101 0.09710
 H1280 H 0.62801 1.13760 0.06210
 H1281 H 0.55150 1.12488 0.11696
 H1282 H 0.58558 1.15835 0.15198
 H1283 H 0.66239 1.09004 0.14739
 H1284 H 0.62829 1.05659 0.11238
 C1285 C 1.13605 0.64154 0.63238
 C1286 C 1.09678 0.64479 0.63550
 C1287 C 1.07866 0.62653 0.61664
 C1288 C 1.10161 0.60684 0.59654
 C1289 C 1.12515 0.58502 0.61468
 C1290 C 1.14327 0.60327 0.63353
 C1291 C 1.14361 0.65189 0.60263
 C1292 C 1.12551 0.63365 0.58379
 C1293 C 1.15563 0.66115 0.65262
 C1294 C 1.17180 0.67705 0.66933
 C1295 C 1.08231 0.58741 0.57603
 C1296 C 1.06689 0.57201 0.55858
 H1297 H 1.08430 0.66005 0.65115
 H1298 H 1.05066 0.62615 0.61613
 H1299 H 1.12738 0.55765 0.61289
 H1300 H 1.16103 0.59153 0.64791
 H1301 H 1.16159 0.67179 0.59686
 H1302 H 1.12799 0.63793 0.56186
 C1303 C 0.63721 0.86050 -0.13330
 C1304 C 0.60185 0.87248 -0.14368
 C1305 C 0.58354 0.89038 -0.12471
 C1306 C 0.60242 0.89453 -0.09724
 C1307 C 0.63723 0.91074 -0.10460
 C1308 C 0.65553 0.89284 -0.12356
 C1309 C 0.62949 0.84038 -0.10704
 C1310 C 0.61121 0.85827 -0.08809
 C1311 C 0.65696 0.84119 -0.15363
 C1312 C 0.67324 0.82535 -0.17032
 C1313 C 0.58293 0.91356 -0.07660
 C1314 C 0.56736 0.92862 -0.05903
 H1315 H 0.59206 0.86735 -0.16413
 H1316 H 0.55808 0.90060 -0.12888
 H1317 H 0.64666 0.93423 -0.09573
 H1318 H 0.68064 0.90099 -0.13093
 H1319 H 0.63762 0.81437 -0.10364
 H1320 H 0.60367 0.84757 -0.06844
 C1321 C 1.13728 0.36042 0.36681
 C1322 C 1.14496 0.39863 0.36640
 C1323 C 1.12673 0.41657 0.38539
 C1324 C 1.10262 0.39451 0.40292
 C1325 C 1.12598 0.36712 0.41543
 C1326 C 1.14419 0.34921 0.39645
 C1327 C 1.09802 0.35767 0.36325
 C1328 C 1.07979 0.37560 0.38224
 C1329 C 1.15696 0.34108 0.34646
 C1330 C 1.17320 0.32523 0.32975
 C1331 C 1.08319 0.41357 0.42357
 C1332 C 1.06763 0.42864 0.44114
 H1333 H 1.16309 0.41056 0.35240
 H1334 H 1.12922 0.44385 0.38767
 H1335 H 1.12801 0.36222 0.43729
 H1336 H 1.16182 0.32896 0.40205
 H1337 H 1.08565 0.34295 0.34722
 H1338 H 1.05179 0.37627 0.38249
 C1339 C 0.36353 0.86008 0.13323
 C1340 C 0.40278 0.85704 0.13660
 C1341 C 0.42100 0.87493 0.11752
 C1342 C 0.39813 0.89407 0.09700
 C1343 C 0.37436 0.91623 0.11467
 C1344 C 0.35615 0.89834 0.13373
 C1345 C 0.35627 0.84904 0.10363
 C1346 C 0.37446 0.86691 0.08458
 C1347 C 0.34387 0.84082 0.15363
 C1348 C 0.32759 0.82502 0.17036
 C1349 C 0.41750 0.91307 0.07627
 C1350 C 0.43295 0.92812 0.05863
 H1351 H 0.41517 0.84217 0.15255
 H1352 H 0.44900 0.87541 0.11713
 H1353 H 0.37206 0.94354 0.11242
 H1354 H 0.33823 0.91032 0.14784
 H1355 H 0.33843 0.82893 0.09811
 H1356 H 0.37220 0.86212 0.06272
 C1357 C 0.86350 0.35954 0.63289
 C1358 C 0.90276 0.35621 0.63606
 C1359 C 0.92095 0.37420 0.61704
 C1360 C 0.89807 0.39371 0.59676
 C1361 C 0.87457 0.41582 0.61469
 C1362 C 0.85638 0.39784 0.63371
 C1363 C 0.85596 0.34887 0.60324
 C1364 C 0.87414 0.36684 0.58424
 C1365 C 0.84385 0.34020 0.65326
 C1366 C 0.82760 0.32440 0.67000
 C1367 C 0.91743 0.41283 0.57609
 C1368 C 0.93288 0.42797 0.55850
 H1369 H 0.91516 0.34108 0.65185
 H1370 H 0.94895 0.37450 0.61652
 H1371 H 0.87245 0.44317 0.61266
 H1372 H 0.83864 0.40978 0.64798
 H1373 H 0.83794 0.32895 0.59766
 H1374 H 0.87170 0.36231 0.56236
 C1375 C 1.14003 1.14629 0.62690
 C1376 C 1.10061 1.14860 0.62917
 C1377 C 1.08362 1.12937 0.61030
 C1378 C 1.10774 1.10974 0.59103
 C1379 C 1.13129 1.08914 0.61008
 C1380 C 1.14824 1.10833 0.62891
 C1381 C 1.14829 1.15604 0.59707
 C1382 C 1.13127 1.13676 0.57817
 C1383 C 1.15833 1.16635 0.64754
 C1384 C 1.17351 1.18182 0.66506
 C1385 C 1.08949 1.08821 0.57136
 C1386 C 1.07448 1.06860 0.55669
 H1387 H 1.08722 1.16405 0.64421
 H1388 H 1.05567 1.12835 0.60916
 H1389 H 1.13444 1.06181 0.60885
 H1390 H 1.16590 1.09746 0.64380
 H1391 H 1.16588 1.17627 0.59133
 H1392 H 1.13425 1.14047 0.55622
 C1393 C 0.63492 0.64789 0.12902
 C1394 C 0.59569 0.65196 0.13181
 C1395 C 0.57743 0.63326 0.11334
 C1396 C 0.60025 0.61238 0.09393
 C1397 C 0.62325 0.59099 0.11283
 C1398 C 0.64146 0.60964 0.13126
 C1399 C 0.64298 0.65691 0.09903
 C1400 C 0.62470 0.63819 0.08053
 C1401 C 0.65460 0.66735 0.14919
 C1402 C 0.67084 0.68237 0.16635
 C1403 C 0.58084 0.59142 0.07460
 C1404 C 0.56543 0.57216 0.05992
 H1405 H 0.58335 0.66816 0.14690
 H1406 H 0.54944 0.63344 0.11257
 H1407 H 0.62511 0.56353 0.11180
 H1408 H 0.65892 0.59818 0.14601
 H1409 H 0.66134 0.67629 0.09288
 H1410 H 0.62736 0.64151 0.05852
 C1411 C 1.14045 0.85307 0.37370
 C1412 C 1.14992 0.89082 0.37267
 C1413 C 1.13298 0.90990 0.39159
 C1414 C 1.10819 0.88940 0.40973
 C1415 C 1.13043 0.86128 0.42244
 C1416 C 1.14744 0.84212 0.40345
 C1417 C 1.10107 0.85202 0.37064
 C1418 C 1.08409 0.87114 0.38959
 C1419 C 1.15874 0.83314 0.35296
 C1420 C 1.17390 0.81779 0.33536
 C1421 C 1.08993 0.91082 0.42948
 C1422 C 1.07489 0.93038 0.44418
 H1423 H 1.16839 0.90163 0.35837
 H1424 H 1.13695 0.93706 0.39348
 H1425 H 1.13258 0.85678 0.44435
 H1426 H 1.16419 0.82119 0.40908
 H1427 H 1.08769 0.83746 0.35502
 H1428 H 1.05615 0.87295 0.39023
 C1429 C 0.63552 0.35266 -0.12895
 C1430 C 0.60084 0.36541 -0.14004
 C1431 C 0.58262 0.38412 -0.12161
 C1432 C 0.60089 0.38826 -0.09389
 C1433 C 0.63635 0.40331 -0.10086
 C1434 C 0.65455 0.38460 -0.11929
 C1435 C 0.62656 0.33319 -0.10256
 C1436 C 0.60829 0.35197 -0.08406
 C1437 C 0.65517 0.33314 -0.14911
 C1438 C 0.67136 0.31805 -0.16625
 C1439 C 0.58147 0.40927 -0.07458
 C1440 C 0.56599 0.42852 -0.05994
 H1441 H 0.59137 0.36011 -0.16055
 H1442 H 0.55752 0.39486 -0.12631
 H1443 H 0.64634 0.42660 -0.09202
 H1444 H 0.68013 0.39185 -0.12625
 H1445 H 0.63389 0.30703 -0.09875
 H1446 H 0.59995 0.34194 -0.06440
 C1447 C 0.85996 1.14525 0.37328
 C1448 C 0.85147 1.15478 0.40308
 C1449 C 0.86871 1.13572 0.42203
 C1450 C 0.89267 1.10908 0.40923
 C1451 C 0.91656 1.12912 0.39000
 C1452 C 0.89935 1.14815 0.37109
 C1453 C 0.85231 1.10717 0.37127
 C1454 C 0.86948 1.08818 0.39014
 C1455 C 0.84144 1.16514 0.35258
 C1456 C 0.82618 1.18055 0.33504
 C1457 C 0.91120 1.08778 0.42897
 C1458 C 0.92645 1.06838 0.44371
 H1459 H 0.83356 1.17474 0.40879
 H1460 H 0.86560 1.13933 0.44397
 H1461 H 0.94452 1.12853 0.39120
 H1462 H 0.91257 1.16384 0.35608
 H1463 H 0.83486 1.09606 0.35634
 H1464 H 0.86672 1.06081 0.39137
 C1465 C 0.36357 0.64747 -0.12930
 C1466 C 0.36729 0.61005 -0.13730
 C1467 C 0.38569 0.59147 -0.11892
 C1468 C 0.39864 0.61208 -0.09430
 C1469 C 0.36617 0.62837 -0.08199
 C1470 C 0.34770 0.64701 -0.10042
 C1471 C 0.40066 0.66025 -0.12525
 C1472 C 0.41913 0.64161 -0.10682
 C1473 C 0.34370 0.66693 -0.14942
 C1474 C 0.32739 0.68202 -0.16652
 C1475 C 0.41827 0.59120 -0.07499
 C1476 C 0.43387 0.57206 -0.06027
 H1477 H 0.35640 0.59909 -0.15580
 H1478 H 0.39057 0.56456 -0.12169
 H1479 H 0.35843 0.62558 -0.06070
 H1480 H 0.32411 0.66020 -0.09494
 H1481 H 0.41143 0.68204 -0.13588
 H1482 H 0.44571 0.64740 -0.10163
 C1483 C 0.86034 0.85247 0.62621
 C1484 C 0.85267 0.84238 0.59639
 C1485 C 0.86986 0.86162 0.57752
 C1486 C 0.89293 0.88894 0.59042
 C1487 C 0.91688 0.86969 0.61008
 C1488 C 0.89972 0.85049 0.62892
 C1489 C 0.85177 0.89038 0.62785
 C1490 C 0.86888 0.90953 0.60905
 C1491 C 0.84187 0.83250 0.64684
 C1492 C 0.82657 0.81718 0.66441
 C1493 C 0.91135 0.91045 0.57081
 C1494 C 0.92647 0.93010 0.55622
 H1495 H 0.83535 0.82195 0.59064
 H1496 H 0.86731 0.85769 0.55557
 H1497 H 0.94484 0.87092 0.60921
 H1498 H 0.91297 0.83528 0.64421
 H1499 H 0.83376 0.90124 0.64247
 H1500 H 0.86553 0.93682 0.60757
 C1501 C 0.36490 0.35156 0.12840
 C1502 C 0.40414 0.34893 0.13200
 C1503 C 0.42230 0.36775 0.11351
 C1504 C 0.39938 0.38729 0.09328
 C1505 C 0.37504 0.40838 0.11131
 C1506 C 0.35693 0.38960 0.12976
 C1507 C 0.35812 0.34146 0.09846
 C1508 C 0.37631 0.36031 0.07993
 C1509 C 0.34534 0.33201 0.14860
 C1510 C 0.32916 0.31700 0.16582
 C1511 C 0.41868 0.40841 0.07398
 C1512 C 0.43406 0.42784 0.05939
 H1513 H 0.41657 0.33357 0.14764
 H1514 H 0.45030 0.36852 0.11327
 H1515 H 0.37224 0.43572 0.10970
 H1516 H 0.33861 0.40083 0.14394
 H1517 H 0.34066 0.32129 0.09236
 H1518 H 0.37447 0.35632 0.05795
   
