data_POSCAR
  _audit_creation_date              2014-09-24
  _audit_creation_method            'ToBaCCo'
  _symmetry_space_group_name_H-M    'P1'
  _symmetry_Int_Tables_number       1
  _symmetry_cell_setting            triclinic
  loop_
  _symmetry_equiv_pos_as_xyz
 x,y,z
_cell_length_a 32.2662
_cell_length_b 35.4250
_cell_length_c 39.7962
_cell_angle_alpha 89.900800
_cell_angle_beta 89.915500
_cell_angle_gamma 89.910100
loop_
  _atom_site_label
  _atom_site_type_symbol
  _atom_site_fract_x
  _atom_site_fract_y
  _atom_site_fract_z
Zr1 Zr 0.24230 0.24505 0.30989
 O2 O 0.26747 0.27138 0.35305
 O3 O 0.19749 0.21031 0.33211
 O4 O 0.19874 0.27988 0.33427
 O5 O 0.31690 0.17513 0.30199
 O6 O 0.17617 0.32038 0.29356
 O7 O 0.27819 0.20854 0.33983
 O8 O 0.16181 0.18754 0.28715
 O9 O 0.19310 0.25211 0.27634
 O10 O 0.24319 0.19740 0.27893
 O11 O 0.25375 0.29645 0.28525
 O12 O 0.30177 0.24362 0.28788
 Zr13 Zr 0.26465 0.25500 0.19477
 Zr14 Zr 0.20631 0.30176 0.24964
 Zr15 Zr 0.30055 0.19760 0.25457
 Zr16 Zr 0.19566 0.20558 0.24448
 O17 O 0.36585 0.19600 0.25924
 O18 O 0.13261 0.22014 0.23674
 O19 O 0.25288 0.20294 0.21904
 O20 O 0.20553 0.25534 0.21716
 O21 O 0.26407 0.30269 0.22568
 O22 O 0.31330 0.24758 0.22874
 C23 C 0.16776 0.19126 0.31900
 C24 C 0.30575 0.18369 0.33219
 C25 C 0.17675 0.30797 0.32397
 O26 O 0.14173 0.30293 0.24052
 O27 O 0.19477 0.32851 0.20311
 O28 O 0.23264 0.29482 0.16509
 C29 C 0.20664 0.32099 0.17292
 O30 O 0.33214 0.30737 0.30997
 Zr31 Zr 0.31106 0.29371 0.26091
 O32 O 0.30989 0.29069 0.17354
 O33 O 0.21711 0.36023 0.25570
 O34 O 0.30688 0.35327 0.26513
 O35 O 0.37524 0.28156 0.26510
 O36 O 0.34098 0.31718 0.21909
 C37 C 0.33644 0.31299 0.18728
 O38 O 0.23718 0.23096 0.15146
 O39 O 0.28922 0.13885 0.25252
 O40 O 0.30460 0.21797 0.16927
 O41 O 0.32498 0.17547 0.20914
 O42 O 0.19744 0.14573 0.24451
 O43 O 0.17851 0.18511 0.19629
 C44 C 0.32414 0.18808 0.17868
 H45 H 0.23951 0.17356 0.29160
 H46 H 0.18338 0.25771 0.20010
 H47 H 0.34075 0.24608 0.21767
 H48 H 0.25373 0.31779 0.30129
 H49 H 0.11597 0.19691 0.23988
 H50 H 0.13300 0.32973 0.24172
 H51 H 0.19013 0.37308 0.25229
 H52 H 0.33539 0.36348 0.26343
 H53 H 0.16851 0.13671 0.24681
 H54 H 0.31636 0.12620 0.25558
 H55 H 0.37406 0.16906 0.25829
 H56 H 0.39035 0.30586 0.26367
 H57 H 0.15341 0.16923 0.19837
 H58 H 0.25199 0.24104 0.13149
 H59 H 0.25278 0.26103 0.37297
 H60 H 0.35291 0.32784 0.30855
 Zr61 Zr 0.76525 0.76347 0.30520
 O62 O 0.73879 0.73778 0.34828
 O63 O 0.80908 0.79908 0.32783
 O64 O 0.80754 0.72815 0.33063
 O65 O 0.69040 0.83301 0.29532
 O66 O 0.83131 0.68762 0.29043
 O67 O 0.72874 0.80061 0.33406
 O68 O 0.84470 0.82279 0.28307
 O69 O 0.81549 0.75660 0.27246
 O70 O 0.76442 0.81069 0.27362
 O71 O 0.75492 0.71183 0.28064
 O72 O 0.70628 0.76374 0.28229
 Zr73 Zr 0.74594 0.75225 0.18960
 Zr74 Zr 0.80340 0.70667 0.24584
 Zr75 Zr 0.70765 0.80946 0.24857
 Zr76 Zr 0.81297 0.80283 0.24003
 O77 O 0.64233 0.81010 0.25338
 O78 O 0.87642 0.78858 0.23416
 O79 O 0.75630 0.80457 0.21372
 O80 O 0.80446 0.75278 0.21291
 O81 O 0.74638 0.70482 0.22096
 O82 O 0.69632 0.75922 0.22287
 C83 C 0.83818 0.81925 0.31492
 C84 C 0.70125 0.82531 0.32577
 C85 C 0.82914 0.69955 0.32088
 O86 O 0.86828 0.70643 0.23817
 O87 O 0.81644 0.67954 0.19978
 O88 O 0.77909 0.71237 0.16081
 C89 C 0.80502 0.68640 0.16935
 O90 O 0.67577 0.69936 0.30399
 Zr91 Zr 0.69833 0.71340 0.25535
 O92 O 0.70201 0.71588 0.16752
 O93 O 0.79335 0.64802 0.25179
 O94 O 0.70343 0.65395 0.26018
 O95 O 0.63389 0.72487 0.25833
 O96 O 0.67035 0.68923 0.21290
 C97 C 0.67550 0.69327 0.18104
 O98 O 0.77443 0.77677 0.14683
 O99 O 0.71816 0.86827 0.24502
 O100 O 0.70559 0.78831 0.16339
 O101 O 0.68252 0.82997 0.20293
 O102 O 0.81021 0.86263 0.23862
 O103 O 0.83177 0.82276 0.19196
 C104 C 0.68422 0.81722 0.17260
 H105 H 0.76742 0.83479 0.28593
 H106 H 0.82710 0.75046 0.19623
 H107 H 0.66907 0.76014 0.21151
 H108 H 0.75452 0.69055 0.29679
 H109 H 0.89274 0.81196 0.23743
 H110 H 0.87737 0.67974 0.23961
 H111 H 0.82059 0.63546 0.24885
 H112 H 0.67523 0.64328 0.25771
 H113 H 0.83888 0.87216 0.24127
 H114 H 0.69084 0.88068 0.24784
 H115 H 0.63353 0.83686 0.25177
 H116 H 0.61914 0.70046 0.25625
 H117 H 0.85701 0.83839 0.19433
 H118 H 0.76047 0.76641 0.12664
 H119 H 0.75289 0.74843 0.36829
 H120 H 0.65506 0.67887 0.30215
 Zr121 Zr 0.75332 0.24897 -0.30582
 O122 O 0.72413 0.27782 -0.34602
 O123 O 0.79381 0.21386 -0.33194
 O124 O 0.79586 0.28299 -0.33186
 O125 O 0.68033 0.17851 -0.29533
 O126 O 0.82313 0.32171 -0.29179
 O127 O 0.71576 0.21283 -0.33458
 O128 O 0.83228 0.18668 -0.29037
 O129 O 0.80586 0.25363 -0.27534
 O130 O 0.75432 0.20033 -0.27606
 O131 O 0.74587 0.29968 -0.27930
 O132 O 0.69590 0.24799 -0.28071
 Zr133 Zr 0.74168 0.25492 -0.18945
 Zr134 Zr 0.79650 0.30244 -0.24642
 Zr135 Zr 0.69937 0.20084 -0.24871
 Zr136 Zr 0.80517 0.20597 -0.24470
 O137 O 0.63386 0.20132 -0.25106
 O138 O 0.86899 0.21987 -0.24250
 O139 O 0.75021 0.20370 -0.21593
 O140 O 0.79874 0.25472 -0.21533
 O141 O 0.74093 0.30378 -0.21911
 O142 O 0.69019 0.24995 -0.22094
 C143 C 0.82266 0.19184 -0.32156
 C144 C 0.68979 0.18703 -0.32589
 C145 C 0.81957 0.31009 -0.32232
 O146 O 0.86172 0.30195 -0.24106
 O147 O 0.81309 0.32693 -0.19984
 O148 O 0.77723 0.29297 -0.16069
 C149 C 0.80346 0.31868 -0.16921
 O150 O 0.66639 0.31423 -0.29913
 Zr151 Zr 0.69082 0.29726 -0.25187
 O152 O 0.69841 0.29016 -0.16469
 O153 O 0.78683 0.36135 -0.25028
 O154 O 0.69660 0.35685 -0.25363
 O155 O 0.62611 0.28699 -0.25354
 O156 O 0.66412 0.31852 -0.20794
 C157 C 0.67053 0.31266 -0.17655
 O158 O 0.77226 0.22867 -0.14850
 O159 O 0.70918 0.14177 -0.24727
 O160 O 0.70300 0.21740 -0.16289
 O161 O 0.67721 0.17815 -0.20313
 O162 O 0.80184 0.14619 -0.24429
 O163 O 0.82812 0.18404 -0.19857
 C164 C 0.68111 0.18899 -0.17243
 H165 H 0.75619 0.17661 -0.28908
 H166 H 0.82241 0.25594 -0.19958
 H167 H 0.66358 0.24848 -0.20860
 H168 H 0.74512 0.32163 -0.29473
 H169 H 0.88484 0.19667 -0.24791
 H170 H 0.87099 0.32857 -0.24237
 H171 H 0.81443 0.37336 -0.24828
 H172 H 0.66864 0.36770 -0.24994
 H173 H 0.83002 0.13643 -0.24915
 H174 H 0.68161 0.12975 -0.24953
 H175 H 0.62481 0.17462 -0.25012
 H176 H 0.61180 0.31159 -0.25085
 H177 H 0.85345 0.16899 -0.20294
 H178 H 0.75929 0.23818 -0.12751
 H179 H 0.73641 0.26811 -0.36719
 H180 H 0.64707 0.33566 -0.29589
 Zr181 Zr 0.24163 0.74844 -0.31296
 O182 O 0.27116 0.72566 -0.35601
 O183 O 0.19744 0.78409 -0.33579
 O184 O 0.20213 0.71320 -0.34117
 O185 O 0.31092 0.82097 -0.29804
 O186 O 0.17880 0.66978 -0.30330
 O187 O 0.27880 0.78747 -0.33915
 O188 O 0.15462 0.79815 -0.29219
 O189 O 0.19027 0.73675 -0.28263
 O190 O 0.23644 0.79399 -0.27992
 O191 O 0.25482 0.69642 -0.28967
 O192 O 0.29879 0.75089 -0.28724
 Zr193 Zr 0.25330 0.73279 -0.19650
 Zr194 Zr 0.20480 0.68651 -0.25744
 Zr195 Zr 0.29142 0.79490 -0.25252
 Zr196 Zr 0.18666 0.78118 -0.24859
 O197 O 0.35678 0.79957 -0.25344
 O198 O 0.12410 0.76352 -0.24412
 O199 O 0.24106 0.78538 -0.21989
 O200 O 0.19695 0.73045 -0.22289
 O201 O 0.25952 0.68710 -0.22945
 O202 O 0.30459 0.74450 -0.22723
 C203 C 0.16432 0.79934 -0.32362
 C204 C 0.30398 0.81346 -0.32939
 C205 C 0.18093 0.68374 -0.33307
 O206 O 0.14008 0.68109 -0.25030
 O207 O 0.19483 0.65393 -0.21415
 O208 O 0.21974 0.68923 -0.17107
 C209 C 0.19994 0.66015 -0.18256
 O210 O 0.33687 0.68915 -0.30852
 Zr211 Zr 0.30907 0.70017 -0.26107
 O212 O 0.29848 0.69883 -0.17343
 O213 O 0.21933 0.62941 -0.26787
 O214 O 0.30867 0.64080 -0.26782
 O215 O 0.37238 0.71616 -0.26035
 O216 O 0.33561 0.67591 -0.21770
 C217 C 0.32765 0.67845 -0.18604
 O218 O 0.22048 0.75281 -0.15397
 O219 O 0.27622 0.85284 -0.24850
 O220 O 0.28810 0.77144 -0.16752
 O221 O 0.31072 0.81545 -0.20536
 O222 O 0.18367 0.84097 -0.24714
 O223 O 0.16505 0.79855 -0.20055
 C224 C 0.30752 0.80212 -0.17529
 H225 H 0.23250 0.81842 -0.29161
 H226 H 0.17338 0.72560 -0.20753
 H227 H 0.33073 0.74677 -0.21441
 H228 H 0.25771 0.67612 -0.30659
 H229 H 0.10635 0.78616 -0.24694
 H230 H 0.13338 0.65402 -0.25338
 H231 H 0.19321 0.61486 -0.26596
 H232 H 0.33723 0.63155 -0.26377
 H233 H 0.15430 0.84822 -0.25061
 H234 H 0.30269 0.86691 -0.24980
 H235 H 0.36331 0.82677 -0.25110
 H236 H 0.38904 0.69283 -0.25762
 H237 H 0.13936 0.81359 -0.20317
 H238 H 0.23410 0.74196 -0.13378
 H239 H 0.25763 0.73686 -0.37609
 H240 H 0.35911 0.67010 -0.30579
 Zr241 Zr 1.25677 1.26507 0.80317
 O242 O 1.22036 1.24203 0.84247
 O243 O 1.30138 1.29562 0.83054
 O244 O 1.28961 1.22463 0.83194
 O245 O 1.19120 1.34015 0.78662
 O246 O 1.32000 1.18618 0.79302
 O247 O 1.22136 1.30661 0.82898
 O248 O 1.34498 1.31736 0.78974
 O249 O 1.31099 1.25545 0.77529
 O250 O 1.26492 1.31252 0.77259
 O251 O 1.24633 1.21490 0.77597
 O252 O 1.20201 1.26940 0.77426
 Zr253 Zr 1.25490 1.25862 0.68588
 Zr254 Zr 1.29944 1.20723 0.74630
 Zr255 Zr 1.21238 1.31552 0.74217
 Zr256 Zr 1.31741 1.30220 0.74376
 O257 O 1.14694 1.31994 0.74206
 O258 O 1.37994 1.28367 0.74264
 O259 O 1.26548 1.30915 0.71231
 O260 O 1.30929 1.25371 0.71471
 O261 O 1.24698 1.21036 0.71568
 O262 O 1.20101 1.26726 0.71386
 C263 C 1.33413 1.31323 0.82066
 C264 C 1.19776 1.33336 0.81786
 C265 C 1.31222 1.19602 0.82357
 O266 O 1.36476 1.20260 0.74424
 O267 O 1.31576 1.18025 0.70070
 O268 O 1.28639 1.21628 0.65955
 C269 C 1.30823 1.18809 0.66958
 O270 O 1.16236 1.20687 0.78986
 Zr271 Zr 1.19454 1.22053 0.74483
 O272 O 1.21265 1.22667 0.65786
 O273 O 1.28434 1.14931 0.75048
 O274 O 1.19447 1.16087 0.74934
 O275 O 1.13122 1.23581 0.74018
 O276 O 1.17413 1.19792 0.69851
 C277 C 1.18459 1.20331 0.66754
 O278 O 1.29295 1.28177 0.64766
 O279 O 1.22783 1.37351 0.74006
 O280 O 1.22273 1.29890 0.65676
 O281 O 1.19364 1.33798 0.69574
 O282 O 1.32045 1.36200 0.74500
 O283 O 1.34380 1.32263 0.69828
 C284 C 1.20026 1.32740 0.66532
 H285 H 1.26841 1.33611 0.78558
 H286 H 1.33391 1.25005 0.70019
 H287 H 1.17595 1.27013 0.69976
 H288 H 1.24174 1.19326 0.79129
 H289 H 1.39766 1.30572 0.74786
 H290 H 1.37135 1.17532 0.74564
 H291 H 1.31082 1.13514 0.74947
 H292 H 1.16642 1.15194 0.74312
 H293 H 1.34949 1.36900 0.75009
 H294 H 1.20136 1.38773 0.74057
 H295 H 1.14008 1.34713 0.73998
 H296 H 1.11565 1.21251 0.73481
 H297 H 1.36983 1.33627 0.70326
 H298 H 1.28153 1.27342 0.62577
 H299 H 1.23226 1.25108 0.86398
 H300 H 1.14015 1.18845 0.78489
 Zr301 Zr 0.75742 0.74579 0.80995
 O302 O 0.79596 0.77170 0.84617
 O303 O 0.72000 0.71162 0.84036
 O304 O 0.72284 0.78266 0.84152
 O305 O 0.82563 0.67504 0.78765
 O306 O 0.68619 0.81879 0.80448
 O307 O 0.79834 0.70633 0.83255
 O308 O 0.67293 0.68786 0.80324
 O309 O 0.69994 0.75276 0.78630
 O310 O 0.74836 0.69821 0.77971
 O311 O 0.76222 0.79645 0.78254
 O312 O 0.80873 0.74384 0.77689
 Zr313 Zr 0.74556 0.75326 0.69256
 Zr314 Zr 0.70593 0.80143 0.75689
 Zr315 Zr 0.79694 0.69775 0.74531
 Zr316 Zr 0.69229 0.70618 0.75514
 O317 O 0.86202 0.69593 0.73861
 O318 O 0.62942 0.72256 0.76067
 O319 O 0.74051 0.70216 0.71961
 O320 O 0.69464 0.75518 0.72565
 O321 O 0.75471 0.80123 0.72233
 O322 O 0.80268 0.74641 0.71651
 C323 C 0.68802 0.69170 0.83303
 C324 C 0.82261 0.68141 0.81929
 C325 C 0.69608 0.80870 0.83442
 O326 O 0.64037 0.80382 0.75732
 O327 O 0.68542 0.83003 0.71398
 O328 O 0.71041 0.79639 0.66960
 C329 C 0.68986 0.82413 0.68234
 O330 O 0.84614 0.80948 0.78978
 Zr331 Zr 0.81051 0.79304 0.74740
 O332 O 0.78430 0.78592 0.66176
 O333 O 0.71845 0.85967 0.76288
 O334 O 0.80720 0.85272 0.75045
 O335 O 0.87389 0.77963 0.73971
 O336 O 0.82675 0.81461 0.69968
 C337 C 0.81376 0.80868 0.66951
 O338 O 0.70377 0.73045 0.65705
 O339 O 0.78491 0.63902 0.74542
 O340 O 0.77508 0.71337 0.66093
 O341 O 0.80929 0.67513 0.69780
 O342 O 0.69302 0.64631 0.75460
 O343 O 0.65993 0.68564 0.71245
 C344 C 0.79878 0.68506 0.66794
 H345 H 0.74815 0.67425 0.79253
 H346 H 0.66837 0.75825 0.71309
 H347 H 0.82618 0.74405 0.70063
 H348 H 0.76681 0.81811 0.79777
 H349 H 0.61364 0.69992 0.76776
 H350 H 0.63255 0.83069 0.76021
 H351 H 0.69132 0.87279 0.76382
 H352 H 0.83392 0.86288 0.74212
 H353 H 0.66563 0.63756 0.76277
 H354 H 0.81210 0.62610 0.74374
 H355 H 0.86987 0.66901 0.73617
 H356 H 0.88820 0.80324 0.73308
 H357 H 0.63537 0.67112 0.71992
 H358 H 0.71263 0.73960 0.63459
 H359 H 0.78737 0.76181 0.86845
 H360 H 0.86625 0.82917 0.78299
 Zr361 Zr 1.24451 0.75046 0.19586
 O362 O 1.20921 0.78057 0.15980
 O363 O 1.28147 0.71651 0.16460
 O364 O 1.28061 0.78821 0.16751
 O365 O 1.16928 0.68405 0.21182
 O366 O 1.31709 0.82180 0.20640
 O367 O 1.20226 0.71587 0.16973
 O368 O 1.32528 0.68788 0.20171
 O369 O 1.30131 0.75303 0.22124
 O370 O 1.24902 0.70036 0.22335
 O371 O 1.24159 0.79943 0.22565
 O372 O 1.19146 0.74913 0.22683
 Zr373 Zr 1.25042 0.74904 0.31290
 Zr374 Zr 1.29696 0.80003 0.25313
 Zr375 Zr 1.19863 0.70026 0.25604
 Zr376 Zr 1.30428 0.70381 0.24993
 O377 O 1.13333 0.70098 0.26162
 O378 O 1.36835 0.71679 0.24753
 O379 O 1.25394 0.69973 0.28350
 O380 O 1.30331 0.75075 0.28183
 O381 O 1.24613 0.79968 0.28584
 O382 O 1.19432 0.74717 0.28706
 C383 C 1.31193 0.69449 0.17177
 C384 C 1.17455 0.69290 0.18086
 C385 C 1.30650 0.81412 0.17591
 O386 O 1.36248 0.79844 0.25305
 O387 O 1.31788 0.82276 0.29930
 O388 O 1.28695 0.78694 0.33985
 C389 C 1.31075 0.81388 0.33029
 O390 O 1.15918 0.81687 0.21567
 Zr391 Zr 1.19127 0.79626 0.25857
 O392 O 1.21227 0.78206 0.34416
 O393 O 1.28851 0.85926 0.25194
 O394 O 1.19790 0.85581 0.25853
 O395 O 1.12679 0.78618 0.26372
 O396 O 1.17401 0.81566 0.30641
 C397 C 1.18486 0.80710 0.33658
 O398 O 1.28861 0.72085 0.34824
 O399 O 1.20707 0.64118 0.25204
 O400 O 1.21695 0.70915 0.34141
 O401 O 1.18285 0.67485 0.30175
 O402 O 1.30032 0.64416 0.24694
 O403 O 1.33253 0.67865 0.29270
 C404 C 1.19233 0.68250 0.33230
 H405 H 1.24832 0.67752 0.20907
 H406 H 1.32901 0.75124 0.29539
 H407 H 1.16995 0.74510 0.30209
 H408 H 1.23863 0.82237 0.21161
 H409 H 1.38305 0.69375 0.23992
 H410 H 1.37195 0.82503 0.25236
 H411 H 1.31650 0.87070 0.25254
 H412 H 1.17121 0.86675 0.26616
 H413 H 1.32779 0.63463 0.23965
 H414 H 1.17907 0.62975 0.25216
 H415 H 1.12389 0.67436 0.26175
 H416 H 1.11367 0.81027 0.27062
 H417 H 1.35673 0.66344 0.28549
 H418 H 1.27916 0.72842 0.37100
 H419 H 1.21815 0.77186 0.13722
 H420 H 1.13989 0.83722 0.22253
 Zr421 Zr 0.74211 1.24746 0.18777
 O422 O 0.77487 1.22477 0.14623
 O423 O 0.69700 1.28097 0.16364
 O424 O 0.70594 1.21009 0.15908
 O425 O 0.81200 1.31923 0.20212
 O426 O 0.67769 1.17009 0.19773
 O427 O 0.77663 1.28796 0.16122
 O428 O 0.65649 1.30133 0.20700
 O429 O 0.68973 1.23752 0.21750
 O430 O 0.73704 1.29375 0.21998
 O431 O 0.75396 1.19598 0.21240
 O432 O 0.79894 1.24978 0.21401
 Zr433 Zr 0.75184 1.23467 0.30457
 Zr434 Zr 0.70281 1.18777 0.24386
 Zr435 Zr 0.79167 1.29464 0.24780
 Zr436 Zr 0.68651 1.28268 0.25096
 O437 O 0.85713 1.29814 0.24744
 O438 O 0.62372 1.26531 0.25384
 O439 O 0.74063 1.28669 0.27997
 O440 O 0.69573 1.23252 0.27770
 O441 O 0.75729 1.18812 0.27249
 O442 O 0.80384 1.24493 0.27439
 C443 C 0.66556 1.29901 0.17558
 C444 C 0.80286 1.31289 0.17105
 C445 C 0.68315 1.18179 0.16743
 O446 O 0.63768 1.18382 0.24909
 O447 O 0.68859 1.15831 0.28804
 O448 O 0.72006 1.19085 0.33024
 C449 C 0.69702 1.16381 0.31921
 O450 O 0.83598 1.18626 0.19465
 Zr451 Zr 0.80785 1.19965 0.24148
 O452 O 0.79721 1.20196 0.32925
 O453 O 0.71684 1.13005 0.23619
 O454 O 0.80668 1.14006 0.23651
 O455 O 0.87131 1.21513 0.24213
 O456 O 0.83366 1.17659 0.28571
 C457 C 0.82607 1.18066 0.31731
 O458 O 0.71697 1.25454 0.34610
 O459 O 0.77783 1.35297 0.25036
 O460 O 0.78359 1.27547 0.33336
 O461 O 0.81027 1.31637 0.29455
 O462 O 0.68509 1.34251 0.25273
 O463 O 0.66352 1.30075 0.29837
 C464 C 0.80402 1.30533 0.32499
 H465 H 0.73343 1.31795 0.20785
 H466 H 0.67192 1.22842 0.29300
 H467 H 0.82965 1.24751 0.28760
 H468 H 0.75699 1.17509 0.19609
 H469 H 0.60621 1.28800 0.25041
 H470 H 0.63038 1.15684 0.24633
 H471 H 0.69028 1.11611 0.23754
 H472 H 0.83506 1.13062 0.24101
 H473 H 0.65598 1.35051 0.24911
 H474 H 0.80463 1.36652 0.24903
 H475 H 0.86421 1.32526 0.24936
 H476 H 0.88770 1.19180 0.24582
 H477 H 0.63753 1.31518 0.29511
 H478 H 0.73042 1.24474 0.36678
 H479 H 0.76187 1.23478 0.12543
 H480 H 0.85819 1.16736 0.19822
 O481 O 0.44064 1.06831 0.01771
 O482 O 0.54008 0.92664 0.02083
 O483 O 0.41250 0.95262 0.02020
 O484 O 0.56822 1.04256 0.01907
 O485 O 0.47037 0.93331 0.03892
 O486 O 0.51018 1.06219 0.03716
 O487 O 0.56136 0.97951 0.03858
 O488 O 0.41890 1.01665 0.03746
 C489 C 0.42369 1.05088 0.04124
 C490 C 0.55799 0.94525 0.04311
 C491 C 0.43278 0.93696 0.04309
 C492 C 0.54788 1.05935 0.04121
 O493 O 0.53736 1.06917 -0.02758
 O494 O 0.44409 0.92387 -0.02571
 O495 O 0.41069 1.03947 -0.02858
 O496 O 0.57104 0.95401 -0.02591
 O497 O 0.51421 0.93208 -0.04433
 O498 O 0.46839 1.06001 -0.04671
 O499 O 0.56106 1.01722 -0.04580
 O500 O 0.42027 0.97517 -0.04551
 Co501 Co 0.48928 1.05832 -0.00476
 Co502 Co 0.49198 0.93564 -0.00276
 Co503 Co 0.42283 0.99613 -0.00411
 Co504 Co 0.55803 0.99820 -0.00361
 O505 O 0.49051 0.99705 -0.00388
 C506 C 0.55684 1.05157 -0.04968
 C507 C 0.42486 0.94072 -0.04849
 C508 C 0.43074 1.05672 -0.05076
 C509 C 0.55212 0.93502 -0.04741
 O510 O 0.96823 0.56073 0.53854
 O511 O 1.01177 0.43242 0.53714
 O512 O 0.91847 0.47830 0.53758
 O513 O 1.06089 0.51570 0.53778
 O514 O 0.94156 0.42644 0.51882
 O515 O 1.03798 0.56826 0.52012
 O516 O 1.06864 0.45267 0.51753
 O517 O 0.91048 0.54181 0.51936
 C518 C 0.93032 0.55832 0.54188
 C519 C 1.04961 0.43585 0.54028
 C520 C 0.92424 0.44423 0.54192
 C521 C 1.05713 0.55003 0.54197
 O522 O 1.01198 0.56225 0.45516
 O523 O 0.96739 0.43406 0.45389
 O524 O 0.91899 0.51852 0.45391
 O525 O 1.06014 0.47810 0.45337
 O526 O 1.03677 0.42593 0.47160
 O527 O 0.94262 0.56945 0.47397
 O528 O 1.06909 0.54116 0.47358
 O529 O 0.90996 0.45439 0.47260
 Co530 Co 0.99018 0.55862 0.49684
 Co531 Co 0.98938 0.43620 0.49548
 Co532 Co 0.92185 0.49816 0.49580
 Co533 Co 1.05726 0.49698 0.49559
 O534 O 0.98967 0.49748 0.49593
 C535 C 1.04971 0.55895 0.45163
 C536 C 0.92970 0.43746 0.45021
 C537 C 0.92502 0.55276 0.45051
 C538 C 1.05547 0.44384 0.44921
 O539 O 1.05727 0.48551 0.06055
 O540 O 1.05772 0.51766 -0.05442
 O541 O 1.05312 0.43263 -0.01554
 O542 O 1.05326 0.56300 0.02201
 O543 O 1.02898 0.45388 -0.06093
 O544 O 1.02605 0.54763 0.06751
 O545 O 1.03670 0.56992 -0.03366
 O546 O 1.03949 0.43088 0.04154
 C547 C 1.06450 0.45116 0.05804
 C548 C 1.06345 0.55193 -0.05005
 C549 C 1.05644 0.43581 -0.04611
 C550 C 1.05401 0.56461 0.05260
 O551 O 0.95131 0.51651 0.06035
 O552 O 0.95337 0.48155 -0.05539
 O553 O 0.95346 0.43497 0.02721
 O554 O 0.95257 0.56185 -0.01702
 O555 O 0.98057 0.54468 -0.06206
 O556 O 0.98335 0.45571 0.06992
 O557 O 0.96824 0.56956 0.03917
 O558 O 0.96936 0.42860 -0.03185
 Co559 Co 1.00443 0.50132 0.05817
 Co560 Co 1.00517 0.49956 -0.05188
 Co561 Co 1.00354 0.43801 0.00524
 Co562 Co 1.00281 0.55984 0.00278
 O563 O 1.00395 0.49953 0.00341
 C564 C 0.94363 0.55039 0.05670
 C565 C 0.94641 0.44737 -0.05156
 C566 C 0.95315 0.43909 0.05799
 C567 C 0.95150 0.56119 -0.04778
 O568 O 0.52832 0.94979 0.56353
 O569 O 0.52460 1.05107 0.44066
 O570 O 0.53682 0.93297 0.46072
 O571 O 0.53460 1.06761 0.54288
 O572 O 0.55511 0.98822 0.44373
 O573 O 0.55626 1.01365 0.55982
 O574 O 0.55101 1.06625 0.48648
 O575 O 0.55280 0.93260 0.51719
 C576 C 0.55653 0.93410 0.54777
 C577 C 0.55377 1.06590 0.45578
 C578 C 0.56179 0.95370 0.44470
 C579 C 0.56117 1.04827 0.55831
 O580 O 0.47961 1.03932 0.56998
 O581 O 0.48032 0.95998 0.43468
 O582 O 0.46918 0.92579 0.53515
 O583 O 0.46636 1.07228 0.46988
 O584 O 0.44961 1.02014 0.44698
 O585 O 0.45238 0.97713 0.56034
 O586 O 0.45035 1.06088 0.52696
 O587 O 0.45185 0.93645 0.47718
 Co588 Co 0.50413 0.99552 0.55721
 Co589 Co 0.50239 1.00450 0.44774
 Co590 Co 0.50233 0.93829 0.49798
 Co591 Co 0.50061 1.06053 0.50607
 O592 O 0.50236 0.99968 0.50230
 C593 C 0.44927 1.05548 0.55755
 C594 C 0.45067 0.94256 0.44669
 C595 C 0.44647 0.94297 0.55605
 C596 C 0.44183 1.05377 0.45176
 O597 O 1.07959 1.03610 0.46897
 O598 O 0.93310 1.03515 0.54538
 O599 O 0.95134 1.02701 0.44255
 O600 O 1.06103 1.01389 0.56867
 O601 O 0.93360 1.05081 0.48832
 O602 O 1.07735 1.04503 0.52670
 O603 O 0.99380 1.04608 0.56605
 O604 O 1.02077 1.05423 0.44906
 C605 C 1.05827 1.06019 0.45338
 C606 C 0.95677 1.05511 0.56337
 C607 C 0.93467 1.05349 0.45751
 C608 C 1.07635 1.04312 0.55753
 O609 O 1.08196 0.96464 0.53527
 O610 O 0.92603 0.97377 0.47098
 O611 O 1.05169 0.98691 0.43723
 O612 O 0.95808 0.98057 0.57098
 O613 O 0.93367 0.95743 0.52741
 O614 O 1.07295 0.95739 0.47905
 O615 O 1.02424 0.94883 0.55842
 O616 O 0.98248 0.95891 0.44476
 Co617 Co 1.07159 1.00109 0.50277
 Co618 Co 0.93815 1.00411 0.50784
 Co619 Co 1.00204 1.00633 0.44968
 Co620 Co 1.00892 0.99778 0.55988
 O621 O 1.00514 1.00231 0.50496
 C622 C 1.06077 0.94094 0.55149
 C623 C 0.94536 0.95228 0.45101
 C624 C 1.06782 0.95804 0.44857
 C625 C 0.93961 0.95420 0.55773
 O626 O 0.57666 0.53038 -0.03779
 O627 O 0.42526 0.53285 0.04389
 O628 O 0.44865 0.52338 -0.05923
 O629 O 0.55355 0.52801 0.06570
 O630 O 0.42949 0.54926 -0.01414
 O631 O 0.57225 0.55056 0.01900
 O632 O 0.48452 0.55072 0.06106
 O633 O 0.51728 0.54691 -0.05580
 C634 C 0.55466 0.55328 -0.05386
 C635 C 0.44697 0.55656 0.05918
 C636 C 0.43207 0.55074 -0.04502
 C637 C 0.57004 0.55425 0.04972
 O638 O 0.58161 0.47609 0.03946
 O639 O 0.42073 0.47328 -0.03023
 O640 O 0.54661 0.47602 -0.06122
 O641 O 0.45593 0.48009 0.07022
 O642 O 0.43107 0.45773 0.02564
 O643 O 0.57170 0.45654 -0.01556
 O644 O 0.52530 0.45629 0.06128
 O645 O 0.47738 0.45250 -0.05100
 Co646 Co 0.56847 0.50344 0.00147
 Co647 Co 0.43379 0.50338 0.00611
 Co648 Co 0.49795 0.49991 -0.05081
 Co649 Co 0.50442 0.50356 0.05860
 O650 O 0.50116 0.50258 0.00385
 C651 C 0.56258 0.45111 0.05558
 C652 C 0.43978 0.44813 -0.04618
 C653 C 0.56624 0.45136 -0.04564
 C654 C 0.43702 0.45417 0.05586
 C655 C 0.36279 1.18763 0.12438
 C656 C 0.34737 1.16756 0.15224
 C657 C 0.35248 1.12812 0.15345
 C658 C 0.37133 1.10890 0.12645
 C659 C 0.38631 1.12952 0.09849
 C660 C 0.38237 1.16887 0.09795
 C661 C 0.40418 1.11045 0.07116
 C662 C 0.40649 1.07083 0.07086
 C663 C 0.39175 1.05053 0.09883
 C664 C 0.37458 1.06939 0.12646
 H665 H 0.34043 1.11234 0.17467
 H666 H 0.39371 1.18512 0.07676
 H667 H 0.41538 1.12645 0.04976
 H668 H 0.36328 1.05304 0.14759
 H669 H 0.35952 1.21803 0.12296
 H670 H 0.39344 1.01999 0.09931
 C671 C 0.79721 0.65940 0.60898
 C672 C 0.81684 0.66257 0.64031
 C673 C 0.85453 0.64354 0.64574
 C674 C 0.87250 0.62162 0.62044
 C675 C 0.85222 0.61783 0.58919
 C676 C 0.81459 0.63688 0.58368
 C677 C 0.87044 0.59568 0.56390
 C678 C 0.90926 0.57856 0.56923
 C679 C 0.92921 0.58287 0.60026
 C680 C 0.91075 0.60385 0.62583
 H681 H 0.87036 0.64624 0.66964
 H682 H 0.79876 0.63452 0.55979
 H683 H 0.85526 0.59289 0.53974
 H684 H 0.92670 0.60667 0.64964
 H685 H 0.76815 0.67381 0.60428
 H686 H 0.95918 0.56996 0.60469
 C687 C 0.64670 0.81553 0.11788
 C688 C 0.65896 0.83600 0.14644
 C689 C 0.64688 0.87401 0.14954
 C690 C 0.62368 0.89154 0.12398
 C691 C 0.61150 0.87050 0.09549
 C692 C 0.62295 0.83250 0.09280
 C693 C 0.58878 0.88795 0.06977
 C694 C 0.57906 0.92653 0.07154
 C695 C 0.59124 0.94731 0.09991
 C696 C 0.61303 0.92988 0.12607
 H697 H 0.65630 0.89012 0.17136
 H698 H 0.61392 0.81599 0.07112
 H699 H 0.57984 0.87175 0.04785
 H700 H 0.62213 0.94652 0.14765
 H701 H 0.65519 0.78611 0.11503
 H702 H 0.58400 0.97711 0.10179
 C703 C 1.19700 0.35383 0.60711
 C704 C 1.17862 0.34843 0.63870
 C705 C 1.13835 0.36208 0.64466
 C706 C 1.11632 0.38052 0.61917
 C707 C 1.13537 0.38657 0.58762
 C708 C 1.17574 0.37325 0.58186
 C709 C 1.11348 0.40533 0.56223
 C710 C 1.07234 0.41696 0.56753
 C711 C 1.05331 0.41016 0.59866
 C712 C 1.07533 0.39245 0.62448
 H713 H 1.12372 0.35733 0.66885
 H714 H 1.19063 0.37744 0.55772
 H715 H 1.12814 0.41010 0.53805
 H716 H 1.06022 0.38777 0.64845
 H717 H 1.22795 0.34334 0.60210
 H718 H 1.02161 0.41897 0.60312
 C719 C 0.64664 1.18609 -0.11626
 C720 C 0.65788 1.16805 -0.14637
 C721 C 0.64604 1.13029 -0.15156
 C722 C 0.62353 1.11071 -0.12685
 C723 C 0.61185 1.12943 -0.09695
 C724 C 0.62355 1.16706 -0.09190
 C725 C 0.58909 1.11010 -0.07237
 C726 C 0.57883 1.07190 -0.07670
 C727 C 0.59096 1.05329 -0.10625
 C728 C 0.61277 1.07266 -0.13132
 H729 H 0.65480 1.11602 -0.17459
 H730 H 0.61498 1.18174 -0.06905
 H731 H 0.58031 1.12456 -0.04943
 H732 H 0.62161 1.05780 -0.15401
 H733 H 0.65511 1.21522 -0.11178
 H734 H 0.58339 1.02382 -0.11001
 C735 C 1.19139 0.65238 0.38923
 C736 C 1.17203 0.65960 0.35833
 C737 C 1.13250 0.64470 0.35198
 C738 C 1.11230 0.62287 0.37619
 C739 C 1.13229 0.61495 0.40698
 C740 C 1.17180 0.62982 0.41330
 C741 C 1.11207 0.59285 0.43110
 C742 C 1.07166 0.57977 0.42525
 C743 C 1.05180 0.58821 0.39483
 C744 C 1.07220 0.60925 0.37025
 H745 H 1.11708 0.65069 0.32836
 H746 H 1.18738 0.62422 0.43689
 H747 H 1.12721 0.58685 0.45484
 H748 H 1.05645 0.61531 0.34682
 H749 H 1.22186 0.66367 0.39450
 H750 H 1.02057 0.57839 0.39008
 C751 C 0.33913 0.80489 -0.11770
 C752 C 0.32874 0.82310 -0.14798
 C753 C 0.34003 0.86121 -0.15240
 C754 C 0.36132 0.88077 -0.12703
 C755 C 0.37224 0.86191 -0.09699
 C756 C 0.36089 0.82401 -0.09257
 C757 C 0.39398 0.88135 -0.07179
 C758 C 0.40394 0.91977 -0.07580
 C759 C 0.39249 0.93835 -0.10560
 C760 C 0.37173 0.91896 -0.13111
 H761 H 0.33204 0.87575 -0.17550
 H762 H 0.36884 0.80913 -0.06965
 H763 H 0.40225 0.86685 -0.04874
 H764 H 0.36350 0.93392 -0.15392
 H765 H 0.33111 0.77555 -0.11367
 H766 H 0.39980 0.96792 -0.10922
 C767 C 0.80351 0.32965 0.38412
 C768 C 0.82180 0.32879 0.35206
 C769 C 0.85694 0.35112 0.34570
 C770 C 0.87390 0.37373 0.37107
 C771 C 0.85485 0.37498 0.40307
 C772 C 0.81963 0.35285 0.40931
 C773 C 0.87198 0.39759 0.42847
 C774 C 0.90884 0.41759 0.42260
 C775 C 0.92773 0.41588 0.39086
 C776 C 0.91007 0.39459 0.36512
 H777 H 0.87158 0.35038 0.32116
 H778 H 0.80478 0.35324 0.43375
 H779 H 0.85778 0.39828 0.45318
 H780 H 0.92519 0.39379 0.34080
 H781 H 0.77628 0.31284 0.38953
 H782 H 0.95633 0.43096 0.38606
 C783 C 1.17702 0.32425 0.11499
 C784 C 1.18709 0.34248 0.14525
 C785 C 1.17474 0.38013 0.15000
 C786 C 1.15115 0.39886 0.12544
 C787 C 1.13891 0.37953 0.09600
 C788 C 1.15285 0.34250 0.09069
 C789 C 1.11185 0.39713 0.07304
 C790 C 1.09755 0.43406 0.07895
 C791 C 1.11216 0.45373 0.10725
 C792 C 1.13840 0.43623 0.13038
 H793 H 1.18268 0.39450 0.17314
 H794 H 1.14418 0.32730 0.06817
 H795 H 1.10109 0.38183 0.05117
 H796 H 1.14784 0.45162 0.15259
 H797 H 1.18610 0.29518 0.11084
 H798 H 1.10171 0.48221 0.11244
 C799 C 0.65076 0.88386 0.67321
 C800 C 0.66934 0.85129 0.65961
 C801 C 0.66649 0.84456 0.62486
 C802 C 0.64311 0.86887 0.60440
 C803 C 0.62306 0.90043 0.61890
 C804 C 0.62795 0.90822 0.65303
 C805 C 0.59683 0.92283 0.59945
 C806 C 0.58959 0.91396 0.56571
 C807 C 0.61126 0.88394 0.55073
 C808 C 0.63792 0.86149 0.57001
 H809 H 0.68097 0.81978 0.61399
 H810 H 0.61308 0.93253 0.66437
 H811 H 0.58061 0.94630 0.61101
 H812 H 0.65328 0.83764 0.55835
 H813 H 0.65300 0.89024 0.69975
 H814 H 0.60616 0.87683 0.52460
 C815 C 1.16566 0.60062 -0.17366
 C816 C 1.18208 0.63489 -0.16101
 C817 C 1.17648 0.64252 -0.12634
 C818 C 1.15193 0.61834 -0.10605
 C819 C 1.13538 0.58477 -0.11974
 C820 C 1.14347 0.57579 -0.15325
 C821 C 1.10915 0.56160 -0.10033
 C822 C 1.09710 0.57252 -0.06785
 C823 C 1.11392 0.60574 -0.05419
 C824 C 1.14167 0.62803 -0.07282
 H825 H 1.18837 0.66847 -0.11566
 H826 H 1.13115 0.55015 -0.16418
 H827 H 1.09585 0.53641 -0.11136
 H828 H 1.15371 0.65367 -0.06173
 H829 H 1.16966 0.59267 -0.19975
 H830 H 1.10498 0.61482 -0.02922
 C831 C 0.65777 1.10477 0.33105
 C832 C 0.67674 1.13774 0.34337
 C833 C 0.67190 1.14705 0.37758
 C834 C 0.64586 1.12517 0.39838
 C835 C 0.62494 1.09369 0.38475
 C836 C 0.63213 1.08306 0.35146
 C837 C 0.59588 1.07407 0.40413
 C838 C 0.58759 1.08485 0.43733
 C839 C 0.61007 1.11476 0.45155
 C840 C 0.63882 1.13499 0.43213
 H841 H 0.68643 1.17223 0.38751
 H842 H 0.61683 1.05862 0.34085
 H843 H 0.57879 1.05095 0.39302
 H844 H 0.65474 1.15880 0.44321
 H845 H 0.66143 1.09639 0.30505
 H846 H 0.60423 1.12342 0.47722
 C847 C 0.83506 0.68120 0.11155
 C848 C 0.82466 0.66400 0.14228
 C849 C 0.83612 0.62623 0.14787
 C850 C 0.85900 0.60630 0.12359
 C851 C 0.87146 0.62455 0.09360
 C852 C 0.85856 0.66178 0.08754
 C853 C 0.89770 0.60569 0.07080
 C854 C 0.91103 0.56858 0.07743
 C855 C 0.89620 0.55002 0.10633
 C856 C 0.87072 0.56876 0.12929
 H857 H 0.82787 0.61261 0.17137
 H858 H 0.86744 0.67617 0.06459
 H859 H 0.90866 0.62018 0.04848
 H860 H 0.86109 0.55417 0.15194
 H861 H 0.82661 0.71032 0.10673
 H862 H 0.90590 0.52147 0.11208
 C863 C 0.32632 1.17536 0.60937
 C864 C 0.32677 1.16383 0.64328
 C865 C 0.34673 1.12996 0.65191
 C866 C 0.36787 1.10900 0.62745
 C867 C 0.36889 1.12176 0.59372
 C868 C 0.34718 1.15452 0.58484
 C869 C 0.39321 1.10257 0.56990
 C870 C 0.41719 1.07141 0.57977
 C871 C 0.41408 1.05782 0.61291
 C872 C 0.38951 1.07632 0.63649
 H873 H 0.34695 1.12045 0.67783
 H874 H 0.34735 1.16465 0.55913
 H875 H 0.39549 1.11323 0.54440
 H876 H 0.38875 1.06591 0.66211
 H877 H 0.31091 1.20120 0.60186
 H878 H 0.43196 1.03355 0.62097
 C879 C 0.83552 0.32017 -0.11177
 C880 C 0.82554 0.33893 -0.14191
 C881 C 0.83917 0.37623 -0.14654
 C882 C 0.86313 0.39426 -0.12180
 C883 C 0.87472 0.37459 -0.09227
 C884 C 0.86018 0.33767 -0.08735
 C885 C 0.90119 0.39197 -0.06863
 C886 C 0.91535 0.42912 -0.07392
 C887 C 0.90176 0.44877 -0.10272
 C888 C 0.87633 0.43149 -0.12645
 H889 H 0.83139 0.39111 -0.16952
 H890 H 0.86833 0.32212 -0.06484
 H891 H 0.91113 0.37654 -0.04651
 H892 H 0.86747 0.44714 -0.14874
 H893 H 0.82554 0.29136 -0.10763
 H894 H 0.91200 0.47736 -0.10764
 C895 C 0.33147 0.82238 0.39045
 C896 C 0.33128 0.83578 0.35708
 C897 C 0.35098 0.87001 0.34960
 C898 C 0.37186 0.88992 0.37475
 C899 C 0.37309 0.87566 0.40801
 C900 C 0.35220 0.84213 0.41567
 C901 C 0.39656 0.89435 0.43260
 C902 C 0.41950 0.92650 0.42388
 C903 C 0.41650 0.94122 0.39111
 C904 C 0.39270 0.92329 0.36685
 H905 H 0.35064 0.88091 0.32413
 H906 H 0.35261 0.83077 0.44096
 H907 H 0.39890 0.88272 0.45775
 H908 H 0.39186 0.93478 0.34160
 H909 H 0.31627 0.79616 0.39703
 H910 H 0.43386 0.96605 0.38381
 C911 C 1.10020 1.15909 0.33098
 C912 C 1.13924 1.17138 0.34212
 C913 C 1.15166 1.16314 0.37520
 C914 C 1.12647 1.14119 0.39627
 C915 C 1.08762 1.12836 0.38458
 C916 C 1.07442 1.13811 0.35215
 C917 C 1.06366 1.10434 0.40480
 C918 C 1.07898 1.09158 0.43585
 C919 C 1.11705 1.10531 0.44767
 C920 C 1.14036 1.13037 0.42824
 H921 H 1.18178 1.17226 0.38407
 H922 H 1.04473 1.12851 0.34280
 H923 H 1.03453 1.09348 0.39532
 H924 H 1.17004 1.13998 0.43760
 H925 H 1.08975 1.16539 0.30573
 H926 H 1.12931 1.09576 0.47156
 C927 C 0.69185 0.65567 -0.11306
 C928 C 0.66812 0.67024 -0.13970
 C929 C 0.62581 0.66166 -0.14160
 C930 C 0.60764 0.63743 -0.11806
 C931 C 0.63209 0.62118 -0.09231
 C932 C 0.67400 0.63114 -0.08960
 C933 C 0.61449 0.59445 -0.07047
 C934 C 0.57273 0.58408 -0.07405
 C935 C 0.54831 0.60197 -0.09866
 C936 C 0.56563 0.62825 -0.12055
 H937 H 0.60725 0.67317 -0.16190
 H938 H 0.69318 0.61925 -0.06991
 H939 H 0.63341 0.58113 -0.05131
 H940 H 0.54639 0.64073 -0.13993
 H941 H 0.72462 0.66192 -0.11122
 H942 H 0.51597 0.59471 -0.10181
 C943 C 0.82256 1.15940 0.62313
 C944 C 0.84414 1.16955 0.65246
 C945 C 0.88518 1.15737 0.65678
 C946 C 0.90421 1.13474 0.63225
 C947 C 0.88163 1.12355 0.60346
 C948 C 0.84103 1.13644 0.59896
 C949 C 0.89956 1.09882 0.58012
 C950 C 0.93994 1.08524 0.58503
 C951 C 0.96292 1.09805 0.61279
 C952 C 0.94516 1.12244 0.63628
 H953 H 0.90212 1.16538 0.67917
 H954 H 0.82333 1.12832 0.57702
 H955 H 0.88171 1.08935 0.55866
 H956 H 0.96312 1.13096 0.65796
 H957 H 0.79079 1.16834 0.61930
 H958 H 0.99415 1.08800 0.61716
 C959 C 0.30859 0.65920 0.11747
 C960 C 0.33211 0.67375 0.14415
 C961 C 0.37450 0.66529 0.14609
 C962 C 0.39294 0.64115 0.12258
 C963 C 0.36867 0.62474 0.09689
 C964 C 0.32668 0.63466 0.09410
 C965 C 0.38656 0.59787 0.07524
 C966 C 0.42846 0.58768 0.07890
 C967 C 0.45264 0.60589 0.10338
 C968 C 0.43503 0.63218 0.12511
 H969 H 0.39287 0.67674 0.16646
 H970 H 0.30761 0.62267 0.07445
 H971 H 0.36777 0.58432 0.05621
 H972 H 0.45414 0.64480 0.14443
 H973 H 0.27577 0.66534 0.11565
 H974 H 0.48503 0.59880 0.10665
 C975 C 1.10047 0.83298 0.66770
 C976 C 1.13872 0.81884 0.65560
 C977 C 1.15023 0.82752 0.62211
 C978 C 1.12605 0.85237 0.60261
 C979 C 1.08857 0.86683 0.61576
 C980 C 1.07555 0.85610 0.64787
 C981 C 1.06576 0.89350 0.59747
 C982 C 1.08084 0.90761 0.56685
 C983 C 1.11765 0.89261 0.55344
 C984 C 1.13973 0.86472 0.57092
 H985 H 1.17927 0.81718 0.61188
 H986 H 1.04678 0.86686 0.65823
 H987 H 1.03781 0.90527 0.60831
 H988 H 1.16841 0.85409 0.56035
 H989 H 1.08963 0.82662 0.69287
 H990 H 1.12983 0.90312 0.52984
 C991 C 0.59685 0.32653 0.16051
 C992 C 0.63865 0.32019 0.15220
 C993 C 0.65543 0.33766 0.12353
 C994 C 0.63148 0.36321 0.10471
 C995 C 0.58980 0.37023 0.11393
 C996 C 0.57250 0.35098 0.14132
 C997 C 0.56671 0.39763 0.09662
 C998 C 0.58512 0.41907 0.07089
 C999 C 0.62617 0.41116 0.06128
 C1000 C 0.64904 0.38326 0.07785
 H1001 H 0.68777 0.33326 0.11717
 H1002 H 0.54060 0.35593 0.14869
 H1003 H 0.53508 0.40350 0.10428
 H1004 H 0.68088 0.37824 0.07037
 H1005 H 0.58325 0.31320 0.18241
 H1006 H 0.64089 0.42710 0.04132
 C1007 C 0.90445 0.85338 0.32745
 C1008 C 0.86527 0.84076 0.33814
 C1009 C 0.85149 0.85027 0.37067
 C1010 C 0.87578 0.87323 0.39166
 C1011 C 0.91492 0.88596 0.38044
 C1012 C 0.92919 0.87543 0.34849
 C1013 C 0.93850 0.91011 0.40082
 C1014 C 0.92294 0.92281 0.43189
 C1015 C 0.88424 0.90957 0.44302
 C1016 C 0.86106 0.88470 0.42326
 H1017 H 0.82122 0.84104 0.37918
 H1018 H 0.95911 0.88496 0.33948
 H1019 H 0.96807 0.92042 0.39174
 H1020 H 0.83112 0.87525 0.43229
 H1021 H 0.91593 0.84631 0.30265
 H1022 H 0.87162 0.91890 0.46684
 C1023 C 0.40333 0.33663 -0.16091
 C1024 C 0.36103 0.33115 -0.15390
 C1025 C 0.34428 0.34578 -0.12399
 C1026 C 0.36892 0.36780 -0.10249
 C1027 C 0.41112 0.37404 -0.11040
 C1028 C 0.42825 0.35752 -0.13920
 C1029 C 0.43498 0.39829 -0.09042
 C1030 C 0.41685 0.41759 -0.06329
 C1031 C 0.37530 0.41021 -0.05489
 C1032 C 0.35164 0.38526 -0.07412
 H1033 H 0.31163 0.34196 -0.11849
 H1034 H 0.46055 0.36192 -0.14560
 H1035 H 0.46694 0.40385 -0.09725
 H1036 H 0.31941 0.38076 -0.06758
 H1037 H 0.41700 0.32533 -0.18366
 H1038 H 0.36074 0.42459 -0.03395
 C1039 C 1.15876 0.39266 -0.17072
 C1040 C 1.17606 0.35882 -0.15833
 C1041 C 1.16984 0.34918 -0.12437
 C1042 C 1.14454 0.37200 -0.10379
 C1043 C 1.12580 0.40481 -0.11734
 C1044 C 1.13395 0.41533 -0.15050
 C1045 C 1.09816 0.42608 -0.09793
 C1046 C 1.08877 0.41523 -0.06493
 C1047 C 1.10888 0.38366 -0.05092
 C1048 C 1.13643 0.36210 -0.07025
 H1049 H 1.18312 0.32337 -0.11441
 H1050 H 1.12027 0.44064 -0.16111
 H1051 H 1.08324 0.45071 -0.10876
 H1052 H 1.15063 0.33727 -0.05924
 H1053 H 1.16357 0.40136 -0.19653
 H1054 H 1.10221 0.37490 -0.02539
 C1055 C 0.67005 0.82679 0.38324
 C1056 C 0.67998 0.84568 0.35321
 C1057 C 0.66781 0.88348 0.34907
 C1058 C 0.64501 0.90192 0.37428
 C1059 C 0.63326 0.88207 0.40366
 C1060 C 0.64655 0.84469 0.40812
 C1061 C 0.60748 0.89960 0.42755
 C1062 C 0.59386 0.93692 0.42265
 C1063 C 0.60779 0.95700 0.39429
 C1064 C 0.63287 0.93962 0.37023
 H1065 H 0.67583 0.89838 0.32614
 H1066 H 0.63819 0.82911 0.43057
 H1067 H 0.59716 0.88393 0.44945
 H1068 H 0.64191 0.95540 0.34806
 H1069 H 0.67917 0.79763 0.38692
 H1070 H 0.59764 0.98568 0.38980
 C1071 C 0.88017 0.63536 -0.17437
 C1072 C 0.84914 0.65752 -0.15908
 C1073 C 0.84358 0.65535 -0.12404
 C1074 C 0.86872 0.63110 -0.10475
 C1075 C 0.89944 0.60901 -0.12081
 C1076 C 0.90489 0.61135 -0.15550
 C1077 C 0.92495 0.58525 -0.10200
 C1078 C 0.92114 0.58352 -0.06701
 C1079 C 0.89026 0.60504 -0.05095
 C1080 C 0.86408 0.62856 -0.06973
 H1081 H 0.81973 0.67212 -0.11194
 H1082 H 0.92845 0.59470 -0.16809
 H1083 H 0.94864 0.56879 -0.11467
 H1084 H 0.84072 0.64514 -0.05686
 H1085 H 0.88556 0.63641 -0.20122
 H1086 H 0.88685 0.60415 -0.02387
 C1087 C 0.34253 1.18515 0.38723
 C1088 C 0.32690 1.16430 0.36008
 C1089 C 0.33347 1.12523 0.35892
 C1090 C 0.35649 1.10720 0.38417
 C1091 C 0.37427 1.12862 0.41045
 C1092 C 0.36643 1.16754 0.41206
 C1093 C 0.40061 1.11093 0.43390
 C1094 C 0.40887 1.07203 0.43149
 C1095 C 0.38848 1.05078 0.40663
 C1096 C 0.36290 1.06820 0.38306
 H1097 H 0.32099 1.10900 0.33819
 H1098 H 0.37940 1.18443 0.43212
 H1099 H 0.41577 1.12758 0.45311
 H1100 H 0.34897 1.05125 0.36345
 H1101 H 0.33764 1.21538 0.38848
 H1102 H 0.39369 1.02073 0.40440
 C1103 C 1.10587 0.66633 0.16872
 C1104 C 1.14602 0.67486 0.15737
 C1105 C 1.15917 0.66264 0.12557
 C1106 C 1.13305 0.63969 0.10623
 C1107 C 1.09351 0.62978 0.11890
 C1108 C 1.07978 0.64401 0.14962
 C1109 C 1.06842 0.60507 0.10109
 C1110 C 1.08172 0.59025 0.07041
 C1111 C 1.12024 0.60098 0.05704
 C1112 C 1.14600 0.62542 0.07504
 H1113 H 1.19017 0.66920 0.11682
 H1114 H 1.04935 0.63699 0.15935
 H1115 H 1.03828 0.59744 0.11113
 H1116 H 1.17605 0.63281 0.06480
 H1117 H 1.09505 0.67606 0.19300
 H1118 H 1.13061 0.58997 0.03308
 C1119 C 0.65709 1.18333 0.61738
 C1120 C 0.66961 1.16536 0.64716
 C1121 C 0.66207 1.12661 0.65138
 C1122 C 0.64109 1.10618 0.62652
 C1123 C 0.62662 1.12491 0.59740
 C1124 C 0.63539 1.16335 0.59280
 C1125 C 0.60245 1.10520 0.57399
 C1126 C 0.59281 1.06695 0.57923
 C1127 C 0.60962 1.04803 0.60715
 C1128 C 0.63338 1.06753 0.63070
 H1129 H 0.67236 1.11248 0.67409
 H1130 H 0.62487 1.17808 0.57050
 H1131 H 0.58989 1.11994 0.55236
 H1132 H 0.64466 1.05264 0.65268
 H1133 H 0.66289 1.21316 0.61365
 H1134 H 0.60261 1.01858 0.61174
 C1135 C 0.82253 0.32453 0.11066
 C1136 C 0.82438 0.33534 0.14470
 C1137 C 0.84829 0.36690 0.15347
 C1138 C 0.87116 0.38645 0.12902
 C1139 C 0.87030 0.37463 0.09506
 C1140 C 0.84528 0.34393 0.08612
 C1141 C 0.89546 0.39295 0.07102
 C1142 C 0.92182 0.42249 0.08089
 C1143 C 0.92097 0.43472 0.11453
 C1144 C 0.89588 0.41705 0.13826
 H1145 H 0.84980 0.37587 0.17948
 H1146 H 0.84395 0.33444 0.06027
 H1147 H 0.89587 0.38323 0.04521
 H1148 H 0.89670 0.42670 0.16408
 H1149 H 0.80428 0.30040 0.10303
 H1150 H 0.94066 0.45757 0.12284
 C1151 C 0.32261 0.82280 0.61219
 C1152 C 0.32468 0.83341 0.64649
 C1153 C 0.34975 0.86472 0.65479
 C1154 C 0.37209 0.88440 0.62986
 C1155 C 0.37131 0.87210 0.59606
 C1156 C 0.34613 0.84140 0.58756
 C1157 C 0.39564 0.89080 0.57150
 C1158 C 0.41909 0.92278 0.58026
 C1159 C 0.41787 0.93554 0.61375
 C1160 C 0.39527 0.91633 0.63829
 H1161 H 0.35169 0.87430 0.68061
 H1162 H 0.34453 0.83173 0.56178
 H1163 H 0.39594 0.88087 0.54576
 H1164 H 0.39596 0.92652 0.66394
 H1165 H 0.30380 0.79916 0.60420
 H1166 H 0.43553 0.96001 0.62134
 C1167 C 0.31143 1.17198 -0.11696
 C1168 C 0.32949 1.17195 -0.14916
 C1169 C 0.36309 1.14753 -0.15550
 C1170 C 0.37852 1.12372 -0.13010
 C1171 C 0.35959 1.12351 -0.09802
 C1172 C 0.32609 1.14780 -0.09174
 C1173 C 0.37517 1.09970 -0.07260
 C1174 C 0.41044 1.07732 -0.07852
 C1175 C 0.42916 1.07800 -0.11039
 C1176 C 0.41299 1.10051 -0.13611
 H1177 H 0.37755 1.14731 -0.18011
 H1178 H 0.31133 1.14825 -0.06727
 H1179 H 0.36117 1.09994 -0.04781
 H1180 H 0.42804 1.10044 -0.16046
 H1181 H 0.28535 1.19022 -0.11140
 H1182 H 0.45664 1.06124 -0.11526
 C1183 C 0.86561 0.69565 0.37604
 C1184 C 0.85164 0.67789 0.34668
 C1185 C 0.85692 0.63867 0.34297
 C1186 C 0.87472 0.61720 0.36884
 C1187 C 0.88862 0.63540 0.39828
 C1188 C 0.88440 0.67463 0.40149
 C1189 C 0.90568 0.61403 0.42439
 C1190 C 0.90813 0.57448 0.42202
 C1191 C 0.89421 0.55651 0.39274
 C1192 C 0.87791 0.57777 0.36619
 H1193 H 0.84567 0.62467 0.32057
 H1194 H 0.89486 0.68894 0.42397
 H1195 H 0.91616 0.62821 0.44695
 H1196 H 0.86728 0.56336 0.34382
 H1197 H 0.86183 0.72582 0.37933
 H1198 H 0.89604 0.52609 0.39038
 C1199 C 0.68142 1.15797 0.10850
 C1200 C 0.66263 1.16065 0.14027
 C1201 C 0.62487 1.14205 0.14618
 C1202 C 0.60596 1.12111 0.12056
 C1203 C 0.62572 1.11777 0.08895
 C1204 C 0.66335 1.13638 0.08315
 C1205 C 0.60721 1.09633 0.06350
 C1206 C 0.56843 1.07946 0.06880
 C1207 C 0.54856 1.08351 0.09998
 C1208 C 0.56746 1.10374 0.12587
 H1209 H 0.60999 1.14429 0.17055
 H1210 H 0.67874 1.13433 0.05900
 H1211 H 0.62228 1.09380 0.03923
 H1212 H 0.55175 1.10621 0.14985
 H1213 H 0.71066 1.17190 0.10351
 H1214 H 0.51851 1.07079 0.10434
 C1215 C 1.14478 0.68363 0.61132
 C1216 C 1.15730 0.66427 0.64042
 C1217 C 1.14672 0.62600 0.64436
 C1218 C 1.12408 0.60719 0.61952
 C1219 C 1.11108 0.62707 0.59059
 C1220 C 1.12157 0.66525 0.58671
 C1221 C 1.08827 0.60833 0.56583
 C1222 C 1.07919 0.56969 0.56913
 C1223 C 1.09256 0.55004 0.59779
 C1224 C 1.11453 0.56875 0.62298
 H1225 H 1.15659 0.61067 0.66657
 H1226 H 1.11197 0.68083 0.56458
 H1227 H 1.07847 0.62361 0.54358
 H1228 H 1.12441 0.55308 0.64497
 H1229 H 1.15242 0.71315 0.60784
 H1230 H 1.08589 0.52025 0.60074
 C1231 C 0.69327 0.83600 -0.10712
 C1232 C 0.67433 0.82902 -0.13823
 C1233 C 0.63463 0.84400 -0.14446
 C1234 C 0.61450 0.86646 -0.12055
 C1235 C 0.63431 0.87459 -0.08978
 C1236 C 0.67351 0.85885 -0.08314
 C1237 C 0.61438 0.89812 -0.06628
 C1238 C 0.57447 0.91255 -0.07288
 C1239 C 0.55491 0.90358 -0.10329
 C1240 C 0.57491 0.88108 -0.12708
 H1241 H 0.61940 0.83840 -0.16821
 H1242 H 0.68905 0.86450 -0.05957
 H1243 H 0.62936 0.90438 -0.04257
 H1244 H 0.55928 0.87491 -0.15051
 H1245 H 0.72385 0.82486 -0.10181
 H1246 H 0.52412 0.91420 -0.10872
 C1247 C 1.13619 0.30812 0.37741
 C1248 C 1.15076 0.32759 0.34899
 C1249 C 1.14142 0.36616 0.34517
 C1250 C 1.11883 0.38535 0.37000
 C1251 C 1.10434 0.36543 0.39848
 C1252 C 1.11282 0.32680 0.40179
 C1253 C 1.08246 0.38463 0.42361
 C1254 C 1.07590 0.42377 0.42128
 C1255 C 1.09034 0.44341 0.39291
 C1256 C 1.11131 0.42427 0.36729
 H1257 H 1.15289 0.38148 0.32346
 H1258 H 1.10198 0.31116 0.42351
 H1259 H 1.07173 0.36925 0.44553
 H1260 H 1.12228 0.44000 0.34568
 H1261 H 1.14282 0.27836 0.38074
 H1262 H 1.08550 0.47357 0.39062
 C1263 C 0.30276 0.84075 0.11786
 C1264 C 0.32421 0.83723 0.14846
 C1265 C 0.36202 0.85630 0.15259
 C1266 C 0.37861 0.87791 0.12620
 C1267 C 0.35655 0.88144 0.09563
 C1268 C 0.31857 0.86290 0.09182
 C1269 C 0.37337 0.90258 0.06906
 C1270 C 0.41272 0.91892 0.07220
 C1271 C 0.43444 0.91532 0.10261
 C1272 C 0.41730 0.89541 0.12956
 H1273 H 0.37893 0.85364 0.17600
 H1274 H 0.30132 0.86517 0.06856
 H1275 H 0.35677 0.90481 0.04546
 H1276 H 0.43472 0.89295 0.15272
 H1277 H 0.27335 0.82668 0.11414
 H1278 H 0.46492 0.92772 0.10540
 C1279 C 0.85717 0.30901 0.62304
 C1280 C 0.84386 0.32927 0.65140
 C1281 C 0.85181 0.36817 0.65345
 C1282 C 0.87133 0.38698 0.62671
 C1283 C 0.88432 0.36633 0.59818
 C1284 C 0.87766 0.32730 0.59681
 C1285 C 0.90271 0.38515 0.57105
 C1286 C 0.90719 0.42455 0.57150
 C1287 C 0.89444 0.44490 0.59998
 C1288 C 0.87696 0.42621 0.62752
 H1289 H 0.84122 0.38401 0.67513
 H1290 H 0.88741 0.31109 0.57512
 H1291 H 0.91233 0.36922 0.54913
 H1292 H 0.86715 0.44251 0.64913
 H1293 H 0.85151 0.27895 0.62111
 H1294 H 0.89789 0.47530 0.60090
 C1295 C 1.17245 1.18486 0.60710
 C1296 C 1.16389 1.17994 0.64157
 C1297 C 1.13760 1.15040 0.65146
 C1298 C 1.12151 1.12527 0.62774
 C1299 C 1.13073 1.12987 0.59321
 C1300 C 1.15580 1.16020 0.58313
 C1301 C 1.11543 1.10356 0.56969
 C1302 C 1.09190 1.07249 0.58072
 C1303 C 1.08298 1.06872 0.61519
 C1304 C 1.09727 1.09491 0.63836
 H1305 H 1.13073 1.14598 0.67785
 H1306 H 1.16329 1.16435 0.55684
 H1307 H 1.12254 1.10676 0.54321
 H1308 H 1.08994 1.09098 0.66472
 H1309 H 1.19264 1.20736 0.59867
 H1310 H 1.06485 1.04528 0.62451
 C1311 C 0.61692 0.64818 0.17368
 C1312 C 0.64904 0.66957 0.15911
 C1313 C 0.65645 0.66640 0.12431
 C1314 C 0.63330 0.64087 0.10481
 C1315 C 0.60233 0.61864 0.12033
 C1316 C 0.59385 0.62306 0.15453
 C1317 C 0.58103 0.59146 0.10171
 C1318 C 0.59004 0.58583 0.06760
 C1319 C 0.61962 0.60898 0.05182
 C1320 C 0.64119 0.63625 0.07033
 H1321 H 0.68093 0.68277 0.11265
 H1322 H 0.56992 0.60645 0.16667
 H1323 H 0.55807 0.57394 0.11409
 H1324 H 0.66462 0.65313 0.05787
 H1325 H 0.60997 0.65023 0.20025
 H1326 H 0.62698 0.60518 0.02548
 C1327 C 1.17978 0.82848 0.39680
 C1328 C 1.16419 0.82829 0.36382
 C1329 C 1.12967 0.85083 0.35601
 C1330 C 1.11253 0.87500 0.37990
 C1331 C 1.12910 0.87616 0.41274
 C1332 C 1.16219 0.85215 0.42116
 C1333 C 1.11322 0.90228 0.43598
 C1334 C 1.08206 0.92779 0.42613
 C1335 C 1.06536 0.92560 0.39365
 C1336 C 1.08012 0.89917 0.37085
 H1337 H 1.11687 0.85070 0.33083
 H1338 H 1.17526 0.85254 0.44622
 H1339 H 1.12624 0.90390 0.46103
 H1340 H 1.06705 0.89845 0.34578
 H1341 H 1.20631 0.81129 0.40348
 H1342 H 1.04114 0.94479 0.38567
 C1343 C 0.60632 0.34958 -0.16593
 C1344 C 0.64331 0.33380 -0.15339
 C1345 C 0.65475 0.34078 -0.11993
 C1346 C 0.63091 0.36544 -0.10008
 C1347 C 0.59510 0.38267 -0.11381
 C1348 C 0.58245 0.37371 -0.14635
 C1349 C 0.57328 0.40969 -0.09532
 C1350 C 0.58667 0.41993 -0.06319
 C1351 C 0.62094 0.40139 -0.04886
 C1352 C 0.64302 0.37440 -0.06724
 H1353 H 0.68303 0.32862 -0.10994
 H1354 H 0.55477 0.38625 -0.15703
 H1355 H 0.54651 0.42354 -0.10631
 H1356 H 0.67014 0.36134 -0.05613
 H1357 H 0.59622 0.34406 -0.19139
 H1358 H 0.63160 0.40878 -0.02393
 C1359 C 0.88730 1.13922 0.32857
 C1360 C 0.85272 1.15904 0.34107
 C1361 C 0.84361 1.15681 0.37575
 C1362 C 0.86782 1.13392 0.39718
 C1363 C 0.90157 1.11344 0.38374
 C1364 C 0.91145 1.11679 0.34964
 C1365 C 0.92426 1.08888 0.40428
 C1366 C 0.91369 1.08379 0.43825
 C1367 C 0.88126 1.10535 0.45199
 C1368 C 0.85844 1.13023 0.43158
 H1369 H 0.81720 1.17196 0.38587
 H1370 H 0.93744 1.10143 0.33906
 H1371 H 0.94954 1.07275 0.39346
 H1372 H 0.83285 1.14581 0.44248
 H1373 H 0.89556 1.14056 0.30222
 H1374 H 0.87257 1.10191 0.47811
 C1375 C 0.38545 0.63284 -0.17586
 C1376 C 0.35372 0.65588 -0.16284
 C1377 C 0.34638 0.65594 -0.12790
 C1378 C 0.36938 0.63222 -0.10655
 C1379 C 0.40017 0.60843 -0.12032
 C1380 C 0.40845 0.60941 -0.15482
 C1381 C 0.42144 0.58312 -0.09961
 C1382 C 0.41240 0.58082 -0.06515
 C1383 C 0.38296 0.60553 -0.05122
 C1384 C 0.36153 0.63105 -0.07182
 H1385 H 0.32222 0.67366 -0.11740
 H1386 H 0.43218 0.59147 -0.16566
 H1387 H 0.44434 0.56439 -0.11059
 H1388 H 0.33821 0.64923 -0.06073
 H1389 H 0.39214 0.63231 -0.20253
 H1390 H 0.37559 0.60427 -0.02468
 C1391 C 0.81589 0.83420 0.61040
 C1392 C 0.83444 0.82982 0.64217
 C1393 C 0.87248 0.84747 0.64851
 C1394 C 0.89074 0.87080 0.62440
 C1395 C 0.87138 0.87633 0.59289
 C1396 C 0.83429 0.85723 0.58590
 C1397 C 0.88863 0.90202 0.56972
 C1398 C 0.92407 0.92281 0.57851
 C1399 C 0.94344 0.91597 0.60952
 C1400 C 0.92729 0.88993 0.63206
 H1401 H 0.88745 0.84399 0.67270
 H1402 H 0.81894 0.86095 0.56193
 H1403 H 0.87339 0.90733 0.54591
 H1404 H 0.94256 0.88586 0.65604
 H1405 H 0.78656 0.82078 0.60485
 H1406 H 0.97068 0.93161 0.61687
 C1407 C 0.39599 0.35711 0.17985
 C1408 C 0.36327 0.33636 0.16554
 C1409 C 0.35487 0.34036 0.13110
 C1410 C 0.37723 0.36641 0.11170
 C1411 C 0.40875 0.38830 0.12681
 C1412 C 0.41855 0.38276 0.16065
 C1413 C 0.42906 0.41623 0.10815
 C1414 C 0.41816 0.42274 0.07458
 C1415 C 0.38805 0.39985 0.05928
 C1416 C 0.36768 0.37193 0.07773
 H1417 H 0.32988 0.32449 0.11971
 H1418 H 0.44290 0.39900 0.17252
 H1419 H 0.45266 0.43344 0.11997
 H1420 H 0.34383 0.35529 0.06565
 H1421 H 0.40358 0.35426 0.20623
 H1422 H 0.37940 0.40421 0.03327
   
