data_POSCAR
  _audit_creation_date              2014-09-24
  _audit_creation_method            'ToBaCCo'
  _symmetry_space_group_name_H-M    'P1'
  _symmetry_Int_Tables_number       1
  _symmetry_cell_setting            triclinic
  loop_
  _symmetry_equiv_pos_as_xyz
 x,y,z
_cell_length_a 79.9091
_cell_length_b 79.7733
_cell_length_c 79.7100
_cell_angle_alpha 90.027700
_cell_angle_beta 90.050100
_cell_angle_gamma 90.030600
loop_
  _atom_site_label
  _atom_site_type_symbol
  _atom_site_fract_x
  _atom_site_fract_y
  _atom_site_fract_z
C1 C 0.30629 0.44464 0.92354
 C2 C 0.32087 0.45167 0.93033
 C3 C 0.32834 0.44449 0.94453
 C4 C 0.32115 0.43028 0.95197
 C5 C 0.30657 0.42324 0.94519
 C6 C 0.29913 0.43045 0.93100
 H7 H 0.32654 0.46250 0.92437
 H8 H 0.32704 0.42450 0.96279
 H9 H 0.28801 0.42483 0.92557
 C10 C 0.44232 0.83001 0.44250
 C11 C 0.44949 0.82285 0.42813
 C12 C 0.44230 0.80856 0.42087
 C13 C 0.42798 0.80138 0.42800
 C14 C 0.42080 0.80850 0.44236
 C15 C 0.42798 0.82280 0.44962
 H16 H 0.46045 0.82852 0.42244
 H17 H 0.42228 0.79046 0.42225
 H18 H 0.42226 0.82843 0.46060
 C19 C 0.94316 0.92279 0.80690
 C20 C 0.95024 0.92976 0.82140
 C21 C 0.94285 0.94379 0.82897
 C22 C 0.92838 0.95087 0.82196
 C23 C 0.92130 0.94390 0.80746
 C24 C 0.92871 0.92988 0.79993
 H25 H 0.96128 0.92407 0.82693
 H26 H 0.92247 0.96157 0.82792
 H27 H 0.92307 0.92432 0.78886
 C28 C 0.44240 -0.07839 0.30673
 C29 C 0.44974 -0.07132 0.32105
 C30 C 0.44271 -0.05702 0.32841
 C31 C 0.42835 -0.04976 0.32141
 C32 C 0.42099 -0.05682 0.30710
 C33 C 0.42804 -0.07113 0.29975
 H34 H 0.46071 -0.07709 0.32661
 H35 H 0.42275 -0.03884 0.32726
 H36 H 0.42220 -0.07675 0.28882
 C37 C 0.80655 0.30643 0.32729
 C38 C 0.82101 0.29938 0.32030
 C39 C 0.82848 0.30677 0.30623
 C40 C 0.82145 0.32120 0.29912
 C41 C 0.80699 0.32827 0.30609
 C42 C 0.79953 0.32087 0.32016
 H43 H 0.82660 0.28837 0.32598
 H44 H 0.82738 0.32708 0.28839
 H45 H 0.78850 0.32649 0.32572
 C46 C -0.19433 0.82871 0.80589
 C47 C -0.18011 0.82132 0.79874
 C48 C -0.17323 0.80681 0.80584
 C49 C -0.18059 0.79965 0.82007
 C50 C -0.19482 0.80700 0.82726
 C51 C -0.20170 0.82152 0.82014
 H52 H -0.17422 0.82699 0.78787
 H53 H -0.17507 0.78857 0.82570
 H54 H -0.21256 0.82737 0.82585
 C55 C 0.94524 0.32595 0.44487
 C56 C 0.93108 0.31853 0.45209
 C57 C 0.92390 0.30428 0.44472
 C58 C 0.93093 0.29743 0.43016
 C59 C 0.94509 0.30484 0.42293
 C60 C 0.95226 0.31908 0.43031
 H61 H 0.92546 0.32402 0.46318
 H62 H 0.92520 0.28658 0.42429
 H63 H 0.96304 0.32500 0.42455
 C64 C 0.44411 0.44390 0.82814
 C65 C 0.42995 0.45125 0.82080
 C66 C 0.42303 0.44436 0.80618
 C67 C 0.43030 0.43015 0.79887
 C68 C 0.44445 0.42279 0.80618
 C69 C 0.45137 0.42968 0.82080
 H70 H 0.42413 0.46209 0.82659
 H71 H 0.42477 0.42464 0.78773
 H72 H 0.46216 0.42379 0.82659
 C73 C 0.80609 0.92350 0.94424
 C74 C 0.82052 0.93066 0.95123
 C75 C 0.82783 0.94476 0.94374
 C76 C 0.82067 0.95173 0.92929
 C77 C 0.80625 0.94458 0.92229
 C78 C 0.79895 0.93048 0.92979
 H79 H 0.82622 0.92508 0.96224
 H80 H 0.82648 0.96247 0.92333
 H81 H 0.78795 0.92477 0.92421
 C82 C 0.30746 0.82968 0.30744
 C83 C 0.32181 0.82251 0.30032
 C84 C 0.32900 0.80822 0.30755
 C85 C 0.32182 0.80106 0.32189
 C86 C 0.30749 0.80821 0.32903
 C87 C 0.30030 0.82250 0.32179
 H88 H 0.32754 0.82816 0.28935
 H89 H 0.32753 0.79015 0.32763
 H90 H 0.28933 0.82815 0.32749
 C91 C 0.80596 0.42316 0.44468
 C92 C 0.82018 0.43052 0.45188
 C93 C 0.82739 0.44477 0.44454
 C94 C 0.82029 0.45168 0.43002
 C95 C 0.80606 0.44433 0.42281
 C96 C 0.79890 0.43009 0.43016
 H97 H 0.82580 0.42495 0.46296
 H98 H 0.82598 0.46255 0.42414
 H99 H 0.78806 0.42423 0.42442
 C100 C 0.94413 0.82842 -0.05487
 C101 C 0.95148 0.82114 -0.06909
 C102 C 0.94460 0.80658 -0.07611
 C103 C 0.93040 0.79924 -0.06888
 C104 C 0.92303 0.80648 -0.05468
 C105 C 0.92991 0.82105 -0.04766
 H106 H 0.96231 0.82695 -0.07488
 H107 H 0.92491 0.78814 -0.07448
 H108 H 0.92402 0.82679 -0.03682
 C109 C 0.30487 0.32537 0.80403
 C110 C 0.29765 0.31831 0.81839
 C111 C 0.30471 0.30398 0.82568
 C112 C 0.31898 0.29668 0.81856
 C113 C 0.32622 0.30373 0.80420
 C114 C 0.31915 0.31806 0.79692
 H115 H 0.28679 0.32414 0.82408
 H116 H 0.32463 0.28577 0.82438
 H117 H 0.32493 0.32370 0.78599
 C118 C 0.17168 0.55622 0.55639
 C119 C 0.17865 0.54904 0.57083
 C120 C 0.19311 0.55596 0.57799
 C121 C 0.20063 0.57004 0.57067
 C122 C 0.19367 0.57723 0.55622
 C123 C 0.17922 0.57029 0.54908
 H124 H 0.17268 0.53831 0.57665
 H125 H 0.21166 0.57557 0.57636
 H126 H 0.17367 0.57602 0.53806
 C127 C 0.57723 0.69471 0.05481
 C128 C 0.57006 0.70207 0.06905
 C129 C 0.55555 0.69517 0.07612
 C130 C 0.54820 0.68095 0.06889
 C131 C 0.55536 0.67358 0.05465
 C132 C 0.56986 0.68048 0.04760
 H133 H 0.57591 0.71291 0.07481
 H134 H 0.53714 0.67543 0.07453
 H135 H 0.57558 0.67462 0.03674
 C136 C 0.69335 0.19325 0.67195
 C137 C 0.70075 0.17912 0.67927
 C138 C 0.69372 0.17195 0.69370
 C139 C 0.67930 0.17899 0.70081
 C140 C 0.67189 0.19312 0.69349
 C141 C 0.67893 0.20026 0.67907
 H142 H 0.71176 0.17356 0.67357
 H143 H 0.67367 0.17332 0.71182
 H144 H 0.67305 0.21104 0.67325
 C145 C 1.07566 0.05411 0.19542
 C146 C 1.06857 0.04691 0.18104
 C147 C 1.05431 0.05409 0.17372
 C148 C 1.04712 0.06844 0.18086
 C149 C 1.05421 0.07564 0.19524
 C150 C 1.06846 0.06845 0.20253
 H151 H 1.07435 0.03598 0.17538
 H152 H 1.03627 0.07422 0.17507
 H153 H 1.07413 0.07420 0.21348
 C154 C 0.05574 0.17369 1.05558
 C155 C 0.07035 0.18052 1.04869
 C156 C 0.07773 0.19469 1.05599
 C157 C 0.07046 0.20206 1.07018
 C158 C 0.05584 0.19524 1.07711
 C159 C 0.04847 0.18107 1.06977
 H160 H 0.07613 0.17465 1.03788
 H161 H 0.07636 0.21287 1.07598
 H162 H 0.03732 0.17557 1.07526
 C163 C 0.17106 0.69273 0.69368
 C164 C 0.17819 0.67829 0.70066
 C165 C 0.19271 0.67140 0.69365
 C166 C 0.20014 0.67900 0.67967
 C167 C 0.19304 0.69345 0.67267
 C168 C 0.17851 0.70033 0.67970
 H169 H 0.17229 0.67225 0.71132
 H170 H 0.21123 0.67352 0.67407
 H171 H 0.17285 0.71135 0.67412
 C172 C 1.19521 0.17358 0.19471
 C173 C 1.18102 0.18080 0.20207
 C174 C 1.17368 0.19504 0.19488
 C175 C 1.18058 0.20209 0.18036
 C176 C 1.19477 0.19488 0.17299
 C177 C 1.20210 0.18065 0.18019
 H178 H 1.17549 0.17515 0.21313
 H179 H 1.17473 0.21294 0.17462
 H180 H 1.21291 0.17489 0.17432
 C181 C 0.67302 1.05610 0.55476
 C182 C 0.68031 1.04870 0.56895
 C183 C 0.69449 1.05593 0.57635
 C184 C 0.70143 1.07055 0.56954
 C185 C 0.69417 1.07799 0.55536
 C186 C 0.67998 1.07073 0.54796
 H187 H 0.67480 1.03753 0.57442
 H188 H 0.71224 1.07628 0.57547
 H189 H 0.67419 1.07662 0.53714
 C190 C 0.55452 0.55434 0.17430
 C191 C 0.54727 0.56866 0.18141
 C192 C 0.55436 0.57596 0.19574
 C193 C 0.56869 0.56889 0.20300
 C194 C 0.57595 0.55457 0.19590
 C195 C 0.56885 0.54728 0.18157
 H196 H 0.53636 0.57431 0.17561
 H197 H 0.57436 0.57471 0.21391
 H198 H 0.57464 0.53638 0.17589
 C199 C 0.67296 0.69486 0.19437
 C200 C 0.67962 0.70167 0.17961
 C201 C 0.69373 0.69438 0.17217
 C202 C 0.70122 0.68031 0.17953
 C203 C 0.69457 0.67349 0.19428
 C204 C 0.68045 0.68079 0.20171
 H205 H 0.67363 0.71237 0.17376
 H206 H 0.71196 0.67448 0.17360
 H207 H 0.67512 0.67532 0.21296
 C208 C 0.17262 0.05550 1.05466
 C209 C 0.17966 0.07007 1.04780
 C210 C 0.19388 0.07727 1.05517
 C211 C 0.20111 0.06987 1.06936
 C212 C 0.19410 0.05531 1.07623
 C213 C 0.17988 0.04811 1.06887
 H214 H 0.17392 0.07599 1.03698
 H215 H 0.21195 0.07560 1.07523
 H216 H 0.17431 0.03700 1.07439
 C217 C 0.57819 0.19440 0.55597
 C218 C 0.57114 0.20154 0.57040
 C219 C 0.55671 0.19453 0.57749
 C220 C 0.54930 0.18041 0.57012
 C221 C 0.55633 0.17327 0.55570
 C222 C 0.57075 0.18029 0.54861
 H223 H 0.57706 0.21229 0.57626
 H224 H 0.53830 0.17480 0.57578
 H225 H 0.57637 0.17459 0.53762
 C226 C 0.07901 0.55769 0.69297
 C227 C 0.07172 0.57195 0.70016
 C228 C 0.05737 0.57904 0.69296
 C229 C 0.05029 0.57183 0.67858
 C230 C 0.05757 0.55757 0.67137
 C231 C 0.07191 0.55049 0.67858
 H232 H 0.07735 0.57767 0.71115
 H233 H 0.03933 0.57746 0.67286
 H234 H 0.07769 0.53960 0.67286
 C235 C 0.67320 0.55595 0.05506
 C236 C 0.68020 0.57048 0.04811
 C237 C 0.69441 0.57775 0.05543
 C238 C 0.70164 0.57045 0.06968
 C239 C 0.69466 0.55591 0.07664
 C240 C 0.68045 0.54866 0.06930
 H241 H 0.67443 0.57628 0.03725
 H242 H 0.71247 0.57623 0.07551
 H243 H 0.67486 0.53759 0.07486
 C244 C 0.05664 0.69340 0.57862
 C245 C 0.07070 0.70074 0.57113
 C246 C 0.07770 0.69360 0.55669
 C247 C 0.07058 0.67913 0.54971
 C248 C 0.05652 0.67178 0.55718
 C249 C 0.04954 0.67893 0.57162
 H250 H 0.07637 0.71178 0.57669
 H251 H 0.07615 0.67344 0.53868
 H252 H 0.03880 0.67310 0.57756
 C253 C 0.55536 1.05605 0.67251
 C254 C 0.56950 1.04878 0.67996
 C255 C 0.57674 1.05613 0.69418
 C256 C 0.56982 1.07075 0.70101
 C257 C 0.55568 1.07806 0.69359
 C258 C 0.54844 1.07069 0.67935
 H259 H 0.57506 1.03762 0.67454
 H260 H 0.57563 1.07657 0.71186
 H261 H 0.53765 1.07648 0.67344
 C262 C 0.44494 0.32663 0.94501
 C263 C 0.45235 0.31934 0.93086
 C264 C 0.44552 0.30474 0.92385
 C265 C 0.43131 0.29741 0.93105
 C266 C 0.42388 0.30468 0.94520
 C267 C 0.43072 0.31928 0.95219
 H268 H 0.46318 0.32518 0.92512
 H269 H 0.42584 0.28628 0.92545
 H270 H 0.42480 0.32509 0.96297
 C271 C 0.94353 0.44330 0.32809
 C272 C 0.92906 0.45040 0.32112
 C273 C 0.92157 0.44308 0.30701
 C274 C 0.92857 0.42867 0.29982
 C275 C 0.94302 0.42155 0.30676
 C276 C 0.95052 0.42888 0.32088
 H277 H 0.92345 0.46140 0.32682
 H278 H 0.92263 0.42286 0.28905
 H279 H 0.96156 0.42318 0.32638
 C280 C 0.30787 0.94243 0.42108
 C281 C 0.32226 0.94963 0.42811
 C282 C 0.32952 0.94257 0.44246
 C283 C 0.32235 0.92833 0.44982
 C284 C 0.30797 0.92112 0.44281
 C285 C 0.30072 0.92819 0.42845
 H286 H 0.32795 0.96050 0.42226
 H287 H 0.32811 0.92271 0.46078
 H288 H 0.28973 0.92246 0.42287
 O289 O 0.29468 0.49857 0.77185
 O290 O 0.28925 0.52715 0.76970
 O291 O 0.25076 0.47823 0.79493
 O292 O 0.22322 0.47754 0.78993
 O293 O 0.27148 0.45478 0.75078
 O294 O 0.27028 0.46109 0.72160
 O295 O 0.20630 0.52152 0.74955
 O296 O 0.21107 0.51818 0.77804
 O297 O 0.24869 0.54339 0.72866
 O298 O 0.27882 0.53761 0.72967
 O299 O 0.22835 0.50075 0.70635
 O300 O 0.22913 0.47081 0.71210
 O301 O 0.20619 0.50140 0.72922
 O302 O 0.21229 0.47029 0.73086
 O303 O 0.24855 0.52086 0.70620
 O304 O 0.27936 0.51907 0.71253
 O305 O 0.22836 0.54328 0.74865
 O306 O 0.23401 0.53773 0.77897
 O307 O 0.29480 0.47869 0.75125
 O308 O 0.28842 0.48010 0.72150
 O309 O 0.25139 0.45459 0.77102
 O310 O 0.22114 0.46147 0.76843
 O311 O 0.27128 0.49808 0.79490
 O312 O 0.26754 0.52829 0.78829
 Zr313 Zr 0.27035 0.50855 0.77064
 O314 O 0.25575 0.52465 0.75567
 Zr315 Zr 0.24105 0.47889 0.77040
 O316 O 0.22500 0.49404 0.75594
 Zr317 Zr 0.27046 0.47923 0.74094
 O318 O 0.25547 0.49391 0.72490
 Zr319 Zr 0.23036 0.51951 0.75990
 O320 O 0.24488 0.50440 0.77618
 Zr321 Zr 0.25955 0.51940 0.73015
 O322 O 0.27582 0.50470 0.74505
 Zr323 Zr 0.23001 0.49003 0.73039
 O324 O 0.24501 0.47354 0.74485
 O325 O 0.26632 0.48315 0.76633
 O326 O 0.23415 0.51548 0.73434
 C327 C 0.30181 0.48710 0.76310
 C328 C 0.26256 0.48658 0.80201
 C329 C 0.26300 0.44758 0.76239
 C330 C 0.19934 0.51338 0.73753
 C331 C 0.23663 0.55025 0.73675
 C332 C 0.23655 0.51265 0.69934
 H333 H 0.25843 0.53644 0.75844
 H334 H 0.25811 0.49112 0.71312
 H335 H 0.27347 0.47597 0.77348
 H336 H 0.21323 0.49153 0.75882
 H337 H 0.21641 0.51456 0.78865
 H338 H 0.21469 0.48619 0.78756
 H339 H 0.27743 0.50957 0.70479
 H340 H 0.29412 0.49107 0.72245
 H341 H 0.22447 0.54567 0.77855
 H342 H 0.27643 0.52726 0.79693
 H343 H 0.23969 0.47129 0.70566
 H344 H 0.25905 0.45585 0.72181
 H345 H 0.29388 0.52696 0.75819
 H346 H 0.27794 0.54434 0.74005
 H347 H 0.22311 0.45486 0.75811
 H348 H 0.20444 0.47246 0.74020
 O349 O 0.20491 0.02141 0.24883
 O350 O 0.21037 0.01931 0.27741
 O351 O 0.24888 0.04453 0.22852
 O352 O 0.27639 0.03950 0.22774
 O353 O 0.22799 0.00045 0.20498
 O354 O 0.22925 -0.02873 0.21124
 O355 O 0.29331 -0.00078 0.27172
 O356 O 0.28852 0.02767 0.26844
 O357 O 0.25091 -0.02172 0.29363
 O358 O 0.22076 -0.02070 0.28784
 O359 O 0.27122 -0.04397 0.25102
 O360 O 0.27037 -0.03830 0.22106
 O361 O 0.29338 -0.02108 0.25157
 O362 O 0.28715 -0.01950 0.22044
 O363 O 0.25102 -0.04414 0.27113
 O364 O 0.22020 -0.03785 0.26929
 O365 O 0.27129 -0.00177 0.29352
 O366 O 0.26564 0.02853 0.28802
 O367 O 0.20473 0.00082 0.22894
 O368 O 0.21112 -0.02889 0.23025
 O369 O 0.24811 0.02068 0.20482
 O370 O 0.27838 0.01804 0.21166
 O371 O 0.22835 0.04448 0.24833
 O372 O 0.23212 0.03784 0.27857
 Zr373 Zr 0.22925 0.02023 0.25880
 O374 O 0.24385 0.00527 0.27490
 Zr375 Zr 0.25852 0.02001 0.22911
 O376 O 0.27457 0.00556 0.24427
 Zr377 Zr 0.22908 -0.00943 0.22943
 O378 O 0.24406 -0.02546 0.24412
 Zr379 Zr 0.26924 0.00950 0.26975
 O380 O 0.25472 0.02577 0.25464
 Zr381 Zr 0.24002 -0.02023 0.26963
 O382 O 0.22376 -0.00534 0.25492
 Zr383 Zr 0.26952 -0.01997 0.24025
 O384 O 0.25452 -0.00552 0.22374
 O385 O 0.23324 0.01594 0.23338
 O386 O 0.26542 -0.01603 0.26571
 C387 C 0.19773 0.01264 0.23737
 C388 C 0.23711 0.05160 0.23687
 C389 C 0.23647 0.01207 0.19779
 C390 C 0.30026 -0.01276 0.26355
 C391 C 0.26302 -0.01367 0.30048
 C392 C 0.26304 -0.05097 0.26295
 H393 H 0.24121 0.00803 0.28670
 H394 H 0.24141 -0.03724 0.24133
 H395 H 0.22608 0.02309 0.22621
 H396 H 0.28634 0.00844 0.24175
 H397 H 0.28318 0.03827 0.26481
 H398 H 0.28491 0.03715 0.23641
 H399 H 0.22214 -0.04561 0.25981
 H400 H 0.20547 -0.02800 0.24126
 H401 H 0.27520 0.02810 0.29596
 H402 H 0.22326 0.04650 0.27754
 H403 H 0.25976 -0.04469 0.22150
 H404 H 0.24047 -0.02849 0.20600
 H405 H 0.20575 0.00779 0.27724
 H406 H 0.22170 -0.01035 0.29462
 H407 H 0.27636 0.00776 0.20501
 H408 H 0.29501 -0.01015 0.22258
 O409 O 0.50079 0.70540 0.22806
 O410 O 0.47228 0.71083 0.23012
 O411 O 0.52105 0.74943 0.20488
 O412 O 0.52175 0.77700 0.20984
 O413 O 0.54451 0.72871 0.24904
 O414 O 0.53825 0.73000 0.27822
 O415 O 0.47786 0.79397 0.25013
 O416 O 0.48115 0.78910 0.22166
 O417 O 0.45605 0.75150 0.27115
 O418 O 0.46185 0.72131 0.27016
 O419 O 0.49854 0.77198 0.29340
 O420 O 0.52843 0.77118 0.28772
 O421 O 0.49796 0.79412 0.27046
 O422 O 0.52900 0.78799 0.26889
 O423 O 0.47851 0.75170 0.29359
 O424 O 0.48037 0.72081 0.28731
 O425 O 0.45614 0.77187 0.25116
 O426 O 0.46162 0.76614 0.22084
 O427 O 0.52064 0.70534 0.24867
 O428 O 0.51930 0.71180 0.27840
 O429 O 0.54466 0.74882 0.22877
 O430 O 0.53777 0.77913 0.23134
 O431 O 0.50130 0.72881 0.20493
 O432 O 0.47113 0.73256 0.21153
 Zr433 Zr 0.49083 0.72977 0.22919
 O434 O 0.47474 0.74440 0.24414
 Zr435 Zr 0.52041 0.75917 0.22940
 O436 O 0.50527 0.77524 0.24382
 Zr437 Zr 0.52011 0.72974 0.25890
 O438 O 0.50544 0.74476 0.27491
 Zr439 Zr 0.47985 0.76983 0.23987
 O440 O 0.49494 0.75528 0.22361
 Zr441 Zr 0.48000 0.74064 0.26966
 O442 O 0.49469 0.72434 0.25479
 Zr443 Zr 0.50928 0.77025 0.26938
 O444 O 0.52576 0.75523 0.25495
 O445 O 0.51618 0.73384 0.23350
 O446 O 0.48389 0.76608 0.26543
 C447 C 0.51224 0.69827 0.23685
 C448 C 0.51275 0.73758 0.19781
 C449 C 0.55167 0.73720 0.23741
 C450 C 0.48601 0.80097 0.26212
 C451 C 0.44921 0.76360 0.26308
 C452 C 0.48665 0.76377 0.30041
 H453 H 0.46298 0.74171 0.24137
 H454 H 0.50823 0.74213 0.28670
 H455 H 0.52335 0.72667 0.22637
 H456 H 0.50777 0.78702 0.24092
 H457 H 0.48475 0.78373 0.21106
 H458 H 0.51308 0.78552 0.21216
 H459 H 0.48981 0.72280 0.29509
 H460 H 0.50834 0.70609 0.27749
 H461 H 0.45370 0.77570 0.22125
 H462 H 0.47217 0.72366 0.20289
 H463 H 0.52798 0.76060 0.29416
 H464 H 0.54346 0.74125 0.27798
 H465 H 0.47242 0.70625 0.24166
 H466 H 0.45508 0.72221 0.25981
 H467 H 0.54441 0.77715 0.24164
 H468 H 0.52685 0.79583 0.25953
 O469 O -0.00133 0.77211 0.79520
 O470 O 0.02720 0.76986 0.78981
 O471 O -0.02149 0.79507 0.75103
 O472 O -0.02209 0.78997 0.72343
 O473 O -0.04512 0.75122 0.77199
 O474 O -0.03899 0.72200 0.77086
 O475 O 0.02157 0.74939 0.70673
 O476 O 0.01842 0.77788 0.71143
 O477 O 0.04326 0.72854 0.74941
 O478 O 0.03742 0.72977 0.77962
 O479 O 0.00072 0.70639 0.72899
 O480 O -0.02916 0.71219 0.72972
 O481 O 0.00138 0.72917 0.70667
 O482 O -0.02966 0.73090 0.71280
 O483 O 0.02072 0.70624 0.74932
 O484 O 0.01887 0.71269 0.78017
 O485 O 0.04328 0.74838 0.72888
 O486 O 0.03793 0.77875 0.73443
 O487 O -0.02127 0.75161 0.79538
 O488 O -0.02005 0.72185 0.78910
 O489 O -0.04516 0.77133 0.75172
 O490 O -0.03827 0.76856 0.72141
 O491 O -0.00174 0.79505 0.77167
 O492 O 0.02841 0.78833 0.76794
 Zr493 Zr 0.00865 0.77077 0.77083
 O494 O 0.02468 0.75567 0.75631
 Zr495 Zr -0.02091 0.77052 0.74139
 O496 O -0.00582 0.75593 0.72541
 Zr497 Zr -0.02077 0.74122 0.77102
 O498 O -0.00615 0.72506 0.75611
 Zr499 Zr 0.01962 0.75979 0.73082
 O500 O 0.00458 0.77620 0.74527
 Zr501 Zr 0.01930 0.73022 0.76024
 O502 O 0.00467 0.74525 0.77643
 Zr503 Zr -0.00994 0.73044 0.73056
 O504 O -0.02638 0.74503 0.74548
 O505 O -0.01671 0.76655 0.76676
 O506 O 0.01546 0.73430 0.73474
 C507 C -0.01284 0.76344 0.80238
 C508 C -0.01318 0.80215 0.76286
 C509 C -0.05222 0.76283 0.76342
 C510 C 0.01337 0.73741 0.69978
 C511 C 0.05015 0.73649 0.73725
 C512 C 0.01257 0.69938 0.73727
 H513 H 0.03646 0.75840 0.75900
 H514 H -0.00899 0.71331 0.75881
 H515 H -0.02386 0.77375 0.77389
 H516 H -0.00830 0.75877 0.71360
 H517 H 0.01486 0.78853 0.71674
 H518 H -0.01347 0.78750 0.71490
 H519 H 0.00937 0.70497 0.77824
 H520 H -0.00908 0.72275 0.79482
 H521 H 0.04586 0.77823 0.72489
 H522 H 0.02741 0.79701 0.77681
 H523 H -0.02875 0.70583 0.74036
 H524 H -0.04419 0.72219 0.75959
 H525 H 0.02698 0.75837 0.79448
 H526 H 0.04427 0.74006 0.77863
 H527 H -0.04495 0.75830 0.72344
 H528 H -0.02748 0.74022 0.70491
 O529 O 0.04476 0.02199 0.00095
 O530 O 0.03929 0.01973 -0.02763
 O531 O 0.00089 0.04519 0.02123
 O532 O -0.02665 0.04024 0.02191
 O533 O 0.02159 0.00116 0.04488
 O534 O 0.02037 -0.02801 0.03867
 O535 O -0.04370 -0.00024 -0.02186
 O536 O -0.03885 0.02820 -0.01870
 O537 O -0.00133 -0.02134 -0.04373
 O538 O 0.02880 -0.02033 -0.03796
 O539 O -0.02163 -0.04340 -0.00099
 O540 O -0.02080 -0.03754 0.02894
 O541 O -0.04379 -0.02046 -0.00165
 O542 O -0.03758 -0.01878 0.02944
 O543 O -0.00142 -0.04368 -0.02109
 O544 O 0.02939 -0.03734 -0.01934
 O545 O -0.02167 -0.00137 -0.04368
 O546 O -0.01596 0.02895 -0.03829
 O547 O 0.04489 0.00150 0.02093
 O548 O 0.03848 -0.02824 0.01965
 O549 O 0.00151 0.02141 0.04498
 O550 O -0.02874 0.01886 0.03809
 O551 O 0.02139 0.04505 0.00137
 O552 O 0.01757 0.03830 -0.02885
 Zr553 Zr 0.02041 0.02076 -0.00902
 O554 O 0.00578 0.00573 -0.02508
 Zr555 Zr -0.00885 0.02069 0.02066
 O556 O -0.02492 0.00618 0.00556
 Zr557 Zr 0.02054 -0.00878 0.02044
 O558 O 0.00552 -0.02486 0.00580
 Zr559 Zr -0.01960 0.01001 -0.01995
 O560 O -0.00504 0.02634 -0.00489
 Zr561 Zr 0.00957 -0.01974 -0.01972
 O562 O 0.02586 -0.00479 -0.00507
 Zr563 Zr -0.01992 -0.01933 0.00966
 O564 O -0.00489 -0.00482 0.02611
 O565 O 0.01642 0.01658 0.01641
 O566 O -0.01583 -0.01552 -0.01582
 C567 C 0.05190 0.01329 0.01247
 C568 C 0.01268 0.05222 0.01285
 C569 C 0.01311 0.01279 0.05203
 C570 C -0.05068 -0.01217 -0.01363
 C571 C -0.01341 -0.01329 -0.05061
 C572 C -0.01342 -0.05048 -0.01286
 H573 H 0.00844 0.00845 -0.03688
 H574 H 0.00816 -0.03662 0.00864
 H575 H 0.02358 0.02375 0.02358
 H576 H -0.03668 0.00909 0.00807
 H577 H -0.03348 0.03881 -0.01513
 H578 H -0.03520 0.03784 0.01327
 H579 H 0.02748 -0.04503 -0.00979
 H580 H 0.04419 -0.02733 0.00867
 H581 H -0.02552 0.02849 -0.04622
 H582 H 0.02646 0.04693 -0.02785
 H583 H -0.01023 -0.04397 0.02850
 H584 H 0.00914 -0.02779 0.04389
 H585 H 0.04390 0.00822 -0.02741
 H586 H 0.02793 -0.00997 -0.04472
 H587 H -0.02678 0.00857 0.04476
 H588 H -0.04538 -0.00940 0.02731
 O589 O -0.04494 0.49880 0.47819
 O590 O -0.03955 0.52740 0.48031
 O591 O -0.00100 0.47851 0.45515
 O592 O 0.02655 0.47798 0.46013
 O593 O -0.02168 0.45507 0.49927
 O594 O -0.02049 0.46141 0.52844
 O595 O 0.04342 0.52194 0.50050
 O596 O 0.03861 0.51863 0.47203
 O597 O 0.00091 0.54377 0.52140
 O598 O -0.02921 0.53788 0.52034
 O599 O 0.02138 0.50127 0.54370
 O600 O 0.02058 0.47129 0.53801
 O601 O 0.04353 0.50182 0.52082
 O602 O 0.03742 0.47074 0.51927
 O603 O 0.00112 0.52131 0.54385
 O604 O -0.02969 0.51939 0.53752
 O605 O 0.02131 0.54369 0.50148
 O606 O 0.01568 0.53814 0.47114
 O607 O -0.04504 0.47893 0.49879
 O608 O -0.03868 0.48036 0.52855
 O609 O -0.00156 0.45494 0.47905
 O610 O 0.02866 0.46190 0.48163
 O611 O -0.02156 0.49829 0.45515
 O612 O -0.01782 0.52854 0.46173
 Zr613 Zr -0.02063 0.50883 0.47940
 O614 O -0.00607 0.52499 0.49439
 Zr615 Zr 0.00873 0.47926 0.47967
 O616 O 0.02473 0.49446 0.49414
 Zr617 Zr -0.02071 0.47954 0.50911
 O618 O -0.00576 0.49428 0.52516
 Zr619 Zr 0.01934 0.51991 0.49019
 O620 O 0.00485 0.50475 0.47388
 Zr621 Zr -0.00988 0.51975 0.51990
 O622 O -0.02611 0.50499 0.50499
 Zr623 Zr 0.01970 0.49047 0.51969
 O624 O 0.00475 0.47392 0.50522
 O625 O -0.01656 0.48345 0.48372
 O626 O 0.01553 0.51589 0.51574
 C627 C -0.05207 0.48730 0.48694
 C628 C -0.01282 0.48680 0.44806
 C629 C -0.01317 0.44789 0.48766
 C630 C 0.05039 0.51378 0.51249
 C631 C 0.01301 0.55064 0.51336
 C632 C 0.01316 0.51318 0.55070
 H633 H -0.00876 0.53676 0.49161
 H634 H -0.00840 0.49150 0.53694
 H635 H -0.02370 0.47624 0.47658
 H636 H 0.03650 0.49197 0.49127
 H637 H 0.03328 0.51499 0.46141
 H638 H 0.03509 0.48661 0.46254
 H639 H -0.02774 0.50990 0.54527
 H640 H -0.04439 0.49133 0.52760
 H641 H 0.02520 0.54610 0.47158
 H642 H -0.02670 0.52747 0.45309
 H643 H 0.01004 0.47180 0.54448
 H644 H -0.00924 0.45623 0.52826
 H645 H -0.04419 0.52721 0.49181
 H646 H -0.02829 0.54465 0.50999
 H647 H 0.02671 0.45528 0.49195
 H648 H 0.04524 0.47286 0.50990
 O649 O 0.50180 0.04476 0.52159
 O650 O 0.47326 0.03931 0.51938
 O651 O 0.52203 0.00076 0.54474
 O652 O 0.52269 -0.02683 0.53975
 O653 O 0.54552 0.02155 0.50067
 O654 O 0.53929 0.02029 0.47146
 O655 O 0.47883 -0.04375 0.49923
 O656 O 0.48214 -0.03900 0.52773
 O657 O 0.45708 -0.00126 0.47830
 O658 O 0.46290 0.02892 0.47935
 O659 O 0.49961 -0.02167 0.45610
 O660 O 0.52953 -0.02086 0.46192
 O661 O 0.49894 -0.04386 0.47896
 O662 O 0.52999 -0.03776 0.48066
 O663 O 0.47957 -0.00141 0.45592
 O664 O 0.48141 0.02945 0.46224
 O665 O 0.45714 -0.02165 0.49827
 O666 O 0.46264 -0.01604 0.52862
 O667 O 0.52167 0.04488 0.50103
 O668 O 0.52034 0.03848 0.47128
 O669 O 0.54566 0.00141 0.52091
 O670 O 0.53878 -0.02890 0.51829
 O671 O 0.50225 0.02133 0.54465
 O672 O 0.47211 0.01755 0.53798
 Zr673 Zr 0.49182 0.02039 0.52037
 O674 O 0.47575 0.00577 0.50536
 Zr675 Zr 0.52141 -0.00897 0.52021
 O676 O 0.50628 -0.02504 0.50570
 Zr677 Zr 0.52114 0.02050 0.49074
 O678 O 0.50648 0.00550 0.47467
 Zr679 Zr 0.48086 -0.01966 0.50959
 O680 O 0.49593 -0.00513 0.52592
 Zr681 Zr 0.48104 0.00960 0.47986
 O682 O 0.49571 0.02588 0.49480
 Zr683 Zr 0.51031 -0.02000 0.48016
 O684 O 0.52678 -0.00499 0.49467
 O685 O 0.51718 0.01635 0.51612
 O686 O 0.48492 -0.01585 0.48405
 C687 C 0.51327 0.05191 0.51286
 C688 C 0.51370 0.01259 0.55180
 C689 C 0.55268 0.01306 0.51231
 C690 C 0.48696 -0.05072 0.48723
 C691 C 0.45022 -0.01336 0.48636
 C692 C 0.48773 -0.01345 0.44908
 H693 H 0.46399 0.00845 0.50810
 H694 H 0.50928 0.00815 0.46289
 H695 H 0.52434 0.02351 0.52329
 H696 H 0.50877 -0.03683 0.50858
 H697 H 0.48575 -0.03367 0.53836
 H698 H 0.51407 -0.03539 0.53734
 H699 H 0.49090 0.02751 0.45451
 H700 H 0.50939 0.04420 0.47219
 H701 H 0.45471 -0.02559 0.52816
 H702 H 0.47312 0.02646 0.54661
 H703 H 0.52904 -0.01030 0.45546
 H704 H 0.54451 0.00904 0.47171
 H705 H 0.47348 0.04396 0.50788
 H706 H 0.45613 0.02800 0.48969
 H707 H 0.54539 -0.02693 0.50798
 H708 H 0.52783 -0.04560 0.49002
 O709 O 0.54463 0.52170 0.00085
 O710 O 0.53918 0.51943 -0.02775
 O711 O 0.50067 0.54473 0.02111
 O712 O 0.47316 0.53968 0.02181
 O713 O 0.52152 0.50074 0.04474
 O714 O 0.52042 0.47157 0.03849
 O715 O 0.45626 0.49917 -0.02203
 O716 O 0.46099 0.52762 -0.01882
 O717 O 0.49872 0.47827 -0.04390
 O718 O 0.52884 0.47937 -0.03811
 O719 O 0.47849 0.45607 -0.00116
 O720 O 0.47926 0.46192 0.02876
 O721 O 0.45623 0.47893 -0.00184
 O722 O 0.46242 0.48063 0.02927
 O723 O 0.49869 0.45589 -0.02127
 O724 O 0.52946 0.46233 -0.01951
 O725 O 0.47832 0.49818 -0.04385
 O726 O 0.48390 0.52850 -0.03839
 O727 O 0.54482 0.50120 0.02082
 O728 O 0.53853 0.47145 0.01948
 O729 O 0.50138 0.52093 0.04485
 O730 O 0.47113 0.51827 0.03796
 O731 O 0.52117 0.54468 0.00126
 O732 O 0.51741 0.53794 -0.02895
 Zr733 Zr 0.52030 0.52040 -0.00914
 O734 O 0.50572 0.50533 -0.02521
 Zr735 Zr 0.49102 0.52020 0.02053
 O736 O 0.47500 0.50565 0.00541
 Zr737 Zr 0.52051 0.49083 0.02029
 O738 O 0.50556 0.47472 0.00564
 Zr739 Zr 0.48032 0.50951 -0.02009
 O740 O 0.49482 0.52588 -0.00501
 Zr741 Zr 0.50959 0.47987 -0.01988
 O742 O 0.52583 0.49485 -0.00521
 Zr743 Zr 0.48009 0.48015 0.00949
 O744 O 0.49506 0.49469 0.02596
 O745 O 0.51631 0.51618 0.01629
 O746 O 0.48417 0.48400 -0.01599
 C747 C 0.55180 0.51303 0.01237
 C748 C 0.51243 0.55181 0.01274
 C749 C 0.51301 0.51235 0.05191
 C750 C 0.44932 0.48720 -0.01382
 C751 C 0.48662 0.48630 -0.05079
 C752 C 0.48673 0.44903 -0.01303
 H753 H 0.50837 0.50807 -0.03701
 H754 H 0.50824 0.46296 0.00847
 H755 H 0.52344 0.52337 0.02346
 H756 H 0.46323 0.50851 0.00792
 H757 H 0.46631 0.53825 -0.01524
 H758 H 0.46463 0.53727 0.01316
 H759 H 0.52759 0.45464 -0.00996
 H760 H 0.54424 0.47239 0.00850
 H761 H 0.47434 0.52804 -0.04632
 H762 H 0.52628 0.54659 -0.02795
 H763 H 0.48987 0.45555 0.02834
 H764 H 0.50919 0.47176 0.04373
 H765 H 0.54384 0.50794 -0.02751
 H766 H 0.52792 0.48972 -0.04487
 H767 H 0.47313 0.50799 0.04462
 H768 H 0.45456 0.48996 0.02711
 O769 O 0.79511 0.25035 0.47819
 O770 O 0.78949 0.22181 0.48031
 O771 O 0.75123 0.27095 0.45520
 O772 O 0.72371 0.27174 0.46024
 O773 O 0.77227 0.29430 0.49926
 O774 O 0.77111 0.28801 0.52846
 O775 O 0.70665 0.22797 0.50065
 O776 O 0.71136 0.23119 0.47218
 O777 O 0.74906 0.20580 0.52146
 O778 O 0.77921 0.21147 0.52038
 O779 O 0.72901 0.24853 0.54381
 O780 O 0.73002 0.27848 0.53809
 O781 O 0.70675 0.24812 0.52095
 O782 O 0.71312 0.27913 0.51939
 O783 O 0.74910 0.22832 0.54393
 O784 O 0.77989 0.22997 0.53754
 O785 O 0.72860 0.20602 0.50157
 O786 O 0.73414 0.21150 0.47124
 O787 O 0.79543 0.27024 0.49878
 O788 O 0.78917 0.26894 0.52852
 O789 O 0.75208 0.29456 0.47907
 O790 O 0.72181 0.28786 0.48175
 O791 O 0.77164 0.25102 0.45518
 O792 O 0.76768 0.22081 0.46178
 Zr793 Zr 0.77071 0.24052 0.47943
 O794 O 0.75608 0.22451 0.49445
 Zr795 Zr 0.74160 0.27033 0.47974
 O796 O 0.72552 0.25528 0.49425
 Zr797 Zr 0.77113 0.26986 0.50913
 O798 O 0.75613 0.25526 0.52521
 Zr799 Zr 0.73070 0.22978 0.49030
 O800 O 0.74525 0.24480 0.47396
 Zr801 Zr 0.76002 0.22975 0.51996
 O802 O 0.77631 0.24436 0.50501
 Zr803 Zr 0.73068 0.25927 0.51978
 O804 O 0.74571 0.27568 0.50528
 O805 O 0.76686 0.26594 0.48375
 O806 O 0.73462 0.23379 0.51584
 C807 C 0.80235 0.26179 0.48693
 C808 C 0.76297 0.26257 0.44809
 C809 C 0.76378 0.30153 0.48766
 C810 C 0.69977 0.23621 0.51264
 C811 C 0.73690 0.19900 0.51342
 C812 C 0.73716 0.23658 0.55081
 H813 H 0.75867 0.21271 0.49167
 H814 H 0.75884 0.25803 0.53699
 H815 H 0.77404 0.27308 0.47659
 H816 H 0.71376 0.25786 0.49140
 H817 H 0.71668 0.23479 0.46156
 H818 H 0.71511 0.26317 0.46267
 H819 H 0.77806 0.23948 0.54528
 H820 H 0.79477 0.25791 0.52760
 H821 H 0.72455 0.20362 0.47169
 H822 H 0.77654 0.22179 0.45312
 H823 H 0.74059 0.27792 0.54452
 H824 H 0.75992 0.29331 0.52826
 H825 H 0.79416 0.22197 0.49181
 H826 H 0.77822 0.20470 0.51003
 H827 H 0.72388 0.29449 0.49204
 H828 H 0.70526 0.27707 0.51002
 O829 O 0.77143 0.79515 -0.00115
 O830 O 0.76905 0.78957 0.02742
 O831 O 0.79457 0.75124 -0.02152
 O832 O 0.78957 0.72366 -0.02238
 O833 O 0.75075 0.77219 -0.04525
 O834 O 0.72159 0.77093 -0.03921
 O835 O 0.74898 0.70652 0.02116
 O836 O 0.77739 0.71132 0.01813
 O837 O 0.72795 0.74894 0.04311
 O838 O 0.72905 0.77914 0.03748
 O839 O 0.70601 0.72877 0.00020
 O840 O 0.71194 0.72968 -0.02969
 O841 O 0.72886 0.70652 0.00086
 O842 O 0.73067 0.71285 -0.03021
 O843 O 0.70573 0.74895 0.02039
 O844 O 0.71210 0.77980 0.01880
 O845 O 0.74785 0.72852 0.04308
 O846 O 0.77815 0.73417 0.03783
 O847 O 0.75103 0.79539 -0.02121
 O848 O 0.72132 0.78901 -0.02009
 O849 O 0.77094 0.75204 -0.04537
 O850 O 0.76826 0.72170 -0.03868
 O851 O 0.79440 0.77171 -0.00157
 O852 O 0.78758 0.76779 0.02859
 Zr853 Zr 0.77013 0.77074 0.00871
 O854 O 0.75505 0.75606 0.02463
 Zr855 Zr 0.77009 0.74153 -0.02112
 O856 O 0.75553 0.72540 -0.00615
 Zr857 Zr 0.74072 0.77102 -0.02088
 O858 O 0.72460 0.75596 -0.00639
 Zr859 Zr 0.75928 0.73064 0.01939
 O860 O 0.77566 0.74524 0.00448
 Zr861 Zr 0.72965 0.75992 0.01917
 O862 O 0.74464 0.77626 0.00467
 Zr863 Zr 0.73008 0.73047 -0.01034
 O864 O 0.74464 0.74555 -0.02666
 O865 O 0.76602 0.76683 -0.01676
 O866 O 0.73382 0.73448 0.01517
 C867 C 0.76280 0.80236 -0.01268
 C868 C 0.80158 0.76302 -0.01305
 C869 C 0.76241 0.76374 -0.05239
 C870 C 0.73708 0.69958 0.01286
 C871 C 0.73594 0.73679 0.04998
 C872 C 0.69893 0.73697 0.01208
 H873 H 0.75773 0.75867 0.03646
 H874 H 0.71287 0.75863 -0.00927
 H875 H 0.77321 0.77402 -0.02384
 H876 H 0.75842 0.71362 -0.00871
 H877 H 0.78801 0.71668 0.01462
 H878 H 0.78712 0.71507 -0.01380
 H879 H 0.70446 0.77794 0.00921
 H880 H 0.72221 0.79470 -0.00908
 H881 H 0.77765 0.72458 0.04571
 H882 H 0.79620 0.77670 0.02769
 H883 H 0.70558 0.74030 -0.02926
 H884 H 0.72185 0.75971 -0.04451
 H885 H 0.75758 0.79425 0.02713
 H886 H 0.73935 0.77820 0.04431
 H887 H 0.75802 0.72373 -0.04539
 H888 H 0.74000 0.70500 -0.02805
 O889 O 1.00115 0.20526 0.22780
 O890 O 0.97264 0.21070 0.22988
 O891 O 1.02149 0.24940 0.20491
 O892 O 1.02212 0.27695 0.21002
 O893 O 1.04489 0.22843 0.24895
 O894 O 1.03860 0.22951 0.27814
 O895 O 0.97826 0.29369 0.25044
 O896 O 0.98157 0.28904 0.22195
 O897 O 0.95643 0.25110 0.27116
 O898 O 0.96221 0.22092 0.26997
 O899 O 0.99899 0.27135 0.29359
 O900 O 1.02885 0.27065 0.28784
 O901 O 0.99832 0.29370 0.27080
 O902 O 1.02936 0.28761 0.26918
 O903 O 0.97893 0.25108 0.29364
 O904 O 0.98069 0.22029 0.28712
 O905 O 0.95651 0.27157 0.25126
 O906 O 0.96205 0.26607 0.22093
 O907 O 1.02100 0.20506 0.24841
 O908 O 1.01968 0.21132 0.27816
 O909 O 1.04506 0.24868 0.22882
 O910 O 1.03817 0.27896 0.23155
 O911 O 1.00171 0.22882 0.20483
 O912 O 0.97154 0.23256 0.21141
 Zr913 Zr 0.99122 0.22964 0.22907
 O914 O 0.97514 0.24417 0.24411
 Zr915 Zr 1.02081 0.25901 0.22948
 O916 O 1.00567 0.27500 0.24401
 Zr917 Zr 1.02049 0.22940 0.25880
 O918 O 1.00582 0.24431 0.27489
 Zr919 Zr 0.98025 0.26963 0.24002
 O920 O 0.99534 0.25518 0.22367
 Zr921 Zr 0.98038 0.24024 0.26961
 O922 O 0.99506 0.22404 0.25464
 Zr923 Zr 1.00967 0.26984 0.26954
 O924 O 1.02614 0.25491 0.25502
 O925 O 1.01657 0.23366 0.23342
 O926 O 0.98427 0.26571 0.26556
 C927 C 1.01259 0.19807 0.23655
 C928 C 1.01318 0.23761 0.19777
 C929 C 1.05207 0.23700 0.23739
 C930 C 0.98639 0.30062 0.26249
 C931 C 0.94957 0.26322 0.26312
 C932 C 0.98713 0.26306 0.30057
 H933 H 0.96337 0.24150 0.24132
 H934 H 1.00861 0.24160 0.28666
 H935 H 1.02374 0.22653 0.22625
 H936 H 1.00817 0.28680 0.24119
 H937 H 0.98518 0.28374 0.21132
 H938 H 1.01351 0.28550 0.21245
 H939 H 0.99020 0.22216 0.29486
 H940 H 1.00871 0.20562 0.27722
 H941 H 0.95413 0.27563 0.22139
 H942 H 0.97257 0.22370 0.20273
 H943 H 1.02841 0.26003 0.29421
 H944 H 1.04384 0.24076 0.27797
 H945 H 0.97278 0.20606 0.24139
 H946 H 0.95544 0.22190 0.25963
 H947 H 1.04478 0.27694 0.24187
 H948 H 1.02721 0.29551 0.25986
 O949 O 0.74861 1.04468 0.72791
 O950 O 0.77716 1.03933 0.73018
 O951 O 0.72849 1.00054 0.70489
 O952 O 0.72788 0.97296 0.70998
 O953 O 0.70491 1.02145 0.74886
 O954 O 0.71110 1.02035 0.77807
 O955 O 0.77165 0.95629 0.75057
 O956 O 0.76845 0.96097 0.72208
 O957 O 0.79335 0.99898 0.77144
 O958 O 0.78750 1.02913 0.77028
 O959 O 0.75082 0.97857 0.79364
 O960 O 0.72093 0.97925 0.78779
 O961 O 0.75150 0.95623 0.77081
 O962 O 0.72049 0.96229 0.76912
 O963 O 0.77081 0.99890 0.79381
 O964 O 0.76894 1.02971 0.78733
 O965 O 0.79336 0.97848 0.75157
 O966 O 0.78792 0.98397 0.72119
 O967 O 0.72871 1.04484 0.74843
 O968 O 0.73003 1.03858 0.77822
 O969 O 0.70483 1.00123 0.72868
 O970 O 0.71175 0.97095 0.73142
 O971 O 0.74824 1.02116 0.70494
 O972 O 0.77839 1.01748 0.71168
 Zr973 Zr 0.75864 1.02035 0.72924
 O974 O 0.77471 1.00584 0.74433
 Zr975 Zr 0.72911 0.99091 0.72946
 O976 O 0.74423 0.97496 0.74404
 Zr977 Zr 0.72928 1.02051 0.75882
 O978 O 0.74393 1.00563 0.77497
 Zr979 Zr 0.76966 0.98037 0.74018
 O980 O 0.75458 0.99480 0.72378
 Zr981 Zr 0.76938 1.00976 0.76980
 O982 O 0.75470 1.02594 0.75479
 Zr983 Zr 0.74015 0.98009 0.76956
 O984 O 0.72369 0.99499 0.75498
 O985 O 0.73329 1.01626 0.73346
 O986 O 0.76556 0.98428 0.76571
 C987 C 0.73710 1.05184 0.73659
 C988 C 0.73681 1.01236 0.69781
 C989 C 0.69778 1.01289 0.73723
 C990 C 0.76347 0.94934 0.76255
 C991 C 0.80025 0.98685 0.76345
 C992 C 0.76265 0.98688 0.80067
 H993 H 0.78648 1.00854 0.74159
 H994 H 0.74111 1.00832 0.78673
 H995 H 0.72612 1.02337 0.72626
 H996 H 0.74176 0.96315 0.74119
 H997 H 0.76484 0.96626 0.71144
 H998 H 0.73650 0.96443 0.71244
 H999 H 0.75944 1.02779 0.79505
 H1000 H 0.74096 1.04435 0.77728
 H1001 H 0.79586 0.97444 0.72170
 H1002 H 0.77738 1.02635 0.70301
 H1003 H 0.72137 0.98985 0.79420
 H1004 H 0.70592 1.00908 0.77788
 H1005 H 0.77691 1.04404 0.74167
 H1006 H 0.79425 1.02821 0.75993
 H1007 H 0.70511 0.97297 0.74170
 H1008 H 0.72260 0.95447 0.75973
 O1009 O 0.74904 0.54507 0.22851
 O1010 O 0.77757 0.53963 0.23070
 O1011 O 0.72874 0.50107 0.20535
 O1012 O 0.72814 0.47348 0.21030
 O1013 O 0.70529 0.52181 0.24947
 O1014 O 0.71158 0.52063 0.27865
 O1015 O 0.77191 0.45654 0.25074
 O1016 O 0.76866 0.46134 0.22228
 O1017 O 0.79375 0.49906 0.27176
 O1018 O 0.78796 0.52924 0.27073
 O1019 O 0.75121 0.47867 0.29396
 O1020 O 0.72132 0.47943 0.28817
 O1021 O 0.75182 0.45644 0.27103
 O1022 O 0.72079 0.46258 0.26941
 O1023 O 0.77125 0.49895 0.29417
 O1024 O 0.76946 0.52978 0.28784
 O1025 O 0.79367 0.47866 0.25178
 O1026 O 0.78818 0.48431 0.22145
 O1027 O 0.72916 0.54519 0.24906
 O1028 O 0.73053 0.53881 0.27881
 O1029 O 0.70514 0.50166 0.22921
 O1030 O 0.71203 0.47138 0.23176
 O1031 O 0.74854 0.52164 0.20543
 O1032 O 0.77870 0.51788 0.21209
 Zr1033 Zr 0.75900 0.52070 0.22971
 O1034 O 0.77506 0.50610 0.24471
 Zr1035 Zr 0.72941 0.49133 0.22987
 O1036 O 0.74453 0.47528 0.24436
 Zr1037 Zr 0.72970 0.52081 0.25935
 O1038 O 0.74435 0.50582 0.27541
 Zr1039 Zr 0.76995 0.48066 0.24046
 O1040 O 0.75488 0.49519 0.22415
 Zr1041 Zr 0.76980 0.50992 0.27022
 O1042 O 0.75513 0.52619 0.25529
 Zr1043 Zr 0.74051 0.48031 0.26990
 O1044 O 0.72405 0.49531 0.25542
 O1045 O 0.73364 0.51666 0.23397
 O1046 O 0.76591 0.48447 0.26601
 C1047 C 0.73756 0.55221 0.23724
 C1048 C 0.73707 0.51289 0.19829
 C1049 C 0.69812 0.51329 0.23784
 C1050 C 0.76376 0.44956 0.26271
 C1051 C 0.80061 0.48696 0.26369
 C1052 C 0.76307 0.48692 0.30101
 H1053 H 0.78683 0.50878 0.24196
 H1054 H 0.74156 0.50848 0.28719
 H1055 H 0.72647 0.52381 0.22681
 H1056 H 0.74202 0.46349 0.24146
 H1057 H 0.76506 0.46669 0.21166
 H1058 H 0.73673 0.46491 0.21272
 H1059 H 0.75996 0.52786 0.29556
 H1060 H 0.74149 0.54453 0.27790
 H1061 H 0.79611 0.47477 0.22189
 H1062 H 0.77768 0.52679 0.20346
 H1063 H 0.72179 0.49002 0.29461
 H1064 H 0.70636 0.50937 0.27843
 H1065 H 0.77736 0.54429 0.24221
 H1066 H 0.79472 0.52833 0.26038
 H1067 H 0.70544 0.47333 0.24209
 H1068 H 0.72292 0.45473 0.26004
 O1069 O 0.45557 0.25033 0.77183
 O1070 O 0.46107 0.22180 0.76954
 O1071 O 0.49958 0.27058 0.79507
 O1072 O 0.52708 0.27140 0.79003
 O1073 O 0.47862 0.29433 0.75118
 O1074 O 0.47983 0.28827 0.72193
 O1075 O 0.54395 0.22773 0.74932
 O1076 O 0.53924 0.23082 0.77782
 O1077 O 0.50148 0.20592 0.72829
 O1078 O 0.47136 0.21168 0.72937
 O1079 O 0.52173 0.24875 0.70629
 O1080 O 0.52096 0.27859 0.71223
 O1081 O 0.54398 0.24801 0.72916
 O1082 O 0.53777 0.27909 0.73104
 O1083 O 0.50155 0.22861 0.70600
 O1084 O 0.47076 0.23032 0.71238
 O1085 O 0.52189 0.20590 0.74824
 O1086 O 0.51634 0.21124 0.77860
 O1087 O 0.45537 0.27034 0.75138
 O1088 O 0.46172 0.26927 0.72164
 O1089 O 0.49880 0.29440 0.77138
 O1090 O 0.52907 0.28760 0.76866
 O1091 O 0.47905 0.25076 0.79491
 O1092 O 0.48284 0.22059 0.78806
 Zr1093 Zr 0.47993 0.24044 0.77057
 O1094 O 0.49450 0.22446 0.75544
 Zr1095 Zr 0.50920 0.27014 0.77052
 O1096 O 0.52522 0.25511 0.75592
 Zr1097 Zr 0.47970 0.26997 0.74110
 O1098 O 0.49466 0.25542 0.72493
 Zr1099 Zr 0.51990 0.22960 0.75968
 O1100 O 0.50541 0.24458 0.77610
 Zr1101 Zr 0.49063 0.22989 0.72997
 O1102 O 0.47439 0.24446 0.74502
 Zr1103 Zr 0.52012 0.25929 0.73042
 O1104 O 0.50515 0.27566 0.74502
 O1105 O 0.48391 0.26587 0.76646
 O1106 O 0.51604 0.23381 0.73415
 C1107 C 0.44838 0.26182 0.76315
 C1108 C 0.48781 0.26219 0.80210
 C1109 C 0.48713 0.30145 0.76285
 C1110 C 0.55088 0.23600 0.73739
 C1111 C 0.51358 0.19901 0.73631
 C1112 C 0.51352 0.23689 0.69919
 H1113 H 0.49185 0.21266 0.75813
 H1114 H 0.49198 0.25829 0.71317
 H1115 H 0.47675 0.27297 0.77367
 H1116 H 0.53699 0.25762 0.75881
 H1117 H 0.53393 0.23437 0.78846
 H1118 H 0.53560 0.26276 0.78761
 H1119 H 0.47267 0.23986 0.70470
 H1120 H 0.45605 0.25826 0.72246
 H1121 H 0.52589 0.20332 0.77810
 H1122 H 0.47399 0.22155 0.79673
 H1123 H 0.51031 0.27826 0.70591
 H1124 H 0.49104 0.29356 0.72222
 H1125 H 0.45644 0.22201 0.75802
 H1126 H 0.47230 0.20484 0.73968
 H1127 H 0.52703 0.29432 0.75842
 H1128 H 0.54567 0.27687 0.74033
 O1129 O 0.24916 0.70528 0.52198
 O1130 O 0.27770 0.71074 0.51985
 O1131 O 0.22888 0.74929 0.54508
 O1132 O 0.22822 0.77688 0.54009
 O1133 O 0.20544 0.72845 0.50096
 O1134 O 0.21172 0.72969 0.47176
 O1135 O 0.27206 0.79382 0.49976
 O1136 O 0.26878 0.78901 0.52825
 O1137 O 0.29389 0.75135 0.47880
 O1138 O 0.28810 0.72113 0.47985
 O1139 O 0.25138 0.77170 0.45654
 O1140 O 0.22148 0.77086 0.46223
 O1141 O 0.25196 0.79389 0.47944
 O1142 O 0.22092 0.78771 0.48102
 O1143 O 0.27143 0.75145 0.45637
 O1144 O 0.26961 0.72059 0.46267
 O1145 O 0.29379 0.77176 0.49877
 O1146 O 0.28832 0.76608 0.52909
 O1147 O 0.22930 0.70514 0.50138
 O1148 O 0.23067 0.71150 0.47164
 O1149 O 0.20530 0.74860 0.52122
 O1150 O 0.21215 0.77892 0.51859
 O1151 O 0.24866 0.72872 0.54505
 O1152 O 0.27883 0.73250 0.53845
 Zr1153 Zr 0.25913 0.72966 0.52080
 O1154 O 0.27521 0.74427 0.50582
 Zr1155 Zr 0.22954 0.75900 0.52056
 O1156 O 0.24466 0.77506 0.50611
 Zr1157 Zr 0.22984 0.72951 0.49109
 O1158 O 0.24450 0.74451 0.47506
 Zr1159 Zr 0.27008 0.76971 0.51006
 O1160 O 0.25500 0.75517 0.52634
 Zr1161 Zr 0.26994 0.74044 0.48031
 O1162 O 0.25527 0.72416 0.49520
 Zr1163 Zr 0.24064 0.77001 0.48056
 O1164 O 0.22418 0.75500 0.49501
 O1165 O 0.23378 0.73368 0.51648
 O1166 O 0.26604 0.76588 0.48451
 C1167 C 0.23769 0.69813 0.51323
 C1168 C 0.23718 0.73746 0.55215
 C1169 C 0.19829 0.73693 0.51261
 C1170 C 0.26391 0.80078 0.48776
 C1171 C 0.30073 0.76348 0.48686
 C1172 C 0.26327 0.76349 0.44953
 H1173 H 0.28698 0.74161 0.50859
 H1174 H 0.24172 0.74185 0.46327
 H1175 H 0.22662 0.72652 0.52363
 H1176 H 0.24216 0.78685 0.50899
 H1177 H 0.26519 0.78366 0.53886
 H1178 H 0.23685 0.78543 0.53772
 H1179 H 0.26012 0.72251 0.45493
 H1180 H 0.24164 0.70581 0.47256
 H1181 H 0.29624 0.77564 0.52867
 H1182 H 0.27780 0.72361 0.54709
 H1183 H 0.22194 0.76026 0.45580
 H1184 H 0.20647 0.74093 0.47200
 H1185 H 0.27751 0.70610 0.50834
 H1186 H 0.29489 0.72209 0.49018
 H1187 H 0.20550 0.77689 0.50830
 H1188 H 0.22305 0.79557 0.49038
 O1189 O 0.25131 0.27176 0.95533
 O1190 O 0.22279 0.26979 0.96079
 O1191 O 0.27180 0.29461 0.99949
 O1192 O 0.27248 0.28950 1.02706
 O1193 O 0.29496 0.25050 0.97844
 O1194 O 0.28853 0.22135 0.97957
 O1195 O 0.22848 0.24937 1.04388
 O1196 O 0.23186 0.27779 1.03917
 O1197 O 0.20640 0.22868 1.00124
 O1198 O 0.21216 0.22977 0.97105
 O1199 O 0.24885 0.20612 1.02152
 O1200 O 0.27874 0.21168 1.02075
 O1201 O 0.24846 0.22898 1.04388
 O1202 O 0.27948 0.23039 1.03764
 O1203 O 0.22878 0.20612 1.00125
 O1204 O 0.23057 0.21257 0.97041
 O1205 O 0.20665 0.24854 1.02176
 O1206 O 0.21230 0.27882 1.01622
 O1207 O 0.27104 0.25108 0.95510
 O1208 O 0.26956 0.22136 0.96138
 O1209 O 0.29526 0.27064 0.99870
 O1210 O 0.28843 0.26796 1.02901
 O1211 O 0.25200 0.29474 0.97890
 O1212 O 0.22179 0.28826 0.98266
 Zr1213 Zr 0.24139 0.27055 0.97973
 O1214 O 0.22526 0.25560 0.99430
 Zr1215 Zr 0.27102 0.27006 1.00909
 O1216 O 0.25584 0.25562 1.02511
 Zr1217 Zr 0.27051 0.24074 0.97946
 O1218 O 0.25578 0.22473 0.99441
 Zr1219 Zr 0.23043 0.25970 1.01977
 O1220 O 0.24558 0.27597 1.00529
 Zr1221 Zr 0.23036 0.23010 0.99037
 O1222 O 0.24510 0.24498 0.97413
 Zr1223 Zr 0.25970 0.23009 1.01995
 O1224 O 0.27623 0.24452 1.00499
 O1225 O 0.26673 0.26611 0.98373
 O1226 O 0.23431 0.23416 1.01586
 C1227 C 0.26269 0.26297 0.94812
 C1228 C 0.26350 0.30177 0.98770
 C1229 C 0.30221 0.26205 0.98700
 C1230 C 0.23660 0.23735 1.05083
 C1231 C 0.19962 0.23673 1.01340
 C1232 C 0.23694 0.19919 1.01325
 H1233 H 0.21350 0.25843 0.99164
 H1234 H 0.25850 0.21295 0.99170
 H1235 H 0.27392 0.27325 0.97658
 H1236 H 0.25839 0.25845 1.03691
 H1237 H 0.23551 0.28840 1.03385
 H1238 H 0.26384 0.28714 1.03560
 H1239 H 0.24000 0.20478 0.97230
 H1240 H 0.25859 0.22235 0.95568
 H1241 H 0.20440 0.27840 1.02580
 H1242 H 0.22286 0.29693 0.97380
 H1243 H 0.27827 0.20535 1.01009
 H1244 H 0.29378 0.22152 0.99082
 H1245 H 0.22288 0.25829 0.95612
 H1246 H 0.20547 0.24015 0.97201
 H1247 H 0.29500 0.25764 1.02696
 H1248 H 0.27743 0.23974 1.04553
 C1249 C 0.28678 0.36948 0.78561
 N1250 N 0.27313 0.37672 0.79266
 N1251 N 0.26795 0.39175 0.78753
 C1252 C 0.27625 0.39998 0.77519
 N1253 N 0.28988 0.39272 0.76812
 N1254 N 0.29506 0.37770 0.77325
 C1255 C 0.29287 0.35371 0.79174
 C1256 C 0.29822 0.34067 0.79718
 C1257 C 0.27123 0.41654 0.77031
 C1258 C 0.26730 0.43063 0.76652
 C1259 C 0.28897 -0.12758 0.28880
 N1260 N 0.27548 -0.12021 0.29600
 N1261 N 0.26995 -0.10545 0.29045
 C1262 C 0.27776 -0.09763 0.27753
 N1263 N 0.29124 -0.10501 0.27032
 N1264 N 0.29676 -0.11977 0.27587
 C1265 C 0.29536 -0.14311 0.29524
 C1266 C 0.30094 -0.15597 0.30087
 C1267 C 0.27228 -0.08139 0.27207
 C1268 C 0.26792 -0.06759 0.26775
 C1269 C 0.78821 0.87210 0.78776
 N1270 N 0.79645 0.88011 0.77524
 N1271 N 0.79124 0.89504 0.76986
 C1272 C 0.77763 0.90241 0.77684
 N1273 N 0.76937 0.89439 0.78934
 N1274 N 0.77458 0.87946 0.79472
 C1275 C 0.79422 0.85635 0.79401
 C1276 C 0.79949 0.84328 0.79949
 C1277 C 0.77242 0.91878 0.77151
 C1278 C 0.76823 0.93266 0.76728
 C1279 C 0.46070 0.87790 0.28760
 N1280 N 0.45222 0.86965 0.27537
 N1281 N 0.45758 0.85482 0.26986
 C1282 C 0.47159 0.84780 0.27642
 N1283 N 0.48008 0.85605 0.28862
 N1284 N 0.47472 0.87088 0.29413
 C1285 C 0.45451 0.89349 0.29405
 C1286 C 0.44911 0.90641 0.29971
 C1287 C 0.47692 0.83149 0.27104
 C1288 C 0.48119 0.81764 0.26680
 C1289 C -0.03788 0.87955 0.78734
 N1290 N -0.04672 0.87091 0.77565
 N1291 N -0.04129 0.85610 0.77016
 C1292 C -0.02686 0.84948 0.77619
 N1293 N -0.01800 0.85813 0.78785
 N1294 N -0.02343 0.87295 0.79334
 C1295 C -0.04422 0.89503 0.79392
 C1296 C -0.04982 0.90781 0.79971
 C1297 C -0.02160 0.83307 0.77105
 C1298 C -0.01754 0.81906 0.76710
 C1299 C -0.03840 -0.12799 -0.03717
 N1300 N -0.02421 -0.12117 -0.04354
 N1301 N -0.01895 -0.10618 -0.03835
 C1302 C -0.02773 -0.09755 -0.02664
 N1303 N -0.04191 -0.10437 -0.02025
 N1304 N -0.04716 -0.11936 -0.02543
 C1305 C -0.04443 -0.14381 -0.04325
 C1306 C -0.04971 -0.15694 -0.04859
 C1307 C -0.02244 -0.08112 -0.02153
 C1308 C -0.01821 -0.06720 -0.01745
 C1309 C -0.03662 0.36986 0.46378
 N1310 N -0.04492 0.37789 0.47626
 N1311 N -0.03980 0.39288 0.48157
 C1312 C -0.02622 0.40030 0.47457
 N1313 N -0.01790 0.39226 0.46211
 N1314 N -0.02302 0.37727 0.45680
 C1315 C -0.04267 0.35415 0.45744
 C1316 C -0.04803 0.34117 0.45185
 C1317 C -0.02129 0.41685 0.47961
 C1318 C -0.01742 0.43093 0.48349
 C1319 C 0.46086 -0.12728 0.46125
 N1320 N 0.47448 -0.12000 0.45419
 N1321 N 0.48003 -0.10526 0.45977
 C1322 C 0.47214 -0.09736 0.47259
 N1323 N 0.45854 -0.10465 0.47967
 N1324 N 0.45298 -0.11939 0.47409
 C1325 C 0.45444 -0.14279 0.45477
 C1326 C 0.44885 -0.15565 0.44911
 C1327 C 0.47766 -0.08114 0.47808
 C1328 C 0.48205 -0.06734 0.48242
 C1329 C 0.46246 0.37124 -0.03713
 N1330 N 0.45416 0.37941 -0.02475
 N1331 N 0.45926 0.39447 -0.01962
 C1332 C 0.47282 0.40183 -0.02673
 N1333 N 0.48113 0.39365 -0.03910
 N1334 N 0.47603 0.37859 -0.04422
 C1335 C 0.45655 0.35534 -0.04312
 C1336 C 0.45137 0.34215 -0.04840
 C1337 C 0.47793 0.41831 -0.02166
 C1338 C 0.48205 0.43228 -0.01760
 C1339 C 0.78766 0.37935 0.46361
 N1340 N 0.77402 0.37199 0.45663
 N1341 N 0.76883 0.35704 0.46197
 C1342 C 0.77712 0.34900 0.47446
 N1343 N 0.79073 0.35638 0.48146
 N1344 N 0.79592 0.37133 0.47612
 C1345 C 0.79378 0.39502 0.45725
 C1346 C 0.79919 0.40797 0.45165
 C1347 C 0.77210 0.33250 0.47955
 C1348 C 0.76815 0.31845 0.48346
 C1349 C 0.78724 0.88001 -0.03666
 N1350 N 0.77368 0.87269 -0.04384
 N1351 N 0.76830 0.85780 -0.03851
 C1352 C 0.77631 0.84979 -0.02583
 N1353 N 0.78984 0.85712 -0.01862
 N1354 N 0.79522 0.87201 -0.02395
 C1355 C 0.79359 0.89557 -0.04303
 C1356 C 0.79916 0.90843 -0.04867
 C1357 C 0.77114 0.83332 -0.02078
 C1358 C 0.76713 0.81929 -0.01688
 C1359 C 0.78731 0.28733 0.37063
 N1360 N 0.79439 0.27371 0.37792
 N1361 N 0.78898 0.26825 0.39275
 C1362 C 0.77630 0.27625 0.40074
 N1363 N 0.76919 0.28985 0.39344
 N1364 N 0.77461 0.29530 0.37860
 C1365 C 0.79375 0.29375 0.35511
 C1366 C 0.79944 0.29940 0.34230
 C1367 C 0.77117 0.27101 0.41717
 C1368 C 0.76721 0.26695 0.43118
 C1369 C 0.78665 0.78863 -0.12988
 N1370 N 0.79369 0.77494 -0.12267
 N1371 N 0.78836 0.76951 -0.10779
 C1372 C 0.77582 0.77760 -0.09968
 N1373 N 0.76876 0.79127 -0.10691
 N1374 N 0.77409 0.79670 -0.12179
 C1375 C 0.79298 0.79497 -0.14548
 C1376 C 0.79857 0.80052 -0.15838
 C1377 C 0.77071 0.77233 -0.08326
 C1378 C 0.76674 0.76821 -0.06926
 C1379 C 0.28702 0.46289 0.87982
 N1380 N 0.29382 0.47661 0.87246
 N1381 N 0.28837 0.48178 0.85752
 C1382 C 0.27595 0.47338 0.84951
 N1383 N 0.26912 0.45968 0.85689
 N1384 N 0.27457 0.45451 0.87183
 C1385 C 0.29350 0.45679 0.89546
 C1386 C 0.29920 0.45140 0.90839
 C1387 C 0.27077 0.47837 0.83301
 C1388 C 0.26680 0.48228 0.81895
 C1389 C 0.28893 -0.03920 0.37728
 N1390 N 0.27635 -0.04737 0.36928
 N1391 N 0.27084 -0.04198 0.35445
 C1392 C 0.27773 -0.02826 0.34717
 N1393 N 0.29030 -0.02007 0.35518
 N1394 N 0.29581 -0.02546 0.37001
 C1395 C 0.29534 -0.04541 0.39290
 C1396 C 0.30093 -0.05084 0.40585
 C1397 C 0.27227 -0.02287 0.33090
 C1398 C 0.26791 -0.01855 0.31709
 C1399 C -0.03902 -0.03852 -0.12767
 N1400 N -0.02593 -0.04621 -0.12005
 N1401 N -0.02051 -0.04092 -0.10514
 C1402 C -0.02802 -0.02778 -0.09740
 N1403 N -0.04110 -0.02007 -0.10504
 N1404 N -0.04652 -0.02536 -0.11994
 C1405 C -0.04528 -0.04462 -0.14341
 C1406 C -0.05075 -0.04996 -0.15646
 C1407 C -0.02260 -0.02248 -0.08107
 C1408 C -0.01827 -0.01819 -0.06723
 C1409 C -0.03743 0.46196 0.37064
 N1410 N -0.04440 0.47566 0.37790
 N1411 N -0.03892 0.48111 0.39272
 C1412 C -0.02630 0.47304 0.40074
 N1413 N -0.01931 0.45936 0.39346
 N1414 N -0.02479 0.45391 0.37863
 C1415 C -0.04395 0.45554 0.35513
 C1416 C -0.04970 0.44990 0.34233
 C1417 C -0.02110 0.47828 0.41715
 C1418 C -0.01711 0.48237 0.43116
 C1419 C 0.46192 -0.03871 0.37215
 N1420 N 0.45533 -0.02477 0.37932
 N1421 N 0.46090 -0.01943 0.39415
 C1422 C 0.47323 -0.02786 0.40226
 N1423 N 0.47983 -0.04178 0.39508
 N1424 N 0.47426 -0.04712 0.38024
 C1425 C 0.45542 -0.04488 0.35654
 C1426 C 0.44974 -0.05029 0.34361
 C1427 C 0.47869 -0.02254 0.41856
 C1428 C 0.48299 -0.01828 0.43241
 C1429 C 0.46170 0.46136 -0.12818
 N1430 N 0.47454 0.45348 -0.12033
 N1431 N 0.47979 0.45870 -0.10533
 C1432 C 0.47235 0.47195 -0.09773
 N1433 N 0.45952 0.47985 -0.10559
 N1434 N 0.45427 0.47463 -0.12058
 C1435 C 0.45563 0.45535 -0.14402
 C1436 C 0.45032 0.45008 -0.15718
 C1437 C 0.47761 0.47720 -0.08133
 C1438 C 0.48184 0.48145 -0.06745
 C1439 C 0.46101 0.78975 0.37714
 N1440 N 0.45310 0.77693 0.36925
 N1441 N 0.45857 0.77140 0.35446
 C1442 C 0.47212 0.77853 0.34711
 N1443 N 0.48005 0.79133 0.35501
 N1444 N 0.47458 0.79686 0.36980
 C1445 C 0.45470 0.79615 0.39273
 C1446 C 0.44917 0.80171 0.40565
 C1447 C 0.47756 0.77305 0.33086
 C1448 C 0.48187 0.76868 0.31704
 C1449 C -0.03668 0.78784 0.88015
 N1450 N -0.02397 0.79579 0.87217
 N1451 N -0.01872 0.79044 0.85723
 C1452 C -0.02602 0.77697 0.84983
 N1453 N -0.03871 0.76901 0.85783
 N1454 N -0.04396 0.77436 0.87277
 C1455 C -0.04293 0.79415 0.89580
 C1456 C -0.04846 0.79969 0.90873
 C1457 C -0.02100 0.77181 0.83334
 C1458 C -0.01710 0.76780 0.81930
 C1459 C 0.37268 0.78947 0.28890
 N1460 N 0.38032 0.77633 0.29651
 N1461 N 0.39509 0.77084 0.29105
 C1462 C 0.40267 0.77832 0.27780
 N1463 N 0.39502 0.79144 0.27017
 N1464 N 0.38025 0.79694 0.27564
 C1465 C 0.35711 0.79582 0.29521
 C1466 C 0.34420 0.80136 0.30073
 C1467 C 0.41888 0.77286 0.27235
 C1468 C 0.43265 0.76850 0.26799
 C1469 C -0.12962 0.78766 0.78745
 N1470 N -0.12211 0.79477 0.77395
 N1471 N -0.10726 0.78928 0.76870
 C1472 C -0.09947 0.77652 0.77678
 N1473 N -0.10699 0.76939 0.79026
 N1474 N -0.12184 0.77488 0.79550
 C1475 C -0.14520 0.79412 0.79361
 C1476 C -0.15809 0.79979 0.79905
 C1477 C -0.08306 0.77125 0.77171
 C1478 C -0.06908 0.76719 0.76775
 C1479 C 0.88018 0.28545 0.46315
 N1480 N 0.87280 0.29262 0.47668
 N1481 N 0.85785 0.28737 0.48190
 C1482 C 0.84983 0.27478 0.47373
 N1483 N 0.85723 0.26759 0.46022
 N1484 N 0.87218 0.27284 0.45501
 C1485 C 0.89583 0.29174 0.45698
 C1486 C 0.90875 0.29730 0.45153
 C1487 C 0.83333 0.26980 0.47875
 C1488 C 0.81928 0.26595 0.48265
 C1489 C 0.87932 0.78741 -0.03645
 N1490 N 0.87202 0.79415 -0.02265
 N1491 N 0.85709 0.78872 -0.01752
 C1492 C 0.84903 0.77640 -0.02603
 N1493 N 0.85635 0.76964 -0.03980
 N1494 N 0.87127 0.77506 -0.04493
 C1495 C 0.89495 0.79385 -0.04251
 C1496 C 0.90787 0.79949 -0.04789
 C1497 C 0.83255 0.77125 -0.02108
 C1498 C 0.81851 0.76728 -0.01724
 C1499 C -0.12802 -0.03686 -0.03829
 N1500 N -0.11999 -0.02435 -0.04652
 N1501 N -0.10504 -0.01906 -0.04130
 C1502 C -0.09767 -0.02614 -0.02771
 N1503 N -0.10571 -0.03864 -0.01947
 N1504 N -0.12066 -0.04392 -0.02468
 C1505 C -0.14377 -0.04305 -0.04434
 C1506 C -0.15682 -0.04848 -0.04965
 C1507 C -0.08128 -0.02093 -0.02251
 C1508 C -0.06737 -0.01680 -0.01835
 C1509 C -0.12970 0.46319 0.46278
 N1510 N -0.12221 0.45582 0.47615
 N1511 N -0.10730 0.46112 0.48146
 C1512 C -0.09943 0.47395 0.47356
 N1513 N -0.10694 0.48134 0.46021
 N1514 N -0.12185 0.47604 0.45490
 C1515 C -0.14533 0.45690 0.45651
 C1516 C -0.15825 0.45134 0.45100
 C1517 C -0.08297 0.47903 0.47868
 C1518 C -0.06896 0.48298 0.48265
 C1519 C 0.37340 -0.03881 0.46082
 N1520 N 0.38105 -0.02569 0.45320
 N1521 N 0.39590 -0.02029 0.45860
 C1522 C 0.40354 -0.02785 0.47177
 N1523 N 0.39588 -0.04096 0.47940
 N1524 N 0.38104 -0.04636 0.47401
 C1525 C 0.35776 -0.04508 0.45459
 C1526 C 0.34479 -0.05058 0.44916
 C1527 C 0.41982 -0.02248 0.47715
 C1528 C 0.43363 -0.01819 0.48147
 C1529 C 0.37194 0.46235 -0.03829
 N1530 N 0.38002 0.47471 -0.04669
 N1531 N 0.39500 0.48000 -0.04155
 C1532 C 0.40234 0.47308 -0.02786
 N1533 N 0.39424 0.46073 -0.01945
 N1534 N 0.37927 0.45544 -0.02458
 C1535 C 0.35612 0.45619 -0.04421
 C1536 C 0.34299 0.45080 -0.04939
 C1537 C 0.41874 0.47833 -0.02270
 C1538 C 0.43264 0.48251 -0.01854
 C1539 C 0.37944 0.46310 0.78729
 N1540 N 0.37173 0.45536 0.77425
 N1541 N 0.35683 0.46065 0.76891
 C1542 C 0.34920 0.47383 0.77644
 N1543 N 0.35693 0.48159 0.78946
 N1544 N 0.37183 0.47631 0.79480
 C1545 C 0.39504 0.45684 0.79364
 C1546 C 0.40792 0.45129 0.79922
 C1547 C 0.33273 0.47889 0.77133
 C1548 C 0.31871 0.48282 0.76738
 C1549 C 0.37717 -0.03800 0.28887
 N1550 N 0.37013 -0.04461 0.27487
 N1551 N 0.35529 -0.03919 0.26951
 C1552 C 0.34704 -0.02698 0.27799
 N1553 N 0.35410 -0.02035 0.29198
 N1554 N 0.36894 -0.02577 0.29734
 C1555 C 0.39280 -0.04433 0.29505
 C1556 C 0.40575 -0.04990 0.30044
 C1557 C 0.33075 -0.02166 0.27263
 C1558 C 0.31691 -0.01745 0.26836
 C1559 C 0.12270 0.53915 0.71186
 N1560 N 0.12981 0.52530 0.70504
 N1561 N 0.14459 0.51983 0.71055
 C1562 C 0.15270 0.52806 0.72304
 N1563 N 0.14558 0.54190 0.72987
 N1564 N 0.13080 0.54736 0.72436
 C1565 C 0.10713 0.54543 0.70546
 C1566 C 0.09422 0.55091 0.69988
 C1567 C 0.16894 0.52261 0.72846
 C1568 C 0.18273 0.51826 0.73276
 C1569 C 0.11966 0.03593 0.21390
 N1570 N 0.12725 0.02269 0.20643
 N1571 N 0.14227 0.01758 0.21160
 C1572 C 0.15015 0.02556 0.22439
 N1573 N 0.14254 0.03878 0.23189
 N1574 N 0.12752 0.04389 0.22672
 C1575 C 0.10391 0.04200 0.20774
 C1576 C 0.09091 0.04737 0.20228
 C1577 C 0.16671 0.02065 0.22933
 C1578 C 0.18079 0.01682 0.23317
 C1579 C 0.62936 0.71332 0.21343
 N1580 N 0.62209 0.72705 0.20652
 N1581 N 0.60717 0.73227 0.21186
 C1582 C 0.59908 0.72392 0.22426
 N1583 N 0.60637 0.71022 0.23119
 N1584 N 0.62129 0.70500 0.22585
 C1585 C 0.64497 0.70716 0.20705
 C1586 C 0.65785 0.70170 0.20141
 C1587 C 0.58261 0.72896 0.22932
 C1588 C 0.56858 0.73288 0.23322
 C1589 C 0.12682 0.71045 0.71199
 N1590 N 0.12243 0.72678 0.71021
 N1591 N 0.10758 0.73215 0.71557
 C1592 C 0.09666 0.72136 0.72287
 N1593 N 0.10106 0.70504 0.72465
 N1594 N 0.11591 0.69967 0.71930
 C1595 C 0.14258 0.70450 0.70576
 C1596 C 0.15566 0.69927 0.70035
 C1597 C 0.08045 0.72699 0.72816
 C1598 C 0.06669 0.73147 0.73242
 C1599 C 0.62237 0.21219 0.53761
 N1600 N 0.62998 0.20432 0.52461
 N1601 N 0.64495 0.20941 0.51927
 C1602 C 0.65275 0.22252 0.52679
 N1603 N 0.64513 0.23041 0.53977
 N1604 N 0.63016 0.22532 0.54511
 C1605 C 0.60661 0.20625 0.54382
 C1606 C 0.59355 0.20100 0.54925
 C1607 C 0.66916 0.22755 0.52151
 C1608 C 0.68307 0.23160 0.51731
 C1609 C 0.62154 0.71240 0.03659
 N1610 N 0.62884 0.72611 0.04352
 N1611 N 0.64380 0.73127 0.03826
 C1612 C 0.65192 0.72287 0.02591
 N1613 N 0.64461 0.70918 0.01896
 N1614 N 0.62965 0.70402 0.02423
 C1615 C 0.60575 0.70644 0.04274
 C1616 C 0.59265 0.70122 0.04812
 C1617 C 0.66832 0.72804 0.02072
 C1618 C 0.68223 0.73221 0.01662
 C1619 C 0.12967 0.03732 0.03630
 N1620 N 0.12223 0.02391 0.04363
 N1621 N 0.10729 0.01863 0.03838
 C1622 C 0.09934 0.02659 0.02563
 N1623 N 0.10680 0.03998 0.01827
 N1624 N 0.12173 0.04526 0.02352
 C1625 C 0.14531 0.04356 0.04255
 C1626 C 0.15825 0.04906 0.04810
 C1627 C 0.08285 0.02151 0.02062
 C1628 C 0.06882 0.01756 0.01672
 C1629 C 0.12756 0.53844 0.53774
 N1630 N 0.12031 0.52462 0.54446
 N1631 N 0.10539 0.51944 0.53904
 C1632 C 0.09729 0.52792 0.52673
 N1633 N 0.10456 0.54173 0.51999
 N1634 N 0.11947 0.54691 0.52541
 C1635 C 0.14329 0.54442 0.54405
 C1636 C 0.15633 0.54967 0.54956
 C1637 C 0.08093 0.52274 0.52139
 C1638 C 0.06706 0.51856 0.51717
 C1639 C 0.63023 0.03764 0.53626
 N1640 N 0.62232 0.04547 0.52341
 N1641 N 0.60743 0.04007 0.51811
 C1642 C 0.60002 0.02668 0.52550
 N1643 N 0.60796 0.01883 0.53833
 N1644 N 0.62284 0.02423 0.54363
 C1645 C 0.64582 0.04400 0.54256
 C1646 C 0.65870 0.04957 0.54815
 C1647 C 0.58358 0.02148 0.52045
 C1648 C 0.56957 0.01744 0.51655
 C1649 C 0.62948 0.53725 0.03634
 N1650 N 0.62198 0.52394 0.04379
 N1651 N 0.60706 0.51862 0.03851
 C1652 C 0.59919 0.52645 0.02563
 N1653 N 0.60672 0.53973 0.01816
 N1654 N 0.62163 0.54505 0.02343
 C1655 C 0.64512 0.54353 0.04260
 C1656 C 0.65803 0.54906 0.04814
 C1657 C 0.58272 0.52133 0.02058
 C1658 C 0.56870 0.51736 0.01665
 C1659 C 0.03662 0.03616 0.13029
 N1660 N 0.04467 0.02350 0.12230
 N1661 N 0.03955 0.01836 0.10724
 C1662 C 0.02622 0.02572 0.09970
 N1663 N 0.01815 0.03836 0.10770
 N1664 N 0.02328 0.04350 0.12277
 C1665 C 0.04267 0.04227 0.14610
 C1666 C 0.04801 0.04769 0.15918
 C1667 C 0.02127 0.02080 0.08311
 C1668 C 0.01739 0.01697 0.06900
 C1669 C 0.03897 0.53878 0.62755
 N1670 N 0.04697 0.52611 0.61954
 N1671 N 0.04149 0.52064 0.60472
 C1672 C 0.02784 0.52768 0.59746
 N1673 N 0.01982 0.54033 0.60548
 N1674 N 0.02530 0.54580 0.62030
 C1675 C 0.04528 0.54513 0.64317
 C1676 C 0.05077 0.55068 0.65612
 C1677 C 0.02238 0.52228 0.58118
 C1678 C 0.01803 0.51798 0.56734
 C1679 C 0.53734 0.03721 0.62960
 N1680 N 0.52385 0.04425 0.62205
 N1681 N 0.51868 0.03877 0.60712
 C1682 C 0.52684 0.02607 0.59930
 N1683 N 0.54030 0.01901 0.60687
 N1684 N 0.54547 0.02449 0.62180
 C1685 C 0.54347 0.04370 0.64523
 C1686 C 0.54891 0.04940 0.65815
 C1687 C 0.52188 0.02085 0.58280
 C1688 C 0.51799 0.01685 0.56874
 C1689 C 0.53649 0.53584 0.13013
 N1690 N 0.54470 0.52334 0.12207
 N1691 N 0.53959 0.51816 0.10701
 C1692 C 0.52610 0.52532 0.09957
 N1693 N 0.51787 0.53780 0.10765
 N1694 N 0.52298 0.54298 0.12271
 C1695 C 0.54252 0.54201 0.14593
 C1696 C 0.54785 0.54748 0.15898
 C1697 C 0.52115 0.52037 0.08298
 C1698 C 0.51727 0.51653 0.06888
 C1699 C 0.21127 0.53752 0.62211
 N1700 N 0.20311 0.52502 0.63023
 N1701 N 0.20846 0.51972 0.64515
 C1702 C 0.22213 0.52675 0.65240
 N1703 N 0.23030 0.53923 0.64426
 N1704 N 0.22496 0.54454 0.62934
 C1705 C 0.20511 0.54371 0.60638
 C1706 C 0.19974 0.54916 0.59334
 C1707 C 0.22747 0.52151 0.66876
 C1708 C 0.23174 0.51734 0.68265
 C1709 C 0.21253 0.03626 0.11998
 N1710 N 0.22615 0.04324 0.12736
 N1711 N 0.23137 0.03787 0.14230
 C1712 C 0.22313 0.02534 0.15031
 N1713 N 0.20953 0.01834 0.14291
 N1714 N 0.20431 0.02371 0.12796
 C1715 C 0.20637 0.04266 0.10433
 C1716 C 0.20093 0.04829 0.09140
 C1717 C 0.22817 0.02023 0.16681
 C1718 C 0.23212 0.01629 0.18086
 C1719 C 0.71174 0.21166 0.62794
 N1720 N 0.70403 0.22461 0.62009
 N1721 N 0.70943 0.22993 0.60520
 C1722 C 0.72271 0.22245 0.59771
 N1723 N 0.73044 0.20952 0.60557
 N1724 N 0.72504 0.20420 0.62046
 C1725 C 0.70550 0.20548 0.64363
 C1726 C 0.70006 0.20004 0.65664
 C1727 C 0.72808 0.22770 0.58136
 C1728 C 0.73236 0.23189 0.56749
 C1729 C 0.71044 0.71173 0.12707
 N1730 N 0.72601 0.71825 0.12515
 N1731 N 0.73118 0.72343 0.11012
 C1732 C 0.72095 0.72225 0.09658
 N1733 N 0.70539 0.71574 0.09852
 N1734 N 0.70022 0.71056 0.11354
 C1735 C 0.70488 0.70589 0.14315
 C1736 C 0.69994 0.70077 0.15648
 C1737 C 0.72652 0.72759 0.08034
 C1738 C 0.73095 0.73190 0.06655
 C1739 C 0.53702 0.71383 0.11997
 N1740 N 0.52360 0.70650 0.12736
 N1741 N 0.51828 0.71174 0.14231
 C1742 C 0.52621 0.72447 0.15032
 N1743 N 0.53961 0.73183 0.14292
 N1744 N 0.54493 0.72659 0.12797
 C1745 C 0.54328 0.70762 0.10429
 C1746 C 0.54876 0.70210 0.09133
 C1747 C 0.52107 0.72947 0.16682
 C1748 C 0.51708 0.73336 0.18088
 C1749 C 0.03849 0.71201 0.62267
 N1750 N 0.02507 0.70477 0.63015
 N1751 N 0.01975 0.71019 0.64504
 C1752 C 0.02770 0.72300 0.65290
 N1753 N 0.04111 0.73026 0.64542
 N1754 N 0.04642 0.72484 0.63053
 C1755 C 0.04463 0.70573 0.60697
 C1756 C 0.04999 0.70023 0.59395
 C1757 C 0.02240 0.72837 0.66924
 C1758 C 0.01816 0.73264 0.68311
 C1759 C 0.53589 0.62009 0.21373
 N1760 N 0.54329 0.62777 0.22699
 N1761 N 0.53809 0.64281 0.23205
 C1762 C 0.52533 0.65063 0.22402
 N1763 N 0.51790 0.64294 0.21078
 N1764 N 0.52310 0.62790 0.20571
 C1765 C 0.54207 0.60431 0.20772
 C1766 C 0.54753 0.59127 0.20241
 C1767 C 0.52034 0.66721 0.22889
 C1768 C 0.51647 0.68131 0.23269
 C1769 C 0.03827 0.62259 0.71170
 N1770 N 0.04516 0.62986 0.72546
 N1771 N 0.03962 0.64464 0.73091
 C1772 C 0.02701 0.65260 0.72278
 N1773 N 0.02009 0.64532 0.70904
 N1774 N 0.02563 0.63054 0.70359
 C1775 C 0.04474 0.60705 0.70539
 C1776 C 0.05039 0.59418 0.69985
 C1777 C 0.02158 0.66888 0.72817
 C1778 C 0.01730 0.68272 0.73246
 C1779 C 0.03680 0.13002 0.03687
 N1780 N 0.04422 0.12241 0.02360
 N1781 N 0.03888 0.10749 0.01831
 C1782 C 0.02596 0.09971 0.02613
 N1783 N 0.01852 0.10733 0.03938
 N1784 N 0.02385 0.12226 0.04467
 C1785 C 0.04314 0.14565 0.04314
 C1786 C 0.04874 0.15855 0.04867
 C1787 C 0.02087 0.08321 0.02106
 C1788 C 0.01693 0.06916 0.01713
 C1789 C 0.03817 0.62768 0.53889
 N1790 N 0.02533 0.61979 0.54673
 N1791 N 0.02000 0.60490 0.54134
 C1792 C 0.02735 0.59744 0.52795
 N1793 N 0.04017 0.60533 0.52009
 N1794 N 0.04550 0.62023 0.52548
 C1795 C 0.04435 0.64339 0.54510
 C1796 C 0.04977 0.65643 0.55051
 C1797 C 0.02205 0.58112 0.52255
 C1798 C 0.01781 0.56727 0.51823
 C1799 C 0.53738 0.12968 0.53687
 N1800 N 0.52426 0.12204 0.54448
 N1801 N 0.51894 0.10711 0.53918
 C1802 C 0.52657 0.09938 0.52610
 N1803 N 0.53967 0.10704 0.51847
 N1804 N 0.54499 0.12196 0.52377
 C1805 C 0.54371 0.14528 0.54318
 C1806 C 0.54931 0.15817 0.54874
 C1807 C 0.52149 0.08289 0.52104
 C1808 C 0.51755 0.06884 0.51712
 C1809 C 0.53641 0.62977 0.03631
 N1810 N 0.54352 0.62227 0.02281
 N1811 N 0.53819 0.60730 0.01765
 C1812 C 0.52558 0.59938 0.02582
 N1813 N 0.51844 0.60690 0.03929
 N1814 N 0.52377 0.62187 0.04445
 C1815 C 0.54277 0.64545 0.04243
 C1816 C 0.54837 0.65840 0.04785
 C1817 C 0.52051 0.58285 0.02086
 C1818 C 0.51661 0.56877 0.01699
 C1819 C 0.71183 0.12166 0.53809
 N1820 N 0.72467 0.12947 0.54604
 N1821 N 0.72993 0.14446 0.54087
 C1822 C 0.72252 0.15209 0.52761
 N1823 N 0.70969 0.14427 0.51965
 N1824 N 0.70442 0.12929 0.52482
 C1825 C 0.70574 0.10582 0.54405
 C1826 C 0.70041 0.09267 0.54926
 C1827 C 0.72780 0.16848 0.52241
 C1828 C 0.73206 0.18236 0.51821
 C1829 C 0.71242 0.62211 0.03749
 N1830 N 0.70484 0.62977 0.02434
 N1831 N 0.71007 0.64475 0.01911
 C1832 C 0.72304 0.65252 0.02687
 N1833 N 0.73064 0.64485 0.04001
 N1834 N 0.72541 0.62987 0.04524
 C1835 C 0.70635 0.60630 0.04355
 C1836 C 0.70103 0.59319 0.04885
 C1837 C 0.72824 0.66894 0.02167
 C1838 C 0.73240 0.68286 0.01752
 C1839 C 0.21123 0.62731 0.71169
 N1840 N 0.20413 0.61987 0.72523
 N1841 N 0.20951 0.60497 0.73051
 C1842 C 0.22216 0.59705 0.72241
 N1843 N 0.22928 0.60450 0.70888
 N1844 N 0.22390 0.61940 0.70360
 C1845 C 0.20498 0.64302 0.70560
 C1846 C 0.19951 0.65606 0.70027
 C1847 C 0.22752 0.58072 0.72769
 C1848 C 0.23180 0.56687 0.73193
 C1849 C 0.21375 0.12966 0.21311
 N1850 N 0.22644 0.12169 0.20512
 N1851 N 0.23160 0.10669 0.21032
 C1852 C 0.22423 0.09920 0.22369
 N1853 N 0.21157 0.10718 0.23170
 N1854 N 0.20640 0.12218 0.22649
 C1855 C 0.20757 0.14537 0.20694
 C1856 C 0.20209 0.15835 0.20150
 C1857 C 0.22915 0.08265 0.22870
 C1858 C 0.23297 0.06856 0.23260
 C1859 C 0.71251 1.12930 0.71221
 N1860 N 0.72553 1.12162 0.70448
 N1861 N 0.73096 1.10677 0.70984
 C1862 C 0.72355 1.09915 0.72310
 N1863 N 0.71056 1.10685 0.73086
 N1864 N 0.70512 1.12170 0.72550
 C1865 C 0.70607 1.14484 0.70587
 C1866 C 0.70039 1.15768 0.70028
 C1867 C 0.72875 1.08272 0.72824
 C1868 C 0.73277 1.06872 0.73223
 C1869 C 0.71352 0.62993 0.21312
 N1870 N 0.72651 0.62219 0.20540
 N1871 N 0.73182 0.60727 0.21073
 C1872 C 0.72430 0.59966 0.22394
 N1873 N 0.71133 0.60742 0.23168
 N1874 N 0.70603 0.62234 0.22635
 C1875 C 0.70720 0.64553 0.20680
 C1876 C 0.70160 0.65840 0.20123
 C1877 C 0.72936 0.58318 0.22903
 C1878 C 0.73329 0.56914 0.23297
 C1879 C 0.53820 0.12173 0.71102
 N1880 N 0.54505 0.12885 0.72488
 N1881 N 0.53987 0.14383 0.73015
 C1882 C 0.52769 0.15215 0.72172
 N1883 N 0.52082 0.14503 0.70788
 N1884 N 0.52600 0.13005 0.70260
 C1885 C 0.54421 0.10590 0.70499
 C1886 C 0.54948 0.09274 0.69973
 C1887 C 0.52251 0.16852 0.72707
 C1888 C 0.51833 0.18239 0.73139
 C1889 C 1.03597 0.11986 0.21326
 N1890 N 1.02328 0.12776 0.20519
 N1891 N 1.01815 0.14283 0.21026
 C1892 C 1.02555 0.15044 0.22356
 N1893 N 1.03821 0.14251 0.23165
 N1894 N 1.04335 0.12745 0.22657
 C1895 C 1.04208 0.10405 0.20725
 C1896 C 1.04747 0.09098 0.20192
 C1897 C 1.02062 0.16702 0.22847
 C1898 C 1.01678 0.18111 0.23231
 C1899 C 0.21306 0.62061 0.53742
 N1900 N 0.22583 0.62845 0.54544
 N1901 N 0.23130 0.64331 0.54011
 C1902 C 0.22416 0.65077 0.52659
 N1903 N 0.21141 0.64291 0.51855
 N1904 N 0.20594 0.62805 0.52389
 C1905 C 0.20656 0.60508 0.54373
 C1906 C 0.20083 0.59226 0.54929
 C1907 C 0.22935 0.66720 0.52148
 C1908 C 0.23336 0.68122 0.51753
 C1909 C 0.21200 0.12172 1.03757
 N1910 N 0.20461 0.12938 1.02430
 N1911 N 0.20990 0.14437 1.01918
 C1912 C 0.22272 0.15216 1.02717
 N1913 N 0.23012 0.14449 1.04042
 N1914 N 0.22484 0.12950 1.04554
 C1915 C 0.20588 0.10588 1.04350
 C1916 C 0.20053 0.09274 1.04869
 C1917 C 0.22799 0.16858 1.02205
 C1918 C 0.23220 0.18249 1.01793
 C1919 C 0.21231 0.71296 0.62953
 N1920 N 0.20443 0.72576 0.62160
 N1921 N 0.20992 0.73122 0.60679
 C1922 C 0.22346 0.72405 0.59947
 N1923 N 0.23136 0.71127 0.60742
 N1924 N 0.22587 0.70581 0.62223
 C1925 C 0.20582 0.70644 0.64499
 C1926 C 0.20012 0.70067 0.65774
 C1927 C 0.22872 0.72921 0.58306
 C1928 C 0.23279 0.73319 0.56906
 C1929 C 0.21237 0.21294 1.12851
 N1930 N 0.20425 0.22557 1.12054
 N1931 N 0.20936 0.23077 1.10550
 C1932 C 0.22273 0.22349 1.09798
 N1933 N 0.23086 0.21088 1.10596
 N1934 N 0.22575 0.20568 1.12100
 C1935 C 0.20644 0.20687 1.14437
 C1936 C 0.20125 0.20154 1.15752
 C1937 C 0.22783 0.22864 1.08152
 C1938 C 0.23193 0.23274 1.06756
 C1939 C 0.71317 0.53704 0.12043
 N1940 N 0.70526 0.52418 0.12823
 N1941 N 0.71049 0.51883 0.14318
 C1942 C 0.72379 0.52618 0.15078
 N1943 N 0.73173 0.53902 0.14297
 N1944 N 0.72650 0.54437 0.12802
 C1945 C 0.70698 0.54339 0.10477
 C1946 C 0.70151 0.54897 0.09183
 C1947 C 0.72883 0.52107 0.16729
 C1948 C 0.73276 0.51713 0.18135
 C1949 C 0.71299 1.03676 0.62002
 N1950 N 0.70512 1.02380 0.62769
 N1951 N 0.71034 1.01836 0.64261
 C1952 C 0.72360 1.02571 0.65030
 N1953 N 0.73149 1.03865 0.64261
 N1954 N 0.72627 1.04409 0.62769
 C1955 C 0.70681 1.04321 0.60439
 C1956 C 0.70134 1.04888 0.59149
 C1957 C 0.72860 1.02052 0.66680
 C1958 C 0.73251 1.01656 0.68085
 C1959 C 0.53851 0.21268 0.62168
 N1960 N 0.52511 0.20530 0.62907
 N1961 N 0.51981 0.21048 0.64404
 C1962 C 0.52774 0.22319 0.65209
 N1963 N 0.54112 0.23059 0.64469
 N1964 N 0.54643 0.22541 0.62971
 C1965 C 0.54466 0.20661 0.60591
 C1966 C 0.55005 0.20125 0.59285
 C1967 C 0.52247 0.22829 0.66851
 C1968 C 0.51826 0.23234 0.68245
 C1969 C 1.03753 0.21377 0.11999
 N1970 N 1.02369 0.20694 0.12709
 N1971 N 1.01836 0.21225 0.14201
 C1972 C 1.02670 0.22456 0.15028
 N1973 N 1.04051 0.23141 0.14317
 N1974 N 1.04584 0.22610 0.12824
 C1975 C 1.04379 0.20743 0.10436
 C1976 C 1.04933 0.20184 0.09146
 C1977 C 1.02154 0.22957 0.16677
 C1978 C 1.01754 0.23344 0.18083
 C1979 C 0.62791 0.21120 0.71206
 N1980 N 0.62046 0.22472 0.70493
 N1981 N 0.60559 0.22997 0.71035
 C1982 C 0.59771 0.22187 0.72304
 N1983 N 0.60517 0.20837 0.73019
 N1984 N 0.62005 0.20312 0.72477
 C1985 C 0.64359 0.20512 0.70577
 C1986 C 0.65659 0.19978 0.70028
 C1987 C 0.58139 0.22709 0.72839
 C1988 C 0.56753 0.23128 0.73264
 C1989 C 1.12992 0.21335 0.21369
 N1990 N 1.12188 0.20510 0.22619
 N1991 N 1.10692 0.21028 0.23145
 C1992 C 1.09955 0.22386 0.22437
 N1993 N 1.10761 0.23213 0.21190
 N1994 N 1.12256 0.22696 0.20664
 C1995 C 1.14558 0.20723 0.20740
 C1996 C 1.15851 0.20182 0.20184
 C1997 C 1.08304 0.22884 0.22937
 C1998 C 1.06899 0.23274 0.23323
 C1999 C 0.12097 0.71249 0.53725
 N2000 N 0.12883 0.70443 0.52451
 N2001 N 0.14364 0.70979 0.51901
 C2002 C 0.15104 0.72337 0.52608
 N2003 N 0.14316 0.73145 0.53880
 N2004 N 0.12835 0.72609 0.54430
 C2005 C 0.10549 0.70616 0.54379
 C2006 C 0.09270 0.70058 0.54954
 C2007 C 0.16743 0.72852 0.52087
 C2008 C 0.18142 0.73254 0.51687
 C2009 C 0.12226 0.21226 1.03820
 N2010 N 0.13012 0.22517 1.04600
 N2011 N 0.14511 0.23030 1.04079
 C2012 C 0.15270 0.22268 1.02763
 N2013 N 0.14483 0.20979 1.01981
 N2014 N 0.12984 0.20465 1.02502
 C2015 C 0.10640 0.20633 1.04421
 C2016 C 0.09324 0.20114 1.04946
 C2017 C 0.16909 0.22784 1.02239
 C2018 C 0.18297 0.23199 1.01818
 C2019 C 0.62007 0.53662 0.21433
 N2020 N 0.62770 0.52341 0.20685
 N2021 N 0.64273 0.51833 0.21204
 C2022 C 0.65057 0.52630 0.22486
 N2023 N 0.64292 0.53949 0.23236
 N2024 N 0.62789 0.54458 0.22718
 C2025 C 0.60430 0.54264 0.20818
 C2026 C 0.59126 0.54794 0.20273
 C2027 C 0.66712 0.52140 0.22983
 C2028 C 0.68119 0.51754 0.23368
 C2029 C 0.62026 1.03728 0.71313
 N2030 N 0.62818 1.04518 0.72595
 N2031 N 0.64306 1.03980 0.73127
 C2032 C 0.65045 1.02637 0.72395
 N2033 N 0.64250 1.01845 0.71115
 N2034 N 0.62763 1.02382 0.70583
 C2035 C 0.60469 1.04362 0.70680
 C2036 C 0.59183 1.04920 0.70120
 C2037 C 0.66689 1.02120 0.72902
 C2038 C 0.68089 1.01721 0.73295
 C2039 C 0.87752 0.46157 0.28894
 N2040 N 0.87011 0.45443 0.27540
 N2041 N 0.85523 0.45981 0.27009
 C2042 C 0.84732 0.47250 0.27817
 N2043 N 0.85475 0.47966 0.29170
 N2044 N 0.86962 0.47428 0.29700
 C2045 C 0.89322 0.45533 0.29506
 C2046 C 0.90624 0.44986 0.30039
 C2047 C 0.83102 0.47786 0.27285
 C2048 C 0.81720 0.48214 0.26856
 C2049 C 0.87720 0.96204 0.78916
 N2050 N 0.86934 0.97497 0.79689
 N2051 N 0.85445 0.98021 0.79148
 C2052 C 0.84697 0.97268 0.77818
 N2053 N 0.85485 0.95976 0.77044
 N2054 N 0.86973 0.95452 0.77585
 C2055 C 0.89292 0.95595 0.79539
 C2056 C 0.90595 0.95060 0.80080
 C2057 C 0.83067 0.97791 0.77276
 C2058 C 0.81685 0.98211 0.76839
 C2059 C 0.37026 0.28520 0.78623
 N2060 N 0.37814 0.27251 0.79434
 N2061 N 0.39318 0.26734 0.78930
 C2062 C 0.40077 0.27469 0.77599
 N2063 N 0.39287 0.28734 0.76785
 N2064 N 0.37783 0.29252 0.77290
 C2065 C 0.35450 0.29138 0.79223
 C2066 C 0.34149 0.29686 0.79754
 C2067 C 0.41734 0.26976 0.77114
 C2068 C 0.43143 0.26595 0.76734
 C2069 C 0.87258 0.28844 0.28821
 N2070 N 0.88006 0.29570 0.27478
 N2071 N 0.89495 0.29036 0.26951
 C2072 C 0.90282 0.27759 0.27750
 N2073 N 0.89534 0.27031 0.29092
 N2074 N 0.88044 0.27565 0.29619
 C2075 C 0.85686 0.29463 0.29430
 C2076 C 0.84383 0.30005 0.29962
 C2077 C 0.91913 0.27227 0.27222
 C2078 C 0.93297 0.26801 0.26796
 C2079 C 0.37718 0.78958 0.46101
 N2080 N 0.36938 0.77668 0.45312
 N2081 N 0.35463 0.77113 0.45860
 C2082 C 0.34724 0.77830 0.47212
 N2083 N 0.35505 0.79118 0.48002
 N2084 N 0.36980 0.79674 0.47455
 C2085 C 0.39273 0.79600 0.45470
 C2086 C 0.40562 0.80160 0.44919
 C2087 C 0.33104 0.77279 0.47758
 C2088 C 0.31728 0.76840 0.48194
 C2089 C 0.38006 0.28584 0.96338
 N2090 N 0.37201 0.27339 0.95504
 N2091 N 0.35704 0.26809 0.96019
 C2092 C 0.34969 0.27508 0.97383
 N2093 N 0.35775 0.28750 0.98219
 N2094 N 0.37271 0.29280 0.97705
 C2095 C 0.39573 0.29215 0.95731
 C2096 C 0.40869 0.29773 0.95194
 C2097 C 0.33318 0.27005 0.97879
 C2098 C 0.31913 0.26618 0.98269
 C2099 C 0.78781 0.46218 0.37848
 N2100 N 0.79480 0.47583 0.37116
 N2101 N 0.78953 0.48105 0.35618
 C2102 C 0.77710 0.47276 0.34806
 N2103 N 0.77009 0.45912 0.35539
 N2104 N 0.77537 0.45390 0.37037
 C2105 C 0.79396 0.45615 0.39428
 C2106 C 0.79935 0.45088 0.40739
 C2107 C 0.77189 0.47798 0.33165
 C2108 C 0.76773 0.48217 0.31772
 C2109 C 0.78772 0.96243 0.87810
 N2110 N 0.77517 0.95418 0.87013
 N2111 N 0.76980 0.95935 0.85517
 C2112 C 0.77682 0.97292 0.84773
 N2113 N 0.78935 0.98118 0.85570
 N2114 N 0.79472 0.97601 0.87066
 C2115 C 0.79398 0.95643 0.89386
 C2116 C 0.79945 0.95116 0.90693
 C2117 C 0.77152 0.97807 0.83132
 C2118 C 0.76732 0.98219 0.81740
 C2119 C 0.28876 0.78941 0.37274
 N2120 N 0.29609 0.77600 0.38018
 N2121 N 0.29064 0.77048 0.39498
 C2122 C 0.27769 0.77821 0.40279
 N2123 N 0.27034 0.79160 0.39534
 N2124 N 0.27579 0.79712 0.38054
 C2125 C 0.29509 0.79578 0.35716
 C2126 C 0.30062 0.80134 0.34424
 C2127 C 0.27231 0.77273 0.41906
 C2128 C 0.26804 0.76837 0.43289
 C2129 C 0.28627 0.28614 0.86989
 N2130 N 0.27381 0.29443 0.87792
 N2131 N 0.26862 0.28939 0.89297
 C2132 C 0.27573 0.27589 0.90046
 N2133 N 0.28817 0.26757 0.89243
 N2134 N 0.29336 0.27262 0.87737
 C2135 C 0.29245 0.29209 0.85409
 C2136 C 0.29790 0.29737 0.84102
 C2137 C 0.27076 0.27100 0.91705
 C2138 C 0.26690 0.26718 0.93115
 C2139 C 0.46430 0.28608 0.88012
 N2140 N 0.47692 0.29413 0.87209
 N2141 N 0.48214 0.28886 0.85712
 C2142 C 0.47490 0.27537 0.84972
 N2143 N 0.46230 0.26729 0.85776
 N2144 N 0.45708 0.27257 0.87273
 C2145 C 0.45805 0.29234 0.89578
 C2146 C 0.45250 0.29786 0.90871
 C2147 C 0.47983 0.27031 0.83318
 C2148 C 0.48366 0.26640 0.81908
 C2149 C 0.96296 0.28723 0.37837
 N2150 N 0.97588 0.29504 0.37059
 N2151 N 0.98101 0.28993 0.35553
 C2152 C 0.97337 0.27685 0.34779
 N2153 N 0.96046 0.26902 0.35558
 N2154 N 0.95533 0.27414 0.37064
 C2155 C 0.95697 0.29317 0.39426
 C2156 C 0.95170 0.29837 0.40743
 C2157 C 0.97846 0.27177 0.33130
 C2158 C 0.98253 0.26769 0.31733
 C2159 C 0.46302 0.37908 0.78729
 N2160 N 0.47614 0.37138 0.79485
 N2161 N 0.48141 0.35647 0.78948
 C2162 C 0.47373 0.34881 0.77637
 N2163 N 0.46064 0.35653 0.76878
 N2164 N 0.45536 0.37144 0.77416
 C2165 C 0.45679 0.39471 0.79363
 C2166 C 0.45130 0.40763 0.79922
 C2167 C 0.47881 0.33236 0.77120
 C2168 C 0.48278 0.31834 0.76719
 C2169 C 0.96121 0.37760 0.28803
 N2170 N 0.95311 0.36965 0.27535
 N2171 N 0.95844 0.35479 0.26989
 C2172 C 0.97202 0.34742 0.27695
 N2173 N 0.98013 0.35538 0.28962
 N2174 N 0.97480 0.37024 0.29507
 C2175 C 0.95506 0.39326 0.29437
 C2176 C 0.94969 0.40625 0.29990
 C2177 C 0.97733 0.33111 0.27156
 C2178 C 0.98158 0.31726 0.26727
 C2179 C 0.28941 0.87755 0.46201
 N2180 N 0.29777 0.86941 0.47438
 N2181 N 0.29236 0.85462 0.47994
 C2182 C 0.27842 0.84753 0.47330
 N2183 N 0.27004 0.85567 0.46095
 N2184 N 0.27546 0.87046 0.45539
 C2185 C 0.29567 0.89310 0.45552
 C2186 C 0.30115 0.90598 0.44984
 C2187 C 0.27303 0.83126 0.47874
 C2188 C 0.26874 0.81742 0.48302
 C2189 C 0.28799 0.37953 0.96409
 N2190 N 0.27411 0.37249 0.95728
 N2191 N 0.26877 0.35756 0.96253
 C2192 C 0.27714 0.34923 0.97476
 N2193 N 0.29101 0.35629 0.98160
 N2194 N 0.29635 0.37122 0.97634
 C2195 C 0.29426 0.39517 0.95780
 C2196 C 0.29975 0.40809 0.95221
 C2197 C 0.27196 0.33274 0.97972
 C2198 C 0.26792 0.31869 0.98356
 C2199 C 0.78881 0.37235 0.28767
 N2200 N 0.79685 0.38033 0.27500
 N2201 N 0.79154 0.39524 0.26966
 C2202 C 0.77804 0.40262 0.27684
 N2203 N 0.76999 0.39463 0.28949
 N2204 N 0.77529 0.37972 0.29483
 C2205 C 0.79494 0.35663 0.29389
 C2206 C 0.80031 0.34361 0.29933
 C2207 C 0.77276 0.41899 0.27157
 C2208 C 0.76853 0.43287 0.26738
   
