data_POSCAR
  _audit_creation_date              2014-09-24
  _audit_creation_method            'ToBaCCo'
  _symmetry_space_group_name_H-M    'P1'
  _symmetry_Int_Tables_number       1
  _symmetry_cell_setting            triclinic
  loop_
  _symmetry_equiv_pos_as_xyz
 x,y,z
_cell_length_a 56.6598
_cell_length_b 55.6423
_cell_length_c 55.6496
_cell_angle_alpha 89.993400
_cell_angle_beta 90.128500
_cell_angle_gamma 89.906000
loop_
  _atom_site_label
  _atom_site_type_symbol
  _atom_site_fract_x
  _atom_site_fract_y
  _atom_site_fract_z
O1 O 0.34540 0.31486 -0.02521
 O2 O 0.31144 0.34721 0.02069
 O3 O 0.34501 0.31485 0.02108
 O4 O 0.31184 0.34714 -0.02566
 O5 O 0.28494 0.31838 -0.02599
 O6 O 0.31831 0.28590 0.02095
 O7 O 0.28452 0.31847 0.02056
 O8 O 0.31869 0.28591 -0.02553
 Cu9 Cu 0.33110 0.33392 -0.00223
 Cu10 Cu 0.29888 0.29925 -0.00251
 C11 C 0.33805 0.29472 -0.03278
 C12 C 0.29204 0.33860 0.02801
 C13 C 0.33759 0.29469 0.02851
 C14 C 0.29259 0.33847 -0.03343
 O15 O 0.68649 0.65411 0.02277
 O16 O 0.65282 0.68438 -0.02485
 O17 O 0.68714 0.65312 -0.02339
 O18 O 0.65221 0.68542 0.02174
 O19 O 0.67807 0.71514 0.02166
 O20 O 0.71329 0.68259 -0.02373
 O21 O 0.67872 0.71407 -0.02523
 O22 O 0.71262 0.68361 0.02267
 Cu23 Cu 0.66698 0.66636 -0.00091
 Cu24 Cu 0.69824 0.70194 -0.00118
 C25 C 0.70549 0.66343 0.03039
 C26 C 0.65994 0.70436 -0.03299
 C27 C 0.70636 0.66209 -0.03079
 C28 C 0.65908 0.70576 0.02923
 O29 O 0.65468 0.31381 1.02375
 O30 O 0.68853 0.34646 0.97813
 O31 O 0.65541 0.31380 0.97744
 O32 O 0.68754 0.34672 1.02441
 O33 O 0.71491 0.31834 1.02518
 O34 O 0.68260 0.28524 0.97802
 O35 O 0.71593 0.31809 0.97871
 O36 O 0.68186 0.28522 1.02452
 Cu37 Cu 0.66880 0.33305 1.00086
 Cu38 Cu 0.70159 0.29883 1.00167
 C39 C 0.66227 0.29380 1.03148
 C40 C 0.70815 0.33809 0.97109
 C41 C 0.66329 0.29377 0.97013
 C42 C 0.70686 0.33838 1.03239
 O43 O 0.34885 0.68279 1.02364
 O44 O 0.31490 0.65145 0.97698
 O45 O 0.34905 0.68274 0.97707
 O46 O 0.31467 0.65128 1.02322
 O47 O 0.28837 0.68069 1.02319
 O48 O 0.32301 0.71239 0.97681
 O49 O 0.28863 0.68091 0.97674
 O50 O 0.32279 0.71243 1.02365
 Cu51 Cu 0.33455 0.66416 1.00029
 Cu52 Cu 0.30311 0.69966 1.00014
 C53 C 0.34177 0.70300 1.03132
 C54 C 0.29584 0.66064 0.96928
 C55 C 0.34197 0.70290 0.96921
 C56 C 0.29544 0.66032 1.03057
 O57 O -0.02302 0.34868 0.31636
 O58 O 0.02350 0.31402 0.34670
 O59 O 0.02280 0.34838 0.31479
 O60 O -0.02185 0.31449 0.34846
 O61 O -0.02323 0.28725 0.31956
 O62 O 0.02162 0.32136 0.28568
 O63 O 0.02230 0.28679 0.31776
 O64 O -0.02444 0.32165 0.28726
 Cu65 Cu 0.00047 0.33420 0.33441
 Cu66 Cu -0.00108 0.30160 0.29953
 C67 C -0.03150 0.34115 0.29666
 C68 C 0.03039 0.29431 0.33767
 C69 C 0.02970 0.34070 0.29454
 C70 C -0.02969 0.29490 0.34001
 O71 O 0.02216 0.68947 0.65310
 O72 O -0.02182 0.65397 0.68585
 O73 O -0.02335 0.68687 0.65259
 O74 O 0.02374 0.65599 0.68591
 O75 O 0.02229 0.68384 0.71423
 O76 O -0.02505 0.71498 0.68062
 O77 O -0.02350 0.68186 0.71411
 O78 O 0.02071 0.71754 0.68120
 Cu79 Cu 0.00036 0.66877 0.66654
 Cu80 Cu -0.00152 0.70240 0.70041
 C81 C 0.02860 0.70964 0.66140
 C82 C -0.02989 0.66173 0.70562
 C83 C -0.03199 0.70624 0.66075
 C84 C 0.03075 0.66444 0.70583
 O85 O 0.97837 0.68752 0.34684
 O86 O 1.02484 0.65433 0.31500
 O87 O 1.02376 0.68858 0.34703
 O88 O 0.97902 0.65337 0.31484
 O89 O 0.97830 0.68039 0.28570
 O90 O 1.02325 0.71589 0.31815
 O91 O 1.02437 0.68140 0.28591
 O92 O 0.97767 0.71476 0.31789
 Cu93 Cu 1.00159 0.66814 0.33376
 Cu94 Cu 1.00087 0.70079 0.29888
 C95 C 0.97048 0.70695 0.33801
 C96 C 1.03236 0.66212 0.29503
 C97 C 1.03066 0.70843 0.33836
 C98 C 0.97114 0.66082 0.29485
 O99 O 0.97691 0.31212 0.65474
 O100 O 1.02328 0.34608 0.68591
 O101 O 1.02241 0.31223 0.65335
 O102 O 0.97778 0.34576 0.68746
 O103 O 0.97878 0.31822 0.71611
 O104 O 1.02359 0.28449 0.68179
 O105 O 1.02447 0.31854 0.71455
 O106 O 0.97791 0.28437 0.68320
 Cu107 Cu 0.99999 0.33182 0.66750
 Cu108 Cu 1.00132 0.29860 0.70181
 C109 C 0.96987 0.29233 0.66343
 C110 C 1.03139 0.33832 0.70570
 C111 C 1.03020 0.29248 0.66154
 C112 C 0.97104 0.33792 0.70771
 O113 O 0.34569 0.02418 0.31241
 O114 O 0.31225 -0.02160 0.34530
 O115 O 0.34546 -0.02215 0.31278
 O116 O 0.31288 0.02469 0.34533
 O117 O 0.28550 0.02498 0.31693
 O118 O 0.31831 -0.02205 0.28416
 O119 O 0.28489 -0.02151 0.31688
 O120 O 0.31852 0.02449 0.28380
 Cu121 Cu 0.33181 0.00126 0.33181
 Cu122 Cu 0.29904 0.00150 0.29754
 C123 C 0.33802 0.03173 0.29236
 C124 C 0.29271 -0.02891 0.33694
 C125 C 0.33767 -0.02968 0.29279
 C126 C 0.29349 0.03240 0.33692
 O127 O 0.68623 -0.02375 0.65303
 O128 O 0.65321 0.02303 0.68523
 O129 O 0.68630 0.02258 0.65246
 O130 O 0.65305 -0.02330 0.68559
 O131 O 0.68014 -0.02318 0.71427
 O132 O 0.71360 0.02288 0.68092
 O133 O 0.68032 0.02334 0.71388
 O134 O 0.71350 -0.02363 0.68154
 Cu135 Cu 0.66697 -0.00035 0.66621
 Cu136 Cu 0.69965 -0.00010 0.70055
 C137 C 0.70564 -0.03127 0.66158
 C138 C 0.66088 0.03070 0.70522
 C139 C 0.70578 0.03010 0.66078
 C140 C 0.66071 -0.03067 0.70571
 O141 O 0.31223 1.02528 0.65595
 O142 O 0.34464 0.97794 0.68812
 O143 O 0.31143 0.97897 0.65545
 O144 O 0.34539 1.02426 0.68868
 O145 O 0.31840 1.02453 0.71734
 O146 O 0.28419 0.97907 0.68386
 O147 O 0.31760 0.97802 0.71673
 O148 O 0.28504 1.02557 0.68441
 Cu149 Cu 0.33114 1.00160 0.66919
 Cu150 Cu 0.29855 1.00182 0.70349
 C151 C 0.29295 1.03308 0.66447
 C152 C 0.33687 0.97032 0.70806
 C153 C 0.29187 0.97173 0.66375
 C154 C 0.33792 1.03169 0.70881
 O155 O 0.68852 1.02482 0.34538
 O156 O 0.65490 0.97860 0.31304
 O157 O 0.68836 0.97850 0.34542
 O158 O 0.65490 1.02494 0.31304
 O159 O 0.68162 1.02498 0.28412
 O160 O 0.71530 0.97836 0.31671
 O161 O 0.68165 0.97845 0.28415
 O162 O 0.71545 1.02487 0.31667
 Cu163 Cu 0.66898 1.00176 0.33211
 Cu164 Cu 0.70122 1.00169 0.29748
 C165 C 0.70790 1.03226 0.33682
 C166 C 0.66235 0.97102 0.29296
 C167 C 0.70767 0.97089 0.33679
 C168 C 0.66228 1.03242 0.29289
 C169 C 0.86888 0.79745 0.47767
 C170 C 0.87669 0.78796 0.49951
 C171 C 0.86773 0.79627 0.52134
 C172 C 0.85049 0.81465 0.52156
 C173 C 0.84232 0.82434 0.49946
 C174 C 0.85150 0.81567 0.47739
 C175 C 0.84312 0.82548 0.45570
 C176 C 0.82604 0.84351 0.45566
 C177 C 0.81679 0.85245 0.47732
 C178 C 0.82501 0.84280 0.49943
 C179 C 0.84127 0.82361 0.54323
 C180 C 0.82435 0.84180 0.54320
 C181 C 0.81599 0.85164 0.52150
 C182 C 0.79889 0.87014 0.52123
 C183 C 0.79089 0.87944 0.49937
 C184 C 0.79956 0.87083 0.47753
 H185 H 0.84969 0.81926 0.43853
 H186 H 0.82017 0.85044 0.43848
 H187 H 0.84712 0.81664 0.56041
 H188 H 0.81784 0.84809 0.56036
 H189 H 0.89005 0.77394 0.49953
 H190 H 0.77773 0.89365 0.49935
 C191 C 0.20105 0.13082 0.52240
 C192 C 0.21002 0.12217 0.50070
 C193 C 0.20141 0.13051 0.47870
 C194 C 0.18335 0.14803 0.47815
 C195 C 0.17407 0.15694 0.50008
 C196 C 0.18297 0.14833 0.52233
 C197 C 0.17350 0.15737 0.54386
 C198 C 0.15551 0.17447 0.54355
 C199 C 0.14635 0.18313 0.52170
 C200 C 0.15575 0.17436 0.49977
 C201 C 0.17425 0.15679 0.45630
 C202 C 0.15629 0.17390 0.45599
 C203 C 0.14676 0.18286 0.47751
 C204 C 0.12840 0.20005 0.47743
 C205 C 0.11925 0.20851 0.49912
 C206 C 0.12795 0.20028 0.52112
 H207 H 0.17991 0.15126 0.56116
 H208 H 0.14881 0.18082 0.56061
 H209 H 0.18094 0.15044 0.43923
 H210 H 0.14989 0.18003 0.43869
 H211 H 0.22382 0.10860 0.50095
 H212 H 0.10504 0.22163 0.49886
 C213 C 0.12773 0.80277 0.47774
 C214 C 0.11888 0.79432 0.49954
 C215 C 0.12759 0.80278 0.52143
 C216 C 0.14568 0.82019 0.52180
 C217 C 0.15481 0.82895 0.49975
 C218 C 0.14585 0.82017 0.47759
 C219 C 0.15511 0.82912 0.45596
 C220 C 0.17274 0.84654 0.45607
 C221 C 0.18172 0.85562 0.47783
 C222 C 0.17275 0.84669 0.49987
 C223 C 0.15474 0.82918 0.54355
 C224 C 0.17234 0.84663 0.54367
 C225 C 0.18151 0.85568 0.52204
 C226 C 0.19910 0.87362 0.52189
 C227 C 0.20777 0.88227 0.50010
 C228 C 0.19932 0.87354 0.47821
 H229 H 0.14874 0.82275 0.43874
 H230 H 0.17925 0.85289 0.43894
 H231 H 0.14823 0.82284 0.56069
 H232 H 0.17868 0.85302 0.56089
 H233 H 0.10481 0.78108 0.49947
 H234 H 0.22116 0.89622 0.50017
 C235 C 0.80084 0.12966 0.47692
 C236 C 0.79192 0.12077 0.49852
 C237 C 0.80008 0.12926 0.52062
 C238 C 0.81766 0.14721 0.52137
 C239 C 0.82691 0.15638 0.49952
 C240 C 0.81845 0.14759 0.47716
 C241 C 0.82790 0.15685 0.45574
 C242 C 0.84549 0.17433 0.45625
 C243 C 0.85423 0.18317 0.47820
 C244 C 0.84480 0.17418 0.50004
 C245 C 0.82630 0.15614 0.54331
 C246 C 0.84384 0.17364 0.54382
 C247 C 0.85338 0.18283 0.52240
 C248 C 0.87137 0.20036 0.52268
 C249 C 0.88053 0.20904 0.50110
 C250 C 0.87224 0.20069 0.47899
 H251 H 0.82180 0.15060 0.43839
 H252 H 0.85223 0.18084 0.43926
 H253 H 0.81959 0.14961 0.56030
 H254 H 0.84992 0.17988 0.56119
 H255 H 0.77853 0.10682 0.49813
 H256 H 0.89446 0.22242 0.50153
 C257 C 0.52057 0.86956 0.79648
 C258 C 0.49899 0.87892 0.78868
 C259 C 0.47764 0.86954 0.79691
 C260 C 0.47761 0.85027 0.81343
 C261 C 0.49942 0.84058 0.82147
 C262 C 0.52101 0.85024 0.81296
 C263 C 0.54243 0.84037 0.82118
 C264 C 0.54264 0.82137 0.83748
 C265 C 0.52145 0.81157 0.84616
 C266 C 0.49963 0.82124 0.83809
 C267 C 0.45641 0.84046 0.82214
 C268 C 0.45662 0.82150 0.83849
 C269 C 0.47803 0.81164 0.84670
 C270 C 0.47851 0.79245 0.86332
 C271 C 0.50008 0.78307 0.87105
 C272 C 0.52142 0.79236 0.86274
 H273 H 0.55923 0.84727 0.81505
 H274 H 0.55959 0.81442 0.84324
 H275 H 0.43946 0.84740 0.81638
 H276 H 0.43984 0.81461 0.84467
 H277 H 0.49882 0.89378 0.77602
 H278 H 0.50027 0.76834 0.88386
 C279 C 0.47808 0.13131 0.20120
 C280 C 0.49957 0.12259 0.20992
 C281 C 0.52099 0.13146 0.20138
 C282 C 0.52116 0.14960 0.18363
 C283 C 0.49940 0.15860 0.17462
 C284 C 0.47774 0.14946 0.18348
 C285 C 0.45639 0.15857 0.17427
 C286 C 0.45631 0.17622 0.15650
 C287 C 0.47757 0.18537 0.14733
 C288 C 0.49932 0.17656 0.15654
 C289 C 0.54242 0.15884 0.17455
 C290 C 0.54234 0.17648 0.15679
 C291 C 0.52099 0.18549 0.14748
 C292 C 0.52067 0.20309 0.12922
 C293 C 0.49920 0.21161 0.12029
 C294 C 0.47776 0.20300 0.12906
 H295 H 0.43954 0.15206 0.18069
 H296 H 0.43941 0.18259 0.14995
 H297 H 0.55932 0.15244 0.18107
 H298 H 0.55919 0.18296 0.15035
 H299 H 0.49961 0.10847 0.22339
 H300 H 0.49917 0.22500 0.10609
 C301 C 0.52215 0.13070 0.79890
 C302 C 0.50057 0.12191 0.79058
 C303 C 0.47924 0.13085 0.79934
 C304 C 0.47924 0.14917 0.81689
 C305 C 0.50107 0.15821 0.82556
 C306 C 0.52266 0.14895 0.81652
 C307 C 0.54408 0.15807 0.82543
 C308 C 0.54433 0.17586 0.84304
 C309 C 0.52315 0.18520 0.85234
 C310 C 0.50132 0.17638 0.84345
 C311 C 0.45807 0.15858 0.82608
 C312 C 0.45831 0.17646 0.84359
 C313 C 0.47974 0.18554 0.85258
 C314 C 0.48022 0.20346 0.87054
 C315 C 0.50179 0.21197 0.87920
 C316 C 0.52315 0.20306 0.87039
 H317 H 0.56086 0.15144 0.81890
 H318 H 0.56129 0.18223 0.84935
 H319 H 0.44111 0.15216 0.81981
 H320 H 0.44152 0.18307 0.85010
 H321 H 0.50038 0.10771 0.77719
 H322 H 0.50197 0.22561 0.89315
 C323 C 0.52186 0.79454 0.13606
 C324 C 0.50043 0.78529 0.12788
 C325 C 0.47894 0.79421 0.13623
 C326 C 0.47861 0.81288 0.15339
 C327 C 0.50029 0.82241 0.16194
 C328 C 0.52205 0.81318 0.15326
 C329 C 0.54330 0.82292 0.16191
 C330 C 0.54322 0.84147 0.17871
 C331 C 0.52188 0.85099 0.18743
 C332 C 0.50021 0.84135 0.17901
 C333 C 0.45727 0.82236 0.16210
 C334 C 0.45719 0.84095 0.17886
 C335 C 0.47846 0.85073 0.18750
 C336 C 0.47862 0.86973 0.20432
 C337 C 0.50004 0.87907 0.21250
 C338 C 0.52155 0.86997 0.20429
 H339 H 0.56019 0.81625 0.15571
 H340 H 0.56007 0.84836 0.18478
 H341 H 0.44044 0.81547 0.15597
 H342 H 0.44029 0.84763 0.18497
 H343 H 0.50047 0.77107 0.11452
 H344 H 0.49998 0.89374 0.22536
 C345 C 0.80026 0.52285 0.87162
 C346 C 0.79211 0.50111 0.88092
 C347 C 0.80042 0.47916 0.87223
 C348 C 0.81739 0.47865 0.85371
 C349 C 0.82581 0.50064 0.84408
 C350 C 0.81717 0.52287 0.85302
 C351 C 0.82578 0.54444 0.84324
 C352 C 0.84270 0.54419 0.82511
 C353 C 0.85161 0.52237 0.81615
 C354 C 0.84306 0.50038 0.82566
 C355 C 0.82626 0.45683 0.84470
 C356 C 0.84327 0.45658 0.82667
 C357 C 0.85195 0.47815 0.81699
 C358 C 0.86944 0.47817 0.79896
 C359 C 0.87763 0.49989 0.78970
 C360 C 0.86900 0.52185 0.79804
 H361 H 0.81952 0.56170 0.84959
 H362 H 0.84881 0.56127 0.81821
 H363 H 0.82017 0.43973 0.85159
 H364 H 0.84960 0.43932 0.82038
 H365 H 0.77919 0.50127 0.89532
 H366 H 0.89123 0.49971 0.77597
 C367 C 0.13483 0.52271 0.20559
 C368 C 0.12643 0.50088 0.21451
 C369 C 0.13409 0.47900 0.20502
 C370 C 0.15070 0.47870 0.18612
 C371 C 0.15940 0.50077 0.17693
 C372 C 0.15144 0.52290 0.18670
 C373 C 0.16021 0.54456 0.17726
 C374 C 0.17648 0.54452 0.15853
 C375 C 0.18454 0.52281 0.14854
 C376 C 0.17596 0.50073 0.15784
 C377 C 0.15878 0.45699 0.17612
 C378 C 0.17507 0.45694 0.15741
 C379 C 0.18383 0.47860 0.14799
 C380 C 0.20023 0.47881 0.12892
 C381 C 0.20850 0.50063 0.11991
 C382 C 0.20090 0.52251 0.12943
 H383 H 0.15453 0.56176 0.18430
 H384 H 0.18268 0.56167 0.15190
 H385 H 0.15253 0.43982 0.18270
 H386 H 0.18072 0.43974 0.15033
 H387 H 0.11357 0.50094 0.22895
 H388 H 0.22102 0.50058 0.10516
 C389 C 0.79686 0.47957 0.13072
 C390 C 0.78893 0.50145 0.12142
 C391 C 0.79731 0.52328 0.13039
 C392 C 0.81414 0.52347 0.14915
 C393 C 0.82230 0.50135 0.15878
 C394 C 0.81362 0.47927 0.14956
 C395 C 0.82193 0.45755 0.15940
 C396 C 0.83849 0.45750 0.17794
 C397 C 0.84736 0.47916 0.18727
 C398 C 0.83920 0.50130 0.17762
 C399 C 0.82302 0.54514 0.15851
 C400 C 0.83967 0.54509 0.17696
 C401 C 0.84798 0.52338 0.18675
 C402 C 0.86488 0.52306 0.20542
 C403 C 0.87270 0.50120 0.21479
 C404 C 0.86420 0.47939 0.20600
 H405 H 0.81567 0.44038 0.15284
 H406 H 0.84433 0.44032 0.18491
 H407 H 0.81718 0.56235 0.15160
 H408 H 0.84598 0.56224 0.18352
 H409 H 0.77604 0.50150 0.10695
 H410 H 0.88572 0.50115 0.22915
 C411 C 0.13177 0.48067 0.79492
 C412 C 0.12363 0.50277 0.78634
 C413 C 0.13265 0.52437 0.79518
 C414 C 0.15033 0.52409 0.81312
 C415 C 0.15878 0.50174 0.82196
 C416 C 0.14951 0.47991 0.81279
 C417 C 0.15812 0.45795 0.82179
 C418 C 0.17544 0.45744 0.83960
 C419 C 0.18475 0.47886 0.84906
 C420 C 0.17638 0.50122 0.84013
 C421 C 0.15968 0.54551 0.82254
 C422 C 0.17694 0.54500 0.84040
 C423 C 0.18548 0.52305 0.84948
 C424 C 0.20281 0.52230 0.86774
 C425 C 0.21092 0.50022 0.87637
 C426 C 0.20214 0.47860 0.86729
 H427 H 0.15151 0.44096 0.81515
 H428 H 0.18145 0.44008 0.84594
 H429 H 0.15369 0.56288 0.81620
 H430 H 0.18352 0.56200 0.84707
 H431 H 0.10990 0.50316 0.77270
 H432 H 0.22418 0.49984 0.89048
 C433 C 0.22740 0.42014 0.09420
 C434 C 0.23086 0.42247 0.06911
 C435 C 0.24305 0.40423 0.05628
 C436 C 0.25170 0.38374 0.06861
 C437 C 0.24750 0.38100 0.09352
 C438 C 0.23529 0.39927 0.10637
 C439 C 0.23146 0.39626 0.13130
 C440 C 0.23946 0.37576 0.14321
 C441 C 0.25142 0.35791 0.13065
 C442 C 0.25545 0.36041 0.10608
 C443 C 0.24657 0.40714 0.03124
 C444 C 0.23836 0.42752 0.01929
 C445 C 0.22637 0.44531 0.03183
 C446 C 0.22260 0.44292 0.05645
 C447 C 0.26579 0.36621 0.05567
 C448 C 0.27775 0.35283 0.04377
 C449 C 0.21697 0.43989 0.10751
 C450 C 0.20897 0.45715 0.11776
 H451 H 0.22219 0.40965 0.14179
 H452 H 0.23636 0.37372 0.16229
 H453 H 0.25760 0.34203 0.14000
 H454 H 0.26479 0.34605 0.09704
 H455 H 0.25567 0.39375 0.02063
 H456 H 0.24133 0.42950 0.00018
 H457 H 0.21996 0.46108 0.02244
 H458 H 0.21314 0.45725 0.06538
 C459 C 0.76980 0.58370 0.09877
 C460 C 0.75173 0.59693 0.11033
 C461 C 0.73974 0.61553 0.09772
 C462 C 0.74595 0.62080 0.07367
 C463 C 0.76491 0.60847 0.06259
 C464 C 0.77686 0.58983 0.07517
 C465 C 0.79551 0.57749 0.06360
 C466 C 0.80222 0.58346 0.04027
 C467 C 0.79060 0.60174 0.02799
 C468 C 0.77209 0.61410 0.03889
 C469 C 0.72149 0.62828 0.10947
 C470 C 0.71529 0.62284 0.13308
 C471 C 0.72703 0.60467 0.14543
 C472 C 0.74505 0.59179 0.13427
 C473 C 0.73175 0.63739 0.05963
 C474 C 0.71975 0.65002 0.04692
 C475 C 0.78009 0.56287 0.11053
 C476 C 0.78816 0.54509 0.11981
 H477 H 0.80515 0.56321 0.07247
 H478 H 0.81654 0.57386 0.03169
 H479 H 0.79588 0.60631 0.00988
 H480 H 0.76359 0.62818 0.02860
 H481 H 0.71193 0.64263 0.10060
 H482 H 0.70131 0.63280 0.14183
 H483 H 0.72216 0.60054 0.16377
 H484 H 0.75373 0.57787 0.14462
 C485 C 0.77255 0.42058 0.90631
 C486 C 0.76551 0.39952 0.89400
 C487 C 0.75332 0.38107 0.90653
 C488 C 0.74831 0.38383 0.93128
 C489 C 0.75611 0.40454 0.94378
 C490 C 0.76827 0.42296 0.93126
 C491 C 0.77570 0.44362 0.94408
 C492 C 0.77115 0.44602 0.96856
 C493 C 0.75917 0.42805 0.98080
 C494 C 0.75177 0.40747 0.96868
 C495 C 0.74622 0.36027 0.89383
 C496 C 0.75109 0.35774 0.86942
 C497 C 0.76302 0.37577 0.85716
 C498 C 0.77018 0.39648 0.86922
 C499 C 0.73432 0.36605 0.94387
 C500 C 0.72241 0.35249 0.95554
 C501 C 0.78311 0.44040 0.89329
 C502 C 0.79129 0.45763 0.88324
 H503 H 0.78510 0.45810 0.93538
 H504 H 0.77693 0.46194 0.97807
 H505 H 0.75560 0.43003 0.99980
 H506 H 0.74265 0.39395 0.97908
 H507 H 0.73693 0.34577 0.90264
 H508 H 0.74556 0.34170 0.85997
 H509 H 0.76677 0.37371 0.83821
 H510 H 0.77946 0.41001 0.85896
 C511 C 0.23148 0.58166 0.90009
 C512 C 0.24973 0.59481 0.88880
 C513 C 0.26183 0.61308 0.90172
 C514 C 0.25557 0.61810 0.92581
 C515 C 0.23649 0.60581 0.93667
 C516 C 0.22443 0.58751 0.92377
 C517 C 0.20565 0.57522 0.93512
 C518 C 0.19891 0.58092 0.95851
 C519 C 0.21065 0.59888 0.97109
 C520 C 0.22929 0.61119 0.96042
 C521 C 0.28024 0.62577 0.89021
 C522 C 0.28647 0.62060 0.86655
 C523 C 0.27463 0.60274 0.85391
 C524 C 0.25646 0.58992 0.86482
 C525 C 0.26973 0.63451 0.94006
 C526 C 0.28165 0.64709 0.95283
 C527 C 0.22090 0.56125 0.88795
 C528 C 0.21250 0.54378 0.87843
 H529 H 0.19592 0.56117 0.92603
 H530 H 0.18449 0.57136 0.96691
 H531 H 0.20534 0.60326 0.98925
 H532 H 0.23787 0.62500 0.97095
 H533 H 0.28988 0.63988 0.89931
 H534 H 0.30056 0.63052 0.85798
 H535 H 0.27953 0.59880 0.83553
 H536 H 0.24771 0.57624 0.85426
 C537 C 0.09740 0.22814 0.41704
 C538 C 0.07383 0.22169 0.41157
 C539 C 0.06141 0.23401 0.39308
 C540 C 0.07263 0.25274 0.38022
 C541 C 0.09657 0.25833 0.38485
 C542 C 0.10901 0.24596 0.40331
 C543 C 0.13285 0.25204 0.40782
 C544 C 0.14409 0.26983 0.39445
 C545 C 0.13191 0.28193 0.37641
 C546 C 0.10840 0.27633 0.37159
 C547 C 0.03776 0.22744 0.38811
 C548 C 0.02673 0.20918 0.40100
 C549 C 0.03884 0.19721 0.41915
 C550 C 0.06212 0.20331 0.42446
 C551 C 0.05893 0.26737 0.36370
 C552 C 0.04652 0.27969 0.35110
 C553 C 0.10908 0.21759 0.43775
 C554 C 0.11820 0.20935 0.45552
 H555 H 0.14306 0.24306 0.42163
 H556 H 0.16235 0.27423 0.39811
 H557 H 0.14073 0.29572 0.36607
 H558 H 0.09966 0.28615 0.35733
 H559 H 0.02759 0.23624 0.37416
 H560 H 0.00865 0.20437 0.39693
 H561 H 0.03017 0.18309 0.42917
 H562 H 0.07085 0.19341 0.43867
 C563 C 0.09409 0.77496 0.58024
 C564 C 0.06917 0.77355 0.57899
 C565 C 0.05649 0.76144 0.59733
 C566 C 0.06882 0.75073 0.61676
 C567 C 0.09364 0.75297 0.61849
 C568 C 0.10633 0.76517 0.60017
 C569 C 0.13115 0.76706 0.60216
 C570 C 0.14311 0.75718 0.62174
 C571 C 0.13070 0.74523 0.63964
 C572 C 0.10623 0.74307 0.63812
 C573 C 0.03158 0.76009 0.59559
 C574 C 0.01957 0.77039 0.57628
 C575 C 0.03198 0.78220 0.55832
 C576 C 0.05649 0.78382 0.55956
 C577 C 0.05588 0.73642 0.63407
 C578 C 0.04405 0.72425 0.64728
 C579 C 0.10701 0.78538 0.56034
 C580 C 0.11689 0.79355 0.54303
 H581 H 0.14153 0.77625 0.58870
 H582 H 0.16210 0.75883 0.62303
 H583 H 0.14007 0.73760 0.65481
 H584 H 0.09730 0.73367 0.65249
 H585 H 0.02110 0.75115 0.60913
 H586 H 0.00052 0.76919 0.57526
 H587 H 0.02258 0.79017 0.54335
 H588 H 0.06534 0.79326 0.54517
 C589 C 0.90121 0.76996 0.41784
 C590 C 0.92443 0.77756 0.41237
 C591 C 0.93737 0.76580 0.39394
 C592 C 0.92704 0.74647 0.38115
 C593 C 0.90343 0.73968 0.38580
 C594 C 0.89046 0.75147 0.40421
 C595 C 0.86697 0.74419 0.40875
 C596 C 0.85657 0.72581 0.39544
 C597 C 0.86926 0.71428 0.37745
 C598 C 0.89244 0.72105 0.37262
 C599 C 0.96064 0.77355 0.38895
 C600 C 0.97080 0.79242 0.40175
 C601 C 0.95818 0.80385 0.41984
 C602 C 0.93525 0.79658 0.42517
 C603 C 0.94132 0.73258 0.36455
 C604 C 0.95408 0.72087 0.35180
 C605 C 0.88902 0.78015 0.43838
 C606 C 0.87951 0.78822 0.45598
 H607 H 0.85639 0.75269 0.42252
 H608 H 0.83857 0.72048 0.39911
 H609 H 0.86109 0.70001 0.36716
 H610 H 0.90159 0.71163 0.35839
 H611 H 0.97118 0.76522 0.37505
 H612 H 0.98859 0.79815 0.39766
 H613 H 0.96617 0.81845 0.42978
 H614 H 0.92610 0.80609 0.43933
 C615 C 0.90173 0.22831 0.58344
 C616 C 0.92420 0.21977 0.59069
 C617 C 0.93674 0.23176 0.60929
 C618 C 0.92674 0.25223 0.62049
 C619 C 0.90378 0.26000 0.61409
 C620 C 0.89122 0.24799 0.59551
 C621 C 0.86841 0.25627 0.58919
 C622 C 0.85829 0.27586 0.60091
 C623 C 0.87058 0.28761 0.61907
 C624 C 0.89309 0.27986 0.62565
 C625 C 0.95933 0.22311 0.61601
 C626 C 0.96920 0.20314 0.60472
 C627 C 0.95695 0.19145 0.58650
 C628 C 0.93471 0.19959 0.57948
 C629 C 0.94087 0.26630 0.63709
 C630 C 0.95354 0.27818 0.64980
 C631 C 0.89021 0.21788 0.56259
 C632 C 0.88128 0.20968 0.54471
 H633 H 0.85815 0.24765 0.57522
 H634 H 0.84081 0.28195 0.59587
 H635 H 0.86264 0.30282 0.62812
 H636 H 0.90195 0.28950 0.63994
 H637 H 0.96954 0.23159 0.63009
 H638 H 0.98649 0.19676 0.61009
 H639 H 0.96472 0.17598 0.57775
 H640 H 0.92582 0.18985 0.56528
 C641 C 0.42050 0.09732 0.22946
 C642 C 0.39934 0.10936 0.23565
 C643 C 0.38106 0.09669 0.24766
 C644 C 0.38408 0.07209 0.25334
 C645 C 0.40496 0.05987 0.24648
 C646 C 0.42322 0.07253 0.23452
 C647 C 0.44404 0.05998 0.22803
 C648 C 0.44674 0.03565 0.23328
 C649 C 0.42889 0.02327 0.24503
 C650 C 0.40819 0.03511 0.25153
 C651 C 0.36014 0.10911 0.25386
 C652 C 0.35733 0.13338 0.24829
 C653 C 0.37520 0.14576 0.23652
 C654 C 0.39602 0.13398 0.23024
 C655 C 0.36626 0.05931 0.26695
 C656 C 0.35261 0.04747 0.27852
 C657 C 0.43993 0.11045 0.21883
 C658 C 0.45687 0.12049 0.21052
 H659 H 0.45843 0.06880 0.21883
 H660 H 0.46277 0.02635 0.22820
 H661 H 0.43108 0.00437 0.24911
 H662 H 0.39479 0.02462 0.26053
 H663 H 0.34576 0.10019 0.26298
 H664 H 0.34119 0.14261 0.25313
 H665 H 0.37292 0.16460 0.23223
 H666 H 0.40942 0.14433 0.22107
 C667 C 0.57917 0.09677 0.76914
 C668 C 0.57618 0.07209 0.76373
 C669 C 0.59417 0.05942 0.75128
 C670 C 0.61507 0.07149 0.74432
 C671 C 0.61831 0.09600 0.75027
 C672 C 0.60030 0.10869 0.76274
 C673 C 0.60385 0.13320 0.76839
 C674 C 0.62464 0.14487 0.76191
 C675 C 0.64225 0.13247 0.74970
 C676 C 0.63921 0.10830 0.74388
 C677 C 0.59067 0.03478 0.74589
 C678 C 0.56997 0.02307 0.75251
 C679 C 0.55240 0.03546 0.76474
 C680 C 0.55537 0.05967 0.77033
 C681 C 0.63276 0.05862 0.73054
 C682 C 0.64634 0.04666 0.71894
 C683 C 0.56001 0.10992 0.78039
 C684 C 0.54325 0.11994 0.78916
 H685 H 0.59066 0.14356 0.77791
 H686 H 0.62710 0.16363 0.76639
 H687 H 0.65835 0.14161 0.74471
 H688 H 0.65339 0.09937 0.73440
 H689 H 0.60384 0.02429 0.73651
 H690 H 0.56757 0.00427 0.74817
 H691 H 0.53638 0.02626 0.76992
 H692 H 0.54118 0.06849 0.77989
 C693 C 0.41817 0.90198 0.77006
 C694 C 0.41341 0.92613 0.77645
 C695 C 0.39482 0.93883 0.76487
 C696 C 0.38117 0.92732 0.74690
 C697 C 0.38524 0.90286 0.74130
 C698 C 0.40379 0.89013 0.75294
 C699 C 0.40769 0.86575 0.74689
 C700 C 0.39363 0.85426 0.72982
 C701 C 0.37551 0.86673 0.71842
 C702 C 0.37129 0.89077 0.72401
 C703 C 0.39051 0.96304 0.77141
 C704 C 0.40414 0.97434 0.78894
 C705 C 0.42239 0.96195 0.80019
 C706 C 0.42706 0.93812 0.79409
 C707 C 0.36415 0.94122 0.73316
 C708 C 0.35104 0.95384 0.72164
 C709 C 0.43865 0.88986 0.78008
 C710 C 0.45615 0.88032 0.78796
 H711 H 0.42153 0.85530 0.75534
 H712 H 0.39683 0.83559 0.72542
 H713 H 0.36465 0.85773 0.70517
 H714 H 0.35694 0.89972 0.71474
 H715 H 0.37653 0.97345 0.76317
 H716 H 0.40056 0.99283 0.79376
 H717 H 0.43298 0.97084 0.81373
 H718 H 0.44138 0.92920 0.80341
 C719 C 0.58050 0.90289 0.23151
 C720 C 0.58489 0.92715 0.22528
 C721 C 0.60342 0.93994 0.23679
 C722 C 0.61741 0.92843 0.25451
 C723 C 0.61365 0.90390 0.26001
 C724 C 0.59515 0.89108 0.24846
 C725 C 0.59157 0.86663 0.25441
 C726 C 0.60589 0.85516 0.27130
 C727 C 0.62397 0.86771 0.28261
 C728 C 0.62788 0.89181 0.27711
 C729 C 0.60735 0.96425 0.23040
 C730 C 0.59341 0.97555 0.21309
 C731 C 0.57523 0.96306 0.20191
 C732 C 0.57094 0.93914 0.20786
 C733 C 0.63456 0.94231 0.26805
 C734 C 0.64786 0.95481 0.27943
 C735 C 0.56021 0.89057 0.22142
 C736 C 0.54287 0.88088 0.21343
 H737 H 0.57776 0.85612 0.24604
 H738 H 0.60293 0.83644 0.27562
 H739 H 0.63504 0.85872 0.29571
 H740 H 0.64221 0.90082 0.28630
 H741 H 0.62127 0.97474 0.23860
 H742 H 0.59670 0.99412 0.20838
 H743 H 0.56441 0.97194 0.18852
 H744 H 0.55665 0.93015 0.19859
 C745 C 0.42116 0.23229 0.90180
 C746 C 0.41601 0.22626 0.92594
 C747 C 0.39722 0.23802 0.93808
 C748 C 0.38376 0.25581 0.92603
 C749 C 0.38831 0.26115 0.90161
 C750 C 0.40706 0.24933 0.88944
 C751 C 0.41141 0.25509 0.86508
 C752 C 0.39761 0.27206 0.85309
 C753 C 0.37930 0.28364 0.86501
 C754 C 0.37463 0.27833 0.88900
 C755 C 0.39250 0.23180 0.96228
 C756 C 0.40592 0.21442 0.97410
 C757 C 0.42438 0.20303 0.96227
 C758 C 0.42945 0.20880 0.93847
 C759 C 0.36632 0.26956 0.93929
 C760 C 0.35279 0.28109 0.95137
 C761 C 0.44159 0.22176 0.89011
 C762 C 0.45896 0.21330 0.88092
 H763 H 0.42542 0.24650 0.85505
 H764 H 0.40116 0.27624 0.83445
 H765 H 0.36863 0.29680 0.85561
 H766 H 0.36015 0.28773 0.89751
 H767 H 0.37835 0.24017 0.97228
 H768 H 0.40203 0.20984 0.99258
 H769 H 0.43482 0.18961 0.97157
 H770 H 0.44393 0.19937 0.93000
 C771 C 0.57967 0.75999 0.89208
 C772 C 0.57760 0.73535 0.89808
 C773 C 0.59572 0.72388 0.91156
 C774 C 0.61578 0.73712 0.91899
 C775 C 0.61835 0.76144 0.91203
 C776 C 0.60023 0.77292 0.89851
 C777 C 0.60303 0.79732 0.89198
 C778 C 0.62320 0.81003 0.89860
 C779 C 0.64092 0.79881 0.91183
 C780 C 0.63860 0.77479 0.91854
 C781 C 0.59311 0.69930 0.91761
 C782 C 0.57318 0.68645 0.91056
 C783 C 0.55545 0.69769 0.89740
 C784 C 0.55753 0.72185 0.89119
 C785 C 0.63278 0.72607 0.93514
 C786 C 0.64583 0.71642 0.94931
 C787 C 0.55997 0.77221 0.88069
 C788 C 0.54283 0.78177 0.87207
 H789 H 0.58974 0.80677 0.88165
 H790 H 0.62510 0.82868 0.89342
 H791 H 0.65655 0.80876 0.91692
 H792 H 0.65285 0.76679 0.92877
 H793 H 0.60645 0.68974 0.92777
 H794 H 0.57149 0.66768 0.91533
 H795 H 0.53999 0.68763 0.89196
 H796 H 0.54329 0.72976 0.88087
 C797 C 0.42313 0.76224 0.10237
 C798 C 0.42958 0.74794 0.08236
 C799 C 0.41190 0.73594 0.06881
 C800 C 0.38785 0.73830 0.07531
 C801 C 0.38140 0.75251 0.09536
 C802 C 0.39912 0.76453 0.10894
 C803 C 0.39228 0.77866 0.12888
 C804 C 0.36860 0.78088 0.13523
 C805 C 0.35128 0.76914 0.12195
 C806 C 0.35751 0.75509 0.10221
 C807 C 0.41882 0.72179 0.04885
 C808 C 0.44248 0.71957 0.04247
 C809 C 0.45977 0.73130 0.05573
 C810 C 0.45351 0.74533 0.07544
 C811 C 0.36998 0.72624 0.06100
 C812 C 0.35634 0.71581 0.04804
 C813 C 0.44143 0.77452 0.11588
 C814 C 0.45784 0.78398 0.12591
 H815 H 0.40515 0.78810 0.13972
 H816 H 0.36366 0.79176 0.15054
 H817 H 0.33291 0.77093 0.12697
 H818 H 0.34345 0.74629 0.09242
 H819 H 0.40606 0.71228 0.03794
 H820 H 0.44742 0.70868 0.02716
 H821 H 0.47814 0.72954 0.05071
 H822 H 0.46766 0.75408 0.08514
 C823 C 0.57865 0.23134 0.09592
 C824 C 0.57639 0.23621 0.07104
 C825 C 0.59491 0.24806 0.05866
 C826 C 0.61557 0.25499 0.07124
 C827 C 0.61812 0.24949 0.09594
 C828 C 0.59958 0.23760 0.10833
 C829 C 0.60243 0.23240 0.13305
 C830 C 0.62304 0.23875 0.14519
 C831 C 0.64116 0.25040 0.13308
 C832 C 0.63882 0.25577 0.10872
 C833 C 0.59214 0.25293 0.03381
 C834 C 0.57164 0.24636 0.02161
 C835 C 0.55356 0.23471 0.03372
 C836 C 0.55580 0.22965 0.05814
 C837 C 0.63364 0.26851 0.05872
 C838 C 0.64748 0.28001 0.04707
 C839 C 0.55897 0.22078 0.10873
 C840 C 0.54191 0.21248 0.11856
 H841 H 0.58882 0.22333 0.14320
 H842 H 0.62495 0.23461 0.16410
 H843 H 0.65712 0.25529 0.14260
 H844 H 0.65338 0.26481 0.10002
 H845 H 0.60574 0.26183 0.02352
 H846 H 0.56981 0.25031 0.00265
 H847 H 0.53770 0.22958 0.02415
 H848 H 0.54123 0.22053 0.06673
 C849 C 0.22946 0.10042 0.58300
 C850 C 0.24765 0.11211 0.59595
 C851 C 0.25970 0.09975 0.61468
 C852 C 0.25343 0.07581 0.62036
 C853 C 0.23443 0.06455 0.60822
 C854 C 0.22242 0.07688 0.58946
 C855 C 0.20372 0.06513 0.57734
 C856 C 0.19703 0.04188 0.58363
 C857 C 0.20871 0.02985 0.60203
 C858 C 0.22726 0.04092 0.61419
 C859 C 0.27805 0.11165 0.62716
 C860 C 0.28430 0.13516 0.62133
 C861 C 0.27250 0.14726 0.60303
 C862 C 0.25438 0.13595 0.59041
 C863 C 0.26748 0.06205 0.63733
 C864 C 0.27920 0.04951 0.65039
 C865 C 0.21895 0.11193 0.56216
 C866 C 0.21061 0.12087 0.54432
 H867 H 0.19403 0.07381 0.56297
 H868 H 0.18268 0.03317 0.57418
 H869 H 0.20345 0.01179 0.60685
 H870 H 0.23581 0.03080 0.62836
 H871 H 0.28766 0.10297 0.64158
 H872 H 0.29835 0.14403 0.63109
 H873 H 0.27740 0.16552 0.59859
 H874 H 0.24566 0.14611 0.57637
 C875 C 0.77257 0.09649 0.41790
 C876 C 0.76509 0.10885 0.39699
 C877 C 0.75260 0.09633 0.37867
 C878 C 0.74772 0.07154 0.38141
 C879 C 0.75594 0.05900 0.40196
 C880 C 0.76840 0.07151 0.42025
 C881 C 0.77621 0.05863 0.44075
 C882 C 0.77176 0.03413 0.44315
 C883 C 0.75950 0.02191 0.42530
 C884 C 0.75173 0.03407 0.40487
 C885 C 0.74509 0.10908 0.35804
 C886 C 0.74981 0.13353 0.35553
 C887 C 0.76204 0.14577 0.37342
 C888 C 0.76962 0.13366 0.39397
 C889 C 0.73348 0.05890 0.36377
 C890 C 0.72144 0.04709 0.35037
 C891 C 0.78338 0.10947 0.43767
 C892 C 0.79171 0.11928 0.45503
 H893 H 0.78584 0.06731 0.45513
 H894 H 0.77783 0.02459 0.45895
 H895 H 0.75602 0.00289 0.42728
 H896 H 0.74240 0.02368 0.39145
 H897 H 0.73556 0.10028 0.34364
 H898 H 0.74396 0.14302 0.33961
 H899 H 0.76568 0.16475 0.37137
 H900 H 0.77912 0.14390 0.40740
 C901 C 0.77002 0.90133 0.58107
 C902 C 0.75232 0.88945 0.59446
 C903 C 0.74006 0.90197 0.61289
 C904 C 0.74562 0.92625 0.61783
 C905 C 0.76410 0.93778 0.60520
 C906 C 0.77632 0.92529 0.58674
 C907 C 0.79448 0.93730 0.57412
 C908 C 0.80046 0.96096 0.57963
 C909 C 0.78857 0.97314 0.59774
 C910 C 0.77054 0.96182 0.61038
 C911 C 0.72219 0.88985 0.62581
 C912 C 0.71663 0.86600 0.62071
 C913 C 0.72864 0.85374 0.60272
 C914 C 0.74629 0.86525 0.58967
 C915 C 0.73142 0.93998 0.63463
 C916 C 0.71957 0.95245 0.64758
 C917 C 0.78074 0.88952 0.56055
 C918 C 0.78922 0.88034 0.54294
 H919 H 0.80430 0.92853 0.55994
 H920 H 0.81440 0.96987 0.56981
 H921 H 0.79328 0.99152 0.60197
 H922 H 0.76181 0.97207 0.62430
 H923 H 0.71243 0.89864 0.64002
 H924 H 0.70293 0.85698 0.63079
 H925 H 0.72426 0.83521 0.59884
 H926 H 0.75519 0.85497 0.57588
 C927 C 0.22813 0.90666 0.41958
 C928 C 0.23554 0.89412 0.39879
 C929 C 0.24786 0.90650 0.38034
 C930 C 0.25266 0.93133 0.38282
 C931 C 0.24456 0.94404 0.40327
 C932 C 0.23226 0.93167 0.42170
 C933 C 0.22453 0.94470 0.44210
 C934 C 0.22891 0.96924 0.44424
 C935 C 0.24101 0.98134 0.42626
 C936 C 0.24871 0.96901 0.40594
 C937 C 0.25530 0.89358 0.35981
 C938 C 0.25064 0.86909 0.35755
 C939 C 0.23857 0.85698 0.37558
 C940 C 0.23107 0.86926 0.39603
 C941 C 0.26669 0.94383 0.36501
 C942 C 0.27857 0.95549 0.35141
 C943 C 0.21730 0.89385 0.43937
 C944 C 0.20883 0.88407 0.45662
 H945 H 0.21502 0.93612 0.45658
 H946 H 0.22290 0.97892 0.45996
 H947 H 0.24445 1.00039 0.42805
 H948 H 0.25792 0.97930 0.39239
 H949 H 0.26471 0.90227 0.34532
 H950 H 0.25643 0.85947 0.34171
 H951 H 0.23498 0.83797 0.37373
 H952 H 0.22170 0.85911 0.40957
 C953 C 0.09892 0.42144 0.76672
 C954 C 0.07473 0.41790 0.77200
 C955 C 0.06204 0.39916 0.76043
 C956 C 0.07359 0.38414 0.74358
 C957 C 0.09796 0.38713 0.73897
 C958 C 0.11068 0.40583 0.75059
 C959 C 0.13499 0.40861 0.74556
 C960 C 0.14642 0.39332 0.72950
 C961 C 0.13397 0.37505 0.71812
 C962 C 0.11000 0.37191 0.72272
 C963 C 0.03783 0.39606 0.76590
 C964 C 0.02653 0.41099 0.78237
 C965 C 0.03891 0.42939 0.79358
 C966 C 0.06274 0.43289 0.78853
 C967 C 0.05995 0.36663 0.73013
 C968 C 0.04757 0.35306 0.71891
 C969 C 0.11130 0.44181 0.77703
 C970 C 0.12098 0.45923 0.78532
 H971 H 0.14541 0.42254 0.75402
 H972 H 0.16503 0.39568 0.72587
 H973 H 0.14293 0.36323 0.70566
 H974 H 0.10105 0.35742 0.71349
 H975 H 0.02740 0.38203 0.75763
 H976 H 0.00805 0.40828 0.78643
 H977 H 0.03003 0.44099 0.80630
 H978 H 0.07163 0.44740 0.79778
 C979 C 0.10588 0.58276 0.23642
 C980 C 0.09140 0.59834 0.22268
 C981 C 0.07812 0.61664 0.23430
 C982 C 0.07944 0.61926 0.25957
 C983 C 0.09497 0.60458 0.27312
 C984 C 0.10823 0.58626 0.26151
 C985 C 0.12336 0.57157 0.27548
 C986 C 0.12540 0.57492 0.30022
 C987 C 0.11245 0.59285 0.31156
 C988 C 0.09737 0.60755 0.29827
 C989 C 0.06348 0.63176 0.22024
 C990 C 0.06206 0.62893 0.19540
 C991 C 0.07506 0.61104 0.18404
 C992 C 0.08958 0.59585 0.19744
 C993 C 0.06352 0.63564 0.27182
 C994 C 0.04963 0.64829 0.28228
 C995 C 0.11700 0.56216 0.22510
 C996 C 0.12550 0.54449 0.21603
 H997 H 0.13385 0.55744 0.26744
 H998 H 0.13710 0.56355 0.31062
 H999 H 0.11411 0.59540 0.33078
 H1000 H 0.08772 0.62131 0.30788
 H1001 H 0.05311 0.64598 0.22828
 H1002 H 0.05081 0.64069 0.18491
 H1003 H 0.07390 0.60893 0.16474
 H1004 H 0.09943 0.58224 0.18781
 C1005 C 0.89450 0.42178 0.23975
 C1006 C 0.90490 0.42688 0.26235
 C1007 C 0.91847 0.40901 0.27429
 C1008 C 0.92162 0.38615 0.26356
 C1009 C 0.91049 0.38077 0.24140
 C1010 C 0.89688 0.39866 0.22945
 C1011 C 0.88611 0.39297 0.20722
 C1012 C 0.88867 0.37022 0.19708
 C1013 C 0.90198 0.35273 0.20876
 C1014 C 0.91284 0.35785 0.23067
 C1015 C 0.92889 0.41462 0.29676
 C1016 C 0.92601 0.43724 0.30710
 C1017 C 0.91277 0.45473 0.29540
 C1018 C 0.90229 0.44972 0.27329
 C1019 C 0.93735 0.36885 0.27480
 C1020 C 0.95119 0.35556 0.28455
 C1021 C 0.88255 0.44086 0.22675
 C1022 C 0.87361 0.45780 0.21675
 H1023 H 0.87556 0.40600 0.19752
 H1024 H 0.88028 0.36614 0.18007
 H1025 H 0.90391 0.33508 0.20080
 H1026 H 0.92298 0.34367 0.23912
 H1027 H 0.93932 0.40161 0.30661
 H1028 H 0.93410 0.44120 0.32428
 H1029 H 0.91059 0.47229 0.30349
 H1030 H 0.89211 0.46393 0.26495
 C1031 C 0.90255 0.57870 0.76672
 C1032 C 0.92342 0.57246 0.75419
 C1033 C 0.93653 0.59050 0.74212
 C1034 C 0.92870 0.61468 0.74260
 C1035 C 0.90795 0.62096 0.75527
 C1036 C 0.89481 0.60289 0.76738
 C1037 C 0.87412 0.60954 0.77992
 C1038 C 0.86662 0.63340 0.78052
 C1039 C 0.87947 0.65107 0.76869
 C1040 C 0.89991 0.64502 0.75617
 C1041 C 0.95736 0.58380 0.72974
 C1042 C 0.96497 0.55999 0.72929
 C1043 C 0.95213 0.54234 0.74108
 C1044 C 0.93159 0.54839 0.75341
 C1045 C 0.94216 0.63284 0.72993
 C1046 C 0.95436 0.64676 0.71899
 C1047 C 0.88921 0.55999 0.77867
 C1048 C 0.87929 0.54326 0.78793
 H1049 H 0.86358 0.59640 0.78937
 H1050 H 0.85076 0.63820 0.79022
 H1051 H 0.87357 0.66958 0.76923
 H1052 H 0.90935 0.65936 0.74725
 H1053 H 0.96801 0.59684 0.72028
 H1054 H 0.98093 0.55522 0.71975
 H1055 H 0.95810 0.52385 0.74069
 H1056 H 0.92227 0.53397 0.76230
 C1057 C 0.77189 0.58162 0.90515
 C1058 C 0.76820 0.57943 0.93022
 C1059 C 0.75569 0.59763 0.94280
 C1060 C 0.74696 0.61795 0.93024
 C1061 C 0.75138 0.62055 0.90535
 C1062 C 0.76391 0.60233 0.89277
 C1063 C 0.76796 0.60519 0.86786
 C1064 C 0.75985 0.62551 0.85571
 C1065 C 0.74758 0.64332 0.86801
 C1066 C 0.74333 0.64096 0.89256
 C1067 C 0.75192 0.59484 0.96781
 C1068 C 0.76019 0.57462 0.97999
 C1069 C 0.77250 0.55688 0.96771
 C1070 C 0.77652 0.55915 0.94312
 C1071 C 0.73256 0.63541 0.94292
 C1072 C 0.72029 0.64868 0.95464
 C1073 C 0.78270 0.56189 0.89211
 C1074 C 0.79104 0.54461 0.88219
 H1075 H 0.77748 0.59183 0.85756
 H1076 H 0.76312 0.62745 0.83665
 H1077 H 0.74132 0.65906 0.85848
 H1078 H 0.73375 0.65528 0.90140
 H1079 H 0.74257 0.60820 0.97824
 H1080 H 0.75703 0.57273 0.99907
 H1081 H 0.77896 0.54124 0.97727
 H1082 H 0.78623 0.54486 0.93439
 C1083 C 0.22970 0.41807 0.89870
 C1084 C 0.22270 0.41217 0.92239
 C1085 C 0.23466 0.39365 0.93514
 C1086 C 0.25359 0.38118 0.92416
 C1087 C 0.25979 0.38624 0.90006
 C1088 C 0.24779 0.40474 0.88728
 C1089 C 0.25447 0.40967 0.86330
 C1090 C 0.27247 0.39667 0.85224
 C1091 C 0.28421 0.37860 0.86475
 C1092 C 0.27802 0.37338 0.88841
 C1093 C 0.22750 0.38825 0.95890
 C1094 C 0.20901 0.40072 0.96971
 C1095 C 0.19738 0.41890 0.95727
 C1096 C 0.20408 0.42464 0.93388
 C1097 C 0.26764 0.36450 0.93829
 C1098 C 0.27942 0.35167 0.95104
 C1099 C 0.21937 0.43879 0.88677
 C1100 C 0.21127 0.45660 0.87752
 H1101 H 0.24579 0.42351 0.85284
 H1102 H 0.27733 0.40064 0.83386
 H1103 H 0.29817 0.36855 0.85607
 H1104 H 0.28758 0.35912 0.89740
 H1105 H 0.23600 0.37427 0.96933
 H1106 H 0.20374 0.39632 0.98787
 H1107 H 0.18308 0.42858 0.96578
 H1108 H 0.19443 0.43884 0.92490
 C1109 C 0.22973 0.58078 0.09548
 C1110 C 0.23787 0.60148 0.10772
 C1111 C 0.25051 0.61950 0.09500
 C1112 C 0.25488 0.61672 0.07012
 C1113 C 0.24598 0.59642 0.05770
 C1114 C 0.23337 0.57841 0.07042
 C1115 C 0.22488 0.55815 0.05765
 C1116 C 0.22879 0.55573 0.03306
 C1117 C 0.24117 0.57329 0.02064
 C1118 C 0.24963 0.59347 0.03269
 C1119 C 0.25869 0.63991 0.10765
 C1120 C 0.25446 0.64248 0.13218
 C1121 C 0.24209 0.62487 0.14461
 C1122 C 0.23387 0.60455 0.13261
 C1123 C 0.26935 0.63399 0.05728
 C1124 C 0.28161 0.64709 0.04539
 C1125 C 0.21874 0.56125 0.10865
 C1126 C 0.21025 0.54412 0.11869
 H1127 H 0.21513 0.54399 0.06649
 H1128 H 0.22219 0.54012 0.02359
 H1129 H 0.24423 0.57129 0.00155
 H1130 H 0.25903 0.60669 0.02216
 H1131 H 0.26835 0.65408 0.09871
 H1132 H 0.26081 0.65823 0.14159
 H1133 H 0.23884 0.62697 0.16366
 H1134 H 0.22428 0.59134 0.14300
 C1135 C 0.76873 0.41943 0.09924
 C1136 C 0.77582 0.41321 0.07566
 C1137 C 0.76399 0.39449 0.06315
 C1138 C 0.74509 0.38215 0.07427
 C1139 C 0.73872 0.38762 0.09823
 C1140 C 0.75060 0.40631 0.11077
 C1141 C 0.74378 0.41163 0.13464
 C1142 C 0.72574 0.39883 0.14580
 C1143 C 0.71411 0.38058 0.13352
 C1144 C 0.72045 0.37497 0.10999
 C1145 C 0.77126 0.38874 0.03950
 C1146 C 0.78972 0.40108 0.02857
 C1147 C 0.80122 0.41946 0.04077
 C1148 C 0.79443 0.42553 0.06405
 C1149 C 0.73128 0.36509 0.06040
 C1150 C 0.71974 0.35194 0.04782
 C1151 C 0.77916 0.44014 0.11104
 C1152 C 0.78742 0.45783 0.12030
 H1153 H 0.75236 0.42563 0.14493
 H1154 H 0.72076 0.40310 0.16408
 H1155 H 0.70011 0.37069 0.14227
 H1156 H 0.71096 0.36058 0.10117
 H1157 H 0.76285 0.37461 0.02926
 H1158 H 0.79506 0.39642 0.01049
 H1159 H 0.81550 0.42905 0.03216
 H1160 H 0.80398 0.43989 0.07284
 C1161 C 0.89612 0.76366 0.58079
 C1162 C 0.90560 0.77709 0.60012
 C1163 C 0.91866 0.76526 0.61851
 C1164 C 0.92209 0.74008 0.61746
 C1165 C 0.91155 0.72651 0.59879
 C1166 C 0.89854 0.73833 0.58039
 C1167 C 0.88848 0.72442 0.56171
 C1168 C 0.89116 0.69953 0.56124
 C1169 C 0.90387 0.68796 0.57924
 C1170 C 0.91399 0.70120 0.59783
 C1171 C 0.92828 0.77909 0.63747
 C1172 C 0.92502 0.80391 0.63829
 C1173 C 0.91223 0.81547 0.62033
 C1174 C 0.90261 0.80231 0.60140
 C1175 C 0.93784 0.72830 0.63441
 C1176 C 0.95168 0.71811 0.64740
 C1177 C 0.88523 0.77588 0.56054
 C1178 C 0.87690 0.78549 0.54305
 H1179 H 0.87837 0.73259 0.54734
 H1180 H 0.88333 0.68916 0.54683
 H1181 H 0.90589 0.66861 0.57880
 H1182 H 0.92365 0.69137 0.61147
 H1183 H 0.93828 0.77086 0.65188
 H1184 H 0.93245 0.81422 0.65296
 H1185 H 0.90974 0.83475 0.62107
 H1186 H 0.89274 0.81206 0.58787
 C1187 C 0.90624 0.23000 0.42106
 C1188 C 0.89427 0.23828 0.40029
 C1189 C 0.90688 0.25086 0.38215
 C1190 C 0.93138 0.25504 0.38489
 C1191 C 0.94350 0.24603 0.40530
 C1192 C 0.93090 0.23348 0.42342
 C1193 C 0.94338 0.22483 0.44375
 C1194 C 0.96758 0.22855 0.44614
 C1195 C 0.97989 0.24090 0.42848
 C1196 C 0.96811 0.24951 0.40822
 C1197 C 0.89451 0.25917 0.36166
 C1198 C 0.87037 0.25510 0.35910
 C1199 C 0.85805 0.24277 0.37682
 C1200 C 0.86978 0.23443 0.39723
 C1201 C 0.94415 0.26929 0.36735
 C1202 C 0.95584 0.28133 0.35385
 C1203 C 0.89321 0.21895 0.44060
 C1204 C 0.88317 0.21032 0.45763
 H1205 H 0.93461 0.21509 0.45799
 H1206 H 0.97683 0.22182 0.46181
 H1207 H 0.99868 0.24380 0.43045
 H1208 H 0.97853 0.25888 0.39493
 H1209 H 0.90337 0.26880 0.34740
 H1210 H 0.86117 0.26154 0.34329
 H1211 H 0.83931 0.23964 0.37473
 H1212 H 0.85948 0.22489 0.41051
 C1213 C 0.09449 0.22864 0.57985
 C1214 C 0.06952 0.22971 0.57906
 C1215 C 0.05697 0.24197 0.59743
 C1216 C 0.06945 0.25308 0.61650
 C1217 C 0.09434 0.25127 0.61775
 C1218 C 0.10691 0.23899 0.59936
 C1219 C 0.13180 0.23756 0.60087
 C1220 C 0.14395 0.24796 0.62002
 C1221 C 0.13166 0.25999 0.63799
 C1222 C 0.10713 0.26169 0.63695
 C1223 C 0.03201 0.24307 0.59606
 C1224 C 0.01985 0.23241 0.57707
 C1225 C 0.03213 0.22034 0.55916
 C1226 C 0.05667 0.21895 0.56005
 C1227 C 0.05658 0.26721 0.63408
 C1228 C 0.04478 0.27911 0.64761
 C1229 C 0.10726 0.21801 0.55991
 C1230 C 0.11712 0.20968 0.54263
 H1231 H 0.14209 0.22833 0.58735
 H1232 H 0.16299 0.24668 0.62093
 H1233 H 0.14118 0.26805 0.65282
 H1234 H 0.09832 0.27118 0.65135
 H1235 H 0.02162 0.25214 0.60960
 H1236 H 0.00080 0.23356 0.57623
 H1237 H 0.02259 0.21204 0.54448
 H1238 H 0.06541 0.20932 0.54570
 C1239 C 0.09427 0.77426 0.41905
 C1240 C 0.10625 0.76646 0.39814
 C1241 C 0.09372 0.75392 0.37987
 C1242 C 0.06932 0.74931 0.38262
 C1243 C 0.05717 0.75790 0.40313
 C1244 C 0.06968 0.77041 0.42138
 C1245 C 0.05720 0.77860 0.44185
 C1246 C 0.03307 0.77447 0.44423
 C1247 C 0.02084 0.76216 0.42643
 C1248 C 0.03263 0.75401 0.40604
 C1249 C 0.10608 0.74607 0.35925
 C1250 C 0.13015 0.75054 0.35673
 C1251 C 0.14239 0.76282 0.37458
 C1252 C 0.13066 0.77072 0.39511
 C1253 C 0.05672 0.73482 0.36511
 C1254 C 0.04509 0.72247 0.35181
 C1255 C 0.10725 0.78508 0.43878
 C1256 C 0.11713 0.79346 0.45605
 H1257 H 0.06590 0.78829 0.45619
 H1258 H 0.02382 0.78083 0.46001
 H1259 H 0.00212 0.75891 0.42841
 H1260 H 0.02227 0.74466 0.39264
 H1261 H 0.09727 0.73650 0.34489
 H1262 H 0.13935 0.74444 0.34082
 H1263 H 0.16108 0.76626 0.37251
 H1264 H 0.14089 0.78025 0.40851
 C1265 C 0.57936 0.90211 0.76860
 C1266 C 0.58392 0.92642 0.77454
 C1267 C 0.60236 0.93903 0.76275
 C1268 C 0.61610 0.92728 0.74503
 C1269 C 0.61221 0.90270 0.73985
 C1270 C 0.59379 0.89007 0.75169
 C1271 C 0.59010 0.86556 0.74607
 C1272 C 0.60421 0.85385 0.72924
 C1273 C 0.62221 0.86621 0.71766
 C1274 C 0.62623 0.89037 0.72282
 C1275 C 0.60647 0.96337 0.76886
 C1276 C 0.59280 0.97489 0.78619
 C1277 C 0.57470 0.96259 0.79763
 C1278 C 0.57022 0.93864 0.79194
 C1279 C 0.63313 0.94098 0.73119
 C1280 C 0.64634 0.95331 0.71955
 C1281 C 0.55911 0.88997 0.77896
 C1282 C 0.54182 0.88039 0.78715
 H1283 H 0.57636 0.85518 0.75467
 H1284 H 0.60117 0.83508 0.72518
 H1285 H 0.63313 0.85703 0.70462
 H1286 H 0.64048 0.89923 0.71343
 H1287 H 0.62033 0.97372 0.76045
 H1288 H 0.59624 0.99348 0.79070
 H1289 H 0.56409 0.97165 0.81102
 H1290 H 0.55601 0.92980 0.80141
 C1291 C 0.41930 0.90217 0.23131
 C1292 C 0.41456 0.92632 0.22487
 C1293 C 0.39592 0.93903 0.23628
 C1294 C 0.38219 0.92753 0.25413
 C1295 C 0.38626 0.90308 0.25980
 C1296 C 0.40487 0.89034 0.24833
 C1297 C 0.40876 0.86597 0.25446
 C1298 C 0.39466 0.85450 0.27143
 C1299 C 0.37648 0.86697 0.28265
 C1300 C 0.37225 0.89099 0.27699
 C1301 C 0.39164 0.96324 0.22968
 C1302 C 0.40535 0.97453 0.21227
 C1303 C 0.42364 0.96214 0.20120
 C1304 C 0.42828 0.93831 0.20735
 C1305 C 0.36508 0.94142 0.26770
 C1306 C 0.35190 0.95398 0.27915
 C1307 C 0.43975 0.88999 0.22135
 C1308 C 0.45719 0.88045 0.21343
 H1309 H 0.42265 0.85552 0.24615
 H1310 H 0.39785 0.83584 0.27589
 H1311 H 0.36557 0.85797 0.29582
 H1312 H 0.35786 0.89994 0.28611
 H1313 H 0.37762 0.97365 0.23780
 H1314 H 0.40179 0.99303 0.20741
 H1315 H 0.43429 0.97102 0.18774
 H1316 H 0.44265 0.92940 0.19815
 C1317 C 0.57885 0.09788 0.23023
 C1318 C 0.60003 0.10995 0.23623
 C1319 C 0.61846 0.09738 0.24829
 C1320 C 0.61558 0.07283 0.25422
 C1321 C 0.59463 0.06058 0.24763
 C1322 C 0.57622 0.07314 0.23561
 C1323 C 0.55537 0.06055 0.22938
 C1324 C 0.55277 0.03628 0.23491
 C1325 C 0.57074 0.02402 0.24673
 C1326 C 0.59148 0.03589 0.25298
 C1327 C 0.63940 0.10985 0.25427
 C1328 C 0.64209 0.13406 0.24847
 C1329 C 0.62409 0.14634 0.23666
 C1330 C 0.60324 0.13452 0.23058
 C1331 C 0.63365 0.06009 0.26772
 C1332 C 0.64750 0.04824 0.27918
 C1333 C 0.55931 0.11089 0.21940
 C1334 C 0.54230 0.12081 0.21090
 H1335 H 0.54088 0.06928 0.22015
 H1336 H 0.53671 0.02695 0.23002
 H1337 H 0.56862 0.00517 0.25103
 H1338 H 0.60497 0.02548 0.26203
 H1339 H 0.65388 0.10101 0.26343
 H1340 H 0.65824 0.14333 0.25315
 H1341 H 0.62628 0.16514 0.23218
 H1342 H 0.58974 0.14479 0.22137
 C1343 C 0.42120 0.09702 0.77147
 C1344 C 0.40014 0.10916 0.76504
 C1345 C 0.38172 0.09649 0.75316
 C1346 C 0.38449 0.07178 0.74783
 C1347 C 0.40529 0.05947 0.75491
 C1348 C 0.42369 0.07213 0.76676
 C1349 C 0.44441 0.05948 0.77345
 C1350 C 0.44689 0.03506 0.76852
 C1351 C 0.42893 0.02269 0.75688
 C1352 C 0.40830 0.03463 0.75018
 C1353 C 0.36091 0.10902 0.74671
 C1354 C 0.35835 0.13340 0.75188
 C1355 C 0.37636 0.14578 0.76350
 C1356 C 0.39707 0.13389 0.77004
 C1357 C 0.36653 0.05900 0.73428
 C1358 C 0.35272 0.04725 0.72273
 C1359 C 0.44079 0.11012 0.78199
 C1360 C 0.45786 0.12012 0.79020
 H1361 H 0.45890 0.06829 0.78257
 H1362 H 0.46286 0.02569 0.77375
 H1363 H 0.43096 0.00373 0.75303
 H1364 H 0.39479 0.02414 0.74130
 H1365 H 0.34642 0.10011 0.73769
 H1366 H 0.34230 0.14272 0.74685
 H1367 H 0.37427 0.16471 0.76748
 H1368 H 0.41059 0.14425 0.77908
 C1369 C 0.57779 0.76323 0.10179
 C1370 C 0.57131 0.74570 0.08455
 C1371 C 0.58896 0.73416 0.07059
 C1372 C 0.61303 0.74021 0.07392
 C1373 C 0.61953 0.75753 0.09134
 C1374 C 0.60185 0.76909 0.10533
 C1375 C 0.60874 0.78639 0.12257
 C1376 C 0.63246 0.79213 0.12593
 C1377 C 0.64975 0.78084 0.11226
 C1378 C 0.64345 0.76372 0.09512
 C1379 C 0.58200 0.71675 0.05340
 C1380 C 0.55831 0.71093 0.05011
 C1381 C 0.54105 0.72220 0.06376
 C1382 C 0.54735 0.73939 0.08079
 C1383 C 0.63081 0.72872 0.05904
 C1384 C 0.64443 0.71857 0.04586
 C1385 C 0.55945 0.77537 0.11538
 C1386 C 0.54302 0.78464 0.12553
 H1387 H 0.59591 0.79562 0.13361
 H1388 H 0.63745 0.80541 0.13921
 H1389 H 0.66814 0.78537 0.11494
 H1390 H 0.65750 0.75540 0.08492
 H1391 H 0.59474 0.70743 0.04233
 H1392 H 0.55333 0.69758 0.03689
 H1393 H 0.52266 0.71761 0.06115
 H1394 H 0.53323 0.74761 0.09094
 C1395 C 0.42021 0.23173 0.09484
 C1396 C 0.39890 0.23776 0.10664
 C1397 C 0.38067 0.24991 0.09386
 C1398 C 0.38387 0.25591 0.06936
 C1399 C 0.40495 0.24928 0.05738
 C1400 C 0.42316 0.23716 0.07016
 C1401 C 0.44415 0.23091 0.05784
 C1402 C 0.44707 0.23651 0.03363
 C1403 C 0.42930 0.24841 0.02115
 C1404 C 0.40843 0.25469 0.03276
 C1405 C 0.35960 0.25593 0.10606
 C1406 C 0.35660 0.25008 0.13021
 C1407 C 0.37440 0.23818 0.14270
 C1408 C 0.39537 0.23206 0.13114
 C1409 C 0.36599 0.26949 0.05642
 C1410 C 0.35227 0.28098 0.04445
 C1411 C 0.43957 0.22085 0.10810
 C1412 C 0.45648 0.21239 0.11822
 H1413 H 0.45850 0.22161 0.06673
 H1414 H 0.46323 0.23160 0.02450
 H1415 H 0.43167 0.25276 0.00235
 H1416 H 0.39509 0.26380 0.02219
 H1417 H 0.34526 0.26516 0.09706
 H1418 H 0.34035 0.25479 0.13928
 H1419 H 0.37197 0.23366 0.16145
 H1420 H 0.40871 0.22277 0.14156
 C1421 C 0.58245 0.23079 0.90225
 C1422 C 0.59669 0.24790 0.89030
 C1423 C 0.61514 0.25974 0.90297
 C1424 C 0.61923 0.25435 0.92748
 C1425 C 0.60570 0.23642 0.93911
 C1426 C 0.58724 0.22463 0.92647
 C1427 C 0.57373 0.20701 0.93858
 C1428 C 0.57840 0.20114 0.96246
 C1429 C 0.59652 0.21260 0.97480
 C1430 C 0.61001 0.23011 0.96339
 C1431 C 0.62894 0.27701 0.89076
 C1432 C 0.62469 0.28239 0.86668
 C1433 C 0.60668 0.27080 0.85427
 C1434 C 0.59277 0.25375 0.86587
 C1435 C 0.63617 0.26826 0.94129
 C1436 C 0.64922 0.27993 0.95380
 C1437 C 0.56208 0.22054 0.89017
 C1438 C 0.54463 0.21240 0.88079
 H1439 H 0.55951 0.19753 0.92970
 H1440 H 0.56792 0.18761 0.97144
 H1441 H 0.60009 0.20797 0.99335
 H1442 H 0.62389 0.23852 0.97377
 H1443 H 0.64320 0.28642 0.89966
 H1444 H 0.63545 0.29562 0.85758
 H1445 H 0.60347 0.27504 0.83556
 H1446 H 0.57900 0.24515 0.85547
 C1447 C 0.42156 0.75981 0.89458
 C1448 C 0.42481 0.73567 0.90197
 C1449 C 0.40712 0.72400 0.91575
 C1450 C 0.38628 0.73654 0.92211
 C1451 C 0.38264 0.76037 0.91395
 C1452 C 0.40034 0.77204 0.90013
 C1453 C 0.39641 0.79592 0.89236
 C1454 C 0.37556 0.80795 0.89804
 C1455 C 0.35826 0.79655 0.91156
 C1456 C 0.36168 0.77303 0.91949
 C1457 C 0.41090 0.69994 0.92312
 C1458 C 0.43155 0.68776 0.91706
 C1459 C 0.44886 0.69917 0.90360
 C1460 C 0.44563 0.72284 0.89610
 C1461 C 0.36933 0.72524 0.93808
 C1462 C 0.35624 0.71533 0.95197
 C1463 C 0.44066 0.77227 0.88249
 C1464 C 0.45739 0.78192 0.87327
 H1465 H 0.40935 0.80549 0.88178
 H1466 H 0.37281 0.82621 0.89192
 H1467 H 0.34210 0.80597 0.91591
 H1468 H 0.34772 0.76488 0.92992
 H1469 H 0.39795 0.69025 0.93357
 H1470 H 0.43413 0.66936 0.92283
 H1471 H 0.46487 0.68963 0.89893
 H1472 H 0.45959 0.73090 0.88561
 C1473 C 0.77158 0.90279 0.41749
 C1474 C 0.75355 0.89124 0.40416
 C1475 C 0.74147 0.90394 0.38567
 C1476 C 0.74753 0.92808 0.38060
 C1477 C 0.76635 0.93923 0.39312
 C1478 C 0.77840 0.92655 0.41164
 C1479 C 0.79692 0.93819 0.42414
 C1480 C 0.80342 0.96165 0.41845
 C1481 C 0.79170 0.97402 0.40030
 C1482 C 0.77331 0.96306 0.38777
 C1483 C 0.72329 0.89215 0.37281
 C1484 C 0.71725 0.86845 0.37804
 C1485 C 0.72908 0.85603 0.39610
 C1486 C 0.74703 0.86721 0.40909
 C1487 C 0.73348 0.94205 0.36378
 C1488 C 0.72167 0.95461 0.35082
 C1489 C 0.78209 0.89085 0.43811
 C1490 C 0.79031 0.88145 0.45577
 H1491 H 0.80663 0.92926 0.43834
 H1492 H 0.81765 0.97027 0.42817
 H1493 H 0.79681 0.99224 0.39594
 H1494 H 0.76472 0.97344 0.37382
 H1495 H 0.71366 0.90108 0.35855
 H1496 H 0.70333 0.85968 0.36800
 H1497 H 0.72433 0.83761 0.40007
 H1498 H 0.75577 0.85680 0.42292
 C1499 C 0.22738 0.90703 0.58083
 C1500 C 0.23112 0.93211 0.57883
 C1501 C 0.24332 0.94459 0.59731
 C1502 C 0.25171 0.93192 0.61771
 C1503 C 0.24727 0.90701 0.62009
 C1504 C 0.23504 0.89452 0.60158
 C1505 C 0.23093 0.86959 0.60425
 C1506 C 0.23869 0.85734 0.62465
 C1507 C 0.25067 0.86955 0.64273
 C1508 C 0.25498 0.89411 0.64056
 C1509 C 0.24710 0.96963 0.59475
 C1510 C 0.23912 0.98193 0.57449
 C1511 C 0.22712 0.96973 0.55645
 C1512 C 0.22311 0.94512 0.55849
 C1513 C 0.26572 0.94454 0.63555
 C1514 C 0.27762 0.95622 0.64920
 C1515 C 0.21671 0.89411 0.56093
 C1516 C 0.20839 0.88425 0.54360
 H1517 H 0.22164 0.85936 0.59067
 H1518 H 0.23538 0.83826 0.62643
 H1519 H 0.25666 0.85994 0.65853
 H1520 H 0.26432 0.90288 0.65510
 H1521 H 0.25622 0.97999 0.60834
 H1522 H 0.24227 1.00104 0.57278
 H1523 H 0.22089 0.97939 0.54078
 H1524 H 0.21365 0.93646 0.54398
 C1525 C 0.23046 0.09943 0.41885
 C1526 C 0.24868 0.11106 0.40597
 C1527 C 0.26064 0.09869 0.38724
 C1528 C 0.25426 0.07479 0.38149
 C1529 C 0.23531 0.06355 0.39364
 C1530 C 0.22340 0.07589 0.41240
 C1531 C 0.20474 0.06415 0.42453
 C1532 C 0.19799 0.04091 0.41823
 C1533 C 0.20957 0.02888 0.39982
 C1534 C 0.22808 0.03994 0.38766
 C1535 C 0.27900 0.11055 0.37482
 C1536 C 0.28536 0.13402 0.38070
 C1537 C 0.27366 0.14613 0.39901
 C1538 C 0.25553 0.13486 0.41158
 C1539 C 0.26812 0.06109 0.36436
 C1540 C 0.27974 0.04865 0.35116
 C1541 C 0.21981 0.11110 0.43950
 C1542 C 0.21128 0.12024 0.45711
 H1543 H 0.19513 0.07281 0.43892
 H1544 H 0.18368 0.03221 0.42768
 H1545 H 0.20427 0.01083 0.39499
 H1546 H 0.23655 0.02982 0.37348
 H1547 H 0.28854 0.10187 0.36039
 H1548 H 0.29942 0.14285 0.37100
 H1549 H 0.27866 0.16435 0.40351
 H1550 H 0.24690 0.14502 0.42564
 C1551 C 0.77041 0.09545 0.57854
 C1552 C 0.76616 0.07049 0.57605
 C1553 C 0.75376 0.05789 0.59428
 C1554 C 0.74564 0.07032 0.61490
 C1555 C 0.75049 0.09510 0.61772
 C1556 C 0.76293 0.10771 0.59947
 C1557 C 0.76746 0.13251 0.60260
 C1558 C 0.75993 0.14453 0.62319
 C1559 C 0.74776 0.13220 0.64101
 C1560 C 0.74304 0.10777 0.63840
 C1561 C 0.74955 0.03297 0.59126
 C1562 C 0.75729 0.02090 0.57080
 C1563 C 0.76948 0.03321 0.55302
 C1564 C 0.77391 0.05771 0.55551
 C1565 C 0.73165 0.05755 0.63263
 C1566 C 0.71984 0.04577 0.64622
 C1567 C 0.78154 0.10849 0.55901
 C1568 C 0.79028 0.11848 0.54199
 H1569 H 0.77690 0.14283 0.58923
 H1570 H 0.76356 0.16350 0.62533
 H1571 H 0.74196 0.14162 0.65697
 H1572 H 0.73356 0.09891 0.65274
 H1573 H 0.74027 0.02253 0.60462
 H1574 H 0.75384 0.00188 0.56876
 H1575 H 0.77552 0.02373 0.53719
 H1576 H 0.78348 0.06646 0.54117
 C1577 C 0.89733 0.58020 0.23771
 C1578 C 0.89923 0.60348 0.22767
 C1579 C 0.91320 0.62122 0.23936
 C1580 C 0.92515 0.61553 0.26100
 C1581 C 0.92269 0.59244 0.27139
 C1582 C 0.90874 0.57472 0.25972
 C1583 C 0.90673 0.55168 0.27036
 C1584 C 0.91817 0.54631 0.29189
 C1585 C 0.93180 0.56363 0.30331
 C1586 C 0.93409 0.58645 0.29327
 C1587 C 0.91499 0.64431 0.22890
 C1588 C 0.90329 0.64975 0.20752
 C1589 C 0.88963 0.63241 0.19610
 C1590 C 0.88759 0.60948 0.20597
 C1591 C 0.94072 0.63293 0.27226
 C1592 C 0.95430 0.64631 0.28223
 C1593 C 0.88463 0.56138 0.22511
 C1594 C 0.87504 0.54457 0.21556
 H1595 H 0.89629 0.53758 0.26224
 H1596 H 0.91643 0.52860 0.29976
 H1597 H 0.94065 0.55938 0.32004
 H1598 H 0.94487 0.59930 0.30288
 H1599 H 0.92539 0.65838 0.23717
 H1600 H 0.90481 0.66753 0.19978
 H1601 H 0.88058 0.63674 0.17950
 H1602 H 0.87676 0.59657 0.19648
 C1603 C 0.90431 0.42013 0.77107
 C1604 C 0.92815 0.42431 0.76472
 C1605 C 0.94126 0.40615 0.75274
 C1606 C 0.93044 0.38390 0.74712
 C1607 C 0.90682 0.37947 0.75407
 C1608 C 0.89371 0.39764 0.76611
 C1609 C 0.87010 0.39288 0.77278
 C1610 C 0.85972 0.37076 0.76769
 C1611 C 0.87252 0.35300 0.75588
 C1612 C 0.89582 0.35721 0.74910
 C1613 C 0.96502 0.41085 0.74642
 C1614 C 0.97546 0.43289 0.75167
 C1615 C 0.96266 0.45064 0.76341
 C1616 C 0.93928 0.44651 0.76991
 C1617 C 0.94356 0.36611 0.73349
 C1618 C 0.95548 0.35249 0.72182
 C1619 C 0.89064 0.43944 0.78174
 C1620 C 0.88031 0.45650 0.78996
 H1621 H 0.85949 0.40614 0.78203
 H1622 H 0.84164 0.36739 0.77293
 H1623 H 0.86436 0.33586 0.75197
 H1624 H 0.90511 0.34286 0.74000
 H1625 H 0.97581 0.39759 0.73739
 H1626 H 0.99362 0.43618 0.74665
 H1627 H 0.97087 0.46771 0.76751
 H1628 H 0.93010 0.46089 0.77906
 C1629 C 0.10250 0.58520 0.76697
 C1630 C 0.11003 0.59417 0.74445
 C1631 C 0.09697 0.61271 0.73289
 C1632 C 0.07645 0.62214 0.74391
 C1633 C 0.06966 0.61407 0.76701
 C1634 C 0.08273 0.59555 0.77858
 C1635 C 0.07540 0.58752 0.80151
 C1636 C 0.05572 0.59752 0.81270
 C1637 C 0.04293 0.61562 0.80138
 C1638 C 0.04973 0.62386 0.77879
 C1639 C 0.10463 0.62115 0.71023
 C1640 C 0.12465 0.61157 0.69931
 C1641 C 0.13742 0.59344 0.71061
 C1642 C 0.13027 0.58475 0.73292
 C1643 C 0.06122 0.63852 0.73070
 C1644 C 0.04776 0.65104 0.71946
 C1645 C 0.11401 0.56431 0.77739
 C1646 C 0.12287 0.54641 0.78568
 H1647 H 0.08484 0.57353 0.81106
 H1648 H 0.05037 0.59118 0.83026
 H1649 H 0.02765 0.62333 0.81015
 H1650 H 0.03928 0.63805 0.77074
 H1651 H 0.09530 0.63530 0.70080
 H1652 H 0.13029 0.61826 0.68198
 H1653 H 0.15297 0.58606 0.70205
 H1654 H 0.14080 0.57068 0.74106
 C1655 C 0.10323 0.41956 0.23505
 C1656 C 0.10611 0.41538 0.25998
 C1657 C 0.09249 0.39738 0.27160
 C1658 C 0.07604 0.38367 0.25821
 C1659 C 0.07401 0.38703 0.23307
 C1660 C 0.08767 0.40501 0.22145
 C1661 C 0.08517 0.40822 0.19635
 C1662 C 0.06961 0.39405 0.18308
 C1663 C 0.05623 0.37650 0.19444
 C1664 C 0.05832 0.37296 0.21915
 C1665 C 0.09546 0.39377 0.29660
 C1666 C 0.11146 0.40752 0.30975
 C1667 C 0.12478 0.42511 0.29840
 C1668 C 0.12220 0.42909 0.27381
 C1669 C 0.06016 0.36734 0.27057
 C1670 C 0.04650 0.35466 0.28128
 C1671 C 0.11498 0.43984 0.22382
 C1672 C 0.12406 0.45732 0.21498
 H1673 H 0.09526 0.42160 0.18672
 H1674 H 0.06794 0.39671 0.16388
 H1675 H 0.04417 0.36555 0.18406
 H1676 H 0.04761 0.35904 0.22719
 H1677 H 0.08554 0.38025 0.30622
 H1678 H 0.11353 0.40449 0.32886
 H1679 H 0.13719 0.43573 0.30870
 H1680 H 0.13301 0.44293 0.26577
   
