data_POSCAR
  _audit_creation_date              2014-09-24
  _audit_creation_method            'ToBaCCo'
  _symmetry_space_group_name_H-M    'P1'
  _symmetry_Int_Tables_number       1
  _symmetry_cell_setting            triclinic
  loop_
  _symmetry_equiv_pos_as_xyz
 x,y,z
_cell_length_a 55.0191
_cell_length_b 55.2250
_cell_length_c 55.4698
_cell_angle_alpha 89.934500
_cell_angle_beta 90.087700
_cell_angle_gamma 90.093000
loop_
  _atom_site_label
  _atom_site_type_symbol
  _atom_site_fract_x
  _atom_site_fract_y
  _atom_site_fract_z
C1 C 0.28301 0.37189 -0.00414
 C2 C 0.28924 0.36075 0.01756
 C3 C 0.30689 0.34253 0.01796
 C4 C 0.31959 0.33610 -0.00328
 C5 C 0.31337 0.34816 -0.02499
 C6 C 0.29479 0.36548 -0.02545
 C7 C 0.33932 0.31727 -0.00274
 C8 C 0.34647 0.30506 -0.02403
 C9 C 0.36551 0.28825 -0.02361
 C10 C 0.37677 0.28237 -0.00182
 C11 C 0.36963 0.29365 0.01948
 C12 C 0.35150 0.31140 0.01901
 H13 H 0.26908 0.38580 -0.00436
 H14 H 0.31047 0.33362 0.03495
 H15 H 0.32298 0.34456 -0.04158
 H16 H 0.33743 0.30838 -0.04103
 H17 H 0.39128 0.26907 -0.00142
 H18 H 0.34735 0.32060 0.03568
 C19 C 0.71652 0.62767 0.00443
 C20 C 0.70442 0.63432 0.02546
 C21 C 0.68579 0.65155 0.02453
 C22 C 0.67981 0.66332 0.00259
 C23 C 0.69287 0.65668 -0.01837
 C24 C 0.71058 0.63852 -0.01750
 C25 C 0.65997 0.68206 0.00153
 C26 C 0.64835 0.68787 -0.02055
 C27 C 0.63017 0.70559 -0.02153
 C28 C 0.62242 0.71684 -0.00039
 C29 C 0.63310 0.71099 0.02166
 C30 C 0.65217 0.69425 0.02260
 H31 H 0.73047 0.61381 0.00509
 H32 H 0.67600 0.65527 0.04098
 H33 H 0.68955 0.66536 -0.03552
 H34 H 0.65299 0.67864 -0.03708
 H35 H 0.60791 0.73014 -0.00104
 H36 H 0.66067 0.69102 0.03987
 C37 C 0.71624 0.37893 1.00321
 C38 C 0.71083 0.36795 0.98123
 C39 C 0.69422 0.34872 0.98027
 C40 C 0.68179 0.34101 1.00129
 C41 C 0.68710 0.35302 1.02325
 C42 C 0.70465 0.37135 1.02423
 C43 C 0.66335 0.32085 1.00036
 C44 C 0.65667 0.30814 1.02155
 C45 C 0.63861 0.29027 1.02094
 C46 C 0.62799 0.28376 0.99906
 C47 C 0.63474 0.29543 0.97781
 C48 C 0.65186 0.31424 0.97843
 H49 H 0.72943 0.39355 1.00395
 H50 H 0.69129 0.34000 0.96308
 H51 H 0.67765 0.34859 1.03973
 H52 H 0.66524 0.31192 1.03868
 H53 H 0.61415 0.26972 0.99856
 H54 H 0.65568 0.32368 0.96179
 C55 C 0.28137 0.62403 1.00038
 C56 C 0.28781 0.63520 0.97880
 C57 C 0.30475 0.65410 0.97876
 C58 C 0.31665 0.66119 1.00030
 C59 C 0.31016 0.64917 1.02196
 C60 C 0.29223 0.63113 1.02196
 C61 C 0.33587 0.68060 1.00003
 C62 C 0.34235 0.69323 1.02132
 C63 C 0.36085 0.71071 1.02100
 C64 C 0.37220 0.71675 0.99934
 C65 C 0.36578 0.70495 0.97809
 C66 C 0.34825 0.68659 0.97845
 H67 H 0.26800 0.60955 1.00035
 H68 H 0.30845 0.66298 0.96179
 H69 H 0.31904 0.65330 1.03884
 H70 H 0.33324 0.68971 1.03823
 H71 H 0.38630 0.73054 0.99902
 H72 H 0.34476 0.67703 0.96182
 C73 C -0.00559 0.28287 0.37700
 C74 C 0.01627 0.29343 0.36987
 C75 C 0.01637 0.31144 0.35203
 C76 C -0.00547 0.31830 0.34025
 C77 C -0.02728 0.30667 0.34736
 C78 C -0.02734 0.28966 0.36605
 C79 C -0.00565 0.33753 0.32098
 C80 C -0.02734 0.35006 0.31505
 C81 C -0.02762 0.36751 0.29671
 C82 C -0.00612 0.37368 0.28493
 C83 C 0.01560 0.36218 0.29093
 C84 C 0.01582 0.34381 0.30835
 H85 H -0.00571 0.26944 0.39130
 H86 H 0.03349 0.32007 0.34784
 H87 H -0.04439 0.31060 0.33865
 H88 H -0.04408 0.34669 0.32465
 H89 H -0.00620 0.38767 0.27115
 H90 H 0.03281 0.33465 0.31177
 C91 C 0.00701 0.71705 0.62317
 C92 C 0.02806 0.70495 0.63020
 C93 C 0.02703 0.68736 0.64835
 C94 C 0.00499 0.68251 0.66069
 C95 C -0.01602 0.69547 0.65355
 C96 C -0.01504 0.71211 0.63452
 C97 C 0.00396 0.66404 0.68063
 C98 C -0.01829 0.65303 0.68750
 C99 C -0.01898 0.63589 0.70617
 C100 C 0.00252 0.62867 0.71740
 C101 C 0.02465 0.63883 0.71058
 C102 C 0.02537 0.65686 0.69289
 H103 H 0.00775 0.73025 0.60868
 H104 H 0.04349 0.67752 0.65238
 H105 H -0.03324 0.69290 0.66255
 H106 H -0.03511 0.65727 0.67834
 H107 H 0.00212 0.61484 0.73133
 H108 H 0.04279 0.66497 0.68889
 C109 C 1.00761 0.71560 0.37306
 C110 C 0.98524 0.71004 0.36261
 C111 C 0.98380 0.69255 0.34441
 C112 C 1.00467 0.67934 0.33730
 C113 C 1.02706 0.68491 0.34869
 C114 C 1.02854 0.70333 0.36598
 C115 C 1.00304 0.65973 0.31851
 C116 C 1.02397 0.65176 0.30595
 C117 C 1.02249 0.63282 0.28921
 C118 C 0.99998 0.62251 0.28374
 C119 C 0.97903 0.63046 0.29537
 C120 C 0.98054 0.64846 0.31304
 H121 H 1.00864 0.72942 0.38695
 H122 H 0.96632 0.68952 0.33605
 H123 H 1.04342 0.67493 0.34460
 H124 H 1.04152 0.66006 0.30893
 H125 H 0.99875 0.60809 0.27049
 H126 H 0.96408 0.65320 0.32250
 C127 C 0.99474 0.28315 0.62777
 C128 C 0.97373 0.29549 0.63444
 C129 C 0.97495 0.31393 0.65171
 C130 C 0.99718 0.31948 0.66345
 C131 C 1.01811 0.30621 0.65677
 C132 C 1.01693 0.28867 0.63862
 C133 C 0.99859 0.33904 0.68225
 C134 C 1.02096 0.35055 0.68783
 C135 C 1.02220 0.36851 0.70562
 C136 C 1.00105 0.37607 0.71722
 C137 C 0.97875 0.36547 0.71160
 C138 C 0.97754 0.34667 0.69475
 H139 H 0.99387 0.26934 0.61389
 H140 H 0.95853 0.32392 0.65551
 H141 H 1.03545 0.30926 0.66543
 H142 H 1.03748 0.34598 0.67834
 H143 H 1.00188 0.39042 0.73057
 H144 H 0.96008 0.33822 0.69166
 C145 C 0.37370 0.00550 0.28242
 C146 C 0.36688 0.02667 0.29428
 C147 C 0.34947 0.02579 0.31267
 C148 C 0.33777 0.00370 0.31867
 C149 C 0.34452 -0.01738 0.30581
 C150 C 0.36284 -0.01654 0.28834
 C151 C 0.31900 0.00251 0.33834
 C152 C 0.31364 -0.01966 0.35009
 C153 C 0.29578 -0.02088 0.36798
 C154 C 0.28390 0.00011 0.37536
 C155 C 0.28934 0.02230 0.36460
 C156 C 0.30629 0.02349 0.34582
 H157 H 0.38771 0.00620 0.26867
 H158 H 0.34555 0.04233 0.32228
 H159 H 0.33576 -0.03459 0.30916
 H160 H 0.32331 -0.03610 0.34577
 H161 H 0.27049 -0.00080 0.38966
 H162 H 0.30929 0.04081 0.33725
 C163 C 0.62605 -0.00423 0.71877
 C164 C 0.63687 0.01775 0.71265
 C165 C 0.65503 0.01851 0.69505
 C166 C 0.66165 -0.00261 0.68217
 C167 C 0.65003 -0.02467 0.68837
 C168 C 0.63277 -0.02549 0.70694
 C169 C 0.68011 -0.00144 0.66222
 C170 C 0.69274 -0.02239 0.65450
 C171 C 0.70946 -0.02111 0.63549
 C172 C 0.71471 0.00113 0.62476
 C173 C 0.70288 0.02206 0.63234
 C174 C 0.68526 0.02076 0.65044
 H175 H 0.61213 -0.00471 0.73262
 H176 H 0.66369 0.03573 0.69160
 H177 H 0.65390 -0.04122 0.67873
 H178 H 0.68989 -0.03975 0.66306
 H179 H 0.72798 0.00214 0.61034
 H180 H 0.67564 0.03719 0.65490
 C181 C 0.37503 0.99733 0.71628
 C182 C 0.36412 0.97560 0.70950
 C183 C 0.34584 0.97551 0.69194
 C184 C 0.33917 0.99712 0.67982
 C185 C 0.35092 1.01890 0.68671
 C186 C 0.36830 1.01898 0.70520
 C187 C 0.32050 0.99677 0.65995
 C188 C 0.30796 1.01808 0.65299
 C189 C 0.29109 1.01760 0.63400
 C190 C 0.28561 0.99577 0.62257
 C191 C 0.29734 0.97451 0.62942
 C192 C 0.31510 0.97504 0.64748
 H193 H 0.38903 0.99737 0.73009
 H194 H 0.33711 0.95844 0.68795
 H195 H 0.34708 1.03583 0.67771
 H196 H 0.31102 1.03508 0.66216
 H197 H 0.27224 0.99529 0.60815
 H198 H 0.32464 0.95841 0.65135
 C199 C 0.62661 1.00075 0.28063
 C200 C 0.63338 0.97922 0.29191
 C201 C 0.65085 0.97948 0.31029
 C202 C 0.66263 1.00132 0.31688
 C203 C 0.65593 1.02282 0.30465
 C204 C 0.63756 1.02257 0.28717
 C205 C 0.68138 1.00183 0.33660
 C206 C 0.68646 1.02351 0.34929
 C207 C 0.70424 1.02408 0.36733
 C208 C 0.71633 1.00292 0.37385
 C209 C 0.71117 0.98119 0.36213
 C210 C 0.69427 0.98067 0.34323
 H211 H 0.61251 1.00053 0.26690
 H212 H 0.65474 0.96265 0.31948
 H213 H 0.66474 1.03989 0.30855
 H214 H 0.67662 1.04003 0.34559
 H215 H 0.72969 1.00332 0.38826
 H216 H 0.69144 0.96371 0.33392
 O217 O 0.82388 0.85608 0.52096
 O218 O 0.85830 0.82308 0.47481
 O219 O 0.82432 0.85580 0.47424
 O220 O 0.85776 0.82330 0.52149
 O221 O 0.82988 0.79440 0.52148
 O222 O 0.79619 0.82716 0.47396
 O223 O 0.83040 0.79421 0.47452
 O224 O 0.79577 0.82742 0.52096
 Cu225 Cu 0.84386 0.84246 0.49788
 Cu226 Cu 0.81021 0.80788 0.49771
 C227 C 0.80398 0.84746 0.52868
 C228 C 0.85033 0.80301 0.46700
 C229 C 0.80455 0.84713 0.46623
 C230 C 0.84963 0.80331 0.52935
 O231 O 0.14499 0.18166 0.48002
 O232 O 0.17854 0.14581 0.52490
 O233 O 0.14528 0.17916 0.52654
 O234 O 0.17797 0.14781 0.47822
 O235 O 0.20684 0.17570 0.47914
 O236 O 0.17380 0.20740 0.52775
 O237 O 0.20731 0.17380 0.52612
 O238 O 0.17360 0.20981 0.48094
 Cu239 Cu 0.15885 0.16078 0.50227
 Cu240 Cu 0.19333 0.19450 0.50356
 C241 C 0.15338 0.20191 0.47315
 C242 C 0.19862 0.15365 0.53302
 C243 C 0.15379 0.19866 0.53514
 C244 C 0.19801 0.15622 0.47068
 O245 O 0.16353 0.80446 0.51958
 O246 O 0.19641 0.83884 0.47344
 O247 O 0.16363 0.80469 0.47311
 O248 O 0.19658 0.83828 0.51984
 O249 O 0.22563 0.81065 0.51987
 O250 O 0.19235 0.77673 0.47273
 O251 O 0.22553 0.81128 0.47307
 O252 O 0.19219 0.77643 0.51961
 Cu253 Cu 0.17715 0.82433 0.49650
 Cu254 Cu 0.21186 0.79093 0.49629
 C255 C 0.17199 0.78453 0.52715
 C256 C 0.21669 0.83123 0.46578
 C257 C 0.17212 0.78488 0.46530
 C258 C 0.21682 0.83045 0.52746
 O259 O 0.83798 0.19254 0.52583
 O260 O 0.80398 0.15801 0.48050
 O261 O 0.83795 0.19060 0.47930
 O262 O 0.80413 0.15937 0.52687
 O263 O 0.77580 0.18772 0.52602
 O264 O 0.81013 0.21944 0.47807
 O265 O 0.77579 0.18650 0.47926
 O266 O 0.81007 0.22130 0.52505
 Cu267 Cu 0.82384 0.17230 0.50330
 Cu268 Cu 0.79012 0.20671 0.50207
 C269 C 0.83005 0.21288 0.53285
 C270 C 0.78406 0.16620 0.47241
 C271 C 0.82995 0.21031 0.47072
 C272 C 0.78404 0.16783 0.53409
 O273 O 0.47630 0.84230 0.81258
 O274 O 0.52402 0.80853 0.84412
 O275 O 0.52326 0.84208 0.81091
 O276 O 0.47724 0.80841 0.84512
 O277 O 0.47612 0.78026 0.81680
 O278 O 0.52254 0.81417 0.78237
 O279 O 0.52325 0.78024 0.81595
 O280 O 0.47519 0.81449 0.78394
 Cu281 Cu 0.50035 0.82816 0.83099
 Cu282 Cu 0.49924 0.79447 0.79682
 C283 C 0.46779 0.83431 0.79290
 C284 C 0.53131 0.78847 0.83578
 C285 C 0.53043 0.83408 0.79073
 C286 C 0.46914 0.78853 0.83697
 O287 O 0.52523 0.18685 0.15166
 O288 O 0.47812 0.15606 0.18704
 O289 O 0.47838 0.18895 0.15310
 O290 O 0.52499 0.15412 0.18511
 O291 O 0.52750 0.18261 0.21300
 O292 O 0.48052 0.21783 0.18060
 O293 O 0.48025 0.18459 0.21491
 O294 O 0.52773 0.21565 0.17925
 Cu295 Cu 0.50134 0.16863 0.16647
 Cu296 Cu 0.50412 0.20309 0.19978
 C297 C 0.53437 0.20646 0.15935
 C298 C 0.47152 0.16479 0.20711
 C299 C 0.47191 0.20944 0.16106
 C300 C 0.53408 0.16235 0.20444
 O301 O 0.47693 0.18297 0.84774
 O302 O 0.52598 0.15072 0.81695
 O303 O 0.52385 0.18511 0.84899
 O304 O 0.47910 0.14972 0.81454
 O305 O 0.47909 0.17761 0.78590
 O306 O 0.52424 0.21302 0.82038
 O307 O 0.52632 0.17832 0.78804
 O308 O 0.47697 0.21116 0.81939
 Cu309 Cu 0.50145 0.16435 0.83492
 Cu310 Cu 0.50168 0.19787 0.80052
 C311 C 0.46885 0.20261 0.83908
 C312 C 0.53422 0.15875 0.79718
 C313 C 0.53142 0.20515 0.84066
 C314 C 0.47173 0.15752 0.79429
 O315 O 0.51944 0.85208 0.18356
 O316 O 0.47274 0.81996 0.14863
 O317 O 0.47256 0.85311 0.18179
 O318 O 0.51982 0.81954 0.14957
 O319 O 0.51875 0.79066 0.17720
 O320 O 0.47115 0.82465 0.20985
 O321 O 0.47134 0.79122 0.17639
 O322 O 0.51837 0.82347 0.21148
 Cu323 Cu 0.49630 0.83902 0.16308
 Cu324 Cu 0.49481 0.80456 0.19654
 C325 C 0.52656 0.84344 0.20355
 C326 C 0.46422 0.80014 0.15652
 C327 C 0.46403 0.84479 0.20133
 C328 C 0.52713 0.79937 0.15770
 O329 O 0.85301 0.52827 0.81737
 O330 O 0.82051 0.48259 0.85319
 O331 O 0.85293 0.48152 0.81929
 O332 O 0.82095 0.52948 0.85202
 O333 O 0.79138 0.52887 0.82498
 O334 O 0.82373 0.48061 0.79185
 O335 O 0.79107 0.48169 0.82602
 O336 O 0.82372 0.52769 0.79004
 Cu337 Cu 0.83978 0.50561 0.83820
 Cu338 Cu 0.80447 0.50471 0.80547
 C339 C 0.84412 0.53542 0.79750
 C340 C 0.80029 0.47445 0.84573
 C341 C 0.84393 0.47307 0.80001
 C342 C 0.80064 0.53705 0.84432
 O343 O 0.14811 0.51853 0.18049
 O344 O 0.18033 0.47091 0.14744
 O345 O 0.14669 0.47163 0.18029
 O346 O 0.18242 0.51764 0.14815
 O347 O 0.21048 0.51653 0.17672
 O348 O 0.17458 0.47020 0.20902
 O349 O 0.20850 0.46948 0.17589
 O350 O 0.17589 0.51741 0.20932
 Cu351 Cu 0.16158 0.49483 0.16125
 Cu352 Cu 0.19518 0.49330 0.19567
 C353 C 0.15632 0.52587 0.20055
 C354 C 0.19994 0.46233 0.15585
 C355 C 0.15449 0.46324 0.20013
 C356 C 0.20260 0.52463 0.15678
 O357 O 0.83974 0.47823 0.19438
 O358 O 0.80678 0.52518 0.16092
 O359 O 0.84019 0.52489 0.19434
 O360 O 0.80635 0.47854 0.16098
 O361 O 0.77762 0.47857 0.18882
 O362 O 0.81188 0.52529 0.22259
 O363 O 0.77810 0.52560 0.18880
 O364 O 0.81139 0.47825 0.22260
 Cu365 Cu 0.82611 0.50169 0.17486
 Cu366 Cu 0.79184 0.50195 0.20856
 C367 C 0.83144 0.47058 0.21429
 C368 C 0.78671 0.53302 0.16889
 C369 C 0.83207 0.53262 0.21426
 C370 C 0.78612 0.47102 0.16894
 O371 O 0.18761 0.52079 0.84541
 O372 O 0.15585 0.47455 0.80996
 O373 O 0.18929 0.47412 0.84353
 O374 O 0.15472 0.52126 0.81209
 O375 O 0.18319 0.52358 0.78406
 O376 O 0.21807 0.47605 0.81580
 O377 O 0.18425 0.47649 0.78185
 O378 O 0.21639 0.52312 0.81770
 Cu379 Cu 0.16901 0.49733 0.83052
 Cu380 Cu 0.20340 0.49988 0.79700
 C381 C 0.20733 0.52975 0.83766
 C382 C 0.16431 0.46804 0.78974
 C383 C 0.20971 0.46746 0.83535
 C384 C 0.16302 0.53038 0.79280
 C385 C 0.25687 0.39187 0.07631
 C386 C 0.23997 0.37670 0.09237
 C387 C 0.22881 0.38984 0.11001
 C388 C 0.23571 0.41682 0.10980
 C389 C 0.22982 0.42553 0.08419
 C390 C 0.24091 0.41246 0.06664
 C391 C 0.27470 0.40415 0.09379
 C392 C 0.26357 0.41727 0.11141
 C393 C 0.26872 0.37855 0.05673
 C394 C 0.27821 0.36940 0.03942
 C395 C 0.22352 0.43161 0.12808
 C396 C 0.21301 0.44505 0.14162
 H397 H 0.23707 0.35738 0.09013
 H398 H 0.21636 0.38178 0.12290
 H399 H 0.21792 0.44068 0.08016
 H400 H 0.23848 0.41642 0.04761
 H401 H 0.29432 0.40259 0.09251
 H402 H 0.27365 0.42696 0.12521
 C403 C 0.73002 0.60011 0.08604
 C404 C 0.74698 0.57986 0.07750
 C405 C 0.75764 0.56737 0.09577
 C406 C 0.75037 0.57627 0.12094
 C407 C 0.72247 0.57502 0.12124
 C408 C 0.71175 0.58758 0.10286
 C409 C 0.74577 0.61595 0.10264
 C410 C 0.75647 0.60340 0.12100
 C411 C 0.71913 0.61321 0.06570
 C412 C 0.71159 0.62321 0.04786
 C413 C 0.76238 0.56224 0.14002
 C414 C 0.77312 0.54954 0.15414
 H415 H 0.75032 0.57566 0.05867
 H416 H 0.77010 0.55249 0.09258
 H417 H 0.71206 0.56523 0.13472
 H418 H 0.69218 0.58854 0.10059
 H419 H 0.74821 0.63531 0.10024
 H420 H 0.76808 0.61201 0.13432
 C421 C 0.74336 0.40181 0.92396
 C422 C 0.72595 0.41182 0.90472
 C423 C 0.73719 0.42572 0.88770
 C424 C 0.76472 0.42822 0.89162
 C425 C 0.77427 0.40211 0.89278
 C426 C 0.76302 0.38821 0.90981
 C427 C 0.75629 0.42415 0.93429
 C428 C 0.76748 0.43799 0.91734
 C429 C 0.73140 0.38759 0.94289
 C430 C 0.72185 0.37761 0.95975
 C431 C 0.77698 0.44369 0.87387
 C432 C 0.78743 0.45733 0.86042
 H433 H 0.70655 0.40824 0.90444
 H434 H 0.72742 0.43405 0.87285
 H435 H 0.78853 0.39515 0.88121
 H436 H 0.76764 0.36934 0.91284
 H437 H 0.75663 0.42871 0.95333
 H438 H 0.77740 0.45439 0.92187
 C439 C 0.25906 0.60215 0.91916
 C440 C 0.27775 0.59346 0.90055
 C441 C 0.26789 0.57976 0.88256
 C442 C 0.24033 0.57613 0.88501
 C443 C 0.22972 0.60181 0.88645
 C444 C 0.23959 0.61552 0.90445
 C445 C 0.24654 0.57903 0.92816
 C446 C 0.23672 0.56538 0.91025
 C447 C 0.26952 0.61611 0.93910
 C448 C 0.27793 0.62584 0.95667
 C449 C 0.22943 0.56080 0.86633
 C450 C 0.21974 0.54709 0.85242
 H451 H 0.29700 0.59777 0.90137
 H452 H 0.27867 0.57232 0.86797
 H453 H 0.21579 0.60864 0.87436
 H454 H 0.23412 0.63409 0.90780
 H455 H 0.24547 0.57380 0.94701
 H456 H 0.22726 0.54848 0.91378
 C457 C 0.07487 0.26429 0.40517
 C458 C 0.06667 0.25741 0.43070
 C459 C 0.08387 0.24545 0.44367
 C460 C 0.10770 0.24146 0.42992
 C461 C 0.11569 0.26687 0.42178
 C462 C 0.09839 0.27890 0.40874
 C463 C 0.08299 0.24036 0.39367
 C464 C 0.10023 0.22837 0.40666
 C465 C 0.05560 0.27659 0.39154
 C466 C 0.03836 0.28519 0.38117
 C467 C 0.12564 0.22810 0.44433
 C468 C 0.13905 0.21642 0.45703
 H469 H 0.04887 0.26164 0.43800
 H470 H 0.08079 0.23945 0.46206
 H471 H 0.13333 0.27469 0.42585
 H472 H 0.10121 0.29701 0.40164
 H473 H 0.07588 0.23348 0.37673
 H474 H 0.10788 0.21123 0.40086
 C475 C 0.08916 0.72862 0.59502
 C476 C 0.10495 0.71014 0.58158
 C477 C 0.12346 0.72045 0.56876
 C478 C 0.12429 0.74819 0.57069
 C479 C 0.12550 0.75349 0.59783
 C480 C 0.10702 0.74320 0.61063
 C481 C 0.08054 0.74640 0.57556
 C482 C 0.09894 0.75665 0.56282
 C483 C 0.06865 0.71824 0.60843
 C484 C 0.05065 0.71129 0.61872
 C485 C 0.14345 0.75988 0.55642
 C486 C 0.15751 0.77062 0.54362
 H487 H 0.10193 0.69072 0.58215
 H488 H 0.13630 0.70985 0.55835
 H489 H 0.13967 0.76428 0.60625
 H490 H 0.10535 0.74516 0.63003
 H491 H 0.06158 0.75057 0.57207
 H492 H 0.09571 0.76960 0.54842
 C493 C 0.92809 0.74411 0.39555
 C494 C 0.90995 0.72696 0.40788
 C495 C 0.89297 0.73862 0.42146
 C496 C 0.89580 0.76629 0.42137
 C497 C 0.89535 0.77354 0.39461
 C498 C 0.91236 0.76185 0.38102
 C499 C 0.93894 0.75929 0.41608
 C500 C 0.92202 0.77091 0.42961
 C501 C 0.94700 0.73166 0.38167
 C502 C 0.96382 0.72166 0.37196
 C503 C 0.87809 0.77900 0.43653
 C504 C 0.86475 0.78978 0.44999
 H505 H 0.91035 0.70739 0.40604
 H506 H 0.87882 0.72905 0.43124
 H507 H 0.88277 0.78661 0.38702
 H508 H 0.91435 0.76491 0.36179
 H509 H 0.95829 0.76080 0.41968
 H510 H 0.92689 0.78236 0.44477
 C511 C 0.91278 0.27041 0.59988
 C512 C 0.89491 0.25612 0.61572
 C513 C 0.87659 0.24535 0.60302
 C514 C 0.87796 0.24995 0.57575
 C515 C 0.90341 0.24147 0.56837
 C516 C 0.92165 0.25218 0.58101
 C517 C 0.89695 0.28841 0.58577
 C518 C 0.87861 0.27764 0.57306
 C519 C 0.93313 0.28130 0.61315
 C520 C 0.95108 0.28869 0.62328
 C521 C 0.85893 0.23782 0.56163
 C522 C 0.84483 0.22686 0.54902
 H523 H 0.89645 0.25468 0.63518
 H524 H 0.86244 0.23469 0.61161
 H525 H 0.90683 0.22817 0.55438
 H526 H 0.94066 0.24805 0.57782
 H527 H 0.89983 0.30786 0.58581
 H528 H 0.86577 0.28787 0.56223
 C529 C 0.40220 0.08627 0.26754
 C530 C 0.38681 0.10262 0.25113
 C531 C 0.39993 0.12019 0.23971
 C532 C 0.42715 0.11966 0.24584
 C533 C 0.43537 0.09384 0.23983
 C534 C 0.42231 0.07636 0.25119
 C535 C 0.41522 0.10364 0.28491
 C536 C 0.42836 0.12123 0.27347
 C537 C 0.38849 0.06664 0.27913
 C538 C 0.37813 0.04908 0.28701
 C539 C 0.44177 0.13782 0.23302
 C540 C 0.45481 0.15109 0.22157
 H541 H 0.36731 0.10065 0.24878
 H542 H 0.39169 0.13326 0.22759
 H543 H 0.45024 0.08964 0.22768
 H544 H 0.42600 0.05720 0.24876
 H545 H 0.41415 0.10230 0.30440
 H546 H 0.43855 0.13496 0.28318
 C547 C 0.60521 0.07725 0.74359
 C548 C 0.59587 0.09613 0.72546
 C549 C 0.58273 0.11427 0.73582
 C550 C 0.58025 0.11174 0.76326
 C551 C 0.60644 0.10999 0.77276
 C552 C 0.61959 0.09183 0.76239
 C553 C 0.58247 0.06837 0.75691
 C554 C 0.56939 0.08644 0.76722
 C555 C 0.61856 0.05717 0.73253
 C556 C 0.62786 0.03964 0.72349
 C557 C 0.56541 0.13057 0.77465
 C558 C 0.55183 0.14443 0.78460
 H559 H 0.59935 0.09536 0.70622
 H560 H 0.57496 0.12905 0.72545
 H561 H 0.61400 0.12199 0.78633
 H562 H 0.63841 0.08825 0.76708
 H563 H 0.57710 0.04948 0.75817
 H564 H 0.55283 0.08300 0.77729
 C565 C 0.39620 0.91572 0.73939
 C566 C 0.40491 0.89656 0.72132
 C567 C 0.41829 0.87850 0.73161
 C568 C 0.42162 0.88141 0.75895
 C569 C 0.39574 0.88340 0.76910
 C570 C 0.38235 0.90147 0.75880
 C571 C 0.41938 0.92468 0.75195
 C572 C 0.43270 0.90670 0.76219
 C573 C 0.38259 0.93576 0.72847
 C574 C 0.37316 0.95340 0.71973
 C575 C 0.43668 0.86267 0.77029
 C576 C 0.45031 0.84881 0.78026
 H577 H 0.40084 0.89707 0.70217
 H578 H 0.42568 0.86354 0.72129
 H579 H 0.38854 0.87161 0.78306
 H580 H 0.36369 0.90518 0.76393
 H581 H 0.42487 0.94356 0.75274
 H582 H 0.44959 0.91021 0.77173
 C583 C 0.59720 0.92071 0.26415
 C584 C 0.61235 0.90385 0.24813
 C585 C 0.59886 0.88669 0.23651
 C586 C 0.57158 0.88812 0.24208
 C587 C 0.56430 0.91416 0.23579
 C588 C 0.57772 0.93124 0.24736
 C589 C 0.58333 0.90381 0.28131
 C590 C 0.56983 0.88664 0.26968
 C591 C 0.61127 0.93989 0.27600
 C592 C 0.62189 0.95713 0.28418
 C593 C 0.55662 0.87037 0.22913
 C594 C 0.54338 0.85726 0.21773
 H595 H 0.63194 0.90519 0.24618
 H596 H 0.60689 0.87334 0.22459
 H597 H 0.54980 0.91881 0.22331
 H598 H 0.57471 0.95050 0.24477
 H599 H 0.58411 0.90514 0.30082
 H600 H 0.55903 0.87325 0.27923
 C601 C 0.39707 0.25799 0.91841
 C602 C 0.40676 0.27598 0.89958
 C603 C 0.42008 0.26535 0.88178
 C604 C 0.42237 0.23778 0.88459
 C605 C 0.39611 0.22841 0.88606
 C606 C 0.38278 0.23905 0.90388
 C607 C 0.41961 0.24457 0.92766
 C608 C 0.43287 0.23399 0.90994
 C609 C 0.38354 0.26927 0.93820
 C610 C 0.37419 0.27828 0.95566
 C611 C 0.43741 0.22604 0.86618
 C612 C 0.45114 0.21571 0.85277
 H613 H 0.40337 0.29533 0.90013
 H614 H 0.42810 0.27558 0.86707
 H615 H 0.38863 0.21472 0.87413
 H616 H 0.36388 0.23449 0.90723
 H617 H 0.42473 0.24345 0.94654
 H618 H 0.44933 0.22382 0.91368
 C619 C 0.59753 0.73084 0.91853
 C620 C 0.57813 0.74890 0.92681
 C621 C 0.56592 0.75962 0.90838
 C622 C 0.57423 0.75131 0.88334
 C623 C 0.57165 0.72361 0.88376
 C624 C 0.58393 0.71283 0.90229
 C625 C 0.61399 0.74532 0.90139
 C626 C 0.60172 0.75610 0.88287
 C627 C 0.61030 0.71991 0.93907
 C628 C 0.61998 0.71243 0.95711
 C629 C 0.56045 0.76346 0.86415
 C630 C 0.54784 0.77446 0.85012
 H631 H 0.57428 0.75291 0.94558
 H632 H 0.55163 0.77281 0.91140
 H633 H 0.56120 0.71338 0.87063
 H634 H 0.58399 0.69336 0.90505
 H635 H 0.63354 0.74688 0.90356
 H636 H 0.61075 0.76688 0.86917
 C637 C 0.39219 0.74285 0.07806
 C638 C 0.37813 0.76237 0.09192
 C639 C 0.39172 0.77374 0.10916
 C640 C 0.41798 0.76442 0.11077
 C641 C 0.42819 0.76718 0.08521
 C642 C 0.41467 0.75587 0.06807
 C643 C 0.40205 0.72564 0.09750
 C644 C 0.41563 0.73699 0.11472
 C645 C 0.37844 0.73077 0.05886
 C646 C 0.36913 0.72117 0.04167
 C647 C 0.43322 0.77679 0.12865
 C648 C 0.44688 0.78729 0.14205
 H649 H 0.35921 0.76680 0.08857
 H650 H 0.38444 0.78792 0.12058
 H651 H 0.44463 0.77718 0.08092
 H652 H 0.41956 0.75621 0.04911
 H653 H 0.39859 0.70628 0.09778
 H654 H 0.42380 0.72737 0.12975
 C655 C 0.60660 0.25994 0.07865
 C656 C 0.61977 0.23932 0.09185
 C657 C 0.60618 0.22884 0.10960
 C658 C 0.58079 0.24005 0.11235
 C659 C 0.56926 0.23828 0.08723
 C660 C 0.58278 0.24870 0.06957
 C661 C 0.59894 0.27767 0.09855
 C662 C 0.58535 0.26720 0.11629
 C663 C 0.62040 0.27111 0.05898
 C664 C 0.62990 0.28016 0.04160
 C665 C 0.56555 0.22860 0.13079
 C666 C 0.55184 0.21874 0.14459
 H667 H 0.63814 0.23353 0.08769
 H668 H 0.61289 0.21406 0.12067
 H669 H 0.55193 0.22956 0.08360
 H670 H 0.57703 0.24889 0.05083
 H671 H 0.60383 0.29672 0.09873
 H672 H 0.57860 0.27727 0.13167
 C673 C 0.25807 0.07457 0.60285
 C674 C 0.27527 0.09259 0.59042
 C675 C 0.26352 0.10981 0.57718
 C676 C 0.23572 0.10732 0.57767
 C677 C 0.22894 0.10752 0.60454
 C678 C 0.24071 0.09027 0.61780
 C679 C 0.24232 0.06420 0.58246
 C680 C 0.23062 0.08136 0.56927
 C681 C 0.27055 0.05537 0.61633
 C682 C 0.28042 0.03823 0.62561
 C683 C 0.22289 0.12528 0.56286
 C684 C 0.21199 0.13886 0.54968
 H685 H 0.29493 0.09194 0.59196
 H686 H 0.27311 0.12390 0.56738
 H687 H 0.21611 0.12012 0.61245
 H688 H 0.23797 0.08810 0.63705
 H689 H 0.24050 0.04499 0.57870
 H690 H 0.21879 0.07682 0.55424
 C691 C 0.72828 0.08410 0.40364
 C692 C 0.74960 0.07574 0.41941
 C693 C 0.75994 0.09382 0.43247
 C694 C 0.74802 0.11860 0.42856
 C695 C 0.72099 0.11462 0.43423
 C696 C 0.71059 0.09645 0.42110
 C697 C 0.73865 0.10470 0.38809
 C698 C 0.74905 0.12287 0.40122
 C699 C 0.71780 0.06398 0.38987
 C700 C 0.71073 0.04630 0.37924
 C701 C 0.75975 0.13746 0.44310
 C702 C 0.77041 0.15146 0.45599
 H703 H 0.75603 0.05718 0.42025
 H704 H 0.77523 0.09073 0.44448
 H705 H 0.71090 0.12518 0.44731
 H706 H 0.69160 0.09143 0.42293
 H707 H 0.73781 0.10503 0.36854
 H708 H 0.75712 0.13877 0.39292
 C709 C 0.74355 0.92253 0.60158
 C710 C 0.76284 0.90800 0.61542
 C711 C 0.77476 0.89149 0.60147
 C712 C 0.76619 0.89118 0.57509
 C713 C 0.76906 0.91738 0.56635
 C714 C 0.75720 0.93380 0.58023
 C715 C 0.72672 0.90343 0.59029
 C716 C 0.73863 0.88694 0.57635
 C717 C 0.73090 0.94097 0.61586
 C718 C 0.72088 0.95755 0.62586
 C719 C 0.77920 0.87405 0.55956
 C720 C 0.79030 0.86124 0.54587
 H721 H 0.76672 0.91039 0.63446
 H722 H 0.78887 0.87974 0.60857
 H723 H 0.77953 0.92260 0.55060
 H724 H 0.75753 0.95308 0.57634
 H725 H 0.70720 0.90285 0.59307
 H726 H 0.72931 0.87224 0.56719
 C727 C 0.27160 0.91710 0.40103
 C728 C 0.25443 0.90175 0.38540
 C729 C 0.24424 0.88272 0.39742
 C730 C 0.25223 0.88093 0.42389
 C731 C 0.24616 0.90570 0.43482
 C732 C 0.25631 0.92465 0.42284
 C733 C 0.29033 0.89912 0.41109
 C734 C 0.28013 0.88007 0.42313
 C735 C 0.28193 0.93812 0.38846
 C736 C 0.28903 0.95638 0.37882
 C737 C 0.24071 0.86113 0.43737
 C738 C 0.23020 0.84647 0.44968
 H739 H 0.25069 0.90544 0.36653
 H740 H 0.23177 0.87012 0.38886
 H741 H 0.23486 0.90815 0.45066
 H742 H 0.25369 0.94330 0.42843
 H743 H 0.30983 0.90113 0.40890
 H744 H 0.29089 0.86575 0.43125
 C745 C 0.08231 0.40155 0.73077
 C746 C 0.10480 0.38598 0.73620
 C747 C 0.12318 0.39848 0.74719
 C748 C 0.11720 0.42527 0.75161
 C749 C 0.09343 0.42500 0.76601
 C750 C 0.07516 0.41258 0.75510
 C751 C 0.09186 0.42292 0.71579
 C752 C 0.11021 0.43540 0.72675
 C753 C 0.06188 0.38854 0.71969
 C754 C 0.04377 0.37872 0.71224
 C755 C 0.13619 0.43923 0.76401
 C756 C 0.15006 0.45181 0.77529
 H757 H 0.10619 0.36690 0.73175
 H758 H 0.14032 0.39012 0.75215
 H759 H 0.09114 0.43381 0.78336
 H760 H 0.05725 0.41077 0.76310
 H761 H 0.08491 0.42776 0.69810
 H762 H 0.11898 0.45093 0.71845
 C763 C 0.07887 0.59908 0.25762
 C764 C 0.09692 0.58724 0.27518
 C765 C 0.11406 0.57336 0.26408
 C766 C 0.11146 0.57268 0.23653
 C767 C 0.11186 0.59934 0.22858
 C768 C 0.09470 0.61324 0.23969
 C769 C 0.06823 0.57801 0.24300
 C770 C 0.08530 0.56418 0.23195
 C771 C 0.05977 0.61331 0.26941
 C772 C 0.04280 0.62334 0.27883
 C773 C 0.12926 0.55716 0.22434
 C774 C 0.14244 0.54336 0.21378
 H775 H 0.09634 0.58963 0.29459
 H776 H 0.12816 0.56385 0.27399
 H777 H 0.12453 0.60666 0.21547
 H778 H 0.09267 0.63246 0.23610
 H779 H 0.04891 0.57427 0.24143
 H780 H 0.08058 0.54862 0.22093
 C781 C 0.91340 0.40237 0.27137
 C782 C 0.89733 0.41619 0.28929
 C783 C 0.87911 0.42904 0.27852
 C784 C 0.87880 0.42677 0.25092
 C785 C 0.87751 0.39946 0.24595
 C786 C 0.89572 0.38661 0.25671
 C787 C 0.92247 0.42164 0.25359
 C788 C 0.90435 0.43442 0.24288
 C789 C 0.93359 0.38891 0.28230
 C790 C 0.95133 0.37856 0.28983
 C791 C 0.85990 0.44109 0.23884
 C792 C 0.84595 0.45396 0.22801
 H793 H 0.89998 0.41584 0.30869
 H794 H 0.86614 0.43971 0.28870
 H795 H 0.86350 0.39095 0.23505
 H796 H 0.89730 0.36710 0.25502
 H797 H 0.94153 0.42498 0.24975
 H798 H 0.90791 0.44870 0.22987
 C799 C 0.92264 0.60274 0.73465
 C800 C 0.90921 0.58422 0.71885
 C801 C 0.89178 0.57149 0.73094
 C802 C 0.88952 0.57854 0.75762
 C803 C 0.88514 0.60600 0.75750
 C804 C 0.90259 0.61875 0.74540
 C805 C 0.93249 0.58805 0.75602
 C806 C 0.91515 0.57538 0.76805
 C807 C 0.94215 0.61597 0.72232
 C808 C 0.95974 0.62584 0.71384
 C809 C 0.87148 0.56435 0.77108
 C810 C 0.85816 0.55167 0.78288
 H811 H 0.91298 0.58143 0.69985
 H812 H 0.88062 0.55778 0.72228
 H813 H 0.86971 0.61465 0.76606
 H814 H 0.90209 0.63832 0.74359
 H815 H 0.95151 0.58765 0.76127
 H816 H 0.91933 0.56415 0.78359
 C817 C 0.74353 0.60715 0.92412
 C818 C 0.75717 0.58486 0.93354
 C819 C 0.76832 0.57186 0.91598
 C820 C 0.76481 0.58234 0.89059
 C821 C 0.77379 0.60865 0.89232
 C822 C 0.76258 0.62171 0.90998
 C823 C 0.72597 0.59728 0.90493
 C824 C 0.73716 0.58423 0.88729
 C825 C 0.73158 0.62043 0.94368
 C826 C 0.72193 0.62965 0.96087
 C827 C 0.77706 0.56764 0.87225
 C828 C 0.78758 0.55428 0.85864
 H829 H 0.75802 0.57972 0.95243
 H830 H 0.77870 0.55560 0.91984
 H831 H 0.78765 0.61634 0.88068
 H832 H 0.76683 0.64059 0.91348
 H833 H 0.70648 0.60035 0.90514
 H834 H 0.72728 0.57612 0.87239
 C835 C 0.26870 0.39970 0.91592
 C836 C 0.28661 0.41179 0.89841
 C837 C 0.27550 0.42454 0.88040
 C838 C 0.24761 0.42391 0.88174
 C839 C 0.24149 0.43302 0.90712
 C840 C 0.25254 0.42034 0.92503
 C841 C 0.25201 0.38418 0.89996
 C842 C 0.24091 0.39692 0.88197
 C843 C 0.27997 0.38639 0.93591
 C844 C 0.28771 0.37623 0.95357
 C845 C 0.23513 0.43812 0.86311
 C846 C 0.22392 0.45092 0.84945
 H847 H 0.30623 0.41039 0.89996
 H848 H 0.28560 0.43407 0.86652
 H849 H 0.22950 0.44819 0.91074
 H850 H 0.25000 0.42465 0.94395
 H851 H 0.24924 0.36487 0.90249
 H852 H 0.22864 0.38853 0.86910
 C853 C 0.26410 0.59483 0.07999
 C854 C 0.28135 0.58095 0.09683
 C855 C 0.26956 0.56749 0.11387
 C856 C 0.24173 0.56928 0.11233
 C857 C 0.23544 0.56208 0.08637
 C858 C 0.24716 0.57546 0.06942
 C859 C 0.24793 0.60992 0.09677
 C860 C 0.23616 0.59647 0.11379
 C861 C 0.27611 0.60889 0.06097
 C862 C 0.28440 0.61955 0.04388
 C863 C 0.22860 0.55439 0.12995
 C864 C 0.21703 0.54126 0.14299
 H865 H 0.30102 0.58169 0.09555
 H866 H 0.27914 0.55670 0.12719
 H867 H 0.22285 0.54766 0.08167
 H868 H 0.24460 0.57250 0.05023
 H869 H 0.24598 0.62943 0.09546
 H870 H 0.22412 0.60446 0.12706
 C871 C 0.72948 0.40509 0.08532
 C872 C 0.74599 0.38928 0.10119
 C873 C 0.75654 0.40159 0.11978
 C874 C 0.74954 0.42846 0.12066
 C875 C 0.72163 0.42868 0.12140
 C876 C 0.71106 0.41636 0.10278
 C877 C 0.74562 0.42622 0.07718
 C878 C 0.75613 0.43847 0.09569
 C879 C 0.71879 0.39223 0.06474
 C880 C 0.71150 0.38238 0.04674
 C881 C 0.76146 0.44223 0.13996
 C882 C 0.77228 0.45473 0.15419
 H883 H 0.74902 0.37011 0.09816
 H884 H 0.76862 0.39296 0.13267
 H885 H 0.71112 0.43763 0.13532
 H886 H 0.69149 0.41476 0.10075
 H887 H 0.74852 0.43117 0.05845
 H888 H 0.76803 0.45390 0.09279
 C889 C 0.92730 0.74551 0.60180
 C890 C 0.91358 0.76544 0.61542
 C891 C 0.89644 0.77688 0.60172
 C892 C 0.89476 0.76721 0.57580
 C893 C 0.89033 0.73988 0.57850
 C894 C 0.90746 0.72846 0.59219
 C895 C 0.93766 0.75805 0.57937
 C896 C 0.92061 0.76942 0.56574
 C897 C 0.94637 0.73334 0.61573
 C898 C 0.96335 0.72354 0.62536
 C899 C 0.87700 0.77965 0.56048
 C900 C 0.86376 0.79026 0.54676
 H901 H 0.91696 0.77010 0.63413
 H902 H 0.88512 0.79134 0.60870
 H903 H 0.87506 0.73037 0.57046
 H904 H 0.90686 0.70916 0.59588
 H905 H 0.95680 0.75802 0.57459
 H906 H 0.92515 0.77912 0.54931
 C907 C 0.91212 0.26152 0.39864
 C908 C 0.89737 0.24207 0.38528
 C909 C 0.87905 0.23237 0.39879
 C910 C 0.87735 0.24310 0.42427
 C911 C 0.87499 0.27054 0.42048
 C912 C 0.89330 0.28024 0.40698
 C913 C 0.92090 0.24916 0.42183
 C914 C 0.90268 0.23951 0.43526
 C915 C 0.93241 0.27178 0.38491
 C916 C 0.95026 0.27999 0.37534
 C917 C 0.85839 0.23234 0.43944
 C918 C 0.84443 0.22271 0.45316
 H919 H 0.90092 0.23650 0.36686
 H920 H 0.86689 0.21847 0.39194
 H921 H 0.86023 0.28135 0.42766
 H922 H 0.89422 0.29938 0.40258
 H923 H 0.93985 0.24808 0.42725
 H924 H 0.90604 0.23018 0.45218
 C925 C 0.07504 0.25537 0.60677
 C926 C 0.08775 0.23458 0.62017
 C927 C 0.10522 0.22335 0.60680
 C928 C 0.10820 0.23405 0.58140
 C929 C 0.11308 0.26114 0.58537
 C930 C 0.09562 0.27236 0.59872
 C931 C 0.06538 0.24400 0.58342
 C932 C 0.08276 0.23284 0.57013
 C933 C 0.05566 0.26737 0.62033
 C934 C 0.03853 0.27714 0.62969
 C935 C 0.12631 0.22184 0.56636
 C936 C 0.13971 0.21144 0.55270
 H937 H 0.08347 0.22923 0.63852
 H938 H 0.11593 0.20836 0.61369
 H939 H 0.12887 0.27063 0.57839
 H940 H 0.09645 0.29148 0.60320
 H941 H 0.04647 0.24465 0.57781
 H942 H 0.07873 0.22393 0.55313
 C943 C 0.08901 0.72785 0.39870
 C944 C 0.08049 0.74539 0.41834
 C945 C 0.09896 0.75602 0.43068
 C946 C 0.12428 0.74815 0.42226
 C947 C 0.12471 0.75354 0.39511
 C948 C 0.10614 0.74285 0.38270
 C949 C 0.10555 0.70970 0.41178
 C950 C 0.12413 0.72039 0.42420
 C951 C 0.06839 0.71705 0.38581
 C952 C 0.05018 0.70979 0.37610
 C953 C 0.14350 0.76019 0.43616
 C954 C 0.15758 0.77107 0.44882
 H955 H 0.06153 0.74913 0.42224
 H956 H 0.09579 0.76887 0.44514
 H957 H 0.13841 0.76466 0.38639
 H958 H 0.10394 0.74481 0.36335
 H959 H 0.10295 0.69021 0.41128
 H960 H 0.13746 0.71007 0.43433
 C961 C 0.59853 0.91547 0.73264
 C962 C 0.58661 0.89775 0.71486
 C963 C 0.57371 0.87971 0.72586
 C964 C 0.57404 0.88123 0.75352
 C965 C 0.56480 0.90674 0.75935
 C966 C 0.57763 0.92468 0.74841
 C967 C 0.61395 0.89957 0.74946
 C968 C 0.60107 0.88155 0.76044
 C969 C 0.61198 0.93552 0.72149
 C970 C 0.62217 0.95329 0.71386
 C971 C 0.55969 0.86252 0.76584
 C972 C 0.54687 0.84866 0.77684
 H973 H 0.58822 0.89919 0.69541
 H974 H 0.56426 0.86569 0.71582
 H975 H 0.54945 0.91042 0.77106
 H976 H 0.57325 0.94370 0.75077
 H977 H 0.63330 0.90216 0.75240
 H978 H 0.60936 0.86871 0.77278
 C979 C 0.39386 0.92558 0.25708
 C980 C 0.41617 0.93483 0.24330
 C981 C 0.42919 0.91701 0.23252
 C982 C 0.41872 0.89156 0.23651
 C983 C 0.39228 0.89308 0.22766
 C984 C 0.37919 0.91100 0.23850
 C985 C 0.40385 0.90666 0.27481
 C986 C 0.41693 0.88876 0.26399
 C987 C 0.38057 0.94541 0.26860
 C988 C 0.37137 0.96284 0.27792
 C989 C 0.43345 0.87298 0.22463
 C990 C 0.44683 0.85922 0.21430
 H991 H 0.42130 0.95379 0.24209
 H992 H 0.44547 0.92072 0.22209
 H993 H 0.38453 0.88111 0.21417
 H994 H 0.36022 0.91439 0.23430
 H995 H 0.40083 0.90722 0.29414
 H996 H 0.42513 0.87398 0.27403
 C997 C 0.60584 0.08109 0.25779
 C998 C 0.62028 0.09686 0.24002
 C999 C 0.60678 0.11486 0.22975
 C1000 C 0.58023 0.11526 0.23830
 C1001 C 0.58168 0.11692 0.26589
 C1002 C 0.59516 0.09893 0.27615
 C1003 C 0.58394 0.07184 0.24335
 C1004 C 0.57051 0.08974 0.23313
 C1005 C 0.61952 0.06113 0.26868
 C1006 C 0.62893 0.04350 0.27743
 C1007 C 0.56509 0.13391 0.22700
 C1008 C 0.55145 0.14775 0.21706
 H1009 H 0.63938 0.09417 0.23594
 H1010 H 0.61432 0.12763 0.21686
 H1011 H 0.57298 0.13100 0.27641
 H1012 H 0.59801 0.09761 0.29548
 H1013 H 0.57936 0.05281 0.24129
 H1014 H 0.55444 0.08604 0.22235
 C1015 C 0.40366 0.07772 0.73373
 C1016 C 0.42317 0.06759 0.75074
 C1017 C 0.43615 0.08494 0.76243
 C1018 C 0.42842 0.11083 0.75603
 C1019 C 0.40105 0.11173 0.76132
 C1020 C 0.38802 0.09430 0.74958
 C1021 C 0.41737 0.09487 0.71670
 C1022 C 0.43041 0.11231 0.72844
 C1023 C 0.39002 0.05832 0.72171
 C1024 C 0.37964 0.04104 0.71329
 C1025 C 0.44284 0.12899 0.76904
 C1026 C 0.45557 0.14268 0.78035
 H1027 H 0.42653 0.04839 0.75337
 H1028 H 0.45060 0.08060 0.77506
 H1029 H 0.39264 0.12492 0.77315
 H1030 H 0.36844 0.09257 0.75136
 H1031 H 0.41684 0.09349 0.69718
 H1032 H 0.44105 0.12588 0.71898
 C1033 C 0.59942 0.74248 0.07957
 C1034 C 0.58967 0.72488 0.09874
 C1035 C 0.57598 0.73584 0.11607
 C1036 C 0.57341 0.76329 0.11250
 C1037 C 0.56322 0.76629 0.08692
 C1038 C 0.57685 0.75539 0.06967
 C1039 C 0.61329 0.76195 0.09378
 C1040 C 0.59959 0.77291 0.11113
 C1041 C 0.61345 0.73087 0.06030
 C1042 C 0.62336 0.72166 0.04325
 C1043 C 0.55811 0.77537 0.13049
 C1044 C 0.54445 0.78597 0.14378
 H1045 H 0.59328 0.70556 0.09875
 H1046 H 0.56786 0.72591 0.13092
 H1047 H 0.54669 0.77615 0.08271
 H1048 H 0.57197 0.75593 0.05070
 H1049 H 0.63217 0.76665 0.09058
 H1050 H 0.60676 0.78700 0.12278
 C1051 C 0.40452 0.26772 0.07956
 C1052 C 0.38861 0.25241 0.09647
 C1053 C 0.40131 0.24152 0.11462
 C1054 C 0.42866 0.24703 0.11406
 C1055 C 0.43050 0.27480 0.11430
 C1056 C 0.41779 0.28570 0.09613
 C1057 C 0.42432 0.25039 0.07069
 C1058 C 0.43697 0.23956 0.08876
 C1059 C 0.39123 0.27878 0.05943
 C1060 C 0.38102 0.28640 0.04173
 C1061 C 0.44282 0.23476 0.13289
 C1062 C 0.45553 0.22365 0.14674
 H1063 H 0.36908 0.25039 0.09443
 H1064 H 0.39267 0.23018 0.12813
 H1065 H 0.44079 0.28498 0.12758
 H1066 H 0.41719 0.30521 0.09384
 H1067 H 0.42812 0.24694 0.05180
 H1068 H 0.45158 0.22683 0.08532
 C1069 C 0.59968 0.26700 0.91913
 C1070 C 0.58032 0.24985 0.92939
 C1071 C 0.56732 0.23796 0.91224
 C1072 C 0.57487 0.24430 0.88640
 C1073 C 0.60226 0.23915 0.88538
 C1074 C 0.61532 0.25109 0.90260
 C1075 C 0.58577 0.28396 0.90205
 C1076 C 0.57271 0.27200 0.88481
 C1077 C 0.61332 0.27919 0.93836
 C1078 C 0.62362 0.28759 0.95564
 C1079 C 0.56040 0.23103 0.86851
 C1080 C 0.54763 0.21945 0.85510
 H1081 H 0.57707 0.24728 0.94853
 H1082 H 0.55296 0.22521 0.91671
 H1083 H 0.61067 0.22726 0.87225
 H1084 H 0.63492 0.24944 0.90422
 H1085 H 0.58621 0.30357 0.90332
 H1086 H 0.56194 0.28138 0.87131
 C1087 C 0.40119 0.73101 0.91850
 C1088 C 0.38536 0.74601 0.90123
 C1089 C 0.39822 0.75692 0.88321
 C1090 C 0.42560 0.75173 0.88428
 C1091 C 0.42769 0.72399 0.88427
 C1092 C 0.41482 0.71307 0.90230
 C1093 C 0.42071 0.74864 0.92758
 C1094 C 0.43351 0.75950 0.90965
 C1095 C 0.38773 0.71991 0.93845
 C1096 C 0.37737 0.71225 0.95600
 C1097 C 0.43990 0.76394 0.86556
 C1098 C 0.45270 0.77483 0.85165
 H1099 H 0.36580 0.74782 0.90294
 H1100 H 0.38968 0.76807 0.86949
 H1101 H 0.43825 0.71383 0.87123
 H1102 H 0.41436 0.69357 0.90472
 H1103 H 0.42420 0.75228 0.94651
 H1104 H 0.44795 0.77244 0.91323
 C1105 C 0.74510 0.92358 0.39400
 C1106 C 0.76311 0.90815 0.37953
 C1107 C 0.77487 0.89118 0.39315
 C1108 C 0.76741 0.89139 0.41984
 C1109 C 0.73966 0.88836 0.41968
 C1110 C 0.72792 0.90530 0.40608
 C1111 C 0.76013 0.93434 0.41470
 C1112 C 0.77182 0.91747 0.42824
 C1113 C 0.73261 0.94250 0.38021
 C1114 C 0.72264 0.95948 0.37082
 C1115 C 0.78021 0.87386 0.43510
 C1116 C 0.79113 0.86088 0.44881
 H1117 H 0.76628 0.91030 0.36034
 H1118 H 0.78812 0.87878 0.38562
 H1119 H 0.73010 0.87413 0.42930
 H1120 H 0.70830 0.90557 0.40405
 H1121 H 0.76150 0.95360 0.41840
 H1122 H 0.78318 0.92230 0.44353
 C1123 C 0.27261 0.91383 0.59458
 C1124 C 0.29112 0.89624 0.58359
 C1125 C 0.28066 0.87771 0.57099
 C1126 C 0.25275 0.87867 0.57067
 C1127 C 0.24655 0.90386 0.56077
 C1128 C 0.25695 0.92229 0.57330
 C1129 C 0.25568 0.89790 0.60988
 C1130 C 0.24523 0.87940 0.59729
 C1131 C 0.28320 0.93430 0.60775
 C1132 C 0.29047 0.95217 0.61793
 C1133 C 0.24098 0.85945 0.55663
 C1134 C 0.23035 0.84524 0.54394
 H1135 H 0.31066 0.89813 0.58557
 H1136 H 0.29123 0.86372 0.56218
 H1137 H 0.23497 0.90697 0.54519
 H1138 H 0.25429 0.94116 0.56845
 H1139 H 0.25228 0.90084 0.62892
 H1140 H 0.23288 0.86649 0.60555
 C1141 C 0.25618 0.07963 0.39782
 C1142 C 0.24321 0.06916 0.41997
 C1143 C 0.23184 0.08610 0.43362
 C1144 C 0.23447 0.11197 0.42388
 C1145 C 0.22504 0.11075 0.39782
 C1146 C 0.23648 0.09372 0.38409
 C1147 C 0.27340 0.09907 0.40789
 C1148 C 0.26197 0.11609 0.42161
 C1149 C 0.26833 0.06067 0.38383
 C1150 C 0.27806 0.04378 0.37405
 C1151 C 0.22198 0.12959 0.43926
 C1152 C 0.21126 0.14260 0.45307
 H1153 H 0.24296 0.05003 0.42454
 H1154 H 0.22187 0.08146 0.44987
 H1155 H 0.21074 0.12229 0.39076
 H1156 H 0.23198 0.09066 0.36528
 H1157 H 0.29282 0.09949 0.40447
 H1158 H 0.27160 0.13108 0.42994
 C1159 C 0.72730 0.08398 0.59947
 C1160 C 0.74612 0.07612 0.58071
 C1161 C 0.75655 0.09489 0.56872
 C1162 C 0.74720 0.11981 0.57658
 C1163 C 0.75135 0.12064 0.60394
 C1164 C 0.74087 0.10178 0.61599
 C1165 C 0.70900 0.09958 0.58546
 C1166 C 0.71948 0.11846 0.57339
 C1167 C 0.71673 0.06310 0.61202
 C1168 C 0.70957 0.04485 0.62161
 C1169 C 0.75908 0.13932 0.56302
 C1170 C 0.76999 0.15349 0.55053
 H1171 H 0.75086 0.05739 0.57713
 H1172 H 0.77021 0.09219 0.55487
 H1173 H 0.76151 0.13482 0.61303
 H1174 H 0.74205 0.09979 0.63543
 H1175 H 0.68957 0.09616 0.58510
 H1176 H 0.70903 0.13122 0.56270
 C1177 C 0.91684 0.59787 0.27061
 C1178 C 0.92488 0.57742 0.25375
 C1179 C 0.90611 0.56537 0.24327
 C1180 C 0.88100 0.57487 0.25060
 C1181 C 0.88156 0.60199 0.24454
 C1182 C 0.90042 0.61410 0.25507
 C1183 C 0.89967 0.58576 0.28881
 C1184 C 0.88079 0.57364 0.27827
 C1185 C 0.93773 0.61046 0.28127
 C1186 C 0.95605 0.61999 0.28855
 C1187 C 0.86143 0.56128 0.23872
 C1188 C 0.84701 0.54886 0.22797
 H1189 H 0.94373 0.57276 0.25035
 H1190 H 0.90891 0.55040 0.23090
 H1191 H 0.86829 0.61091 0.23309
 H1192 H 0.90331 0.63340 0.25264
 H1193 H 0.90208 0.58667 0.30822
 H1194 H 0.86702 0.56417 0.28865
 C1195 C 0.92103 0.39932 0.74356
 C1196 C 0.90379 0.41205 0.72584
 C1197 C 0.88663 0.42598 0.73683
 C1198 C 0.88842 0.42579 0.76445
 C1199 C 0.91459 0.43357 0.77005
 C1200 C 0.93168 0.41970 0.75910
 C1201 C 0.90438 0.38498 0.76060
 C1202 C 0.88719 0.39892 0.77161
 C1203 C 0.94014 0.38511 0.73188
 C1204 C 0.95715 0.37515 0.72251
 C1205 C 0.87066 0.44138 0.77650
 C1206 C 0.85759 0.45534 0.78695
 H1207 H 0.90489 0.41020 0.70639
 H1208 H 0.87303 0.43607 0.72680
 H1209 H 0.91932 0.44869 0.78166
 H1210 H 0.95103 0.42295 0.76135
 H1211 H 0.90589 0.36562 0.76368
 H1212 H 0.87397 0.39152 0.78413
 C1213 C 0.08350 0.60472 0.74027
 C1214 C 0.08750 0.60970 0.76719
 C1215 C 0.10508 0.59561 0.77732
 C1216 C 0.11691 0.57792 0.75953
 C1217 C 0.12623 0.59383 0.73876
 C1218 C 0.10861 0.60796 0.72860
 C1219 C 0.07820 0.57748 0.73868
 C1220 C 0.09572 0.56343 0.74878
 C1221 C 0.06395 0.61910 0.72949
 C1222 C 0.04660 0.62914 0.72080
 C1223 C 0.13513 0.56216 0.77069
 C1224 C 0.14866 0.54811 0.78046
 H1225 H 0.07751 0.62319 0.77736
 H1226 H 0.11014 0.59702 0.79620
 H1227 H 0.14495 0.59401 0.73263
 H1228 H 0.11222 0.62027 0.71376
 H1229 H 0.06207 0.56987 0.73028
 H1230 H 0.09459 0.54380 0.74903
 C1231 C 0.07445 0.39308 0.25785
 C1232 C 0.06440 0.41420 0.24289
 C1233 C 0.08183 0.42733 0.23148
 C1234 C 0.10771 0.41814 0.23608
 C1235 C 0.10721 0.39135 0.22863
 C1236 C 0.08968 0.37814 0.24010
 C1237 C 0.09297 0.40467 0.27508
 C1238 C 0.11047 0.41785 0.26363
 C1239 C 0.05497 0.37970 0.27004
 C1240 C 0.03764 0.37060 0.27976
 C1241 C 0.12593 0.43295 0.22361
 C1242 C 0.13965 0.44627 0.21304
 H1243 H 0.04520 0.41846 0.24135
 H1244 H 0.07755 0.44283 0.22019
 H1245 H 0.11956 0.38346 0.21558
 H1246 H 0.08701 0.35894 0.23690
 H1247 H 0.09245 0.40260 0.29454
 H1248 H 0.12494 0.42710 0.27327
   
