data_POSCAR
  _audit_creation_date              2014-09-24
  _audit_creation_method            'ToBaCCo'
  _symmetry_space_group_name_H-M    'P1'
  _symmetry_Int_Tables_number       1
  _symmetry_cell_setting            triclinic
  loop_
  _symmetry_equiv_pos_as_xyz
 x,y,z
_cell_length_a 52.8114
_cell_length_b 35.4971
_cell_length_c 37.0829
_cell_angle_alpha 89.934000
_cell_angle_beta 89.953100
_cell_angle_gamma 89.983500
loop_
  _atom_site_label
  _atom_site_type_symbol
  _atom_site_fract_x
  _atom_site_fract_y
  _atom_site_fract_z
C1 C 0.00110 -0.00017 0.11627
 C2 C 0.00072 -0.00017 -0.12003
 C3 C -0.05788 -0.06185 0.05383
 C4 C -0.05784 0.06138 0.05379
 C5 C -0.05792 -0.06201 -0.05641
 C6 C 0.05899 -0.05873 -0.06022
 C7 C 0.05898 0.05820 -0.06025
 C8 C 0.05886 -0.05843 0.05651
 C9 C -0.05788 0.06166 -0.05634
 C10 C 0.05886 0.05797 0.05644
 O11 O -0.03471 -0.07014 -0.06450
 O12 O -0.06485 -0.03636 -0.03378
 O13 O -0.03468 0.06978 -0.06447
 O14 O -0.06482 0.03596 -0.03374
 O15 O 0.03567 0.06618 0.06442
 O16 O 0.06579 0.03424 0.03196
 O17 O 0.00052 0.03190 -0.10373
 O18 O 0.00053 -0.03228 -0.10372
 O19 O 0.00083 0.03195 0.10009
 O20 O 0.00081 -0.03234 0.10022
 O21 O 0.03571 -0.06685 -0.06796
 O22 O 0.06579 -0.03483 -0.03579
 O23 O -0.03465 -0.06986 0.06187
 O24 O -0.06484 -0.03639 0.03097
 O25 O 0.03568 -0.06666 0.06454
 O26 O 0.06577 -0.03475 0.03196
 O27 O 0.03570 0.06635 -0.06803
 O28 O 0.06578 0.03427 -0.03580
 O29 O 0.00175 0.10542 0.05211
 O30 O 0.00139 0.10523 -0.05701
 O31 O 0.00140 -0.10571 -0.05680
 O32 O 0.00174 -0.10589 0.05252
 O33 O -0.02140 -0.04983 -0.00165
 O34 O -0.02141 0.04934 -0.00174
 O35 O 0.02204 -0.04953 -0.00178
 O36 O -0.02258 -0.00024 0.04637
 O37 O -0.06483 0.03592 0.03098
 O38 O -0.03461 0.06937 0.06175
 O39 O 0.02371 -0.00026 0.04641
 O40 O 0.02370 -0.00025 -0.05024
 O41 O 0.02206 0.04903 -0.00187
 O42 O -0.02268 -0.00022 -0.04969
 Zr43 Zr 0.00049 0.04648 0.04503
 Zr44 Zr 0.00045 -0.04693 -0.04862
 Zr45 Zr -0.04298 -0.00024 -0.00152
 Zr46 Zr 0.00048 -0.04698 0.04516
 Zr47 Zr 0.00046 0.04645 -0.04867
 Zr48 Zr 0.04388 -0.00027 -0.00192
 H49 H 0.03228 -0.07289 -0.00176
 H50 H -0.03385 -0.00024 0.06770
 H51 H 0.03231 0.07237 -0.00189
 H52 H -0.03403 -0.00019 -0.07091
 H53 H -0.00413 0.11628 0.02901
 H54 H 0.00219 0.11647 -0.03266
 H55 H -0.00394 -0.11681 0.02937
 H56 H 0.00172 -0.11695 -0.03240
 C57 C 0.25044 0.24981 0.13113
 C58 C 0.25024 0.24969 0.36743
 C59 C 0.19149 0.31166 0.19425
 C60 C 0.19160 0.18797 0.19425
 C61 C 0.19133 0.31139 0.30458
 C62 C 0.30808 0.30850 0.30739
 C63 C 0.30809 0.19112 0.30741
 C64 C 0.30818 0.30859 0.19164
 C65 C 0.19140 0.18808 0.30432
 C66 C 0.30837 0.19099 0.19163
 O67 O 0.21455 0.31936 0.31266
 O68 O 0.18439 0.28595 0.28173
 O69 O 0.21460 0.18007 0.31248
 O70 O 0.18444 0.21362 0.28156
 O71 O 0.28518 0.18290 0.18355
 O72 O 0.31521 0.21510 0.21581
 O73 O 0.24996 0.21758 0.35130
 O74 O 0.24998 0.28185 0.35131
 O75 O 0.25022 0.21774 0.14745
 O76 O 0.25014 0.28190 0.14738
 O77 O 0.28487 0.31657 0.31543
 O78 O 0.31503 0.28450 0.28316
 O79 O 0.21472 0.31975 0.18630
 O80 O 0.18448 0.28600 0.21687
 O81 O 0.28500 0.31670 0.18354
 O82 O 0.31509 0.28451 0.21581
 O83 O 0.28489 0.18300 0.31545
 O84 O 0.31503 0.21514 0.28318
 O85 O 0.25083 0.14435 0.19429
 O86 O 0.25087 0.14421 0.30394
 O87 O 0.25081 0.35536 0.30369
 O88 O 0.25068 0.35526 0.19411
 O89 O 0.22788 0.29939 0.24931
 O90 O 0.22793 0.20025 0.24932
 O91 O 0.27128 0.29902 0.24937
 O92 O 0.22672 0.24979 0.20124
 O93 O 0.18454 0.21362 0.21683
 O94 O 0.21484 0.17988 0.18638
 O95 O 0.27313 0.24983 0.20098
 O96 O 0.27298 0.24978 0.29774
 O97 O 0.27135 0.20053 0.24942
 O98 O 0.22661 0.24977 0.29734
 Zr99 Zr 0.24990 0.20312 0.20249
 Zr100 Zr 0.24970 0.29647 0.29623
 Zr101 Zr 0.20630 0.24982 0.24927
 Zr102 Zr 0.24980 0.29648 0.20245
 Zr103 Zr 0.24973 0.20308 0.29623
 Zr104 Zr 0.29319 0.24979 0.24942
 H105 H 0.28144 0.32244 0.24941
 H106 H 0.21545 0.24981 0.17993
 H107 H 0.28153 0.17712 0.24947
 H108 H 0.21530 0.24973 0.31863
 H109 H 0.25021 0.13307 0.21866
 H110 H 0.24597 0.13316 0.28049
 H111 H 0.25042 0.36652 0.21848
 H112 H 0.24562 0.36636 0.28032
 C113 C 0.49997 -0.00131 0.11790
 C114 C 0.49973 -0.00153 -0.11756
 C115 C 0.55915 0.05990 0.05539
 C116 C 0.55927 -0.06285 0.05594
 C117 C 0.55926 0.05966 -0.05613
 C118 C 0.44228 0.05720 -0.05771
 C119 C 0.44230 -0.06019 -0.05756
 C120 C 0.44233 0.05748 0.05813
 C121 C 0.55921 -0.06276 -0.05590
 C122 C 0.44211 -0.06049 0.05857
 O123 O 0.53592 0.06765 -0.06388
 O124 O 0.56612 0.03445 -0.03283
 O125 O 0.53589 -0.07078 -0.06362
 O126 O 0.56608 -0.03759 -0.03265
 O127 O 0.46543 -0.06854 0.06636
 O128 O 0.43535 -0.03627 0.03431
 O129 O 0.50010 -0.03370 -0.10150
 O130 O 0.50011 0.03061 -0.10155
 O131 O 0.50028 -0.03350 0.10199
 O132 O 0.50034 0.03077 0.10176
 O133 O 0.46549 0.06528 -0.06585
 O134 O 0.43539 0.03318 -0.03341
 O135 O 0.53592 0.06814 0.06323
 O136 O 0.56613 0.03449 0.03252
 O137 O 0.46556 0.06563 0.06598
 O138 O 0.43540 0.03326 0.03412
 O139 O 0.46549 -0.06833 -0.06565
 O140 O 0.43540 -0.03620 -0.03330
 O141 O 0.50012 -0.10708 0.05529
 O142 O 0.49968 -0.10727 -0.05352
 O143 O 0.49968 0.10417 -0.05379
 O144 O 0.50014 0.10410 0.05477
 O145 O 0.52274 0.04812 0.00002
 O146 O 0.52271 -0.05119 0.00025
 O147 O 0.47913 0.04773 0.00015
 O148 O 0.52382 -0.00151 0.04804
 O149 O 0.56611 -0.03753 0.03275
 O150 O 0.53595 -0.07100 0.06367
 O151 O 0.47751 -0.00148 0.04863
 O152 O 0.47748 -0.00155 -0.04790
 O153 O 0.47913 -0.05081 0.00037
 O154 O 0.52376 -0.00157 -0.04780
 Zr155 Zr 0.50073 -0.04827 0.04711
 Zr156 Zr 0.50073 0.04521 -0.04666
 Zr157 Zr 0.54428 -0.00155 0.00003
 Zr158 Zr 0.50077 0.04527 0.04684
 Zr159 Zr 0.50072 -0.04831 -0.04650
 Zr160 Zr 0.45726 -0.00154 0.00041
 H161 H 0.46896 0.07114 0.00010
 H162 H 0.53506 -0.00147 0.06936
 H163 H 0.46894 -0.07420 0.00041
 H164 H 0.53494 -0.00158 -0.06922
 H165 H 0.49897 -0.11825 0.03093
 H166 H 0.50598 -0.11805 -0.03061
 H167 H 0.49873 0.11522 0.03040
 H168 H 0.50617 0.11494 -0.03101
 C169 C 0.75120 0.24924 0.13275
 C170 C 0.75099 0.24903 0.36820
 C171 C 0.69198 0.31055 0.19483
 C172 C 0.69217 0.18762 0.19493
 C173 C 0.69191 0.31023 0.30607
 C174 C 0.80866 0.30748 0.30884
 C175 C 0.80897 0.19075 0.30899
 C176 C 0.80874 0.30768 0.19218
 C177 C 0.69210 0.18779 0.30593
 C178 C 0.80894 0.19085 0.19213
 O179 O 0.71512 0.31832 0.31410
 O180 O 0.68499 0.28503 0.28296
 O181 O 0.71532 0.17971 0.31400
 O182 O 0.68513 0.21302 0.28286
 O183 O 0.78574 0.18256 0.18433
 O184 O 0.81585 0.21470 0.21650
 O185 O 0.75076 0.21689 0.35216
 O186 O 0.75066 0.28119 0.35214
 O187 O 0.75092 0.21709 0.14879
 O188 O 0.75083 0.28136 0.14876
 O189 O 0.78544 0.31564 0.31673
 O190 O 0.81566 0.28373 0.28441
 O191 O 0.71523 0.31882 0.18705
 O192 O 0.68502 0.28510 0.21772
 O193 O 0.78553 0.31592 0.18437
 O194 O 0.81572 0.28379 0.21652
 O195 O 0.78568 0.18262 0.31678
 O196 O 0.81577 0.21461 0.28444
 O197 O 0.75130 0.14358 0.19572
 O198 O 0.75170 0.14338 0.30432
 O199 O 0.75145 0.35480 0.30418
 O200 O 0.75107 0.35477 0.19568
 O201 O 0.72837 0.29880 0.25041
 O202 O 0.72851 0.19949 0.25044
 O203 O 0.77199 0.29842 0.25043
 O204 O 0.72737 0.24913 0.20244
 O205 O 0.68513 0.21305 0.21775
 O206 O 0.71542 0.17941 0.18718
 O207 O 0.77365 0.24922 0.20222
 O208 O 0.77360 0.24914 0.29864
 O209 O 0.77213 0.19983 0.25046
 O210 O 0.72734 0.24904 0.29826
 Zr211 Zr 0.75050 0.20240 0.20370
 Zr212 Zr 0.75031 0.29584 0.29717
 Zr213 Zr 0.70690 0.24911 0.25034
 Zr214 Zr 0.75036 0.29593 0.20367
 Zr215 Zr 0.75047 0.20234 0.29720
 Zr216 Zr 0.79389 0.24916 0.25045
 H217 H 0.78219 0.32181 0.25049
 H218 H 0.71614 0.24913 0.18110
 H219 H 0.78239 0.17649 0.25053
 H220 H 0.71609 0.24901 0.31961
 H221 H 0.75270 0.13245 0.22009
 H222 H 0.74537 0.13257 0.28148
 H223 H 0.75247 0.36586 0.22004
 H224 H 0.74495 0.36560 0.28139
 C225 C 0.00022 0.50034 0.11744
 C226 C 0.00010 0.50036 -0.11885
 C227 C -0.05855 0.43843 0.05459
 C228 C -0.05864 0.56216 0.05448
 C229 C -0.05869 0.43865 -0.05559
 C230 C 0.05804 0.44218 -0.05885
 C231 C 0.05798 0.55865 -0.05898
 C232 C 0.05814 0.44203 0.05762
 C233 C -0.05871 0.56204 -0.05560
 C234 C 0.05813 0.55891 0.05758
 O235 O -0.03547 0.43070 -0.06375
 O236 O -0.06566 0.46413 -0.03279
 O237 O -0.03550 0.57004 -0.06376
 O238 O -0.06567 0.53650 -0.03281
 O239 O 0.03492 0.56712 0.06548
 O240 O 0.06504 0.53502 0.03322
 O241 O -0.00016 0.53246 -0.10257
 O242 O -0.00012 0.46826 -0.10251
 O243 O -0.00007 0.53248 0.10132
 O244 O -0.00005 0.46822 0.10135
 O245 O 0.03486 0.43398 -0.06682
 O246 O 0.06496 0.46593 -0.03443
 O247 O -0.03531 0.43036 0.06248
 O248 O -0.06559 0.46410 0.03200
 O249 O 0.03495 0.43375 0.06555
 O250 O 0.06504 0.46592 0.03325
 O251 O 0.03479 0.56683 -0.06695
 O252 O 0.06493 0.53494 -0.03450
 O253 O 0.00063 0.60589 0.05436
 O254 O 0.00084 0.60593 -0.05512
 O255 O 0.00095 0.39479 -0.05475
 O256 O 0.00073 0.39488 0.05454
 O257 O -0.02218 0.45077 -0.00048
 O258 O -0.02222 0.54991 -0.00056
 O259 O 0.02128 0.45115 -0.00057
 O260 O -0.02341 0.50036 0.04753
 O261 O -0.06563 0.53648 0.03193
 O262 O -0.03541 0.57029 0.06237
 O263 O 0.02294 0.50040 0.04779
 O264 O 0.02289 0.50039 -0.04886
 O265 O 0.02123 0.54970 -0.00065
 O266 O -0.02347 0.50036 -0.04854
 Zr267 Zr -0.00031 0.54710 0.04627
 Zr268 Zr -0.00034 0.45369 -0.04739
 Zr269 Zr -0.04380 0.50032 -0.00047
 Zr270 Zr -0.00027 0.45367 0.04633
 Zr271 Zr -0.00038 0.54705 -0.04748
 Zr272 Zr 0.04309 0.50044 -0.00056
 H273 H 0.03151 0.42778 -0.00059
 H274 H -0.03471 0.50033 0.06883
 H275 H 0.03144 0.57308 -0.00071
 H276 H -0.03476 0.50036 -0.06982
 H277 H 0.00017 0.61711 0.02996
 H278 H -0.00439 0.61697 -0.03180
 H279 H 0.00085 0.38367 0.03015
 H280 H -0.00460 0.38381 -0.03153
 C281 C 0.25088 0.75077 0.13194
 C282 C 0.25058 0.75101 0.36744
 C283 C 0.19199 0.81286 0.19449
 C284 C 0.19164 0.68926 0.19445
 C285 C 0.19165 0.81266 0.30469
 C286 C 0.30836 0.80943 0.30762
 C287 C 0.30829 0.69201 0.30777
 C288 C 0.30888 0.80952 0.19164
 C289 C 0.19154 0.68938 0.30500
 C290 C 0.30839 0.69183 0.19200
 O291 O 0.21488 0.82061 0.31278
 O292 O 0.18469 0.78719 0.28190
 O293 O 0.21476 0.68140 0.31311
 O294 O 0.18460 0.71484 0.28209
 O295 O 0.28519 0.68376 0.18402
 O296 O 0.31536 0.71595 0.21606
 O297 O 0.25027 0.71886 0.35145
 O298 O 0.25032 0.78314 0.35132
 O299 O 0.25047 0.71866 0.14803
 O300 O 0.25065 0.78292 0.14789
 O301 O 0.28516 0.81759 0.31559
 O302 O 0.31533 0.78540 0.28345
 O303 O 0.21524 0.82091 0.18658
 O304 O 0.18490 0.78725 0.21711
 O305 O 0.28566 0.81773 0.18363
 O306 O 0.31565 0.78538 0.21590
 O307 O 0.28506 0.68401 0.31580
 O308 O 0.31528 0.71600 0.28352
 O309 O 0.25077 0.64532 0.19487
 O310 O 0.25101 0.64530 0.30415
 O311 O 0.25117 0.85655 0.30359
 O312 O 0.25120 0.85639 0.19439
 O313 O 0.22822 0.80049 0.24947
 O314 O 0.22804 0.70128 0.24972
 O315 O 0.27175 0.80012 0.24960
 O316 O 0.22705 0.75097 0.20162
 O317 O 0.18466 0.71491 0.21709
 O318 O 0.21489 0.68108 0.18661
 O319 O 0.27341 0.75075 0.20132
 O320 O 0.27322 0.75085 0.29791
 O321 O 0.27156 0.70159 0.24977
 O322 O 0.22688 0.75097 0.29757
 Zr323 Zr 0.25001 0.70412 0.20296
 Zr324 Zr 0.25002 0.79764 0.29632
 Zr325 Zr 0.20654 0.75095 0.24958
 Zr326 Zr 0.25030 0.79761 0.20275
 Zr327 Zr 0.24992 0.70419 0.29653
 Zr328 Zr 0.29352 0.75078 0.24966
 H329 H 0.28196 0.82349 0.24959
 H330 H 0.21578 0.75099 0.18031
 H331 H 0.28169 0.67812 0.24986
 H332 H 0.21558 0.75101 0.31887
 H333 H 0.25080 0.63411 0.21928
 H334 H 0.24552 0.63429 0.28095
 H335 H 0.25180 0.86765 0.21874
 H336 H 0.24563 0.86748 0.28035
 C337 C 0.49920 0.50007 0.11787
 C338 C 0.49926 0.49992 -0.11761
 C339 C 0.55838 0.56147 0.05542
 C340 C 0.55846 0.43860 0.05575
 C341 C 0.55835 0.56120 -0.05548
 C342 C 0.44164 0.55881 -0.05792
 C343 C 0.44165 0.44121 -0.05767
 C344 C 0.44167 0.55885 0.05788
 C345 C 0.55833 0.43865 -0.05521
 C346 C 0.44170 0.44133 0.05803
 O347 O 0.53515 0.56931 -0.06348
 O348 O 0.56534 0.53594 -0.03244
 O349 O 0.53512 0.43056 -0.06320
 O350 O 0.56533 0.46394 -0.03228
 O351 O 0.46489 0.43315 0.06604
 O352 O 0.43476 0.46542 0.03388
 O353 O 0.49959 0.46779 -0.10150
 O354 O 0.49959 0.53208 -0.10164
 O355 O 0.49956 0.46793 0.10188
 O356 O 0.49955 0.53220 0.10178
 O357 O 0.46485 0.56689 -0.06597
 O358 O 0.43472 0.53476 -0.03368
 O359 O 0.53515 0.56973 0.06322
 O360 O 0.56537 0.53600 0.03263
 O361 O 0.46486 0.56699 0.06584
 O362 O 0.43473 0.53474 0.03379
 O363 O 0.46486 0.43309 -0.06569
 O364 O 0.43473 0.46532 -0.03353
 O365 O 0.49937 0.39449 0.05523
 O366 O 0.49892 0.39434 -0.05387
 O367 O 0.49896 0.60563 -0.05421
 O368 O 0.49933 0.60558 0.05490
 O369 O 0.52198 0.54963 0.00004
 O370 O 0.52200 0.45033 0.00021
 O371 O 0.47845 0.54932 0.00006
 O372 O 0.52312 0.50003 0.04816
 O373 O 0.56542 0.46402 0.03282
 O374 O 0.53522 0.43037 0.06357
 O375 O 0.47681 0.50004 0.04841
 O376 O 0.47679 0.50000 -0.04816
 O377 O 0.47846 0.45076 0.00025
 O378 O 0.52308 0.49997 -0.04775
 Zr379 Zr 0.50008 0.45329 0.04700
 Zr380 Zr 0.50002 0.54672 -0.04672
 Zr381 Zr 0.54352 0.49998 0.00019
 Zr382 Zr 0.50005 0.54677 0.04683
 Zr383 Zr 0.50002 0.45325 -0.04653
 Zr384 Zr 0.45661 0.50006 0.00011
 H385 H 0.46828 0.57274 -0.00002
 H386 H 0.53436 0.50005 0.06949
 H387 H 0.46830 0.42734 0.00023
 H388 H 0.53431 0.49994 -0.06912
 H389 H 0.49883 0.38329 0.03085
 H390 H 0.50468 0.38340 -0.03075
 H391 H 0.49873 0.61677 0.03050
 H392 H 0.50474 0.61657 -0.03112
 C393 C 0.75056 0.75046 0.13202
 C394 C 0.75042 0.75097 0.36747
 C395 C 0.69135 0.81195 0.19388
 C396 C 0.69146 0.68914 0.19448
 C397 C 0.69140 0.81204 0.30515
 C398 C 0.80809 0.80906 0.30792
 C399 C 0.80816 0.69244 0.30828
 C400 C 0.80823 0.80900 0.19126
 C401 C 0.69139 0.68955 0.30554
 C402 C 0.80818 0.69222 0.19160
 O403 O 0.71461 0.82014 0.31314
 O404 O 0.68443 0.78680 0.28215
 O405 O 0.71462 0.68150 0.31357
 O406 O 0.68442 0.71475 0.28240
 O407 O 0.78498 0.68392 0.18382
 O408 O 0.81512 0.71612 0.21588
 O409 O 0.75013 0.71879 0.35152
 O410 O 0.75010 0.78309 0.35132
 O411 O 0.75021 0.71836 0.14815
 O412 O 0.75024 0.78264 0.14794
 O413 O 0.78489 0.81732 0.31580
 O414 O 0.81505 0.78526 0.28354
 O415 O 0.71460 0.82020 0.18606
 O416 O 0.68440 0.78662 0.21691
 O417 O 0.78502 0.81727 0.18338
 O418 O 0.81513 0.78516 0.21569
 O419 O 0.78494 0.68427 0.31622
 O420 O 0.81510 0.71619 0.28376
 O421 O 0.75056 0.64503 0.19525
 O422 O 0.75095 0.64510 0.30386
 O423 O 0.75093 0.85652 0.30316
 O424 O 0.75047 0.85623 0.19466
 O425 O 0.72778 0.80038 0.24954
 O426 O 0.72781 0.70107 0.24987
 O427 O 0.77140 0.80000 0.24954
 O428 O 0.72672 0.75063 0.20174
 O429 O 0.68445 0.71462 0.21725
 O430 O 0.71470 0.68088 0.18671
 O431 O 0.77299 0.75063 0.20147
 O432 O 0.77296 0.75080 0.29790
 O433 O 0.77142 0.70139 0.24987
 O434 O 0.72671 0.75080 0.29757
 Zr435 Zr 0.74979 0.70387 0.20311
 Zr436 Zr 0.74974 0.79755 0.29630
 Zr437 Zr 0.70625 0.75072 0.24968
 Zr438 Zr 0.74977 0.79741 0.20279
 Zr439 Zr 0.74977 0.70404 0.29661
 Zr440 Zr 0.79323 0.75069 0.24970
 H441 H 0.78163 0.82336 0.24953
 H442 H 0.71549 0.75055 0.18041
 H443 H 0.78165 0.67803 0.24998
 H444 H 0.71547 0.75084 0.31893
 H445 H 0.75190 0.63395 0.21965
 H446 H 0.74458 0.63425 0.28104
 H447 H 0.75202 0.86737 0.21898
 H448 H 0.74448 0.86727 0.28033
 C449 C 0.00019 0.00092 0.38162
 C450 C -0.00011 0.00060 0.61775
 C451 C -0.05892 0.06240 0.44413
 C452 C -0.05873 -0.06108 0.44472
 C453 C -0.05887 0.06262 0.55449
 C454 C 0.05785 0.05911 0.55794
 C455 C 0.05783 -0.05747 0.55810
 C456 C 0.05783 0.05907 0.44130
 C457 C -0.05888 -0.06085 0.55475
 C458 C 0.05801 -0.05750 0.44152
 O459 O -0.03567 0.07071 0.56250
 O460 O -0.06584 0.03700 0.53187
 O461 O -0.03568 -0.06885 0.56291
 O462 O -0.06584 -0.03533 0.53195
 O463 O 0.03482 -0.06576 0.43360
 O464 O 0.06488 -0.03366 0.46590
 O465 O -0.00037 -0.03151 0.60163
 O466 O -0.00039 0.03275 0.60161
 O467 O -0.00012 -0.03120 0.39780
 O468 O -0.00015 0.03307 0.39767
 O469 O 0.03464 0.06736 0.56582
 O470 O 0.06478 0.03532 0.53354
 O471 O -0.03569 0.07038 0.43603
 O472 O -0.06586 0.03695 0.46705
 O473 O 0.03465 0.06730 0.43330
 O474 O 0.06475 0.03534 0.46580
 O475 O 0.03463 -0.06569 0.56605
 O476 O 0.06476 -0.03370 0.53362
 O477 O 0.00053 -0.10466 0.44466
 O478 O 0.00071 -0.10484 0.55387
 O479 O 0.00036 0.10627 0.55468
 O480 O 0.00067 0.10651 0.44553
 O481 O -0.02242 0.05042 0.49961
 O482 O -0.02237 -0.04874 0.49966
 O483 O 0.02103 0.05009 0.49962
 O484 O -0.02358 0.00080 0.45157
 O485 O -0.06576 -0.03539 0.46727
 O486 O -0.03549 -0.06917 0.43679
 O487 O 0.02274 0.00087 0.45138
 O488 O 0.02268 0.00079 0.54800
 O489 O 0.02110 -0.04848 0.49972
 O490 O -0.02367 0.00080 0.54764
 Zr491 Zr -0.00043 -0.04588 0.45284
 Zr492 Zr -0.00056 0.04749 0.54651
 Zr493 Zr -0.04398 0.00084 0.49957
 Zr494 Zr -0.00054 0.04757 0.45274
 Zr495 Zr -0.00055 -0.04592 0.54654
 Zr496 Zr 0.04289 0.00082 0.49970
 H497 H 0.03126 0.07345 0.49959
 H498 H -0.03485 0.00074 0.43027
 H499 H 0.03134 -0.07183 0.49979
 H500 H -0.03499 0.00083 0.56892
 H501 H 0.00102 -0.11590 0.46905
 H502 H -0.00493 -0.11575 0.53070
 H503 H -0.00523 0.11736 0.46861
 H504 H 0.00094 0.11750 0.53028
 C505 C 0.25026 0.24917 0.86907
 C506 C 0.25034 0.24912 0.63291
 C507 C 0.19131 0.18733 0.80607
 C508 C 0.19144 0.31108 0.80575
 C509 C 0.19133 0.18760 0.69578
 C510 C 0.30804 0.19042 0.69303
 C511 C 0.30813 0.30780 0.69291
 C512 C 0.30816 0.19018 0.80883
 C513 C 0.19140 0.31088 0.69578
 C514 C 0.30815 0.30789 0.80871
 O515 O 0.21455 0.17956 0.68770
 O516 O 0.18437 0.21306 0.71861
 O517 O 0.21463 0.31883 0.68767
 O518 O 0.18441 0.28537 0.71859
 O519 O 0.28495 0.31601 0.81675
 O520 O 0.31507 0.28377 0.78460
 O521 O 0.25007 0.28125 0.64901
 O522 O 0.25004 0.21698 0.64907
 O523 O 0.24997 0.28127 0.85288
 O524 O 0.24998 0.21702 0.85302
 O525 O 0.28485 0.18234 0.68499
 O526 O 0.31498 0.21438 0.71725
 O527 O 0.21453 0.17923 0.81409
 O528 O 0.18437 0.21299 0.78340
 O529 O 0.28495 0.18210 0.81692
 O530 O 0.31505 0.21430 0.78464
 O531 O 0.28493 0.31587 0.68485
 O532 O 0.31504 0.28378 0.71717
 O533 O 0.25064 0.35457 0.80603
 O534 O 0.25089 0.35470 0.69645
 O535 O 0.25081 0.14352 0.69675
 O536 O 0.25054 0.14361 0.80628
 O537 O 0.22782 0.19953 0.75108
 O538 O 0.22787 0.29868 0.75094
 O539 O 0.27123 0.19986 0.75104
 O540 O 0.22659 0.24913 0.79907
 O541 O 0.18443 0.28537 0.78325
 O542 O 0.21465 0.31914 0.81373
 O543 O 0.27299 0.24907 0.79940
 O544 O 0.27298 0.24908 0.70265
 O545 O 0.27128 0.29834 0.75091
 O546 O 0.22662 0.24915 0.70296
 Zr547 Zr 0.24974 0.29579 0.79781
 Zr548 Zr 0.24968 0.20242 0.70417
 Zr549 Zr 0.20625 0.24914 0.75099
 Zr550 Zr 0.24970 0.20239 0.79797
 Zr551 Zr 0.24974 0.29581 0.70406
 Zr552 Zr 0.29314 0.24908 0.75098
 H553 H 0.28139 0.17644 0.75101
 H554 H 0.21527 0.24916 0.82036
 H555 H 0.28146 0.32174 0.75084
 H556 H 0.21534 0.24918 0.68166
 H557 H 0.25051 0.36584 0.78165
 H558 H 0.24576 0.36571 0.71983
 H559 H 0.25044 0.13236 0.78191
 H560 H 0.24550 0.13254 0.72009
 C561 C 0.49924 0.00032 0.38229
 C562 C 0.49893 0.00001 0.61779
 C563 C 0.55821 -0.06114 0.44475
 C564 C 0.55828 0.06166 0.44481
 C565 C 0.55803 -0.06112 0.55552
 C566 C 0.44141 -0.05834 0.55781
 C567 C 0.44145 0.05894 0.55789
 C568 C 0.44154 -0.05833 0.44211
 C569 C 0.55810 0.06136 0.55563
 C570 C 0.44157 0.05921 0.44209
 O571 O 0.53482 -0.06924 0.56351
 O572 O 0.56504 -0.03582 0.53254
 O573 O 0.53489 0.06952 0.56359
 O574 O 0.56509 0.03612 0.53262
 O575 O 0.46477 0.06736 0.43413
 O576 O 0.43461 0.03510 0.46622
 O577 O 0.49927 0.03221 0.60178
 O578 O 0.49926 -0.03208 0.60169
 O579 O 0.49956 0.03247 0.39827
 O580 O 0.49953 -0.03179 0.39837
 O581 O 0.46457 -0.06651 0.56590
 O582 O 0.43452 -0.03428 0.53359
 O583 O 0.53500 -0.06939 0.43691
 O584 O 0.56516 -0.03572 0.46757
 O585 O 0.46473 -0.06653 0.43418
 O586 O 0.43458 -0.03421 0.46620
 O587 O 0.46463 0.06702 0.56597
 O588 O 0.43454 0.03500 0.53364
 O589 O 0.49922 0.10589 0.44499
 O590 O 0.49873 0.10584 0.55428
 O591 O 0.49860 -0.10544 0.55410
 O592 O 0.49915 -0.10519 0.44508
 O593 O 0.52176 -0.04941 0.50004
 O594 O 0.52178 0.04991 0.50005
 O595 O 0.47823 -0.04896 0.49997
 O596 O 0.52296 0.00031 0.45204
 O597 O 0.56519 0.03620 0.46766
 O598 O 0.53508 0.06998 0.43688
 O599 O 0.47668 0.00038 0.45165
 O600 O 0.47654 0.00025 0.54823
 O601 O 0.47830 0.04962 0.49998
 O602 O 0.52281 0.00018 0.54798
 Zr603 Zr 0.49993 0.04708 0.45321
 Zr604 Zr 0.49975 -0.04651 0.54675
 Zr605 Zr 0.54327 0.00023 0.50006
 Zr606 Zr 0.49989 -0.04640 0.45326
 Zr607 Zr 0.49979 0.04695 0.54681
 Zr608 Zr 0.45645 0.00038 0.49992
 H609 H 0.46805 -0.07236 0.50000
 H610 H 0.53425 0.00031 0.43074
 H611 H 0.46814 0.07305 0.50001
 H612 H 0.53402 0.00013 0.56934
 H613 H 0.49897 0.11709 0.46938
 H614 H 0.50438 0.11682 0.53111
 H615 H 0.49839 -0.11643 0.46946
 H616 H 0.50450 -0.11634 0.53103
 C617 C 0.75026 0.24920 0.86836
 C618 C 0.74999 0.24903 0.63290
 C619 C 0.69101 0.18758 0.80666
 C620 C 0.69110 0.31061 0.80596
 C621 C 0.69105 0.18774 0.69538
 C622 C 0.80770 0.19108 0.69217
 C623 C 0.80764 0.30763 0.69204
 C624 C 0.80784 0.19098 0.80869
 C625 C 0.69091 0.31023 0.69519
 C626 C 0.80780 0.30774 0.80858
 O627 O 0.71426 0.17971 0.68729
 O628 O 0.68405 0.21292 0.71845
 O629 O 0.71411 0.31836 0.68711
 O630 O 0.68396 0.28496 0.71827
 O631 O 0.78459 0.31597 0.81650
 O632 O 0.81471 0.28385 0.78426
 O633 O 0.74966 0.28119 0.64889
 O634 O 0.74969 0.21689 0.64902
 O635 O 0.74986 0.28132 0.85227
 O636 O 0.74992 0.21705 0.85241
 O637 O 0.78451 0.18273 0.68437
 O638 O 0.81463 0.21486 0.71656
 O639 O 0.71428 0.17943 0.81439
 O640 O 0.68401 0.21298 0.78371
 O641 O 0.78468 0.18260 0.81669
 O642 O 0.81470 0.21486 0.78430
 O643 O 0.78442 0.31577 0.68415
 O644 O 0.81460 0.28386 0.71650
 O645 O 0.75011 0.35471 0.80537
 O646 O 0.75033 0.35481 0.69657
 O647 O 0.75065 0.14341 0.69705
 O648 O 0.75020 0.14355 0.80560
 O649 O 0.72742 0.19938 0.75084
 O650 O 0.72737 0.29866 0.75065
 O651 O 0.77102 0.19992 0.75070
 O652 O 0.72633 0.24912 0.79874
 O653 O 0.68407 0.28507 0.78331
 O654 O 0.71432 0.31889 0.81369
 O655 O 0.77260 0.24918 0.79883
 O656 O 0.77251 0.24916 0.70238
 O657 O 0.77095 0.29855 0.75049
 O658 O 0.72627 0.24906 0.70289
 Zr659 Zr 0.74939 0.29590 0.79733
 Zr660 Zr 0.74936 0.20237 0.70402
 Zr661 Zr 0.70585 0.24898 0.75087
 Zr662 Zr 0.74939 0.20237 0.79754
 Zr663 Zr 0.74928 0.29586 0.70382
 Zr664 Zr 0.79278 0.24929 0.75051
 H665 H 0.78128 0.17658 0.75062
 H666 H 0.71510 0.24914 0.82011
 H667 H 0.78115 0.32194 0.75038
 H668 H 0.71502 0.24902 0.68156
 H669 H 0.75122 0.36588 0.78099
 H670 H 0.74419 0.36564 0.71954
 H671 H 0.75168 0.13244 0.78126
 H672 H 0.74425 0.13259 0.71990
 C673 C 0.00039 0.50004 0.38269
 C674 C 0.00021 0.50011 0.61882
 C675 C -0.05852 0.56190 0.44545
 C676 C -0.05844 0.43814 0.44575
 C677 C -0.05860 0.56182 0.55563
 C678 C 0.05813 0.55839 0.55890
 C679 C 0.05817 0.44174 0.55912
 C680 C 0.05827 0.55855 0.44232
 C681 C -0.05862 0.43841 0.55592
 C682 C 0.05828 0.44161 0.44244
 O683 O -0.03539 0.56977 0.56378
 O684 O -0.06556 0.53629 0.53290
 O685 O -0.03540 0.43046 0.56409
 O686 O -0.06557 0.46390 0.53307
 O687 O 0.03507 0.43339 0.43462
 O688 O 0.06520 0.46548 0.46678
 O689 O -0.00004 0.46796 0.60273
 O690 O -0.00006 0.53224 0.60261
 O691 O 0.00011 0.46792 0.39884
 O692 O 0.00011 0.53217 0.39875
 O693 O 0.03492 0.56655 0.56686
 O694 O 0.06509 0.53462 0.53449
 O695 O -0.03528 0.57000 0.43754
 O696 O -0.06552 0.53624 0.46812
 O697 O 0.03505 0.56675 0.43445
 O698 O 0.06519 0.53466 0.46671
 O699 O 0.03496 0.43359 0.56710
 O700 O 0.06511 0.46548 0.53462
 O701 O 0.00082 0.39455 0.44585
 O702 O 0.00102 0.39446 0.55507
 O703 O 0.00101 0.60566 0.55487
 O704 O 0.00076 0.60558 0.44557
 O705 O -0.02210 0.54965 0.50060
 O706 O -0.02207 0.45050 0.50075
 O707 O 0.02139 0.54932 0.50062
 O708 O -0.02327 0.50005 0.45261
 O709 O -0.06548 0.46383 0.46829
 O710 O -0.03520 0.43006 0.43785
 O711 O 0.02309 0.50006 0.45233
 O712 O 0.02301 0.50007 0.54895
 O713 O 0.02141 0.45080 0.50078
 O714 O -0.02335 0.50008 0.54867
 Zr715 Zr -0.00014 0.45335 0.45390
 Zr716 Zr -0.00025 0.54676 0.54748
 Zr717 Zr -0.04369 0.50007 0.50063
 Zr718 Zr -0.00017 0.54678 0.45375
 Zr719 Zr -0.00024 0.45337 0.54764
 Zr720 Zr 0.04327 0.50005 0.50064
 H721 H 0.03160 0.57269 0.50062
 H722 H -0.03457 0.50003 0.43133
 H723 H 0.03163 0.42743 0.50083
 H724 H -0.03466 0.50010 0.56996
 H725 H 0.00108 0.38336 0.47027
 H726 H -0.00463 0.38351 0.53192
 H727 H 0.00068 0.61677 0.46997
 H728 H -0.00447 0.61666 0.53164
 C729 C 0.25032 0.75067 0.86765
 C730 C 0.25027 0.75098 0.63213
 C731 C 0.19132 0.68895 0.80482
 C732 C 0.19124 0.81260 0.80520
 C733 C 0.19126 0.68926 0.69495
 C734 C 0.30797 0.69199 0.69192
 C735 C 0.30794 0.80945 0.69200
 C736 C 0.30804 0.69179 0.80773
 C737 C 0.19127 0.81262 0.69486
 C738 C 0.30807 0.80935 0.80776
 O739 O 0.21447 0.68125 0.68683
 O740 O 0.18428 0.71480 0.71767
 O741 O 0.21449 0.82059 0.68674
 O742 O 0.18429 0.78712 0.71767
 O743 O 0.28488 0.81758 0.81576
 O744 O 0.31496 0.78527 0.78359
 O745 O 0.24996 0.78310 0.64820
 O746 O 0.24995 0.71882 0.64818
 O747 O 0.25001 0.78282 0.85163
 O748 O 0.24998 0.71856 0.85162
 O749 O 0.28476 0.68397 0.68390
 O750 O 0.31490 0.71599 0.71612
 O751 O 0.21453 0.68079 0.81275
 O752 O 0.18432 0.71470 0.78232
 O753 O 0.28482 0.68369 0.81573
 O754 O 0.31496 0.71592 0.78357
 O755 O 0.28476 0.81762 0.68397
 O756 O 0.31488 0.78538 0.71617
 O757 O 0.25051 0.85629 0.80495
 O758 O 0.25078 0.85647 0.69556
 O759 O 0.25067 0.64528 0.69548
 O760 O 0.25045 0.64525 0.80504
 O761 O 0.22770 0.70129 0.74996
 O762 O 0.22769 0.80051 0.74999
 O763 O 0.27118 0.70145 0.74989
 O764 O 0.22652 0.75078 0.79800
 O765 O 0.18427 0.78701 0.78251
 O766 O 0.21448 0.82066 0.81310
 O767 O 0.27286 0.75073 0.79824
 O768 O 0.27285 0.75084 0.70163
 O769 O 0.27120 0.80001 0.74993
 O770 O 0.22650 0.75090 0.70199
 Zr771 Zr 0.24962 0.79751 0.79675
 Zr772 Zr 0.24959 0.70415 0.70313
 Zr773 Zr 0.20613 0.75092 0.75002
 Zr774 Zr 0.24962 0.70403 0.79671
 Zr775 Zr 0.24960 0.79758 0.70317
 Zr776 Zr 0.29304 0.75069 0.74991
 H777 H 0.28133 0.67802 0.74985
 H778 H 0.21522 0.75074 0.81929
 H779 H 0.28137 0.82342 0.74989
 H780 H 0.21522 0.75094 0.68071
 H781 H 0.25032 0.86755 0.78056
 H782 H 0.24547 0.86749 0.71886
 H783 H 0.25031 0.63398 0.78068
 H784 H 0.24563 0.63421 0.71889
 C785 C 0.49915 0.49976 0.38232
 C786 C 0.49893 0.49963 0.61780
 C787 C 0.55829 0.43824 0.44469
 C788 C 0.55823 0.56120 0.44465
 C789 C 0.55811 0.43834 0.55573
 C790 C 0.44142 0.44085 0.55805
 C791 C 0.44138 0.55843 0.55794
 C792 C 0.44150 0.44086 0.44214
 C793 C 0.55812 0.56096 0.55568
 C794 C 0.44148 0.55854 0.44214
 O795 O 0.53488 0.43027 0.56369
 O796 O 0.56514 0.46362 0.53270
 O797 O 0.53488 0.56900 0.56364
 O798 O 0.56514 0.53571 0.53266
 O799 O 0.46469 0.56668 0.43419
 O800 O 0.43451 0.53439 0.46625
 O801 O 0.49926 0.53178 0.60173
 O802 O 0.49928 0.46748 0.60178
 O803 O 0.49947 0.53187 0.39835
 O804 O 0.49948 0.46761 0.39837
 O805 O 0.46462 0.43278 0.56608
 O806 O 0.43449 0.46489 0.53381
 O807 O 0.53506 0.43003 0.43685
 O808 O 0.56524 0.46367 0.46754
 O809 O 0.46472 0.43273 0.43421
 O810 O 0.43453 0.46496 0.46626
 O811 O 0.46458 0.56649 0.56598
 O812 O 0.43447 0.53438 0.53375
 O813 O 0.49917 0.60524 0.44509
 O814 O 0.49867 0.60532 0.55398
 O815 O 0.49871 0.39398 0.55415
 O816 O 0.49924 0.39414 0.44520
 O817 O 0.52181 0.45004 0.50009
 O818 O 0.52179 0.54931 0.50004
 O819 O 0.47825 0.45039 0.50005
 O820 O 0.52296 0.49970 0.45209
 O821 O 0.56521 0.53574 0.46750
 O822 O 0.53499 0.56941 0.43682
 O823 O 0.47664 0.49968 0.45174
 O824 O 0.47653 0.49965 0.54829
 O825 O 0.47822 0.54892 0.50001
 O826 O 0.52284 0.49965 0.54797
 Zr827 Zr 0.49987 0.54642 0.45326
 Zr828 Zr 0.49979 0.45292 0.54683
 Zr829 Zr 0.54336 0.49968 0.50007
 Zr830 Zr 0.49991 0.45295 0.45329
 Zr831 Zr 0.49977 0.54639 0.54678
 Zr832 Zr 0.45636 0.49965 0.50001
 H833 H 0.46808 0.42698 0.50010
 H834 H 0.53423 0.49972 0.43075
 H835 H 0.46805 0.57234 0.50003
 H836 H 0.53404 0.49964 0.56934
 H837 H 0.49817 0.61641 0.46946
 H838 H 0.50473 0.61619 0.53097
 H839 H 0.49832 0.38295 0.46959
 H840 H 0.50471 0.38311 0.53113
 C841 C 0.75029 0.75041 0.86763
 C842 C 0.75008 0.75099 0.63217
 C843 C 0.69124 0.68899 0.80529
 C844 C 0.69104 0.81188 0.80582
 C845 C 0.69107 0.68952 0.69442
 C846 C 0.80779 0.69250 0.69141
 C847 C 0.80774 0.80912 0.69150
 C848 C 0.80791 0.69222 0.80791
 C849 C 0.69109 0.81207 0.69472
 C850 C 0.80788 0.80893 0.80802
 O851 O 0.71429 0.68148 0.68635
 O852 O 0.68410 0.71474 0.71750
 O853 O 0.71428 0.82019 0.68662
 O854 O 0.68412 0.78678 0.71773
 O855 O 0.78469 0.81723 0.81598
 O856 O 0.81477 0.78512 0.78362
 O857 O 0.74975 0.78310 0.64826
 O858 O 0.74979 0.71880 0.64818
 O859 O 0.74994 0.78259 0.85164
 O860 O 0.74994 0.71832 0.85156
 O861 O 0.78459 0.68430 0.68350
 O862 O 0.81472 0.71625 0.71583
 O863 O 0.71447 0.68076 0.81305
 O864 O 0.68420 0.71452 0.78257
 O865 O 0.78472 0.68390 0.81581
 O866 O 0.81481 0.71615 0.78358
 O867 O 0.78454 0.81738 0.68365
 O868 O 0.81469 0.78528 0.71588
 O869 O 0.75015 0.85618 0.80484
 O870 O 0.75058 0.85650 0.69611
 O871 O 0.75060 0.64512 0.69591
 O872 O 0.75035 0.64502 0.80466
 O873 O 0.72752 0.70105 0.74993
 O874 O 0.72746 0.80035 0.75007
 O875 O 0.77110 0.70138 0.74980
 O876 O 0.72642 0.75057 0.79799
 O877 O 0.68409 0.78653 0.78288
 O878 O 0.71429 0.82015 0.81354
 O879 O 0.77268 0.75062 0.79812
 O880 O 0.77261 0.75081 0.70165
 O881 O 0.77105 0.80002 0.74994
 O882 O 0.72637 0.75080 0.70212
 Zr883 Zr 0.74944 0.79737 0.79677
 Zr884 Zr 0.74942 0.70405 0.70311
 Zr885 Zr 0.70596 0.75068 0.75010
 Zr886 Zr 0.74952 0.70385 0.79662
 Zr887 Zr 0.74940 0.79754 0.70325
 Zr888 Zr 0.79286 0.75070 0.74981
 H889 H 0.78133 0.67802 0.74971
 H890 H 0.71519 0.75047 0.81935
 H891 H 0.78127 0.82338 0.74988
 H892 H 0.71511 0.75085 0.68080
 H893 H 0.75136 0.86736 0.78047
 H894 H 0.74438 0.86731 0.71905
 H895 H 0.75145 0.63391 0.78028
 H896 H 0.74440 0.63423 0.71883
 C897 C 0.00143 0.00028 0.22913
 N898 N 0.00144 0.03312 0.21033
 N899 N 0.00141 0.03296 0.17439
 C900 C 0.00137 -0.00005 0.15591
 N901 N 0.00140 -0.03290 0.17472
 N902 N 0.00143 -0.03273 0.21066
 C903 C 0.00126 0.00047 0.26877
 N904 N 0.00112 -0.03237 0.28757
 N905 N 0.00081 -0.03221 0.32350
 C906 C 0.00063 0.00080 0.34198
 N907 N 0.00080 0.03365 0.32317
 N908 N 0.00110 0.03348 0.28724
 C909 C 0.25101 0.24959 1.02162
 N910 N 0.25092 0.28256 1.04015
 N911 N 0.25079 0.28265 1.07609
 C912 C 0.25074 0.24977 1.09495
 N913 N 0.25087 0.21680 1.07629
 N914 N 0.25100 0.21672 1.04036
 C915 C 0.25097 0.24948 0.98196
 N916 N 0.25091 0.21650 0.96344
 N917 N 0.25072 0.21638 0.92750
 C918 C 0.25059 0.24926 0.90873
 N919 N 0.25068 0.28224 0.92726
 N920 N 0.25087 0.28235 0.96319
 C921 C 0.11538 0.11176 0.11625
 N922 N 0.12159 0.08649 0.09023
 N923 N 0.10362 0.06945 0.07101
 C924 C 0.07879 0.07713 0.07708
 N925 N 0.07261 0.10241 0.10310
 N926 N 0.09056 0.11944 0.12229
 C927 C 0.13516 0.13080 0.13726
 N928 N 0.12893 0.15672 0.16268
 N929 N 0.14688 0.17458 0.18122
 C930 C 0.17173 0.16709 0.17509
 N931 N 0.17794 0.14102 0.14980
 N932 N 0.16000 0.12319 0.13125
 C933 C 0.36500 0.36513 0.13492
 N934 N 0.34022 0.37214 0.12792
 N935 N 0.32212 0.35414 0.14606
 C936 C 0.32814 0.32851 0.17187
 N937 N 0.35293 0.32151 0.17887
 N938 N 0.37103 0.33951 0.16072
 C939 C 0.38491 0.38490 0.11490
 N940 N 0.40968 0.37787 0.12186
 N941 N 0.42778 0.39583 0.10368
 C942 C 0.42175 0.42146 0.07788
 N943 N 0.39696 0.42849 0.07091
 N944 N 0.37886 0.41052 0.08910
 C945 C 0.36540 0.13424 0.13495
 N946 N 0.37139 0.15993 0.16069
 N947 N 0.35325 0.17798 0.17879
 C948 C 0.32845 0.17100 0.17183
 N949 N 0.32248 0.14531 0.14609
 N950 N 0.34061 0.12727 0.12800
 C951 C 0.38540 0.11432 0.11494
 N952 N 0.37939 0.08860 0.08925
 N953 N 0.39750 0.07053 0.07113
 C954 C 0.42231 0.07752 0.07800
 N955 N 0.42832 0.10325 0.10369
 N956 N 0.41021 0.12131 0.12181
 C957 C 0.13478 0.36891 0.13772
 N958 N 0.12868 0.34291 0.16316
 N959 N 0.14673 0.32502 0.18153
 C960 C 0.17155 0.33255 0.17519
 N961 N 0.17763 0.35870 0.14987
 N962 N 0.15959 0.37657 0.13149
 C963 C 0.11490 0.38801 0.11692
 N964 N 0.12098 0.41343 0.09093
 N965 N 0.10292 0.43053 0.07189
 C966 C 0.07812 0.42278 0.07812
 N967 N 0.07206 0.39736 0.10411
 N968 N 0.09011 0.38025 0.12313
 C969 C 0.36488 0.13505 0.36469
 N970 N 0.37094 0.16058 0.33880
 N971 N 0.35285 0.17841 0.32048
 C972 C 0.32805 0.17133 0.32738
 N973 N 0.32201 0.14579 0.35327
 N974 N 0.34009 0.12796 0.37159
 C975 C 0.38480 0.11543 0.38490
 N976 N 0.37873 0.08986 0.41075
 N977 N 0.39682 0.07199 0.42906
 C978 C 0.42162 0.07907 0.42217
 N979 N 0.42767 0.10465 0.39632
 N980 N 0.40959 0.12251 0.37802
 C981 C 0.13470 0.36838 0.36171
 N982 N 0.15953 0.37594 0.36778
 N983 N 0.17752 0.35815 0.34922
 C984 C 0.17138 0.33217 0.32383
 N985 N 0.14654 0.32471 0.31764
 N986 N 0.12854 0.34252 0.33621
 C987 C 0.11487 0.38747 0.38272
 N988 N 0.09005 0.37983 0.37670
 N989 N 0.07207 0.39696 0.39585
 C990 C 0.07822 0.42230 0.42182
 N991 N 0.10306 0.42993 0.42787
 N992 N 0.12104 0.41280 0.40869
 C993 C 0.13457 0.13127 0.36084
 N994 N 0.15934 0.12360 0.36722
 N995 N 0.17745 0.14132 0.34882
 C996 C 0.17143 0.16731 0.32333
 N997 N 0.14665 0.17483 0.31682
 N998 N 0.12854 0.15710 0.33522
 C999 C 0.11465 0.11242 0.38170
 N1000 N 0.08989 0.12021 0.37540
 N1001 N 0.07180 0.10333 0.39453
 C1002 C 0.07781 0.07812 0.42072
 N1003 N 0.10259 0.07033 0.42703
 N1004 N 0.12068 0.08721 0.40789
 C1005 C 0.36485 0.36478 0.36466
 N1006 N 0.37094 0.33927 0.33880
 N1007 N 0.35288 0.32138 0.32050
 C1008 C 0.32806 0.32836 0.32736
 N1009 N 0.32198 0.35388 0.35321
 N1010 N 0.34004 0.37177 0.37151
 C1011 C 0.38476 0.38450 0.38489
 N1012 N 0.37866 0.41005 0.41071
 N1013 N 0.39671 0.42796 0.42901
 C1014 C 0.42153 0.42096 0.42218
 N1015 N 0.42762 0.39540 0.39636
 N1016 N 0.40957 0.37750 0.37806
 C1017 C 0.49882 -0.00057 0.23037
 N1018 N 0.49900 0.03223 0.21157
 N1019 N 0.49932 0.03198 0.17568
 C1020 C 0.49948 -0.00110 0.15735
 N1021 N 0.49927 -0.03391 0.17616
 N1022 N 0.49894 -0.03365 0.21206
 C1023 C 0.49869 -0.00029 0.26982
 N1024 N 0.49869 -0.03311 0.28860
 N1025 N 0.49880 -0.03288 0.32449
 C1026 C 0.49890 0.00017 0.34284
 N1027 N 0.49886 0.03300 0.32406
 N1028 N 0.49875 0.03277 0.28816
 C1029 C 0.75179 0.24928 1.02027
 N1030 N 0.75172 0.28221 1.03880
 N1031 N 0.75162 0.28221 1.07470
 C1032 C 0.75158 0.24926 1.09330
 N1033 N 0.75170 0.21632 1.07476
 N1034 N 0.75180 0.21633 1.03886
 C1035 C 0.75161 0.24927 0.98083
 N1036 N 0.75147 0.21632 0.96232
 N1037 N 0.75108 0.21630 0.92642
 C1038 C 0.75082 0.24923 0.90780
 N1039 N 0.75100 0.28219 0.92632
 N1040 N 0.75139 0.28221 0.96222
 C1041 C 0.61578 0.11455 0.11435
 N1042 N 0.62191 0.08876 0.08877
 N1043 N 0.60392 0.07179 0.06955
 C1044 C 0.57911 0.08009 0.07511
 N1045 N 0.57300 0.10601 0.10059
 N1046 N 0.59099 0.12297 0.11980
 C1047 C 0.63560 0.13292 0.13589
 N1048 N 0.62945 0.15870 0.16147
 N1049 N 0.64743 0.17568 0.18071
 C1050 C 0.67224 0.16741 0.17516
 N1051 N 0.67837 0.14150 0.14969
 N1052 N 0.66039 0.12453 0.13046
 C1053 C -0.13479 0.36186 0.13244
 N1054 N -0.15961 0.36956 0.12646
 N1055 N -0.17756 0.35240 0.14563
 C1056 C -0.17137 0.32698 0.17156
 N1057 N -0.14654 0.31929 0.17756
 N1058 N -0.12858 0.33644 0.15837
 C1059 C -0.11501 0.38100 0.11147
 N1060 N -0.09018 0.37338 0.11748
 N1061 N -0.07222 0.39132 0.09897
 C1062 C -0.07842 0.41748 0.07373
 N1063 N -0.10326 0.42498 0.06760
 N1064 N -0.12123 0.40703 0.08611
 C1065 C 0.88550 0.11810 0.11116
 N1066 N 0.91032 0.12573 0.11721
 N1067 N 0.92833 0.10804 0.09857
 C1068 C 0.92220 0.08209 0.07314
 N1069 N 0.89737 0.07457 0.06698
 N1070 N 0.87935 0.09229 0.08561
 C1071 C 0.86563 0.13707 0.13224
 N1072 N 0.84081 0.12935 0.12622
 N1073 N 0.82281 0.14635 0.14543
 C1074 C 0.82892 0.17166 0.17145
 N1075 N 0.85374 0.17938 0.17749
 N1076 N 0.87176 0.16237 0.15826
 C1077 C 0.63518 0.36534 0.13599
 N1078 N 0.62912 0.33950 0.16163
 N1079 N 0.64717 0.32248 0.18076
 C1080 C 0.67197 0.33075 0.17507
 N1081 N 0.67801 0.35672 0.14954
 N1082 N 0.65996 0.37373 0.13041
 C1083 C 0.61527 0.38380 0.11456
 N1084 N 0.62132 0.40963 0.08892
 N1085 N 0.60327 0.42665 0.06979
 C1086 C 0.57847 0.41839 0.07549
 N1087 N 0.57243 0.39244 0.10103
 N1088 N 0.59049 0.37542 0.12015
 C1089 C -0.13582 0.13835 0.36651
 N1090 N -0.12980 0.16352 0.34027
 N1091 N -0.14790 0.18063 0.32129
 C1092 C -0.17276 0.17323 0.32777
 N1093 N -0.17871 0.14796 0.35405
 N1094 N -0.16061 0.13085 0.37300
 C1095 C -0.11584 0.11926 0.38732
 N1096 N -0.12186 0.09350 0.41304
 N1097 N -0.10376 0.07573 0.43145
 C1098 C -0.07895 0.08312 0.42490
 N1099 N -0.07293 0.10901 0.39929
 N1100 N -0.09103 0.12676 0.38087
 C1101 C 0.63504 0.36486 0.36480
 N1102 N 0.65982 0.37312 0.37052
 N1103 N 0.67789 0.35613 0.35143
 C1104 C 0.67188 0.33033 0.32581
 N1105 N 0.64709 0.32218 0.31999
 N1106 N 0.62901 0.33918 0.33909
 C1107 C 0.61512 0.38332 0.38615
 N1108 N 0.59035 0.37504 0.38048
 N1109 N 0.57228 0.39210 0.39953
 C1110 C 0.57830 0.41799 0.42505
 N1111 N 0.60309 0.42615 0.43083
 N1112 N 0.62116 0.40908 0.41178
 C1113 C 0.63519 0.13381 0.36476
 N1114 N 0.65992 0.12537 0.37059
 N1115 N 0.67805 0.14211 0.35141
 C1116 C 0.67210 0.16778 0.32561
 N1117 N 0.64736 0.17608 0.31966
 N1118 N 0.62923 0.15934 0.33884
 C1119 C 0.61524 0.11576 0.38620
 N1120 N 0.59052 0.12428 0.38040
 N1121 N 0.57238 0.10752 0.39954
 C1122 C 0.57831 0.08173 0.42524
 N1123 N 0.60305 0.07335 0.43116
 N1124 N 0.62119 0.09012 0.41202
 C1125 C -0.13480 0.36155 0.36839
 N1126 N -0.12862 0.33620 0.34242
 N1127 N -0.14660 0.31908 0.32332
 C1128 C -0.17143 0.32672 0.32945
 N1129 N -0.17760 0.35206 0.35542
 N1130 N -0.15962 0.36919 0.37450
 C1131 C -0.11499 0.38070 0.38923
 N1132 N -0.12117 0.40671 0.41459
 N1133 N -0.10318 0.42466 0.43296
 C1134 C -0.07834 0.41719 0.42672
 N1135 N -0.07218 0.39104 0.40149
 N1136 N -0.09016 0.37311 0.38310
 C1137 C 0.00091 0.50019 0.23025
 N1138 N 0.00082 0.53314 0.21163
 N1139 N 0.00064 0.53320 0.17570
 C1140 C 0.00054 0.50029 0.15706
 N1141 N 0.00065 0.46733 0.17569
 N1142 N 0.00083 0.46728 0.21162
 C1143 C 0.00094 0.50014 0.26987
 N1144 N 0.00089 0.46719 0.28850
 N1145 N 0.00077 0.46715 0.32444
 C1146 C 0.00069 0.50006 0.34306
 N1147 N 0.00077 0.53301 0.32442
 N1148 N 0.00089 0.53305 0.28849
 C1149 C 0.25153 0.75065 1.01950
 N1150 N 0.25155 0.78361 1.03799
 N1151 N 0.25142 0.78365 1.07388
 C1152 C 0.25126 0.75072 1.09251
 N1153 N 0.25128 0.71776 1.07401
 N1154 N 0.25142 0.71772 1.03812
 C1155 C 0.25143 0.75064 0.98008
 N1156 N 0.25123 0.71769 0.96156
 N1157 N 0.25093 0.71769 0.92567
 C1158 C 0.25079 0.75064 0.90707
 N1159 N 0.25102 0.78358 0.92560
 N1160 N 0.25132 0.78358 0.96149
 C1161 C 0.11494 0.61314 0.11680
 N1162 N 0.12102 0.58769 0.09086
 N1163 N 0.10297 0.57054 0.07187
 C1164 C 0.07814 0.57824 0.07807
 N1165 N 0.07208 0.60369 0.10401
 N1166 N 0.09013 0.62084 0.12298
 C1167 C 0.13486 0.63226 0.13764
 N1168 N 0.12877 0.65826 0.16305
 N1169 N 0.14682 0.67608 0.18147
 C1170 C 0.17165 0.66849 0.17524
 N1171 N 0.17773 0.64236 0.14993
 N1172 N 0.15968 0.62457 0.13150
 C1173 C 0.38651 0.88512 0.11416
 N1174 N 0.41131 0.87789 0.12104
 N1175 N 0.42953 0.89566 0.10278
 C1176 C 0.42373 0.92142 0.07685
 N1177 N 0.39887 0.92856 0.07002
 N1178 N 0.38066 0.91079 0.08828
 C1179 C 0.36633 0.86550 0.13441
 N1180 N 0.34154 0.87273 0.12748
 N1181 N 0.32330 0.85501 0.14572
 C1182 C 0.32911 0.82933 0.17164
 N1183 N 0.35390 0.82210 0.17857
 N1184 N 0.37215 0.83983 0.16033
 C1185 C 0.36508 0.63516 0.13504
 N1186 N 0.37119 0.66078 0.16077
 N1187 N 0.35313 0.67880 0.17899
 C1188 C 0.32832 0.67184 0.17216
 N1189 N 0.32223 0.64621 0.14644
 N1190 N 0.34027 0.62819 0.12821
 C1191 C 0.38495 0.61536 0.11492
 N1192 N 0.37885 0.58975 0.08918
 N1193 N 0.39691 0.57176 0.07094
 C1194 C 0.42172 0.57876 0.07777
 N1195 N 0.42780 0.60437 0.10350
 N1196 N 0.40975 0.62236 0.12174
 C1197 C 0.11556 0.88842 0.11644
 N1198 N 0.12166 0.91358 0.09023
 N1199 N 0.10361 0.93038 0.07096
 C1200 C 0.07882 0.92257 0.07717
 N1201 N 0.07274 0.89741 0.10338
 N1202 N 0.09079 0.88061 0.12263
 C1203 C 0.13541 0.86965 0.13749
 N1204 N 0.12928 0.84385 0.16309
 N1205 N 0.14730 0.82615 0.18165
 C1206 C 0.17211 0.83369 0.17534
 N1207 N 0.17824 0.85965 0.14987
 N1208 N 0.16021 0.87733 0.13130
 C1209 C 0.36493 0.63526 0.36494
 N1210 N 0.37107 0.66083 0.33911
 N1211 N 0.35305 0.67889 0.32084
 C1212 C 0.32821 0.67203 0.32774
 N1213 N 0.32209 0.64645 0.35357
 N1214 N 0.34011 0.62840 0.37183
 C1215 C 0.38480 0.61535 0.38508
 N1216 N 0.37867 0.58972 0.41086
 N1217 N 0.39671 0.57164 0.42910
 C1218 C 0.42153 0.57855 0.42222
 N1219 N 0.42765 0.60418 0.39644
 N1220 N 0.40962 0.62225 0.37821
 C1221 C 0.13482 -0.13037 0.36135
 N1222 N 0.15962 -0.12279 0.36765
 N1223 N 0.17770 -0.14056 0.34924
 C1224 C 0.17167 -0.16654 0.32381
 N1225 N 0.14686 -0.17400 0.31740
 N1226 N 0.12877 -0.15622 0.33580
 C1227 C 0.11489 -0.11136 0.38219
 N1228 N 0.09010 -0.11906 0.37594
 N1229 N 0.07202 -0.10202 0.39496
 C1230 C 0.07804 -0.07671 0.42100
 N1231 N 0.10283 -0.06900 0.42727
 N1232 N 0.12092 -0.08604 0.40823
 C1233 C 0.13482 0.63221 0.36197
 N1234 N 0.15965 0.62470 0.36817
 N1235 N 0.17767 0.64256 0.34969
 C1236 C 0.17156 0.66859 0.32426
 N1237 N 0.14672 0.67601 0.31795
 N1238 N 0.12869 0.65812 0.33644
 C1239 C 0.11495 0.61300 0.38287
 N1240 N 0.09012 0.62057 0.37671
 N1241 N 0.07212 0.60334 0.39576
 C1242 C 0.07824 0.57793 0.42175
 N1243 N 0.10307 0.57036 0.42793
 N1244 N 0.12109 0.58760 0.40886
 C1245 C 0.36502 -0.13435 0.36483
 N1246 N 0.37114 -0.15990 0.33905
 N1247 N 0.35310 -0.17781 0.32075
 C1248 C 0.32828 -0.17077 0.32758
 N1249 N 0.32218 -0.14521 0.35336
 N1250 N 0.34021 -0.12731 0.37166
 C1251 C 0.38487 -0.11464 0.38500
 N1252 N 0.37875 -0.08905 0.41076
 N1253 N 0.39680 -0.07112 0.42903
 C1254 C 0.42161 -0.07817 0.42221
 N1255 N 0.42771 -0.10377 0.39645
 N1256 N 0.40968 -0.12169 0.37818
 C1257 C 0.49826 0.49998 0.23037
 N1258 N 0.49836 0.53294 0.21179
 N1259 N 0.49859 0.53298 0.17589
 C1260 C 0.49874 0.50005 0.15733
 N1261 N 0.49859 0.46709 0.17591
 N1262 N 0.49836 0.46706 0.21181
 C1263 C 0.49826 0.49992 0.26983
 N1264 N 0.49836 0.46695 0.28838
 N1265 N 0.49859 0.46690 0.32428
 C1266 C 0.49872 0.49981 0.34287
 N1267 N 0.49858 0.53278 0.32430
 N1268 N 0.49835 0.53284 0.28840
 C1269 C 0.75140 0.75031 1.01954
 N1270 N 0.75134 0.78327 1.03804
 N1271 N 0.75114 0.78331 1.07393
 C1272 C 0.75100 0.75039 1.09257
 N1273 N 0.75110 0.71742 1.07407
 N1274 N 0.75130 0.71738 1.03817
 C1275 C 0.75135 0.75030 0.98010
 N1276 N 0.75121 0.71736 0.96155
 N1277 N 0.75093 0.71739 0.92566
 C1278 C 0.75078 0.75035 0.90707
 N1279 N 0.75096 0.78328 0.92563
 N1280 N 0.75124 0.78325 0.96152
 C1281 C 0.61502 0.61611 0.11421
 N1282 N 0.62113 0.59029 0.08866
 N1283 N 0.60312 0.57333 0.06948
 C1284 C 0.57833 0.58167 0.07507
 N1285 N 0.57223 0.60762 0.10051
 N1286 N 0.59024 0.62458 0.11968
 C1287 C 0.63485 0.63445 0.13568
 N1288 N 0.62872 0.66028 0.16123
 N1289 N 0.64673 0.67725 0.18041
 C1290 C 0.67152 0.66892 0.17483
 N1291 N 0.67763 0.64296 0.14939
 N1292 N 0.65962 0.62599 0.13022
 C1293 C 0.88517 0.88155 0.11079
 N1294 N 0.90996 0.87387 0.11712
 N1295 N 0.92808 0.89152 0.09863
 C1296 C 0.92209 0.91747 0.07308
 N1297 N 0.89729 0.92503 0.06665
 N1298 N 0.87917 0.90736 0.08513
 C1299 C 0.86518 0.86264 0.13170
 N1300 N 0.84040 0.87041 0.12543
 N1301 N 0.82229 0.85346 0.14451
 C1302 C 0.82827 0.82815 0.17065
 N1303 N 0.85306 0.82038 0.17693
 N1304 N 0.87118 0.83733 0.15784
 C1305 C 0.88470 0.61928 0.11116
 N1306 N 0.90950 0.62700 0.11723
 N1307 N 0.92753 0.60918 0.09878
 C1308 C 0.92143 0.58302 0.07355
 N1309 N 0.89661 0.57542 0.06737
 N1310 N 0.87858 0.59327 0.08580
 C1311 C 0.86484 0.63831 0.13205
 N1312 N 0.84004 0.63051 0.12602
 N1313 N 0.82202 0.64756 0.14513
 C1314 C 0.82813 0.67299 0.17104
 N1315 N 0.85293 0.68079 0.17709
 N1316 N 0.87096 0.66373 0.15796
 C1317 C 0.61449 0.88433 0.11308
 N1318 N 0.62049 0.91001 0.08729
 N1319 N 0.60240 0.92695 0.06817
 C1320 C 0.57755 0.91886 0.07403
 N1321 N 0.57163 0.89287 0.09967
 N1322 N 0.58973 0.87594 0.11878
 C1323 C 0.63445 0.86608 0.13462
 N1324 N 0.62844 0.84043 0.16045
 N1325 N 0.64653 0.82365 0.17972
 C1326 C 0.67131 0.83197 0.17398
 N1327 N 0.67731 0.85773 0.14824
 N1328 N 0.65922 0.87452 0.12898
 C1329 C -0.13512 0.63835 0.36784
 N1330 N -0.12901 0.66370 0.34178
 N1331 N -0.14704 0.68083 0.32270
 C1332 C -0.17186 0.67320 0.32892
 N1333 N -0.17796 0.64786 0.35498
 N1334 N -0.15993 0.63072 0.37405
 C1335 C -0.11523 0.61919 0.38871
 N1336 N -0.12135 0.59321 0.41418
 N1337 N -0.10332 0.57531 0.43260
 C1338 C -0.07848 0.58279 0.42630
 N1339 N -0.07238 0.60890 0.40094
 N1340 N -0.09041 0.62678 0.38251
 C1341 C 0.63473 -0.13372 0.36425
 N1342 N 0.65949 -0.12531 0.36980
 N1343 N 0.67752 -0.14215 0.35053
 C1344 C 0.67144 -0.16790 0.32491
 N1345 N 0.64667 -0.17617 0.31924
 N1346 N 0.62863 -0.15933 0.33851
 C1347 C 0.61489 -0.11553 0.38581
 N1348 N 0.59013 -0.12398 0.38029
 N1349 N 0.57210 -0.10711 0.39953
 C1350 C 0.57816 -0.08128 0.42508
 N1351 N 0.60294 -0.07298 0.43072
 N1352 N 0.62098 -0.08985 0.41148
 C1353 C 0.63473 0.63478 0.36449
 N1354 N 0.65951 0.62654 0.37013
 N1355 N 0.67753 0.64358 0.35096
 C1356 C 0.67143 0.66940 0.32534
 N1357 N 0.64663 0.67752 0.31959
 N1358 N 0.62861 0.66048 0.33878
 C1359 C 0.61488 0.61628 0.38593
 N1360 N 0.59009 0.62455 0.38034
 N1361 N 0.57208 0.60744 0.39947
 C1362 C 0.57818 0.58151 0.42498
 N1363 N 0.60298 0.57336 0.43069
 N1364 N 0.62100 0.59048 0.41156
 C1365 C -0.13524 -0.13723 0.36743
 N1366 N -0.12913 -0.16257 0.34143
 N1367 N -0.14717 -0.17957 0.32233
 C1368 C -0.17197 -0.17179 0.32849
 N1369 N -0.17807 -0.14646 0.35450
 N1370 N -0.16004 -0.12945 0.37358
 C1371 C -0.11538 -0.11823 0.38826
 N1372 N -0.12150 -0.09226 0.41367
 N1373 N -0.10346 -0.07441 0.43204
 C1374 C -0.07865 -0.08196 0.42573
 N1375 N -0.07254 -0.10809 0.40045
 N1376 N -0.09058 -0.12591 0.38207
 C1377 C 0.00088 0.00014 0.77040
 N1378 N 0.00089 0.03299 0.78910
 N1379 N 0.00088 0.03289 0.82505
 C1380 C 0.00087 -0.00009 0.84377
 N1381 N 0.00090 -0.03296 0.82494
 N1382 N 0.00090 -0.03284 0.78900
 C1383 C 0.00073 0.00027 0.73071
 N1384 N 0.00062 -0.03259 0.71200
 N1385 N 0.00037 -0.03248 0.67605
 C1386 C 0.00022 0.00050 0.65745
 N1387 N 0.00035 0.03337 0.67616
 N1388 N 0.00060 0.03325 0.71211
 C1389 C 0.25089 0.24942 0.48034
 N1390 N 0.25082 0.28240 0.46173
 N1391 N 0.25066 0.28249 0.42579
 C1392 C 0.25055 0.24961 0.40710
 N1393 N 0.25064 0.21663 0.42572
 N1394 N 0.25080 0.21655 0.46166
 C1395 C 0.25092 0.24933 0.52001
 N1396 N 0.25085 0.21636 0.53862
 N1397 N 0.25072 0.21628 0.57457
 C1398 C 0.25066 0.24917 0.59324
 N1399 N 0.25075 0.28214 0.57462
 N1400 N 0.25088 0.28221 0.53868
 C1401 C 0.11462 0.11247 0.61770
 N1402 N 0.12069 0.08725 0.59157
 N1403 N 0.10263 0.07040 0.57238
 C1404 C 0.07783 0.07821 0.57856
 N1405 N 0.07177 0.10344 0.60468
 N1406 N 0.08983 0.12029 0.62386
 C1407 C 0.13453 0.13125 0.63871
 N1408 N 0.12846 0.15701 0.66435
 N1409 N 0.14654 0.17459 0.68290
 C1410 C 0.17134 0.16698 0.67657
 N1411 N 0.17739 0.14107 0.65105
 N1412 N 0.15932 0.12351 0.63249
 C1413 C 0.36485 0.36438 0.63559
 N1414 N 0.34003 0.37125 0.62872
 N1415 N 0.32200 0.35325 0.64704
 C1416 C 0.32810 0.32772 0.67291
 N1417 N 0.35293 0.32084 0.67980
 N1418 N 0.37097 0.33885 0.66147
 C1419 C 0.38472 0.38422 0.61536
 N1420 N 0.40954 0.37736 0.62222
 N1421 N 0.42757 0.39537 0.60391
 C1422 C 0.42146 0.42091 0.57804
 N1423 N 0.39663 0.42778 0.57117
 N1424 N 0.37860 0.40975 0.58949
 C1425 C 0.36478 0.13443 0.63560
 N1426 N 0.37087 0.15983 0.66153
 N1427 N 0.35279 0.17763 0.67992
 C1428 C 0.32799 0.17064 0.67305
 N1429 N 0.32192 0.14522 0.64713
 N1430 N 0.33999 0.12743 0.62875
 C1431 C 0.38468 0.11488 0.61531
 N1432 N 0.37860 0.08948 0.58937
 N1433 N 0.39668 0.07169 0.57098
 C1434 C 0.42148 0.07869 0.57787
 N1435 N 0.42754 0.10410 0.60380
 N1436 N 0.40947 0.12188 0.62218
 C1437 C 0.13472 0.36829 0.63926
 N1438 N 0.12859 0.34238 0.66479
 N1439 N 0.14663 0.32442 0.68314
 C1440 C 0.17145 0.33178 0.67670
 N1441 N 0.17756 0.35782 0.65128
 N1442 N 0.15953 0.37576 0.63292
 C1443 C 0.11485 0.38749 0.61847
 N1444 N 0.12097 0.41281 0.59240
 N1445 N 0.10294 0.43000 0.57337
 C1446 C 0.07812 0.42245 0.57968
 N1447 N 0.07201 0.39714 0.60576
 N1448 N 0.09004 0.37995 0.62477
 C1449 C 0.38523 0.11367 0.88548
 N1450 N 0.37927 0.08808 0.91139
 N1451 N 0.39742 0.07012 0.92951
 C1452 C 0.42222 0.07709 0.92241
 N1453 N 0.42816 0.10268 0.89650
 N1454 N 0.41001 0.12064 0.87839
 C1455 C 0.36520 0.13350 0.86548
 N1456 N 0.37116 0.15914 0.83962
 N1457 N 0.35301 0.17715 0.82154
 C1458 C 0.32822 0.17019 0.82863
 N1459 N 0.32226 0.14454 0.85449
 N1460 N 0.34041 0.12654 0.87257
 C1461 C 0.11481 0.38805 0.88214
 N1462 N 0.12087 0.41344 0.90810
 N1463 N 0.10280 0.43061 0.92702
 C1464 C 0.07801 0.42296 0.92070
 N1465 N 0.07196 0.39759 0.89473
 N1466 N 0.09003 0.38041 0.87583
 C1467 C 0.13470 0.36883 0.86156
 N1468 N 0.12863 0.34277 0.83623
 N1469 N 0.14670 0.32470 0.81809
 C1470 C 0.17150 0.33211 0.82456
 N1471 N 0.17756 0.35832 0.84976
 N1472 N 0.15949 0.37637 0.86791
 C1473 C 0.11428 0.11083 0.88269
 N1474 N 0.08951 0.11838 0.87613
 N1475 N 0.07137 0.10118 0.89493
 C1476 C 0.07726 0.07579 0.92110
 N1477 N 0.10210 0.06834 0.92764
 N1478 N 0.12024 0.08553 0.90881
 C1479 C 0.13430 0.13002 0.86211
 N1480 N 0.15908 0.12245 0.86863
 N1481 N 0.17723 0.14035 0.85045
 C1482 C 0.17128 0.16645 0.82502
 N1483 N 0.14649 0.17390 0.81839
 N1484 N 0.12834 0.15598 0.83657
 C1485 C 0.38486 0.38452 0.88550
 N1486 N 0.37878 0.41016 0.91126
 N1487 N 0.39685 0.42820 0.92941
 C1488 C 0.42167 0.42125 0.92248
 N1489 N 0.42774 0.39561 0.89673
 N1490 N 0.40967 0.37758 0.87858
 C1491 C 0.36495 0.36464 0.86547
 N1492 N 0.37103 0.33899 0.83973
 N1493 N 0.35295 0.32093 0.82159
 C1494 C 0.32814 0.32788 0.82853
 N1495 N 0.32207 0.35353 0.85427
 N1496 N 0.34014 0.37158 0.87240
 C1497 C 0.49842 -0.00095 0.76987
 N1498 N 0.49859 0.03187 0.78858
 N1499 N 0.49895 0.03166 0.82448
 C1500 C 0.49916 -0.00139 0.84294
 N1501 N 0.49895 -0.03422 0.82422
 N1502 N 0.49859 -0.03400 0.78831
 C1503 C 0.49828 -0.00069 0.73037
 N1504 N 0.49832 -0.03350 0.71163
 N1505 N 0.49844 -0.03325 0.67572
 C1506 C 0.49853 -0.00019 0.65729
 N1507 N 0.49846 0.03263 0.67604
 N1508 N 0.49833 0.03238 0.71195
 C1509 C 0.75135 0.24898 0.48080
 N1510 N 0.75131 0.28192 0.46219
 N1511 N 0.75128 0.28194 0.42628
 C1512 C 0.75128 0.24901 0.40771
 N1513 N 0.75135 0.21606 0.42633
 N1514 N 0.75139 0.21605 0.46224
 C1515 C 0.75117 0.24898 0.52031
 N1516 N 0.75102 0.21605 0.53894
 N1517 N 0.75068 0.21605 0.57485
 C1518 C 0.75046 0.24900 0.59339
 N1519 N 0.75063 0.28193 0.57476
 N1520 N 0.75097 0.28192 0.53885
 C1521 C 0.61468 0.11543 0.61476
 N1522 N 0.62081 0.08990 0.58896
 N1523 N 0.60280 0.07312 0.56966
 C1524 C 0.57802 0.08136 0.57538
 N1525 N 0.57191 0.10703 0.60107
 N1526 N 0.58991 0.12381 0.62037
 C1527 C 0.63448 0.13354 0.63635
 N1528 N 0.62834 0.15905 0.66217
 N1529 N 0.64635 0.17586 0.68145
 C1530 C 0.67113 0.16767 0.67568
 N1531 N 0.67725 0.14202 0.64997
 N1532 N 0.65924 0.12520 0.63070
 C1533 C -0.13550 0.36190 0.63289
 N1534 N -0.16030 0.36947 0.62650
 N1535 N -0.17839 0.35228 0.64543
 C1536 C -0.17236 0.32693 0.67150
 N1537 N -0.14756 0.31936 0.67789
 N1538 N -0.12947 0.33655 0.65896
 C1539 C -0.11554 0.38111 0.61222
 N1540 N -0.09075 0.37361 0.61868
 N1541 N -0.07264 0.39152 0.60042
 C1542 C -0.07864 0.41756 0.57497
 N1543 N -0.10345 0.42495 0.56840
 N1544 N -0.12156 0.40703 0.58666
 C1545 C 0.88434 0.11928 0.61121
 N1546 N 0.90912 0.12707 0.61738
 N1547 N 0.92720 0.10942 0.59889
 C1548 C 0.92116 0.08338 0.57353
 N1549 N 0.89637 0.07573 0.56723
 N1550 N 0.87829 0.09340 0.58571
 C1551 C 0.86445 0.13802 0.63221
 N1552 N 0.83968 0.13010 0.62614
 N1553 N 0.82161 0.14688 0.64538
 C1554 C 0.82766 0.17212 0.67147
 N1555 N 0.85244 0.18004 0.67756
 N1556 N 0.87051 0.16326 0.65829
 C1557 C 0.63435 0.36502 0.63626
 N1558 N 0.62818 0.33931 0.66195
 N1559 N 0.64617 0.32226 0.68116
 C1560 C 0.67097 0.33040 0.67546
 N1561 N 0.67711 0.35623 0.64988
 N1562 N 0.65914 0.37328 0.63067
 C1563 C 0.61458 0.38347 0.61475
 N1564 N 0.62078 0.40915 0.58906
 N1565 N 0.60282 0.42622 0.56982
 C1566 C 0.57801 0.41813 0.57550
 N1567 N 0.57183 0.39231 0.60109
 N1568 N 0.58979 0.37524 0.62031
 C1569 C 0.88502 0.11869 0.88804
 N1570 N 0.87913 0.09268 0.91356
 N1571 N 0.89734 0.07488 0.93165
 C1572 C 0.92209 0.08251 0.92493
 N1573 N 0.92796 0.10867 0.89953
 N1574 N 0.90975 0.12646 0.88143
 C1575 C 0.86497 0.13758 0.86750
 N1576 N 0.87085 0.16297 0.84141
 N1577 N 0.85264 0.17987 0.82254
 C1578 C 0.82791 0.17193 0.82905
 N1579 N 0.82204 0.14654 0.85515
 N1580 N 0.84025 0.12964 0.87401
 C1581 C 0.61485 0.38393 0.88603
 N1582 N 0.62100 0.40966 0.91161
 N1583 N 0.60301 0.42668 0.93079
 C1584 C 0.57822 0.41846 0.92515
 N1585 N 0.57209 0.39259 0.89969
 N1586 N 0.59008 0.37557 0.88052
 C1587 C 0.63462 0.36555 0.86460
 N1588 N 0.62845 0.33972 0.83910
 N1589 N 0.64644 0.32265 0.81995
 C1590 C 0.67122 0.33090 0.82553
 N1591 N 0.67737 0.35688 0.85090
 N1592 N 0.65938 0.37394 0.87005
 C1593 C 0.61434 0.11339 0.88690
 N1594 N 0.58953 0.12140 0.88115
 N1595 N 0.57149 0.10411 0.90014
 C1596 C 0.57751 0.07811 0.92573
 N1597 N 0.60240 0.07035 0.93161
 N1598 N 0.62043 0.08765 0.91260
 C1599 C 0.63426 0.13218 0.86554
 N1600 N 0.65909 0.12410 0.87117
 N1601 N 0.67710 0.14133 0.85209
 C1602 C 0.67100 0.16724 0.82653
 N1603 N 0.64617 0.17523 0.82080
 N1604 N 0.62815 0.15799 0.83989
 C1605 C 0.88451 0.38133 0.88815
 N1606 N 0.87844 0.40726 0.91363
 N1607 N 0.89651 0.42519 0.93189
 C1608 C 0.92133 0.41779 0.92539
 N1609 N 0.92739 0.39173 0.90002
 N1610 N 0.90932 0.37382 0.88175
 C1611 C 0.86459 0.36212 0.86749
 N1612 N 0.87066 0.33670 0.84153
 N1613 N 0.85260 0.31949 0.82265
 C1614 C 0.82779 0.32710 0.82898
 N1615 N 0.82173 0.35252 0.85494
 N1616 N 0.83979 0.36973 0.87381
 C1617 C 0.00069 0.50028 0.77155
 N1618 N 0.00060 0.53321 0.79014
 N1619 N 0.00045 0.53325 0.82609
 C1620 C 0.00037 0.50034 0.84493
 N1621 N 0.00049 0.46741 0.82621
 N1622 N 0.00064 0.46739 0.79026
 C1623 C 0.00070 0.50024 0.73182
 N1624 N 0.00067 0.46730 0.71323
 N1625 N 0.00056 0.46725 0.67728
 C1626 C 0.00047 0.50015 0.65854
 N1627 N 0.00052 0.53310 0.67714
 N1628 N 0.00064 0.53314 0.71309
 C1629 C 0.25121 0.75107 0.48003
 N1630 N 0.25117 0.78400 0.46140
 N1631 N 0.25103 0.78399 0.42549
 C1632 C 0.25092 0.75104 0.40695
 N1633 N 0.25100 0.71811 0.42559
 N1634 N 0.25114 0.71812 0.46149
 C1635 C 0.25116 0.75106 0.51954
 N1636 N 0.25104 0.71811 0.53814
 N1637 N 0.25081 0.71809 0.57405
 C1638 C 0.25068 0.75102 0.59263
 N1639 N 0.25082 0.78397 0.57401
 N1640 N 0.25105 0.78399 0.53810
 C1641 C 0.11475 0.61264 0.61803
 N1642 N 0.12089 0.58729 0.59205
 N1643 N 0.10287 0.57009 0.57309
 C1644 C 0.07806 0.57767 0.57938
 N1645 N 0.07193 0.60302 0.60536
 N1646 N 0.08995 0.62022 0.62431
 C1647 C 0.13460 0.63185 0.63872
 N1648 N 0.12847 0.65780 0.66415
 N1649 N 0.14650 0.67578 0.68241
 C1650 C 0.17132 0.66838 0.67597
 N1651 N 0.17744 0.64229 0.65066
 N1652 N 0.15941 0.62434 0.63239
 C1653 C 0.38460 0.88543 0.61482
 N1654 N 0.40937 0.87838 0.62177
 N1655 N 0.42747 0.89629 0.60353
 C1656 C 0.42144 0.92186 0.57768
 N1657 N 0.39665 0.92890 0.57072
 N1658 N 0.37855 0.91099 0.58896
 C1659 C 0.36470 0.86574 0.63493
 N1660 N 0.33992 0.87277 0.62800
 N1661 N 0.32184 0.85486 0.64626
 C1662 C 0.32789 0.82928 0.67210
 N1663 N 0.35268 0.82224 0.67903
 N1664 N 0.37076 0.84017 0.66077
 C1665 C 0.36471 0.63517 0.63494
 N1666 N 0.37081 0.66073 0.66073
 N1667 N 0.35276 0.67882 0.67893
 C1668 C 0.32793 0.67201 0.67200
 N1669 N 0.32185 0.64645 0.64620
 N1670 N 0.33989 0.62836 0.62801
 C1671 C 0.38461 0.61523 0.61486
 N1672 N 0.37852 0.58966 0.58907
 N1673 N 0.39658 0.57157 0.57089
 C1674 C 0.42140 0.57840 0.57783
 N1675 N 0.42748 0.60397 0.60362
 N1676 N 0.40942 0.62205 0.62180
 C1677 C 0.11460 0.88873 0.61752
 N1678 N 0.12067 0.91401 0.59140
 N1679 N 0.10260 0.93105 0.57234
 C1680 C 0.07780 0.92336 0.57866
 N1681 N 0.07175 0.89808 0.60479
 N1682 N 0.08981 0.88104 0.62383
 C1683 C 0.13450 0.86970 0.63833
 N1684 N 0.12843 0.84383 0.66392
 N1685 N 0.14650 0.82600 0.68228
 C1686 C 0.17131 0.83345 0.67579
 N1687 N 0.17737 0.85945 0.65033
 N1688 N 0.15930 0.87727 0.63195
 C1689 C 0.38480 0.61532 0.88492
 N1690 N 0.37874 0.58973 0.91078
 N1691 N 0.39682 0.57176 0.92904
 C1692 C 0.42164 0.57872 0.92212
 N1693 N 0.42769 0.60431 0.89625
 N1694 N 0.40961 0.62228 0.87800
 C1695 C 0.36486 0.63514 0.86477
 N1696 N 0.37093 0.66076 0.83894
 N1697 N 0.35285 0.67876 0.82071
 C1698 C 0.32803 0.67180 0.82763
 N1699 N 0.32198 0.64617 0.85345
 N1700 N 0.34005 0.62817 0.87167
 C1701 C 0.11428 0.88874 0.88249
 N1702 N 0.12026 0.91397 0.90862
 N1703 N 0.10214 0.93111 0.92753
 C1704 C 0.07728 0.92369 0.92108
 N1705 N 0.07137 0.89836 0.89491
 N1706 N 0.08949 0.88122 0.87603
 C1707 C 0.13428 0.86963 0.86176
 N1708 N 0.12828 0.84377 0.83619
 N1709 N 0.14640 0.82595 0.81786
 C1710 C 0.17121 0.83340 0.82434
 N1711 N 0.17720 0.85938 0.84980
 N1712 N 0.15908 0.87718 0.86814
 C1713 C 0.11471 0.61246 0.88167
 N1714 N 0.08993 0.62019 0.87539
 N1715 N 0.07187 0.60313 0.89442
 C1716 C 0.07792 0.57780 0.92048
 N1717 N 0.10271 0.57007 0.92677
 N1718 N 0.12078 0.58713 0.90772
 C1719 C 0.13459 0.63153 0.86095
 N1720 N 0.15937 0.62387 0.86726
 N1721 N 0.17745 0.64180 0.84898
 C1722 C 0.17139 0.66800 0.82372
 N1723 N 0.14659 0.67553 0.81729
 N1724 N 0.12852 0.65758 0.83555
 C1725 C 0.38521 0.88428 0.88520
 N1726 N 0.37928 0.90974 0.91117
 N1727 N 0.39746 0.92736 0.92948
 C1728 C 0.42223 0.92015 0.92250
 N1729 N 0.42815 0.89468 0.89652
 N1730 N 0.40998 0.87706 0.87822
 C1731 C 0.36517 0.86490 0.86497
 N1732 N 0.37109 0.83941 0.83902
 N1733 N 0.35291 0.82179 0.82073
 C1734 C 0.32814 0.82902 0.82768
 N1735 N 0.32222 0.85453 0.85362
 N1736 N 0.34040 0.87215 0.87192
 C1737 C 0.49824 0.49976 0.76984
 N1738 N 0.49836 0.53273 0.78833
 N1739 N 0.49863 0.53278 0.82424
 C1740 C 0.49880 0.49987 0.84290
 N1741 N 0.49865 0.46690 0.82439
 N1742 N 0.49838 0.46685 0.78849
 C1743 C 0.49817 0.49971 0.73035
 N1744 N 0.49825 0.46675 0.71184
 N1745 N 0.49841 0.46671 0.67593
 C1746 C 0.49851 0.49964 0.65728
 N1747 N 0.49839 0.53260 0.67581
 N1748 N 0.49823 0.53263 0.71171
 C1749 C 0.75106 0.75111 0.48006
 N1750 N 0.75098 0.78403 0.46142
 N1751 N 0.75084 0.78400 0.42551
 C1752 C 0.75077 0.75104 0.40698
 N1753 N 0.75089 0.71812 0.42564
 N1754 N 0.75103 0.71815 0.46154
 C1755 C 0.75100 0.75111 0.51957
 N1756 N 0.75091 0.71816 0.53817
 N1757 N 0.75067 0.71813 0.57408
 C1758 C 0.75049 0.75105 0.59266
 N1759 N 0.75061 0.78401 0.57405
 N1760 N 0.75086 0.78404 0.53814
 C1761 C 0.61466 0.61600 0.61439
 N1762 N 0.62083 0.59031 0.58873
 N1763 N 0.60285 0.57318 0.56962
 C1764 C 0.57804 0.58119 0.57539
 N1765 N 0.57188 0.60700 0.60095
 N1766 N 0.58986 0.62413 0.62005
 C1767 C 0.63447 0.63455 0.63576
 N1768 N 0.62831 0.66023 0.66143
 N1769 N 0.64631 0.67735 0.68053
 C1770 C 0.67112 0.66932 0.67473
 N1771 N 0.67726 0.64352 0.64916
 N1772 N 0.65927 0.62641 0.63007
 C1773 C 0.88434 0.88204 0.61122
 N1774 N 0.90913 0.87443 0.61756
 N1775 N 0.92720 0.89227 0.59919
 C1776 C 0.92115 0.91833 0.57379
 N1777 N 0.89635 0.92581 0.56733
 N1778 N 0.87827 0.90795 0.58569
 C1779 C 0.86445 0.86299 0.63203
 N1780 N 0.83966 0.87071 0.62580
 N1781 N 0.82161 0.85365 0.64487
 C1782 C 0.82768 0.82831 0.67092
 N1783 N 0.85248 0.82060 0.67716
 N1784 N 0.87054 0.83766 0.65808
 C1785 C 0.88455 0.61925 0.61167
 N1786 N 0.90934 0.62674 0.61811
 N1787 N 0.92744 0.60880 0.59991
 C1788 C 0.92141 0.58272 0.57456
 N1789 N 0.89661 0.57535 0.56801
 N1790 N 0.87851 0.59331 0.58620
 C1791 C 0.86462 0.63843 0.63230
 N1792 N 0.83983 0.63082 0.62595
 N1793 N 0.82175 0.64797 0.64487
 C1794 C 0.82778 0.67329 0.67089
 N1795 N 0.85257 0.68091 0.67725
 N1796 N 0.87066 0.66376 0.65832
 C1797 C 0.61462 0.88456 0.61443
 N1798 N 0.62073 0.91014 0.58862
 N1799 N 0.60271 0.92701 0.56939
 C1800 C 0.57794 0.91877 0.57519
 N1801 N 0.57185 0.89304 0.60088
 N1802 N 0.58987 0.87618 0.62011
 C1803 C 0.63444 0.86640 0.63593
 N1804 N 0.62835 0.84080 0.66173
 N1805 N 0.64639 0.82393 0.68094
 C1806 C 0.67115 0.83218 0.67511
 N1807 N 0.67722 0.85793 0.64943
 N1808 N 0.65919 0.87479 0.63022
 C1809 C 0.88454 0.61918 0.88796
 N1810 N 0.87846 0.59323 0.91346
 N1811 N 0.89653 0.57537 0.93182
 C1812 C 0.92133 0.58287 0.92538
 N1813 N 0.92740 0.60895 0.89999
 N1814 N 0.90934 0.62680 0.88163
 C1815 C 0.86465 0.63824 0.86717
 N1816 N 0.87073 0.66364 0.84117
 N1817 N 0.85267 0.68073 0.82214
 C1818 C 0.82788 0.67298 0.82839
 N1819 N 0.82182 0.64757 0.85439
 N1820 N 0.83987 0.63048 0.87341
 C1821 C 0.61432 0.88440 0.88674
 N1822 N 0.62037 0.90996 0.91255
 N1823 N 0.60232 0.92692 0.93174
 C1824 C 0.57746 0.91897 0.92593
 N1825 N 0.57148 0.89311 0.90026
 N1826 N 0.58954 0.87616 0.88109
 C1827 C 0.63424 0.86611 0.86516
 N1828 N 0.62818 0.84050 0.83939
 N1829 N 0.64623 0.82367 0.82009
 C1830 C 0.67103 0.83191 0.82574
 N1831 N 0.67707 0.85765 0.85141
 N1832 N 0.65902 0.87448 0.87071
 C1833 C 0.61494 0.61574 0.88555
 N1834 N 0.59017 0.62411 0.88000
 N1835 N 0.57216 0.60715 0.89923
 C1836 C 0.57828 0.58131 0.92480
 N1837 N 0.60306 0.57307 0.93048
 N1838 N 0.62107 0.59003 0.91124
 C1839 C 0.63473 0.63408 0.86406
 N1840 N 0.65950 0.62571 0.86957
 N1841 N 0.67749 0.64275 0.85038
 C1842 C 0.67136 0.66869 0.82491
 N1843 N 0.64657 0.67693 0.81928
 N1844 N 0.62857 0.65988 0.83847
 C1845 C 0.88499 0.88122 0.88763
 N1846 N 0.87908 0.90716 0.91316
 N1847 N 0.89727 0.92487 0.93135
 C1848 C 0.92203 0.91723 0.92473
 N1849 N 0.92793 0.89114 0.89932
 N1850 N 0.90975 0.87344 0.88112
 C1851 C 0.86496 0.86236 0.86699
 N1852 N 0.87087 0.83702 0.84091
 N1853 N 0.85269 0.82013 0.82200
 C1854 C 0.82794 0.82801 0.82844
 N1855 N 0.82203 0.85334 0.85453
 N1856 N 0.84021 0.87024 0.87343
   
