data_POSCAR
  _audit_creation_date              2014-09-24
  _audit_creation_method            'ToBaCCo'
  _symmetry_space_group_name_H-M    'P1'
  _symmetry_Int_Tables_number       1
  _symmetry_cell_setting            triclinic
  loop_
  _symmetry_equiv_pos_as_xyz
 x,y,z
_cell_length_a 114.8400
_cell_length_b 114.8776
_cell_length_c 115.1765
_cell_angle_alpha 89.981700
_cell_angle_beta 89.980200
_cell_angle_gamma 89.958100
loop_
  _atom_site_label
  _atom_site_type_symbol
  _atom_site_fract_x
  _atom_site_fract_y
  _atom_site_fract_z
N1 N 0.35394 0.32146 0.33015
 N2 N 0.35432 0.33009 0.32266
 C3 C 0.36374 0.32876 0.31580
 C4 C 0.36950 0.31875 0.31918
 C5 C 0.36306 0.31434 0.32831
 H6 H 0.36612 0.33448 0.30873
 H7 H 0.36477 0.30643 0.33311
 Cu8 Cu 0.34213 0.34189 0.32227
 Cu9 Cu 0.34127 0.31973 0.34123
 Cu10 Cu 0.32121 0.34220 0.34273
 N11 N 0.33013 0.35386 0.32251
 N12 N 0.32190 0.35384 0.33045
 C13 C 0.31461 0.36280 0.32850
 C14 C 0.31852 0.36880 0.31887
 C15 C 0.32840 0.36293 0.31528
 H16 H 0.30702 0.36481 0.33368
 H17 H 0.33381 0.36506 0.30789
 N18 N 0.32194 0.32955 0.35426
 N19 N 0.32944 0.32086 0.35357
 C20 C 0.32760 0.31351 0.36250
 C21 C 0.31853 0.31780 0.36911
 C22 C 0.31515 0.32797 0.36367
 H23 H 0.33251 0.30565 0.36413
 H24 H 0.30817 0.33371 0.36633
 H25 H 0.32847 0.32943 0.33277
 H26 H 0.33864 0.33743 0.34258
 N27 N 0.35475 0.82225 -0.16978
 N28 N 0.35452 0.83036 -0.17785
 C29 C 0.36345 0.82863 -0.18524
 C30 C 0.36964 0.81899 -0.18151
 C31 C 0.36389 0.81517 -0.17168
 H32 H 0.36537 0.83398 -0.19273
 H33 H 0.36611 0.80772 -0.16638
 Cu34 Cu 0.34249 0.84231 -0.17775
 Cu35 Cu 0.34304 0.82128 -0.15757
 Cu36 Cu 0.32143 0.84242 -0.15758
 N37 N 0.33045 0.85424 -0.17769
 N38 N 0.32208 0.85405 -0.16988
 C39 C 0.31472 0.86295 -0.17189
 C40 C 0.31874 0.86909 -0.18141
 C41 C 0.32875 0.86335 -0.18487
 H42 H 0.30705 0.86485 -0.16677
 H43 H 0.33429 0.86560 -0.19214
 N44 N 0.32230 0.82992 -0.14586
 N45 N 0.33043 0.82178 -0.14595
 C46 C 0.32858 0.81445 -0.13701
 C47 C 0.31890 0.81821 -0.13098
 C48 C 0.31514 0.82803 -0.13679
 H49 H 0.33390 0.80696 -0.13495
 H50 H 0.30769 0.83336 -0.13456
 H51 H 0.32985 0.82940 -0.16667
 H52 H 0.33904 0.83880 -0.15719
 N53 N 0.85354 0.32200 -0.17027
 N54 N 0.85424 0.33085 -0.17748
 C55 C 0.86367 0.32943 -0.18431
 C56 C 0.86909 0.31913 -0.18121
 C57 C 0.86243 0.31464 -0.17228
 H58 H 0.86632 0.33532 -0.19114
 H59 H 0.86391 0.30658 -0.16766
 Cu60 Cu 0.84250 0.34310 -0.17746
 Cu61 Cu 0.84096 0.32046 -0.15908
 Cu62 Cu 0.82112 0.34307 -0.15744
 N63 N 0.83020 0.35478 -0.17757
 N64 N 0.82185 0.35465 -0.16976
 C65 C 0.81445 0.36350 -0.17183
 C66 C 0.81842 0.36955 -0.18142
 C67 C 0.82844 0.36380 -0.18486
 H68 H 0.80677 0.36541 -0.16673
 H69 H 0.83397 0.36599 -0.19214
 N70 N 0.82182 0.33042 -0.14590
 N71 N 0.82924 0.32167 -0.14666
 C72 C 0.82741 0.31433 -0.13773
 C73 C 0.81843 0.31868 -0.13105
 C74 C 0.81509 0.32889 -0.13645
 H75 H 0.83227 0.30642 -0.13614
 H76 H 0.80818 0.33468 -0.13373
 H77 H 0.82851 0.33056 -0.16763
 H78 H 0.83853 0.33819 -0.15734
 N79 N 0.85380 0.82218 0.32971
 N80 N 0.85370 0.83037 0.32173
 C81 C 0.86288 0.82883 0.31459
 C82 C 0.86903 0.81921 0.31837
 C83 C 0.86306 0.81521 0.32799
 H84 H 0.86494 0.83426 0.30720
 H85 H 0.86518 0.80767 0.33321
 Cu86 Cu 0.84159 0.84222 0.32167
 Cu87 Cu 0.84144 0.82075 0.34123
 Cu88 Cu 0.82117 0.84313 0.34247
 N89 N 0.82960 0.85416 0.32164
 N90 N 0.82170 0.85452 0.32990
 C91 C 0.81455 0.86362 0.32803
 C92 C 0.81821 0.86928 0.31808
 C93 C 0.82778 0.86306 0.31424
 H94 H 0.80726 0.86596 0.33350
 H95 H 0.83302 0.86493 0.30666
 N96 N 0.82212 0.83066 0.35424
 N97 N 0.82972 0.82204 0.35368
 C98 C 0.82792 0.81478 0.36269
 C99 C 0.81877 0.81903 0.36920
 C100 C 0.81531 0.82911 0.36364
 H101 H 0.83285 0.80694 0.36438
 H102 H 0.80822 0.83476 0.36618
 H103 H 0.82832 0.83003 0.33287
 H104 H 0.83858 0.83842 0.34220
 N105 N 0.64613 0.67861 0.33031
 N106 N 0.64591 0.67015 0.32262
 C107 C 0.63679 0.67178 0.31545
 C108 C 0.63106 0.68181 0.31883
 C109 C 0.63721 0.68593 0.32826
 H110 H 0.63449 0.66616 0.30828
 H111 H 0.63527 0.69362 0.33332
 Cu112 Cu 0.65764 0.65791 0.32272
 Cu113 Cu 0.65777 0.67939 0.34254
 Cu114 Cu 0.67900 0.65796 0.34270
 N115 N 0.66984 0.64613 0.32272
 N116 N 0.67824 0.64630 0.33048
 C117 C 0.68556 0.63737 0.32846
 C118 C 0.68150 0.63127 0.31897
 C119 C 0.67150 0.63703 0.31554
 H120 H 0.69322 0.63541 0.33356
 H121 H 0.66595 0.63478 0.30830
 N122 N 0.67829 0.67049 0.35435
 N123 N 0.67024 0.67870 0.35424
 C124 C 0.67206 0.68595 0.36324
 C125 C 0.68170 0.68210 0.36929
 C126 C 0.68543 0.67229 0.36345
 H127 H 0.66676 0.69345 0.36532
 H128 H 0.69281 0.66689 0.36569
 H129 H 0.67063 0.67080 0.33337
 H130 H 0.66139 0.66174 0.34320
 N131 N 0.64627 0.17873 -0.17031
 N132 N 0.64612 0.17037 -0.17812
 C133 C 0.63696 0.17201 -0.18524
 C134 C 0.63115 0.18194 -0.18173
 C135 C 0.63729 0.18599 -0.17226
 H136 H 0.63468 0.16644 -0.19246
 H137 H 0.63527 0.19359 -0.16709
 Cu138 Cu 0.65803 0.15830 -0.17823
 Cu139 Cu 0.65779 0.17932 -0.15796
 Cu140 Cu 0.67824 0.15712 -0.15712
 N141 N 0.66972 0.14604 -0.17783
 N142 N 0.67742 0.14547 -0.16939
 C143 C 0.68438 0.13620 -0.17112
 C144 C 0.68091 0.13072 -0.18124
 C145 C 0.67159 0.13719 -0.18527
 H146 H 0.69156 0.13373 -0.16556
 H147 H 0.66657 0.13555 -0.19305
 N148 N 0.67768 0.16978 -0.14556
 N149 N 0.67008 0.17839 -0.14608
 C150 C 0.67212 0.18582 -0.13727
 C151 C 0.68139 0.18165 -0.13088
 C152 C 0.68471 0.17147 -0.13634
 H153 H 0.66720 0.19366 -0.13555
 H154 H 0.69180 0.16581 -0.13383
 H155 H 0.67091 0.17048 -0.16660
 H156 H 0.66082 0.16156 -0.15752
 N157 N 0.14591 0.67852 -0.16977
 N158 N 0.14559 0.66997 -0.17735
 C159 C 0.13640 0.67155 -0.18446
 C160 C 0.13074 0.68164 -0.18114
 C161 C 0.13700 0.68585 -0.17182
 H162 H 0.13403 0.66587 -0.19156
 H163 H 0.13515 0.69362 -0.16685
 Cu164 Cu 0.15749 0.65790 -0.17734
 Cu165 Cu 0.15763 0.67941 -0.15761
 Cu166 Cu 0.17855 0.65763 -0.15711
 N167 N 0.16932 0.64575 -0.17706
 N168 N 0.17765 0.64586 -0.16923
 C169 C 0.18491 0.63686 -0.17118
 C170 C 0.18088 0.63078 -0.18070
 C171 C 0.17096 0.63662 -0.18422
 H172 H 0.19257 0.63490 -0.16608
 H173 H 0.16549 0.63445 -0.19154
 N174 N 0.17798 0.67032 -0.14562
 N175 N 0.17016 0.67875 -0.14596
 C176 C 0.17214 0.68614 -0.13710
 C177 C 0.18159 0.68212 -0.13088
 C178 C 0.18508 0.67209 -0.13648
 H179 H 0.16702 0.69381 -0.13521
 H180 H 0.19229 0.66653 -0.13406
 H181 H 0.17054 0.67064 -0.16653
 H182 H 0.16102 0.66174 -0.15684
 N183 N 0.14604 0.17872 0.32996
 N184 N 0.14568 0.17015 0.32240
 C185 C 0.13649 0.17173 0.31529
 C186 C 0.13085 0.18183 0.31861
 C187 C 0.13713 0.18605 0.32792
 H188 H 0.13410 0.16605 0.30820
 H189 H 0.13527 0.19381 0.33291
 Cu190 Cu 0.15764 0.15817 0.32238
 Cu191 Cu 0.15772 0.17953 0.34220
 Cu192 Cu 0.17689 0.15623 0.34409
 N193 N 0.16958 0.14616 0.32244
 N194 N 0.17713 0.14546 0.33100
 C195 C 0.18428 0.13638 0.32910
 C196 C 0.18110 0.13118 0.31876
 C197 C 0.17177 0.13762 0.31473
 H198 H 0.19127 0.13373 0.33483
 H199 H 0.16690 0.13608 0.30684
 N200 N 0.17721 0.16953 0.35493
 N201 N 0.17010 0.17852 0.35402
 C202 C 0.17249 0.18616 0.36255
 C203 C 0.18151 0.18175 0.36914
 C204 C 0.18432 0.17122 0.36408
 H205 H 0.16791 0.19425 0.36402
 H206 H 0.19105 0.16525 0.36688
 H207 H 0.17070 0.16978 0.33420
 H208 H 0.15970 0.16190 0.34315
 N209 N 0.64609 0.32160 0.66961
 N210 N 0.64562 0.33026 0.67706
 C211 C 0.63647 0.32863 0.68421
 C212 C 0.63098 0.31840 0.68105
 C213 C 0.63731 0.31416 0.67178
 H214 H 0.63399 0.33438 0.69121
 H215 H 0.63557 0.30630 0.66691
 Cu216 Cu 0.65712 0.34272 0.67683
 Cu217 Cu 0.65777 0.32077 0.65744
 Cu218 Cu 0.67870 0.34242 0.65698
 N219 N 0.66941 0.35440 0.67681
 N220 N 0.67789 0.35413 0.66914
 C221 C 0.68529 0.36296 0.67125
 C222 C 0.68121 0.36912 0.68071
 C223 C 0.67111 0.36348 0.68403
 H224 H 0.69306 0.36480 0.66626
 H225 H 0.66553 0.36576 0.69124
 N226 N 0.67809 0.32982 0.64541
 N227 N 0.67024 0.32143 0.64573
 C228 C 0.67218 0.31406 0.63684
 C229 C 0.68164 0.31805 0.63062
 C230 C 0.68517 0.32805 0.63625
 H231 H 0.66704 0.30641 0.63494
 H232 H 0.69240 0.33358 0.63385
 H233 H 0.67040 0.32972 0.66661
 H234 H 0.66115 0.33844 0.65647
 N235 N 0.64615 0.82143 1.17001
 N236 N 0.64580 0.82998 1.17759
 C237 C 0.63667 0.82833 1.18476
 C238 C 0.63108 0.81820 1.18149
 C239 C 0.63732 0.81403 1.17213
 H240 H 0.63427 0.83401 1.19185
 H241 H 0.63550 0.80625 1.16717
 Cu242 Cu 0.65737 0.84235 1.17743
 Cu243 Cu 0.65778 0.82068 1.15777
 Cu244 Cu 0.67860 0.84247 1.15726
 N245 N 0.66951 0.85415 1.17736
 N246 N 0.67777 0.85414 1.16946
 C247 C 0.68503 0.86311 1.17145
 C248 C 0.68110 0.86905 1.18111
 C249 C 0.67125 0.86314 1.18467
 H250 H 0.69263 0.86516 1.16629
 H251 H 0.66581 0.86523 1.19204
 N252 N 0.67800 0.82987 1.14567
 N253 N 0.67020 0.82144 1.14602
 C254 C 0.67216 0.81408 1.13713
 C255 C 0.68159 0.81811 1.13089
 C256 C 0.68508 0.82813 1.13651
 H257 H 0.66708 0.80639 1.13525
 H258 H 0.69230 0.83368 1.13411
 H259 H 0.67056 0.82955 1.16683
 H260 H 0.66110 0.83836 1.15696
 N261 N 0.14610 0.32151 1.16947
 N262 N 0.14570 0.33010 1.17700
 C263 C 0.13656 0.32847 1.18416
 C264 C 0.13100 0.31831 1.18093
 C265 C 0.13728 0.31410 1.17161
 H266 H 0.13415 0.33418 1.19123
 H267 H 0.13549 0.30628 1.16669
 Cu268 Cu 0.15728 0.34248 1.17688
 Cu269 Cu 0.15779 0.32069 1.15730
 Cu270 Cu 0.17899 0.34208 1.15719
 N271 N 0.16962 0.35409 1.17695
 N272 N 0.17816 0.35377 1.16935
 C273 C 0.18556 0.36260 1.17146
 C274 C 0.18141 0.36880 1.18085
 C275 C 0.17128 0.36320 1.18414
 H276 H 0.19335 0.36441 1.16651
 H277 H 0.16563 0.36555 1.19128
 N278 N 0.17837 0.32955 1.14557
 N279 N 0.17031 0.32135 1.14564
 C280 C 0.17218 0.31412 1.13662
 C281 C 0.18184 0.31798 1.13061
 C282 C 0.18555 0.32776 1.13650
 H283 H 0.16688 0.30664 1.13451
 H284 H 0.19293 0.33317 1.13429
 H285 H 0.17045 0.32938 1.16664
 H286 H 0.16138 0.33832 1.15651
 N287 N 0.14608 0.82148 0.66976
 N288 N 0.14572 0.83008 0.67729
 C289 C 0.13653 0.82854 0.68440
 C290 C 0.13092 0.81841 0.68116
 C291 C 0.13720 0.81414 0.67186
 H292 H 0.13415 0.83425 0.69147
 H293 H 0.13539 0.80632 0.66696
 Cu294 Cu 0.15760 0.84215 0.67711
 Cu295 Cu 0.15782 0.82053 0.65760
 Cu296 Cu 0.17879 0.84225 0.65710
 N297 N 0.16950 0.85421 0.67700
 N298 N 0.17788 0.85404 0.66922
 C299 C 0.18519 0.86296 0.67122
 C300 C 0.18113 0.86907 0.68072
 C301 C 0.17115 0.86332 0.68418
 H302 H 0.19290 0.86486 0.66617
 H303 H 0.16565 0.86552 0.69147
 N304 N 0.17821 0.82956 0.64561
 N305 N 0.17038 0.82115 0.64595
 C306 C 0.17234 0.81377 0.63708
 C307 C 0.18180 0.81777 0.63085
 C308 C 0.18531 0.82778 0.63646
 H309 H 0.16721 0.80612 0.63517
 H310 H 0.19252 0.83332 0.63404
 H311 H 0.17070 0.82930 0.66651
 H312 H 0.16128 0.83816 0.65671
 N313 N 0.35464 0.67769 0.66998
 N314 N 0.35431 0.66968 0.67813
 C315 C 0.36321 0.67145 0.68555
 C316 C 0.36943 0.68102 0.68178
 C317 C 0.36378 0.68476 0.67187
 H318 H 0.36505 0.66620 0.69312
 H319 H 0.36608 0.69215 0.66653
 Cu320 Cu 0.34225 0.65778 0.67817
 Cu321 Cu 0.34303 0.67857 0.65768
 Cu322 Cu 0.32149 0.65741 0.65766
 N323 N 0.33028 0.64580 0.67796
 N324 N 0.32205 0.64586 0.67002
 C325 C 0.31473 0.63693 0.67199
 C326 C 0.31863 0.63091 0.68161
 C327 C 0.32853 0.63673 0.68518
 H328 H 0.30715 0.63493 0.66679
 H329 H 0.33394 0.63458 0.69255
 N330 N 0.32241 0.66983 0.64587
 N331 N 0.33052 0.67797 0.64597
 C332 C 0.32868 0.68528 0.63700
 C333 C 0.31903 0.68148 0.63095
 C334 C 0.31527 0.67168 0.63678
 H335 H 0.33398 0.69278 0.63496
 H336 H 0.30783 0.66636 0.63457
 H337 H 0.32973 0.67056 0.66675
 H338 H 0.33909 0.66103 0.65751
 N339 N 0.35373 0.17826 1.17005
 N340 N 0.35389 0.16987 1.17782
 C341 C 0.36320 0.17132 1.18479
 C342 C 0.36912 0.18115 1.18119
 C343 C 0.36288 0.18534 1.17182
 H344 H 0.36547 0.16573 1.19200
 H345 H 0.36480 0.19303 1.16675
 Cu346 Cu 0.34181 0.15802 1.17798
 Cu347 Cu 0.34134 0.17961 1.15855
 Cu348 Cu 0.32143 0.15693 1.15718
 N349 N 0.32981 0.14611 1.17813
 N350 N 0.32205 0.14556 1.16974
 C351 C 0.31502 0.13638 1.17160
 C352 C 0.31854 0.13093 1.18170
 C353 C 0.32793 0.13731 1.18564
 H354 H 0.30784 0.13388 1.16607
 H355 H 0.33305 0.13558 1.19333
 N356 N 0.32223 0.16943 1.14545
 N357 N 0.32975 0.17812 1.14601
 C358 C 0.32795 0.18531 1.13694
 C359 C 0.31883 0.18098 1.13044
 C360 C 0.31542 0.17092 1.13604
 H361 H 0.33283 0.19317 1.13523
 H362 H 0.30839 0.16520 1.13350
 H363 H 0.32835 0.17008 1.16685
 H364 H 0.33879 0.16191 1.15749
 N365 N 0.85440 0.67773 1.16995
 N366 N 0.85420 0.66958 1.17798
 C367 C 0.86310 0.67134 1.18539
 C368 C 0.86921 0.68103 1.18174
 C369 C 0.86347 0.68487 1.17192
 H370 H 0.86506 0.66596 1.19284
 H371 H 0.86570 0.69234 1.16666
 Cu372 Cu 0.84244 0.65740 1.17781
 Cu373 Cu 0.84278 0.67861 1.15768
 Cu374 Cu 0.82138 0.65737 1.15754
 N375 N 0.83026 0.64564 1.17771
 N376 N 0.82197 0.64578 1.16984
 C377 C 0.81461 0.63689 1.17182
 C378 C 0.81855 0.63082 1.18140
 C379 C 0.82850 0.63658 1.18493
 H380 H 0.80700 0.63493 1.16666
 H381 H 0.83397 0.63435 1.19224
 N382 N 0.82224 0.66983 1.14583
 N383 N 0.83029 0.67803 1.14599
 C384 C 0.82842 0.68537 1.13705
 C385 C 0.81881 0.68153 1.13097
 C386 C 0.81511 0.67167 1.13673
 H387 H 0.83368 0.69290 1.13504
 H388 H 0.80772 0.66631 1.13448
 H389 H 0.82971 0.67032 1.16685
 H390 H 0.83899 0.66104 1.15725
 N391 N 0.85371 0.17854 0.66994
 N392 N 0.85389 0.17016 0.67771
 C393 C 0.86300 0.17182 0.68489
 C394 C 0.86870 0.18184 0.68148
 C395 C 0.86259 0.18589 0.67199
 H396 H 0.86530 0.16624 0.69210
 H397 H 0.86456 0.19352 0.66685
 Cu398 Cu 0.84227 0.15785 0.67757
 Cu399 Cu 0.84221 0.17911 0.65755
 Cu400 Cu 0.82169 0.15699 0.65683
 N401 N 0.83031 0.14587 0.67747
 N402 N 0.82249 0.14540 0.66914
 C403 C 0.81543 0.13624 0.67102
 C404 C 0.81901 0.13072 0.68106
 C405 C 0.82848 0.13703 0.68493
 H406 H 0.80817 0.13383 0.66556
 H407 H 0.83358 0.13530 0.69263
 N408 N 0.82230 0.16957 0.64520
 N409 N 0.82993 0.17815 0.64566
 C410 C 0.82791 0.18553 0.63679
 C411 C 0.81861 0.18136 0.63046
 C412 C 0.81527 0.17124 0.63599
 H413 H 0.83285 0.19334 0.63501
 H414 H 0.80816 0.16559 0.63352
 H415 H 0.82923 0.17021 0.66631
 H416 H 0.83912 0.16138 0.65692
 N417 N 0.32114 0.35391 0.67031
 N418 N 0.32983 0.35442 0.67773
 C419 C 0.32844 0.36383 0.68457
 C420 C 0.31835 0.36947 0.68125
 C421 C 0.31392 0.36296 0.67218
 H422 H 0.33422 0.36631 0.69155
 H423 H 0.30597 0.36458 0.66741
 Cu424 Cu 0.34184 0.34248 0.67790
 Cu425 Cu 0.31949 0.34116 0.65930
 Cu426 Cu 0.34377 0.32345 0.65597
 N427 N 0.35322 0.32994 0.67814
 N428 N 0.35405 0.32260 0.66942
 C429 C 0.36307 0.31535 0.67131
 C430 C 0.36811 0.31829 0.68181
 C431 C 0.36163 0.32755 0.68594
 H432 H 0.36586 0.30858 0.66541
 H433 H 0.36316 0.33237 0.69385
 N434 N 0.33040 0.32318 0.64522
 N435 N 0.32110 0.32980 0.64658
 C436 C 0.31348 0.32751 0.63800
 C437 C 0.31820 0.31902 0.63094
 C438 C 0.32892 0.31646 0.63575
 H439 H 0.30513 0.33174 0.63691
 H440 H 0.33512 0.31009 0.63264
 H441 H 0.33058 0.32861 0.66652
 H442 H 0.33705 0.34034 0.65736
 N443 N 0.32131 0.85382 0.17019
 N444 N 0.32994 0.85432 0.17766
 C445 C 0.32858 0.86380 0.18441
 C446 C 0.31850 0.86944 0.18102
 C447 C 0.31409 0.86288 0.17199
 H448 H 0.33432 0.86631 0.19141
 H449 H 0.30618 0.86451 0.16716
 Cu450 Cu 0.34179 0.84221 0.17821
 Cu451 Cu 0.31982 0.84123 0.15902
 Cu452 Cu 0.34306 0.82208 0.15697
 N453 N 0.35395 0.83043 0.17783
 N454 N 0.35458 0.82280 0.16935
 C455 C 0.36384 0.81582 0.17111
 C456 C 0.36924 0.81924 0.18127
 C457 C 0.36276 0.82852 0.18532
 H458 H 0.36635 0.80866 0.16554
 H459 H 0.36437 0.83350 0.19312
 N460 N 0.33038 0.82269 0.14545
 N461 N 0.32139 0.82979 0.14641
 C462 C 0.31401 0.82785 0.13754
 C463 C 0.31858 0.81911 0.13070
 C464 C 0.32895 0.81603 0.13593
 H465 H 0.30591 0.83244 0.13613
 H466 H 0.33490 0.80930 0.13310
 H467 H 0.32996 0.82846 0.16710
 H468 H 0.33763 0.83932 0.15775
 N469 N 0.82171 0.35441 0.16984
 N470 N 0.82985 0.35423 0.17786
 C471 C 0.82818 0.36321 0.18518
 C472 C 0.81853 0.36936 0.18148
 C473 C 0.81464 0.36357 0.17172
 H474 H 0.83357 0.36519 0.19262
 H475 H 0.80719 0.36582 0.16643
 Cu476 Cu 0.84172 0.34217 0.17796
 Cu477 Cu 0.82085 0.34280 0.15755
 Cu478 Cu 0.84381 0.32325 0.15590
 N479 N 0.85372 0.33024 0.17770
 N480 N 0.85452 0.32285 0.16902
 C481 C 0.86365 0.31573 0.17083
 C482 C 0.86880 0.31881 0.18123
 C483 C 0.86229 0.32802 0.18538
 H484 H 0.86636 0.30885 0.16502
 H485 H 0.86380 0.33281 0.19332
 N486 N 0.83062 0.32314 0.14494
 N487 N 0.82175 0.33042 0.14574
 C488 C 0.81411 0.32807 0.13719
 C489 C 0.81840 0.31892 0.13070
 C490 C 0.82886 0.31598 0.13584
 H491 H 0.80608 0.33275 0.13567
 H492 H 0.83471 0.30912 0.13315
 H493 H 0.83012 0.32953 0.16568
 H494 H 0.83845 0.34055 0.15711
 N495 N 0.82167 0.85453 0.66972
 N496 N 0.83005 0.85473 0.67750
 C497 C 0.82838 0.86387 0.68465
 C498 C 0.81839 0.86961 0.68118
 C499 C 0.81434 0.86346 0.67170
 H500 H 0.83392 0.86615 0.69188
 H501 H 0.80668 0.86540 0.66660
 Cu502 Cu 0.84206 0.84278 0.67764
 Cu503 Cu 0.82099 0.84289 0.65745
 Cu504 Cu 0.84271 0.82188 0.65728
 N505 N 0.85413 0.83089 0.67760
 N506 N 0.85439 0.82283 0.66950
 C507 C 0.86353 0.81574 0.67139
 C508 C 0.86924 0.81953 0.68124
 C509 C 0.86305 0.82914 0.68499
 H510 H 0.86579 0.80831 0.66609
 H511 H 0.86495 0.83443 0.69252
 N512 N 0.83010 0.82240 0.64568
 N513 N 0.82184 0.83040 0.64574
 C514 C 0.81462 0.82848 0.63673
 C515 C 0.81852 0.81881 0.63077
 C516 C 0.82833 0.81516 0.63666
 H517 H 0.80708 0.83371 0.63462
 H518 H 0.83377 0.80779 0.63447
 H519 H 0.82949 0.82986 0.66649
 H520 H 0.83862 0.83939 0.65704
 N521 N 0.67788 0.64560 0.66957
 N522 N 0.66966 0.64566 0.67753
 C523 C 0.67133 0.63661 0.68480
 C524 C 0.68108 0.63058 0.68114
 C525 C 0.68503 0.63650 0.67147
 H526 H 0.66591 0.63455 0.69221
 H527 H 0.69259 0.63442 0.66629
 Cu528 Cu 0.65784 0.65780 0.67764
 Cu529 Cu 0.67881 0.65736 0.65740
 Cu530 Cu 0.65805 0.67931 0.65799
 N531 N 0.64603 0.66997 0.67783
 N532 N 0.64638 0.67852 0.67024
 C533 C 0.63748 0.68587 0.67229
 C534 C 0.63122 0.68168 0.68164
 C535 C 0.63688 0.67159 0.68498
 H536 H 0.63566 0.69365 0.66733
 H537 H 0.63446 0.66589 0.69207
 N538 N 0.67052 0.67854 0.64625
 N539 N 0.67828 0.67006 0.64588
 C540 C 0.68538 0.67180 0.63672
 C541 C 0.68194 0.68187 0.63113
 C542 C 0.67253 0.68594 0.63739
 H543 H 0.69255 0.66621 0.63429
 H544 H 0.66747 0.69365 0.63552
 H545 H 0.67096 0.67045 0.66683
 H546 H 0.66134 0.66163 0.65717
 N547 N 0.67824 0.14583 0.16967
 N548 N 0.66959 0.14539 0.17714
 C549 C 0.67121 0.13623 0.18427
 C550 C 0.68143 0.13071 0.18109
 C551 C 0.68567 0.13703 0.17182
 H552 H 0.66545 0.13376 0.19128
 H553 H 0.69353 0.13528 0.16694
 Cu554 Cu 0.65713 0.15691 0.17692
 Cu555 Cu 0.67908 0.15753 0.15752
 Cu556 Cu 0.65741 0.17846 0.15707
 N557 N 0.64542 0.16917 0.17690
 N558 N 0.64567 0.17764 0.16921
 C559 C 0.63682 0.18503 0.17130
 C560 C 0.63066 0.18095 0.18076
 C561 C 0.63633 0.17087 0.18411
 H562 H 0.63496 0.19278 0.16631
 H563 H 0.63404 0.16529 0.19132
 N564 N 0.67003 0.17785 0.14552
 N565 N 0.67844 0.17002 0.14584
 C566 C 0.68582 0.17197 0.13696
 C567 C 0.68181 0.18142 0.13074
 C568 C 0.67180 0.18495 0.13637
 H569 H 0.69347 0.16683 0.13505
 H570 H 0.66625 0.19217 0.13396
 H571 H 0.67013 0.17016 0.16668
 H572 H 0.66141 0.16090 0.15656
 N573 N 0.17778 0.64551 0.16962
 N574 N 0.16976 0.64582 0.17777
 C575 C 0.17149 0.63688 0.18514
 C576 C 0.18105 0.63063 0.18135
 C577 C 0.18482 0.63632 0.17147
 H578 H 0.16620 0.63499 0.19267
 H579 H 0.19219 0.63399 0.16611
 Cu580 Cu 0.15778 0.65780 0.17780
 Cu581 Cu 0.17870 0.65715 0.15737
 Cu582 Cu 0.15760 0.67873 0.15738
 N583 N 0.14591 0.66989 0.17762
 N584 N 0.14602 0.67815 0.16971
 C585 C 0.13707 0.68547 0.17165
 C586 C 0.13100 0.68154 0.18123
 C587 C 0.13681 0.67163 0.18479
 H588 H 0.13507 0.69305 0.16644
 H589 H 0.13458 0.66617 0.19211
 N590 N 0.17004 0.67783 0.14563
 N591 N 0.17817 0.66970 0.14572
 C592 C 0.18548 0.67153 0.13675
 C593 C 0.18171 0.68121 0.13072
 C594 C 0.17190 0.68498 0.13654
 H595 H 0.19296 0.66620 0.13468
 H596 H 0.16658 0.69242 0.13433
 H597 H 0.17063 0.67036 0.16652
 H598 H 0.16113 0.66109 0.15714
 N599 N 0.17759 0.14517 0.66972
 N600 N 0.16984 0.14570 0.67811
 C601 C 0.17185 0.13701 0.68570
 C602 C 0.18133 0.13070 0.68180
 C603 C 0.18476 0.13610 0.67164
 H604 H 0.16674 0.13528 0.69339
 H605 H 0.19189 0.13357 0.66604
 Cu606 Cu 0.15766 0.15751 0.67802
 Cu607 Cu 0.17752 0.15607 0.65678
 Cu608 Cu 0.15730 0.17845 0.65763
 N609 N 0.14557 0.16939 0.67776
 N610 N 0.14558 0.17764 0.66984
 C611 C 0.13652 0.18483 0.67175
 C612 C 0.13051 0.18085 0.68135
 C613 C 0.13646 0.17103 0.68496
 H614 H 0.13444 0.19240 0.66655
 H615 H 0.13435 0.16558 0.69231
 N616 N 0.16984 0.17761 0.64595
 N617 N 0.17765 0.16917 0.64572
 C618 C 0.18507 0.17108 0.63686
 C619 C 0.18166 0.18110 0.63118
 C620 C 0.17199 0.18502 0.63714
 H621 H 0.19233 0.16553 0.63458
 H622 H 0.16691 0.19270 0.63517
 H623 H 0.17039 0.16954 0.66626
 H624 H 0.16002 0.16091 0.65726
 N625 N 0.32182 0.64542 0.32981
 N626 N 0.32973 0.64581 0.32156
 C627 C 0.32792 0.63693 0.31413
 C628 C 0.31842 0.63066 0.31800
 C629 C 0.31476 0.63625 0.32796
 H630 H 0.33314 0.63509 0.30654
 H631 H 0.30749 0.63386 0.33342
 Cu632 Cu 0.34170 0.65776 0.32145
 Cu633 Cu 0.32120 0.65685 0.34226
 Cu634 Cu 0.34291 0.67779 0.34271
 N635 N 0.35385 0.66953 0.32183
 N636 N 0.35440 0.67720 0.33029
 C637 C 0.36363 0.68421 0.32853
 C638 C 0.36909 0.68076 0.31841
 C639 C 0.36268 0.67144 0.31437
 H640 H 0.36611 0.69136 0.33411
 H641 H 0.36437 0.66644 0.30660
 N642 N 0.33046 0.67696 0.35447
 N643 N 0.32206 0.66913 0.35415
 C644 C 0.31471 0.67106 0.36306
 C645 C 0.31873 0.68049 0.36929
 C646 C 0.32872 0.68402 0.36365
 H647 H 0.30700 0.66599 0.36493
 H648 H 0.33422 0.69129 0.36600
 H649 H 0.32946 0.67024 0.33348
 H650 H 0.33884 0.66030 0.34226
 N651 N 0.32227 0.14507 0.83023
 N652 N 0.32990 0.14567 0.82175
 C653 C 0.32801 0.13684 0.81429
 C654 C 0.31875 0.13037 0.81837
 C655 C 0.31532 0.13580 0.82851
 H656 H 0.33300 0.13519 0.80650
 H657 H 0.30822 0.13325 0.83415
 Cu658 Cu 0.34165 0.15785 0.82129
 Cu659 Cu 0.32168 0.15654 0.84265
 Cu660 Cu 0.34260 0.17826 0.84220
 N661 N 0.35362 0.16982 0.82147
 N662 N 0.35404 0.17767 0.82975
 C663 C 0.36323 0.18470 0.82795
 C664 C 0.36881 0.18110 0.81795
 C665 C 0.36250 0.17165 0.81404
 H666 H 0.36567 0.19191 0.83346
 H667 H 0.36433 0.16647 0.80642
 N668 N 0.33030 0.17739 0.85409
 N669 N 0.32247 0.16899 0.85440
 C670 C 0.31539 0.17073 0.86358
 C671 C 0.31891 0.18073 0.86922
 C672 C 0.32836 0.18474 0.86299
 H673 H 0.30813 0.16523 0.86593
 H674 H 0.33344 0.19244 0.86486
 H675 H 0.32921 0.17000 0.83344
 H676 H 0.33919 0.16058 0.84215
 N677 N 0.82163 0.64576 0.82977
 N678 N 0.82995 0.64571 0.82192
 C679 C 0.82830 0.63665 0.81468
 C680 C 0.81843 0.63075 0.81821
 C681 C 0.81440 0.63676 0.82779
 H682 H 0.83383 0.63447 0.80739
 H683 H 0.80681 0.63470 0.83295
 Cu684 Cu 0.84200 0.65759 0.82192
 Cu685 Cu 0.82091 0.65732 0.84210
 Cu686 Cu 0.84292 0.67800 0.84279
 N687 N 0.85415 0.66937 0.82220
 N688 N 0.85457 0.67721 0.83051
 C689 C 0.86375 0.68427 0.82868
 C690 C 0.86931 0.68069 0.81866
 C691 C 0.86300 0.67124 0.81474
 H692 H 0.86609 0.69157 0.83412
 H693 H 0.86476 0.66614 0.80704
 N694 N 0.83029 0.67737 0.85438
 N695 N 0.82175 0.66968 0.85394
 C696 C 0.81434 0.67169 0.86278
 C697 C 0.81845 0.68103 0.86910
 C698 C 0.82856 0.68442 0.86357
 H699 H 0.80657 0.66671 0.86458
 H700 H 0.83417 0.69156 0.86603
 H701 H 0.82962 0.67045 0.83338
 H702 H 0.83859 0.66056 0.84262
 N703 N 0.82163 0.14573 0.32966
 N704 N 0.83018 0.14538 0.32206
 C705 C 0.82861 0.13618 0.31498
 C706 C 0.81852 0.13054 0.31831
 C707 C 0.81431 0.13682 0.32763
 H708 H 0.83428 0.13381 0.30786
 H709 H 0.80654 0.13499 0.33261
 Cu710 Cu 0.84211 0.15739 0.32201
 Cu711 Cu 0.82076 0.15745 0.34186
 Cu712 Cu 0.84363 0.17713 0.34327
 N713 N 0.85402 0.16942 0.32190
 N714 N 0.85454 0.17717 0.33029
 C715 C 0.86357 0.18437 0.32834
 C716 C 0.86894 0.18099 0.31815
 C717 C 0.86266 0.17150 0.31426
 H718 H 0.86606 0.19151 0.33393
 H719 H 0.86436 0.16646 0.30651
 N720 N 0.83038 0.17740 0.35416
 N721 N 0.82166 0.16993 0.35358
 C722 C 0.81413 0.17217 0.36228
 C723 C 0.81829 0.18151 0.36856
 C724 C 0.82857 0.18465 0.36318
 H725 H 0.80627 0.16731 0.36402
 H726 H 0.83435 0.19162 0.36575
 H727 H 0.83018 0.17043 0.33355
 H728 H 0.83834 0.15980 0.34272
 N729 N 0.67751 0.35435 0.33042
 N730 N 0.66979 0.35381 0.32201
 C731 C 0.67196 0.36238 0.31431
 C732 C 0.68147 0.36863 0.31818
 C733 C 0.68478 0.36332 0.32842
 H734 H 0.66689 0.36409 0.30658
 H735 H 0.69188 0.36585 0.33405
 Cu736 Cu 0.65732 0.34234 0.32218
 Cu737 Cu 0.67727 0.34368 0.34351
 Cu738 Cu 0.65780 0.32073 0.34199
 N739 N 0.64574 0.32999 0.32219
 N740 N 0.64616 0.32142 0.32975
 C741 C 0.63734 0.31400 0.32768
 C742 C 0.63103 0.31817 0.31836
 C743 C 0.63658 0.32833 0.31507
 H744 H 0.63554 0.30622 0.33266
 H745 H 0.63413 0.33402 0.30800
 N746 N 0.67016 0.32170 0.35379
 N747 N 0.67751 0.33051 0.35444
 C748 C 0.68471 0.32878 0.36352
 C749 C 0.68168 0.31845 0.36884
 C750 C 0.67244 0.31418 0.36247
 H751 H 0.69162 0.33462 0.36612
 H752 H 0.66768 0.30624 0.36414
 H753 H 0.67056 0.33041 0.33356
 H754 H 0.65991 0.33838 0.34291
 N755 N 0.67844 0.85419 0.83026
 N756 N 0.66983 0.85456 0.82274
 C757 C 0.67139 0.86374 0.81562
 C758 C 0.68154 0.86933 0.81885
 C759 C 0.68580 0.86305 0.82814
 H760 H 0.66567 0.86614 0.80856
 H761 H 0.69363 0.86484 0.83304
 Cu762 Cu 0.65775 0.84269 0.82291
 Cu763 Cu 0.67941 0.84245 0.84241
 Cu764 Cu 0.65768 0.82147 0.84290
 N765 N 0.64567 0.83081 0.82304
 N766 N 0.64588 0.82239 0.83078
 C767 C 0.63695 0.81508 0.82878
 C768 C 0.63081 0.81916 0.81931
 C769 C 0.63654 0.82916 0.81587
 H770 H 0.63507 0.80736 0.83381
 H771 H 0.63431 0.83469 0.80861
 N772 N 0.67039 0.82205 0.85439
 N773 N 0.67879 0.82989 0.85405
 C774 C 0.68618 0.82794 0.86292
 C775 C 0.68219 0.81849 0.86915
 C776 C 0.67217 0.81496 0.86354
 H777 H 0.69382 0.83308 0.86484
 H778 H 0.66663 0.80776 0.86597
 H779 H 0.67062 0.82959 0.83349
 H780 H 0.66178 0.83899 0.84333
 N781 N 0.17763 0.35431 0.83050
 N782 N 0.16944 0.35429 0.82253
 C783 C 0.17115 0.36335 0.81529
 C784 C 0.18093 0.36931 0.81894
 C785 C 0.18483 0.36336 0.82861
 H786 H 0.16576 0.36544 0.80789
 H787 H 0.19237 0.36543 0.83383
 Cu788 Cu 0.15747 0.34230 0.82230
 Cu789 Cu 0.17844 0.34258 0.84269
 Cu790 Cu 0.15743 0.32097 0.84231
 N791 N 0.14562 0.33019 0.82231
 N792 N 0.14573 0.32183 0.83012
 C793 C 0.13673 0.31460 0.82816
 C794 C 0.13066 0.31865 0.81862
 C795 C 0.13652 0.32855 0.81512
 H796 H 0.13473 0.30697 0.83328
 H797 H 0.13430 0.33409 0.80786
 N798 N 0.16994 0.32159 0.85398
 N799 N 0.17783 0.32995 0.85426
 C800 C 0.18496 0.32812 0.86337
 C801 C 0.18143 0.31813 0.86901
 C802 C 0.17191 0.31419 0.86284
 H803 H 0.19224 0.33361 0.86572
 H804 H 0.16677 0.30654 0.86475
 H805 H 0.17041 0.32956 0.83328
 H806 H 0.16090 0.33863 0.84286
 N807 N 0.17844 0.85363 0.33007
 N808 N 0.16956 0.85436 0.32291
 C809 C 0.17094 0.86381 0.31610
 C810 C 0.18125 0.86920 0.31917
 C811 C 0.18579 0.86253 0.32805
 H812 H 0.16502 0.86648 0.30930
 H813 H 0.19387 0.86399 0.33265
 Cu814 Cu 0.15731 0.84265 0.32293
 Cu815 Cu 0.18002 0.84104 0.34123
 Cu816 Cu 0.15741 0.82123 0.34292
 N817 N 0.14566 0.83034 0.32282
 N818 N 0.14581 0.82198 0.33062
 C819 C 0.13697 0.81459 0.32853
 C820 C 0.13092 0.81858 0.31896
 C821 C 0.13664 0.82859 0.31554
 H822 H 0.13504 0.80691 0.33361
 H823 H 0.13443 0.83412 0.30827
 N824 N 0.17008 0.82192 0.35443
 N825 N 0.17883 0.82932 0.35364
 C826 C 0.18618 0.82749 0.36257
 C827 C 0.18183 0.81852 0.36926
 C828 C 0.17162 0.81520 0.36388
 H829 H 0.19409 0.83234 0.36414
 H830 H 0.16583 0.80830 0.36662
 H831 H 0.16989 0.82862 0.33268
 H832 H 0.16229 0.83864 0.34302
 C833 C 0.24554 1.00008 0.25443
 C834 C 0.25394 1.00007 0.24608
 C835 C 0.25887 1.01102 0.24135
 C836 C 0.25873 0.98911 0.24118
 C837 C 0.24078 0.98912 0.25935
 C838 C 0.24059 1.01105 0.25915
 C839 C 0.25847 1.01304 0.22935
 C840 C 0.26331 1.02312 0.22464
 C841 C 0.26880 1.03136 0.23182
 C842 C 0.26927 1.02927 0.24386
 C843 C 0.26436 1.01918 0.24858
 C844 C 0.25151 0.98087 0.23579
 C845 C 0.25628 0.97077 0.23095
 C846 C 0.26837 0.96876 0.23136
 C847 C 0.27555 0.97709 0.23672
 C848 C 0.27078 0.98717 0.24152
 C849 C 0.24803 0.98089 0.26473
 C850 C 0.24329 0.97076 0.26956
 C851 C 0.23121 0.96873 0.26914
 C852 C 0.22400 0.97705 0.26379
 C853 C 0.22874 0.98716 0.25901
 C854 C 0.24087 1.01302 0.27116
 C855 C 0.23602 1.02311 0.27586
 C856 C 0.23066 1.03142 0.26865
 C857 C 0.23029 1.02938 0.25660
 C858 C 0.23519 1.01926 0.25190
 H859 H 0.25435 1.00680 0.22363
 H860 H 0.26285 1.02440 0.21534
 H861 H 0.27344 1.03543 0.24963
 H862 H 0.26494 1.01767 0.25784
 H863 H 0.24220 0.98232 0.23526
 H864 H 0.25050 0.96456 0.22687
 H865 H 0.27650 0.99348 0.24555
 H866 H 0.25733 0.98234 0.26527
 H867 H 0.24908 0.96455 0.27363
 H868 H 0.21466 0.97583 0.26338
 H869 H 0.22299 0.99346 0.25498
 H870 H 0.24491 1.00673 0.27690
 H871 H 0.23640 1.02434 0.28517
 H872 H 0.22622 1.03558 0.25080
 H873 H 0.23470 1.01779 0.24263
 H874 H 0.28489 0.97588 0.23713
 C875 C 0.24541 0.50006 0.75434
 C876 C 0.25407 0.50007 0.74632
 C877 C 0.25894 0.51095 0.74134
 C878 C 0.25875 0.48899 0.74174
 C879 C 0.24071 0.48897 0.75888
 C880 C 0.24056 0.51093 0.75934
 C881 C 0.25172 0.51913 0.73583
 C882 C 0.25648 0.52923 0.73096
 C883 C 0.26854 0.53131 0.73148
 C884 C 0.27572 0.52306 0.73697
 C885 C 0.27097 0.51297 0.74179
 C886 C 0.25380 0.48399 0.73182
 C887 C 0.25838 0.47371 0.72722
 C888 C 0.26807 0.46831 0.73242
 C889 C 0.27289 0.47331 0.74249
 C890 C 0.26822 0.48354 0.74714
 C891 C 0.24563 0.48391 0.76879
 C892 C 0.24101 0.47363 0.77336
 C893 C 0.23130 0.46830 0.76814
 C894 C 0.22651 0.47335 0.75808
 C895 C 0.23122 0.48357 0.75346
 C896 C 0.24778 0.51909 0.76486
 C897 C 0.24304 0.52919 0.76972
 C898 C 0.23098 0.53131 0.76919
 C899 C 0.22379 0.52308 0.76370
 C900 C 0.22853 0.51299 0.75888
 H901 H 0.24243 0.51765 0.73522
 H902 H 0.25070 0.53540 0.72679
 H903 H 0.28504 0.52433 0.73748
 H904 H 0.27672 0.50679 0.74596
 H905 H 0.24642 0.48809 0.72763
 H906 H 0.25440 0.47008 0.71951
 H907 H 0.27207 0.48729 0.75487
 H908 H 0.25302 0.48796 0.77300
 H909 H 0.24497 0.46996 0.78106
 H910 H 0.21908 0.46946 0.75380
 H911 H 0.22739 0.48736 0.74574
 H912 H 0.25707 0.51758 0.76547
 H913 H 0.24882 0.53534 0.77389
 H914 H 0.21447 0.52438 0.76318
 H915 H 0.22277 0.50683 0.75470
 H916 H 0.28032 0.46938 0.74675
 C917 C 0.74556 -0.00037 0.24576
 C918 C 0.75418 -0.00037 0.25382
 C919 C 0.75888 -0.01145 0.25836
 C920 C 0.75904 0.01050 0.25880
 C921 C 0.74071 0.01050 0.24075
 C922 C 0.74087 -0.01144 0.24121
 C923 C 0.75410 -0.01636 0.26841
 C924 C 0.75872 -0.02663 0.27300
 C925 C 0.76829 -0.03210 0.26765
 C926 C 0.77294 -0.02720 0.25745
 C927 C 0.76823 -0.01698 0.25282
 C928 C 0.75181 0.01872 0.26423
 C929 C 0.75656 0.02882 0.26908
 C930 C 0.76864 0.03085 0.26863
 C931 C 0.77583 0.02254 0.26326
 C932 C 0.77109 0.01246 0.25844
 C933 C 0.74795 0.01868 0.23526
 C934 C 0.74321 0.02877 0.23036
 C935 C 0.73114 0.03083 0.23080
 C936 C 0.72394 0.02258 0.23625
 C937 C 0.72867 0.01251 0.24111
 C938 C 0.74570 -0.01637 0.23119
 C939 C 0.74108 -0.02663 0.22660
 C940 C 0.73147 -0.03206 0.23190
 C941 C 0.72678 -0.02713 0.24207
 C942 C 0.73149 -0.01693 0.24671
 H943 H 0.74681 -0.01220 0.27272
 H944 H 0.75488 -0.03019 0.28081
 H945 H 0.78027 -0.03119 0.25308
 H946 H 0.77195 -0.01329 0.24500
 H947 H 0.74251 0.01728 0.26477
 H948 H 0.75077 0.03503 0.27317
 H949 H 0.77684 0.00623 0.25435
 H950 H 0.75725 0.01721 0.23472
 H951 H 0.74900 0.03493 0.22622
 H952 H 0.71460 0.02384 0.23669
 H953 H 0.72291 0.00632 0.24525
 H954 H 0.75301 -0.01224 0.22691
 H955 H 0.74496 -0.03021 0.21881
 H956 H 0.71941 -0.03110 0.24640
 H957 H 0.72773 -0.01322 0.25450
 H958 H 0.78517 0.02377 0.26281
 C959 C 0.74561 0.49982 0.74580
 C960 C 0.75428 0.49982 0.75381
 C961 C 0.75913 0.48895 0.75881
 C962 C 0.75897 0.51090 0.75835
 C963 C 0.74089 0.51090 0.74125
 C964 C 0.74075 0.48893 0.74083
 C965 C 0.75193 0.48088 0.76448
 C966 C 0.75667 0.47079 0.76939
 C967 C 0.76871 0.46860 0.76873
 C968 C 0.77588 0.47674 0.76308
 C969 C 0.77115 0.48682 0.75823
 C970 C 0.75400 0.51597 0.76824
 C971 C 0.75862 0.52623 0.77282
 C972 C 0.76837 0.53155 0.76765
 C973 C 0.77320 0.52649 0.75761
 C974 C 0.76849 0.51628 0.75297
 C975 C 0.74580 0.51592 0.73132
 C976 C 0.74118 0.52620 0.72674
 C977 C 0.73150 0.53158 0.73199
 C978 C 0.72673 0.52656 0.74208
 C979 C 0.73144 0.51633 0.74670
 C980 C 0.74799 0.48073 0.73536
 C981 C 0.74325 0.47064 0.73048
 C982 C 0.73118 0.46857 0.73094
 C983 C 0.72398 0.47684 0.73638
 C984 C 0.72871 0.48692 0.74122
 H985 H 0.74265 0.48244 0.76518
 H986 H 0.75090 0.46471 0.77369
 H987 H 0.78519 0.47538 0.76247
 H988 H 0.77689 0.49293 0.75393
 H989 H 0.74658 0.51193 0.77242
 H990 H 0.75463 0.52991 0.78051
 H991 H 0.77235 0.51249 0.74526
 H992 H 0.75317 0.51184 0.72709
 H993 H 0.74512 0.52985 0.71902
 H994 H 0.71932 0.53048 0.74638
 H995 H 0.72763 0.51257 0.75445
 H996 H 0.75728 0.48220 0.73479
 H997 H 0.74905 0.46446 0.72635
 H998 H 0.71465 0.47559 0.73683
 H999 H 0.72295 0.49312 0.74534
 H1000 H 0.78066 0.53037 0.75336
 C1001 C 0.24561 0.49961 0.24564
 C1002 C 0.25403 0.49959 0.25397
 C1003 C 0.25881 0.48862 0.25886
 C1004 C 0.25899 0.51054 0.25868
 C1005 C 0.24067 0.51058 0.24092
 C1006 C 0.24085 0.48866 0.24073
 C1007 C 0.25157 0.48038 0.26424
 C1008 C 0.25633 0.47026 0.26907
 C1009 C 0.26841 0.46823 0.26864
 C1010 C 0.27560 0.47655 0.26329
 C1011 C 0.27085 0.48665 0.25851
 C1012 C 0.25870 0.51252 0.27068
 C1013 C 0.26356 0.52261 0.27537
 C1014 C 0.26892 0.53089 0.26815
 C1015 C 0.26929 0.52884 0.25610
 C1016 C 0.26439 0.51874 0.25141
 C1017 C 0.24096 0.51255 0.22891
 C1018 C 0.23610 0.52264 0.22421
 C1019 C 0.23073 0.53094 0.23142
 C1020 C 0.23037 0.52890 0.24346
 C1021 C 0.23528 0.51880 0.24817
 C1022 C 0.24808 0.48050 0.23523
 C1023 C 0.24334 0.47040 0.23036
 C1024 C 0.23127 0.46833 0.23087
 C1025 C 0.22407 0.47658 0.23635
 C1026 C 0.22882 0.48666 0.24117
 H1027 H 0.24227 0.48184 0.26479
 H1028 H 0.25054 0.46404 0.27314
 H1029 H 0.28494 0.47533 0.26288
 H1030 H 0.27659 0.49296 0.25449
 H1031 H 0.25467 0.50624 0.27644
 H1032 H 0.26318 0.52385 0.28468
 H1033 H 0.26488 0.51726 0.24214
 H1034 H 0.24498 0.50626 0.22317
 H1035 H 0.23647 0.52387 0.21490
 H1036 H 0.22629 0.53510 0.24926
 H1037 H 0.23478 0.51733 0.25745
 H1038 H 0.25737 0.48199 0.23462
 H1039 H 0.24912 0.46424 0.22618
 H1040 H 0.21475 0.47532 0.23683
 H1041 H 0.22309 0.49292 0.24528
 H1042 H 0.27336 0.53503 0.25030
 C1043 C 0.74553 1.00047 0.75440
 C1044 C 0.75392 1.00043 0.74605
 C1045 C 0.75886 1.01137 0.74129
 C1046 C 0.75871 0.98945 0.74117
 C1047 C 0.74077 0.98953 0.75935
 C1048 C 0.74060 1.01146 0.75912
 C1049 C 0.75846 1.01335 0.72928
 C1050 C 0.76334 1.02340 0.72454
 C1051 C 0.76884 1.03164 0.73170
 C1052 C 0.76931 1.02959 0.74374
 C1053 C 0.76438 1.01953 0.74849
 C1054 C 0.75148 0.98120 0.73580
 C1055 C 0.75626 0.97111 0.73094
 C1056 C 0.76835 0.96912 0.73132
 C1057 C 0.77553 0.97744 0.73667
 C1058 C 0.77076 0.98752 0.74148
 C1059 C 0.74803 0.98131 0.76475
 C1060 C 0.74331 0.97119 0.76958
 C1061 C 0.73124 0.96913 0.76915
 C1062 C 0.72401 0.97744 0.76380
 C1063 C 0.72873 0.98755 0.75901
 C1064 C 0.74091 1.01345 0.77112
 C1065 C 0.73610 1.02356 0.77582
 C1066 C 0.73073 1.03186 0.76861
 C1067 C 0.73033 1.02981 0.75657
 C1068 C 0.73521 1.01968 0.75187
 H1069 H 0.75433 1.00710 0.72358
 H1070 H 0.76288 1.02464 0.71523
 H1071 H 0.77350 1.03575 0.74949
 H1072 H 0.76495 1.01804 0.75776
 H1073 H 0.74218 0.98264 0.73528
 H1074 H 0.75048 0.96488 0.72687
 H1075 H 0.77648 0.99383 0.74550
 H1076 H 0.75733 0.98278 0.76528
 H1077 H 0.74912 0.96498 0.77365
 H1078 H 0.71468 0.97620 0.76339
 H1079 H 0.72298 0.99384 0.75497
 H1080 H 0.74494 1.00716 0.77687
 H1081 H 0.73649 1.02481 0.78513
 H1082 H 0.72626 1.03601 0.75077
 H1083 H 0.73469 1.01820 0.74260
 H1084 H 0.78487 0.97625 0.73706
 C1085 C 0.74552 0.50013 0.25441
 C1086 C 0.75393 0.50013 0.24608
 C1087 C 0.75872 0.51109 0.24119
 C1088 C 0.75888 0.48919 0.24133
 C1089 C 0.74056 0.48917 0.25913
 C1090 C 0.74076 0.51110 0.25932
 C1091 C 0.75151 0.51929 0.23570
 C1092 C 0.75629 0.52938 0.23085
 C1093 C 0.76836 0.53142 0.23138
 C1094 C 0.77552 0.52315 0.23686
 C1095 C 0.77075 0.51307 0.24165
 C1096 C 0.75856 0.48723 0.22932
 C1097 C 0.76343 0.47717 0.22460
 C1098 C 0.76884 0.46888 0.23178
 C1099 C 0.76924 0.47090 0.24383
 C1100 C 0.76431 0.48098 0.24856
 C1101 C 0.74083 0.48719 0.27113
 C1102 C 0.73597 0.47710 0.27582
 C1103 C 0.73062 0.46881 0.26860
 C1104 C 0.73027 0.47087 0.25656
 C1105 C 0.73518 0.48097 0.25187
 C1106 C 0.74800 0.51930 0.26473
 C1107 C 0.74325 0.52943 0.26954
 C1108 C 0.73118 0.53150 0.26907
 C1109 C 0.72398 0.52320 0.26369
 C1110 C 0.72872 0.51309 0.25892
 H1111 H 0.74222 0.51781 0.23509
 H1112 H 0.75053 0.53557 0.22669
 H1113 H 0.78486 0.52439 0.23736
 H1114 H 0.77646 0.50679 0.24577
 H1115 H 0.75450 0.49352 0.22359
 H1116 H 0.76304 0.47594 0.21529
 H1117 H 0.76483 0.48245 0.25783
 H1118 H 0.74486 0.49346 0.27689
 H1119 H 0.73634 0.47585 0.28513
 H1120 H 0.72619 0.46468 0.25075
 H1121 H 0.73469 0.48245 0.24259
 H1122 H 0.75729 0.51782 0.26530
 H1123 H 0.74904 0.53563 0.27363
 H1124 H 0.71464 0.52446 0.26324
 H1125 H 0.72299 0.50681 0.25487
 H1126 H 0.77335 0.46470 0.24961
 C1127 C 0.24591 -0.00056 0.74578
 C1128 C 0.25435 -0.00060 0.75408
 C1129 C 0.25913 -0.01159 0.75895
 C1130 C 0.25932 0.01034 0.75880
 C1131 C 0.24095 0.01042 0.74108
 C1132 C 0.24111 -0.01149 0.74087
 C1133 C 0.25191 -0.01984 0.76434
 C1134 C 0.25668 -0.02996 0.76915
 C1135 C 0.26876 -0.03199 0.76870
 C1136 C 0.27594 -0.02367 0.76333
 C1137 C 0.27118 -0.01356 0.75857
 C1138 C 0.25904 0.01231 0.77081
 C1139 C 0.26387 0.02241 0.77550
 C1140 C 0.26920 0.03072 0.76827
 C1141 C 0.26956 0.02868 0.75623
 C1142 C 0.26468 0.01856 0.75154
 C1143 C 0.24120 0.01240 0.72907
 C1144 C 0.23631 0.02248 0.72438
 C1145 C 0.23094 0.03077 0.73160
 C1146 C 0.23063 0.02873 0.74365
 C1147 C 0.23557 0.01863 0.74835
 C1148 C 0.24831 -0.01966 0.73534
 C1149 C 0.24353 -0.02974 0.73046
 C1150 C 0.23146 -0.03179 0.73101
 C1151 C 0.22430 -0.02354 0.73653
 C1152 C 0.22908 -0.01347 0.74135
 H1153 H 0.24261 -0.01838 0.76491
 H1154 H 0.25091 -0.03619 0.77323
 H1155 H 0.28528 -0.02489 0.76290
 H1156 H 0.27691 -0.00724 0.75454
 H1157 H 0.25503 0.00602 0.77656
 H1158 H 0.26351 0.02364 0.78481
 H1159 H 0.26516 0.01709 0.74226
 H1160 H 0.24521 0.00611 0.72331
 H1161 H 0.23664 0.02371 0.71507
 H1162 H 0.22656 0.03492 0.74946
 H1163 H 0.23511 0.01716 0.75762
 H1164 H 0.25760 -0.01818 0.73471
 H1165 H 0.24929 -0.03590 0.72627
 H1166 H 0.21497 -0.02478 0.73704
 H1167 H 0.22337 -0.00721 0.74549
 H1168 H 0.27362 0.03488 0.75042
 C1169 C 0.25413 0.24519 0.99983
 C1170 C 0.24606 0.25383 0.99981
 C1171 C 0.24149 0.25854 1.01085
 C1172 C 0.24105 0.25867 0.98895
 C1173 C 0.25917 0.24035 0.98899
 C1174 C 0.25870 0.24052 1.01090
 C1175 C 0.23154 0.25361 1.01587
 C1176 C 0.22695 0.25820 1.02613
 C1177 C 0.23219 0.26789 1.03148
 C1178 C 0.24229 0.27268 1.02647
 C1179 C 0.24693 0.26800 1.01627
 C1180 C 0.23555 0.25143 0.98080
 C1181 C 0.23064 0.25615 0.97072
 C1182 C 0.23110 0.26821 0.96863
 C1183 C 0.23656 0.27542 0.97685
 C1184 C 0.24143 0.27070 0.98691
 C1185 C 0.26468 0.24759 0.98084
 C1186 C 0.26957 0.24287 0.97075
 C1187 C 0.26908 0.23081 0.96866
 C1188 C 0.26362 0.22360 0.97689
 C1189 C 0.25877 0.22832 0.98695
 C1190 C 0.26859 0.24551 1.01595
 C1191 C 0.27316 0.24095 1.02623
 C1192 C 0.26797 0.23123 1.03158
 C1193 C 0.25792 0.22637 1.02653
 C1194 C 0.25329 0.23103 1.01631
 H1195 H 0.22732 0.24623 1.01181
 H1196 H 0.21922 0.25424 1.02978
 H1197 H 0.24658 0.28010 1.03038
 H1198 H 0.25469 0.27182 1.01251
 H1199 H 0.23499 0.24214 0.98229
 H1200 H 0.22649 0.25035 0.96458
 H1201 H 0.24558 0.27647 0.99307
 H1202 H 0.26524 0.25688 0.98232
 H1203 H 0.27372 0.24867 0.96461
 H1204 H 0.26314 0.21428 0.97560
 H1205 H 0.25460 0.22255 0.99311
 H1206 H 0.27278 0.25291 1.01189
 H1207 H 0.28086 0.24496 1.02990
 H1208 H 0.25366 0.21893 1.03044
 H1209 H 0.24557 0.22715 1.01254
 H1210 H 0.23702 0.28474 0.97557
 C1211 C 0.25459 0.74543 0.49993
 C1212 C 0.24621 0.75383 0.49991
 C1213 C 0.24127 0.75860 0.51084
 C1214 C 0.24145 0.75875 0.48897
 C1215 C 0.25932 0.74045 0.48901
 C1216 C 0.25953 0.74070 0.51088
 C1217 C 0.23586 0.75135 0.51903
 C1218 C 0.23099 0.75608 0.52912
 C1219 C 0.23141 0.76815 0.53116
 C1220 C 0.23679 0.77536 0.52287
 C1221 C 0.24161 0.77063 0.51280
 C1222 C 0.22941 0.75847 0.48703
 C1223 C 0.22467 0.76329 0.47696
 C1224 C 0.23188 0.76862 0.46865
 C1225 C 0.24397 0.76898 0.47066
 C1226 C 0.24871 0.76411 0.48074
 C1227 C 0.27136 0.74073 0.48701
 C1228 C 0.27605 0.73589 0.47694
 C1229 C 0.26881 0.73054 0.46867
 C1230 C 0.25673 0.73017 0.47073
 C1231 C 0.25203 0.73506 0.48083
 C1232 C 0.26494 0.74797 0.51905
 C1233 C 0.26978 0.74327 0.52917
 C1234 C 0.26934 0.73121 0.53127
 C1235 C 0.26397 0.72398 0.52301
 C1236 C 0.25917 0.72867 0.51291
 H1237 H 0.23533 0.74205 0.51757
 H1238 H 0.22690 0.75028 0.53531
 H1239 H 0.23720 0.78470 0.52411
 H1240 H 0.24566 0.77638 0.50653
 H1241 H 0.22366 0.75446 0.49332
 H1242 H 0.21533 0.76292 0.47576
 H1243 H 0.25801 0.76461 0.48218
 H1244 H 0.27713 0.74476 0.49327
 H1245 H 0.28539 0.73626 0.47569
 H1246 H 0.25091 0.72611 0.46456
 H1247 H 0.24273 0.73457 0.48231
 H1248 H 0.26548 0.75726 0.51755
 H1249 H 0.27387 0.74909 0.53534
 H1250 H 0.26354 0.71465 0.52429
 H1251 H 0.25512 0.72291 0.50666
 H1252 H 0.24977 0.77304 0.46445
 C1253 C 0.24602 0.74595 0.00005
 C1254 C 0.25442 0.75432 0.00005
 C1255 C 0.25938 0.75904 -0.01090
 C1256 C 0.25915 0.75926 0.01098
 C1257 C 0.24126 0.74101 0.01098
 C1258 C 0.24108 0.74120 -0.01088
 C1259 C 0.26478 0.75176 -0.01908
 C1260 C 0.26967 0.75646 -0.02917
 C1261 C 0.26929 0.76853 -0.03124
 C1262 C 0.26392 0.77577 -0.02297
 C1263 C 0.25908 0.77108 -0.01289
 C1264 C 0.27119 0.75895 0.01296
 C1265 C 0.27590 0.76376 0.02304
 C1266 C 0.26867 0.76910 0.03133
 C1267 C 0.25659 0.76949 0.02929
 C1268 C 0.25188 0.76464 0.01918
 C1269 C 0.22921 0.74135 0.01295
 C1270 C 0.22448 0.73652 0.02301
 C1271 C 0.23168 0.73111 0.03129
 C1272 C 0.24376 0.73069 0.02925
 C1273 C 0.24850 0.73558 0.01917
 C1274 C 0.23568 0.74847 -0.01907
 C1275 C 0.23079 0.74375 -0.02915
 C1276 C 0.23117 0.73167 -0.03118
 C1277 C 0.23653 0.72444 -0.02289
 C1278 C 0.24138 0.72916 -0.01284
 H1279 H 0.26529 0.74246 -0.01759
 H1280 H 0.27375 0.75064 -0.03534
 H1281 H 0.26353 0.78511 -0.02423
 H1282 H 0.25504 0.77685 -0.00664
 H1283 H 0.27696 0.75492 0.00668
 H1284 H 0.28524 0.76337 0.02427
 H1285 H 0.24258 0.76515 0.01772
 H1286 H 0.22347 0.74541 0.00668
 H1287 H 0.21514 0.73692 0.02425
 H1288 H 0.24956 0.72658 0.03543
 H1289 H 0.25780 0.73504 0.01770
 H1290 H 0.23518 0.75777 -0.01762
 H1291 H 0.22671 0.74956 -0.03534
 H1292 H 0.23690 0.71511 -0.02412
 H1293 H 0.24541 0.72340 -0.00656
 H1294 H 0.25077 0.77356 0.03548
 C1295 C 0.24560 0.24577 0.50025
 C1296 C 0.25400 0.25414 0.50024
 C1297 C 0.25896 0.25885 0.48929
 C1298 C 0.25875 0.25909 0.51118
 C1299 C 0.24085 0.24082 0.51119
 C1300 C 0.24065 0.24101 0.48932
 C1301 C 0.26434 0.25156 0.48111
 C1302 C 0.26920 0.25624 0.47099
 C1303 C 0.26881 0.26831 0.46891
 C1304 C 0.26346 0.27556 0.47718
 C1305 C 0.25865 0.27088 0.48728
 C1306 C 0.27080 0.25883 0.51313
 C1307 C 0.27552 0.26367 0.52320
 C1308 C 0.26829 0.26899 0.53151
 C1309 C 0.25620 0.26933 0.52949
 C1310 C 0.25148 0.26445 0.51940
 C1311 C 0.22881 0.24114 0.51318
 C1312 C 0.22409 0.23628 0.52324
 C1313 C 0.23131 0.23087 0.53149
 C1314 C 0.24339 0.23047 0.52944
 C1315 C 0.24812 0.23538 0.51936
 C1316 C 0.23528 0.24827 0.48110
 C1317 C 0.23040 0.24353 0.47102
 C1318 C 0.23076 0.23145 0.46900
 C1319 C 0.23610 0.22424 0.47731
 C1320 C 0.24094 0.22896 0.48737
 H1321 H 0.26485 0.24226 0.48260
 H1322 H 0.27326 0.25041 0.46481
 H1323 H 0.26307 0.28489 0.47591
 H1324 H 0.25462 0.27666 0.49354
 H1325 H 0.27656 0.25482 0.50685
 H1326 H 0.28486 0.26331 0.52441
 H1327 H 0.24218 0.26494 0.51796
 H1328 H 0.22306 0.24520 0.50692
 H1329 H 0.21475 0.23667 0.52448
 H1330 H 0.24920 0.22636 0.53560
 H1331 H 0.25742 0.23486 0.51789
 H1332 H 0.23478 0.25757 0.48254
 H1333 H 0.22634 0.24934 0.46481
 H1334 H 0.23648 0.21490 0.47610
 H1335 H 0.24496 0.22321 0.49366
 H1336 H 0.25038 0.27338 0.53569
 C1337 C 0.75443 0.74554 1.00003
 C1338 C 0.74607 0.75394 1.00005
 C1339 C 0.74114 0.75870 1.01099
 C1340 C 0.74133 0.75891 0.98913
 C1341 C 0.75918 0.74059 0.98910
 C1342 C 0.75937 0.74078 1.01096
 C1343 C 0.73573 0.75145 1.01919
 C1344 C 0.73088 0.75618 1.02929
 C1345 C 0.73132 0.76825 1.03134
 C1346 C 0.73671 0.77546 1.02306
 C1347 C 0.74151 0.77073 1.01298
 C1348 C 0.72928 0.75862 0.98716
 C1349 C 0.72457 0.76348 0.97710
 C1350 C 0.73180 0.76885 0.96883
 C1351 C 0.74388 0.76921 0.97087
 C1352 C 0.74860 0.76431 0.98094
 C1353 C 0.77122 0.74087 0.98713
 C1354 C 0.77594 0.73604 0.97706
 C1355 C 0.76871 0.73072 0.96876
 C1356 C 0.75662 0.73037 0.97079
 C1357 C 0.75190 0.73524 0.98089
 C1358 C 0.76479 0.74803 1.01914
 C1359 C 0.76963 0.74331 1.02924
 C1360 C 0.76918 0.73124 1.03132
 C1361 C 0.76379 0.72403 1.02305
 C1362 C 0.75899 0.72875 1.01296
 H1363 H 0.73518 0.74216 1.01771
 H1364 H 0.72679 0.75039 1.03547
 H1365 H 0.73714 0.78479 1.02430
 H1366 H 0.74556 0.77648 1.00671
 H1367 H 0.72352 0.75459 0.99343
 H1368 H 0.71523 0.76311 0.97587
 H1369 H 0.75790 0.76481 0.98241
 H1370 H 0.77698 0.74487 0.99341
 H1371 H 0.78528 0.73640 0.97583
 H1372 H 0.75081 0.72632 0.96460
 H1373 H 0.74260 0.73475 0.98235
 H1374 H 0.76535 0.75732 1.01765
 H1375 H 0.77373 0.74911 1.03542
 H1376 H 0.76335 0.71470 1.02431
 H1377 H 0.75493 0.72301 1.00670
 H1378 H 0.74970 0.77330 0.96469
 C1379 C 0.75404 0.24540 0.49955
 C1380 C 0.74594 0.25401 0.49955
 C1381 C 0.74091 0.25884 0.51041
 C1382 C 0.74138 0.25872 0.48850
 C1383 C 0.75864 0.24072 0.48851
 C1384 C 0.75906 0.24057 0.51041
 C1385 C 0.73540 0.25159 0.51855
 C1386 C 0.73053 0.25629 0.52865
 C1387 C 0.73104 0.26834 0.53078
 C1388 C 0.73651 0.27556 0.52256
 C1389 C 0.74133 0.27086 0.51248
 C1390 C 0.73145 0.25377 0.48346
 C1391 C 0.72686 0.25839 0.47321
 C1392 C 0.73206 0.26812 0.46790
 C1393 C 0.74214 0.27293 0.47293
 C1394 C 0.74679 0.26822 0.48312
 C1395 C 0.76868 0.24557 0.48359
 C1396 C 0.77333 0.24095 0.47337
 C1397 C 0.76806 0.23132 0.46795
 C1398 C 0.75788 0.22660 0.47286
 C1399 C 0.75318 0.23131 0.48303
 C1400 C 0.76451 0.24782 0.51857
 C1401 C 0.76939 0.24310 0.52867
 C1402 C 0.76896 0.23104 0.53074
 C1403 C 0.76356 0.22382 0.52249
 C1404 C 0.75872 0.22853 0.51242
 H1405 H 0.73482 0.24230 0.51704
 H1406 H 0.72638 0.25048 0.53479
 H1407 H 0.73700 0.28488 0.52387
 H1408 H 0.74550 0.27664 0.50633
 H1409 H 0.72725 0.24637 0.48750
 H1410 H 0.71914 0.25442 0.46955
 H1411 H 0.75452 0.27206 0.48689
 H1412 H 0.77292 0.25290 0.48771
 H1413 H 0.78113 0.24485 0.46980
 H1414 H 0.75357 0.21922 0.46891
 H1415 H 0.74537 0.22753 0.48672
 H1416 H 0.76504 0.25711 0.51710
 H1417 H 0.77349 0.24891 0.53483
 H1418 H 0.76313 0.21449 0.52376
 H1419 H 0.75461 0.22275 0.50624
 H1420 H 0.74640 0.28038 0.46906
 C1421 C 0.74574 0.24611 -0.00012
 C1422 C 0.75412 0.25450 -0.00013
 C1423 C 0.75904 0.25926 -0.01107
 C1424 C 0.75888 0.25945 0.01081
 C1425 C 0.74101 0.24117 0.01082
 C1426 C 0.74080 0.24136 -0.01105
 C1427 C 0.76443 0.25201 -0.01928
 C1428 C 0.76927 0.25674 -0.02938
 C1429 C 0.76886 0.26882 -0.03141
 C1430 C 0.76350 0.27603 -0.02311
 C1431 C 0.75870 0.27130 -0.01303
 C1432 C 0.77094 0.25918 0.01273
 C1433 C 0.77567 0.26404 0.02278
 C1434 C 0.76846 0.26937 0.03109
 C1435 C 0.75637 0.26971 0.02910
 C1436 C 0.75163 0.26482 0.01903
 C1437 C 0.72897 0.24147 0.01281
 C1438 C 0.72427 0.23663 0.02288
 C1439 C 0.73150 0.23127 0.03115
 C1440 C 0.74358 0.23089 0.02910
 C1441 C 0.74829 0.23577 0.01901
 C1442 C 0.73538 0.24861 -0.01925
 C1443 C 0.73051 0.24387 -0.02934
 C1444 C 0.73091 0.23179 -0.03136
 C1445 C 0.73628 0.22458 -0.02307
 C1446 C 0.74111 0.22932 -0.01301
 H1447 H 0.76496 0.24271 -0.01782
 H1448 H 0.77335 0.25095 -0.03558
 H1449 H 0.76309 0.28537 -0.02434
 H1450 H 0.75467 0.27704 -0.00675
 H1451 H 0.77669 0.25517 0.00644
 H1452 H 0.78502 0.26368 0.02398
 H1453 H 0.74232 0.26530 0.01760
 H1454 H 0.72321 0.24551 0.00654
 H1455 H 0.71493 0.23702 0.02413
 H1456 H 0.74940 0.22681 0.03528
 H1457 H 0.75759 0.23526 0.01753
 H1458 H 0.73486 0.25790 -0.01780
 H1459 H 0.72642 0.24967 -0.03553
 H1460 H 0.73668 0.21525 -0.02429
 H1461 H 0.74515 0.22357 -0.00673
 H1462 H 0.75057 0.27377 0.03531
 C1463 C 0.74624 0.74595 0.50005
 C1464 C 0.75401 0.75485 0.50002
 C1465 C 0.75876 0.75972 0.48906
 C1466 C 0.75877 0.75955 0.51099
 C1467 C 0.74148 0.74107 0.51100
 C1468 C 0.74148 0.74126 0.48908
 C1469 C 0.76555 0.75279 0.48164
 C1470 C 0.77032 0.75749 0.47149
 C1471 C 0.76851 0.76926 0.46864
 C1472 C 0.76174 0.77618 0.47613
 C1473 C 0.75693 0.77145 0.48623
 C1474 C 0.76789 0.75376 0.51664
 C1475 C 0.77269 0.75836 0.52680
 C1476 C 0.76844 0.76885 0.53148
 C1477 C 0.75917 0.77452 0.52584
 C1478 C 0.75439 0.76991 0.51569
 C1479 C 0.73470 0.74799 0.51842
 C1480 C 0.72991 0.74327 0.52855
 C1481 C 0.73169 0.73149 0.53138
 C1482 C 0.73846 0.72459 0.52388
 C1483 C 0.74329 0.72933 0.51380
 C1484 C 0.73236 0.74706 0.48343
 C1485 C 0.72755 0.74247 0.47326
 C1486 C 0.73181 0.73198 0.46858
 C1487 C 0.74108 0.72630 0.47422
 C1488 C 0.74586 0.73091 0.48437
 H1489 H 0.76726 0.74378 0.48378
 H1490 H 0.77548 0.75190 0.46594
 H1491 H 0.76020 0.78528 0.47425
 H1492 H 0.75174 0.77699 0.49179
 H1493 H 0.77134 0.74572 0.51311
 H1494 H 0.77979 0.75373 0.53094
 H1495 H 0.74722 0.77440 0.51154
 H1496 H 0.73299 0.75701 0.51631
 H1497 H 0.72474 0.74885 0.53411
 H1498 H 0.73998 0.71547 0.52573
 H1499 H 0.74848 0.72380 0.50823
 H1500 H 0.72891 0.75509 0.48697
 H1501 H 0.72046 0.74710 0.46913
 H1502 H 0.74463 0.71826 0.47083
 H1503 H 0.75303 0.72641 0.48851
 H1504 H 0.75562 0.78257 0.52921
 C1505 C 0.99984 0.25436 0.24560
 C1506 C 0.99982 0.24595 0.25393
 C1507 C 1.01077 0.24117 0.25885
 C1508 C 0.98884 0.24099 0.25863
 C1509 C 0.98889 0.25933 0.24086
 C1510 C 1.01082 0.25912 0.24071
 C1511 C 1.01275 0.22913 0.25847
 C1512 C 1.02285 0.22439 0.26327
 C1513 C 1.03113 0.23158 0.26867
 C1514 C 1.02908 0.24365 0.26913
 C1515 C 1.01897 0.24840 0.26429
 C1516 C 0.98065 0.23560 0.25136
 C1517 C 0.97055 0.23067 0.25605
 C1518 C 0.96850 0.23100 0.26810
 C1519 C 0.97677 0.23637 0.27532
 C1520 C 0.98685 0.24125 0.27064
 C1521 C 0.98068 0.26473 0.24811
 C1522 C 0.97058 0.26965 0.24339
 C1523 C 0.96857 0.26930 0.23135
 C1524 C 0.97687 0.26393 0.22414
 C1525 C 0.98694 0.25905 0.22885
 C1526 C 1.01279 0.27116 0.24105
 C1527 C 1.02289 0.27589 0.23625
 C1528 C 1.03121 0.26869 0.23089
 C1529 C 1.02918 0.25661 0.23048
 C1530 C 1.01906 0.25188 0.23532
 H1531 H 1.00647 0.22341 0.25440
 H1532 H 1.02409 0.21505 0.26282
 H1533 H 1.03527 0.24943 0.27324
 H1534 H 1.01749 0.25769 0.26485
 H1535 H 0.98213 0.23513 0.24209
 H1536 H 0.96437 0.22659 0.25024
 H1537 H 0.99313 0.24528 0.27639
 H1538 H 0.98214 0.26521 0.25738
 H1539 H 0.96438 0.27374 0.24919
 H1540 H 0.97565 0.26356 0.21483
 H1541 H 0.99324 0.25502 0.22311
 H1542 H 1.00649 0.27690 0.24508
 H1543 H 1.02412 0.28523 0.23666
 H1544 H 1.03539 0.25082 0.22640
 H1545 H 1.01760 0.24258 0.23478
 H1546 H 0.97553 0.23672 0.28463
 C1547 C 0.49980 0.25431 0.74555
 C1548 C 0.49981 0.24590 0.75389
 C1549 C 0.51077 0.24113 0.75880
 C1550 C 0.48884 0.24093 0.75860
 C1551 C 0.48883 0.25927 0.74083
 C1552 C 0.51076 0.25907 0.74064
 C1553 C 0.51275 0.22909 0.75845
 C1554 C 0.52285 0.22434 0.76327
 C1555 C 0.53114 0.23154 0.76865
 C1556 C 0.52910 0.24362 0.76908
 C1557 C 0.51899 0.24836 0.76422
 C1558 C 0.48065 0.23554 0.75133
 C1559 C 0.47055 0.23061 0.75602
 C1560 C 0.46850 0.23095 0.76807
 C1561 C 0.47678 0.23631 0.77529
 C1562 C 0.48686 0.24119 0.77060
 C1563 C 0.48061 0.26465 0.74809
 C1564 C 0.47050 0.26958 0.74338
 C1565 C 0.46848 0.26926 0.73133
 C1566 C 0.47679 0.26391 0.72412
 C1567 C 0.48687 0.25902 0.72882
 C1568 C 0.51272 0.27111 0.74097
 C1569 C 0.52281 0.27585 0.73616
 C1570 C 0.53113 0.26865 0.73080
 C1571 C 0.52911 0.25657 0.73039
 C1572 C 0.51900 0.25183 0.73524
 H1573 H 0.50647 0.22336 0.75441
 H1574 H 0.52408 0.21501 0.76285
 H1575 H 0.53529 0.24940 0.77318
 H1576 H 0.51751 0.25766 0.76477
 H1577 H 0.48213 0.23507 0.74206
 H1578 H 0.46437 0.22653 0.75022
 H1579 H 0.49314 0.24522 0.77636
 H1580 H 0.48206 0.26511 0.75736
 H1581 H 0.46430 0.27365 0.74919
 H1582 H 0.47557 0.26356 0.71481
 H1583 H 0.49316 0.25500 0.72307
 H1584 H 0.50642 0.27685 0.74501
 H1585 H 0.52403 0.28519 0.73657
 H1586 H 0.53532 0.25078 0.72630
 H1587 H 0.51754 0.24253 0.73471
 H1588 H 0.47554 0.23666 0.78460
 C1589 C -0.00011 0.24565 0.74606
 C1590 C -0.00011 0.25430 0.75408
 C1591 C -0.01100 0.25918 0.75905
 C1592 C 0.01098 0.25899 0.75862
 C1593 C 0.01097 0.24093 0.74151
 C1594 C -0.01099 0.24080 0.74107
 C1595 C -0.01303 0.27121 0.75859
 C1596 C -0.02313 0.27596 0.76337
 C1597 C -0.03141 0.26879 0.76882
 C1598 C -0.02933 0.25673 0.76936
 C1599 C -0.01920 0.25198 0.76453
 C1600 C 0.01641 0.26845 0.75318
 C1601 C 0.02664 0.27314 0.75779
 C1602 C 0.03167 0.26835 0.76787
 C1603 C 0.02631 0.25866 0.77310
 C1604 C 0.01602 0.25406 0.76854
 C1605 C 0.01638 0.23145 0.74694
 C1606 C 0.02659 0.22672 0.74230
 C1607 C 0.03161 0.23148 0.73220
 C1608 C 0.02626 0.24119 0.72698
 C1609 C 0.01600 0.24583 0.73157
 C1610 C -0.01304 0.22878 0.74155
 C1611 C -0.02313 0.22405 0.73672
 C1612 C -0.03136 0.23124 0.73122
 C1613 C -0.02924 0.24329 0.73066
 C1614 C -0.01914 0.24802 0.73553
 H1615 H -0.00683 0.27696 0.75443
 H1616 H -0.02441 0.28529 0.76285
 H1617 H -0.03551 0.25096 0.77350
 H1618 H -0.01772 0.24268 0.76514
 H1619 H 0.01264 0.27227 0.74545
 H1620 H 0.03055 0.28055 0.75350
 H1621 H 0.01194 0.24668 0.77276
 H1622 H 0.01261 0.22764 0.75467
 H1623 H 0.03049 0.21928 0.74658
 H1624 H 0.02992 0.24512 0.71925
 H1625 H 0.01193 0.25321 0.72735
 H1626 H -0.00688 0.22302 0.74574
 H1627 H -0.02443 0.21473 0.73725
 H1628 H -0.03539 0.24908 0.72648
 H1629 H -0.01763 0.25731 0.73490
 H1630 H 0.02997 0.25470 0.78081
 C1631 C 0.49986 0.24536 0.24594
 C1632 C 0.49988 0.25402 0.25395
 C1633 C 0.48879 0.25873 0.25851
 C1634 C 0.51077 0.25887 0.25892
 C1635 C 0.51074 0.24050 0.24092
 C1636 C 0.48877 0.24067 0.24141
 C1637 C 0.48339 0.26823 0.25312
 C1638 C 0.47314 0.27291 0.25774
 C1639 C 0.46807 0.26806 0.26776
 C1640 C 0.47342 0.25834 0.27296
 C1641 C 0.48373 0.25376 0.26840
 C1642 C 0.51281 0.27090 0.25846
 C1643 C 0.52291 0.27562 0.26326
 C1644 C 0.53117 0.26843 0.26872
 C1645 C 0.52907 0.25637 0.26925
 C1646 C 0.51895 0.25165 0.26441
 C1647 C 0.51278 0.22847 0.24134
 C1648 C 0.52285 0.22373 0.23648
 C1649 C 0.53108 0.23092 0.23097
 C1650 C 0.52898 0.24298 0.23047
 C1651 C 0.51889 0.24772 0.23538
 C1652 C 0.48335 0.23120 0.24684
 C1653 C 0.47312 0.22651 0.24223
 C1654 C 0.46809 0.23131 0.23216
 C1655 C 0.47345 0.24101 0.22693
 C1656 C 0.48373 0.24560 0.23150
 H1657 H 0.48718 0.27209 0.24542
 H1658 H 0.46924 0.28035 0.25348
 H1659 H 0.46974 0.25435 0.28064
 H1660 H 0.48779 0.24635 0.27259
 H1661 H 0.50663 0.27666 0.25431
 H1662 H 0.52420 0.28495 0.26275
 H1663 H 0.51746 0.24236 0.26502
 H1664 H 0.50661 0.22271 0.24553
 H1665 H 0.52414 0.21440 0.23697
 H1666 H 0.53513 0.24876 0.22629
 H1667 H 0.51740 0.25701 0.23479
 H1668 H 0.48713 0.22736 0.25457
 H1669 H 0.46921 0.21909 0.24650
 H1670 H 0.46979 0.24497 0.21922
 H1671 H 0.48780 0.25298 0.22729
 H1672 H 0.53524 0.25058 0.27341
 C1673 C 0.99983 0.75440 0.74580
 C1674 C 0.99982 0.74599 0.75413
 C1675 C 1.01078 0.74122 0.75905
 C1676 C 0.98885 0.74105 0.75885
 C1677 C 0.98888 0.75936 0.74107
 C1678 C 1.01080 0.75917 0.74090
 C1679 C 1.01276 0.72918 0.75867
 C1680 C 1.02285 0.72443 0.76347
 C1681 C 1.03116 0.73161 0.76885
 C1682 C 1.02912 0.74369 0.76929
 C1683 C 1.01900 0.74844 0.76446
 C1684 C 0.98065 0.73566 0.75159
 C1685 C 0.97055 0.73075 0.75628
 C1686 C 0.96850 0.73110 0.76833
 C1687 C 0.97678 0.73647 0.77554
 C1688 C 0.98686 0.74133 0.77085
 C1689 C 0.98068 0.76478 0.74831
 C1690 C 0.97058 0.76970 0.74360
 C1691 C 0.96854 0.76931 0.73155
 C1692 C 0.97682 0.76390 0.72435
 C1693 C 0.98690 0.75904 0.72906
 C1694 C 1.01276 0.77120 0.74125
 C1695 C 1.02286 0.77594 0.73645
 C1696 C 1.03118 0.76874 0.73109
 C1697 C 1.02915 0.75666 0.73067
 C1698 C 1.01903 0.75192 0.73550
 H1699 H 1.00647 0.72345 0.75462
 H1700 H 1.02409 0.71509 0.76303
 H1701 H 1.03532 0.74947 0.77338
 H1702 H 1.01754 0.75774 0.76501
 H1703 H 0.98214 0.73517 0.74231
 H1704 H 0.96436 0.72667 0.75048
 H1705 H 0.99314 0.74536 0.77660
 H1706 H 0.98215 0.76529 0.75758
 H1707 H 0.96438 0.77380 0.74938
 H1708 H 0.97559 0.76351 0.71504
 H1709 H 0.99319 0.75498 0.72333
 H1710 H 1.00646 0.77694 0.74528
 H1711 H 1.02409 0.78528 0.73687
 H1712 H 1.03536 0.75087 0.72659
 H1713 H 1.01757 0.74263 0.73496
 H1714 H 0.97553 0.73684 0.78485
 C1715 C 0.49989 0.75424 0.24593
 C1716 C 0.49988 0.74582 0.25425
 C1717 C 0.51084 0.74105 0.25917
 C1718 C 0.48892 0.74085 0.25895
 C1719 C 0.48893 0.75920 0.24120
 C1720 C 0.51086 0.75900 0.24104
 C1721 C 0.51283 0.72901 0.25879
 C1722 C 0.52293 0.72427 0.26359
 C1723 C 0.53121 0.73146 0.26900
 C1724 C 0.52915 0.74353 0.26947
 C1725 C 0.51904 0.74828 0.26462
 C1726 C 0.48073 0.73547 0.25167
 C1727 C 0.47062 0.73054 0.25634
 C1728 C 0.46857 0.73085 0.26839
 C1729 C 0.47685 0.73620 0.27562
 C1730 C 0.48693 0.74109 0.27095
 C1731 C 0.48071 0.76459 0.24844
 C1732 C 0.47061 0.76952 0.24372
 C1733 C 0.46860 0.76918 0.23167
 C1734 C 0.47691 0.76381 0.22447
 C1735 C 0.48699 0.75893 0.22919
 C1736 C 0.51283 0.77104 0.24141
 C1737 C 0.52293 0.77578 0.23662
 C1738 C 0.53124 0.76858 0.23124
 C1739 C 0.52920 0.75651 0.23079
 C1740 C 0.51908 0.75176 0.23563
 H1741 H 0.50656 0.72329 0.25471
 H1742 H 0.52418 0.71493 0.26314
 H1743 H 0.53534 0.74931 0.27358
 H1744 H 0.51756 0.75757 0.26519
 H1745 H 0.48221 0.73502 0.24239
 H1746 H 0.46444 0.72647 0.25052
 H1747 H 0.49320 0.74510 0.27672
 H1748 H 0.48216 0.76506 0.25772
 H1749 H 0.46441 0.77360 0.24951
 H1750 H 0.47570 0.76346 0.21516
 H1751 H 0.49329 0.75491 0.22344
 H1752 H 0.50653 0.77677 0.24546
 H1753 H 0.52416 0.78511 0.23705
 H1754 H 0.53540 0.75072 0.22670
 H1755 H 0.51761 0.74247 0.23507
 H1756 H 0.47560 0.73653 0.28494
 C1757 C 0.00002 0.74585 0.24596
 C1758 C 0.00001 0.75429 0.25426
 C1759 C -0.01097 0.75925 0.25896
 C1760 C 0.01097 0.75907 0.25917
 C1761 C 0.01098 0.74105 0.24107
 C1762 C -0.01094 0.74088 0.24126
 C1763 C -0.01918 0.76462 0.25168
 C1764 C -0.02931 0.76950 0.25635
 C1765 C -0.03139 0.76913 0.26840
 C1766 C -0.02309 0.76379 0.27563
 C1767 C -0.01297 0.75896 0.27096
 C1768 C 0.01291 0.77111 0.25881
 C1769 C 0.02299 0.77587 0.26361
 C1770 C 0.03131 0.76869 0.26900
 C1771 C 0.02929 0.75661 0.26944
 C1772 C 0.01920 0.75185 0.26459
 C1773 C 0.01293 0.72900 0.24144
 C1774 C 0.02300 0.72422 0.23662
 C1775 C 0.03131 0.73139 0.23121
 C1776 C 0.02930 0.74347 0.23077
 C1777 C 0.01921 0.74825 0.23563
 C1778 C -0.01913 0.73549 0.24853
 C1779 C -0.02924 0.73057 0.24385
 C1780 C -0.03129 0.73092 0.23181
 C1781 C -0.02302 0.73630 0.22458
 C1782 C -0.01293 0.74117 0.22926
 H1783 H -0.01768 0.76511 0.24241
 H1784 H -0.03551 0.77356 0.25054
 H1785 H -0.02435 0.76342 0.28494
 H1786 H -0.00669 0.75495 0.27672
 H1787 H 0.00661 0.77684 0.25476
 H1788 H 0.02421 0.78521 0.26319
 H1789 H 0.01775 0.74255 0.26515
 H1790 H 0.00663 0.72329 0.24551
 H1791 H 0.02421 0.71488 0.23705
 H1792 H 0.03551 0.74923 0.22665
 H1793 H 0.01777 0.75755 0.23507
 H1794 H -0.01765 0.73500 0.25781
 H1795 H -0.03542 0.72648 0.24966
 H1796 H -0.02426 0.73667 0.21527
 H1797 H -0.00666 0.74520 0.22350
 H1798 H 0.03551 0.75083 0.27354
 C1799 C 0.50013 0.74602 0.74623
 C1800 C 0.50012 0.75443 0.75457
 C1801 C 0.48914 0.75937 0.75927
 C1802 C 0.51108 0.75922 0.75948
 C1803 C 0.51110 0.74124 0.74133
 C1804 C 0.48917 0.74108 0.74150
 C1805 C 0.48100 0.76488 0.75202
 C1806 C 0.47088 0.76977 0.75670
 C1807 C 0.46873 0.76925 0.76873
 C1808 C 0.47695 0.76376 0.77594
 C1809 C 0.48707 0.75894 0.77126
 C1810 C 0.51300 0.77127 0.75915
 C1811 C 0.52308 0.77604 0.76394
 C1812 C 0.53143 0.76886 0.76929
 C1813 C 0.52944 0.75677 0.76970
 C1814 C 0.51934 0.75200 0.76486
 C1815 C 0.51305 0.72919 0.74166
 C1816 C 0.52314 0.72443 0.73685
 C1817 C 0.53146 0.73162 0.73148
 C1818 C 0.52945 0.74370 0.73107
 C1819 C 0.51934 0.74846 0.73593
 C1820 C 0.48094 0.73569 0.74875
 C1821 C 0.47084 0.73079 0.74404
 C1822 C 0.46881 0.73115 0.73199
 C1823 C 0.47712 0.73651 0.72479
 C1824 C 0.48720 0.74136 0.72949
 H1825 H 0.48255 0.76546 0.74276
 H1826 H 0.46473 0.77394 0.75091
 H1827 H 0.47563 0.76328 0.78523
 H1828 H 0.49330 0.75482 0.77700
 H1829 H 0.50667 0.77699 0.75513
 H1830 H 0.52427 0.78538 0.76354
 H1831 H 0.51792 0.74270 0.76538
 H1832 H 0.50675 0.72347 0.74570
 H1833 H 0.52435 0.71510 0.73726
 H1834 H 0.53566 0.74948 0.72698
 H1835 H 0.51789 0.75777 0.73539
 H1836 H 0.48240 0.73520 0.75802
 H1837 H 0.46464 0.72672 0.74984
 H1838 H 0.47590 0.73687 0.71547
 H1839 H 0.49350 0.74538 0.72374
 H1840 H 0.53568 0.75100 0.77376
 C1841 C 0.39888 0.30374 0.30378
 N1842 N 0.39449 0.31393 0.29971
 N1843 N 0.38516 0.31875 0.30465
 C1844 C 0.37990 0.31356 0.31385
 N1845 N 0.38430 0.30338 0.31793
 N1846 N 0.39362 0.29856 0.31299
 C1847 C 0.40910 0.29836 0.29829
 N1848 N 0.41344 0.28814 0.30235
 N1849 N 0.42269 0.28324 0.29737
 C1850 C 0.42795 0.28837 0.28813
 N1851 N 0.42361 0.29858 0.28406
 N1852 N 0.41436 0.30349 0.28905
 C1853 C 0.43822 0.28301 0.28272
 N1854 N 0.44346 0.28808 0.27344
 N1855 N 0.45286 0.28328 0.26863
 C1856 C 0.45742 0.27324 0.27291
 N1857 N 0.45213 0.26817 0.28219
 N1858 N 0.44272 0.27295 0.28699
 C1859 C 0.39866 0.80441 0.80350
 N1860 N 0.39427 0.80007 0.81355
 N1861 N 0.38485 0.80479 0.81839
 C1862 C 0.37949 0.81407 0.81340
 N1863 N 0.38391 0.81844 0.80335
 N1864 N 0.39330 0.81367 0.79848
 C1865 C 0.40904 0.79916 0.79819
 N1866 N 0.41262 0.80243 0.78743
 N1867 N 0.42203 0.79763 0.78264
 C1868 C 0.42824 0.78942 0.78846
 N1869 N 0.42467 0.78618 0.79922
 N1870 N 0.41522 0.79093 0.80398
 C1871 C 0.43868 0.78417 0.78327
 N1872 N 0.44557 0.77701 0.78964
 N1873 N 0.45508 0.77228 0.78500
 C1874 C 0.45807 0.77447 0.77379
 N1875 N 0.45113 0.78162 0.76742
 N1876 N 0.44163 0.78639 0.77207
 C1877 C -0.10142 0.30399 0.80373
 N1878 N -0.10494 0.31481 0.80052
 N1879 N -0.11433 0.31965 0.80532
 C1880 C -0.12052 0.31386 0.81353
 N1881 N -0.11698 0.30306 0.81676
 N1882 N -0.10762 0.29820 0.81194
 C1883 C -0.09108 0.29864 0.79844
 N1884 N -0.08815 0.28745 0.80089
 N1885 N -0.07876 0.28261 0.79610
 C1886 C -0.07194 0.28879 0.78871
 N1887 N -0.07486 0.29998 0.78627
 N1888 N -0.08428 0.30481 0.79102
 C1889 C -0.06151 0.28353 0.78350
 N1890 N -0.05420 0.29005 0.77691
 N1891 N -0.04468 0.28535 0.77225
 C1892 C -0.04209 0.27394 0.77396
 N1893 N -0.04944 0.26741 0.78052
 N1894 N -0.05896 0.27212 0.78522
 C1895 C -0.10130 0.80449 0.30327
 N1896 N -0.10515 0.80078 0.31378
 N1897 N -0.11459 0.80548 0.31860
 C1898 C -0.12049 0.81412 0.31311
 N1899 N -0.11662 0.81787 0.30261
 N1900 N -0.10721 0.81312 0.29777
 C1901 C -0.09094 0.79922 0.29795
 N1902 N -0.08786 0.80184 0.28687
 N1903 N -0.07848 0.79699 0.28205
 C1904 C -0.07181 0.78939 0.28817
 N1905 N -0.07489 0.78679 0.29926
 N1906 N -0.08429 0.79159 0.30405
 C1907 C -0.06141 0.78409 0.28296
 N1908 N -0.05419 0.77742 0.28949
 N1909 N -0.04469 0.77267 0.28484
 C1910 C -0.04205 0.77436 0.27347
 N1911 N -0.04932 0.78101 0.26693
 N1912 N -0.05881 0.78580 0.27158
 C1913 C 0.60133 0.69663 0.30396
 N1914 N 0.60732 0.70235 0.31236
 N1915 N 0.61677 0.69760 0.31711
 C1916 C 0.62062 0.68700 0.31358
 N1917 N 0.61465 0.68129 0.30516
 N1918 N 0.60516 0.68601 0.30045
 C1919 C 0.59091 0.70187 0.29874
 N1920 N 0.58421 0.69570 0.29124
 N1921 N 0.57475 0.70046 0.28651
 C1922 C 0.57167 0.71158 0.28907
 N1923 N 0.57837 0.71776 0.29656
 N1924 N 0.58781 0.71298 0.30132
 C1925 C 0.56123 0.71679 0.28383
 N1926 N 0.55863 0.72819 0.28557
 N1927 N 0.54914 0.73287 0.28082
 C1928 C 0.54186 0.72633 0.27419
 N1929 N 0.54451 0.71493 0.27248
 N1930 N 0.55401 0.71026 0.27719
 C1931 C 0.60132 0.19673 0.80355
 N1932 N 0.60731 0.20242 0.81196
 N1933 N 0.61679 0.19768 0.81667
 C1934 C 0.62066 0.18711 0.81309
 N1935 N 0.61469 0.18142 0.80466
 N1936 N 0.60517 0.18613 0.79999
 C1937 C 0.59088 0.20196 0.79836
 N1938 N 0.58416 0.19579 0.79087
 N1939 N 0.57469 0.20054 0.78617
 C1940 C 0.57161 0.21166 0.78873
 N1941 N 0.57834 0.21785 0.79619
 N1942 N 0.58778 0.21308 0.80094
 C1943 C 0.56116 0.21687 0.78351
 N1944 N 0.55858 0.22828 0.78521
 N1945 N 0.54908 0.23296 0.78046
 C1946 C 0.54179 0.22641 0.77386
 N1947 N 0.54441 0.21500 0.77219
 N1948 N 0.55391 0.21033 0.77690
 C1949 C 1.10114 0.69662 0.80388
 N1950 N 1.10721 0.70235 0.81222
 N1951 N 1.11662 0.69756 0.81700
 C1952 C 1.12034 0.68687 0.81359
 N1953 N 1.11429 0.68114 0.80524
 N1954 N 1.10484 0.68591 0.80049
 C1955 C 1.09076 0.70190 0.79864
 N1956 N 1.08399 0.69571 0.79122
 N1957 N 1.07455 0.70050 0.78648
 C1958 C 1.07156 0.71167 0.78894
 N1959 N 1.07835 0.71787 0.79634
 N1960 N 1.08776 0.71306 0.80112
 C1961 C 1.06115 0.71690 0.78370
 N1962 N 1.05861 0.72833 0.78536
 N1963 N 1.04913 0.73303 0.78060
 C1964 C 1.04180 0.72648 0.77404
 N1965 N 1.04437 0.71505 0.77242
 N1966 N 1.05386 0.71036 0.77713
 C1967 C 1.10121 0.19673 0.30364
 N1968 N 1.10727 0.20249 0.31197
 N1969 N 1.11668 0.19771 0.31676
 C1970 C 1.12042 0.18703 0.31336
 N1971 N 1.11439 0.18128 0.30501
 N1972 N 1.10493 0.18603 0.30026
 C1973 C 1.09082 0.20199 0.29839
 N1974 N 1.08408 0.19579 0.29095
 N1975 N 1.07463 0.20055 0.28621
 C1976 C 1.07160 0.21170 0.28870
 N1977 N 1.07835 0.21791 0.29612
 N1978 N 1.08778 0.21313 0.30089
 C1979 C 1.06116 0.21691 0.28348
 N1980 N 1.05859 0.22832 0.28517
 N1981 N 1.04909 0.23300 0.28044
 C1982 C 1.04178 0.22645 0.27385
 N1983 N 1.04439 0.21503 0.27219
 N1984 N 1.05390 0.21036 0.27688
 C1985 C 0.60131 0.30347 0.69594
 N1986 N 0.60748 0.29767 0.68772
 N1987 N 0.61692 0.30244 0.68297
 C1988 C 0.62058 0.31316 0.68632
 N1989 N 0.61443 0.31895 0.69457
 N1990 N 0.60496 0.31420 0.69928
 C1991 C 0.59088 0.29822 0.70114
 N1992 N 0.58405 0.30445 0.70849
 N1993 N 0.57457 0.29969 0.71318
 C1994 C 0.57160 0.28852 0.71074
 N1995 N 0.57843 0.28228 0.70340
 N1996 N 0.58789 0.28705 0.69867
 C1997 C 0.56115 0.28331 0.71595
 N1998 N 0.55862 0.27189 0.71432
 N1999 N 0.54913 0.26721 0.71906
 C2000 C 0.54177 0.27377 0.72559
 N2001 N 0.54434 0.28521 0.72719
 N2002 N 0.55384 0.28988 0.72249
 C2003 C 0.60141 0.80333 0.19639
 N2004 N 0.60748 0.79757 0.18807
 N2005 N 0.61693 0.80232 0.18331
 C2006 C 0.62067 0.81298 0.18675
 N2007 N 0.61461 0.81874 0.19509
 N2008 N 0.60514 0.81400 0.19980
 C2009 C 0.59098 0.79809 0.20160
 N2010 N 0.58423 0.80430 0.20903
 N2011 N 0.57476 0.79956 0.21374
 C2012 C 0.57172 0.78842 0.21123
 N2013 N 0.57848 0.78220 0.20381
 N2014 N 0.58793 0.78696 0.19906
 C2015 C 0.56128 0.78322 0.21644
 N2016 N 0.55870 0.77181 0.21475
 N2017 N 0.54920 0.76714 0.21948
 C2018 C 0.54188 0.77370 0.22606
 N2019 N 0.54449 0.78511 0.22773
 N2020 N 0.55401 0.78977 0.22304
 C2021 C 1.10137 0.30342 0.19592
 N2022 N 1.10747 0.29763 0.18764
 N2023 N 1.11689 0.30239 0.18286
 C2024 C 1.12060 0.31308 0.18622
 N2025 N 1.11452 0.31887 0.19453
 N2026 N 1.10506 0.31413 0.19927
 C2027 C 1.09095 0.29818 0.20116
 N2028 N 1.08417 0.30442 0.20855
 N2029 N 1.07470 0.29968 0.21327
 C2030 C 1.07170 0.28851 0.21083
 N2031 N 1.07849 0.28227 0.20346
 N2032 N 1.08793 0.28703 0.19869
 C2033 C 1.06125 0.28332 0.21606
 N2034 N 1.05871 0.27189 0.21442
 N2035 N 1.04921 0.26723 0.21916
 C2036 C 1.04186 0.27380 0.22570
 N2037 N 1.04445 0.28523 0.22731
 N2038 N 1.05395 0.28989 0.22260
 C2039 C 1.10132 0.80351 0.69619
 N2040 N 1.10500 0.81424 0.69952
 N2041 N 1.11445 0.81898 0.69476
 C2042 C 1.12053 0.81319 0.68646
 N2043 N 1.11684 0.80248 0.68312
 N2044 N 1.10742 0.79772 0.68791
 C2045 C 1.09092 0.79826 0.70143
 N2046 N 1.08792 0.78710 0.69897
 N2047 N 1.07848 0.78233 0.70373
 C2048 C 1.07167 0.78858 0.71108
 N2049 N 1.07465 0.79974 0.71352
 N2050 N 1.08412 0.80450 0.70880
 C2051 C 1.06122 0.78338 0.71629
 N2052 N 1.05391 0.78995 0.72283
 N2053 N 1.04440 0.78528 0.72752
 C2054 C 1.04183 0.77386 0.72591
 N2055 N 1.04919 0.76728 0.71938
 N2056 N 1.05869 0.77195 0.71465
 C2057 C 0.39891 0.69589 0.69709
 N2058 N 0.39519 0.69948 0.68648
 N2059 N 0.38579 0.69475 0.68163
 C2060 C 0.37980 0.68621 0.68716
 N2061 N 0.38353 0.68259 0.69775
 N2062 N 0.39290 0.68737 0.70264
 C2063 C 0.40927 0.70114 0.70241
 N2064 N 0.41228 0.69859 0.71353
 N2065 N 0.42169 0.70340 0.71833
 C2066 C 0.42844 0.71088 0.71216
 N2067 N 0.42543 0.71340 0.70105
 N2068 N 0.41601 0.70864 0.69627
 C2069 C 0.43886 0.71614 0.71738
 N2070 N 0.44613 0.72273 0.71083
 N2071 N 0.45561 0.72749 0.71549
 C2072 C 0.45819 0.72589 0.72689
 N2073 N 0.45087 0.71930 0.73344
 N2074 N 0.44140 0.71451 0.72877
 C2075 C 0.39878 0.19584 0.19630
 N2076 N 0.39368 0.20091 0.18694
 N2077 N 0.38426 0.19620 0.18210
 C2078 C 0.37960 0.18625 0.18644
 N2079 N 0.38471 0.18117 0.19578
 N2080 N 0.39413 0.18588 0.20063
 C2081 C 0.40909 0.20112 0.20170
 N2082 N 0.41420 0.19610 0.21108
 N2083 N 0.42350 0.20095 0.21602
 C2084 C 0.42803 0.21100 0.21176
 N2085 N 0.42292 0.21601 0.20237
 N2086 N 0.41362 0.21116 0.19744
 C2087 C 0.43831 0.21634 0.21716
 N2088 N 0.44291 0.22628 0.21277
 N2089 N 0.45231 0.23107 0.21758
 C2090 C 0.45746 0.22612 0.22699
 N2091 N 0.45281 0.21618 0.23139
 N2092 N 0.44341 0.21138 0.22657
 C2093 C -0.10122 0.69572 0.19699
 N2094 N -0.10505 0.69947 0.18648
 N2095 N -0.11449 0.69480 0.18165
 C2096 C -0.12041 0.68616 0.18711
 N2097 N -0.11656 0.68238 0.19760
 N2098 N -0.10716 0.68710 0.20247
 C2099 C -0.09084 0.70093 0.20230
 N2100 N -0.08771 0.69823 0.21335
 N2101 N -0.07830 0.70302 0.21813
 C2102 C -0.07164 0.71063 0.21202
 N2103 N -0.07476 0.71330 0.20097
 N2104 N -0.08420 0.70856 0.19621
 C2105 C -0.06123 0.71589 0.21723
 N2106 N -0.05405 0.72261 0.21071
 N2107 N -0.04457 0.72737 0.21536
 C2108 C -0.04191 0.72566 0.22672
 N2109 N -0.04914 0.71894 0.23325
 N2110 N -0.05860 0.71414 0.22858
 C2111 C -0.10154 0.19660 0.69631
 N2112 N -0.10750 0.20230 0.68786
 N2113 N -0.11696 0.19758 0.68312
 C2114 C -0.12084 0.18701 0.68670
 N2115 N -0.11490 0.18131 0.69516
 N2116 N -0.10540 0.18601 0.69986
 C2117 C -0.09111 0.20182 0.70153
 N2118 N -0.08446 0.19564 0.70908
 N2119 N -0.07499 0.20037 0.71381
 C2120 C -0.07186 0.21146 0.71119
 N2121 N -0.07852 0.21765 0.70366
 N2122 N -0.08797 0.21290 0.69890
 C2123 C -0.06141 0.21665 0.71642
 N2124 N -0.05876 0.22802 0.71462
 N2125 N -0.04925 0.23268 0.71935
 C2126 C -0.04201 0.22614 0.72604
 N2127 N -0.04471 0.21476 0.72781
 N2128 N -0.05422 0.21011 0.72312
 C2129 C 0.30340 0.39824 0.30372
 N2130 N 0.31404 0.39445 0.30021
 N2131 N 0.31885 0.38505 0.30501
 C2132 C 0.31322 0.37914 0.31354
 N2133 N 0.30260 0.38295 0.31706
 N2134 N 0.29777 0.39231 0.31222
 C2135 C 0.29810 0.40859 0.29842
 N2136 N 0.28695 0.41162 0.30093
 N2137 N 0.28214 0.42102 0.29613
 C2138 C 0.28834 0.42777 0.28869
 N2139 N 0.29949 0.42476 0.28619
 N2140 N 0.30428 0.41533 0.29095
 C2141 C 0.28311 0.43820 0.28345
 N2142 N 0.28966 0.44549 0.27689
 N2143 N 0.28498 0.45500 0.27219
 C2144 C 0.27354 0.45757 0.27382
 N2145 N 0.26698 0.45023 0.28036
 N2146 N 0.27168 0.44074 0.28510
 C2147 C 0.30388 -0.10196 0.80374
 N2148 N 0.31414 -0.10621 0.79970
 N2149 N 0.31895 -0.11562 0.80449
 C2150 C 0.31372 -0.12108 0.81355
 N2151 N 0.30347 -0.11679 0.81761
 N2152 N 0.29862 -0.10743 0.81277
 C2153 C 0.29856 -0.09161 0.79845
 N2154 N 0.28761 -0.08826 0.80141
 N2155 N 0.28278 -0.07887 0.79661
 C2156 C 0.28876 -0.07244 0.78871
 N2157 N 0.29971 -0.07577 0.78577
 N2158 N 0.30452 -0.08520 0.79052
 C2159 C 0.28350 -0.06202 0.78348
 N2160 N 0.28996 -0.05490 0.77662
 N2161 N 0.28526 -0.04540 0.77194
 C2162 C 0.27391 -0.04265 0.77386
 N2163 N 0.26745 -0.04982 0.78070
 N2164 N 0.27216 -0.05930 0.78543
 C2165 C 0.80358 0.39850 0.80372
 N2166 N 0.79839 0.39311 0.81283
 N2167 N 0.80322 0.38373 0.81766
 C2168 C 0.81339 0.37935 0.81351
 N2169 N 0.81856 0.38473 0.80435
 N2170 N 0.81376 0.39414 0.79957
 C2171 C 0.79830 0.40888 0.79845
 N2172 N 0.80416 0.41512 0.79033
 N2173 N 0.79939 0.42458 0.78560
 C2174 C 0.78857 0.42812 0.78879
 N2175 N 0.78269 0.42186 0.79689
 N2176 N 0.78748 0.41244 0.80166
 C2177 C 0.78336 0.43857 0.78357
 N2178 N 0.77213 0.44151 0.78581
 N2179 N 0.76745 0.45101 0.78106
 C2180 C 0.77382 0.45796 0.77393
 N2181 N 0.78506 0.45498 0.77173
 N2182 N 0.78973 0.44546 0.77643
 C2183 C 0.80374 -0.10160 0.30321
 N2184 N 0.81328 -0.10670 0.29843
 N2185 N 0.81797 -0.11614 0.30325
 C2186 C 0.81332 -0.12084 0.31303
 N2187 N 0.80379 -0.11572 0.31781
 N2188 N 0.79908 -0.10629 0.31298
 C2189 C 0.79850 -0.09124 0.29787
 N2190 N 0.78878 -0.08636 0.30250
 N2191 N 0.78396 -0.07701 0.29763
 C2192 C 0.78868 -0.07218 0.28796
 N2193 N 0.79841 -0.07704 0.28334
 N2194 N 0.80323 -0.08640 0.28820
 C2195 C 0.78334 -0.06188 0.28260
 N2196 N 0.78806 -0.05699 0.27297
 N2197 N 0.78325 -0.04759 0.26817
 C2198 C 0.77351 -0.04271 0.27282
 N2199 N 0.76880 -0.04766 0.28245
 N2200 N 0.77361 -0.05705 0.28725
 C2201 C 0.30349 0.60144 0.69667
 N2202 N 0.31407 0.60528 0.70028
 N2203 N 0.31888 0.61469 0.69552
 C2204 C 0.31332 0.62056 0.68692
 N2205 N 0.30276 0.61671 0.68328
 N2206 N 0.29792 0.60733 0.68809
 C2207 C 0.29819 0.59105 0.70190
 N2208 N 0.28712 0.58792 0.69920
 N2209 N 0.28232 0.57848 0.70394
 C2210 C 0.28844 0.57181 0.71153
 N2211 N 0.29952 0.57494 0.71421
 N2212 N 0.30430 0.58439 0.70951
 C2213 C 0.28322 0.56136 0.71672
 N2214 N 0.28973 0.55415 0.72343
 N2215 N 0.28505 0.54464 0.72810
 C2216 C 0.27367 0.54196 0.72630
 N2217 N 0.26716 0.54921 0.71960
 N2218 N 0.27185 0.55872 0.71488
 C2219 C 0.30393 1.10128 0.19689
 N2220 N 0.30031 1.10500 0.18630
 N2221 N 0.30496 1.11446 0.18148
 C2222 C 0.31342 1.12052 0.18705
 N2223 N 0.31706 1.11678 0.19763
 N2224 N 0.31238 1.10734 0.20247
 C2225 C 0.29875 1.09087 0.20219
 N2226 N 0.30146 1.08775 0.21323
 N2227 N 0.29669 1.07833 0.21803
 C2228 C 0.28907 1.07168 0.21194
 N2229 N 0.28639 1.07479 0.20089
 N2230 N 0.29112 1.08423 0.19611
 C2231 C 0.28381 1.06127 0.21716
 N2232 N 0.27700 1.05414 0.21069
 N2233 N 0.27224 1.04467 0.21537
 C2234 C 0.27405 1.04197 0.22671
 N2235 N 0.28086 1.04914 0.23318
 N2236 N 0.28566 1.05860 0.22850
 C2237 C 0.80347 0.60132 0.19640
 N2238 N 0.81402 0.60519 0.20004
 N2239 N 0.81882 0.61461 0.19529
 C2240 C 0.81326 0.62047 0.18668
 N2241 N 0.80272 0.61659 0.18302
 N2242 N 0.79790 0.60720 0.18781
 C2243 C 0.79816 0.59096 0.20164
 N2244 N 0.78711 0.58780 0.19888
 N2245 N 0.78229 0.57839 0.20365
 C2246 C 0.78837 0.57178 0.21131
 N2247 N 0.79942 0.57492 0.21405
 N2248 N 0.80422 0.58435 0.20932
 C2249 C 0.78312 0.56137 0.21654
 N2250 N 0.78958 0.55422 0.22335
 N2251 N 0.78488 0.54474 0.22806
 C2252 C 0.77351 0.54204 0.22619
 N2253 N 0.76704 0.54924 0.21939
 N2254 N 0.77176 0.55871 0.21464
 C2255 C 0.80421 1.10126 0.69643
 N2256 N 0.80058 1.10497 0.68584
 N2257 N 0.80529 1.11437 0.68095
 C2258 C 0.81384 1.12036 0.68646
 N2259 N 0.81749 1.11664 0.69704
 N2260 N 0.81274 1.10727 0.70195
 C2261 C 0.79897 1.09092 0.70180
 N2262 N 0.80169 1.08783 0.71285
 N2263 N 0.79688 1.07846 0.71770
 C2264 C 0.78922 1.07182 0.71166
 N2265 N 0.78652 1.07490 0.70060
 N2266 N 0.79129 1.08429 0.69577
 C2267 C 0.78392 1.06146 0.71693
 N2268 N 0.77708 1.05433 0.71049
 N2269 N 0.77229 1.04490 0.71521
 C2270 C 0.77412 1.04222 0.72655
 N2271 N 0.78095 1.04940 0.73300
 N2272 N 0.78577 1.05883 0.72827
 C2273 C 0.69638 0.60163 0.30399
 N2274 N 0.68577 0.60548 0.30047
 N2275 N 0.68103 0.61494 0.30521
 C2276 C 0.68671 0.62086 0.31369
 N2277 N 0.69731 0.61700 0.31723
 N2278 N 0.70207 0.60757 0.31245
 C2279 C 0.70163 0.59123 0.29874
 N2280 N 0.71274 0.58812 0.30133
 N2281 N 0.71751 0.57869 0.29656
 C2282 C 0.71133 0.57200 0.28905
 N2283 N 0.70022 0.57510 0.28648
 N2284 N 0.69546 0.58455 0.29122
 C2285 C 0.71654 0.56156 0.28382
 N2286 N 0.71000 0.55434 0.27719
 N2287 N 0.71466 0.54482 0.27250
 C2288 C 0.72607 0.54216 0.27422
 N2289 N 0.73261 0.54944 0.28084
 N2290 N 0.72794 0.55895 0.28557
 C2291 C 0.69557 1.10180 0.80366
 N2292 N 0.69954 1.10583 0.81401
 N2293 N 0.69480 1.11521 0.81889
 C2294 C 0.68585 1.12089 0.81365
 N2295 N 0.68185 1.11683 0.80332
 N2296 N 0.68664 1.10748 0.79840
 C2297 C 0.70083 1.09145 0.79830
 N2298 N 0.69791 1.08820 0.78735
 N2299 N 0.70272 1.07881 0.78251
 C2300 C 0.71058 1.07230 0.78848
 N2301 N 0.71347 1.07555 0.79944
 N2302 N 0.70872 1.08497 0.80424
 C2303 C 0.71583 1.06188 0.78325
 N2304 N 0.72269 1.05476 0.78969
 N2305 N 0.72742 1.04527 0.78503
 C2306 C 0.72552 1.04252 0.77371
 N2307 N 0.71867 1.04968 0.76725
 N2308 N 0.71390 1.05917 0.77193
 C2309 C 0.19601 0.60136 0.80413
 N2310 N 0.20161 0.60725 0.81268
 N2311 N 0.19676 0.61660 0.81753
 C2312 C 0.18617 0.62044 0.81397
 N2313 N 0.18058 0.61457 0.80540
 N2314 N 0.18540 0.60519 0.80059
 C2315 C 0.20133 0.59101 0.79884
 N2316 N 0.19522 0.58437 0.79125
 N2317 N 0.20001 0.57493 0.78651
 C2318 C 0.21111 0.57183 0.78915
 N2319 N 0.21724 0.57849 0.79671
 N2320 N 0.21243 0.58790 0.80149
 C2321 C 0.21633 0.56139 0.78394
 N2322 N 0.22771 0.55873 0.78575
 N2323 N 0.23239 0.54922 0.78103
 C2324 C 0.22586 0.54197 0.77436
 N2325 N 0.21448 0.54466 0.77257
 N2326 N 0.20981 0.55419 0.77725
 C2327 C 0.19591 1.10167 0.30343
 N2328 N 0.19930 1.10519 0.31417
 N2329 N 0.19462 1.11462 0.31902
 C2330 C 0.18635 1.12085 0.31334
 N2331 N 0.18295 1.11733 0.30261
 N2332 N 0.18767 1.10792 0.29773
 C2333 C 0.20106 1.09124 0.29813
 N2334 N 0.19857 1.08829 0.28699
 N2335 N 0.20327 1.07881 0.28222
 C2336 C 0.21059 1.07193 0.28843
 N2337 N 0.21305 1.07487 0.29958
 N2338 N 0.20839 1.08436 0.30433
 C2339 C 0.21577 1.06145 0.28324
 N2340 N 0.22229 1.05413 0.28980
 N2341 N 0.22700 1.04462 0.28515
 C2342 C 0.22543 1.04206 0.27374
 N2343 N 0.21891 1.04943 0.26717
 N2344 N 0.21416 1.05893 0.27183
 C2345 C 0.69632 0.39851 0.69592
 N2346 N 0.68565 0.39478 0.69935
 N2347 N 0.68084 0.38539 0.69454
 C2348 C 0.68652 0.37943 0.68608
 N2349 N 0.69718 0.38317 0.68264
 N2350 N 0.70201 0.39252 0.68748
 C2351 C 0.70161 0.40888 0.70120
 N2352 N 0.71274 0.41194 0.69863
 N2353 N 0.71753 0.42136 0.70341
 C2354 C 0.71134 0.42809 0.71088
 N2355 N 0.70021 0.42504 0.71343
 N2356 N 0.69544 0.41560 0.70869
 C2357 C 0.71655 0.43854 0.71611
 N2358 N 0.71000 0.44578 0.72273
 N2359 N 0.71466 0.45529 0.72743
 C2360 C 0.72607 0.45792 0.72574
 N2361 N 0.73262 0.45063 0.71913
 N2362 N 0.72795 0.44113 0.71439
 C2363 C 0.69602 -0.10149 0.19635
 N2364 N 0.70097 -0.10651 0.18688
 N2365 N 0.69621 -0.11589 0.18204
 C2366 C 0.68633 -0.12061 0.18648
 N2367 N 0.68138 -0.11560 0.19594
 N2368 N 0.68614 -0.10621 0.20079
 C2369 C 0.70130 -0.09116 0.20170
 N2370 N 0.69636 -0.08609 0.21114
 N2371 N 0.70119 -0.07675 0.21601
 C2372 C 0.71113 -0.07213 0.21161
 N2373 N 0.71607 -0.07719 0.20216
 N2374 N 0.71124 -0.08654 0.19729
 C2375 C 0.71646 -0.06183 0.21695
 N2376 N 0.72632 -0.05715 0.21245
 N2377 N 0.73112 -0.04775 0.21724
 C2378 C 0.72626 -0.04267 0.22673
 N2379 N 0.71640 -0.04740 0.23124
 N2380 N 0.71160 -0.05680 0.22644
 C2381 C 0.19640 0.39833 0.19588
 N2382 N 0.18577 0.39454 0.19939
 N2383 N 0.18100 0.38511 0.19464
 C2384 C 0.18667 0.37916 0.18616
 N2385 N 0.19728 0.38297 0.18264
 N2386 N 0.20208 0.39236 0.18742
 C2387 C 0.20167 0.40872 0.20112
 N2388 N 0.21274 0.41187 0.19842
 N2389 N 0.21752 0.42130 0.20318
 C2390 C 0.21139 0.42793 0.21078
 N2391 N 0.20031 0.42479 0.21346
 N2392 N 0.19555 0.41535 0.20874
 C2393 C 0.21660 0.43836 0.21601
 N2394 N 0.21010 0.44550 0.22279
 N2395 N 0.21478 0.45499 0.22751
 C2396 C 0.22614 0.45770 0.22566
 N2397 N 0.23265 0.45051 0.21889
 N2398 N 0.22796 0.44103 0.21414
 C2399 C 0.19631 -0.10158 0.69591
 N2400 N 0.18571 -0.10540 0.69949
 N2401 N 0.18088 -0.11477 0.69468
 C2402 C 0.18644 -0.12062 0.68607
 N2403 N 0.19703 -0.11679 0.68248
 N2404 N 0.20189 -0.10746 0.68733
 C2405 C 0.20163 -0.09125 0.70120
 N2406 N 0.21269 -0.08809 0.69844
 N2407 N 0.21751 -0.07870 0.70323
 C2408 C 0.21144 -0.07210 0.71090
 N2409 N 0.20038 -0.07524 0.71364
 N2410 N 0.19557 -0.08466 0.70889
 C2411 C 0.21669 -0.06170 0.71614
 N2412 N 0.21023 -0.05457 0.72297
 N2413 N 0.21494 -0.04510 0.72769
 C2414 C 0.22630 -0.04239 0.72580
 N2415 N 0.23276 -0.04957 0.71898
 N2416 N 0.22804 -0.05903 0.71422
 C2417 C 0.30389 0.30291 0.39886
 N2418 N 0.31213 0.29711 0.39269
 N2419 N 0.31684 0.30188 0.38324
 C2420 C 0.31344 0.31259 0.37959
 N2421 N 0.30519 0.31838 0.38575
 N2422 N 0.30052 0.31364 0.39523
 C2423 C 0.29867 0.29766 0.40927
 N2424 N 0.29125 0.30390 0.41602
 N2425 N 0.28651 0.29917 0.42546
 C2426 C 0.28895 0.28801 0.42847
 N2427 N 0.29635 0.28175 0.42170
 N2428 N 0.30114 0.28650 0.41228
 C2429 C 0.28370 0.28283 0.43890
 N2430 N 0.28534 0.27142 0.44148
 N2431 N 0.28058 0.26678 0.45097
 C2432 C 0.27402 0.27338 0.45826
 N2433 N 0.27240 0.28480 0.45564
 N2434 N 0.27713 0.28943 0.44614
 C2435 C 0.30420 0.80319 -0.10132
 N2436 N 0.31278 0.79762 -0.10723
 N2437 N 0.31748 0.80242 -0.11667
 C2438 C 0.31373 0.81293 -0.12056
 N2439 N 0.30513 0.81848 -0.11467
 N2440 N 0.30047 0.81372 -0.10520
 C2441 C 0.29902 0.79794 -0.09090
 N2442 N 0.29145 0.80409 -0.08425
 N2443 N 0.28675 0.79936 -0.07478
 C2444 C 0.28941 0.78827 -0.07165
 N2445 N 0.29697 0.78211 -0.07832
 N2446 N 0.30171 0.78686 -0.08776
 C2447 C 0.28419 0.78309 -0.06122
 N2448 N 0.28593 0.77170 -0.05859
 N2449 N 0.28117 0.76705 -0.04911
 C2450 C 0.27451 0.77361 -0.04187
 N2451 N 0.27281 0.78501 -0.04453
 N2452 N 0.27753 0.78965 -0.05402
 C2453 C 0.80383 0.30374 -0.10131
 N2454 N 0.81202 0.29793 -0.10754
 N2455 N 0.81672 0.30272 -0.11698
 C2456 C 0.81336 0.31347 -0.12056
 N2457 N 0.80516 0.31927 -0.11434
 N2458 N 0.80051 0.31450 -0.10487
 C2459 C 0.79863 0.29846 -0.09093
 N2460 N 0.79125 0.30468 -0.08412
 N2461 N 0.78651 0.29990 -0.07470
 C2462 C 0.78893 0.28872 -0.07176
 N2463 N 0.79630 0.28248 -0.07858
 N2464 N 0.80107 0.28727 -0.08798
 C2465 C 0.78370 0.28349 -0.06136
 N2466 N 0.78534 0.27206 -0.05885
 N2467 N 0.78059 0.26737 -0.04938
 C2468 C 0.77405 0.27394 -0.04204
 N2469 N 0.77243 0.28538 -0.04459
 N2470 N 0.77714 0.29006 -0.05407
 C2471 C 0.80382 0.80401 0.39875
 N2472 N 0.81224 0.79830 0.39272
 N2473 N 0.81704 0.80311 0.38335
 C2474 C 0.81358 0.81379 0.37963
 N2475 N 0.80516 0.81948 0.38564
 N2476 N 0.80039 0.81470 0.39505
 C2477 C 0.79852 0.79873 0.40910
 N2478 N 0.79085 0.80486 0.41567
 N2479 N 0.78605 0.80010 0.42507
 C2480 C 0.78871 0.78903 0.42824
 N2481 N 0.79636 0.78289 0.42166
 N2482 N 0.80119 0.78766 0.41227
 C2483 C 0.78343 0.78384 0.43865
 N2484 N 0.78555 0.77258 0.44154
 N2485 N 0.78079 0.76793 0.45102
 C2486 C 0.77373 0.77436 0.45800
 N2487 N 0.77162 0.78563 0.45507
 N2488 N 0.77637 0.79027 0.44558
 C2489 C 0.69634 0.30305 0.60095
 N2490 N 0.69993 0.31365 0.60472
 N2491 N 0.69527 0.31842 0.61419
 C2492 C 0.68680 0.31279 0.62019
 N2493 N 0.68318 0.30220 0.61640
 N2494 N 0.68789 0.29741 0.60697
 C2495 C 0.70151 0.29778 0.59054
 N2496 N 0.69885 0.28670 0.58743
 N2497 N 0.70358 0.28193 0.57799
 C2498 C 0.71110 0.28809 0.57129
 N2499 N 0.71374 0.29918 0.57438
 N2500 N 0.70905 0.30393 0.58385
 C2501 C 0.71628 0.28290 0.56084
 N2502 N 0.72296 0.28944 0.55364
 N2503 N 0.72763 0.28480 0.54412
 C2504 C 0.72586 0.27342 0.54143
 N2505 N 0.71920 0.26688 0.54868
 N2506 N 0.71448 0.27153 0.55819
 C2507 C 0.69638 0.80311 1.10128
 N2508 N 0.68796 0.79743 1.10732
 N2509 N 0.68322 0.80223 1.11673
 C2510 C 0.68677 0.81286 1.12048
 N2511 N 0.69520 0.81852 1.11446
 N2512 N 0.69990 0.81375 1.10501
 C2513 C 0.70159 0.79783 1.09090
 N2514 N 0.70910 0.80400 1.08419
 N2515 N 0.71382 0.79924 1.07476
 C2516 C 0.71126 0.78811 1.07172
 N2517 N 0.70378 0.78193 1.07844
 N2518 N 0.69901 0.78671 1.08785
 C2519 C 0.71649 0.78290 1.06131
 N2520 N 0.71476 0.77150 1.05873
 N2521 N 0.71951 0.76682 1.04925
 C2522 C 0.72613 0.77337 1.04197
 N2523 N 0.72783 0.78477 1.04458
 N2524 N 0.72312 0.78944 1.05407
 C2525 C 0.19672 0.30321 1.10093
 N2526 N 0.18728 0.29825 1.10602
 N2527 N 0.18253 0.30297 1.11547
 C2528 C 0.18704 0.31281 1.12017
 N2529 N 0.19647 0.31778 1.11507
 N2530 N 0.20122 0.31307 1.10563
 C2531 C 0.20202 0.29796 1.09058
 N2532 N 0.21142 0.30295 1.08545
 N2533 N 0.21628 0.29813 1.07611
 C2534 C 0.21190 0.28815 1.07155
 N2535 N 0.20249 0.28318 1.07666
 N2536 N 0.19764 0.28799 1.08601
 C2537 C 0.21725 0.28284 1.06125
 N2538 N 0.21280 0.27293 1.05663
 N2539 N 0.21759 0.26815 1.04724
 C2540 C 0.22703 0.27308 1.04209
 N2541 N 0.23148 0.28298 1.04675
 N2542 N 0.22669 0.28777 1.05615
 C2543 C 0.19648 0.80287 0.60115
 N2544 N 0.20001 0.81350 0.60490
 N2545 N 0.19535 0.81823 0.61439
 C2546 C 0.18695 0.81254 0.62042
 N2547 N 0.18339 0.80193 0.61665
 N2548 N 0.18809 0.79717 0.60720
 C2549 C 0.20166 0.79763 0.59074
 N2550 N 0.19911 0.78651 0.58768
 N2551 N 0.20386 0.78175 0.57826
 C2552 C 0.21131 0.78797 0.57152
 N2553 N 0.21384 0.79910 0.57456
 N2554 N 0.20913 0.80384 0.58401
 C2555 C 0.21654 0.78278 0.56111
 N2556 N 0.22315 0.78934 0.55386
 N2557 N 0.22786 0.78468 0.54438
 C2558 C 0.22620 0.77326 0.54177
 N2559 N 0.21961 0.76670 0.54906
 N2560 N 0.21485 0.77137 0.55854
 C2561 C 0.30424 0.69651 0.60134
 N2562 N 0.30053 0.68599 0.60524
 N2563 N 0.30522 0.68122 0.61469
 C2564 C 0.31385 0.68676 0.62054
 N2565 N 0.31759 0.69726 0.61662
 N2566 N 0.31285 0.70206 0.60721
 C2567 C 0.29902 0.70177 0.59094
 N2568 N 0.30174 0.71283 0.58777
 N2569 N 0.29697 0.71759 0.57835
 C2570 C 0.28936 0.71146 0.57173
 N2571 N 0.28667 0.70039 0.57490
 N2572 N 0.29139 0.69565 0.58434
 C2573 C 0.28414 0.71664 0.56130
 N2574 N 0.27744 0.71010 0.55413
 N2575 N 0.27275 0.71475 0.54462
 C2576 C 0.27452 0.72612 0.54192
 N2577 N 0.28121 0.73267 0.54913
 N2578 N 0.28595 0.72801 0.55863
 C2579 C 0.30376 0.19586 1.10089
 N2580 N 0.29960 0.18573 1.10530
 N2581 N 0.30444 0.18096 1.11468
 C2582 C 0.31362 0.18615 1.11999
 N2583 N 0.31779 0.19628 1.11557
 N2584 N 0.31296 0.20104 1.10619
 C2585 C 0.29837 0.20117 1.09060
 N2586 N 0.30253 0.21131 1.08620
 N2587 N 0.29761 0.21615 1.07690
 C2588 C 0.28834 0.21103 1.07167
 N2589 N 0.28418 0.20088 1.07607
 N2590 N 0.28911 0.19604 1.08536
 C2591 C 0.28294 0.21635 1.06138
 N2592 N 0.27361 0.21130 1.05620
 N2593 N 0.26880 0.21607 1.04681
 C2594 C 0.27313 0.22607 1.04221
 N2595 N 0.28246 0.23111 1.04744
 N2596 N 0.28727 0.22635 1.05684
 C2597 C 0.80399 0.69655 1.10139
 N2598 N 0.80034 0.68599 1.10524
 N2599 N 0.80505 0.68122 1.11468
 C2600 C 0.81361 0.68681 1.12058
 N2601 N 0.81728 0.69735 1.11672
 N2602 N 0.81254 0.70215 1.10731
 C2603 C 0.79879 0.70180 1.09099
 N2604 N 0.80144 0.71288 1.08786
 N2605 N 0.79669 0.71763 1.07843
 C2606 C 0.78915 0.71146 1.07177
 N2607 N 0.78652 0.70037 1.07489
 N2608 N 0.79123 0.69564 1.08434
 C2609 C 0.78395 0.71665 1.06133
 N2610 N 0.77729 0.71010 1.05413
 N2611 N 0.77261 0.71475 1.04462
 C2612 C 0.77435 0.72614 1.04196
 N2613 N 0.78099 0.73269 1.04921
 N2614 N 0.78571 0.72803 1.05871
 C2615 C 0.80371 0.19639 0.60090
 N2616 N 0.81203 0.20213 0.60700
 N2617 N 0.81679 0.19733 0.61640
 C2618 C 0.81337 0.18663 0.62007
 N2619 N 0.80503 0.18090 0.61400
 N2620 N 0.80031 0.18568 0.60457
 C2621 C 0.79850 0.20164 0.59050
 N2622 N 0.79110 0.19542 0.58374
 N2623 N 0.78640 0.20016 0.57427
 C2624 C 0.78890 0.21131 0.57125
 N2625 N 0.79629 0.21754 0.57803
 N2626 N 0.80102 0.21279 0.58747
 C2627 C 0.78372 0.21648 0.56080
 N2628 N 0.78540 0.22789 0.55821
 N2629 N 0.78069 0.23253 0.54870
 C2630 C 0.77414 0.22595 0.54139
 N2631 N 0.77249 0.21454 0.54402
 N2632 N 0.77716 0.20990 0.55353
 C2633 C 0.69643 0.69702 0.39894
 N2634 N 0.68711 0.70204 0.39371
 N2635 N 0.68240 0.69727 0.38427
 C2636 C 0.68686 0.68732 0.37972
 N2637 N 0.69618 0.68230 0.38495
 N2638 N 0.70088 0.68706 0.39440
 C2639 C 0.70166 0.70228 0.40932
 N2640 N 0.71082 0.69710 0.41468
 N2641 N 0.71560 0.70188 0.42407
 C2642 C 0.71141 0.71203 0.42844
 N2643 N 0.70224 0.71721 0.42308
 N2644 N 0.69745 0.71242 0.41369
 C2645 C 0.71671 0.71728 0.43878
 N2646 N 0.71265 0.72748 0.44313
 N2647 N 0.71747 0.73219 0.45255
 C2648 C 0.72654 0.72687 0.45799
 N2649 N 0.73058 0.71667 0.45359
 N2650 N 0.72577 0.71196 0.44418
 C2651 C 0.69617 0.19679 -0.10134
 N2652 N 0.68790 0.20253 -0.10752
 N2653 N 0.68318 0.19769 -0.11692
 C2654 C 0.68660 0.18696 -0.12051
 N2655 N 0.69489 0.18124 -0.11434
 N2656 N 0.69957 0.18605 -0.10491
 C2657 C 0.70134 0.20210 -0.09095
 N2658 N 0.70871 0.19590 -0.08411
 N2659 N 0.71339 0.20069 -0.07467
 C2660 C 0.71091 0.21187 -0.07174
 N2661 N 0.70356 0.21808 -0.07859
 N2662 N 0.69884 0.21328 -0.08801
 C2663 C 0.71610 0.21710 -0.06132
 N2664 N 0.71445 0.22854 -0.05881
 N2665 N 0.71918 0.23323 -0.04934
 C2666 C 0.72571 0.22666 -0.04198
 N2667 N 0.72733 0.21523 -0.04452
 N2668 N 0.72264 0.21054 -0.05400
 C2669 C 0.19625 0.69702 -0.10118
 N2670 N 0.18788 0.70274 -0.10724
 N2671 N 0.18319 0.69798 -0.11669
 C2672 C 0.18674 0.68736 -0.12046
 N2673 N 0.19513 0.68165 -0.11441
 N2674 N 0.19978 0.68638 -0.10493
 C2675 C 0.20142 0.70224 -0.09076
 N2676 N 0.20885 0.69602 -0.08402
 N2677 N 0.21355 0.70075 -0.07456
 C2678 C 0.21103 0.71189 -0.07152
 N2679 N 0.20361 0.71812 -0.07827
 N2680 N 0.19887 0.71337 -0.08771
 C2681 C 0.21625 0.71707 -0.06110
 N2682 N 0.21459 0.72849 -0.05855
 N2683 N 0.21936 0.73315 -0.04908
 C2684 C 0.22594 0.72657 -0.04178
 N2685 N 0.22756 0.71514 -0.04437
 N2686 N 0.22283 0.71049 -0.05385
 C2687 C 0.19624 0.19674 0.39879
 N2688 N 0.19940 0.18588 0.39535
 N2689 N 0.19476 0.18113 0.38587
 C2690 C 0.18675 0.18704 0.37951
 N2691 N 0.18357 0.19788 0.38296
 N2692 N 0.18825 0.20266 0.39241
 C2693 C 0.20135 0.20198 0.40924
 N2694 N 0.19897 0.21319 0.41213
 N2695 N 0.20364 0.21794 0.42161
 C2696 C 0.21082 0.21163 0.42856
 N2697 N 0.21317 0.20041 0.42567
 N2698 N 0.20854 0.19568 0.41618
 C2699 C 0.21597 0.21682 0.43901
 N2700 N 0.22241 0.21022 0.44637
 N2701 N 0.22709 0.21488 0.45587
 C2702 C 0.22556 0.22634 0.45838
 N2703 N 0.21912 0.23294 0.45098
 N2704 N 0.21441 0.22827 0.44149
 C2705 C 0.30349 0.39900 0.69648
 N2706 N 0.29829 0.39374 0.68728
 N2707 N 0.30305 0.38436 0.68240
 C2708 C 0.31319 0.37991 0.68653
 N2709 N 0.31840 0.38517 0.69571
 N2710 N 0.31364 0.39455 0.70059
 C2711 C 0.29818 0.40928 0.70191
 N2712 N 0.30329 0.41447 0.71119
 N2713 N 0.29843 0.42377 0.71614
 C2714 C 0.28830 0.42821 0.71199
 N2715 N 0.28320 0.42303 0.70271
 N2716 N 0.28805 0.41373 0.69776
 C2717 C 0.28297 0.43850 0.71740
 N2718 N 0.27299 0.44309 0.71307
 N2719 N 0.26822 0.45250 0.71789
 C2720 C 0.27324 0.45768 0.72724
 N2721 N 0.28322 0.45304 0.73158
 N2722 N 0.28799 0.44363 0.72676
 C2723 C 0.30352 0.89902 0.19601
 N2724 N 0.31428 0.89540 0.19929
 N2725 N 0.31907 0.88598 0.19451
 C2726 C 0.31329 0.87989 0.18622
 N2727 N 0.30255 0.88354 0.18290
 N2728 N 0.29774 0.89292 0.18773
 C2729 C 0.29820 0.90935 0.20133
 N2730 N 0.28701 0.91231 0.19891
 N2731 N 0.28218 0.92167 0.20376
 C2732 C 0.28838 0.92844 0.21117
 N2733 N 0.29958 0.92549 0.21358
 N2734 N 0.30439 0.91611 0.20877
 C2735 C 0.28312 0.93882 0.21646
 N2736 N 0.28967 0.94611 0.22304
 N2737 N 0.28496 0.95558 0.22777
 C2738 C 0.27352 0.95814 0.22616
 N2739 N 0.26698 0.95081 0.21960
 N2740 N 0.27169 0.94134 0.21483
 C2741 C 0.80393 0.39899 0.19672
 N2742 N 0.81258 0.39306 0.20217
 N2743 N 0.81727 0.38364 0.19729
 C2744 C 0.81344 0.37979 0.18683
 N2745 N 0.80478 0.38571 0.18140
 N2746 N 0.80013 0.39516 0.18624
 C2747 C 0.79876 0.40939 0.20205
 N2748 N 0.79109 0.41603 0.19600
 N2749 N 0.78638 0.42548 0.20080
 C2750 C 0.78911 0.42858 0.21183
 N2751 N 0.79676 0.42192 0.21790
 N2752 N 0.80152 0.41250 0.21308
 C2753 C 0.78387 0.43899 0.21708
 N2754 N 0.78567 0.44159 0.22843
 N2755 N 0.78087 0.45105 0.23313
 C2756 C 0.77411 0.45828 0.22666
 N2757 N 0.77235 0.45564 0.21529
 N2758 N 0.77711 0.44618 0.21060
 C2759 C 0.80339 0.89918 0.69619
 N2760 N 0.81406 0.89542 0.69964
 N2761 N 0.81883 0.88599 0.69487
 C2762 C 0.81314 0.88000 0.68645
 N2763 N 0.80249 0.88378 0.68299
 N2764 N 0.79769 0.89317 0.68779
 C2765 C 0.79811 0.90956 0.70145
 N2766 N 0.78695 0.91258 0.69896
 N2767 N 0.78215 0.92200 0.70374
 C2768 C 0.78836 0.92877 0.71115
 N2769 N 0.79952 0.92576 0.71362
 N2770 N 0.80430 0.91632 0.70888
 C2771 C 0.78312 0.93918 0.71640
 N2772 N 0.78966 0.94648 0.72296
 N2773 N 0.78496 0.95595 0.72769
 C2774 C 0.77351 0.95850 0.72609
 N2775 N 0.76697 0.95116 0.71954
 N2776 N 0.77168 0.94169 0.71477
 C2777 C 0.69605 0.60114 0.69647
 N2778 N 0.70100 0.60615 0.68700
 N2779 N 0.69622 0.61551 0.68212
 C2780 C 0.68632 0.62022 0.68653
 N2781 N 0.68137 0.61523 0.69600
 N2782 N 0.68615 0.60585 0.70089
 C2783 C 0.70136 0.59082 0.70185
 N2784 N 0.69638 0.58572 0.71126
 N2785 N 0.70122 0.57636 0.71613
 C2786 C 0.71121 0.57178 0.71177
 N2787 N 0.71617 0.57688 0.70236
 N2788 N 0.71134 0.58623 0.69750
 C2789 C 0.71653 0.56144 0.71710
 N2790 N 0.72643 0.55679 0.71265
 N2791 N 0.73121 0.54737 0.71741
 C2792 C 0.72630 0.54222 0.72684
 N2793 N 0.71639 0.54691 0.73130
 N2794 N 0.71160 0.55634 0.72653
 C2795 C 0.69636 0.10105 0.19598
 N2796 N 0.70214 0.10717 0.18771
 N2797 N 0.69737 0.11661 0.18297
 C2798 C 0.68667 0.12031 0.18636
 N2799 N 0.68089 0.11420 0.19465
 N2800 N 0.68564 0.10473 0.19935
 C2801 C 0.70161 0.09061 0.20117
 N2802 N 0.69540 0.08383 0.20857
 N2803 N 0.70015 0.07435 0.21326
 C2804 C 0.71131 0.07132 0.21076
 N2805 N 0.71753 0.07811 0.20337
 N2806 N 0.71276 0.08757 0.19864
 C2807 C 0.71651 0.06087 0.21595
 N2808 N 0.72792 0.05828 0.21426
 N2809 N 0.73259 0.04877 0.21900
 C2810 C 0.72602 0.04147 0.22559
 N2811 N 0.71460 0.04410 0.22725
 N2812 N 0.70994 0.05361 0.22255
 C2813 C 0.19562 0.60093 0.19649
 N2814 N 0.18712 0.60697 0.20206
 N2815 N 0.18245 0.61642 0.19722
 C2816 C 0.18614 0.62019 0.18667
 N2817 N 0.19464 0.61416 0.18112
 N2818 N 0.19928 0.60468 0.18593
 C2819 C 0.20079 0.59051 0.20180
 N2820 N 0.20832 0.58378 0.19568
 N2821 N 0.21305 0.57434 0.20046
 C2822 C 0.21046 0.57131 0.21156
 N2823 N 0.20294 0.57805 0.21770
 N2824 N 0.19817 0.58747 0.21289
 C2825 C 0.21572 0.56089 0.21679
 N2826 N 0.21404 0.55833 0.22817
 N2827 N 0.21884 0.54886 0.23285
 C2828 C 0.22548 0.54157 0.22632
 N2829 N 0.22713 0.54417 0.21493
 N2830 N 0.22237 0.55365 0.21026
 C2831 C 0.19594 0.10098 0.69693
 N2832 N 0.18755 0.10710 0.70257
 N2833 N 0.18288 0.11657 0.69775
 C2834 C 0.18647 0.12028 0.68714
 N2835 N 0.19487 0.11417 0.68152
 N2836 N 0.19950 0.10468 0.68632
 C2837 C 0.20108 0.09052 0.70219
 N2838 N 0.20855 0.08375 0.69602
 N2839 N 0.21323 0.07426 0.70075
 C2840 C 0.21066 0.07120 0.71185
 N2841 N 0.20321 0.07797 0.71803
 N2842 N 0.19849 0.08744 0.71328
 C2843 C 0.21589 0.06074 0.71703
 N2844 N 0.21423 0.05816 0.72841
 N2845 N 0.21903 0.04868 0.73307
 C2846 C 0.22565 0.04139 0.72652
 N2847 N 0.22728 0.04400 0.71512
 N2848 N 0.22251 0.05349 0.71048
 C2849 C 0.30383 0.60100 0.30285
 N2850 N 0.30022 0.60472 0.31344
 N2851 N 0.30485 0.61418 0.31825
 C2852 C 0.31331 0.62024 0.31267
 N2853 N 0.31695 0.61651 0.30209
 N2854 N 0.31227 0.60707 0.29725
 C2855 C 0.29868 0.59058 0.29757
 N2856 N 0.30127 0.58753 0.28648
 N2857 N 0.29654 0.57808 0.28171
 C2858 C 0.28909 0.57131 0.28789
 N2859 N 0.28653 0.57434 0.29899
 N2860 N 0.29121 0.58382 0.30374
 C2861 C 0.28387 0.56087 0.28270
 N2862 N 0.27727 0.55362 0.28926
 N2863 N 0.27253 0.54412 0.28462
 C2864 C 0.27416 0.54152 0.27323
 N2865 N 0.28076 0.54882 0.26667
 N2866 N 0.28554 0.55831 0.27132
 C2867 C 0.30401 0.10084 0.80310
 N2868 N 0.30057 0.10440 0.81381
 N2869 N 0.30526 0.11382 0.81866
 C2870 C 0.31358 0.11999 0.81301
 N2871 N 0.31704 0.11642 0.80231
 N2872 N 0.31232 0.10702 0.79743
 C2873 C 0.29881 0.09045 0.79778
 N2874 N 0.30130 0.08750 0.78664
 N2875 N 0.29656 0.07806 0.78185
 C2876 C 0.28920 0.07122 0.78805
 N2877 N 0.28673 0.07417 0.79919
 N2878 N 0.29142 0.08362 0.80396
 C2879 C 0.28401 0.06077 0.78285
 N2880 N 0.27749 0.05345 0.78942
 N2881 N 0.27279 0.04394 0.78477
 C2882 C 0.27439 0.04137 0.77336
 N2883 N 0.28091 0.04874 0.76679
 N2884 N 0.28564 0.05824 0.77145
 C2885 C 0.80371 0.60108 0.80316
 N2886 N 0.79862 0.60624 0.81247
 N2887 N 0.80332 0.61568 0.81727
 C2888 C 0.81328 0.62032 0.81292
 N2889 N 0.81837 0.61517 0.80360
 N2890 N 0.81367 0.60572 0.79881
 C2891 C 0.79846 0.59072 0.79783
 N2892 N 0.80354 0.58550 0.78855
 N2893 N 0.79873 0.57614 0.78369
 C2894 C 0.78866 0.57166 0.78794
 N2895 N 0.78358 0.57687 0.79723
 N2896 N 0.78839 0.58623 0.80209
 C2897 C 0.78335 0.56133 0.78260
 N2898 N 0.77335 0.55679 0.78695
 N2899 N 0.76857 0.54739 0.78216
 C2900 C 0.77358 0.54216 0.77283
 N2901 N 0.78358 0.54674 0.76848
 N2902 N 0.78837 0.55615 0.77327
 C2903 C 0.80353 0.10099 0.30333
 N2904 N 0.79778 0.10708 0.31164
 N2905 N 0.80258 0.11648 0.31643
 C2906 C 0.81328 0.12016 0.31304
 N2907 N 0.81903 0.11408 0.30471
 N2908 N 0.81426 0.10465 0.29996
 C2909 C 0.79825 0.09061 0.29809
 N2910 N 0.80447 0.08379 0.29072
 N2911 N 0.79969 0.07434 0.28602
 C2912 C 0.78852 0.07138 0.28848
 N2913 N 0.78229 0.07820 0.29583
 N2914 N 0.78708 0.08763 0.30057
 C2915 C 0.78330 0.06092 0.28331
 N2916 N 0.77188 0.05840 0.28498
 N2917 N 0.76720 0.04888 0.28029
 C2918 C 0.77377 0.04151 0.27378
 N2919 N 0.78520 0.04407 0.27214
 N2920 N 0.78987 0.05359 0.27679
 C2921 C 0.69606 0.39836 0.30309
 N2922 N 0.69958 0.39468 0.31373
 N2923 N 0.69498 0.38516 0.31850
 C2924 C 0.68666 0.37901 0.31282
 N2925 N 0.68312 0.38269 0.30219
 N2926 N 0.68776 0.39218 0.29740
 C2927 C 0.70113 0.40886 0.29787
 N2928 N 0.69858 0.41192 0.28677
 N2929 N 0.70324 0.42143 0.28205
 C2930 C 0.71058 0.42826 0.28829
 N2931 N 0.71311 0.42522 0.29940
 N2932 N 0.70849 0.41568 0.30409
 C2933 C 0.71575 0.43875 0.28313
 N2934 N 0.72228 0.44604 0.28971
 N2935 N 0.72699 0.45556 0.28508
 C2936 C 0.72539 0.45817 0.27368
 N2937 N 0.71886 0.45084 0.26710
 N2938 N 0.71411 0.44132 0.27174
 C2939 C 0.69651 0.89888 0.80382
 N2940 N 0.68578 0.89523 0.80049
 N2941 N 0.68101 0.88579 0.80525
 C2942 C 0.68678 0.87970 0.81355
 N2943 N 0.69751 0.88336 0.81689
 N2944 N 0.70230 0.89277 0.81210
 C2945 C 0.70177 0.90928 0.79860
 N2946 N 0.71294 0.91228 0.80108
 N2947 N 0.71770 0.92173 0.79635
 C2948 C 0.71146 0.92856 0.78901
 N2949 N 0.70029 0.92557 0.78655
 N2950 N 0.69554 0.91610 0.79124
 C2951 C 0.71665 0.93902 0.78384
 N2952 N 0.71007 0.94634 0.77733
 N2953 N 0.71471 0.95587 0.77267
 C2954 C 0.72614 0.95846 0.77430
 N2955 N 0.73273 0.95110 0.78081
 N2956 N 0.72807 0.94158 0.78551
 C2957 C 0.19587 0.39878 0.80369
 N2958 N 0.18593 0.39413 0.79932
 N2959 N 0.18116 0.38474 0.80418
 C2960 C 0.18615 0.37968 0.81360
 N2961 N 0.19608 0.38434 0.81798
 N2962 N 0.20085 0.39372 0.81311
 C2963 C 0.20116 0.40910 0.79831
 N2964 N 0.21120 0.41362 0.80259
 N2965 N 0.21602 0.42296 0.79771
 C2966 C 0.21099 0.42813 0.78837
 N2967 N 0.20094 0.42362 0.78409
 N2968 N 0.19612 0.41427 0.78897
 C2969 C 0.21631 0.43846 0.78303
 N2970 N 0.21133 0.44364 0.77367
 N2971 N 0.21612 0.45305 0.76890
 C2972 C 0.22609 0.45767 0.77329
 N2973 N 0.23105 0.45245 0.78265
 N2974 N 0.22627 0.44303 0.78742
 C2975 C 0.19624 0.89875 0.30415
 N2976 N 0.18540 0.89526 0.30100
 N2977 N 0.18061 0.88584 0.30578
 C2978 C 0.18647 0.87962 0.31392
 N2979 N 0.19730 0.88313 0.31709
 N2980 N 0.20210 0.89251 0.31227
 C2981 C 0.20154 0.90911 0.29886
 N2982 N 0.21275 0.91201 0.30122
 N2983 N 0.21756 0.92141 0.29643
 C2984 C 0.21131 0.92827 0.28913
 N2985 N 0.20009 0.92538 0.28678
 N2986 N 0.19530 0.91596 0.29154
 C2987 C 0.21654 0.93869 0.28389
 N2988 N 0.20997 0.94602 0.27739
 N2989 N 0.21464 0.95553 0.27270
 C2990 C 0.22609 0.95807 0.27430
 N2991 N 0.23266 0.95069 0.28079
 N2992 N 0.22798 0.94119 0.28551
 C2993 C 0.39797 0.30383 0.69681
 N2994 N 0.39159 0.31189 0.70264
 N2995 N 0.38206 0.31648 0.69787
 C2996 C 0.37853 0.31312 0.68713
 N2997 N 0.38488 0.30504 0.68132
 N2998 N 0.39444 0.30050 0.68606
 C2999 C 0.40852 0.29880 0.70201
 N3000 N 0.41545 0.29159 0.69574
 N3001 N 0.42501 0.28699 0.70044
 C3002 C 0.42795 0.28939 0.71160
 N3003 N 0.42102 0.29661 0.71788
 N3004 N 0.41148 0.30125 0.71316
 C3005 C 0.43845 0.28422 0.71676
 N3006 N 0.44096 0.28577 0.72818
 N3007 N 0.45046 0.28100 0.73283
 C3008 C 0.45785 0.27453 0.72624
 N3009 N 0.45531 0.27302 0.71482
 N3010 N 0.44580 0.27775 0.71017
 C3011 C 0.39871 0.80439 0.19662
 N3012 N 0.39253 0.81273 0.20227
 N3013 N 0.38316 0.81748 0.19736
 C3014 C 0.37960 0.81403 0.18667
 N3015 N 0.38576 0.80568 0.18104
 N3016 N 0.39516 0.80096 0.18591
 C3017 C 0.40908 0.79916 0.20196
 N3018 N 0.41590 0.79174 0.19581
 N3019 N 0.42533 0.78700 0.20061
 C3020 C 0.42827 0.78946 0.21176
 N3021 N 0.42144 0.79687 0.21793
 N3022 N 0.41202 0.80165 0.21311
 C3023 C 0.43868 0.78421 0.21699
 N3024 N 0.44118 0.78583 0.22840
 N3025 N 0.45065 0.78103 0.23309
 C3026 C 0.45799 0.77445 0.22655
 N3027 N 0.45545 0.77286 0.21514
 N3028 N 0.44598 0.77763 0.21046
 C3029 C 0.89836 0.30406 0.19650
 N3030 N 0.89206 0.31224 0.20224
 N3031 N 0.88263 0.31694 0.19737
 C3032 C 0.87915 0.31358 0.18662
 N3033 N 0.88543 0.30538 0.18090
 N3034 N 0.89488 0.30072 0.18574
 C3035 C 0.90880 0.29893 0.20180
 N3036 N 0.91570 0.29162 0.19560
 N3037 N 0.92519 0.28697 0.20036
 C3038 C 0.92812 0.28943 0.21151
 N3039 N 0.92122 0.29673 0.21772
 N3040 N 0.91174 0.30142 0.21295
 C3041 C 0.93858 0.28425 0.21671
 N3042 N 0.94109 0.28586 0.22812
 N3043 N 0.95058 0.28110 0.23279
 C3044 C 0.95794 0.27456 0.22624
 N3045 N 0.95540 0.27298 0.21483
 N3046 N 0.94590 0.27771 0.21016
 C3047 C 0.89867 0.80460 0.69659
 N3048 N 0.89489 0.80093 0.68605
 N3049 N 0.88550 0.80567 0.68117
 C3050 C 0.87959 0.81432 0.68664
 N3051 N 0.88338 0.81802 0.69717
 N3052 N 0.89274 0.81323 0.70207
 C3053 C 0.90902 0.79934 0.70193
 N3054 N 0.91211 0.80202 0.71299
 N3055 N 0.92151 0.79721 0.71780
 C3056 C 0.92818 0.78959 0.71170
 N3057 N 0.92509 0.78693 0.70064
 N3058 N 0.91567 0.79170 0.69585
 C3059 C 0.93859 0.78432 0.71692
 N3060 N 0.94578 0.77759 0.71042
 N3061 N 0.95526 0.77284 0.71508
 C3062 C 0.95791 0.77456 0.72645
 N3063 N 0.95067 0.78128 0.73296
 N3064 N 0.94120 0.78608 0.72828
 C3065 C 0.60140 0.30321 0.30346
 N3066 N 0.60512 0.31389 0.30002
 N3067 N 0.61458 0.31865 0.30474
 C3068 C 0.62063 0.31293 0.31311
 N3069 N 0.61689 0.30227 0.31657
 N3070 N 0.60747 0.29748 0.31181
 C3071 C 0.59099 0.29795 0.29825
 N3072 N 0.58791 0.28683 0.30084
 N3073 N 0.57847 0.28206 0.29609
 C3074 C 0.57173 0.28824 0.28862
 N3075 N 0.57480 0.29936 0.28605
 N3076 N 0.58426 0.30412 0.29076
 C3077 C 0.56128 0.28304 0.28343
 N3078 N 0.55404 0.28958 0.27678
 N3079 N 0.54451 0.28492 0.27212
 C3080 C 0.54185 0.27354 0.27387
 N3081 N 0.54913 0.26699 0.28051
 N3082 N 0.55865 0.27166 0.28521
 C3083 C 0.60143 0.80398 0.80414
 N3084 N 0.60513 0.81466 0.80069
 N3085 N 0.61451 0.81949 0.80549
 C3086 C 0.62049 0.81384 0.81396
 N3087 N 0.61677 0.80318 0.81742
 N3088 N 0.60743 0.79832 0.81258
 C3089 C 0.59107 0.79865 0.79887
 N3090 N 0.58808 0.78751 0.80142
 N3091 N 0.57866 0.78269 0.79667
 C3092 C 0.57188 0.78886 0.78923
 N3093 N 0.57487 0.80001 0.78669
 N3094 N 0.58430 0.80481 0.79141
 C3095 C 0.56145 0.78361 0.78403
 N3096 N 0.55413 0.79014 0.77746
 N3097 N 0.54463 0.78544 0.77279
 C3098 C 0.54207 0.77401 0.77446
 N3099 N 0.54943 0.76748 0.78102
 N3100 N 0.55892 0.77219 0.78573
 C3101 C 0.10112 0.30378 0.80346
 N3102 N 0.10571 0.31378 0.79915
 N3103 N 0.11511 0.31853 0.80399
 C3104 C 0.12026 0.31346 0.81332
 N3105 N 0.11566 0.30347 0.81764
 N3106 N 0.10627 0.29872 0.81280
 C3107 C 0.09081 0.29849 0.79809
 N3108 N 0.08632 0.28842 0.80233
 N3109 N 0.07699 0.28359 0.79745
 C3110 C 0.07180 0.28865 0.78813
 N3111 N 0.07628 0.29873 0.78389
 N3112 N 0.08562 0.30356 0.78878
 C3113 C 0.06149 0.28333 0.78278
 N3114 N 0.05632 0.28831 0.77342
 N3115 N 0.04691 0.28352 0.76864
 C3116 C 0.04230 0.27355 0.77302
 N3117 N 0.04751 0.26857 0.78238
 N3118 N 0.05692 0.27336 0.78716
 C3119 C 0.10141 0.80355 0.30390
 N3120 N 0.10739 0.79788 0.31235
 N3121 N 0.11678 0.80268 0.31715
 C3122 C 0.12058 0.81329 0.31363
 N3123 N 0.11463 0.81895 0.30515
 N3124 N 0.10520 0.81418 0.30039
 C3125 C 0.09100 0.79829 0.29868
 N3126 N 0.08427 0.80447 0.29120
 N3127 N 0.07480 0.79972 0.28650
 C3128 C 0.07175 0.78860 0.28905
 N3129 N 0.07849 0.78240 0.29651
 N3130 N 0.08793 0.78717 0.30126
 C3131 C 0.06131 0.78338 0.28384
 N3132 N 0.05874 0.77197 0.28554
 N3133 N 0.04926 0.76729 0.28080
 C3134 C 0.04194 0.77383 0.27420
 N3135 N 0.04454 0.78525 0.27253
 N3136 N 0.05404 0.78993 0.27723
 C3137 C 0.60160 0.69666 0.69659
 N3138 N 0.60769 0.70242 0.68829
 N3139 N 0.61712 0.69763 0.68352
 C3140 C 0.62082 0.68693 0.68692
 N3141 N 0.61475 0.68119 0.69525
 N3142 N 0.60529 0.68595 0.69998
 C3143 C 0.59118 0.70193 0.70182
 N3144 N 0.58438 0.69573 0.70921
 N3145 N 0.57492 0.70050 0.71392
 C3146 C 0.57193 0.71167 0.71144
 N3147 N 0.57874 0.71788 0.70407
 N3148 N 0.58818 0.71309 0.69932
 C3149 C 0.56148 0.71690 0.71665
 N3150 N 0.55895 0.72833 0.71499
 N3151 N 0.54945 0.73302 0.71973
 C3152 C 0.54210 0.72647 0.72628
 N3153 N 0.54467 0.71504 0.72790
 N3154 N 0.55417 0.71035 0.72320
 C3155 C 0.60121 0.19606 0.19594
 N3156 N 0.60718 0.20173 0.18748
 N3157 N 0.61655 0.19690 0.18264
 C3158 C 0.62033 0.18625 0.18612
 N3159 N 0.61438 0.18060 0.19461
 N3160 N 0.60497 0.18540 0.19940
 C3161 C 0.59082 0.20135 0.20121
 N3162 N 0.58413 0.19519 0.20874
 N3163 N 0.57468 0.19996 0.21348
 C3164 C 0.57159 0.21108 0.21089
 N3165 N 0.57829 0.21724 0.20338
 N3166 N 0.58772 0.21246 0.19861
 C3167 C 0.56114 0.21628 0.21612
 N3168 N 0.55850 0.22767 0.21435
 N3169 N 0.54899 0.23234 0.21910
 C3170 C 0.54173 0.22580 0.22576
 N3171 N 0.54441 0.21441 0.22749
 N3172 N 0.55393 0.20975 0.22279
 C3173 C 0.10133 0.69645 0.19612
 N3174 N 0.10727 0.70211 0.18763
 N3175 N 0.11671 0.69734 0.18287
 C3176 C 0.12058 0.68677 0.18646
 N3177 N 0.11466 0.68113 0.19497
 N3178 N 0.10519 0.68587 0.19969
 C3179 C 0.09091 0.70170 0.20135
 N3180 N 0.08421 0.69552 0.20885
 N3181 N 0.07476 0.70027 0.21359
 C3182 C 0.07168 0.71140 0.21104
 N3183 N 0.07839 0.71759 0.20356
 N3184 N 0.08782 0.71281 0.19877
 C3185 C 0.06126 0.71663 0.21629
 N3186 N 0.05871 0.72804 0.21460
 N3187 N 0.04923 0.73275 0.21937
 C3188 C 0.04193 0.72622 0.22598
 N3189 N 0.04452 0.71480 0.22765
 N3190 N 0.05400 0.71010 0.22292
 C3191 C 0.10100 0.19578 0.69658
 N3192 N 0.10610 0.20079 0.68719
 N3193 N 0.11548 0.19601 0.68233
 C3194 C 0.12011 0.18605 0.68668
 N3195 N 0.11502 0.18103 0.69607
 N3196 N 0.10562 0.18581 0.70093
 C3197 C 0.09068 0.20110 0.70195
 N3198 N 0.08549 0.19608 0.71128
 N3199 N 0.07615 0.20095 0.71616
 C3200 C 0.07168 0.21102 0.71189
 N3201 N 0.07687 0.21604 0.70255
 N3202 N 0.08620 0.21117 0.69768
 C3203 C 0.06138 0.21639 0.71724
 N3204 N 0.05683 0.22637 0.71287
 N3205 N 0.04743 0.23119 0.71766
 C3206 C 0.04222 0.22623 0.72703
 N3207 N 0.04681 0.21625 0.73141
 N3208 N 0.05620 0.21142 0.72661
 C3209 C 0.39859 0.69561 0.30315
 N3210 N 0.39500 0.69903 0.31385
 N3211 N 0.38559 0.69432 0.31870
 C3212 C 0.37946 0.68597 0.31305
 N3213 N 0.38305 0.68253 0.30235
 N3214 N 0.39244 0.68728 0.29748
 C3215 C 0.40897 0.70084 0.29784
 N3216 N 0.41194 0.69838 0.28669
 N3217 N 0.42137 0.70316 0.28191
 C3218 C 0.42819 0.71052 0.28812
 N3219 N 0.42523 0.71295 0.29927
 N3220 N 0.41579 0.70821 0.30404
 C3221 C 0.43862 0.71578 0.28293
 N3222 N 0.44590 0.72232 0.28951
 N3223 N 0.45538 0.72709 0.28487
 C3224 C 0.45795 0.72557 0.27346
 N3225 N 0.45062 0.71903 0.26687
 N3226 N 0.44115 0.71422 0.27152
 C3227 C 0.39848 0.19575 0.80282
 N3228 N 0.39241 0.18732 0.79720
 N3229 N 0.38298 0.18262 0.80203
 C3230 C 0.37924 0.18622 0.81263
 N3231 N 0.38530 0.19465 0.81823
 N3232 N 0.39477 0.19931 0.81343
 C3233 C 0.40889 0.20095 0.79753
 N3234 N 0.41562 0.20843 0.80370
 N3235 N 0.42507 0.21317 0.79895
 C3236 C 0.42811 0.21065 0.78784
 N3237 N 0.42137 0.20318 0.78166
 N3238 N 0.41194 0.19840 0.78643
 C3239 C 0.43855 0.21590 0.78265
 N3240 N 0.44111 0.21427 0.77126
 N3241 N 0.45059 0.21908 0.76660
 C3242 C 0.45788 0.22568 0.77316
 N3243 N 0.45527 0.22728 0.78456
 N3244 N 0.44579 0.22251 0.78921
 C3245 C 0.89868 0.69571 0.80328
 N3246 N 0.89265 0.68722 0.79771
 N3247 N 0.88331 0.68240 0.80262
 C3248 C 0.87963 0.68595 0.81325
 N3249 N 0.88563 0.69446 0.81880
 N3250 N 0.89500 0.69923 0.81392
 C3251 C 0.90901 0.70100 0.79793
 N3252 N 0.91571 0.70854 0.80405
 N3253 N 0.92512 0.71333 0.79926
 C3254 C 0.92814 0.71079 0.78814
 N3255 N 0.92141 0.70328 0.78200
 N3256 N 0.91203 0.69845 0.78682
 C3257 C 0.93854 0.71607 0.78292
 N3258 N 0.94112 0.71440 0.77154
 N3259 N 0.95060 0.71920 0.76687
 C3260 C 0.95787 0.72583 0.77342
 N3261 N 0.95525 0.72747 0.78480
 N3262 N 0.94577 0.72271 0.78946
 C3263 C 0.89843 0.19587 0.30285
 N3264 N 0.89476 0.19938 0.31350
 N3265 N 0.88534 0.19467 0.31834
 C3266 C 0.87926 0.18624 0.31274
 N3267 N 0.88294 0.18271 0.30210
 N3268 N 0.89233 0.18746 0.29723
 C3269 C 0.90884 0.20107 0.29756
 N3270 N 0.91189 0.19849 0.28646
 N3271 N 0.92133 0.20325 0.28168
 C3272 C 0.92809 0.21071 0.28786
 N3273 N 0.92504 0.21326 0.29896
 N3274 N 0.91558 0.20854 0.30371
 C3275 C 0.93853 0.21596 0.28266
 N3276 N 0.94576 0.22258 0.28921
 N3277 N 0.95525 0.22734 0.28457
 C3278 C 0.95787 0.22572 0.27318
 N3279 N 0.95060 0.21910 0.26663
 N3280 N 0.94112 0.21430 0.27128
 C3281 C 0.30313 0.30412 0.60140
 N3282 N 0.29711 0.31191 0.60792
 N3283 N 0.30192 0.31667 0.61732
 C3284 C 0.31292 0.31379 0.62055
 N3285 N 0.31893 0.30598 0.61405
 N3286 N 0.31414 0.30125 0.60463
 C3287 C 0.29785 0.29887 0.59103
 N3288 N 0.30418 0.29176 0.58405
 N3289 N 0.29941 0.28701 0.57463
 C3290 C 0.28812 0.28916 0.57186
 N3291 N 0.28178 0.29626 0.57885
 N3292 N 0.28656 0.30104 0.58826
 C3293 C 0.28291 0.28391 0.56145
 N3294 N 0.27144 0.28537 0.55902
 N3295 N 0.26677 0.28060 0.54955
 C3296 C 0.27340 0.27422 0.54213
 N3297 N 0.28488 0.27279 0.54460
 N3298 N 0.28954 0.27752 0.55407
 C3299 C 0.30356 0.80429 0.10111
 N3300 N 0.29766 0.81234 0.10744
 N3301 N 0.30247 0.81710 0.11683
 C3302 C 0.31334 0.81396 0.12026
 N3303 N 0.31924 0.80591 0.11394
 N3304 N 0.31444 0.80118 0.10453
 C3305 C 0.29826 0.79902 0.09077
 N3306 N 0.30453 0.79174 0.08391
 N3307 N 0.29975 0.78696 0.07451
 C3308 C 0.28851 0.78925 0.07166
 N3309 N 0.28222 0.79651 0.07854
 N3310 N 0.28702 0.80132 0.08792
 C3311 C 0.28329 0.78398 0.06127
 N3312 N 0.27184 0.78554 0.05879
 N3313 N 0.26717 0.78078 0.04932
 C3314 C 0.27377 0.77431 0.04195
 N3315 N 0.28523 0.77277 0.04448
 N3316 N 0.28989 0.77750 0.05395
 C3317 C 0.80327 0.30405 0.10120
 N3318 N 0.79740 0.31212 0.10752
 N3319 N 0.80222 0.31685 0.11693
 C3320 C 0.81305 0.31363 0.12038
 N3321 N 0.81891 0.30553 0.11409
 N3322 N 0.81411 0.30084 0.10465
 C3323 C 0.79800 0.29890 0.09078
 N3324 N 0.80429 0.29170 0.08384
 N3325 N 0.79954 0.28705 0.07437
 C3326 C 0.78832 0.28939 0.07150
 N3327 N 0.78202 0.29658 0.07844
 N3328 N 0.78678 0.30127 0.08789
 C3329 C 0.78312 0.28422 0.06105
 N3330 N 0.77165 0.28575 0.05859
 N3331 N 0.76698 0.28102 0.04911
 C3332 C 0.77359 0.27459 0.04170
 N3333 N 0.78506 0.27310 0.04419
 N3334 N 0.78972 0.27779 0.05368
 C3335 C 0.80378 0.80384 0.60113
 N3336 N 0.81322 0.79892 0.60627
 N3337 N 0.81793 0.80370 0.61570
 C3338 C 0.81335 0.81355 0.62035
 N3339 N 0.80391 0.81846 0.61522
 N3340 N 0.79921 0.81370 0.60578
 C3341 C 0.79855 0.79856 0.59076
 N3342 N 0.78932 0.80368 0.58546
 N3343 N 0.78454 0.79889 0.57607
 C3344 C 0.78881 0.78881 0.57164
 N3345 N 0.79805 0.78369 0.57693
 N3346 N 0.80284 0.78848 0.58632
 C3347 C 0.78351 0.78356 0.56129
 N3348 N 0.78762 0.77339 0.55690
 N3349 N 0.78281 0.76868 0.54748
 C3350 C 0.77370 0.77396 0.54207
 N3351 N 0.76961 0.78413 0.54651
 N3352 N 0.77441 0.78884 0.55592
 C3353 C 0.30360 0.69544 0.39877
 N3354 N 0.29793 0.68701 0.39275
 N3355 N 0.30277 0.68222 0.38338
 C3356 C 0.31342 0.68573 0.37966
 N3357 N 0.31907 0.69418 0.38565
 N3358 N 0.31426 0.69893 0.39505
 C3359 C 0.29830 0.70070 0.40912
 N3360 N 0.30449 0.70818 0.41583
 N3361 N 0.29973 0.71292 0.42525
 C3362 C 0.28858 0.71042 0.42828
 N3363 N 0.28237 0.70296 0.42155
 N3364 N 0.28716 0.69817 0.41215
 C3365 C 0.28338 0.71566 0.43869
 N3366 N 0.27197 0.71400 0.44127
 N3367 N 0.26731 0.71876 0.45075
 C3368 C 0.27390 0.72533 0.45804
 N3369 N 0.28532 0.72696 0.45542
 N3370 N 0.28996 0.72224 0.44593
 C3371 C 0.30393 0.19593 0.89864
 N3372 N 0.30039 0.18529 0.89492
 N3373 N 0.30515 0.18046 0.88553
 C3374 C 0.31365 0.18606 0.87956
 N3375 N 0.31721 0.19669 0.88328
 N3376 N 0.31241 0.20155 0.89264
 C3377 C 0.29869 0.20125 0.90900
 N3378 N 0.30132 0.21235 0.91206
 N3379 N 0.29657 0.21715 0.92148
 C3380 C 0.28905 0.21099 0.92819
 N3381 N 0.28645 0.19988 0.92513
 N3382 N 0.29116 0.19511 0.91570
 C3383 C 0.28385 0.21620 0.93862
 N3384 N 0.27720 0.20966 0.94584
 N3385 N 0.27252 0.21432 0.95535
 C3386 C 0.27427 0.22571 0.95801
 N3387 N 0.28091 0.23225 0.95074
 N3388 N 0.28563 0.22758 0.94124
 C3389 C 0.80345 0.69582 0.89872
 N3390 N 0.79770 0.68751 0.89261
 N3391 N 0.80249 0.68279 0.88319
 C3392 C 0.81318 0.68623 0.87950
 N3393 N 0.81892 0.69455 0.88560
 N3394 N 0.81415 0.69924 0.89505
 C3395 C 0.79819 0.70101 0.90913
 N3396 N 0.80442 0.70839 0.91591
 N3397 N 0.79968 0.71310 0.92536
 C3398 C 0.78851 0.71065 0.92835
 N3399 N 0.78227 0.70328 0.92156
 N3400 N 0.78703 0.69853 0.91213
 C3401 C 0.78331 0.71587 0.93878
 N3402 N 0.77188 0.71425 0.94132
 N3403 N 0.76722 0.71900 0.95080
 C3404 C 0.77381 0.72552 0.95813
 N3405 N 0.78524 0.72710 0.95556
 N3406 N 0.78990 0.72239 0.94606
 C3407 C 0.80341 0.19629 0.39825
 N3408 N 0.81322 0.20088 0.39353
 N3409 N 0.81796 0.19619 0.38406
 C3410 C 0.81304 0.18675 0.37896
 N3411 N 0.80323 0.18216 0.38367
 N3412 N 0.79850 0.18684 0.39314
 C3413 C 0.79817 0.20147 0.40867
 N3414 N 0.78853 0.19669 0.41356
 N3415 N 0.78373 0.20143 0.42298
 C3416 C 0.78839 0.21112 0.42785
 N3417 N 0.79804 0.21589 0.42297
 N3418 N 0.80284 0.21115 0.41356
 C3419 C 0.78308 0.21639 0.43819
 N3420 N 0.78770 0.22612 0.44301
 N3421 N 0.78290 0.23088 0.45241
 C3422 C 0.77328 0.22612 0.45736
 N3423 N 0.76866 0.21637 0.45251
 N3424 N 0.77346 0.21160 0.44311
 C3425 C 0.69672 0.30352 0.39838
 N3426 N 0.68762 0.29828 0.39297
 N3427 N 0.68285 0.30303 0.38355
 C3428 C 0.68699 0.31319 0.37920
 N3429 N 0.69609 0.31844 0.38460
 N3430 N 0.70086 0.31369 0.39402
 C3431 C 0.70199 0.29825 0.40875
 N3432 N 0.71118 0.30341 0.41408
 N3433 N 0.71600 0.29859 0.42345
 C3434 C 0.71181 0.28845 0.42782
 N3435 N 0.70261 0.28331 0.42250
 N3436 N 0.69779 0.28812 0.41313
 C3437 C 0.71712 0.28313 0.43814
 N3438 N 0.71278 0.27311 0.44264
 N3439 N 0.71756 0.26832 0.45204
 C3440 C 0.72689 0.27334 0.45730
 N3441 N 0.73123 0.28336 0.45275
 N3442 N 0.72644 0.28816 0.44336
 C3443 C 0.69710 0.80387 0.89888
 N3444 N 0.68647 0.80032 0.89513
 N3445 N 0.68173 0.80496 0.88564
 C3446 C 0.68742 0.81335 0.87959
 N3447 N 0.69803 0.81693 0.88336
 N3448 N 0.70280 0.81224 0.89282
 C3449 C 0.70234 0.79869 0.90930
 N3450 N 0.71347 0.80125 0.91234
 N3451 N 0.71823 0.79649 0.92177
 C3452 C 0.71201 0.78905 0.92851
 N3453 N 0.70087 0.78653 0.92548
 N3454 N 0.69613 0.79124 0.91603
 C3455 C 0.71720 0.78381 0.93892
 N3456 N 0.71063 0.77721 0.94615
 N3457 N 0.71528 0.77246 0.95563
 C3458 C 0.72671 0.77409 0.95823
 N3459 N 0.73328 0.78068 0.95095
 N3460 N 0.72862 0.78547 0.94148
 C3461 C 0.19620 0.30305 0.89861
 N3462 N 0.18771 0.29743 0.89263
 N3463 N 0.18299 0.30225 0.88321
 C3464 C 0.18662 0.31283 0.87941
 N3465 N 0.19513 0.31843 0.88538
 N3466 N 0.19981 0.31364 0.89482
 C3467 C 0.20140 0.29776 0.90901
 N3468 N 0.20897 0.30389 0.91567
 N3469 N 0.21367 0.29913 0.92512
 C3470 C 0.21103 0.28804 0.92822
 N3471 N 0.20348 0.28189 0.92154
 N3472 N 0.19873 0.28668 0.91212
 C3473 C 0.21624 0.28283 0.93865
 N3474 N 0.21446 0.27145 0.94129
 N3475 N 0.21920 0.26678 0.95077
 C3476 C 0.22588 0.27332 0.95801
 N3477 N 0.22764 0.28470 0.95533
 N3478 N 0.22293 0.28936 0.94583
 C3479 C 0.19685 0.80388 0.39894
 N3480 N 0.20265 0.81206 0.39271
 N3481 N 0.19784 0.81677 0.38329
 C3482 C 0.18707 0.81344 0.37973
 N3483 N 0.18127 0.80526 0.38596
 N3484 N 0.18606 0.80058 0.39541
 C3485 C 0.20215 0.79864 0.40930
 N3486 N 0.19593 0.79126 0.41611
 N3487 N 0.20073 0.78649 0.42550
 C3488 C 0.21193 0.78887 0.42841
 N3489 N 0.21816 0.79623 0.42159
 N3490 N 0.21335 0.80104 0.41221
 C3491 C 0.21717 0.78359 0.43878
 N3492 N 0.22862 0.78518 0.44127
 N3493 N 0.23332 0.78039 0.45071
 C3494 C 0.22675 0.77385 0.45805
 N3495 N 0.21530 0.77229 0.45552
 N3496 N 0.21061 0.77704 0.44607
 C3497 C 0.69668 0.69679 0.60144
 N3498 N 0.70023 0.68616 0.60521
 N3499 N 0.69555 0.68142 0.61469
 C3500 C 0.68712 0.68711 0.62070
 N3501 N 0.68355 0.69772 0.61691
 N3502 N 0.68827 0.70248 0.60746
 C3503 C 0.70188 0.70202 0.59101
 N3504 N 0.69916 0.71308 0.58783
 N3505 N 0.70392 0.71783 0.57839
 C3506 C 0.71153 0.71168 0.57177
 N3507 N 0.71422 0.70061 0.57495
 N3508 N 0.70950 0.69588 0.58440
 C3509 C 0.71676 0.71686 0.56134
 N3510 N 0.72380 0.71043 0.55438
 N3511 N 0.72853 0.71509 0.54490
 C3512 C 0.72646 0.72637 0.54200
 N3513 N 0.71942 0.73280 0.54900
 N3514 N 0.71466 0.72814 0.55848
 C3515 C 0.69679 0.19618 0.10110
 N3516 N 0.70248 0.18777 0.10713
 N3517 N 0.69770 0.18305 0.11656
 C3518 C 0.68707 0.18660 0.12032
 N3519 N 0.68138 0.19502 0.11430
 N3520 N 0.68614 0.19970 0.10484
 C3521 C 0.70204 0.20138 0.09070
 N3522 N 0.69583 0.20885 0.08398
 N3523 N 0.70057 0.21358 0.07454
 C3524 C 0.71172 0.21107 0.07150
 N3525 N 0.71794 0.20361 0.07823
 N3526 N 0.71318 0.19884 0.08765
 C3527 C 0.71691 0.21632 0.06109
 N3528 N 0.72833 0.21466 0.05852
 N3529 N 0.73299 0.21944 0.04905
 C3530 C 0.72641 0.22603 0.04177
 N3531 N 0.71498 0.22766 0.04438
 N3532 N 0.71033 0.22292 0.05385
 C3533 C 0.19681 0.69605 0.10117
 N3534 N 0.20235 0.68742 0.10704
 N3535 N 0.19752 0.68267 0.11643
 C3536 C 0.18701 0.68641 0.12034
 N3537 N 0.18149 0.69506 0.11449
 N3538 N 0.18628 0.69977 0.10506
 C3539 C 0.20209 0.70127 0.09079
 N3540 N 0.19597 0.70891 0.08418
 N3541 N 0.20073 0.71364 0.07475
 C3542 C 0.21180 0.71094 0.07160
 N3543 N 0.21794 0.70332 0.07823
 N3544 N 0.21315 0.69855 0.08764
 C3545 C 0.21702 0.71618 0.06120
 N3546 N 0.22840 0.71439 0.05857
 N3547 N 0.23309 0.71917 0.04911
 C3548 C 0.22656 0.72588 0.04189
 N3549 N 0.21517 0.72764 0.04455
 N3550 N 0.21049 0.72291 0.05402
 C3551 C 0.19671 0.19592 0.60159
 N3552 N 0.20216 0.18715 0.60733
 N3553 N 0.19737 0.18242 0.61676
 C3554 C 0.18699 0.18635 0.62083
 N3555 N 0.18156 0.19515 0.61511
 N3556 N 0.18632 0.19983 0.60565
 C3557 C 0.20194 0.20110 0.59116
 N3558 N 0.19582 0.20879 0.58460
 N3559 N 0.20053 0.21347 0.57512
 C3560 C 0.21155 0.21069 0.57188
 N3561 N 0.21769 0.20302 0.57844
 N3562 N 0.21295 0.19828 0.58790
 C3563 C 0.21673 0.21591 0.56143
 N3564 N 0.22810 0.21410 0.55876
 N3565 N 0.23275 0.21888 0.54929
 C3566 C 0.22621 0.22562 0.54210
 N3567 N 0.21483 0.22739 0.54481
 N3568 N 0.21018 0.22265 0.55429
   
