data_POSCAR
  _audit_creation_date              2014-09-24
  _audit_creation_method            'ToBaCCo'
  _symmetry_space_group_name_H-M    'P1'
  _symmetry_Int_Tables_number       1
  _symmetry_cell_setting            triclinic
  loop_
  _symmetry_equiv_pos_as_xyz
 x,y,z
_cell_length_a 60.9016
_cell_length_b 61.0553
_cell_length_c 60.6590
_cell_angle_alpha 90.260800
_cell_angle_beta 90.132400
_cell_angle_gamma 89.910900
loop_
  _atom_site_label
  _atom_site_type_symbol
  _atom_site_fract_x
  _atom_site_fract_y
  _atom_site_fract_z
C1 C 0.13528 -0.02987 0.25357
 C2 C 0.12642 -0.00925 0.25872
 C3 C 0.11628 -0.00587 0.27919
 C4 C 0.11400 -0.02323 0.29401
 C5 C 0.12237 -0.04395 0.28846
 C6 C 0.13359 -0.04751 0.26843
 C7 C 0.12699 0.00860 0.24234
 C8 C 0.11794 0.00540 0.22123
 C9 C 0.11699 0.02267 0.20581
 C10 C 0.12606 0.04305 0.21209
 C11 C 0.13556 0.04623 0.23292
 C12 C 0.13586 0.02900 0.24805
 H13 H 0.14287 -0.03219 0.23759
 H14 H 0.10940 0.01003 0.28321
 H15 H 0.11044 -0.01027 0.21759
 H16 H 0.14303 0.03146 0.26424
 H17 H 0.12121 -0.05686 0.30058
 H18 H 0.12702 0.05637 0.20042
 C19 C 0.36468 -0.02848 0.74569
 C20 C 0.37400 -0.00815 0.74049
 C21 C 0.38379 -0.00515 0.71978
 C22 C 0.38509 -0.02258 0.70467
 C23 C 0.37604 -0.04293 0.71023
 C24 C 0.36549 -0.04587 0.73052
 C25 C 0.37415 0.00981 0.75690
 C26 C 0.38344 0.00652 0.77785
 C27 C 0.38544 0.02399 0.79307
 C28 C 0.37710 0.04467 0.78693
 C29 C 0.36690 0.04784 0.76643
 C30 C 0.36575 0.03044 0.75137
 H31 H 0.35678 -0.03076 0.76151
 H32 H 0.39113 0.01049 0.71577
 H33 H 0.39038 -0.00939 0.78153
 H34 H 0.35819 0.03290 0.73537
 H35 H 0.37662 -0.05634 0.69846
 H36 H 0.37713 0.05815 0.79859
 C37 C 0.86447 0.47212 0.24743
 C38 C 0.87372 0.49253 0.24239
 C39 C 0.88372 0.49565 0.22179
 C40 C 0.88525 0.47830 0.20664
 C41 C 0.87619 0.45790 0.21199
 C42 C 0.86545 0.45481 0.23216
 C43 C 0.87354 0.51047 0.25880
 C44 C 0.88294 0.50737 0.27972
 C45 C 0.88478 0.52493 0.29486
 C46 C 0.87616 0.54549 0.28866
 C47 C 0.86576 0.54841 0.26823
 C48 C 0.86478 0.53093 0.25325
 H49 H 0.85646 0.46976 0.26318
 H50 H 0.89101 0.51135 0.21791
 H51 H 0.89012 0.49157 0.28344
 H52 H 0.85711 0.53324 0.23727
 H53 H 0.87689 0.44459 0.20011
 H54 H 0.87614 0.55905 0.30024
 C55 C 0.63643 0.46883 0.75511
 C56 C 0.62747 0.48939 0.76038
 C57 C 0.61783 0.49273 0.78115
 C58 C 0.61625 0.47540 0.79617
 C59 C 0.62492 0.45484 0.79056
 C60 C 0.63541 0.45156 0.77026
 C61 C 0.62731 0.50712 0.74391
 C62 C 0.61729 0.50377 0.72328
 C63 C 0.61552 0.52104 0.70820
 C64 C 0.62442 0.54156 0.71362
 C65 C 0.63522 0.54487 0.73381
 C66 C 0.63639 0.52764 0.74902
 H67 H 0.64418 0.46629 0.73923
 H68 H 0.61076 0.50853 0.78526
 H69 H 0.61009 0.48801 0.71934
 H70 H 0.64437 0.53018 0.76482
 H71 H 0.62406 0.44153 0.80231
 H72 H 0.62349 0.55479 0.70180
 C73 C 0.24609 0.13304 1.02806
 C74 C 0.24192 0.12286 1.00775
 C75 C 0.22138 0.11327 1.00374
 C76 C 0.20470 0.11391 1.01988
 C77 C 0.20928 0.12441 1.04015
 C78 C 0.22985 0.13383 1.04433
 C79 C 0.25900 0.12290 0.99057
 C80 C 0.27942 0.11305 0.99466
 C81 C 0.29681 0.11501 0.97950
 C82 C 0.29322 0.12731 0.96021
 C83 C 0.27259 0.13646 0.95558
 C84 C 0.25545 0.13405 0.97074
 H85 H 0.26197 0.14047 1.03116
 H86 H 0.21835 0.10599 0.98770
 H87 H 0.28189 0.10464 1.01017
 H88 H 0.23966 0.14164 0.96755
 H89 H 0.19715 0.12477 1.05317
 H90 H 0.30604 0.12871 0.94794
 C91 C 0.75517 0.36574 1.02963
 C92 C 0.75831 0.37503 1.00873
 C93 C 0.77875 0.38394 1.00327
 C94 C 0.79619 0.38319 1.01831
 C95 C 0.79325 0.37295 1.03871
 C96 C 0.77273 0.36415 1.04481
 C97 C 0.74058 0.37440 0.99208
 C98 C 0.72012 0.38409 0.99637
 C99 C 0.70298 0.38315 0.98064
 C100 C 0.70702 0.37223 0.96048
 C101 C 0.72749 0.36271 0.95601
 C102 C 0.74418 0.36379 0.97188
 H103 H 0.73940 0.35845 1.03327
 H104 H 0.78109 0.39145 0.98729
 H105 H 0.71754 0.39178 1.01228
 H106 H 0.76000 0.35634 0.96851
 H107 H 0.80678 0.37318 1.05034
 H108 H 0.69455 0.37168 0.94774
 C109 C 0.25503 0.86580 0.52894
 C110 C 0.25837 0.87582 0.50849
 C111 C 0.27883 0.88513 0.50364
 C112 C 0.29641 0.88397 0.51878
 C113 C 0.29294 0.87289 0.53882
 C114 C 0.27236 0.86406 0.54408
 C115 C 0.24086 0.87560 0.49163
 C116 C 0.22044 0.88536 0.49589
 C117 C 0.20388 0.88520 0.47973
 C118 C 0.20786 0.87507 0.45931
 C119 C 0.22819 0.86516 0.45494
 C120 C 0.24464 0.86551 0.47116
 H121 H 0.23924 0.85855 0.53268
 H122 H 0.28112 0.89257 0.48763
 H123 H 0.21749 0.89316 0.51170
 H124 H 0.26040 0.85790 0.46787
 H125 H 0.30582 0.87215 0.55114
 H126 H 0.19514 0.87492 0.44679
 C127 C 0.74499 0.63331 0.52739
 C128 C 0.74086 0.62364 0.50678
 C129 C 0.72039 0.61402 0.50258
 C130 C 0.70411 0.61397 0.51891
 C131 C 0.70840 0.62372 0.53946
 C132 C 0.72880 0.63346 0.54380
 C133 C 0.75806 0.62377 0.48972
 C134 C 0.77859 0.61430 0.49411
 C135 C 0.79592 0.61578 0.47881
 C136 C 0.79216 0.62744 0.45913
 C137 C 0.77150 0.63648 0.45439
 C138 C 0.75439 0.63436 0.46961
 H139 H 0.76082 0.64079 0.53063
 H140 H 0.71718 0.60652 0.48666
 H141 H 0.78112 0.60649 0.50991
 H142 H 0.73855 0.64176 0.46624
 H143 H 0.69583 0.62375 0.55209
 H144 H 0.80483 0.62852 0.44670
 C145 C -0.03029 0.25440 0.13294
 C146 C -0.00968 0.25887 0.12369
 C147 C -0.00563 0.27948 0.11433
 C148 C -0.02232 0.29553 0.11335
 C149 C -0.04266 0.29080 0.12333
 C150 C -0.04659 0.27057 0.13334
 C151 C 0.00767 0.24194 0.12392
 C152 C 0.00397 0.22150 0.11393
 C153 C 0.01992 0.20476 0.11496
 C154 C 0.03984 0.20915 0.12601
 C155 C 0.04398 0.22979 0.13538
 C156 C 0.02777 0.24608 0.13444
 H157 H -0.03330 0.23871 0.14065
 H158 H 0.01015 0.28230 0.10667
 H159 H -0.01174 0.21850 0.10606
 H160 H 0.03076 0.26196 0.14191
 H161 H -0.05542 0.30316 0.12420
 H162 H 0.05264 0.19682 0.12666
 C163 C -0.02921 0.74549 0.36707
 C164 C -0.00860 0.74121 0.37662
 C165 C -0.00436 0.72055 0.38583
 C166 C -0.02082 0.70450 0.38602
 C167 C -0.04113 0.70880 0.37603
 C168 C -0.04533 0.72915 0.36629
 C169 C 0.00842 0.75840 0.37676
 C170 C 0.00381 0.77905 0.38594
 C171 C 0.01930 0.79598 0.38485
 C172 C 0.03932 0.79228 0.37409
 C173 C 0.04429 0.77160 0.36523
 C174 C 0.02891 0.75459 0.36688
 H175 H -0.03239 0.76125 0.35954
 H176 H 0.01137 0.71727 0.39353
 H177 H -0.01187 0.78194 0.39387
 H178 H 0.03250 0.73872 0.35964
 H179 H -0.05373 0.69627 0.37588
 H180 H 0.05131 0.80535 0.37311
 C181 C 0.47298 0.24492 0.86792
 C182 C 0.49313 0.23983 0.87793
 C183 C 0.49667 0.21874 0.88647
 C184 C 0.47997 0.20266 0.88554
 C185 C 0.46023 0.20807 0.87456
 C186 C 0.45672 0.22893 0.86575
 C187 C 0.51059 0.25660 0.87893
 C188 C 0.50632 0.27714 0.88856
 C189 C 0.52187 0.29423 0.88755
 C190 C 0.54177 0.29015 0.87640
 C191 C 0.54642 0.26954 0.86722
 C192 C 0.53091 0.25270 0.86880
 H193 H 0.47034 0.26104 0.86095
 H194 H 0.51203 0.21554 0.89486
 H195 H 0.49038 0.27992 0.89594
 H196 H 0.53419 0.23695 0.86117
 H197 H 0.44758 0.19587 0.87204
 H198 H 0.55439 0.30261 0.87570
 C199 C 0.47050 0.75560 0.63501
 C200 C 0.49126 0.75948 0.62574
 C201 C 0.49570 0.77981 0.61598
 C202 C 0.47934 0.79595 0.61495
 C203 C 0.45887 0.79209 0.62465
 C204 C 0.45444 0.77210 0.63496
 C205 C 0.50823 0.74221 0.62601
 C206 C 0.50394 0.72172 0.61642
 C207 C 0.52008 0.70530 0.61634
 C208 C 0.54058 0.70948 0.62607
 C209 C 0.54506 0.72991 0.63574
 C210 C 0.52881 0.74625 0.63562
 H211 H 0.46714 0.74007 0.64289
 H212 H 0.51153 0.78274 0.60843
 H213 H 0.48808 0.71860 0.60889
 H214 H 0.53217 0.76210 0.64301
 H215 H 0.44633 0.80471 0.62414
 H216 H 0.55308 0.69682 0.62607
 C217 C 0.86607 1.02633 0.75562
 C218 C 0.87622 1.00619 0.75971
 C219 C 0.88566 1.00214 0.78037
 C220 C 0.88524 1.01812 0.79726
 C221 C 0.87457 1.03823 0.79282
 C222 C 0.86503 1.04241 0.77213
 C223 C 0.87670 0.98915 0.74242
 C224 C 0.88667 0.99337 0.72210
 C225 C 0.88701 0.97739 0.70520
 C226 C 0.87667 0.95707 0.70930
 C227 C 0.86667 0.95269 0.72969
 C228 C 0.86694 0.96881 0.74620
 H229 H 0.85891 1.02941 0.73955
 H230 H 0.89276 0.98613 0.78323
 H231 H 0.89353 1.00949 0.71946
 H232 H 0.85942 0.96561 0.76204
 H233 H 0.87418 1.05111 0.80512
 H234 H 0.87683 0.94423 0.69695
 C235 C 0.36492 0.52903 0.25586
 C236 C 0.37462 0.50865 0.26005
 C237 C 0.38431 0.50467 0.28059
 C238 C 0.38462 0.52098 0.29696
 C239 C 0.37459 0.54131 0.29269
 C240 C 0.36458 0.54543 0.27217
 C241 C 0.37477 0.49150 0.24288
 C242 C 0.38453 0.49555 0.22243
 C243 C 0.38511 0.47922 0.20608
 C244 C 0.37530 0.45882 0.21028
 C245 C 0.36525 0.45462 0.23068
 C246 C 0.36529 0.47103 0.24699
 H247 H 0.35756 0.53206 0.23987
 H248 H 0.39172 0.48884 0.28376
 H249 H 0.39179 0.51144 0.21931
 H250 H 0.35789 0.46794 0.26290
 H251 H 0.37457 0.55391 0.30532
 H252 H 0.37549 0.44622 0.19766
 C253 C 0.63434 1.03064 0.24410
 C254 C 0.62452 1.01026 0.24015
 C255 C 0.61457 1.00601 0.21975
 C256 C 0.61414 1.02208 0.20329
 C257 C 0.62424 1.04241 0.20734
 C258 C 0.63449 1.04677 0.22769
 C259 C 0.62467 0.99334 0.25737
 C260 C 0.61484 0.99752 0.27782
 C261 C 0.61493 0.98162 0.29463
 C262 C 0.62556 0.96142 0.29031
 C263 C 0.63539 0.95708 0.26980
 C264 C 0.63474 0.97313 0.25337
 H265 H 0.64193 1.03386 0.25996
 H266 H 0.60711 0.99016 0.21675
 H267 H 0.60770 1.01355 0.28061
 H268 H 0.64212 0.96994 0.23743
 H269 H 0.62414 1.05483 0.19464
 H270 H 0.62569 0.94861 0.30257
 C271 C 0.13500 0.52972 0.74553
 C272 C 0.12508 0.50939 0.74165
 C273 C 0.11506 0.50512 0.72129
 C274 C 0.11471 0.52114 0.70478
 C275 C 0.12495 0.54141 0.70874
 C276 C 0.13523 0.54580 0.72907
 C277 C 0.12520 0.49254 0.75892
 C278 C 0.11532 0.49677 0.77931
 C279 C 0.11519 0.48075 0.79582
 C280 C 0.12554 0.46051 0.79185
 C281 C 0.13569 0.45615 0.77147
 C282 C 0.13521 0.47223 0.75501
 H283 H 0.14261 0.53296 0.76138
 H284 H 0.10749 0.48932 0.71836
 H285 H 0.10765 0.51254 0.78226
 H286 H 0.14270 0.46902 0.73912
 H287 H 0.12490 0.55378 0.69599
 H288 H 0.12569 0.44815 0.80461
 C289 C 0.74736 0.86649 -0.03001
 C290 C 0.74274 0.87621 -0.00960
 C291 C 0.72215 0.88577 -0.00593
 C292 C 0.70617 0.88592 -0.02264
 C293 C 0.71091 0.87592 -0.04301
 C294 C 0.73145 0.86604 -0.04676
 C295 C 0.75941 0.87617 0.00803
 C296 C 0.77995 0.88581 0.00453
 C297 C 0.79622 0.88580 0.02115
 C298 C 0.79128 0.87538 0.04132
 C299 C 0.77069 0.86566 0.04490
 C300 C 0.75481 0.86627 0.02820
 H301 H 0.76334 0.85914 -0.03276
 H302 H 0.71863 0.89311 0.00998
 H303 H 0.78323 0.89274 -0.01152
 H304 H 0.73883 0.85895 0.03085
 H305 H 0.69860 0.87578 -0.05593
 H306 H 0.80307 0.87531 0.05468
 C307 C 0.24523 0.36638 0.47079
 C308 C 0.24073 0.37594 0.49130
 C309 C 0.22019 0.38552 0.49514
 C310 C 0.20415 0.38587 0.47849
 C311 C 0.20876 0.37600 0.45802
 C312 C 0.22925 0.36608 0.45411
 C313 C 0.25759 0.37598 0.50873
 C314 C 0.27811 0.38549 0.50486
 C315 C 0.29424 0.38579 0.52140
 C316 C 0.28974 0.37600 0.54184
 C317 C 0.26925 0.36618 0.54579
 C318 C 0.25318 0.36646 0.52919
 H319 H 0.26120 0.35906 0.46790
 H320 H 0.21677 0.39282 0.51109
 H321 H 0.28146 0.39272 0.48893
 H322 H 0.23724 0.35917 0.53212
 H323 H 0.19641 0.37602 0.44514
 H324 H 0.30216 0.37602 0.55465
 C325 C 0.25398 0.63368 -0.02985
 C326 C 0.25804 0.62355 -0.00958
 C327 C 0.27845 0.61374 -0.00559
 C328 C 0.29481 0.61371 -0.02185
 C329 C 0.29063 0.62407 -0.04208
 C330 C 0.27028 0.63422 -0.04615
 C331 C 0.24099 0.62347 0.00760
 C332 C 0.22052 0.61386 0.00344
 C333 C 0.20389 0.61385 0.01962
 C334 C 0.20841 0.62419 0.04006
 C335 C 0.22894 0.63386 0.04433
 C336 C 0.24518 0.63326 0.02804
 H337 H 0.23815 0.64124 -0.03285
 H338 H 0.28154 0.60610 0.01022
 H339 H 0.21758 0.60700 -0.01279
 H340 H 0.26112 0.64052 0.03120
 H341 H 0.30321 0.62426 -0.05467
 H342 H 0.19632 0.62426 0.05309
 C343 C 0.75398 0.13453 0.47005
 C344 C 0.75788 0.12420 0.49019
 C345 C 0.77833 0.11450 0.49433
 C346 C 0.79523 0.11496 0.47845
 C347 C 0.79098 0.12581 0.45832
 C348 C 0.77049 0.13556 0.45406
 C349 C 0.74067 0.12401 0.50720
 C350 C 0.72022 0.11449 0.50275
 C351 C 0.70375 0.11426 0.51890
 C352 C 0.70786 0.12411 0.53950
 C353 C 0.72825 0.13393 0.54404
 C354 C 0.74465 0.13358 0.52783
 H355 H 0.73808 0.14190 0.46690
 H356 H 0.78106 0.10724 0.51036
 H357 H 0.71718 0.10724 0.48668
 H358 H 0.76053 0.14089 0.53119
 H359 H 0.80329 0.12623 0.44550
 H360 H 0.69519 0.12414 0.55201
 C361 C 1.02884 0.75395 0.86682
 C362 C 1.00887 0.75786 0.87748
 C363 C 1.00497 0.77817 0.88759
 C364 C 1.02090 0.79494 0.88719
 C365 C 1.04085 0.79068 0.87605
 C366 C 1.04491 0.77031 0.86592
 C367 C 0.99174 0.74085 0.87754
 C368 C 0.99569 0.72059 0.88756
 C369 C 0.97961 0.70395 0.88741
 C370 C 0.95945 0.70830 0.87659
 C371 C 0.95538 0.72861 0.86650
 C372 C 0.97160 0.74483 0.86720
 H373 H 1.03180 0.73816 0.85914
 H374 H 0.98908 0.78092 0.89508
 H375 H 1.01171 0.71779 0.89480
 H376 H 0.96862 0.76059 0.85959
 H377 H 1.05370 0.80288 0.87570
 H378 H 0.94647 0.69622 0.87644
 C379 C 0.52818 0.25480 0.36603
 C380 C 0.50796 0.25857 0.37633
 C381 C 0.50385 0.27876 0.38657
 C382 C 0.51991 0.29523 0.38679
 C383 C 0.54009 0.29136 0.37620
 C384 C 0.54431 0.27120 0.36567
 C385 C 0.49094 0.24145 0.37619
 C386 C 0.49501 0.22114 0.38606
 C387 C 0.47877 0.20484 0.38622
 C388 C 0.45846 0.20898 0.37591
 C389 C 0.45431 0.22923 0.36573
 C390 C 0.47061 0.24545 0.36618
 H391 H 0.53128 0.23910 0.35822
 H392 H 0.48810 0.28162 0.39436
 H393 H 0.51084 0.21810 0.39367
 H394 H 0.46753 0.26124 0.35866
 H395 H 0.55250 0.30405 0.37612
 H396 H 0.44589 0.19644 0.37580
 C397 C 1.02944 0.24631 0.63590
 C398 C 1.00940 0.24223 0.62539
 C399 C 1.00571 0.22199 0.61509
 C400 C 1.02196 0.20547 0.61502
 C401 C 1.04201 0.20989 0.62602
 C402 C 1.04583 0.23019 0.63643
 C403 C 0.99208 0.25911 0.62537
 C404 C 0.99564 0.27922 0.61497
 C405 C 0.97928 0.29564 0.61481
 C406 C 0.95928 0.29125 0.62577
 C407 C 0.95558 0.27108 0.63623
 C408 C 0.97207 0.25505 0.63582
 H409 H 1.03224 0.26208 0.64369
 H410 H 0.98974 0.21913 0.60775
 H411 H 1.01155 0.28207 0.60761
 H412 H 0.96936 0.23936 0.64363
 H413 H 1.05512 0.19791 0.62604
 H414 H 0.94611 0.30316 0.62571
 C415 C 0.52824 0.74601 0.13502
 C416 C 0.50800 0.74152 0.12497
 C417 C 0.50442 0.72107 0.11505
 C418 C 0.52103 0.70510 0.11484
 C419 C 0.54123 0.70972 0.12515
 C420 C 0.54492 0.73012 0.13538
 C421 C 0.49058 0.75830 0.12474
 C422 C 0.49421 0.77846 0.11446
 C423 C 0.47766 0.79448 0.11392
 C424 C 0.45746 0.79022 0.12428
 C425 C 0.45372 0.77010 0.13485
 C426 C 0.47034 0.75414 0.13478
 H427 H 0.53096 0.76190 0.14258
 H428 H 0.48868 0.71767 0.10741
 H429 H 0.50996 0.78161 0.10682
 H430 H 0.46760 0.73845 0.14260
 H431 H 0.55411 0.69746 0.12518
 H432 H 0.44467 0.80256 0.12410
 O433 O -0.01754 0.99012 0.94029
 O434 O 0.01752 1.00889 0.93814
 O435 O -0.00652 0.93777 0.98518
 O436 O 0.00606 0.93327 1.01956
 O437 O -0.06098 0.98241 0.99512
 O438 O -0.06355 1.01857 1.01000
 O439 O 0.05061 0.99617 1.04371
 O440 O 0.05410 0.96400 1.02436
 O441 O 0.04388 1.04706 0.99883
 O442 O 0.01939 1.05051 0.96338
 O443 O -0.00064 1.04324 1.04930
 O444 O -0.03286 1.02058 1.05727
 O445 O 0.02109 1.01032 1.06193
 O446 O -0.01652 0.99364 1.06719
 O447 O 0.00909 1.06118 1.01806
 O448 O -0.00417 1.06500 0.98222
 O449 O 0.06255 1.01659 1.00960
 O450 O 0.06348 0.98087 0.98999
 O451 O -0.04702 1.00361 0.95895
 O452 O -0.05318 1.03508 0.98188
 O453 O -0.04258 0.95249 1.00754
 O454 O -0.01875 0.94808 1.03975
 O455 O 0.00427 0.95574 0.95425
 O456 O 0.03716 0.97723 0.95039
 Zr457 Zr 0.00725 0.98850 0.96448
 O458 O 0.02850 1.00868 0.98295
 Zr459 Zr -0.00960 0.96249 1.00946
 O460 O 0.01123 0.98150 1.02965
 Zr461 Zr -0.03647 1.00641 0.99194
 O462 O -0.01708 1.02742 1.01146
 Zr463 Zr 0.03842 0.99219 1.01152
 O464 O 0.01893 0.97100 0.99205
 Zr465 Zr 0.01131 1.03635 0.99411
 O466 O -0.00947 1.01737 0.97363
 Zr467 Zr -0.00500 1.01047 1.03905
 O468 O -0.02686 0.99018 1.02092
 O469 O -0.02065 0.97820 0.98130
 O470 O 0.02285 1.02075 1.02230
 C471 C -0.03741 0.99725 0.94115
 C472 C -0.00061 0.93821 0.96480
 C473 C -0.06029 0.96252 1.00196
 C474 C 0.04125 1.00408 1.06096
 C475 C 0.06151 1.03693 1.00450
 C476 C 0.00448 1.06066 1.03868
 H477 H 0.04130 1.01267 0.97381
 H478 H -0.02598 1.04032 1.01568
 H479 H -0.03020 0.96867 0.97216
 H480 H 0.01600 0.97282 1.04252
 H481 H 0.05063 0.95178 1.01415
 H482 H 0.01931 0.93759 1.02793
 H483 H -0.01927 1.06516 0.98819
 H484 H -0.04379 1.04220 0.97072
 H485 H 0.07774 0.98215 0.99781
 H486 H 0.03420 0.97133 0.93542
 H487 H -0.04035 1.03215 1.04870
 H488 H -0.06302 1.01137 1.02458
 H489 H 0.01572 1.00089 0.92399
 H490 H 0.03454 1.04601 0.95960
 H491 H -0.02997 0.95777 1.04645
 H492 H -0.00627 0.98144 1.07024
 O493 O 0.49536 0.54377 0.55011
 O494 O 0.46138 0.52282 0.55251
 O495 O 0.54587 0.49626 0.54710
 O496 O 0.55365 0.46600 0.52713
 O497 O 0.54250 0.54714 0.49856
 O498 O 0.52057 0.55198 0.46580
 O499 O 0.49019 0.43771 0.48639
 O500 O 0.50659 0.43514 0.52045
 O501 O 0.43764 0.48235 0.49382
 O502 O 0.43658 0.52187 0.51019
 O503 O 0.48169 0.49027 0.44103
 O504 O 0.51929 0.50455 0.43779
 O505 O 0.50206 0.45564 0.45589
 O506 O 0.53469 0.47806 0.44870
 O507 O 0.45146 0.50276 0.45897
 O508 O 0.44329 0.53348 0.47970
 O509 O 0.45588 0.45202 0.50538
 O510 O 0.47633 0.45042 0.54054
 O511 O 0.50640 0.56136 0.51901
 O512 O 0.49270 0.56394 0.48212
 O513 O 0.56054 0.51671 0.51039
 O514 O 0.56267 0.47966 0.49551
 O515 O 0.51567 0.51013 0.56435
 O516 O 0.48055 0.49099 0.56591
 Zr517 Zr 0.49158 0.51101 0.53962
 O518 O 0.47092 0.49062 0.52071
 Zr519 Zr 0.53607 0.49274 0.51376
 O520 O 0.51715 0.47170 0.49378
 Zr521 Zr 0.50976 0.53663 0.49499
 O522 O 0.48966 0.51753 0.47432
 Zr523 Zr 0.48827 0.46280 0.51019
 O524 O 0.50844 0.48190 0.53129
 Zr525 Zr 0.46192 0.50679 0.49169
 O526 O 0.48075 0.52825 0.51160
 Zr527 Zr 0.50615 0.48850 0.46565
 O528 O 0.52741 0.50890 0.48434
 O529 O 0.51992 0.52103 0.52349
 O530 O 0.47766 0.47818 0.48140
 C531 C 0.50085 0.56110 0.53945
 C532 C 0.53576 0.50366 0.56425
 C533 C 0.56001 0.53682 0.50427
 C534 C 0.49623 0.43816 0.46607
 C535 C 0.43830 0.46211 0.49955
 C536 C 0.46152 0.49657 0.44144
 H537 H 0.45804 0.48652 0.52968
 H538 H 0.48556 0.52630 0.46129
 H539 H 0.52932 0.53058 0.53274
 H540 H 0.52598 0.45864 0.48995
 H541 H 0.51434 0.43948 0.53416
 H542 H 0.54668 0.45249 0.52145
 H543 H 0.45333 0.54273 0.47098
 H544 H 0.47829 0.56438 0.48962
 H545 H 0.47076 0.43537 0.53791
 H546 H 0.48190 0.49928 0.57995
 H547 H 0.51096 0.51831 0.43570
 H548 H 0.53160 0.54208 0.45909
 H549 H 0.46399 0.52899 0.56743
 H550 H 0.43156 0.51127 0.52138
 H551 H 0.56338 0.48794 0.48154
 H552 H 0.54146 0.46609 0.45731
 O553 O 0.50363 -0.04526 0.54523
 O554 O 0.53713 -0.02386 0.54849
 O555 O 0.45256 0.00247 0.54304
 O556 O 0.44472 0.03291 0.52346
 O557 O 0.45595 -0.04809 0.49374
 O558 O 0.47787 -0.05251 0.46083
 O559 O 0.50810 0.06152 0.48358
 O560 O 0.49168 0.06375 0.51766
 O561 O 0.56071 0.01687 0.49045
 O562 O 0.56167 -0.02282 0.50649
 O563 O 0.51690 0.00946 0.43741
 O564 O 0.47918 -0.00515 0.43375
 O565 O 0.49626 0.04382 0.45271
 O566 O 0.46389 0.02151 0.44477
 O567 O 0.54694 -0.00350 0.45540
 O568 O 0.55520 -0.03410 0.47554
 O569 O 0.54242 0.04710 0.50238
 O570 O 0.52200 0.04843 0.53756
 O571 O 0.49096 -0.06222 0.51420
 O572 O 0.50591 -0.06465 0.47747
 O573 O 0.43776 -0.01781 0.50600
 O574 O 0.43560 0.01934 0.49160
 O575 O 0.48270 -0.01182 0.56012
 O576 O 0.51768 0.00765 0.56227
 Zr577 Zr 0.50685 -0.01224 0.53555
 O578 O 0.52746 0.00838 0.51713
 Zr579 Zr 0.46225 0.00622 0.50976
 O580 O 0.48120 0.02742 0.49023
 Zr581 Zr 0.48861 -0.03744 0.49038
 O582 O 0.50877 -0.01821 0.47018
 Zr583 Zr 0.51005 0.03623 0.50696
 O584 O 0.48991 0.01691 0.52761
 Zr585 Zr 0.53646 -0.00761 0.48794
 O586 O 0.51763 -0.02928 0.50730
 Zr587 Zr 0.49228 0.01087 0.46186
 O588 O 0.47094 -0.00966 0.48009
 O589 O 0.47850 -0.02205 0.51909
 O590 O 0.52073 0.02106 0.47801
 C591 C 0.49703 -0.06228 0.53451
 C592 C 0.46265 -0.00524 0.56006
 C593 C 0.43846 -0.03794 0.49974
 C594 C 0.50207 0.06122 0.46323
 C595 C 0.56001 0.03710 0.49642
 C596 C 0.53702 0.00299 0.43792
 H597 H 0.54035 0.01244 0.52622
 H598 H 0.51292 -0.02690 0.45705
 H599 H 0.46909 -0.03164 0.52816
 H600 H 0.47236 0.04050 0.48656
 H601 H 0.48392 0.05926 0.53124
 H602 H 0.45160 0.04644 0.51790
 H603 H 0.54499 -0.04372 0.46732
 H604 H 0.51996 -0.06549 0.48568
 H605 H 0.52759 0.06348 0.53517
 H606 H 0.51628 -0.00072 0.57616
 H607 H 0.48779 -0.01869 0.43132
 H608 H 0.46674 -0.04262 0.45431
 H609 H 0.53454 -0.03014 0.56331
 H610 H 0.56702 -0.01210 0.51753
 H611 H 0.43492 0.01113 0.47751
 H612 H 0.45681 0.03306 0.45378
 O613 O -0.04360 0.45221 0.99597
 O614 O -0.02258 0.45021 0.96201
 O615 O 0.00538 0.45474 1.04640
 O616 O 0.03482 0.47550 1.05487
 O617 O -0.04712 0.50278 1.04523
 O618 O -0.05289 0.53547 1.02360
 O619 O 0.06148 0.51672 0.99138
 O620 O 0.06487 0.48275 1.00756
 O621 O 0.01656 0.50920 0.93903
 O622 O -0.02307 0.49242 0.93834
 O623 O 0.00826 0.56115 0.98428
 O624 O -0.00649 0.56336 1.02261
 O625 O 0.04321 0.54651 1.00462
 O626 O 0.02121 0.55348 1.03697
 O627 O -0.00451 0.54351 0.95382
 O628 O -0.03473 0.52286 0.94528
 O629 O 0.04727 0.49798 0.95703
 O630 O 0.04981 0.46290 0.97686
 O631 O -0.06162 0.48258 1.00839
 O632 O -0.06509 0.51940 0.99575
 O633 O -0.01672 0.48909 1.06218
 O634 O 0.01969 0.50632 1.06470
 O635 O -0.00988 0.43809 1.01634
 O636 O 0.00962 0.43711 0.98103
 Zr637 Zr -0.01091 0.46288 0.99253
 O638 O 0.00902 0.48215 0.97202
 Zr639 Zr 0.00742 0.48812 1.03757
 O640 O 0.02788 0.50856 1.01884
 Zr641 Zr -0.03719 0.50671 1.01212
 O642 O -0.01864 0.52765 0.99201
 Zr643 Zr 0.03683 0.49272 0.98948
 O644 O 0.01829 0.47121 1.00939
 Zr645 Zr -0.00780 0.51087 0.96372
 O646 O -0.02880 0.49071 0.98252
 Zr647 Zr 0.01043 0.53645 1.00849
 O648 O -0.00936 0.51732 1.02976
 O649 O -0.02094 0.47839 1.02139
 O650 O 0.02080 0.52125 0.97949
 C651 C -0.06108 0.46245 1.00200
 C652 C -0.00260 0.43798 1.03623
 C653 C -0.03683 0.49543 1.06224
 C654 C 0.06077 0.53673 0.99812
 C655 C 0.03697 0.50373 0.93951
 C656 C 0.00166 0.56086 0.96411
 H657 H 0.01318 0.47343 0.95888
 H658 H -0.02771 0.54053 0.98818
 H659 H -0.03031 0.46886 1.03055
 H660 H 0.04098 0.51245 1.02767
 H661 H 0.06081 0.46904 1.01519
 H662 H 0.04812 0.48174 1.04804
 H663 H -0.04442 0.53073 0.95572
 H664 H -0.06550 0.51234 0.98102
 H665 H 0.06483 0.46580 0.97129
 H666 H 0.00162 0.42305 0.98229
 H667 H -0.01977 0.56608 1.01360
 H668 H -0.04299 0.54208 1.03475
 H669 H -0.02837 0.43524 0.96439
 H670 H -0.01215 0.48184 0.93259
 H671 H 0.01031 0.51951 1.06616
 H672 H 0.03199 0.54403 1.04461
 O673 O 0.06035 0.48243 0.50808
 O674 O 0.06171 0.51786 0.49064
 O675 O 0.01566 0.49147 0.56160
 O676 O -0.01887 0.50276 0.56665
 O677 O 0.00653 0.43729 0.51560
 O678 O -0.00803 0.43538 0.47879
 O679 O -0.04447 0.54737 0.50325
 O680 O -0.02541 0.55075 0.53669
 O681 O 0.00239 0.54382 0.45334
 O682 O 0.03618 0.51884 0.44798
 O683 O -0.04885 0.49721 0.45606
 O684 O -0.05521 0.46386 0.47808
 O685 O -0.06254 0.51683 0.49140
 O686 O -0.06595 0.47901 0.50520
 O687 O -0.01890 0.51142 0.43894
 O688 O 0.01692 0.49569 0.43348
 O689 O -0.01214 0.56045 0.48356
 O690 O 0.00817 0.56213 0.51917
 O691 O 0.04240 0.45262 0.49446
 O692 O 0.02009 0.44661 0.46281
 O693 O -0.00563 0.45508 0.54621
 O694 O -0.03828 0.47782 0.55155
 O695 O 0.04624 0.50275 0.54346
 O696 O 0.04862 0.53650 0.52289
 Zr697 Zr 0.03563 0.50646 0.51077
 O698 O 0.01662 0.52762 0.49110
 Zr699 Zr -0.00851 0.48799 0.53684
 O700 O -0.02936 0.50836 0.51826
 Zr701 Zr 0.00935 0.46240 0.49194
 O702 O -0.01060 0.48171 0.47125
 Zr703 Zr -0.01220 0.53619 0.50788
 O704 O 0.00793 0.51707 0.52872
 Zr705 Zr 0.00589 0.51078 0.46294
 O706 O 0.02680 0.49013 0.48143
 Zr707 Zr -0.03836 0.49227 0.48886
 O708 O -0.01961 0.47079 0.50879
 O709 O 0.01969 0.47796 0.52061
 O710 O -0.02256 0.52079 0.47902
 C711 C 0.05993 0.46262 0.50074
 C712 C 0.03591 0.49755 0.56111
 C713 C -0.00015 0.43761 0.53571
 C714 C -0.06184 0.53717 0.49692
 C715 C -0.00558 0.56058 0.46347
 C716 C -0.03905 0.50534 0.43923
 H717 H 0.02536 0.54074 0.48741
 H718 H -0.01473 0.47317 0.45801
 H719 H 0.02906 0.46847 0.52991
 H720 H -0.04225 0.51252 0.52723
 H721 H -0.01477 0.54790 0.54872
 H722 H -0.02734 0.51598 0.56264
 H723 H 0.00952 0.48134 0.43217
 H724 H 0.02964 0.45720 0.45510
 H725 H -0.00040 0.57593 0.51825
 H726 H 0.06355 0.53393 0.52891
 H727 H -0.04701 0.45760 0.46547
 H728 H -0.02244 0.43514 0.48631
 H729 H 0.07576 0.51649 0.49882
 H730 H 0.04138 0.53270 0.45467
 H731 H -0.04449 0.46619 0.54197
 H732 H -0.06821 0.48752 0.51893
 O733 O 0.51639 0.99002 0.05970
 O734 O 0.48085 1.00576 0.06213
 O735 O 0.50686 0.93629 0.01443
 O736 O 0.49574 0.93138 -0.02025
 O737 O 0.56145 0.98130 0.00586
 O738 O 0.56425 1.01741 -0.00852
 O739 O 0.45136 0.99491 -0.04570
 O740 O 0.44756 0.96229 -0.02673
 O741 O 0.45635 1.04552 0.00010
 O742 O 0.47609 1.05107 0.03271
 O743 O 0.50402 1.04105 -0.05008
 O744 O 0.53552 1.01743 -0.05697
 O745 O 0.48143 1.00879 -0.06301
 O746 O 0.51884 0.99078 -0.06724
 O747 O 0.48921 1.05855 -0.02043
 O748 O 0.50648 1.06206 0.01760
 O749 O 0.43826 1.01503 -0.01167
 O750 O 0.43665 0.97954 0.00728
 O751 O 0.54640 1.00284 0.04167
 O752 O 0.55271 1.03407 0.01906
 O753 O 0.54363 0.95103 -0.00665
 O754 O 0.52057 0.94627 -0.03975
 O755 O 0.49589 0.95462 0.04522
 O756 O 0.46145 0.97615 0.04657
 Zr757 Zr 0.49236 0.98720 0.03477
 O758 O 0.47180 1.00737 0.01566
 Zr759 Zr 0.51065 0.96085 -0.00964
 O760 O 0.49031 0.97961 -0.03048
 Zr761 Zr 0.53664 1.00518 0.00852
 O762 O 0.51786 1.02589 -0.01181
 Zr763 Zr 0.46257 0.99059 -0.01318
 O764 O 0.48154 0.96946 0.00687
 Zr765 Zr 0.48891 1.03493 0.00466
 O766 O 0.50893 1.01618 0.02603
 Zr767 Zr 0.50690 1.00835 -0.03955
 O768 O 0.52820 0.98841 -0.02061
 O769 O 0.52082 0.97693 0.01879
 O770 O 0.47848 1.01884 -0.02372
 C771 C 0.53631 0.99703 0.05928
 C772 C 0.50082 0.93693 0.03477
 C773 C 0.56114 0.96131 -0.00087
 C774 C 0.46118 1.00289 -0.06260
 C775 C 0.43894 1.03535 -0.00614
 C776 C 0.49598 1.05801 -0.04045
 H777 H 0.45888 1.01169 0.02456
 H778 H 0.52680 1.03872 -0.01596
 H779 H 0.53023 0.96761 0.02824
 H780 H 0.48587 0.97080 -0.04346
 H781 H 0.45049 0.95019 -0.01630
 H782 H 0.48232 0.93552 -0.02842
 H783 H 0.51820 1.06586 0.00703
 H784 H 0.54243 1.04174 0.02909
 H785 H 0.42275 0.98047 -0.00124
 H786 H 0.46351 0.96836 0.06073
 H787 H 0.54296 1.02900 -0.04828
 H788 H 0.56456 1.00983 -0.02298
 H789 H 0.48185 0.99670 0.07564
 H790 H 0.48210 1.04330 0.04567
 H791 H 0.53219 0.95573 -0.04596
 H792 H 0.50807 0.97924 -0.07100
 O793 O 0.48289 0.50870 0.06270
 O794 O 0.51821 0.49039 0.06425
 O795 O 0.49307 0.56101 0.01705
 O796 O 0.50460 0.56515 -0.01763
 O797 O 0.43805 0.51643 0.00811
 O798 O 0.43523 0.47996 -0.00586
 O799 O 0.54824 0.50116 -0.04234
 O800 O 0.55231 0.53398 -0.02361
 O801 O 0.54283 0.45140 0.00357
 O802 O 0.51909 0.44847 0.03948
 O803 O 0.49778 0.45510 -0.04624
 O804 O 0.46419 0.47748 -0.05311
 O805 O 0.51777 0.48830 -0.05989
 O806 O 0.48028 0.50399 -0.06427
 O807 O 0.50782 0.43726 -0.01496
 O808 O 0.49513 0.43379 0.02112
 O809 O 0.56122 0.48164 -0.00806
 O810 O 0.56275 0.51760 0.01084
 O811 O 0.45279 0.49584 0.04455
 O812 O 0.44614 0.46408 0.02243
 O813 O 0.45629 0.54637 -0.00421
 O814 O 0.47916 0.55035 -0.03706
 O815 O 0.50405 0.54326 0.04809
 O816 O 0.53731 0.52192 0.05115
 Zr817 Zr 0.50706 0.51045 0.03794
 O818 O 0.52784 0.49002 0.01916
 Zr819 Zr 0.48916 0.53611 -0.00689
 O820 O 0.50935 0.51678 -0.02740
 Zr821 Zr 0.46265 0.49245 0.01151
 O822 O 0.48152 0.47110 -0.00812
 Zr823 Zr 0.53703 0.50608 -0.00986
 O824 O 0.51812 0.52756 0.00991
 Zr825 Zr 0.51036 0.46229 0.00872
 O826 O 0.49010 0.48157 0.02939
 Zr827 Zr 0.49278 0.48781 -0.03610
 O828 O 0.47151 0.50845 -0.01775
 O829 O 0.47875 0.52070 0.02161
 O830 O 0.52108 0.47754 -0.01991
 C831 C 0.46289 0.50192 0.06219
 C832 C 0.49914 0.56075 0.03742
 C833 C 0.43862 0.53634 0.00135
 C834 C 0.53814 0.49379 -0.05949
 C835 C 0.56032 0.46137 -0.00263
 C836 C 0.50324 0.43776 -0.03560
 H837 H 0.54087 0.48608 0.02807
 H838 H 0.47258 0.45815 -0.01205
 H839 H 0.46941 0.53032 0.03084
 H840 H 0.51374 0.52531 -0.04048
 H841 H 0.54926 0.54636 -0.01346
 H842 H 0.51756 0.56067 -0.02634
 H843 H 0.47990 0.43364 0.01543
 H844 H 0.45591 0.45696 0.03333
 H845 H 0.57675 0.51625 0.00262
 H846 H 0.53475 0.52807 0.06609
 H847 H 0.45802 0.46484 -0.04510
 H848 H 0.43559 0.48668 -0.02068
 H849 H 0.51680 0.49857 0.07834
 H850 H 0.53431 0.45299 0.04296
 H851 H 0.46757 0.54079 -0.04331
 H852 H 0.48952 0.51701 -0.06693
 O853 O -0.00838 0.06309 0.51668
 O854 O 0.00959 0.06382 0.48104
 O855 O -0.06180 0.01863 0.50756
 O856 O -0.06685 -0.01571 0.49562
 O857 O -0.01670 0.00946 0.56221
 O858 O 0.01980 -0.00506 0.56455
 O859 O -0.00416 -0.04247 0.45191
 O860 O -0.03676 -0.02264 0.44793
 O861 O 0.04675 0.00342 0.45579
 O862 O 0.05093 0.03864 0.48028
 O863 O 0.04289 -0.04634 0.50197
 O864 O 0.02098 -0.05216 0.53599
 O865 O 0.00790 -0.05996 0.48271
 O866 O -0.00602 -0.06306 0.52066
 O867 O 0.06103 -0.01580 0.49088
 O868 O 0.06588 0.01985 0.50350
 O869 O 0.01661 -0.01066 0.43875
 O870 O -0.01847 0.01027 0.43641
 O871 O 0.00476 0.04520 0.54680
 O872 O 0.03595 0.02271 0.55350
 O873 O -0.04703 -0.00273 0.54411
 O874 O -0.05244 -0.03510 0.52129
 O875 O -0.04356 0.04886 0.49570
 O876 O -0.02254 0.05108 0.46217
 Zr877 Zr -0.01093 0.03818 0.49254
 O878 O 0.00876 0.01884 0.47148
 Zr879 Zr -0.03736 -0.00563 0.51105
 O880 O -0.01873 -0.02671 0.49086
 Zr881 Zr 0.00712 0.01216 0.53716
 O882 O 0.02783 -0.00789 0.51801
 Zr883 Zr -0.00798 -0.00994 0.46283
 O884 O -0.02878 0.01049 0.48180
 Zr885 Zr 0.03658 0.00827 0.48877
 O886 O 0.01805 0.02934 0.50933
 Zr887 Zr 0.01036 -0.03564 0.50725
 O888 O -0.00966 -0.01672 0.52862
 O889 O -0.02118 0.02253 0.52120
 O890 O 0.02063 -0.02019 0.47859
 C891 C -0.00114 0.06270 0.53665
 C892 C -0.06120 0.03869 0.50110
 C893 C -0.03671 0.00272 0.56176
 C894 C 0.00213 -0.05970 0.46231
 C895 C 0.03677 -0.00461 0.43887
 C896 C 0.06036 -0.03615 0.49604
 H897 H 0.01271 0.02735 0.45823
 H898 H 0.04090 -0.01186 0.52682
 H899 H -0.03049 0.03197 0.53067
 H900 H -0.02771 -0.03957 0.48672
 H901 H -0.04858 -0.01183 0.45072
 H902 H -0.06269 -0.02471 0.48271
 H903 H 0.06596 0.01471 0.51894
 H904 H 0.04341 0.03296 0.54339
 H905 H -0.01744 0.00157 0.42260
 H906 H -0.02826 0.06610 0.46466
 H907 H 0.03386 -0.04425 0.54196
 H908 H 0.01253 -0.01955 0.56452
 H909 H 0.00170 0.07797 0.48245
 H910 H 0.04595 0.04243 0.46523
 H911 H -0.04290 -0.04148 0.53283
 H912 H -0.01971 -0.06528 0.51213
 O913 O 0.68698 0.24275 0.26578
 O914 O 0.68600 0.26064 0.23021
 O915 O 0.73234 0.18981 0.25624
 O916 O 0.76699 0.18527 0.24481
 O917 O 0.74080 0.23445 0.31157
 O918 O 0.75484 0.27097 0.31453
 O919 O 0.79299 0.24748 0.20211
 O920 O 0.77287 0.21549 0.19733
 O921 O 0.74582 0.29854 0.20600
 O922 O 0.71072 0.30234 0.23050
 O923 O 0.79592 0.29502 0.25302
 O924 O 0.80219 0.27248 0.28645
 O925 O 0.80978 0.26160 0.23255
 O926 O 0.81360 0.24603 0.27024
 O927 O 0.76530 0.31282 0.24120
 O928 O 0.72957 0.31728 0.25382
 O929 O 0.76145 0.26913 0.18900
 O930 O 0.74019 0.23416 0.18568
 O931 O 0.70480 0.25538 0.29628
 O932 O 0.72678 0.28692 0.30331
 O933 O 0.75315 0.20435 0.29328
 O934 O 0.78600 0.19968 0.27088
 O935 O 0.70166 0.20785 0.24483
 O936 O 0.69940 0.22893 0.21121
 Zr937 Zr 0.71202 0.24049 0.24182
 O938 O 0.73120 0.26051 0.22116
 Zr939 Zr 0.75629 0.21442 0.26040
 O940 O 0.77722 0.23338 0.24059
 Zr941 Zr 0.73783 0.25839 0.28683
 O942 O 0.75769 0.27943 0.26812
 Zr943 Zr 0.76027 0.24413 0.21255
 O944 O 0.74002 0.22303 0.23112
 Zr945 Zr 0.74139 0.28822 0.23887
 O946 O 0.72046 0.26934 0.25900
 Zr947 Zr 0.78572 0.26236 0.25737
 O948 O 0.76701 0.24201 0.27837
 O949 O 0.72784 0.23020 0.27046
 O950 O 0.77010 0.27265 0.22873
 C951 C 0.68731 0.24952 0.28593
 C952 C 0.71212 0.19028 0.24995
 C953 C 0.74747 0.21446 0.31098
 C954 C 0.80983 0.25523 0.21232
 C955 C 0.75461 0.28901 0.18925
 C956 C 0.78563 0.31234 0.24684
 H957 H 0.72264 0.26448 0.20788
 H958 H 0.76150 0.29241 0.27713
 H959 H 0.71847 0.22075 0.27973
 H960 H 0.79025 0.22462 0.23645
 H961 H 0.76206 0.20371 0.20003
 H962 H 0.77582 0.18965 0.23192
 H963 H 0.73464 0.31720 0.26932
 H964 H 0.71631 0.29423 0.29321
 H965 H 0.74895 0.23557 0.17200
 H966 H 0.68449 0.22286 0.21352
 H967 H 0.79400 0.28505 0.29271
 H968 H 0.76940 0.26374 0.31468
 H969 H 0.67196 0.25252 0.23138
 H970 H 0.70675 0.29722 0.21552
 H971 H 0.79233 0.20938 0.28236
 H972 H 0.81632 0.23292 0.26099
 O973 O 0.75382 0.70028 0.70619
 O974 O 0.78830 0.69834 0.72670
 O975 O 0.70390 0.70568 0.75366
 O976 O 0.69658 0.72618 0.78371
 O977 O 0.70773 0.75203 0.70130
 O978 O 0.72988 0.78428 0.69571
 O979 O 0.76089 0.76616 0.81115
 O980 O 0.74400 0.73275 0.81467
 O981 O 0.81305 0.75693 0.76652
 O982 O 0.81383 0.74011 0.72711
 O983 O 0.76928 0.80987 0.75755
 O984 O 0.73223 0.81372 0.74320
 O985 O 0.74900 0.79617 0.79252
 O986 O 0.71596 0.80291 0.76939
 O987 O 0.79937 0.79151 0.74538
 O988 O 0.80708 0.77002 0.71462
 O989 O 0.79473 0.74636 0.79723
 O990 O 0.77374 0.71180 0.79960
 O991 O 0.74373 0.73108 0.68766
 O992 O 0.75763 0.76750 0.68416
 O993 O 0.68969 0.74159 0.73231
 O994 O 0.68795 0.75748 0.76924
 O995 O 0.73427 0.68723 0.74189
 O996 O 0.76997 0.68588 0.75927
 Zr997 Zr 0.75836 0.71160 0.73880
 O998 O 0.77936 0.73062 0.75879
 Zr999 Zr 0.71422 0.73855 0.75650
 O1000 O 0.73348 0.75847 0.77726
 Zr1001 Zr 0.74054 0.75557 0.71191
 O1002 O 0.76093 0.77630 0.73066
 Zr1003 Zr 0.76224 0.74193 0.78652
 O1004 O 0.74169 0.72094 0.76784
 Zr1005 Zr 0.78860 0.75899 0.74188
 O1006 O 0.76942 0.73890 0.72081
 Zr1007 Zr 0.74465 0.78582 0.75966
 O1008 O 0.72311 0.76718 0.73949
 O1009 O 0.73014 0.72777 0.72833
 O1010 O 0.77305 0.77003 0.77041
 C1011 C 0.74874 0.71063 0.68845
 C1012 C 0.71409 0.68802 0.74803
 C1013 C 0.69019 0.74693 0.71186
 C1014 C 0.75499 0.78637 0.81028
 C1015 C 0.81237 0.75162 0.78701
 C1016 C 0.78944 0.80913 0.75138
 H1017 H 0.79217 0.72162 0.76311
 H1018 H 0.76511 0.78901 0.72156
 H1019 H 0.72059 0.71836 0.71908
 H1020 H 0.72477 0.76271 0.79034
 H1021 H 0.73595 0.71922 0.81064
 H1022 H 0.70372 0.73197 0.79718
 H1023 H 0.79715 0.77895 0.70537
 H1024 H 0.77204 0.75997 0.68400
 H1025 H 0.77952 0.71463 0.81464
 H1026 H 0.76855 0.67176 0.75125
 H1027 H 0.73977 0.81470 0.72882
 H1028 H 0.71892 0.79131 0.70549
 H1029 H 0.78555 0.68345 0.72073
 H1030 H 0.81843 0.72881 0.73782
 H1031 H 0.68721 0.77103 0.76038
 H1032 H 0.70969 0.79527 0.78226
 O1033 O 0.29887 0.20858 0.74544
 O1034 O 0.30019 0.22940 0.71137
 O1035 O 0.29725 0.25674 0.79611
 O1036 O 0.27702 0.28679 0.80438
 O1037 O 0.24867 0.20530 0.79493
 O1038 O 0.21572 0.19969 0.77343
 O1039 O 0.23452 0.31382 0.74198
 O1040 O 0.26882 0.31688 0.75770
 O1041 O 0.24107 0.26910 0.68916
 O1042 O 0.25760 0.22947 0.68804
 O1043 O 0.18953 0.26078 0.73479
 O1044 O 0.18814 0.24612 0.77334
 O1045 O 0.20463 0.29572 0.75492
 O1046 O 0.19797 0.27407 0.78723
 O1047 O 0.20684 0.24853 0.70401
 O1048 O 0.22716 0.21803 0.69528
 O1049 O 0.25262 0.29963 0.70723
 O1050 O 0.28814 0.30184 0.72675
 O1051 O 0.26848 0.19076 0.75783
 O1052 O 0.23142 0.18756 0.74545
 O1053 O 0.26265 0.23548 0.81198
 O1054 O 0.24608 0.27187 0.81486
 O1055 O 0.31351 0.24248 0.76547
 O1056 O 0.31387 0.26144 0.73014
 Zr1057 Zr 0.28817 0.24122 0.74205
 O1058 O 0.26861 0.26131 0.72184
 Zr1059 Zr 0.26369 0.25952 0.78742
 O1060 O 0.24293 0.28011 0.76900
 Zr1061 Zr 0.24443 0.21527 0.76188
 O1062 O 0.22318 0.23397 0.74206
 Zr1063 Zr 0.25840 0.28905 0.73957
 O1064 O 0.28022 0.27034 0.75915
 Zr1065 Zr 0.23963 0.24476 0.71370
 O1066 O 0.26004 0.22361 0.73219
 Zr1067 Zr 0.21473 0.26297 0.75876
 O1068 O 0.23420 0.24306 0.77975
 O1069 O 0.27306 0.23121 0.77100
 O1070 O 0.22958 0.27331 0.72972
 C1071 C 0.28860 0.19119 0.75138
 C1072 C 0.31402 0.24926 0.78555
 C1073 C 0.25613 0.21550 0.81198
 C1074 C 0.21448 0.31323 0.74861
 C1075 C 0.24659 0.28942 0.68970
 C1076 C 0.18956 0.25454 0.71449
 H1077 H 0.27716 0.26544 0.70865
 H1078 H 0.21017 0.22502 0.73830
 H1079 H 0.28271 0.22180 0.78008
 H1080 H 0.23920 0.29317 0.77793
 H1081 H 0.28266 0.31269 0.76520
 H1082 H 0.27021 0.30008 0.79809
 H1083 H 0.21927 0.20848 0.70572
 H1084 H 0.23821 0.18721 0.73064
 H1085 H 0.28520 0.31684 0.72126
 H1086 H 0.32795 0.25332 0.73112
 H1087 H 0.18497 0.23309 0.76413
 H1088 H 0.20925 0.20954 0.78468
 H1089 H 0.31519 0.22344 0.71354
 H1090 H 0.26825 0.24027 0.68233
 H1091 H 0.23257 0.26297 0.81613
 H1092 H 0.20773 0.28450 0.79499
 O1093 O 0.20479 0.74626 0.29688
 O1094 O 0.22577 0.71229 0.29950
 O1095 O 0.25189 0.79680 0.29315
 O1096 O 0.28247 0.80409 0.27357
 O1097 O 0.20109 0.79239 0.24478
 O1098 O 0.19635 0.76995 0.21220
 O1099 O 0.31118 0.74037 0.23371
 O1100 O 0.31372 0.75720 0.26758
 O1101 O 0.26674 0.68790 0.24166
 O1102 O 0.22705 0.68704 0.25764
 O1103 O 0.25864 0.73119 0.18825
 O1104 O 0.24414 0.76820 0.18414
 O1105 O 0.29311 0.75188 0.20303
 O1106 O 0.27009 0.78442 0.19552
 O1107 O 0.24624 0.70123 0.20639
 O1108 O 0.21555 0.69328 0.22682
 O1109 O 0.29705 0.70634 0.25317
 O1110 O 0.29853 0.72746 0.28806
 O1111 O 0.18736 0.75785 0.26576
 O1112 O 0.18464 0.74215 0.22927
 O1113 O 0.23153 0.81078 0.25629
 O1114 O 0.26866 0.81273 0.24160
 O1115 O 0.23996 0.76643 0.31124
 O1116 O 0.25761 0.73101 0.31308
 Zr1117 Zr 0.23774 0.74227 0.28659
 O1118 O 0.25830 0.72149 0.26799
 Zr1119 Zr 0.25572 0.78644 0.26011
 O1120 O 0.27696 0.76731 0.24060
 Zr1121 Zr 0.21192 0.75978 0.24161
 O1122 O 0.23116 0.73950 0.22127
 Zr1123 Zr 0.28607 0.73874 0.25741
 O1124 O 0.26676 0.75911 0.27805
 Zr1125 Zr 0.24212 0.71208 0.23898
 O1126 O 0.22049 0.73107 0.25858
 Zr1127 Zr 0.26013 0.75592 0.21254
 O1128 O 0.23951 0.77734 0.23077
 O1129 O 0.22760 0.77033 0.27008
 O1130 O 0.27068 0.72772 0.22866
 C1131 C 0.18756 0.75249 0.28624
 C1132 C 0.24590 0.78661 0.31069
 C1133 C 0.21129 0.80997 0.25036
 C1134 C 0.31068 0.74621 0.21335
 C1135 C 0.28702 0.68867 0.24757
 C1136 C 0.25249 0.71107 0.18882
 H1137 H 0.26249 0.70877 0.27713
 H1138 H 0.22237 0.73520 0.20824
 H1139 H 0.21817 0.77988 0.27928
 H1140 H 0.29000 0.77610 0.23672
 H1141 H 0.30930 0.76526 0.28107
 H1142 H 0.29604 0.79726 0.26781
 H1143 H 0.20581 0.70339 0.21868
 H1144 H 0.18400 0.72829 0.23767
 H1145 H 0.31360 0.72178 0.28561
 H1146 H 0.24929 0.73242 0.32705
 H1147 H 0.23008 0.76027 0.18250
 H1148 H 0.20611 0.78097 0.20542
 H1149 H 0.21941 0.71501 0.31429
 H1150 H 0.23767 0.68223 0.26900
 H1151 H 0.26027 0.81327 0.22761
 H1152 H 0.28245 0.79102 0.20380
 O1153 O 0.23306 0.68886 0.75786
 O1154 O 0.26867 0.68770 0.74029
 O1155 O 0.24191 0.73379 0.81147
 O1156 O 0.25303 0.76841 0.81642
 O1157 O 0.18740 0.74248 0.76571
 O1158 O 0.18525 0.75671 0.72894
 O1159 O 0.29703 0.79413 0.75380
 O1160 O 0.30095 0.77460 0.78654
 O1161 O 0.29391 0.74680 0.70299
 O1162 O 0.26909 0.71258 0.69815
 O1163 O 0.24708 0.79755 0.70587
 O1164 O 0.21333 0.80374 0.72802
 O1165 O 0.26647 0.81159 0.74117
 O1166 O 0.22864 0.81501 0.75493
 O1167 O 0.26082 0.76738 0.68863
 O1168 O 0.24614 0.73184 0.68323
 O1169 O 0.31039 0.76222 0.73291
 O1170 O 0.31275 0.74162 0.76833
 O1171 O 0.20297 0.70663 0.74460
 O1172 O 0.19667 0.72865 0.71290
 O1173 O 0.20521 0.75448 0.79638
 O1174 O 0.22746 0.78738 0.80158
 O1175 O 0.25336 0.70324 0.79319
 O1176 O 0.28719 0.70097 0.77256
 Zr1177 Zr 0.25696 0.71369 0.76053
 O1178 O 0.27800 0.73272 0.74085
 Zr1179 Zr 0.23811 0.75776 0.78676
 O1180 O 0.25824 0.77861 0.76808
 Zr1181 Zr 0.21252 0.73960 0.74195
 O1182 O 0.23166 0.75942 0.72118
 Zr1183 Zr 0.28634 0.76167 0.75759
 O1184 O 0.26740 0.74152 0.77846
 Zr1185 Zr 0.26091 0.74305 0.71280
 O1186 O 0.24040 0.72222 0.73130
 Zr1187 Zr 0.24206 0.78731 0.73871
 O1188 O 0.22074 0.76862 0.75878
 O1189 O 0.22829 0.72949 0.77051
 O1190 O 0.27076 0.77166 0.72876
 C1191 C 0.21314 0.68919 0.75072
 C1192 C 0.24810 0.71360 0.81089
 C1193 C 0.18770 0.74893 0.78593
 C1194 C 0.28672 0.81132 0.74724
 C1195 C 0.31053 0.75536 0.71288
 C1196 C 0.25490 0.78755 0.68889
 H1197 H 0.29125 0.72410 0.73707
 H1198 H 0.22305 0.76336 0.70795
 H1199 H 0.21888 0.72013 0.77984
 H1200 H 0.26225 0.79155 0.77707
 H1201 H 0.29807 0.76393 0.79844
 H1202 H 0.26605 0.77711 0.81229
 H1203 H 0.23117 0.73810 0.68257
 H1204 H 0.20712 0.71871 0.70537
 H1205 H 0.32645 0.75030 0.76721
 H1206 H 0.28475 0.68607 0.77851
 H1207 H 0.20739 0.79566 0.71517
 H1208 H 0.18498 0.77117 0.73638
 H1209 H 0.26736 0.67370 0.74840
 H1210 H 0.28347 0.70795 0.70417
 H1211 H 0.21581 0.79345 0.79197
 H1212 H 0.23685 0.81713 0.76886
 O1213 O 0.25262 0.20221 0.20616
 O1214 O 0.28707 0.20034 0.22662
 O1215 O 0.20271 0.20739 0.25378
 O1216 O 0.19519 0.22793 0.28370
 O1217 O 0.20629 0.25376 0.20134
 O1218 O 0.22834 0.28613 0.19579
 O1219 O 0.25954 0.26786 0.31119
 O1220 O 0.24271 0.23446 0.31469
 O1221 O 0.31168 0.25876 0.26652
 O1222 O 0.31238 0.24214 0.22697
 O1223 O 0.26778 0.31172 0.25777
 O1224 O 0.23091 0.31568 0.24349
 O1225 O 0.24746 0.29788 0.29269
 O1226 O 0.21434 0.30451 0.26937
 O1227 O 0.29791 0.29344 0.24557
 O1228 O 0.30569 0.27220 0.21477
 O1229 O 0.29340 0.24811 0.29723
 O1230 O 0.27242 0.21354 0.29952
 O1231 O 0.24243 0.23299 0.18763
 O1232 O 0.25615 0.26949 0.18420
 O1233 O 0.18831 0.24322 0.23234
 O1234 O 0.18659 0.25920 0.26928
 O1235 O 0.23312 0.18905 0.24193
 O1236 O 0.26882 0.18776 0.25917
 Zr1237 Zr 0.25710 0.21349 0.23877
 O1238 O 0.27806 0.23251 0.25877
 Zr1239 Zr 0.21288 0.24031 0.25651
 O1240 O 0.23211 0.26021 0.27732
 Zr1241 Zr 0.23912 0.25743 0.21194
 O1242 O 0.25947 0.27818 0.23074
 Zr1243 Zr 0.26091 0.24371 0.28653
 O1244 O 0.24039 0.22274 0.26781
 Zr1245 Zr 0.28720 0.26093 0.24192
 O1246 O 0.26806 0.24085 0.22081
 Zr1247 Zr 0.24320 0.28762 0.25978
 O1248 O 0.22170 0.26898 0.23955
 O1249 O 0.22881 0.22958 0.22832
 O1250 O 0.27164 0.27187 0.27048
 C1251 C 0.24753 0.21256 0.18842
 C1252 C 0.21297 0.18978 0.24817
 C1253 C 0.18877 0.24856 0.21189
 C1254 C 0.25352 0.28804 0.31040
 C1255 C 0.31104 0.25336 0.28699
 C1256 C 0.28796 0.31102 0.25163
 H1257 H 0.29089 0.22352 0.26305
 H1258 H 0.26363 0.29093 0.22167
 H1259 H 0.21930 0.22013 0.21908
 H1260 H 0.22338 0.26439 0.29041
 H1261 H 0.23466 0.22095 0.31064
 H1262 H 0.20240 0.23359 0.29718
 H1263 H 0.29569 0.28097 0.20545
 H1264 H 0.27059 0.26204 0.18404
 H1265 H 0.27822 0.21633 0.31457
 H1266 H 0.26745 0.17365 0.25113
 H1267 H 0.23813 0.31645 0.22893
 H1268 H 0.21735 0.29310 0.20560
 H1269 H 0.28436 0.18544 0.22064
 H1270 H 0.31709 0.23085 0.23765
 H1271 H 0.18572 0.27269 0.26033
 H1272 H 0.20821 0.29697 0.28237
 O1273 O 0.74718 0.70544 0.29395
 O1274 O 0.71275 0.70320 0.27367
 O1275 O 0.79658 0.70824 0.24461
 O1276 O 0.80354 0.72821 0.21416
 O1277 O 0.79524 0.75679 0.29630
 O1278 O 0.77295 0.78911 0.30222
 O1279 O 0.73977 0.76863 0.18785
 O1280 O 0.75613 0.73476 0.18458
 O1281 O 0.68822 0.76108 0.23363
 O1282 O 0.68847 0.74505 0.27365
 O1283 O 0.73278 0.81363 0.24103
 O1284 O 0.77104 0.81646 0.25527
 O1285 O 0.75238 0.79885 0.20588
 O1286 O 0.78509 0.80630 0.22741
 O1287 O 0.70276 0.79594 0.25403
 O1288 O 0.69524 0.77583 0.28487
 O1289 O 0.70591 0.74981 0.20268
 O1290 O 0.72624 0.71483 0.20029
 O1291 O 0.76043 0.73592 0.31123
 O1292 O 0.74558 0.77228 0.31482
 O1293 O 0.81184 0.74287 0.26575
 O1294 O 0.81351 0.75953 0.22905
 O1295 O 0.76646 0.69077 0.25813
 O1296 O 0.73044 0.68962 0.24116
 Zr1297 Zr 0.74271 0.71567 0.26100
 O1298 O 0.72168 0.73456 0.24106
 Zr1299 Zr 0.78693 0.74128 0.24185
 O1300 O 0.76760 0.76121 0.22133
 Zr1301 Zr 0.76204 0.76001 0.28670
 O1302 O 0.74135 0.78056 0.26818
 Zr1303 Zr 0.73847 0.74497 0.21285
 O1304 O 0.75893 0.72395 0.23146
 Zr1305 Zr 0.71323 0.76343 0.25776
 O1306 O 0.73265 0.74366 0.27880
 Zr1307 Zr 0.75716 0.78916 0.23875
 O1308 O 0.77900 0.77056 0.25855
 O1309 O 0.77141 0.73156 0.27049
 O1310 O 0.72835 0.77360 0.22879
 C1311 C 0.75426 0.71579 0.31110
 C1312 C 0.78640 0.69100 0.25121
 C1313 C 0.81210 0.74940 0.28590
 C1314 C 0.74597 0.78877 0.18836
 C1315 C 0.68849 0.75540 0.21317
 C1316 C 0.71273 0.81328 0.24760
 H1317 H 0.70866 0.72569 0.23712
 H1318 H 0.73748 0.79352 0.27721
 H1319 H 0.78096 0.72210 0.27962
 H1320 H 0.77612 0.76505 0.20805
 H1321 H 0.76415 0.72127 0.18877
 H1322 H 0.79686 0.73477 0.20086
 H1323 H 0.70588 0.78326 0.29470
 H1324 H 0.73144 0.76435 0.31568
 H1325 H 0.72027 0.71748 0.18530
 H1326 H 0.73190 0.67567 0.24935
 H1327 H 0.76232 0.81920 0.26874
 H1328 H 0.78380 0.79581 0.29217
 H1329 H 0.71538 0.68841 0.27984
 H1330 H 0.68285 0.73412 0.26295
 H1331 H 0.81478 0.77295 0.23818
 H1332 H 0.79249 0.79692 0.21635
 O1333 O 0.76742 0.18541 0.74188
 O1334 O 0.73192 0.18429 0.75973
 O1335 O 0.75806 0.23039 0.68876
 O1336 O 0.74688 0.26492 0.68407
 O1337 O 0.81280 0.23940 0.73435
 O1338 O 0.81505 0.25334 0.77118
 O1339 O 0.70282 0.29055 0.74719
 O1340 O 0.69886 0.27099 0.71434
 O1341 O 0.70668 0.24405 0.79782
 O1342 O 0.73131 0.20906 0.80168
 O1343 O 0.75227 0.29432 0.79458
 O1344 O 0.78640 0.30048 0.77296
 O1345 O 0.73346 0.30815 0.75942
 O1346 O 0.77137 0.31145 0.74578
 O1347 O 0.74141 0.26355 0.81246
 O1348 O 0.75424 0.22803 0.81699
 O1349 O 0.68973 0.25849 0.76779
 O1350 O 0.68750 0.23786 0.73225
 O1351 O 0.79752 0.20328 0.75502
 O1352 O 0.80387 0.22535 0.78699
 O1353 O 0.79481 0.25125 0.70382
 O1354 O 0.77218 0.28403 0.69902
 O1355 O 0.74675 0.19980 0.70672
 O1356 O 0.71317 0.19738 0.72764
 Zr1357 Zr 0.74340 0.21022 0.73957
 O1358 O 0.72238 0.22924 0.75957
 Zr1359 Zr 0.76189 0.25434 0.71363
 O1360 O 0.74166 0.27511 0.73253
 Zr1361 Zr 0.78779 0.23623 0.75811
 O1362 O 0.76865 0.25604 0.77910
 Zr1363 Zr 0.71374 0.25811 0.74308
 O1364 O 0.73273 0.23803 0.72195
 Zr1365 Zr 0.73957 0.23965 0.78763
 O1366 O 0.76007 0.21882 0.76880
 Zr1367 Zr 0.75790 0.28389 0.76187
 O1368 O 0.77930 0.26525 0.74161
 O1369 O 0.77195 0.22607 0.72954
 O1370 O 0.72938 0.26819 0.77194
 C1371 C 0.78738 0.18579 0.74890
 C1372 C 0.75187 0.21023 0.68911
 C1373 C 0.81241 0.24591 0.71421
 C1374 C 0.71315 0.30781 0.75359
 C1375 C 0.68983 0.25212 0.78792
 C1376 C 0.74630 0.28397 0.81198
 H1377 H 0.70920 0.22062 0.76340
 H1378 H 0.77738 0.25996 0.79229
 H1379 H 0.78137 0.21675 0.72006
 H1380 H 0.73753 0.28802 0.72363
 H1381 H 0.70175 0.26034 0.70232
 H1382 H 0.73364 0.27331 0.68829
 H1383 H 0.76965 0.23311 0.81703
 H1384 H 0.79386 0.21479 0.79412
 H1385 H 0.67371 0.24644 0.73345
 H1386 H 0.71567 0.18246 0.72160
 H1387 H 0.79221 0.29255 0.78590
 H1388 H 0.81488 0.26802 0.76432
 H1389 H 0.73328 0.17025 0.75156
 H1390 H 0.71641 0.20511 0.79651
 H1391 H 0.78396 0.29008 0.70852
 H1392 H 0.76302 0.31365 0.73195
 C1393 C 0.08711 1.01473 1.14298
 C1394 C 0.08750 1.03545 1.15301
 C1395 C 0.09744 1.03793 1.17370
 C1396 C 0.10704 1.01986 1.18473
 C1397 C 0.10633 0.99908 1.17419
 C1398 C 0.09652 0.99650 1.15335
 C1399 C 0.07633 1.01204 1.12133
 C1400 C 0.07592 0.99131 1.11117
 C1401 C 0.06515 0.98880 1.09078
 C1402 C 0.05443 1.00678 1.08108
 C1403 C 0.05526 1.02744 1.09130
 C1404 C 0.06633 1.03022 1.11136
 C1405 C 0.09596 0.97603 1.14261
 C1406 C 0.08589 0.97349 1.12187
 C1407 C 0.07771 1.05333 1.14228
 C1408 C 0.06731 1.05075 1.12179
 H1409 H 0.10327 0.96181 1.15035
 H1410 H 0.08571 0.95740 1.11426
 H1411 H 0.07797 1.06945 1.14983
 H1412 H 0.05996 1.06492 1.11407
 H1413 H 0.09666 1.05389 1.18150
 H1414 H 0.11410 0.98498 1.18165
 H1415 H 0.06439 0.97286 1.08289
 H1416 H 0.04722 1.04128 1.08361
 C1417 C 0.58186 0.51314 0.64669
 C1418 C 0.59885 0.49853 0.65215
 C1419 C 0.60965 0.50090 0.67251
 C1420 C 0.60382 0.51801 0.68702
 C1421 C 0.58686 0.53255 0.68121
 C1422 C 0.57568 0.53008 0.66115
 C1423 C 0.57030 0.51066 0.62543
 C1424 C 0.55300 0.52497 0.62029
 C1425 C 0.54182 0.52238 0.60029
 C1426 C 0.54802 0.50589 0.58520
 C1427 C 0.56567 0.49187 0.59039
 C1428 C 0.57672 0.49403 0.61068
 C1429 C 0.55843 0.54421 0.65530
 C1430 C 0.54720 0.54162 0.63525
 C1431 C 0.60472 0.48200 0.63706
 C1432 C 0.59393 0.47986 0.61664
 H1433 H 0.55350 0.55731 0.66634
 H1434 H 0.53389 0.55276 0.63141
 H1435 H 0.61784 0.47066 0.64102
 H1436 H 0.59903 0.46693 0.60548
 H1437 H 0.62282 0.48977 0.67693
 H1438 H 0.58225 0.54563 0.69245
 H1439 H 0.52841 0.53339 0.59634
 H1440 H 0.57047 0.47910 0.57890
 C1441 C 0.41741 -0.01510 0.64257
 C1442 C 0.40125 0.00014 0.64881
 C1443 C 0.39086 -0.00216 0.66933
 C1444 C 0.39629 -0.01978 0.68324
 C1445 C 0.41241 -0.03496 0.67663
 C1446 C 0.42315 -0.03261 0.65639
 C1447 C 0.42861 -0.01264 0.62119
 C1448 C 0.44512 -0.02759 0.61527
 C1449 C 0.45605 -0.02496 0.59521
 C1450 C 0.45041 -0.00773 0.58088
 C1451 C 0.43348 0.00688 0.58679
 C1452 C 0.42268 0.00464 0.60714
 C1453 C 0.43957 -0.04737 0.64975
 C1454 C 0.45045 -0.04485 0.62956
 C1455 C 0.39580 0.01727 0.63438
 C1456 C 0.40626 0.01942 0.61386
 H1457 H 0.44415 -0.06092 0.66028
 H1458 H 0.46312 -0.05652 0.62510
 H1459 H 0.38332 0.02909 0.63896
 H1460 H 0.40154 0.03285 0.60323
 H1461 H 0.37833 0.00946 0.67433
 H1462 H 0.41675 -0.04842 0.68741
 H1463 H 0.46888 -0.03645 0.59064
 H1464 H 0.42912 0.02020 0.57586
 C1465 C -0.08198 0.48591 1.14483
 C1466 C -0.09834 0.50100 1.15088
 C1467 C -0.10885 0.49869 1.17133
 C1468 C -0.10334 0.48120 1.18536
 C1469 C -0.08700 0.46617 1.17896
 C1470 C -0.07613 0.46854 1.15879
 C1471 C -0.07072 0.48832 1.12348
 C1472 C -0.05403 0.47350 1.11773
 C1473 C -0.04309 0.47606 1.09766
 C1474 C -0.04892 0.49308 1.08316
 C1475 C -0.06599 0.50758 1.08893
 C1476 C -0.07679 0.50543 1.10927
 C1477 C -0.05951 0.45391 1.15232
 C1478 C -0.04858 0.45640 1.13217
 C1479 C -0.10391 0.51797 1.13630
 C1480 C -0.09339 0.52008 1.11581
 H1481 H -0.05486 0.44047 1.16297
 H1482 H -0.03577 0.44483 1.12785
 H1483 H -0.11655 0.52968 1.14073
 H1484 H -0.09822 0.53337 1.10505
 H1485 H -0.12156 0.51019 1.17618
 H1486 H -0.08261 0.45280 1.18982
 H1487 H -0.03015 0.46466 1.09319
 H1488 H -0.07049 0.52074 1.07785
 C1489 C -0.08437 0.51684 0.35698
 C1490 C -0.09600 0.49928 0.34765
 C1491 C -0.10593 0.50187 0.32690
 C1492 C -0.10492 0.52213 0.31567
 C1493 C -0.09332 0.53963 0.32569
 C1494 C -0.08280 0.53697 0.34607
 C1495 C -0.07340 0.51403 0.37850
 C1496 C -0.06093 0.53131 0.38731
 C1497 C -0.04986 0.52830 0.40733
 C1498 C -0.05168 0.50841 0.41878
 C1499 C -0.06474 0.49143 0.41013
 C1500 C -0.07536 0.49403 0.38971
 C1501 C -0.07050 0.55402 0.35563
 C1502 C -0.05962 0.55119 0.37583
 C1503 C -0.09756 0.47949 0.35932
 C1504 C -0.08755 0.47696 0.38006
 H1505 H -0.06911 0.56963 0.34733
 H1506 H -0.05010 0.56466 0.38251
 H1507 H -0.10661 0.46583 0.35238
 H1508 H -0.08915 0.46144 0.38848
 H1509 H -0.11523 0.48833 0.32007
 H1510 H -0.09146 0.55510 0.31723
 H1511 H -0.03989 0.54143 0.41410
 H1512 H -0.06596 0.47604 0.41890
 C1513 C 0.41593 1.01527 -0.14470
 C1514 C 0.40430 0.99782 -0.15425
 C1515 C 0.39446 1.00063 -0.17501
 C1516 C 0.39561 1.02098 -0.18608
 C1517 C 0.40722 1.03835 -0.17585
 C1518 C 0.41759 1.03550 -0.15542
 C1519 C 0.42681 1.01224 -0.12318
 C1520 C 0.43926 1.02944 -0.11415
 C1521 C 0.45028 1.02621 -0.09415
 C1522 C 0.44849 1.00617 -0.08296
 C1523 C 0.43543 0.98929 -0.09180
 C1524 C 0.42483 0.99212 -0.11219
 C1525 C 0.42985 1.05246 -0.14564
 C1526 C 0.44062 1.04943 -0.12541
 C1527 C 0.40267 0.97793 -0.14278
 C1528 C 0.41264 0.97517 -0.12205
 H1529 H 0.43130 1.06814 -0.15378
 H1530 H 0.45009 1.06284 -0.11854
 H1531 H 0.39362 0.96435 -0.14989
 H1532 H 0.41101 0.95956 -0.11380
 H1533 H 0.38513 0.98718 -0.18198
 H1534 H 0.40921 1.05388 -0.18417
 H1535 H 0.46024 1.03926 -0.08721
 H1536 H 0.43422 0.97380 -0.08321
 C1537 C 0.58370 0.48328 -0.14192
 C1538 C 0.60137 0.49709 -0.14705
 C1539 C 0.61182 0.49476 -0.16756
 C1540 C 0.60495 0.47843 -0.18251
 C1541 C 0.58736 0.46463 -0.17701
 C1542 C 0.57651 0.46713 -0.15683
 C1543 C 0.57243 0.48583 -0.12056
 C1544 C 0.55435 0.47246 -0.11580
 C1545 C 0.54332 0.47530 -0.09580
 C1546 C 0.55048 0.49100 -0.08029
 C1547 C 0.56895 0.50400 -0.08508
 C1548 C 0.57982 0.50168 -0.10540
 C1549 C 0.55855 0.45386 -0.15130
 C1550 C 0.54756 0.45658 -0.13118
 C1551 C 0.60825 0.51283 -0.13153
 C1552 C 0.59774 0.51500 -0.11102
 H1553 H 0.55284 0.44137 -0.16268
 H1554 H 0.53364 0.44616 -0.12763
 H1555 H 0.62191 0.52353 -0.13525
 H1556 H 0.60360 0.52732 -0.09953
 H1557 H 0.62549 0.50529 -0.17178
 H1558 H 0.58201 0.45214 -0.18860
 H1559 H 0.52915 0.46522 -0.09228
 H1560 H 0.57446 0.51622 -0.07330
 C1561 C 0.08165 -0.01506 0.35606
 C1562 C 0.09885 -0.00083 0.35049
 C1563 C 0.10916 -0.00323 0.32992
 C1564 C 0.10263 -0.02000 0.31530
 C1565 C 0.08544 -0.03415 0.32121
 C1566 C 0.07477 -0.03165 0.34149
 C1567 C 0.07060 -0.01254 0.37754
 C1568 C 0.05308 -0.02645 0.38278
 C1569 C 0.04229 -0.02371 0.40294
 C1570 C 0.04905 -0.00746 0.41804
 C1571 C 0.06697 0.00610 0.41276
 C1572 C 0.07766 0.00378 0.39234
 C1573 C 0.05732 -0.04539 0.34747
 C1574 C 0.04658 -0.04275 0.36773
 C1575 C 0.10541 0.01537 0.36566
 C1576 C 0.09507 0.01757 0.38626
 H1577 H 0.05184 -0.05821 0.33635
 H1578 H 0.03306 -0.05355 0.37164
 H1579 H 0.11870 0.02641 0.36161
 H1580 H 0.10067 0.03026 0.39747
 H1581 H 0.12253 0.00757 0.32543
 H1582 H 0.08031 -0.04698 0.30991
 H1583 H 0.02863 -0.03431 0.40691
 H1584 H 0.07218 0.01873 0.42423
 C1585 C 0.14324 1.08307 1.01053
 C1586 C 0.14435 1.10258 1.02275
 C1587 C 0.16472 1.11283 1.02567
 C1588 C 0.18401 1.10402 1.01609
 C1589 C 0.18225 1.08474 1.00318
 C1590 C 0.16205 1.07401 1.00075
 C1591 C 0.12203 1.07166 1.00830
 C1592 C 0.12117 1.05151 0.99709
 C1593 C 0.10118 1.04026 0.99585
 C1594 C 0.08211 1.04935 1.00519
 C1595 C 0.08302 1.06983 1.01583
 C1596 C 0.10310 1.08091 1.01778
 C1597 C 0.16041 1.05408 0.98919
 C1598 C 0.14035 1.04293 0.98754
 C1599 C 0.12507 1.11138 1.03195
 C1600 C 0.10476 1.10081 1.02938
 H1601 H 0.17483 1.04688 0.98163
 H1602 H 0.13985 1.02745 0.97875
 H1603 H 0.12570 1.12653 1.04131
 H1604 H 0.09031 1.10809 1.03681
 H1605 H 0.16532 1.12806 1.03489
 H1606 H 0.19676 1.07721 0.99614
 H1607 H 0.10038 1.02451 0.98756
 H1608 H 0.06831 1.07669 1.02320
 C1609 C 0.64240 0.58217 0.50932
 C1610 C 0.64278 0.60423 0.51596
 C1611 C 0.66307 0.61469 0.51884
 C1612 C 0.68276 0.60329 0.51480
 C1613 C 0.68210 0.58135 0.50767
 C1614 C 0.66193 0.57061 0.50516
 C1615 C 0.62116 0.57082 0.50715
 C1616 C 0.62085 0.54852 0.50142
 C1617 C 0.60070 0.53757 0.50026
 C1618 C 0.58096 0.54885 0.50442
 C1619 C 0.58147 0.57134 0.50958
 C1620 C 0.60161 0.58236 0.51127
 C1621 C 0.66092 0.54843 0.49900
 C1622 C 0.64072 0.53754 0.49727
 C1623 C 0.62289 0.61528 0.51984
 C1624 C 0.60264 0.60455 0.51743
 H1625 H 0.67587 0.53935 0.49576
 H1626 H 0.64065 0.52034 0.49276
 H1627 H 0.62298 0.63232 0.52489
 H1628 H 0.58768 0.61363 0.52069
 H1629 H 0.66362 0.63164 0.52423
 H1630 H 0.69729 0.57252 0.50478
 H1631 H 0.60035 0.52027 0.49613
 H1632 H 0.56631 0.58003 0.51300
 C1633 C 0.64183 0.41462 -0.00944
 C1634 C 0.64257 0.39484 -0.02123
 C1635 C 0.66284 0.38438 -0.02434
 C1636 C 0.68240 0.39325 -0.01534
 C1637 C 0.68102 0.41282 -0.00283
 C1638 C 0.66091 0.42375 -0.00024
 C1639 C 0.62070 0.42622 -0.00703
 C1640 C 0.62018 0.44661 0.00375
 C1641 C 0.60025 0.45801 0.00516
 C1642 C 0.58091 0.44884 -0.00355
 C1643 C 0.58151 0.42813 -0.01375
 C1644 C 0.60151 0.41689 -0.01590
 C1645 C 0.65961 0.44394 0.01090
 C1646 C 0.63962 0.45527 0.01271
 C1647 C 0.62304 0.38597 -0.02983
 C1648 C 0.60283 0.39674 -0.02708
 H1649 H 0.67424 0.45122 0.01800
 H1650 H 0.63939 0.47094 0.02115
 H1651 H 0.62339 0.37062 -0.03886
 H1652 H 0.58818 0.38938 -0.03404
 H1653 H 0.66317 0.36895 -0.03323
 H1654 H 0.69571 0.42041 0.00376
 H1655 H 0.59971 0.47394 0.01312
 H1656 H 0.56660 0.42120 -0.02065
 C1657 C 0.14240 -0.08233 0.48944
 C1658 C 0.14257 -0.10435 0.48267
 C1659 C 0.16277 -0.11503 0.47974
 C1660 C 0.18260 -0.10389 0.48385
 C1661 C 0.18213 -0.08197 0.49108
 C1662 C 0.16206 -0.07102 0.49367
 C1663 C 0.12127 -0.07076 0.49178
 C1664 C 0.12118 -0.04852 0.49774
 C1665 C 0.10113 -0.03739 0.49922
 C1666 C 0.08122 -0.04841 0.49513
 C1667 C 0.08152 -0.07084 0.48965
 C1668 C 0.10157 -0.08205 0.48766
 C1669 C 0.16126 -0.04888 0.50000
 C1670 C 0.14116 -0.03779 0.50191
 C1671 C 0.12255 -0.11513 0.47875
 C1672 C 0.10240 -0.10420 0.48131
 H1673 H 0.17631 -0.03999 0.50327
 H1674 H 0.14127 -0.02064 0.50660
 H1675 H 0.12247 -0.13214 0.47358
 H1676 H 0.08735 -0.11309 0.47805
 H1677 H 0.16314 -0.13196 0.47428
 H1678 H 0.19740 -0.07332 0.49401
 H1679 H 0.10098 -0.02016 0.50364
 H1680 H 0.06624 -0.07935 0.48632
 C1681 C 0.35722 -0.08469 0.50737
 C1682 C 0.33786 -0.07543 0.49897
 C1683 C 0.31785 -0.08634 0.50202
 C1684 C 0.31687 -0.10601 0.51423
 C1685 C 0.33669 -0.11501 0.52244
 C1686 C 0.35685 -0.10458 0.51883
 C1687 C 0.37824 -0.07310 0.50451
 C1688 C 0.39767 -0.08254 0.51263
 C1689 C 0.41755 -0.07128 0.51018
 C1690 C 0.41787 -0.05043 0.50045
 C1691 C 0.39829 -0.04112 0.49246
 C1692 C 0.37842 -0.05256 0.49416
 C1693 C 0.37664 -0.11356 0.52665
 C1694 C 0.39673 -0.10280 0.52347
 C1695 C 0.33879 -0.05512 0.48818
 C1696 C 0.35870 -0.04380 0.48598
 H1697 H 0.37659 -0.12899 0.53541
 H1698 H 0.41160 -0.11022 0.52986
 H1699 H 0.32394 -0.04775 0.48169
 H1700 H 0.35864 -0.02802 0.47786
 H1701 H 0.30295 -0.07865 0.49606
 H1702 H 0.33665 -0.13049 0.53109
 H1703 H 0.43261 -0.07829 0.51661
 H1704 H 0.39859 -0.02506 0.48491
 C1705 C -0.14283 0.41586 1.00734
 C1706 C -0.16264 0.42735 1.00454
 C1707 C -0.18258 0.41627 1.00727
 C1708 C -0.18275 0.39405 1.01330
 C1709 C -0.16277 0.38271 1.01589
 C1710 C -0.14272 0.39352 1.01276
 C1711 C -0.12182 0.42758 1.00508
 C1712 C -0.10199 0.41612 1.00785
 C1713 C -0.08206 0.42747 1.00609
 C1714 C -0.08196 0.45020 1.00224
 C1715 C -0.10199 0.46140 0.99943
 C1716 C -0.12197 0.45014 1.00064
 C1717 C -0.12256 0.38257 1.01530
 C1718 C -0.10253 0.39366 1.01276
 C1719 C -0.16211 0.44980 0.99962
 C1720 C -0.14211 0.46103 0.99781
 H1721 H -0.12225 0.36532 1.01941
 H1722 H -0.08736 0.38463 1.01494
 H1723 H -0.17728 0.45884 0.99745
 H1724 H -0.14242 0.47841 0.99429
 H1725 H -0.19796 0.42508 1.00556
 H1726 H -0.16291 0.36557 1.02049
 H1727 H -0.06670 0.41877 1.00838
 H1728 H -0.10201 0.47887 0.99629
 C1729 C -0.14321 0.58392 0.48909
 C1730 C -0.16247 0.57467 0.49755
 C1731 C -0.18248 0.58568 0.49477
 C1732 C -0.18358 0.60554 0.48287
 C1733 C -0.16386 0.61452 0.47455
 C1734 C -0.14369 0.60392 0.47782
 C1735 C -0.12217 0.57226 0.49174
 C1736 C -0.10282 0.58169 0.48357
 C1737 C -0.08290 0.57040 0.48595
 C1738 C -0.08247 0.54958 0.49575
 C1739 C -0.10198 0.54028 0.50375
 C1740 C -0.12188 0.55170 0.50205
 C1741 C -0.12398 0.61287 0.46989
 C1742 C -0.10386 0.60200 0.47284
 C1743 C -0.16144 0.55429 0.50820
 C1744 C -0.14150 0.54293 0.51027
 H1745 H -0.12412 0.62837 0.46127
 H1746 H -0.08907 0.60941 0.46640
 H1747 H -0.17622 0.54693 0.51474
 H1748 H -0.14147 0.52713 0.51834
 H1749 H -0.19731 0.57797 0.50076
 H1750 H -0.16397 0.63012 0.46612
 H1751 H -0.06790 0.57739 0.47954
 H1752 H -0.10158 0.52426 0.51138
 C1753 C 0.35748 1.08253 -0.01162
 C1754 C 0.33805 1.07252 -0.00447
 C1755 C 0.31809 1.08379 -0.00653
 C1756 C 0.31721 1.10455 -0.01675
 C1757 C 0.33705 1.11425 -0.02385
 C1758 C 0.35720 1.10351 -0.02095
 C1759 C 0.37849 1.07067 -0.00964
 C1760 C 0.39803 1.08097 -0.01614
 C1761 C 0.41795 1.06957 -0.01429
 C1762 C 0.41821 1.04775 -0.00693
 C1763 C 0.39848 1.03764 -0.00056
 C1764 C 0.37859 1.04917 -0.00153
 C1765 C 0.37708 1.11329 -0.02728
 C1766 C 0.39718 1.10231 -0.02466
 C1767 C 0.33890 1.05119 0.00410
 C1768 C 0.35880 1.03962 0.00534
 H1769 H 0.37710 1.12957 -0.03429
 H1770 H 0.41213 1.11048 -0.02961
 H1771 H 0.32400 1.04323 0.00958
 H1772 H 0.35869 1.02309 0.01174
 H1773 H 0.30312 1.07569 -0.00147
 H1774 H 0.33698 1.13049 -0.03100
 H1775 H 0.43313 1.07739 -0.01912
 H1776 H 0.39869 1.02092 0.00539
 C1777 C 0.01054 1.14329 1.08404
 C1778 C 0.02094 1.14428 1.10467
 C1779 C 0.02421 1.16472 1.11478
 C1780 C 0.01624 1.18414 1.10491
 C1781 C 0.00495 1.18257 1.08457
 C1782 C 0.00264 1.16231 1.07381
 C1783 C 0.00819 1.12196 1.07279
 C1784 C -0.00092 1.12115 1.05152
 C1785 C -0.00211 1.10097 1.04046
 C1786 C 0.00505 1.08163 1.05083
 C1787 C 0.01328 1.08259 1.07250
 C1788 C 0.01536 1.10282 1.08339
 C1789 C -0.00698 1.16075 1.05277
 C1790 C -0.00850 1.14055 1.04171
 C1791 C 0.02787 1.12479 1.11480
 C1792 C 0.02482 1.10439 1.10447
 H1793 H -0.01306 1.17532 1.04463
 H1794 H -0.01569 1.14012 1.02536
 H1795 H 0.03566 1.12529 1.13087
 H1796 H 0.03017 1.08976 1.11295
 H1797 H 0.03223 1.16536 1.13073
 H1798 H -0.00084 1.19722 1.07637
 H1799 H -0.00873 1.10024 1.02386
 H1800 H 0.01873 1.06775 1.08055
 C1801 C 0.50902 0.64364 0.58458
 C1802 C 0.51598 0.64406 0.60668
 C1803 C 0.51951 0.66432 0.61708
 C1804 C 0.51577 0.68397 0.60560
 C1805 C 0.50841 0.68327 0.58362
 C1806 C 0.50525 0.66312 0.57292
 C1807 C 0.50599 0.62241 0.57332
 C1808 C 0.49989 0.62204 0.55099
 C1809 C 0.49789 0.60185 0.54011
 C1810 C 0.50158 0.58213 0.55150
 C1811 C 0.50710 0.58275 0.57405
 C1812 C 0.50964 0.60290 0.58498
 C1813 C 0.49874 0.66207 0.55072
 C1814 C 0.49622 0.64186 0.53990
 C1815 C 0.51941 0.62421 0.61782
 C1816 C 0.51619 0.60398 0.60719
 H1817 H 0.49581 0.67698 0.54155
 H1818 H 0.49144 0.64176 0.52268
 H1819 H 0.52470 0.62431 0.63489
 H1820 H 0.51909 0.58907 0.61636
 H1821 H 0.52507 0.66488 0.63406
 H1822 H 0.50573 0.69841 0.57472
 H1823 H 0.49352 0.60146 0.52278
 H1824 H 0.51015 0.56764 0.58284
 C1825 C -0.01346 0.64325 0.41887
 C1826 C 0.00035 0.64805 0.40101
 C1827 C -0.00159 0.66847 0.39056
 C1828 C -0.01755 0.68361 0.39764
 C1829 C -0.03126 0.67852 0.41549
 C1830 C -0.02916 0.65844 0.42632
 C1831 C -0.01151 0.62190 0.42997
 C1832 C -0.02498 0.61741 0.44813
 C1833 C -0.02280 0.59735 0.45892
 C1834 C -0.00764 0.58153 0.45146
 C1835 C 0.00550 0.58610 0.43295
 C1836 C 0.00381 0.60644 0.42229
 C1837 C -0.04251 0.65322 0.44438
 C1838 C -0.04036 0.63309 0.45520
 C1839 C 0.01559 0.63224 0.39387
 C1840 C 0.01722 0.61175 0.40425
 H1841 H -0.05465 0.66483 0.45027
 H1842 H -0.05086 0.62974 0.46917
 H1843 H 0.02629 0.63569 0.38007
 H1844 H 0.02914 0.60002 0.39818
 H1845 H 0.00883 0.67241 0.37666
 H1846 H -0.04351 0.69026 0.42092
 H1847 H -0.03299 0.59403 0.47312
 H1848 H 0.01731 0.57408 0.42718
 C1849 C 0.48712 1.14016 -0.08496
 C1850 C 0.50585 1.15111 -0.09254
 C1851 C 0.50357 1.17191 -0.10215
 C1852 C 0.48260 1.18174 -0.10457
 C1853 C 0.46405 1.17016 -0.09672
 C1854 C 0.46622 1.14957 -0.08695
 C1855 C 0.48944 1.11853 -0.07446
 C1856 C 0.47069 1.10796 -0.06628
 C1857 C 0.47305 1.08787 -0.05552
 C1858 C 0.49386 1.07825 -0.05318
 C1859 C 0.51246 1.08858 -0.06204
 C1860 C 0.51036 1.10898 -0.07249
 C1861 C 0.44781 1.13830 -0.07890
 C1862 C 0.45002 1.11784 -0.06873
 C1863 C 0.52651 1.14098 -0.09042
 C1864 C 0.52871 1.12026 -0.08063
 H1865 H 0.43156 1.14541 -0.08038
 H1866 H 0.43544 1.10972 -0.06269
 H1867 H 0.54112 1.14918 -0.09630
 H1868 H 0.54495 1.11311 -0.07922
 H1869 H 0.51810 1.17987 -0.10849
 H1870 H 0.44785 1.17747 -0.09718
 H1871 H 0.45875 1.07967 -0.04891
 H1872 H 0.52851 1.08112 -0.06010
 C1873 C 0.51144 0.35562 -0.08137
 C1874 C 0.50230 0.33668 -0.07217
 C1875 C 0.50514 0.31649 -0.08293
 C1876 C 0.51777 0.31488 -0.10244
 C1877 C 0.52672 0.33432 -0.11137
 C1878 C 0.52343 0.35465 -0.10105
 C1879 C 0.50871 0.37685 -0.06998
 C1880 C 0.51756 0.39587 -0.07939
 C1881 C 0.51508 0.41597 -0.06838
 C1882 C 0.50447 0.41693 -0.04783
 C1883 C 0.49582 0.39772 -0.03854
 C1884 C 0.49762 0.37765 -0.04972
 C1885 C 0.53203 0.37403 -0.10998
 C1886 C 0.52904 0.39432 -0.09939
 C1887 C 0.49091 0.33822 -0.05209
 C1888 C 0.48875 0.35833 -0.04097
 H1889 H 0.54123 0.37352 -0.12524
 H1890 H 0.53601 0.40884 -0.10678
 H1891 H 0.48384 0.32371 -0.04476
 H1892 H 0.48008 0.35875 -0.02540
 H1893 H 0.49858 0.30191 -0.07527
 H1894 H 0.53568 0.33387 -0.12677
 H1895 H 0.52202 0.43070 -0.07535
 H1896 H 0.48759 0.39849 -0.02272
 C1897 C 0.00898 -0.14236 0.41690
 C1898 C 0.00665 -0.16185 0.42890
 C1899 C 0.00938 -0.18199 0.41809
 C1900 C 0.01495 -0.18269 0.39561
 C1901 C 0.01723 -0.16305 0.38377
 C1902 C 0.01405 -0.14278 0.39433
 C1903 C 0.00646 -0.12112 0.42830
 C1904 C 0.00861 -0.10161 0.41631
 C1905 C 0.00647 -0.08144 0.42734
 C1906 C 0.00287 -0.08079 0.45026
 C1907 C 0.00067 -0.10055 0.46196
 C1908 C 0.00227 -0.12075 0.45104
 C1909 C 0.01603 -0.12293 0.38286
 C1910 C 0.01322 -0.10270 0.39364
 C1911 C 0.00203 -0.16079 0.45156
 C1912 C -0.00001 -0.14057 0.46247
 H1913 H 0.01985 -0.12302 0.36543
 H1914 H 0.01490 -0.08780 0.38419
 H1915 H 0.00023 -0.17570 0.46099
 H1916 H -0.00332 -0.14047 0.48001
 H1917 H 0.00787 -0.19712 0.42725
 H1918 H 0.02145 -0.16361 0.36643
 H1919 H 0.00822 -0.06633 0.41824
 H1920 H -0.00232 -0.10021 0.47957
 C1921 C 0.48819 -0.14403 0.58033
 C1922 C 0.47184 -0.15879 0.57350
 C1923 C 0.46919 -0.17844 0.58493
 C1924 C 0.48298 -0.18355 0.60280
 C1925 C 0.49958 -0.16885 0.60926
 C1926 C 0.50209 -0.14884 0.59820
 C1927 C 0.49069 -0.12308 0.56863
 C1928 C 0.50659 -0.10797 0.57580
 C1929 C 0.50862 -0.08789 0.56475
 C1930 C 0.49522 -0.08325 0.54638
 C1931 C 0.47955 -0.09874 0.53936
 C1932 C 0.47704 -0.11854 0.55055
 C1933 C 0.51797 -0.13344 0.60475
 C1934 C 0.52010 -0.11330 0.59382
 C1935 C 0.45839 -0.15356 0.55543
 C1936 C 0.46103 -0.13381 0.54406
 H1937 H 0.52874 -0.13691 0.61854
 H1938 H 0.53246 -0.10183 0.59949
 H1939 H 0.44575 -0.16485 0.55001
 H1940 H 0.45038 -0.13042 0.53015
 H1941 H 0.45647 -0.18987 0.57996
 H1942 H 0.51009 -0.17279 0.62314
 H1943 H 0.52075 -0.07606 0.57020
 H1944 H 0.46903 -0.09522 0.52538
 C1945 C -0.01339 0.35629 1.08125
 C1946 C 0.00459 0.34641 1.09178
 C1947 C 0.00178 0.32601 1.10205
 C1948 C -0.01908 0.31580 1.10252
 C1949 C -0.03688 0.32628 1.09184
 C1950 C -0.03408 0.34627 1.08104
 C1951 C -0.01049 0.37750 1.07012
 C1952 C -0.02835 0.38689 1.05890
 C1953 C -0.02542 0.40671 1.04787
 C1954 C -0.00501 0.41741 1.04842
 C1955 C 0.01264 0.40819 1.06016
 C1956 C 0.01006 0.38793 1.07078
 C1957 C -0.05161 0.35633 1.06989
 C1958 C -0.04876 0.37625 1.05888
 C1959 C 0.02495 0.35725 1.09199
 C1960 C 0.02761 0.37772 1.08180
 H1961 H -0.06766 0.34869 1.06956
 H1962 H -0.06266 0.38342 1.05036
 H1963 H 0.03895 0.34988 1.10016
 H1964 H 0.04356 0.38552 1.08240
 H1965 H 0.01564 0.31874 1.11053
 H1966 H -0.05284 0.31850 1.09099
 H1967 H -0.03906 0.41400 1.03902
 H1968 H 0.02838 0.41646 1.06048
 C1969 C 0.76515 0.33366 0.10690
 C1970 C 0.74732 0.34492 0.09762
 C1971 C 0.74971 0.35468 0.07683
 C1972 C 0.77003 0.35388 0.06555
 C1973 C 0.78777 0.34257 0.07549
 C1974 C 0.78532 0.33225 0.09590
 C1975 C 0.76260 0.32292 0.12848
 C1976 C 0.78017 0.31083 0.13725
 C1977 C 0.77741 0.29997 0.15732
 C1978 C 0.75747 0.30159 0.16886
 C1979 C 0.74019 0.31429 0.16026
 C1980 C 0.74255 0.32471 0.13979
 C1981 C 0.80265 0.32031 0.10540
 C1982 C 0.80007 0.30965 0.12566
 C1983 C 0.72750 0.34632 0.10939
 C1984 C 0.72520 0.33651 0.13017
 H1985 H 0.81830 0.31905 0.09701
 H1986 H 0.81376 0.30043 0.13231
 H1987 H 0.71363 0.35508 0.10248
 H1988 H 0.70963 0.33798 0.13867
 H1989 H 0.73598 0.36372 0.07003
 H1990 H 0.80328 0.34082 0.06696
 H1991 H 0.79076 0.29026 0.16404
 H1992 H 0.72476 0.31534 0.16907
 C1993 C 0.26474 0.83202 0.60617
 C1994 C 0.28206 0.82595 0.59216
 C1995 C 0.28433 0.83646 0.57183
 C1996 C 0.26929 0.85273 0.56535
 C1997 C 0.25181 0.85845 0.57942
 C1998 C 0.24958 0.84826 0.60001
 C1999 C 0.26243 0.82114 0.62769
 C2000 C 0.24532 0.82738 0.64192
 C2001 C 0.24316 0.81682 0.66234
 C2002 C 0.25767 0.79981 0.66818
 C2003 C 0.27477 0.79389 0.65373
 C2004 C 0.27732 0.80458 0.63355
 C2005 C 0.23264 0.85404 0.61463
 C2006 C 0.23060 0.84384 0.63526
 C2007 C 0.29677 0.80949 0.59874
 C2008 C 0.29439 0.79891 0.61907
 H2009 H 0.22088 0.86658 0.61012
 H2010 H 0.21730 0.84880 0.64603
 H2011 H 0.31019 0.80467 0.58806
 H2012 H 0.30600 0.78620 0.62348
 H2013 H 0.29770 0.83193 0.56094
 H2014 H 0.24032 0.87111 0.57451
 H2015 H 0.22991 0.82135 0.67337
 H2016 H 0.28615 0.78098 0.65825
 C2017 C 0.74003 0.66518 0.60579
 C2018 C 0.73234 0.64351 0.60546
 C2019 C 0.72870 0.63312 0.58509
 C2020 C 0.73304 0.64420 0.56527
 C2021 C 0.74107 0.66578 0.56591
 C2022 C 0.74439 0.67644 0.58613
 C2023 C 0.74324 0.67643 0.62710
 C2024 C 0.75013 0.69836 0.62735
 C2025 C 0.75230 0.70927 0.64758
 C2026 C 0.74792 0.69835 0.66748
 C2027 C 0.74160 0.67618 0.66702
 C2028 C 0.73894 0.66520 0.64679
 C2029 C 0.75168 0.69823 0.58709
 C2030 C 0.75441 0.70905 0.60736
 C2031 C 0.72830 0.63276 0.62548
 C2032 C 0.73163 0.64339 0.64580
 H2033 H 0.75508 0.70708 0.57204
 H2034 H 0.75980 0.72595 0.60738
 H2035 H 0.72243 0.61602 0.62545
 H2036 H 0.72822 0.63455 0.66086
 H2037 H 0.72265 0.61643 0.58460
 H2038 H 0.74421 0.67439 0.55065
 H2039 H 0.75730 0.72631 0.64785
 H2040 H 0.73798 0.66777 0.68229
 C2041 C 0.24045 0.16629 0.10601
 C2042 C 0.23338 0.14441 0.10584
 C2043 C 0.23011 0.13375 0.08557
 C2044 C 0.23417 0.14478 0.06566
 C2045 C 0.24169 0.16655 0.06612
 C2046 C 0.24462 0.17748 0.08627
 C2047 C 0.24313 0.17784 0.12724
 C2048 C 0.24936 0.19996 0.12734
 C2049 C 0.25106 0.21111 0.14749
 C2050 C 0.24690 0.20022 0.16746
 C2051 C 0.24121 0.17787 0.16714
 C2052 C 0.23902 0.16666 0.14700
 C2053 C 0.25125 0.19949 0.08708
 C2054 C 0.25348 0.21058 0.10727
 C2055 C 0.22951 0.13373 0.12594
 C2056 C 0.23238 0.14464 0.14617
 H2057 H 0.25449 0.20830 0.07197
 H2058 H 0.25837 0.22763 0.10717
 H2059 H 0.22412 0.11682 0.12602
 H2060 H 0.22911 0.13584 0.16128
 H2061 H 0.22445 0.11693 0.08520
 H2062 H 0.24462 0.17509 0.05077
 H2063 H 0.25558 0.22828 0.14766
 H2064 H 0.23779 0.16947 0.18245
 C2065 C 0.26458 0.17052 0.89468
 C2066 C 0.24976 0.15379 0.90010
 C2067 C 0.25202 0.14304 0.92040
 C2068 C 0.26923 0.14867 0.93488
 C2069 C 0.28389 0.16549 0.92919
 C2070 C 0.28156 0.17658 0.90917
 C2071 C 0.26238 0.18183 0.87336
 C2072 C 0.27702 0.19876 0.86817
 C2073 C 0.27476 0.20963 0.84804
 C2074 C 0.25823 0.20349 0.83296
 C2075 C 0.24388 0.18623 0.83821
 C2076 C 0.24575 0.17547 0.85857
 C2077 C 0.29596 0.19351 0.90331
 C2078 C 0.29367 0.20448 0.88318
 C2079 C 0.23320 0.14800 0.88498
 C2080 C 0.23129 0.15859 0.86453
 H2081 H 0.30910 0.19833 0.91438
 H2082 H 0.30508 0.21750 0.87929
 H2083 H 0.22170 0.13509 0.88893
 H2084 H 0.21835 0.15356 0.85333
 H2085 H 0.24084 0.12995 0.92470
 H2086 H 0.29707 0.16990 0.94040
 H2087 H 0.28603 0.22274 0.84400
 H2088 H 0.23108 0.18151 0.82670
 C2089 C 0.76327 0.67046 0.39349
 C2090 C 0.74861 0.65357 0.39886
 C2091 C 0.75098 0.64277 0.41912
 C2092 C 0.76815 0.64852 0.43359
 C2093 C 0.78268 0.66545 0.42795
 C2094 C 0.78023 0.67660 0.40798
 C2095 C 0.76091 0.68187 0.37226
 C2096 C 0.77536 0.69898 0.36715
 C2097 C 0.77293 0.70997 0.34711
 C2098 C 0.75644 0.70375 0.33203
 C2099 C 0.74228 0.68631 0.33719
 C2100 C 0.74430 0.67544 0.35748
 C2101 C 0.79445 0.69369 0.40219
 C2102 C 0.79200 0.70477 0.38214
 C2103 C 0.73208 0.64770 0.38375
 C2104 C 0.73002 0.65839 0.36337
 H2105 H 0.80757 0.69858 0.41326
 H2106 H 0.80327 0.71793 0.37831
 H2107 H 0.72070 0.63466 0.38765
 H2108 H 0.71711 0.65330 0.35216
 H2109 H 0.73990 0.62959 0.42342
 H2110 H 0.79581 0.66996 0.43918
 H2111 H 0.78407 0.72320 0.34312
 H2112 H 0.72951 0.68152 0.32567
 C2113 C 0.23829 0.83264 0.39319
 C2114 C 0.23122 0.85455 0.39337
 C2115 C 0.22796 0.86518 0.41366
 C2116 C 0.23209 0.85412 0.43357
 C2117 C 0.23952 0.83230 0.43308
 C2118 C 0.24241 0.82138 0.41292
 C2119 C 0.24108 0.82115 0.37194
 C2120 C 0.24733 0.79901 0.37183
 C2121 C 0.24916 0.78792 0.35165
 C2122 C 0.24516 0.79890 0.33168
 C2123 C 0.23946 0.82126 0.33201
 C2124 C 0.23710 0.83241 0.35217
 C2125 C 0.24904 0.79935 0.41210
 C2126 C 0.25135 0.78832 0.39190
 C2127 C 0.22743 0.86529 0.37327
 C2128 C 0.23042 0.85444 0.35302
 H2129 H 0.25225 0.79050 0.42721
 H2130 H 0.25624 0.77125 0.39200
 H2131 H 0.22205 0.88221 0.37319
 H2132 H 0.22725 0.86330 0.33790
 H2133 H 0.22236 0.88204 0.41403
 H2134 H 0.24250 0.82372 0.44842
 H2135 H 0.25368 0.77073 0.35146
 H2136 H 0.23614 0.82972 0.31668
 C2137 C 0.73756 0.32998 0.89439
 C2138 C 0.73036 0.35184 0.89451
 C2139 C 0.72711 0.36253 0.91476
 C2140 C 0.73137 0.35157 0.93470
 C2141 C 0.73894 0.32981 0.93429
 C2142 C 0.74183 0.31883 0.91416
 C2143 C 0.74041 0.31845 0.87318
 C2144 C 0.74688 0.29637 0.87313
 C2145 C 0.74891 0.28528 0.85298
 C2146 C 0.74490 0.29619 0.83297
 C2147 C 0.73890 0.31847 0.83325
 C2148 C 0.73634 0.32962 0.85338
 C2149 C 0.74863 0.29685 0.91341
 C2150 C 0.75101 0.28577 0.89323
 C2151 C 0.72644 0.36249 0.87438
 C2152 C 0.72949 0.35160 0.85416
 H2153 H 0.75195 0.28807 0.92854
 H2154 H 0.75608 0.26875 0.89337
 H2155 H 0.72095 0.37937 0.87425
 H2156 H 0.72624 0.36040 0.83902
 H2157 H 0.72141 0.37936 0.91509
 H2158 H 0.74205 0.32133 0.94966
 H2159 H 0.75370 0.26816 0.85285
 H2160 H 0.73560 0.32689 0.81789
 C2161 C 0.83241 0.39391 0.24179
 C2162 C 0.82093 0.41366 0.24490
 C2163 C 0.83212 0.43356 0.24259
 C2164 C 0.85444 0.43376 0.23670
 C2165 C 0.86576 0.41383 0.23378
 C2166 C 0.85484 0.39382 0.23646
 C2167 C 0.82059 0.37295 0.24366
 C2168 C 0.83205 0.35318 0.24063
 C2169 C 0.82065 0.33329 0.24220
 C2170 C 0.79788 0.33318 0.24618
 C2171 C 0.78666 0.35317 0.24915
 C2172 C 0.79797 0.37309 0.24810
 C2173 C 0.86577 0.37372 0.23360
 C2174 C 0.85459 0.35374 0.23577
 C2175 C 0.79840 0.41311 0.24974
 C2176 C 0.78709 0.39317 0.25122
 H2177 H 0.88309 0.37342 0.22956
 H2178 H 0.86362 0.33862 0.23338
 H2179 H 0.78937 0.42824 0.25214
 H2180 H 0.76965 0.39347 0.25474
 H2181 H 0.82332 0.44890 0.24456
 H2182 H 0.88299 0.41399 0.22930
 H2183 H 0.82935 0.31798 0.23979
 H2184 H 0.76917 0.35319 0.25241
 C2185 C 0.33278 0.89328 0.74117
 C2186 C 0.32091 0.91297 0.74279
 C2187 C 0.33196 0.93291 0.74014
 C2188 C 0.35453 0.93315 0.73532
 C2189 C 0.36623 0.91331 0.73383
 C2190 C 0.35545 0.89328 0.73696
 C2191 C 0.32115 0.87225 0.74346
 C2192 C 0.33300 0.85254 0.74199
 C2193 C 0.32177 0.83258 0.74388
 C2194 C 0.29880 0.83229 0.74656
 C2195 C 0.28722 0.85224 0.74807
 C2196 C 0.29833 0.87226 0.74672
 C2197 C 0.36677 0.87324 0.73567
 C2198 C 0.35576 0.85322 0.73831
 C2199 C 0.29817 0.91231 0.74654
 C2200 C 0.28705 0.89229 0.74836
 H2201 H 0.38428 0.87302 0.73254
 H2202 H 0.36510 0.83816 0.73720
 H2203 H 0.28885 0.92739 0.74778
 H2204 H 0.26946 0.89249 0.75096
 H2205 H 0.32292 0.94820 0.74103
 H2206 H 0.38364 0.91354 0.73014
 H2207 H 0.33080 0.81732 0.74269
 H2208 H 0.26957 0.85217 0.75037
 C2209 C 0.16458 0.89141 0.25707
 C2210 C 0.17409 0.91058 0.24875
 C2211 C 0.16326 0.93066 0.25171
 C2212 C 0.14341 0.93193 0.26375
 C2213 C 0.13412 0.91228 0.27179
 C2214 C 0.14450 0.89205 0.26831
 C2215 C 0.17614 0.87033 0.25442
 C2216 C 0.16649 0.85110 0.26252
 C2217 C 0.17774 0.83116 0.26031
 C2218 C 0.19878 0.83058 0.25081
 C2219 C 0.20827 0.84996 0.24282
 C2220 C 0.19686 0.86988 0.24430
 C2221 C 0.13529 0.87246 0.27609
 C2222 C 0.14604 0.85231 0.27312
 C2223 C 0.19458 0.90938 0.23819
 C2224 C 0.20585 0.88940 0.23616
 H2225 H 0.11971 0.87272 0.28468
 H2226 H 0.13845 0.83761 0.27950
 H2227 H 0.20214 0.92407 0.23176
 H2228 H 0.22177 0.88925 0.22822
 H2229 H 0.17118 0.94541 0.24587
 H2230 H 0.11849 0.91253 0.28029
 H2231 H 0.17057 0.81627 0.26673
 H2232 H 0.22447 0.84947 0.23545
 C2233 C 0.66750 0.39016 0.75961
 C2234 C 0.64500 0.39043 0.76463
 C2235 C 0.63439 0.41063 0.76771
 C2236 C 0.64610 0.43035 0.76542
 C2237 C 0.66848 0.42980 0.75980
 C2238 C 0.67936 0.40972 0.75716
 C2239 C 0.67899 0.36899 0.75735
 C2240 C 0.70166 0.36876 0.75327
 C2241 C 0.71266 0.34864 0.75193
 C2242 C 0.70111 0.32882 0.75428
 C2243 C 0.67826 0.32931 0.75782
 C2244 C 0.66716 0.34941 0.75969
 C2245 C 0.70194 0.40880 0.75262
 C2246 C 0.71294 0.38866 0.75082
 C2247 C 0.63369 0.37051 0.76679
 C2248 C 0.64455 0.35035 0.76422
 H2249 H 0.71126 0.42377 0.75073
 H2250 H 0.73042 0.38867 0.74758
 H2251 H 0.61631 0.37050 0.77058
 H2252 H 0.63523 0.33538 0.76605
 H2253 H 0.61712 0.41108 0.77199
 H2254 H 0.67755 0.44499 0.75831
 H2255 H 0.73022 0.34840 0.74899
 H2256 H 0.66928 0.31414 0.75969
 C2257 C 0.66765 0.60618 0.74390
 C2258 C 0.64530 0.60603 0.73814
 C2259 C 0.63456 0.58589 0.73532
 C2260 C 0.64600 0.56608 0.73849
 C2261 C 0.66823 0.56653 0.74482
 C2262 C 0.67922 0.58655 0.74729
 C2263 C 0.67930 0.62726 0.74585
 C2264 C 0.70186 0.62733 0.75065
 C2265 C 0.71306 0.64733 0.75159
 C2266 C 0.70181 0.66719 0.74809
 C2267 C 0.67906 0.66689 0.74383
 C2268 C 0.66777 0.64690 0.74240
 C2269 C 0.70168 0.58733 0.75256
 C2270 C 0.71283 0.60737 0.75411
 C2271 C 0.63427 0.62601 0.73496
 C2272 C 0.64529 0.64610 0.73716
 H2273 H 0.71079 0.57231 0.75520
 H2274 H 0.73023 0.60724 0.75791
 H2275 H 0.61701 0.62612 0.73059
 H2276 H 0.63621 0.66113 0.73443
 H2277 H 0.61741 0.58555 0.73052
 H2278 H 0.67713 0.55130 0.74699
 H2279 H 0.73053 0.64746 0.75503
 H2280 H 0.67036 0.68211 0.74092
 C2281 C 0.16716 0.10766 0.24422
 C2282 C 0.14491 0.10734 0.23809
 C2283 C 0.13442 0.08712 0.23502
 C2284 C 0.14600 0.06742 0.23828
 C2285 C 0.16807 0.06802 0.24510
 C2286 C 0.17884 0.08813 0.24782
 C2287 C 0.17861 0.12883 0.24625
 C2288 C 0.20111 0.12908 0.25133
 C2289 C 0.21216 0.14916 0.25222
 C2290 C 0.20082 0.16890 0.24838
 C2291 C 0.17813 0.16843 0.24390
 C2292 C 0.16699 0.14837 0.24251
 C2293 C 0.20121 0.08909 0.25342
 C2294 C 0.21218 0.10923 0.25505
 C2295 C 0.13377 0.12721 0.23468
 C2296 C 0.14460 0.14739 0.23696
 H2297 H 0.21039 0.07415 0.25622
 H2298 H 0.22953 0.10924 0.25907
 H2299 H 0.11659 0.12717 0.23002
 H2300 H 0.13545 0.16233 0.23402
 H2301 H 0.11739 0.08663 0.22980
 H2302 H 0.17705 0.05284 0.24735
 H2303 H 0.22960 0.14944 0.25584
 H2304 H 0.16937 0.18357 0.24075
 C2305 C 0.33478 0.10918 0.75580
 C2306 C 0.35709 0.10898 0.76173
 C2307 C 0.36775 0.08882 0.76468
 C2308 C 0.35629 0.06905 0.76146
 C2309 C 0.33411 0.06955 0.75493
 C2310 C 0.32319 0.08959 0.75233
 C2311 C 0.32318 0.13029 0.75376
 C2312 C 0.30065 0.13042 0.74883
 C2313 C 0.28948 0.15047 0.74785
 C2314 C 0.30076 0.17028 0.75140
 C2315 C 0.32348 0.16991 0.75578
 C2316 C 0.33473 0.14990 0.75729
 C2317 C 0.30077 0.09042 0.74692
 C2318 C 0.28966 0.11050 0.74529
 C2319 C 0.36813 0.12893 0.76499
 C2320 C 0.35717 0.14906 0.76270
 H2321 H 0.29165 0.07541 0.74423
 H2322 H 0.27229 0.11041 0.74139
 H2323 H 0.38536 0.12900 0.76950
 H2324 H 0.36625 0.16406 0.76549
 H2325 H 0.38486 0.08843 0.76967
 H2326 H 0.32519 0.05433 0.75275
 H2327 H 0.27202 0.15068 0.74432
 H2328 H 0.33221 0.18512 0.75872
 C2329 C 0.83297 0.60927 0.25701
 C2330 C 0.85544 0.60933 0.26230
 C2331 C 0.86628 0.58931 0.26555
 C2332 C 0.85484 0.56942 0.26319
 C2333 C 0.83248 0.56964 0.25732
 C2334 C 0.82138 0.58954 0.25448
 C2335 C 0.82123 0.63026 0.25462
 C2336 C 0.79856 0.63018 0.25033
 C2337 C 0.78729 0.65016 0.24899
 C2338 C 0.79860 0.67010 0.25154
 C2339 C 0.82144 0.66992 0.25526
 C2340 C 0.83279 0.65001 0.25713
 C2341 C 0.79881 0.59013 0.24969
 C2342 C 0.78756 0.61011 0.24777
 C2343 C 0.86648 0.62941 0.26458
 C2344 C 0.85538 0.64940 0.26191
 H2345 H 0.78969 0.57502 0.24773
 H2346 H 0.77009 0.60985 0.24437
 H2347 H 0.88383 0.62968 0.26858
 H2348 H 0.86448 0.66451 0.26390
 H2349 H 0.88353 0.58913 0.27004
 H2350 H 0.82361 0.55432 0.25578
 H2351 H 0.76973 0.65020 0.24598
 H2352 H 0.83020 0.68523 0.25741
 C2353 C 0.89242 0.26300 0.16712
 C2354 C 0.89765 0.24845 0.14989
 C2355 C 0.91800 0.25046 0.13919
 C2356 C 0.93266 0.26720 0.14538
 C2357 C 0.92716 0.28159 0.16267
 C2358 C 0.90714 0.27948 0.17371
 C2359 C 0.87110 0.26106 0.17841
 C2360 C 0.86614 0.27539 0.19587
 C2361 C 0.84605 0.27329 0.20679
 C2362 C 0.83075 0.25727 0.20019
 C2363 C 0.83577 0.24326 0.18235
 C2364 C 0.85610 0.24494 0.17155
 C2365 C 0.90148 0.29362 0.19113
 C2366 C 0.88136 0.29153 0.20210
 C2367 C 0.88230 0.23242 0.14359
 C2368 C 0.86184 0.23076 0.15416
 H2369 H 0.91273 0.30637 0.19636
 H2370 H 0.87767 0.30268 0.21554
 H2371 H 0.88607 0.22113 0.13029
 H2372 H 0.85047 0.21821 0.14873
 H2373 H 0.92222 0.23949 0.12574
 H2374 H 0.93853 0.29442 0.16745
 H2375 H 0.84225 0.28426 0.22035
 H2376 H 0.82411 0.23083 0.17724
 C2377 C 0.39281 0.76460 0.66760
 C2378 C 0.40656 0.78224 0.67314
 C2379 C 0.42670 0.78447 0.66235
 C2380 C 0.43330 0.76904 0.64640
 C2381 C 0.41954 0.75123 0.64121
 C2382 C 0.39908 0.74907 0.65163
 C2383 C 0.37146 0.76236 0.67876
 C2384 C 0.35746 0.74497 0.67301
 C2385 C 0.33716 0.74293 0.68379
 C2386 C 0.33125 0.75783 0.70057
 C2387 C 0.34552 0.77514 0.70605
 C2388 C 0.36553 0.77760 0.69509
 C2389 C 0.38468 0.73184 0.64636
 C2390 C 0.36419 0.72988 0.65679
 C2391 C 0.39991 0.79731 0.68937
 C2392 C 0.37978 0.79495 0.70025
 H2393 H 0.38927 0.71979 0.63403
 H2394 H 0.35358 0.71637 0.65221
 H2395 H 0.41040 0.81096 0.69378
 H2396 H 0.37531 0.80682 0.71278
 H2397 H 0.43738 0.79810 0.66643
 H2398 H 0.42459 0.73944 0.62880
 H2399 H 0.32627 0.72951 0.67959
 H2400 H 0.34097 0.78678 0.71877
 C2401 C 0.39665 0.23945 0.83078
 C2402 C 0.41124 0.22303 0.82372
 C2403 C 0.43100 0.21998 0.83512
 C2404 C 0.43635 0.23336 0.85326
 C2405 C 0.42185 0.25010 0.85990
 C2406 C 0.40176 0.25305 0.84882
 C2407 C 0.37552 0.24227 0.81920
 C2408 C 0.36057 0.25823 0.82659
 C2409 C 0.34028 0.26052 0.81569
 C2410 C 0.33524 0.24725 0.79729
 C2411 C 0.35058 0.23148 0.79008
 C2412 C 0.37061 0.22878 0.80106
 C2413 C 0.38652 0.26903 0.85558
 C2414 C 0.36624 0.27150 0.84472
 C2415 C 0.40568 0.20982 0.80554
 C2416 C 0.38573 0.21271 0.79434
 H2417 H 0.39021 0.27959 0.86950
 H2418 H 0.35491 0.28392 0.85057
 H2419 H 0.41682 0.19712 0.79994
 H2420 H 0.38206 0.20219 0.78038
 H2421 H 0.44224 0.20715 0.82998
 H2422 H 0.42594 0.26029 0.87400
 H2423 H 0.32859 0.27271 0.82131
 H2424 H 0.34677 0.22099 0.77612
 C2425 C 0.89396 0.73861 0.33214
 C2426 C 0.90785 0.72120 0.32613
 C2427 C 0.92764 0.71825 0.33750
 C2428 C 0.93377 0.73277 0.35447
 C2429 C 0.91989 0.75037 0.36013
 C2430 C 0.89975 0.75321 0.34915
 C2431 C 0.87293 0.74156 0.32041
 C2432 C 0.85871 0.75861 0.32671
 C2433 C 0.83858 0.76114 0.31558
 C2434 C 0.83306 0.74707 0.29796
 C2435 C 0.84764 0.73019 0.29183
 C2436 C 0.86746 0.72722 0.30311
 C2437 C 0.88520 0.77020 0.35488
 C2438 C 0.86498 0.77277 0.34394
 C2439 C 0.90168 0.70709 0.30886
 C2440 C 0.88187 0.71012 0.29746
 H2441 H 0.88942 0.78153 0.36801
 H2442 H 0.85421 0.78602 0.34895
 H2443 H 0.91229 0.69363 0.30407
 H2444 H 0.87775 0.69894 0.28417
 H2445 H 0.93843 0.70481 0.33305
 H2446 H 0.92460 0.76148 0.37331
 H2447 H 0.82743 0.77418 0.32034
 H2448 H 0.84338 0.71910 0.27849
 C2449 C 0.10534 0.76272 0.33173
 C2450 C 0.10026 0.74909 0.34960
 C2451 C 0.07999 0.75171 0.36033
 C2452 C 0.06526 0.76816 0.35356
 C2453 C 0.07068 0.78174 0.33574
 C2454 C 0.09060 0.77896 0.32461
 C2455 C 0.12650 0.75998 0.32027
 C2456 C 0.13125 0.77328 0.30210
 C2457 C 0.15117 0.77044 0.29104
 C2458 C 0.16660 0.75480 0.29826
 C2459 C 0.16178 0.74180 0.31676
 C2460 C 0.14155 0.74415 0.32767
 C2461 C 0.09608 0.79208 0.30649
 C2462 C 0.11601 0.78919 0.29533
 C2463 C 0.11563 0.73329 0.35643
 C2464 C 0.13597 0.73095 0.34574
 H2465 H 0.08482 0.80462 0.30083
 H2466 H 0.11956 0.79955 0.28133
 H2467 H 0.11195 0.72272 0.37023
 H2468 H 0.14737 0.71863 0.35160
 H2469 H 0.07584 0.74135 0.37417
 H2470 H 0.05924 0.79432 0.33047
 H2471 H 0.15480 0.78064 0.27694
 H2472 H 0.17355 0.72968 0.32234
 C2473 C 0.60754 0.26140 0.83354
 C2474 C 0.60202 0.24676 0.85044
 C2475 C 0.58168 0.24905 0.86113
 C2476 C 0.56729 0.26614 0.85526
 C2477 C 0.57311 0.28064 0.83831
 C2478 C 0.59313 0.27826 0.82727
 C2479 C 0.62884 0.25911 0.82222
 C2480 C 0.63406 0.27349 0.80504
 C2481 C 0.65408 0.27104 0.79404
 C2482 C 0.66907 0.25460 0.80029
 C2483 C 0.66381 0.24053 0.81785
 C2484 C 0.64352 0.24257 0.82873
 C2485 C 0.59906 0.29245 0.81014
 C2486 C 0.61914 0.29003 0.79913
 C2487 C 0.61707 0.23032 0.85642
 C2488 C 0.63749 0.22832 0.84582
 H2489 H 0.58805 0.30548 0.80515
 H2490 H 0.62304 0.30122 0.78590
 H2491 H 0.61306 0.21895 0.86946
 H2492 H 0.64861 0.21545 0.85098
 H2493 H 0.57726 0.23798 0.87431
 H2494 H 0.56195 0.29372 0.83371
 H2495 H 0.65806 0.28203 0.78067
 H2496 H 0.67521 0.22775 0.82266
 C2497 C 0.60724 0.74017 0.66701
 C2498 C 0.58783 0.74476 0.67864
 C2499 C 0.56753 0.74189 0.66810
 C2500 C 0.56658 0.73401 0.64629
 C2501 C 0.58616 0.72948 0.63484
 C2502 C 0.60659 0.73270 0.64509
 C2503 C 0.62862 0.74284 0.67815
 C2504 C 0.64806 0.73830 0.66654
 C2505 C 0.66835 0.74046 0.67738
 C2506 C 0.66913 0.74651 0.69980
 C2507 C 0.64947 0.75111 0.71112
 C2508 C 0.62919 0.74946 0.70033
 C2509 C 0.62637 0.72841 0.63397
 C2510 C 0.64676 0.73126 0.64448
 C2511 C 0.58910 0.75179 0.70069
 C2512 C 0.60944 0.75399 0.71139
 H2513 H 0.62609 0.72271 0.61703
 H2514 H 0.66161 0.72767 0.63535
 H2515 H 0.57425 0.75536 0.70983
 H2516 H 0.60969 0.75918 0.72849
 H2517 H 0.55245 0.74517 0.67700
 H2518 H 0.58544 0.72353 0.61798
 H2519 H 0.68342 0.73669 0.66867
 H2520 H 0.65000 0.75590 0.72835
 C2521 C 0.10591 0.24093 0.16691
 C2522 C 0.08641 0.24521 0.17851
 C2523 C 0.06615 0.24208 0.16792
 C2524 C 0.06537 0.23422 0.14610
 C2525 C 0.08505 0.23004 0.13467
 C2526 C 0.10541 0.23353 0.14497
 C2527 C 0.12725 0.24386 0.17808
 C2528 C 0.14677 0.23963 0.16649
 C2529 C 0.16702 0.24202 0.17736
 C2530 C 0.16770 0.24798 0.19981
 C2531 C 0.14797 0.25227 0.21111
 C2532 C 0.12770 0.25040 0.20029
 C2533 C 0.12526 0.22956 0.13386
 C2534 C 0.14559 0.23266 0.14440
 C2535 C 0.08757 0.25218 0.20059
 C2536 C 0.10787 0.25462 0.21133
 H2537 H 0.12508 0.22391 0.11690
 H2538 H 0.16050 0.22930 0.13528
 H2539 H 0.07266 0.25552 0.20972
 H2540 H 0.10803 0.25975 0.22845
 H2541 H 0.05100 0.24514 0.17677
 H2542 H 0.08445 0.22413 0.11780
 H2543 H 0.18214 0.23847 0.16865
 H2544 H 0.14841 0.25698 0.22837
 C2545 C -0.08360 1.00699 0.85883
 C2546 C -0.07553 0.99660 0.83985
 C2547 C -0.08609 1.00008 0.81960
 C2548 C -0.10455 1.01415 0.81797
 C2549 C -0.11235 1.02434 0.83748
 C2550 C -0.10202 1.02075 0.85784
 C2551 C -0.07231 1.00365 0.88010
 C2552 C -0.08038 1.01408 0.89910
 C2553 C -0.06929 1.01132 0.91917
 C2554 C -0.05002 0.99853 0.92027
 C2555 C -0.04232 0.98796 0.90107
 C2556 C -0.05345 0.99043 0.88095
 C2557 C -0.10975 1.03073 0.87726
 C2558 C -0.09914 1.02741 0.89755
 C2559 C -0.05679 0.98322 0.84140
 C2560 C -0.04590 0.98023 0.86159
 H2561 H -0.12404 1.04131 0.87676
 H2562 H -0.10554 1.03555 0.91209
 H2563 H -0.05036 0.97512 0.82685
 H2564 H -0.03139 0.96995 0.86202
 H2565 H -0.07905 0.99261 0.80501
 H2566 H -0.12693 1.03450 0.83717
 H2567 H -0.07532 1.01966 0.93376
 H2568 H -0.02757 0.97802 0.90170
 C2569 C 0.41638 0.50824 0.35875
 C2570 C 0.42681 0.50216 0.33904
 C2571 C 0.41631 0.50637 0.31890
 C2572 C 0.39560 0.51671 0.31838
 C2573 C 0.38540 0.52273 0.33832
 C2574 C 0.39570 0.51847 0.35857
 C2575 C 0.42746 0.50407 0.37998
 C2576 C 0.41712 0.51033 0.39967
 C2577 C 0.42800 0.50699 0.41976
 C2578 C 0.44925 0.49773 0.42030
 C2579 C 0.45918 0.49112 0.40035
 C2580 C 0.44835 0.49429 0.38015
 C2581 C 0.38578 0.52428 0.37865
 C2582 C 0.39630 0.52026 0.39886
 C2583 C 0.44758 0.49213 0.33987
 C2584 C 0.45818 0.48829 0.36007
 H2585 H 0.36981 0.53212 0.37875
 H2586 H 0.38815 0.52516 0.41396
 H2587 H 0.45578 0.48734 0.32476
 H2588 H 0.47428 0.48071 0.35996
 H2589 H 0.42438 0.50191 0.30361
 H2590 H 0.36936 0.53045 0.33806
 H2591 H 0.42013 0.51222 0.43491
 H2592 H 0.47548 0.48398 0.40047
 C2593 C 0.58334 -0.00676 0.35580
 C2594 C 0.57524 0.00332 0.33672
 C2595 C 0.58596 -0.00026 0.31657
 C2596 C 0.60454 -0.01423 0.31517
 C2597 C 0.61233 -0.02412 0.33476
 C2598 C 0.60192 -0.02035 0.35500
 C2599 C 0.57195 -0.00330 0.37697
 C2600 C 0.58014 -0.01338 0.39603
 C2601 C 0.56901 -0.01053 0.41599
 C2602 C 0.54951 0.00195 0.41700
 C2603 C 0.54163 0.01217 0.39774
 C2604 C 0.55288 0.00966 0.37768
 C2605 C 0.60973 -0.02998 0.37450
 C2606 C 0.59906 -0.02650 0.39468
 C2607 C 0.55631 0.01649 0.33811
 C2608 C 0.54528 0.01954 0.35822
 H2609 H 0.62414 -0.04041 0.37414
 H2610 H 0.60553 -0.03436 0.40930
 H2611 H 0.54985 0.02434 0.32349
 H2612 H 0.53063 0.02962 0.35850
 H2613 H 0.57900 0.00701 0.30189
 H2614 H 0.62700 -0.03416 0.33458
 H2615 H 0.57521 -0.01864 0.43060
 H2616 H 0.52670 0.02184 0.39831
 C2617 C 0.08293 0.49349 0.85725
 C2618 C 0.07233 0.49889 0.83743
 C2619 C 0.08304 0.49481 0.81739
 C2620 C 0.10410 0.48521 0.81710
 C2621 C 0.11449 0.47992 0.83713
 C2622 C 0.10400 0.48409 0.85728
 C2623 C 0.07159 0.49740 0.87837
 C2624 C 0.08212 0.49179 0.89815
 C2625 C 0.07101 0.49480 0.91813
 C2626 C 0.04934 0.50305 0.91847
 C2627 C 0.03922 0.50906 0.89845
 C2628 C 0.05028 0.50624 0.87835
 C2629 C 0.11409 0.47895 0.87744
 C2630 C 0.10335 0.48276 0.89754
 C2631 C 0.05115 0.50805 0.83807
 C2632 C 0.04029 0.51162 0.85817
 H2633 H 0.13038 0.47177 0.87769
 H2634 H 0.11164 0.47838 0.91272
 H2635 H 0.04281 0.51231 0.82288
 H2636 H 0.02388 0.51848 0.85791
 H2637 H 0.07486 0.49872 0.80201
 H2638 H 0.13080 0.47276 0.83702
 H2639 H 0.07905 0.49007 0.93334
 H2640 H 0.02260 0.51543 0.89843
 C2641 C 0.08201 0.50875 0.64340
 C2642 C 0.10296 0.51835 0.64337
 C2643 C 0.11362 0.52234 0.66350
 C2644 C 0.10350 0.51671 0.68352
 C2645 C 0.08256 0.50692 0.68324
 C2646 C 0.07169 0.50298 0.66321
 C2647 C 0.07053 0.50494 0.62230
 C2648 C 0.04939 0.49579 0.62233
 C2649 C 0.03827 0.49286 0.60224
 C2650 C 0.04817 0.49904 0.58222
 C2651 C 0.06962 0.50777 0.58256
 C2652 C 0.08080 0.51087 0.60253
 C2653 C 0.05064 0.49360 0.66258
 C2654 C 0.03966 0.49009 0.64249
 C2655 C 0.11277 0.52386 0.62322
 C2656 C 0.10189 0.52016 0.60313
 H2657 H 0.04252 0.48907 0.67776
 H2658 H 0.02337 0.48299 0.64275
 H2659 H 0.12895 0.53121 0.62297
 H2660 H 0.10997 0.52479 0.58796
 H2661 H 0.12983 0.52964 0.66360
 H2662 H 0.07458 0.50276 0.69862
 H2663 H 0.02182 0.48611 0.60226
 H2664 H 0.07748 0.51264 0.56735
 C2665 C 0.58182 1.00934 0.14175
 C2666 C 0.60254 1.01942 0.14182
 C2667 C 0.61306 1.02355 0.16199
 C2668 C 0.60303 1.01762 0.18198
 C2669 C 0.58229 1.00740 0.18158
 C2670 C 0.57158 1.00328 0.16151
 C2671 C 0.57051 1.00530 0.12060
 C2672 C 0.54961 0.99561 0.12054
 C2673 C 0.53866 0.99240 0.10041
 C2674 C 0.54846 0.99886 0.08043
 C2675 C 0.56966 1.00818 0.08086
 C2676 C 0.58068 1.01153 0.10088
 C2677 C 0.55077 0.99338 0.16079
 C2678 C 0.53996 0.98964 0.14065
 C2679 C 0.61228 1.02523 0.12171
 C2680 C 0.60154 1.02133 0.10158
 H2681 H 0.54271 0.98862 0.17593
 H2682 H 0.52386 0.98212 0.14084
 H2683 H 0.62828 1.03295 0.12154
 H2684 H 0.60955 1.02620 0.08645
 H2685 H 0.62913 1.03118 0.16216
 H2686 H 0.57436 1.00301 0.19692
 H2687 H 0.52239 0.98521 0.10036
 H2688 H 0.57743 1.01328 0.06568
 C2689 C 0.41726 0.49122 0.14453
 C2690 C 0.39662 0.48098 0.14461
 C2691 C 0.38614 0.47711 0.16478
 C2692 C 0.39613 0.48347 0.18475
 C2693 C 0.41678 0.49387 0.18435
 C2694 C 0.42745 0.49772 0.16428
 C2695 C 0.42855 0.49493 0.12340
 C2696 C 0.44940 0.50474 0.12334
 C2697 C 0.46037 0.50758 0.10323
 C2698 C 0.45064 0.50063 0.08327
 C2699 C 0.42948 0.49124 0.08369
 C2700 C 0.41844 0.48825 0.10369
 C2701 C 0.44819 0.50774 0.16356
 C2702 C 0.45899 0.51117 0.14344
 C2703 C 0.38693 0.47473 0.12451
 C2704 C 0.39765 0.47832 0.10439
 H2705 H 0.45622 0.51285 0.17868
 H2706 H 0.47505 0.51878 0.14363
 H2707 H 0.37099 0.46687 0.12433
 H2708 H 0.38968 0.47310 0.08927
 H2709 H 0.37015 0.46933 0.16495
 H2710 H 0.42468 0.49859 0.19967
 H2711 H 0.47661 0.51483 0.10319
 H2712 H 0.42176 0.48576 0.06853
 C2713 C -0.08162 -0.01013 0.64417
 C2714 C -0.09980 -0.02419 0.64480
 C2715 C -0.11007 -0.02834 0.66501
 C2716 C -0.10257 -0.01832 0.68472
 C2717 C -0.08433 -0.00396 0.68351
 C2718 C -0.07375 -0.00000 0.66339
 C2719 C -0.07048 -0.00612 0.62300
 C2720 C -0.05185 0.00742 0.62244
 C2721 C -0.04093 0.01063 0.60233
 C2722 C -0.04871 0.00058 0.58287
 C2723 C -0.06770 -0.01260 0.58376
 C2724 C -0.07850 -0.01615 0.60377
 C2725 C -0.05523 0.01368 0.66217
 C2726 C -0.04443 0.01726 0.64207
 C2727 C -0.10740 -0.03385 0.62515
 C2728 C -0.09697 -0.02984 0.60497
 H2729 H -0.04894 0.02157 0.67691
 H2730 H -0.03012 0.02778 0.64190
 H2731 H -0.12149 -0.04466 0.62537
 H2732 H -0.10331 -0.03769 0.59022
 H2733 H -0.12447 -0.03871 0.66503
 H2734 H -0.07755 0.00341 0.69829
 H2735 H -0.02638 0.02083 0.60185
 H2736 H -0.07377 -0.02062 0.56898
 C2737 C -0.14252 0.91718 1.01146
 C2738 C -0.16121 0.92501 1.00050
 C2739 C -0.18136 0.91440 1.00353
 C2740 C -0.18318 0.89613 1.01774
 C2741 C -0.16399 0.88861 1.02858
 C2742 C -0.14371 0.89897 1.02541
 C2743 C -0.12132 0.92842 1.00847
 C2744 C -0.10259 0.92051 1.01937
 C2745 C -0.08255 0.93144 1.01673
 C2746 C -0.08123 0.95038 1.00360
 C2747 C -0.10019 0.95801 0.99268
 C2748 C -0.12026 0.94703 0.99499
 C2749 C -0.12457 0.89145 1.03594
 C2750 C -0.10434 0.90200 1.03293
 C2751 C -0.15945 0.94353 0.98693
 C2752 C -0.13934 0.95439 0.98427
 H2753 H -0.12523 0.87734 1.04668
 H2754 H -0.09000 0.89573 1.04143
 H2755 H -0.17379 0.94978 0.97840
 H2756 H -0.13874 0.96870 0.97379
 H2757 H -0.19575 0.92123 0.99559
 H2758 H -0.16445 0.87419 1.03888
 H2759 H -0.06812 0.92549 1.02534
 H2760 H -0.09936 0.97249 0.98244
 C2761 C 0.35598 0.41709 0.50951
 C2762 C 0.33646 0.42748 0.50300
 C2763 C 0.31634 0.41711 0.50688
 C2764 C 0.31564 0.39655 0.51731
 C2765 C 0.33539 0.38634 0.52372
 C2766 C 0.35563 0.39654 0.51982
 C2767 C 0.37717 0.42810 0.50578
 C2768 C 0.39667 0.41782 0.51253
 C2769 C 0.41672 0.42867 0.50964
 C2770 C 0.41734 0.44981 0.50034
 C2771 C 0.39761 0.45964 0.49323
 C2772 C 0.37748 0.44887 0.49595
 C2773 C 0.37551 0.38666 0.52610
 C2774 C 0.39569 0.39711 0.52250
 C2775 C 0.33744 0.44813 0.49291
 C2776 C 0.35761 0.45866 0.48947
 H2777 H 0.37547 0.37077 0.53399
 H2778 H 0.41064 0.38901 0.52776
 H2779 H 0.32248 0.45630 0.48778
 H2780 H 0.35763 0.47467 0.48184
 H2781 H 0.30119 0.42518 0.50213
 H2782 H 0.33498 0.37041 0.53153
 H2783 H 0.43172 0.42090 0.51524
 H2784 H 0.39782 0.47585 0.48601
 C2785 C 0.35635 0.58164 -0.01003
 C2786 C 0.33675 0.57135 -0.00375
 C2787 C 0.31670 0.58197 -0.00758
 C2788 C 0.31614 0.60270 -0.01769
 C2789 C 0.33597 0.61281 -0.02384
 C2790 C 0.35614 0.60234 -0.02002
 C2791 C 0.37747 0.57040 -0.00630
 C2792 C 0.39705 0.58060 -0.01275
 C2793 C 0.41706 0.56963 -0.00967
 C2794 C 0.41758 0.54849 -0.00037
 C2795 C 0.39774 0.53867 0.00631
 C2796 C 0.37765 0.54954 0.00335
 C2797 C 0.37609 0.61211 -0.02607
 C2798 C 0.39621 0.60143 -0.02249
 C2799 C 0.33760 0.55056 0.00607
 C2800 C 0.35771 0.53984 0.00955
 H2801 H 0.37616 0.62810 -0.03374
 H2802 H 0.41121 0.60948 -0.02753
 H2803 H 0.32259 0.54247 0.01100
 H2804 H 0.35763 0.52376 0.01703
 H2805 H 0.30150 0.57397 -0.00305
 H2806 H 0.33570 0.62886 -0.03138
 H2807 H 0.43214 0.57739 -0.01493
 H2808 H 0.39785 0.52245 0.01350
 C2809 C -0.14353 0.08391 0.49012
 C2810 C -0.14443 0.10248 0.47662
 C2811 C -0.16470 0.11271 0.47281
 C2812 C -0.18420 0.10473 0.48257
 C2813 C -0.18269 0.08613 0.49640
 C2814 C -0.16252 0.07562 0.50005
 C2815 C -0.12232 0.07276 0.49370
 C2816 C -0.12152 0.05377 0.50665
 C2817 C -0.10142 0.04282 0.50939
 C2818 C -0.08219 0.05088 0.49942
 C2819 C -0.08328 0.07025 0.48688
 C2820 C -0.10331 0.08113 0.48381
 C2821 C -0.16103 0.05675 0.51316
 C2822 C -0.14090 0.04597 0.51635
 C2823 C -0.12500 0.11046 0.46714
 C2824 C -0.10478 0.10000 0.47072
 H2825 H -0.17560 0.05014 0.52089
 H2826 H -0.14052 0.03136 0.52642
 H2827 H -0.12545 0.12486 0.45677
 H2828 H -0.09022 0.10662 0.46300
 H2829 H -0.16495 0.12740 0.46287
 H2830 H -0.19729 0.07900 0.50354
 H2831 H -0.10078 0.02800 0.51914
 H2832 H -0.06866 0.07657 0.47899
 C2833 C 0.64213 0.08275 0.50628
 C2834 C 0.64239 0.10342 0.51654
 C2835 C 0.66258 0.11374 0.52053
 C2836 C 0.68239 0.10353 0.51429
 C2837 C 0.68178 0.08289 0.50381
 C2838 C 0.66170 0.07239 0.49984
 C2839 C 0.62099 0.07156 0.50259
 C2840 C 0.62077 0.05065 0.49285
 C2841 C 0.60070 0.03970 0.49018
 C2842 C 0.58092 0.04950 0.49726
 C2843 C 0.58146 0.07076 0.50647
 C2844 C 0.60145 0.08178 0.50930
 C2845 C 0.66080 0.05161 0.48982
 C2846 C 0.64068 0.04092 0.48641
 C2847 C 0.62246 0.11326 0.52276
 C2848 C 0.60234 0.10263 0.51918
 H2849 H 0.67579 0.04347 0.48475
 H2850 H 0.64073 0.02481 0.47884
 H2851 H 0.62244 0.12923 0.53061
 H2852 H 0.58736 0.11070 0.52442
 H2853 H 0.66290 0.12973 0.52835
 H2854 H 0.69697 0.07483 0.49919
 H2855 H 0.60056 0.02341 0.48303
 H2856 H 0.56643 0.07852 0.51204
 C2857 C 0.14271 0.58271 1.00806
 C2858 C 0.14370 0.60097 1.02214
 C2859 C 0.16394 0.61125 1.02589
 C2860 C 0.18332 0.60363 1.01550
 C2861 C 0.18171 0.58536 1.00106
 C2862 C 0.16156 0.57480 0.99748
 C2863 C 0.12155 0.57145 1.00461
 C2864 C 0.12066 0.55271 0.99112
 C2865 C 0.10064 0.54159 0.98858
 C2866 C 0.08159 0.54922 0.99932
 C2867 C 0.08274 0.56838 1.01235
 C2868 C 0.10269 0.57942 1.01521
 C2869 C 0.15999 0.55620 0.98380
 C2870 C 0.13991 0.54531 0.98073
 C2871 C 0.12441 0.60858 1.03229
 C2872 C 0.10424 0.59802 1.02884
 H2873 H 0.17445 0.54989 0.97554
 H2874 H 0.13947 0.53091 0.97023
 H2875 H 0.12492 0.62274 1.04311
 H2876 H 0.08978 0.60433 1.03711
 H2877 H 0.16426 0.62569 1.03630
 H2878 H 0.19622 0.57850 0.99340
 H2879 H 0.09996 0.52693 0.97845
 H2880 H 0.06827 0.57436 1.02085
 C2881 C 0.14242 0.41765 0.48988
 C2882 C 0.16190 0.42785 0.49683
 C2883 C 0.18202 0.41732 0.49312
 C2884 C 0.18275 0.39677 0.48247
 C2885 C 0.16305 0.38675 0.47564
 C2886 C 0.14281 0.39712 0.47934
 C2887 C 0.12123 0.42879 0.49349
 C2888 C 0.10177 0.41867 0.48637
 C2889 C 0.08172 0.42957 0.48934
 C2890 C 0.08102 0.45055 0.49917
 C2891 C 0.10072 0.46028 0.50651
 C2892 C 0.12087 0.44948 0.50368
 C2893 C 0.12297 0.38743 0.47263
 C2894 C 0.10279 0.39802 0.47610
 C2895 C 0.16087 0.44846 0.50718
 C2896 C 0.14070 0.45910 0.51054
 H2897 H 0.12305 0.37157 0.46453
 H2898 H 0.08788 0.39004 0.47055
 H2899 H 0.17579 0.45649 0.51263
 H2900 H 0.14064 0.47505 0.51844
 H2901 H 0.19713 0.42525 0.49818
 H2902 H 0.16347 0.37083 0.46767
 H2903 H 0.06673 0.42186 0.48357
 H2904 H 0.10047 0.47638 0.51412
 C2905 C 0.64409 0.91711 -0.01146
 C2906 C 0.64471 0.89655 -0.02193
 C2907 C 0.66506 0.88638 -0.02557
 C2908 C 0.68465 0.89664 -0.01877
 C2909 C 0.68369 0.91722 -0.00821
 C2910 C 0.66345 0.92755 -0.00455
 C2911 C 0.62277 0.92803 -0.00790
 C2912 C 0.62219 0.94876 0.00221
 C2913 C 0.60193 0.95936 0.00498
 C2914 C 0.58233 0.94939 -0.00232
 C2915 C 0.58324 0.92837 -0.01205
 C2916 C 0.60342 0.91768 -0.01497
 C2917 C 0.66220 0.94818 0.00572
 C2918 C 0.64191 0.95862 0.00902
 C2919 C 0.62497 0.88662 -0.02859
 C2920 C 0.60467 0.89700 -0.02516
 H2921 H 0.67703 0.95640 0.01114
 H2922 H 0.64168 0.97460 0.01686
 H2923 H 0.62522 0.87073 -0.03663
 H2924 H 0.58985 0.88884 -0.03068
 H2925 H 0.66565 0.87043 -0.03347
 H2926 H 0.69872 0.92533 -0.00316
 H2927 H 0.60151 0.97548 0.01252
 H2928 H 0.56834 0.92051 -0.01781
 C2929 C 0.00989 0.85596 0.91905
 C2930 C -0.00002 0.83703 0.92738
 C2931 C 0.00338 0.81692 0.91660
 C2932 C 0.01699 0.81543 0.89771
 C2933 C 0.02675 0.83487 0.88972
 C2934 C 0.02314 0.85507 0.90019
 C2935 C 0.00651 0.87711 0.93043
 C2936 C 0.01632 0.89605 0.92196
 C2937 C 0.01337 0.91604 0.93299
 C2938 C 0.00105 0.91717 0.95262
 C2939 C -0.00879 0.89798 0.96083
 C2940 C -0.00620 0.87792 0.94971
 C2941 C 0.03258 0.87443 0.89215
 C2942 C 0.02917 0.89459 0.90281
 C2943 C -0.01288 0.83851 0.94656
 C2944 C -0.01586 0.85859 0.95757
 H2945 H 0.04277 0.87399 0.87753
 H2946 H 0.03684 0.90911 0.89612
 H2947 H -0.02059 0.82400 0.95321
 H2948 H -0.02575 0.85896 0.97239
 H2949 H -0.00376 0.80236 0.92373
 H2950 H 0.03650 0.83463 0.87482
 H2951 H 0.02118 0.93061 0.92656
 H2952 H -0.01838 0.89865 0.97586
 C2953 C 0.50738 0.35631 0.41968
 C2954 C 0.50165 0.33662 0.43003
 C2955 C 0.50570 0.31670 0.41915
 C2956 C 0.51555 0.31639 0.39813
 C2957 C 0.52116 0.33631 0.38800
 C2958 C 0.51706 0.35633 0.39868
 C2959 C 0.50343 0.37730 0.43117
 C2960 C 0.50933 0.39695 0.42088
 C2961 C 0.50617 0.41681 0.43210
 C2962 C 0.49742 0.41718 0.45364
 C2963 C 0.49120 0.39727 0.46354
 C2964 C 0.49420 0.37728 0.45237
 C2965 C 0.52253 0.37636 0.38883
 C2966 C 0.51871 0.39633 0.39973
 C2967 C 0.49217 0.33726 0.45113
 C2968 C 0.48854 0.35724 0.46212
 H2969 H 0.52994 0.37661 0.37262
 H2970 H 0.52332 0.41141 0.39162
 H2971 H 0.48767 0.32218 0.45929
 H2972 H 0.48138 0.35698 0.47845
 H2973 H 0.50155 0.30142 0.42716
 H2974 H 0.52849 0.33622 0.37173
 H2975 H 0.51109 0.43192 0.42423
 H2976 H 0.48445 0.39726 0.48005
 C2977 C -0.01063 0.35597 0.58188
 C2978 C -0.02429 0.35530 0.60045
 C2979 C -0.02760 0.33533 0.61126
 C2980 C -0.01718 0.31589 0.60388
 C2981 C -0.00324 0.31717 0.58522
 C2982 C -0.00009 0.33704 0.57413
 C2983 C -0.00744 0.37690 0.57023
 C2984 C 0.00577 0.37751 0.55128
 C2985 C 0.00833 0.39741 0.54000
 C2986 C -0.00203 0.41661 0.54776
 C2987 C -0.01497 0.41564 0.56700
 C2988 C -0.01785 0.39585 0.57817
 C2989 C 0.01319 0.33831 0.55523
 C2990 C 0.01601 0.35817 0.54397
 C2991 C -0.03437 0.37466 0.60792
 C2992 C -0.03116 0.39460 0.59701
 H2993 H 0.02139 0.32379 0.54902
 H2994 H 0.02628 0.35838 0.52941
 H2995 H -0.04489 0.37440 0.62230
 H2996 H -0.03929 0.40914 0.60328
 H2997 H -0.03765 0.33531 0.62596
 H2998 H 0.00442 0.30258 0.57853
 H2999 H 0.01836 0.39795 0.52527
 H3000 H -0.02321 0.43021 0.57306
 C3001 C 0.48909 0.85532 0.08078
 C3002 C 0.49536 0.83560 0.07061
 C3003 C 0.49160 0.81576 0.08155
 C3004 C 0.48152 0.81556 0.10245
 C3005 C 0.47529 0.83552 0.11238
 C3006 C 0.47911 0.85546 0.10164
 C3007 C 0.49288 0.87624 0.06929
 C3008 C 0.48655 0.89594 0.07945
 C3009 C 0.48978 0.91573 0.06831
 C3010 C 0.49904 0.91597 0.04699
 C3011 C 0.50553 0.89600 0.03717
 C3012 C 0.50249 0.87610 0.04827
 C3013 C 0.47313 0.87554 0.11132
 C3014 C 0.47681 0.89543 0.10043
 C3015 C 0.50514 0.83612 0.04965
 C3016 C 0.50861 0.85601 0.03866
 H3017 H 0.46547 0.87588 0.12742
 H3018 H 0.47186 0.91055 0.10843
 H3019 H 0.51006 0.82100 0.04163
 H3020 H 0.51607 0.85565 0.02246
 H3021 H 0.49623 0.80046 0.07370
 H3022 H 0.46777 0.83552 0.12855
 H3023 H 0.48462 0.93089 0.07610
 H3024 H 0.51269 0.89590 0.02083
 C3025 C 0.51016 0.64341 0.08249
 C3026 C 0.52020 0.64384 0.10336
 C3027 C 0.52378 0.66405 0.11387
 C3028 C 0.51728 0.68372 0.10369
 C3029 C 0.50713 0.68295 0.08279
 C3030 C 0.50359 0.66285 0.07208
 C3031 C 0.50663 0.62222 0.07123
 C3032 C 0.49694 0.62182 0.05020
 C3033 C 0.49410 0.60165 0.03934
 C3034 C 0.50088 0.58196 0.04939
 C3035 C 0.51024 0.58274 0.07069
 C3036 C 0.51325 0.60281 0.08161
 C3037 C 0.49375 0.66178 0.05112
 C3038 C 0.49051 0.64162 0.04036
 C3039 C 0.52649 0.62403 0.11327
 C3040 C 0.52305 0.60387 0.10259
 H3041 H 0.48861 0.67666 0.04292
 H3042 H 0.48299 0.64154 0.02415
 H3043 H 0.53420 0.62412 0.12938
 H3044 H 0.52823 0.58899 0.11078
 H3045 H 0.53137 0.66448 0.13005
 H3046 H 0.50231 0.69803 0.07473
 H3047 H 0.48685 0.60135 0.02301
 H3048 H 0.51561 0.56780 0.07865
 C3049 C 0.01084 0.14475 0.58252
 C3050 C 0.02476 0.14554 0.60096
 C3051 C 0.02850 0.16565 0.61159
 C3052 C 0.01821 0.18510 0.60417
 C3053 C 0.00409 0.18371 0.58559
 C3054 C 0.00051 0.16371 0.57469
 C3055 C 0.00716 0.12368 0.57108
 C3056 C -0.00630 0.12297 0.55225
 C3057 C -0.00928 0.10295 0.54111
 C3058 C 0.00094 0.08372 0.54885
 C3059 C 0.01409 0.08477 0.56801
 C3060 C 0.01739 0.10469 0.57906
 C3061 C -0.01304 0.16234 0.55592
 C3062 C -0.01633 0.14234 0.54486
 C3063 C 0.03464 0.12614 0.60850
 C3064 C 0.03097 0.10606 0.59777
 H3065 H -0.02109 0.17688 0.54966
 H3066 H -0.02679 0.14205 0.53039
 H3067 H 0.04535 0.12648 0.62278
 H3068 H 0.03897 0.09151 0.60408
 H3069 H 0.03874 0.16578 0.62621
 H3070 H -0.00343 0.19829 0.57881
 H3071 H -0.01946 0.10237 0.52643
 H3072 H 0.02223 0.07017 0.57407
 C3073 C 0.49108 0.14346 0.41815
 C3074 C 0.49714 0.16304 0.42873
 C3075 C 0.49317 0.18306 0.41815
 C3076 C 0.48307 0.18358 0.39722
 C3077 C 0.47713 0.16376 0.38685
 C3078 C 0.48115 0.14365 0.39722
 C3079 C 0.49495 0.12237 0.42931
 C3080 C 0.48874 0.10283 0.41878
 C3081 C 0.49185 0.08288 0.42968
 C3082 C 0.50085 0.08231 0.45115
 C3083 C 0.50736 0.10210 0.46130
 C3084 C 0.50442 0.12218 0.45045
 C3085 C 0.47537 0.12372 0.38713
 C3086 C 0.47912 0.10366 0.39771
 C3087 C 0.50685 0.16219 0.44976
 C3088 C 0.51040 0.14212 0.46044
 H3089 H 0.46776 0.12363 0.37096
 H3090 H 0.47426 0.08867 0.38941
 H3091 H 0.51161 0.17718 0.45810
 H3092 H 0.51775 0.14223 0.47672
 H3093 H 0.49759 0.19824 0.42635
 H3094 H 0.46960 0.16401 0.37064
 H3095 H 0.48670 0.06786 0.42162
 H3096 H 0.51432 0.10196 0.47776
 C3097 C -0.00902 0.64300 0.91884
 C3098 C 0.00122 0.66190 0.92704
 C3099 C -0.00233 0.68199 0.91643
 C3100 C -0.01641 0.68350 0.89783
 C3101 C -0.02651 0.66409 0.88997
 C3102 C -0.02277 0.64391 0.90028
 C3103 C -0.00549 0.62187 0.93005
 C3104 C -0.01566 0.60297 0.92171
 C3105 C -0.01263 0.58302 0.93260
 C3106 C 0.00016 0.58186 0.95198
 C3107 C 0.01041 0.60099 0.96005
 C3108 C 0.00771 0.62104 0.94905
 C3109 C -0.03255 0.62458 0.89236
 C3110 C -0.02900 0.60445 0.90285
 C3111 C 0.01458 0.66039 0.94593
 C3112 C 0.01770 0.64034 0.95679
 H3113 H -0.04311 0.62503 0.87797
 H3114 H -0.03695 0.58996 0.89626
 H3115 H 0.02256 0.67488 0.95249
 H3116 H 0.02797 0.63996 0.97140
 H3117 H 0.00511 0.69653 0.92346
 H3118 H -0.03664 0.66432 0.87529
 H3119 H -0.02077 0.56852 0.92627
 H3120 H 0.02032 0.60031 0.97490
 C3121 C 0.25867 0.66729 0.89279
 C3122 C 0.26838 0.64640 0.89259
 C3123 C 0.27210 0.63562 0.91261
 C3124 C 0.26609 0.64556 0.93270
 C3125 C 0.25619 0.66644 0.93258
 C3126 C 0.25253 0.67742 0.91265
 C3127 C 0.25513 0.67888 0.87180
 C3128 C 0.24585 0.69995 0.87199
 C3129 C 0.24311 0.71115 0.85200
 C3130 C 0.24959 0.70138 0.83193
 C3131 C 0.25849 0.68002 0.83211
 C3132 C 0.26141 0.66877 0.85197
 C3133 C 0.24304 0.69842 0.91219
 C3134 C 0.23979 0.70950 0.89220
 C3135 C 0.27426 0.63675 0.87238
 C3136 C 0.27081 0.64774 0.85241
 H3137 H 0.23822 0.70641 0.92741
 H3138 H 0.23258 0.72574 0.89260
 H3139 H 0.28170 0.62062 0.87201
 H3140 H 0.27570 0.63978 0.83719
 H3141 H 0.27948 0.61945 0.91259
 H3142 H 0.25175 0.67427 0.94801
 H3143 H 0.23622 0.72753 0.85213
 H3144 H 0.26360 0.67225 0.81686
 C3145 C 0.75858 0.16838 0.39292
 C3146 C 0.75223 0.17845 0.41276
 C3147 C 0.75605 0.16757 0.43271
 C3148 C 0.76628 0.14685 0.43289
 C3149 C 0.77249 0.13698 0.41283
 C3150 C 0.76864 0.14766 0.39278
 C3151 C 0.75487 0.17986 0.37190
 C3152 C 0.76137 0.16984 0.35210
 C3153 C 0.75832 0.18102 0.33222
 C3154 C 0.74904 0.20221 0.33199
 C3155 C 0.74231 0.21188 0.35204
 C3156 C 0.74521 0.20077 0.37204
 C3157 C 0.77474 0.13809 0.37260
 C3158 C 0.77114 0.14899 0.35260
 C3159 C 0.74237 0.19927 0.41224
 C3160 C 0.73895 0.21025 0.39223
 H3161 H 0.78245 0.12209 0.37227
 H3162 H 0.77622 0.14109 0.33740
 H3163 H 0.73738 0.20720 0.42744
 H3164 H 0.73145 0.22635 0.39257
 H3165 H 0.75142 0.17534 0.44812
 H3166 H 0.78011 0.12092 0.41284
 H3167 H 0.76363 0.17335 0.31698
 H3168 H 0.73514 0.22814 0.35214
 C3169 C 0.24259 0.33419 0.39256
 C3170 C 0.23241 0.35485 0.39260
 C3171 C 0.22809 0.36527 0.41278
 C3172 C 0.23395 0.35518 0.43277
 C3173 C 0.24431 0.33452 0.43240
 C3174 C 0.24862 0.32393 0.41233
 C3175 C 0.24667 0.32291 0.37142
 C3176 C 0.25635 0.30201 0.37140
 C3177 C 0.25933 0.29096 0.35132
 C3178 C 0.25260 0.30063 0.33134
 C3179 C 0.24349 0.32189 0.33168
 C3180 C 0.24036 0.33303 0.35167
 C3181 C 0.25859 0.30317 0.41165
 C3182 C 0.26237 0.29238 0.39153
 C3183 C 0.22661 0.36458 0.37247
 C3184 C 0.23053 0.35386 0.35234
 H3185 H 0.26334 0.29510 0.42681
 H3186 H 0.26988 0.27629 0.39174
 H3187 H 0.21881 0.38055 0.37227
 H3188 H 0.22561 0.36184 0.33719
 H3189 H 0.22035 0.38127 0.41295
 H3190 H 0.24863 0.32655 0.44774
 H3191 H 0.26640 0.27465 0.35133
 H3192 H 0.23820 0.32955 0.31648
 C3193 C 0.74463 0.83343 0.89202
 C3194 C 0.73463 0.85418 0.89185
 C3195 C 0.73042 0.86485 0.91192
 C3196 C 0.73621 0.85492 0.93202
 C3197 C 0.74643 0.83420 0.93186
 C3198 C 0.75061 0.82334 0.91190
 C3199 C 0.74854 0.82187 0.87100
 C3200 C 0.75800 0.80088 0.87118
 C3201 C 0.76083 0.78958 0.85120
 C3202 C 0.75417 0.79911 0.83113
 C3203 C 0.74526 0.82046 0.83128
 C3204 C 0.74228 0.83183 0.85115
 C3205 C 0.76038 0.80248 0.91142
 C3206 C 0.76399 0.79142 0.89140
 C3207 C 0.72887 0.86374 0.87163
 C3208 C 0.73265 0.85277 0.85161
 H3209 H 0.76509 0.79454 0.92666
 H3210 H 0.77134 0.77526 0.89178
 H3211 H 0.72122 0.87977 0.87127
 H3212 H 0.72777 0.86063 0.83639
 H3213 H 0.72278 0.88090 0.91193
 H3214 H 0.75070 0.82635 0.94728
 H3215 H 0.76774 0.77321 0.85136
 H3216 H 0.74002 0.82803 0.81601
 C3217 C 0.75679 0.83417 0.10621
 C3218 C 0.75134 0.82358 0.08635
 C3219 C 0.75574 0.83406 0.06633
 C3220 C 0.76571 0.85487 0.06612
 C3221 C 0.77095 0.86530 0.08618
 C3222 C 0.76649 0.85503 0.10629
 C3223 C 0.75265 0.82304 0.12730
 C3224 C 0.75840 0.83352 0.14711
 C3225 C 0.75527 0.82254 0.16707
 C3226 C 0.74674 0.80106 0.16735
 C3227 C 0.74054 0.79101 0.14731
 C3228 C 0.74352 0.80193 0.12722
 C3229 C 0.77171 0.86512 0.12648
 C3230 C 0.76771 0.85455 0.14656
 C3231 C 0.74185 0.80262 0.08693
 C3232 C 0.73804 0.79196 0.10702
 H3233 H 0.77912 0.88124 0.12676
 H3234 H 0.77219 0.86280 0.16176
 H3235 H 0.73755 0.79430 0.07172
 H3236 H 0.73094 0.77570 0.10673
 H3237 H 0.75185 0.82588 0.05091
 H3238 H 0.77835 0.88144 0.08611
 H3239 H 0.76013 0.83053 0.18230
 H3240 H 0.73394 0.77454 0.14726
 C3241 C 0.25630 0.33479 0.60738
 C3242 C 0.25049 0.32421 0.58763
 C3243 C 0.25461 0.33466 0.56753
 C3244 C 0.26464 0.35544 0.56713
 C3245 C 0.27029 0.36584 0.58710
 C3246 C 0.26610 0.35561 0.60729
 C3247 C 0.25242 0.32369 0.62855
 C3248 C 0.25850 0.33416 0.64827
 C3249 C 0.25561 0.32321 0.66828
 C3250 C 0.24703 0.30175 0.66870
 C3251 C 0.24051 0.29171 0.64876
 C3252 C 0.24322 0.30261 0.62863
 C3253 C 0.27166 0.36568 0.62740
 C3254 C 0.26790 0.35515 0.64755
 C3255 C 0.24094 0.30329 0.58836
 C3256 C 0.23740 0.29265 0.60852
 H3257 H 0.27915 0.38177 0.62756
 H3258 H 0.27264 0.36339 0.66268
 H3259 H 0.23637 0.29497 0.57322
 H3260 H 0.23024 0.27642 0.60834
 H3261 H 0.25043 0.32647 0.55219
 H3262 H 0.27777 0.38194 0.58689
 H3263 H 0.26073 0.33117 0.68344
 H3264 H 0.23386 0.27525 0.64881
 C3265 C 0.74026 0.16556 0.60607
 C3266 C 0.73010 0.14493 0.60567
 C3267 C 0.72616 0.13463 0.58533
 C3268 C 0.73242 0.14480 0.56553
 C3269 C 0.74270 0.16545 0.56627
 C3270 C 0.74661 0.17594 0.58650
 C3271 C 0.74410 0.17664 0.62738
 C3272 C 0.75387 0.19746 0.62776
 C3273 C 0.75689 0.20820 0.64804
 C3274 C 0.75020 0.19825 0.66785
 C3275 C 0.74082 0.17714 0.66712
 C3276 C 0.73763 0.16633 0.64694
 C3277 C 0.75657 0.19667 0.58754
 C3278 C 0.76011 0.20726 0.60783
 C3279 C 0.72402 0.13505 0.62561
 C3280 C 0.72774 0.14556 0.64590
 H3281 H 0.76154 0.20483 0.57254
 H3282 H 0.76769 0.22330 0.60789
 H3283 H 0.71623 0.11911 0.62553
 H3284 H 0.72268 0.13744 0.66090
 H3285 H 0.71847 0.11863 0.58489
 H3286 H 0.74732 0.17349 0.55108
 H3287 H 0.76415 0.22439 0.64832
 H3288 H 0.73553 0.16927 0.68218
 C3289 C 0.24186 0.66547 0.10622
 C3290 C 0.23169 0.64483 0.10596
 C3291 C 0.22750 0.63453 0.08567
 C3292 C 0.23347 0.64471 0.06578
 C3293 C 0.24382 0.66533 0.06638
 C3294 C 0.24799 0.67582 0.08656
 C3295 C 0.24584 0.67661 0.12748
 C3296 C 0.25551 0.69748 0.12772
 C3297 C 0.25842 0.70839 0.14791
 C3298 C 0.25163 0.69862 0.16778
 C3299 C 0.24250 0.67739 0.16721
 C3300 C 0.23944 0.66639 0.14711
 C3301 C 0.25796 0.69655 0.08747
 C3302 C 0.26163 0.70720 0.10770
 C3303 C 0.22579 0.63500 0.12597
 C3304 C 0.22962 0.64559 0.14621
 H3305 H 0.26279 0.70468 0.07241
 H3306 H 0.26914 0.72328 0.10766
 H3307 H 0.21801 0.61906 0.12600
 H3308 H 0.22462 0.63753 0.16126
 H3309 H 0.21980 0.61854 0.08534
 H3310 H 0.24825 0.67336 0.05113
 H3311 H 0.26549 0.72467 0.14807
 H3312 H 0.23715 0.66964 0.18231
 C3313 C 0.16762 0.60712 0.74030
 C3314 C 0.17789 0.58761 0.74689
 C3315 C 0.16714 0.56761 0.74329
 C3316 C 0.14634 0.56704 0.73308
 C3317 C 0.13626 0.58679 0.72663
 C3318 C 0.14683 0.60688 0.73023
 C3319 C 0.17897 0.62818 0.74376
 C3320 C 0.16877 0.64765 0.73701
 C3321 C 0.17981 0.66758 0.73985
 C3322 C 0.20105 0.66816 0.74921
 C3323 C 0.21090 0.64844 0.75618
 C3324 C 0.19993 0.62840 0.75346
 C3325 C 0.13706 0.62674 0.72388
 C3326 C 0.14784 0.64679 0.72722
 C3327 C 0.19877 0.58850 0.75676
 C3328 C 0.20961 0.60854 0.75997
 H3329 H 0.12101 0.62678 0.71615
 H3330 H 0.13980 0.66172 0.72195
 H3331 H 0.20686 0.57355 0.76193
 H3332 H 0.22576 0.60848 0.76751
 H3333 H 0.17511 0.55247 0.74807
 H3334 H 0.12015 0.58650 0.71901
 H3335 H 0.17200 0.68256 0.73437
 H3336 H 0.22719 0.64860 0.76341
 C3337 C 0.66677 0.10814 0.23908
 C3338 C 0.64593 0.10791 0.22912
 C3339 C 0.63540 0.08780 0.22547
 C3340 C 0.64555 0.06804 0.23176
 C3341 C 0.66641 0.06861 0.24187
 C3342 C 0.67713 0.08862 0.24550
 C3343 C 0.67809 0.12921 0.24261
 C3344 C 0.69910 0.12943 0.25219
 C3345 C 0.71003 0.14947 0.25498
 C3346 C 0.70008 0.16923 0.24826
 C3347 C 0.67879 0.16866 0.23902
 C3348 C 0.66779 0.14871 0.23606
 C3349 C 0.69806 0.08950 0.25526
 C3350 C 0.70887 0.10955 0.25852
 C3351 C 0.63608 0.12779 0.22295
 C3352 C 0.64682 0.14784 0.22639
 H3353 H 0.70622 0.07454 0.26029
 H3354 H 0.72507 0.10949 0.26595
 H3355 H 0.61998 0.12783 0.21531
 H3356 H 0.63870 0.16279 0.22127
 H3357 H 0.61925 0.08750 0.21792
 H3358 H 0.67444 0.05346 0.24652
 H3359 H 0.72635 0.14963 0.26215
 H3360 H 0.67091 0.18367 0.23371
 C3361 C 0.83290 0.10370 0.75987
 C3362 C 0.85354 0.10353 0.77025
 C3363 C 0.86401 0.08345 0.77415
 C3364 C 0.85401 0.06364 0.76771
 C3365 C 0.83339 0.06414 0.75712
 C3366 C 0.82271 0.08414 0.75323
 C3367 C 0.82160 0.12476 0.75615
 C3368 C 0.80076 0.12493 0.74619
 C3369 C 0.78980 0.14497 0.74332
 C3370 C 0.79955 0.16475 0.75037
 C3371 C 0.82069 0.16422 0.75994
 C3372 C 0.83172 0.14429 0.76297
 C3373 C 0.80197 0.08497 0.74306
 C3374 C 0.79117 0.10501 0.73962
 C3375 C 0.86322 0.12345 0.77663
 C3376 C 0.85251 0.14349 0.77303
 H3377 H 0.79395 0.06998 0.73785
 H3378 H 0.77512 0.10490 0.73189
 H3379 H 0.87917 0.12354 0.78460
 H3380 H 0.86048 0.15846 0.77835
 H3381 H 0.88000 0.08321 0.78204
 H3382 H 0.82550 0.04894 0.75229
 H3383 H 0.77358 0.14510 0.73592
 H3384 H 0.82843 0.17924 0.76551
 C3385 C 0.33266 0.60676 0.25928
 C3386 C 0.35326 0.60665 0.26975
 C3387 C 0.36365 0.58656 0.27399
 C3388 C 0.35360 0.56670 0.26775
 C3389 C 0.33297 0.56716 0.25716
 C3390 C 0.32240 0.58714 0.25294
 C3391 C 0.32147 0.62781 0.25516
 C3392 C 0.30066 0.62790 0.24516
 C3393 C 0.28973 0.64790 0.24201
 C3394 C 0.29946 0.66776 0.24886
 C3395 C 0.32063 0.66734 0.25838
 C3396 C 0.33163 0.64742 0.26170
 C3397 C 0.30170 0.58789 0.24269
 C3398 C 0.29100 0.60792 0.23889
 C3399 C 0.36301 0.62664 0.27583
 C3400 C 0.35238 0.64667 0.27185
 H3401 H 0.29362 0.57286 0.23770
 H3402 H 0.27496 0.60775 0.23112
 H3403 H 0.37892 0.62679 0.28385
 H3404 H 0.36040 0.66169 0.27696
 H3405 H 0.37962 0.58636 0.28191
 H3406 H 0.32500 0.55195 0.25253
 H3407 H 0.27350 0.64794 0.23465
 H3408 H 0.32833 0.68243 0.26381
 C3409 C 0.33360 0.39305 0.24231
 C3410 C 0.32326 0.41255 0.24898
 C3411 C 0.33380 0.43260 0.24529
 C3412 C 0.35447 0.43326 0.23491
 C3413 C 0.36464 0.41352 0.22843
 C3414 C 0.35427 0.39336 0.23211
 C3415 C 0.32239 0.37194 0.24575
 C3416 C 0.33259 0.35247 0.23883
 C3417 C 0.32157 0.33251 0.24149
 C3418 C 0.30035 0.33192 0.25077
 C3419 C 0.29057 0.35164 0.25802
 C3420 C 0.30150 0.37168 0.25550
 C3421 C 0.36408 0.37350 0.22565
 C3422 C 0.35343 0.35341 0.22897
 C3423 C 0.30249 0.41160 0.25897
 C3424 C 0.29179 0.39152 0.26216
 H3425 H 0.38005 0.37350 0.21782
 H3426 H 0.36148 0.33849 0.22357
 H3427 H 0.29436 0.42653 0.26420
 H3428 H 0.27569 0.39154 0.26973
 H3429 H 0.32573 0.44772 0.25009
 H3430 H 0.38065 0.41386 0.22067
 H3431 H 0.32930 0.31753 0.23579
 H3432 H 0.27431 0.35148 0.26523
 C3433 C 0.83492 0.89117 0.74133
 C3434 C 0.82455 0.91069 0.74785
 C3435 C 0.83507 0.93073 0.74407
 C3436 C 0.85578 0.93135 0.73376
 C3437 C 0.86597 0.91158 0.72738
 C3438 C 0.85560 0.89143 0.73114
 C3439 C 0.82375 0.87006 0.74494
 C3440 C 0.83400 0.85055 0.73819
 C3441 C 0.82302 0.83058 0.74104
 C3442 C 0.80181 0.83003 0.75035
 C3443 C 0.79200 0.84979 0.75743
 C3444 C 0.80288 0.86983 0.75471
 C3445 C 0.86545 0.87154 0.72485
 C3446 C 0.85483 0.85145 0.72832
 C3447 C 0.80378 0.90979 0.75784
 C3448 C 0.79312 0.88971 0.76120
 H3449 H 0.88143 0.87151 0.71704
 H3450 H 0.86292 0.83651 0.72305
 H3451 H 0.79562 0.92474 0.76297
 H3452 H 0.77703 0.88976 0.76878
 H3453 H 0.82700 0.94587 0.74881
 H3454 H 0.88201 0.91190 0.71970
 H3455 H 0.83079 0.81557 0.73547
 H3456 H 0.77574 0.84966 0.76465
 C3457 C 0.66725 0.89554 0.25769
 C3458 C 0.64652 0.89587 0.26779
 C3459 C 0.63613 0.91604 0.27165
 C3460 C 0.64633 0.93576 0.26546
 C3461 C 0.66704 0.93509 0.25516
 C3462 C 0.67762 0.91502 0.25131
 C3463 C 0.67846 0.87440 0.25403
 C3464 C 0.69940 0.87408 0.24438
 C3465 C 0.71032 0.85398 0.24167
 C3466 C 0.70046 0.83430 0.24860
 C3467 C 0.67919 0.83496 0.25778
 C3468 C 0.66819 0.85495 0.26064
 C3469 C 0.69844 0.91403 0.24141
 C3470 C 0.70916 0.89391 0.23803
 C3471 C 0.63666 0.87604 0.27393
 C3472 C 0.64731 0.85592 0.27040
 H3473 H 0.70660 0.92894 0.23639
 H3474 H 0.72529 0.89390 0.23054
 H3475 H 0.62064 0.87607 0.28167
 H3476 H 0.63921 0.84102 0.27556
 H3477 H 0.62007 0.91640 0.27931
 H3478 H 0.67507 0.95022 0.25054
 H3479 H 0.72664 0.85375 0.23457
 H3480 H 0.67136 0.82001 0.26323
 C3481 C 0.16830 0.39498 0.75951
 C3482 C 0.17837 0.41457 0.75303
 C3483 C 0.16759 0.43451 0.75694
 C3484 C 0.14692 0.43495 0.76735
 C3485 C 0.13705 0.41513 0.77373
 C3486 C 0.14766 0.39508 0.76981
 C3487 C 0.17970 0.37397 0.75570
 C3488 C 0.16971 0.35441 0.76237
 C3489 C 0.18087 0.33454 0.75931
 C3490 C 0.20203 0.33411 0.74987
 C3491 C 0.21162 0.35392 0.74290
 C3492 C 0.20053 0.37389 0.74581
 C3493 C 0.13809 0.37513 0.77604
 C3494 C 0.14892 0.35514 0.77237
 C3495 C 0.19911 0.41382 0.74293
 C3496 C 0.21001 0.39383 0.73940
 H3497 H 0.12215 0.37498 0.78394
 H3498 H 0.14104 0.34014 0.77758
 H3499 H 0.20705 0.42884 0.73783
 H3500 H 0.22605 0.39401 0.73173
 H3501 H 0.17541 0.44971 0.75221
 H3502 H 0.12104 0.41532 0.78150
 H3503 H 0.17326 0.31949 0.76481
 H3504 H 0.22784 0.35387 0.73559
 C3505 C 0.10586 0.75895 0.83252
 C3506 C 0.08611 0.75273 0.82230
 C3507 C 0.06621 0.75626 0.83339
 C3508 C 0.06600 0.76612 0.85445
 C3509 C 0.08599 0.77214 0.86448
 C3510 C 0.10596 0.76857 0.85360
 C3511 C 0.12681 0.75559 0.82082
 C3512 C 0.14650 0.76195 0.83102
 C3513 C 0.16633 0.75919 0.81969
 C3514 C 0.16664 0.75034 0.79815
 C3515 C 0.14670 0.74379 0.78827
 C3516 C 0.12673 0.74639 0.79955
 C3517 C 0.12604 0.77454 0.86333
 C3518 C 0.14597 0.77126 0.85224
 C3519 C 0.08668 0.74333 0.80111
 C3520 C 0.10664 0.74024 0.78992
 H3521 H 0.12634 0.78191 0.87961
 H3522 H 0.16109 0.77621 0.86028
 H3523 H 0.07156 0.73845 0.79304
 H3524 H 0.10631 0.73309 0.77354
 H3525 H 0.05086 0.75176 0.82551
 H3526 H 0.08597 0.77946 0.88080
 H3527 H 0.18147 0.76436 0.82756
 H3528 H 0.14666 0.73695 0.77175
 C3529 C 0.60538 0.26006 0.33231
 C3530 C 0.60543 0.26989 0.35329
 C3531 C 0.58542 0.27351 0.36413
 C3532 C 0.56546 0.26728 0.35417
 C3533 C 0.56574 0.25730 0.33316
 C3534 C 0.58566 0.25372 0.32212
 C3535 C 0.62636 0.25655 0.32069
 C3536 C 0.62632 0.24710 0.29953
 C3537 C 0.64631 0.24435 0.28832
 C3538 C 0.66624 0.25099 0.29816
 C3539 C 0.66589 0.26009 0.31960
 C3540 C 0.64603 0.26301 0.33086
 C3541 C 0.58627 0.24410 0.30103
 C3542 C 0.60624 0.24087 0.28992
 C3543 C 0.62549 0.27597 0.36299
 C3544 C 0.64545 0.27256 0.35197
 H3545 H 0.57116 0.23913 0.29299
 H3546 H 0.60595 0.23354 0.27362
 H3547 H 0.62577 0.28351 0.37919
 H3548 H 0.66055 0.27760 0.35999
 H3549 H 0.58537 0.28095 0.38039
 H3550 H 0.55043 0.25267 0.32528
 H3551 H 0.64629 0.23733 0.27187
 H3552 H 0.68102 0.26535 0.32743
 C3553 C 0.60619 0.74372 0.16755
 C3554 C 0.58646 0.74916 0.17818
 C3555 C 0.56646 0.74482 0.16750
 C3556 C 0.56613 0.73490 0.14647
 C3557 C 0.58609 0.72959 0.13606
 C3558 C 0.60618 0.73403 0.14650
 C3559 C 0.62728 0.74794 0.17883
 C3560 C 0.64697 0.74232 0.16826
 C3561 C 0.66692 0.74568 0.17928
 C3562 C 0.66736 0.75427 0.20093
 C3563 C 0.64741 0.76023 0.21112
 C3564 C 0.62732 0.75708 0.20013
 C3565 C 0.62626 0.72888 0.13637
 C3566 C 0.64631 0.73299 0.14704
 C3567 C 0.58715 0.75861 0.19934
 C3568 C 0.60722 0.76246 0.21015
 H3569 H 0.62647 0.72147 0.12010
 H3570 H 0.66142 0.72859 0.13872
 H3571 H 0.57204 0.76290 0.20772
 H3572 H 0.60699 0.76956 0.22655
 H3573 H 0.55114 0.74876 0.17570
 H3574 H 0.58596 0.72221 0.11977
 H3575 H 0.68206 0.74096 0.17117
 H3576 H 0.64746 0.76686 0.22772
 C3577 C 0.10711 0.24307 0.66896
 C3578 C 0.08739 0.24849 0.67960
 C3579 C 0.06737 0.24436 0.66884
 C3580 C 0.06703 0.23469 0.64768
 C3581 C 0.08700 0.22941 0.63726
 C3582 C 0.10709 0.23362 0.64780
 C3583 C 0.12821 0.24711 0.68029
 C3584 C 0.14788 0.24155 0.66966
 C3585 C 0.16785 0.24480 0.68069
 C3586 C 0.16834 0.25329 0.70239
 C3587 C 0.14840 0.25916 0.71266
 C3588 C 0.12828 0.25608 0.70166
 C3589 C 0.12715 0.22848 0.63763
 C3590 C 0.14721 0.23241 0.64837
 C3591 C 0.08810 0.25773 0.70086
 C3592 C 0.10819 0.26142 0.71172
 H3593 H 0.12736 0.22125 0.62129
 H3594 H 0.16231 0.22806 0.64000
 H3595 H 0.07300 0.26200 0.70926
 H3596 H 0.10797 0.26839 0.72817
 H3597 H 0.05206 0.24832 0.67702
 H3598 H 0.08687 0.22224 0.62088
 H3599 H 0.18297 0.24017 0.67251
 H3600 H 0.14848 0.26569 0.72930
 C3601 C 0.89449 0.25831 0.66876
 C3602 C 0.89437 0.26787 0.64774
 C3603 C 0.91439 0.27202 0.63718
 C3604 C 0.93443 0.26663 0.64747
 C3605 C 0.93422 0.25690 0.66850
 C3606 C 0.91428 0.25278 0.67926
 C3607 C 0.87347 0.25425 0.68009
 C3608 C 0.87357 0.24507 0.70128
 C3609 C 0.85354 0.24183 0.71224
 C3610 C 0.83351 0.24774 0.70213
 C3611 C 0.83382 0.25654 0.68065
 C3612 C 0.85371 0.25993 0.66963
 C3613 C 0.91372 0.24339 0.70037
 C3614 C 0.89372 0.23963 0.71120
 C3615 C 0.87424 0.27315 0.63774
 C3616 C 0.85425 0.26923 0.64849
 H3617 H 0.92888 0.23903 0.70865
 H3618 H 0.89404 0.23252 0.72753
 H3619 H 0.87392 0.28047 0.62150
 H3620 H 0.83909 0.27367 0.64024
 H3621 H 0.91440 0.27923 0.62088
 H3622 H 0.94958 0.25288 0.67661
 H3623 H 0.85360 0.23505 0.72872
 H3624 H 0.81861 0.26123 0.67262
 C3625 C 0.39261 0.75745 0.16740
 C3626 C 0.41240 0.75190 0.17790
 C3627 C 0.43233 0.75599 0.16712
 C3628 C 0.43255 0.76570 0.14607
 C3629 C 0.41252 0.77114 0.13580
 C3630 C 0.39249 0.76699 0.14637
 C3631 C 0.37161 0.75345 0.17878
 C3632 C 0.35185 0.75918 0.16835
 C3633 C 0.33197 0.75598 0.17946
 C3634 C 0.33169 0.74739 0.20103
 C3635 C 0.35171 0.74135 0.21108
 C3636 C 0.37171 0.74437 0.20002
 C3637 C 0.37235 0.77228 0.13638
 C3638 C 0.35237 0.76841 0.14717
 C3639 C 0.41186 0.74256 0.19903
 C3640 C 0.39186 0.73890 0.20991
 H3641 H 0.37203 0.77958 0.12014
 H3642 H 0.33722 0.77289 0.13895
 H3643 H 0.42702 0.73820 0.20730
 H3644 H 0.39220 0.73185 0.22627
 H3645 H 0.44768 0.75197 0.17524
 H3646 H 0.41254 0.77837 0.11951
 H3647 H 0.31678 0.76076 0.17147
 H3648 H 0.35179 0.73472 0.22762
 C3649 C 0.39304 0.24186 0.33314
 C3650 C 0.39304 0.23196 0.35400
 C3651 C 0.41311 0.22776 0.36458
 C3652 C 0.43307 0.23352 0.35447
 C3653 C 0.43274 0.24354 0.33358
 C3654 C 0.41277 0.24768 0.32280
 C3655 C 0.37199 0.24595 0.32176
 C3656 C 0.37201 0.25536 0.30068
 C3657 C 0.35198 0.25846 0.28959
 C3658 C 0.33202 0.25218 0.29946
 C3659 C 0.33237 0.24327 0.32090
 C3660 C 0.35229 0.23998 0.33204
 C3661 C 0.41213 0.25735 0.30183
 C3662 C 0.39210 0.26109 0.29094
 C3663 C 0.37295 0.22643 0.36384
 C3664 C 0.35292 0.23039 0.35305
 H3665 H 0.42725 0.26193 0.29369
 H3666 H 0.39236 0.26840 0.27470
 H3667 H 0.37270 0.21885 0.37995
 H3668 H 0.33781 0.22572 0.36115
 H3669 H 0.41323 0.22027 0.38075
 H3670 H 0.44805 0.24780 0.32560
 H3671 H 0.35200 0.26534 0.27315
 H3672 H 0.31721 0.23828 0.32873
 C3673 C 0.89424 0.74100 0.83362
 C3674 C 0.89416 0.73141 0.85463
 C3675 C 0.91421 0.72736 0.86532
 C3676 C 0.93420 0.73294 0.85518
 C3677 C 0.93394 0.74272 0.83418
 C3678 C 0.91400 0.74670 0.82328
 C3679 C 0.87322 0.74486 0.82211
 C3680 C 0.87330 0.75396 0.80088
 C3681 C 0.85330 0.75682 0.78967
 C3682 C 0.83332 0.75062 0.79955
 C3683 C 0.83361 0.74203 0.82112
 C3684 C 0.85349 0.73898 0.83239
 C3685 C 0.91341 0.75608 0.80216
 C3686 C 0.89342 0.75960 0.79114
 C3687 C 0.87405 0.72597 0.86447
 C3688 C 0.85406 0.72972 0.85355
 H3689 H 0.92855 0.76056 0.79401
 H3690 H 0.89372 0.76667 0.77479
 H3691 H 0.87376 0.71864 0.88070
 H3692 H 0.83893 0.72513 0.86166
 H3693 H 0.91427 0.72009 0.88159
 H3694 H 0.94928 0.74687 0.82619
 H3695 H 0.85337 0.76346 0.77313
 H3696 H 0.81843 0.73713 0.82897
   
