data_POSCAR
  _audit_creation_date              2014-09-24
  _audit_creation_method            'ToBaCCo'
  _symmetry_space_group_name_H-M    'P1'
  _symmetry_Int_Tables_number       1
  _symmetry_cell_setting            triclinic
  loop_
  _symmetry_equiv_pos_as_xyz
 x,y,z
_cell_length_a 66.6226
_cell_length_b 72.6170
_cell_length_c 68.3673
_cell_angle_alpha 90.997700
_cell_angle_beta 89.363200
_cell_angle_gamma 90.540700
loop_
  _atom_site_label
  _atom_site_type_symbol
  _atom_site_fract_x
  _atom_site_fract_y
  _atom_site_fract_z
N1 N 0.31893 0.41045 0.91485
 N2 N 0.46045 0.80551 0.45257
 N3 N 0.91417 0.91815 0.83377
 N4 N 0.43302 -0.09442 0.32818
 N5 N 0.83740 0.34971 0.33577
 N6 N -0.16240 0.85346 0.82736
 N7 N 0.90047 0.35223 0.40571
 N8 N 0.40219 0.41075 0.82685
 N9 N 0.85464 0.90865 0.90097
 N10 N 0.31706 0.81846 0.32242
 N11 N 0.82603 0.41832 0.40888
 N12 N 0.92941 0.84837 -0.08670
 N13 N 0.30621 0.30978 0.80551
 N14 N 0.16708 0.59098 0.57916
 N15 N 0.57014 0.67805 0.06477
 N16 N 0.66890 0.15853 0.66205
 N17 N 1.08714 0.08865 0.17736
 N18 N 0.06268 0.19388 1.06822
 N19 N 0.18084 0.66216 0.68468
 N20 N 1.18456 0.16791 0.17842
 N21 N 0.67433 1.09226 0.58258
 N22 N 0.54989 0.54233 0.18956
 N23 N 0.68279 0.67783 0.16178
 N24 N 0.20710 0.05138 1.06633
 N25 N 0.55829 0.18397 0.55797
 N26 N 0.03196 0.56452 0.70980
 N27 N 0.68741 0.57523 0.05099
 N28 N 0.06189 0.68329 0.55111
 N29 N 0.59932 1.09395 0.65535
 N30 N 0.45521 0.31418 0.94952
 N31 N 0.91606 0.42285 0.33083
 N32 N 0.29883 0.94764 0.45687
 O33 O 0.16610 0.49737 0.74936
 O34 O 0.17523 0.49117 0.78203
 O35 O 0.21680 0.52938 0.72926
 O36 O 0.24949 0.52570 0.72458
 O37 O 0.19061 0.48621 0.69373
 O38 O 0.19489 0.45358 0.69243
 O39 O 0.27311 0.47238 0.76545
 O40 O 0.26734 0.50444 0.76851
 O41 O 0.22501 0.44427 0.78664
 O42 O 0.18863 0.44490 0.78223
 O43 O 0.24776 0.43059 0.73108
 O44 O 0.24554 0.44298 0.69914
 O45 O 0.27334 0.45520 0.73733
 O46 O 0.26435 0.46538 0.70223
 O47 O 0.22582 0.42566 0.75620
 O48 O 0.18781 0.43047 0.75656
 O49 O 0.24805 0.46721 0.79093
 O50 O 0.24365 0.50160 0.79161
 O51 O 0.16502 0.47888 0.72214
 O52 O 0.17483 0.44725 0.71539
 O53 O 0.21438 0.50876 0.69666
 O54 O 0.25177 0.50522 0.70142
 O55 O 0.19270 0.52406 0.75240
 O56 O 0.19761 0.51170 0.78511
 Zr57 Zr 0.19582 0.49592 0.75889
 O58 O 0.21455 0.47717 0.77281
 Zr59 Zr 0.22904 0.50328 0.72321
 O60 O 0.24987 0.48555 0.73616
 Zr61 Zr 0.19482 0.46989 0.71834
 O62 O 0.21438 0.45047 0.73004
 Zr63 Zr 0.24452 0.48409 0.76645
 O64 O 0.22584 0.50407 0.75400
 Zr65 Zr 0.21062 0.45066 0.76055
 O66 O 0.18964 0.46888 0.74870
 Zr67 Zr 0.24444 0.45869 0.72546
 O68 O 0.22479 0.47672 0.71111
 O69 O 0.19916 0.49665 0.72874
 O70 O 0.24059 0.45740 0.75563
 C71 C 0.15687 0.48979 0.73488
 C72 C 0.20229 0.53464 0.74052
 C73 C 0.19954 0.50088 0.68782
 C74 C 0.28147 0.46110 0.75329
 C75 C 0.23948 0.45205 0.79598
 C76 C 0.23984 0.42046 0.74433
 H77 H 0.21167 0.47738 0.78701
 H78 H 0.21158 0.43820 0.72414
 H79 H 0.18971 0.50543 0.72300
 H80 H 0.26378 0.48971 0.73345
 H81 H 0.26125 0.51617 0.76456
 H82 H 0.26093 0.52176 0.73253
 H83 H 0.19109 0.42321 0.74459
 H84 H 0.16854 0.44545 0.72841
 H85 H 0.23303 0.49703 0.80055
 H86 H 0.21009 0.51915 0.78421
 H87 H 0.23229 0.43690 0.69764
 H88 H 0.20763 0.45638 0.68546
 H89 H 0.16975 0.47859 0.77985
 H90 H 0.18955 0.45467 0.79245
 H91 H 0.24835 0.49618 0.69094
 H92 H 0.27511 0.47342 0.70757
 O93 O 0.25862 0.03999 0.22459
 O94 O 0.29238 0.02923 0.22432
 O95 O 0.22529 -0.00998 0.21229
 O96 O 0.22271 -0.03815 0.22522
 O97 O 0.20596 0.02708 0.25678
 O98 O 0.21588 0.03191 0.29061
 O99 O 0.27497 -0.05094 0.27201
 O100 O 0.26994 -0.05292 0.23806
 O101 O 0.31037 -0.00328 0.28102
 O102 O 0.30682 0.02948 0.27153
 O103 O 0.25943 -0.01225 0.31622
 O104 O 0.22335 -0.00898 0.31207
 O105 O 0.25483 -0.04211 0.29747
 O106 O 0.21863 -0.03236 0.29627
 O107 O 0.28665 0.00533 0.30840
 O108 O 0.28789 0.03650 0.29348
 O109 O 0.30449 -0.03080 0.26570
 O110 O 0.29562 -0.03505 0.23034
 O111 O 0.23695 0.04810 0.24916
 O112 O 0.24076 0.04921 0.28407
 O113 O 0.20063 -0.00016 0.24063
 O114 O 0.20456 -0.03190 0.25178
 O115 O 0.25181 0.00859 0.20452
 O116 O 0.28737 0.00444 0.20892
 Zr117 Zr 0.26696 0.01284 0.23115
 O118 O 0.28589 -0.00084 0.25052
 Zr119 Zr 0.22804 -0.01414 0.24243
 O120 O 0.24532 -0.02918 0.26207
 Zr121 Zr 0.23556 0.02501 0.26719
 O122 O 0.25303 0.01178 0.28813
 Zr123 Zr 0.27572 -0.02810 0.25372
 O124 O 0.25811 -0.01506 0.23252
 Zr125 Zr 0.28314 0.01103 0.27861
 O126 O 0.26605 0.02626 0.25871
 Zr127 Zr 0.24424 -0.01603 0.28970
 O128 O 0.22499 -0.00214 0.27053
 O129 O 0.23692 0.01317 0.23940
 O130 O 0.27447 -0.01638 0.28171
 C131 C 0.24672 0.05144 0.23329
 C132 C 0.23574 -0.00048 0.20011
 C133 C 0.19500 0.01587 0.24663
 C134 C 0.26649 -0.05364 0.28868
 C135 C 0.31556 -0.01965 0.27574
 C136 C 0.27597 -0.00399 0.32053
 H137 H 0.29988 -0.00023 0.24564
 H138 H 0.25154 0.01824 0.30089
 H139 H 0.22874 0.01988 0.22992
 H140 H 0.24035 -0.04204 0.26250
 H141 H 0.26297 -0.04954 0.22592
 H142 H 0.22963 -0.04844 0.23151
 H143 H 0.27715 0.03795 0.30347
 H144 H 0.25474 0.05312 0.28120
 H145 H 0.30677 -0.02597 0.23014
 H146 H 0.28472 -0.00882 0.20641
 H147 H 0.22598 0.00398 0.31601
 H148 H 0.20726 0.02094 0.29282
 H149 H 0.29430 0.03781 0.23556
 H150 H 0.31429 0.02418 0.26021
 H151 H 0.19860 -0.02625 0.26375
 H152 H 0.21903 -0.04351 0.28775
 O153 O 0.50060 0.67333 0.24100
 O154 O 0.46458 0.67718 0.24444
 O155 O 0.51739 0.71880 0.20541
 O156 O 0.51507 0.74971 0.20689
 O157 O 0.55090 0.70699 0.25761
 O158 O 0.54449 0.71268 0.29196
 O159 O 0.46507 0.77081 0.25431
 O160 O 0.46674 0.76007 0.22154
 O161 O 0.44361 0.72541 0.28661
 O162 O 0.45456 0.69277 0.28904
 O163 O 0.49321 0.75561 0.30637
 O164 O 0.52958 0.75619 0.29699
 O165 O 0.48880 0.77567 0.27755
 O166 O 0.52609 0.77278 0.27374
 O167 O 0.47045 0.73235 0.31009
 O168 O 0.47659 0.69828 0.30866
 O169 O 0.44157 0.74572 0.26177
 O170 O 0.44548 0.73686 0.22595
 O171 O 0.52595 0.67916 0.26236
 O172 O 0.52445 0.69029 0.29588
 O173 O 0.54708 0.72428 0.23047
 O174 O 0.53676 0.75669 0.22995
 O175 O 0.49657 0.69430 0.21073
 O176 O 0.46166 0.69399 0.21961
 Zr177 Zr 0.48551 0.69866 0.23927
 O178 O 0.46533 0.71553 0.25510
 Zr179 Zr 0.51728 0.73360 0.23226
 O180 O 0.49860 0.75202 0.24798
 Zr181 Zr 0.52217 0.70689 0.27093
 O182 O 0.50357 0.72398 0.28839
 Zr183 Zr 0.46869 0.74296 0.24615
 O184 O 0.48706 0.72570 0.22845
 Zr185 Zr 0.47340 0.71601 0.28466
 O186 O 0.49224 0.69738 0.26919
 Zr187 Zr 0.50520 0.75103 0.27801
 O188 O 0.52566 0.73429 0.26192
 O189 O 0.51544 0.70656 0.24137
 O190 O 0.47523 0.74325 0.27581
 C191 C 0.51629 0.66853 0.25042
 C192 C 0.50882 0.70359 0.20003
 C193 C 0.55754 0.71417 0.24168
 C194 C 0.47381 0.78087 0.26738
 C195 C 0.43449 0.73786 0.27708
 C196 C 0.47920 0.74725 0.31591
 H197 H 0.45147 0.71089 0.25334
 H198 H 0.50766 0.72338 0.30221
 H199 H 0.52437 0.69841 0.23355
 H200 H 0.50018 0.76457 0.24277
 H201 H 0.47311 0.75333 0.21043
 H202 H 0.50622 0.76020 0.21016
 H203 H 0.48803 0.70283 0.31655
 H204 H 0.51164 0.68334 0.29693
 H205 H 0.43632 0.72758 0.23172
 H206 H 0.46010 0.70554 0.21235
 H207 H 0.52914 0.74677 0.30726
 H208 H 0.54980 0.72513 0.28911
 H209 H 0.46704 0.67285 0.25785
 H210 H 0.44506 0.69198 0.27803
 H211 H 0.54466 0.75735 0.24213
 H212 H 0.52269 0.77889 0.26141
 O213 O -0.00076 0.71377 0.70670
 O214 O -0.03159 0.72323 0.70085
 O215 O 0.03599 0.76044 0.69124
 O216 O 0.03823 0.79018 0.70054
 O217 O 0.04927 0.72957 0.74092
 O218 O 0.03700 0.72942 0.77364
 O219 O -0.01873 0.81038 0.74171
 O220 O -0.01233 0.80768 0.70847
 O221 O -0.05538 0.76400 0.75499
 O222 O -0.05304 0.73228 0.74817
 O223 O -0.00824 0.77882 0.79067
 O224 O 0.02769 0.77106 0.78954
 O225 O -0.00248 0.80457 0.77008
 O226 O 0.03264 0.79821 0.76916
 O227 O -0.03456 0.75958 0.78420
 O228 O -0.03371 0.72635 0.77346
 O229 O -0.04756 0.78990 0.73816
 O230 O -0.03644 0.78713 0.70131
 O231 O 0.01742 0.70827 0.73397
 O232 O 0.01178 0.71294 0.76883
 O233 O 0.05734 0.75446 0.72249
 O234 O 0.05228 0.78886 0.72856
 O235 O 0.00947 0.74172 0.68387
 O236 O -0.02726 0.74917 0.68625
 Zr237 Zr -0.00844 0.74165 0.70951
 O238 O -0.02885 0.75757 0.72625
 Zr239 Zr 0.03022 0.76912 0.72018
 O240 O 0.01126 0.78694 0.73639
 Zr241 Zr 0.01916 0.73390 0.74883
 O242 O 0.00065 0.75036 0.76687
 Zr243 Zr -0.01847 0.78497 0.72660
 O244 O 0.00112 0.76931 0.70828
 Zr245 Zr -0.02847 0.74957 0.75563
 O246 O -0.01040 0.73180 0.73840
 Zr247 Zr 0.00972 0.77809 0.76540
 O248 O 0.03038 0.76124 0.74963
 O249 O 0.02075 0.74180 0.71984
 O250 O -0.01956 0.77703 0.75556
 C251 C 0.00908 0.70314 0.71787
 C252 C 0.02634 0.74953 0.67963
 C253 C 0.06163 0.73926 0.73080
 C254 C -0.01301 0.81485 0.75904
 C255 C -0.05946 0.78006 0.74874
 C256 C -0.02510 0.77122 0.79517
 H257 H -0.04252 0.75638 0.72087
 H258 H 0.00121 0.74602 0.78048
 H259 H 0.02950 0.73353 0.71196
 H260 H 0.01638 0.79975 0.73567
 H261 H -0.00419 0.80295 0.69730
 H262 H 0.02875 0.80038 0.70301
 H263 H -0.02473 0.72727 0.78487
 H264 H -0.00163 0.70813 0.76514
 H265 H -0.04974 0.78153 0.70405
 H266 H -0.02124 0.76030 0.68031
 H267 H 0.02678 0.78124 0.79937
 H268 H 0.04425 0.74113 0.77635
 H269 H -0.04362 0.72641 0.70875
 H270 H -0.04743 0.72155 0.74092
 H271 H 0.06028 0.78344 0.73909
 H272 H 0.04558 0.79174 0.76773
 O273 O 0.00650 0.06562 0.01348
 O274 O -0.02868 0.05992 0.01095
 O275 O 0.02737 0.02387 0.04957
 O276 O 0.02774 -0.00689 0.05021
 O277 O 0.05815 0.03713 -0.00355
 O278 O 0.05321 0.02848 -0.03701
 O279 O -0.02216 -0.03377 0.00620
 O280 O -0.02336 -0.02118 0.03751
 O281 O -0.04660 0.00809 -0.02938
 O282 O -0.03831 0.03996 -0.03515
 O283 O 0.00502 -0.02054 -0.04734
 O284 O 0.04057 -0.01506 -0.04038
 O285 O 0.00053 -0.03834 -0.01851
 O286 O 0.03575 -0.03447 -0.01149
 O287 O -0.01950 0.00036 -0.05247
 O288 O -0.01372 0.03599 -0.05341
 O289 O -0.04655 -0.01243 -0.00462
 O290 O -0.04468 0.00145 0.03128
 O291 O 0.03090 0.06162 -0.00978
 O292 O 0.03035 0.04752 -0.04283
 O293 O 0.05693 0.01928 0.02350
 O294 O 0.04724 -0.01470 0.02718
 O295 O 0.00329 0.04531 0.04474
 O296 O -0.03186 0.04278 0.03538
 Zr297 Zr -0.00700 0.03956 0.01617
 O298 O -0.02593 0.02088 0.00114
 Zr299 Zr 0.02763 0.00779 0.02381
 O300 O 0.00971 -0.01253 0.01013
 Zr301 Zr 0.02993 0.03300 -0.01628
 O302 O 0.01306 0.01316 -0.03211
 Zr303 Zr -0.02077 -0.00550 0.01182
 O304 O -0.00318 0.01338 0.02827
 Zr305 Zr -0.01748 0.01921 -0.02858
 O306 O -0.00059 0.04008 -0.01411
 Zr307 Zr 0.01648 -0.01303 -0.01991
 O308 O 0.03594 0.00631 -0.00593
 O309 O 0.02343 0.03410 0.01348
 O310 O -0.01377 -0.00697 -0.01775
 C311 C 0.02103 0.07156 0.00273
 C312 C 0.01694 0.03786 0.05509
 C313 C 0.06587 0.03059 0.01196
 C314 C -0.01435 -0.04358 -0.00763
 C315 C -0.05414 -0.00551 -0.02004
 C316 C -0.00960 -0.01424 -0.05719
 H317 H -0.04011 0.02454 0.00282
 H318 H 0.01734 0.01304 -0.04601
 H319 H 0.03169 0.04329 0.02069
 H320 H 0.01211 -0.02464 0.01608
 H321 H -0.01737 -0.01365 0.04819
 H322 H 0.01625 -0.01559 0.04962
 H323 H -0.00456 0.02961 -0.06272
 H324 H 0.01774 0.05461 -0.04316
 H325 H -0.05620 0.00557 0.02353
 H326 H -0.03156 0.03233 0.04448
 H327 H 0.04032 -0.02768 -0.04616
 H328 H 0.05873 0.01620 -0.03427
 H329 H -0.02712 0.06328 -0.00296
 H330 H -0.04581 0.04288 -0.02294
 H331 H 0.05852 -0.01313 0.01780
 H332 H 0.04916 -0.02884 -0.00949
 O333 O -0.01375 0.54564 0.54571
 O334 O -0.04792 0.53397 0.54849
 O335 O 0.02179 0.50013 0.56069
 O336 O 0.02446 0.47019 0.55112
 O337 O 0.03594 0.53093 0.51025
 O338 O 0.02260 0.53032 0.47709
 O339 O -0.03041 0.44824 0.51075
 O340 O -0.02206 0.45161 0.54439
 O341 O -0.06735 0.49022 0.49617
 O342 O -0.06649 0.52529 0.50638
 O343 O -0.02144 0.48051 0.46136
 O344 O 0.01575 0.48741 0.46183
 O345 O -0.01452 0.45520 0.48211
 O346 O 0.02218 0.46543 0.47944
 O347 O -0.04796 0.49886 0.46903
 O348 O -0.05027 0.53120 0.48073
 O349 O -0.05911 0.46647 0.51563
 O350 O -0.04861 0.46962 0.55160
 O351 O 0.00442 0.55139 0.51808
 O352 O -0.00180 0.54764 0.48396
 O353 O 0.04382 0.50621 0.52862
 O354 O 0.04054 0.47342 0.52310
 O355 O -0.00566 0.51740 0.56826
 O356 O -0.04087 0.51234 0.56704
 Zr357 Zr -0.02236 0.51772 0.54246
 O358 O -0.04217 0.50021 0.52684
 Zr359 Zr 0.01691 0.49126 0.53158
 O360 O -0.00098 0.47268 0.51524
 Zr361 Zr 0.00556 0.52609 0.50291
 O362 O -0.01313 0.50929 0.48531
 Zr363 Zr -0.03052 0.47341 0.52619
 O364 O -0.01215 0.49038 0.54399
 Zr365 Zr -0.04226 0.50827 0.49755
 O366 O -0.02421 0.52712 0.51360
 Zr367 Zr -0.00301 0.48200 0.48629
 O368 O 0.01707 0.49925 0.50210
 O369 O 0.00702 0.51828 0.53191
 O370 O -0.03198 0.48147 0.49731
 C371 C -0.00339 0.55635 0.53458
 C372 C 0.01119 0.51010 0.57257
 C373 C 0.04831 0.52138 0.52016
 C374 C -0.02504 0.44449 0.49304
 C375 C -0.07048 0.47406 0.50312
 C376 C -0.03873 0.48738 0.45774
 H377 H -0.05579 0.50060 0.53268
 H378 H -0.01318 0.51395 0.47181
 H379 H 0.01577 0.52652 0.53980
 H380 H 0.00452 0.46011 0.51580
 H381 H -0.01525 0.45727 0.55584
 H382 H 0.01746 0.45882 0.54670
 H383 H -0.03995 0.53261 0.47034
 H384 H -0.01581 0.55108 0.48719
 H385 H -0.06173 0.47554 0.54965
 H386 H -0.03858 0.49933 0.57042
 H387 H 0.01039 0.49831 0.45524
 H388 H 0.03136 0.51946 0.47538
 H389 H -0.05032 0.54121 0.53662
 H390 H -0.07577 0.51794 0.51461
 H391 H 0.04399 0.47624 0.50935
 H392 H 0.02206 0.45492 0.48845
 O393 O 0.55103 0.02926 0.50347
 O394 O 0.53944 0.02929 0.46935
 O395 O 0.49957 0.04068 0.53717
 O396 O 0.46738 0.02990 0.53870
 O397 O 0.53735 -0.00217 0.55078
 O398 O 0.53855 -0.03485 0.53938
 O399 O 0.44801 -0.01145 0.48767
 O400 O 0.44995 0.02138 0.49436
 O401 O 0.49705 -0.02204 0.44975
 O402 O 0.53375 -0.01218 0.45140
 O403 O 0.48847 -0.05563 0.49661
 O404 O 0.49407 -0.05283 0.53231
 O405 O 0.45734 -0.03711 0.50378
 O406 O 0.46898 -0.03829 0.53829
 O407 O 0.50713 -0.04768 0.46996
 O408 O 0.54163 -0.03426 0.46785
 O409 O 0.46893 -0.00617 0.45805
 O410 O 0.46766 0.02466 0.46539
 O411 O 0.55942 0.00359 0.52015
 O412 O 0.55771 -0.02882 0.51518
 O413 O 0.50821 0.01265 0.55831
 O414 O 0.47290 0.00451 0.55525
 O415 O 0.51895 0.04835 0.51086
 O416 O 0.51452 0.04567 0.47539
 Zr417 Zr 0.52127 0.02375 0.49414
 O418 O 0.50384 0.00702 0.47515
 Zr419 Zr 0.49219 0.01280 0.53214
 O420 O 0.47393 -0.00469 0.51506
 Zr421 Zr 0.53281 -0.01190 0.52174
 O422 O 0.51650 -0.03027 0.50365
 Zr423 Zr 0.47444 0.00446 0.48616
 O424 O 0.49098 0.02346 0.50366
 Zr425 Zr 0.51495 -0.01995 0.47509
 O426 O 0.53376 -0.00281 0.49259
 Zr427 Zr 0.48655 -0.03116 0.51352
 O428 O 0.50340 -0.01421 0.53294
 O429 O 0.52178 0.01468 0.52263
 O430 O 0.48537 -0.02225 0.48486
 C431 C 0.56335 0.01961 0.51338
 C432 C 0.51034 0.05215 0.52737
 C433 C 0.52596 0.00733 0.56243
 C434 C 0.44460 -0.02764 0.49432
 C435 C 0.47914 -0.01652 0.44630
 C436 C 0.49665 -0.05923 0.47987
 H437 H 0.50375 0.01224 0.46189
 H438 H 0.52283 -0.04252 0.50382
 H439 H 0.52991 0.02306 0.53094
 H440 H 0.46016 -0.00480 0.52060
 H441 H 0.45563 0.03331 0.49900
 H442 H 0.45569 0.02470 0.53166
 H443 H 0.54331 -0.04403 0.47758
 H444 H 0.56144 -0.02645 0.50139
 H445 H 0.47573 0.03567 0.46893
 H446 H 0.50200 0.05136 0.48040
 H447 H 0.50749 -0.05732 0.52830
 H448 H 0.52727 -0.03573 0.54887
 H449 H 0.54863 0.01873 0.46769
 H450 H 0.52716 -0.00207 0.44449
 H451 H 0.47760 -0.00768 0.55945
 H452 H 0.45790 -0.02936 0.53954
 O453 O 0.48975 0.48560 -0.06510
 O454 O 0.52460 0.49669 -0.06270
 O455 O 0.48078 0.45476 -0.01454
 O456 O 0.48356 0.45894 0.01806
 O457 O 0.43855 0.49514 -0.03163
 O458 O 0.43730 0.52861 -0.02665
 O459 O 0.52294 0.51373 0.03617
 O460 O 0.52711 0.48174 0.02766
 O461 O 0.53790 0.54256 -0.01478
 O462 O 0.52657 0.54105 -0.04888
 O463 O 0.48467 0.55458 0.01667
 O464 O 0.45088 0.53964 0.01804
 O465 O 0.49460 0.53080 0.03974
 O466 O 0.45880 0.52009 0.03732
 O467 O 0.50728 0.55994 -0.00779
 O468 O 0.50047 0.55512 -0.04438
 O469 O 0.54575 0.52087 0.00738
 O470 O 0.54808 0.48783 0.00342
 O471 O 0.46192 0.50334 -0.06116
 O472 O 0.45583 0.53442 -0.05126
 O473 O 0.44669 0.47355 -0.00929
 O474 O 0.45762 0.47688 0.02440
 O475 O 0.50096 0.46126 -0.04066
 O476 O 0.53327 0.47597 -0.04289
 Zr477 Zr 0.50572 0.48979 -0.03881
 O478 O 0.52240 0.50921 -0.02238
 Zr479 Zr 0.47603 0.48064 -0.00071
 O480 O 0.49124 0.49989 0.01733
 Zr481 Zr 0.46358 0.51316 -0.03212
 O482 O 0.47835 0.53387 -0.01557
 Zr483 Zr 0.52104 0.50269 0.00749
 O484 O 0.50651 0.48181 -0.00928
 Zr485 Zr 0.50879 0.53508 -0.02391
 O486 O 0.49337 0.51606 -0.04235
 Zr487 Zr 0.47866 0.52613 0.01385
 O488 O 0.46184 0.50640 -0.00235
 O489 O 0.47596 0.48714 -0.03011
 O490 O 0.50870 0.52878 0.00564
 C491 C 0.47299 0.49208 -0.07103
 C492 C 0.49070 0.45007 -0.03010
 C493 C 0.43477 0.48060 -0.02170
 C494 C 0.51143 0.52483 0.04582
 C495 C 0.54966 0.53560 -0.00214
 C496 C 0.49730 0.56489 0.00757
 H497 H 0.53634 0.50961 -0.02744
 H498 H 0.47166 0.54582 -0.01724
 H499 H 0.46873 0.47768 -0.03795
 H500 H 0.49069 0.49591 0.03107
 H501 H 0.52351 0.46987 0.02119
 H502 H 0.49114 0.46439 0.02913
 H503 H 0.48906 0.56214 -0.03879
 H504 H 0.46841 0.53813 -0.05801
 H505 H 0.55369 0.49075 -0.00962
 H506 H 0.53603 0.46979 -0.03042
 H507 H 0.44913 0.54811 0.00702
 H508 H 0.43222 0.52502 -0.01358
 H509 H 0.51885 0.50781 -0.06858
 H510 H 0.53687 0.53137 -0.05018
 H511 H 0.44765 0.48691 0.02458
 H512 H 0.46496 0.51040 0.04521
 O513 O 0.76328 0.27798 0.45188
 O514 O 0.73031 0.26403 0.44798
 O515 O 0.75400 0.31626 0.49911
 O516 O 0.74441 0.31615 0.53044
 O517 O 0.80425 0.27956 0.49787
 O518 O 0.80794 0.24730 0.50680
 O519 O 0.70550 0.25776 0.54446
 O520 O 0.70148 0.28922 0.53271
 O521 O 0.70954 0.22269 0.49885
 O522 O 0.72885 0.22082 0.46824
 O523 O 0.75253 0.22266 0.54255
 O524 O 0.78272 0.24053 0.54966
 O525 O 0.73418 0.24748 0.55805
 O526 O 0.76894 0.26326 0.56181
 O527 O 0.73906 0.21061 0.51470
 O528 O 0.75562 0.21182 0.47994
 O529 O 0.69314 0.24666 0.51343
 O530 O 0.68871 0.27649 0.50327
 O531 O 0.79146 0.26636 0.46536
 O532 O 0.79678 0.23626 0.47982
 O533 O 0.78748 0.30362 0.51196
 O534 O 0.76898 0.30158 0.54437
 O535 O 0.74544 0.30422 0.46929
 O536 O 0.71407 0.28528 0.46243
 Zr537 Zr 0.74121 0.27581 0.47432
 O538 O 0.72285 0.25665 0.48911
 Zr539 Zr 0.75820 0.29322 0.51654
 O540 O 0.74036 0.27505 0.53308
 Zr541 Zr 0.78237 0.25877 0.49384
 O542 O 0.76589 0.23893 0.50963
 Zr543 Zr 0.71503 0.26724 0.51690
 O544 O 0.73136 0.28750 0.50130
 Zr545 Zr 0.73914 0.23267 0.49482
 O546 O 0.75682 0.25094 0.47767
 Zr547 Zr 0.75652 0.25065 0.53648
 O548 O 0.77533 0.26962 0.52181
 O549 O 0.76692 0.28286 0.48933
 O550 O 0.73042 0.24312 0.52193
 C551 C 0.78219 0.27427 0.45138
 C552 C 0.75068 0.31765 0.48074
 C553 C 0.80307 0.29650 0.50366
 C554 C 0.71509 0.24983 0.55816
 C555 C 0.69387 0.23005 0.50676
 C556 C 0.74432 0.20944 0.53273
 H557 H 0.71072 0.25401 0.48130
 H558 H 0.77409 0.22784 0.51147
 H559 H 0.77497 0.29188 0.48192
 H560 H 0.73644 0.28072 0.54579
 H561 H 0.70466 0.30057 0.52545
 H562 H 0.73353 0.31135 0.53894
 H563 H 0.76513 0.20655 0.48929
 H564 H 0.78744 0.23155 0.46971
 H565 H 0.69249 0.28773 0.49611
 H566 H 0.71034 0.29663 0.46977
 H567 H 0.78931 0.23213 0.54010
 H568 H 0.80870 0.25266 0.52019
 H569 H 0.73773 0.25241 0.44579
 H570 H 0.71879 0.22925 0.46292
 H571 H 0.78152 0.29474 0.54656
 H572 H 0.75864 0.27138 0.56780
 O573 O 0.76852 0.80509 -0.02893
 O574 O 0.76156 0.80463 0.00603
 O575 O 0.80747 0.75958 -0.03726
 O576 O 0.80663 0.72896 -0.03669
 O577 O 0.75413 0.76668 -0.07562
 O578 O 0.72093 0.76402 -0.07258
 O579 O 0.75589 0.71110 0.01374
 O580 O 0.78901 0.72260 0.01339
 O581 O 0.71911 0.75614 0.02792
 O582 O 0.71384 0.78561 0.01568
 O583 O 0.70468 0.72057 -0.01981
 O584 O 0.71493 0.71817 -0.05223
 O585 O 0.73521 0.70244 -0.01105
 O586 O 0.74312 0.70342 -0.04757
 O587 O 0.69759 0.74502 0.00030
 O588 O 0.69846 0.77956 -0.00974
 O589 O 0.74576 0.73772 0.03367
 O590 O 0.78238 0.74764 0.03099
 O591 O 0.74904 0.79654 -0.05470
 O592 O 0.71284 0.78445 -0.05075
 O593 O 0.78420 0.75389 -0.06844
 O594 O 0.78404 0.72037 -0.05653
 O595 O 0.79916 0.78595 -0.02059
 O596 O 0.78691 0.78833 0.01317
 Zr597 Zr 0.76931 0.78143 -0.01149
 O598 O 0.75228 0.76556 0.00819
 Zr599 Zr 0.78029 0.74468 -0.03938
 O600 O 0.76443 0.72709 -0.02036
 Zr601 Zr 0.73971 0.76935 -0.04836
 O602 O 0.72180 0.75220 -0.03059
 Zr603 Zr 0.76337 0.73859 0.00798
 O604 O 0.78185 0.75488 -0.01030
 Zr605 Zr 0.72270 0.76271 -0.00176
 O606 O 0.73905 0.78102 -0.01996
 Zr607 Zr 0.73430 0.72577 -0.02912
 O608 O 0.75056 0.74212 -0.04938
 O609 O 0.76951 0.77125 -0.03993
 O610 O 0.73361 0.73600 -0.00053
 C611 C 0.76086 0.80797 -0.04582
 C612 C 0.81153 0.77572 -0.03027
 C613 C 0.77227 0.76231 -0.07993
 C614 C 0.74427 0.69940 0.00511
 C615 C 0.72914 0.74538 0.03876
 C616 C 0.69321 0.72940 -0.00778
 H617 H 0.75265 0.77138 0.02136
 H618 H 0.70797 0.75157 -0.03567
 H619 H 0.77815 0.77887 -0.04845
 H620 H 0.77079 0.71485 -0.02033
 H621 H 0.80046 0.72878 0.00679
 H622 H 0.80473 0.72128 -0.02501
 H623 H 0.68973 0.77230 -0.01866
 H624 H 0.71400 0.79531 -0.04186
 H625 H 0.77542 0.75740 0.03863
 H626 H 0.79599 0.77782 0.01511
 H627 H 0.72034 0.72413 -0.06412
 H628 H 0.71210 0.75355 -0.06907
 H629 H 0.74809 0.80849 0.00181
 H630 H 0.72619 0.79101 0.02135
 H631 H 0.77384 0.72058 -0.06695
 H632 H 0.75444 0.69709 -0.04141
 O633 O 1.01628 0.21049 0.23632
 O634 O 0.98150 0.21928 0.23548
 O635 O 1.04684 0.25857 0.21652
 O636 O 1.04917 0.28833 0.22514
 O637 O 1.06680 0.23019 0.26708
 O638 O 1.05613 0.23052 0.30081
 O639 O 0.99250 0.30650 0.27137
 O640 O 1.00072 0.30447 0.23685
 O641 O 0.96058 0.25992 0.28542
 O642 O 0.96611 0.22698 0.28356
 O643 O 1.01189 0.27747 0.31912
 O644 O 1.04809 0.27495 0.31458
 O645 O 1.01347 0.30281 0.29698
 O646 O 1.05145 0.29555 0.29432
 O647 O 0.98317 0.26145 0.31279
 O648 O 0.98647 0.22559 0.30618
 O649 O 0.96584 0.28523 0.26682
 O650 O 0.97581 0.28389 0.23079
 O651 O 1.03594 0.20691 0.26302
 O652 O 1.03214 0.21207 0.29742
 O653 O 1.07117 0.25338 0.24535
 O654 O 1.06621 0.28717 0.25251
 O655 O 1.02108 0.23822 0.21188
 O656 O 0.98525 0.24145 0.21634
 Zr657 Zr 1.00589 0.23780 0.23917
 O658 O 0.98609 0.25395 0.25637
 Zr659 Zr 1.04361 0.26744 0.24575
 O660 O 1.02536 0.28532 0.26278
 Zr661 Zr 1.03681 0.23297 0.27668
 O662 O 1.01875 0.24922 0.29541
 Zr663 Zr 0.99508 0.28176 0.25512
 O664 O 1.01364 0.26584 0.23609
 Zr665 Zr 0.98885 0.24737 0.28604
 O666 O 1.00659 0.22939 0.26854
 Zr667 Zr 1.02679 0.27703 0.29202
 O668 O 1.04669 0.26049 0.27531
 O669 O 1.03570 0.23977 0.24731
 O670 O 0.99682 0.27486 0.28425
 C671 C 1.02755 0.20088 0.24732
 C672 C 1.03684 0.24699 0.20595
 C673 C 1.07729 0.23918 0.25449
 C674 C 0.99985 0.31160 0.28794
 C675 C 0.95499 0.27527 0.27828
 C676 C 0.99381 0.27264 0.32328
 H677 H 0.97222 0.25197 0.25176
 H678 H 1.02016 0.24526 0.30908
 H679 H 1.04424 0.23179 0.23888
 H680 H 1.02962 0.29830 0.26126
 H681 H 1.00771 0.29957 0.22504
 H682 H 1.04117 0.29913 0.22931
 H683 H 0.99239 0.22984 0.31869
 H684 H 1.01806 0.20784 0.29592
 H685 H 0.96477 0.27480 0.23228
 H686 H 0.98740 0.25414 0.21162
 H687 H 1.04574 0.26299 0.32096
 H688 H 1.06428 0.24198 0.30143
 H689 H 0.98050 0.21209 0.24762
 H690 H 0.96032 0.22805 0.27037
 H691 H 1.07298 0.28298 0.26444
 H692 H 1.04844 0.30660 0.28666
 O693 O 0.80023 0.98810 0.76635
 O694 O 0.80658 1.02006 0.75982
 O695 O 0.75602 0.99144 0.81247
 O696 O 0.72551 1.00429 0.81675
 O697 O 0.74884 0.95352 0.76517
 O698 O 0.73686 0.95662 0.73168
 O699 O 0.71173 1.05031 0.76286
 O700 O 0.72412 1.04745 0.79601
 O701 O 0.75154 1.04824 0.72324
 O702 O 0.78452 1.02949 0.71772
 O703 O 0.70583 1.01431 0.71857
 O704 O 0.69630 0.98365 0.73209
 O705 O 0.69333 1.02698 0.74930
 O706 O 0.68596 0.99376 0.75831
 O707 O 0.73559 1.02392 0.70557
 O708 O 0.76902 1.00910 0.70207
 O709 O 0.74426 1.06063 0.75323
 O710 O 0.75533 1.05694 0.78721
 O711 O 0.78257 0.96501 0.75131
 O712 O 0.76513 0.96623 0.72025
 O713 O 0.73714 0.96555 0.79404
 O714 O 0.70685 0.98504 0.79821
 O715 O 0.78639 0.99973 0.79946
 O716 O 0.79464 1.03057 0.78674
 Zr717 Zr 0.77942 1.00929 0.77129
 O718 O 0.76544 1.03031 0.75571
 Zr719 Zr 0.73581 0.99407 0.78929
 O720 O 0.71982 1.01458 0.77479
 Zr721 Zr 0.75393 0.97653 0.74730
 O722 O 0.73858 0.99604 0.73078
 Zr723 Zr 0.73868 1.03749 0.77036
 O724 O 0.75385 1.01802 0.78727
 Zr725 Zr 0.75630 1.02002 0.72824
 O726 O 0.77276 0.99959 0.74278
 Zr727 Zr 0.71298 1.00468 0.74652
 O728 O 0.72693 0.98334 0.76186
 O729 O 0.76190 0.98593 0.77489
 O730 O 0.73039 1.02812 0.74272
 C731 C 0.79854 0.97159 0.75938
 C732 C 0.77524 0.99310 0.81322
 C733 C 0.74344 0.95207 0.78324
 C734 C 0.69609 1.04401 0.75406
 C735 C 0.74669 1.06179 0.73466
 C736 C 0.71640 1.02182 0.70494
 H737 H 0.77471 1.04093 0.75440
 H738 H 0.73513 0.99072 0.71784
 H739 H 0.76918 0.97642 0.78203
 H740 H 0.70763 1.01814 0.78227
 H741 H 0.73049 1.04129 0.80713
 H742 H 0.71587 1.01423 0.81427
 H743 H 0.76047 0.99862 0.69777
 H744 H 0.77626 0.97457 0.71637
 H745 H 0.76859 1.05857 0.78078
 H746 H 0.78584 1.03421 0.79788
 H747 H 0.70408 0.97964 0.72040
 H748 H 0.72338 0.95640 0.73792
 H749 H 0.80668 1.01688 0.74569
 H750 H 0.78741 1.04157 0.72404
 H751 H 0.70212 0.97605 0.78819
 H752 H 0.68256 1.00097 0.77028
 O753 O 0.74520 0.55294 0.21187
 O754 O 0.78169 0.55375 0.21615
 O755 O 0.73806 0.50158 0.18007
 O756 O 0.74439 0.47163 0.18502
 O757 O 0.69937 0.51506 0.23001
 O758 O 0.70449 0.51402 0.26506
 O759 O 0.79384 0.46285 0.23620
 O760 O 0.79306 0.46945 0.20197
 O761 O 0.80627 0.51404 0.26397
 O762 O 0.79069 0.54537 0.26171
 O763 O 0.76263 0.47986 0.28398
 O764 O 0.72498 0.47556 0.27521
 O765 O 0.76893 0.45785 0.25861
 O766 O 0.73222 0.45575 0.25408
 O767 O 0.78012 0.50682 0.28648
 O768 O 0.76790 0.53945 0.28148
 O769 O 0.81225 0.49039 0.24248
 O770 O 0.81055 0.49598 0.20513
 O771 O 0.71945 0.54607 0.23279
 O772 O 0.72025 0.53933 0.26694
 O773 O 0.70753 0.49558 0.20477
 O774 O 0.72251 0.46484 0.20780
 O775 O 0.75392 0.52937 0.18362
 O776 O 0.78780 0.53504 0.19278
 Zr777 Zr 0.76402 0.52961 0.21261
 O778 O 0.78559 0.51738 0.23054
 Zr779 Zr 0.73825 0.49031 0.20836
 O780 O 0.75831 0.47640 0.22647
 Zr781 Zr 0.72689 0.52037 0.24403
 O782 O 0.74676 0.50822 0.26369
 Zr783 Zr 0.78680 0.48883 0.22460
 O784 O 0.76728 0.50149 0.20471
 Zr785 Zr 0.77566 0.51960 0.25969
 O786 O 0.75517 0.53355 0.24199
 Zr787 Zr 0.74959 0.48025 0.25599
 O788 O 0.72798 0.49200 0.23763
 O789 O 0.73543 0.51819 0.21476
 O790 O 0.77806 0.49160 0.25359
 C791 C 0.72828 0.55657 0.22038
 C792 C 0.74431 0.51716 0.17353
 C793 C 0.69496 0.50549 0.21461
 C794 C 0.78557 0.45358 0.25010
 C795 C 0.81694 0.50068 0.25724
 C796 C 0.77491 0.49092 0.29277
 H797 H 0.79882 0.52339 0.22866
 H798 H 0.74187 0.50989 0.27729
 H799 H 0.72592 0.52421 0.20595
 H800 H 0.75888 0.46322 0.22265
 H801 H 0.78704 0.47427 0.18993
 H802 H 0.75508 0.46335 0.18941
 H803 H 0.75792 0.53381 0.29042
 H804 H 0.73204 0.54766 0.26804
 H805 H 0.81939 0.50510 0.21175
 H806 H 0.79222 0.52291 0.18760
 H807 H 0.72629 0.48411 0.28655
 H808 H 0.70118 0.50080 0.26320
 H809 H 0.77761 0.55946 0.22882
 H810 H 0.80135 0.54555 0.25153
 H811 H 0.71374 0.46469 0.21958
 H812 H 0.73631 0.44914 0.24192
 O813 O 0.55974 0.22639 0.75269
 O814 O 0.55103 0.22679 0.78730
 O815 O 0.51240 0.20200 0.72388
 O816 O 0.47842 0.20488 0.72342
 O817 O 0.53605 0.25241 0.70403
 O818 O 0.53182 0.28416 0.71424
 O819 O 0.45128 0.24476 0.77412
 O820 O 0.45964 0.21394 0.77089
 O821 O 0.49947 0.26844 0.80714
 O822 O 0.53508 0.26957 0.80344
 O823 O 0.47641 0.29456 0.75980
 O824 O 0.48581 0.29284 0.72477
 O825 O 0.45208 0.26947 0.75403
 O826 O 0.46056 0.26855 0.72089
 O827 O 0.50053 0.29499 0.78307
 O828 O 0.53809 0.28894 0.78264
 O829 O 0.47483 0.24697 0.80249
 O830 O 0.48170 0.21327 0.79442
 O831 O 0.56113 0.25094 0.73234
 O832 O 0.55226 0.28338 0.73784
 O833 O 0.51290 0.22945 0.69999
 O834 O 0.47555 0.22963 0.70582
 O835 O 0.53293 0.20065 0.75026
 O836 O 0.52891 0.20563 0.78514
 Zr837 Zr 0.53031 0.22660 0.76410
 O838 O 0.51065 0.24074 0.78321
 Zr839 Zr 0.49808 0.22766 0.72732
 O840 O 0.47692 0.24157 0.74503
 Zr841 Zr 0.53167 0.26145 0.73317
 O842 O 0.51165 0.27696 0.75077
 Zr843 Zr 0.48097 0.23543 0.77459
 O844 O 0.50058 0.21949 0.75669
 Zr845 Zr 0.51460 0.26924 0.78001
 O846 O 0.53628 0.25508 0.76274
 Zr847 Zr 0.48189 0.27013 0.74361
 O848 O 0.50192 0.25631 0.72399
 O849 O 0.52745 0.23322 0.73488
 O850 O 0.48478 0.26381 0.77297
 C851 C 0.56876 0.23659 0.74009
 C852 C 0.52553 0.19395 0.73435
 C853 C 0.52749 0.23960 0.69380
 C854 C 0.44294 0.25831 0.76561
 C855 C 0.48379 0.25947 0.81279
 C856 C 0.48554 0.30211 0.77437
 H857 H 0.51301 0.23703 0.79682
 H858 H 0.51433 0.29025 0.74894
 H859 H 0.53675 0.22626 0.72624
 H860 H 0.46330 0.23813 0.74056
 H861 H 0.46654 0.20381 0.76373
 H862 H 0.46619 0.20743 0.73130
 H863 H 0.53605 0.29838 0.77261
 H864 H 0.55894 0.28103 0.75040
 H865 H 0.49008 0.21692 0.80572
 H866 H 0.51582 0.19929 0.78337
 H867 H 0.47324 0.30005 0.72517
 H868 H 0.51893 0.28363 0.70718
 H869 H 0.55787 0.23896 0.78717
 H870 H 0.53645 0.25675 0.80781
 H871 H 0.47921 0.24007 0.69735
 H872 H 0.46820 0.26760 0.70843
 O873 O 0.28346 0.80978 0.52527
 O874 O 0.27677 0.79990 0.55834
 O875 O 0.31695 0.76280 0.50254
 O876 O 0.31123 0.73194 0.50104
 O877 O 0.27056 0.78555 0.46811
 O878 O 0.23429 0.78421 0.46965
 O879 O 0.25153 0.71110 0.53842
 O880 O 0.28824 0.71647 0.54065
 O881 O 0.22445 0.75598 0.56360
 O882 O 0.22844 0.79020 0.55978
 O883 O 0.20743 0.73686 0.50916
 O884 O 0.22175 0.74161 0.47469
 O885 O 0.23382 0.71231 0.51024
 O886 O 0.24115 0.72057 0.47717
 O887 O 0.20302 0.75883 0.53290
 O888 O 0.21090 0.79150 0.53629
 O889 O 0.24808 0.73378 0.56577
 O890 O 0.28263 0.73499 0.56675
 O891 O 0.26541 0.81039 0.49725
 O892 O 0.23096 0.80399 0.49175
 O893 O 0.29499 0.76415 0.47144
 O894 O 0.29043 0.73124 0.47541
 O895 O 0.31201 0.78482 0.52613
 O896 O 0.29971 0.78046 0.55903
 Zr897 Zr 0.28150 0.78207 0.53399
 O898 O 0.26060 0.76478 0.54820
 Zr899 Zr 0.28810 0.75144 0.49803
 O900 O 0.26707 0.73291 0.51031
 Zr901 Zr 0.25336 0.78375 0.49415
 O902 O 0.23102 0.76705 0.50683
 Zr903 Zr 0.26597 0.73704 0.54070
 O904 O 0.28883 0.75419 0.52875
 Zr905 Zr 0.23181 0.76980 0.53750
 O906 O 0.25241 0.78848 0.52467
 Zr907 Zr 0.23798 0.73936 0.50099
 O908 O 0.25938 0.75619 0.48657
 O909 O 0.28222 0.77907 0.50375
 O910 O 0.23693 0.74203 0.53137
 C911 C 0.27633 0.81813 0.51046
 C912 C 0.32311 0.77621 0.51354
 C913 C 0.28630 0.77693 0.46204
 C914 C 0.23965 0.70405 0.52554
 C915 C 0.23241 0.74221 0.57211
 C916 C 0.19653 0.74588 0.52158
 H917 H 0.26130 0.76691 0.56250
 H918 H 0.21782 0.77041 0.50155
 H919 H 0.29196 0.78754 0.49748
 H920 H 0.27073 0.72009 0.50687
 H921 H 0.30134 0.72282 0.53887
 H922 H 0.30498 0.72038 0.50569
 H923 H 0.20550 0.79160 0.52287
 H924 H 0.22875 0.80917 0.50509
 H925 H 0.28624 0.74766 0.57094
 H926 H 0.30768 0.76907 0.55751
 H927 H 0.21119 0.75094 0.47683
 H928 H 0.23643 0.77251 0.46232
 H929 H 0.26383 0.80609 0.55618
 H930 H 0.23755 0.78719 0.57057
 H931 H 0.27925 0.73335 0.46632
 H932 H 0.25384 0.71387 0.47897
 O933 O 0.25739 0.18317 1.01718
 O934 O 0.29263 0.18935 1.01951
 O935 O 0.23382 0.23421 1.04237
 O936 O 0.23119 0.26330 1.03478
 O937 O 0.20952 0.20765 0.98965
 O938 O 0.21947 0.20999 0.95561
 O939 O 0.29223 0.27828 0.99124
 O940 O 0.28354 0.27559 1.02527
 O941 O 0.31849 0.23030 0.97306
 O942 O 0.30926 0.19780 0.97282
 O943 O 0.27033 0.25330 0.94107
 O944 O 0.23468 0.25397 0.94443
 O945 O 0.26950 0.27900 0.96669
 O946 O 0.23171 0.27271 0.96663
 O947 O 0.29529 0.23247 0.94446
 O948 O 0.28981 0.19825 0.95036
 O949 O 0.31659 0.25352 0.99569
 O950 O 0.30514 0.25309 1.03021
 O951 O 0.23749 0.18244 0.99034
 O952 O 0.24147 0.18953 0.95647
 O953 O 0.20723 0.23061 1.01263
 O954 O 0.21637 0.26440 1.00762
 O955 O 0.25486 0.20978 1.04417
 O956 O 0.29092 0.21067 1.04054
 Zr957 Zr 0.27039 0.20975 1.01718
 O958 O 0.29211 0.22493 1.00160
 Zr959 Zr 0.23632 0.24263 1.01320
 O960 O 0.25687 0.25963 0.99796
 Zr961 Zr 0.23935 0.20927 0.97948
 O962 O 0.25946 0.22485 0.96238
 Zr963 Zr 0.28648 0.25321 1.00527
 O964 O 0.26591 0.23810 1.02270
 Zr965 Zr 0.28896 0.21997 0.97143
 O966 O 0.26894 0.20280 0.98716
 Zr967 Zr 0.25495 0.25309 0.96798
 O968 O 0.23289 0.23743 0.98306
 O969 O 0.24097 0.21452 1.00941
 O970 O 0.28466 0.24814 0.97534
 C971 C 0.24534 0.17492 1.00527
 C972 C 0.24168 0.22079 1.05151
 C973 C 0.19982 0.21689 1.00283
 C974 C 0.28424 0.28590 0.97643
 C975 C 0.32627 0.24362 0.98307
 C976 C 0.28614 0.24491 0.93497
 H977 H 0.30557 0.22154 1.00618
 H978 H 0.25758 0.22163 0.94841
 H979 H 0.23172 0.20684 1.01730
 H980 H 0.25411 0.27277 1.00076
 H981 H 0.27519 0.27110 1.03630
 H982 H 0.24199 0.27260 1.03326
 H983 H 0.28094 0.20149 0.93945
 H984 H 0.25479 0.18376 0.95762
 H985 H 0.31341 0.24186 1.02950
 H986 H 0.28957 0.22296 1.04688
 H987 H 0.23399 0.24145 0.93855
 H988 H 0.21236 0.22189 0.95662
 H989 H 0.29333 0.18289 1.00665
 H990 H 0.31564 0.19844 0.98582
 H991 H 0.20844 0.26070 0.99601
 H992 H 0.23411 0.28219 0.97692
 C993 C 0.29227 0.33135 0.78169
 C994 C 0.28101 0.34699 0.77750
 C995 C 0.27151 0.35692 0.79296
 C996 C 0.27369 0.35128 0.81228
 C997 C 0.28524 0.33596 0.81633
 C998 C 0.29451 0.32579 0.80112
 C999 C 0.26023 0.37250 0.78893
 C1000 C 0.25883 0.37867 0.76973
 C1001 C 0.26857 0.36904 0.75425
 C1002 C 0.27935 0.35304 0.75819
 C1003 C 0.26779 0.37591 0.73521
 C1004 C 0.25796 0.39246 0.73170
 C1005 C 0.24827 0.40203 0.74708
 C1006 C 0.24842 0.39480 0.76594
 H1007 H 0.29939 0.32353 0.76993
 H1008 H 0.26666 0.35885 0.82428
 H1009 H 0.28702 0.33204 0.83141
 H1010 H 0.25294 0.38007 0.80079
 H1011 H 0.28681 0.34558 0.74635
 H1012 H 0.27524 0.36877 0.72316
 H1013 H 0.25812 0.39789 0.71704
 H1014 H 0.24130 0.40226 0.77793
 C1015 C 0.30177 -0.15066 0.32419
 C1016 C 0.29473 -0.13489 0.31505
 C1017 C 0.29462 -0.13419 0.29439
 C1018 C 0.30096 -0.14949 0.28325
 C1019 C 0.30778 -0.16520 0.29248
 C1020 C 0.30855 -0.16582 0.31298
 C1021 C 0.28847 -0.11814 0.28521
 C1022 C 0.28232 -0.10282 0.29642
 C1023 C 0.28183 -0.10370 0.31706
 C1024 C 0.28810 -0.11972 0.32626
 C1025 C 0.27530 -0.08842 0.32816
 C1026 C 0.26973 -0.07228 0.31890
 C1027 C 0.27079 -0.07111 0.29842
 C1028 C 0.27691 -0.08652 0.28727
 H1029 H 0.30247 -0.15101 0.34001
 H1030 H 0.30084 -0.14923 0.26741
 H1031 H 0.31279 -0.17683 0.28365
 H1032 H 0.28868 -0.11750 0.26937
 H1033 H 0.28802 -0.12032 0.34211
 H1034 H 0.27474 -0.08888 0.34399
 H1035 H 0.26514 -0.06052 0.32778
 H1036 H 0.27759 -0.08580 0.27144
 C1037 C 0.80879 0.87478 0.82617
 C1038 C 0.79545 0.88555 0.81553
 C1039 C 0.79712 0.88594 0.79490
 C1040 C 0.81177 0.87548 0.78523
 C1041 C 0.82494 0.86489 0.79584
 C1042 C 0.82376 0.86446 0.81644
 C1043 C 0.78449 0.89717 0.78420
 C1044 C 0.77060 0.90852 0.79386
 C1045 C 0.76851 0.90792 0.81444
 C1046 C 0.78079 0.89624 0.82516
 C1047 C 0.75487 0.91970 0.82397
 C1048 C 0.74479 0.93303 0.81342
 C1049 C 0.74794 0.93460 0.79311
 C1050 C 0.75989 0.92146 0.78332
 H1051 H 0.80776 0.87464 0.84200
 H1052 H 0.81320 0.87561 0.76942
 H1053 H 0.83600 0.85694 0.78776
 H1054 H 0.78610 0.89768 0.76841
 H1055 H 0.77945 0.89600 0.84098
 H1056 H 0.75292 0.91936 0.83972
 H1057 H 0.73564 0.94293 0.82141
 H1058 H 0.76249 0.92240 0.76768
 C1059 C 0.43853 0.87910 0.30527
 C1060 C 0.44528 0.86109 0.30145
 C1061 C 0.45366 0.85085 0.31672
 C1062 C 0.45457 0.85856 0.33562
 C1063 C 0.44750 0.87633 0.33936
 C1064 C 0.43969 0.88691 0.32423
 C1065 C 0.46102 0.83310 0.31288
 C1066 C 0.45989 0.82530 0.29400
 C1067 C 0.45094 0.83526 0.27885
 C1068 C 0.44384 0.85315 0.28262
 C1069 C 0.44926 0.82712 0.26016
 C1070 C 0.45653 0.80938 0.25647
 C1071 C 0.46596 0.79958 0.27128
 C1072 C 0.46751 0.80764 0.29007
 H1073 H 0.43250 0.88713 0.29352
 H1074 H 0.46075 0.85085 0.34753
 H1075 H 0.44820 0.88189 0.35413
 H1076 H 0.46765 0.82537 0.32457
 H1077 H 0.43720 0.86087 0.27094
 H1078 H 0.44231 0.83448 0.24840
 H1079 H 0.45507 0.80341 0.24192
 H1080 H 0.47440 0.80004 0.30170
 C1081 C -0.06533 0.90030 0.81016
 C1082 C -0.05683 0.88365 0.80367
 C1083 C -0.06071 0.86735 0.81415
 C1084 C -0.07272 0.86810 0.83116
 C1085 C -0.08074 0.88486 0.83776
 C1086 C -0.07725 0.90098 0.82721
 C1087 C -0.05263 0.85060 0.80739
 C1088 C -0.04022 0.85001 0.79065
 C1089 C -0.03621 0.86635 0.78029
 C1090 C -0.04460 0.88304 0.78682
 C1091 C -0.02413 0.86565 0.76334
 C1092 C -0.01619 0.84891 0.75663
 C1093 C -0.01989 0.83270 0.76696
 C1094 C -0.03200 0.83330 0.78390
 H1095 H -0.06253 0.91283 0.80215
 H1096 H -0.07598 0.85574 0.83929
 H1097 H -0.08997 0.88525 0.85089
 H1098 H -0.05616 0.83802 0.81504
 H1099 H -0.04164 0.89554 0.77879
 H1100 H -0.02103 0.87801 0.75513
 H1101 H -0.00723 0.84856 0.74332
 H1102 H -0.03568 0.82065 0.79131
 C1103 C -0.06556 -0.12776 -0.06084
 C1104 C -0.05298 -0.11553 -0.05054
 C1105 C -0.03207 -0.11549 -0.05433
 C1106 C -0.02391 -0.12879 -0.06706
 C1107 C -0.03645 -0.14138 -0.07671
 C1108 C -0.05749 -0.14035 -0.07457
 C1109 C -0.01973 -0.10200 -0.04558
 C1110 C -0.02802 -0.08888 -0.03264
 C1111 C -0.04866 -0.08998 -0.02763
 C1112 C -0.06106 -0.10309 -0.03681
 C1113 C -0.05676 -0.07756 -0.01394
 C1114 C -0.04485 -0.06347 -0.00615
 C1115 C -0.02473 -0.06117 -0.01230
 C1116 C -0.01620 -0.07432 -0.02512
 H1117 H -0.08166 -0.12703 -0.05861
 H1118 H -0.00786 -0.12937 -0.06970
 H1119 H -0.02967 -0.15160 -0.08633
 H1120 H -0.00382 -0.10152 -0.04909
 H1121 H -0.07703 -0.10337 -0.03355
 H1122 H -0.07247 -0.07834 -0.00975
 H1123 H -0.05194 -0.05357 0.00367
 H1124 H -0.00069 -0.07281 -0.02983
 C1125 C -0.08307 0.36805 0.43340
 C1126 C -0.07277 0.38319 0.44137
 C1127 C -0.06995 0.39922 0.43016
 C1128 C -0.07778 0.39982 0.41120
 C1129 C -0.08794 0.38452 0.40331
 C1130 C -0.09065 0.36856 0.41436
 C1131 C -0.05909 0.41418 0.43800
 C1132 C -0.05103 0.41322 0.45684
 C1133 C -0.05415 0.39727 0.46811
 C1134 C -0.06495 0.38234 0.46026
 C1135 C -0.04661 0.39660 0.48715
 C1136 C -0.03638 0.41175 0.49515
 C1137 C -0.03310 0.42755 0.48402
 C1138 C -0.04025 0.42813 0.46479
 H1139 H -0.08462 0.35558 0.44178
 H1140 H -0.07575 0.41197 0.40239
 H1141 H -0.09352 0.38498 0.38851
 H1142 H -0.05685 0.42649 0.42944
 H1143 H -0.06726 0.37006 0.46885
 H1144 H -0.04900 0.38452 0.49599
 H1145 H -0.03127 0.41125 0.51012
 H1146 H -0.03829 0.44055 0.45636
 C1147 C 0.47157 -0.16210 0.44907
 C1148 C 0.47729 -0.14508 0.45738
 C1149 C 0.47967 -0.14335 0.47787
 C1150 C 0.47706 -0.15887 0.48958
 C1151 C 0.47151 -0.17581 0.48116
 C1152 C 0.46827 -0.17749 0.46093
 C1153 C 0.48429 -0.12610 0.48633
 C1154 C 0.48673 -0.11059 0.47454
 C1155 C 0.48506 -0.11248 0.45399
 C1156 C 0.48026 -0.12968 0.44555
 C1157 C 0.48801 -0.09707 0.44220
 C1158 C 0.49228 -0.07987 0.45068
 C1159 C 0.49337 -0.07772 0.47111
 C1160 C 0.49065 -0.09317 0.48298
 H1161 H 0.46903 -0.16328 0.43347
 H1162 H 0.47900 -0.15785 0.50527
 H1163 H 0.46924 -0.18757 0.49047
 H1164 H 0.48579 -0.12472 0.50207
 H1165 H 0.47864 -0.13104 0.42982
 H1166 H 0.48686 -0.09828 0.42643
 H1167 H 0.49419 -0.06812 0.44127
 H1168 H 0.49163 -0.09162 0.49875
 C1169 C 0.46946 0.34534 -0.05505
 C1170 C 0.47488 0.36268 -0.04738
 C1171 C 0.47477 0.36578 -0.02690
 C1172 C 0.47031 0.35113 -0.01442
 C1173 C 0.46504 0.33385 -0.02220
 C1174 C 0.46394 0.33098 -0.04255
 C1175 C 0.47854 0.38355 -0.01927
 C1176 C 0.48254 0.39820 -0.03190
 C1177 C 0.48363 0.39481 -0.05234
 C1178 C 0.47972 0.37713 -0.05994
 C1179 C 0.48824 0.40926 -0.06494
 C1180 C 0.49125 0.42702 -0.05746
 C1181 C 0.48931 0.43079 -0.03728
 C1182 C 0.48514 0.41625 -0.02451
 H1183 H 0.46855 0.34324 -0.07075
 H1184 H 0.47037 0.35317 0.00131
 H1185 H 0.46098 0.32286 -0.01237
 H1186 H 0.47796 0.38603 -0.00359
 H1187 H 0.48006 0.37468 -0.07564
 H1188 H 0.48927 0.40688 -0.08061
 H1189 H 0.49452 0.43796 -0.06761
 H1190 H 0.48383 0.41900 -0.00891
 C1191 C 0.80786 0.40059 0.43356
 C1192 C 0.79854 0.38421 0.43934
 C1193 C 0.80227 0.36766 0.42873
 C1194 C 0.81546 0.36784 0.41256
 C1195 C 0.82411 0.38444 0.40648
 C1196 C 0.82016 0.40086 0.41685
 C1197 C 0.79234 0.35140 0.43414
 C1198 C 0.77853 0.35159 0.44981
 C1199 C 0.77486 0.36816 0.46038
 C1200 C 0.78494 0.38434 0.45510
 C1201 C 0.76142 0.36823 0.47630
 C1202 C 0.75229 0.35186 0.48224
 C1203 C 0.75602 0.33533 0.47199
 C1204 C 0.76876 0.33534 0.45549
 H1205 H 0.80457 0.41342 0.44122
 H1206 H 0.81848 0.35532 0.40423
 H1207 H 0.83340 0.38464 0.39338
 H1208 H 0.79522 0.33867 0.42609
 H1209 H 0.78210 0.39707 0.46317
 H1210 H 0.75852 0.38081 0.48458
 H1211 H 0.74285 0.35195 0.49525
 H1212 H 0.77220 0.32247 0.44795
 C1213 C 0.82807 0.88441 -0.09579
 C1214 C 0.81696 0.87194 -0.08429
 C1215 C 0.82190 0.86982 -0.06440
 C1216 C 0.83793 0.87984 -0.05642
 C1217 C 0.84875 0.89223 -0.06782
 C1218 C 0.84389 0.89497 -0.08759
 C1219 C 0.81076 0.85774 -0.05269
 C1220 C 0.79470 0.84761 -0.06056
 C1221 C 0.78972 0.84954 -0.08045
 C1222 C 0.80089 0.86170 -0.09223
 C1223 C 0.77381 0.83907 -0.08823
 C1224 C 0.76338 0.82642 -0.07658
 C1225 C 0.76856 0.82407 -0.05686
 C1226 C 0.78398 0.83514 -0.04890
 H1227 H 0.82427 0.88602 -0.11103
 H1228 H 0.84199 0.87824 -0.04124
 H1229 H 0.86075 0.89991 -0.06084
 H1230 H 0.81470 0.85611 -0.03747
 H1231 H 0.79712 0.86315 -0.10752
 H1232 H 0.76981 0.84026 -0.10347
 H1233 H 0.75184 0.81791 -0.08329
 H1234 H 0.78843 0.83340 -0.03385
 C1235 C 0.83418 0.32857 0.36418
 C1236 C 0.82223 0.31887 0.37781
 C1237 C 0.80107 0.31974 0.37678
 C1238 C 0.79225 0.32980 0.36190
 C1239 C 0.80418 0.33912 0.34829
 C1240 C 0.82527 0.33899 0.34939
 C1241 C 0.78902 0.31054 0.39060
 C1242 C 0.79779 0.30020 0.40536
 C1243 C 0.81892 0.29892 0.40613
 C1244 C 0.83102 0.30837 0.39248
 C1245 C 0.82761 0.28832 0.42068
 C1246 C 0.81559 0.27960 0.43474
 C1247 C 0.79453 0.28119 0.43460
 C1248 C 0.78575 0.29135 0.41955
 H1249 H 0.85036 0.32818 0.36519
 H1250 H 0.77606 0.33045 0.36075
 H1251 H 0.79683 0.34658 0.33686
 H1252 H 0.77280 0.31148 0.38989
 H1253 H 0.84724 0.30757 0.39331
 H1254 H 0.84376 0.28698 0.42137
 H1255 H 0.82293 0.27206 0.44611
 H1256 H 0.76960 0.29288 0.41920
 C1257 C 0.81479 0.83087 -0.15752
 C1258 C 0.81006 0.81896 -0.14218
 C1259 C 0.82108 0.82012 -0.12462
 C1260 C 0.83655 0.83325 -0.12272
 C1261 C 0.84152 0.84470 -0.13831
 C1262 C 0.83077 0.84350 -0.15580
 C1263 C 0.81671 0.80791 -0.10944
 C1264 C 0.80156 0.79450 -0.11165
 C1265 C 0.79049 0.79340 -0.12918
 C1266 C 0.79484 0.80562 -0.14434
 C1267 C 0.77488 0.78038 -0.13105
 C1268 C 0.76971 0.76910 -0.11539
 C1269 C 0.78055 0.77018 -0.09795
 C1270 C 0.79677 0.78259 -0.09632
 H1271 H 0.80677 0.82975 -0.17121
 H1272 H 0.84514 0.83428 -0.10941
 H1273 H 0.85399 0.85429 -0.13693
 H1274 H 0.82508 0.80885 -0.09593
 H1275 H 0.78638 0.80476 -0.15780
 H1276 H 0.76617 0.77945 -0.14433
 H1277 H 0.75679 0.76000 -0.11661
 H1278 H 0.80465 0.78396 -0.08256
 C1279 C 0.29628 0.41160 0.88628
 C1280 C 0.28711 0.42148 0.87140
 C1281 C 0.29134 0.44049 0.86941
 C1282 C 0.30397 0.44945 0.88280
 C1283 C 0.31242 0.43968 0.89798
 C1284 C 0.30893 0.42062 0.89978
 C1285 C 0.28281 0.45026 0.85413
 C1286 C 0.26951 0.44142 0.84121
 C1287 C 0.26460 0.42261 0.84373
 C1288 C 0.27369 0.41268 0.85858
 C1289 C 0.25058 0.41406 0.83139
 C1290 C 0.24179 0.42393 0.81646
 C1291 C 0.24725 0.44241 0.81320
 C1292 C 0.26103 0.45112 0.82582
 H1293 H 0.29367 0.39690 0.88729
 H1294 H 0.30721 0.46404 0.88163
 H1295 H 0.32192 0.44705 0.90827
 H1296 H 0.28636 0.46475 0.85241
 H1297 H 0.27016 0.39817 0.86028
 H1298 H 0.24641 0.39973 0.83328
 H1299 H 0.23099 0.41692 0.80720
 H1300 H 0.26522 0.46541 0.82364
 C1301 C 0.30262 -0.03438 0.42672
 C1302 C 0.29449 -0.02717 0.40972
 C1303 C 0.27352 -0.02802 0.40682
 C1304 C 0.26098 -0.03524 0.42148
 C1305 C 0.26923 -0.04239 0.43842
 C1306 C 0.29013 -0.04249 0.44092
 C1307 C 0.26555 -0.02229 0.38906
 C1308 C 0.27833 -0.01592 0.37414
 C1309 C 0.29920 -0.01432 0.37742
 C1310 C 0.30714 -0.01988 0.39523
 C1311 C 0.31191 -0.00778 0.36257
 C1312 C 0.30416 -0.00363 0.34431
 C1313 C 0.28359 -0.00601 0.34057
 C1314 C 0.27068 -0.01176 0.35573
 H1315 H 0.31877 -0.03455 0.42844
 H1316 H 0.24486 -0.03586 0.41959
 H1317 H 0.25941 -0.04850 0.44929
 H1318 H 0.24952 -0.02336 0.38662
 H1319 H 0.32321 -0.01909 0.39756
 H1320 H 0.32792 -0.00637 0.36490
 H1321 H 0.31444 0.00073 0.33287
 H1322 H 0.25475 -0.01348 0.35306
 C1323 C -0.06039 -0.07361 -0.14140
 C1324 C -0.05445 -0.06256 -0.12536
 C1325 C -0.06885 -0.05189 -0.11501
 C1326 C -0.08906 -0.05300 -0.12040
 C1327 C -0.09477 -0.06377 -0.13655
 C1328 C -0.08045 -0.07376 -0.14752
 C1329 C -0.06275 -0.03987 -0.09986
 C1330 C -0.04242 -0.03839 -0.09488
 C1331 C -0.02810 -0.04940 -0.10493
 C1332 C -0.03420 -0.06141 -0.12007
 C1333 C -0.00785 -0.04817 -0.09972
 C1334 C -0.00182 -0.03631 -0.08457
 C1335 C -0.01586 -0.02522 -0.07453
 C1336 C -0.03616 -0.02618 -0.07992
 H1337 H -0.04922 -0.08112 -0.14989
 H1338 H -0.10034 -0.04504 -0.11257
 H1339 H -0.11026 -0.06366 -0.14109
 H1340 H -0.07379 -0.03152 -0.09213
 H1341 H -0.02314 -0.06965 -0.12793
 H1342 H 0.00331 -0.05653 -0.10723
 H1343 H 0.01387 -0.03591 -0.08058
 H1344 H -0.04715 -0.01791 -0.07205
 C1345 C -0.08289 0.43970 0.36259
 C1346 C -0.07209 0.44800 0.37795
 C1347 C -0.05086 0.44794 0.37744
 C1348 C -0.04080 0.44017 0.36126
 C1349 C -0.05165 0.43238 0.34581
 C1350 C -0.07277 0.43170 0.34648
 C1351 C -0.04001 0.45577 0.39301
 C1352 C -0.05012 0.46416 0.40885
 C1353 C -0.07135 0.46475 0.40901
 C1354 C -0.08220 0.45642 0.39374
 C1355 C -0.08141 0.47372 0.42445
 C1356 C -0.07059 0.48183 0.43971
 C1357 C -0.04952 0.48077 0.44013
 C1358 C -0.03935 0.47195 0.42454
 H1359 H -0.09915 0.43935 0.36318
 H1360 H -0.02455 0.44023 0.36047
 H1361 H -0.04350 0.42678 0.33332
 H1362 H -0.02373 0.45549 0.39272
 H1363 H -0.09848 0.45665 0.39407
 H1364 H -0.09765 0.47441 0.42476
 H1365 H -0.07885 0.48848 0.45154
 H1366 H -0.02311 0.47106 0.42468
 C1367 C 0.43473 -0.07138 0.35546
 C1368 C 0.44583 -0.06121 0.36935
 C1369 C 0.46698 -0.06259 0.36959
 C1370 C 0.47672 -0.07344 0.35530
 C1371 C 0.46560 -0.08325 0.34130
 C1372 C 0.44448 -0.08270 0.34147
 C1373 C 0.47800 -0.05334 0.38426
 C1374 C 0.46812 -0.04256 0.39859
 C1375 C 0.44704 -0.04057 0.39775
 C1376 C 0.43604 -0.04996 0.38324
 C1377 C 0.43718 -0.02952 0.41171
 C1378 C 0.44791 -0.02102 0.42680
 C1379 C 0.46878 -0.02346 0.42844
 C1380 C 0.47886 -0.03405 0.41399
 H1381 H 0.41848 -0.07091 0.35587
 H1382 H 0.49293 -0.07452 0.35509
 H1383 H 0.47347 -0.09165 0.33052
 H1384 H 0.49418 -0.05475 0.38469
 H1385 H 0.41984 -0.04870 0.38293
 H1386 H 0.42106 -0.02775 0.41121
 H1387 H 0.43961 -0.01306 0.43766
 H1388 H 0.49491 -0.03608 0.41500
 C1389 C 0.41722 0.43726 -0.15507
 C1390 C 0.42840 0.44447 -0.13934
 C1391 C 0.43566 0.43248 -0.12499
 C1392 C 0.43137 0.41358 -0.12646
 C1393 C 0.42018 0.40655 -0.14210
 C1394 C 0.41318 0.41825 -0.15665
 C1395 C 0.44705 0.43956 -0.10939
 C1396 C 0.45102 0.45853 -0.10776
 C1397 C 0.44349 0.47059 -0.12189
 C1398 C 0.43239 0.46346 -0.13770
 C1399 C 0.44681 0.48964 -0.11972
 C1400 C 0.45706 0.49670 -0.10344
 C1401 C 0.46474 0.48480 -0.08949
 C1402 C 0.46190 0.46571 -0.09185
 H1403 H 0.41185 0.44634 -0.16625
 H1404 H 0.43669 0.40422 -0.11553
 H1405 H 0.41699 0.39191 -0.14293
 H1406 H 0.45264 0.43034 -0.09843
 H1407 H 0.42668 0.47270 -0.14858
 H1408 H 0.44101 0.49909 -0.13031
 H1409 H 0.45878 0.51147 -0.10158
 H1410 H 0.46719 0.45656 -0.08070
 C1411 C 0.45504 0.79221 0.41940
 C1412 C 0.46249 0.78549 0.40142
 C1413 C 0.48336 0.78605 0.39746
 C1414 C 0.49642 0.79317 0.41172
 C1415 C 0.48890 0.79944 0.42979
 C1416 C 0.46817 0.79894 0.43386
 C1417 C 0.49081 0.77930 0.37943
 C1418 C 0.47769 0.77152 0.36556
 C1419 C 0.45684 0.77071 0.36977
 C1420 C 0.44937 0.77795 0.38750
 C1421 C 0.44377 0.76241 0.35628
 C1422 C 0.45126 0.75472 0.33890
 C1423 C 0.47188 0.75553 0.33446
 C1424 C 0.48505 0.76420 0.34771
 H1425 H 0.43901 0.79212 0.42222
 H1426 H 0.51247 0.79369 0.40899
 H1427 H 0.49928 0.80461 0.44071
 H1428 H 0.50681 0.77979 0.37636
 H1429 H 0.43337 0.77737 0.39062
 H1430 H 0.42778 0.76167 0.35927
 H1431 H 0.44084 0.74830 0.32874
 H1432 H 0.50098 0.76478 0.34437
 C1433 C -0.06842 0.82378 0.88781
 C1434 C -0.05966 0.81669 0.87058
 C1435 C -0.04623 0.82785 0.85974
 C1436 C -0.04322 0.84631 0.86525
 C1437 C -0.05254 0.85341 0.88204
 C1438 C -0.06419 0.84194 0.89413
 C1439 C -0.03593 0.82037 0.84363
 C1440 C -0.03973 0.80220 0.83751
 C1441 C -0.05413 0.79134 0.84746
 C1442 C -0.06373 0.79854 0.86425
 C1443 C -0.05868 0.77354 0.84033
 C1444 C -0.04921 0.76673 0.82333
 C1445 C -0.03454 0.77737 0.81372
 C1446 C -0.02962 0.79492 0.82123
 H1447 H -0.07782 0.81490 0.89668
 H1448 H -0.03351 0.85520 0.85669
 H1449 H -0.04987 0.86768 0.88616
 H1450 H -0.02519 0.82879 0.83564
 H1451 H -0.07438 0.79010 0.87229
 H1452 H -0.06979 0.76506 0.84767
 H1453 H -0.05327 0.75317 0.81774
 H1454 H -0.01833 0.80328 0.81396
 C1455 C 0.33928 0.79188 0.31537
 C1456 C 0.35733 0.78463 0.30788
 C1457 C 0.37193 0.79663 0.29976
 C1458 C 0.36856 0.81563 0.29980
 C1459 C 0.35076 0.82272 0.30755
 C1460 C 0.33581 0.81096 0.31513
 C1461 C 0.38970 0.78949 0.29173
 C1462 C 0.39326 0.77053 0.29198
 C1463 C 0.37903 0.75851 0.30063
 C1464 C 0.36103 0.76563 0.30835
 C1465 C 0.38318 0.73961 0.30148
 C1466 C 0.40125 0.73272 0.29384
 C1467 C 0.41513 0.74456 0.28478
 C1468 C 0.41101 0.76344 0.28390
 H1469 H 0.32786 0.78273 0.32123
 H1470 H 0.37971 0.82501 0.29384
 H1471 H 0.34861 0.83748 0.30756
 H1472 H 0.40079 0.79871 0.28534
 H1473 H 0.34998 0.75642 0.31480
 H1474 H 0.37255 0.73020 0.30820
 H1475 H 0.40431 0.71814 0.29481
 H1476 H 0.42193 0.77273 0.27736
 C1477 C -0.14347 0.82918 0.81040
 C1478 C -0.12757 0.82365 0.79823
 C1479 C -0.11180 0.83617 0.79392
 C1480 C -0.11248 0.85417 0.80175
 C1481 C -0.12870 0.85969 0.81359
 C1482 C -0.14426 0.84722 0.81791
 C1483 C -0.09586 0.83051 0.78169
 C1484 C -0.09561 0.81254 0.77371
 C1485 C -0.11174 0.80028 0.77771
 C1486 C -0.12756 0.80592 0.78993
 C1487 C -0.11155 0.78236 0.76986
 C1488 C -0.09501 0.77620 0.75908
 C1489 C -0.07854 0.78795 0.75568
 C1490 C -0.07919 0.80634 0.76242
 H1491 H -0.15583 0.81976 0.81324
 H1492 H -0.10079 0.86409 0.79831
 H1493 H -0.12945 0.87377 0.81898
 H1494 H -0.08364 0.84000 0.77849
 H1495 H -0.13980 0.79643 0.79311
 H1496 H -0.12385 0.77287 0.77271
 H1497 H -0.09469 0.76196 0.75408
 H1498 H -0.06635 0.81536 0.76012
 C1499 C 0.87411 0.34802 0.43119
 C1500 C 0.86418 0.33679 0.44482
 C1501 C 0.86775 0.31761 0.44454
 C1502 C 0.88080 0.30993 0.43059
 C1503 C 0.89088 0.32116 0.41741
 C1504 C 0.88797 0.34038 0.41770
 C1505 C 0.85830 0.30633 0.45823
 C1506 C 0.84501 0.31384 0.47208
 C1507 C 0.84134 0.33298 0.47254
 C1508 C 0.85105 0.34440 0.45893
 C1509 C 0.82753 0.34021 0.48619
 C1510 C 0.81642 0.32840 0.49821
 C1511 C 0.81915 0.30919 0.49696
 C1512 C 0.83440 0.30222 0.48466
 H1513 H 0.87166 0.36275 0.43149
 H1514 H 0.88360 0.29525 0.43016
 H1515 H 0.90155 0.31474 0.40747
 H1516 H 0.86097 0.29160 0.45784
 H1517 H 0.84820 0.35908 0.45917
 H1518 H 0.82454 0.35485 0.48682
 H1519 H 0.80468 0.33423 0.50742
 H1520 H 0.83674 0.28748 0.48345
 C1521 C 0.90869 0.82756 -0.06690
 C1522 C 0.88982 0.82094 -0.06089
 C1523 C 0.87225 0.83010 -0.06670
 C1524 C 0.87390 0.84556 -0.07867
 C1525 C 0.89274 0.85156 -0.08524
 C1526 C 0.91014 0.84263 -0.07933
 C1527 C 0.85336 0.82339 -0.06086
 C1528 C 0.85181 0.80732 -0.04982
 C1529 C 0.86937 0.79791 -0.04445
 C1530 C 0.88827 0.80498 -0.04971
 C1531 C 0.86770 0.78133 -0.03428
 C1532 C 0.84881 0.77402 -0.02964
 C1533 C 0.83142 0.78350 -0.03454
 C1534 C 0.83294 0.80021 -0.04447
 H1535 H 0.92226 0.82065 -0.06261
 H1536 H 0.86065 0.85274 -0.08330
 H1537 H 0.89384 0.86309 -0.09500
 H1538 H 0.83989 0.83036 -0.06535
 H1539 H 0.90174 0.79781 -0.04554
 H1540 H 0.88100 0.77387 -0.03022
 H1541 H 0.84774 0.76105 -0.02209
 H1542 H 0.81941 0.80731 -0.04860
 C1543 C -0.13086 -0.06455 -0.08170
 C1544 C -0.11528 -0.05633 -0.07098
 C1545 C -0.09673 -0.06549 -0.06943
 C1546 C -0.09399 -0.08253 -0.07909
 C1547 C -0.10972 -0.09067 -0.08965
 C1548 C -0.12830 -0.08186 -0.09076
 C1549 C -0.08136 -0.05751 -0.05815
 C1550 C -0.08430 -0.04046 -0.04856
 C1551 C -0.10275 -0.03120 -0.05041
 C1552 C -0.11814 -0.03925 -0.06153
 C1553 C -0.10537 -0.01387 -0.04136
 C1554 C -0.08972 -0.00560 -0.03085
 C1555 C -0.07152 -0.01480 -0.02880
 C1556 C -0.06889 -0.03225 -0.03757
 H1557 H -0.14530 -0.05788 -0.08232
 H1558 H -0.07983 -0.08967 -0.07821
 H1559 H -0.10765 -0.10402 -0.09657
 H1560 H -0.06710 -0.06447 -0.05697
 H1561 H -0.13234 -0.03222 -0.06285
 H1562 H -0.11936 -0.00654 -0.04278
 H1563 H -0.09170 0.00805 -0.02452
 H1564 H -0.05448 -0.03896 -0.03664
 C1565 C -0.14648 0.42339 0.43251
 C1566 C -0.13534 0.43491 0.44511
 C1567 C -0.13869 0.45411 0.44541
 C1568 C -0.15363 0.46134 0.43359
 C1569 C -0.16523 0.44969 0.42171
 C1570 C -0.16159 0.43060 0.42071
 C1571 C -0.12729 0.46571 0.45771
 C1572 C -0.11296 0.45829 0.47016
 C1573 C -0.11023 0.43899 0.47039
 C1574 C -0.12116 0.42747 0.45766
 C1575 C -0.09643 0.43152 0.48324
 C1576 C -0.08482 0.44305 0.49517
 C1577 C -0.08645 0.46235 0.49427
 C1578 C -0.10101 0.46985 0.48206
 H1579 H -0.14367 0.40871 0.43213
 H1580 H -0.15667 0.47598 0.43389
 H1581 H -0.17730 0.45566 0.41356
 H1582 H -0.12960 0.48047 0.45764
 H1583 H -0.11874 0.41271 0.45763
 H1584 H -0.09424 0.41676 0.48372
 H1585 H -0.07367 0.43678 0.50427
 H1586 H -0.10247 0.48467 0.48122
 C1587 C 0.33376 -0.05617 0.46784
 C1588 C 0.35195 -0.04860 0.47435
 C1589 C 0.35334 -0.02954 0.47876
 C1590 C 0.33624 -0.01854 0.47737
 C1591 C 0.31812 -0.02624 0.47102
 C1592 C 0.31679 -0.04502 0.46586
 C1593 C 0.37186 -0.02173 0.48404
 C1594 C 0.38897 -0.03277 0.48505
 C1595 C 0.38738 -0.05197 0.48138
 C1596 C 0.36890 -0.05974 0.47598
 C1597 C 0.40439 -0.06303 0.48290
 C1598 C 0.42292 -0.05512 0.48763
 C1599 C 0.42477 -0.03601 0.49062
 C1600 C 0.40771 -0.02490 0.48944
 H1601 H 0.33301 -0.07060 0.46357
 H1602 H 0.33699 -0.00393 0.48082
 H1603 H 0.30519 -0.01747 0.46957
 H1604 H 0.37303 -0.00704 0.48706
 H1605 H 0.36776 -0.07440 0.47279
 H1606 H 0.40342 -0.07777 0.48024
 H1607 H 0.43595 -0.06389 0.48841
 H1608 H 0.40904 -0.01016 0.49194
 C1609 C 0.34282 0.42224 -0.06058
 C1610 C 0.36083 0.43156 -0.05622
 C1611 C 0.37523 0.43458 -0.07125
 C1612 C 0.37175 0.42755 -0.09015
 C1613 C 0.35370 0.41852 -0.09438
 C1614 C 0.33891 0.41627 -0.07979
 C1615 C 0.39254 0.44507 -0.06732
 C1616 C 0.39567 0.45256 -0.04855
 C1617 C 0.38168 0.44895 -0.03333
 C1618 C 0.36432 0.43851 -0.03728
 C1619 C 0.38527 0.45593 -0.01440
 C1620 C 0.40255 0.46639 -0.01059
 C1621 C 0.41611 0.47046 -0.02576
 C1622 C 0.41263 0.46356 -0.04471
 H1623 H 0.33131 0.42064 -0.04940
 H1624 H 0.38267 0.42962 -0.10180
 H1625 H 0.35081 0.41398 -0.10926
 H1626 H 0.40341 0.44763 -0.07892
 H1627 H 0.35340 0.43605 -0.02571
 H1628 H 0.37482 0.45316 -0.00253
 H1629 H 0.40529 0.47143 0.00415
 H1630 H 0.42343 0.46636 -0.05631
 C1631 C 0.37918 0.42105 0.80098
 C1632 C 0.36111 0.42912 0.79525
 C1633 C 0.34762 0.43598 0.80968
 C1634 C 0.35232 0.43452 0.82953
 C1635 C 0.37020 0.42630 0.83508
 C1636 C 0.38381 0.41946 0.82092
 C1637 C 0.32959 0.44410 0.80405
 C1638 C 0.32475 0.44526 0.78419
 C1639 C 0.33807 0.43819 0.76974
 C1640 C 0.35625 0.43029 0.77536
 C1641 C 0.33285 0.43896 0.74993
 C1642 C 0.31454 0.44655 0.74447
 C1643 C 0.30131 0.45381 0.75870
 C1644 C 0.30661 0.45317 0.77856
 H1645 H 0.38965 0.41595 0.78997
 H1646 H 0.34209 0.43961 0.84077
 H1647 H 0.37334 0.42508 0.85051
 H1648 H 0.31926 0.44937 0.81514
 H1649 H 0.36651 0.42490 0.76429
 H1650 H 0.34283 0.43352 0.73867
 H1651 H 0.31073 0.44678 0.72912
 H1652 H 0.29636 0.45837 0.78973
 C1653 C 0.41202 -0.06964 0.31459
 C1654 C 0.39367 -0.06342 0.30731
 C1655 C 0.37745 -0.07595 0.30496
 C1656 C 0.37976 -0.09436 0.31025
 C1657 C 0.39789 -0.10032 0.31790
 C1658 C 0.41428 -0.08811 0.32009
 C1659 C 0.35913 -0.06985 0.29758
 C1660 C 0.35663 -0.05127 0.29291
 C1661 C 0.37269 -0.03865 0.29564
 C1662 C 0.39118 -0.04484 0.30258
 C1663 C 0.36990 -0.01997 0.29161
 C1664 C 0.35134 -0.01381 0.28510
 C1665 C 0.33537 -0.02627 0.28207
 C1666 C 0.33819 -0.04504 0.28588
 H1667 H 0.42454 -0.06010 0.31612
 H1668 H 0.36745 -0.10412 0.30870
 H1669 H 0.39907 -0.11452 0.32227
 H1670 H 0.34675 -0.07951 0.29572
 H1671 H 0.40352 -0.03516 0.30456
 H1672 H 0.38200 -0.01008 0.29371
 H1673 H 0.34950 0.00071 0.28230
 H1674 H 0.32584 -0.05472 0.28392
 C1675 C 0.05365 0.53818 0.71796
 C1676 C 0.07220 0.53141 0.72393
 C1677 C 0.08642 0.54362 0.73241
 C1678 C 0.08200 0.56233 0.73455
 C1679 C 0.06405 0.56912 0.72748
 C1680 C 0.04971 0.55721 0.71888
 C1681 C 0.10520 0.53711 0.73784
 C1682 C 0.11040 0.51879 0.73384
 C1683 C 0.09643 0.50660 0.72496
 C1684 C 0.07716 0.51286 0.72057
 C1685 C 0.10227 0.48857 0.71997
 C1686 C 0.12195 0.48289 0.72328
 C1687 C 0.13579 0.49497 0.73221
 C1688 C 0.12976 0.51276 0.73780
 H1689 H 0.04269 0.52879 0.71160
 H1690 H 0.09283 0.57188 0.74088
 H1691 H 0.06176 0.58385 0.72821
 H1692 H 0.11611 0.54651 0.74434
 H1693 H 0.06640 0.50355 0.71373
 H1694 H 0.09181 0.47906 0.71305
 H1695 H 0.12636 0.46910 0.71887
 H1696 H 0.14046 0.52224 0.74442
 C1697 C 0.10510 0.06420 0.19477
 C1698 C 0.12134 0.05843 0.20601
 C1699 C 0.13600 0.07143 0.21218
 C1700 C 0.13410 0.08993 0.20713
 C1701 C 0.11803 0.09552 0.19584
 C1702 C 0.10347 0.08273 0.18942
 C1703 C 0.15253 0.06570 0.22296
 C1704 C 0.15488 0.04706 0.22730
 C1705 C 0.14019 0.03404 0.22125
 C1706 C 0.12338 0.03984 0.21085
 C1707 C 0.14289 0.01534 0.22516
 C1708 C 0.16036 0.00950 0.23422
 C1709 C 0.17526 0.02228 0.23993
 C1710 C 0.17212 0.04113 0.23689
 H1711 H 0.09380 0.05431 0.19000
 H1712 H 0.14519 0.10004 0.21169
 H1713 H 0.11709 0.10984 0.19182
 H1714 H 0.16382 0.07568 0.22753
 H1715 H 0.11220 0.02983 0.20609
 H1716 H 0.13179 0.00517 0.22065
 H1717 H 0.16245 -0.00510 0.23637
 H1718 H 0.18364 0.05108 0.24095
 C1719 C 0.65933 0.68652 0.18882
 C1720 C 0.64030 0.69221 0.19552
 C1721 C 0.62519 0.69602 0.18185
 C1722 C 0.62920 0.69376 0.16180
 C1723 C 0.64799 0.68773 0.15530
 C1724 C 0.66334 0.68417 0.16866
 C1725 C 0.60622 0.70182 0.18840
 C1726 C 0.60198 0.70347 0.20849
 C1727 C 0.61691 0.69931 0.22222
 C1728 C 0.63607 0.69392 0.21565
 C1729 C 0.61231 0.70038 0.24229
 C1730 C 0.59304 0.70531 0.24869
 C1731 C 0.57819 0.70968 0.23515
 C1732 C 0.58285 0.70886 0.21504
 H1733 H 0.67101 0.68382 0.19927
 H1734 H 0.61773 0.69645 0.15114
 H1735 H 0.65047 0.68568 0.13974
 H1736 H 0.59468 0.70481 0.17787
 H1737 H 0.64757 0.69082 0.22617
 H1738 H 0.62353 0.69715 0.25303
 H1739 H 0.58975 0.70579 0.26424
 H1740 H 0.57139 0.71186 0.20445
 C1741 C 0.15934 0.68410 0.70283
 C1742 C 0.14042 0.69186 0.70650
 C1743 C 0.12316 0.68366 0.69799
 C1744 C 0.12520 0.66822 0.68553
 C1745 C 0.14418 0.66116 0.68127
 C1746 C 0.16128 0.66895 0.68998
 C1747 C 0.10421 0.69122 0.70173
 C1748 C 0.10234 0.70730 0.71322
 C1749 C 0.11964 0.71593 0.72114
 C1750 C 0.13854 0.70794 0.71804
 C1751 C 0.11770 0.73251 0.73186
 C1752 C 0.09880 0.74043 0.73474
 C1753 C 0.08163 0.73160 0.72737
 C1754 C 0.08343 0.71505 0.71668
 H1755 H 0.17269 0.69023 0.70923
 H1756 H 0.11217 0.66188 0.67875
 H1757 H 0.14566 0.64957 0.67119
 H1758 H 0.09097 0.68482 0.69537
 H1759 H 0.15180 0.71443 0.72426
 H1760 H 0.13080 0.73940 0.73790
 H1761 H 0.09752 0.75324 0.74300
 H1762 H 0.07009 0.70839 0.71082
 C1763 C 0.59204 0.18544 0.54252
 C1764 C 0.60810 0.19562 0.53458
 C1765 C 0.60657 0.21498 0.53329
 C1766 C 0.58893 0.22376 0.53952
 C1767 C 0.57303 0.21352 0.54732
 C1768 C 0.57451 0.19435 0.54912
 C1769 C 0.62281 0.22531 0.52613
 C1770 C 0.64065 0.21659 0.52036
 C1771 C 0.64210 0.19721 0.52118
 C1772 C 0.62577 0.18682 0.52823
 C1773 C 0.66008 0.18866 0.51538
 C1774 C 0.67669 0.19926 0.50960
 C1775 C 0.67560 0.21859 0.50951
 C1776 C 0.65730 0.22708 0.51444
 H1777 H 0.59326 0.17065 0.54394
 H1778 H 0.58749 0.23856 0.53853
 H1779 H 0.55954 0.22056 0.55212
 H1780 H 0.62172 0.24018 0.52543
 H1781 H 0.62694 0.17197 0.52913
 H1782 H 0.66147 0.17382 0.51586
 H1783 H 0.69063 0.19237 0.50600
 H1784 H 0.65619 0.24196 0.51436
 C1785 C 0.59453 0.68755 0.03909
 C1786 C 0.61273 0.69593 0.03350
 C1787 C 0.62501 0.70442 0.04787
 C1788 C 0.61920 0.70391 0.06759
 C1789 C 0.60137 0.69510 0.07308
 C1790 C 0.58874 0.68699 0.05893
 C1791 C 0.64299 0.71314 0.04233
 C1792 C 0.64914 0.71307 0.02266
 C1793 C 0.63723 0.70407 0.00834
 C1794 C 0.61895 0.69578 0.01381
 C1795 C 0.64394 0.70335 -0.01118
 C1796 C 0.66228 0.71148 -0.01646
 C1797 C 0.67387 0.72086 -0.00240
 C1798 C 0.66720 0.72166 0.01713
 H1799 H 0.58489 0.68136 0.02809
 H1800 H 0.62853 0.71017 0.07881
 H1801 H 0.59743 0.69456 0.08847
 H1802 H 0.65230 0.71980 0.05335
 H1803 H 0.60970 0.68904 0.00281
 H1804 H 0.63510 0.69638 -0.02233
 H1805 H 0.66729 0.71068 -0.03158
 H1806 H 0.67635 0.72859 0.02810
 C1807 C 0.17360 0.05547 0.05155
 C1808 C 0.15583 0.04813 0.04372
 C1809 C 0.15334 0.02884 0.04178
 C1810 C 0.16915 0.01727 0.04676
 C1811 C 0.18703 0.02473 0.05406
 C1812 C 0.18931 0.04386 0.05700
 C1813 C 0.13507 0.02145 0.03506
 C1814 C 0.11945 0.03316 0.02980
 C1815 C 0.12239 0.05248 0.03081
 C1816 C 0.14043 0.05983 0.03800
 C1817 C 0.10717 0.06419 0.02472
 C1818 C 0.08905 0.05686 0.01798
 C1819 C 0.08568 0.03775 0.01766
 C1820 C 0.10090 0.02591 0.02358
 H1821 H 0.17499 0.07023 0.05382
 H1822 H 0.16764 0.00245 0.04512
 H1823 H 0.19900 0.01550 0.05782
 H1824 H 0.13300 0.00663 0.03397
 H1825 H 0.14248 0.07465 0.03916
 H1826 H 0.10923 0.07901 0.02526
 H1827 H 0.07737 0.06615 0.01356
 H1828 H 0.09833 0.01114 0.02320
 C1829 C 0.14640 0.56843 0.56050
 C1830 C 0.12830 0.56338 0.55144
 C1831 C 0.11252 0.57623 0.55053
 C1832 C 0.11527 0.59401 0.55843
 C1833 C 0.13325 0.59885 0.56761
 C1834 C 0.14884 0.58604 0.56901
 C1835 C 0.09412 0.57096 0.54220
 C1836 C 0.09112 0.55286 0.53523
 C1837 C 0.10702 0.54010 0.53594
 C1838 C 0.12558 0.54552 0.54376
 C1839 C 0.10387 0.52188 0.52956
 C1840 C 0.08489 0.51606 0.52350
 C1841 C 0.06886 0.52846 0.52317
 C1842 C 0.07219 0.54702 0.52846
 H1843 H 0.15850 0.55860 0.56124
 H1844 H 0.10339 0.60406 0.55783
 H1845 H 0.13486 0.61252 0.57400
 H1846 H 0.08194 0.58075 0.54175
 H1847 H 0.13766 0.53565 0.54449
 H1848 H 0.11589 0.51194 0.52999
 H1849 H 0.08255 0.50170 0.51953
 H1850 H 0.05975 0.55655 0.52858
 C1851 C 0.65409 0.06771 0.56702
 C1852 C 0.63649 0.06200 0.55747
 C1853 C 0.61953 0.07359 0.55770
 C1854 C 0.62049 0.09068 0.56757
 C1855 C 0.63826 0.09644 0.57661
 C1856 C 0.65518 0.08508 0.57626
 C1857 C 0.60201 0.06798 0.54790
 C1858 C 0.60134 0.05104 0.53767
 C1859 C 0.61841 0.03958 0.53734
 C1860 C 0.63583 0.04512 0.54725
 C1861 C 0.61768 0.02255 0.52740
 C1862 C 0.59998 0.01656 0.51851
 C1863 C 0.58285 0.02766 0.51899
 C1864 C 0.58371 0.04509 0.52823
 H1865 H 0.66734 0.05916 0.56640
 H1866 H 0.60766 0.09975 0.56792
 H1867 H 0.63907 0.10997 0.58347
 H1868 H 0.58893 0.07678 0.54823
 H1869 H 0.64887 0.03628 0.54700
 H1870 H 0.63061 0.01360 0.52703
 H1871 H 0.59944 0.00296 0.51175
 H1872 H 0.57032 0.05347 0.52911
 C1873 C 0.65365 0.57484 0.03575
 C1874 C 0.63634 0.56530 0.02956
 C1875 C 0.63430 0.54627 0.03323
 C1876 C 0.64976 0.53704 0.04255
 C1877 C 0.66717 0.54649 0.04810
 C1878 C 0.66943 0.56547 0.04476
 C1879 C 0.61688 0.53674 0.02753
 C1880 C 0.60161 0.54588 0.01776
 C1881 C 0.60387 0.56476 0.01347
 C1882 C 0.62111 0.57443 0.01963
 C1883 C 0.58883 0.57362 0.00307
 C1884 C 0.57156 0.56396 -0.00269
 C1885 C 0.56878 0.54538 0.00222
 C1886 C 0.58406 0.53639 0.01228
 H1887 H 0.65490 0.58954 0.03353
 H1888 H 0.64848 0.52244 0.04539
 H1889 H 0.67890 0.53880 0.05493
 H1890 H 0.61524 0.52220 0.03062
 H1891 H 0.62273 0.58898 0.01656
 H1892 H 0.59037 0.58805 -0.00052
 H1893 H 0.56014 0.57120 -0.01058
 H1894 H 0.58229 0.52199 0.01593
 C1895 C 0.06155 0.07873 0.15326
 C1896 C 0.05622 0.06992 0.13564
 C1897 C 0.07083 0.05991 0.12484
 C1898 C 0.09053 0.05910 0.13173
 C1899 C 0.09584 0.06838 0.14899
 C1900 C 0.08145 0.07833 0.15995
 C1901 C 0.06560 0.05114 0.10719
 C1902 C 0.04608 0.05264 0.09994
 C1903 C 0.03155 0.06293 0.11052
 C1904 C 0.03664 0.07131 0.12846
 C1905 C 0.01226 0.06487 0.10283
 C1906 C 0.00743 0.05675 0.08476
 C1907 C 0.02170 0.04628 0.07431
 C1908 C 0.04099 0.04424 0.08206
 H1909 H 0.05027 0.08621 0.16163
 H1910 H 0.10193 0.05160 0.12356
 H1911 H 0.11132 0.06805 0.15359
 H1912 H 0.07679 0.04341 0.09893
 H1913 H 0.02550 0.07916 0.13663
 H1914 H 0.00097 0.07279 0.11069
 H1915 H -0.00751 0.05853 0.07904
 H1916 H 0.05223 0.03646 0.07395
 C1917 C 0.03699 0.54908 0.67755
 C1918 C 0.02932 0.54123 0.66031
 C1919 C 0.00834 0.54074 0.65740
 C1920 C -0.00459 0.54766 0.67202
 C1921 C 0.00319 0.55516 0.68933
 C1922 C 0.02401 0.55595 0.69225
 C1923 C 0.00067 0.53360 0.63981
 C1924 C 0.01370 0.52690 0.62515
 C1925 C 0.03464 0.52684 0.62830
 C1926 C 0.04233 0.53406 0.64586
 C1927 C 0.04755 0.51989 0.61366
 C1928 C 0.03986 0.51365 0.59577
 C1929 C 0.01915 0.51437 0.59222
 C1930 C 0.00613 0.52067 0.60717
 H1931 H 0.05309 0.55007 0.67947
 H1932 H -0.02070 0.54736 0.67004
 H1933 H -0.00700 0.56048 0.70045
 H1934 H -0.01540 0.53351 0.63742
 H1935 H 0.05841 0.53428 0.64819
 H1936 H 0.06362 0.51964 0.61589
 H1937 H 0.05019 0.50893 0.58446
 H1938 H -0.00990 0.52112 0.60466
 C1939 C 0.57344 0.07704 0.63713
 C1940 C 0.56852 0.06364 0.62295
 C1941 C 0.58272 0.05873 0.60828
 C1942 C 0.60182 0.06708 0.60841
 C1943 C 0.60693 0.07972 0.62325
 C1944 C 0.59284 0.08463 0.63776
 C1945 C 0.57779 0.04520 0.59416
 C1946 C 0.55907 0.03613 0.59495
 C1947 C 0.54528 0.04057 0.61018
 C1948 C 0.54999 0.05443 0.62390
 C1949 C 0.52673 0.03140 0.61117
 C1950 C 0.52125 0.01885 0.59649
 C1951 C 0.53428 0.01512 0.58065
 C1952 C 0.55354 0.02323 0.58037
 H1953 H 0.56286 0.08036 0.64881
 H1954 H 0.61309 0.06314 0.59765
 H1955 H 0.62211 0.08515 0.62393
 H1956 H 0.58850 0.04168 0.58266
 H1957 H 0.53928 0.05797 0.63540
 H1958 H 0.51609 0.03454 0.62284
 H1959 H 0.50627 0.01291 0.59683
 H1960 H 0.56350 0.02075 0.56796
 C1961 C 0.53993 0.54726 0.15532
 C1962 C 0.53550 0.54038 0.13655
 C1963 C 0.53498 0.52113 0.13298
 C1964 C 0.53846 0.50912 0.14839
 C1965 C 0.54272 0.51610 0.16708
 C1966 C 0.54368 0.53519 0.17067
 C1967 C 0.53104 0.51423 0.11408
 C1968 C 0.52725 0.52634 0.09879
 C1969 C 0.52739 0.54558 0.10252
 C1970 C 0.53172 0.55247 0.12129
 C1971 C 0.52290 0.55766 0.08745
 C1972 C 0.51795 0.55075 0.06894
 C1973 C 0.51793 0.53171 0.06507
 C1974 C 0.52288 0.51953 0.07992
 H1975 H 0.54092 0.56200 0.15794
 H1976 H 0.53804 0.49433 0.14597
 H1977 H 0.54561 0.50663 0.17876
 H1978 H 0.53075 0.49948 0.11132
 H1979 H 0.53197 0.56722 0.12408
 H1980 H 0.52287 0.57242 0.09005
 H1981 H 0.51411 0.56029 0.05758
 H1982 H 0.52257 0.50481 0.07696
 C1983 C 0.16549 0.56553 0.60300
 C1984 C 0.17484 0.55412 0.61647
 C1985 C 0.19572 0.55588 0.61966
 C1986 C 0.20702 0.56845 0.60871
 C1987 C 0.19769 0.57947 0.59506
 C1988 C 0.17678 0.57843 0.59227
 C1989 C 0.20492 0.54524 0.63389
 C1990 C 0.19355 0.53267 0.64483
 C1991 C 0.17283 0.53033 0.64103
 C1992 C 0.16359 0.54115 0.62699
 C1993 C 0.16160 0.51741 0.65159
 C1994 C 0.17063 0.50729 0.66620
 C1995 C 0.19101 0.51004 0.67069
 C1996 C 0.20247 0.52261 0.65975
 H1997 H 0.14937 0.56465 0.60120
 H1998 H 0.22307 0.56985 0.61078
 H1999 H 0.20686 0.58903 0.58680
 H2000 H 0.22085 0.54689 0.63659
 H2001 H 0.14762 0.53959 0.62438
 H2002 H 0.14575 0.51536 0.64880
 H2003 H 0.16140 0.49780 0.67451
 H2004 H 0.21821 0.52477 0.66304
 C2005 C 0.20483 0.03264 0.09616
 C2006 C 0.21381 0.02501 0.11254
 C2007 C 0.23482 0.02653 0.11492
 C2008 C 0.24659 0.03477 0.10032
 C2009 C 0.23753 0.04216 0.08393
 C2010 C 0.21656 0.04156 0.08192
 C2011 C 0.24361 0.02036 0.13213
 C2012 C 0.23162 0.01277 0.14699
 C2013 C 0.21075 0.01040 0.14413
 C2014 C 0.20199 0.01650 0.12691
 C2015 C 0.19884 0.00256 0.15885
 C2016 C 0.20730 -0.00197 0.17668
 C2017 C 0.22781 0.00133 0.18014
 C2018 C 0.24001 0.00822 0.16499
 H2019 H 0.18863 0.03232 0.09488
 H2020 H 0.26274 0.03590 0.10180
 H2021 H 0.24682 0.04887 0.07303
 H2022 H 0.25966 0.02199 0.13420
 H2023 H 0.18590 0.01514 0.12496
 H2024 H 0.18286 0.00051 0.15683
 H2025 H 0.19753 -0.00722 0.18810
 H2026 H 0.25587 0.01067 0.16744
 C2027 C 0.66958 0.18249 0.63655
 C2028 C 0.68029 0.19429 0.62404
 C2029 C 0.70143 0.19308 0.62279
 C2030 C 0.71147 0.17997 0.63367
 C2031 C 0.70078 0.16842 0.64613
 C2032 C 0.67975 0.16971 0.64805
 C2033 C 0.71230 0.20497 0.61070
 C2034 C 0.70233 0.21786 0.59947
 C2035 C 0.68120 0.21908 0.60043
 C2036 C 0.67027 0.20736 0.61286
 C2037 C 0.67142 0.23177 0.58864
 C2038 C 0.68245 0.24261 0.57550
 C2039 C 0.70348 0.24120 0.57424
 C2040 C 0.71327 0.22911 0.58675
 H2041 H 0.65337 0.18338 0.63757
 H2042 H 0.72766 0.17879 0.63273
 H2043 H 0.70915 0.15875 0.65462
 H2044 H 0.72853 0.20405 0.60987
 H2045 H 0.65404 0.20828 0.61368
 H2046 H 0.65522 0.23291 0.58913
 H2047 H 0.67446 0.25165 0.56593
 H2048 H 0.72943 0.22764 0.58589
 C2049 C 0.68955 0.70181 0.13704
 C2050 C 0.69736 0.70711 0.11878
 C2051 C 0.70677 0.69383 0.10646
 C2052 C 0.70769 0.67548 0.11228
 C2053 C 0.69954 0.67028 0.13023
 C2054 C 0.69063 0.68337 0.14292
 C2055 C 0.71513 0.69907 0.08851
 C2056 C 0.71391 0.71735 0.08249
 C2057 C 0.70396 0.73057 0.09441
 C2058 C 0.69591 0.72540 0.11261
 C2059 C 0.70219 0.74869 0.08781
 C2060 C 0.71027 0.75364 0.06962
 C2061 C 0.72067 0.74065 0.05805
 C2062 C 0.72238 0.72255 0.06458
 H2063 H 0.68271 0.71197 0.14673
 H2064 H 0.71466 0.66512 0.10291
 H2065 H 0.70023 0.65595 0.13428
 H2066 H 0.72251 0.68890 0.07918
 H2067 H 0.68847 0.73556 0.12189
 H2068 H 0.69446 0.75899 0.09665
 H2069 H 0.70865 0.76764 0.06471
 H2070 H 0.72992 0.71237 0.05544
 C2071 C 0.55129 0.67473 0.09593
 C2072 C 0.54236 0.68263 0.11272
 C2073 C 0.54079 0.70200 0.11450
 C2074 C 0.54725 0.71307 0.09903
 C2075 C 0.55596 0.70508 0.08231
 C2076 C 0.55858 0.68592 0.08082
 C2077 C 0.53323 0.71000 0.13187
 C2078 C 0.52709 0.69886 0.14743
 C2079 C 0.52781 0.67946 0.14527
 C2080 C 0.53551 0.67147 0.12798
 C2081 C 0.52116 0.66833 0.16060
 C2082 C 0.51434 0.67631 0.17812
 C2083 C 0.51429 0.69556 0.18074
 C2084 C 0.52053 0.70679 0.16524
 H2085 H 0.55334 0.65995 0.09495
 H2086 H 0.54596 0.72792 0.10003
 H2087 H 0.56129 0.71391 0.07071
 H2088 H 0.53245 0.72487 0.13339
 H2089 H 0.53648 0.65661 0.12653
 H2090 H 0.52151 0.65345 0.15917
 H2091 H 0.50973 0.66737 0.18990
 H2092 H 0.52040 0.72165 0.16711
 C2093 C 0.06344 0.70263 0.58134
 C2094 C 0.05391 0.71241 0.59662
 C2095 C 0.03275 0.71372 0.59704
 C2096 C 0.02158 0.70604 0.58163
 C2097 C 0.03123 0.69667 0.56625
 C2098 C 0.05219 0.69447 0.56615
 C2099 C 0.02310 0.72234 0.61303
 C2100 C 0.03437 0.72978 0.62852
 C2101 C 0.05558 0.72930 0.62757
 C2102 C 0.06521 0.72055 0.61168
 C2103 C 0.06683 0.73715 0.64282
 C2104 C 0.05718 0.74468 0.65928
 C2105 C 0.03612 0.74436 0.66086
 C2106 C 0.02477 0.73722 0.64521
 H2107 H 0.07958 0.70095 0.58156
 H2108 H 0.00537 0.70711 0.58158
 H2109 H 0.02226 0.69079 0.55457
 H2110 H 0.00683 0.72292 0.61359
 H2111 H 0.08147 0.71979 0.61121
 H2112 H 0.08309 0.73702 0.64227
 H2113 H 0.06627 0.74997 0.67119
 H2114 H 0.00852 0.73701 0.64625
 C2115 C 0.55095 0.57206 0.20805
 C2116 C 0.54142 0.58771 0.21588
 C2117 C 0.52060 0.59003 0.21322
 C2118 C 0.50955 0.57626 0.20340
 C2119 C 0.51908 0.56046 0.19609
 C2120 C 0.53991 0.55825 0.19813
 C2121 C 0.51126 0.60615 0.22021
 C2122 C 0.52245 0.61983 0.23008
 C2123 C 0.54311 0.61707 0.23344
 C2124 C 0.55249 0.60112 0.22620
 C2125 C 0.55419 0.63049 0.24370
 C2126 C 0.54512 0.64679 0.25003
 C2127 C 0.52480 0.65012 0.24607
 C2128 C 0.51345 0.63639 0.23633
 H2129 H 0.56706 0.57079 0.20943
 H2130 H 0.49354 0.57771 0.20134
 H2131 H 0.51021 0.54998 0.18864
 H2132 H 0.49536 0.60811 0.21781
 H2133 H 0.56842 0.59922 0.22847
 H2134 H 0.57000 0.62853 0.24651
 H2135 H 0.55428 0.65713 0.25736
 H2136 H 0.49777 0.63873 0.23325
 C2137 C 0.02325 0.59635 0.70165
 C2138 C 0.01915 0.61452 0.70747
 C2139 C 0.01638 0.61891 0.72755
 C2140 C 0.01693 0.60487 0.74136
 C2141 C 0.02106 0.58678 0.73541
 C2142 C 0.02476 0.58249 0.71560
 C2143 C 0.01362 0.63730 0.73351
 C2144 C 0.01355 0.65131 0.71963
 C2145 C 0.01560 0.64679 0.69949
 C2146 C 0.01843 0.62844 0.69355
 C2147 C 0.01500 0.66076 0.68562
 C2148 C 0.01262 0.67908 0.69164
 C2149 C 0.01115 0.68375 0.71161
 C2150 C 0.01159 0.66979 0.72556
 H2151 H 0.02622 0.59310 0.68636
 H2152 H 0.01468 0.60795 0.75679
 H2153 H 0.02211 0.57618 0.74629
 H2154 H 0.01184 0.64073 0.74893
 H2155 H 0.02038 0.62502 0.67814
 H2156 H 0.01646 0.65753 0.67014
 H2157 H 0.01232 0.68967 0.68068
 H2158 H 0.01019 0.67332 0.74099
 C2159 C 0.05395 0.16958 0.04350
 C2160 C 0.04759 0.15152 0.03883
 C2161 C 0.04217 0.13943 0.05405
 C2162 C 0.04377 0.14532 0.07358
 C2163 C 0.05070 0.16302 0.07808
 C2164 C 0.05570 0.17544 0.06319
 C2165 C 0.03538 0.12157 0.04960
 C2166 C 0.03447 0.11537 0.03013
 C2167 C 0.04054 0.12709 0.01483
 C2168 C 0.04679 0.14523 0.01926
 C2169 C 0.04039 0.12033 -0.00457
 C2170 C 0.03425 0.10217 -0.00872
 C2171 C 0.02763 0.09073 0.00642
 C2172 C 0.02781 0.09745 0.02579
 H2173 H 0.05774 0.17904 0.03192
 H2174 H 0.03987 0.13614 0.08539
 H2175 H 0.05223 0.16704 0.09332
 H2176 H 0.03102 0.11242 0.06132
 H2177 H 0.05125 0.15435 0.00755
 H2178 H 0.04517 0.12904 -0.01650
 H2179 H 0.03435 0.09714 -0.02373
 H2180 H 0.02316 0.08851 0.03760
 C2181 C 0.04201 0.65488 0.55662
 C2182 C 0.03300 0.63859 0.54958
 C2183 C 0.03418 0.63411 0.52939
 C2184 C 0.04393 0.64618 0.51655
 C2185 C 0.05273 0.66243 0.52367
 C2186 C 0.05200 0.66685 0.54374
 C2187 C 0.02593 0.61749 0.52239
 C2188 C 0.01663 0.60524 0.53534
 C2189 C 0.01497 0.60988 0.55545
 C2190 C 0.02312 0.62658 0.56245
 C2191 C 0.00561 0.59751 0.56827
 C2192 C -0.00128 0.58036 0.56137
 C2193 C 0.00105 0.57535 0.54152
 C2194 C 0.00956 0.58812 0.52853
 H2195 H 0.04160 0.65813 0.57215
 H2196 H 0.04490 0.64298 0.50102
 H2197 H 0.06026 0.67157 0.51356
 H2198 H 0.02712 0.61393 0.50695
 H2199 H 0.02211 0.63006 0.57792
 H2200 H 0.00411 0.60088 0.58372
 H2201 H -0.00773 0.57078 0.57170
 H2202 H 0.01131 0.58452 0.51315
 C2203 C 0.54584 0.15180 0.56039
 C2204 C 0.53921 0.13528 0.55160
 C2205 C 0.53895 0.13353 0.53096
 C2206 C 0.54491 0.14848 0.51951
 C2207 C 0.55106 0.16501 0.52839
 C2208 C 0.55167 0.16685 0.54889
 C2209 C 0.53274 0.11690 0.52212
 C2210 C 0.52650 0.10207 0.53364
 C2211 C 0.52627 0.10398 0.55427
 C2212 C 0.53278 0.12051 0.56312
 C2213 C 0.51966 0.08925 0.56572
 C2214 C 0.51368 0.07266 0.55686
 C2215 C 0.51438 0.07042 0.53639
 C2216 C 0.52068 0.08527 0.52485
 H2217 H 0.54649 0.15299 0.57620
 H2218 H 0.54470 0.14742 0.50368
 H2219 H 0.55531 0.17645 0.51923
 H2220 H 0.53277 0.11550 0.50629
 H2221 H 0.53282 0.12190 0.57894
 H2222 H 0.51937 0.09048 0.58154
 H2223 H 0.50918 0.06134 0.56610
 H2224 H 0.52126 0.08369 0.50906
 C2225 C 0.54388 0.65605 0.05315
 C2226 C 0.53826 0.63906 0.04456
 C2227 C 0.55328 0.62658 0.03830
 C2228 C 0.57354 0.63099 0.04122
 C2229 C 0.57896 0.64770 0.05014
 C2230 C 0.56429 0.66054 0.05594
 C2231 C 0.54787 0.60982 0.02930
 C2232 C 0.52760 0.60516 0.02682
 C2233 C 0.51247 0.61729 0.03358
 C2234 C 0.51790 0.63430 0.04222
 C2235 C 0.49219 0.61204 0.03174
 C2236 C 0.48702 0.59494 0.02328
 C2237 C 0.50204 0.58316 0.01605
 C2238 C 0.52225 0.58836 0.01791
 H2239 H 0.53244 0.66580 0.05762
 H2240 H 0.58521 0.62147 0.03672
 H2241 H 0.59472 0.65059 0.05252
 H2242 H 0.55943 0.60035 0.02436
 H2243 H 0.50633 0.64372 0.04725
 H2244 H 0.48038 0.62106 0.03701
 H2245 H 0.47135 0.59100 0.02219
 H2246 H 0.53386 0.57899 0.01293
 C2247 C 0.69540 0.12071 0.58000
 C2248 C 0.70397 0.13489 0.56872
 C2249 C 0.70014 0.13547 0.54842
 C2250 C 0.68830 0.12170 0.53966
 C2251 C 0.68022 0.10751 0.55083
 C2252 C 0.68350 0.10683 0.57114
 C2253 C 0.70814 0.14981 0.53716
 C2254 C 0.72018 0.16353 0.54584
 C2255 C 0.72448 0.16273 0.56601
 C2256 C 0.71625 0.14851 0.57737
 C2257 C 0.73676 0.17633 0.57455
 C2258 C 0.74408 0.19095 0.56343
 C2259 C 0.73931 0.19232 0.54348
 C2260 C 0.72766 0.17825 0.53471
 H2261 H 0.69789 0.12049 0.59563
 H2262 H 0.68532 0.12187 0.52411
 H2263 H 0.67134 0.09699 0.54348
 H2264 H 0.70489 0.15034 0.52167
 H2265 H 0.71934 0.14809 0.59290
 H2266 H 0.74039 0.17585 0.58994
 H2267 H 0.75300 0.20151 0.57070
 H2268 H 0.72377 0.17906 0.51940
 C2269 C 0.70715 0.60451 0.04842
 C2270 C 0.71404 0.61956 0.03751
 C2271 C 0.71005 0.62025 0.01729
 C2272 C 0.70026 0.60534 0.00812
 C2273 C 0.69372 0.59027 0.01903
 C2274 C 0.69622 0.58998 0.03947
 C2275 C 0.71574 0.63589 0.00663
 C2276 C 0.72564 0.65074 0.01593
 C2277 C 0.73050 0.64957 0.03596
 C2278 C 0.72456 0.63409 0.04663
 C2279 C 0.74102 0.66402 0.04510
 C2280 C 0.74619 0.67976 0.03473
 C2281 C 0.74058 0.68162 0.01507
 C2282 C 0.73054 0.66685 0.00565
 H2283 H 0.70992 0.60448 0.06398
 H2284 H 0.69749 0.60539 -0.00746
 H2285 H 0.68629 0.57896 0.01146
 H2286 H 0.71228 0.63657 -0.00880
 H2287 H 0.72791 0.63345 0.06210
 H2288 H 0.74508 0.66325 0.06037
 H2289 H 0.75415 0.69072 0.04236
 H2290 H 0.72632 0.66795 -0.00955
 C2291 C 0.17666 0.63387 0.70453
 C2292 C 0.18468 0.61802 0.71281
 C2293 C 0.20559 0.61501 0.71181
 C2294 C 0.21823 0.62851 0.70380
 C2295 C 0.21014 0.64439 0.69587
 C2296 C 0.18922 0.64686 0.69519
 C2297 C 0.21346 0.59839 0.71842
 C2298 C 0.20067 0.58480 0.72614
 C2299 C 0.17991 0.58833 0.72828
 C2300 C 0.17204 0.60488 0.72155
 C2301 C 0.16726 0.57496 0.73657
 C2302 C 0.17490 0.55790 0.74176
 C2303 C 0.19524 0.55377 0.73849
 C2304 C 0.20817 0.56750 0.73113
 H2305 H 0.16055 0.63564 0.70477
 H2306 H 0.23434 0.62666 0.70335
 H2307 H 0.22027 0.65454 0.68971
 H2308 H 0.22944 0.59585 0.71709
 H2309 H 0.15602 0.60732 0.72264
 H2310 H 0.15136 0.57751 0.73852
 H2311 H 0.16464 0.54759 0.74741
 H2312 H 0.22393 0.56452 0.72873
 C2313 C 0.20893 0.14448 0.18904
 C2314 C 0.21336 0.12833 0.19907
 C2315 C 0.19862 0.12032 0.21136
 C2316 C 0.17966 0.12836 0.21312
 C2317 C 0.17501 0.14376 0.20221
 C2318 C 0.18957 0.15213 0.19010
 C2319 C 0.20288 0.10415 0.22133
 C2320 C 0.22139 0.09543 0.21851
 C2321 C 0.23604 0.10320 0.20592
 C2322 C 0.23208 0.11982 0.19658
 C2323 C 0.25423 0.09402 0.20262
 C2324 C 0.25777 0.07715 0.21149
 C2325 C 0.24336 0.06942 0.22414
 C2326 C 0.22527 0.07877 0.22772
 H2327 H 0.22042 0.15082 0.18000
 H2328 H 0.16827 0.12248 0.22261
 H2329 H 0.15987 0.14901 0.20312
 H2330 H 0.19161 0.09811 0.23088
 H2331 H 0.24332 0.12584 0.18697
 H2332 H 0.26560 0.09973 0.19296
 H2333 H 0.27183 0.07021 0.20855
 H2334 H 0.21393 0.07282 0.23726
 C2335 C 0.68900 1.14208 0.68577
 C2336 C 0.69946 1.12644 0.69135
 C2337 C 0.69797 1.11003 0.67997
 C2338 C 0.68611 1.10967 0.66310
 C2339 C 0.67624 1.12556 0.65733
 C2340 C 0.67770 1.14178 0.66862
 C2341 C 0.70849 1.09437 0.68553
 C2342 C 0.72060 1.09497 0.70221
 C2343 C 0.72221 1.11146 0.71344
 C2344 C 0.71164 1.12708 0.70793
 C2345 C 0.73395 1.11190 0.73033
 C2346 C 0.74323 1.09594 0.73661
 C2347 C 0.74133 1.07939 0.72583
 C2348 C 0.73048 1.07915 0.70831
 H2349 H 0.69020 1.15479 0.69426
 H2350 H 0.68479 1.09724 0.65422
 H2351 H 0.66758 1.12531 0.64401
 H2352 H 0.70720 1.08173 0.67696
 H2353 H 0.71279 1.13969 0.71660
 H2354 H 0.73532 1.12442 0.73910
 H2355 H 0.75128 1.09632 0.75029
 H2356 H 0.72850 1.06632 0.70020
 C2357 C 0.68364 0.64868 0.17997
 C2358 C 0.69450 0.63424 0.18802
 C2359 C 0.71571 0.63526 0.18860
 C2360 C 0.72560 0.65110 0.18189
 C2361 C 0.71466 0.66545 0.17399
 C2362 C 0.69365 0.66420 0.17253
 C2363 C 0.72666 0.62030 0.19547
 C2364 C 0.71667 0.60438 0.20189
 C2365 C 0.69542 0.60371 0.20199
 C2366 C 0.68450 0.61858 0.19499
 C2367 C 0.68539 0.58804 0.20884
 C2368 C 0.69624 0.57303 0.21525
 C2369 C 0.71735 0.57324 0.21470
 C2370 C 0.72753 0.58902 0.20803
 H2371 H 0.66747 0.64754 0.17873
 H2372 H 0.74182 0.65222 0.18237
 H2373 H 0.72262 0.67736 0.16842
 H2374 H 0.74294 0.62096 0.19556
 H2375 H 0.66823 0.61786 0.19473
 H2376 H 0.66913 0.58732 0.20908
 H2377 H 0.68804 0.56097 0.22015
 H2378 H 0.74380 0.58933 0.20765
 C2379 C 0.58245 0.11222 0.68157
 C2380 C 0.57177 0.12776 0.68794
 C2381 C 0.56738 0.14176 0.67458
 C2382 C 0.57398 0.13998 0.65507
 C2383 C 0.58465 0.12439 0.64884
 C2384 C 0.58900 0.11037 0.66200
 C2385 C 0.55645 0.15723 0.68096
 C2386 C 0.55002 0.15888 0.70055
 C2387 C 0.55472 0.14495 0.71392
 C2388 C 0.56543 0.12944 0.70749
 C2389 C 0.54890 0.14686 0.73361
 C2390 C 0.53883 0.16261 0.74014
 C2391 C 0.53395 0.17645 0.72701
 C2392 C 0.53936 0.17444 0.70716
 H2393 H 0.58533 0.10138 0.69183
 H2394 H 0.57081 0.15059 0.64462
 H2395 H 0.58954 0.12322 0.63372
 H2396 H 0.55303 0.16799 0.67073
 H2397 H 0.56895 0.11874 0.71775
 H2398 H 0.55250 0.13636 0.74404
 H2399 H 0.53501 0.16409 0.75553
 H2400 H 0.53610 0.18536 0.69707
 C2401 C 1.07068 0.10937 0.20140
 C2402 C 1.06146 0.12611 0.20632
 C2403 C 1.05875 0.13947 0.19178
 C2404 C 1.06528 0.13579 0.17255
 C2405 C 1.07458 0.11911 0.16783
 C2406 C 1.07733 0.10579 0.18219
 C2407 C 1.04989 0.15638 0.19678
 C2408 C 1.04413 0.16025 0.21620
 C2409 C 1.04683 0.14684 0.23070
 C2410 C 1.05524 0.12979 0.22562
 C2411 C 1.04168 0.15092 0.25021
 C2412 C 1.03468 0.16837 0.25547
 C2413 C 1.03222 0.18186 0.24125
 C2414 C 1.03646 0.17759 0.22154
 H2415 H 1.07278 0.09907 0.21247
 H2416 H 1.06340 0.14587 0.16124
 H2417 H 1.07981 0.11661 0.15297
 H2418 H 1.04795 0.16669 0.18567
 H2419 H 1.05740 0.11956 0.23677
 H2420 H 1.04367 0.14082 0.26149
 H2421 H 1.03152 0.17148 0.27074
 H2422 H 1.03490 0.18809 0.21058
 C2423 C 0.18229 0.61403 0.55754
 C2424 C 0.19272 0.63066 0.55490
 C2425 C 0.19634 0.64250 0.57118
 C2426 C 0.18929 0.63755 0.58978
 C2427 C 0.17921 0.62080 0.59230
 C2428 C 0.17583 0.60892 0.57625
 C2429 C 0.20711 0.65897 0.56863
 C2430 C 0.21437 0.66373 0.55006
 C2431 C 0.21062 0.65195 0.53377
 C2432 C 0.19986 0.63548 0.53630
 C2433 C 0.21747 0.65698 0.51514
 C2434 C 0.22753 0.67372 0.51259
 C2435 C 0.23131 0.68550 0.52867
 C2436 C 0.22497 0.68030 0.54742
 H2437 H 0.17977 0.60470 0.54524
 H2438 H 0.19184 0.64647 0.60238
 H2439 H 0.17426 0.61691 0.60680
 H2440 H 0.20980 0.66807 0.58108
 H2441 H 0.19703 0.62643 0.52382
 H2442 H 0.21468 0.64816 0.50250
 H2443 H 0.23218 0.67761 0.49798
 H2444 H 0.22744 0.68953 0.55976
 C2445 C 0.21539 0.07613 1.04305
 C2446 C 0.22148 0.09430 1.03926
 C2447 C 0.22650 0.10634 1.05499
 C2448 C 0.22505 0.10011 1.07423
 C2449 C 0.21863 0.08214 1.07788
 C2450 C 0.21383 0.06996 1.06237
 C2451 C 0.23272 0.12445 1.05128
 C2452 C 0.23364 0.13081 1.03205
 C2453 C 0.22825 0.11889 1.01634
 C2454 C 0.22241 0.10066 1.02002
 C2455 C 0.22861 0.12548 0.99719
 C2456 C 0.23415 0.14372 0.99364
 C2457 C 0.23978 0.15559 1.00912
 C2458 C 0.23960 0.14900 1.02831
 H2459 H 0.21171 0.06679 1.03105
 H2460 H 0.22868 0.10918 1.08646
 H2461 H 0.21725 0.07775 1.09289
 H2462 H 0.23664 0.13363 1.06336
 H2463 H 0.21838 0.09151 1.00796
 H2464 H 0.22446 0.11658 0.98498
 H2465 H 0.23421 0.14851 0.97872
 H2466 H 0.24365 0.15815 1.04037
 C2467 C 0.18850 0.68829 0.66269
 C2468 C 0.19760 0.69547 0.64583
 C2469 C 0.20940 0.68390 0.63359
 C2470 C 0.21107 0.66519 0.63790
 C2471 C 0.20136 0.65802 0.65434
 C2472 C 0.19049 0.66954 0.66732
 C2473 C 0.21916 0.69118 0.61715
 C2474 C 0.21661 0.70970 0.61232
 C2475 C 0.20415 0.72111 0.62408
 C2476 C 0.19499 0.71401 0.64096
 C2477 C 0.20101 0.73942 0.61866
 C2478 C 0.21006 0.74632 0.60170
 C2479 C 0.22280 0.73518 0.59015
 C2480 C 0.22613 0.71691 0.59573
 H2481 H 0.17993 0.69738 0.67221
 H2482 H 0.21968 0.65605 0.62843
 H2483 H 0.20239 0.64340 0.65692
 H2484 H 0.22858 0.68239 0.60801
 H2485 H 0.18566 0.72282 0.65017
 H2486 H 0.19142 0.74833 0.62744
 H2487 H 0.20728 0.76044 0.59773
 H2488 H 0.23592 0.70816 0.58698
 C2489 C 0.19974 0.18833 1.15365
 C2490 C 0.20798 0.19119 1.13498
 C2491 C 0.21133 0.17598 1.12219
 C2492 C 0.20597 0.15822 1.12818
 C2493 C 0.19718 0.15557 1.14657
 C2494 C 0.19413 0.17056 1.15955
 C2495 C 0.21961 0.17881 1.10352
 C2496 C 0.22396 0.19672 1.09725
 C2497 C 0.22013 0.21196 1.10989
 C2498 C 0.21249 0.20907 1.12878
 C2499 C 0.22364 0.22988 1.10328
 C2500 C 0.23065 0.23272 1.08424
 C2501 C 0.23478 0.21769 1.07171
 C2502 C 0.23164 0.19969 1.07835
 H2503 H 0.19733 0.19995 1.16354
 H2504 H 0.20823 0.14642 1.11851
 H2505 H 0.19258 0.14182 1.15065
 H2506 H 0.22228 0.16714 1.09374
 H2507 H 0.20966 0.22075 1.13849
 H2508 H 0.22068 0.24170 1.11273
 H2509 H 0.23301 0.24668 1.07932
 H2510 H 0.23452 0.18806 1.06859
 C2511 C 0.70800 0.55710 0.07337
 C2512 C 0.71339 0.55237 0.09245
 C2513 C 0.70635 0.56309 0.10855
 C2514 C 0.69354 0.57794 0.10534
 C2515 C 0.68742 0.58190 0.08640
 C2516 C 0.69469 0.57163 0.07032
 C2517 C 0.71184 0.55856 0.12762
 C2518 C 0.72351 0.54295 0.13089
 C2519 C 0.72985 0.53176 0.11489
 C2520 C 0.72513 0.53678 0.09573
 C2521 C 0.74056 0.51559 0.11838
 C2522 C 0.74496 0.51057 0.13753
 C2523 C 0.73927 0.52194 0.15337
 C2524 C 0.72863 0.53815 0.14999
 H2525 H 0.71344 0.54909 0.06092
 H2526 H 0.68784 0.58618 0.11751
 H2527 H 0.67702 0.59302 0.08418
 H2528 H 0.70664 0.56693 0.13993
 H2529 H 0.73018 0.52832 0.08344
 H2530 H 0.74538 0.50676 0.10631
 H2531 H 0.75315 0.49801 0.13997
 H2532 H 0.72398 0.54679 0.16230
 C2533 C 0.67447 1.07480 0.61357
 C2534 C 0.68472 1.06534 0.62818
 C2535 C 0.70589 1.06426 0.62734
 C2536 C 0.71639 1.07246 0.61183
 C2537 C 0.70608 1.08159 0.59724
 C2538 C 0.68503 1.08306 0.59795
 C2539 C 0.71624 1.05496 0.64195
 C2540 C 0.70571 1.04658 0.65737
 C2541 C 0.68453 1.04752 0.65812
 C2542 C 0.67417 1.05693 0.64359
 C2543 C 0.67405 1.03911 0.67350
 C2544 C 0.68440 1.03022 0.68824
 C2545 C 0.70553 1.02946 0.68797
 C2546 C 0.71605 1.03756 0.67226
 H2547 H 0.65826 1.07574 0.61432
 H2548 H 0.73260 1.07165 0.61087
 H2549 H 0.71462 1.08732 0.58520
 H2550 H 0.73249 1.05427 0.64132
 H2551 H 0.65792 1.05775 0.64430
 H2552 H 0.65781 1.03959 0.67425
 H2553 H 0.67580 1.02430 0.70014
 H2554 H 0.73231 1.03725 0.67182
 C2555 C 0.56038 0.20008 0.59017
 C2556 C 0.55136 0.20688 0.60744
 C2557 C 0.53062 0.20393 0.61080
 C2558 C 0.51916 0.19469 0.59655
 C2559 C 0.52816 0.18838 0.57917
 C2560 C 0.54890 0.19078 0.57587
 C2561 C 0.52168 0.21024 0.62832
 C2562 C 0.53317 0.21977 0.64237
 C2563 C 0.55378 0.22324 0.63870
 C2564 C 0.56278 0.21664 0.62135
 C2565 C 0.56512 0.23312 0.65255
 C2566 C 0.55626 0.23916 0.67008
 C2567 C 0.53595 0.23526 0.67420
 C2568 C 0.52443 0.22569 0.66014
 H2569 H 0.57638 0.20198 0.58785
 H2570 H 0.50320 0.19246 0.59879
 H2571 H 0.51891 0.18159 0.56825
 H2572 H 0.50582 0.20773 0.63102
 H2573 H 0.57866 0.21909 0.61867
 H2574 H 0.58091 0.23594 0.64995
 H2575 H 0.56553 0.24628 0.68076
 H2576 H 0.50874 0.22264 0.66316
 C2577 C 1.06604 0.21105 0.09972
 C2578 C 1.05755 0.21805 0.11718
 C2579 C 1.03657 0.21679 0.12032
 C2580 C 1.02435 0.20936 0.10554
 C2581 C 1.03290 0.20268 0.08809
 C2582 C 1.05382 0.20308 0.08516
 C2583 C 1.02820 0.22265 0.13830
 C2584 C 1.04052 0.23001 0.15307
 C2585 C 1.06138 0.23205 0.14952
 C2586 C 1.06978 0.22593 0.13169
 C2587 C 1.07358 0.24001 0.16397
 C2588 C 1.06533 0.24552 0.18195
 C2589 C 1.04478 0.24278 0.18606
 C2590 C 1.03239 0.23517 0.17142
 H2591 H 1.08220 0.21123 0.09771
 H2592 H 1.00823 0.20843 0.10760
 H2593 H 1.02323 0.19666 0.07702
 H2594 H 1.01216 0.22130 0.14086
 H2595 H 1.08584 0.22714 0.12919
 H2596 H 1.08956 0.24183 0.16144
 H2597 H 1.07520 0.25146 0.19288
 H2598 H 1.01650 0.23318 0.17434
 C2599 C 0.65233 0.18415 0.68009
 C2600 C 0.63651 0.19091 0.69176
 C2601 C 0.62043 0.17903 0.69693
 C2602 C 0.62029 0.16073 0.69007
 C2603 C 0.63599 0.15418 0.67827
 C2604 C 0.65215 0.16578 0.67320
 C2605 C 0.60475 0.18565 0.70883
 C2606 C 0.60473 0.20409 0.71528
 C2607 C 0.62055 0.21611 0.70980
 C2608 C 0.63651 0.20936 0.69828
 C2609 C 0.61984 0.23477 0.71554
 C2610 C 0.60331 0.24157 0.72611
 C2611 C 0.58769 0.22964 0.73173
 C2612 C 0.58868 0.21086 0.72655
 H2613 H 0.66495 0.19307 0.67660
 H2614 H 0.60807 0.15146 0.69386
 H2615 H 0.63563 0.14001 0.67312
 H2616 H 0.59244 0.17652 0.71284
 H2617 H 0.64872 0.21852 0.69413
 H2618 H 0.63176 0.24420 0.71133
 H2619 H 0.60255 0.25614 0.72967
 H2620 H 0.57630 0.20171 0.73026
 C2621 C 1.16699 0.18622 0.20433
 C2622 C 1.15097 0.19744 0.21048
 C2623 C 1.13712 0.20365 0.19657
 C2624 C 1.13933 0.19835 0.17687
 C2625 C 1.15484 0.18666 0.17103
 C2626 C 1.16880 0.18041 0.18464
 C2627 C 1.12097 0.21465 0.20260
 C2628 C 1.11794 0.21886 0.22249
 C2629 C 1.13150 0.21237 0.23651
 C2630 C 1.14821 0.20205 0.23036
 C2631 C 1.12766 0.21576 0.25649
 C2632 C 1.11021 0.22495 0.26251
 C2633 C 1.09683 0.23151 0.24861
 C2634 C 1.10098 0.22873 0.22864
 H2635 H 1.17778 0.18161 0.21488
 H2636 H 1.12877 0.20290 0.16606
 H2637 H 1.15582 0.18228 0.15583
 H2638 H 1.11036 0.21940 0.19190
 H2639 H 1.15864 0.19707 0.24109
 H2640 H 1.13778 0.21077 0.26746
 H2641 H 1.10704 0.22679 0.27799
 H2642 H 1.09032 0.23327 0.21792
 C2643 C 0.08813 0.70580 0.54144
 C2644 C 0.10805 0.71003 0.53624
 C2645 C 0.12210 0.69569 0.53357
 C2646 C 0.11597 0.67738 0.53621
 C2647 C 0.09622 0.67334 0.54183
 C2648 C 0.08213 0.68749 0.54461
 C2649 C 0.14213 0.69992 0.52873
 C2650 C 0.14841 0.71833 0.52711
 C2651 C 0.13435 0.73265 0.52998
 C2652 C 0.11422 0.72839 0.53419
 C2653 C 0.14075 0.75105 0.52914
 C2654 C 0.16100 0.75526 0.52606
 C2655 C 0.17507 0.74117 0.52322
 C2656 C 0.16866 0.72270 0.52336
 H2657 H 0.07731 0.71676 0.54340
 H2658 H 0.12653 0.66622 0.53432
 H2659 H 0.09198 0.65914 0.54434
 H2660 H 0.15292 0.68892 0.52673
 H2661 H 0.10348 0.73939 0.53641
 H2662 H 0.13020 0.76218 0.53136
 H2663 H 0.16572 0.76958 0.52598
 H2664 H 0.17957 0.71181 0.52148
 C2665 C 0.09500 0.19068 1.04998
 C2666 C 0.11196 0.19843 1.04087
 C2667 C 0.11453 0.21776 1.04069
 C2668 C 0.09947 0.22902 1.04875
 C2669 C 0.08223 0.22120 1.05718
 C2670 C 0.07992 0.20194 1.05825
 C2671 C 0.13214 0.22546 1.03263
 C2672 C 0.14698 0.21404 1.02431
 C2673 C 0.14377 0.19474 1.02355
 C2674 C 0.12645 0.18707 1.03204
 C2675 C 0.15810 0.18334 1.01457
 C2676 C 0.17578 0.19085 1.00695
 C2677 C 0.17969 0.20989 1.00845
 C2678 C 0.16509 0.22149 1.01698
 H2679 H 0.09373 0.17584 1.05086
 H2680 H 0.10101 0.24389 1.04854
 H2681 H 0.07078 0.23023 1.06314
 H2682 H 0.13435 0.24028 1.03293
 H2683 H 0.12430 0.17224 1.03185
 H2684 H 0.15579 0.16856 1.01374
 H2685 H 0.18685 0.18159 1.00065
 H2686 H 0.16795 0.23618 1.01812
 C2687 C 0.58430 0.52999 0.18622
 C2688 C 0.60231 0.52429 0.19444
 C2689 C 0.60432 0.52416 0.21500
 C2690 C 0.58782 0.52881 0.22696
 C2691 C 0.56973 0.53408 0.21862
 C2692 C 0.56794 0.53522 0.19819
 C2693 C 0.62285 0.51969 0.22319
 C2694 C 0.63926 0.51511 0.21105
 C2695 C 0.63684 0.51434 0.19051
 C2696 C 0.61845 0.51904 0.18235
 C2697 C 0.65300 0.50923 0.17840
 C2698 C 0.67163 0.50553 0.18645
 C2699 C 0.67452 0.50709 0.20675
 C2700 C 0.65818 0.51166 0.21903
 H2701 H 0.58319 0.53084 0.17047
 H2702 H 0.58897 0.52855 0.24275
 H2703 H 0.55721 0.53771 0.22811
 H2704 H 0.62456 0.52002 0.23895
 H2705 H 0.61678 0.51887 0.16658
 H2706 H 0.65135 0.50845 0.16265
 H2707 H 0.68403 0.50218 0.17668
 H2708 H 0.66027 0.51279 0.23471
 C2709 C 0.62559 1.09178 0.68053
 C2710 C 0.63519 1.08178 0.69509
 C2711 C 0.62962 1.06317 0.69806
 C2712 C 0.61502 1.05476 0.68637
 C2713 C 0.60563 1.06471 0.67201
 C2714 C 0.61060 1.08334 0.66904
 C2715 C 0.63883 1.05307 0.71256
 C2716 C 0.65404 1.06107 0.72382
 C2717 C 0.65984 1.07960 0.72099
 C2718 C 0.65020 1.08997 0.70674
 C2719 C 0.67567 1.08713 0.73200
 C2720 C 0.68654 1.07596 0.74453
 C2721 C 0.68143 1.05722 0.74652
 C2722 C 0.66438 1.05027 0.73696
 H2723 H 0.62948 1.10611 0.67826
 H2724 H 0.61071 1.04049 0.68844
 H2725 H 0.59402 1.05788 0.66360
 H2726 H 0.63460 1.03876 0.71464
 H2727 H 0.65467 1.10418 0.70442
 H2728 H 0.68033 1.10133 0.73013
 H2729 H 0.69973 1.08169 0.75157
 H2730 H 0.66018 1.03588 0.73836
 C2731 C 0.89740 0.44982 0.31942
 C2732 C 0.88094 0.45708 0.30960
 C2733 C 0.86468 0.44533 0.30451
 C2734 C 0.86465 0.42688 0.31014
 C2735 C 0.88114 0.41977 0.31975
 C2736 C 0.89786 0.43100 0.32393
 C2737 C 0.84905 0.45201 0.29324
 C2738 C 0.84944 0.47024 0.28691
 C2739 C 0.86507 0.48234 0.29275
 C2740 C 0.88080 0.47565 0.30407
 C2741 C 0.86470 0.50083 0.28694
 C2742 C 0.84911 0.50714 0.27523
 C2743 C 0.83417 0.49485 0.26872
 C2744 C 0.83438 0.47650 0.27473
 H2745 H 0.91033 0.45849 0.32258
 H2746 H 0.85222 0.41779 0.30650
 H2747 H 0.88125 0.40529 0.32329
 H2748 H 0.83686 0.44289 0.28895
 H2749 H 0.89311 0.48475 0.30820
 H2750 H 0.87639 0.51039 0.29149
 H2751 H 0.84882 0.52146 0.27108
 H2752 H 0.82240 0.46719 0.27032
 C2753 C 0.88680 0.92074 0.80980
 C2754 C 0.87425 0.93169 0.79848
 C2755 C 0.87805 0.95086 0.79740
 C2756 C 0.89457 0.95865 0.80705
 C2757 C 0.90675 0.94775 0.81842
 C2758 C 0.90269 0.92884 0.82035
 C2759 C 0.86493 0.96210 0.78727
 C2760 C 0.84775 0.95456 0.77855
 C2761 C 0.84413 0.93537 0.77906
 C2762 C 0.85752 0.92398 0.78889
 C2763 C 0.82674 0.92805 0.77039
 C2764 C 0.81246 0.93975 0.76250
 C2765 C 0.81543 0.95897 0.76298
 C2766 C 0.83358 0.96614 0.77029
 H2767 H 0.88368 0.90615 0.81122
 H2768 H 0.89778 0.97328 0.80621
 H2769 H 0.91919 0.95414 0.82610
 H2770 H 0.86768 0.97684 0.78684
 H2771 H 0.85452 0.90930 0.78969
 H2772 H 0.82380 0.91336 0.77044
 H2773 H 0.79861 0.93381 0.75702
 H2774 H 0.83617 0.98091 0.77069
 C2775 C 0.33313 0.28928 0.79322
 C2776 C 0.35281 0.28658 0.78645
 C2777 C 0.36511 0.30195 0.78198
 C2778 C 0.35749 0.31976 0.78447
 C2779 C 0.33811 0.32234 0.79194
 C2780 C 0.32577 0.30715 0.79655
 C2781 C 0.38498 0.29927 0.77564
 C2782 C 0.39292 0.28146 0.77449
 C2783 C 0.38064 0.26613 0.77921
 C2784 C 0.36056 0.26876 0.78476
 C2785 C 0.38879 0.24842 0.77880
 C2786 C 0.40904 0.24594 0.77422
 C2787 C 0.42138 0.26105 0.76951
 C2788 C 0.41313 0.27877 0.76930
 H2789 H 0.32369 0.27748 0.79654
 H2790 H 0.36670 0.33170 0.78116
 H2791 H 0.33293 0.33626 0.79455
 H2792 H 0.39441 0.31105 0.77219
 H2793 H 0.35118 0.25699 0.78839
 H2794 H 0.37961 0.23653 0.78242
 H2795 H 0.41507 0.23214 0.77434
 H2796 H 0.42259 0.29050 0.76582
 C2797 C 0.85897 0.32474 0.32235
 C2798 C 0.87717 0.31879 0.31383
 C2799 C 0.89326 0.33144 0.31144
 C2800 C 0.89099 0.34974 0.31794
 C2801 C 0.87289 0.35549 0.32648
 C2802 C 0.85664 0.34315 0.32860
 C2803 C 0.91146 0.32553 0.30294
 C2804 C 0.91389 0.30704 0.29706
 C2805 C 0.89789 0.29436 0.29974
 C2806 C 0.87959 0.30034 0.30789
 C2807 C 0.90057 0.27576 0.29457
 C2808 C 0.91903 0.26967 0.28718
 C2809 C 0.93500 0.28212 0.28433
 C2810 C 0.93226 0.30088 0.28908
 H2811 H 0.84648 0.31517 0.32379
 H2812 H 0.90319 0.35960 0.31641
 H2813 H 0.87143 0.36971 0.33127
 H2814 H 0.92379 0.33523 0.30121
 H2815 H 0.86734 0.29058 0.30989
 H2816 H 0.88851 0.26584 0.29662
 H2817 H 0.92090 0.25516 0.28377
 H2818 H 0.94468 0.31049 0.28738
 C2819 C 0.42886 0.80658 0.47220
 C2820 C 0.41193 0.79792 0.48038
 C2821 C 0.40902 0.77875 0.47762
 C2822 C 0.42374 0.76844 0.46768
 C2823 C 0.44091 0.77710 0.46011
 C2824 C 0.44345 0.79633 0.46182
 C2825 C 0.39133 0.77031 0.48457
 C2826 C 0.37670 0.78080 0.49454
 C2827 C 0.38027 0.79977 0.49827
 C2828 C 0.39775 0.80822 0.49103
 C2829 C 0.36604 0.81012 0.50877
 C2830 C 0.34800 0.80202 0.51477
 C2831 C 0.34369 0.78345 0.51018
 C2832 C 0.35834 0.77278 0.50040
 H2833 H 0.43044 0.82141 0.47359
 H2834 H 0.42193 0.75368 0.46566
 H2835 H 0.45208 0.76881 0.45256
 H2836 H 0.38882 0.75570 0.48198
 H2837 H 0.40017 0.82288 0.49345
 H2838 H 0.36863 0.82462 0.51190
 H2839 H 0.33697 0.81061 0.52216
 H2840 H 0.35524 0.75843 0.49688
 C2841 C 0.43094 0.28898 0.95710
 C2842 C 0.41204 0.28304 0.96398
 C2843 C 0.39851 0.29603 0.97214
 C2844 C 0.40369 0.31474 0.97257
 C2845 C 0.42204 0.32061 0.96486
 C2846 C 0.43604 0.30785 0.95725
 C2847 C 0.37978 0.29023 0.97930
 C2848 C 0.37387 0.27175 0.97737
 C2849 C 0.38697 0.25882 0.96846
 C2850 C 0.40623 0.26444 0.96233
 C2851 C 0.38031 0.24063 0.96535
 C2852 C 0.36064 0.23552 0.97037
 C2853 C 0.34759 0.24832 0.97932
 C2854 C 0.35465 0.26621 0.98345
 H2855 H 0.44153 0.27900 0.95132
 H2856 H 0.39334 0.32489 0.97847
 H2857 H 0.42524 0.33524 0.96476
 H2858 H 0.36950 0.30022 0.98569
 H2859 H 0.41639 0.25450 0.95568
 H2860 H 0.39008 0.23052 0.95846
 H2861 H 0.35560 0.22158 0.96716
 H2862 H 0.34490 0.27610 0.99067
 C2863 C 0.82402 0.43750 0.37925
 C2864 C 0.81267 0.44530 0.36439
 C2865 C 0.79266 0.43931 0.36136
 C2866 C 0.78430 0.42576 0.37330
 C2867 C 0.79535 0.41868 0.38856
 C2868 C 0.81523 0.42469 0.39201
 C2869 C 0.78118 0.44716 0.34669
 C2870 C 0.78915 0.46149 0.33551
 C2871 C 0.80895 0.46791 0.33894
 C2872 C 0.82075 0.45949 0.35302
 C2873 C 0.81655 0.48278 0.32835
 C2874 C 0.80479 0.49103 0.31428
 C2875 C 0.78542 0.48423 0.31011
 C2876 C 0.77763 0.46950 0.32092
 H2877 H 0.83941 0.44196 0.38146
 H2878 H 0.76900 0.42099 0.37118
 H2879 H 0.78803 0.40879 0.39797
 H2880 H 0.76594 0.44234 0.34423
 H2881 H 0.83600 0.46430 0.35548
 H2882 H 0.83165 0.48795 0.33082
 H2883 H 0.81129 0.50222 0.30600
 H2884 H 0.76274 0.46413 0.31780
 C2885 C 0.82892 0.92889 0.88769
 C2886 C 0.82178 0.93962 0.87242
 C2887 C 0.83078 0.93816 0.85362
 C2888 C 0.84660 0.92579 0.85042
 C2889 C 0.85398 0.91555 0.86588
 C2890 C 0.84535 0.91721 0.88460
 C2891 C 0.82406 0.94932 0.83848
 C2892 C 0.80850 0.96194 0.84194
 C2893 C 0.79942 0.96323 0.86072
 C2894 C 0.80613 0.95209 0.87582
 C2895 C 0.78352 0.97547 0.86402
 C2896 C 0.77624 0.98595 0.84874
 C2897 C 0.78510 0.98478 0.83006
 C2898 C 0.80149 0.97297 0.82682
 H2899 H 0.82239 0.93020 0.90224
 H2900 H 0.85358 0.92440 0.83612
 H2901 H 0.86672 0.90662 0.86341
 H2902 H 0.83098 0.94822 0.82406
 H2903 H 0.79922 0.95316 0.89023
 H2904 H 0.77635 0.97656 0.87829
 H2905 H 0.76338 0.99470 0.85139
 H2906 H 0.80799 0.97158 0.81225
 C2907 C 0.31973 0.80697 0.35614
 C2908 C 0.31076 0.80169 0.37385
 C2909 C 0.28959 0.80128 0.37572
 C2910 C 0.27777 0.80564 0.35965
 C2911 C 0.28683 0.81070 0.34201
 C2912 C 0.30785 0.81167 0.34016
 C2913 C 0.28059 0.79665 0.39363
 C2914 C 0.29249 0.79214 0.40962
 C2915 C 0.31365 0.79207 0.40756
 C2916 C 0.32265 0.79699 0.38976
 C2917 C 0.32550 0.78700 0.42335
 C2918 C 0.31649 0.78199 0.44101
 C2919 C 0.29552 0.78232 0.44331
 C2920 C 0.28357 0.78755 0.42761
 H2921 H 0.33594 0.80786 0.35491
 H2922 H 0.26154 0.80528 0.36076
 H2923 H 0.27743 0.81415 0.32981
 H2924 H 0.26436 0.79653 0.39512
 H2925 H 0.33888 0.79714 0.38827
 H2926 H 0.34172 0.78680 0.42201
 H2927 H 0.32596 0.77807 0.45301
 H2928 H 0.26736 0.78763 0.42927
 C2929 C 0.31219 0.29138 0.83500
 C2930 C 0.30488 0.28108 0.85073
 C2931 C 0.28409 0.27717 0.85229
 C2932 C 0.27115 0.28276 0.83755
 C2933 C 0.27862 0.29277 0.82179
 C2934 C 0.29907 0.29756 0.82060
 C2935 C 0.27648 0.26821 0.86879
 C2936 C 0.28942 0.26304 0.88372
 C2937 C 0.31034 0.26603 0.88169
 C2938 C 0.31795 0.27509 0.86521
 C2939 C 0.32324 0.26036 0.89647
 C2940 C 0.31539 0.25253 0.91348
 C2941 C 0.29455 0.25050 0.91601
 C2942 C 0.28167 0.25543 0.90093
 H2943 H 0.32796 0.29515 0.83430
 H2944 H 0.25522 0.27971 0.83841
 H2945 H 0.26833 0.29725 0.81072
 H2946 H 0.26047 0.26566 0.87024
 H2947 H 0.33393 0.27784 0.86388
 H2948 H 0.33932 0.26240 0.89509
 H2949 H 0.32552 0.24887 0.92504
 H2950 H 0.26558 0.25371 0.90281
 C2951 C 0.45208 0.29856 0.91702
 C2952 C 0.46081 0.29110 0.89990
 C2953 C 0.48193 0.29119 0.89761
 C2954 C 0.49395 0.29810 0.91281
 C2955 C 0.48515 0.30511 0.92998
 C2956 C 0.46415 0.30564 0.93223
 C2957 C 0.49067 0.28458 0.88011
 C2958 C 0.47856 0.27760 0.86498
 C2959 C 0.45748 0.27681 0.86761
 C2960 C 0.44874 0.28370 0.88497
 C2961 C 0.44546 0.26930 0.85272
 C2962 C 0.45417 0.26304 0.83518
 C2963 C 0.47502 0.26442 0.83211
 C2964 C 0.48716 0.27159 0.84716
 H2965 H 0.43588 0.29918 0.91835
 H2966 H 0.51017 0.29816 0.91138
 H2967 H 0.49475 0.31039 0.94150
 H2968 H 0.50685 0.28498 0.87822
 H2969 H 0.43254 0.28340 0.88682
 H2970 H 0.42930 0.26848 0.85453
 H2971 H 0.44451 0.25768 0.82374
 H2972 H 0.50328 0.27257 0.84496
 C2973 C 0.93077 0.34009 0.38968
 C2974 C 0.93932 0.32756 0.37631
 C2975 C 0.92739 0.31964 0.36134
 C2976 C 0.90721 0.32467 0.35985
 C2977 C 0.89872 0.33692 0.37348
 C2978 C 0.91027 0.34425 0.38879
 C2979 C 0.93560 0.30629 0.34864
 C2980 C 0.95546 0.30055 0.35096
 C2981 C 0.96734 0.30843 0.36600
 C2982 C 0.95924 0.32198 0.37848
 C2983 C 0.98723 0.30275 0.36817
 C2984 C 0.99556 0.28993 0.35506
 C2985 C 0.98402 0.28236 0.33979
 C2986 C 0.96380 0.28737 0.33815
 H2987 H 0.93955 0.34534 0.40185
 H2988 H 0.89774 0.31834 0.34887
 H2989 H 0.88285 0.33982 0.37291
 H2990 H 0.92645 0.30016 0.33718
 H2991 H 0.96832 0.32799 0.39007
 H2992 H 0.99653 0.30866 0.37961
 H2993 H 1.01126 0.28647 0.35637
 H2994 H 0.95493 0.28196 0.32611
 C2995 C 0.42998 0.39080 0.81498
 C2996 C 0.43694 0.37431 0.80644
 C2997 C 0.42305 0.36115 0.79910
 C2998 C 0.40243 0.36462 0.80074
 C2999 C 0.39560 0.38085 0.80976
 C3000 C 0.40926 0.39416 0.81695
 C3001 C 0.43000 0.34464 0.79054
 C3002 C 0.45064 0.34091 0.78972
 C3003 C 0.46448 0.35392 0.79747
 C3004 C 0.45757 0.37064 0.80549
 C3005 C 0.48502 0.34987 0.79736
 C3006 C 0.49180 0.33301 0.78983
 C3007 C 0.47825 0.32008 0.78184
 C3008 C 0.45767 0.32420 0.78166
 H3009 H 0.44068 0.40097 0.82035
 H3010 H 0.39156 0.35463 0.79536
 H3011 H 0.37959 0.38290 0.81135
 H3012 H 0.41934 0.33458 0.78485
 H3013 H 0.46822 0.38064 0.81134
 H3014 H 0.49582 0.35964 0.80332
 H3015 H 0.50772 0.33012 0.79011
 H3016 H 0.44710 0.31418 0.77577
 C3017 C 0.93494 0.39360 0.33051
 C3018 C 0.94498 0.37954 0.32020
 C3019 C 0.94324 0.37811 0.29963
 C3020 C 0.93149 0.39076 0.28975
 C3021 C 0.92232 0.40522 0.30002
 C3022 C 0.92418 0.40698 0.32047
 C3023 C 0.95374 0.36443 0.28919
 C3024 C 0.96660 0.35261 0.29897
 C3025 C 0.96856 0.35422 0.31951
 C3026 C 0.95740 0.36739 0.33005
 C3027 C 0.98185 0.34276 0.32916
 C3028 C 0.99293 0.32967 0.31862
 C3029 C 0.99069 0.32756 0.29825
 C3030 C 0.97756 0.33922 0.28850
 H3031 H 0.93619 0.39464 0.34629
 H3032 H 0.93000 0.38989 0.27399
 H3033 H 0.91420 0.41535 0.29189
 H3034 H 0.95230 0.36328 0.27342
 H3035 H 0.95886 0.36855 0.34582
 H3036 H 0.98359 0.34383 0.34489
 H3037 H 1.00270 0.32072 0.32660
 H3038 H 0.97559 0.33768 0.27284
 C3039 C 0.29417 0.92123 0.47904
 C3040 C 0.28998 0.90249 0.48200
 C3041 C 0.28350 0.89130 0.46611
 C3042 C 0.28156 0.89890 0.44757
 C3043 C 0.28635 0.91736 0.44463
 C3044 C 0.29268 0.92877 0.46028
 C3045 C 0.27940 0.87260 0.46886
 C3046 C 0.28208 0.86479 0.48721
 C3047 C 0.28886 0.87580 0.50310
 C3048 C 0.29258 0.89467 0.50045
 C3049 C 0.29189 0.86767 0.52130
 C3050 C 0.28813 0.84885 0.52373
 C3051 C 0.28108 0.83790 0.50805
 C3052 C 0.27817 0.84604 0.48981
 H3053 H 0.29909 0.92989 0.49118
 H3054 H 0.27677 0.89045 0.43522
 H3055 H 0.28551 0.92259 0.42995
 H3056 H 0.27435 0.86407 0.45665
 H3057 H 0.29774 0.90317 0.51262
 H3058 H 0.29716 0.87587 0.53363
 H3059 H 0.29046 0.84291 0.53794
 H3060 H 0.27296 0.83774 0.47751
 C3061 C 0.32045 0.38023 0.93113
 C3062 C 0.31095 0.36497 0.93972
 C3063 C 0.28981 0.36449 0.94177
 C3064 C 0.27863 0.37966 0.93593
 C3065 C 0.28823 0.39492 0.92770
 C3066 C 0.30917 0.39520 0.92469
 C3067 C 0.28021 0.34886 0.94951
 C3068 C 0.29153 0.33381 0.95557
 C3069 C 0.31274 0.33465 0.95419
 C3070 C 0.32228 0.35011 0.94614
 C3071 C 0.32411 0.31991 0.96074
 C3072 C 0.31461 0.30440 0.96838
 C3073 C 0.29360 0.30314 0.96944
 C3074 C 0.28205 0.31788 0.96292
 H3075 H 0.33660 0.38029 0.92906
 H3076 H 0.26244 0.37969 0.93766
 H3077 H 0.27921 0.40648 0.92346
 H3078 H 0.26397 0.34840 0.95078
 H3079 H 0.33852 0.35055 0.94481
 H3080 H 0.34036 0.32030 0.95981
 H3081 H 0.32368 0.29303 0.97287
 H3082 H 0.26581 0.31699 0.96370
 C3083 C 0.83158 0.37075 0.30808
 C3084 C 0.82309 0.38676 0.30049
 C3085 C 0.81240 0.39888 0.31312
 C3086 C 0.81114 0.39522 0.33317
 C3087 C 0.81984 0.37942 0.34063
 C3088 C 0.82971 0.36678 0.32815
 C3089 C 0.80297 0.41435 0.30549
 C3090 C 0.80426 0.41802 0.28542
 C3091 C 0.81569 0.40641 0.27289
 C3092 C 0.82492 0.39076 0.28048
 C3093 C 0.81761 0.41066 0.25297
 C3094 C 0.80806 0.42611 0.24548
 C3095 C 0.79606 0.43730 0.25768
 C3096 C 0.79438 0.43321 0.27770
 H3097 H 0.83925 0.36115 0.29833
 H3098 H 0.80323 0.40447 0.34306
 H3099 H 0.81857 0.37686 0.35615
 H3100 H 0.79450 0.42345 0.31514
 H3101 H 0.83340 0.38166 0.27082
 H3102 H 0.82649 0.40203 0.24319
 H3103 H 0.80974 0.42911 0.23008
 H3104 H 0.78560 0.44205 0.28737
   
