data_POSCAR
  _audit_creation_date              2014-09-24
  _audit_creation_method            'ToBaCCo'
  _symmetry_space_group_name_H-M    'P1'
  _symmetry_Int_Tables_number       1
  _symmetry_cell_setting            triclinic
  loop_
  _symmetry_equiv_pos_as_xyz
 x,y,z
_cell_length_a 60.5193
_cell_length_b 60.4911
_cell_length_c 60.4881
_cell_angle_alpha 90.020900
_cell_angle_beta 89.980100
_cell_angle_gamma 89.980400
loop_
  _atom_site_label
  _atom_site_type_symbol
  _atom_site_fract_x
  _atom_site_fract_y
  _atom_site_fract_z
O1 O 0.87589 0.15559 0.81761
 O2 O 0.89981 0.12493 0.81101
 O3 O 0.81809 0.12368 0.84431
 O4 O 0.81007 0.10201 0.87302
 O5 O 0.84486 0.18214 0.87541
 O6 O 0.87566 0.18836 0.89947
 O7 O 0.87611 0.06758 0.90523
 O8 O 0.85018 0.06195 0.87571
 O9 O 0.93248 0.09417 0.87554
 O10 O 0.93940 0.12536 0.85038
 O11 O 0.90601 0.12391 0.93179
 O12 O 0.87447 0.14906 0.93872
 O13 O 0.87643 0.09414 0.93176
 O14 O 0.85103 0.12557 0.93862
 O15 O 0.93251 0.12392 0.90522
 O16 O 0.93910 0.14931 0.87347
 O17 O 0.90603 0.06762 0.87623
 O18 O 0.87942 0.06065 0.85081
 O19 O 0.87590 0.18214 0.84420
 O20 O 0.90013 0.18834 0.87491
 O21 O 0.81834 0.15556 0.87513
 O22 O 0.81323 0.12442 0.90071
 O23 O 0.84451 0.12487 0.81765
 O24 O 0.87646 0.10062 0.81070
 Zr25 Zr 0.87458 0.12558 0.83518
 O26 O 0.89522 0.10491 0.85408
 Zr27 Zr 0.83592 0.12551 0.87407
 O28 O 0.85487 0.10473 0.89464
 Zr29 Zr 0.87474 0.16436 0.87406
 O30 O 0.89538 0.14541 0.89469
 Zr31 Zr 0.87619 0.08532 0.87539
 O32 O 0.85514 0.10394 0.85441
 Zr33 Zr 0.91484 0.12416 0.87528
 O34 O 0.89605 0.14506 0.85443
 Zr35 Zr 0.87604 0.12414 0.91418
 O36 O 0.85520 0.14510 0.89541
 O37 O 0.85412 0.14614 0.85355
 O38 O 0.89682 0.10348 0.89609
 C39 C 0.87642 0.17589 0.82388
 C40 C 0.82425 0.12375 0.82397
 C41 C 0.82456 0.17588 0.87581
 C42 C 0.87641 0.07383 0.92553
 C43 C 0.92636 0.07381 0.87611
 C44 C 0.92630 0.12377 0.92553
 H45 H 0.90416 0.09555 0.84408
 H46 H 0.90451 0.15542 0.90381
 H47 H 0.84465 0.15558 0.84413
 H48 H 0.84496 0.09538 0.90366
 H49 H 0.84026 0.06572 0.86326
 H50 H 0.81560 0.08846 0.88029
 H51 H 0.93636 0.15982 0.88570
 H52 H 0.91182 0.18308 0.86474
 H53 H 0.87039 0.06552 0.83813
 H54 H 0.86353 0.09082 0.81267
 H55 H 0.88635 0.15985 0.93566
 H56 H 0.86561 0.18306 0.91124
 H57 H 0.91170 0.13477 0.81644
 H58 H 0.93594 0.11376 0.83938
 H59 H 0.81770 0.13609 0.91127
 H60 H 0.84040 0.11352 0.93560
 O61 O 0.84429 0.68222 0.37542
 O62 O 0.87489 0.68884 0.39938
 O63 O 0.87631 0.65549 0.31764
 O64 O 0.89799 0.62679 0.30964
 O65 O 0.81786 0.62439 0.34440
 O66 O 0.81162 0.60036 0.37523
 O67 O 0.93234 0.59463 0.37578
 O68 O 0.93798 0.62410 0.34977
 O69 O 0.90565 0.62440 0.43212
 O70 O 0.87443 0.64951 0.43900
 O71 O 0.87602 0.56808 0.40562
 O72 O 0.85093 0.56113 0.37405
 O73 O 0.90581 0.56810 0.37608
 O74 O 0.87445 0.56122 0.35064
 O75 O 0.87596 0.59466 0.43213
 O76 O 0.85053 0.62639 0.43871
 O77 O 0.93225 0.62371 0.40565
 O78 O 0.93922 0.64906 0.37898
 O79 O 0.81778 0.65562 0.37544
 O80 O 0.81158 0.62493 0.39969
 O81 O 0.84447 0.62467 0.31789
 O82 O 0.87561 0.59910 0.31280
 O83 O 0.87505 0.68217 0.34406
 O84 O 0.89921 0.68915 0.37605
 Zr85 Zr 0.87430 0.66466 0.37415
 O86 O 0.89495 0.64577 0.39481
 Zr87 Zr 0.87447 0.62575 0.33549
 O88 O 0.89524 0.60519 0.35446
 Zr89 Zr 0.83558 0.62577 0.37430
 O90 O 0.85451 0.60516 0.39498
 Zr91 Zr 0.91459 0.62446 0.37579
 O92 O 0.89598 0.64543 0.35472
 Zr93 Zr 0.87571 0.62459 0.41445
 O94 O 0.85481 0.64542 0.39562
 Zr95 Zr 0.87582 0.58567 0.37565
 O96 O 0.85488 0.60442 0.35477
 O97 O 0.85381 0.64627 0.35367
 O98 O 0.89642 0.60378 0.39643
 C99 C 0.82400 0.67594 0.37595
 C100 C 0.87621 0.67583 0.32380
 C101 C 0.82415 0.62397 0.32410
 C102 C 0.92611 0.57433 0.37609
 C103 C 0.92597 0.62387 0.42594
 C104 C 0.87612 0.57435 0.42592
 H105 H 0.90428 0.65579 0.40375
 H106 H 0.84451 0.59604 0.40410
 H107 H 0.84437 0.65568 0.34418
 H108 H 0.90460 0.59617 0.34456
 H109 H 0.93421 0.63654 0.33983
 H110 H 0.91153 0.61950 0.31516
 H111 H 0.84005 0.61416 0.43596
 H112 H 0.81681 0.63510 0.41139
 H113 H 0.93435 0.66172 0.36991
 H114 H 0.90904 0.68718 0.36312
 H115 H 0.84013 0.56419 0.38594
 H116 H 0.81693 0.58858 0.36517
 H117 H 0.86501 0.68343 0.41126
 H118 H 0.88599 0.66053 0.43552
 H119 H 0.86396 0.58853 0.31728
 H120 H 0.88651 0.56422 0.34002
 O121 O 0.37526 0.15537 0.31815
 O122 O 0.39926 0.12469 0.31170
 O123 O 0.31746 0.12349 0.34483
 O124 O 0.30941 0.10186 0.37356
 O125 O 0.34417 0.18201 0.37587
 O126 O 0.37489 0.18834 0.39992
 O127 O 0.37535 0.06754 0.40602
 O128 O 0.34948 0.06185 0.37645
 O129 O 0.43179 0.09414 0.37629
 O130 O 0.43875 0.12523 0.35113
 O131 O 0.40522 0.12394 0.43248
 O132 O 0.37366 0.14906 0.43932
 O133 O 0.37563 0.09413 0.43246
 O134 O 0.35022 0.12560 0.43921
 O135 O 0.43175 0.12394 0.40594
 O136 O 0.43837 0.14927 0.37415
 O137 O 0.40533 0.06754 0.37703
 O138 O 0.37876 0.06047 0.35164
 O139 O 0.37523 0.18198 0.34468
 O140 O 0.39945 0.18822 0.37545
 O141 O 0.31765 0.15542 0.37560
 O142 O 0.31248 0.12437 0.40121
 O143 O 0.34393 0.12462 0.31822
 O144 O 0.37590 0.10040 0.31137
 Zr145 Zr 0.37396 0.12539 0.33580
 O146 O 0.39455 0.10478 0.35480
 Zr147 Zr 0.33523 0.12538 0.37462
 O148 O 0.35413 0.10466 0.39530
 Zr149 Zr 0.37404 0.16426 0.37459
 O150 O 0.39463 0.14536 0.39532
 Zr151 Zr 0.37549 0.08522 0.37613
 O152 O 0.35450 0.10378 0.35504
 Zr153 Zr 0.41414 0.12409 0.37598
 O154 O 0.39539 0.14494 0.35504
 Zr155 Zr 0.37528 0.12411 0.41482
 O156 O 0.35448 0.14502 0.39596
 O157 O 0.35346 0.14598 0.35409
 O158 O 0.39609 0.10344 0.39681
 C159 C 0.37578 0.17569 0.32437
 C160 C 0.32366 0.12351 0.32450
 C161 C 0.32387 0.17574 0.37625
 C162 C 0.37561 0.07376 0.42635
 C163 C 0.42561 0.07382 0.37688
 C164 C 0.42552 0.12383 0.42624
 H165 H 0.40351 0.09540 0.34484
 H166 H 0.40374 0.15539 0.40444
 H167 H 0.34400 0.15540 0.34463
 H168 H 0.34421 0.09533 0.40432
 H169 H 0.33959 0.06560 0.36395
 H170 H 0.31490 0.08835 0.38093
 H171 H 0.43561 0.15979 0.38636
 H172 H 0.41112 0.18299 0.36524
 H173 H 0.36983 0.06534 0.33889
 H174 H 0.36298 0.09057 0.31336
 H175 H 0.38552 0.15987 0.43625
 H176 H 0.36488 0.18303 0.41172
 H177 H 0.41109 0.13463 0.31709
 H178 H 0.43526 0.11369 0.34010
 H179 H 0.31696 0.13603 0.41178
 H180 H 0.33962 0.11353 0.43622
 O181 O 0.12422 0.34417 0.31788
 O182 O 0.10028 0.37486 0.31138
 O183 O 0.18209 0.37602 0.34440
 O184 O 0.19025 0.39765 0.37309
 O185 O 0.15528 0.31761 0.37561
 O186 O 0.12455 0.31143 0.39971
 O187 O 0.12437 0.43226 0.40551
 O188 O 0.15025 0.43780 0.37592
 O189 O 0.06787 0.40569 0.37593
 O190 O 0.06082 0.37451 0.35086
 O191 O 0.09443 0.37601 0.43216
 O192 O 0.12592 0.35081 0.43902
 O193 O 0.12408 0.40572 0.43204
 O194 O 0.14943 0.37420 0.43880
 O195 O 0.06787 0.37600 0.40566
 O196 O 0.06115 0.35058 0.37396
 O197 O 0.09438 0.43223 0.37656
 O198 O 0.12096 0.43915 0.35111
 O199 O 0.12421 0.31763 0.34446
 O200 O 0.09999 0.31153 0.37526
 O201 O 0.18186 0.34414 0.37523
 O202 O 0.18711 0.37527 0.40077
 O203 O 0.15560 0.37486 0.31783
 O204 O 0.12366 0.39911 0.31096
 Zr205 Zr 0.12559 0.37419 0.33545
 O206 O 0.10505 0.39491 0.35443
 Zr207 Zr 0.16434 0.37422 0.37422
 O208 O 0.14551 0.39505 0.39486
 Zr209 Zr 0.12546 0.33543 0.37432
 O210 O 0.10492 0.35444 0.39503
 Zr211 Zr 0.12418 0.41449 0.37567
 O212 O 0.14512 0.39581 0.35461
 Zr213 Zr 0.08545 0.37570 0.37568
 O214 O 0.10414 0.35475 0.35476
 Zr215 Zr 0.12434 0.37570 0.41446
 O216 O 0.14508 0.35468 0.39562
 O217 O 0.14606 0.35361 0.35376
 O218 O 0.10356 0.39637 0.39643
 C219 C 0.12367 0.32387 0.32414
 C220 C 0.17587 0.37597 0.32408
 C221 C 0.17559 0.32384 0.37595
 C222 C 0.12413 0.42603 0.42582
 C223 C 0.07409 0.42600 0.37645
 C224 C 0.07412 0.37616 0.42596
 H225 H 0.09611 0.40426 0.34445
 H226 H 0.09580 0.34446 0.40419
 H227 H 0.15549 0.34415 0.34430
 H228 H 0.15546 0.40439 0.40384
 H229 H 0.16013 0.43399 0.36343
 H230 H 0.18478 0.41122 0.38038
 H231 H 0.06390 0.34008 0.38619
 H232 H 0.08832 0.31677 0.36507
 H233 H 0.12994 0.43425 0.33839
 H234 H 0.13660 0.40892 0.31290
 H235 H 0.11402 0.34002 0.43598
 H236 H 0.13459 0.31675 0.41148
 H237 H 0.08843 0.36497 0.31681
 H238 H 0.06432 0.38603 0.33980
 H239 H 0.18264 0.36363 0.41136
 H240 H 0.16005 0.38626 0.43578
 O241 O 0.62441 0.84423 0.31767
 O242 O 0.60047 0.87490 0.31112
 O243 O 0.68220 0.87610 0.34436
 O244 O 0.69019 0.89783 0.37305
 O245 O 0.65538 0.81769 0.37547
 O246 O 0.62461 0.81144 0.39948
 O247 O 0.62419 0.93224 0.40539
 O248 O 0.65013 0.93786 0.37586
 O249 O 0.56781 0.90561 0.37571
 O250 O 0.56084 0.87449 0.35058
 O251 O 0.59427 0.87592 0.43194
 O252 O 0.62584 0.85074 0.43880
 O253 O 0.62386 0.90568 0.43190
 O254 O 0.64925 0.87425 0.43872
 O255 O 0.56777 0.87588 0.40538
 O256 O 0.56124 0.85044 0.37357
 O257 O 0.59428 0.93219 0.37641
 O258 O 0.62088 0.93917 0.35098
 O259 O 0.62438 0.81768 0.34424
 O260 O 0.60011 0.81152 0.37498
 O261 O 0.68192 0.84426 0.37519
 O262 O 0.68708 0.87539 0.40073
 O263 O 0.65578 0.87494 0.31771
 O264 O 0.62382 0.89922 0.31083
 Zr265 Zr 0.62571 0.87424 0.33527
 O266 O 0.60508 0.89490 0.35423
 Zr267 Zr 0.66436 0.87432 0.37413
 O268 O 0.64543 0.89509 0.39476
 Zr269 Zr 0.62553 0.83546 0.37412
 O270 O 0.60490 0.85440 0.39481
 Zr271 Zr 0.62411 0.91450 0.37554
 O272 O 0.64515 0.89589 0.35450
 Zr273 Zr 0.58544 0.87564 0.37542
 O274 O 0.60423 0.85476 0.35452
 Zr275 Zr 0.62424 0.87568 0.41430
 O276 O 0.64507 0.85473 0.39548
 O277 O 0.64616 0.85369 0.35362
 O278 O 0.60348 0.89632 0.39623
 C279 C 0.62388 0.82392 0.32393
 C280 C 0.67604 0.87604 0.32401
 C281 C 0.67568 0.82395 0.37587
 C282 C 0.62388 0.92600 0.42569
 C283 C 0.57400 0.92592 0.37629
 C284 C 0.57398 0.87604 0.42569
 H285 H 0.59613 0.90425 0.34424
 H286 H 0.59578 0.84439 0.40393
 H287 H 0.65563 0.84424 0.34419
 H288 H 0.65534 0.90443 0.40378
 H289 H 0.66004 0.93409 0.36338
 H290 H 0.68470 0.91136 0.38041
 H291 H 0.56391 0.84000 0.38586
 H292 H 0.58845 0.81674 0.36475
 H293 H 0.62990 0.93430 0.33828
 H294 H 0.63677 0.90900 0.31278
 H295 H 0.61391 0.83999 0.43578
 H296 H 0.63460 0.81676 0.41129
 H297 H 0.58860 0.86504 0.31654
 H298 H 0.56439 0.88599 0.33951
 H299 H 0.68256 0.86376 0.41133
 H300 H 0.65988 0.88629 0.43571
 O301 O 0.62464 0.65530 0.18196
 O302 O 0.60067 0.62467 0.18851
 O303 O 0.68243 0.62331 0.15529
 O304 O 0.69042 0.60156 0.12660
 O305 O 0.65573 0.68177 0.12417
 O306 O 0.62497 0.68806 0.10013
 O307 O 0.62438 0.56728 0.09425
 O308 O 0.65031 0.56161 0.12378
 O309 O 0.56803 0.59400 0.12398
 O310 O 0.56112 0.62518 0.14912
 O311 O 0.59456 0.62365 0.06773
 O312 O 0.62616 0.64873 0.06084
 O313 O 0.62410 0.59381 0.06777
 O314 O 0.64954 0.62519 0.06093
 O315 O 0.56805 0.62373 0.09429
 O316 O 0.56148 0.64914 0.12605
 O317 O 0.59447 0.56737 0.12328
 O318 O 0.62107 0.56034 0.14867
 O319 O 0.62468 0.68185 0.15538
 O320 O 0.60047 0.68807 0.12464
 O321 O 0.68223 0.65515 0.12445
 O322 O 0.68735 0.62401 0.09890
 O323 O 0.65598 0.62454 0.18192
 O324 O 0.62402 0.60034 0.18883
 Zr325 Zr 0.62593 0.62529 0.16437
 O326 O 0.60530 0.60465 0.14543
 Zr327 Zr 0.66462 0.62513 0.12551
 O328 O 0.64567 0.60438 0.10489
 Zr329 Zr 0.62584 0.66406 0.12551
 O330 O 0.60520 0.64514 0.10485
 Zr331 Zr 0.62432 0.58502 0.12411
 O332 O 0.64536 0.60360 0.14514
 Zr333 Zr 0.58570 0.62394 0.12424
 O334 O 0.60450 0.64481 0.14511
 Zr335 Zr 0.62452 0.62382 0.08536
 O336 O 0.64537 0.64474 0.10416
 O337 O 0.64643 0.64580 0.14602
 O338 O 0.60371 0.60322 0.10343
 C339 C 0.62414 0.67561 0.17570
 C340 C 0.67625 0.62340 0.17563
 C341 C 0.67602 0.67547 0.12377
 C342 C 0.62409 0.57346 0.07391
 C343 C 0.57419 0.57367 0.12342
 C344 C 0.57427 0.62357 0.07398
 H345 H 0.59634 0.59532 0.15542
 H346 H 0.59609 0.65516 0.09572
 H347 H 0.65590 0.65524 0.15545
 H348 H 0.65558 0.59501 0.09587
 H349 H 0.66023 0.56537 0.13625
 H350 H 0.68492 0.58805 0.11923
 H351 H 0.56424 0.65964 0.11382
 H352 H 0.58878 0.68286 0.13483
 H353 H 0.63007 0.56522 0.16137
 H354 H 0.63694 0.59051 0.18686
 H355 H 0.61428 0.65954 0.06388
 H356 H 0.63500 0.68273 0.08834
 H357 H 0.58882 0.63457 0.18310
 H358 H 0.56460 0.61362 0.16015
 H359 H 0.68285 0.63564 0.08831
 H360 H 0.66015 0.61313 0.06394
 O361 O 0.37552 0.84480 0.68215
 O362 O 0.39951 0.87545 0.68860
 O363 O 0.31767 0.87673 0.65565
 O364 O 0.30958 0.89843 0.62697
 O365 O 0.34434 0.81825 0.62445
 O366 O 0.37504 0.81195 0.60033
 O367 O 0.37549 0.93278 0.59442
 O368 O 0.34965 0.93843 0.62403
 O369 O 0.43197 0.90610 0.62399
 O370 O 0.43897 0.87494 0.64905
 O371 O 0.40531 0.87638 0.56778
 O372 O 0.37373 0.85126 0.56100
 O373 O 0.37570 0.90620 0.56790
 O374 O 0.35030 0.87476 0.56119
 O375 O 0.43189 0.87634 0.59426
 O376 O 0.43855 0.85094 0.62600
 O377 O 0.40551 0.93271 0.62338
 O378 O 0.37896 0.93973 0.64882
 O379 O 0.37545 0.81823 0.65558
 O380 O 0.39962 0.81202 0.62476
 O381 O 0.31782 0.84485 0.62483
 O382 O 0.31261 0.87596 0.59928
 O383 O 0.34418 0.87555 0.68220
 O384 O 0.37616 0.89978 0.68899
 Zr385 Zr 0.37419 0.87480 0.66455
 O386 O 0.39476 0.89543 0.64553
 Zr387 Zr 0.33540 0.87489 0.62581
 O388 O 0.35428 0.89563 0.60513
 Zr389 Zr 0.37421 0.83599 0.62570
 O390 O 0.39478 0.85491 0.60495
 Zr391 Zr 0.37567 0.91504 0.62427
 O392 O 0.35469 0.89645 0.64537
 Zr393 Zr 0.41432 0.87614 0.62427
 O394 O 0.39559 0.85528 0.64522
 Zr395 Zr 0.37540 0.87620 0.58552
 O396 O 0.35462 0.85527 0.60440
 O397 O 0.35366 0.85425 0.64627
 O398 O 0.39624 0.89684 0.60351
 C399 C 0.37602 0.82448 0.67590
 C400 C 0.32390 0.87668 0.67597
 C401 C 0.32404 0.82452 0.62412
 C402 C 0.37570 0.92652 0.57411
 C403 C 0.42579 0.92642 0.62348
 C404 C 0.42563 0.87648 0.57396
 H405 H 0.40373 0.90478 0.65549
 H406 H 0.40387 0.84489 0.59580
 H407 H 0.34422 0.84482 0.65573
 H408 H 0.34434 0.90498 0.59614
 H409 H 0.33977 0.93467 0.63653
 H410 H 0.31505 0.91194 0.61960
 H411 H 0.43578 0.84045 0.61377
 H412 H 0.41131 0.81724 0.63494
 H413 H 0.36998 0.93486 0.66155
 H414 H 0.36322 0.90959 0.68707
 H415 H 0.38562 0.84046 0.56402
 H416 H 0.36500 0.81728 0.58856
 H417 H 0.41134 0.86553 0.68316
 H418 H 0.43548 0.88645 0.66013
 H419 H 0.31707 0.86431 0.58868
 H420 H 0.33968 0.88681 0.56424
 O421 O 0.87564 0.34448 0.68212
 O422 O 0.89959 0.37512 0.68868
 O423 O 0.81783 0.37648 0.65554
 O424 O 0.80976 0.39814 0.62685
 O425 O 0.84455 0.31799 0.62435
 O426 O 0.87530 0.31175 0.60025
 O427 O 0.87576 0.43255 0.59454
 O428 O 0.84986 0.43818 0.62411
 O429 O 0.93218 0.40585 0.62415
 O430 O 0.93911 0.37465 0.64925
 O431 O 0.90562 0.37621 0.56790
 O432 O 0.87408 0.35109 0.56100
 O433 O 0.87604 0.40599 0.56800
 O434 O 0.85063 0.37457 0.56118
 O435 O 0.93215 0.37614 0.59443
 O436 O 0.93878 0.35072 0.62614
 O437 O 0.90572 0.43246 0.62350
 O438 O 0.87913 0.43944 0.64896
 O439 O 0.87562 0.31795 0.65551
 O440 O 0.89982 0.31175 0.62474
 O441 O 0.81803 0.34460 0.62471
 O442 O 0.81289 0.37575 0.59916
 O443 O 0.84428 0.37524 0.68215
 O444 O 0.87625 0.39943 0.68907
 Zr445 Zr 0.87432 0.37450 0.66457
 O446 O 0.89493 0.39516 0.64563
 Zr447 Zr 0.83562 0.37463 0.62575
 O448 O 0.85453 0.39541 0.60515
 Zr449 Zr 0.87442 0.33574 0.62566
 O450 O 0.89504 0.35468 0.60500
 Zr451 Zr 0.87588 0.41479 0.62437
 O452 O 0.85486 0.39617 0.64539
 Zr453 Zr 0.91453 0.37590 0.62439
 O454 O 0.89576 0.35500 0.64527
 Zr455 Zr 0.87568 0.37599 0.58556
 O456 O 0.85486 0.35504 0.60436
 O457 O 0.85383 0.35398 0.64622
 O458 O 0.89648 0.39661 0.60363
 C459 C 0.87617 0.32418 0.67583
 C460 C 0.82402 0.37640 0.67587
 C461 C 0.82425 0.32428 0.62399
 C462 C 0.87602 0.42631 0.57424
 C463 C 0.92600 0.42617 0.62361
 C464 C 0.92592 0.37632 0.57413
 H465 H 0.90389 0.40450 0.65562
 H466 H 0.90415 0.34467 0.59586
 H467 H 0.84437 0.34453 0.65566
 H468 H 0.84461 0.40477 0.59615
 H469 H 0.83996 0.43440 0.63659
 H470 H 0.81528 0.41170 0.61959
 H471 H 0.93602 0.34023 0.61390
 H472 H 0.91151 0.31697 0.63491
 H473 H 0.87012 0.43457 0.66166
 H474 H 0.86333 0.40926 0.68712
 H475 H 0.88596 0.34028 0.56404
 H476 H 0.86526 0.31707 0.58849
 H477 H 0.91145 0.36523 0.68324
 H478 H 0.93565 0.38622 0.66028
 H479 H 0.81735 0.36408 0.58858
 H480 H 0.84002 0.38664 0.56421
 O481 O 0.81800 0.87520 0.15533
 O482 O 0.81147 0.89918 0.12464
 O483 O 0.84465 0.81736 0.12337
 O484 O 0.87331 0.80932 0.10164
 O485 O 0.87579 0.84417 0.18179
 O486 O 0.89980 0.87495 0.18804
 O487 O 0.90567 0.87533 0.06724
 O488 O 0.87611 0.84937 0.06163
 O489 O 0.87591 0.93176 0.09390
 O490 O 0.85086 0.93874 0.12507
 O491 O 0.93218 0.90523 0.12352
 O492 O 0.93907 0.87368 0.14869
 O493 O 0.93213 0.87562 0.09378
 O494 O 0.93895 0.85023 0.12522
 O495 O 0.90564 0.93176 0.12358
 O496 O 0.87391 0.93837 0.14905
 O497 O 0.87663 0.90527 0.06731
 O498 O 0.85129 0.87865 0.06029
 O499 O 0.84458 0.87521 0.18186
 O500 O 0.87531 0.89948 0.18800
 O501 O 0.87548 0.81762 0.15521
 O502 O 0.90100 0.81243 0.12407
 O503 O 0.81803 0.84382 0.12458
 O504 O 0.81109 0.87577 0.10037
 Zr505 Zr 0.83557 0.87389 0.12529
 O506 O 0.85451 0.89449 0.10461
 Zr507 Zr 0.87441 0.83518 0.12516
 O508 O 0.89502 0.85409 0.10438
 Zr509 Zr 0.87443 0.87404 0.16404
 O510 O 0.89509 0.89465 0.14508
 Zr511 Zr 0.87581 0.87543 0.08499
 O512 O 0.85478 0.85442 0.10362
 Zr513 Zr 0.87570 0.91412 0.12386
 O514 O 0.85483 0.89536 0.14477
 Zr515 Zr 0.91455 0.87527 0.12379
 O516 O 0.89576 0.85446 0.14475
 O517 O 0.85392 0.85341 0.14582
 O518 O 0.89649 0.89606 0.10316
 C519 C 0.82427 0.87574 0.17564
 C520 C 0.82432 0.82355 0.12346
 C521 C 0.87618 0.82386 0.17552
 C522 C 0.92600 0.87561 0.07342
 C523 C 0.87646 0.92556 0.07359
 C524 C 0.92594 0.92554 0.12339
 H525 H 0.84452 0.90343 0.09527
 H526 H 0.90422 0.90377 0.15508
 H527 H 0.84450 0.84395 0.15527
 H528 H 0.90403 0.84416 0.09503
 H529 H 0.86363 0.83948 0.06540
 H530 H 0.88066 0.81480 0.08812
 H531 H 0.88619 0.93567 0.15950
 H532 H 0.86510 0.91115 0.18278
 H533 H 0.83855 0.86973 0.06522
 H534 H 0.81309 0.86285 0.09053
 H535 H 0.93605 0.88561 0.15947
 H536 H 0.91160 0.86494 0.18270
 H537 H 0.81685 0.91102 0.13458
 H538 H 0.83978 0.93519 0.11359
 H539 H 0.91159 0.81693 0.13570
 H540 H 0.93595 0.83960 0.11316
 O541 O 0.37548 0.34403 0.18212
 O542 O 0.39945 0.37470 0.18863
 O543 O 0.31769 0.37594 0.15544
 O544 O 0.30961 0.39753 0.12671
 O545 O 0.34451 0.31743 0.12436
 O546 O 0.37528 0.31119 0.10029
 O547 O 0.37557 0.43202 0.09441
 O548 O 0.34964 0.43762 0.12397
 O549 O 0.43201 0.40541 0.12411
 O550 O 0.43895 0.37425 0.14926
 O551 O 0.40555 0.37568 0.06787
 O552 O 0.37407 0.35053 0.06095
 O553 O 0.37590 0.40544 0.06789
 O554 O 0.35054 0.37394 0.06112
 O555 O 0.43205 0.37566 0.09443
 O556 O 0.43869 0.35030 0.12615
 O557 O 0.40552 0.43199 0.12340
 O558 O 0.37890 0.43897 0.14882
 O559 O 0.37553 0.31745 0.15555
 O560 O 0.39980 0.31128 0.12479
 O561 O 0.31796 0.34400 0.12466
 O562 O 0.31279 0.37510 0.09905
 O563 O 0.34413 0.37477 0.18207
 O564 O 0.37606 0.39897 0.18900
 Zr565 Zr 0.37418 0.37402 0.16452
 O566 O 0.39476 0.39470 0.14557
 Zr567 Zr 0.33550 0.37406 0.12566
 O568 O 0.35440 0.39485 0.10505
 Zr569 Zr 0.37435 0.33522 0.12567
 O570 O 0.39495 0.35417 0.10499
 Zr571 Zr 0.37570 0.41428 0.12426
 O572 O 0.35470 0.39565 0.14529
 Zr573 Zr 0.41440 0.37543 0.12437
 O574 O 0.39565 0.35453 0.14526
 Zr575 Zr 0.37559 0.37544 0.08550
 O576 O 0.35479 0.35447 0.10431
 O577 O 0.35373 0.35346 0.14618
 O578 O 0.39635 0.39610 0.10357
 C579 C 0.37603 0.32371 0.17587
 C580 C 0.32387 0.37589 0.17578
 C581 C 0.32420 0.32368 0.12398
 C582 C 0.37585 0.42577 0.07411
 C583 C 0.42581 0.42572 0.12354
 C584 C 0.42584 0.37581 0.07413
 H585 H 0.40370 0.40406 0.15556
 H586 H 0.40408 0.34417 0.09586
 H587 H 0.34427 0.34402 0.15562
 H588 H 0.34446 0.40418 0.09604
 H589 H 0.33974 0.43384 0.13645
 H590 H 0.31511 0.41109 0.11944
 H591 H 0.43593 0.33976 0.11396
 H592 H 0.41145 0.31651 0.13501
 H593 H 0.36991 0.43409 0.16153
 H594 H 0.36315 0.40881 0.18702
 H595 H 0.38592 0.33971 0.06404
 H596 H 0.36526 0.31650 0.08850
 H597 H 0.41129 0.36477 0.18323
 H598 H 0.43547 0.38583 0.16027
 H599 H 0.31727 0.36342 0.08850
 H600 H 0.33993 0.38601 0.06411
 O601 O 0.37564 0.65599 0.81797
 O602 O 0.39964 0.62535 0.81143
 O603 O 0.31783 0.62402 0.84452
 O604 O 0.30974 0.60235 0.87321
 O605 O 0.34450 0.68249 0.87573
 O606 O 0.37523 0.68870 0.89985
 O607 O 0.37570 0.56787 0.90554
 O608 O 0.34984 0.56229 0.87596
 O609 O 0.43216 0.59455 0.87592
 O610 O 0.43909 0.62579 0.85085
 O611 O 0.40555 0.62419 0.93221
 O612 O 0.37401 0.64931 0.93912
 O613 O 0.37594 0.59441 0.93210
 O614 O 0.35054 0.62588 0.93890
 O615 O 0.43210 0.62426 0.90568
 O616 O 0.43876 0.64968 0.87401
 O617 O 0.40570 0.56796 0.87656
 O618 O 0.37912 0.56101 0.85111
 O619 O 0.37559 0.68253 0.84457
 O620 O 0.39978 0.68868 0.87537
 O621 O 0.31799 0.65590 0.87536
 O622 O 0.31283 0.62475 0.90091
 O623 O 0.34431 0.62525 0.81793
 O624 O 0.37629 0.60105 0.81102
 Zr625 Zr 0.37433 0.62597 0.83552
 O626 O 0.39492 0.60528 0.85446
 Zr627 Zr 0.33558 0.62585 0.87433
 O628 O 0.35449 0.60505 0.89493
 Zr629 Zr 0.37438 0.66472 0.87443
 O630 O 0.39498 0.64575 0.89510
 Zr631 Zr 0.37586 0.58565 0.87572
 O632 O 0.35486 0.60430 0.85469
 Zr633 Zr 0.41450 0.62453 0.87571
 O634 O 0.39574 0.64545 0.85484
 Zr635 Zr 0.37562 0.62444 0.91453
 O636 O 0.35482 0.64542 0.89573
 O637 O 0.35382 0.64650 0.85387
 O638 O 0.39644 0.60381 0.89647
 C639 C 0.37614 0.67630 0.82425
 C640 C 0.32404 0.62410 0.82419
 C641 C 0.32420 0.67622 0.87608
 C642 C 0.37593 0.57410 0.92585
 C643 C 0.42599 0.57423 0.87644
 C644 C 0.42586 0.62408 0.92598
 H645 H 0.40389 0.59595 0.84447
 H646 H 0.40408 0.65574 0.90425
 H647 H 0.34436 0.65595 0.84443
 H648 H 0.34455 0.59569 0.90392
 H649 H 0.33994 0.56608 0.86349
 H650 H 0.31524 0.58879 0.88049
 H651 H 0.43596 0.66019 0.88622
 H652 H 0.41148 0.68346 0.86518
 H653 H 0.37012 0.56589 0.83842
 H654 H 0.36337 0.59122 0.81296
 H655 H 0.38587 0.66014 0.93606
 H656 H 0.36518 0.68337 0.91162
 H657 H 0.41147 0.63526 0.81686
 H658 H 0.43565 0.61422 0.83981
 H659 H 0.31728 0.63642 0.91149
 H660 H 0.33993 0.61382 0.93586
 O661 O 0.12437 0.65604 0.68214
 O662 O 0.10046 0.62535 0.68866
 O663 O 0.18226 0.62421 0.65552
 O664 O 0.19039 0.60258 0.62679
 O665 O 0.15541 0.68266 0.62442
 O666 O 0.12466 0.68884 0.60033
 O667 O 0.12450 0.56804 0.59443
 O668 O 0.15039 0.56246 0.62398
 O669 O 0.06800 0.59458 0.62410
 O670 O 0.06097 0.62575 0.64924
 O671 O 0.09449 0.62431 0.56787
 O672 O 0.12598 0.64952 0.56101
 O673 O 0.12418 0.59460 0.56792
 O674 O 0.14949 0.62610 0.56114
 O675 O 0.06796 0.62430 0.59441
 O676 O 0.06126 0.64970 0.62614
 O677 O 0.09452 0.56803 0.62341
 O678 O 0.12112 0.56110 0.64885
 O679 O 0.12433 0.68260 0.65559
 O680 O 0.10012 0.68875 0.62482
 O681 O 0.18199 0.65612 0.62473
 O682 O 0.18723 0.62501 0.59913
 O683 O 0.15578 0.62536 0.68213
 O684 O 0.12386 0.60109 0.68900
 Zr685 Zr 0.12575 0.62604 0.66454
 O686 O 0.10520 0.60535 0.64558
 Zr687 Zr 0.16448 0.62603 0.62572
 O688 O 0.14563 0.60523 0.60509
 Zr689 Zr 0.12558 0.66483 0.62570
 O690 O 0.10502 0.64585 0.60501
 Zr691 Zr 0.12432 0.58578 0.62429
 O692 O 0.14528 0.60443 0.64533
 Zr693 Zr 0.08557 0.62458 0.62437
 O694 O 0.10428 0.64551 0.64528
 Zr695 Zr 0.12443 0.62460 0.58553
 O696 O 0.14519 0.64559 0.60436
 O697 O 0.14620 0.64663 0.64623
 O698 O 0.10368 0.60392 0.60358
 C699 C 0.12380 0.67636 0.67590
 C700 C 0.17605 0.62425 0.67585
 C701 C 0.17572 0.67642 0.62405
 C702 C 0.12424 0.57428 0.57413
 C703 C 0.07423 0.57428 0.62354
 C704 C 0.07419 0.62414 0.57411
 H705 H 0.09627 0.59598 0.65556
 H706 H 0.09589 0.65584 0.59588
 H707 H 0.15564 0.65608 0.65568
 H708 H 0.15558 0.59590 0.59608
 H709 H 0.16028 0.56625 0.63646
 H710 H 0.18492 0.58903 0.61949
 H711 H 0.06400 0.66020 0.61392
 H712 H 0.08844 0.68350 0.63500
 H713 H 0.13012 0.56598 0.66154
 H714 H 0.13681 0.59129 0.68705
 H715 H 0.11406 0.66029 0.56406
 H716 H 0.13471 0.68354 0.58854
 H717 H 0.08860 0.63523 0.68324
 H718 H 0.06446 0.61419 0.66026
 H719 H 0.18274 0.63667 0.58857
 H720 H 0.16015 0.61407 0.56417
 O721 O 0.12426 0.15538 0.18207
 O722 O 0.10027 0.12474 0.18851
 O723 O 0.18216 0.12343 0.15563
 O724 O 0.19033 0.10176 0.12694
 O725 O 0.15553 0.18191 0.12442
 O726 O 0.12487 0.18816 0.10025
 O727 O 0.12443 0.06738 0.09436
 O728 O 0.15025 0.06172 0.12397
 O729 O 0.06793 0.09403 0.12386
 O730 O 0.06088 0.12522 0.14894
 O731 O 0.09469 0.12371 0.06770
 O732 O 0.12626 0.14882 0.06093
 O733 O 0.12426 0.09391 0.06787
 O734 O 0.14970 0.12534 0.06116
 O735 O 0.06806 0.12375 0.09414
 O736 O 0.06132 0.14917 0.12586
 O737 O 0.09440 0.06743 0.12328
 O738 O 0.12092 0.06044 0.14876
 O739 O 0.12436 0.18193 0.15550
 O740 O 0.10026 0.18813 0.12466
 O741 O 0.18206 0.15531 0.12482
 O742 O 0.18731 0.12418 0.09926
 O743 O 0.15560 0.12463 0.18215
 O744 O 0.12360 0.10042 0.18892
 Zr745 Zr 0.12563 0.12537 0.16447
 O746 O 0.10509 0.10472 0.14544
 Zr747 Zr 0.16448 0.12527 0.12577
 O748 O 0.14565 0.10450 0.10509
 Zr749 Zr 0.12566 0.16416 0.12563
 O750 O 0.10513 0.14522 0.10487
 Zr751 Zr 0.12423 0.08511 0.12421
 O752 O 0.14517 0.10372 0.14533
 Zr753 Zr 0.08557 0.12399 0.12417
 O754 O 0.10426 0.14488 0.14513
 Zr755 Zr 0.12456 0.12392 0.08546
 O756 O 0.14530 0.14487 0.10435
 O757 O 0.14618 0.14591 0.14622
 O758 O 0.10370 0.10329 0.10343
 C759 C 0.12376 0.17569 0.17581
 C760 C 0.17589 0.12349 0.17594
 C761 C 0.17584 0.17564 0.12410
 C762 C 0.12424 0.07355 0.07402
 C763 C 0.07412 0.07371 0.12335
 C764 C 0.07437 0.12360 0.07386
 H765 H 0.09611 0.09538 0.15540
 H766 H 0.09606 0.15523 0.09570
 H767 H 0.15561 0.15535 0.15569
 H768 H 0.15560 0.09514 0.09611
 H769 H 0.16012 0.06549 0.13646
 H770 H 0.18486 0.08822 0.11960
 H771 H 0.06411 0.15966 0.11364
 H772 H 0.08854 0.18290 0.13481
 H773 H 0.12991 0.06530 0.16148
 H774 H 0.13655 0.09060 0.18701
 H775 H 0.11438 0.15964 0.06395
 H776 H 0.13494 0.18284 0.08850
 H777 H 0.08844 0.13464 0.18306
 H778 H 0.06433 0.11369 0.16000
 H779 H 0.18287 0.13583 0.08866
 H780 H 0.16029 0.11326 0.06419
 O781 O 0.68234 0.37577 0.84453
 O782 O 0.68889 0.39968 0.87524
 O783 O 0.65581 0.31786 0.87637
 O784 O 0.62715 0.30980 0.89811
 O785 O 0.62463 0.34469 0.81800
 O786 O 0.60053 0.37546 0.81184
 O787 O 0.59474 0.37575 0.93261
 O788 O 0.62430 0.34983 0.93819
 O789 O 0.62439 0.43224 0.90605
 O790 O 0.64944 0.43924 0.87486
 O791 O 0.56815 0.40570 0.87634
 O792 O 0.56135 0.37413 0.85110
 O793 O 0.56824 0.37604 0.90604
 O794 O 0.56142 0.35072 0.87462
 O795 O 0.59465 0.43225 0.87635
 O796 O 0.62638 0.43890 0.85090
 O797 O 0.62374 0.40573 0.93260
 O798 O 0.64913 0.37910 0.93953
 O799 O 0.65575 0.37579 0.81801
 O800 O 0.62501 0.39998 0.81186
 O801 O 0.62498 0.31812 0.84454
 O802 O 0.59946 0.31289 0.87568
 O803 O 0.68239 0.34434 0.87520
 O804 O 0.68925 0.37627 0.89950
 Zr805 Zr 0.66479 0.37439 0.87456
 O806 O 0.64584 0.39498 0.89526
 Zr807 Zr 0.62602 0.33566 0.87462
 O808 O 0.60540 0.35456 0.89542
 Zr809 Zr 0.62592 0.37455 0.83581
 O810 O 0.60526 0.39515 0.85479
 Zr811 Zr 0.62458 0.37590 0.91486
 O812 O 0.64562 0.35489 0.89620
 Zr813 Zr 0.62462 0.41462 0.87605
 O814 O 0.64550 0.39587 0.85512
 Zr815 Zr 0.58582 0.37575 0.87605
 O816 O 0.60463 0.35494 0.85507
 O817 O 0.64647 0.35393 0.85399
 O818 O 0.60385 0.39653 0.89672
 C819 C 0.67606 0.37633 0.82423
 C820 C 0.67613 0.32405 0.87629
 C821 C 0.62428 0.32437 0.82423
 C822 C 0.57445 0.37601 0.92635
 C823 C 0.62387 0.42603 0.92636
 C824 C 0.57436 0.42602 0.87651
 H825 H 0.65582 0.40393 0.90462
 H826 H 0.59612 0.40428 0.84480
 H827 H 0.65591 0.34448 0.84452
 H828 H 0.59640 0.34462 0.90476
 H829 H 0.63677 0.33993 0.93440
 H830 H 0.61979 0.31527 0.91164
 H831 H 0.61411 0.43620 0.84045
 H832 H 0.63514 0.41169 0.81713
 H833 H 0.66184 0.37013 0.93462
 H834 H 0.68731 0.36332 0.90929
 H835 H 0.56431 0.38612 0.84039
 H836 H 0.58878 0.36538 0.81713
 H837 H 0.68346 0.41155 0.86537
 H838 H 0.66050 0.43573 0.88637
 H839 H 0.58887 0.31739 0.86406
 H840 H 0.56451 0.34002 0.88658
 O841 O 0.12423 0.84470 0.81816
 O842 O 0.10029 0.87537 0.81169
 O843 O 0.18206 0.87653 0.84484
 O844 O 0.19009 0.89817 0.87360
 O845 O 0.15528 0.81802 0.87585
 O846 O 0.12451 0.81179 0.89995
 O847 O 0.12413 0.93257 0.90601
 O848 O 0.15004 0.93822 0.87648
 O849 O 0.06769 0.90604 0.87627
 O850 O 0.06075 0.87488 0.85109
 O851 O 0.09417 0.87618 0.93248
 O852 O 0.12573 0.85102 0.93929
 O853 O 0.12382 0.90596 0.93248
 O854 O 0.14915 0.87450 0.93924
 O855 O 0.06766 0.87622 0.90593
 O856 O 0.06105 0.85091 0.87414
 O857 O 0.09417 0.93260 0.87699
 O858 O 0.12079 0.93959 0.85161
 O859 O 0.12421 0.81810 0.84469
 O860 O 0.10001 0.81186 0.87543
 O861 O 0.18182 0.84459 0.87559
 O862 O 0.18697 0.87567 0.90123
 O863 O 0.15560 0.87540 0.81823
 O864 O 0.12365 0.89967 0.81139
 Zr865 Zr 0.12555 0.87467 0.83581
 O866 O 0.10495 0.89532 0.85480
 Zr867 Zr 0.16425 0.87466 0.87464
 O868 O 0.14532 0.89541 0.89530
 Zr869 Zr 0.12542 0.83582 0.87460
 O870 O 0.10479 0.85475 0.89530
 Zr871 Zr 0.12400 0.91488 0.87613
 O872 O 0.14502 0.89627 0.85506
 Zr873 Zr 0.08532 0.87604 0.87598
 O874 O 0.10409 0.85516 0.85505
 Zr875 Zr 0.12414 0.87599 0.91483
 O876 O 0.14497 0.85506 0.89597
 O877 O 0.14602 0.85408 0.85410
 O878 O 0.10336 0.89669 0.89681
 C879 C 0.12368 0.82437 0.82438
 C880 C 0.17587 0.87650 0.82450
 C881 C 0.17559 0.82427 0.87623
 C882 C 0.12387 0.92629 0.92630
 C883 C 0.07388 0.92635 0.87684
 C884 C 0.07387 0.87631 0.92625
 H885 H 0.09601 0.90469 0.84483
 H886 H 0.09567 0.84473 0.90441
 H887 H 0.15548 0.84464 0.84464
 H888 H 0.15525 0.90473 0.90433
 H889 H 0.15995 0.93445 0.86401
 H890 H 0.18460 0.91168 0.88098
 H891 H 0.06381 0.84036 0.88632
 H892 H 0.08831 0.81713 0.86528
 H893 H 0.12982 0.93473 0.83891
 H894 H 0.13659 0.90947 0.81337
 H895 H 0.11384 0.84023 0.93622
 H896 H 0.13458 0.81707 0.91172
 H897 H 0.08843 0.86549 0.81709
 H898 H 0.06423 0.88646 0.84009
 H899 H 0.18248 0.86400 0.91179
 H900 H 0.15983 0.88650 0.93620
 O901 O 0.68218 0.12459 0.65563
 O902 O 0.68867 0.10064 0.62492
 O903 O 0.65558 0.18248 0.62379
 O904 O 0.62689 0.19058 0.60215
 O905 O 0.62450 0.15571 0.68226
 O906 O 0.60041 0.12496 0.68849
 O907 O 0.59445 0.12459 0.56771
 O908 O 0.62399 0.15051 0.56206
 O909 O 0.62416 0.06812 0.59426
 O910 O 0.64923 0.06112 0.62541
 O911 O 0.56794 0.09473 0.62402
 O912 O 0.56113 0.12627 0.64926
 O913 O 0.56798 0.12436 0.59432
 O914 O 0.56124 0.14974 0.62579
 O915 O 0.59444 0.06816 0.62397
 O916 O 0.62617 0.06148 0.64939
 O917 O 0.62346 0.09461 0.56769
 O918 O 0.64884 0.12123 0.56069
 O919 O 0.65563 0.12460 0.68221
 O920 O 0.62488 0.10041 0.68841
 O921 O 0.62481 0.18227 0.65570
 O922 O 0.59923 0.18748 0.62461
 O923 O 0.68217 0.15599 0.62492
 O924 O 0.68902 0.12403 0.60065
 Zr925 Zr 0.66458 0.12595 0.62563
 O926 O 0.64560 0.10537 0.60497
 Zr927 Zr 0.62580 0.16471 0.62563
 O928 O 0.60516 0.14582 0.60486
 Zr929 Zr 0.62577 0.12584 0.66446
 O930 O 0.60507 0.10525 0.64552
 Zr931 Zr 0.62431 0.12446 0.58540
 O932 O 0.64537 0.14545 0.60402
 Zr933 Zr 0.62441 0.08576 0.62424
 O934 O 0.64532 0.10450 0.64513
 Zr935 Zr 0.58561 0.12466 0.62429
 O936 O 0.60445 0.14545 0.64523
 O937 O 0.64629 0.14644 0.64622
 O938 O 0.60362 0.10385 0.60360
 C939 C 0.67593 0.12405 0.67595
 C940 C 0.67590 0.17627 0.62383
 C941 C 0.62414 0.17602 0.67602
 C942 C 0.57416 0.12436 0.57400
 C943 C 0.62361 0.07432 0.57395
 C944 C 0.57415 0.07441 0.62384
 H945 H 0.65558 0.09641 0.59560
 H946 H 0.59594 0.09613 0.65553
 H947 H 0.65574 0.15589 0.65567
 H948 H 0.59615 0.15576 0.59554
 H949 H 0.63647 0.16041 0.56583
 H950 H 0.61955 0.18510 0.58861
 H951 H 0.61392 0.06421 0.65987
 H952 H 0.63502 0.08870 0.68314
 H953 H 0.66155 0.13021 0.56557
 H954 H 0.68705 0.13697 0.59085
 H955 H 0.56414 0.11433 0.66000
 H956 H 0.58864 0.13503 0.68321
 H957 H 0.68327 0.08879 0.63483
 H958 H 0.66028 0.06463 0.61389
 H959 H 0.58867 0.18301 0.63628
 H960 H 0.56427 0.16038 0.61376
 C961 C 0.37768 0.77427 0.72621
 C962 C 0.37745 0.76830 0.70386
 C963 C 0.37704 0.78460 0.68748
 C964 C 0.37683 0.80716 0.69324
 C965 C 0.37713 0.81297 0.71579
 C966 C 0.37755 0.79663 0.73213
 C967 C 0.37782 0.75747 0.74305
 C968 C 0.37784 0.74339 0.75716
 C969 C 0.37772 0.72658 0.77399
 C970 C 0.37760 0.70422 0.76805
 C971 C 0.37721 0.68786 0.78436
 C972 C 0.37692 0.69365 0.80692
 C973 C 0.37712 0.71621 0.81271
 C974 C 0.37751 0.73253 0.79635
 H975 H 0.37753 0.75103 0.69909
 H976 H 0.37679 0.77950 0.67032
 H977 H 0.37696 0.83014 0.72086
 H978 H 0.37770 0.80144 0.74939
 H979 H 0.37774 0.69943 0.75078
 H980 H 0.37705 0.67070 0.77928
 H981 H 0.37689 0.72128 0.82988
 H982 H 0.37758 0.74979 0.80114
 C983 C 0.37743 0.22585 0.27401
 C984 C 0.37728 0.20348 0.26811
 C985 C 0.37685 0.18716 0.28446
 C986 C 0.37657 0.19299 0.30701
 C987 C 0.37680 0.21556 0.31275
 C988 C 0.37722 0.23185 0.29635
 C989 C 0.37760 0.24263 0.25715
 C990 C 0.37763 0.25670 0.24302
 C991 C 0.37753 0.27349 0.22618
 C992 C 0.37739 0.26752 0.20383
 C993 C 0.37702 0.28382 0.18745
 C994 C 0.37679 0.30638 0.19321
 C995 C 0.37702 0.31219 0.21577
 C996 C 0.37738 0.29585 0.23210
 H997 H 0.37741 0.19866 0.25085
 H998 H 0.37667 0.16998 0.27941
 H999 H 0.37657 0.22068 0.32990
 H1000 H 0.37732 0.24912 0.30110
 H1001 H 0.37748 0.25025 0.19906
 H1002 H 0.37683 0.27872 0.17029
 H1003 H 0.37682 0.32936 0.22083
 H1004 H 0.37747 0.30066 0.24936
 C1005 C 0.62237 0.77365 0.27367
 C1006 C 0.62253 0.79599 0.26772
 C1007 C 0.62290 0.81236 0.28404
 C1008 C 0.62312 0.80658 0.30660
 C1009 C 0.62287 0.78403 0.31238
 C1010 C 0.62251 0.76771 0.29602
 C1011 C 0.62228 0.75682 0.25685
 C1012 C 0.62231 0.74273 0.24276
 C1013 C 0.62248 0.72590 0.22594
 C1014 C 0.62268 0.73184 0.20359
 C1015 C 0.62311 0.71551 0.18723
 C1016 C 0.62335 0.69296 0.19303
 C1017 C 0.62307 0.68718 0.21558
 C1018 C 0.62265 0.70355 0.23190
 H1019 H 0.62245 0.80077 0.25046
 H1020 H 0.62310 0.82952 0.27896
 H1021 H 0.62305 0.77896 0.32955
 H1022 H 0.62240 0.75045 0.30081
 H1023 H 0.62258 0.74909 0.19880
 H1024 H 0.62333 0.72058 0.17007
 H1025 H 0.62327 0.67002 0.22066
 H1026 H 0.62251 0.69878 0.24916
 C1027 C 0.12198 0.27361 0.27388
 C1028 C 0.12214 0.29596 0.26794
 C1029 C 0.12257 0.31232 0.28426
 C1030 C 0.12284 0.30653 0.30681
 C1031 C 0.12259 0.28398 0.31259
 C1032 C 0.12217 0.26766 0.29622
 C1033 C 0.12185 0.25680 0.25705
 C1034 C 0.12186 0.24272 0.24294
 C1035 C 0.12201 0.22592 0.22610
 C1036 C 0.12227 0.23188 0.20376
 C1037 C 0.12271 0.21557 0.18738
 C1038 C 0.12292 0.19302 0.19315
 C1039 C 0.12257 0.18722 0.21570
 C1040 C 0.12213 0.20357 0.23203
 H1041 H 0.12202 0.30074 0.25068
 H1042 H 0.12277 0.32948 0.27919
 H1043 H 0.12282 0.27890 0.32976
 H1044 H 0.12207 0.25040 0.30100
 H1045 H 0.12220 0.24915 0.19899
 H1046 H 0.12298 0.22066 0.17022
 H1047 H 0.12274 0.17005 0.22077
 H1048 H 0.12195 0.19877 0.24929
 C1049 C 0.12208 0.72657 0.72620
 C1050 C 0.12227 0.73254 0.70386
 C1051 C 0.12270 0.71623 0.68748
 C1052 C 0.12297 0.69368 0.69324
 C1053 C 0.12270 0.68787 0.71579
 C1054 C 0.12227 0.70422 0.73212
 C1055 C 0.12193 0.74337 0.74304
 C1056 C 0.12192 0.75743 0.75716
 C1057 C 0.12205 0.77422 0.77402
 C1058 C 0.12222 0.79658 0.76812
 C1059 C 0.12263 0.81290 0.78448
 C1060 C 0.12289 0.80707 0.80702
 C1061 C 0.12263 0.78451 0.81276
 C1062 C 0.12222 0.76822 0.79636
 H1063 H 0.12215 0.74981 0.69909
 H1064 H 0.12292 0.72132 0.67032
 H1065 H 0.12292 0.67071 0.72085
 H1066 H 0.12215 0.69942 0.74938
 H1067 H 0.12211 0.80139 0.75087
 H1068 H 0.12283 0.83008 0.77944
 H1069 H 0.12284 0.77940 0.82991
 H1070 H 0.12212 0.75095 0.80110
 C1071 C 0.87798 0.22615 0.77368
 C1072 C 0.87782 0.20381 0.76771
 C1073 C 0.87743 0.18745 0.78401
 C1074 C 0.87720 0.19323 0.80657
 C1075 C 0.87745 0.21578 0.81238
 C1076 C 0.87783 0.23210 0.79603
 C1077 C 0.87808 0.24297 0.75688
 C1078 C 0.87805 0.25707 0.74280
 C1079 C 0.87788 0.27390 0.72601
 C1080 C 0.87768 0.26796 0.70365
 C1081 C 0.87723 0.28429 0.68731
 C1082 C 0.87698 0.30683 0.69313
 C1083 C 0.87726 0.31261 0.71569
 C1084 C 0.87771 0.29623 0.73199
 H1085 H 0.87791 0.19904 0.75044
 H1086 H 0.87723 0.17028 0.77892
 H1087 H 0.87726 0.22085 0.82955
 H1088 H 0.87794 0.24936 0.80083
 H1089 H 0.87779 0.25070 0.69885
 H1090 H 0.87701 0.27922 0.67014
 H1091 H 0.87706 0.32977 0.72079
 H1092 H 0.87784 0.30100 0.74926
 C1093 C 0.77379 0.37809 0.72609
 C1094 C 0.79611 0.37741 0.73205
 C1095 C 0.81246 0.37698 0.71574
 C1096 C 0.80669 0.37721 0.69318
 C1097 C 0.78417 0.37797 0.68738
 C1098 C 0.76785 0.37840 0.70374
 C1099 C 0.75699 0.37823 0.74291
 C1100 C 0.74293 0.37822 0.75702
 C1101 C 0.72616 0.37807 0.77388
 C1102 C 0.73216 0.37786 0.79621
 C1103 C 0.71589 0.37742 0.81261
 C1104 C 0.69334 0.37717 0.80687
 C1105 C 0.68750 0.37746 0.78433
 C1106 C 0.70382 0.37791 0.76797
 H1107 H 0.80087 0.37714 0.74931
 H1108 H 0.82961 0.37639 0.72082
 H1109 H 0.77911 0.37814 0.67021
 H1110 H 0.75061 0.37890 0.69896
 H1111 H 0.74943 0.37796 0.80095
 H1112 H 0.72100 0.37718 0.82976
 H1113 H 0.67034 0.37726 0.77929
 H1114 H 0.69900 0.37804 0.75072
 C1115 C 0.27387 0.62251 0.77391
 C1116 C 0.29620 0.62315 0.76797
 C1117 C 0.31253 0.62355 0.78431
 C1118 C 0.30673 0.62332 0.80686
 C1119 C 0.28419 0.62259 0.81263
 C1120 C 0.26790 0.62219 0.79625
 C1121 C 0.25708 0.62240 0.75707
 C1122 C 0.24303 0.62242 0.74295
 C1123 C 0.22624 0.62258 0.72612
 C1124 C 0.23220 0.62232 0.70377
 C1125 C 0.21590 0.62275 0.68740
 C1126 C 0.19337 0.62346 0.69318
 C1127 C 0.18757 0.62363 0.71573
 C1128 C 0.20391 0.62320 0.73206
 H1129 H 0.30099 0.62342 0.75072
 H1130 H 0.32968 0.62413 0.77924
 H1131 H 0.27911 0.62241 0.82980
 H1132 H 0.25065 0.62172 0.80102
 H1133 H 0.24945 0.62186 0.69899
 H1134 H 0.22098 0.62262 0.67023
 H1135 H 0.17042 0.62419 0.72081
 H1136 H 0.19912 0.62343 0.74932
 C1137 C 0.27349 0.12180 0.27422
 C1138 C 0.29582 0.12240 0.26828
 C1139 C 0.31215 0.12283 0.28461
 C1140 C 0.30635 0.12268 0.30717
 C1141 C 0.28381 0.12198 0.31294
 C1142 C 0.26752 0.12155 0.29656
 C1143 C 0.25671 0.12166 0.25737
 C1144 C 0.24268 0.12166 0.24323
 C1145 C 0.22593 0.12180 0.22635
 C1146 C 0.23196 0.12150 0.20402
 C1147 C 0.21571 0.12193 0.18760
 C1148 C 0.19316 0.12268 0.19332
 C1149 C 0.18730 0.12289 0.21586
 C1150 C 0.20359 0.12246 0.23223
 H1151 H 0.30062 0.12262 0.25102
 H1152 H 0.32930 0.12338 0.27954
 H1153 H 0.27873 0.12187 0.33011
 H1154 H 0.25027 0.12111 0.30133
 H1155 H 0.24922 0.12102 0.19930
 H1156 H 0.22084 0.12177 0.17045
 H1157 H 0.17013 0.12348 0.22088
 H1158 H 0.19875 0.12272 0.24948
 C1159 C 0.77391 0.12219 0.77385
 C1160 C 0.79622 0.12282 0.76784
 C1161 C 0.81261 0.12321 0.78411
 C1162 C 0.80689 0.12297 0.80669
 C1163 C 0.78437 0.12225 0.81254
 C1164 C 0.76802 0.12186 0.79622
 C1165 C 0.75706 0.12209 0.75707
 C1166 C 0.74296 0.12212 0.74300
 C1167 C 0.72615 0.12230 0.72618
 C1168 C 0.73210 0.12249 0.70383
 C1169 C 0.71579 0.12294 0.68748
 C1170 C 0.69325 0.12322 0.69327
 C1171 C 0.68746 0.12294 0.71583
 C1172 C 0.70382 0.12249 0.73214
 H1173 H 0.80095 0.12310 0.75056
 H1174 H 0.82974 0.12378 0.77899
 H1175 H 0.77934 0.12207 0.82972
 H1176 H 0.75078 0.12139 0.80105
 H1177 H 0.74936 0.12236 0.69905
 H1178 H 0.72087 0.12316 0.67031
 H1179 H 0.67031 0.12316 0.72091
 H1180 H 0.69903 0.12237 0.74941
 C1181 C 0.72639 0.87751 0.27381
 C1182 C 0.73228 0.87783 0.29617
 C1183 C 0.71594 0.87747 0.31252
 C1184 C 0.69341 0.87678 0.30670
 C1185 C 0.68768 0.87655 0.28413
 C1186 C 0.70406 0.87691 0.26783
 C1187 C 0.74323 0.87759 0.25699
 C1188 C 0.75731 0.87756 0.24288
 C1189 C 0.77410 0.87739 0.22602
 C1190 C 0.79646 0.87722 0.23192
 C1191 C 0.81278 0.87680 0.21556
 C1192 C 0.80697 0.87652 0.19301
 C1193 C 0.78441 0.87677 0.18728
 C1194 C 0.76812 0.87719 0.20368
 H1195 H 0.74952 0.87827 0.30098
 H1196 H 0.72097 0.87764 0.32969
 H1197 H 0.67054 0.87600 0.27903
 H1198 H 0.69932 0.87664 0.25057
 H1199 H 0.80127 0.87735 0.24917
 H1200 H 0.82995 0.87660 0.22060
 H1201 H 0.77931 0.87655 0.17012
 H1202 H 0.75086 0.87729 0.19893
 C1203 C 0.77370 0.72610 0.37753
 C1204 C 0.79602 0.73209 0.37735
 C1205 C 0.81240 0.71580 0.37695
 C1206 C 0.80665 0.69324 0.37672
 C1207 C 0.78412 0.68741 0.37698
 C1208 C 0.76778 0.70375 0.37738
 C1209 C 0.75686 0.74289 0.37766
 C1210 C 0.74276 0.75696 0.37765
 C1211 C 0.72594 0.77375 0.37751
 C1212 C 0.73187 0.79610 0.37720
 C1213 C 0.71555 0.81245 0.37678
 C1214 C 0.69301 0.80664 0.37666
 C1215 C 0.68724 0.78409 0.37705
 C1216 C 0.70361 0.76778 0.37747
 H1217 H 0.80077 0.74936 0.37745
 H1218 H 0.82955 0.72090 0.37674
 H1219 H 0.77908 0.67024 0.37679
 H1220 H 0.75054 0.69894 0.37749
 H1221 H 0.74912 0.80089 0.37721
 H1222 H 0.72060 0.82961 0.37648
 H1223 H 0.67009 0.77900 0.37695
 H1224 H 0.69885 0.75052 0.37768
 C1225 C 0.77391 0.27415 0.62235
 C1226 C 0.76801 0.29651 0.62270
 C1227 C 0.78436 0.31283 0.62312
 C1228 C 0.80689 0.30699 0.62321
 C1229 C 0.81263 0.28442 0.62279
 C1230 C 0.79624 0.26815 0.62237
 C1231 C 0.75706 0.25738 0.62219
 C1232 C 0.74295 0.24331 0.62216
 C1233 C 0.72613 0.22651 0.62227
 C1234 C 0.70379 0.23246 0.62198
 C1235 C 0.68743 0.21615 0.62236
 C1236 C 0.69322 0.19360 0.62305
 C1237 C 0.71576 0.18781 0.62325
 C1238 C 0.73208 0.20417 0.62286
 H1239 H 0.75077 0.30134 0.62271
 H1240 H 0.77932 0.33001 0.62345
 H1241 H 0.82978 0.27930 0.62287
 H1242 H 0.80098 0.25087 0.62213
 H1243 H 0.69901 0.24972 0.62154
 H1244 H 0.67027 0.22122 0.62222
 H1245 H 0.72084 0.17066 0.62379
 H1246 H 0.74933 0.19938 0.62311
 C1247 C 0.72639 0.72558 0.12208
 C1248 C 0.70407 0.73159 0.12213
 C1249 C 0.68767 0.71532 0.12257
 C1250 C 0.69339 0.69276 0.12297
 C1251 C 0.71592 0.68690 0.12284
 C1252 C 0.73228 0.70321 0.12241
 C1253 C 0.74324 0.74235 0.12190
 C1254 C 0.75735 0.75642 0.12186
 C1255 C 0.77415 0.77324 0.12195
 C1256 C 0.76818 0.79558 0.12257
 C1257 C 0.78447 0.81195 0.12294
 C1258 C 0.80702 0.80619 0.12270
 C1259 C 0.81284 0.78365 0.12198
 C1260 C 0.79650 0.76732 0.12162
 H1261 H 0.69933 0.74887 0.12190
 H1262 H 0.67052 0.72045 0.12267
 H1263 H 0.72095 0.66973 0.12316
 H1264 H 0.74952 0.69838 0.12239
 H1265 H 0.75092 0.80034 0.12285
 H1266 H 0.77937 0.82910 0.12350
 H1267 H 0.83000 0.77860 0.12180
 H1268 H 0.80130 0.75007 0.12116
 C1269 C 0.27393 0.27347 0.12253
 C1270 C 0.26800 0.29582 0.12280
 C1271 C 0.28432 0.31217 0.12316
 C1272 C 0.30686 0.30636 0.12325
 C1273 C 0.31263 0.28380 0.12289
 C1274 C 0.29626 0.26750 0.12254
 C1275 C 0.25710 0.25667 0.12243
 C1276 C 0.24299 0.24260 0.12245
 C1277 C 0.22615 0.22581 0.12260
 C1278 C 0.20382 0.23179 0.12257
 C1279 C 0.18744 0.21550 0.12296
 C1280 C 0.19319 0.19294 0.12338
 C1281 C 0.21573 0.18712 0.12334
 C1282 C 0.23206 0.20345 0.12295
 H1283 H 0.25075 0.30063 0.12282
 H1284 H 0.27926 0.32934 0.12345
 H1285 H 0.32979 0.27871 0.12297
 H1286 H 0.30104 0.25023 0.12234
 H1287 H 0.19906 0.24906 0.12232
 H1288 H 0.17029 0.22061 0.12300
 H1289 H 0.22078 0.16995 0.12368
 H1290 H 0.24931 0.19864 0.12300
 C1291 C 0.27381 0.72640 0.87759
 C1292 C 0.29614 0.73239 0.87760
 C1293 C 0.31254 0.71610 0.87722
 C1294 C 0.30682 0.69353 0.87682
 C1295 C 0.28429 0.68771 0.87689
 C1296 C 0.26793 0.70403 0.87727
 C1297 C 0.25693 0.74319 0.87773
 C1298 C 0.24280 0.75725 0.87774
 C1299 C 0.22594 0.77406 0.87764
 C1300 C 0.23183 0.79642 0.87739
 C1301 C 0.21549 0.81276 0.87705
 C1302 C 0.19295 0.80695 0.87694
 C1303 C 0.18721 0.78438 0.87726
 C1304 C 0.20360 0.76808 0.87761
 H1305 H 0.30088 0.74966 0.87784
 H1306 H 0.32969 0.72121 0.87716
 H1307 H 0.27925 0.67053 0.87656
 H1308 H 0.25069 0.69921 0.87724
 H1309 H 0.24908 0.80123 0.87740
 H1310 H 0.22054 0.82993 0.87678
 H1311 H 0.17006 0.77928 0.87717
 H1312 H 0.19885 0.75082 0.87778
 C1313 C 0.27356 0.22591 0.37770
 C1314 C 0.29589 0.23190 0.37769
 C1315 C 0.31227 0.21560 0.37733
 C1316 C 0.30652 0.19305 0.37698
 C1317 C 0.28399 0.18722 0.37707
 C1318 C 0.26765 0.20356 0.37743
 C1319 C 0.25673 0.24270 0.37778
 C1320 C 0.24263 0.25678 0.37775
 C1321 C 0.22581 0.27359 0.37757
 C1322 C 0.23176 0.29593 0.37722
 C1323 C 0.21545 0.31229 0.37680
 C1324 C 0.19291 0.30650 0.37671
 C1325 C 0.18712 0.28396 0.37714
 C1326 C 0.20348 0.26764 0.37756
 H1327 H 0.30064 0.24917 0.37787
 H1328 H 0.32942 0.22071 0.37725
 H1329 H 0.27895 0.17005 0.37679
 H1330 H 0.25041 0.19875 0.37741
 H1331 H 0.24902 0.30071 0.37721
 H1332 H 0.22053 0.32945 0.37646
 H1333 H 0.16996 0.27889 0.37707
 H1334 H 0.19870 0.25038 0.37781
 C1335 C 0.52394 0.62274 1.02382
 C1336 C 0.54627 0.62278 1.01782
 C1337 C 0.56266 0.62302 1.03411
 C1338 C 0.55691 0.62325 1.05667
 C1339 C 0.53438 0.62312 1.06251
 C1340 C 0.51804 0.62288 1.04618
 C1341 C 0.50709 0.62270 1.00704
 C1342 C 0.49297 0.62276 0.99299
 C1343 C 0.47613 0.62293 0.97619
 C1344 C 0.48205 0.62308 0.95384
 C1345 C 0.46573 0.62344 0.93750
 C1346 C 0.44319 0.62367 0.94331
 C1347 C 0.43742 0.62344 0.96587
 C1348 C 0.45380 0.62309 0.98217
 H1349 H 0.55102 0.62267 1.00055
 H1350 H 0.57981 0.62306 1.02899
 H1351 H 0.52934 0.62324 1.07969
 H1352 H 0.50079 0.62284 1.05101
 H1353 H 0.49930 0.62296 0.94903
 H1354 H 0.47079 0.62355 0.92033
 H1355 H 0.42027 0.62356 0.97097
 H1356 H 0.44903 0.62297 0.99944
 C1357 C 0.47585 0.12308 0.47641
 C1358 C 0.48175 0.12314 0.45405
 C1359 C 0.46540 0.12335 0.43772
 C1360 C 0.44287 0.12352 0.44356
 C1361 C 0.43713 0.12338 0.46613
 C1362 C 0.45352 0.12316 0.48241
 C1363 C 0.49271 0.12306 0.49318
 C1364 C 0.50685 0.12313 0.50720
 C1365 C 0.52374 0.12331 0.52395
 C1366 C 0.54605 0.12345 0.51790
 C1367 C 0.56247 0.12379 0.53414
 C1368 C 0.55678 0.12401 0.55672
 C1369 C 0.53426 0.12381 0.56261
 C1370 C 0.51788 0.12347 0.54632
 H1371 H 0.49899 0.12306 0.44922
 H1372 H 0.47045 0.12341 0.42054
 H1373 H 0.41998 0.12346 0.47124
 H1374 H 0.44877 0.12311 0.49968
 H1375 H 0.55076 0.12332 0.50061
 H1376 H 0.57961 0.12388 0.52900
 H1377 H 0.52925 0.12392 0.57980
 H1378 H 0.50065 0.12336 0.55118
 C1379 C 0.52363 0.87713 0.47590
 C1380 C 0.54596 0.87697 0.48188
 C1381 C 0.56235 0.87664 0.46558
 C1382 C 0.55661 0.87643 0.44301
 C1383 C 0.53408 0.87666 0.43720
 C1384 C 0.51773 0.87700 0.45354
 C1385 C 0.50678 0.87729 0.49270
 C1386 C 0.49267 0.87734 0.50679
 C1387 C 0.47585 0.87730 0.52362
 C1388 C 0.48180 0.87722 0.54597
 C1389 C 0.46549 0.87698 0.56235
 C1390 C 0.44294 0.87680 0.55659
 C1391 C 0.43715 0.87696 0.53404
 C1392 C 0.45350 0.87720 0.51770
 H1393 H 0.55071 0.87708 0.49915
 H1394 H 0.57950 0.87652 0.47068
 H1395 H 0.52903 0.87656 0.42002
 H1396 H 0.50049 0.87712 0.44873
 H1397 H 0.49905 0.87730 0.55074
 H1398 H 0.47058 0.87691 0.57951
 H1399 H 0.41999 0.87687 0.52898
 H1400 H 0.44871 0.87726 0.50044
 C1401 C 1.02391 0.37729 0.47623
 C1402 C 1.04625 0.37712 0.48218
 C1403 C 1.06260 0.37678 0.46585
 C1404 C 1.05681 0.37659 0.44330
 C1405 C 1.03427 0.37684 0.43752
 C1406 C 1.01796 0.37718 0.45388
 C1407 C 1.00710 0.37742 0.49304
 C1408 C 0.99300 0.37743 0.50711
 C1409 C 0.97618 0.37733 0.52391
 C1410 C 0.98211 0.37720 0.54626
 C1411 C 0.96578 0.37690 0.56261
 C1412 C 0.94325 0.37670 0.55680
 C1413 C 0.93748 0.37691 0.53425
 C1414 C 0.95385 0.37721 0.51794
 H1415 H 1.05103 0.37720 0.49944
 H1416 H 1.07976 0.37664 0.47092
 H1417 H 1.02919 0.37675 0.42035
 H1418 H 1.00071 0.37731 0.44910
 H1419 H 0.99936 0.37730 0.55106
 H1420 H 0.97084 0.37679 0.57978
 H1421 H 0.92032 0.37681 0.52916
 H1422 H 0.94908 0.37731 0.50068
 C1423 C -0.02441 0.87670 1.02405
 C1424 C -0.01854 0.87667 1.04640
 C1425 C -0.03488 0.87631 1.06274
 C1426 C -0.05749 0.87596 1.05697
 C1427 C -0.06314 0.87606 1.03432
 C1428 C -0.04672 0.87641 1.01805
 C1429 C -0.00753 0.87690 1.00727
 C1430 C 0.00662 0.87700 0.99322
 C1431 C 0.02349 0.87701 0.97643
 C1432 C 0.04582 0.87689 0.98243
 C1433 C 0.06223 0.87670 0.96614
 C1434 C 0.05650 0.87661 0.94357
 C1435 C 0.03397 0.87681 0.93774
 C1436 C 0.01761 0.87700 0.95407
 H1437 H -0.00130 0.87689 1.05122
 H1438 H -0.02970 0.87630 1.07987
 H1439 H -0.08024 0.87585 1.02905
 H1440 H -0.05145 0.87644 1.00077
 H1441 H 0.05056 0.87690 0.99970
 H1442 H 0.07937 0.87659 0.97125
 H1443 H 0.02894 0.87679 0.92056
 H1444 H 0.00037 0.87710 0.94924
 C1445 C -0.02341 0.12272 -0.02428
 C1446 C -0.01749 0.12280 -0.04664
 C1447 C -0.03382 0.12313 -0.06298
 C1448 C -0.05635 0.12339 -0.05716
 C1449 C -0.06211 0.12322 -0.03459
 C1450 C -0.04574 0.12290 -0.01830
 C1451 C -0.00658 0.12258 -0.00748
 C1452 C 0.00750 0.12256 0.00661
 C1453 C 0.02428 0.12265 0.02346
 C1454 C 0.04664 0.12273 0.01757
 C1455 C 0.06295 0.12301 0.03393
 C1456 C 0.05710 0.12324 0.05647
 C1457 C 0.03454 0.12308 0.06220
 C1458 C 0.01827 0.12279 0.04580
 H1459 H -0.00024 0.12266 -0.05145
 H1460 H -0.02876 0.12319 -0.08015
 H1461 H -0.07926 0.12336 -0.02949
 H1462 H -0.05050 0.12283 -0.00103
 H1463 H 0.05146 0.12261 0.00031
 H1464 H 0.08012 0.12308 0.02890
 H1465 H 0.02941 0.12320 0.07935
 H1466 H 0.00101 0.12273 0.05054
 C1467 C 0.12330 1.02412 1.02450
 C1468 C 0.12338 1.04646 1.01858
 C1469 C 0.12368 1.06283 1.03490
 C1470 C 0.12393 1.05709 1.05753
 C1471 C 0.12380 1.03445 1.06322
 C1472 C 0.12349 1.01816 1.04683
 C1473 C 0.12315 1.00732 1.00766
 C1474 C 0.12309 0.99324 0.99354
 C1475 C 0.12313 0.97645 0.97669
 C1476 C 0.12319 0.98245 0.95435
 C1477 C 0.12341 0.96616 0.93795
 C1478 C 0.12358 0.94359 0.94368
 C1479 C 0.12344 0.93776 0.96623
 C1480 C 0.12322 0.95409 0.98259
 H1481 H 0.12322 1.05125 1.00132
 H1482 H 0.12372 1.07996 1.02969
 H1483 H 0.12393 1.02921 1.08034
 H1484 H 0.12343 1.00089 1.05158
 H1485 H 0.12311 0.99972 0.94961
 H1486 H 0.12346 0.97127 0.92079
 H1487 H 0.12352 0.92058 0.97126
 H1488 H 0.12316 0.94927 0.99984
 C1489 C 0.12335 0.47630 0.47609
 C1490 C 0.12343 0.48225 0.45374
 C1491 C 0.12367 0.46592 0.43737
 C1492 C 0.12385 0.44337 0.44316
 C1493 C 0.12369 0.43759 0.46571
 C1494 C 0.12345 0.45396 0.48203
 C1495 C 0.12327 0.49313 0.49291
 C1496 C 0.12328 0.50722 0.50700
 C1497 C 0.12339 0.52404 0.52383
 C1498 C 0.12350 0.54639 0.51790
 C1499 C 0.12376 0.56275 0.53423
 C1500 C 0.12394 0.55695 0.55678
 C1501 C 0.12377 0.53440 0.56255
 C1502 C 0.12350 0.51808 0.54618
 H1503 H 0.12334 0.49951 0.44895
 H1504 H 0.12373 0.47099 0.42021
 H1505 H 0.12378 0.42042 0.47079
 H1506 H 0.12338 0.44918 0.49930
 H1507 H 0.12341 0.55118 0.50064
 H1508 H 0.12385 0.57992 0.52917
 H1509 H 0.12384 0.52931 0.57971
 H1510 H 0.12341 0.50082 0.55095
 C1511 C 0.37673 0.47602 1.02382
 C1512 C 0.37662 0.45366 1.01787
 C1513 C 0.37635 0.43730 1.03420
 C1514 C 0.37616 0.44310 1.05676
 C1515 C 0.37634 0.46566 1.06254
 C1516 C 0.37661 0.48197 1.04617
 C1517 C 0.37683 0.49284 1.00699
 C1518 C 0.37684 0.50695 0.99290
 C1519 C 0.37676 0.52379 0.97609
 C1520 C 0.37670 0.51786 0.95373
 C1521 C 0.37644 0.53419 0.93738
 C1522 C 0.37623 0.55674 0.94319
 C1523 C 0.37636 0.56251 0.96575
 C1524 C 0.37661 0.54613 0.98206
 H1525 H 0.37671 0.44887 1.00061
 H1526 H 0.37626 0.42013 1.02913
 H1527 H 0.37626 0.47074 1.07970
 H1528 H 0.37671 0.49923 1.05095
 H1529 H 0.37681 0.50060 0.94893
 H1530 H 0.37640 0.52912 0.92021
 H1531 H 0.37625 0.57967 0.97084
 H1532 H 0.37667 0.55091 0.99932
 C1533 C 0.87708 0.52418 0.47623
 C1534 C 0.87699 0.51819 0.45389
 C1535 C 0.87671 0.53448 0.43751
 C1536 C 0.87649 0.55704 0.44328
 C1537 C 0.87665 0.56287 0.46582
 C1538 C 0.87693 0.54654 0.48216
 C1539 C 0.87716 0.50740 0.49306
 C1540 C 0.87714 0.49332 0.50716
 C1541 C 0.87701 0.47652 0.52398
 C1542 C 0.87686 0.45418 0.51803
 C1543 C 0.87655 0.43783 0.53435
 C1544 C 0.87637 0.44363 0.55690
 C1545 C 0.87660 0.46618 0.56269
 C1546 C 0.87691 0.48249 0.54633
 H1547 H 0.87711 0.50092 0.44913
 H1548 H 0.87664 0.52938 0.42035
 H1549 H 0.87653 0.58005 0.47088
 H1550 H 0.87700 0.55135 0.49942
 H1551 H 0.87694 0.44938 0.50077
 H1552 H 0.87643 0.42066 0.52928
 H1553 H 0.87653 0.47127 0.57986
 H1554 H 0.87703 0.49976 0.55111
 C1555 C 0.87757 1.02362 -0.02422
 C1556 C 0.87746 1.01765 -0.04656
 C1557 C 0.87709 1.03395 -0.06293
 C1558 C 0.87681 1.05651 -0.05714
 C1559 C 0.87700 1.06232 -0.03459
 C1560 C 0.87737 1.04597 -0.01827
 C1561 C 0.87775 1.00682 -0.00741
 C1562 C 0.87779 0.99272 0.00667
 C1563 C 0.87770 0.97589 0.02346
 C1564 C 0.87806 0.95356 0.01747
 C1565 C 0.87771 0.93717 0.03375
 C1566 C 0.87697 0.94293 0.05630
 C1567 C 0.87672 0.96547 0.06213
 C1568 C 0.87707 0.98181 0.04581
 H1569 H 0.87762 1.00039 -0.05134
 H1570 H 0.87701 1.02887 -0.08009
 H1571 H 0.87685 1.07948 -0.02952
 H1572 H 0.87746 1.05076 -0.00101
 H1573 H 0.87856 0.94880 0.00020
 H1574 H 0.87798 0.92001 0.02864
 H1575 H 0.87620 0.97052 0.07930
 H1576 H 0.87679 0.99907 0.05062
 C1577 C 0.62267 -0.02377 0.47601
 C1578 C 0.62284 -0.01781 0.45366
 C1579 C 0.62323 -0.03412 0.43728
 C1580 C 0.62347 -0.05667 0.44305
 C1581 C 0.62323 -0.06248 0.46560
 C1582 C 0.62285 -0.04612 0.48193
 C1583 C 0.62247 -0.00696 0.49284
 C1584 C 0.62240 0.00714 0.50694
 C1585 C 0.62244 0.02398 0.52375
 C1586 C 0.62210 0.04631 0.51778
 C1587 C 0.62242 0.06270 0.53408
 C1588 C 0.62311 0.05695 0.55663
 C1589 C 0.62333 0.03440 0.56244
 C1590 C 0.62301 0.01806 0.54610
 H1591 H 0.62270 -0.00054 0.44889
 H1592 H 0.62334 -0.02903 0.42012
 H1593 H 0.62336 -0.07965 0.47066
 H1594 H 0.62272 -0.05092 0.49919
 H1595 H 0.62165 0.05107 0.50052
 H1596 H 0.62218 0.07986 0.52899
 H1597 H 0.62381 0.02935 0.57961
 H1598 H 0.62328 0.00080 0.55089
 C1599 C 0.47594 1.02370 0.37823
 C1600 C 0.48184 1.04604 0.37758
 C1601 C 0.46550 1.06237 0.37720
 C1602 C 0.44297 1.05654 0.37744
 C1603 C 0.43723 1.03399 0.37822
 C1604 C 0.45362 1.01771 0.37859
 C1605 C 0.49277 1.00691 0.37830
 C1606 C 0.50687 0.99284 0.37822
 C1607 C 0.52369 0.97606 0.37797
 C1608 C 0.54602 0.98204 0.37822
 C1609 C 0.56239 0.96575 0.37771
 C1610 C 0.55664 0.94321 0.37691
 C1611 C 0.53411 0.93738 0.37676
 C1612 C 0.51778 0.95371 0.37727
 H1613 H 0.49909 1.05085 0.37729
 H1614 H 0.47053 1.07954 0.37666
 H1615 H 0.42008 1.02889 0.37848
 H1616 H 0.44887 1.00044 0.37910
 H1617 H 0.55077 0.99930 0.37876
 H1618 H 0.57954 0.97085 0.37790
 H1619 H 0.52907 0.92022 0.37621
 H1620 H 0.50053 0.94891 0.37707
 C1621 C -0.02388 -0.02418 0.12214
 C1622 C -0.04622 -0.01824 0.12236
 C1623 C -0.06256 -0.03457 0.12275
 C1624 C -0.05675 -0.05712 0.12295
 C1625 C -0.03420 -0.06290 0.12265
 C1626 C -0.01791 -0.04653 0.12226
 C1627 C -0.00708 -0.00735 0.12196
 C1628 C 0.00699 0.00674 0.12192
 C1629 C 0.02381 0.02354 0.12201
 C1630 C 0.01789 0.04589 0.12260
 C1631 C 0.03422 0.06223 0.12298
 C1632 C 0.05676 0.05641 0.12279
 C1633 C 0.06252 0.03386 0.12208
 C1634 C 0.04614 0.01757 0.12171
 H1635 H -0.05102 -0.00098 0.12227
 H1636 H -0.07972 -0.02950 0.12292
 H1637 H -0.02911 -0.08006 0.12274
 H1638 H -0.00065 -0.05130 0.12209
 H1639 H 0.00064 0.05070 0.12284
 H1640 H 0.02917 0.07940 0.12347
 H1641 H 0.07967 0.02876 0.12186
 H1642 H 0.05091 0.00031 0.12124
 C1643 C 0.52384 0.52356 0.12202
 C1644 C 0.51794 0.54592 0.12269
 C1645 C 0.53429 0.56224 0.12310
 C1646 C 0.55682 0.55639 0.12287
 C1647 C 0.56255 0.53384 0.12209
 C1648 C 0.54616 0.51756 0.12168
 C1649 C 0.50700 0.50678 0.12189
 C1650 C 0.49291 0.49271 0.12190
 C1651 C 0.47609 0.47590 0.12207
 C1652 C 0.45375 0.48187 0.12178
 C1653 C 0.43739 0.46558 0.12221
 C1654 C 0.44315 0.44303 0.12296
 C1655 C 0.46569 0.43722 0.12314
 C1656 C 0.48202 0.45356 0.12271
 H1657 H 0.50069 0.55074 0.12295
 H1658 H 0.52925 0.57941 0.12364
 H1659 H 0.57970 0.52872 0.12184
 H1660 H 0.55091 0.50030 0.12116
 H1661 H 0.44898 0.49913 0.12128
 H1662 H 0.42023 0.47067 0.12200
 H1663 H 0.47075 0.42005 0.12366
 H1664 H 0.49927 0.44876 0.12293
 C1665 C -0.02369 0.47632 0.62214
 C1666 C -0.04602 0.48230 0.62187
 C1667 C -0.06240 0.46602 0.62231
 C1668 C -0.05664 0.44346 0.62304
 C1669 C -0.03411 0.43764 0.62320
 C1670 C -0.01777 0.45397 0.62276
 C1671 C -0.00687 0.49312 0.62198
 C1672 C 0.00721 0.50721 0.62197
 C1673 C 0.02401 0.52403 0.62211
 C1674 C 0.01805 0.54637 0.62273
 C1675 C 0.03435 0.56273 0.62314
 C1676 C 0.05690 0.55695 0.62297
 C1677 C 0.06270 0.53441 0.62223
 C1678 C 0.04635 0.51809 0.62182
 H1679 H -0.05078 0.49956 0.62139
 H1680 H -0.07955 0.47112 0.62211
 H1681 H -0.02906 0.42047 0.62370
 H1682 H -0.00053 0.44916 0.62297
 H1683 H 0.00079 0.55115 0.62295
 H1684 H 0.02927 0.57989 0.62365
 H1685 H 0.07986 0.52933 0.62202
 H1686 H 0.05114 0.50083 0.62133
 C1687 C 0.47634 0.52404 0.87771
 C1688 C 0.48224 0.54639 0.87713
 C1689 C 0.46590 0.56274 0.87677
 C1690 C 0.44336 0.55693 0.87695
 C1691 C 0.43762 0.53437 0.87763
 C1692 C 0.45401 0.51807 0.87800
 C1693 C 0.49318 0.50723 0.87782
 C1694 C 0.50727 0.49313 0.87780
 C1695 C 0.52409 0.47630 0.87766
 C1696 C 0.54643 0.48224 0.87753
 C1697 C 0.56279 0.46591 0.87718
 C1698 C 0.55702 0.44336 0.87694
 C1699 C 0.53447 0.43758 0.87715
 C1700 C 0.51815 0.45395 0.87750
 H1701 H 0.49949 0.55120 0.87691
 H1702 H 0.47094 0.57990 0.87630
 H1703 H 0.42047 0.52927 0.87785
 H1704 H 0.44925 0.50081 0.87845
 H1705 H 0.55122 0.49950 0.87766
 H1706 H 0.57995 0.47099 0.87707
 H1707 H 0.52940 0.42041 0.87702
 H1708 H 0.50090 0.44916 0.87760
 C1709 C 0.62291 0.52404 1.02438
 C1710 C 0.62296 0.54638 1.01847
 C1711 C 0.62334 0.56274 1.03480
 C1712 C 0.62370 0.55700 1.05742
 C1713 C 0.62358 0.53436 1.06311
 C1714 C 0.62319 0.51807 1.04671
 C1715 C 0.62272 0.50723 1.00754
 C1716 C 0.62265 0.49315 0.99343
 C1717 C 0.62270 0.47633 0.97660
 C1718 C 0.62326 0.48226 0.95426
 C1719 C 0.62358 0.46593 0.93790
 C1720 C 0.62337 0.44338 0.94368
 C1721 C 0.62270 0.43761 0.96623
 C1722 C 0.62238 0.45398 0.98255
 H1723 H 0.62274 0.55117 1.00121
 H1724 H 0.62337 0.57987 1.02959
 H1725 H 0.62378 0.52911 1.08023
 H1726 H 0.62315 0.50080 1.05146
 H1727 H 0.62351 0.49952 0.94948
 H1728 H 0.62405 0.47100 0.92073
 H1729 H 0.62247 0.42045 0.97131
 H1730 H 0.62195 0.44920 0.99981
 C1731 C 0.37648 1.02440 0.47595
 C1732 C 0.37626 1.01841 0.45362
 C1733 C 0.37598 1.03467 0.43721
 C1734 C 0.37591 1.05733 0.44287
 C1735 C 0.37621 1.06309 0.46549
 C1736 C 0.37648 1.04676 0.48184
 C1737 C 0.37658 1.00761 0.49281
 C1738 C 0.37659 0.99354 0.50693
 C1739 C 0.37651 0.97673 0.52378
 C1740 C 0.37636 0.95437 0.51786
 C1741 C 0.37611 0.93803 0.53420
 C1742 C 0.37599 0.94384 0.55675
 C1743 C 0.37621 0.96641 0.56251
 C1744 C 0.37646 0.98271 0.54613
 H1745 H 0.37626 1.00113 0.44888
 H1746 H 0.37582 1.02940 0.42009
 H1747 H 0.37622 1.08024 0.47068
 H1748 H 0.37666 1.05158 0.49909
 H1749 H 0.37641 0.94956 0.50060
 H1750 H 0.37600 0.92086 0.52914
 H1751 H 0.37618 0.97151 0.57967
 H1752 H 0.37658 0.99998 0.55090
 C1753 C -0.02386 0.62272 0.47625
 C1754 C -0.01790 0.62234 0.45390
 C1755 C -0.03420 0.62266 0.43753
 C1756 C -0.05674 0.62339 0.44330
 C1757 C -0.06254 0.62367 0.46585
 C1758 C -0.04620 0.62334 0.48219
 C1759 C -0.00704 0.62266 0.49306
 C1760 C 0.00706 0.62271 0.50713
 C1761 C 0.02390 0.62290 0.52392
 C1762 C 0.04623 0.62310 0.51793
 C1763 C 0.06261 0.62349 0.53422
 C1764 C 0.05685 0.62370 0.55679
 C1765 C 0.03432 0.62342 0.56261
 C1766 C 0.01798 0.62303 0.54627
 H1767 H -0.00065 0.62186 0.44912
 H1768 H -0.02911 0.62238 0.42037
 H1769 H -0.07970 0.62418 0.47092
 H1770 H -0.05099 0.62364 0.49945
 H1771 H 0.05099 0.62300 0.50066
 H1772 H 0.07976 0.62365 0.52912
 H1773 H 0.02926 0.62351 0.57978
 H1774 H 0.00074 0.62287 0.55109
 C1775 C 0.47621 0.37683 1.02401
 C1776 C 0.48209 0.37674 1.04637
 C1777 C 0.46573 0.37643 1.06269
 C1778 C 0.44320 0.37619 1.05683
 C1779 C 0.43748 0.37635 1.03426
 C1780 C 0.45389 0.37667 1.01799
 C1781 C 0.49307 0.37695 1.00726
 C1782 C 0.50722 0.37697 0.99323
 C1783 C 0.52408 0.37688 0.97647
 C1784 C 0.54640 0.37676 0.98249
 C1785 C 0.56281 0.37649 0.96622
 C1786 C 0.55709 0.37632 0.94365
 C1787 C 0.53456 0.37651 0.93780
 C1788 C 0.51820 0.37678 0.95411
 H1789 H 0.49932 0.37688 1.05121
 H1790 H 0.47075 0.37636 1.07987
 H1791 H 0.42034 0.37622 1.02914
 H1792 H 0.44917 0.37674 1.00072
 H1793 H 0.55113 0.37684 0.99977
 H1794 H 0.57995 0.37640 0.97134
 H1795 H 0.52954 0.37644 0.92062
 H1796 H 0.50096 0.37688 0.94928
 C1797 C 0.47614 -0.02346 0.62227
 C1798 C 0.45381 -0.01746 0.62196
 C1799 C 0.43743 -0.03374 0.62229
 C1800 C 0.44316 -0.05630 0.62295
 C1801 C 0.46570 -0.06214 0.62315
 C1802 C 0.48204 -0.04581 0.62282
 C1803 C 0.49298 -0.00667 0.62223
 C1804 C 0.50707 0.00740 0.62231
 C1805 C 0.52389 0.02421 0.62253
 C1806 C 0.51796 0.04656 0.62274
 C1807 C 0.53428 0.06291 0.62316
 C1808 C 0.55681 0.05710 0.62339
 C1809 C 0.56259 0.03454 0.62310
 C1810 C 0.54623 0.01824 0.62269
 H1811 H 0.44907 -0.00019 0.62153
 H1812 H 0.42028 -0.02863 0.62207
 H1813 H 0.47073 -0.07931 0.62361
 H1814 H 0.49929 -0.05063 0.62306
 H1815 H 0.50071 0.05136 0.62262
 H1816 H 0.52921 0.08008 0.62332
 H1817 H 0.57974 0.02945 0.62322
 H1818 H 0.55100 0.00097 0.62252
 C1819 C -0.02373 0.52403 0.37741
 C1820 C -0.01775 0.54637 0.37723
 C1821 C -0.03404 0.56275 0.37681
 C1822 C -0.05659 0.55698 0.37654
 C1823 C -0.06240 0.53444 0.37679
 C1824 C -0.04607 0.51811 0.37721
 C1825 C -0.00695 0.50720 0.37764
 C1826 C 0.00711 0.49309 0.37772
 C1827 C 0.02389 0.47626 0.37767
 C1828 C 0.04623 0.48219 0.37799
 C1829 C 0.06257 0.46586 0.37766
 C1830 C 0.05677 0.44333 0.37698
 C1831 C 0.03423 0.43755 0.37678
 C1832 C 0.01793 0.45392 0.37711
 H1833 H -0.00049 0.55113 0.37738
 H1834 H -0.02895 0.57991 0.37668
 H1835 H -0.07956 0.52939 0.37664
 H1836 H -0.05087 0.50085 0.37735
 H1837 H 0.05101 0.49944 0.37843
 H1838 H 0.07973 0.47092 0.37788
 H1839 H 0.02915 0.42039 0.37630
 H1840 H 0.00067 0.44916 0.37686
 C1841 C -0.02413 1.02439 0.87770
 C1842 C -0.01821 1.04672 0.87709
 C1843 C -0.03453 1.06309 0.87659
 C1844 C -0.05715 1.05736 0.87668
 C1845 C -0.06284 1.03473 0.87738
 C1846 C -0.04645 1.01844 0.87788
 C1847 C -0.00730 1.00756 0.87796
 C1848 C 0.00678 0.99345 0.87805
 C1849 C 0.02360 0.97661 0.87803
 C1850 C 0.04594 0.98255 0.87840
 C1851 C 0.06230 0.96623 0.87808
 C1852 C 0.05653 0.94368 0.87736
 C1853 C 0.03399 0.93790 0.87710
 C1854 C 0.01766 0.95427 0.87742
 H1855 H -0.00096 1.05150 0.87695
 H1856 H -0.02932 1.08021 0.87611
 H1857 H -0.07995 1.02949 0.87753
 H1858 H -0.05121 1.00118 0.87835
 H1859 H 0.05071 0.99980 0.87887
 H1860 H 0.07945 0.97130 0.87834
 H1861 H 0.02892 0.92074 0.87659
 H1862 H 0.00041 0.94949 0.87713
 C1863 C 0.77410 0.62217 0.27369
 C1864 C 0.79645 0.62250 0.26781
 C1865 C 0.81274 0.62298 0.28418
 C1866 C 0.80688 0.62314 0.30672
 C1867 C 0.78432 0.62273 0.31243
 C1868 C 0.76807 0.62226 0.29602
 C1869 C 0.75734 0.62195 0.25681
 C1870 C 0.74330 0.62187 0.24268
 C1871 C 0.72649 0.62193 0.22586
 C1872 C 0.73243 0.62158 0.20350
 C1873 C 0.71612 0.62193 0.18714
 C1874 C 0.69359 0.62264 0.19294
 C1875 C 0.68781 0.62289 0.21550
 C1876 C 0.70417 0.62254 0.23181
 H1877 H 0.80129 0.62245 0.25056
 H1878 H 0.82992 0.62330 0.27915
 H1879 H 0.77919 0.62287 0.32959
 H1880 H 0.75080 0.62203 0.30075
 H1881 H 0.74968 0.62113 0.19871
 H1882 H 0.72118 0.62175 0.16997
 H1883 H 0.67067 0.62344 0.22059
 H1884 H 0.69939 0.62282 0.24908
 C1885 C 0.27375 0.87827 0.72636
 C1886 C 0.29609 0.87764 0.73225
 C1887 C 0.31241 0.87725 0.71589
 C1888 C 0.30659 0.87747 0.69334
 C1889 C 0.28405 0.87818 0.68761
 C1890 C 0.26777 0.87858 0.70402
 C1891 C 0.25697 0.87838 0.74323
 C1892 C 0.24291 0.87836 0.75736
 C1893 C 0.22611 0.87819 0.77421
 C1894 C 0.23205 0.87844 0.79657
 C1895 C 0.21574 0.87801 0.81294
 C1896 C 0.19321 0.87731 0.80717
 C1897 C 0.18743 0.87715 0.78461
 C1898 C 0.20378 0.87759 0.76828
 H1899 H 0.30090 0.87738 0.74950
 H1900 H 0.32957 0.87668 0.72093
 H1901 H 0.27895 0.87835 0.67045
 H1902 H 0.25051 0.87904 0.69927
 H1903 H 0.24930 0.87888 0.80134
 H1904 H 0.22081 0.87812 0.83011
 H1905 H 0.17028 0.87661 0.77954
 H1906 H 0.19899 0.87738 0.75102
 C1907 C 0.22601 0.37761 0.27378
 C1908 C 0.23199 0.37789 0.29611
 C1909 C 0.21571 0.37747 0.31250
 C1910 C 0.19317 0.37675 0.30674
 C1911 C 0.18736 0.37656 0.28419
 C1912 C 0.20369 0.37698 0.26785
 C1913 C 0.24279 0.37775 0.25693
 C1914 C 0.25685 0.37775 0.24282
 C1915 C 0.27364 0.37760 0.22600
 C1916 C 0.29596 0.37698 0.23196
 C1917 C 0.31231 0.37654 0.21564
 C1918 C 0.30654 0.37672 0.19309
 C1919 C 0.28402 0.37743 0.18729
 C1920 C 0.26770 0.37786 0.20365
 H1921 H 0.24924 0.37836 0.30087
 H1922 H 0.22079 0.37762 0.32966
 H1923 H 0.17021 0.37600 0.27914
 H1924 H 0.19889 0.37674 0.25060
 H1925 H 0.30073 0.37675 0.24922
 H1926 H 0.32946 0.37598 0.22073
 H1927 H 0.27896 0.37756 0.17012
 H1928 H 0.25046 0.37832 0.19887
 C1929 C 0.87787 0.72592 0.27344
 C1930 C 0.87821 0.70356 0.26754
 C1931 C 0.87779 0.68724 0.28390
 C1932 C 0.87702 0.69310 0.30643
 C1933 C 0.87677 0.71567 0.31215
 C1934 C 0.87719 0.73194 0.29575
 C1935 C 0.87801 0.74269 0.25659
 C1936 C 0.87800 0.75677 0.24250
 C1937 C 0.87785 0.77359 0.22570
 C1938 C 0.87752 0.76765 0.20335
 C1939 C 0.87709 0.78398 0.18701
 C1940 C 0.87698 0.80652 0.19283
 C1941 C 0.87740 0.81230 0.21538
 C1942 C 0.87782 0.79593 0.23168
 H1943 H 0.87871 0.69872 0.25030
 H1944 H 0.87797 0.67006 0.27888
 H1945 H 0.87617 0.72081 0.32929
 H1946 H 0.87691 0.74922 0.30049
 H1947 H 0.87752 0.75039 0.19855
 H1948 H 0.87676 0.77891 0.16984
 H1949 H 0.87731 0.82946 0.22048
 H1950 H 0.87806 0.80070 0.24895
 C1951 C 0.62271 0.27410 0.77397
 C1952 C 0.62271 0.29645 0.76802
 C1953 C 0.62311 0.31282 0.78434
 C1954 C 0.62352 0.30704 0.80690
 C1955 C 0.62344 0.28448 0.81268
 C1956 C 0.62304 0.26816 0.79632
 C1957 C 0.62257 0.25727 0.75715
 C1958 C 0.62255 0.24316 0.74307
 C1959 C 0.62266 0.22632 0.72626
 C1960 C 0.62296 0.23225 0.70390
 C1961 C 0.62333 0.21592 0.68755
 C1962 C 0.62341 0.19337 0.69335
 C1963 C 0.62303 0.18760 0.71590
 C1964 C 0.62267 0.20398 0.73221
 H1965 H 0.62248 0.30122 0.75076
 H1966 H 0.62318 0.32998 0.77927
 H1967 H 0.62376 0.27941 0.82984
 H1968 H 0.62306 0.25090 0.80110
 H1969 H 0.62298 0.24951 0.69911
 H1970 H 0.62363 0.22099 0.67038
 H1971 H 0.62310 0.17044 0.72098
 H1972 H 0.62246 0.19921 0.74948
 C1973 C 0.77421 0.22607 0.87749
 C1974 C 0.79654 0.23205 0.87743
 C1975 C 0.81293 0.21576 0.87699
 C1976 C 0.80720 0.19320 0.87660
 C1977 C 0.78466 0.18738 0.87674
 C1978 C 0.76831 0.20371 0.87718
 C1979 C 0.75735 0.24287 0.87768
 C1980 C 0.74323 0.25694 0.87773
 C1981 C 0.72640 0.27377 0.87767
 C1982 C 0.73233 0.29611 0.87708
 C1983 C 0.71601 0.31247 0.87675
 C1984 C 0.69346 0.30670 0.87700
 C1985 C 0.68769 0.28416 0.87768
 C1986 C 0.70405 0.26783 0.87800
 H1987 H 0.80129 0.24932 0.87764
 H1988 H 0.83008 0.22087 0.87688
 H1989 H 0.77962 0.17021 0.87644
 H1990 H 0.75107 0.19890 0.87720
 H1991 H 0.74958 0.30089 0.87680
 H1992 H 0.72108 0.32963 0.87622
 H1993 H 0.67053 0.27909 0.87786
 H1994 H 0.69928 0.25058 0.87844
 C1995 C 0.27371 0.77436 0.62262
 C1996 C 0.26780 0.79672 0.62296
 C1997 C 0.28415 0.81305 0.62334
 C1998 C 0.30668 0.80722 0.62339
 C1999 C 0.31243 0.78466 0.62298
 C2000 C 0.29604 0.76837 0.62260
 C2001 C 0.25687 0.75757 0.62248
 C2002 C 0.24277 0.74350 0.62247
 C2003 C 0.22595 0.72669 0.62258
 C2004 C 0.20361 0.73264 0.62259
 C2005 C 0.18725 0.71632 0.62296
 C2006 C 0.19304 0.69376 0.62332
 C2007 C 0.21559 0.68798 0.62323
 C2008 C 0.23190 0.70434 0.62287
 H2009 H 0.25056 0.80154 0.62300
 H2010 H 0.27910 0.83022 0.62367
 H2011 H 0.32958 0.77955 0.62302
 H2012 H 0.30080 0.75110 0.62235
 H2013 H 0.19882 0.74990 0.62240
 H2014 H 0.17009 0.72139 0.62304
 H2015 H 0.22067 0.67081 0.62352
 H2016 H 0.24915 0.69955 0.62288
   
