data_POSCAR
  _audit_creation_date              2014-09-24
  _audit_creation_method            'ToBaCCo'
  _symmetry_space_group_name_H-M    'P1'
  _symmetry_Int_Tables_number       1
  _symmetry_cell_setting            triclinic
  loop_
  _symmetry_equiv_pos_as_xyz
 x,y,z
_cell_length_a 42.5273
_cell_length_b 43.2597
_cell_length_c 45.1869
_cell_angle_alpha 90.612100
_cell_angle_beta 89.632500
_cell_angle_gamma 88.370400
loop_
  _atom_site_label
  _atom_site_type_symbol
  _atom_site_fract_x
  _atom_site_fract_y
  _atom_site_fract_z
C1 C 0.38553 0.00499 0.25704
 C2 C 0.11882 0.00234 0.74612
 C3 C 0.61572 0.50579 0.24856
 C4 C 0.88807 0.49888 0.74498
 C5 C 0.25719 0.35799 1.00541
 C6 C 0.75205 0.14329 0.99484
 C7 C 0.24672 0.64292 0.49089
 C8 C 0.74387 0.85307 0.50423
 C9 C -0.01302 0.24295 0.39402
 C10 C -0.00161 0.74424 0.11643
 C11 C 0.50255 0.24514 0.60722
 C12 C 0.49860 0.75196 0.89100
 C13 C -0.25607 0.64627 1.00145
 C14 C -0.24332 0.35673 0.49953
 C15 C 0.25853 -0.14025 -0.00711
 C16 C 0.23625 1.13919 0.50271
 C17 C 0.10881 0.51139 0.24482
 C18 C -0.10088 0.99877 0.24795
 C19 C 0.39508 0.49229 -0.25027
 C20 C 0.60141 0.00816 -0.24265
 C21 C 0.00232 0.24487 0.87122
 C22 C 0.48672 0.25509 0.13622
 C23 C 0.00579 0.74172 0.63056
 C24 C 0.49248 0.74634 0.37081
 Zr25 Zr 0.02902 -0.02160 1.03757
 O26 O 0.05967 -0.00135 1.06845
 O27 O 0.02403 -0.06552 1.05504
 O28 O 0.00659 -0.01473 1.07962
 O29 O 0.08870 -0.04026 0.98704
 O30 O -0.04018 0.00899 1.06758
 O31 O 0.07434 -0.04409 1.03562
 O32 O -0.01045 -0.08793 1.02337
 O33 O -0.01860 -0.02981 1.02924
 O34 O 0.02739 -0.04888 0.99913
 O35 O 0.00721 0.02226 1.03241
 O36 O 0.05222 0.00361 1.00459
 Zr37 Zr -0.02094 0.01160 0.94989
 Zr38 Zr -0.03958 0.01364 1.02176
 Zr39 Zr 0.04802 -0.02322 0.96612
 Zr40 Zr -0.01976 -0.05560 0.99001
 O41 O 0.08773 0.00048 0.95079
 O42 O -0.06377 -0.06751 1.00830
 O43 O 0.00127 -0.03232 0.95486
 O44 O -0.04345 -0.01331 0.98331
 O45 O -0.01937 0.03922 0.98826
 O46 O 0.02655 0.01984 0.95871
 C47 C 0.00756 -0.08813 1.04613
 C48 C 0.09383 -0.04867 1.01375
 C49 C -0.02024 -0.00154 1.08639
 O50 O -0.08169 -0.00828 1.03338
 O51 O -0.07706 0.03724 1.00145
 O52 O -0.06620 0.03503 0.95196
 C53 C -0.08369 0.04358 0.97446
 O54 O 0.06152 0.05684 1.03041
 Zr55 Zr 0.02791 0.04577 0.99762
 O56 O -0.01732 0.05609 0.93336
 O57 O -0.04806 0.05725 1.04248
 O58 O 0.01035 0.08470 1.02217
 O59 O 0.06935 0.06090 0.97654
 O60 O 0.01292 0.07978 0.96789
 C61 C -0.00431 0.07981 0.94464
 O62 O -0.05221 -0.00828 0.91937
 O63 O 0.05951 -0.06785 0.94878
 O64 O 0.00137 0.00267 0.90771
 O65 O 0.04646 -0.02367 0.92032
 O66 O -0.00118 -0.09636 0.96912
 O67 O -0.04845 -0.06881 0.95393
 C68 C 0.02737 -0.01247 0.90118
 H69 H 0.03872 -0.06907 1.00084
 H70 H -0.06571 -0.01682 0.97830
 H71 H 0.03693 0.03069 0.94230
 H72 H 0.00887 0.03490 1.05069
 H73 H -0.06465 -0.09038 1.00802
 H74 H -0.09425 0.00677 1.04559
 H75 H -0.06892 0.05661 1.05237
 H76 H 0.02207 0.10294 1.01565
 H77 H -0.01374 -0.11388 0.97599
 H78 H 0.08047 -0.06677 0.93916
 H79 H 0.10059 -0.01451 0.93879
 H80 H 0.06877 0.08381 0.97750
 H81 H -0.05801 -0.08889 0.95822
 H82 H -0.05675 0.00762 0.90421
 H83 H 0.06454 -0.01730 1.08349
 H84 H 0.06780 0.07856 1.02811
 Zr85 Zr 0.52972 0.47945 0.54114
 O86 O 0.55986 0.49285 0.57581
 O87 O 0.52373 0.43316 0.55050
 O88 O 0.50665 0.48023 0.58312
 O89 O 0.59031 0.46655 0.49006
 O90 O 0.46040 0.50663 0.57416
 O91 O 0.57458 0.45670 0.53744
 O92 O 0.49154 0.41630 0.51379
 O93 O 0.48233 0.47339 0.53012
 O94 O 0.52941 0.45970 0.49863
 O95 O 0.50831 0.52379 0.54304
 O96 O 0.55479 0.50960 0.51391
 Zr97 Zr 0.48380 0.52919 0.45984
 Zr98 Zr 0.46174 0.51800 0.52944
 Zr99 Zr 0.55173 0.49050 0.47117
 Zr100 Zr 0.48267 0.45518 0.48709
 O101 O 0.59312 0.51521 0.46322
 O102 O 0.43827 0.44046 0.50216
 O103 O 0.50516 0.48454 0.45729
 O104 O 0.45967 0.49848 0.48701
 O105 O 0.48391 0.54933 0.50215
 O106 O 0.53099 0.53470 0.47147
 C107 C 0.50877 0.41216 0.53679
 C108 C 0.59424 0.45412 0.51555
 C109 C 0.48026 0.49327 0.59141
 O110 O 0.41999 0.49377 0.53706
 O111 O 0.42364 0.54324 0.51108
 O112 O 0.43838 0.55118 0.46326
 C113 C 0.41855 0.55409 0.48506
 O114 O 0.56312 0.55542 0.55006
 Zr115 Zr 0.53114 0.55279 0.51421
 O116 O 0.48880 0.57645 0.45273
 O117 O 0.45188 0.55825 0.55529
 O118 O 0.51323 0.58715 0.54420
 O119 O 0.57397 0.57059 0.49831
 O120 O 0.51955 0.59255 0.49078
 C121 C 0.50305 0.59726 0.46761
 O122 O 0.45429 0.51641 0.42447
 O123 O 0.56201 0.45034 0.44530
 O124 O 0.50732 0.52942 0.41812
 O125 O 0.55270 0.50121 0.42611
 O126 O 0.50122 0.41896 0.45957
 O127 O 0.45478 0.44963 0.44862
 C128 C 0.53389 0.51693 0.40960
 H129 H 0.54034 0.43925 0.49708
 H130 H 0.43771 0.49600 0.48047
 H131 H 0.54220 0.54852 0.45792
 H132 H 0.50958 0.53314 0.56306
 H133 H 0.43729 0.41799 0.49787
 H134 H 0.40685 0.50672 0.55080
 H135 H 0.43085 0.55580 0.56444
 H136 H 0.52637 0.60558 0.54222
 H137 H 0.48809 0.40066 0.46255
 H138 H 0.58347 0.45253 0.43702
 H139 H 0.60617 0.50253 0.44918
 H140 H 0.57450 0.59261 0.50452
 H141 H 0.44429 0.42951 0.44937
 H142 H 0.45037 0.53517 0.41244
 H143 H 0.56378 0.47435 0.58820
 H144 H 0.57005 0.57695 0.55244
 Zr145 Zr 0.46215 1.01286 0.55067
 O146 O 0.43539 0.99991 0.58791
 O147 O 0.46499 1.06045 0.55706
 O148 O 0.48886 1.01816 0.59084
 O149 O 0.39915 1.01820 0.50201
 O150 O 0.53527 0.99281 0.57968
 O151 O 0.41539 1.03246 0.54810
 O152 O 0.49507 1.07583 0.51817
 O153 O 0.50847 1.02043 0.53666
 O154 O 0.45980 1.02970 0.50734
 O155 O 0.48576 0.96951 0.55268
 O156 O 0.43818 0.97949 0.52539
 Zr157 Zr 0.50768 0.96055 0.46842
 Zr158 Zr 0.53119 0.97686 0.53648
 Zr159 Zr 0.43845 0.99619 0.48190
 Zr160 Zr 0.50563 1.03591 0.49315
 O161 O 0.39934 0.96788 0.47513
 O162 O 0.54929 1.05412 0.50607
 O163 O 0.48387 1.00381 0.46568
 O164 O 0.53092 0.99394 0.49344
 O165 O 0.51022 0.94261 0.51117
 O166 O 0.46136 0.95307 0.48208
 C167 C 0.47840 1.08106 0.54157
 C168 C 0.39479 1.03228 0.52698
 C169 C 0.51732 1.00870 0.59727
 O170 O 0.57235 1.00296 0.54053
 O171 O 0.56994 0.95300 0.51751
 O172 O 0.55357 0.94014 0.47117
 C173 C 0.57421 0.94016 0.49204
 O174 O 0.43432 0.93376 0.56331
 Zr175 Zr 0.46385 0.93723 0.52543
 O176 O 0.50409 0.91307 0.46189
 O177 O 0.54329 0.93905 0.56390
 O178 O 0.48586 0.90538 0.55464
 O179 O 0.42079 0.91752 0.51279
 O180 O 0.47533 0.89656 0.50131
 C181 C 0.49130 0.89209 0.47737
 O182 O 0.53668 0.97213 0.43213
 O183 O 0.42295 1.03478 0.45681
 O184 O 0.48448 0.95963 0.42695
 O185 O 0.43865 0.98680 0.43629
 O186 O 0.48399 1.06883 0.46475
 O187 O 0.53231 1.04068 0.45359
 C188 C 0.45844 0.97290 0.41872
 H189 H 0.44745 1.04930 0.50548
 H190 H 0.55246 0.99713 0.48583
 H191 H 0.45052 0.93842 0.46890
 H192 H 0.48620 0.96182 0.57324
 H193 H 0.54891 1.07631 0.50082
 H194 H 0.58675 0.99161 0.55405
 H195 H 0.56470 0.94266 0.57152
 H196 H 0.47425 0.88586 0.55353
 H197 H 0.49582 1.08819 0.46637
 H198 H 0.40186 1.03014 0.44894
 H199 H 0.38537 0.97897 0.46108
 H200 H 0.42160 0.89556 0.51884
 H201 H 0.54126 1.06155 0.45313
 H202 H 0.54094 0.95288 0.42044
 H203 H 0.43090 1.01912 0.59954
 H204 H 0.42931 0.91182 0.56646
 Zr205 Zr -0.02944 0.52056 1.03537
 O206 O -0.06008 0.50611 1.06927
 O207 O -0.02651 0.56762 1.04398
 O208 O -0.00756 0.52355 1.07780
 O209 O -0.08818 0.53065 0.98276
 O210 O 0.04022 0.49983 1.06954
 O211 O -0.07471 0.54211 1.03046
 O212 O 0.00593 0.58496 1.00764
 O213 O 0.01790 0.52859 1.02530
 O214 O -0.02814 0.53908 0.99273
 O215 O -0.00623 0.47712 1.03786
 O216 O -0.05172 0.48827 1.00766
 Zr217 Zr 0.02235 0.47116 0.95490
 Zr218 Zr 0.04036 0.48493 1.02544
 Zr219 Zr -0.04807 0.50674 0.96508
 Zr220 Zr 0.01869 0.54555 0.98216
 O221 O -0.08790 0.47971 0.95722
 O222 O 0.06113 0.56298 0.99907
 O223 O -0.00135 0.51459 0.95201
 O224 O 0.04375 0.50336 0.98293
 O225 O 0.02132 0.45197 0.99727
 O226 O -0.02495 0.46355 0.96547
 C227 C -0.01252 0.58901 1.03009
 C228 C -0.09342 0.54397 1.00804
 C229 C 0.01991 0.51374 1.08652
 O230 O 0.08152 0.51028 1.03258
 O231 O 0.07943 0.45927 1.00920
 O232 O 0.06820 0.44988 0.96072
 C233 C 0.08637 0.44744 0.98370
 O234 O -0.05905 0.44148 1.04304
 Zr235 Zr -0.02590 0.44600 1.00806
 O236 O 0.02019 0.42396 0.94684
 O237 O 0.05002 0.44684 1.05332
 O238 O -0.00666 0.41344 1.03821
 O239 O -0.06706 0.42571 0.99127
 O240 O -0.01112 0.40627 0.98392
 C241 C 0.00689 0.40243 0.96114
 O242 O 0.05333 0.48485 0.92098
 O243 O -0.05945 0.54537 0.93840
 O244 O 0.00045 0.46967 0.91221
 O245 O -0.04687 0.49497 0.92017
 O246 O 0.00020 0.57994 0.95348
 O247 O 0.04846 0.55110 0.94474
 C248 C -0.02680 0.48031 0.90353
 H249 H -0.03988 0.55896 0.99047
 H250 H 0.06592 0.50642 0.97711
 H251 H -0.03487 0.44896 0.95159
 H252 H -0.00766 0.46867 1.05808
 H253 H 0.06127 0.58534 0.99456
 H254 H 0.09429 0.49870 1.04727
 H255 H 0.07058 0.45041 1.06279
 H256 H -0.01793 0.39389 1.03547
 H257 H 0.01244 0.59886 0.95651
 H258 H -0.08044 0.54185 0.92975
 H259 H -0.10106 0.49116 0.94275
 H260 H -0.06629 0.40361 0.99685
 H261 H 0.05836 0.57151 0.94597
 H262 H 0.05871 0.46601 0.90907
 H263 H -0.06549 0.52466 1.08157
 H264 H -0.06403 0.41941 1.04535
 Zr265 Zr -0.03107 0.48712 0.44940
 O266 O -0.06197 0.50675 0.41776
 O267 O -0.02815 0.44107 0.43551
 O268 O -0.01004 0.48712 0.40646
 O269 O -0.09010 0.47720 0.50220
 O270 O 0.03786 0.50799 0.41487
 O271 O -0.07662 0.46865 0.45373
 O272 O 0.00544 0.41928 0.46899
 O273 O 0.01631 0.47520 0.45755
 O274 O -0.02982 0.46452 0.49014
 O275 O -0.00725 0.52905 0.44995
 O276 O -0.05281 0.51813 0.48022
 Zr277 Zr 0.02144 0.52518 0.53218
 Zr278 Zr 0.03948 0.51714 0.46047
 Zr279 Zr -0.04920 0.49561 0.52106
 Zr280 Zr 0.01708 0.45426 0.49897
 O281 O -0.08806 0.52480 0.53302
 O282 O 0.06011 0.43595 0.48134
 O283 O -0.00256 0.48328 0.53215
 O284 O 0.04268 0.49455 0.50116
 O285 O 0.02064 0.54820 0.49166
 O286 O -0.02568 0.53723 0.52360
 C287 C -0.01284 0.41802 0.44650
 C288 C -0.09564 0.46653 0.47606
 C289 C 0.01675 0.49720 0.39762
 O290 O 0.07972 0.48946 0.44938
 O291 O 0.07916 0.53811 0.47896
 O292 O 0.06705 0.54400 0.52801
 C293 C 0.08560 0.54724 0.50544
 O294 O -0.06162 0.56698 0.45015
 Zr295 Zr -0.02646 0.55851 0.48252
 O296 O 0.02009 0.57150 0.54383
 O297 O 0.04982 0.55765 0.43687
 O298 O -0.01030 0.59237 0.45285
 O299 O -0.06501 0.58163 0.50405
 O300 O -0.00664 0.59498 0.50628
 C301 C 0.01010 0.59536 0.52982
 O302 O 0.05224 0.50594 0.56411
 O303 O -0.06157 0.45505 0.54371
 O304 O 0.00023 0.52500 0.57524
 O305 O -0.04661 0.50191 0.56713
 O306 O -0.00188 0.41732 0.52318
 O307 O 0.04548 0.44329 0.53616
 C308 C -0.02612 0.51390 0.58429
 H309 H -0.04165 0.44516 0.49046
 H310 H 0.06477 0.48944 0.50641
 H311 H -0.03493 0.55120 0.53903
 H312 H -0.00898 0.53960 0.43068
 H313 H 0.05997 0.41321 0.48374
 H314 H 0.09272 0.50192 0.43600
 H315 H 0.07027 0.55368 0.42669
 H316 H -0.02181 0.61208 0.45757
 H317 H 0.01072 0.39835 0.51810
 H318 H -0.08211 0.45950 0.55360
 H319 H -0.10119 0.51284 0.54673
 H320 H -0.06322 0.60397 0.49998
 H321 H 0.05548 0.42252 0.53325
 H322 H 0.05809 0.52306 0.57759
 H323 H -0.06788 0.48978 0.40413
 H324 H -0.06857 0.58901 0.45102
 Zr325 Zr 0.48188 -0.02240 -0.02665
 O326 O 0.44977 -0.01193 -0.06098
 O327 O 0.49288 -0.06902 -0.03487
 O328 O 0.50357 -0.02420 -0.06931
 O329 O 0.42243 -0.03146 0.02573
 O330 O 0.54810 0.00322 -0.06285
 O331 O 0.43861 -0.04528 -0.02098
 O332 O 0.52715 -0.08328 0.00147
 O333 O 0.52974 -0.02779 -0.01642
 O334 O 0.48432 -0.03989 0.01626
 O335 O 0.50027 0.02207 -0.03031
 O336 O 0.45606 0.00984 0.00005
 Zr337 Zr 0.52706 0.03153 0.05208
 Zr338 Zr 0.54753 0.01664 -0.01816
 Zr339 Zr 0.46076 -0.00734 0.04304
 Zr340 Zr 0.53165 -0.04333 0.02729
 O341 O 0.41826 0.01806 0.05121
 O342 O 0.57738 -0.05862 0.01370
 O343 O 0.50788 -0.01264 0.05653
 O344 O 0.55222 -0.00029 0.02493
 O345 O 0.52485 0.04956 0.00928
 O346 O 0.47928 0.03677 0.04143
 C347 C 0.51078 -0.08883 -0.02159
 C348 C 0.41885 -0.04572 0.00091
 C349 C 0.52888 -0.01174 -0.07904
 O350 O 0.58996 -0.00880 -0.02642
 O351 O 0.58500 0.04203 -0.00198
 O352 O 0.57024 0.05487 0.04541
 C353 C 0.58925 0.05583 0.02286
 O354 O 0.44415 0.05556 -0.03641
 Zr355 Zr 0.47725 0.05327 -0.00140
 O356 O 0.52000 0.07850 0.05938
 O357 O 0.55462 0.05549 -0.04525
 O358 O 0.49363 0.08571 -0.03238
 O359 O 0.43379 0.07204 0.01488
 O360 O 0.48771 0.09427 0.02195
 C361 C 0.50500 0.09926 0.04470
 O362 O 0.55886 0.02002 0.08630
 O363 O 0.45305 -0.04618 0.06998
 O364 O 0.50421 0.03430 0.09439
 O365 O 0.46018 0.00593 0.08756
 O366 O 0.51515 -0.07868 0.05509
 O367 O 0.55922 -0.04565 0.06632
 C368 C 0.47806 0.02272 0.10339
 H369 H 0.47477 -0.06036 0.01832
 H370 H 0.57451 -0.00231 0.03097
 H371 H 0.46766 0.05134 0.05485
 H372 H 0.49787 0.03018 -0.05059
 H373 H 0.58019 -0.08048 0.01971
 H374 H 0.60215 0.00318 -0.04088
 H375 H 0.57546 0.05240 -0.05497
 H376 H 0.48052 0.10488 -0.02997
 H377 H 0.53003 -0.09665 0.05312
 H378 H 0.43183 -0.04321 0.07892
 H379 H 0.40628 0.00640 0.06607
 H380 H 0.43250 0.09405 0.00904
 H381 H 0.57041 -0.06600 0.06712
 H382 H 0.56226 0.03937 0.09765
 H383 H 0.44696 -0.03128 -0.07254
 H384 H 0.43711 0.07733 -0.03929
 Zr385 Zr 0.52986 0.51430 -0.04616
 O386 O 0.55755 0.49762 -0.08230
 O387 O 0.52118 0.55988 -0.05756
 O388 O 0.50328 0.51558 -0.08578
 O389 O 0.59345 0.52607 -0.00004
 O390 O 0.45694 0.49439 -0.07189
 O391 O 0.57442 0.53585 -0.04618
 O392 O 0.49036 0.57957 -0.01993
 O393 O 0.48326 0.52253 -0.03192
 O394 O 0.53156 0.53622 -0.00477
 O395 O 0.50909 0.47080 -0.04528
 O396 O 0.55692 0.48409 -0.01967
 Zr397 Zr 0.48970 0.46980 0.03995
 Zr398 Zr 0.46344 0.47910 -0.02865
 Zr399 Zr 0.55600 0.50549 0.02215
 Zr400 Zr 0.48547 0.54276 0.00997
 O401 O 0.59810 0.47936 0.02907
 O402 O 0.43948 0.55822 -0.00166
 O403 O 0.51034 0.51370 0.03911
 O404 O 0.46332 0.50024 0.01321
 O405 O 0.48771 0.44792 -0.00153
 O406 O 0.53623 0.46215 0.02533
 C407 C 0.50511 0.58171 -0.04480
 C408 C 0.59579 0.53780 -0.02595
 C409 C 0.47472 0.50761 -0.09067
 O410 O 0.41940 0.50295 -0.03155
 O411 O 0.42801 0.45386 -0.00840
 O412 O 0.44600 0.44595 0.03849
 C413 C 0.42552 0.44242 0.01756
 O414 O 0.56278 0.43511 -0.05482
 Zr415 Zr 0.53406 0.44179 -0.01649
 O416 O 0.49823 0.42356 0.05010
 O417 O 0.45416 0.44009 -0.05552
 O418 O 0.51339 0.40690 -0.04266
 O419 O 0.57878 0.42365 -0.00383
 O420 O 0.52646 0.40370 0.01076
 C421 C 0.51199 0.40130 0.03561
 O422 O 0.46005 0.48434 0.07550
 O423 O 0.56741 0.54660 0.04506
 O424 O 0.51496 0.47303 0.08075
 O425 O 0.55955 0.49772 0.06729
 O426 O 0.50543 0.57975 0.03385
 O427 O 0.46073 0.55113 0.05041
 C428 C 0.54204 0.48478 0.08643
 H429 H 0.54206 0.55634 -0.00508
 H430 H 0.44169 0.50335 0.02113
 H431 H 0.54878 0.44892 0.03887
 H432 H 0.50879 0.46134 -0.06533
 H433 H 0.43817 0.58087 0.00186
 H434 H 0.40617 0.49085 -0.04516
 H435 H 0.43251 0.44312 -0.06314
 H436 H 0.52642 0.38771 -0.04053
 H437 H 0.49185 0.59841 0.03068
 H438 H 0.58929 0.54381 0.05220
 H439 H 0.61175 0.49221 0.04159
 H440 H 0.57944 0.40125 -0.00875
 H441 H 0.45029 0.57187 0.04992
 H442 H 0.45784 0.46620 0.08852
 H443 H 0.56056 0.51539 -0.09561
 H444 H 0.56892 0.41293 -0.05689
 Zr445 Zr 0.01615 1.01074 0.46274
 O446 O 0.04482 0.99138 0.42848
 O447 O 0.01176 1.05678 0.45045
 O448 O -0.00891 1.01092 0.42175
 O449 O 0.07673 1.02394 0.51182
 O450 O -0.05531 0.98915 0.43419
 O451 O 0.06170 1.03047 0.46390
 O452 O -0.02068 1.07828 0.48599
 O453 O -0.03104 1.02074 0.47411
 O454 O 0.01587 1.03425 0.50352
 O455 O -0.00554 0.96769 0.46495
 O456 O 0.04047 0.98119 0.49233
 Zr457 Zr -0.03066 0.97232 0.54903
 Zr458 Zr -0.05181 0.97781 0.47863
 Zr459 Zr 0.03782 1.00481 0.53308
 Zr460 Zr -0.03086 1.04281 0.51533
 O461 O 0.07851 0.97778 0.54321
 O462 O -0.07460 1.05916 0.49849
 O463 O -0.00853 1.01528 0.54721
 O464 O -0.05441 1.00137 0.51920
 O465 O -0.03066 0.94776 0.50880
 O466 O 0.01650 0.96249 0.53741
 C467 C -0.00282 1.07974 0.46304
 C468 C 0.08147 1.03370 0.48540
 C469 C -0.03695 1.00182 0.41561
 O470 O -0.09498 1.00220 0.47181
 O471 O -0.08812 0.95403 0.49866
 O472 O -0.07522 0.95054 0.54739
 C473 C -0.09355 0.94523 0.52520
 O474 O 0.04711 0.92897 0.46061
 Zr475 Zr 0.01623 0.93965 0.49669
 O476 O -0.02368 0.92741 0.56340
 O477 O -0.06063 0.93750 0.45338
 O478 O -0.00431 0.90404 0.47138
 O479 O 0.05950 0.92102 0.51262
 O480 O 0.00520 0.90399 0.52614
 C481 C -0.00932 0.90418 0.55121
 O482 O -0.06175 0.99082 0.58186
 O483 O 0.04972 1.04655 0.55469
 O484 O -0.00797 0.97691 0.59067
 O485 O 0.03784 1.00028 0.57893
 O486 O -0.01231 1.07989 0.54016
 O487 O -0.05953 1.05377 0.55291
 C488 C 0.01847 0.98913 0.59759
 H489 H 0.02732 1.05383 0.50352
 H490 H -0.07649 1.00547 0.52553
 H491 H 0.02793 0.94998 0.55233
 H492 H -0.00484 0.95706 0.44542
 H493 H -0.07537 1.08196 0.50095
 H494 H -0.10800 0.98896 0.45905
 H495 H -0.08207 0.94010 0.44513
 H496 H 0.00722 0.88444 0.47589
 H497 H -0.02502 1.09880 0.53563
 H498 H 0.07104 1.04336 0.56309
 H499 H 0.09171 0.99079 0.55601
 H500 H 0.05926 0.89829 0.50970
 H501 H -0.06973 1.07442 0.55033
 H502 H -0.06545 0.97406 0.59617
 H503 H 0.04906 1.00836 0.41457
 H504 H 0.05205 0.90646 0.46014
 Zr505 Zr 0.72561 0.27230 0.20598
 O506 O 0.74153 0.30008 0.17099
 O507 O 0.67798 0.27002 0.19675
 O508 O 0.72260 0.24859 0.16423
 O509 O 0.71770 0.33247 0.25789
 O510 O 0.74642 0.20184 0.17381
 O511 O 0.70652 0.31840 0.21035
 O512 O 0.65898 0.23846 0.23248
 O513 O 0.71676 0.22626 0.21689
 O514 O 0.70529 0.27300 0.24837
 O515 O 0.76946 0.24861 0.20415
 O516 O 0.75784 0.29447 0.23386
 Zr517 Zr 0.77328 0.22363 0.28758
 Zr518 Zr 0.76084 0.20343 0.21765
 Zr519 Zr 0.73794 0.29242 0.27644
 Zr520 Zr 0.69786 0.22736 0.25957
 O521 O 0.76585 0.33091 0.28622
 O522 O 0.68035 0.18487 0.24383
 O523 O 0.72904 0.24714 0.28980
 O524 O 0.74064 0.20224 0.25987
 O525 O 0.79418 0.22274 0.24546
 O526 O 0.78156 0.26961 0.27640
 C527 C 0.65574 0.25600 0.20980
 C528 C 0.70583 0.33798 0.23234
 C529 C 0.73193 0.22080 0.15666
 O530 O 0.73464 0.16312 0.21076
 O531 O 0.78463 0.16463 0.23517
 O532 O 0.79431 0.17831 0.28310
 C533 C 0.79580 0.15906 0.26095
 O534 O 0.80634 0.29879 0.19726
 Zr535 Zr 0.80043 0.26880 0.23372
 O536 O 0.82101 0.22814 0.29672
 O537 O 0.80043 0.19241 0.19054
 O538 O 0.83471 0.24745 0.20533
 O539 O 0.81985 0.31079 0.24859
 O540 O 0.83977 0.25757 0.25926
 C541 C 0.84300 0.24229 0.28323
 O542 O 0.75920 0.19372 0.32169
 O543 O 0.69710 0.30546 0.30113
 O544 O 0.77219 0.24521 0.33027
 O545 O 0.74701 0.29144 0.32191
 O546 O 0.66235 0.24794 0.28713
 O547 O 0.68996 0.19981 0.29743
 C548 C 0.76028 0.27161 0.33913
 H549 H 0.68531 0.28523 0.24979
 H550 H 0.73693 0.18078 0.26614
 H551 H 0.79560 0.28004 0.29050
 H552 H 0.77857 0.24896 0.18394
 H553 H 0.65741 0.18518 0.24784
 H554 H 0.74661 0.14984 0.19637
 H555 H 0.79681 0.17187 0.18144
 H556 H 0.85451 0.25873 0.20774
 H557 H 0.64271 0.23668 0.28366
 H558 H 0.70090 0.32600 0.31014
 H559 H 0.75372 0.34409 0.30057
 H560 H 0.84237 0.31035 0.24278
 H561 H 0.66852 0.19151 0.29657
 H562 H 0.77799 0.18921 0.33400
 H563 H 0.72283 0.30551 0.15891
 H564 H 0.82896 0.30287 0.19456
 Zr565 Zr 0.77601 0.73439 0.71707
 O566 O 0.76121 0.70371 0.68340
 O567 O 0.82268 0.74235 0.70493
 O568 O 0.77565 0.75499 0.67497
 O569 O 0.79155 0.67728 0.76868
 O570 O 0.74572 0.79908 0.68232
 O571 O 0.79805 0.68957 0.72025
 O572 O 0.83823 0.77944 0.73750
 O573 O 0.78054 0.78181 0.72575
 O574 O 0.79882 0.73824 0.75759
 O575 O 0.72987 0.75366 0.71741
 O576 O 0.74701 0.71133 0.74719
 Zr577 Zr 0.72857 0.78428 0.79991
 Zr578 Zr 0.73480 0.80052 0.72784
 Zr579 Zr 0.76962 0.71727 0.78766
 Zr580 Zr 0.80125 0.78541 0.76735
 O581 O 0.74586 0.67735 0.80105
 O582 O 0.81364 0.82952 0.75169
 O583 O 0.77444 0.76412 0.79958
 O584 O 0.75670 0.80673 0.76886
 O585 O 0.70520 0.78063 0.75928
 O586 O 0.72433 0.73678 0.79083
 C587 C 0.84279 0.76130 0.71526
 C588 C 0.80118 0.67072 0.74220
 C589 C 0.76182 0.77992 0.66582
 O590 O 0.75745 0.84189 0.71708
 O591 O 0.70863 0.83853 0.74489
 O592 O 0.70208 0.82712 0.79381
 C593 C 0.69742 0.84458 0.77080
 O594 O 0.69452 0.70144 0.71502
 Zr595 Zr 0.70224 0.73346 0.75008
 O596 O 0.68348 0.77531 0.81500
 O597 O 0.69289 0.80636 0.70327
 O598 O 0.66447 0.75137 0.72444
 O599 O 0.68843 0.69041 0.76722
 O600 O 0.66445 0.74256 0.77977
 C601 C 0.66217 0.75840 0.80399
 O602 O 0.74118 0.81845 0.83114
 O603 O 0.81311 0.70870 0.80910
 O604 O 0.73716 0.76561 0.84322
 O605 O 0.76426 0.72030 0.83311
 O606 O 0.84099 0.76943 0.79151
 O607 O 0.80706 0.81372 0.80554
 C608 C 0.75236 0.74053 0.85111
 H609 H 0.81990 0.72792 0.75760
 H610 H 0.75858 0.82891 0.77401
 H611 H 0.71268 0.72588 0.80641
 H612 H 0.71972 0.75088 0.69795
 H613 H 0.83631 0.83207 0.75571
 H614 H 0.74374 0.85300 0.70281
 H615 H 0.69431 0.82625 0.69271
 H616 H 0.64551 0.73972 0.72963
 H617 H 0.85843 0.78347 0.78724
 H618 H 0.81182 0.68832 0.81879
 H619 H 0.76014 0.66589 0.81457
 H620 H 0.66538 0.68906 0.76460
 H621 H 0.82739 0.82422 0.80423
 H622 H 0.72287 0.82158 0.84466
 H623 H 0.77964 0.69906 0.67035
 H624 H 0.67210 0.69586 0.71491
 Zr625 Zr 0.24483 0.21669 0.79615
 O626 O 0.26597 0.18641 0.82715
 O627 O 0.19872 0.22037 0.81196
 O628 O 0.24690 0.23832 0.83915
 O629 O 0.23194 0.15877 0.74345
 O630 O 0.26782 0.28501 0.82931
 O631 O 0.22592 0.17181 0.79238
 O632 O 0.17526 0.25435 0.78012
 O633 O 0.23313 0.26333 0.78856
 O634 O 0.21937 0.21839 0.75655
 O635 O 0.28800 0.23896 0.79343
 O636 O 0.27392 0.19510 0.76332
 Zr637 Zr 0.27974 0.26819 0.71154
 Zr638 Zr 0.27609 0.28499 0.78368
 Zr639 Zr 0.24864 0.19927 0.72365
 Zr640 Zr 0.20927 0.26470 0.74834
 O641 O 0.27677 0.16109 0.70861
 O642 O 0.19235 0.30732 0.76681
 O643 O 0.23657 0.24543 0.71361
 O644 O 0.25068 0.28900 0.74432
 O645 O 0.30574 0.26645 0.75074
 O646 O 0.29130 0.22149 0.71907
 C647 C 0.17504 0.23637 0.80256
 C648 C 0.22293 0.15304 0.77009
 C649 C 0.25668 0.26527 0.84732
 O650 O 0.24992 0.32563 0.79555
 O651 O 0.29727 0.32315 0.76472
 O652 O 0.29859 0.31325 0.71509
 C653 C 0.30392 0.33053 0.73799
 O654 O 0.32655 0.18603 0.79134
 Zr655 Zr 0.31550 0.21982 0.75893
 O656 O 0.32640 0.26670 0.69741
 O657 O 0.31851 0.29359 0.80618
 O658 O 0.35222 0.23707 0.78543
 O659 O 0.33541 0.17989 0.73763
 O660 O 0.35120 0.23545 0.73090
 C661 C 0.35097 0.25364 0.70857
 O662 O 0.25875 0.29892 0.68079
 O663 O 0.20539 0.18753 0.70411
 O664 O 0.27599 0.24786 0.66855
 O665 O 0.25075 0.20287 0.67717
 O666 O 0.17049 0.24603 0.72569
 O667 O 0.19619 0.29331 0.71224
 C668 C 0.26265 0.22288 0.65972
 H669 H 0.19957 0.20695 0.75732
 H670 H 0.24547 0.31085 0.73966
 H671 H 0.30421 0.21212 0.70282
 H672 H 0.29965 0.23722 0.81226
 H673 H 0.16910 0.30771 0.76534
 H674 H 0.26361 0.33818 0.80832
 H675 H 0.31572 0.31396 0.81626
 H676 H 0.37192 0.22574 0.77960
 H677 H 0.15139 0.25813 0.73191
 H678 H 0.20895 0.16745 0.69366
 H679 H 0.26326 0.14862 0.69560
 H680 H 0.35852 0.18055 0.74010
 H681 H 0.17468 0.30206 0.71563
 H682 H 0.27540 0.30443 0.66645
 H683 H 0.24931 0.18117 0.84157
 H684 H 0.34928 0.18047 0.79028
 Zr685 Zr 0.27399 0.77851 0.28472
 O686 O 0.26030 0.80689 0.32132
 O687 O 0.32213 0.77328 0.29152
 O688 O 0.27674 0.75486 0.32596
 O689 O 0.28364 0.83784 0.23446
 O690 O 0.24926 0.71111 0.31749
 O691 O 0.29255 0.82350 0.28221
 O692 O 0.33943 0.74067 0.25439
 O693 O 0.28148 0.73177 0.27297
 O694 O 0.29324 0.77771 0.24190
 O695 O 0.22945 0.75890 0.28688
 O696 O 0.24202 0.80372 0.25801
 Zr697 Zr 0.22337 0.73463 0.20320
 Zr698 Zr 0.23658 0.71290 0.27275
 Zr699 Zr 0.26094 0.80023 0.21504
 Zr700 Zr 0.29905 0.73147 0.22962
 O701 O 0.23411 0.84123 0.20720
 O702 O 0.31616 0.68815 0.24518
 O703 O 0.26813 0.75427 0.20049
 O704 O 0.25558 0.71010 0.22992
 O705 O 0.20361 0.73541 0.24579
 O706 O 0.21658 0.78123 0.21535
 C707 C 0.34376 0.75851 0.27681
 C708 C 0.29444 0.84273 0.26059
 C709 C 0.26433 0.72942 0.33453
 O710 O 0.26248 0.67107 0.27921
 O711 O 0.21149 0.67623 0.25426
 O712 O 0.19962 0.69223 0.20753
 C713 C 0.19817 0.67278 0.22901
 O714 O 0.19506 0.81311 0.29493
 Zr715 Zr 0.19866 0.78191 0.25833
 O716 O 0.17556 0.74257 0.19514
 O717 O 0.19655 0.70457 0.29927
 O718 O 0.16454 0.76429 0.28764
 O719 O 0.17957 0.82497 0.24395
 O720 O 0.15830 0.77274 0.23404
 C721 C 0.15401 0.75728 0.21012
 O722 O 0.23616 0.70324 0.16864
 O723 O 0.30140 0.80987 0.18954
 O724 O 0.22424 0.75631 0.16094
 O725 O 0.25081 0.80061 0.16982
 O726 O 0.33391 0.74828 0.20062
 O727 O 0.30461 0.70244 0.19157
 C728 C 0.23637 0.78198 0.15269
 H729 H 0.31330 0.78858 0.24001
 H730 H 0.25836 0.68835 0.22314
 H731 H 0.20240 0.79269 0.20176
 H732 H 0.22058 0.76034 0.30717
 H733 H 0.33892 0.68655 0.24039
 H734 H 0.25001 0.65858 0.29303
 H735 H 0.19967 0.68373 0.30786
 H736 H 0.14518 0.77743 0.28590
 H737 H 0.35316 0.73506 0.20287
 H738 H 0.29820 0.83095 0.18149
 H739 H 0.24647 0.85365 0.19324
 H740 H 0.15719 0.82620 0.25022
 H741 H 0.32550 0.69176 0.19207
 H742 H 0.21711 0.70035 0.15647
 H743 H 0.27951 0.81062 0.33305
 H744 H 0.17274 0.81949 0.29813
 Zr745 Zr 0.24503 0.77894 0.69872
 O746 O 0.26351 0.81001 0.66770
 O747 O 0.19903 0.77487 0.68441
 O748 O 0.24709 0.75841 0.65542
 O749 O 0.23068 0.83611 0.75258
 O750 O 0.27056 0.71107 0.66343
 O751 O 0.22263 0.82357 0.70397
 O752 O 0.17777 0.74239 0.71810
 O753 O 0.23548 0.73231 0.70652
 O754 O 0.22145 0.77723 0.73950
 O755 O 0.28902 0.75539 0.69899
 O756 O 0.27503 0.79978 0.72976
 Zr757 Zr 0.28547 0.72621 0.78087
 Zr758 Zr 0.27928 0.70938 0.70897
 Zr759 Zr 0.25164 0.79584 0.77055
 Zr760 Zr 0.21352 0.73110 0.74797
 O761 O 0.27872 0.83425 0.78245
 O762 O 0.19737 0.68886 0.73030
 O763 O 0.24154 0.74997 0.78122
 O764 O 0.25589 0.70581 0.74966
 O765 O 0.30968 0.72732 0.74040
 O766 O 0.29513 0.77262 0.77280
 C767 C 0.17633 0.75959 0.69513
 C768 C 0.21934 0.84181 0.72683
 C769 C 0.25872 0.73190 0.64640
 O770 O 0.25305 0.67031 0.69729
 O771 O 0.30153 0.66972 0.72673
 O772 O 0.30836 0.68209 0.77550
 C773 C 0.31184 0.66377 0.75281
 O774 O 0.32593 0.80736 0.69892
 Zr775 Zr 0.31754 0.77374 0.73180
 O776 O 0.33192 0.72893 0.79398
 O777 O 0.32144 0.69914 0.68525
 O778 O 0.35349 0.75578 0.70315
 O779 O 0.33745 0.81288 0.75227
 O780 O 0.35506 0.75671 0.75756
 C781 C 0.35580 0.74056 0.78126
 O782 O 0.26787 0.69437 0.81166
 O783 O 0.20949 0.80735 0.79387
 O784 O 0.28097 0.74558 0.82442
 O785 O 0.25857 0.79331 0.81635
 O786 O 0.17468 0.74998 0.77246
 O787 O 0.20352 0.70309 0.78504
 C788 C 0.26990 0.77227 0.83347
 H789 H 0.20100 0.78871 0.73998
 H790 H 0.25182 0.68404 0.75464
 H791 H 0.30837 0.78184 0.78834
 H792 H 0.30000 0.75716 0.67972
 H793 H 0.17423 0.68898 0.73301
 H794 H 0.26653 0.65741 0.68378
 H795 H 0.31857 0.67920 0.67474
 H796 H 0.37308 0.76661 0.70793
 H797 H 0.15610 0.73767 0.76746
 H798 H 0.21263 0.82745 0.80402
 H799 H 0.26576 0.84692 0.79657
 H800 H 0.36042 0.81155 0.74844
 H801 H 0.18279 0.69363 0.78240
 H802 H 0.28539 0.68885 0.82517
 H803 H 0.24612 0.81566 0.65409
 H804 H 0.34844 0.81259 0.69895
 Zr805 Zr 0.25473 0.22462 0.21593
 O806 O 0.23928 0.19366 0.18289
 O807 O 0.30203 0.22776 0.20579
 O808 O 0.25873 0.24571 0.17359
 O809 O 0.26623 0.16861 0.26965
 O810 O 0.23187 0.29187 0.17926
 O811 O 0.27733 0.18080 0.22166
 O812 O 0.31986 0.26239 0.23978
 O813 O 0.26205 0.27159 0.22416
 O814 O 0.27493 0.22784 0.25796
 O815 O 0.21003 0.24612 0.21325
 O816 O 0.22340 0.20308 0.24515
 Zr817 Zr 0.20595 0.27737 0.29567
 Zr818 Zr 0.21720 0.29256 0.22385
 Zr819 Zr 0.24329 0.20876 0.28720
 Zr820 Zr 0.28069 0.27447 0.26668
 O821 O 0.21644 0.17012 0.29844
 O822 O 0.29681 0.31622 0.24861
 O823 O 0.25072 0.25536 0.29834
 O824 O 0.23713 0.29800 0.26590
 O825 O 0.18524 0.27422 0.25374
 O826 O 0.19886 0.23036 0.28695
 C827 C 0.32370 0.24338 0.21786
 C828 C 0.27933 0.16289 0.24432
 C829 C 0.24823 0.27206 0.16382
 O830 O 0.24106 0.33386 0.21547
 O831 O 0.18946 0.32987 0.23985
 O832 O 0.18325 0.32166 0.28941
 C833 C 0.17857 0.33751 0.26555
 O834 O 0.17520 0.19302 0.21112
 Zr835 Zr 0.17986 0.22735 0.24469
 O836 O 0.15830 0.27452 0.30492
 O837 O 0.17785 0.29940 0.19596
 O838 O 0.14545 0.24432 0.21473
 O839 O 0.16053 0.18719 0.26322
 O840 O 0.13994 0.24193 0.26929
 C841 C 0.13633 0.26024 0.29171
 O842 O 0.22040 0.30951 0.32811
 O843 O 0.28427 0.19856 0.31207
 O844 O 0.20619 0.25754 0.33918
 O845 O 0.23455 0.21230 0.33281
 O846 O 0.31731 0.25792 0.29449
 O847 O 0.28675 0.30512 0.30314
 C848 C 0.21960 0.23236 0.34913
 H849 H 0.29547 0.21675 0.25983
 H850 H 0.23983 0.32010 0.27092
 H851 H 0.18482 0.22094 0.30168
 H852 H 0.20125 0.24367 0.19315
 H853 H 0.31968 0.31697 0.25249
 H854 H 0.22825 0.34565 0.20096
 H855 H 0.18019 0.31973 0.18638
 H856 H 0.12594 0.23290 0.21830
 H857 H 0.33613 0.27021 0.29035
 H858 H 0.28122 0.17834 0.32166
 H859 H 0.22919 0.15784 0.31260
 H860 H 0.13793 0.18720 0.25797
 H861 H 0.30755 0.31471 0.30155
 H862 H 0.20170 0.31462 0.34065
 H863 H 0.25787 0.18826 0.17032
 H864 H 0.15277 0.18791 0.20909
 Zr865 Zr 0.72408 0.73270 0.28937
 O866 O 0.73711 0.70022 0.32209
 O867 O 0.67742 0.74345 0.30052
 O868 O 0.72281 0.75350 0.33231
 O869 O 0.71171 0.67700 0.23502
 O870 O 0.75021 0.79750 0.32538
 O871 O 0.70014 0.69043 0.28292
 O872 O 0.66274 0.78166 0.26853
 O873 O 0.72003 0.78034 0.28150
 O874 O 0.70345 0.73813 0.24782
 O875 O 0.77009 0.74927 0.29167
 O876 O 0.75416 0.70794 0.25966
 Zr877 Zr 0.77546 0.77998 0.20995
 Zr878 Zr 0.76582 0.79631 0.28160
 Zr879 Zr 0.73415 0.71577 0.21813
 Zr880 Zr 0.70098 0.78538 0.23942
 O881 O 0.75862 0.67472 0.20445
 O882 O 0.68841 0.83026 0.25569
 O883 O 0.72952 0.76288 0.20747
 O884 O 0.74574 0.80409 0.24008
 O885 O 0.79646 0.77446 0.25145
 O886 O 0.77977 0.73232 0.21788
 C887 C 0.65775 0.76373 0.29042
 C888 C 0.69888 0.67191 0.26025
 C889 C 0.73376 0.77952 0.34125
 O890 O 0.74490 0.84041 0.29068
 O891 O 0.79574 0.83043 0.26659
 O892 O 0.80050 0.82191 0.21680
 C893 C 0.80656 0.83713 0.24093
 O894 O 0.80225 0.69240 0.29264
 Zr895 Zr 0.79902 0.72715 0.25981
 O896 O 0.82276 0.77171 0.20037
 O897 O 0.80523 0.79860 0.30985
 O898 O 0.83435 0.73995 0.29014
 O899 O 0.81547 0.68508 0.23984
 O900 O 0.83971 0.73768 0.23560
 C901 C 0.84413 0.75578 0.21368
 O902 O 0.76330 0.81353 0.17794
 O903 O 0.69179 0.70979 0.19460
 O904 O 0.77264 0.76050 0.16627
 O905 O 0.74191 0.71871 0.17286
 O906 O 0.66216 0.77157 0.21371
 O907 O 0.69639 0.81425 0.20185
 C908 C 0.75736 0.73698 0.15646
 H909 H 0.68228 0.72926 0.24663
 H910 H 0.74435 0.82639 0.23539
 H911 H 0.79302 0.72139 0.20276
 H912 H 0.77896 0.74601 0.31164
 H913 H 0.66583 0.83410 0.25133
 H914 H 0.75815 0.85051 0.30571
 H915 H 0.80386 0.81898 0.32009
 H916 H 0.85317 0.72646 0.28619
 H917 H 0.64446 0.78636 0.21805
 H918 H 0.69362 0.68945 0.18433
 H919 H 0.74494 0.66406 0.19014
 H920 H 0.83816 0.68262 0.24444
 H921 H 0.67584 0.82558 0.20272
 H922 H 0.78229 0.81632 0.16549
 H923 H 0.71810 0.69690 0.33435
 H924 H 0.82417 0.68414 0.29358
 Zr925 Zr 0.77309 0.27470 0.78495
 O926 O 0.75639 0.30601 0.81814
 O927 O 0.82011 0.26954 0.79569
 O928 O 0.77499 0.25393 0.82757
 O929 O 0.78310 0.33152 0.73160
 O930 O 0.74979 0.20861 0.82025
 O931 O 0.79388 0.31868 0.77947
 O932 O 0.84017 0.23520 0.76132
 O933 O 0.78158 0.22735 0.77642
 O934 O 0.79465 0.27120 0.74324
 O935 O 0.72892 0.25419 0.78671
 O936 O 0.74208 0.29745 0.75560
 Zr937 Zr 0.72667 0.22410 0.70462
 Zr938 Zr 0.73722 0.20743 0.77557
 Zr939 Zr 0.76321 0.29125 0.71375
 Zr940 Zr 0.80155 0.22431 0.73420
 O941 O 0.73590 0.33046 0.70094
 O942 O 0.81820 0.18204 0.75247
 O943 O 0.77138 0.24434 0.70264
 O944 O 0.75831 0.20217 0.73383
 O945 O 0.70488 0.22745 0.74621
 O946 O 0.71921 0.27144 0.71353
 C947 C 0.84277 0.25386 0.78354
 C948 C 0.79510 0.33718 0.75711
 C949 C 0.76383 0.22818 0.83678
 O950 O 0.76305 0.16621 0.78503
 O951 O 0.71349 0.16869 0.75916
 O952 O 0.70319 0.18150 0.71127
 C953 C 0.70107 0.16326 0.73382
 O954 O 0.69259 0.30719 0.79094
 Zr955 Zr 0.69913 0.27471 0.75563
 O956 O 0.67945 0.23188 0.69320
 O957 O 0.69661 0.20078 0.80179
 O958 O 0.66354 0.25758 0.78361
 O959 O 0.68099 0.31718 0.73889
 O960 O 0.66050 0.26501 0.72913
 C961 C 0.65748 0.24865 0.70554
 O962 O 0.74102 0.19038 0.67266
 O963 O 0.80512 0.30042 0.69023
 O964 O 0.72966 0.24261 0.66115
 O965 O 0.75688 0.28686 0.66797
 O966 O 0.83772 0.24024 0.70617
 O967 O 0.80990 0.19337 0.69795
 C968 C 0.74344 0.26687 0.65144
 H969 H 0.81483 0.28194 0.74183
 H970 H 0.76167 0.18007 0.72847
 H971 H 0.70587 0.28190 0.69858
 H972 H 0.71924 0.25667 0.80660
 H973 H 0.84123 0.18061 0.74904
 H974 H 0.75068 0.15488 0.79985
 H975 H 0.69979 0.18075 0.81196
 H976 H 0.64403 0.27006 0.78011
 H977 H 0.85719 0.22807 0.71063
 H978 H 0.80174 0.32053 0.68025
 H979 H 0.74876 0.34179 0.68651
 H980 H 0.65832 0.31876 0.74410
 H981 H 0.83111 0.18354 0.69980
 H982 H 0.72244 0.18638 0.66017
 H983 H 0.77472 0.31107 0.83057
 H984 H 0.66999 0.31304 0.79284
 C985 C 0.39903 1.03101 0.30771
 C986 C 0.40210 1.00542 0.28797
 C987 C 0.41880 0.97875 0.29847
 C988 C 0.43062 0.97737 0.32747
 C989 C 0.42584 1.00291 0.34668
 C990 C 0.41063 1.02971 0.33646
 C991 C 0.43565 1.00111 0.37613
 C992 C 0.45056 0.97412 0.38691
 C993 C 0.45658 0.94912 0.36744
 C994 C 0.44642 0.95064 0.33794
 H995 H 0.42139 0.95837 0.28441
 H996 H 0.40706 1.04962 0.35098
 H997 H 0.43142 1.02078 0.39085
 H998 H 0.45051 0.93078 0.32347
 H999 H 0.38693 1.05223 0.30187
 H1000 H 0.46816 0.92817 0.37527
 C1001 C -0.05740 0.50784 0.77164
 C1002 C -0.08815 0.49591 0.77182
 C1003 C -0.09760 0.48185 0.79866
 C1004 C -0.07714 0.47754 0.82258
 C1005 C -0.04705 0.49029 0.82212
 C1006 C -0.03748 0.50547 0.79642
 C1007 C -0.02804 0.48881 0.84787
 C1008 C -0.03895 0.47382 0.87345
 C1009 C -0.06792 0.45906 0.87227
 C1010 C -0.08694 0.46117 0.84737
 H1011 H -0.12142 0.47416 0.80140
 H1012 H -0.01448 0.51556 0.79540
 H1013 H -0.00606 0.50087 0.84862
 H1014 H -0.10982 0.45077 0.84789
 H1015 H -0.04812 0.51948 0.75281
 H1016 H -0.07703 0.44779 0.89172
 C1017 C 0.07042 0.02313 0.77496
 C1018 C 0.09549 0.00090 0.77260
 C1019 C 0.09841 -0.02111 0.79519
 C1020 C 0.07677 -0.02128 0.81884
 C1021 C 0.05324 0.00238 0.82186
 C1022 C 0.05011 0.02430 0.79948
 C1023 C 0.03437 0.00436 0.84780
 C1024 C 0.03853 -0.01769 0.87019
 C1025 C 0.05954 -0.04306 0.86491
 C1026 C 0.07885 -0.04449 0.83997
 H1027 H 0.11780 -0.03780 0.79505
 H1028 H 0.03215 0.04252 0.80100
 H1029 H 0.01821 0.02390 0.85132
 H1030 H 0.09606 -0.06334 0.83766
 H1031 H 0.06739 0.04067 0.75821
 H1032 H 0.06274 -0.06095 0.88131
 C1033 C 0.57163 0.48336 0.28059
 C1034 C 0.59565 0.50507 0.27752
 C1035 C 0.60214 0.52374 0.30253
 C1036 C 0.58270 0.52405 0.32770
 C1037 C 0.55792 0.50314 0.32980
 C1038 C 0.55292 0.48253 0.30623
 C1039 C 0.53972 0.50233 0.35599
 C1040 C 0.54595 0.52258 0.37967
 C1041 C 0.56989 0.54397 0.37679
 C1042 C 0.58816 0.54468 0.35110
 H1043 H 0.62258 0.53799 0.30300
 H1044 H 0.53452 0.46578 0.30759
 H1045 H 0.52192 0.48509 0.35854
 H1046 H 0.60704 0.56093 0.34980
 H1047 H 0.56711 0.46714 0.26281
 H1048 H 0.57554 0.55908 0.39517
 C1049 C 0.56252 0.51438 0.22019
 C1050 C 0.59524 0.50740 0.22017
 C1051 C 0.60977 0.50086 0.19260
 C1052 C 0.59185 0.49470 0.16746
 C1053 C 0.55887 0.49974 0.16802
 C1054 C 0.54461 0.51071 0.19438
 C1055 C 0.54119 0.49435 0.14207
 C1056 C 0.55648 0.48319 0.11614
 C1057 C 0.58903 0.47641 0.11694
 C1058 C 0.60656 0.48254 0.14204
 H1059 H 0.63509 0.49726 0.19151
 H1060 H 0.51950 0.51564 0.19527
 H1061 H 0.51623 0.50007 0.14165
 H1062 H 0.63174 0.47791 0.14148
 H1063 H 0.55048 0.52232 0.24012
 H1064 H 0.60135 0.46782 0.09732
 C1065 C 0.10533 1.03099 0.69766
 C1066 C 0.09970 1.00684 0.71756
 C1067 C 0.07565 0.98599 0.71068
 C1068 C 0.05879 0.98825 0.68418
 C1069 C 0.06565 1.01195 0.66423
 C1070 C 0.08850 1.03347 0.67135
 C1071 C 0.05038 1.01316 0.63696
 C1072 C 0.02881 0.99052 0.62875
 C1073 C 0.02090 0.96784 0.64924
 C1074 C 0.03576 0.96676 0.67686
 H1075 H 0.07014 0.96780 0.72594
 H1076 H 0.09382 1.05192 0.65623
 H1077 H 0.05637 1.03112 0.62151
 H1078 H 0.03008 0.94849 0.69204
 H1079 H 0.12302 1.04789 0.70194
 H1080 H 0.00446 0.95014 0.64339
 C1081 C -0.09765 0.47024 0.69491
 C1082 C -0.09404 0.49615 0.71412
 C1083 C -0.07497 0.52019 0.70310
 C1084 C -0.06035 0.51815 0.67477
 C1085 C -0.06512 0.49207 0.65663
 C1086 C -0.08349 0.46828 0.66703
 C1087 C -0.05245 0.49047 0.62784
 C1088 C -0.03471 0.51464 0.61640
 C1089 C -0.02881 0.54014 0.63492
 C1090 C -0.04166 0.54196 0.66379
 H1091 H -0.07264 0.54126 0.71593
 H1092 H -0.08749 0.44812 0.65325
 H1093 H -0.05712 0.47057 0.61391
 H1094 H -0.03751 0.56226 0.67728
 H1095 H -0.11207 0.45106 0.70035
 H1096 H -0.01548 0.55922 0.62665
 C1097 C 0.44179 -0.00313 0.23301
 C1098 C 0.41052 0.00906 0.23156
 C1099 C 0.40188 0.02381 0.20479
 C1100 C 0.42357 0.02811 0.18181
 C1101 C 0.45418 0.01486 0.18344
 C1102 C 0.46302 -0.00064 0.20927
 C1103 C 0.47453 0.01589 0.15859
 C1104 C 0.46444 0.03079 0.13263
 C1105 C 0.43493 0.04621 0.13250
 C1106 C 0.41457 0.04465 0.15666
 H1107 H 0.37780 0.03162 0.20130
 H1108 H 0.48640 -0.01103 0.21112
 H1109 H 0.49693 0.00331 0.15867
 H1110 H 0.39130 0.05538 0.15520
 H1111 H 0.45046 -0.01519 0.25207
 H1112 H 0.42651 0.05731 0.11255
 C1113 C 0.28351 0.41219 0.01098
 C1114 C 0.28638 0.37945 0.00996
 C1115 C 0.31758 0.36655 0.01067
 C1116 C 0.34406 0.38516 0.01544
 C1117 C 0.34017 0.41762 0.01674
 C1118 C 0.30982 0.43079 0.01421
 C1119 C 0.36677 0.43638 0.01952
 C1120 C 0.39735 0.42313 0.02212
 C1121 C 0.40074 0.39072 0.02215
 C1122 C 0.37448 0.37195 0.01866
 H1123 H 0.32104 0.34170 0.00855
 H1124 H 0.30635 0.45570 0.01463
 H1125 H 0.36386 0.46134 0.01869
 H1126 H 0.37807 0.34706 0.01789
 H1127 H 0.26108 0.42409 0.00844
 H1128 H 0.42398 0.37989 0.02313
 C1129 C -0.20457 0.87089 0.47853
 C1130 C -0.22407 0.87049 0.50411
 C1131 C -0.21211 0.88482 0.53018
 C1132 C -0.18229 0.89869 0.53036
 C1133 C -0.16419 0.89860 0.50419
 C1134 C -0.17550 0.88473 0.47859
 C1135 C -0.13497 0.91262 0.50362
 C1136 C -0.12297 0.92755 0.52879
 C1137 C -0.14051 0.92693 0.55527
 C1138 C -0.16998 0.91263 0.55603
 H1139 H -0.22583 0.88479 0.55047
 H1140 H -0.16166 0.88439 0.45835
 H1141 H -0.12164 0.91226 0.48307
 H1142 H -0.18330 0.91286 0.57655
 H1143 H -0.21077 0.86022 0.45788
 H1144 H -0.13196 0.93824 0.57501
 C1145 C -0.19340 0.12972 1.01833
 C1146 C -0.21475 0.12632 0.99465
 C1147 C -0.20404 0.10806 0.96989
 C1148 C -0.17372 0.09335 0.96940
 C1149 C -0.15378 0.09678 0.99390
 C1150 C -0.16376 0.11510 1.01800
 C1151 C -0.12418 0.08154 0.99432
 C1152 C -0.11358 0.06233 0.97064
 C1153 C -0.13301 0.05981 0.94569
 C1154 C -0.16284 0.07511 0.94512
 H1155 H -0.21943 0.10521 0.95110
 H1156 H -0.14850 0.11818 1.03687
 H1157 H -0.10946 0.08426 1.01362
 H1158 H -0.17760 0.07223 0.92589
 H1159 H -0.19897 0.14380 1.03759
 H1160 H -0.12566 0.04522 0.92715
 C1161 C 0.28489 0.60685 0.51871
 C1162 C 0.27787 0.62273 0.49227
 C1163 C 0.29943 0.61834 0.46828
 C1164 C 0.32848 0.60210 0.47196
 C1165 C 0.33561 0.58836 0.49934
 C1166 C 0.31333 0.59030 0.52232
 C1167 C 0.36484 0.57277 0.50334
 C1168 C 0.38749 0.57063 0.48030
 C1169 C 0.37991 0.58419 0.45297
 C1170 C 0.35075 0.59963 0.44882
 H1171 H 0.29402 0.62735 0.44665
 H1172 H 0.31808 0.57936 0.54334
 H1173 H 0.36989 0.56237 0.52456
 H1174 H 0.34577 0.60996 0.42756
 H1175 H 0.26853 0.60822 0.53718
 H1176 H 0.39658 0.58297 0.43475
 C1177 C 0.21579 0.59813 0.46861
 C1178 C 0.21983 0.61878 0.49268
 C1179 C 0.19888 0.61607 0.51713
 C1180 C 0.17214 0.59740 0.51534
 C1181 C 0.16706 0.57950 0.48965
 C1182 C 0.18963 0.57923 0.46689
 C1183 C 0.13934 0.56249 0.48696
 C1184 C 0.11627 0.56304 0.50967
 C1185 C 0.12226 0.58010 0.53564
 C1186 C 0.14985 0.59699 0.53847
 H1187 H 0.20270 0.62871 0.53747
 H1188 H 0.18665 0.56499 0.44729
 H1189 H 0.13552 0.54927 0.46685
 H1190 H 0.15334 0.61044 0.55849
 H1191 H 0.23213 0.59801 0.45013
 H1192 H 0.10518 0.58109 0.55353
 C1193 C 0.72856 0.08763 -0.00137
 C1194 C 0.72446 0.12018 -0.00126
 C1195 C 0.69381 0.13244 0.00541
 C1196 C 0.66873 0.11337 0.01241
 C1197 C 0.67322 0.08100 0.01145
 C1198 C 0.70319 0.06839 0.00442
 C1199 C 0.64745 0.06194 0.01696
 C1200 C 0.61751 0.07500 0.02407
 C1201 C 0.61376 0.10725 0.02582
 C1202 C 0.63909 0.12628 0.02008
 H1203 H 0.68972 0.15730 0.00572
 H1204 H 0.70716 0.04354 0.00378
 H1205 H 0.65036 0.03703 0.01479
 H1206 H 0.63526 0.15115 0.02084
 H1207 H 0.75123 0.07661 -0.00561
 H1208 H 0.59074 0.11781 0.02959
 C1209 C 0.71484 0.90652 0.51488
 C1210 C 0.71495 0.87641 0.50243
 C1211 C 0.68622 0.86649 0.48995
 C1212 C 0.65985 0.88622 0.48765
 C1213 C 0.65995 0.91564 0.50115
 C1214 C 0.68757 0.92562 0.51468
 C1215 C 0.63209 0.93398 0.50158
 C1216 C 0.60477 0.92367 0.48736
 C1217 C 0.60617 0.89570 0.47145
 C1218 C 0.63318 0.87668 0.47229
 H1219 H 0.68409 0.84291 0.48211
 H1220 H 0.68811 0.94826 0.52512
 H1221 H 0.63144 0.95593 0.51341
 H1222 H 0.63316 0.85441 0.46107
 H1223 H 0.73536 0.91546 0.52545
 H1224 H 0.58590 0.88789 0.45953
 C1225 C 0.21480 0.39381 1.03009
 C1226 C 0.22527 0.37752 1.00442
 C1227 C 0.20472 0.37835 0.97949
 C1228 C 0.17587 0.39556 0.98005
 C1229 C 0.16661 0.41192 1.00589
 C1230 C 0.18622 0.41082 1.03076
 C1231 C 0.13773 0.42887 1.00661
 C1232 C 0.11748 0.42989 0.98177
 C1233 C 0.12715 0.41352 0.95607
 C1234 C 0.15592 0.39654 0.95525
 H1235 H 0.21044 0.36544 0.95951
 H1236 H 0.17939 0.42307 1.05093
 H1237 H 0.13104 0.44119 1.02679
 H1238 H 0.16255 0.38409 0.93513
 H1239 H 0.22911 0.39346 1.04983
 H1240 H 0.11237 0.41362 0.93665
 C1241 C 0.01293 0.27970 0.42932
 C1242 C -0.01334 0.27351 0.41140
 C1243 C -0.03673 0.29681 0.40792
 C1244 C -0.03106 0.32691 0.41716
 C1245 C -0.00363 0.33301 0.43341
 C1246 C 0.01747 0.30908 0.44056
 C1247 C 0.00264 0.36305 0.44190
 C1248 C -0.01783 0.38739 0.43400
 C1249 C -0.04454 0.38151 0.41698
 C1250 C -0.05147 0.35130 0.40906
 H1251 H -0.05842 0.29248 0.39653
 H1252 H 0.03842 0.31343 0.45332
 H1253 H 0.02355 0.36742 0.45475
 H1254 H -0.07237 0.34707 0.39621
 H1255 H 0.03112 0.26215 0.43292
 H1256 H -0.06041 0.40012 0.41039
 C1257 C 0.46914 -0.19619 -0.09914
 C1258 C 0.49325 -0.21786 -0.09161
 C1259 C 0.51596 -0.20914 -0.07085
 C1260 C 0.51431 -0.17999 -0.05753
 C1261 C 0.48969 -0.15902 -0.06509
 C1262 C 0.46707 -0.16739 -0.08556
 C1263 C 0.48862 -0.12948 -0.05289
 C1264 C 0.51204 -0.12031 -0.03340
 C1265 C 0.53622 -0.14134 -0.02537
 C1266 C 0.53734 -0.17110 -0.03743
 H1267 H 0.53544 -0.22489 -0.06581
 H1268 H 0.44841 -0.15124 -0.09191
 H1269 H 0.46961 -0.11353 -0.05886
 H1270 H 0.55637 -0.18695 -0.03138
 H1271 H 0.45238 -0.20057 -0.11644
 H1272 H 0.55446 -0.13464 -0.01018
 C1273 C -0.03168 -0.21584 1.08640
 C1274 C -0.00341 -0.22456 1.10071
 C1275 C 0.02225 -0.20478 1.09902
 C1276 C 0.01847 -0.17550 1.08688
 C1277 C -0.01054 -0.16663 1.07398
 C1278 C -0.03525 -0.18714 1.07328
 C1279 C -0.01425 -0.13753 1.06156
 C1280 C 0.01058 -0.11705 1.06209
 C1281 C 0.03915 -0.12556 1.07551
 C1282 C 0.04318 -0.15481 1.08765
 H1283 H 0.04517 -0.21171 1.10723
 H1284 H -0.05746 -0.18082 1.06304
 H1285 H -0.03634 -0.13090 1.05121
 H1286 H 0.06554 -0.16125 1.09754
 H1287 H -0.05143 -0.23111 1.08624
 H1288 H 0.05870 -0.11003 1.07567
 C1289 C 0.47173 0.28284 0.57493
 C1290 C 0.50039 0.27478 0.58897
 C1291 C 0.52638 0.29355 0.58441
 C1292 C 0.52254 0.32198 0.57069
 C1293 C 0.49298 0.33091 0.55888
 C1294 C 0.46802 0.31070 0.56015
 C1295 C 0.48871 0.36021 0.54678
 C1296 C 0.51334 0.38088 0.54751
 C1297 C 0.54287 0.37165 0.55856
 C1298 C 0.54759 0.34217 0.56974
 H1299 H 0.54956 0.28684 0.59210
 H1300 H 0.44538 0.31689 0.55070
 H1301 H 0.46601 0.36742 0.53800
 H1302 H 0.57043 0.33557 0.57853
 H1303 H 0.45171 0.26802 0.57664
 H1304 H 0.56231 0.38732 0.55856
 C1305 C 0.51725 1.21354 0.56125
 C1306 C 0.49589 1.21953 0.58477
 C1307 C 0.46884 1.20167 0.58663
 C1308 C 0.46811 1.17351 0.57185
 C1309 C 0.49251 1.16518 0.55175
 C1310 C 0.51564 1.18630 0.54485
 C1311 C 0.49470 1.13518 0.54066
 C1312 C 0.47364 1.11318 0.55055
 C1313 C 0.44817 1.12208 0.56892
 C1314 C 0.44511 1.15238 0.57916
 H1315 H 0.44957 1.20796 0.60142
 H1316 H 0.53387 1.18067 0.52864
 H1317 H 0.51409 1.12849 0.52601
 H1318 H 0.42606 1.15867 0.59431
 H1319 H 0.53688 1.22848 0.55759
 H1320 H 0.43104 1.10551 0.57584
 C1321 C 0.02174 0.71760 1.07070
 C1322 C -0.00365 0.72100 1.09089
 C1323 C -0.03048 0.70352 1.08614
 C1324 C -0.02856 0.67771 1.06768
 C1325 C -0.00080 0.67146 1.05102
 C1326 C 0.02328 0.69273 1.05100
 C1327 C 0.00340 0.64303 1.03667
 C1328 C -0.01914 0.62048 1.04024
 C1329 C -0.04777 0.62772 1.05472
 C1330 C -0.05269 0.65650 1.06798
 H1331 H -0.05205 0.70827 1.09838
 H1332 H 0.04423 0.68890 1.03752
 H1333 H 0.02525 0.63755 1.02498
 H1334 H -0.07429 0.66122 1.08029
 H1335 H 0.04159 0.73267 1.07207
 H1336 H -0.06589 0.61073 1.05666
 C1337 C 0.49531 0.72308 -0.05898
 C1338 C 0.50288 0.72340 -0.08947
 C1339 C 0.50943 0.69511 -0.10414
 C1340 C 0.50817 0.66736 -0.08932
 C1341 C 0.50066 0.66721 -0.05886
 C1342 C 0.49470 0.69521 -0.04376
 C1343 C 0.49878 0.63902 -0.04426
 C1344 C 0.50450 0.61130 -0.05997
 C1345 C 0.51161 0.61183 -0.09036
 C1346 C 0.51349 0.63969 -0.10493
 H1347 H 0.51422 0.69481 -0.12776
 H1348 H 0.48854 0.69547 -0.02045
 H1349 H 0.49345 0.63868 -0.02077
 H1350 H 0.51904 0.63959 -0.12838
 H1351 H 0.48835 0.74392 -0.04700
 H1352 H 0.51589 0.59065 -0.10294
 C1353 C -0.03131 1.21569 0.44005
 C1354 C -0.00836 1.21824 0.41755
 C1355 C 0.01728 1.19710 0.41698
 C1356 C 0.01471 1.16915 0.43126
 C1357 C -0.01133 1.16449 0.45008
 C1358 C -0.03276 1.18876 0.45632
 C1359 C -0.01667 1.13519 0.46070
 C1360 C 0.00313 1.11035 0.45194
 C1361 C 0.02993 1.11536 0.43452
 C1362 C 0.03599 1.14483 0.42458
 H1363 H 0.03777 1.20061 0.40329
 H1364 H -0.05219 1.18588 0.47159
 H1365 H -0.03707 1.13152 0.47464
 H1366 H 0.05621 1.14822 0.41039
 H1367 H -0.05006 1.23301 0.44260
 H1368 H 0.04615 1.09654 0.42853
 C1369 C 0.71936 0.69366 0.97599
 C1370 C 0.74397 0.67083 0.97668
 C1371 C 0.76689 0.67144 0.95415
 C1372 C 0.76546 0.69410 0.93213
 C1373 C 0.73885 0.71433 0.92988
 C1374 C 0.71613 0.71421 0.95238
 C1375 C 0.73495 0.73295 0.90447
 C1376 C 0.75846 0.73237 0.88242
 C1377 C 0.78697 0.71594 0.88785
 C1378 C 0.79000 0.69621 0.91175
 H1379 H 0.78543 0.65396 0.95272
 H1380 H 0.69580 0.72985 0.95167
 H1381 H 0.71306 0.74578 0.90093
 H1382 H 0.81119 0.68187 0.91374
 H1383 H 0.70128 0.69423 0.99299
 H1384 H 0.80597 0.71589 0.87176
 C1385 C 0.26788 0.16409 0.46008
 C1386 C 0.23884 0.16066 0.47502
 C1387 C 0.21281 0.17888 0.46465
 C1388 C 0.21473 0.19572 0.43784
 C1389 C 0.24341 0.19573 0.42202
 C1390 C 0.26997 0.18076 0.43386
 C1391 C 0.24505 0.20995 0.39417
 C1392 C 0.21835 0.22434 0.38130
 C1393 C 0.19021 0.22583 0.39786
 C1394 C 0.18842 0.21167 0.42586
 H1395 H 0.19067 0.17864 0.47664
 H1396 H 0.29248 0.18150 0.42255
 H1397 H 0.26698 0.20865 0.38178
 H1398 H 0.16613 0.21221 0.43761
 H1399 H 0.28943 0.15360 0.46827
 H1400 H 0.16919 0.23638 0.38848
 C1401 C 0.73922 0.36038 0.44602
 C1402 C 0.75174 0.34168 0.46874
 C1403 C 0.76326 0.31153 0.46103
 C1404 C 0.76229 0.30076 0.43134
 C1405 C 0.74935 0.32012 0.40936
 C1406 C 0.73761 0.34965 0.41698
 C1407 C 0.74887 0.31014 0.37980
 C1408 C 0.76140 0.28088 0.37110
 C1409 C 0.77425 0.26154 0.39306
 C1410 C 0.77464 0.27137 0.42290
 H1411 H 0.77410 0.29698 0.47766
 H1412 H 0.72792 0.36488 0.40026
 H1413 H 0.73884 0.32563 0.36345
 H1414 H 0.78480 0.25608 0.43932
 H1415 H 0.73133 0.38397 0.45064
 H1416 H 0.78399 0.23889 0.38720
 C1417 C 0.26893 0.86475 0.93779
 C1418 C 0.26188 0.84489 0.96147
 C1419 C 0.25740 0.81322 0.95439
 C1420 C 0.26230 0.80184 0.92505
 C1421 C 0.27016 0.82255 0.90242
 C1422 C 0.27316 0.85384 0.90901
 C1423 C 0.27404 0.81203 0.87317
 C1424 C 0.27017 0.78084 0.86548
 C1425 C 0.26340 0.75986 0.88807
 C1426 C 0.25931 0.77031 0.91759
 H1427 H 0.24969 0.79747 0.97116
 H1428 H 0.27873 0.87008 0.89177
 H1429 H 0.27947 0.82849 0.85605
 H1430 H 0.25342 0.75383 0.93449
 H1431 H 0.27139 0.88927 0.94139
 H1432 H 0.26003 0.73572 0.88273
 C1433 C 0.27445 0.80977 0.02257
 C1434 C 0.25709 0.83802 0.02040
 C1435 C 0.24019 0.84804 0.04609
 C1436 C 0.23645 0.82903 0.07061
 C1437 C 0.25300 0.80042 0.07209
 C1438 C 0.27237 0.79121 0.04799
 C1439 C 0.25103 0.78272 0.09826
 C1440 C 0.23207 0.79346 0.12227
 C1441 C 0.21446 0.82114 0.11942
 C1442 C 0.21675 0.83884 0.09402
 H1443 H 0.22950 0.87101 0.04734
 H1444 H 0.28603 0.76972 0.04881
 H1445 H 0.26544 0.76185 0.10061
 H1446 H 0.20368 0.86068 0.09301
 H1447 H 0.29006 0.80205 0.00484
 H1448 H 0.20036 0.83012 0.13782
 C1449 C 0.79107 0.33525 0.54198
 C1450 C 0.76358 0.33354 0.52471
 C1451 C 0.74036 0.31265 0.53375
 C1452 C 0.74259 0.29735 0.56112
 C1453 C 0.76912 0.30170 0.57905
 C1454 C 0.79376 0.31954 0.56872
 C1455 C 0.76994 0.28956 0.60771
 C1456 C 0.74434 0.27345 0.61922
 C1457 C 0.71884 0.26742 0.60062
 C1458 C 0.71800 0.27925 0.57174
 H1459 H 0.71957 0.30981 0.52047
 H1460 H 0.81457 0.32261 0.58203
 H1461 H 0.79000 0.29401 0.62168
 H1462 H 0.69748 0.27545 0.55824
 H1463 H 0.81015 0.34993 0.53585
 H1464 H 0.69887 0.25508 0.60891
 C1465 C 0.20550 0.16408 0.54749
 C1466 C 0.23342 0.16126 0.53035
 C1467 C 0.25929 0.17886 0.53982
 C1468 C 0.25928 0.19325 0.56813
 C1469 C 0.23240 0.19177 0.58646
 C1470 C 0.20522 0.17849 0.57534
 C1471 C 0.23333 0.20280 0.61588
 C1472 C 0.26074 0.21578 0.62741
 C1473 C 0.28678 0.21901 0.60848
 C1474 C 0.28612 0.20771 0.57916
 H1475 H 0.28042 0.17895 0.52629
 H1476 H 0.18388 0.17840 0.58857
 H1477 H 0.21294 0.20050 0.63015
 H1478 H 0.30699 0.20932 0.56545
 H1479 H 0.18383 0.15416 0.54011
 H1480 H 0.30816 0.22887 0.61679
 C1481 C 0.71433 0.65864 0.05052
 C1482 C 0.73987 0.66363 0.03129
 C1483 C 0.76214 0.68581 0.03982
 C1484 C 0.75990 0.70128 0.06731
 C1485 C 0.73454 0.69524 0.08633
 C1486 C 0.71168 0.67434 0.07761
 C1487 C 0.73293 0.70932 0.11431
 C1488 C 0.75700 0.72852 0.12448
 C1489 C 0.78157 0.73550 0.10501
 C1490 C 0.78289 0.72211 0.07650
 H1491 H 0.78140 0.69093 0.02509
 H1492 H 0.69199 0.66964 0.09205
 H1493 H 0.71341 0.70405 0.12879
 H1494 H 0.80249 0.72713 0.06207
 H1495 H 0.69627 0.64252 0.04495
 H1496 H 0.80039 0.75008 0.11223
 C1497 C 0.16541 0.53448 0.24186
 C1498 C 0.13233 0.53821 0.24009
 C1499 C 0.12023 0.56783 0.23187
 C1500 C 0.13993 0.59316 0.22830
 C1501 C 0.17250 0.58942 0.23326
 C1502 C 0.18504 0.55986 0.23938
 C1503 C 0.19184 0.61536 0.23228
 C1504 C 0.17912 0.64483 0.22539
 C1505 C 0.14700 0.64790 0.21877
 C1506 C 0.12750 0.62238 0.22047
 H1507 H 0.09509 0.57128 0.22903
 H1508 H 0.21018 0.55628 0.24208
 H1509 H 0.21665 0.61280 0.23740
 H1510 H 0.10258 0.62564 0.21628
 H1511 H 0.17665 0.51213 0.24505
 H1512 H 0.13666 0.67041 0.21382
 C1513 C 0.65586 0.02920 0.76326
 C1514 C 0.62429 0.03493 0.75297
 C1515 C 0.61651 0.06264 0.73815
 C1516 C 0.63890 0.08559 0.73430
 C1517 C 0.66935 0.08158 0.74621
 C1518 C 0.67761 0.05328 0.76015
 C1519 C 0.69026 0.10669 0.74531
 C1520 C 0.68157 0.13494 0.73135
 C1521 C 0.65206 0.13721 0.71768
 C1522 C 0.63087 0.11307 0.71947
 H1523 H 0.59282 0.06657 0.73009
 H1524 H 0.70039 0.05055 0.77052
 H1525 H 0.71300 0.10450 0.75589
 H1526 H 0.60775 0.11625 0.70982
 H1527 H 0.66287 0.00987 0.78497
 H1528 H 0.64463 0.15847 0.70700
 C1529 C 0.90164 0.05783 0.25274
 C1530 C 0.88253 0.03156 0.25074
 C1531 C 0.84971 0.03660 0.25512
 C1532 C 0.83659 0.06683 0.25914
 C1533 C 0.85629 0.09262 0.25964
 C1534 C 0.88881 0.08772 0.25669
 C1535 C 0.84313 0.12290 0.26254
 C1536 C 0.81036 0.12776 0.26464
 C1537 C 0.79101 0.10196 0.26466
 C1538 C 0.80395 0.07184 0.26230
 H1539 H 0.83420 0.01727 0.25597
 H1540 H 0.90444 0.10706 0.25738
 H1541 H 0.85819 0.14269 0.26177
 H1542 H 0.78832 0.05249 0.26200
 H1543 H 0.92697 0.05509 0.25090
 H1544 H 0.76567 0.10523 0.26556
 C1545 C 0.34391 0.52351 0.73483
 C1546 C 0.37448 0.52297 0.74704
 C1547 C 0.38616 0.55187 0.75676
 C1548 C 0.36731 0.57912 0.75696
 C1549 C 0.33694 0.57885 0.74473
 C1550 C 0.32566 0.55100 0.73341
 C1551 C 0.31857 0.60649 0.74383
 C1552 C 0.32972 0.63410 0.75625
 C1553 C 0.35949 0.63376 0.76947
 C1554 C 0.37832 0.60666 0.76942
 H1555 H 0.41005 0.55322 0.76474
 H1556 H 0.30241 0.55033 0.72380
 H1557 H 0.29561 0.60657 0.73353
 H1558 H 0.40152 0.60723 0.77915
 H1559 H 0.33358 0.50288 0.72622
 H1560 H 0.36868 0.65481 0.77880
 C1561 C 0.36880 0.44908 0.78076
 C1562 C 0.37349 0.46357 0.75318
 C1563 C 0.36015 0.44906 0.72789
 C1564 C 0.34565 0.42021 0.72979
 C1565 C 0.34244 0.40625 0.75757
 C1566 C 0.35336 0.42119 0.78288
 C1567 C 0.32885 0.37723 0.75974
 C1568 C 0.31855 0.36122 0.73439
 C1569 C 0.32194 0.37520 0.70663
 C1570 C 0.33517 0.40453 0.70438
 H1571 H 0.36270 0.45942 0.70631
 H1572 H 0.35083 0.41077 0.80445
 H1573 H 0.32673 0.36695 0.78141
 H1574 H 0.33754 0.41479 0.68274
 H1575 H 0.37755 0.45827 0.80120
 H1576 H 0.31417 0.36360 0.68674
 C1577 C 0.85374 0.97129 0.22160
 C1578 C 0.87604 0.97140 0.24472
 C1579 C 0.88079 0.94338 0.26028
 C1580 C 0.86375 0.91677 0.25340
 C1581 C 0.84081 0.91752 0.23092
 C1582 C 0.83596 0.94510 0.21525
 C1583 C 0.82318 0.89077 0.22479
 C1584 C 0.82848 0.86345 0.24110
 C1585 C 0.85226 0.86305 0.26259
 C1586 C 0.86967 0.88922 0.26863
 H1587 H 0.89885 0.94147 0.27695
 H1588 H 0.81888 0.94625 0.19759
 H1589 H 0.80460 0.89163 0.20850
 H1590 H 0.88738 0.88805 0.28575
 H1591 H 0.85051 0.99152 0.20793
 H1592 H 0.85664 0.84250 0.27562
 C1593 C 0.65538 0.98568 0.76825
 C1594 C 0.62379 0.97969 0.75878
 C1595 C 0.61467 0.94918 0.75325
 C1596 C 0.63515 0.92397 0.75944
 C1597 C 0.66639 0.92903 0.76840
 C1598 C 0.67630 0.95986 0.77212
 C1599 C 0.68675 0.90303 0.77423
 C1600 C 0.67570 0.87239 0.77228
 C1601 C 0.64430 0.86831 0.76415
 C1602 C 0.62441 0.89362 0.75758
 H1603 H 0.59101 0.94499 0.74575
 H1604 H 0.69945 0.96394 0.78093
 H1605 H 0.71117 0.90656 0.77966
 H1606 H 0.60047 0.88938 0.75091
 H1607 H 0.63552 0.84519 0.76145
 C1608 C 0.14518 0.47802 0.27862
 C1609 C 0.12473 0.47982 0.25405
 C1610 C 0.11528 0.45135 0.24162
 C1611 C 0.12829 0.42287 0.25094
 C1612 C 0.15124 0.42191 0.27339
 C1613 C 0.15902 0.44971 0.28749
 C1614 C 0.16622 0.39330 0.28073
 C1615 C 0.15815 0.36591 0.26572
 C1616 C 0.13377 0.36723 0.24488
 C1617 C 0.11898 0.39527 0.23761
 H1618 H 0.09727 0.45097 0.22483
 H1619 H 0.17573 0.44960 0.30548
 H1620 H 0.18525 0.39267 0.29657
 H1621 H 0.10109 0.39549 0.22064
 H1622 H 0.15091 0.49880 0.29075
 H1623 H 0.12734 0.34653 0.23291
 C1624 C 0.03894 0.27140 0.83573
 C1625 C 0.03303 0.24539 0.85333
 C1626 C 0.05556 0.22091 0.85363
 C1627 C 0.08516 0.22462 0.84125
 C1628 C 0.09142 0.25176 0.82548
 C1629 C 0.06789 0.27456 0.82195
 C1630 C 0.12116 0.25571 0.81351
 C1631 C 0.14491 0.23309 0.81749
 C1632 C 0.13882 0.20644 0.83374
 C1633 C 0.10890 0.20200 0.84522
 H1634 H 0.05084 0.19919 0.86415
 H1635 H 0.07222 0.29526 0.80943
 H1636 H 0.12581 0.27646 0.80113
 H1637 H 0.10446 0.18116 0.85748
 H1638 H 0.02151 0.29002 0.83395
 H1639 H 0.15693 0.18876 0.83700
 C1640 C 0.54335 0.71602 0.35640
 C1641 C 0.52600 0.74431 0.35839
 C1642 C 0.53824 0.77061 0.34492
 C1643 C 0.56781 0.76930 0.33159
 C1644 C 0.58549 0.74118 0.33128
 C1645 C 0.57307 0.71467 0.34355
 C1646 C 0.61505 0.73977 0.31805
 C1647 C 0.62699 0.76599 0.30465
 C1648 C 0.60929 0.79385 0.30462
 C1649 C 0.57984 0.79556 0.31824
 H1650 H 0.52448 0.79209 0.34475
 H1651 H 0.58607 0.69275 0.34268
 H1652 H 0.62851 0.71807 0.31763
 H1653 H 0.56647 0.81726 0.31822
 H1654 H 0.53391 0.69461 0.36417
 H1655 H 0.61836 0.81431 0.29435
 C1656 C 0.52198 0.22549 0.17192
 C1657 C 0.51592 0.25294 0.15596
 C1658 C 0.53645 0.27756 0.15948
 C1659 C 0.56494 0.27300 0.17394
 C1660 C 0.57192 0.24445 0.18775
 C1661 C 0.54975 0.22128 0.18763
 C1662 C 0.60136 0.23924 0.20054
 C1663 C 0.62415 0.26180 0.19846
 C1664 C 0.61682 0.29029 0.18523
 C1665 C 0.58722 0.29608 0.17347
 H1666 H 0.53114 0.30000 0.15015
 H1667 H 0.55442 0.19947 0.19857
 H1668 H 0.60700 0.21726 0.21083
 H1669 H 0.58221 0.31809 0.16301
 H1670 H 0.50576 0.20667 0.17094
 H1671 H 0.63411 0.30806 0.18383
 C1672 C 0.03547 0.74112 0.68038
 C1673 C 0.03432 0.74761 0.64991
 C1674 C 0.06180 0.75665 0.63528
 C1675 C 0.08956 0.75988 0.65048
 C1676 C 0.09051 0.75332 0.68095
 C1677 C 0.06337 0.74432 0.69585
 C1678 C 0.11894 0.75453 0.69570
 C1679 C 0.14633 0.76174 0.68018
 C1680 C 0.14502 0.76949 0.65017
 C1681 C 0.11664 0.76855 0.63533
 H1682 H 0.06151 0.76061 0.61161
 H1683 H 0.06399 0.73883 0.71919
 H1684 H 0.11987 0.74903 0.71905
 H1685 H 0.11602 0.77376 0.61193
 H1686 H 0.01539 0.73244 0.69212
 H1687 H 0.16606 0.77517 0.63797
 C1688 C 0.95348 0.71482 0.63830
 C1689 C 0.97517 0.73718 0.64740
 C1690 C 0.96548 0.75976 0.66828
 C1691 C 0.93519 0.76025 0.67972
 C1692 C 0.91398 0.73748 0.67074
 C1693 C 0.92343 0.71461 0.65038
 C1694 C 0.88343 0.73833 0.68184
 C1695 C 0.87391 0.76173 0.70176
 C1696 C 0.89503 0.78459 0.71027
 C1697 C 0.92554 0.78379 0.69936
 H1698 H 0.98121 0.77791 0.67464
 H1699 H 0.90725 0.69729 0.64294
 H1700 H 0.86729 0.72059 0.67524
 H1701 H 0.94152 0.80154 0.70622
 H1702 H 0.95895 0.69816 0.62089
 H1703 H 0.88812 0.80300 0.72562
 C1704 C 0.45478 0.27944 0.17838
 C1705 C 0.45971 0.25429 0.15853
 C1706 C 0.44068 0.22849 0.16118
 C1707 C 0.41344 0.23053 0.17815
 C1708 C 0.40671 0.25742 0.19534
 C1709 C 0.42832 0.28108 0.19656
 C1710 C 0.37782 0.26084 0.20977
 C1711 C 0.35525 0.23831 0.20595
 C1712 C 0.36258 0.21108 0.18981
 C1713 C 0.39181 0.20694 0.17646
 H1714 H 0.44594 0.20725 0.14908
 H1715 H 0.42396 0.30147 0.21027
 H1716 H 0.37224 0.28179 0.22236
 H1717 H 0.39677 0.18614 0.16347
 H1718 H 0.47055 0.29866 0.17842
 H1719 H 0.34548 0.19324 0.18693
 C1720 C 0.46983 0.71967 0.32564
 C1721 C 0.47250 0.74686 0.34291
 C1722 C 0.45742 0.77410 0.33317
 C1723 C 0.43285 0.77214 0.31328
 C1724 C 0.42632 0.74329 0.29993
 C1725 C 0.44660 0.71784 0.30428
 C1726 C 0.39805 0.73965 0.28518
 C1727 C 0.37578 0.76395 0.28557
 C1728 C 0.38355 0.79333 0.29625
 C1729 C 0.41240 0.79759 0.30955
 H1730 H 0.46225 0.79625 0.34327
 H1731 H 0.44272 0.69588 0.29332
 H1732 H 0.39203 0.71718 0.27634
 H1733 H 0.41737 0.81994 0.31925
 H1734 H 0.48365 0.69901 0.33069
 H1735 H 0.36671 0.81259 0.29549
 C1736 C 0.97493 0.21966 0.82748
 C1737 C 0.97684 0.24501 0.84734
 C1738 C 0.95627 0.27054 0.84329
 C1739 C 0.93022 0.26792 0.82522
 C1740 C 0.92610 0.24061 0.80840
 C1741 C 0.94950 0.21728 0.80841
 C1742 C 0.89804 0.23659 0.79311
 C1743 C 0.87386 0.25909 0.79572
 C1744 C 0.87891 0.28682 0.81127
 C1745 C 0.90713 0.29145 0.82547
 H1746 H 0.95935 0.29209 0.85510
 H1747 H 0.94734 0.19660 0.79492
 H1748 H 0.89430 0.21532 0.78089
 H1749 H 0.91012 0.31261 0.83809
 H1750 H 0.99207 0.20069 0.82830
 H1751 H 0.86066 0.30470 0.81320
 C1752 C 0.54553 1.00568 0.73320
 C1753 C 0.57872 1.00642 0.73041
 C1754 C 0.59123 1.00843 0.70152
 C1755 C 0.57163 1.01217 0.67679
 C1756 C 0.53863 1.01026 0.67971
 C1757 C 0.52592 1.00666 0.70819
 C1758 C 0.51933 1.01155 0.65408
 C1759 C 0.53305 1.01594 0.62593
 C1760 C 0.56567 1.02092 0.62437
 C1761 C 0.58473 1.01837 0.64918
 H1762 H 0.61652 1.00906 0.69851
 H1763 H 0.50070 1.00547 0.71125
 H1764 H 0.49434 1.00767 0.65586
 H1765 H 0.60989 1.02085 0.64664
 H1766 H 0.53423 1.00466 0.75460
 H1767 H 0.57697 1.02485 0.60324
 C1768 C 0.11269 0.49870 1.19021
 C1769 C 0.09306 0.50841 1.21405
 C1770 C 0.06171 0.51832 1.20756
 C1771 C 0.05068 0.51814 1.17797
 C1772 C 0.07115 0.50807 1.15494
 C1773 C 0.10191 0.49829 1.16130
 C1774 C 0.06086 0.50788 1.12561
 C1775 C 0.02991 0.51720 1.11810
 C1776 C 0.00951 0.52756 1.14102
 C1777 C 0.01984 0.52811 1.17067
 H1778 H 0.04627 0.52698 1.22507
 H1779 H 0.11791 0.49063 1.14377
 H1780 H 0.07731 0.49997 1.10855
 H1781 H 0.00363 0.53608 1.18789
 H1782 H 0.13698 0.49176 1.19410
 H1783 H -0.01446 0.53478 1.13611
 C1784 C -0.06160 -0.03194 1.21456
 C1785 C -0.07960 -0.00434 1.21986
 C1786 C -0.07952 0.01825 1.19757
 C1787 C -0.06128 0.01416 1.17185
 C1788 C -0.04393 -0.01376 1.16668
 C1789 C -0.04413 -0.03662 1.18840
 C1790 C -0.02803 -0.01869 1.13937
 C1791 C -0.02967 0.00422 1.11753
 C1792 C -0.04527 0.03262 1.12405
 C1793 C -0.06105 0.03747 1.15074
 H1794 H -0.09434 0.03888 1.19929
 H1795 H -0.03112 -0.05828 1.18502
 H1796 H -0.01619 -0.04069 1.13451
 H1797 H -0.07382 0.05921 1.15451
 H1798 H -0.06134 -0.05021 1.23074
 H1799 H -0.04647 0.05078 1.10773
 C1800 C 0.42784 0.45739 0.71344
 C1801 C 0.41590 0.48732 0.72150
 C1802 C 0.42507 0.51226 0.70390
 C1803 C 0.44280 0.50726 0.67797
 C1804 C 0.45200 0.47689 0.66896
 C1805 C 0.44501 0.45219 0.68731
 C1806 C 0.46703 0.47183 0.64136
 C1807 C 0.47251 0.49700 0.62295
 C1808 C 0.46516 0.52718 0.63310
 C1809 C 0.45052 0.53231 0.66034
 H1810 H 0.41822 0.53574 0.70980
 H1811 H 0.45255 0.42879 0.68135
 H1812 H 0.47250 0.44851 0.63350
 H1813 H 0.44405 0.55578 0.66704
 H1814 H 0.42353 0.43770 0.72732
 H1815 H 0.46938 0.54685 0.61910
 C1816 C 0.44938 0.48593 -0.22323
 C1817 C 0.41708 0.49515 -0.22279
 C1818 C 0.40488 0.50801 -0.19604
 C1819 C 0.42373 0.51159 -0.17107
 C1820 C 0.45560 0.50151 -0.17184
 C1821 C 0.46819 0.48893 -0.19813
 C1822 C 0.47378 0.50289 -0.14594
 C1823 C 0.45995 0.51374 -0.11939
 C1824 C 0.42873 0.52526 -0.11938
 C1825 C 0.41080 0.52433 -0.14500
 H1826 H 0.38020 0.51493 -0.19459
 H1827 H 0.49261 0.48109 -0.19923
 H1828 H 0.49771 0.49355 -0.14592
 H1829 H 0.38647 0.53246 -0.14410
 H1830 H 0.46070 0.47611 -0.24269
 H1831 H 0.41770 0.53364 -0.09903
 C1832 C -0.04817 0.99666 0.27793
 C1833 C -0.08148 0.99652 0.27695
 C1834 C -0.09795 0.99876 0.30407
 C1835 C -0.08214 1.00177 0.33099
 C1836 C -0.04891 1.00089 0.33177
 C1837 C -0.03218 0.99810 0.30499
 C1838 C -0.03326 1.00269 0.35929
 C1839 C -0.05086 1.00563 0.38574
 C1840 C -0.08392 1.00835 0.38404
 C1841 C -0.09934 1.00612 0.35714
 H1842 H -0.12346 0.99942 0.30399
 H1843 H -0.00670 0.99788 0.30488
 H1844 H -0.00783 1.00062 0.36019
 H1845 H -0.12483 1.00748 0.35688
 H1846 H -0.03407 0.99659 0.25799
 H1847 H -0.09819 1.01120 0.40388
 C1848 C 0.09132 0.54327 0.29115
 C1849 C 0.08555 0.51905 0.27075
 C1850 C 0.06204 0.49777 0.27842
 C1851 C 0.04733 0.49898 0.30656
 C1852 C 0.05492 0.52269 0.32669
 C1853 C 0.07581 0.54534 0.31831
 C1854 C 0.04316 0.52247 0.35564
 C1855 C 0.02434 0.49842 0.36554
 C1856 C 0.01529 0.47566 0.34513
 C1857 C 0.02671 0.47596 0.31579
 H1858 H 0.05723 0.47876 0.26349
 H1859 H 0.08182 0.56367 0.33364
 H1860 H 0.04980 0.54056 0.37099
 H1861 H 0.02042 0.45756 0.30070
 H1862 H 0.10942 0.55982 0.28760
 H1863 H 0.00061 0.45703 0.35216
 C1864 C 0.58630 0.03799 -0.19431
 C1865 C 0.58424 0.01111 -0.21221
 C1866 C 0.56788 -0.01416 -0.20031
 C1867 C 0.55607 -0.01337 -0.17109
 C1868 C 0.56027 0.01313 -0.15336
 C1869 C 0.57467 0.03887 -0.16536
 C1870 C 0.55052 0.01337 -0.12368
 C1871 C 0.53634 -0.01249 -0.11116
 C1872 C 0.53081 -0.03833 -0.12923
 C1873 C 0.54079 -0.03885 -0.15897
 H1874 H 0.56469 -0.03475 -0.21354
 H1875 H 0.57756 0.05961 -0.15210
 H1876 H 0.55431 0.03375 -0.11012
 H1877 H 0.53711 -0.05937 -0.17231
 H1878 H 0.59762 0.05844 -0.20211
 H1879 H 0.51977 -0.05842 -0.12013
 C1880 C 0.72392 0.59272 0.00829
 C1881 C 0.71775 0.62254 -0.00467
 C1882 C 0.69257 0.62580 -0.02486
 C1883 C 0.67113 0.60188 -0.02887
 C1884 C 0.67524 0.57392 -0.01339
 C1885 C 0.70197 0.56929 0.00434
 C1886 C 0.65156 0.55175 -0.01448
 C1887 C 0.62389 0.55696 -0.03108
 C1888 C 0.62142 0.58373 -0.04834
 C1889 C 0.64477 0.60598 -0.04721
 H1890 H 0.68868 0.64682 -0.03705
 H1891 H 0.70501 0.54816 0.01677
 H1892 H 0.65393 0.53111 -0.00118
 H1893 H 0.64142 0.62710 -0.05962
 H1894 H 0.74249 0.58868 0.03091
 H1895 H 0.60042 0.58850 -0.06114
 C1896 C 0.20303 1.09735 0.52585
 C1897 C 0.20796 1.11666 0.50127
 C1898 C 0.18825 1.11231 0.47627
 C1899 C 0.16301 1.09154 0.47719
 C1900 C 0.15808 1.07390 0.50277
 C1901 C 0.17851 1.07664 0.52671
 C1902 C 0.13256 1.05399 0.50437
 C1903 C 0.11093 1.05150 0.48092
 C1904 C 0.11645 1.06856 0.45512
 C1905 C 0.14228 1.08821 0.45322
 H1906 H 0.19235 1.12452 0.45596
 H1907 H 0.17534 1.06295 0.54639
 H1908 H 0.12909 1.04108 0.52450
 H1909 H 0.14556 1.10141 0.43325
 H1910 H 0.21814 1.09876 0.54499
 H1911 H 0.10034 1.06740 0.43671
 C1912 C 0.23457 -0.08618 0.99365
 C1913 C 0.22907 -0.11882 0.99272
 C1914 C 0.19871 -0.12977 0.99785
 C1915 C 0.17400 -0.10921 1.00602
 C1916 C 0.17865 -0.07698 1.00620
 C1917 C 0.20873 -0.06583 0.99965
 C1918 C 0.15260 -0.05651 1.01117
 C1919 C 0.12266 -0.06800 1.01777
 C1920 C 0.11925 -0.10001 1.02017
 C1921 C 0.14454 -0.12045 1.01399
 H1922 H 0.19512 -0.15449 0.99777
 H1923 H 0.21203 -0.04119 0.99780
 H1924 H 0.15524 -0.03182 1.00871
 H1925 H 0.14078 -0.14511 1.01456
 H1926 H 0.25706 -0.07332 0.97866
 H1927 H 0.09629 -0.10932 1.02448
 C1928 C 0.73395 0.40634 0.52140
 C1929 C 0.72758 0.37636 0.50910
 C1930 C 0.69655 0.36816 0.50326
 C1931 C 0.67152 0.38910 0.50909
 C1932 C 0.67737 0.41935 0.51960
 C1933 C 0.70848 0.42746 0.52618
 C1934 C 0.65185 0.44075 0.52350
 C1935 C 0.62090 0.43175 0.51762
 C1936 C 0.61556 0.40131 0.50846
 C1937 C 0.64058 0.38025 0.50405
 H1938 H 0.69193 0.34578 0.49352
 H1939 H 0.71298 0.44963 0.53643
 H1940 H 0.65606 0.46438 0.53024
 H1941 H 0.63573 0.35712 0.49619
 H1942 H 0.75939 0.41120 0.53706
 H1943 H 0.59193 0.39422 0.50340
 C1944 C -0.22312 0.40926 0.51292
 C1945 C -0.21756 0.38092 0.49643
 C1946 C -0.19230 0.37842 0.47621
 C1947 C -0.17112 0.40254 0.47345
 C1948 C -0.17452 0.42929 0.49157
 C1949 C -0.20074 0.43259 0.51071
 C1950 C -0.15063 0.45141 0.49137
 C1951 C -0.12418 0.44762 0.47242
 C1952 C -0.12294 0.42230 0.45269
 C1953 C -0.14586 0.39983 0.45343
 H1954 H -0.18883 0.35760 0.46294
 H1955 H -0.20303 0.45252 0.52535
 H1956 H -0.15206 0.47092 0.50661
 H1957 H -0.14324 0.37976 0.43897
 H1958 H -0.10307 0.41875 0.43793
 C1959 C 0.27864 -0.08587 -0.00384
 C1960 C 0.28597 -0.11859 -0.00233
 C1961 C 0.31731 -0.12927 0.00007
 C1962 C 0.34191 -0.10833 0.00048
 C1963 C 0.33517 -0.07611 0.00104
 C1964 C 0.30360 -0.06529 -0.00048
 C1965 C 0.36033 -0.05532 0.00100
 C1966 C 0.39179 -0.06649 -0.00113
 C1967 C 0.39787 -0.09850 -0.00235
 C1968 C 0.37328 -0.11920 -0.00105
 H1969 H 0.32266 -0.15388 -0.00052
 H1970 H 0.29860 -0.04077 -0.00302
 H1971 H 0.35551 -0.03059 0.00198
 H1972 H 0.37882 -0.14381 -0.00176
 H1973 H 0.42190 -0.10753 -0.00350
 C1974 C 0.27265 1.09664 0.48042
 C1975 C 0.26554 1.11633 0.50486
 C1976 C 0.28406 1.11203 0.53078
 C1977 C 0.31041 1.09129 0.53093
 C1978 C 0.31759 1.07322 0.50556
 C1979 C 0.29828 1.07571 0.48065
 C1980 C 0.34414 1.05309 0.50526
 C1981 C 0.36458 1.05095 0.52980
 C1982 C 0.35694 1.06876 0.55521
 C1983 C 0.32999 1.08847 0.55587
 H1984 H 0.27814 1.12422 0.55111
 H1985 H 0.30318 1.06163 0.46110
 H1986 H 0.34932 1.03973 0.48530
 H1987 H 0.32491 1.10211 0.57566
 H1988 H 0.25837 1.09789 0.46069
 H1989 H 0.37208 1.06790 0.57438
 C1990 C -0.23294 0.59402 1.01410
 C1991 C -0.22630 0.62492 1.00470
 C1992 C -0.19472 0.63338 1.00157
 C1993 C -0.17009 0.61116 1.00458
 C1994 C -0.17675 0.57998 1.01083
 C1995 C -0.20808 0.57191 1.01610
 C1996 C -0.15175 0.55772 1.01291
 C1997 C -0.12030 0.56658 1.00954
 C1998 C -0.11414 0.59774 1.00421
 C1999 C -0.13867 0.61973 1.00161
 H2000 H -0.18913 0.65705 0.99683
 H2001 H -0.21321 0.54901 1.02396
 H2002 H -0.15669 0.53369 1.01696
 H2003 H -0.13304 0.64349 0.99703
 H2004 H -0.09014 0.60492 1.00116
 C2005 C 0.02006 0.68503 0.63097
 C2006 C 0.01608 0.71220 0.61417
 C2007 C 0.02247 0.71090 0.58364
 C2008 C 0.02475 0.68230 0.56940
 C2009 C 0.02548 0.65512 0.58646
 C2010 C 0.02532 0.65675 0.61721
 C2011 C 0.02337 0.62667 0.57272
 C2012 C 0.01808 0.62500 0.54234
 C2013 C 0.01902 0.65165 0.52498
 C2014 C 0.02319 0.68030 0.53848
 H2015 H 0.02354 0.73159 0.57054
 H2016 H 0.02647 0.63603 0.63051
 H2017 H 0.02283 0.60603 0.58616
 H2018 H 0.02278 0.70093 0.52508
 H2019 H 0.01714 0.68556 0.65479
 H2020 H 0.01575 0.65036 0.50125
 C2021 C 0.45917 0.22373 0.09615
 C2022 C 0.48640 0.22874 0.11313
 C2023 C 0.51388 0.21133 0.10606
 C2024 C 0.51276 0.18604 0.08703
 C2025 C 0.48438 0.17909 0.07261
 C2026 C 0.45804 0.19886 0.07633
 C2027 C 0.48254 0.15167 0.05610
 C2028 C 0.50831 0.13080 0.05547
 C2029 C 0.53676 0.13869 0.06877
 C2030 C 0.53922 0.16648 0.08386
 H2031 H 0.53623 0.21662 0.11593
 H2032 H 0.43630 0.19444 0.06486
 H2033 H 0.46052 0.14543 0.04598
 H2034 H 0.56113 0.17160 0.09477
 H2035 H 0.43830 0.23836 0.09929
 H2036 H 0.55670 0.12260 0.06879
 C2037 C 0.02437 0.21280 0.91330
 C2038 C 0.00092 0.21679 0.89154
 C2039 C -0.02306 0.19505 0.88986
 C2040 C -0.01982 0.16710 0.90458
 C2041 C 0.00579 0.16220 0.92383
 C2042 C 0.02686 0.18567 0.92920
 C2043 C 0.01048 0.13362 0.93686
 C2044 C -0.00976 0.10953 0.93052
 C2045 C -0.03566 0.11456 0.91191
 C2046 C -0.04087 0.14340 0.89921
 H2047 H -0.04362 0.19887 0.87634
 H2048 H 0.04613 0.18249 0.94455
 H2049 H 0.03043 0.12994 0.95137
 H2050 H -0.06072 0.14688 0.88458
 H2051 H 0.04216 0.22990 0.91648
 H2052 H -0.05193 0.09631 0.90734
 C2053 C 0.45719 0.70253 0.38893
 C2054 C 0.48513 0.71929 0.39089
 C2055 C 0.50622 0.71241 0.41382
 C2056 C 0.50291 0.68610 0.43047
 C2057 C 0.47713 0.66693 0.42540
 C2058 C 0.45354 0.67610 0.40572
 C2059 C 0.47629 0.63831 0.43900
 C2060 C 0.50121 0.62876 0.45708
 C2061 C 0.52546 0.64897 0.46385
 C2062 C 0.52625 0.67764 0.45062
 H2063 H 0.52675 0.72628 0.41709
 H2064 H 0.43288 0.66235 0.40259
 H2065 H 0.45710 0.62298 0.43447
 H2066 H 0.54590 0.69241 0.45494
 H2067 H 0.43844 0.70920 0.37407
 H2068 H 0.54468 0.64202 0.47816
 C2069 C 0.45551 0.78347 0.39951
 C2070 C 0.48661 0.77434 0.39148
 C2071 C 0.51158 0.78729 0.40723
 C2072 C 0.50591 0.81039 0.42836
 C2073 C 0.47479 0.82132 0.43400
 C2074 C 0.44968 0.80737 0.41984
 C2075 C 0.46953 0.84664 0.45297
 C2076 C 0.49514 0.86090 0.46593
 C2077 C 0.52559 0.84836 0.46235
 C2078 C 0.53106 0.82316 0.44357
 H2079 H 0.53559 0.77904 0.40366
 H2080 H 0.42562 0.81483 0.42457
 H2081 H 0.44601 0.85662 0.45590
 H2082 H 0.55498 0.81454 0.44001
 H2083 H 0.43562 0.77216 0.38977
 H2084 H 0.54520 0.85905 0.47307
 C2085 C -0.02912 0.27789 0.90880
 C2086 C -0.00075 0.27244 0.89290
 C2087 C 0.02525 0.29045 0.90005
 C2088 C 0.02174 0.31607 0.91861
 C2089 C -0.00774 0.32315 0.93197
 C2090 C -0.03275 0.30331 0.92781
 C2091 C -0.01194 0.35060 0.94819
 C2092 C 0.01272 0.37123 0.94999
 C2093 C 0.04243 0.36321 0.93816
 C2094 C 0.04705 0.33552 0.92283
 H2095 H 0.04841 0.28506 0.89108
 H2096 H -0.05529 0.30792 0.93853
 H2097 H -0.03485 0.35693 0.95747
 H2098 H 0.06990 0.33012 0.91300
 H2099 H -0.04886 0.26297 0.90554
 H2100 H 0.06176 0.37890 0.93993
 C2101 C 0.45762 0.30323 0.11525
 C2102 C 0.48504 0.28413 0.11710
 C2103 C 0.51038 0.28984 0.09784
 C2104 C 0.51009 0.31596 0.08021
 C2105 C 0.48358 0.33633 0.08092
 C2106 C 0.45717 0.32939 0.09777
 C2107 C 0.48410 0.36364 0.06517
 C2108 C 0.51083 0.37095 0.04882
 C2109 C 0.53651 0.35001 0.04672
 C2110 C 0.53618 0.32253 0.06249
 H2111 H 0.53085 0.27431 0.09740
 H2112 H 0.43624 0.34429 0.09757
 H2113 H 0.46400 0.37966 0.06623
 H2114 H 0.55656 0.30693 0.06153
 H2115 H 0.43621 0.29814 0.12700
 H2116 H 0.55722 0.35549 0.03395
 C2117 C -0.02087 0.76810 0.58592
 C2118 C -0.00162 0.76996 0.61118
 C2119 C 0.00682 0.79949 0.62118
 C2120 C 0.00118 0.82537 0.60423
 C2121 C -0.01435 0.82258 0.57684
 C2122 C -0.02620 0.79400 0.56826
 C2123 C -0.01786 0.84854 0.55893
 C2124 C -0.00677 0.87687 0.56898
 C2125 C 0.00725 0.87970 0.59674
 C2126 C 0.01142 0.85399 0.61428
 H2127 H 0.01818 0.80265 0.64233
 H2128 H -0.03949 0.79169 0.54802
 H2129 H -0.02922 0.84690 0.53757
 H2130 H 0.02304 0.85637 0.63543
 H2131 H -0.03091 0.74638 0.57935
 H2132 H 0.01566 0.90177 0.60450
 C2133 C 0.22620 0.31760 0.03501
 C2134 C 0.25381 0.33494 0.03206
 C2135 C 0.27536 0.33312 0.05605
 C2136 C 0.27000 0.31464 0.08100
 C2137 C 0.24174 0.29865 0.08371
 C2138 C 0.22016 0.30004 0.06035
 C2139 C 0.23513 0.28278 0.11025
 C2140 C 0.25706 0.28205 0.13360
 C2141 C 0.28578 0.29668 0.12982
 C2142 C 0.29213 0.31294 0.10394
 H2143 H 0.29596 0.34690 0.05677
 H2144 H 0.19825 0.28795 0.06185
 H2145 H 0.21261 0.27206 0.11317
 H2146 H 0.31409 0.32492 0.10222
 H2147 H 0.20848 0.31854 0.01791
 H2148 H 0.30268 0.29695 0.14766
 C2149 C 0.71222 0.83379 0.54953
 C2150 C 0.74092 0.83436 0.53340
 C2151 C 0.76748 0.81896 0.54596
 C2152 C 0.76609 0.80670 0.57472
 C2153 C 0.73763 0.80899 0.59090
 C2154 C 0.71072 0.82156 0.57777
 C2155 C 0.73651 0.79941 0.62032
 C2156 C 0.76344 0.78714 0.63405
 C2157 C 0.79143 0.78325 0.61758
 C2158 C 0.79282 0.79317 0.58811
 H2159 H 0.78959 0.81784 0.53390
 H2160 H 0.68852 0.82277 0.58971
 H2161 H 0.71468 0.80194 0.63278
 H2162 H 0.81489 0.79093 0.57608
 H2163 H 0.69051 0.84364 0.54127
 H2164 H 0.81244 0.77364 0.62782
 C2165 C 0.21627 0.68347 0.52348
 C2166 C 0.24486 0.66733 0.51664
 C2167 C 0.27153 0.67540 0.53327
 C2168 C 0.26857 0.69397 0.55893
 C2169 C 0.23881 0.70629 0.56784
 C2170 C 0.21303 0.70193 0.54917
 C2171 C 0.23539 0.72162 0.59564
 C2172 C 0.26158 0.72430 0.61437
 C2173 C 0.29131 0.71387 0.60402
 C2174 C 0.29484 0.69906 0.57661
 H2175 H 0.29469 0.66653 0.52701
 H2176 H 0.19016 0.71204 0.55484
 H2177 H 0.21231 0.72940 0.60344
 H2178 H 0.31792 0.69015 0.56997
 H2179 H 0.19574 0.68013 0.50990
 H2180 H 0.31178 0.71574 0.61802
 C2181 C 0.75076 0.19859 0.02102
 C2182 C 0.74880 0.16596 0.02221
 C2183 C 0.74167 0.15322 0.05012
 C2184 C 0.73451 0.17176 0.07486
 C2185 C 0.73826 0.20401 0.07385
 C2186 C 0.74654 0.21717 0.04668
 C2187 C 0.73461 0.22191 0.10025
 C2188 C 0.72606 0.20744 0.12689
 C2189 C 0.71878 0.17592 0.12612
 C2190 C 0.72367 0.15815 0.10069
 H2191 H 0.74063 0.12835 0.05240
 H2192 H 0.74919 0.24193 0.04510
 H2193 H 0.74025 0.24618 0.10045
 H2194 H 0.71968 0.13354 0.10148
 H2195 H 0.75563 0.21023 0.00064
 H2196 H 0.71169 0.16430 0.14612
 C2197 C 0.72290 0.15532 0.94556
 C2198 C 0.74854 0.16056 0.96471
 C2199 C 0.77242 0.18016 0.95416
 C2200 C 0.77010 0.19441 0.92616
 C2201 C 0.74385 0.18876 0.90827
 C2202 C 0.72045 0.16946 0.91821
 C2203 C 0.74168 0.20147 0.88003
 C2204 C 0.76569 0.21958 0.86851
 C2205 C 0.79145 0.22624 0.88662
 C2206 C 0.79365 0.21371 0.91527
 H2207 H 0.79295 0.18396 0.96766
 H2208 H 0.70039 0.16458 0.90440
 H2209 H 0.72141 0.19645 0.86654
 H2210 H 0.81405 0.21852 0.92860
 H2211 H 0.70447 0.13965 0.95071
 H2212 H 0.81032 0.24006 0.87826
 C2213 C 0.21569 0.66385 0.44564
 C2214 C 0.24393 0.66241 0.46202
 C2215 C 0.26885 0.68105 0.45209
 C2216 C 0.26751 0.69570 0.42422
 C2217 C 0.24016 0.69342 0.40697
 C2218 C 0.21406 0.67853 0.41836
 C2219 C 0.23932 0.70565 0.37836
 C2220 C 0.26548 0.72032 0.36622
 C2221 C 0.29216 0.72406 0.38396
 C2222 C 0.29321 0.71174 0.41272
 H2223 H 0.28994 0.68263 0.46528
 H2224 H 0.19239 0.67778 0.40591
 H2225 H 0.21830 0.70316 0.36517
 H2226 H 0.31441 0.71401 0.42564
 H2227 H 0.19452 0.65332 0.45352
 H2228 H 0.31256 0.73538 0.37520
 C2229 C 0.74859 0.79886 0.47684
 C2230 C 0.74269 0.83122 0.47641
 C2231 C 0.73459 0.84443 0.44889
 C2232 C 0.72996 0.82643 0.42370
 C2233 C 0.73696 0.79438 0.42401
 C2234 C 0.74639 0.78082 0.45080
 C2235 C 0.73554 0.77717 0.39723
 C2236 C 0.72638 0.79215 0.37095
 C2237 C 0.71650 0.82338 0.37211
 C2238 C 0.71872 0.84047 0.39806
 H2239 H 0.73110 0.86930 0.44730
 H2240 H 0.75180 0.75623 0.45170
 H2241 H 0.74336 0.75312 0.39647
 H2242 H 0.71251 0.86495 0.39781
 H2243 H 0.75522 0.78726 0.49698
 H2244 H 0.70924 0.83523 0.35216
 C2245 C 0.27147 0.35942 0.95048
 C2246 C 0.26248 0.34118 0.97479
 C2247 C 0.25565 0.30966 0.96866
 C2248 C 0.25615 0.29777 0.93916
 C2249 C 0.26468 0.31711 0.91573
 C2250 C 0.27281 0.34759 0.92171
 C2251 C 0.26459 0.30605 0.88641
 C2252 C 0.25588 0.27558 0.87928
 C2253 C 0.24741 0.25625 0.90273
 C2254 C 0.24765 0.26719 0.93234
 H2255 H 0.24911 0.29441 0.98625
 H2256 H 0.27935 0.36276 0.90390
 H2257 H 0.27120 0.32168 0.86900
 H2258 H 0.24093 0.25179 0.94988
 H2259 H 0.27623 0.38368 0.95349
 H2260 H 0.24073 0.23270 0.89823
 C2261 C 0.83183 0.47534 0.74052
 C2262 C 0.86422 0.47161 0.74700
 C2263 C 0.87524 0.44114 0.75386
 C2264 C 0.85476 0.41631 0.75646
 C2265 C 0.82262 0.42055 0.74973
 C2266 C 0.81149 0.45020 0.74163
 C2267 C 0.80254 0.39492 0.75069
 C2268 C 0.81414 0.36551 0.75963
 C2269 C 0.84596 0.36220 0.76734
 C2270 C 0.86610 0.38714 0.76548
 H2271 H 0.90015 0.43680 0.75740
 H2272 H 0.78692 0.45401 0.73619
 H2273 H 0.77812 0.39772 0.74430
 H2274 H 0.89072 0.38349 0.77083
 H2275 H 0.82204 0.49757 0.73404
 H2276 H 0.85567 0.33977 0.77333
 C2277 C 0.36525 0.96005 0.22427
 C2278 C 0.36916 0.97334 0.25269
 C2279 C 0.35579 0.95768 0.27707
 C2280 C 0.34102 0.92922 0.27337
 C2281 C 0.33796 0.91646 0.24477
 C2282 C 0.34999 0.93212 0.22042
 C2283 C 0.32267 0.88836 0.24090
 C2284 C 0.31072 0.87234 0.26535
 C2285 C 0.31446 0.88495 0.29386
 C2286 C 0.32921 0.91327 0.29781
 H2287 H 0.35655 0.96779 0.29907
 H2288 H 0.34758 0.92274 0.19824
 H2289 H 0.32035 0.87884 0.21876
 H2290 H 0.33148 0.92265 0.32000
 H2291 H 0.37368 0.97112 0.20459
 H2292 H 0.30555 0.87315 0.31306
 C2293 C 0.17161 0.98024 0.73011
 C2294 C 0.14043 0.97352 0.74048
 C2295 C 0.13138 0.94258 0.74224
 C2296 C 0.15315 0.91823 0.73610
 C2297 C 0.18478 0.92451 0.72889
 C2298 C 0.19354 0.95549 0.72557
 C2299 C 0.20671 0.89957 0.72414
 C2300 C 0.19694 0.86869 0.72553
 C2301 C 0.16519 0.86311 0.73146
 C2302 C 0.14362 0.88749 0.73691
 H2303 H 0.10747 0.93734 0.74826
 H2304 H 0.21667 0.96050 0.71701
 H2305 H 0.23126 0.90409 0.71992
 H2306 H 0.11946 0.88224 0.74215
 H2307 H 0.17688 1.00479 0.71391
 H2308 H 0.15734 0.83958 0.73324
 C2309 C 0.66061 0.47120 0.26968
 C2310 C 0.63590 0.47488 0.24916
 C2311 C 0.62933 0.44886 0.23094
 C2312 C 0.64937 0.42244 0.23001
 C2313 C 0.67466 0.41990 0.24987
 C2314 C 0.67972 0.44420 0.27000
 C2315 C 0.69388 0.39279 0.24971
 C2316 C 0.68860 0.36835 0.22941
 C2317 C 0.66424 0.37201 0.20881
 C2318 C 0.64452 0.39851 0.20941
 H2319 H 0.60864 0.44877 0.21719
 H2320 H 0.69870 0.44249 0.28582
 H2321 H 0.71263 0.39051 0.26575
 H2322 H 0.62540 0.40027 0.19372
 H2323 H 0.66546 0.48963 0.28525
 H2324 H 0.65965 0.35387 0.19293
 C2325 C 0.66817 0.53382 0.23787
 C2326 C 0.63632 0.53518 0.24711
 C2327 C 0.62301 0.56490 0.25398
 C2328 C 0.64198 0.59100 0.25681
 C2329 C 0.67406 0.58868 0.24878
 C2330 C 0.68666 0.56016 0.23858
 C2331 C 0.69285 0.61500 0.25077
 C2332 C 0.68037 0.64332 0.26208
 C2333 C 0.64872 0.64500 0.27116
 C2334 C 0.62958 0.61925 0.26812
 H2335 H 0.59815 0.56723 0.25923
 H2336 H 0.71107 0.55805 0.23166
 H2337 H 0.71718 0.61353 0.24344
 H2338 H 0.60506 0.62142 0.27468
 H2339 H 0.67906 0.51240 0.22992
 H2340 H 0.63843 0.66666 0.27935
 C2341 C 0.17273 0.02289 0.73718
 C2342 C 0.14271 0.02817 0.75161
 C2343 C 0.13892 0.05313 0.77181
 C2344 C 0.16231 0.07527 0.77460
 C2345 C 0.19010 0.07254 0.75739
 C2346 C 0.19547 0.04590 0.73964
 C2347 C 0.21113 0.09733 0.75702
 C2348 C 0.20519 0.12417 0.77456
 C2349 C 0.17895 0.12500 0.79360
 C2350 C 0.15761 0.10101 0.79345
 H2351 H 0.11768 0.05631 0.78476
 H2352 H 0.21644 0.04380 0.72595
 H2353 H 0.23143 0.09625 0.74238
 H2354 H 0.13670 0.10322 0.80722
 H2355 H 0.17373 0.14524 0.80720
 C2356 C 0.32741 0.02709 0.26081
 C2357 C 0.35986 0.03187 0.25582
 C2358 C 0.36868 0.06263 0.24998
 C2359 C 0.34618 0.08680 0.24701
 C2360 C 0.31408 0.08135 0.25220
 C2361 C 0.30505 0.05145 0.25933
 C2362 C 0.29171 0.10601 0.25056
 C2363 C 0.30112 0.13571 0.24251
 C2364 C 0.33299 0.14053 0.23645
 C2365 C 0.35537 0.11644 0.23893
 H2366 H 0.39334 0.06767 0.24724
 H2367 H 0.28053 0.04676 0.26350
 H2368 H 0.26719 0.10224 0.25567
 H2369 H 0.37991 0.12107 0.23478
 H2370 H 0.31872 0.00462 0.26608
 H2371 H 0.34082 0.16344 0.23125
 C2372 C 0.85852 0.54121 0.77641
 C2373 C 0.86964 0.53095 0.74827
 C2374 C 0.86205 0.55047 0.72391
 C2375 C 0.84692 0.57991 0.72808
 C2376 C 0.83764 0.58981 0.75671
 C2377 C 0.84315 0.57003 0.78057
 C2378 C 0.82275 0.61920 0.76109
 C2379 C 0.81700 0.63940 0.73715
 C2380 C 0.82639 0.62915 0.70865
 C2381 C 0.84098 0.59981 0.70416
 H2382 H 0.86762 0.54298 0.70154
 H2383 H 0.83562 0.57689 0.80270
 H2384 H 0.81578 0.62632 0.78330
 H2385 H 0.84786 0.59277 0.68191
 H2386 H 0.86162 0.52706 0.79570
 H2387 H 0.82237 0.64381 0.68969
 C2388 C 0.96597 0.71276 0.15255
 C2389 C 0.97208 0.74159 0.13962
 C2390 C 0.95618 0.76810 0.15108
 C2391 C 0.93113 0.76541 0.17056
 C2392 C 0.92272 0.73591 0.18057
 C2393 C 0.94110 0.70984 0.17244
 C2394 C 0.89525 0.73296 0.19724
 C2395 C 0.87589 0.75909 0.20269
 C2396 C 0.88548 0.78853 0.19447
 C2397 C 0.91325 0.79174 0.17878
 H2398 H 0.96255 0.79105 0.14441
 H2399 H 0.93563 0.68716 0.18065
 H2400 H 0.88769 0.71029 0.20383
 H2401 H 0.91973 0.81454 0.17158
 H2402 H 0.97968 0.69226 0.14616
 H2403 H 0.87078 0.80890 0.19919
 C2404 C 0.47700 0.21884 0.65100
 C2405 C 0.47897 0.24546 0.63325
 C2406 C 0.45969 0.27144 0.64065
 C2407 C 0.43493 0.26870 0.66066
 C2408 C 0.43121 0.24065 0.67587
 C2409 C 0.45329 0.21644 0.67206
 C2410 C 0.40455 0.23666 0.69331
 C2411 C 0.38095 0.25981 0.69445
 C2412 C 0.38540 0.28822 0.68054
 C2413 C 0.41257 0.29285 0.66411
 H2414 H 0.46260 0.29345 0.63005
 H2415 H 0.45119 0.19504 0.68407
 H2416 H 0.40113 0.21477 0.70420
 H2417 H 0.41523 0.31459 0.65278
 H2418 H 0.49269 0.19904 0.64711
 H2419 H 0.36753 0.30656 0.68186
 C2420 C 0.44075 0.74065 0.88815
 C2421 C 0.46949 0.74416 0.87285
 C2422 C 0.47038 0.73885 0.84204
 C2423 C 0.44251 0.73568 0.82648
 C2424 C 0.41375 0.73452 0.84215
 C2425 C 0.41320 0.73568 0.87296
 C2426 C 0.38571 0.73394 0.82681
 C2427 C 0.38579 0.73623 0.79601
 C2428 C 0.41428 0.73639 0.78023
 C2429 C 0.44268 0.73548 0.79546
 H2430 H 0.49228 0.73812 0.82979
 H2431 H 0.39130 0.73435 0.88523
 H2432 H 0.36366 0.73396 0.83905
 H2433 H 0.46456 0.73626 0.78311
 H2434 H 0.43952 0.74311 0.91201
 H2435 H 0.41452 0.73777 0.75631
 C2436 C 0.93889 0.21072 0.37881
 C2437 C 0.95698 0.23757 0.37603
 C2438 C 0.95031 0.25753 0.35228
 C2439 C 0.92566 0.25204 0.33318
 C2440 C 0.90674 0.22622 0.33762
 C2441 C 0.91368 0.20555 0.36024
 C2442 C 0.88084 0.22177 0.31965
 C2443 C 0.87349 0.24311 0.29756
 C2444 C 0.89350 0.26771 0.29202
 C2445 C 0.91948 0.27219 0.30983
 H2446 H 0.96478 0.27737 0.34854
 H2447 H 0.89988 0.18513 0.36333
 H2448 H 0.86570 0.20246 0.32365
 H2449 H 0.93408 0.29189 0.30597
 H2450 H 0.94431 0.19279 0.39449
 H2451 H 0.88817 0.28447 0.27501
 C2452 C 0.01861 0.21560 0.35258
 C2453 C 0.01329 0.24240 0.37033
 C2454 C 0.02931 0.26935 0.36282
 C2455 C 0.05279 0.26845 0.34140
 C2456 C 0.05995 0.24057 0.32596
 C2457 C 0.04207 0.21453 0.33097
 C2458 C 0.08585 0.23886 0.30693
 C2459 C 0.10510 0.26438 0.30438
 C2460 C 0.09654 0.29267 0.31802
 C2461 C 0.07022 0.29480 0.33623
 H2462 H 0.02393 0.29137 0.37345
 H2463 H 0.04671 0.19318 0.31874
 H2464 H 0.09257 0.21705 0.29628
 H2465 H 0.06463 0.31647 0.34761
 H2466 H 0.00505 0.19514 0.35615
 H2467 H 0.11114 0.31265 0.31573
 C2468 C 0.52689 0.78028 0.84956
 C2469 C 0.52801 0.75770 0.87194
 C2470 C 0.55723 0.74302 0.87796
 C2471 C 0.58315 0.74731 0.85970
 C2472 C 0.58081 0.76790 0.83567
 C2473 C 0.55280 0.78487 0.83123
 C2474 C 0.60668 0.77132 0.81683
 C2475 C 0.63456 0.75452 0.82221
 C2476 C 0.63701 0.73469 0.84639
 C2477 C 0.61139 0.73101 0.86506
 H2478 H 0.56018 0.72805 0.89682
 H2479 H 0.55084 0.80146 0.81349
 H2480 H 0.60534 0.78707 0.79834
 H2481 H 0.61359 0.71533 0.88353
 H2482 H 0.50542 0.79361 0.84563
 H2483 H 0.65884 0.72204 0.85074
 C2484 C 0.55303 0.21251 0.61966
 C2485 C 0.53458 0.24017 0.62239
 C2486 C 0.54372 0.26255 0.64321
 C2487 C 0.57115 0.25850 0.65942
 C2488 C 0.59024 0.23159 0.65506
 C2489 C 0.58089 0.20865 0.63532
 C2490 C 0.61823 0.22799 0.67071
 C2491 C 0.62705 0.25090 0.69087
 C2492 C 0.60740 0.27716 0.69574
 C2493 C 0.57968 0.28101 0.68000
 H2494 H 0.52910 0.28323 0.64682
 H2495 H 0.59480 0.18743 0.63242
 H2496 H 0.63316 0.20753 0.66713
 H2497 H 0.56512 0.30168 0.68369
 H2498 H 0.54591 0.19318 0.60628
 H2499 H 0.61390 0.29524 0.71111
 C2500 C 0.04722 0.71185 0.13277
 C2501 C 0.02830 0.73921 0.13465
 C2502 C 0.03550 0.76144 0.15635
 C2503 C 0.06339 0.75909 0.17202
 C2504 C 0.08390 0.73329 0.16720
 C2505 C 0.07511 0.70923 0.14848
 C2506 C 0.11320 0.73234 0.18063
 C2507 C 0.12217 0.75695 0.19871
 C2508 C 0.10103 0.78173 0.20480
 C2509 C 0.07169 0.78281 0.19146
 H2510 H 0.02009 0.78158 0.15976
 H2511 H 0.09001 0.68865 0.14561
 H2512 H 0.12933 0.71290 0.17637
 H2513 H 0.05601 0.80261 0.19554
 H2514 H 0.04085 0.69235 0.11916
 H2515 H 0.10764 0.80083 0.21893
   
