data_POSCAR
  _audit_creation_date              2014-09-24
  _audit_creation_method            'ToBaCCo'
  _symmetry_space_group_name_H-M    'P1'
  _symmetry_Int_Tables_number       1
  _symmetry_cell_setting            triclinic
  loop_
  _symmetry_equiv_pos_as_xyz
 x,y,z
_cell_length_a 47.2233
_cell_length_b 47.6236
_cell_length_c 47.8987
_cell_angle_alpha 89.974300
_cell_angle_beta 89.878600
_cell_angle_gamma 89.987400
loop_
  _atom_site_label
  _atom_site_type_symbol
  _atom_site_fract_x
  _atom_site_fract_y
  _atom_site_fract_z
C1 C 0.32554 1.35085 0.31689
 C2 C 0.33610 1.35020 0.28964
 C3 C 0.36216 1.33728 0.28366
 C4 C 0.37681 1.32325 0.30509
 C5 C 0.36467 1.32108 0.33193
 C6 C 0.33952 1.33596 0.33809
 C7 C 0.30127 1.36643 0.32318
 C8 C 0.29076 1.36792 0.35068
 C9 C 0.30403 1.35185 0.37161
 C10 C 0.32805 1.33555 0.36530
 C11 C 0.34027 1.31818 0.38553
 C12 C 0.36347 1.30096 0.37877
 C13 C 0.37645 1.30351 0.35239
 H14 H 0.32486 1.36143 0.27335
 H15 H 0.39657 1.31261 0.30044
 H16 H 0.29106 1.37807 0.30654
 H17 H 0.29576 1.35179 0.39271
 H18 H 0.33064 1.31680 0.40605
 H19 H 0.39495 1.29100 0.34741
 C20 C 0.33521 0.87263 0.83594
 C21 C 0.34652 0.87476 0.80872
 C22 C 0.36299 0.85274 0.79744
 C23 C 0.36633 0.82783 0.81290
 C24 C 0.35560 0.82546 0.84003
 C25 C 0.34092 0.84829 0.85195
 C26 C 0.31896 0.89455 0.84785
 C27 C 0.31134 0.89358 0.87633
 C28 C 0.31888 0.86995 0.89229
 C29 C 0.33219 0.84683 0.88000
 C30 C 0.33672 0.82218 0.89541
 C31 C 0.34982 0.79868 0.88318
 C32 C 0.35969 0.80069 0.85556
 H33 H 0.34307 0.89370 0.79668
 H34 H 0.37824 0.81046 0.80419
 H35 H 0.31386 0.91299 0.83559
 H36 H 0.31290 0.86885 0.91414
 H37 H 0.32954 0.82114 0.91688
 H38 H 0.37028 0.78298 0.84597
 C39 C 0.84095 1.37422 0.83319
 C40 C 0.85469 1.37678 0.80722
 C41 C 0.87149 1.35464 0.79671
 C42 C 0.87367 1.32965 0.81232
 C43 C 0.86031 1.32687 0.83823
 C44 C 0.84402 1.34923 0.84886
 C45 C 0.82457 1.39636 0.84406
 C46 C 0.81182 1.39385 0.87042
 C47 C 0.81515 1.36911 0.88596
 C48 C 0.83105 1.34667 0.87529
 C49 C 0.83443 1.32183 0.89074
 C50 C 0.85068 1.29940 0.88018
 C51 C 0.86344 1.30212 0.85382
 H52 H 0.85243 1.39610 0.79551
 H53 H 0.88638 1.31231 0.80465
 H54 H 0.82210 1.41567 0.83231
 H55 H 0.80539 1.36744 0.90641
 H56 H 0.82442 1.32001 0.91105
 H57 H 0.87600 1.28511 0.84537
 C58 C 0.82121 0.84864 0.31336
 C59 C 0.83187 0.84854 0.28618
 C60 C 0.85786 0.83559 0.27996
 C61 C 0.87231 0.82082 0.30112
 C62 C 0.86006 0.81816 0.32794
 C63 C 0.83504 0.83318 0.33429
 C64 C 0.79698 0.86423 0.31990
 C65 C 0.78650 0.86505 0.34734
 C66 C 0.79957 0.84867 0.36798
 C67 C 0.82352 0.83244 0.36148
 C68 C 0.83562 0.81491 0.38154
 C69 C 0.85869 0.79762 0.37474
 C70 C 0.87163 0.80015 0.34826
 H71 H 0.82073 0.86020 0.27012
 H72 H 0.89197 0.81010 0.29628
 H73 H 0.78675 0.87640 0.30367
 H74 H 0.79107 0.84834 0.38900
 H75 H 0.82598 0.81358 0.40206
 H76 H 0.89001 0.78751 0.34322
 C77 C 0.65352 0.62639 0.33246
 C78 C 0.63670 0.62370 0.30843
 C79 C 0.61719 0.64486 0.30103
 C80 C 0.61476 0.66874 0.31827
 C81 C 0.63154 0.67176 0.34216
 C82 C 0.65098 0.65054 0.34932
 C83 C 0.67308 0.60544 0.33978
 C84 C 0.69033 0.60850 0.36350
 C85 C 0.68750 0.63255 0.38023
 C86 C 0.66800 0.65356 0.37329
 C87 C 0.66549 0.67769 0.38986
 C88 C 0.64632 0.69907 0.38272
 C89 C 0.62931 0.69586 0.35886
 H90 H 0.63898 0.60509 0.29565
 H91 H 0.59992 0.68529 0.31303
 H92 H 0.67518 0.58695 0.32675
 H93 H 0.70040 0.63500 0.39873
 H94 H 0.67868 0.67992 0.40822
 H95 H 0.61433 0.71205 0.35313
 C96 C 0.67714 0.14318 0.82150
 C97 C 0.65462 0.13195 0.80586
 C98 C 0.62994 0.14790 0.80115
 C99 C 0.62728 0.17459 0.81345
 C100 C 0.64974 0.18638 0.82847
 C101 C 0.67509 0.17103 0.83156
 C102 C 0.70173 0.12733 0.82727
 C103 C 0.72518 0.14009 0.84035
 C104 C 0.72359 0.16858 0.84780
 C105 C 0.69841 0.18355 0.84486
 C106 C 0.69605 0.21059 0.85595
 C107 C 0.67036 0.22528 0.85472
 C108 C 0.64734 0.21330 0.84040
 H109 H 0.65634 0.11100 0.79719
 H110 H 0.60808 0.18668 0.81043
 H111 H 0.70298 0.10557 0.82073
 H112 H 0.74132 0.17866 0.85810
 H113 H 0.71403 0.21974 0.86666
 H114 H 0.62761 0.22475 0.83860
 C115 C 1.17489 0.64103 0.82099
 C116 C 1.15254 0.63044 0.80463
 C117 C 1.12864 0.64724 0.79887
 C118 C 1.12651 0.67411 0.81089
 C119 C 1.14881 0.68523 0.82662
 C120 C 1.17347 0.66905 0.83069
 C121 C 1.19867 0.62439 0.82787
 C122 C 1.22209 0.63655 0.84161
 C123 C 1.22125 0.66519 0.84855
 C124 C 1.19672 0.68091 0.84465
 C125 C 1.19491 0.70805 0.85558
 C126 C 1.16975 0.72350 0.85356
 C127 C 1.14690 0.71227 0.83839
 H128 H 1.15380 0.60935 0.79624
 H129 H 1.10786 0.68683 0.80715
 H130 H 1.19938 0.60250 0.82171
 H131 H 1.23895 0.67485 0.85930
 H132 H 1.21281 0.71664 0.86685
 H133 H 1.12764 0.72435 0.83589
 C134 C 1.15616 0.12375 0.33621
 C135 C 1.13865 0.12000 0.31284
 C136 C 1.11838 0.14045 0.30557
 C137 C 1.11571 0.16460 0.32240
 C138 C 1.13321 0.16869 0.34562
 C139 C 1.15359 0.14825 0.35251
 C140 C 1.17643 0.10348 0.34335
 C141 C 1.19470 0.10754 0.36624
 C142 C 1.19196 0.13217 0.38230
 C143 C 1.17149 0.15238 0.37566
 C144 C 1.16878 0.17678 0.39178
 C145 C 1.14851 0.19727 0.38506
 C146 C 1.13075 0.19305 0.36192
 H147 H 1.14101 0.10114 0.30044
 H148 H 1.10019 0.18058 0.31730
 H149 H 1.17827 0.08473 0.33064
 H150 H 1.20549 0.13576 0.40014
 H151 H 1.18261 0.17985 0.40956
 H152 H 1.11497 0.20860 0.35649
 C153 C 0.65728 1.38266 0.65561
 C154 C 0.64635 1.39874 0.67789
 C155 C 0.62054 1.39128 0.69049
 C156 C 0.60582 1.36759 0.68100
 C157 C 0.61669 1.35109 0.65931
 C158 C 0.64280 1.35831 0.64679
 C159 C 0.68157 1.39127 0.64105
 C160 C 0.69297 1.37485 0.61921
 C161 C 0.67958 1.34951 0.61192
 C162 C 0.65364 1.34201 0.62450
 C163 C 0.63720 1.31984 0.61386
 C164 C 0.61054 1.31368 0.62550
 C165 C 0.60090 1.32859 0.64878
 H166 H 0.65727 1.41755 0.68469
 H167 H 0.58559 1.36221 0.69035
 H168 H 0.69191 1.41070 0.64702
 H169 H 0.68779 1.33715 0.59469
 H170 H 0.64436 1.30836 0.59561
 H171 H 0.58015 1.32394 0.65740
 C172 C 0.67344 0.86357 1.15835
 C173 C 0.67079 0.87819 1.18354
 C174 C 0.64621 0.87573 1.20007
 C175 C 0.62406 0.85822 1.19078
 C176 C 0.62646 0.84345 1.16550
 C177 C 0.65128 0.84605 1.14928
 C178 C 0.69802 0.86624 1.14213
 C179 C 0.70081 0.85155 1.11684
 C180 C 0.67866 0.83402 1.10793
 C181 C 0.65398 0.83112 1.12400
 C182 C 0.63201 0.81346 1.11520
 C183 C 0.60721 0.81073 1.13123
 C184 C 0.60449 0.82598 1.15622
 H185 H 0.68810 0.89153 1.19024
 H186 H 0.60491 0.85597 1.20302
 H187 H 0.71489 0.87976 1.14935
 H188 H 0.68060 0.82258 1.08847
 H189 H 0.63421 0.80200 1.09578
 H190 H 0.58544 0.82387 1.16872
 C191 C 1.15709 1.37538 1.15400
 C192 C 1.14304 1.39355 1.17235
 C193 C 1.12175 1.38349 1.19020
 C194 C 1.11276 1.35548 1.18785
 C195 C 1.12607 1.33726 1.16881
 C196 C 1.14939 1.34689 1.15290
 C197 C 1.17917 1.38529 1.13723
 C198 C 1.19580 1.36677 1.12117
 C199 C 1.18899 1.33790 1.12118
 C200 C 1.16496 1.32811 1.13594
 C201 C 1.15578 1.30010 1.13375
 C202 C 1.13098 1.29115 1.14757
 C203 C 1.11658 1.30960 1.16545
 H204 H 1.14976 1.41528 1.17378
 H205 H 1.09564 1.34787 1.20093
 H206 H 1.18439 1.40746 1.13798
 H207 H 1.20132 1.32343 1.10860
 H208 H 1.16709 1.28561 1.12029
 H209 H 1.09804 1.30234 1.17674
 C210 C 1.16924 0.87396 0.65182
 C211 C 1.16429 0.89046 0.67545
 C212 C 1.13910 0.88773 0.69084
 C213 C 1.11861 0.86811 0.68233
 C214 C 1.12316 0.85155 0.65841
 C215 C 1.14862 0.85448 0.64316
 C216 C 1.19456 0.87675 0.63676
 C217 C 1.19963 0.86035 0.61283
 C218 C 1.17876 0.84108 0.60419
 C219 C 1.15348 0.83795 0.61923
 C220 C 1.13305 0.81843 0.61072
 C221 C 1.10766 0.81532 0.62572
 C222 C 1.10276 0.83211 0.64945
 H223 H 1.18028 0.90540 0.68199
 H224 H 1.09904 0.86600 0.69399
 H225 H 1.21011 0.89183 0.64382
 H226 H 1.18220 0.82821 0.58582
 H227 H 1.13687 0.80582 0.59228
 H228 H 1.08323 0.82979 0.66116
 C229 C 0.33144 0.63093 0.65997
 C230 C 0.33690 0.61241 0.68199
 C231 C 0.36263 0.61359 0.69659
 C232 C 0.38328 0.63333 0.68872
 C233 C 0.37834 0.65170 0.66630
 C234 C 0.35223 0.65065 0.65203
 C235 C 0.30543 0.63017 0.64592
 C236 C 0.29984 0.64905 0.62408
 C237 C 0.32071 0.66853 0.61616
 C238 C 0.34686 0.66937 0.62988
 C239 C 0.36763 0.68877 0.62184
 C240 C 0.39378 0.68982 0.63574
 C241 C 0.39899 0.67116 0.65794
 H242 H 0.32085 0.59731 0.68809
 H243 H 0.40327 0.63415 0.69976
 H244 H 0.28947 0.61516 0.65235
 H245 H 0.31663 0.68312 0.59925
 H246 H 0.36337 0.70289 0.60463
 H247 H 0.41905 0.67191 0.66887
 C248 C 0.32682 0.13064 1.15846
 C249 C 0.33073 0.11467 1.18268
 C250 C 0.35573 0.11708 1.19847
 C251 C 0.37710 0.13552 1.18929
 C252 C 0.37349 0.15146 1.16497
 C253 C 0.34820 0.14923 1.14957
 C254 C 0.30170 0.12833 1.14316
 C255 C 0.29744 0.14454 1.11905
 C256 C 0.31886 0.16322 1.11028
 C257 C 0.34423 0.16568 1.12539
 C258 C 0.36562 0.18440 1.11692
 C259 C 0.39096 0.18659 1.13224
 C260 C 0.39475 0.16986 1.15605
 H261 H 0.31404 0.10050 1.18930
 H262 H 0.39659 0.13770 1.20092
 H263 H 0.28553 0.11386 1.15020
 H264 H 0.31579 0.17591 1.09174
 H265 H 0.36257 0.19711 1.09840
 H266 H 0.41412 0.17158 1.16807
 C267 C 0.83651 0.62366 1.15691
 C268 C 0.84972 0.60510 1.17568
 C269 C 0.87453 0.61316 1.18966
 C270 C 0.88639 0.63972 1.18461
 C271 C 0.87297 0.65883 1.16670
 C272 C 0.84763 0.65096 1.15316
 C273 C 0.81278 0.61531 1.14134
 C274 C 0.79941 0.63425 1.12307
 C275 C 0.80928 0.66191 1.12099
 C276 C 0.83363 0.67026 1.13553
 C277 C 0.84472 0.69734 1.13210
 C278 C 0.87028 0.70496 1.14493
 C279 C 0.88449 0.68563 1.16198
 H280 H 0.84109 0.58427 1.17905
 H281 H 0.90582 0.64566 1.19509
 H282 H 0.80482 0.59403 1.14319
 H283 H 0.79886 0.67645 1.10691
 H284 H 0.83396 0.71226 1.11868
 H285 H 0.90416 0.69169 1.17196
 C286 C 0.82706 0.13355 0.65779
 C287 C 0.83093 0.11714 0.68170
 C288 C 0.85589 0.11919 0.69762
 C289 C 0.87729 0.13789 0.68891
 C290 C 0.87375 0.15429 0.66481
 C291 C 0.84849 0.15222 0.64927
 C292 C 0.80190 0.13164 0.64243
 C293 C 0.79771 0.14831 0.61850
 C294 C 0.81936 0.16686 0.61009
 C295 C 0.84460 0.16892 0.62530
 C296 C 0.86588 0.18766 0.61703
 C297 C 0.89104 0.18995 0.63246
 C298 C 0.89495 0.17301 0.65616
 H299 H 0.81418 0.10288 0.68799
 H300 H 0.89672 0.13983 0.70069
 H301 H 0.78571 0.11715 0.64938
 H302 H 0.81661 0.17992 0.59174
 H303 H 0.86279 0.20041 0.59855
 H304 H 0.91428 0.17478 0.66822
 C305 C 1.36649 0.32708 0.66198
 C306 C 1.38150 0.32990 0.68701
 C307 C 1.37889 0.35427 0.70351
 C308 C 1.36096 0.37604 0.69434
 C309 C 1.34588 0.37352 0.66925
 C310 C 1.34854 0.34891 0.65307
 C311 C 1.36915 0.30266 0.64582
 C312 C 1.35395 0.29958 0.62072
 C313 C 1.33600 0.32157 0.61205
 C314 C 1.33320 0.34610 0.62802
 C315 C 1.31517 0.36782 0.61938
 C316 C 1.31240 0.39240 0.63539
 C317 C 1.32801 0.39518 0.66018
 H318 H 1.39518 0.31288 0.69364
 H319 H 1.35859 0.39502 0.70655
 H320 H 1.38310 0.28618 0.65304
 H321 H 1.32405 0.31968 0.59283
 H322 H 1.30344 0.36558 0.60010
 H323 H 1.32586 0.41402 0.67270
 C324 C 1.34431 0.80838 1.17922
 C325 C 1.36133 0.81319 1.20260
 C326 C 1.36553 0.84049 1.21266
 C327 C 1.35133 0.86296 1.19989
 C328 C 1.33409 0.85833 1.17650
 C329 C 1.33122 0.83105 1.16550
 C330 C 1.34067 0.78119 1.16919
 C331 C 1.32659 0.77624 1.14391
 C332 C 1.31441 0.79907 1.12935
 C333 C 1.31532 0.82643 1.14093
 C334 C 1.30041 0.84918 1.12894
 C335 C 1.30188 0.87625 1.14105
 C336 C 1.31959 0.88061 1.16416
 H337 H 1.37182 0.79563 1.21263
 H338 H 1.35404 0.88413 1.20769
 H339 H 1.35051 0.76388 1.18030
 H340 H 1.30308 0.79531 1.11005
 H341 H 1.28738 0.84570 1.11069
 H342 H 1.32140 0.90136 1.17329
 C343 C 0.86553 0.32361 1.16053
 C344 C 0.88312 0.32739 1.18374
 C345 C 0.88148 0.35197 1.19985
 C346 C 0.86217 0.37307 1.19231
 C347 C 0.84451 0.36961 1.16908
 C348 C 0.84607 0.34475 1.15315
 C349 C 0.86712 0.29891 1.14474
 C350 C 0.84943 0.29480 1.12146
 C351 C 0.82998 0.31615 1.11423
 C352 C 0.82817 0.34105 1.12992
 C353 C 0.80875 0.36229 1.12283
 C354 C 0.80718 0.38719 1.13866
 C355 C 0.82525 0.39063 1.16165
 H356 H 0.89798 0.31100 1.18941
 H357 H 0.86087 0.39225 1.20436
 H358 H 0.88225 0.28301 1.15085
 H359 H 0.81616 0.31348 1.09638
 H360 H 0.79504 0.35941 1.10498
 H361 H 0.82415 0.40964 1.17404
 C362 C 0.86648 0.82763 0.65635
 C363 C 0.88216 0.83076 0.68090
 C364 C 0.87963 0.85514 0.69720
 C365 C 0.86136 0.87669 0.68851
 C366 C 0.84562 0.87389 0.66389
 C367 C 0.84804 0.84922 0.64777
 C368 C 0.86894 0.80314 0.64037
 C369 C 0.85310 0.79974 0.61583
 C370 C 0.83466 0.82139 0.60733
 C371 C 0.83198 0.84610 0.62317
 C372 C 0.81345 0.86769 0.61497
 C373 C 0.81103 0.89238 0.63099
 C374 C 0.82735 0.89532 0.65527
 H375 H 0.89628 0.81404 0.68738
 H376 H 0.85929 0.89566 0.70080
 H377 H 0.88322 0.78678 0.64724
 H378 H 0.82234 0.81901 0.58841
 H379 H 0.80108 0.86528 0.59611
 H380 H 0.82547 0.91417 0.66783
 C381 C 0.63066 0.67083 0.65929
 C382 C 0.61331 0.66508 0.68228
 C383 C 0.61529 0.63934 0.69646
 C384 C 0.63473 0.61902 0.68723
 C385 C 0.65201 0.62431 0.66390
 C386 C 0.65011 0.65039 0.65000
 C387 C 0.62886 0.69678 0.64555
 C388 C 0.64626 0.70260 0.62247
 C389 C 0.66553 0.68203 0.61319
 C390 C 0.66763 0.65603 0.62681
 C391 C 0.68690 0.63556 0.61753
 C392 C 0.68865 0.60938 0.63101
 C393 C 0.67106 0.60393 0.65414
 H394 H 0.59830 0.68083 0.68926
 H395 H 0.63612 0.59900 0.69789
 H396 H 0.61388 0.71233 0.65288
 H397 H 0.67898 0.68621 0.59531
 H398 H 0.70026 0.63990 0.59964
 H399 H 0.67235 0.58386 0.66475
 C400 C 0.64186 1.17474 1.15787
 C401 C 0.62958 1.17214 1.18433
 C402 C 0.63236 1.14721 1.19980
 C403 C 0.64853 1.12496 1.18885
 C404 C 0.66109 1.12727 1.16233
 C405 C 0.65746 1.15219 1.14666
 C406 C 0.63830 1.19947 1.14234
 C407 C 0.65010 1.20213 1.11544
 C408 C 0.66553 1.17933 1.10431
 C409 C 0.66916 1.15446 1.11966
 C410 C 0.68411 1.13170 1.10834
 C411 C 0.68800 1.10704 1.12390
 C412 C 0.67675 1.10492 1.15093
 H413 H 0.61727 1.18945 1.19263
 H414 H 0.65105 1.10574 1.20067
 H415 H 0.62622 1.21650 1.15142
 H416 H 0.67475 1.18082 1.08361
 H417 H 0.69289 1.13314 1.08745
 H418 H 0.67962 1.08569 1.16272
 C419 C 0.14670 0.68206 1.16998
 C420 C 0.12521 0.67151 1.18728
 C421 C 0.12927 0.64668 1.20288
 C422 C 0.15494 0.63192 1.20009
 C423 C 0.17622 0.64172 1.18216
 C424 C 0.17231 0.66712 1.16742
 C425 C 0.14297 0.70731 1.15519
 C426 C 0.16473 0.71795 1.13798
 C427 C 0.19021 0.70274 1.13564
 C428 C 0.19396 0.67739 1.14988
 C429 C 0.21886 0.66186 1.14638
 C430 C 0.22221 0.63621 1.16016
 C431 C 0.20124 0.62632 1.17834
 H432 H 0.10558 0.68319 1.18913
 H433 H 0.15827 0.61246 1.21132
 H434 H 0.12317 0.71856 1.15734
 H435 H 0.20721 0.71037 1.12240
 H436 H 0.23542 0.66933 1.13251
 H437 H 0.20409 0.60633 1.18883
 C438 C 0.13073 1.16392 0.66111
 C439 C 0.11299 1.15427 0.68307
 C440 C 0.10982 1.12510 0.68806
 C441 C 0.12464 1.10607 0.67101
 C442 C 0.14432 1.11535 0.65146
 C443 C 0.14745 1.14423 0.64627
 C444 C 0.13240 1.19265 0.65370
 C445 C 0.15123 1.20162 0.63250
 C446 C 0.16926 1.18186 0.61975
 C447 C 0.16751 1.15329 0.62636
 C448 C 0.18570 1.13360 0.61360
 C449 C 0.18331 1.10479 0.61986
 C450 C 0.16172 1.09589 0.63788
 H451 H 0.10117 1.16924 0.69554
 H452 H 0.12266 1.08363 0.67439
 H453 H 0.11920 1.20791 0.66433
 H454 H 0.18422 1.18865 0.60392
 H455 H 0.20190 1.14081 0.59926
 H456 H 0.15936 1.07374 0.64257
 C457 C 1.37901 0.65776 0.33852
 C458 C 1.39531 0.63918 0.32246
 C459 C 1.38359 0.61390 0.31234
 C460 C 1.35633 0.60586 0.32130
 C461 C 1.34094 0.62302 0.33982
 C462 C 1.35149 0.64982 0.34681
 C463 C 1.38960 0.68432 0.34606
 C464 C 1.37203 0.70386 0.35973
 C465 C 1.34441 0.69577 0.36754
 C466 C 1.33466 0.66851 0.36251
 C467 C 1.30888 0.65927 0.37391
 C468 C 1.30024 0.63138 0.37024
 C469 C 1.31562 0.61370 0.35217
 H470 H 1.41641 0.64552 0.31606
 H471 H 1.34756 0.58590 0.31471
 H472 H 1.41087 0.69027 0.33987
 H473 H 1.33092 0.71024 0.37894
 H474 H 1.29674 0.67304 0.38742
 H475 H 1.30839 0.59239 0.34861
 C476 C 1.37449 1.15817 0.83835
 C477 C 1.37828 1.14218 0.81393
 C478 C 1.35704 1.12359 0.80492
 C479 C 1.33203 1.12102 0.82070
 C480 C 1.32790 1.13691 0.84492
 C481 C 1.34911 1.15570 0.85375
 C482 C 1.39559 1.17671 0.84754
 C483 C 1.39142 1.19350 0.87148
 C484 C 1.36591 1.19088 0.88656
 C485 C 1.34491 1.17198 0.87798
 C486 C 1.31970 1.16916 0.89327
 C487 C 1.29856 1.15027 0.88469
 C488 C 1.30283 1.13426 0.86042
 H489 H 1.39772 1.14424 0.80208
 H490 H 1.31553 1.10669 0.81403
 H491 H 1.41503 1.17845 0.83558
 H492 H 1.36233 1.20319 0.90523
 H493 H 1.31658 1.18171 0.91190
 H494 H 1.28679 1.11963 0.85349
 C495 C 0.87608 0.65677 0.83193
 C496 C 0.87925 0.64135 0.80719
 C497 C 0.85739 0.62372 0.79787
 C498 C 0.83242 0.62142 0.81365
 C499 C 0.82898 0.63663 0.83836
 C500 C 0.85080 0.65456 0.84752
 C501 C 0.89770 0.67457 0.84117
 C502 C 0.89428 0.69066 0.86550
 C503 C 0.86899 0.68842 0.88095
 C504 C 0.84726 0.67035 0.87215
 C505 C 0.82198 0.66792 0.88745
 C506 C 0.80022 0.64981 0.87853
 C507 C 0.80395 0.63425 0.85392
 H508 H 0.89863 0.64327 0.79523
 H509 H 0.81544 0.60786 0.80661
 H510 H 0.91706 0.67627 0.82909
 H511 H 0.86621 0.70057 0.89986
 H512 H 0.81928 0.68015 0.90633
 H513 H 0.78740 0.62038 0.84663
 C514 C 0.87587 1.14830 0.33960
 C515 C 0.87892 1.13327 0.31440
 C516 C 0.85794 1.11397 0.30584
 C517 C 0.83400 1.10996 0.32298
 C518 C 0.83064 1.12486 0.34787
 C519 C 0.85155 1.14413 0.35626
 C520 C 0.89655 1.16761 0.34838
 C521 C 0.89287 1.18305 0.37323
 C522 C 0.86858 1.17871 0.38955
 C523 C 0.84799 1.15932 0.38131
 C524 C 0.82372 1.15511 0.39764
 C525 C 0.80272 1.13610 0.38917
 C526 C 0.80643 1.12090 0.36434
 H527 H 0.89757 1.13671 0.30167
 H528 H 0.81755 1.09530 0.31689
 H529 H 0.91526 1.17098 0.33565
 H530 H 0.86573 1.19027 0.40884
 H531 H 0.82101 1.16698 0.41678
 H532 H 0.79054 1.10596 0.35771
 C533 C 0.63287 0.34363 0.33065
 C534 C 0.62460 0.36216 0.30947
 C535 C 0.63612 0.38934 0.30794
 C536 C 0.65617 0.39765 0.32805
 C537 C 0.66522 0.37895 0.34880
 C538 C 0.65347 0.35182 0.35026
 C539 C 0.62051 0.31710 0.33265
 C540 C 0.62785 0.29879 0.35437
 C541 C 0.64900 0.30655 0.37351
 C542 C 0.66225 0.33291 0.37131
 C543 C 0.68395 0.34088 0.38977
 C544 C 0.69585 0.36785 0.38800
 C545 C 0.68606 0.38690 0.36792
 H546 H 0.60878 0.35538 0.29461
 H547 H 0.66539 0.41850 0.32723
 H548 H 0.60435 0.31107 0.31775
 H549 H 0.65509 0.29217 0.38999
 H550 H 0.69135 0.32637 0.40561
 H551 H 0.69533 0.40771 0.36673
 C552 C 0.62151 0.84828 0.83866
 C553 C 0.61652 0.86657 0.81625
 C554 C 0.63701 0.88645 0.80846
 C555 C 0.66264 0.88791 0.82321
 C556 C 0.66814 0.86943 0.84529
 C557 C 0.64748 0.84956 0.85314
 C558 C 0.60097 0.82868 0.84676
 C559 C 0.60606 0.81006 0.86896
 C560 C 0.63205 0.81134 0.88323
 C561 C 0.65281 0.83096 0.87542
 C562 C 0.67885 0.83220 0.88945
 C563 C 0.69969 0.85184 0.88157
 C564 C 0.69405 0.87047 0.85950
 H565 H 0.59657 0.86556 0.80516
 H566 H 0.67853 0.90321 0.81723
 H567 H 0.58106 0.82776 0.83555
 H568 H 0.63617 0.79724 0.90048
 H569 H 0.68291 0.81777 0.90649
 H570 H 0.70979 0.88571 0.85314
 C571 C 0.11986 0.34661 0.83872
 C572 C 0.11533 0.36458 0.81589
 C573 C 0.13649 0.38352 0.80744
 C574 C 0.16222 0.38448 0.82212
 C575 C 0.16720 0.36640 0.84463
 C576 C 0.14599 0.34730 0.85292
 C577 C 0.09875 0.32784 0.84747
 C578 C 0.10357 0.30913 0.86980
 C579 C 0.12988 0.30984 0.88358
 C580 C 0.15096 0.32883 0.87538
 C581 C 0.17702 0.32956 0.88930
 C582 C 0.19821 0.34864 0.88124
 C583 C 0.19313 0.36703 0.85885
 H584 H 0.09531 0.36396 0.80491
 H585 H 0.17862 0.39908 0.81575
 H586 H 0.07871 0.32754 0.83646
 H587 H 0.13412 0.29586 0.90090
 H588 H 0.18073 0.31530 0.90656
 H589 H 0.20937 0.38164 0.85221
 C590 C 0.12836 0.83805 0.33441
 C591 C 0.11234 0.85767 0.31942
 C592 C 0.12435 0.88334 0.31066
 C593 C 0.15174 0.89055 0.31988
 C594 C 0.16684 0.87227 0.33761
 C595 C 0.15594 0.84521 0.34311
 C596 C 0.11734 0.81131 0.34066
 C597 C 0.13453 0.79086 0.35337
 C598 C 0.16221 0.79814 0.36158
 C599 C 0.17238 0.82550 0.35792
 C600 C 0.19803 0.83386 0.37007
 C601 C 0.20688 0.86187 0.36824
 C602 C 0.19201 0.88070 0.35091
 H603 H 0.09116 0.85196 0.31277
 H604 H 0.16061 0.91084 0.31445
 H605 H 0.09600 0.80599 0.33422
 H606 H 0.17533 0.78296 0.37243
 H607 H 0.20980 0.81925 0.38298
 H608 H 0.19939 0.90215 0.34879
 O609 O 0.99197 0.89707 0.86009
 O610 O 0.99840 0.86496 0.82751
 C611 C 0.98429 0.88527 0.83762
 C612 C 0.95812 0.89441 0.82353
 C613 C 0.94966 0.88117 0.79887
 H614 H 0.96315 0.86537 0.78948
 O615 O 1.00950 1.10520 0.85900
 O616 O 1.00361 1.13698 0.82603
 C617 C 1.01756 1.11669 0.83639
 C618 C 1.04362 1.10637 0.82238
 C619 C 1.04956 1.11340 0.79441
 H620 H 1.03483 1.12605 0.78251
 O621 O 0.86540 0.94885 0.89894
 O622 O 0.83238 0.94284 0.86700
 C623 C 0.84405 0.93559 0.88979
 C624 C 0.83358 0.91097 0.90558
 C625 C 0.80689 0.89901 0.90009
 H626 H 0.79344 0.90853 0.88451
 O627 O 1.13440 1.05130 0.90123
 O628 O 1.16802 1.05795 0.86988
 C629 C 1.15587 1.06476 0.89261
 C630 C 1.16616 1.08886 0.90913
 C631 C 1.19310 1.10057 0.90440
 H632 H 1.20685 1.09124 0.88888
 O633 O 0.92785 0.84412 0.97177
 O634 O 0.90075 0.80644 0.97111
 C635 C 0.92187 0.82015 0.96185
 C636 C 0.93900 0.80872 0.93855
 C637 C 0.93287 0.78221 0.92723
 H638 H 0.91646 0.76940 0.93656
 O639 O 1.07159 1.15437 0.97521
 O640 O 1.09914 1.19173 0.97524
 C641 C 1.07808 1.17835 0.96548
 C642 C 1.06152 1.19014 0.94189
 C643 C 1.06740 1.21709 0.93121
 H644 H 1.08336 1.23000 0.94107
 O645 O 0.89578 1.00770 0.85978
 O646 O 0.86397 1.00107 0.82676
 C647 C 0.88474 1.01481 0.83672
 C648 C 0.89513 1.04011 0.82200
 C649 C 0.88229 1.04855 0.79710
 H650 H 0.86606 1.03549 0.78785
 O651 O 1.10562 0.99273 0.86092
 O652 O 1.13893 0.99888 0.82915
 C653 C 1.11746 0.98554 0.83824
 C654 C 1.10655 0.96101 0.82270
 C655 C 1.11729 0.95455 0.79626
 H656 H 1.13282 0.96839 0.78689
 O657 O 1.05385 0.86991 0.89743
 O658 O 1.06024 0.83789 0.86475
 C659 C 1.06768 0.84935 0.88751
 C660 C 1.09312 0.83914 0.90216
 C661 C 1.10920 0.81707 0.89091
 H662 H 1.10247 0.80701 0.87179
 O663 O 0.94730 1.13290 0.89611
 O664 O 0.94194 1.16594 0.86429
 C665 C 0.93427 1.15440 0.88698
 C666 C 0.91007 1.16571 0.90326
 C667 C 0.89907 1.19284 0.89845
 H668 H 0.90845 1.20591 0.88244
 O669 O 0.84469 1.07540 0.96944
 O670 O 0.80725 1.10313 0.96923
 C671 C 0.82111 1.08272 0.95895
 C672 C 0.81077 1.06912 0.93309
 C673 C 0.79312 1.08440 0.91512
 H674 H 0.78568 1.10505 0.92120
 O675 O 1.15464 0.92656 0.97463
 O676 O 1.19273 0.89978 0.97529
 C677 C 1.17916 0.92059 0.96542
 C678 C 1.19180 0.93725 0.94236
 C679 C 1.21977 0.93228 0.93409
 H680 H 1.23245 0.91707 0.94531
 O681 O 0.95503 1.09388 0.85870
 O682 O 0.94874 1.12645 0.82660
 C683 C 0.94356 1.10206 0.83618
 C684 C 0.92341 1.08315 0.82165
 C685 C 0.91007 1.09134 0.79666
 H686 H 0.91503 1.11148 0.78742
 O687 O 1.04631 0.90693 0.85844
 O688 O 1.05272 0.87506 0.82565
 C689 C 1.05767 0.89927 0.83558
 C690 C 1.07746 0.91863 0.82111
 C691 C 1.08867 0.91230 0.79453
 H692 H 1.08210 0.89331 0.78402
 O693 O 1.14453 0.99758 0.89855
 O694 O 1.17810 1.00390 0.86711
 C695 C 1.16917 0.99206 0.88923
 C696 C 1.18718 0.97145 0.90440
 C697 C 1.21539 0.96570 0.89611
 H698 H 1.22471 0.97657 0.87849
 O699 O 0.85616 1.00312 0.89620
 O700 O 0.82418 0.99754 0.86313
 C701 C 0.83266 1.00977 0.88513
 C702 C 0.81629 1.03354 0.89671
 C703 C 0.79876 1.04945 0.87894
 H704 H 0.79596 1.04334 0.85733
 O705 O 0.87631 1.11961 0.97126
 O706 O 0.83865 1.14707 0.97215
 C707 C 0.86300 1.14109 0.96257
 C708 C 0.87573 1.15907 0.94082
 C709 C 0.86513 1.18607 0.93595
 H710 H 0.84783 1.19384 0.94865
 O711 O 1.12451 0.88111 0.97325
 O712 O 1.16277 0.85454 0.97359
 C713 C 1.13877 0.86068 0.96346
 C714 C 1.12788 0.84465 0.93933
 C715 C 1.14386 0.82269 0.92765
 H716 H 1.16370 0.81652 0.93715
 O717 O 1.09753 1.04685 0.86153
 O718 O 1.13066 1.05320 0.82963
 C719 C 1.10603 1.05845 0.83913
 C720 C 1.08692 1.07800 0.82396
 C721 C 1.09222 1.08503 0.79599
 H722 H 1.11019 1.07593 0.78518
 O723 O 0.90332 0.95372 0.85986
 O724 O 0.87077 0.94671 0.82767
 C725 C 0.89518 0.94175 0.83755
 C726 C 0.91425 0.92152 0.82342
 C727 C 0.90602 0.90787 0.79863
 H728 H 0.88563 0.91244 0.78942
 O729 O 1.00133 1.14060 0.89877
 O730 O 0.99641 1.17310 0.86630
 C731 C 1.00698 1.16483 0.88933
 C732 C 1.02659 1.18332 0.90484
 C733 C 1.03237 1.21034 0.89490
 H734 H 1.02163 1.21794 0.87643
 O735 O 0.99999 0.85888 0.89745
 O736 O 1.00639 0.82671 0.86492
 C737 C 0.99499 0.83460 0.88766
 C738 C 0.97489 0.81581 0.90236
 C739 C 0.96868 0.78913 0.89156
 H740 H 0.97950 0.78179 0.87299
 O741 O 1.11701 1.12309 0.97536
 O742 O 1.14430 1.16069 0.97563
 C743 C 1.13854 1.13643 0.96643
 C744 C 1.15730 1.12381 0.94523
 C745 C 1.18418 1.13528 0.94029
 H746 H 1.19110 1.15326 0.95232
 O747 O 0.88242 0.87513 0.97092
 O748 O 0.85535 0.83736 0.97058
 C749 C 0.86110 0.86177 0.96163
 C750 C 0.84250 0.87472 0.94044
 C751 C 0.81585 0.86308 0.93481
 H752 H 0.80905 0.84464 0.94621
 Cu753 Cu 1.02249 0.88650 0.88160
 Cu754 Cu 1.03009 0.84795 0.84238
 Cu755 Cu 0.97865 1.11473 0.88117
 Cu756 Cu 0.97214 1.15378 0.84244
 Cu757 Cu 0.88329 0.97870 0.88209
 Cu758 Cu 0.84451 0.97123 0.84292
 Cu759 Cu 1.11729 1.02153 0.88373
 Cu760 Cu 1.15724 1.02921 0.84571
 C761 C 0.94047 0.91476 0.83555
 H762 H 0.94680 0.92476 0.85486
 C763 C 0.92370 0.88752 0.78636
 C764 C 1.06246 1.08869 0.83693
 H765 H 1.05807 1.08320 0.85846
 C766 C 1.07357 1.10241 0.78108
 C767 C 0.85106 0.89879 0.92597
 H768 H 0.87173 0.90769 0.93017
 C769 C 0.79766 0.87511 0.91495
 C770 C 1.14856 1.10047 0.92979
 H771 H 1.12771 1.09170 0.93349
 C772 C 1.20239 1.12376 0.92017
 C773 C 0.96020 0.82527 0.92608
 H774 H 0.96455 0.84603 0.93426
 C775 C 0.94753 0.77233 0.90365
 C776 C 1.04094 1.17351 0.92859
 H777 H 1.03676 1.15248 0.93615
 C778 C 1.05289 1.22727 0.90761
 C779 C 0.91592 1.05734 0.83398
 H780 H 0.92551 1.05113 0.85354
 C781 C 0.88935 1.07409 0.78436
 C782 C 1.08638 0.94317 0.83480
 H783 H 1.07828 0.94795 0.85544
 C784 C 1.10862 0.93033 0.78189
 C785 C 1.10241 0.85256 0.92656
 H786 H 1.09024 0.86982 0.93514
 C787 C 1.13465 0.80880 0.90347
 C788 C 0.89827 1.14916 0.92459
 H789 H 0.90639 1.12821 0.92834
 C790 C 0.87670 1.20333 0.91507
 C791 C 0.82213 1.04351 0.92379
 H792 H 0.83669 1.03210 0.93707
 C793 C 0.78786 1.07524 0.88785
 C794 C 1.17573 0.95704 0.92757
 H795 H 1.15401 0.96083 0.93383
 C796 C 1.23181 0.94628 0.91121
 O797 O 1.04140 0.90418 1.14233
 O798 O 1.04669 0.87179 1.17482
 C799 C 1.05202 0.89616 1.16533
 C800 C 1.07075 0.91527 1.18127
 C801 C 1.07593 0.91025 1.20952
 H802 H 1.06599 0.89244 1.21965
 O803 O 0.95272 1.09539 1.14057
 O804 O 0.94512 1.12746 1.17290
 C805 C 0.94038 1.10323 1.16286
 C806 C 0.92003 1.08402 1.17680
 C807 C 0.90764 1.09107 1.20266
 H808 H 0.91325 1.11061 1.21272
 O809 O 0.85512 1.00250 1.09999
 O810 O 0.82140 0.99686 1.13141
 C811 C 0.83041 1.00812 1.10909
 C812 C 0.81225 1.02822 1.09366
 C813 C 0.78417 1.03366 1.10219
 H814 H 0.77520 1.02299 1.12012
 O815 O 1.14056 0.99392 1.10680
 O816 O 1.17307 0.99950 1.13928
 C817 C 1.16474 0.98797 1.11679
 C818 C 1.18283 0.96685 1.10242
 C819 C 1.20864 0.95794 1.11418
 H820 H 1.21604 0.96726 1.13345
 O821 O 1.12121 0.88123 1.02792
 O822 O 1.15925 0.85436 1.02790
 C823 C 1.13476 0.86025 1.03734
 C824 C 1.12272 0.84305 1.06030
 C825 C 1.13765 0.81962 1.07003
 H826 H 1.15705 0.81341 1.05966
 O827 O 0.87592 1.11855 1.02565
 O828 O 0.83778 1.14530 1.02594
 C829 C 0.86227 1.13948 1.03522
 C830 C 0.87488 1.15732 1.05732
 C831 C 0.86309 1.18367 1.06345
 H832 H 0.84493 1.19091 1.05172
 O833 O 0.90163 0.95371 1.13851
 O834 O 0.86743 0.94758 1.16932
 C835 C 0.89199 0.94163 1.16022
 C836 C 0.90862 0.91918 1.17410
 C837 C 0.89514 0.90113 1.19301
 H838 H 0.87322 0.90474 1.19867
 O839 O 1.09326 1.04268 1.14410
 O840 O 1.12597 1.04957 1.17612
 C841 C 1.10149 1.05468 1.16634
 C842 C 1.08248 1.07513 1.18046
 C843 C 1.09026 1.08790 1.20585
 H844 H 1.11019 1.08241 1.21549
 O845 O 0.99426 0.85630 1.10384
 O846 O 0.99998 0.82372 1.13613
 C847 C 0.98823 0.83231 1.11389
 C848 C 0.96580 0.81525 1.10064
 C849 C 0.95083 0.79519 1.11652
 H850 H 0.95676 0.79095 1.13795
 O851 O 1.00271 1.14293 1.10546
 O852 O 0.99667 1.17461 1.13852
 C853 C 1.00920 1.16632 1.11654
 C854 C 1.03265 1.18297 1.10433
 C855 C 1.04843 1.20189 1.12089
 H856 H 1.04256 1.20564 1.14244
 O857 O 0.88190 0.87602 1.02485
 O858 O 0.85433 0.83860 1.02399
 C859 C 0.86014 0.86289 1.03337
 C860 C 0.84147 0.87592 1.05446
 C861 C 0.81447 0.86487 1.05959
 H862 H 0.80725 0.84687 1.04777
 O863 O 1.11527 1.12089 1.02950
 O864 O 1.14327 1.15798 1.02925
 C865 C 1.13693 1.13374 1.03859
 C866 C 1.15511 1.12054 1.06015
 C867 C 1.18225 1.13124 1.06500
 H868 H 1.18971 1.14882 1.05267
 O869 O 1.00718 1.10321 1.14143
 O870 O 0.99999 1.13469 1.17447
 C871 C 1.01404 1.11412 1.16461
 C872 C 1.03935 1.10366 1.17963
 C873 C 1.04739 1.11592 1.20496
 H874 H 1.03407 1.13194 1.21422
 O875 O 0.98696 0.89349 1.14196
 O876 O 0.99225 0.86061 1.17399
 C877 C 0.97833 0.88106 1.16388
 C878 C 0.95083 0.88941 1.17637
 C879 C 0.93677 0.87150 1.19539
 H880 H 0.94670 0.85226 1.20240
 O881 O 1.13073 1.04788 1.10483
 O882 O 1.16415 1.05413 1.13628
 C883 C 1.15222 1.06126 1.11350
 C884 C 1.16293 1.08547 1.09683
 C885 C 1.19015 1.09673 1.10142
 H886 H 1.20361 1.08734 1.11708
 O887 O 0.86554 0.94879 1.09821
 O888 O 0.83111 0.94313 1.12891
 C889 C 0.84368 0.93573 1.10658
 C890 C 0.83322 0.91146 1.09028
 C891 C 0.80620 0.90007 1.09522
 H892 H 0.79262 0.90969 1.11070
 O893 O 1.07271 1.15478 1.03050
 O894 O 1.10065 1.19190 1.03019
 C895 C 1.08015 1.17831 1.04066
 C896 C 1.06685 1.18888 1.06650
 C897 C 1.08192 1.20792 1.08305
 H898 H 1.10181 1.21657 1.07569
 O899 O 0.92572 0.84371 1.02689
 O900 O 0.89811 0.80636 1.02622
 C901 C 0.91837 0.82010 1.03695
 C902 C 0.93176 0.80944 1.06274
 C903 C 0.91729 0.78946 1.07888
 H904 H 0.89755 0.78058 1.07151
 O905 O 1.10255 0.98879 1.14556
 O906 O 1.13443 0.99505 1.17852
 C907 C 1.11338 0.98157 1.16875
 C908 C 1.10119 0.95687 1.18362
 C909 C 1.10642 0.95127 1.21221
 H910 H 1.11964 0.96523 1.22435
 O911 O 0.89374 1.00834 1.13805
 O912 O 0.86013 1.00236 1.16952
 C913 C 0.88152 1.01585 1.16044
 C914 C 0.89166 1.04105 1.17558
 C915 C 0.87963 1.04843 1.20129
 H916 H 0.86382 1.03486 1.21059
 O917 O 0.94818 1.13286 1.10123
 O918 O 0.94159 1.16553 1.13318
 C919 C 0.93466 1.15406 1.11018
 C920 C 0.91025 1.16481 1.09382
 C921 C 0.89810 1.19117 1.09967
 H922 H 0.90726 1.20403 1.11589
 O923 O 1.04859 0.86672 1.10341
 O924 O 1.05477 0.83407 1.13545
 C925 C 1.06235 0.84589 1.11281
 C926 C 1.08780 0.83598 1.09748
 C927 C 1.10325 0.81254 1.10693
 H928 H 1.09614 0.80126 1.12525
 O929 O 1.15428 0.92442 1.02975
 O930 O 1.19221 0.89741 1.02992
 C931 C 1.17815 0.91770 1.04003
 C932 C 1.18921 0.93264 1.06481
 C933 C 1.21465 0.92380 1.07714
 H934 H 1.22692 0.90714 1.06762
 O935 O 0.84401 1.07393 1.02436
 O936 O 0.80584 1.10060 1.02405
 C937 C 0.81943 1.07965 1.03349
 C938 C 0.80686 1.06245 1.05599
 C939 C 0.77876 1.06693 1.06428
 H940 H 0.76567 1.08201 1.05332
 Cu941 Cu 1.01740 0.88343 1.11969
 Cu942 Cu 1.02442 0.84431 1.15835
 Cu943 Cu 0.97816 1.11555 1.11882
 Cu944 Cu 0.96989 1.15382 1.15799
 Cu945 Cu 0.90750 0.86335 0.99852
 Cu946 Cu 0.87472 0.81815 0.99784
 Cu947 Cu 1.13487 0.90609 1.00128
 Cu948 Cu 1.18056 0.87392 1.00174
 Cu949 Cu 0.86396 1.09403 0.99779
 Cu950 Cu 0.81839 1.12650 0.99806
 Cu951 Cu 1.09105 1.13472 1.00239
 Cu952 Cu 1.12436 1.17945 1.00257
 Cu953 Cu 0.88239 0.97898 1.11562
 Cu954 Cu 0.84178 0.97192 1.15308
 Cu955 Cu 1.11357 1.01767 1.12220
 Cu956 Cu 1.15272 1.02528 1.16071
 C957 C 1.08324 0.93869 1.16856
 H958 H 1.07921 0.94254 1.14664
 C959 C 1.09321 0.92813 1.22532
 C960 C 0.91207 1.05883 1.16361
 H961 H 0.92112 1.05347 1.14351
 C962 C 0.88735 1.07333 1.21503
 C963 C 0.82333 1.04274 1.07051
 H964 H 0.84511 1.03930 1.06424
 C965 C 0.76741 1.05281 1.08731
 C966 C 1.17348 0.95420 1.07754
 H967 H 1.15356 0.96065 1.06840
 C968 C 1.22442 0.93613 1.10183
 C969 C 1.09764 0.85096 1.07399
 H970 H 1.08626 0.86936 1.06686
 C971 C 1.12832 0.80431 1.09330
 C972 C 0.89859 1.14820 1.07242
 H973 H 0.90760 1.12777 1.06791
 C974 C 0.87456 1.20094 1.08435
 C975 C 0.93659 0.91329 1.16605
 H976 H 0.94681 0.92660 1.15070
 C977 C 0.90869 0.87705 1.20323
 C978 C 1.05685 1.08302 1.16770
 H979 H 1.05093 1.07374 1.14791
 C980 C 1.07277 1.10842 1.21822
 C981 C 0.95618 0.82210 1.07367
 H982 H 0.96687 0.83831 1.06177
 C983 C 0.92629 0.78274 1.10582
 C984 C 1.04207 1.17672 1.07713
 H985 H 1.03087 1.16132 1.06469
 C986 C 1.07343 1.21390 1.11033
 C987 C 0.85059 0.89935 1.06971
 H988 H 0.87154 0.90781 1.06594
 C989 C 0.79656 0.87684 1.07973
 C990 C 1.14569 1.09746 1.07594
 H991 H 1.12465 1.08915 1.07230
 C992 C 1.20010 1.11952 1.08528
 O993 O 1.09662 0.54666 0.64003
 O994 O 1.12902 0.55224 0.67264
 C995 C 1.10483 0.55801 0.66264
 C996 C 1.08621 0.57857 0.67695
 C997 C 1.09327 0.58944 0.70334
 H998 H 1.11203 0.58186 0.71384
 O999 O 0.90458 0.45672 0.63811
 O1000 O 0.87179 0.45252 0.67070
 C1001 C 0.89590 0.44603 0.66091
 C1002 C 0.91361 0.42505 0.67551
 C1003 C 0.90329 0.41082 0.69924
 H1004 H 0.88260 0.41590 0.70760
 O1005 O 1.00685 0.64369 0.59688
 O1006 O 1.00088 0.67674 0.62857
 C1007 C 1.01248 0.66798 0.60620
 C1008 C 1.03324 0.68594 0.59130
 C1009 C 1.03874 0.71318 0.60078
 H1010 H 1.02704 0.72136 0.61846
 O1011 O 0.99666 0.35920 0.60116
 O1012 O 1.00093 0.32729 0.63426
 C1013 C 0.98995 0.33554 0.61139
 C1014 C 0.96842 0.31782 0.59722
 C1015 C 0.96270 0.29079 0.60731
 H1016 H 0.97481 0.28257 0.62467
 O1017 O 1.12376 0.62153 0.52489
 O1018 O 1.15212 0.65832 0.52391
 C1019 C 1.14522 0.63467 0.53405
 C1020 C 1.16216 0.62268 0.55700
 C1021 C 1.18788 0.63511 0.56456
 H1022 H 1.19561 0.65300 0.55286
 O1023 O 0.87177 0.37655 0.52782
 O1024 O 0.84336 0.33984 0.52873
 C1025 C 0.84973 0.36428 0.53718
 C1026 C 0.83243 0.37901 0.55863
 C1027 C 0.80290 0.37447 0.56237
 H1028 H 0.79170 0.35974 0.54919
 O1029 O 0.95809 0.59795 0.63565
 O1030 O 0.95131 0.63095 0.66724
 C1031 C 0.94613 0.60652 0.65781
 C1032 C 0.92549 0.58801 0.67215
 C1033 C 0.91180 0.59667 0.69686
 H1034 H 0.91681 0.61683 0.70601
 O1035 O 1.04505 0.40530 0.64007
 O1036 O 1.04944 0.37381 0.67353
 C1037 C 1.05555 0.39772 0.66327
 C1038 C 1.07542 0.41689 0.67793
 C1039 C 1.08640 0.41027 0.70450
 H1040 H 1.07991 0.39104 0.71467
 O1041 O 1.14334 0.49783 0.60211
 O1042 O 1.17576 0.50342 0.63471
 C1043 C 1.16760 0.49216 0.61208
 C1044 C 1.18624 0.47172 0.59768
 C1045 C 1.21331 0.46593 0.60823
 H1046 H 1.22092 0.47718 0.62637
 O1047 O 0.85850 0.50462 0.59836
 O1048 O 0.82616 0.50103 0.63147
 C1049 C 0.83441 0.51123 0.60832
 C1050 C 0.81605 0.53152 0.59336
 C1051 C 0.78894 0.53777 0.60368
 H1052 H 0.78101 0.52694 0.62199
 O1053 O 0.87851 0.62032 0.52375
 O1054 O 0.84084 0.64774 0.52299
 C1055 C 0.86516 0.64168 0.53262
 C1056 C 0.87807 0.65980 0.55419
 C1057 C 0.86681 0.68647 0.55953
 H1058 H 0.84871 0.69367 0.54768
 O1059 O 1.12641 0.37708 0.53339
 O1060 O 1.16483 0.35077 0.53368
 C1061 C 1.14039 0.35651 0.54324
 C1062 C 1.12786 0.33941 0.56610
 C1063 C 1.14093 0.31469 0.57575
 H1064 H 1.16048 0.30773 0.56615
 O1065 O 0.89778 0.51124 0.63554
 O1066 O 0.86541 0.50681 0.66851
 C1067 C 0.88652 0.51965 0.65811
 C1068 C 0.89696 0.54523 0.67208
 C1069 C 0.88385 0.55411 0.69670
 H1070 H 0.86753 0.54127 0.70616
 O1071 O 1.10402 0.49225 0.63949
 O1072 O 1.13634 0.49780 0.67218
 C1073 C 1.11520 0.48459 0.66231
 C1074 C 1.10412 0.45965 0.67724
 C1075 C 1.11455 0.45283 0.70368
 H1076 H 1.12983 0.46663 0.71343
 O1077 O 1.05182 0.36506 0.60402
 O1078 O 1.05611 0.33331 0.63726
 C1079 C 1.06465 0.34408 0.61455
 C1080 C 1.09026 0.33289 0.60060
 C1081 C 1.10340 0.30803 0.60986
 H1082 H 1.09422 0.29634 0.62700
 O1083 O 0.95209 0.63592 0.59734
 O1084 O 0.94597 0.66937 0.62859
 C1085 C 0.93863 0.65732 0.60608
 C1086 C 0.91395 0.66780 0.58999
 C1087 C 0.90228 0.69455 0.59515
 H1088 H 0.91188 0.70792 0.61071
 O1089 O 0.84573 0.57690 0.52357
 O1090 O 0.80788 0.60398 0.52302
 C1091 C 0.82147 0.58330 0.53314
 C1092 C 0.80959 0.56699 0.55689
 C1093 C 0.78274 0.57342 0.56806
 H1094 H 0.77000 0.58978 0.55867
 O1095 O 1.15658 0.42270 0.53057
 O1096 O 1.19519 0.39669 0.53048
 C1097 C 1.18121 0.41753 0.53976
 C1098 C 1.19307 0.43528 0.56232
 C1099 C 1.22003 0.42966 0.57338
 H1100 H 1.23290 0.41323 0.56428
 O1101 O 0.99052 0.39633 0.63986
 O1102 O 0.99499 0.36448 0.67300
 C1103 C 0.98194 0.38521 0.66247
 C1104 C 0.95580 0.39547 0.67605
 C1105 C 0.94514 0.38152 0.69958
 H1106 H 0.95698 0.36431 0.70863
 O1107 O 1.01223 0.60811 0.63754
 O1108 O 1.00583 0.64083 0.66948
 C1109 C 1.01946 0.61972 0.66033
 C1110 C 1.04436 0.60878 0.67582
 C1111 C 1.05168 0.61938 0.70223
 H1112 H 1.03854 0.63535 0.71178
 O1113 O 0.86673 0.45037 0.59947
 O1114 O 0.83383 0.44728 0.63215
 C1115 C 0.84482 0.43863 0.60954
 C1116 C 0.83120 0.41535 0.59446
 C1117 C 0.80247 0.41015 0.59856
 H1118 H 0.79080 0.42265 0.61359
 O1119 O 1.13479 0.55174 0.60132
 O1120 O 1.16745 0.55738 0.63369
 C1121 C 1.15623 0.56473 0.61073
 C1122 C 1.16775 0.58877 0.59476
 C1123 C 1.19356 0.60156 0.60218
 H1124 H 1.20534 0.59359 0.61982
 O1125 O 0.91862 0.34772 0.52997
 O1126 O 0.89093 0.31049 0.53098
 C1127 C 0.91231 0.32400 0.54021
 C1128 C 0.93002 0.31231 0.56314
 C1129 C 0.92461 0.28536 0.57387
 H1130 H 0.90785 0.27279 0.56491
 O1131 O 1.08061 0.65497 0.52349
 O1132 O 1.10869 0.69193 0.52277
 C1133 C 1.08723 0.67912 0.53265
 C1134 C 1.07009 0.69164 0.55562
 C1135 C 1.07567 0.71882 0.56591
 H1136 H 1.09212 0.73144 0.55639
 Cu1137 Cu 1.11640 0.52168 0.61750
 Cu1138 Cu 1.15534 0.52822 0.65665
 Cu1139 Cu 0.88529 0.48104 0.61460
 Cu1140 Cu 0.84612 0.47654 0.65409
 Cu1141 Cu 0.98292 0.61814 0.61373
 Cu1142 Cu 0.97538 0.65781 0.65163
 Cu1143 Cu 1.02080 0.38465 0.61794
 Cu1144 Cu 1.02583 0.34652 0.65778
 C1145 C 1.06165 0.58822 0.66356
 H1146 H 1.05634 0.58018 0.64308
 C1147 C 1.07615 0.60992 0.71621
 C1148 C 0.94003 0.41740 0.66427
 H1149 H 0.94787 0.42784 0.64571
 C1150 C 0.91891 0.38881 0.71118
 C1151 C 1.04873 0.67548 0.56849
 H1152 H 1.04466 0.65433 0.56124
 C1153 C 1.05993 0.72973 0.58849
 C1154 C 0.95214 0.32835 0.57491
 H1155 H 0.95624 0.34933 0.56718
 C1156 C 0.94079 0.27454 0.59604
 C1157 C 1.15238 0.59938 0.57200
 H1158 H 1.13236 0.58989 0.56631
 C1159 C 1.20388 0.62473 0.58694
 C1160 C 0.84605 0.39970 0.57468
 H1161 H 0.86845 0.40377 0.57175
 C1162 C 0.78776 0.39074 0.58213
 C1163 C 0.91802 0.56210 0.66004
 H1164 H 0.92790 0.55546 0.64072
 C1165 C 0.89074 0.57975 0.70904
 C1166 C 1.08433 0.44175 0.66463
 H1167 H 1.07646 0.44683 0.64401
 C1168 C 1.10607 0.42826 0.71756
 C1169 C 1.17645 0.45656 0.57448
 H1170 H 1.15541 0.46067 0.56648
 C1171 C 1.23022 0.44478 0.59648
 C1172 C 0.82600 0.54591 0.56968
 H1173 H 0.84698 0.54126 0.56174
 C1174 C 0.77229 0.55879 0.59142
 C1175 C 0.90176 0.65071 0.56933
 H1176 H 0.91045 0.63005 0.56530
 C1177 C 0.87877 0.70418 0.57972
 C1178 C 1.10246 0.34809 0.57857
 H1179 H 1.09244 0.36728 0.57149
 C1180 C 1.12875 0.29864 0.59750
 O1181 O 1.10034 0.48564 0.36045
 O1182 O 1.13243 0.48984 0.32713
 C1183 C 1.11116 0.47733 0.33762
 C1184 C 1.09928 0.45241 0.32363
 C1185 C 1.10419 0.44757 0.29521
 H1186 H 1.11624 0.46271 0.28320
 O1187 O 0.89918 0.50771 0.35685
 O1188 O 0.86782 0.50123 0.32343
 C1189 C 0.88849 0.51490 0.33358
 C1190 C 0.89993 0.53994 0.31890
 C1191 C 0.89383 0.54533 0.29057
 H1192 H 0.88102 0.53079 0.27866
 O1193 O 0.95368 0.63327 0.39774
 O1194 O 0.94846 0.66585 0.36540
 C1195 C 0.94106 0.65480 0.38843
 C1196 C 0.91735 0.66672 0.40454
 C1197 C 0.90849 0.69446 0.40016
 H1198 H 0.91947 0.70746 0.38508
 O1199 O 1.05107 0.36075 0.40618
 O1200 O 1.05705 0.32737 0.37483
 C1201 C 1.06435 0.33930 0.39740
 C1202 C 1.08863 0.32844 0.41361
 C1203 C 1.10003 0.30169 0.40828
 H1204 H 1.09042 0.28864 0.39247
 O1205 O 1.15495 0.41962 0.47560
 O1206 O 1.19310 0.39293 0.47498
 C1207 C 1.17840 0.41268 0.46452
 C1208 C 1.18775 0.42661 0.43829
 C1209 C 1.20942 0.41447 0.42191
 H1210 H 1.21998 0.39563 0.42907
 O1211 O 0.84714 0.57671 0.46854
 O1212 O 0.80945 0.60399 0.46760
 C1213 C 0.82327 0.58312 0.45817
 C1214 C 0.81198 0.56652 0.43443
 C1215 C 0.78533 0.57271 0.42285
 H1216 H 0.77243 0.58904 0.43206
 O1217 O 1.01174 0.60194 0.35822
 O1218 O 1.00594 0.63350 0.32495
 C1219 C 1.01894 0.61241 0.33492
 C1220 C 1.04340 0.60069 0.31983
 C1221 C 1.05128 0.61168 0.29394
 H1222 H 1.03825 0.62777 0.28448
 O1223 O 0.99083 0.38903 0.36684
 O1224 O 0.99660 0.35556 0.33550
 C1225 C 0.98334 0.37700 0.34440
 C1226 C 0.95873 0.38769 0.32863
 C1227 C 0.95110 0.37507 0.30336
 H1228 H 0.96388 0.35809 0.29515
 O1229 O 1.13089 0.54560 0.39786
 O1230 O 1.16423 0.54866 0.36565
 C1231 C 1.15295 0.55730 0.38820
 C1232 C 1.16600 0.58090 0.40344
 C1233 C 1.19421 0.58788 0.39822
 H1234 H 1.20637 0.57602 0.38305
 O1235 O 0.86879 0.44935 0.39742
 O1236 O 0.83584 0.44392 0.36526
 C1237 C 0.84678 0.43695 0.38850
 C1238 C 0.83368 0.41449 0.40558
 C1239 C 0.80467 0.40864 0.40326
 H1240 H 0.79166 0.42051 0.38884
 O1241 O 1.08058 0.65239 0.46879
 O1242 O 1.10956 0.68869 0.46781
 C1243 C 1.08832 0.67555 0.45812
 C1244 C 1.07423 0.68642 0.43279
 C1245 C 1.08831 0.70652 0.41668
 H1246 H 1.10799 0.71556 0.42405
 O1247 O 0.91790 0.34318 0.47568
 O1248 O 0.89011 0.30603 0.47595
 C1249 C 0.91173 0.31887 0.46656
 C1250 C 0.92982 0.30602 0.44449
 C1251 C 0.92427 0.27890 0.43393
 H1252 H 0.90696 0.26673 0.44248
 O1253 O 0.90782 0.45323 0.35947
 O1254 O 0.87553 0.44640 0.32701
 C1255 C 0.89955 0.44074 0.33754
 C1256 C 0.91780 0.41882 0.32489
 C1257 C 0.91035 0.40573 0.29959
 H1258 H 0.89141 0.41239 0.28883
 O1259 O 1.09462 0.54003 0.35750
 O1260 O 1.12771 0.54424 0.32523
 C1261 C 1.10348 0.55063 0.33467
 C1262 C 1.08543 0.57107 0.31960
 C1263 C 1.09352 0.58276 0.29365
 H1264 H 1.11308 0.57613 0.28390
 O1265 O 0.99626 0.35253 0.40616
 O1266 O 1.00234 0.31909 0.37487
 C1267 C 0.99046 0.32823 0.39691
 C1268 C 0.96891 0.31073 0.41114
 C1269 C 0.96337 0.28361 0.40138
 H1270 H 0.97588 0.27519 0.38436
 O1271 O 1.00856 0.64152 0.39440
 O1272 O 1.00374 0.67310 0.36103
 C1273 C 1.01578 0.66468 0.38319
 C1274 C 1.03942 0.68105 0.39544
 C1275 C 1.05455 0.70085 0.37918
 H1276 H 1.04833 0.70515 0.35785
 O1277 O 0.87593 0.37802 0.47380
 O1278 O 0.84713 0.34154 0.47438
 C1279 C 0.85428 0.36538 0.46454
 C1280 C 0.83729 0.37908 0.44247
 C1281 C 0.80826 0.37327 0.43960
 H1282 H 0.79804 0.35816 0.45321
 O1283 O 1.12494 0.62045 0.47052
 O1284 O 1.15414 0.65658 0.46971
 C1285 C 1.14701 0.63238 0.46093
 C1286 C 1.16380 0.61773 0.43903
 C1287 C 1.19245 0.62443 0.43348
 H1288 H 1.20314 0.64049 0.44551
 O1289 O 1.04482 0.39742 0.36606
 O1290 O 1.05045 0.36430 0.33434
 C1291 C 1.05533 0.38898 0.34310
 C1292 C 1.07293 0.40846 0.32643
 C1293 C 1.07840 0.40358 0.29792
 H1294 H 1.06990 0.38507 0.28785
 O1295 O 0.95770 0.59485 0.35921
 O1296 O 0.95189 0.62686 0.32641
 C1297 C 0.94663 0.60265 0.33632
 C1298 C 0.92798 0.58314 0.32078
 C1299 C 0.92204 0.58789 0.29251
 H1300 H 0.93094 0.60597 0.28192
 O1301 O 0.86120 0.50329 0.39541
 O1302 O 0.82932 0.49792 0.36225
 C1303 C 0.83732 0.50936 0.38488
 C1304 C 0.81895 0.53039 0.39875
 C1305 C 0.79221 0.53669 0.38774
 H1306 H 0.78472 0.52554 0.36948
 O1307 O 1.13869 0.49105 0.39844
 O1308 O 1.17093 0.49434 0.36523
 C1309 C 1.16236 0.48371 0.38809
 C1310 C 1.17960 0.46139 0.40144
 C1311 C 1.20154 0.44921 0.38595
 H1312 H 1.20658 0.45746 0.36546
 O1313 O 1.12392 0.37552 0.47951
 O1314 O 1.16200 0.34863 0.47987
 C1315 C 1.13729 0.35407 0.47090
 C1316 C 1.12411 0.33569 0.44983
 C1317 C 1.13527 0.30902 0.44429
 H1318 H 1.15334 0.30165 0.45609
 O1319 O 0.87903 0.62115 0.46987
 O1320 O 0.84155 0.64882 0.46931
 C1321 C 0.86632 0.64281 0.46078
 C1322 C 0.88071 0.66093 0.44004
 C1323 C 0.87236 0.68892 0.43585
 H1324 H 0.85515 0.69761 0.44805
 Cu1325 Cu 1.11274 0.51539 0.38177
 Cu1326 Cu 1.15224 0.51968 0.34266
 Cu1327 Cu 0.88763 0.47895 0.38037
 Cu1328 Cu 0.84902 0.47167 0.34107
 Cu1329 Cu 1.09959 0.63374 0.49704
 Cu1330 Cu 1.13381 0.67772 0.49597
 Cu1331 Cu 1.13680 0.40154 0.50495
 Cu1332 Cu 1.18293 0.36993 0.50484
 Cu1333 Cu 0.86618 0.59583 0.49638
 Cu1334 Cu 0.82090 0.62862 0.49561
 Cu1335 Cu 0.89874 0.36492 0.50184
 Cu1336 Cu 0.86524 0.32065 0.50251
 Cu1337 Cu 0.98323 0.61488 0.38090
 Cu1338 Cu 0.97655 0.65322 0.34127
 Cu1339 Cu 1.02047 0.37823 0.38960
 Cu1340 Cu 1.02738 0.33810 0.35185
 C1341 C 1.08343 0.43293 0.33899
 H1342 H 1.07965 0.43663 0.36100
 C1343 C 1.09377 0.42331 0.28210
 C1344 C 0.91705 0.55900 0.33371
 H1345 H 0.92165 0.55523 0.35554
 C1346 C 0.90526 0.56911 0.27730
 C1347 C 0.90346 0.65018 0.42454
 H1348 H 0.91009 0.62862 0.42771
 C1349 C 0.88627 0.70585 0.41601
 C1350 C 1.10067 0.34513 0.43458
 H1351 H 1.09220 0.36589 0.43860
 C1352 C 1.12335 0.29172 0.42369
 C1353 C 1.17283 0.45006 0.42775
 H1354 H 1.15546 0.45897 0.43961
 C1355 C 1.21596 0.42538 0.39541
 C1356 C 0.82855 0.54522 0.42226
 H1357 H 0.84930 0.54061 0.43069
 C1358 C 0.77535 0.55791 0.39940
 C1359 C 1.06025 0.58009 0.33227
 H1360 H 1.05420 0.57178 0.35247
 C1361 C 1.07637 0.60326 0.28067
 C1362 C 0.94217 0.40975 0.33911
 H1363 H 0.94786 0.41937 0.35880
 C1364 C 0.92701 0.38376 0.28866
 C1365 C 1.15094 0.59580 0.42389
 H1366 H 1.12903 0.59035 0.42791
 C1367 C 1.20770 0.60908 0.41329
 C1368 C 0.84977 0.39979 0.42543
 H1369 H 0.87210 0.40452 0.42764
 C1370 C 0.79188 0.38844 0.42044
 C1371 C 1.04952 0.67402 0.42224
 H1372 H 1.03888 0.65796 0.43438
 C1373 C 1.07940 0.71307 0.38968
 C1374 C 0.95230 0.32166 0.43292
 H1375 H 0.95638 0.34277 0.44029
 C1376 C 0.94104 0.26761 0.41225
 O1377 O 0.49304 0.89209 0.36109
 O1378 O 0.49956 0.85941 0.32906
 C1379 C 0.48586 0.88041 0.33841
 C1380 C 0.46023 0.89026 0.32385
 C1381 C 0.44925 0.87492 0.30142
 H1382 H 0.46085 0.85705 0.29335
 O1383 O 0.51261 1.10297 0.35635
 O1384 O 0.50652 1.13453 0.32315
 C1385 C 0.52023 1.11404 0.33345
 C1386 C 0.54627 1.10402 0.31962
 C1387 C 0.55738 1.11856 0.29669
 H1388 H 0.54575 1.13600 0.28781
 O1389 O 0.37201 0.94774 0.39945
 O1390 O 0.33852 0.94290 0.36774
 C1391 C 0.35015 0.93524 0.39033
 C1392 C 0.33777 0.91169 0.40609
 C1393 C 0.31001 0.90333 0.40062
 H1394 H 0.29757 0.91423 0.38500
 O1395 O 0.63206 1.04810 0.39954
 O1396 O 0.66677 1.05294 0.36900
 C1397 C 0.65438 1.06047 0.39136
 C1398 C 0.66579 1.08388 0.40816
 C1399 C 0.69404 1.09272 0.40512
 H1400 H 0.70776 1.08206 0.39043
 O1401 O 0.42587 0.84499 0.47391
 O1402 O 0.39707 0.80855 0.47490
 C1403 C 0.41824 0.82131 0.46446
 C1404 C 0.43222 0.80950 0.43945
 C1405 C 0.41793 0.78903 0.42411
 H1406 H 0.39834 0.78024 0.43205
 O1407 O 0.57613 1.15595 0.47025
 O1408 O 0.60486 1.19246 0.46936
 C1409 C 0.58413 1.17896 0.45930
 C1410 C 0.57047 1.18914 0.43347
 C1411 C 0.58319 1.21068 0.41772
 H1412 H 0.60201 1.22098 0.42547
 O1413 O 0.40144 1.00715 0.35983
 O1414 O 0.36844 1.00100 0.32787
 C1415 C 0.38952 1.01452 0.33724
 C1416 C 0.39904 1.03987 0.32228
 C1417 C 0.38523 1.04801 0.29779
 H1418 H 0.36909 1.03460 0.28890
 O1419 O 0.60355 0.98831 0.36053
 O1420 O 0.63727 0.99365 0.32903
 C1421 C 0.61609 0.98013 0.33856
 C1422 C 0.60697 0.95383 0.32478
 C1423 C 0.62065 0.94476 0.30047
 H1424 H 0.63661 0.95795 0.29086
 O1425 O 0.55096 0.86303 0.40240
 O1426 O 0.55718 0.82938 0.37138
 C1427 C 0.56400 0.84129 0.39415
 C1428 C 0.58765 0.83030 0.41111
 C1429 C 0.59910 0.80360 0.40597
 H1430 H 0.58976 0.79066 0.38992
 O1431 O 0.45352 1.13318 0.39541
 O1432 O 0.44804 1.16590 0.36322
 C1433 C 0.44104 1.15496 0.38640
 C1434 C 0.41833 1.16755 0.40337
 C1435 C 0.41051 1.19577 0.39993
 H1436 H 0.42122 1.20853 0.38446
 O1437 O 0.35129 1.07895 0.47038
 O1438 O 0.31355 1.10616 0.46870
 C1439 C 0.32737 1.08500 0.45991
 C1440 C 0.31581 1.06753 0.43694
 C1441 C 0.28913 1.07363 0.42536
 H1442 H 0.27665 1.09056 0.43401
 O1443 O 0.65345 0.92235 0.47371
 O1444 O 0.69108 0.89489 0.47410
 C1445 C 0.67710 0.91494 0.46339
 C1446 C 0.68754 0.92874 0.43772
 C1447 C 0.70798 0.91533 0.42087
 H1448 H 0.71700 0.89548 0.42737
 O1449 O 0.45834 1.09460 0.35737
 O1450 O 0.45161 1.12659 0.32476
 C1451 C 0.44647 1.10250 0.33496
 C1452 C 0.42612 1.08344 0.32120
 C1453 C 0.41184 1.09143 0.29669
 H1454 H 0.41603 1.11171 0.28737
 O1455 O 0.54732 0.89972 0.36228
 O1456 O 0.55448 0.86672 0.33079
 C1457 C 0.55952 0.89118 0.34019
 C1458 C 0.57999 0.90993 0.32572
 C1459 C 0.59396 0.90129 0.30116
 H1460 H 0.58954 0.88083 0.29236
 O1461 O 0.64088 0.99406 0.39884
 O1462 O 0.67454 0.99918 0.36718
 C1463 C 0.66509 0.98756 0.38915
 C1464 C 0.68158 0.96463 0.40188
 C1465 C 0.70217 0.95118 0.38566
 H1466 H 0.70719 0.95919 0.36506
 O1467 O 0.36394 1.00216 0.39883
 O1468 O 0.33101 0.99679 0.36668
 C1469 C 0.33976 1.00832 0.38898
 C1470 C 0.32187 1.02980 0.40280
 C1471 C 0.29517 1.03617 0.39175
 H1472 H 0.28740 1.02449 0.37396
 O1473 O 0.38265 1.12372 0.47138
 O1474 O 0.34508 1.15129 0.47045
 C1475 C 0.36980 1.14516 0.46200
 C1476 C 0.38380 1.16286 0.44088
 C1477 C 0.37641 1.19120 0.43760
 H1478 H 0.36029 1.20033 0.45091
 O1479 O 0.62213 0.87797 0.47719
 O1480 O 0.65990 0.85069 0.47855
 C1481 C 0.63542 0.85621 0.46908
 C1482 C 0.62248 0.83759 0.44796
 C1483 C 0.63369 0.81082 0.44262
 H1484 H 0.65153 0.80339 0.45470
 O1485 O 0.59664 1.04275 0.35816
 O1486 O 0.63097 1.04845 0.32741
 C1487 C 0.60623 1.05409 0.33602
 C1488 C 0.58872 1.07485 0.32087
 C1489 C 0.59951 1.08950 0.29761
 H1490 H 0.62047 1.08476 0.28970
 O1491 O 0.40936 0.95284 0.35996
 O1492 O 0.37593 0.94693 0.32841
 C1493 C 0.40034 0.94116 0.33783
 C1494 C 0.41800 0.91978 0.32369
 C1495 C 0.40729 0.90419 0.30114
 H1496 H 0.38637 0.90876 0.29317
 O1497 O 0.50766 1.14097 0.39382
 O1498 O 0.50242 1.17268 0.36059
 C1499 C 0.51407 1.16449 0.38306
 C1500 C 0.53636 1.18175 0.39604
 C1501 C 0.54933 1.20319 0.38062
 H1502 H 0.54171 1.20807 0.35987
 O1503 O 0.49655 0.85390 0.39862
 O1504 O 0.50224 0.82112 0.36657
 C1505 C 0.48986 0.83019 0.38835
 C1506 C 0.46649 0.81397 0.40135
 C1507 C 0.45113 0.79383 0.38584
 H1508 H 0.45703 0.78908 0.36449
 O1509 O 0.61802 1.12153 0.47318
 O1510 O 0.64691 1.15800 0.47302
 C1511 C 0.64025 1.13365 0.46443
 C1512 C 0.65868 1.11935 0.44413
 C1513 C 0.68687 1.12780 0.44105
 H1514 H 0.69502 1.14471 0.45384
 O1515 O 0.38025 0.87544 0.47362
 O1516 O 0.35153 0.83893 0.47495
 C1517 C 0.35826 0.86270 0.46489
 C1518 C 0.34103 0.87597 0.44254
 C1519 C 0.31271 0.86795 0.43697
 H1520 H 0.30255 0.85177 0.44932
 Cu1521 Cu 0.52154 0.88040 0.38433
 Cu1522 Cu 0.52937 0.84082 0.34625
 Cu1523 Cu 0.48336 1.11461 0.37899
 Cu1524 Cu 0.47626 1.15308 0.33948
 Cu1525 Cu 0.39014 0.97789 0.38273
 Cu1526 Cu 0.35017 0.97132 0.34446
 Cu1527 Cu 0.61476 1.01812 0.38237
 Cu1528 Cu 0.65569 1.02429 0.34493
 C1529 C 0.44468 0.91293 0.33456
 H1530 H 0.45280 0.92448 0.35230
 C1531 C 0.42273 0.88150 0.29011
 C1532 C 0.56189 1.08196 0.33134
 H1533 H 0.55368 1.07112 0.34952
 C1534 C 0.58399 1.11163 0.28568
 C1535 C 0.35315 0.89799 0.42698
 H1536 H 0.37475 0.90449 0.43103
 C1537 C 0.29719 0.88196 0.41603
 C1538 C 0.64832 1.09722 0.42785
 H1539 H 0.62645 1.09072 0.43017
 C1540 C 0.70479 1.11456 0.42183
 C1541 C 0.45676 0.82163 0.42815
 H1542 H 0.46750 0.83803 0.43968
 C1543 C 0.42638 0.78192 0.39707
 C1544 C 0.54691 1.17497 0.42255
 H1545 H 0.53742 1.15790 0.43424
 C1546 C 0.57297 1.21749 0.39106
 C1547 C 0.41971 1.05748 0.33369
 H1548 H 0.43005 1.05141 0.35293
 C1549 C 0.39117 1.07374 0.28501
 C1550 C 0.58648 0.93640 0.33715
 H1551 H 0.57618 0.94311 0.35623
 C1552 C 0.61444 0.91863 0.28855
 C1553 C 0.59930 0.84699 0.43232
 H1554 H 0.59078 0.86776 0.43615
 C1555 C 0.62209 0.79356 0.42176
 C1556 C 0.40497 1.15133 0.42394
 H1557 H 0.41076 1.12946 0.42649
 C1558 C 0.38982 1.20788 0.41730
 C1559 C 0.33197 1.04544 0.42558
 H1560 H 0.35276 1.04090 0.43395
 C1561 C 0.27877 1.05819 0.40253
 C1562 C 0.67442 0.95342 0.42802
 H1563 H 0.65788 0.96330 0.44029
 C1564 C 0.71478 0.92617 0.39444
 O1565 O 0.54218 0.90846 0.64373
 O1566 O 0.54794 0.87680 0.67682
 C1567 C 0.55338 0.90086 0.66659
 C1568 C 0.57352 0.92009 0.68070
 C1569 C 0.58467 0.91378 0.70723
 H1570 H 0.57765 0.89506 0.71796
 O1571 O 0.45668 1.10001 0.64140
 O1572 O 0.44996 1.13264 0.67335
 C1573 C 0.44458 1.10836 0.66359
 C1574 C 0.42363 1.08967 0.67748
 C1575 C 0.41058 1.09731 0.70289
 H1576 H 0.41628 1.11688 0.71284
 O1577 O 0.35887 1.00762 0.60019
 O1578 O 0.32464 1.00293 0.63124
 C1579 C 0.33411 1.01364 0.60880
 C1580 C 0.31633 1.03360 0.59283
 C1581 C 0.28801 1.03832 0.60051
 H1582 H 0.27891 1.02699 0.61796
 O1583 O 0.64156 0.99962 0.60240
 O1584 O 0.67480 1.00510 0.63421
 C1585 C 0.66606 0.99387 0.61177
 C1586 C 0.68433 0.97338 0.59690
 C1587 C 0.71142 0.96702 0.60721
 H1588 H 0.71929 0.97780 0.62552
 O1589 O 0.62196 0.88185 0.53130
 O1590 O 0.66006 0.85502 0.53214
 C1591 C 0.63565 0.86131 0.54143
 C1592 C 0.62312 0.84422 0.56400
 C1593 C 0.63426 0.81768 0.56981
 H1594 H 0.65202 0.81013 0.55763
 O1595 O 0.38144 1.12351 0.52555
 O1596 O 0.34354 1.15059 0.52431
 C1597 C 0.36769 1.14465 0.53439
 C1598 C 0.37985 1.16243 0.55669
 C1599 C 0.36845 1.18902 0.56229
 H1600 H 0.35094 1.19665 0.54985
 O1601 O 0.40325 0.95910 0.64111
 O1602 O 0.36885 0.95406 0.67189
 C1603 C 0.39347 0.94779 0.66317
 C1604 C 0.41046 0.92623 0.67797
 C1605 C 0.39907 0.91138 0.70081
 H1606 H 0.37823 0.91664 0.70866
 O1607 O 0.59588 1.04831 0.64184
 O1608 O 0.62919 1.05389 0.67355
 C1609 C 0.60467 1.05955 0.66431
 C1610 C 0.58625 1.07972 0.67940
 C1611 C 0.59376 1.09022 0.70584
 H1612 H 0.61291 1.08281 0.71576
 O1613 O 0.49554 0.86082 0.60495
 O1614 O 0.50106 0.82875 0.63773
 C1615 C 0.49013 0.83665 0.61476
 C1616 C 0.47030 0.81789 0.59978
 C1617 C 0.46457 0.79101 0.61023
 H1618 H 0.47557 0.78359 0.62863
 O1619 O 0.50553 1.14653 0.60390
 O1620 O 0.49996 1.17964 0.63558
 C1621 C 0.51129 1.17089 0.61309
 C1622 C 0.53153 1.18866 0.59713
 C1623 C 0.53838 1.21630 0.60543
 H1624 H 0.52871 1.22546 0.62381
 O1625 O 0.38221 0.87937 0.52754
 O1626 O 0.35388 0.84252 0.52851
 C1627 C 0.36038 0.86699 0.53687
 C1628 C 0.34198 0.88106 0.55740
 C1629 C 0.31433 0.87142 0.56140
 H1630 H 0.30674 0.85387 0.54914
 O1631 O 0.61826 1.12504 0.52702
 O1632 O 0.64629 1.16213 0.52627
 C1633 C 0.63978 1.13825 0.53607
 C1634 C 0.65761 1.12575 0.55804
 C1635 C 0.68451 1.13680 0.56349
 H1636 H 0.69206 1.15453 0.55142
 O1637 O 0.51115 1.10877 0.64227
 O1638 O 0.50512 1.14129 0.67448
 C1639 C 0.51865 1.12024 0.66499
 C1640 C 0.54389 1.10925 0.67984
 C1641 C 0.55157 1.11938 0.70628
 H1642 H 0.53837 1.13495 0.71641
 O1643 O 0.48768 0.89788 0.64350
 O1644 O 0.49301 0.86600 0.67646
 C1645 C 0.47918 0.88631 0.66591
 C1646 C 0.45233 0.89591 0.67904
 C1647 C 0.44035 0.88107 0.70149
 H1648 H 0.45145 0.86325 0.71024
 O1649 O 0.63240 1.05357 0.60169
 O1650 O 0.66600 1.05913 0.63312
 C1651 C 0.65403 1.06658 0.61057
 C1652 C 0.66494 1.09076 0.59445
 C1653 C 0.69193 1.10209 0.59973
 H1654 H 0.70508 1.09262 0.61560
 O1655 O 0.36732 0.95360 0.60057
 O1656 O 0.33262 0.94904 0.63115
 C1657 C 0.34511 0.94111 0.60898
 C1658 C 0.33410 0.91702 0.59276
 C1659 C 0.30631 0.90692 0.59672
 H1660 H 0.29259 0.91715 0.61169
 O1661 O 0.57327 1.15629 0.52538
 O1662 O 0.60150 1.19317 0.52430
 C1663 C 0.58016 1.18036 0.53434
 C1664 C 0.56414 1.19317 0.55757
 C1665 C 0.57003 1.22069 0.56569
 H1666 H 0.58502 1.23320 0.55389
 O1667 O 0.42489 0.84528 0.52885
 O1668 O 0.39703 0.80817 0.53011
 C1669 C 0.41823 0.82169 0.53939
 C1670 C 0.43487 0.81050 0.56324
 C1671 C 0.42901 0.78382 0.57451
 H1672 H 0.41292 0.77076 0.56504
 O1673 O 0.60292 0.99406 0.64058
 O1674 O 0.63602 0.99960 0.67251
 C1675 C 0.61452 0.98653 0.66322
 C1676 C 0.60328 0.96205 0.67870
 C1677 C 0.61398 0.95552 0.70510
 H1678 H 0.62978 0.96908 0.71432
 O1679 O 0.39650 1.01373 0.63904
 O1680 O 0.36241 1.00891 0.67019
 C1681 C 0.38411 1.02191 0.66110
 C1682 C 0.39440 1.04722 0.67597
 C1683 C 0.38182 1.05517 0.70121
 H1684 H 0.36548 1.04201 0.71020
 O1685 O 0.45152 1.13698 0.60223
 O1686 O 0.44533 1.17031 0.63360
 C1687 C 0.43819 1.15843 0.61089
 C1688 C 0.41409 1.16927 0.59427
 C1689 C 0.40224 1.19581 0.59976
 H1690 H 0.41114 1.20857 0.61619
 O1691 O 0.54973 0.86945 0.60662
 O1692 O 0.55548 0.83729 0.63927
 C1693 C 0.56313 0.84847 0.61637
 C1694 C 0.58790 0.83743 0.60073
 C1695 C 0.59937 0.81059 0.60631
 H1696 H 0.58991 0.79763 0.62235
 O1697 O 0.65420 0.92572 0.52851
 O1698 O 0.69238 0.89907 0.52910
 C1699 C 0.67862 0.92016 0.53808
 C1700 C 0.69060 0.93758 0.56080
 C1701 C 0.71755 0.93148 0.57158
 H1702 H 0.73027 0.91520 0.56203
 O1703 O 0.34912 1.07974 0.52483
 O1704 O 0.31105 1.10654 0.52334
 C1705 C 0.32446 1.08582 0.53353
 C1706 C 0.31159 1.06893 0.55612
 C1707 C 0.28340 1.07355 0.56432
 H1708 H 0.27059 1.08889 0.55346
 Cu1709 Cu 0.51836 0.88744 0.62157
 Cu1710 Cu 0.52497 0.84912 0.66100
 Cu1711 Cu 0.48187 1.11981 0.61937
 Cu1712 Cu 0.47442 1.15920 0.65756
 Cu1713 Cu 0.40626 0.86481 0.50083
 Cu1714 Cu 0.37236 0.82056 0.50246
 Cu1715 Cu 0.63423 0.90484 0.50255
 Cu1716 Cu 0.67988 0.87246 0.50372
 Cu1717 Cu 0.36988 1.09871 0.49809
 Cu1718 Cu 0.32437 1.13125 0.49651
 Cu1719 Cu 0.59328 1.13619 0.49912
 Cu1720 Cu 0.62746 1.18041 0.49815
 Cu1721 Cu 0.38497 0.98390 0.61719
 Cu1722 Cu 0.34383 0.97834 0.65438
 Cu1723 Cu 0.61485 1.02344 0.61846
 Cu1724 Cu 0.65485 1.02992 0.65654
 C1725 C 0.58278 0.94446 0.66679
 H1726 H 0.57464 0.94934 0.64623
 C1727 C 0.60500 0.93151 0.71961
 C1728 C 0.41550 1.06443 0.66438
 H1729 H 0.42497 1.05858 0.64460
 C1730 C 0.38956 1.08006 0.71486
 C1731 C 0.32785 1.04881 0.57040
 H1732 H 0.34977 1.04553 0.56454
 C1733 C 0.27151 1.05833 0.58646
 C1734 C 0.67422 0.95875 0.57346
 H1735 H 0.65317 0.96317 0.56566
 C1736 C 0.72801 0.94589 0.59493
 C1737 C 0.59992 0.85393 0.57943
 H1738 H 0.59142 0.87460 0.57503
 C1739 C 0.62252 0.80044 0.59056
 C1740 C 0.40282 1.15285 0.57258
 H1741 H 0.41165 1.13229 0.56834
 C1742 C 0.37951 1.20601 0.58362
 C1743 C 0.43724 0.91854 0.66755
 H1744 H 0.44592 0.92960 0.64973
 C1745 C 0.41370 0.88850 0.71238
 C1746 C 0.56124 1.08925 0.66677
 H1747 H 0.55564 1.08158 0.64622
 C1748 C 0.57649 1.11008 0.71951
 C1749 C 0.45570 0.82730 0.57599
 H1750 H 0.45994 0.84813 0.56793
 C1751 C 0.44384 0.77396 0.59801
 C1752 C 0.54459 1.17742 0.57311
 H1753 H 0.54010 1.15604 0.56682
 C1754 C 0.55748 1.23233 0.58942
 C1755 C 0.35168 0.90402 0.57289
 H1756 H 0.37316 0.91143 0.56982
 C1757 C 0.29619 0.88415 0.58079
 C1758 C 0.64807 1.10262 0.57342
 H1759 H 0.62723 1.09410 0.56926
 C1760 C 0.70203 1.12506 0.58403
 O1761 O 0.48908 0.39572 0.86667
 O1762 O 0.49461 0.36262 0.83492
 C1763 C 0.48097 0.38343 0.84453
 C1764 C 0.45493 0.39259 0.83015
 C1765 C 0.44665 0.37929 0.80541
 H1766 H 0.46007 0.36329 0.79628
 O1767 O 0.50656 0.60253 0.86410
 O1768 O 0.50028 0.63418 0.83106
 C1769 C 0.51406 0.61359 0.84112
 C1770 C 0.53940 0.60305 0.82614
 C1771 C 0.54596 0.61368 0.79969
 H1772 H 0.53169 0.62857 0.79005
 O1773 O 0.36167 0.44732 0.90437
 O1774 O 0.32926 0.44108 0.87188
 C1775 C 0.34045 0.43404 0.89498
 C1776 C 0.32939 0.40984 0.91101
 C1777 C 0.30359 0.39693 0.90395
 H1778 H 0.29139 0.40520 0.88675
 O1779 O 0.63508 0.55134 0.89893
 O1780 O 0.66743 0.55713 0.86618
 C1781 C 0.65623 0.56461 0.88920
 C1782 C 0.66723 0.58908 0.90505
 C1783 C 0.69394 0.60097 0.89926
 H1784 H 0.70697 0.59188 0.88303
 O1785 O 0.42043 0.34664 0.97930
 O1786 O 0.39381 0.30862 0.97933
 C1787 C 0.41471 0.32250 0.96963
 C1788 C 0.43231 0.31098 0.94649
 C1789 C 0.42635 0.28446 0.93487
 H1790 H 0.40936 0.27192 0.94350
 O1791 O 0.57617 0.65382 0.97334
 O1792 O 0.60283 0.69182 0.97288
 C1793 C 0.58194 0.67787 0.96345
 C1794 C 0.56452 0.68927 0.94029
 C1795 C 0.57054 0.71577 0.92881
 H1796 H 0.58731 0.72840 0.93766
 O1797 O 0.39232 0.50628 0.86565
 O1798 O 0.36111 0.49953 0.83210
 C1799 C 0.38178 0.51324 0.84233
 C1800 C 0.39307 0.53800 0.82729
 C1801 C 0.38342 0.54426 0.80041
 H1802 H 0.36860 0.53017 0.79040
 O1803 O 0.60553 0.49102 0.86160
 O1804 O 0.63664 0.49658 0.82764
 C1805 C 0.61589 0.48331 0.83835
 C1806 C 0.60340 0.45857 0.82411
 C1807 C 0.60831 0.45315 0.79557
 H1808 H 0.62150 0.46712 0.78332
 O1809 O 0.55158 0.36846 0.90366
 O1810 O 0.55696 0.33595 0.87132
 C1811 C 0.56527 0.34785 0.89349
 C1812 C 0.59180 0.33843 0.90682
 C1813 C 0.60791 0.31667 0.89491
 H1814 H 0.60019 0.30588 0.87656
 O1815 O 0.44525 0.63222 0.90157
 O1816 O 0.43950 0.66445 0.86900
 C1817 C 0.43187 0.65325 0.89186
 C1818 C 0.40699 0.66424 0.90731
 C1819 C 0.39599 0.69125 0.90210
 H1820 H 0.40622 0.70458 0.88683
 O1821 O 0.33886 0.57380 0.97365
 O1822 O 0.30016 0.59970 0.97428
 C1823 C 0.31460 0.57983 0.96385
 C1824 C 0.30427 0.56563 0.93830
 C1825 C 0.28617 0.58038 0.92028
 H1826 H 0.27827 0.60089 0.92626
 O1827 O 0.65761 0.42791 0.97495
 O1828 O 0.69629 0.40198 0.97575
 C1829 C 0.68225 0.42238 0.96575
 C1830 C 0.69416 0.43895 0.94230
 C1831 C 0.72178 0.43386 0.93272
 H1832 H 0.73525 0.41890 0.94339
 O1833 O 0.45216 0.59299 0.86428
 O1834 O 0.44588 0.62477 0.83139
 C1835 C 0.44084 0.60056 0.84144
 C1836 C 0.42138 0.58100 0.82679
 C1837 C 0.41119 0.58706 0.79982
 H1838 H 0.41800 0.60608 0.78949
 O1839 O 0.54340 0.40666 0.86584
 O1840 O 0.54820 0.37405 0.83347
 C1841 C 0.55371 0.39846 0.84272
 C1842 C 0.57243 0.41738 0.82648
 C1843 C 0.57718 0.41263 0.79799
 H1844 H 0.56672 0.39533 0.78755
 O1845 O 0.64436 0.49764 0.89891
 O1846 O 0.67621 0.50270 0.86556
 C1847 C 0.66847 0.49186 0.88863
 C1848 C 0.68727 0.47211 0.90379
 C1849 C 0.71483 0.46621 0.89417
 H1850 H 0.72298 0.47631 0.87555
 O1851 O 0.35187 0.50119 0.90138
 O1852 O 0.32045 0.49533 0.86783
 C1853 C 0.32835 0.50740 0.89011
 C1854 C 0.31115 0.53044 0.90183
 C1855 C 0.29316 0.54577 0.88405
 H1856 H 0.29082 0.53973 0.86237
 O1857 O 0.37130 0.61751 0.97325
 O1858 O 0.33310 0.64418 0.97415
 C1859 C 0.35759 0.63862 0.96443
 C1860 C 0.37047 0.65677 0.94274
 C1861 C 0.35977 0.68368 0.93736
 H1862 H 0.34166 0.69113 0.94910
 O1863 O 0.62649 0.38329 0.97420
 O1864 O 0.66518 0.35732 0.97394
 C1865 C 0.64077 0.36296 0.96437
 C1866 C 0.62907 0.34623 0.94112
 C1867 C 0.64506 0.32469 0.92876
 H1868 H 0.66583 0.31965 0.93689
 O1869 O 0.59562 0.54470 0.86206
 O1870 O 0.62723 0.55088 0.82869
 C1871 C 0.60298 0.55599 0.83916
 C1872 C 0.58312 0.57548 0.82499
 C1873 C 0.58943 0.58669 0.79844
 H1874 H 0.60881 0.58063 0.78804
 O1875 O 0.39987 0.45222 0.86560
 O1876 O 0.36785 0.44517 0.83290
 C1877 C 0.39209 0.44025 0.84317
 C1878 C 0.41131 0.42002 0.82932
 C1879 C 0.40336 0.40646 0.80439
 H1880 H 0.38316 0.41119 0.79486
 O1881 O 0.50007 0.64071 0.90191
 O1882 O 0.49435 0.67254 0.86896
 C1883 C 0.50591 0.66459 0.89160
 C1884 C 0.52709 0.68285 0.90551
 C1885 C 0.53329 0.70951 0.89462
 H1886 H 0.52172 0.71720 0.87668
 O1887 O 0.49662 0.35997 0.90671
 O1888 O 0.50235 0.32713 0.87476
 C1889 C 0.49099 0.33567 0.89733
 C1890 C 0.47008 0.31746 0.91186
 C1891 C 0.46400 0.29083 0.90101
 H1892 H 0.47570 0.28328 0.88307
 O1893 O 0.62096 0.62276 0.97352
 O1894 O 0.64793 0.66058 0.97330
 C1895 C 0.64206 0.63629 0.96402
 C1896 C 0.65996 0.62384 0.94190
 C1897 C 0.68649 0.63542 0.93584
 H1898 H 0.69380 0.65333 0.94775
 O1899 O 0.37504 0.37695 0.97964
 O1900 O 0.34812 0.33910 0.98005
 C1901 C 0.35392 0.36327 0.97045
 C1902 C 0.33620 0.37534 0.94807
 C1903 C 0.31044 0.36274 0.94084
 H1904 H 0.30322 0.34453 0.95236
 Cu1905 Cu 0.51975 0.38599 0.88900
 Cu1906 Cu 0.52613 0.34658 0.85053
 Cu1907 Cu 0.47641 0.61398 0.88630
 Cu1908 Cu 0.46934 0.65217 0.84681
 Cu1909 Cu 0.37954 0.47718 0.88765
 Cu1910 Cu 0.34144 0.46952 0.84788
 Cu1911 Cu 0.61705 0.52064 0.88365
 Cu1912 Cu 0.65507 0.52743 0.84363
 C1913 C 0.43729 0.41312 0.84186
 H1914 H 0.44340 0.42312 0.86124
 C1915 C 0.42098 0.38592 0.79241
 C1916 C 0.55795 0.58373 0.83857
 H1917 H 0.55313 0.57571 0.85920
 C1918 C 0.57092 0.60602 0.78571
 C1919 C 0.34534 0.39903 0.93328
 H1920 H 0.36539 0.40864 0.93866
 C1921 C 0.29380 0.37342 0.91901
 C1922 C 0.65059 0.60058 0.92661
 H1923 H 0.62998 0.59171 0.93121
 C1924 C 0.70390 0.62408 0.91490
 C1925 C 0.45434 0.32727 0.93483
 H1926 H 0.45868 0.34800 0.94307
 C1927 C 0.44201 0.27433 0.91192
 C1928 C 0.54266 0.67302 0.92854
 H1929 H 0.53828 0.65230 0.93682
 C1930 C 0.55514 0.72595 0.90586
 C1931 C 0.41230 0.55630 0.84022
 H1932 H 0.41961 0.55168 0.86114
 C1933 C 0.39215 0.56869 0.78643
 C1934 C 0.58543 0.44050 0.83929
 H1935 H 0.58173 0.44428 0.86130
 C1936 C 0.59480 0.43044 0.78243
 C1937 C 0.60237 0.35279 0.93012
 H1938 H 0.59015 0.36976 0.93918
 C1939 C 0.63466 0.30981 0.90566
 C1940 C 0.39416 0.64736 0.92776
 H1941 H 0.40248 0.62655 0.93179
 C1942 C 0.37251 0.70133 0.91737
 C1943 C 0.31654 0.54047 0.92896
 H1944 H 0.33158 0.52960 0.94218
 C1945 C 0.28144 0.57118 0.89290
 C1946 C 0.67723 0.45841 0.92793
 H1947 H 0.65583 0.46230 0.93515
 C1948 C 0.73208 0.44727 0.90875
 O1949 O 0.54441 0.40331 1.14160
 O1950 O 0.55157 0.37131 1.17409
 C1951 C 0.55569 0.39590 1.16445
 C1952 C 0.57384 0.41635 1.17943
 C1953 C 0.58341 0.41134 1.20684
 H1954 H 0.57717 0.39226 1.21743
 O1955 O 0.45219 0.59781 1.13732
 O1956 O 0.44727 0.63036 1.16975
 C1957 C 0.44265 0.60567 1.16086
 C1958 C 0.42680 0.58567 1.17849
 C1959 C 0.42401 0.59058 1.20711
 H1960 H 0.43313 0.60935 1.21616
 O1961 O 0.36351 0.50435 1.10730
 O1962 O 0.33208 0.50106 1.14131
 C1963 C 0.34036 0.51199 1.11848
 C1964 C 0.32345 0.53496 1.10615
 C1965 C 0.30578 0.55057 1.12380
 H1966 H 0.30428 0.54547 1.14581
 O1967 O 0.63980 0.49817 1.10431
 O1968 O 0.67129 0.50388 1.13778
 C1969 C 0.66371 0.49238 1.11507
 C1970 C 0.68251 0.47153 1.10140
 C1971 C 0.70840 0.46380 1.11365
 H1972 H 0.71511 0.47374 1.13287
 O1973 O 0.62513 0.38242 1.02840
 O1974 O 0.66327 0.35564 1.02796
 C1975 C 0.63863 0.36109 1.03717
 C1976 C 0.62569 0.34248 1.05839
 C1977 C 0.63646 0.31538 1.06266
 H1978 H 0.65404 0.30809 1.05006
 O1979 O 0.36928 0.62055 1.02732
 O1980 O 0.33023 0.64602 1.02766
 C1981 C 0.35491 0.64114 1.03680
 C1982 C 0.36645 0.65867 1.05962
 C1983 C 0.34979 0.67979 1.07216
 H1984 H 0.32874 0.68436 1.06443
 O1985 O 0.40875 0.45368 1.14481
 O1986 O 0.37561 0.44843 1.17690
 C1987 C 0.39954 0.44173 1.16671
 C1988 C 0.41570 0.41841 1.17945
 C1989 C 0.40217 0.40038 1.19827
 H1990 H 0.38068 0.40476 1.20493
 O1991 O 0.59156 0.54719 1.14014
 O1992 O 0.62359 0.55391 1.17289
 C1993 C 0.59953 0.55934 1.16241
 C1994 C 0.58094 0.58059 1.17571
 C1995 C 0.58877 0.59348 1.20100
 H1996 H 0.60818 0.58721 1.21119
 O1997 O 0.49809 0.35547 1.10318
 O1998 O 0.50511 0.32258 1.13487
 C1999 C 0.49293 0.33115 1.11275
 C2000 C 0.47152 0.31338 1.09870
 C2001 C 0.46544 0.28629 1.10861
 H2002 H 0.47749 0.27774 1.12584
 O2003 O 0.49790 0.64527 1.09688
 O2004 O 0.49205 0.67810 1.12883
 C2005 C 0.50355 0.66949 1.10642
 C2006 C 0.52487 0.68727 1.09224
 C2007 C 0.53114 0.71407 1.10267
 H2008 H 0.51912 0.72233 1.12011
 O2009 O 0.37553 0.37731 1.03403
 O2010 O 0.34779 0.34006 1.03435
 C2011 C 0.35401 0.36438 1.04348
 C2012 C 0.33661 0.37830 1.06537
 C2013 C 0.30751 0.37233 1.06912
 H2014 H 0.29708 0.35703 1.05596
 O2015 O 0.62152 0.62392 1.02784
 O2016 O 0.64915 0.66126 1.02749
 C2017 C 0.64306 0.63705 1.03690
 C2018 C 0.66057 0.62358 1.05880
 C2019 C 0.68942 0.63031 1.06276
 H2020 H 0.69964 0.64585 1.04965
 O2021 O 0.50579 0.60894 1.13614
 O2022 O 0.50027 0.64199 1.16797
 C2023 C 0.51378 0.62099 1.15847
 C2024 C 0.53923 0.61084 1.17343
 C2025 C 0.54743 0.62346 1.19862
 H2026 H 0.53463 0.64016 1.20737
 O2027 O 0.49092 0.39066 1.14300
 O2028 O 0.49763 0.35783 1.17482
 C2029 C 0.48321 0.37816 1.16521
 C2030 C 0.45644 0.38676 1.17888
 C2031 C 0.44229 0.36869 1.19766
 H2032 H 0.45155 0.34872 1.20346
 O2033 O 0.62991 0.55200 1.10177
 O2034 O 0.66235 0.55752 1.13443
 C2035 C 0.65141 0.56473 1.11132
 C2036 C 0.66409 0.58791 1.09525
 C2037 C 0.69253 0.59491 1.09912
 H2038 H 0.70525 0.58339 1.11406
 O2039 O 0.36893 0.44966 1.10787
 O2040 O 0.33549 0.44629 1.13994
 C2041 C 0.34663 0.43802 1.11720
 C2042 C 0.33350 0.41477 1.10129
 C2043 C 0.30481 0.40851 1.10482
 H2044 H 0.29224 0.42068 1.11941
 O2045 O 0.57618 0.65498 1.02764
 O2046 O 0.60328 0.69267 1.02764
 C2047 C 0.58197 0.67928 1.03692
 C2048 C 0.56392 0.69180 1.05899
 C2049 C 0.57001 0.71853 1.06990
 H2050 H 0.58753 0.73046 1.06144
 O2051 O 0.42058 0.34579 1.03361
 O2052 O 0.39345 0.30813 1.03414
 C2053 C 0.41481 0.32156 1.04312
 C2054 C 0.43286 0.30903 1.06510
 C2055 C 0.42708 0.28202 1.07536
 H2056 H 0.41003 0.26991 1.06634
 O2057 O 0.59949 0.49269 1.14065
 O2058 O 0.63084 0.49951 1.17404
 C2059 C 0.61024 0.48575 1.16390
 C2060 C 0.59950 0.46090 1.17904
 C2061 C 0.60841 0.45579 1.20636
 H2062 H 0.62200 0.47091 1.21657
 O2063 O 0.40011 0.50815 1.14725
 O2064 O 0.36890 0.50294 1.18120
 C2065 C 0.38974 0.51595 1.17055
 C2066 C 0.40143 0.54136 1.18411
 C2067 C 0.39839 0.54677 1.21301
 H2068 H 0.38783 0.53175 1.22644
 O2069 O 0.44304 0.63576 1.09897
 O2070 O 0.43730 0.66819 1.13131
 C2071 C 0.42918 0.65632 1.10900
 C2072 C 0.40282 0.66585 1.09514
 C2073 C 0.38585 0.68673 1.10738
 H2074 H 0.39248 0.69681 1.12656
 O2075 O 0.55229 0.36544 1.10312
 O2076 O 0.55980 0.33271 1.13482
 C2077 C 0.56644 0.34458 1.11195
 C2078 C 0.59082 0.33432 1.09526
 C2079 C 0.60197 0.30719 1.09934
 H2080 H 0.59240 0.29350 1.11471
 O2081 O 0.65609 0.42720 1.02981
 O2082 O 0.69428 0.40057 1.03059
 C2083 C 0.67995 0.42095 1.04027
 C2084 C 0.69052 0.43679 1.06468
 C2085 C 0.71624 0.42929 1.07729
 H2086 H 0.72913 0.41295 1.06807
 O2087 O 0.34254 0.57307 1.02904
 O2088 O 0.30414 0.59939 1.03044
 C2089 C 0.31934 0.57976 1.04057
 C2090 C 0.31163 0.56684 1.06773
 C2091 C 0.29313 0.58134 1.08569
 H2092 H 0.28245 0.60018 1.07865
 Cu2093 Cu 0.52096 0.38201 1.11961
 Cu2094 Cu 0.52964 0.34283 1.15784
 Cu2095 Cu 0.47507 0.61877 1.11390
 Cu2096 Cu 0.46840 0.65813 1.15247
 Cu2097 Cu 0.40052 0.36545 1.00674
 Cu2098 Cu 0.36820 0.32009 1.00711
 Cu2099 Cu 0.63756 0.40799 1.00181
 Cu2100 Cu 0.68374 0.37638 1.00217
 Cu2101 Cu 0.35915 0.59346 1.00078
 Cu2102 Cu 0.31263 0.62429 1.00126
 Cu2103 Cu 0.59603 0.63510 1.00081
 Cu2104 Cu 0.62841 0.68048 1.00034
 Cu2105 Cu 0.38869 0.47937 1.12364
 Cu2106 Cu 0.34976 0.47414 1.16311
 Cu2107 Cu 0.61193 0.52192 1.11843
 Cu2108 Cu 0.65011 0.52937 1.15819
 C2109 C 0.58198 0.44129 1.16582
 H2110 H 0.57534 0.44511 1.14452
 C2111 C 0.60081 0.43113 1.22046
 C2112 C 0.41576 0.56094 1.16722
 H2113 H 0.41798 0.55714 1.14502
 C2114 C 0.41040 0.57122 1.22461
 C2115 C 0.32665 0.54339 1.07811
 H2116 H 0.34150 0.53239 1.06476
 C2117 C 0.29100 0.57377 1.11382
 C2118 C 0.67390 0.45804 1.07677
 H2119 H 0.65380 0.46357 1.06741
 C2120 C 0.72524 0.44249 1.10192
 C2121 C 0.60270 0.35167 1.07456
 H2122 H 0.59435 0.37262 1.07135
 C2123 C 0.62465 0.29742 1.08280
 C2124 C 0.39310 0.65226 1.07100
 H2125 H 0.40574 0.63568 1.06180
 C2126 C 0.35936 0.69368 1.09610
 C2127 C 0.44300 0.41166 1.17012
 H2128 H 0.45328 0.42520 1.15501
 C2129 C 0.41489 0.37531 1.20692
 C2130 C 0.55599 0.58925 1.16225
 H2131 H 0.54997 0.57968 1.14263
 C2132 C 0.57211 0.61503 1.21260
 C2133 C 0.45525 0.32445 1.07675
 H2134 H 0.45946 0.34551 1.06926
 C2135 C 0.44305 0.27059 1.09729
 C2136 C 0.54114 0.67644 1.07017
 H2137 H 0.53668 0.65558 1.06233
 C2138 C 0.55382 0.72974 1.09192
 C2139 C 0.34920 0.39962 1.08153
 H2140 H 0.37142 0.40456 1.07865
 C2141 C 0.29145 0.38794 1.08852
 C2142 C 0.64828 0.60224 1.07511
 H2143 H 0.62623 0.59672 1.07213
 C2144 C 0.70546 0.61556 1.08273
 N2145 N 1.06914 1.14697 1.25137
 N2146 N 1.08088 1.15615 1.27466
 C2147 C 1.10104 1.13746 1.28190
 C2148 C 1.10118 1.11630 1.26193
 N2149 N 1.08097 1.12311 1.24324
 H2150 H 1.11452 1.09788 1.26103
 N2151 N 1.06625 0.63770 0.75794
 N2152 N 1.07932 0.64774 0.78023
 C2153 C 1.10600 0.63768 0.77972
 C2154 C 1.10886 0.62110 0.75616
 N2155 N 1.08355 0.62172 0.74302
 H2156 H 1.12803 0.61134 0.74845
 N2157 N 0.56670 1.13647 0.76211
 N2158 N 0.58004 1.14665 0.78418
 C2159 C 0.60707 1.13768 0.78267
 C2160 C 0.60986 1.12160 0.75875
 N2161 N 0.58416 1.12145 0.74640
 H2162 H 0.62916 1.11280 0.75026
 N2163 N 0.56930 0.65364 1.24587
 N2164 N 0.58095 0.66225 1.26944
 C2165 C 0.60031 0.64281 1.27690
 C2166 C 0.60005 0.62183 1.25678
 N2167 N 0.58042 0.62944 1.23779
 H2168 H 0.61270 0.60293 1.25607
 N2169 N 0.86601 0.85034 1.20966
 N2170 N 0.85125 0.83923 1.23031
 C2171 C 0.86840 0.83809 1.25275
 C2172 C 0.89457 0.84894 1.24497
 N2173 N 0.89194 0.85668 1.21795
 H2174 H 0.91181 0.85490 1.25860
 N2175 N 0.91559 0.34600 0.73852
 N2176 N 0.90316 0.33620 0.76125
 C2177 C 0.88673 0.35697 0.77156
 C2178 C 0.88944 0.38001 0.75396
 N2179 N 0.90776 0.37224 0.73375
 H2180 H 0.88010 0.40064 0.75612
 N2181 N 0.40615 0.84418 0.73653
 N2182 N 0.39266 0.83396 0.75851
 C2183 C 0.37814 0.85533 0.77030
 C2184 C 0.38322 0.87923 0.75446
 N2185 N 0.40093 0.87133 0.73372
 H2186 H 0.37612 0.90047 0.75844
 N2187 N 0.37151 0.34988 1.21303
 N2188 N 0.35597 0.34024 1.23385
 C2189 C 0.37282 0.33916 1.25649
 C2190 C 0.39955 0.34844 1.24870
 N2191 N 0.39765 0.35527 1.22141
 H2192 H 0.41681 0.35421 1.26239
 N2193 N 0.84875 1.07224 0.75336
 N2194 N 0.83914 1.08392 0.73022
 C2195 C 0.85877 1.10267 0.72173
 C2196 C 0.88090 1.10208 0.74075
 N2197 N 0.87374 1.08281 0.76011
 H2198 H 0.90031 1.11411 0.74049
 N2199 N 0.92363 0.57442 0.23044
 N2200 N 0.91632 0.58654 0.20664
 C2201 C 0.88886 0.59385 0.20908
 C2202 C 0.87958 0.58593 0.23536
 N2203 N 0.90188 0.57362 0.24791
 H2204 H 0.85974 0.59135 0.24537
 N2205 N 0.34950 1.07147 0.25538
 N2206 N 0.33935 1.08269 0.23223
 C2207 C 0.35885 1.10117 0.22291
 C2208 C 0.38139 1.10095 0.24141
 N2209 N 0.37467 1.08213 0.26128
 H2210 H 0.40089 1.11280 0.24043
 N2211 N 0.36161 0.55843 0.74684
 N2212 N 0.35319 0.56959 0.72298
 C2213 C 0.36741 0.59390 0.71990
 C2214 C 0.38492 0.59729 0.74276
 N2215 N 0.38058 0.57469 0.75921
 H2216 H 0.39854 0.61495 0.74728
 N2217 N 1.14163 0.93988 0.74408
 N2218 N 1.15026 0.92934 0.72004
 C2219 C 1.13479 0.90606 0.71536
 C2220 C 1.11620 0.90270 0.73753
 N2221 N 1.12125 0.92428 0.75511
 H2222 H 1.10110 0.88593 0.74070
 N2223 N 1.10433 0.44029 0.23532
 N2224 N 1.11152 0.43052 0.21046
 C2225 C 1.11035 0.40228 0.21200
 C2226 C 1.10213 0.39502 0.23880
 N2227 N 1.09873 0.41939 0.25272
 H2228 H 1.10119 0.37420 0.24785
 N2229 N 0.65558 0.91956 0.25798
 N2230 N 0.66468 0.90849 0.23431
 C2231 C 0.64432 0.89088 0.22519
 C2232 C 0.62231 0.89145 0.24443
 N2233 N 0.63022 0.90965 0.26447
 H2234 H 0.60230 0.88044 0.24372
 N2235 N 0.57353 0.42622 0.73683
 N2236 N 0.57955 0.41560 0.71201
 C2237 C 0.60728 0.40888 0.71220
 C2238 C 0.61814 0.41572 0.73815
 N2239 N 0.59635 0.42664 0.75280
 H2240 H 0.63878 0.41052 0.74647
 N2241 N 1.23971 1.14924 1.07110
 N2242 N 1.26545 1.15643 1.07929
 C2243 C 1.27075 1.14215 1.10299
 C2244 C 1.24717 1.12584 1.10902
 N2245 N 1.22825 1.13088 1.08860
 H2246 H 1.24393 1.11207 1.12667
 N2247 N 1.23862 0.66230 0.58257
 N2248 N 1.26400 0.66939 0.59176
 C2249 C 1.27225 0.64908 0.60956
 C2250 C 1.25091 0.62921 0.61099
 N2251 N 1.23026 0.63825 0.59380
 H2252 H 1.25081 0.60981 0.62270
 N2253 N 0.74154 1.15554 0.57145
 N2254 N 0.76725 1.16225 0.58006
 C2255 C 0.77245 1.14685 0.60313
 C2256 C 0.74879 1.13039 0.60832
 N2257 N 0.73000 1.13645 0.58807
 H2258 H 0.74543 1.11576 0.62523
 N2259 N 0.75281 0.59752 1.07761
 N2260 N 0.77793 0.60082 1.08936
 C2261 C 0.77647 0.62445 1.10471
 C2262 C 0.74964 0.63571 1.10179
 N2263 N 0.73558 0.61836 1.08447
 H2264 H 0.74051 0.65315 1.11316
 N2265 N 1.27993 0.93781 0.92497
 N2266 N 1.30165 0.92254 0.91650
 C2267 C 1.29684 0.91555 0.88967
 C2268 C 1.27106 0.92734 0.88192
 N2269 N 1.26106 0.94081 0.90478
 H2270 H 1.25881 0.92252 0.86345
 N2271 N 1.23517 0.41634 0.34928
 N2272 N 1.25473 0.40116 0.33664
 C2273 C 1.26773 0.38571 0.35643
 C2274 C 1.25517 0.39203 0.38195
 N2275 N 1.23505 0.41138 0.37648
 H2276 H 1.26058 0.38409 0.40241
 N2277 N 0.72914 0.91363 0.34742
 N2278 N 0.74752 0.89749 0.33419
 C2279 C 0.76230 0.88357 0.35386
 C2280 C 0.75224 0.89177 0.37982
 N2281 N 0.73165 0.91066 0.37479
 H2282 H 0.75983 0.88560 0.40022
 N2283 N 0.78318 0.44738 0.91349
 N2284 N 0.80524 0.43324 0.90372
 C2285 C 0.79568 0.41724 0.88253
 C2286 C 0.76695 0.42175 0.87982
 N2287 N 0.76009 0.44100 0.89923
 H2288 H 0.75211 0.41020 0.86701
 N2289 N 0.75649 0.84745 1.06637
 N2290 N 0.73102 0.84029 1.07546
 C2291 C 0.72673 0.85415 1.09964
 C2292 C 0.75055 0.87013 1.10503
 N2293 N 0.76862 0.86538 1.08378
 H2294 H 0.75451 0.88348 1.12283
 N2295 N 0.74416 0.41608 0.58655
 N2296 N 0.71919 0.41302 0.59859
 C2297 C 0.71581 0.38544 0.60364
 C2298 C 0.73981 0.37148 0.59383
 N2299 N 0.75728 0.39163 0.58370
 H2300 H 0.74555 0.34977 0.59737
 N2301 N 0.25653 0.85497 0.56627
 N2302 N 0.23067 0.84801 0.57429
 C2303 C 0.22502 0.86272 0.59769
 C2304 C 0.24853 0.87913 0.60366
 N2305 N 0.26772 0.87359 0.58357
 H2306 H 0.25174 0.89303 0.62119
 N2307 N 0.24573 0.40996 1.08884
 N2308 N 0.22003 0.40532 1.09864
 C2309 C 0.21862 0.37799 1.10586
 C2310 C 0.24468 0.36578 1.09959
 N2311 N 0.26106 0.38670 1.08931
 H2312 H 0.25209 0.34509 1.10542
 N2313 N 0.79146 1.11958 0.86439
 N2314 N 0.77484 1.13803 0.85202
 C2315 C 0.74978 1.12526 0.84744
 C2316 C 0.75178 1.09788 0.85726
 N2317 N 0.77809 1.09545 0.86795
 H2318 H 0.73481 1.08284 0.85999
 N2319 N 0.73535 0.54838 0.36858
 N2320 N 0.71268 0.56115 0.35843
 C2321 C 0.71156 0.58675 0.37039
 C2322 C 0.73435 0.58918 0.38830
 N2323 N 0.74868 0.56481 0.38658
 H2324 H 0.74072 0.60740 0.40019
 N2325 N 0.24058 1.04984 0.36934
 N2326 N 0.21811 1.06265 0.35888
 C2327 C 0.21546 1.08734 0.37243
 C2328 C 0.23718 1.08907 0.39178
 N2329 N 0.25242 1.06530 0.38911
 H2330 H 0.24229 1.10647 0.40533
 N2331 N 0.28670 0.61496 0.86879
 N2332 N 0.27115 0.63337 0.85510
 C2333 C 0.24591 0.62115 0.84996
 C2334 C 0.24667 0.59410 0.86083
 N2335 N 0.27245 0.59140 0.87270
 H2336 H 0.22924 0.57953 0.86325
 N2337 N 1.11919 1.21907 1.13207
 N2338 N 1.13583 1.23947 1.14115
 C2339 C 1.11971 1.26272 1.14272
 C2340 C 1.09252 1.25587 1.13434
 N2341 N 1.09305 1.22834 1.12803
 H2342 H 1.07509 1.27008 1.13030
 N2343 N 1.04741 0.77120 0.61568
 N2344 N 1.05937 0.79397 0.62621
 C2345 C 1.08634 0.79437 0.61696
 C2346 C 1.09045 0.77103 0.60018
 N2347 N 1.06565 0.75708 0.59999
 H2348 H 1.10996 0.76395 0.59060
 N2349 N 0.56347 1.28120 0.57770
 N2350 N 0.57886 1.30288 0.58588
 C2351 C 0.59062 1.29559 0.61040
 C2352 C 0.58159 1.26888 0.61734
 N2353 N 0.56451 1.26069 0.59636
 H2354 H 0.58861 1.25590 0.63454
 N2355 N 0.54425 0.77030 1.12170
 N2356 N 0.55777 0.79196 1.13274
 C2357 C 0.58433 0.79155 1.12236
 C2358 C 0.58658 0.76891 1.10447
 N2359 N 0.56115 0.75614 1.10465
 H2360 H 0.60539 0.76146 1.09390
 N2361 N 0.84961 1.24403 0.93065
 N2362 N 0.84226 1.26946 0.92221
 C2363 C 0.85421 1.27342 0.89694
 C2364 C 0.86932 1.24934 0.89023
 N2365 N 0.86586 1.23149 0.91182
 H2366 H 0.88119 1.24504 0.87139
 N2367 N 0.86537 0.74992 0.43177
 N2368 N 0.85842 0.77485 0.42168
 C2369 C 0.86710 0.77555 0.39481
 C2370 C 0.87961 0.75006 0.38876
 N2371 N 0.87800 0.73465 0.41232
 H2372 H 0.88706 0.74267 0.36867
 N2373 N 0.37039 1.25205 0.43467
 N2374 N 0.36363 1.27734 0.42533
 C2375 C 0.37190 1.27854 0.39838
 C2376 C 0.38391 1.25301 0.39149
 N2377 N 0.38246 1.23705 0.41465
 H2378 H 0.39073 1.24596 0.37108
 N2379 N 0.34512 0.74209 0.93216
 N2380 N 0.33887 0.76789 0.92398
 C2381 C 0.35224 0.77223 0.89947
 C2382 C 0.36703 0.74792 0.89289
 N2383 N 0.36202 0.72961 0.91388
 H2384 H 0.37989 0.74392 0.87463
 N2385 N 1.17949 0.78478 0.89547
 N2386 N 1.18959 0.76263 0.88211
 C2387 C 1.16767 0.75056 0.86864
 C2388 C 1.14365 0.76615 0.87427
 N2389 N 1.15194 0.78727 0.89112
 H2390 H 1.12213 0.76182 0.86790
 N2391 N 1.15425 0.25239 0.43534
 N2392 N 1.16145 0.22731 0.42580
 C2393 C 1.14631 0.22291 0.40238
 C2394 C 1.12953 0.24627 0.39789
 N2395 N 1.13508 0.26420 0.41894
 H2396 H 1.11519 0.25002 0.38075
 N2397 N 0.65221 0.75363 0.43374
 N2398 N 0.65911 0.72847 0.42412
 C2399 C 0.64447 0.72461 0.40028
 C2400 C 0.62838 0.74839 0.39562
 N2401 N 0.63373 0.76599 0.41699
 H2402 H 0.61459 0.75259 0.37815
 N2403 N 0.67989 0.28759 0.89514
 N2404 N 0.69014 0.26567 0.88151
 C2405 C 0.66798 0.25245 0.86958
 C2406 C 0.64367 0.26710 0.87644
 N2407 N 0.65204 0.28884 0.89247
 H2408 H 0.62201 0.26174 0.87145
 N2409 N 0.88190 0.77713 1.13023
 N2410 N 0.86591 0.75672 1.14040
 C2411 C 0.88183 0.73324 1.14012
 C2412 C 0.90820 0.73990 1.12937
 N2413 N 0.90737 0.76755 1.12364
 H2414 H 0.92510 0.72564 1.12366
 N2415 N 0.95212 0.23339 0.62433
 N2416 N 0.93959 0.21073 0.63455
 C2417 C 0.91298 0.21053 0.62442
 C2418 C 0.90963 0.23384 0.60760
 N2419 N 0.93452 0.24756 0.60807
 H2420 H 0.89049 0.24102 0.59750
 N2421 N 0.45478 0.73343 0.62724
 N2422 N 0.44214 0.71102 0.63785
 C2423 C 0.41558 0.71058 0.62756
 C2424 C 0.41245 0.73352 0.61009
 N2425 N 0.43736 0.74723 0.61048
 H2426 H 0.39353 0.74047 0.59943
 N2427 N 0.45311 0.22875 1.12501
 N2428 N 0.43998 0.20617 1.13463
 C2429 C 0.41341 0.20671 1.12432
 C2430 C 0.41073 0.23044 1.10800
 N2431 N 0.43595 0.24365 1.10897
 H2432 H 0.39178 0.23818 1.09795
 N2433 N 1.07589 1.08104 0.73583
 N2434 N 1.08597 1.08635 0.71069
 C2435 C 1.09347 1.11372 0.70995
 C2436 C 1.08703 1.12526 0.73588
 N2437 N 1.07640 1.10393 0.75136
 H2438 H 1.09262 1.14583 0.74373
 N2439 N 1.06808 0.63598 0.24258
 N2440 N 1.08171 0.64847 0.22192
 C2441 C 1.10791 0.63731 0.22106
 C2442 C 1.10973 0.61718 0.24200
 N2443 N 1.08444 0.61723 0.25512
 H2444 H 1.12810 0.60520 0.24825
 N2445 N 0.58910 1.15555 0.26040
 N2446 N 0.60178 1.16576 0.23797
 C2447 C 0.61715 1.14472 0.22673
 C2448 C 0.61351 1.12111 0.24325
 N2449 N 0.59577 1.12880 0.26393
 H2450 H 0.62174 1.10017 0.23994
 N2451 N 0.56143 0.63944 0.74855
 N2452 N 0.57248 0.64891 0.72503
 C2453 C 0.59635 0.63415 0.72044
 C2454 C 0.59962 0.61518 0.74214
 N2455 N 0.57729 0.61921 0.75932
 H2456 H 0.61686 0.60058 0.74532
 N2457 N 0.92648 0.84750 0.75498
 N2458 N 0.91536 0.83824 0.73144
 C2459 C 0.89634 0.85760 0.72310
 C2460 C 0.89611 0.87911 0.74253
 N2461 N 0.91525 0.87197 0.76206
 H2462 H 0.88374 0.89822 0.74229
 N2463 N 0.93272 0.34653 0.25421
 N2464 N 0.92130 0.33743 0.23072
 C2465 C 0.90000 0.35517 0.22446
 C2466 C 0.89875 0.37550 0.24504
 N2467 N 0.91954 0.36935 0.26327
 H2468 H 0.88406 0.39282 0.24663
 N2469 N 0.41882 0.83713 0.26522
 N2470 N 0.40382 0.82542 0.24507
 C2471 C 0.38553 0.84508 0.23585
 C2472 C 0.38986 0.86933 0.25107
 N2473 N 0.41080 0.86348 0.26918
 H2474 H 0.37909 0.88926 0.24905
 N2475 N 0.42306 0.34548 0.76148
 N2476 N 0.41219 0.33637 0.73775
 C2477 C 0.39420 0.35635 0.72856
 C2478 C 0.39439 0.37814 0.74781
 N2479 N 0.41268 0.37046 0.76797
 H2480 H 0.38294 0.39779 0.74710
 N2481 N 1.07261 0.91436 1.26916
 N2482 N 1.08020 0.90084 1.29203
 C2483 C 1.10872 0.90078 1.29273
 C2484 C 1.11841 0.91520 1.26928
 N2485 N 1.09505 0.92295 1.25488
 H2486 H 1.13988 0.91586 1.26133
 N2487 N 1.13952 0.43673 0.75519
 N2488 N 1.14819 0.42562 0.77896
 C2489 C 1.13227 0.40261 0.78348
 C2490 C 1.11340 0.39998 0.76152
 N2491 N 1.11871 0.42173 0.74420
 H2492 H 1.09798 0.38354 0.75827
 N2493 N 0.63714 0.94141 0.75803
 N2494 N 0.64629 0.93018 0.78158
 C2495 C 0.63200 0.90598 0.78510
 C2496 C 0.61369 0.90272 0.76283
 N2497 N 0.61761 0.92532 0.74630
 H2498 H 0.59977 0.88520 0.75873
 N2499 N 0.62661 0.44556 1.26199
 N2500 N 0.63674 0.43498 1.28544
 C2501 C 0.62826 0.40799 1.28664
 C2502 C 0.61230 0.40247 1.26297
 N2503 N 0.61194 0.42645 1.24807
 H2504 H 0.60326 0.38268 1.25648
 N2505 N 0.84898 1.06910 1.24862
 N2506 N 0.84054 1.07953 1.27277
 C2507 C 0.86000 1.09862 1.28079
 C2508 C 0.88088 1.09953 1.26032
 N2509 N 0.87312 1.08074 1.24064
 H2510 H 0.89982 1.11227 1.25986
 N2511 N 0.84931 0.57872 0.73907
 N2512 N 0.83981 0.58979 0.76255
 C2513 C 0.85998 0.60750 0.77176
 C2514 C 0.88227 0.60701 0.75295
 N2515 N 0.87472 0.58874 0.73290
 H2516 H 0.90217 0.61820 0.75398
 N2517 N 0.35077 1.07567 0.74800
 N2518 N 0.34154 1.08656 0.77168
 C2519 C 0.36027 1.10647 0.77930
 C2520 C 0.38147 1.10741 0.75922
 N2521 N 0.37468 1.08782 0.74002
 H2522 H 0.39994 1.12082 0.75873
 N2523 N 0.43384 0.58683 1.26631
 N2524 N 0.42726 0.59989 1.28976
 C2525 C 0.39898 0.59789 1.29292
 C2526 C 0.38844 0.58254 1.27051
 N2527 N 0.41095 0.57645 1.25415
 H2528 H 0.36648 0.58000 1.26455
 N2529 N 1.04322 1.26706 0.87708
 N2530 N 1.05642 1.28896 0.86614
 C2531 C 1.08249 1.28983 0.87759
 C2532 C 1.08462 1.26767 0.89628
 N2533 N 1.05974 1.25394 0.89520
 H2534 H 1.10297 1.26096 0.90798
 N2535 N 1.12596 0.72035 0.37100
 N2536 N 1.14199 0.74152 0.36277
 C2537 C 1.12465 0.76356 0.35851
 C2538 C 1.09709 0.75492 0.36404
 N2539 N 1.09897 0.72783 0.37208
 H2540 H 1.07836 0.76792 0.36583
 N2541 N 0.58361 1.23898 0.34619
 N2542 N 0.59833 1.26003 0.33556
 C2543 C 0.61226 1.27215 0.35693
 C2544 C 0.60553 1.25785 0.38113
 N2545 N 0.58743 1.23736 0.37352
 H2546 H 0.61173 1.26301 0.40225
 N2547 N 0.54481 0.76657 0.87650
 N2548 N 0.55765 0.78903 0.86623
 C2549 C 0.58416 0.78920 0.87665
 C2550 C 0.58710 0.76602 0.89377
 N2551 N 0.56208 0.75246 0.89313
 H2552 H 0.60596 0.75894 0.90444
 N2553 N 0.84194 1.23936 1.07379
 N2554 N 0.83470 1.26454 1.08311
 C2555 C 0.85094 1.26990 1.10562
 C2556 C 0.86848 1.24684 1.10969
 N2557 N 0.86220 1.22826 1.08939
 H2558 H 0.88406 1.24379 1.12587
 N2559 N 0.84840 0.74351 0.56656
 N2560 N 0.84108 0.76884 0.57536
 C2561 C 0.85557 0.77367 0.59909
 C2562 C 0.87210 0.75023 0.60450
 N2563 N 0.86703 0.73189 0.58370
 H2564 H 0.88605 0.74670 0.62201
 N2565 N 0.34946 1.24574 0.57101
 N2566 N 0.34220 1.27090 0.58030
 C2567 C 0.35632 1.27511 0.60440
 C2568 C 0.37260 1.25140 0.60948
 N2569 N 0.36771 1.23359 0.58816
 H2570 H 0.38634 1.24737 0.62703
 N2571 N 0.33301 0.70406 1.13775
 N2572 N 0.32405 0.72633 1.15161
 C2573 C 0.32570 0.74852 1.13415
 C2574 C 0.33620 0.73889 1.10880
 N2575 N 0.34059 0.71104 1.11209
 H2576 H 0.34414 0.75141 1.09161
 N2577 N 0.95684 0.73205 0.87352
 N2578 N 0.94335 0.71016 0.86292
 C2579 C 0.91704 0.71019 0.87397
 C2580 C 0.91491 0.73286 0.89182
 N2581 N 0.94016 0.74598 0.89093
 H2582 H 0.89630 0.74012 0.90288
 N2583 N 0.95319 0.22695 0.38365
 N2584 N 0.94111 0.20454 0.37249
 C2585 C 0.91426 0.20389 0.38200
 C2586 C 0.91034 0.22669 0.39954
 N2587 N 0.93514 0.24060 0.39997
 H2588 H 0.89092 0.23341 0.40953
 N2589 N 0.37924 0.77364 0.38043
 N2590 N 0.36355 0.75240 0.37189
 C2591 C 0.38136 0.73107 0.36606
 C2592 C 0.40885 0.74028 0.37095
 N2593 N 0.40645 0.76692 0.38020
 H2594 H 0.42804 0.72785 0.37134
 N2595 N 0.45116 0.23636 0.87899
 N2596 N 0.43803 0.21482 0.86736
 C2597 C 0.41236 0.21282 0.87959
 C2598 C 0.41040 0.23395 0.89946
 N2599 N 0.43499 0.24826 0.89828
 H2600 H 0.39225 0.23957 0.91208
 N2601 N 1.17178 0.77700 1.09502
 N2602 N 1.18216 0.75402 1.10657
 C2603 C 1.16161 0.74307 1.12288
 C2604 C 1.13809 0.76046 1.12095
 N2605 N 1.14535 0.78131 1.10325
 H2606 H 1.11760 0.75785 1.13071
 N2607 N 1.16956 0.26758 0.60163
 N2608 N 1.17632 0.24231 0.61096
 C2609 C 1.15298 0.23135 0.62304
 C2610 C 1.13144 0.25107 0.62072
 N2611 N 1.14269 0.27337 0.60707
 H2612 H 1.10945 0.24858 0.62667
 N2613 N 0.65388 0.76201 0.57767
 N2614 N 0.66070 0.73624 0.58532
 C2615 C 0.64470 0.72993 0.60776
 C2616 C 0.62771 0.75302 0.61364
 N2617 N 0.63412 0.77262 0.59429
 H2618 H 0.61242 0.75533 0.63031
 N2619 N 0.65092 0.25660 1.06611
 N2620 N 0.65805 0.23096 1.07416
 C2621 C 0.64675 0.22694 1.09975
 C2622 C 0.63226 0.25126 1.10702
 N2623 N 0.63541 0.26920 1.08547
 H2624 H 0.62095 0.25574 1.12615
 N2625 N 1.24169 1.15396 0.93392
 N2626 N 1.26720 1.16150 0.92525
 C2627 C 1.27223 1.14749 0.90130
 C2628 C 1.24881 1.13101 0.89562
 N2629 N 1.23022 1.13564 0.91648
 H2630 H 1.24545 1.11741 0.87789
 N2631 N 1.25499 0.59033 0.41351
 N2632 N 1.27942 0.59459 0.40065
 C2633 C 1.27743 0.61962 0.38774
 C2634 C 1.25101 0.63087 0.39352
 N2635 N 1.23769 0.61191 0.40982
 H2636 H 1.24161 0.64966 0.38481
 N2637 N 0.74689 1.13822 0.43941
 N2638 N 0.77304 1.14432 0.43154
 C2639 C 0.77678 1.13280 0.40609
 C2640 C 0.75198 1.11939 0.39863
 N2641 N 0.73386 1.12329 0.41997
 H2642 H 0.74716 1.10893 0.37918
 N2643 N 0.74250 0.65601 0.92647
 N2644 N 0.76800 0.66335 0.91761
 C2645 C 0.77368 0.64762 0.89492
 C2646 C 0.75062 0.63023 0.89022
 N2647 N 0.73157 0.63617 0.91037
 H2648 H 0.74796 0.61494 0.87379
 N2649 N 1.26642 0.94189 1.13074
 N2650 N 1.28743 0.92672 1.14102
 C2651 C 1.28445 0.90029 1.13122
 C2652 C 1.26068 0.89985 1.11440
 N2653 N 1.25004 0.92620 1.11472
 H2654 H 1.25110 0.88186 1.10437
 N2655 N 1.27061 0.45435 0.62680
 N2656 N 1.29258 0.44106 0.63774
 C2657 C 1.29276 0.41497 0.62680
 C2658 C 1.27017 0.41278 0.60868
 N2659 N 1.25684 0.43776 0.60927
 H2660 H 1.26304 0.39426 0.59769
 N2661 N 0.76912 0.95455 0.62452
 N2662 N 0.79137 0.94099 0.63453
 C2663 C 0.79115 0.91507 0.62317
 C2664 C 0.76797 0.91325 0.60575
 N2665 N 0.75474 0.93830 0.60718
 H2666 H 0.76050 0.89496 0.59460
 N2667 N 0.76440 0.44909 1.13445
 N2668 N 0.78626 0.43506 1.14463
 C2669 C 0.78672 0.40980 1.13189
 C2670 C 0.76430 0.40888 1.11342
 N2671 N 0.75090 0.43380 1.11564
 H2672 H 0.75768 0.39139 1.10062
 N2673 N 0.71711 1.05597 1.07843
 N2674 N 0.69517 1.07069 1.08752
 C2675 C 0.70342 1.08345 1.11125
 C2676 C 0.73124 1.07622 1.11634
 N2677 N 0.73891 1.05879 1.09554
 H2678 H 0.74542 1.08541 1.13154
 N2679 N 0.72972 0.54759 0.61809
 N2680 N 0.70742 0.56034 0.62909
 C2681 C 0.70876 0.58753 0.62131
 C2682 C 0.73267 0.59095 0.60486
 N2683 N 0.74519 0.56555 0.60347
 H2684 H 0.74111 0.61025 0.59633
 N2685 N 0.22644 1.04446 0.60704
 N2686 N 0.20261 1.05611 0.61585
 C2687 C 0.20402 1.08375 0.60962
 C2688 C 0.22964 1.08857 0.59645
 N2689 N 0.24297 1.06358 0.59535
 H2690 H 0.23859 1.10846 0.59001
 N2691 N 0.28844 0.60137 1.15637
 N2692 N 0.27062 0.61829 1.16958
 C2693 C 0.24690 0.61896 1.15402
 C2694 C 0.25060 0.60235 1.13082
 N2695 N 0.27674 0.59164 1.13320
 H2696 H 0.23581 0.59814 1.11421
 N2697 N 0.76011 0.84144 0.92528
 N2698 N 0.73422 0.83469 0.91716
 C2699 C 0.72719 0.85251 0.89644
 C2700 C 0.74987 0.87050 0.89215
 N2701 N 0.77002 0.86289 0.91058
 H2702 H 0.75148 0.88736 0.87715
 N2703 N 0.74460 0.40582 0.42938
 N2704 N 0.71832 0.40086 0.42122
 C2705 C 0.71885 0.37668 0.40660
 C2706 C 0.74645 0.36712 0.40573
 N2707 N 0.76175 0.38578 0.42041
 H2708 H 0.75499 0.35018 0.39322
 N2709 N 0.24885 0.89750 0.41879
 N2710 N 0.22507 0.89441 0.40453
 C2711 C 0.22885 0.87225 0.38751
 C2712 C 0.25565 0.86148 0.39222
 N2713 N 0.26743 0.87774 0.41212
 H2714 H 0.26630 0.84497 0.38074
 N2715 N 0.25838 0.33657 0.92465
 N2716 N 0.23310 0.32934 0.91525
 C2717 C 0.22549 0.34887 0.89633
 C2718 C 0.24708 0.36841 0.89448
 N2719 N 0.26727 0.35997 0.91249
 H2720 H 0.24766 0.38716 0.88178
   
