data_POSCAR
  _audit_creation_date              2014-09-24
  _audit_creation_method            'ToBaCCo'
  _symmetry_space_group_name_H-M    'P1'
  _symmetry_Int_Tables_number       1
  _symmetry_cell_setting            triclinic
  loop_
  _symmetry_equiv_pos_as_xyz
 x,y,z
_cell_length_a 68.6711
_cell_length_b 69.7406
_cell_length_c 71.6483
_cell_angle_alpha 89.558200
_cell_angle_beta 89.537400
_cell_angle_gamma 90.032600
loop_
  _atom_site_label
  _atom_site_type_symbol
  _atom_site_fract_x
  _atom_site_fract_y
  _atom_site_fract_z
N1 N 0.31849 0.42148 0.93099
 N2 N 0.45685 0.81281 0.43648
 N3 N 0.92731 0.94348 0.82472
 N4 N 0.42714 -0.07612 0.31985
 N5 N 0.83285 0.32149 0.32758
 N6 N -0.18990 0.80777 0.81208
 N7 N 0.93298 0.33476 0.42570
 N8 N 0.42156 0.42450 0.82686
 N9 N 0.81188 0.94303 0.92683
 N10 N 0.32213 0.81039 0.32477
 N11 N 0.81350 0.45028 0.43270
 N12 N 0.92770 0.81242 -0.07043
 N13 N 0.28574 0.29240 0.80343
 N14 N 0.19328 0.55982 0.56715
 N15 N 0.55334 0.68184 0.06101
 N16 N 0.67200 0.17686 0.67174
 N17 N 1.05936 0.07673 0.18465
 N18 N 0.07061 0.17102 1.08330
 N19 N 0.18835 0.67921 0.68957
 N20 N 1.19758 0.17915 0.18428
 N21 N 0.68982 1.07519 0.56101
 N22 N 0.56477 0.55690 0.18536
 N23 N 0.69024 0.68506 0.18135
 N24 N 0.18397 0.05173 1.07236
 N25 N 0.56190 0.18743 0.56065
 N26 N 0.06555 0.58078 0.68515
 N27 N 0.67998 0.57098 0.06749
 N28 N 0.07646 0.69581 0.57001
 N29 N 0.55750 1.06474 0.67784
 N30 N 0.43629 0.31030 0.92200
 N31 N 0.94422 0.44961 0.31893
 N32 N 0.31556 0.93233 0.43317
 O33 O 0.26285 0.43811 0.74495
 O34 O 0.25846 0.44934 0.71497
 O35 O 0.29011 0.48377 0.77399
 O36 O 0.28439 0.51440 0.78059
 O37 O 0.24086 0.45451 0.79833
 O38 O 0.20700 0.45637 0.79424
 O39 O 0.23460 0.54125 0.73660
 O40 O 0.26761 0.53624 0.73742
 O41 O 0.20864 0.49726 0.70771
 O42 O 0.20954 0.46268 0.70862
 O43 O 0.18641 0.51242 0.76011
 O44 O 0.19459 0.50702 0.79131
 O45 O 0.21300 0.53786 0.76068
 O46 O 0.21828 0.52429 0.79423
 O47 O 0.18486 0.49454 0.73377
 O48 O 0.19169 0.45823 0.73112
 O49 O 0.23239 0.51999 0.70886
 O50 O 0.26806 0.51342 0.71246
 O51 O 0.23997 0.43334 0.76776
 O52 O 0.20479 0.44089 0.76938
 O53 O 0.26387 0.47776 0.80128
 O54 O 0.26028 0.51390 0.79902
 O55 O 0.28922 0.46480 0.74831
 O56 O 0.27920 0.47484 0.71610
 Zr57 Zr 0.26031 0.46731 0.73858
 O58 O 0.24146 0.48628 0.72464
 Zr59 Zr 0.26171 0.49442 0.77653
 O60 O 0.24430 0.51537 0.76347
 Zr61 Zr 0.22776 0.46075 0.77269
 O62 O 0.20816 0.48064 0.76098
 Zr63 Zr 0.24691 0.51402 0.73422
 O64 O 0.26688 0.49526 0.74740
 Zr65 Zr 0.21224 0.48086 0.73197
 O66 O 0.23089 0.45986 0.74357
 Zr67 Zr 0.21507 0.50876 0.76917
 O68 O 0.23253 0.48844 0.78347
 O69 O 0.25689 0.46671 0.76743
 O70 O 0.21765 0.50884 0.74023
 C71 C 0.25352 0.42745 0.75663
 C72 C 0.29804 0.47228 0.76226
 C73 C 0.25458 0.46283 0.80721
 C74 C 0.22148 0.54776 0.74771
 C75 C 0.21775 0.51185 0.70107
 C76 C 0.17757 0.50633 0.74564
 H77 H 0.24374 0.48537 0.71102
 H78 H 0.19468 0.47715 0.76458
 H79 H 0.26571 0.45736 0.77347
 H80 H 0.24792 0.52824 0.76800
 H81 H 0.28021 0.52993 0.74008
 H82 H 0.28256 0.52462 0.77114
 H83 H 0.18212 0.46019 0.74131
 H84 H 0.20591 0.43587 0.75653
 H85 H 0.26683 0.52546 0.70510
 H86 H 0.28966 0.46507 0.71521
 H87 H 0.18930 0.49384 0.79135
 H88 H 0.20727 0.46803 0.80202
 H89 H 0.24502 0.44421 0.71482
 H90 H 0.22156 0.46408 0.70104
 H91 H 0.24975 0.50939 0.80749
 H92 H 0.22730 0.53509 0.79172
 O93 O 0.23818 0.03896 0.23429
 O94 O 0.27040 0.03333 0.24262
 O95 O 0.22096 -0.01098 0.20463
 O96 O 0.21981 -0.04275 0.20969
 O97 O 0.18441 0.01182 0.24792
 O98 O 0.18459 0.00906 0.28112
 O99 O 0.26181 -0.06203 0.26322
 O100 O 0.26368 -0.05660 0.23119
 O101 O 0.28117 -0.01303 0.28979
 O102 O 0.27329 0.02107 0.28836
 O103 O 0.22812 -0.03870 0.30581
 O104 O 0.19517 -0.03793 0.29391
 O105 O 0.23394 -0.06326 0.28065
 O106 O 0.19858 -0.05645 0.27253
 O107 O 0.25077 -0.01538 0.30997
 O108 O 0.24867 0.02023 0.30365
 O109 O 0.28586 -0.03618 0.26801
 O110 O 0.28558 -0.02975 0.23369
 O111 O 0.21168 0.03856 0.25370
 O112 O 0.20573 0.02997 0.28603
 O113 O 0.18905 -0.01086 0.22566
 O114 O 0.19655 -0.04570 0.22999
 O115 O 0.24358 0.01243 0.20889
 O116 O 0.27642 0.00893 0.22233
 Zr117 Zr 0.24989 0.01130 0.23756
 O118 O 0.26526 -0.00542 0.25703
 Zr119 Zr 0.21662 -0.02272 0.23149
 O120 O 0.23111 -0.04120 0.25023
 Zr121 Zr 0.20985 0.01024 0.26410
 O122 O 0.22342 -0.00700 0.28448
 Zr123 Zr 0.26091 -0.03453 0.25116
 O124 O 0.24692 -0.01782 0.23041
 Zr125 Zr 0.25352 -0.00169 0.28387
 O126 O 0.23967 0.01696 0.26479
 Zr127 Zr 0.22081 -0.03610 0.27742
 O128 O 0.20480 -0.01891 0.25840
 O129 O 0.22009 0.00621 0.23709
 O130 O 0.25060 -0.03077 0.27829
 C131 C 0.22346 0.04699 0.24223
 C132 C 0.23203 0.00266 0.19865
 C133 C 0.17900 0.00245 0.23347
 C134 C 0.24991 -0.07057 0.27447
 C135 C 0.29124 -0.02643 0.28222
 C136 C 0.24041 -0.02957 0.31582
 H137 H 0.27923 -0.00199 0.25635
 H138 H 0.21766 -0.00435 0.29687
 H139 H 0.21348 0.01456 0.22788
 H140 H 0.22916 -0.05468 0.24649
 H141 H 0.26160 -0.05053 0.21882
 H142 H 0.22905 -0.05262 0.21409
 H143 H 0.23661 0.01711 0.31068
 H144 H 0.21844 0.03633 0.28792
 H145 H 0.29482 -0.04048 0.23572
 H146 H 0.27701 0.01934 0.21281
 H147 H 0.19373 -0.02566 0.30060
 H148 H 0.17892 -0.00386 0.27944
 H149 H 0.26718 0.03873 0.25500
 H150 H 0.28312 0.02076 0.27820
 H151 H 0.18650 -0.04348 0.23972
 H152 H 0.20331 -0.06533 0.26280
 O153 O 0.45061 0.74429 0.26927
 O154 O 0.45871 0.71174 0.26838
 O155 O 0.49704 0.77150 0.29738
 O156 O 0.52890 0.77596 0.29412
 O157 O 0.47602 0.79393 0.24409
 O158 O 0.48157 0.78481 0.21254
 O159 O 0.55728 0.72470 0.25626
 O160 O 0.54708 0.72924 0.28662
 O161 O 0.51343 0.69390 0.22935
 O162 O 0.47874 0.69683 0.22629
 O163 O 0.53582 0.74288 0.20373
 O164 O 0.53179 0.77689 0.20726
 O165 O 0.55823 0.74560 0.23168
 O166 O 0.54798 0.78085 0.23030
 O167 O 0.51378 0.71861 0.20236
 O168 O 0.47709 0.71769 0.20675
 O169 O 0.53454 0.69767 0.25335
 O170 O 0.52264 0.70460 0.28581
 O171 O 0.45122 0.76485 0.24436
 O172 O 0.46241 0.76136 0.21213
 O173 O 0.49607 0.79717 0.26899
 O174 O 0.53225 0.79238 0.26940
 O175 O 0.47549 0.74670 0.29691
 O176 O 0.48160 0.71233 0.29126
 Zr177 Zr 0.47944 0.73412 0.27051
 O178 O 0.49969 0.71624 0.25689
 Zr179 Zr 0.51070 0.77070 0.27107
 O180 O 0.53242 0.75406 0.25824
 Zr181 Zr 0.48060 0.76552 0.23543
 O182 O 0.50136 0.74928 0.22057
 Zr183 Zr 0.52789 0.72485 0.26407
 O184 O 0.50770 0.74169 0.27910
 Zr185 Zr 0.49831 0.72019 0.22786
 O186 O 0.47619 0.73626 0.24134
 Zr187 Zr 0.52966 0.75646 0.22917
 O188 O 0.50892 0.77475 0.24201
 O189 O 0.48248 0.76314 0.26427
 O190 O 0.52667 0.72737 0.23507
 C191 C 0.44244 0.75620 0.25795
 C192 C 0.48386 0.76085 0.30496
 C193 C 0.48325 0.80359 0.25756
 C194 C 0.56619 0.73351 0.24294
 C195 C 0.52728 0.68800 0.23994
 C196 C 0.52796 0.72855 0.19557
 H197 H 0.49737 0.70271 0.26052
 H198 H 0.49959 0.75150 0.20705
 H199 H 0.47288 0.77108 0.27110
 H200 H 0.54535 0.75828 0.26261
 H201 H 0.53897 0.73337 0.29734
 H202 H 0.53898 0.76586 0.29402
 H203 H 0.47947 0.72805 0.19750
 H204 H 0.45618 0.74866 0.21384
 H205 H 0.53442 0.69648 0.28702
 H206 H 0.47018 0.71325 0.29978
 H207 H 0.52006 0.77552 0.19947
 H208 H 0.49403 0.79187 0.21350
 H209 H 0.45455 0.71137 0.25519
 H210 H 0.47700 0.69162 0.23907
 H211 H 0.53019 0.79940 0.25752
 H212 H 0.55644 0.77944 0.24133
 O213 O -0.04408 0.77530 0.76807
 O214 O -0.04071 0.74272 0.76261
 O215 O 0.00856 0.78948 0.79759
 O216 O 0.04055 0.78872 0.79254
 O217 O -0.01154 0.82504 0.75185
 O218 O -0.00913 0.82223 0.71864
 O219 O 0.05668 0.74262 0.74227
 O220 O 0.05045 0.74275 0.77417
 O221 O 0.00551 0.72545 0.71616
 O222 O -0.02838 0.73602 0.71673
 O223 O 0.03544 0.77488 0.69724
 O224 O 0.03768 0.80760 0.70721
 O225 O 0.06005 0.76867 0.72313
 O226 O 0.05583 0.80427 0.72884
 O227 O 0.01060 0.75361 0.69417
 O228 O -0.02546 0.75924 0.70007
 O229 O 0.02874 0.72055 0.73813
 O230 O 0.02168 0.72310 0.77215
 O231 O -0.04095 0.80081 0.74817
 O232 O -0.03237 0.80290 0.71545
 O233 O 0.01107 0.82006 0.77441
 O234 O 0.04556 0.80919 0.77108
 O235 O -0.01803 0.77029 0.79445
 O236 O -0.01644 0.73651 0.78334
 Zr237 Zr -0.01686 0.76155 0.76630
 O238 O -0.00114 0.74385 0.74785
 Zr239 Zr 0.02042 0.79161 0.77054
 O240 O 0.03789 0.77477 0.75287
 Zr241 Zr -0.01239 0.79891 0.73742
 O242 O 0.00396 0.78293 0.71800
 Zr243 Zr 0.02867 0.74606 0.75365
 O244 O 0.01287 0.76243 0.77342
 Zr245 Zr -0.00377 0.75386 0.72028
 O246 O -0.02160 0.77016 0.73842
 Zr247 Zr 0.03355 0.78368 0.72516
 O248 O 0.01748 0.80192 0.74304
 O249 O -0.00916 0.79035 0.76503
 O250 O 0.02587 0.75480 0.72593
 C251 C -0.05070 0.79034 0.75977
 C252 C -0.00658 0.78085 0.80412
 C253 C -0.00144 0.83053 0.76585
 C254 C 0.06632 0.75307 0.73057
 C255 C 0.01845 0.71510 0.72424
 C256 C 0.02556 0.76273 0.68786
 H257 H -0.00574 0.73048 0.74931
 H258 H 0.00178 0.78804 0.70529
 H259 H -0.01699 0.79818 0.77377
 H260 H 0.05166 0.77588 0.75666
 H261 H 0.04423 0.74575 0.78632
 H262 H 0.04896 0.77768 0.78942
 H263 H -0.02116 0.77025 0.69228
 H264 H -0.03980 0.79079 0.71445
 H265 H 0.03192 0.71317 0.77084
 H266 H -0.02689 0.73753 0.79293
 H267 H 0.02532 0.80979 0.70054
 H268 H 0.00428 0.82712 0.72023
 H269 H -0.04562 0.74502 0.74984
 H270 H -0.02889 0.72696 0.72741
 H271 H 0.04422 0.81875 0.76089
 H272 H 0.06444 0.79959 0.73890
 O273 O -0.06000 -0.00539 -0.00659
 O274 O -0.05045 0.02706 -0.00168
 O275 O -0.01455 -0.03055 -0.03752
 O276 O 0.01792 -0.03416 -0.03518
 O277 O -0.03574 -0.05845 0.01305
 O278 O -0.03090 -0.05249 0.04575
 O279 O 0.04700 0.01030 0.01062
 O280 O 0.03861 0.00794 -0.02103
 O281 O 0.00308 0.03894 0.03811
 O282 O -0.03324 0.03544 0.03963
 O283 O 0.02336 -0.01293 0.05927
 O284 O 0.01672 -0.04743 0.05151
 O285 O 0.04652 -0.01468 0.03131
 O286 O 0.03587 -0.04823 0.03028
 O287 O 0.00268 0.01235 0.06200
 O288 O -0.03308 0.01443 0.05922
 O289 O 0.02425 0.03734 0.01357
 O290 O 0.01454 0.03315 -0.01935
 O291 O -0.06024 -0.02907 0.01555
 O292 O -0.05053 -0.02948 0.04774
 O293 O -0.01528 -0.05907 -0.01208
 O294 O 0.02006 -0.05533 -0.01265
 O295 O -0.03501 -0.00511 -0.03407
 O296 O -0.02779 0.02786 -0.02533
 Zr297 Zr -0.03080 0.00421 -0.00668
 O298 O -0.01014 0.01986 0.00853
 Zr299 Zr -0.00048 -0.03273 -0.01142
 O300 O 0.02134 -0.01865 0.00378
 Zr301 Zr -0.03123 -0.03112 0.02467
 O302 O -0.01080 -0.01683 0.04143
 Zr303 Zr 0.01809 0.01111 0.00094
 O304 O -0.00247 -0.00297 -0.01601
 Zr305 Zr -0.01273 0.01296 0.03692
 O306 O -0.03486 -0.00128 0.02200
 Zr307 Zr 0.01744 -0.02402 0.03252
 O308 O -0.00303 -0.04009 0.01711
 O309 O -0.02861 -0.02540 -0.00371
 O310 O 0.01560 0.00560 0.02947
 C311 C -0.06858 -0.01862 0.00309
 C312 C -0.02742 -0.01867 -0.04365
 C313 C -0.02822 -0.06668 -0.00130
 C314 C 0.05519 -0.00099 0.02249
 C315 C 0.01699 0.04572 0.02786
 C316 C 0.01632 0.00150 0.06813
 H317 H -0.01197 0.03372 0.00612
 H318 H -0.01302 -0.02028 0.05468
 H319 H -0.03822 -0.03241 -0.01129
 H320 H 0.03433 -0.02277 -0.00069
 H321 H 0.03104 0.00522 -0.03242
 H322 H 0.03008 -0.02731 -0.03214
 H323 H -0.03237 0.00223 0.06631
 H324 H -0.05525 -0.01608 0.04814
 H325 H 0.02671 0.04081 -0.01984
 H326 H -0.03946 0.02851 -0.03339
 H327 H 0.00696 -0.04453 0.06132
 H328 H -0.01876 -0.05990 0.04388
 H329 H -0.05580 0.02525 0.01108
 H330 H -0.03170 0.04405 0.02869
 H331 H 0.01868 -0.06275 -0.00088
 H332 H 0.04255 -0.04747 0.01801
 O333 O -0.00202 0.56555 0.53122
 O334 O -0.03446 0.55838 0.53276
 O335 O 0.02531 0.51343 0.55185
 O336 O 0.02785 0.48284 0.54364
 O337 O 0.04728 0.54207 0.50159
 O338 O 0.03672 0.54277 0.47014
 O339 O -0.02840 0.46541 0.50464
 O340 O -0.02145 0.46904 0.53562
 O341 O -0.05682 0.51418 0.48583
 O342 O -0.05115 0.54900 0.48859
 O343 O -0.01000 0.49435 0.45515
 O344 O 0.02442 0.49484 0.45758
 O345 O -0.00830 0.46727 0.47924
 O346 O 0.02853 0.47524 0.47826
 O347 O -0.03326 0.51728 0.45844
 O348 O -0.03170 0.55173 0.46764
 O349 O -0.05424 0.49024 0.50741
 O350 O -0.04415 0.49473 0.54048
 O351 O 0.01932 0.56778 0.50674
 O352 O 0.01392 0.56260 0.47337
 O353 O 0.05037 0.51784 0.52278
 O354 O 0.04286 0.48290 0.51795
 O355 O 0.00279 0.53711 0.55529
 O356 O -0.03301 0.53205 0.55154
 Zr357 Zr -0.01242 0.53737 0.52985
 O358 O -0.03248 0.52142 0.51427
 Zr359 Zr 0.02258 0.50490 0.52394
 O360 O 0.00357 0.48710 0.50900
 Zr361 Zr 0.01793 0.54073 0.49358
 O362 O -0.00048 0.52414 0.47668
 Zr363 Zr -0.02543 0.49232 0.51689
 O364 O -0.00625 0.50805 0.53385
 Zr365 Zr -0.02942 0.52767 0.48569
 O366 O -0.01115 0.54566 0.50150
 Zr367 Zr 0.00498 0.49467 0.48062
 O368 O 0.02551 0.51148 0.49536
 O369 O 0.01653 0.53397 0.52180
 O370 O -0.02399 0.49843 0.48836
 C371 C 0.01032 0.57476 0.52102
 C372 C 0.01663 0.52642 0.56140
 C373 C 0.05721 0.53201 0.51317
 C374 C -0.02076 0.45845 0.48978
 C375 C -0.06372 0.49988 0.49517
 C376 C -0.02444 0.50423 0.44908
 H377 H -0.04584 0.52394 0.51890
 H378 H 0.00138 0.52808 0.46350
 H379 H 0.02542 0.54187 0.52937
 H380 H 0.00706 0.47352 0.51119
 H381 H -0.01594 0.47447 0.54716
 H382 H 0.01677 0.47385 0.54284
 H383 H -0.02114 0.55082 0.45821
 H384 H 0.00156 0.56913 0.47661
 H385 H -0.05328 0.48371 0.54043
 H386 H -0.03076 0.54130 0.56176
 H387 H 0.02457 0.50804 0.45243
 H388 H 0.04307 0.53010 0.46892
 H389 H -0.03686 0.56361 0.52011
 H390 H -0.05833 0.54644 0.50037
 H391 H 0.04979 0.48669 0.50633
 H392 H 0.02634 0.46469 0.48735
 O393 O 0.49618 0.05777 0.50943
 O394 O 0.46424 0.04513 0.50585
 O395 O 0.52768 0.01556 0.53859
 O396 O 0.53505 -0.01551 0.53573
 O397 O 0.55118 0.04002 0.48724
 O398 O 0.54445 0.03463 0.45482
 O399 O 0.49137 -0.04859 0.49190
 O400 O 0.49341 -0.03997 0.52347
 O401 O 0.45580 -0.00810 0.46607
 O402 O 0.45548 0.02699 0.46388
 O403 O 0.51007 -0.02255 0.44240
 O404 O 0.54424 -0.01265 0.44879
 O405 O 0.51531 -0.04525 0.46991
 O406 O 0.54813 -0.03105 0.47004
 O407 O 0.48196 -0.00545 0.44083
 O408 O 0.47650 0.03003 0.44431
 O409 O 0.46136 -0.02973 0.48934
 O410 O 0.46511 -0.01950 0.52229
 O411 O 0.51825 0.06067 0.48560
 O412 O 0.51918 0.05114 0.45368
 O413 O 0.55522 0.01964 0.51185
 O414 O 0.55505 -0.01553 0.51235
 O415 O 0.49972 0.03295 0.53668
 O416 O 0.46674 0.02247 0.52904
 Zr417 Zr 0.48952 0.02816 0.50956
 O418 O 0.47525 0.00637 0.49467
 Zr419 Zr 0.53017 0.00240 0.51228
 O420 O 0.51761 -0.02039 0.49756
 Zr421 Zr 0.52365 0.03252 0.47666
 O422 O 0.51077 0.01105 0.46031
 Zr423 Zr 0.48733 -0.02042 0.50154
 O424 O 0.50014 0.00109 0.51816
 Zr425 Zr 0.48070 0.00972 0.46602
 O426 O 0.49328 0.03281 0.48069
 Zr427 Zr 0.52152 -0.01580 0.46873
 O428 O 0.53615 0.00591 0.48357
 O429 O 0.51950 0.02925 0.50526
 O430 O 0.49152 -0.01726 0.47286
 C431 C 0.50765 0.06766 0.49875
 C432 C 0.51465 0.02676 0.54551
 C433 C 0.56103 0.03323 0.50097
 C434 C 0.50305 -0.05529 0.47941
 C435 C 0.45117 -0.02295 0.47592
 C436 C 0.49439 -0.01735 0.43414
 H437 H 0.46116 0.00667 0.49761
 H438 H 0.51348 0.01367 0.44697
 H439 H 0.52586 0.03941 0.51261
 H440 H 0.52336 -0.03265 0.50179
 H441 H 0.49557 -0.03219 0.53477
 H442 H 0.52832 -0.02777 0.53336
 H443 H 0.48786 0.02937 0.43578
 H444 H 0.50505 0.05393 0.45342
 H445 H 0.45878 -0.03228 0.52285
 H446 H 0.46526 0.03369 0.53738
 H447 H 0.54011 -0.00296 0.43948
 H448 H 0.55339 0.02361 0.45637
 H449 H 0.46488 0.05056 0.49305
 H450 H 0.44831 0.02597 0.47586
 H451 H 0.56212 -0.01311 0.50046
 H452 H 0.54832 -0.03816 0.48203
 O453 O 0.49442 0.53637 0.03670
 O454 O 0.46341 0.52454 0.04028
 O455 O 0.53133 0.48810 0.04975
 O456 O 0.53753 0.45888 0.03857
 O457 O 0.54222 0.52368 0.00067
 O458 O 0.52871 0.52435 -0.02967
 O459 O 0.48012 0.43568 0.00467
 O460 O 0.48986 0.43844 0.03496
 O461 O 0.44251 0.48102 -0.00708
 O462 O 0.44320 0.51570 -0.00278
 O463 O 0.48777 0.47005 -0.04411
 O464 O 0.52161 0.47572 -0.04528
 O465 O 0.49603 0.44228 -0.02266
 O466 O 0.53148 0.45588 -0.02620
 O467 O 0.46193 0.48893 -0.03659
 O468 O 0.45969 0.52279 -0.02498
 O469 O 0.45130 0.45574 0.01123
 O470 O 0.46411 0.45987 0.04374
 O471 O 0.51107 0.54388 0.00996
 O472 O 0.50323 0.53976 -0.02328
 O473 O 0.55166 0.49885 0.01929
 O474 O 0.54923 0.46344 0.01159
 O475 O 0.50565 0.50717 0.05743
 O476 O 0.47075 0.49750 0.05667
 Zr477 Zr 0.48782 0.50727 0.03366
 O478 O 0.46867 0.48960 0.01889
 Zr479 Zr 0.52658 0.48127 0.02164
 O480 O 0.50872 0.46172 0.00735
 Zr481 Zr 0.51286 0.51783 -0.00502
 O482 O 0.49536 0.49968 -0.02134
 Zr483 Zr 0.48031 0.46187 0.01845
 O484 O 0.49890 0.47915 0.03458
 Zr485 Zr 0.46749 0.49821 -0.00923
 O486 O 0.48450 0.51767 0.00615
 Zr487 Zr 0.50554 0.47119 -0.02034
 O488 O 0.52496 0.49007 -0.00647
 O489 O 0.51580 0.50902 0.02252
 O490 O 0.47745 0.47005 -0.00945
 C491 C 0.50339 0.54822 0.02588
 C492 C 0.52173 0.49860 0.06122
 C493 C 0.55486 0.51481 0.01062
 C494 C 0.48645 0.43102 -0.01153
 C495 C 0.43901 0.46496 0.00116
 C496 C 0.47130 0.47791 -0.04778
 H497 H 0.45569 0.48972 0.02496
 H498 H 0.49503 0.50467 -0.03428
 H499 H 0.52409 0.51768 0.02992
 H500 H 0.51444 0.44874 0.00807
 H501 H 0.49584 0.44396 0.04625
 H502 H 0.52766 0.44857 0.03848
 H503 H 0.46870 0.52373 -0.03580
 H504 H 0.49053 0.54424 -0.01834
 H505 H 0.45667 0.44769 0.04358
 H506 H 0.47272 0.50629 0.06732
 H507 H 0.52014 0.48941 -0.04866
 H508 H 0.53688 0.51299 -0.03235
 H509 H 0.45925 0.53073 0.02849
 H510 H 0.43850 0.51204 0.00984
 H511 H 0.55432 0.46948 -0.00001
 H512 H 0.53142 0.44408 -0.01845
 O513 O 0.80091 0.27239 0.47858
 O514 O 0.79836 0.23917 0.48205
 O515 O 0.74583 0.28953 0.45662
 O516 O 0.71425 0.28544 0.46464
 O517 O 0.77009 0.32007 0.50229
 O518 O 0.77203 0.31392 0.53508
 O519 O 0.70379 0.23610 0.51262
 O520 O 0.70658 0.23899 0.48062
 O521 O 0.75861 0.21703 0.53177
 O522 O 0.79243 0.22832 0.52731
 O523 O 0.72984 0.26153 0.55717
 O524 O 0.72842 0.29720 0.55085
 O525 O 0.70283 0.26016 0.53394
 O526 O 0.70653 0.29552 0.53235
 O527 O 0.75689 0.24278 0.55617
 O528 O 0.79143 0.24926 0.54647
 O529 O 0.73257 0.21416 0.51257
 O530 O 0.73535 0.21964 0.47818
 O531 O 0.80025 0.29603 0.50039
 O532 O 0.79586 0.29485 0.53400
 O533 O 0.74463 0.31675 0.48242
 O534 O 0.71140 0.30510 0.48793
 O535 O 0.77205 0.26963 0.45534
 O536 O 0.77181 0.23493 0.46355
 Zr537 Zr 0.77423 0.25809 0.48246
 O538 O 0.76098 0.23842 0.50099
 Zr539 Zr 0.73652 0.28779 0.48470
 O540 O 0.72150 0.26919 0.50304
 Zr541 Zr 0.77320 0.29256 0.51435
 O542 O 0.75962 0.27433 0.53422
 Zr543 Zr 0.73059 0.24080 0.49887
 O544 O 0.74382 0.25916 0.47876
 Zr545 Zr 0.76727 0.24580 0.52863
 O546 O 0.78251 0.26420 0.51004
 Zr547 Zr 0.72927 0.27512 0.53073
 O548 O 0.74273 0.29531 0.51245
 O549 O 0.76658 0.28654 0.48683
 O550 O 0.73706 0.24669 0.52658
 C551 C 0.80850 0.28677 0.48700
 C552 C 0.76011 0.28158 0.44790
 C553 C 0.75802 0.32665 0.49018
 C554 C 0.69549 0.24547 0.52588
 C555 C 0.74457 0.20749 0.52466
 C556 C 0.74166 0.24932 0.56443
 H557 H 0.76539 0.22531 0.49795
 H558 H 0.76337 0.27809 0.54696
 H559 H 0.77324 0.29544 0.47805
 H560 H 0.70735 0.27057 0.50097
 H561 H 0.71128 0.24340 0.46820
 H562 H 0.70515 0.27542 0.46917
 H563 H 0.78857 0.26003 0.55497
 H564 H 0.80357 0.28290 0.53306
 H565 H 0.72550 0.20939 0.48007
 H566 H 0.78117 0.23699 0.45310
 H567 H 0.73990 0.29576 0.55898
 H568 H 0.75814 0.31740 0.53651
 H569 H 0.80514 0.24070 0.49408
 H570 H 0.79104 0.21970 0.51650
 H571 H 0.71337 0.31290 0.49925
 H572 H 0.69754 0.29304 0.52192
 O573 O 0.76874 0.80537 -0.00537
 O574 O 0.76897 0.79698 0.02575
 O575 O 0.78286 0.75179 -0.03284
 O576 O 0.77040 0.72248 -0.03480
 O577 O 0.73490 0.78690 -0.05299
 O578 O 0.70278 0.79228 -0.04245
 O579 O 0.72538 0.70936 0.01846
 O580 O 0.75838 0.70846 0.01177
 O581 O 0.71457 0.76046 0.04686
 O582 O 0.72150 0.79435 0.04106
 O583 O 0.68007 0.74468 0.00194
 O584 O 0.68279 0.74690 -0.03176
 O585 O 0.70099 0.71472 -0.00228
 O586 O 0.70066 0.72469 -0.03635
 O587 O 0.68636 0.76611 0.02485
 O588 O 0.70009 0.79961 0.02274
 O589 O 0.73190 0.73289 0.04363
 O590 O 0.76689 0.73256 0.03411
 O591 O 0.74411 0.81138 -0.02576
 O592 O 0.70890 0.81087 -0.02043
 O593 O 0.75359 0.76020 -0.05625
 O594 O 0.74406 0.72620 -0.04958
 O595 O 0.78956 0.77403 -0.01072
 O596 O 0.78455 0.76839 0.02353
 Zr597 Zr 0.76312 0.77732 0.00413
 O598 O 0.74432 0.76323 0.02311
 Zr599 Zr 0.75285 0.74680 -0.02979
 O600 O 0.73438 0.73088 -0.01195
 Zr601 Zr 0.72653 0.78643 -0.02473
 O602 O 0.70631 0.77201 -0.00731
 Zr603 Zr 0.74260 0.73415 0.01602
 O604 O 0.76292 0.74782 -0.00209
 Zr605 Zr 0.71578 0.77359 0.02042
 O606 O 0.73507 0.78955 0.00317
 Zr607 Zr 0.70624 0.74250 -0.01321
 O608 O 0.72434 0.75743 -0.03253
 O609 O 0.75470 0.77577 -0.02363
 O610 O 0.71416 0.74441 0.01467
 C611 C 0.75968 0.81620 -0.01700
 C612 C 0.79447 0.76317 -0.02441
 C613 C 0.74549 0.77547 -0.06267
 C614 C 0.70977 0.70436 0.00997
 C615 C 0.72150 0.74464 0.05318
 C616 C 0.67513 0.75436 0.01640
 H617 H 0.74933 0.76482 0.03591
 H618 H 0.69326 0.77773 -0.00885
 H619 H 0.76370 0.78276 -0.03214
 H620 H 0.73470 0.71724 -0.01560
 H621 H 0.77130 0.71225 0.00673
 H622 H 0.76753 0.71322 -0.02463
 H623 H 0.68971 0.79960 0.01325
 H624 H 0.71275 0.81630 -0.00827
 H625 H 0.76494 0.72140 0.04259
 H626 H 0.79650 0.77615 0.02149
 H627 H 0.67805 0.76016 -0.03003
 H628 H 0.69905 0.77987 -0.04801
 H629 H 0.75695 0.80457 0.02763
 H630 H 0.73368 0.79061 0.04741
 H631 H 0.73257 0.73154 -0.05607
 H632 H 0.70966 0.71363 -0.03565
 O633 O 1.02415 0.22034 0.23040
 O634 O 0.99109 0.22881 0.23206
 O635 O 1.05216 0.26870 0.20518
 O636 O 1.05280 0.30054 0.20977
 O637 O 1.07567 0.24392 0.25424
 O638 O 1.06746 0.24615 0.28700
 O639 O 1.00311 0.32315 0.25484
 O640 O 1.00780 0.31775 0.22277
 O641 O 0.97360 0.27632 0.27688
 O642 O 0.97834 0.24130 0.27598
 O643 O 1.02406 0.29617 0.30278
 O644 O 1.05922 0.29245 0.29691
 O645 O 1.02641 0.32164 0.27727
 O646 O 1.06139 0.31242 0.27676
 O647 O 0.99874 0.27516 0.30231
 O648 O 0.99901 0.23956 0.29584
 O649 O 0.97634 0.29991 0.25493
 O650 O 0.98305 0.29317 0.22145
 O651 O 1.04628 0.21900 0.25394
 O652 O 1.04464 0.22611 0.28657
 O653 O 1.07805 0.26783 0.23251
 O654 O 1.07188 0.30228 0.23393
 O655 O 1.02738 0.24701 0.20467
 O656 O 0.99232 0.25361 0.21095
 Zr657 Zr 1.01416 0.24898 0.23129
 O658 O 0.99601 0.26694 0.24743
 Zr659 Zr 1.05042 0.28057 0.23204
 O660 O 1.03377 0.29990 0.24789
 Zr661 Zr 1.04713 0.24685 0.26501
 O662 O 1.03047 0.26476 0.28247
 Zr663 Zr 1.00400 0.29568 0.24292
 O664 O 1.02081 0.27791 0.22511
 Zr665 Zr 1.00077 0.26213 0.27596
 O666 O 1.01732 0.24251 0.25990
 Zr667 Zr 1.03726 0.29352 0.27637
 O668 O 1.05570 0.27550 0.26055
 O669 O 1.04369 0.25192 0.23669
 O670 O 1.00756 0.29083 0.27140
 C671 C 1.03666 0.21139 0.24058
 C672 C 1.04201 0.25572 0.19713
 C673 C 1.08510 0.25371 0.24182
 C674 C 1.01305 0.33044 0.26820
 C675 C 0.96699 0.29095 0.26789
 C676 C 1.00904 0.28814 0.31018
 H677 H 0.98225 0.26481 0.24403
 H678 H 1.03302 0.26147 0.29566
 H679 H 1.05183 0.24320 0.22909
 H680 H 1.03768 0.31319 0.24477
 H681 H 1.01156 0.31141 0.21096
 H682 H 1.04456 0.31165 0.21304
 H683 H 1.00959 0.24136 0.30495
 H684 H 1.03115 0.22114 0.28608
 H685 H 0.97482 0.30485 0.22163
 H686 H 0.99321 0.24329 0.20153
 H687 H 1.05696 0.28085 0.30466
 H688 H 1.07485 0.25833 0.28623
 H689 H 0.99079 0.22327 0.24482
 H690 H 0.97088 0.24297 0.26433
 H691 H 1.07868 0.30024 0.24591
 H692 H 1.06035 0.32114 0.26586
 O693 O 0.68841 1.00939 0.73722
 O694 O 0.69292 1.00476 0.76925
 O695 O 0.73609 1.04356 0.71892
 O696 O 0.76866 1.04244 0.72029
 O697 O 0.72142 0.99232 0.68889
 O698 O 0.72629 0.95921 0.69400
 O699 O 0.79200 0.99454 0.76721
 O700 O 0.78258 1.02650 0.76511
 O701 O 0.74462 0.96317 0.78700
 O702 O 0.71089 0.95970 0.77874
 O703 O 0.77471 0.94486 0.73896
 O704 O 0.77480 0.95438 0.70617
 O705 O 0.79670 0.97432 0.74277
 O706 O 0.79136 0.97781 0.70827
 O707 O 0.75061 0.93996 0.76041
 O708 O 0.71390 0.94250 0.75644
 O709 O 0.76521 0.98853 0.78977
 O710 O 0.75462 1.02254 0.78535
 O711 O 0.69272 0.98763 0.71395
 O712 O 0.70453 0.95476 0.71404
 O713 O 0.74103 1.01849 0.69132
 O714 O 0.77577 1.01993 0.70082
 O715 O 0.71187 1.03879 0.74033
 O716 O 0.71498 1.02882 0.77352
 Zr717 Zr 0.71585 1.01045 0.75003
 O718 O 0.73396 0.99417 0.76768
 Zr719 Zr 0.75141 1.01739 0.71896
 O720 O 0.77122 1.00206 0.73574
 Zr721 Zr 0.72224 0.97951 0.71544
 O722 O 0.74113 0.96232 0.73135
 Zr723 Zr 0.76290 1.00317 0.76400
 O724 O 0.74459 1.02087 0.74750
 Zr725 Zr 0.73396 0.96529 0.75970
 O726 O 0.71377 0.98106 0.74361
 Zr727 Zr 0.76975 0.97286 0.72900
 O728 O 0.75122 0.98841 0.71091
 O729 O 0.72274 1.00849 0.72181
 O730 O 0.76281 0.97415 0.75729
 C731 C 0.68225 0.99946 0.72338
 C732 C 0.72110 1.04915 0.72827
 C733 C 0.72970 1.00736 0.68214
 C734 C 0.80254 0.98315 0.75738
 C735 C 0.75679 0.97333 0.79614
 C736 C 0.76585 0.93463 0.75132
 H737 H 0.72964 0.99578 0.78078
 H738 H 0.74014 0.94888 0.72719
 H739 H 0.71390 1.01612 0.71383
 H740 H 0.78447 1.00734 0.73393
 H741 H 0.77512 1.03809 0.76154
 H742 H 0.77850 1.04013 0.73005
 H743 H 0.71854 0.93444 0.74601
 H744 H 0.69695 0.95416 0.72584
 H745 H 0.76513 1.02269 0.79475
 H746 H 0.70348 1.03736 0.77244
 H747 H 0.76389 0.94512 0.70579
 H748 H 0.73964 0.96124 0.68906
 H749 H 0.68903 0.99123 0.76749
 H750 H 0.70879 0.97146 0.78611
 H751 H 0.77562 1.00860 0.69258
 H752 H 0.79846 0.98964 0.71157
 O753 O 0.81290 0.49688 0.25773
 O754 O 0.80730 0.52898 0.25197
 O755 O 0.76577 0.47846 0.29253
 O756 O 0.73339 0.47611 0.29120
 O757 O 0.78260 0.44520 0.24341
 O758 O 0.77745 0.44867 0.21138
 O759 O 0.70822 0.52290 0.24530
 O760 O 0.71862 0.52330 0.27521
 O761 O 0.75476 0.54372 0.21173
 O762 O 0.78839 0.53588 0.20751
 O763 O 0.72562 0.49304 0.19658
 O764 O 0.72623 0.46052 0.20631
 O765 O 0.70420 0.49806 0.22523
 O766 O 0.71165 0.46196 0.23107
 O767 O 0.74877 0.51554 0.19035
 O768 O 0.78579 0.51206 0.19195
 O769 O 0.73413 0.54703 0.23651
 O770 O 0.74567 0.54420 0.26970
 O771 O 0.80997 0.47188 0.23764
 O772 O 0.79735 0.47061 0.20536
 O773 O 0.76391 0.44818 0.26960
 O774 O 0.72780 0.45617 0.26995
 O775 O 0.78937 0.50064 0.28656
 O776 O 0.78508 0.53402 0.27511
 Zr777 Zr 0.78506 0.50891 0.25854
 O778 O 0.76622 0.52565 0.24222
 Zr779 Zr 0.75119 0.47577 0.26702
 O780 O 0.73047 0.49200 0.25214
 Zr781 Zr 0.78020 0.47188 0.22997
 O782 O 0.76006 0.48666 0.21307
 Zr783 Zr 0.73771 0.52132 0.25195
 O784 O 0.75668 0.50548 0.26936
 Zr785 Zr 0.76611 0.51606 0.21450
 O786 O 0.78725 0.50114 0.23020
 Zr787 Zr 0.73161 0.48405 0.22399
 O788 O 0.75141 0.46656 0.23912
 O789 O 0.77963 0.47959 0.25791
 O790 O 0.73751 0.51330 0.22399
 C791 C 0.81987 0.48257 0.24871
 C792 C 0.78026 0.48890 0.29743
 C793 C 0.77552 0.43875 0.25883
 C794 C 0.69791 0.51273 0.23431
 C795 C 0.74240 0.55321 0.22143
 C796 C 0.73365 0.50572 0.18599
 H797 H 0.77009 0.53928 0.24311
 H798 H 0.76092 0.48185 0.20015
 H799 H 0.78890 0.47225 0.26568
 H800 H 0.71742 0.48992 0.25773
 H801 H 0.72634 0.51982 0.28635
 H802 H 0.72498 0.48754 0.29006
 H803 H 0.78103 0.50123 0.18441
 H804 H 0.80504 0.48261 0.20475
 H805 H 0.73508 0.55386 0.26938
 H806 H 0.79652 0.53366 0.28348
 H807 H 0.73817 0.45846 0.19879
 H808 H 0.76416 0.44349 0.21330
 H809 H 0.81096 0.52696 0.23874
 H810 H 0.79066 0.54388 0.21862
 H811 H 0.72934 0.44656 0.25994
 H812 H 0.70304 0.46674 0.24114
 O813 O 0.47807 0.20388 0.70066
 O814 O 0.44516 0.21249 0.70567
 O815 O 0.50738 0.25469 0.68549
 O816 O 0.50902 0.28510 0.69650
 O817 O 0.53085 0.21945 0.72813
 O818 O 0.52293 0.21484 0.76085
 O819 O 0.46125 0.29925 0.74685
 O820 O 0.46573 0.30130 0.71457
 O821 O 0.42992 0.24962 0.75830
 O822 O 0.43396 0.21529 0.75026
 O823 O 0.48108 0.26196 0.78739
 O824 O 0.51658 0.25742 0.78017
 O825 O 0.48521 0.29208 0.76758
 O826 O 0.51923 0.28166 0.76520
 O827 O 0.45522 0.24220 0.78293
 O828 O 0.45393 0.20925 0.76985
 O829 O 0.43316 0.27707 0.74119
 O830 O 0.44046 0.27849 0.70745
 O831 O 0.49999 0.19629 0.72328
 O832 O 0.49960 0.19607 0.75655
 O833 O 0.53362 0.24725 0.71146
 O834 O 0.52921 0.28053 0.71996
 O835 O 0.48082 0.23569 0.68126
 O836 O 0.44664 0.24104 0.68975
 Zr837 Zr 0.46892 0.23170 0.70807
 O838 O 0.45186 0.24647 0.72780
 Zr839 Zr 0.50656 0.26085 0.71429
 O840 O 0.49104 0.27684 0.73430
 Zr841 Zr 0.50243 0.22099 0.73978
 O842 O 0.48659 0.23518 0.76091
 Zr843 Zr 0.46106 0.27517 0.72918
 O844 O 0.47675 0.26099 0.70775
 Zr845 Zr 0.45673 0.23521 0.75454
 O846 O 0.47237 0.21897 0.73459
 Zr847 Zr 0.49443 0.26428 0.76085
 O848 O 0.51195 0.24960 0.74114
 O849 O 0.49869 0.23219 0.71317
 O850 O 0.46457 0.26398 0.75598
 C851 C 0.49006 0.19231 0.70865
 C852 C 0.49592 0.24472 0.67525
 C853 C 0.54043 0.23137 0.71774
 C854 C 0.47201 0.30317 0.76097
 C855 C 0.42347 0.26568 0.75190
 C856 C 0.46579 0.25297 0.79314
 H857 H 0.43803 0.24560 0.72416
 H858 H 0.48911 0.22900 0.77310
 H859 H 0.50635 0.22509 0.70373
 H860 H 0.49554 0.29031 0.73397
 H861 H 0.46948 0.29785 0.70166
 H862 H 0.50232 0.29584 0.70277
 H863 H 0.46521 0.20819 0.77830
 H864 H 0.48579 0.19208 0.75576
 H865 H 0.43261 0.29012 0.71005
 H866 H 0.44664 0.23270 0.67859
 H867 H 0.51305 0.24518 0.78638
 H868 H 0.53060 0.22670 0.76260
 H869 H 0.44566 0.20366 0.71655
 H870 H 0.42623 0.21990 0.73954
 H871 H 0.53577 0.27590 0.73139
 H872 H 0.51915 0.29200 0.75566
 O873 O 0.27711 0.69283 0.53899
 O874 O 0.30999 0.70110 0.53776
 O875 O 0.24820 0.74063 0.56259
 O876 O 0.24656 0.77248 0.55700
 O877 O 0.22605 0.71619 0.51202
 O878 O 0.23583 0.71707 0.48030
 O879 O 0.29826 0.79548 0.51421
 O880 O 0.29256 0.78997 0.54550
 O881 O 0.32833 0.74883 0.49289
 O882 O 0.32429 0.71388 0.49425
 O883 O 0.27923 0.76807 0.46491
 O884 O 0.24392 0.76496 0.47014
 O885 O 0.27709 0.79377 0.48996
 O886 O 0.24148 0.78497 0.49003
 O887 O 0.30373 0.74622 0.46638
 O888 O 0.30433 0.71143 0.47420
 O889 O 0.32536 0.77172 0.51518
 O890 O 0.31674 0.76522 0.54844
 O891 O 0.25531 0.69097 0.51522
 O892 O 0.25915 0.69790 0.48202
 O893 O 0.22282 0.73887 0.53449
 O894 O 0.22852 0.77357 0.53212
 O895 O 0.27359 0.71970 0.56407
 O896 O 0.30848 0.72593 0.55826
 Zr897 Zr 0.28696 0.72129 0.53766
 O898 O 0.30543 0.73924 0.52184
 Zr899 Zr 0.25027 0.75233 0.53536
 O900 O 0.26750 0.77186 0.51981
 Zr901 Zr 0.25516 0.71869 0.50304
 O902 O 0.27211 0.73690 0.48585
 Zr903 Zr 0.29706 0.76783 0.52587
 O904 O 0.27966 0.75004 0.54329
 Zr905 Zr 0.30151 0.73429 0.49330
 O906 O 0.28473 0.71456 0.50916
 Zr907 Zr 0.26533 0.76577 0.49121
 O908 O 0.24640 0.74738 0.50664
 O909 O 0.25751 0.72381 0.53140
 O910 O 0.29476 0.76308 0.49725
 C911 C 0.26476 0.68369 0.52904
 C912 C 0.25876 0.72818 0.57120
 C913 C 0.21610 0.72534 0.52430
 C914 C 0.28959 0.80272 0.49999
 C915 C 0.33490 0.76295 0.50238
 C916 C 0.29386 0.75913 0.45783
 H917 H 0.31906 0.73715 0.52571
 H918 H 0.26991 0.73353 0.47266
 H919 H 0.24914 0.71516 0.53900
 H920 H 0.26347 0.78514 0.52262
 H921 H 0.28784 0.78370 0.55713
 H922 H 0.25498 0.78358 0.55392
 H923 H 0.29318 0.71210 0.46557
 H924 H 0.27203 0.69196 0.48421
 H925 H 0.32523 0.77674 0.54839
 H926 H 0.30750 0.71562 0.56784
 H927 H 0.24631 0.75337 0.46260
 H928 H 0.22920 0.72965 0.47956
 H929 H 0.31072 0.69561 0.52507
 H930 H 0.33127 0.71557 0.50614
 H931 H 0.22253 0.77149 0.51978
 H932 H 0.24258 0.79392 0.50061
 O933 O 0.30026 0.22967 0.96290
 O934 O 0.29343 0.19709 0.96982
 O935 O 0.24645 0.25260 0.94382
 O936 O 0.21553 0.25426 0.95428
 O937 O 0.27872 0.28220 0.98622
 O938 O 0.28240 0.27666 1.01951
 O939 O 0.20192 0.20938 1.00648
 O940 O 0.20148 0.21188 0.97399
 O941 O 0.25310 0.18300 1.02188
 O942 O 0.28871 0.18888 1.01364
 O943 O 0.23619 0.23377 1.04712
 O944 O 0.23888 0.26856 1.03790
 O945 O 0.20638 0.23467 1.02594
 O946 O 0.21492 0.26855 1.02221
 O947 O 0.25929 0.21054 1.04496
 O948 O 0.29194 0.20906 1.03330
 O949 O 0.22660 0.18321 1.00302
 O950 O 0.22658 0.18819 0.96913
 O951 O 0.30464 0.25415 0.98334
 O952 O 0.30355 0.25494 1.01678
 O953 O 0.25174 0.28154 0.96799
 O954 O 0.21811 0.27583 0.97623
 O955 O 0.26870 0.22846 0.94224
 O956 O 0.26567 0.19531 0.95270
 Zr957 Zr 0.27222 0.21916 0.96983
 O958 O 0.25708 0.20267 0.98993
 Zr959 Zr 0.23957 0.25436 0.97257
 O960 O 0.22335 0.23943 0.99305
 Zr961 Zr 0.27882 0.25494 0.99940
 O962 O 0.26442 0.23963 1.02099
 Zr963 Zr 0.22736 0.20989 0.98975
 O964 O 0.24202 0.22474 0.96797
 Zr965 Zr 0.26668 0.20989 1.01660
 O966 O 0.28331 0.22524 0.99641
 Zr967 Zr 0.23440 0.24518 1.01974
 O968 O 0.24909 0.26217 0.99937
 O969 O 0.26920 0.24867 0.97277
 O970 O 0.23693 0.21562 1.01669
 C971 C 0.31037 0.24342 0.96983
 C972 C 0.25800 0.24140 0.93478
 C973 C 0.26677 0.28990 0.97460
 C974 C 0.19636 0.22058 1.01971
 C975 C 0.23780 0.17520 1.01492
 C976 C 0.24687 0.22044 1.05417
 H977 H 0.25905 0.18893 0.98718
 H978 H 0.26993 0.24332 1.03314
 H979 H 0.27621 0.25600 0.96292
 H980 H 0.20944 0.24290 0.99204
 H981 H 0.20550 0.21498 0.96100
 H982 H 0.20478 0.24737 0.96068
 H983 H 0.29395 0.22211 1.03824
 H984 H 0.30928 0.24195 1.01599
 H985 H 0.21510 0.17991 0.97168
 H986 H 0.27485 0.19517 0.94193
 H987 H 0.25111 0.26624 1.04476
 H988 H 0.26978 0.28345 1.02039
 H989 H 0.30179 0.19908 0.98083
 H990 H 0.28421 0.17937 1.00446
 H991 H 0.22181 0.28323 0.98739
 H992 H 0.20526 0.26745 1.01211
 C993 C 0.27677 0.30727 0.79249
 C994 C 0.28715 0.32320 0.78610
 C995 C 0.27722 0.34092 0.78036
 N996 N 0.28750 0.35526 0.77206
 N997 N 0.27898 0.37191 0.76800
 C998 C 0.25990 0.37489 0.77225
 N999 N 0.24961 0.36056 0.78057
 N1000 N 0.25810 0.34385 0.78449
 C1001 C 0.25081 0.39368 0.76897
 C1002 C 0.25990 0.40740 0.75772
 H1003 H 0.30288 0.32336 0.78679
 H1004 H 0.23719 0.39696 0.77596
 H1005 H 0.26100 0.30773 0.79211
 H1006 H 0.27291 0.40354 0.74997
 C1007 C 0.31576 -0.17341 0.31378
 C1008 C 0.29682 -0.16622 0.31503
 C1009 C 0.29058 -0.14891 0.30481
 N1010 N 0.27216 -0.14223 0.30709
 N1011 N 0.26644 -0.12625 0.29844
 C1012 C 0.27892 -0.11634 0.28715
 N1013 N 0.29730 -0.12308 0.28478
 N1014 N 0.30303 -0.13907 0.29344
 C1015 C 0.27308 -0.09821 0.27813
 C1016 C 0.25488 -0.08990 0.28130
 H1017 H 0.28625 -0.17335 0.32398
 H1018 H 0.28376 -0.09075 0.26955
 H1019 H 0.32595 -0.16670 0.30413
 H1020 H 0.24435 -0.09725 0.29014
 C1021 C 0.80195 0.82617 0.80717
 C1022 C 0.80140 0.83289 0.78880
 C1023 C 0.79261 0.85151 0.78406
 N1024 N 0.79558 0.85943 0.76692
 N1025 N 0.78785 0.87641 0.76260
 C1026 C 0.77674 0.88599 0.77523
 N1027 N 0.77362 0.87797 0.79230
 N1028 N 0.78145 0.86108 0.79665
 C1029 C 0.76816 0.90477 0.77081
 C1030 C 0.77390 0.91550 0.75523
 H1031 H 0.80778 0.82444 0.77771
 H1032 H 0.75763 0.91064 0.78054
 H1033 H 0.79538 0.83475 0.81806
 H1034 H 0.78521 0.91009 0.74605
 C1035 C 0.43897 0.90787 0.31415
 C1036 C 0.43848 0.90052 0.29609
 C1037 C 0.44984 0.88352 0.29075
 N1038 N 0.44737 0.87559 0.27370
 N1039 N 0.45705 0.85978 0.26894
 C1040 C 0.46963 0.85139 0.28105
 N1041 N 0.47224 0.85944 0.29802
 N1042 N 0.46252 0.87520 0.30279
 C1043 C 0.47971 0.83343 0.27648
 C1044 C 0.47555 0.82302 0.26046
 H1045 H 0.42930 0.90714 0.28567
 H1046 H 0.48971 0.82761 0.28667
 H1047 H 0.44870 0.90140 0.32421
 H1048 H 0.46520 0.82862 0.25047
 C1049 C -0.06552 0.92935 0.81180
 C1050 C -0.04619 0.92323 0.81179
 C1051 C -0.03933 0.90769 0.79967
 N1052 N -0.02130 0.90020 0.80214
 N1053 N -0.01527 0.88543 0.79194
 C1054 C -0.02701 0.87770 0.77881
 N1055 N -0.04492 0.88539 0.77614
 N1056 N -0.05098 0.90010 0.78640
 C1057 C -0.02117 0.86054 0.76841
 C1058 C -0.00493 0.84976 0.77339
 H1059 H -0.03593 0.92950 0.82138
 H1060 H -0.03092 0.85533 0.75776
 H1061 H -0.07547 0.92332 0.80176
 H1062 H 0.00442 0.85467 0.78448
 C1063 C -0.06093 -0.17159 -0.06395
 C1064 C -0.06164 -0.16559 -0.04540
 C1065 C -0.05255 -0.14767 -0.03923
 N1066 N -0.05630 -0.14101 -0.02181
 N1067 N -0.04893 -0.12434 -0.01628
 C1068 C -0.03750 -0.11374 -0.02797
 N1069 N -0.03358 -0.12049 -0.04531
 N1070 N -0.04101 -0.13712 -0.05087
 C1071 C -0.02966 -0.09506 -0.02238
 C1072 C -0.03531 -0.08597 -0.00591
 H1073 H -0.06995 -0.17378 -0.03520
 H1074 H -0.01972 -0.08792 -0.03197
 H1075 H -0.05200 -0.16366 -0.07387
 H1076 H -0.04567 -0.09283 0.00346
 C1077 C -0.05817 0.35284 0.43034
 C1078 C -0.05840 0.36004 0.44844
 C1079 C -0.04906 0.37834 0.45323
 N1080 N -0.05041 0.38498 0.47092
 N1081 N -0.04226 0.40161 0.47549
 C1082 C -0.03238 0.41222 0.46255
 N1083 N -0.03092 0.40554 0.44486
 N1084 N -0.03912 0.38890 0.44027
 C1085 C -0.02383 0.43091 0.46740
 C1086 C -0.02715 0.43906 0.48483
 H1087 H -0.06547 0.35196 0.45953
 H1088 H -0.01564 0.43875 0.45684
 H1089 H -0.05042 0.36075 0.41952
 H1090 H -0.03594 0.43136 0.49504
 C1091 C 0.45993 -0.16937 0.44601
 C1092 C 0.47759 -0.15957 0.44528
 C1093 C 0.48023 -0.14125 0.45497
 N1094 N 0.49714 -0.13140 0.45293
 N1095 N 0.49944 -0.11448 0.46111
 C1096 C 0.48494 -0.10680 0.47169
 N1097 N 0.46811 -0.11676 0.47391
 N1098 N 0.46580 -0.13367 0.46570
 C1099 C 0.48682 -0.08755 0.47972
 C1100 C 0.50251 -0.07579 0.47504
 H1101 H 0.48970 -0.16537 0.43736
 H1102 H 0.47491 -0.08197 0.48807
 H1103 H 0.44818 -0.16360 0.45445
 H1104 H 0.51401 -0.08128 0.46613
 C1105 C 0.44559 0.32807 -0.07315
 C1106 C 0.44422 0.33597 -0.05538
 C1107 C 0.45434 0.35385 -0.05046
 N1108 N 0.45433 0.35976 -0.03249
 N1109 N 0.46322 0.37598 -0.02780
 C1110 C 0.47249 0.38695 -0.04088
 N1111 N 0.47249 0.38106 -0.05889
 N1112 N 0.46363 0.36478 -0.06358
 C1113 C 0.48157 0.40538 -0.03580
 C1114 C 0.48168 0.41141 -0.01731
 H1115 H 0.43600 0.32855 -0.04456
 H1116 H 0.48706 0.41474 -0.04677
 H1117 H 0.45501 0.33496 -0.08341
 H1118 H 0.47593 0.40191 -0.00657
 C1119 C 0.80923 0.43371 0.44415
 C1120 C 0.79087 0.42521 0.44481
 C1121 C 0.78695 0.40808 0.45638
 N1122 N 0.76927 0.39944 0.45574
 N1123 N 0.76577 0.38355 0.46564
 C1124 C 0.77979 0.37575 0.47662
 N1125 N 0.79739 0.38451 0.47742
 N1126 N 0.80090 0.40038 0.46749
 C1127 C 0.77656 0.35750 0.48663
 C1128 C 0.75982 0.34665 0.48385
 H1129 H 0.77912 0.43114 0.43660
 H1130 H 0.78827 0.35175 0.49502
 H1131 H 0.82062 0.42796 0.45295
 H1132 H 0.74843 0.35226 0.47497
 C1133 C 0.80511 0.92389 -0.06878
 C1134 C 0.79955 0.91821 -0.05080
 C1135 C 0.79053 0.89933 -0.04712
 N1136 N 0.78971 0.89213 -0.02948
 N1137 N 0.78144 0.87514 -0.02603
 C1138 C 0.77349 0.86482 -0.04007
 N1139 N 0.77412 0.87213 -0.05767
 N1140 N 0.78255 0.88901 -0.06115
 C1141 C 0.76423 0.84605 -0.03649
 C1142 C 0.76808 0.83536 -0.02043
 H1143 H 0.80165 0.92783 -0.03920
 H1144 H 0.75504 0.84007 -0.04720
 H1145 H 0.80282 0.91402 -0.08015
 H1146 H 0.77854 0.84071 -0.01049
 C1147 C 0.82503 0.31172 0.34378
 C1148 C 0.80680 0.31602 0.35151
 C1149 C 0.79947 0.30641 0.36854
 N1150 N 0.78221 0.31181 0.37623
 N1151 N 0.77575 0.30366 0.39200
 C1152 C 0.78631 0.28976 0.40062
 N1153 N 0.80348 0.28427 0.39285
 N1154 N 0.80994 0.29243 0.37712
 C1155 C 0.78013 0.28132 0.41858
 C1156 C 0.76364 0.28745 0.42837
 H1157 H 0.79768 0.32684 0.34511
 H1158 H 0.78971 0.27081 0.42488
 H1159 H 0.83351 0.30029 0.35004
 H1160 H 0.75401 0.29796 0.42215
 C1161 C 0.80257 0.79720 -0.17209
 C1162 C 0.78432 0.80090 -0.16418
 C1163 C 0.77813 0.79226 -0.14633
 N1164 N 0.76193 0.79889 -0.13758
 N1165 N 0.75676 0.79209 -0.12084
 C1166 C 0.76758 0.77836 -0.11228
 N1167 N 0.78362 0.77152 -0.12116
 N1168 N 0.78884 0.77838 -0.13786
 C1169 C 0.76267 0.77148 -0.09339
 C1170 C 0.74888 0.78076 -0.08230
 H1171 H 0.77466 0.81122 -0.17061
 H1172 H 0.77100 0.75966 -0.08767
 H1173 H 0.81164 0.78622 -0.16583
 H1174 H 0.74110 0.79303 -0.08784
 C1175 C 0.30832 0.43131 0.91623
 C1176 C 0.29962 0.42187 0.90136
 C1177 C 0.29234 0.43249 0.88498
 N1178 N 0.28179 0.42328 0.87187
 N1179 N 0.27567 0.43261 0.85672
 C1180 C 0.28000 0.45145 0.85402
 N1181 N 0.29063 0.46064 0.86708
 N1182 N 0.29665 0.45134 0.88229
 C1183 C 0.27376 0.46175 0.83706
 C1184 C 0.26022 0.45383 0.82498
 H1185 H 0.29877 0.40638 0.90127
 H1186 H 0.27989 0.47576 0.83407
 H1187 H 0.30892 0.44684 0.91581
 H1188 H 0.25351 0.44021 0.82858
 C1189 C 0.30557 -0.05788 0.41828
 C1190 C 0.28800 -0.06417 0.41072
 C1191 C 0.27924 -0.05426 0.39462
 N1192 N 0.26370 -0.06199 0.38581
 N1193 N 0.25634 -0.05355 0.37066
 C1194 C 0.26421 -0.03700 0.36386
 N1195 N 0.27956 -0.02917 0.37282
 N1196 N 0.28693 -0.03763 0.38790
 C1197 C 0.25743 -0.02810 0.34644
 C1198 C 0.24340 -0.03639 0.33509
 H1199 H 0.28075 -0.07678 0.41625
 H1200 H 0.26499 -0.01530 0.34169
 H1201 H 0.31207 -0.04489 0.41263
 H1202 H 0.23568 -0.04911 0.33980
 C1203 C -0.06465 -0.05595 -0.15678
 C1204 C -0.06583 -0.03972 -0.14561
 C1205 C -0.05661 -0.03891 -0.12715
 N1206 N -0.05861 -0.02295 -0.11664
 N1207 N -0.05036 -0.02194 -0.09993
 C1208 C -0.03973 -0.03680 -0.09308
 N1209 N -0.03765 -0.05276 -0.10363
 N1210 N -0.04594 -0.05379 -0.12036
 C1211 C -0.03087 -0.03581 -0.07443
 C1212 C -0.03459 -0.02030 -0.06282
 H1213 H -0.07334 -0.02709 -0.15067
 H1214 H -0.02193 -0.04760 -0.06958
 H1215 H -0.05662 -0.06827 -0.15169
 H1216 H -0.04404 -0.00892 -0.06771
 C1217 C -0.04793 0.45387 0.33707
 C1218 C -0.05089 0.47139 0.34599
 C1219 C -0.04381 0.47503 0.36500
 N1220 N -0.04908 0.49133 0.37394
 N1221 N -0.04304 0.49470 0.39124
 C1222 C -0.03144 0.48191 0.40023
 N1223 N -0.02607 0.46566 0.39125
 N1224 N -0.03218 0.46225 0.37398
 C1225 C -0.02456 0.48541 0.41932
 C1226 C -0.03144 0.50062 0.43005
 H1227 H -0.05886 0.48274 0.33908
 H1228 H -0.01403 0.47553 0.42516
 H1229 H -0.03945 0.44295 0.34413
 H1230 H -0.04250 0.51007 0.42445
 C1231 C 0.43248 -0.06545 0.33620
 C1232 C 0.45183 -0.06317 0.34160
 C1233 C 0.45714 -0.05270 0.35857
 N1234 N 0.47586 -0.05278 0.36451
 N1235 N 0.48079 -0.04362 0.38003
 C1236 C 0.46719 -0.03397 0.39012
 N1237 N 0.44852 -0.03377 0.38409
 N1238 N 0.44357 -0.04299 0.36863
 C1239 C 0.47219 -0.02408 0.40747
 C1240 C 0.49034 -0.02596 0.41590
 H1241 H 0.46345 -0.06933 0.33330
 H1242 H 0.46087 -0.01578 0.41425
 H1243 H 0.42112 -0.05888 0.34453
 H1244 H 0.50145 -0.03483 0.40951
 C1245 C 0.43213 0.42798 -0.15612
 C1246 C 0.43170 0.44566 -0.14704
 C1247 C 0.44146 0.44907 -0.12910
 N1248 N 0.43789 0.46554 -0.11971
 N1249 N 0.44637 0.46889 -0.10340
 C1250 C 0.45884 0.45593 -0.09585
 N1251 N 0.46254 0.43949 -0.10529
 N1252 N 0.45396 0.43609 -0.12158
 C1253 C 0.46831 0.45950 -0.07778
 C1254 C 0.46232 0.47430 -0.06604
 H1255 H 0.42362 0.45749 -0.15301
 H1256 H 0.47982 0.44990 -0.07338
 H1257 H 0.44060 0.41644 -0.15006
 H1258 H 0.45006 0.48316 -0.07003
 C1259 C 0.46569 0.80971 0.41843
 C1260 C 0.46567 0.79172 0.41003
 C1261 C 0.47134 0.78888 0.39045
 N1262 N 0.46733 0.77193 0.38216
 N1263 N 0.47159 0.76925 0.36421
 C1264 C 0.48008 0.78341 0.35389
 N1265 N 0.48429 0.80031 0.36223
 N1266 N 0.47991 0.80304 0.38017
 C1267 C 0.48492 0.78054 0.33410
 C1268 C 0.47794 0.76481 0.32429
 H1269 H 0.46021 0.77938 0.41768
 H1270 H 0.49411 0.79104 0.32713
 H1271 H 0.47185 0.82182 0.41088
 H1272 H 0.46803 0.75482 0.33110
 C1273 C -0.06738 0.80342 0.91209
 C1274 C -0.04830 0.80295 0.90524
 C1275 C -0.04331 0.79582 0.88653
 N1276 N -0.02481 0.79770 0.88000
 N1277 N -0.02013 0.79214 0.86280
 C1278 C -0.03377 0.78443 0.85146
 N1279 N -0.05225 0.78234 0.85805
 N1280 N -0.05695 0.78797 0.87526
 C1281 C -0.02892 0.77906 0.83212
 C1282 C -0.01106 0.78393 0.82398
 H1283 H -0.03661 0.80862 0.91361
 H1284 H -0.04002 0.77218 0.82384
 H1285 H -0.07886 0.79704 0.90392
 H1286 H -0.00032 0.79145 0.83216
 C1287 C 0.33912 0.79974 0.31896
 C1288 C 0.34428 0.79745 0.30021
 C1289 C 0.36178 0.78668 0.29451
 N1290 N 0.36769 0.78686 0.27639
 N1291 N 0.38380 0.77762 0.27116
 C1292 C 0.39452 0.76772 0.28386
 N1293 N 0.38847 0.76736 0.30193
 N1294 N 0.37242 0.77666 0.30717
 C1295 C 0.41299 0.75839 0.27863
 C1296 C 0.42195 0.76142 0.26132
 H1297 H 0.33541 0.80383 0.28940
 H1298 H 0.42063 0.75049 0.28939
 H1299 H 0.34810 0.79303 0.32952
 H1300 H 0.41465 0.76998 0.25082
 C1301 C -0.17239 0.80051 0.80350
 C1302 C -0.15784 0.81256 0.79640
 C1303 C -0.13884 0.80521 0.79014
 N1304 N -0.12581 0.81728 0.78193
 N1305 N -0.10828 0.81100 0.77675
 C1306 C -0.10311 0.79242 0.77968
 N1307 N -0.11613 0.78036 0.78792
 N1308 N -0.13370 0.78662 0.79302
 C1309 C -0.08359 0.78546 0.77458
 C1310 C -0.07065 0.79661 0.76408
 H1311 H -0.16003 0.82792 0.79611
 H1312 H -0.07936 0.77124 0.77919
 H1313 H -0.16956 0.78524 0.80436
 H1314 H -0.07526 0.81046 0.75878
 C1315 C 0.91563 0.32842 0.43546
 C1316 C 0.90936 0.30938 0.43508
 C1317 C 0.89118 0.30284 0.44409
 N1318 N 0.88037 0.31459 0.45511
 N1319 N 0.86377 0.30840 0.46286
 C1320 C 0.85737 0.29026 0.45981
 N1321 N 0.86819 0.27856 0.44882
 N1322 N 0.88481 0.28471 0.44116
 C1323 C 0.83876 0.28327 0.46759
 C1324 C 0.82775 0.29356 0.48053
 H1325 H 0.91789 0.29882 0.42762
 H1326 H 0.83355 0.26949 0.46283
 H1327 H 0.90727 0.33872 0.44344
 H1328 H 0.83327 0.30695 0.48594
 C1329 C 0.90911 0.80865 -0.06168
 C1330 C 0.89963 0.79101 -0.06283
 C1331 C 0.88100 0.78758 -0.05307
 N1332 N 0.87073 0.77131 -0.05622
 N1333 N 0.85370 0.76828 -0.04764
 C1334 C 0.84638 0.78137 -0.03550
 N1335 N 0.85674 0.79752 -0.03221
 N1336 N 0.87371 0.80058 -0.04084
 C1337 C 0.82731 0.77869 -0.02640
 C1338 C 0.81458 0.76415 -0.03155
 H1339 H 0.90597 0.77951 -0.07090
 H1340 H 0.82269 0.78922 -0.01625
 H1341 H 0.90245 0.81984 -0.05340
 H1342 H 0.81895 0.75402 -0.04218
 C1343 C -0.17488 -0.04643 -0.06155
 C1344 C -0.16215 -0.05521 -0.04903
 C1345 C -0.14659 -0.04441 -0.03971
 N1346 N -0.13624 -0.05281 -0.02583
 N1347 N -0.12142 -0.04362 -0.01800
 C1348 C -0.11630 -0.02570 -0.02380
 N1349 N -0.12666 -0.01728 -0.03767
 N1350 N -0.14158 -0.02642 -0.04542
 C1351 C -0.09883 -0.01617 -0.01642
 C1352 C -0.08891 -0.02359 -0.00108
 H1353 H -0.16289 -0.07052 -0.04658
 H1354 H -0.09284 -0.00407 -0.02411
 H1355 H -0.17344 -0.03112 -0.06395
 H1356 H -0.09541 -0.03528 0.00684
 C1357 C -0.17030 0.46230 0.43770
 C1358 C -0.16495 0.46489 0.45625
 C1359 C -0.14699 0.47489 0.46139
 N1360 N -0.14021 0.47328 0.47905
 N1361 N -0.12339 0.48136 0.48373
 C1362 C -0.11280 0.49145 0.47093
 N1363 N -0.11975 0.49335 0.45334
 N1364 N -0.13651 0.48515 0.44863
 C1365 C -0.09375 0.49957 0.47563
 C1366 C -0.08377 0.49375 0.49155
 H1367 H -0.17359 0.45845 0.46735
 H1368 H -0.08682 0.50917 0.46565
 H1369 H -0.16168 0.46904 0.42676
 H1370 H -0.09028 0.48327 0.50094
 C1371 C 0.33185 -0.05760 0.44104
 C1372 C 0.34900 -0.06681 0.44631
 C1373 C 0.36682 -0.05594 0.45054
 N1374 N 0.38248 -0.06508 0.45784
 N1375 N 0.39887 -0.05550 0.46118
 C1376 C 0.40028 -0.03646 0.45719
 N1377 N 0.38467 -0.02735 0.44978
 N1378 N 0.36824 -0.03691 0.44655
 C1379 C 0.41837 -0.02574 0.46069
 C1380 C 0.43309 -0.03334 0.47175
 H1381 H 0.34974 -0.08231 0.44646
 H1382 H 0.41981 -0.01136 0.45502
 H1383 H 0.33168 -0.04206 0.44063
 H1384 H 0.43103 -0.04728 0.47827
 C1385 C 0.33297 0.43231 -0.05922
 C1386 C 0.34199 0.42560 -0.04302
 C1387 C 0.35786 0.43632 -0.03431
 N1388 N 0.36868 0.42799 -0.02072
 N1389 N 0.38383 0.43721 -0.01349
 C1390 C 0.38857 0.45514 -0.01954
 N1391 N 0.37755 0.46355 -0.03290
 N1392 N 0.36249 0.45432 -0.04017
 C1393 C 0.40599 0.46504 -0.01294
 C1394 C 0.41981 0.45619 -0.00164
 H1395 H 0.33795 0.41190 -0.03695
 H1396 H 0.40879 0.47926 -0.01853
 H1397 H 0.33708 0.44629 -0.06469
 H1398 H 0.41709 0.44200 0.00406
 C1399 C 0.40543 0.43654 0.82150
 C1400 C 0.39946 0.43790 0.80293
 C1401 C 0.38136 0.44751 0.79735
 N1402 N 0.37473 0.44551 0.77967
 N1403 N 0.35783 0.45326 0.77459
 C1404 C 0.34699 0.46337 0.78701
 N1405 N 0.35374 0.46557 0.80462
 N1406 N 0.37059 0.45775 0.80973
 C1407 C 0.32787 0.47124 0.78202
 C1408 C 0.31841 0.46663 0.76546
 H1409 H 0.40780 0.43073 0.79217
 H1410 H 0.32045 0.47987 0.79238
 H1411 H 0.39735 0.44417 0.83215
 H1412 H 0.32553 0.45752 0.75531
 C1413 C 0.40820 -0.07336 0.31166
 C1414 C 0.39799 -0.05613 0.31319
 C1415 C 0.37830 -0.05356 0.30564
 N1416 N 0.36814 -0.03743 0.30968
 N1417 N 0.35025 -0.03487 0.30310
 C1418 C 0.34185 -0.04833 0.29217
 N1419 N 0.35205 -0.06443 0.28803
 N1420 N 0.36993 -0.06704 0.29470
 C1421 C 0.32220 -0.04549 0.28459
 C1422 C 0.31037 -0.03040 0.29042
 H1423 H 0.40445 -0.04412 0.32034
 H1424 H 0.31697 -0.05545 0.27424
 H1425 H 0.40165 -0.08504 0.30406
 H1426 H 0.31538 -0.02096 0.30132
 C1427 C 0.08165 0.56842 0.68968
 C1428 C 0.08764 0.56520 0.70798
 C1429 C 0.10342 0.55164 0.71237
 N1430 N 0.10928 0.54924 0.73027
 N1431 N 0.12376 0.53724 0.73435
 C1432 C 0.13285 0.52711 0.72069
 N1433 N 0.12688 0.52940 0.70282
 N1434 N 0.11243 0.54141 0.69874
 C1435 C 0.14969 0.51477 0.72480
 C1436 C 0.15804 0.51422 0.74244
 H1437 H 0.08039 0.57251 0.71935
 H1438 H 0.15676 0.50747 0.71329
 H1439 H 0.08867 0.56053 0.67853
 H1440 H 0.15128 0.52210 0.75373
 C1441 C 0.07317 0.06655 0.19615
 C1442 C 0.08866 0.05623 0.18846
 C1443 C 0.10360 0.04680 0.19996
 N1444 N 0.11659 0.03474 0.19185
 N1445 N 0.13059 0.02652 0.20189
 C1446 C 0.13219 0.03013 0.22042
 N1447 N 0.11921 0.04222 0.22853
 N1448 N 0.10512 0.05034 0.21851
 C1449 C 0.14835 0.02210 0.23141
 C1450 C 0.16066 0.00795 0.22434
 H1451 H 0.09008 0.05523 0.17344
 H1452 H 0.15105 0.02802 0.24508
 H1453 H 0.07216 0.06789 0.21117
 H1454 H 0.15738 0.00146 0.21104
 C1455 C 0.67413 0.69691 0.18702
 C1456 C 0.66799 0.69816 0.20556
 C1457 C 0.65034 0.70876 0.21078
 N1458 N 0.64285 0.70693 0.22827
 N1459 N 0.62614 0.71544 0.23282
 C1460 C 0.61638 0.72618 0.22006
 N1461 N 0.62405 0.72830 0.20267
 N1462 N 0.64071 0.71972 0.19811
 C1463 C 0.59716 0.73429 0.22435
 C1464 C 0.58686 0.72891 0.24036
 H1465 H 0.67577 0.69050 0.21638
 H1466 H 0.59024 0.74316 0.21384
 H1467 H 0.66645 0.70508 0.17647
 H1468 H 0.59361 0.71952 0.25055
 C1469 C 0.17088 0.68533 0.69902
 C1470 C 0.16544 0.70456 0.69953
 C1471 C 0.14702 0.71086 0.70799
 N1472 N 0.14150 0.72943 0.70627
 N1473 N 0.12452 0.73529 0.71326
 C1474 C 0.11247 0.72279 0.72228
 N1475 N 0.11808 0.70424 0.72419
 N1476 N 0.13505 0.69836 0.71713
 C1477 C 0.09339 0.72898 0.72940
 C1478 C 0.08594 0.74700 0.72499
 H1479 H 0.17474 0.71532 0.69312
 H1480 H 0.08470 0.71886 0.73744
 H1481 H 0.16176 0.67473 0.70594
 H1482 H 0.09442 0.75677 0.71636
 C1483 C 0.58019 0.19079 0.55111
 C1484 C 0.58947 0.20858 0.55188
 C1485 C 0.60916 0.21222 0.54451
 N1486 N 0.61779 0.22925 0.54814
 N1487 N 0.63584 0.23285 0.54221
 C1488 C 0.64599 0.21958 0.53237
 N1489 N 0.63731 0.20256 0.52855
 N1490 N 0.61923 0.19891 0.53458
 C1491 C 0.66604 0.22364 0.52594
 C1492 C 0.67600 0.23968 0.53240
 H1493 H 0.58228 0.22034 0.55891
 H1494 H 0.67300 0.21397 0.51620
 H1495 H 0.58696 0.17925 0.54339
 H1496 H 0.66909 0.24875 0.54273
 C1497 C 0.57062 0.69010 0.05273
 C1498 C 0.57642 0.70908 0.05530
 C1499 C 0.59355 0.71679 0.04526
 N1500 N 0.60187 0.73357 0.05050
 N1501 N 0.61772 0.74020 0.04166
 C1502 C 0.62565 0.73035 0.02717
 N1503 N 0.61716 0.71377 0.02181
 N1504 N 0.60145 0.70711 0.03069
 C1505 C 0.64357 0.73666 0.01764
 C1506 C 0.65549 0.75126 0.02427
 H1507 H 0.56842 0.71834 0.06468
 H1508 H 0.64834 0.72833 0.00575
 H1509 H 0.57883 0.68140 0.04298
 H1510 H 0.65105 0.75939 0.03640
 C1511 C 0.16687 0.04879 0.06117
 C1512 C 0.15829 0.03078 0.05934
 C1513 C 0.13999 0.02776 0.04920
 N1514 N 0.13194 0.01001 0.04891
 N1515 N 0.11494 0.00707 0.04060
 C1516 C 0.10532 0.02176 0.03220
 N1517 N 0.11347 0.03950 0.03229
 N1518 N 0.13049 0.04245 0.04065
 C1519 C 0.08587 0.01880 0.02411
 C1520 C 0.07588 0.00160 0.02688
 H1521 H 0.16497 0.01843 0.06592
 H1522 H 0.07870 0.03077 0.01731
 H1523 H 0.16066 0.06091 0.05377
 H1524 H 0.08291 -0.00995 0.03446
 C1525 C 0.17571 0.55080 0.56063
 C1526 C 0.16290 0.55994 0.54841
 C1527 C 0.14422 0.55136 0.54292
 N1528 N 0.13266 0.56072 0.53059
 N1529 N 0.11544 0.55349 0.52587
 C1530 C 0.10910 0.53663 0.53334
 N1531 N 0.12068 0.52723 0.54565
 N1532 N 0.13793 0.53444 0.55034
 C1533 C 0.08972 0.52893 0.52889
 C1534 C 0.07754 0.53792 0.51603
 H1535 H 0.16619 0.57417 0.54316
 H1536 H 0.08469 0.51630 0.53640
 H1537 H 0.17176 0.53685 0.56625
 H1538 H 0.08278 0.55036 0.50834
 C1539 C 0.67259 0.06498 0.55543
 C1540 C 0.66451 0.06718 0.53771
 C1541 C 0.64567 0.05864 0.53291
 N1542 N 0.63700 0.06336 0.51655
 N1543 N 0.61959 0.05622 0.51232
 C1544 C 0.61028 0.04408 0.52432
 N1545 N 0.61901 0.03926 0.54059
 N1546 N 0.63636 0.04645 0.54485
 C1547 C 0.59108 0.03607 0.52009
 C1548 C 0.58020 0.04176 0.50465
 H1549 H 0.67178 0.07596 0.52726
 H1550 H 0.58521 0.02549 0.52975
 H1551 H 0.66540 0.05564 0.56547
 H1552 H 0.58575 0.05269 0.49519
 C1553 C 0.66623 0.55892 0.05792
 C1554 C 0.64878 0.56590 0.05067
 C1555 C 0.63368 0.55314 0.04311
 N1556 N 0.61845 0.56071 0.03364
 N1557 N 0.60422 0.54948 0.02743
 C1558 C 0.60460 0.53024 0.03055
 N1559 N 0.61983 0.52266 0.04006
 N1560 N 0.63414 0.53388 0.04615
 C1561 C 0.58822 0.51791 0.02490
 C1562 C 0.57366 0.52465 0.01308
 H1563 H 0.64573 0.58112 0.05108
 H1564 H 0.58710 0.50365 0.03092
 H1565 H 0.66886 0.54361 0.05757
 H1566 H 0.57536 0.53864 0.00657
 C1567 C 0.05266 0.06944 0.16704
 C1568 C 0.05186 0.04990 0.16288
 C1569 C 0.04410 0.04310 0.14498
 N1570 N 0.04582 0.02437 0.14010
 N1571 N 0.03874 0.01818 0.12394
 C1572 C 0.02959 0.03050 0.11213
 N1573 N 0.02782 0.04915 0.11705
 N1574 N 0.03498 0.05535 0.13312
 C1575 C 0.02128 0.02421 0.09436
 C1576 C 0.02466 0.00626 0.08644
 H1577 H 0.05682 0.03935 0.17292
 H1578 H 0.01256 0.03462 0.08685
 H1579 H 0.04690 0.07960 0.15698
 H1580 H 0.03424 -0.00390 0.09323
 C1581 C 0.05498 0.57737 0.66819
 C1582 C 0.05266 0.55897 0.66104
 C1583 C 0.04316 0.55546 0.64310
 N1584 N 0.04439 0.53787 0.63525
 N1585 N 0.03643 0.53456 0.61870
 C1586 C 0.02685 0.54871 0.60944
 N1587 N 0.02539 0.56624 0.61740
 N1588 N 0.03345 0.56958 0.63391
 C1589 C 0.01858 0.54539 0.59090
 C1590 C 0.02347 0.52925 0.58054
 H1591 H 0.05852 0.54674 0.66851
 H1592 H 0.00936 0.55638 0.58488
 H1593 H 0.04877 0.58941 0.66070
 H1594 H 0.03353 0.51881 0.58623
 C1595 C 0.55625 0.05906 0.65859
 C1596 C 0.53847 0.05657 0.64972
 C1597 C 0.53727 0.04972 0.63039
 N1598 N 0.51991 0.04983 0.62149
 N1599 N 0.51861 0.04368 0.60399
 C1600 C 0.53459 0.03709 0.59476
 N1601 N 0.55192 0.03684 0.60370
 N1602 N 0.55325 0.04308 0.62118
 C1603 C 0.53328 0.03029 0.57541
 C1604 C 0.51659 0.03326 0.56486
 H1605 H 0.52506 0.05967 0.65715
 H1606 H 0.54582 0.02326 0.56924
 H1607 H 0.56955 0.05538 0.65121
 H1608 H 0.50447 0.04107 0.57089
 C1609 C 0.55399 0.54987 0.16967
 C1610 C 0.55940 0.53357 0.15970
 C1611 C 0.54911 0.52786 0.14273
 N1612 N 0.55630 0.51354 0.13197
 N1613 N 0.54756 0.50881 0.11612
 C1614 C 0.53128 0.51820 0.11050
 N1615 N 0.52397 0.53236 0.12136
 N1616 N 0.53274 0.53713 0.13716
 C1617 C 0.52190 0.51381 0.09271
 C1618 C 0.53014 0.50130 0.07980
 H1619 H 0.57179 0.52508 0.16399
 H1620 H 0.50863 0.52142 0.08931
 H1621 H 0.54109 0.55765 0.16538
 H1622 H 0.54359 0.49393 0.08306
 C1623 C 0.20179 0.55335 0.58441
 C1624 C 0.19031 0.54818 0.59976
 C1625 C 0.19860 0.54374 0.61816
 N1626 N 0.18678 0.53720 0.63204
 N1627 N 0.19391 0.53318 0.64883
 C1628 C 0.21313 0.53566 0.65246
 N1629 N 0.22496 0.54240 0.63863
 N1630 N 0.21783 0.54636 0.62177
 C1631 C 0.22113 0.53053 0.67087
 C1632 C 0.21025 0.51941 0.68336
 H1633 H 0.17461 0.54792 0.59846
 H1634 H 0.23600 0.53437 0.67410
 H1635 H 0.21746 0.55386 0.58594
 H1636 H 0.19586 0.51465 0.67937
 C1637 C 0.18699 0.04020 0.08887
 C1638 C 0.20516 0.03883 0.09734
 C1639 C 0.20806 0.02857 0.11508
 N1640 N 0.22531 0.03016 0.12403
 N1641 N 0.22793 0.02174 0.14055
 C1642 C 0.21342 0.01132 0.14871
 N1643 N 0.19626 0.00949 0.13964
 N1644 N 0.19361 0.01799 0.12314
 C1645 C 0.21574 0.00295 0.16746
 C1646 C 0.23117 0.00818 0.17886
 H1647 H 0.21759 0.04610 0.09115
 H1648 H 0.20426 -0.00620 0.17293
 H1649 H 0.17479 0.03241 0.09490
 H1650 H 0.24210 0.01811 0.17362
 C1651 C 0.67759 0.18951 0.65655
 C1652 C 0.69699 0.19252 0.65122
 C1653 C 0.70254 0.20565 0.63579
 N1654 N 0.72152 0.20740 0.63061
 N1655 N 0.72673 0.21891 0.61648
 C1656 C 0.71316 0.22920 0.60702
 N1657 N 0.69419 0.22756 0.61229
 N1658 N 0.68898 0.21603 0.62640
 C1659 C 0.71851 0.24121 0.59069
 C1660 C 0.73731 0.24136 0.58313
 H1661 H 0.70850 0.18515 0.65861
 H1662 H 0.70698 0.24877 0.58350
 H1663 H 0.66633 0.19750 0.64940
 H1664 H 0.74864 0.23316 0.58996
 C1665 C 0.69941 0.68871 0.16350
 C1666 C 0.70076 0.70720 0.15608
 C1667 C 0.70723 0.71109 0.13685
 N1668 N 0.70557 0.72909 0.12977
 N1669 N 0.71042 0.73282 0.11210
 C1670 C 0.71716 0.71869 0.10083
 N1671 N 0.71905 0.70071 0.10795
 N1672 N 0.71411 0.69695 0.12564
 C1673 C 0.72202 0.72266 0.08115
 C1674 C 0.71714 0.74009 0.07279
 H1675 H 0.69593 0.71926 0.16434
 H1676 H 0.72900 0.71153 0.07302
 H1677 H 0.70497 0.67677 0.15548
 H1678 H 0.70949 0.75084 0.08086
 C1679 C 0.54516 0.68805 0.07856
 C1680 C 0.55681 0.69391 0.09334
 C1681 C 0.54867 0.69861 0.11183
 N1682 N 0.56015 0.70689 0.12482
 N1683 N 0.55308 0.71105 0.14169
 C1684 C 0.53429 0.70694 0.14625
 N1685 N 0.52285 0.69851 0.13331
 N1686 N 0.52988 0.69447 0.11640
 C1687 C 0.52630 0.71141 0.16486
 C1688 C 0.53602 0.72340 0.17718
 H1689 H 0.57244 0.69479 0.09144
 H1690 H 0.51211 0.70572 0.16865
 H1691 H 0.52961 0.68667 0.08080
 H1692 H 0.54967 0.72995 0.17290
 C1693 C 0.06452 0.70202 0.58548
 C1694 C 0.06563 0.72058 0.59259
 C1695 C 0.05471 0.72653 0.60933
 N1696 N 0.05808 0.74403 0.61680
 N1697 N 0.04894 0.74938 0.63238
 C1698 C 0.03603 0.73747 0.64106
 N1699 N 0.03249 0.72005 0.63347
 N1700 N 0.04168 0.71466 0.61792
 C1701 C 0.02661 0.74280 0.65881
 C1702 C 0.03241 0.75892 0.66875
 H1703 H 0.07520 0.73099 0.58599
 H1704 H 0.01593 0.73308 0.66484
 H1705 H 0.05439 0.69195 0.59184
 H1706 H 0.04368 0.76816 0.66301
 C1707 C 0.55548 0.57170 0.19615
 C1708 C 0.56570 0.58699 0.20382
 C1709 C 0.55555 0.60442 0.21015
 N1710 N 0.56543 0.61830 0.21928
 N1711 N 0.55659 0.63456 0.22412
 C1712 C 0.53758 0.63761 0.21986
 N1713 N 0.52772 0.62376 0.21069
 N1714 N 0.53652 0.60747 0.20598
 C1715 C 0.52784 0.65583 0.22432
 C1716 C 0.53601 0.66909 0.23641
 H1717 H 0.58145 0.58685 0.20398
 H1718 H 0.51390 0.65884 0.21796
 H1719 H 0.53971 0.57239 0.19606
 H1720 H 0.54940 0.66554 0.24356
 C1721 C 0.06275 0.59843 0.69521
 C1722 C 0.04548 0.60893 0.69400
 C1723 C 0.04311 0.62809 0.70212
 N1724 N 0.02693 0.63844 0.69817
 N1725 N 0.02469 0.65607 0.70484
 C1726 C 0.03854 0.66403 0.71576
 N1727 N 0.05468 0.65363 0.71985
 N1728 N 0.05697 0.63600 0.71310
 C1729 C 0.03622 0.68358 0.72307
 C1730 C 0.02132 0.69564 0.71699
 H1731 H 0.03336 0.60325 0.68621
 H1732 H 0.04664 0.68867 0.73318
 H1733 H 0.07448 0.60384 0.70370
 H1734 H 0.01143 0.69072 0.70633
 C1735 C 0.05983 0.15371 0.07982
 C1736 C 0.06283 0.14281 0.06382
 C1737 C 0.05179 0.12521 0.06008
 N1738 N 0.05518 0.11561 0.04401
 N1739 N 0.04551 0.09956 0.04034
 C1740 C 0.03208 0.09245 0.05258
 N1741 N 0.02865 0.10206 0.06867
 N1742 N 0.03834 0.11816 0.07236
 C1743 C 0.02165 0.07449 0.04859
 C1744 C 0.02569 0.06431 0.03237
 H1745 H 0.07341 0.14742 0.05345
 H1746 H 0.01115 0.06900 0.05866
 H1747 H 0.04842 0.14948 0.08955
 H1748 H 0.03646 0.06988 0.02260
 C1749 C 0.07110 0.67887 0.55982
 C1750 C 0.05177 0.67330 0.55746
 C1751 C 0.04652 0.65568 0.54751
 N1752 N 0.02793 0.64915 0.54827
 N1753 N 0.02307 0.63288 0.53987
 C1754 C 0.03660 0.62259 0.53029
 N1755 N 0.05514 0.62927 0.52929
 N1756 N 0.06002 0.64550 0.53778
 C1757 C 0.03160 0.60407 0.52183
 C1758 C 0.01448 0.59451 0.52672
 H1759 H 0.04013 0.68185 0.56336
 H1760 H 0.04224 0.59714 0.51292
 H1761 H 0.08249 0.67021 0.55360
 H1762 H 0.00451 0.60103 0.53661
 C1763 C 0.54993 0.17122 0.55595
 C1764 C 0.54893 0.16415 0.53783
 C1765 C 0.53727 0.14713 0.53313
 N1766 N 0.53675 0.14100 0.51523
 N1767 N 0.52705 0.12513 0.51085
 C1768 C 0.51745 0.11479 0.52419
 N1769 N 0.51780 0.12104 0.54208
 N1770 N 0.52750 0.13693 0.54647
 C1771 C 0.50828 0.09625 0.51976
 C1772 C 0.51012 0.08827 0.50206
 H1773 H 0.55702 0.17123 0.52672
 H1774 H 0.50212 0.08778 0.53110
 H1775 H 0.54092 0.16472 0.56676
 H1776 H 0.51691 0.09663 0.49099
 C1777 C 0.54474 0.66624 0.05091
 C1778 C 0.53326 0.65214 0.05947
 C1779 C 0.52780 0.63449 0.04965
 N1780 N 0.51713 0.62086 0.05865
 N1781 N 0.51301 0.60436 0.05032
 C1782 C 0.51943 0.60082 0.03269
 N1783 N 0.52999 0.61450 0.02363
 N1784 N 0.53409 0.63103 0.03195
 C1785 C 0.51586 0.58219 0.02378
 C1786 C 0.50532 0.56784 0.03295
 H1787 H 0.52927 0.65333 0.07405
 H1788 H 0.52229 0.57948 0.01021
 H1789 H 0.54888 0.66437 0.03641
 H1790 H 0.49884 0.57079 0.04646
 C1791 C 0.69409 0.09358 0.55268
 C1792 C 0.71248 0.10197 0.55360
 C1793 C 0.71623 0.12118 0.54589
 N1794 N 0.73338 0.13011 0.54930
 N1795 N 0.73668 0.14777 0.54280
 C1796 C 0.72298 0.15707 0.53260
 N1797 N 0.70593 0.14808 0.52905
 N1798 N 0.70259 0.13047 0.53560
 C1799 C 0.72613 0.17665 0.52566
 C1800 C 0.74211 0.18758 0.53096
 H1801 H 0.72430 0.09451 0.56044
 H1802 H 0.71517 0.18284 0.51665
 H1803 H 0.68259 0.10122 0.54553
 H1804 H 0.75278 0.18160 0.54042
 C1805 C 0.68272 0.59108 0.06338
 C1806 C 0.68128 0.59895 0.04546
 C1807 C 0.68735 0.61891 0.04151
 N1808 N 0.68364 0.62717 0.02469
 N1809 N 0.68963 0.64500 0.02090
 C1810 C 0.69968 0.65517 0.03377
 N1811 N 0.70342 0.64688 0.05054
 N1812 N 0.69733 0.62914 0.05436
 C1813 C 0.70716 0.67458 0.02971
 C1814 C 0.70137 0.68534 0.01424
 H1815 H 0.67639 0.59019 0.03400
 H1816 H 0.71745 0.68066 0.03941
 H1817 H 0.68819 0.60010 0.07442
 H1818 H 0.69021 0.67981 0.00513
 C1819 C 0.19739 0.66130 0.69473
 C1820 C 0.19501 0.65311 0.71247
 C1821 C 0.20257 0.63398 0.71720
 N1822 N 0.19758 0.62556 0.73370
 N1823 N 0.20381 0.60797 0.73793
 C1824 C 0.21533 0.59821 0.72580
 N1825 N 0.22045 0.60669 0.70938
 N1826 N 0.21416 0.62423 0.70512
 C1827 C 0.22208 0.57866 0.72988
 C1828 C 0.21549 0.56788 0.74517
 H1829 H 0.18685 0.66063 0.72312
 H1830 H 0.23203 0.57225 0.71990
 H1831 H 0.20610 0.65382 0.68443
 H1832 H 0.20510 0.57398 0.75491
 C1833 C 0.20677 0.16098 0.18821
 C1834 C 0.20737 0.15347 0.20631
 C1835 C 0.21362 0.13379 0.21053
 N1836 N 0.20973 0.12622 0.22764
 N1837 N 0.21439 0.10814 0.23162
 C1838 C 0.22323 0.09696 0.21864
 N1839 N 0.22739 0.10460 0.20159
 N1840 N 0.22259 0.12268 0.19756
 C1841 C 0.22795 0.07683 0.22282
 C1842 C 0.21946 0.06722 0.23796
 H1843 H 0.20189 0.16191 0.21783
 H1844 H 0.23755 0.06922 0.21336
 H1845 H 0.21280 0.15271 0.17681
 H1846 H 0.20887 0.07457 0.24661
 C1847 C 0.68348 1.16004 0.67597
 C1848 C 0.68184 1.15041 0.69310
 C1849 C 0.69211 1.13236 0.69735
 N1850 N 0.68831 1.12307 0.71368
 N1851 N 0.69696 1.10646 0.71766
 C1852 C 0.70982 1.09851 0.70548
 N1853 N 0.71375 1.10787 0.68919
 N1854 N 0.70504 1.12448 0.68517
 C1855 C 0.71907 1.07985 0.70955
 C1856 C 0.71337 1.06856 0.72482
 H1857 H 0.67230 1.15607 0.70382
 H1858 H 0.72994 1.07454 0.69984
 H1859 H 0.69364 1.15472 0.66560
 H1860 H 0.70195 1.07364 0.73405
 C1861 C 0.69387 0.66734 0.19117
 C1862 C 0.71141 0.65749 0.18943
 C1863 C 0.71467 0.63882 0.19851
 N1864 N 0.73092 0.62872 0.19425
 N1865 N 0.73389 0.61150 0.20183
 C1866 C 0.72076 0.60375 0.21400
 N1867 N 0.70460 0.61396 0.21847
 N1868 N 0.70158 0.63118 0.21081
 C1869 C 0.72385 0.58446 0.22193
 C1870 C 0.73810 0.57254 0.21445
 H1871 H 0.72299 0.66335 0.18078
 H1872 H 0.71457 0.57944 0.23325
 H1873 H 0.68260 0.66148 0.20022
 H1874 H 0.74661 0.57752 0.20257
 C1875 C 0.54515 0.07924 0.68589
 C1876 C 0.53666 0.09392 0.67535
 C1877 C 0.52677 0.11024 0.68427
 N1878 N 0.51823 0.12404 0.67367
 N1879 N 0.51023 0.13941 0.68161
 C1880 C 0.51054 0.14153 0.70044
 N1881 N 0.51898 0.12768 0.71101
 N1882 N 0.52689 0.11231 0.70310
 C1883 C 0.50342 0.15906 0.70946
 C1884 C 0.49340 0.17350 0.69999
 H1885 H 0.53823 0.09412 0.66031
 H1886 H 0.50701 0.16100 0.72402
 H1887 H 0.54397 0.07981 0.70097
 H1888 H 0.48865 0.17127 0.68579
 C1889 C 1.05154 0.09501 0.19036
 C1890 C 1.05985 0.10621 0.20429
 C1891 C 1.05245 0.12544 0.20899
 N1892 N 1.06069 0.13535 0.22310
 N1893 N 1.05451 0.15290 0.22733
 C1894 C 1.03985 0.16128 0.21759
 N1895 N 1.03158 0.15137 0.20347
 N1896 N 1.03774 0.13378 0.19927
 C1897 C 1.03331 0.18095 0.22187
 C1898 C 1.04115 0.19116 0.23669
 H1899 H 1.07251 0.10111 0.21171
 H1900 H 1.02255 0.18762 0.21297
 H1901 H 1.03916 0.10076 0.18287
 H1902 H 1.05179 0.18424 0.24557
 C1903 C 0.20299 0.57439 0.55606
 C1904 C 0.21611 0.58728 0.56388
 C1905 C 0.22464 0.60346 0.55344
 N1906 N 0.23851 0.61430 0.56159
 N1907 N 0.24571 0.62970 0.55290
 C1908 C 0.23926 0.63490 0.53573
 N1909 N 0.22542 0.62401 0.52750
 N1910 N 0.21827 0.60852 0.53618
 C1911 C 0.24608 0.65276 0.52676
 C1912 C 0.26060 0.66386 0.53483
 H1913 H 0.21981 0.58608 0.57850
 H1914 H 0.23869 0.65785 0.51438
 H1915 H 0.19947 0.57592 0.54143
 H1916 H 0.26821 0.65840 0.54695
 C1917 C 0.19577 0.06854 1.06918
 C1918 C 0.19922 0.07569 1.05128
 C1919 C 0.21039 0.09332 1.04765
 N1920 N 0.21175 0.10014 1.02995
 N1921 N 0.22084 0.11661 1.02634
 C1922 C 0.22901 0.12692 1.04027
 N1923 N 0.22802 0.11991 1.05798
 N1924 N 0.21884 0.10341 1.06161
 C1925 C 0.23749 0.14597 1.03627
 C1926 C 0.23234 0.15550 1.01992
 H1927 H 0.19312 0.06830 1.03944
 H1928 H 0.24624 0.15307 1.04666
 H1929 H 0.20251 0.07548 1.08096
 H1930 H 0.22228 0.14860 1.01052
 C1931 C 0.19414 0.68899 0.67262
 C1932 C 0.21326 0.68885 0.66594
 C1933 C 0.21899 0.69899 0.64865
 N1934 N 0.23761 0.69783 0.64233
 N1935 N 0.24293 0.70656 0.62649
 C1936 C 0.22985 0.71684 0.61639
 N1937 N 0.21126 0.71813 0.62279
 N1938 N 0.20592 0.70937 0.63862
 C1939 C 0.23540 0.72574 0.59840
 C1940 C 0.25361 0.72242 0.59037
 H1941 H 0.22438 0.68120 0.67361
 H1942 H 0.22457 0.73389 0.59080
 H1943 H 0.18336 0.69733 0.66516
 H1944 H 0.26407 0.71369 0.59783
 C1945 C 0.20084 0.18888 1.16671
 C1946 C 0.21822 0.18723 1.15666
 C1947 C 0.22116 0.19667 1.13840
 N1948 N 0.23800 0.19385 1.12882
 N1949 N 0.24069 0.20176 1.11202
 C1950 C 0.22666 0.21285 1.10415
 N1951 N 0.20987 0.21583 1.11380
 N1952 N 0.20716 0.20788 1.13061
 C1953 C 0.22916 0.22080 1.08515
 C1954 C 0.24505 0.21560 1.07409
 H1955 H 0.22999 0.17866 1.16221
 H1956 H 0.21777 0.22972 1.07938
 H1957 H 0.18951 0.19815 1.16132
 H1958 H 0.25597 0.20609 1.07984
 C1959 C 0.69217 0.56315 0.08196
 C1960 C 0.68708 0.54699 0.09257
 C1961 C 0.69885 0.54056 0.10857
 N1962 N 0.69280 0.52551 0.11925
 N1963 N 0.70294 0.52000 0.13415
 C1964 C 0.71953 0.52933 0.13891
 N1965 N 0.72564 0.54429 0.12816
 N1966 N 0.71550 0.54980 0.11328
 C1967 C 0.73045 0.52404 0.15580
 C1968 C 0.72436 0.50937 0.16784
 H1969 H 0.67368 0.53941 0.08979
 H1970 H 0.74313 0.53251 0.15925
 H1971 H 0.70520 0.57099 0.08567
 H1972 H 0.71166 0.50095 0.16438
 C1973 C 0.69981 1.06949 0.57775
 C1974 C 0.70053 1.05047 0.58379
 C1975 C 0.70914 1.04499 0.60176
 N1976 N 0.70740 1.02669 0.60808
 N1977 N 0.71431 1.02170 0.62473
 C1978 C 0.72327 1.03480 0.63566
 N1979 N 0.72524 1.05305 0.62925
 N1980 N 0.71827 1.05807 0.61261
 C1981 C 0.73004 1.02967 0.65446
 C1982 C 0.72524 1.01211 0.66265
 H1983 H 0.69404 1.03932 0.57543
 H1984 H 0.73786 1.04032 0.66238
 H1985 H 0.70691 1.08038 0.58599
 H1986 H 0.71682 1.00180 0.65486
 C1987 C 0.55742 0.19802 0.57731
 C1988 C 0.53833 0.20238 0.58243
 C1989 C 0.53367 0.21359 0.59920
 N1990 N 0.51481 0.21704 0.60378
 N1991 N 0.51030 0.22659 0.61924
 C1992 C 0.52448 0.23312 0.63069
 N1993 N 0.54336 0.22987 0.62599
 N1994 N 0.54788 0.22030 0.61052
 C1995 C 0.51960 0.24210 0.64867
 C1996 C 0.50052 0.24228 0.65539
 H1997 H 0.52644 0.19751 0.57383
 H1998 H 0.53139 0.24637 0.65770
 H1999 H 0.56928 0.20358 0.58557
 H2000 H 0.48892 0.23716 0.64655
 C2001 C 1.06196 0.18435 0.09620
 C2002 C 1.07285 0.19655 0.10742
 C2003 C 1.06366 0.20763 0.12256
 N2004 N 1.07434 0.22029 0.13250
 N2005 N 1.06638 0.22965 0.14682
 C2006 C 1.04746 0.22664 0.15176
 N2007 N 1.03679 0.21403 0.14178
 N2008 N 1.04471 0.20476 0.12742
 C2009 C 1.03885 0.23567 0.16838
 C2010 C 1.04855 0.24973 0.17844
 H2011 H 1.08850 0.19730 0.10579
 H2012 H 1.02490 0.23036 0.17335
 H2013 H 1.04636 0.18353 0.09855
 H2014 H 1.06211 0.25558 0.17305
 C2015 C 0.65308 0.17916 0.68039
 C2016 C 0.64457 0.19716 0.68266
 C2017 C 0.62518 0.19993 0.69118
 N2018 N 0.61760 0.21785 0.69204
 N2019 N 0.59998 0.22076 0.69934
 C2020 C 0.58920 0.20590 0.70614
 N2021 N 0.59682 0.18795 0.70542
 N2022 N 0.61448 0.18501 0.69805
 C2023 C 0.56939 0.20913 0.71371
 C2024 C 0.56058 0.22707 0.71206
 H2025 H 0.65241 0.20982 0.67802
 H2026 H 0.56142 0.19721 0.71983
 H2027 H 0.64548 0.16662 0.68571
 H2028 H 0.56855 0.23860 0.70523
 C2029 C 1.18187 0.18549 0.19613
 C2030 C 1.17775 0.20486 0.19856
 C2031 C 1.16141 0.21132 0.21028
 N2032 N 1.15703 0.23024 0.21104
 N2033 N 1.14171 0.23625 0.22088
 C2034 C 1.13026 0.22357 0.23040
 N2035 N 1.13482 0.20467 0.22988
 N2036 N 1.15013 0.19865 0.22000
 C2037 C 1.11233 0.22990 0.23988
 C2038 C 1.10512 0.24832 0.23704
 H2039 H 1.18656 0.21557 0.19145
 H2040 H 1.10364 0.21937 0.24740
 H2041 H 1.17339 0.17489 0.20378
 H2042 H 1.11353 0.25847 0.22875
 C2043 C 0.09563 0.70391 0.56732
 C2044 C 0.10580 0.70233 0.55046
 C2045 C 0.12597 0.70906 0.54808
 N2046 N 0.13598 0.70467 0.53230
 N2047 N 0.15442 0.71020 0.53006
 C2048 C 0.16352 0.72040 0.54350
 N2049 N 0.15346 0.72495 0.55923
 N2050 N 0.13503 0.71933 0.56151
 C2051 C 0.18394 0.72644 0.54124
 C2052 C 0.19564 0.71958 0.52677
 H2053 H 0.09901 0.69546 0.53868
 H2054 H 0.19000 0.73609 0.55145
 H2055 H 0.10242 0.71133 0.57879
 H2056 H 0.18974 0.70931 0.51706
 C2057 C 0.08965 0.17367 1.07500
 C2058 C 0.09611 0.19145 1.06841
 C2059 C 0.11457 0.19363 1.05795
 N2060 N 0.12182 0.21139 1.05442
 N2061 N 0.13843 0.21360 1.04490
 C2062 C 0.14835 0.19815 1.03838
 N2063 N 0.14099 0.18038 1.04173
 N2064 N 0.12444 0.17816 1.05138
 C2065 C 0.16691 0.20049 1.02808
 C2066 C 0.17718 0.21770 1.02857
 H2067 H 0.08726 0.20407 1.07071
 H2068 H 0.17308 0.18825 1.02094
 H2069 H 0.09845 0.16111 1.07225
 H2070 H 0.17148 0.22938 1.03687
 C2071 C 0.58460 0.55089 0.18825
 C2072 C 0.59222 0.54801 0.20601
 C2073 C 0.61154 0.53926 0.20872
 N2074 N 0.61985 0.53929 0.22582
 N2075 N 0.63726 0.53132 0.22843
 C2076 C 0.64694 0.52285 0.21407
 N2077 N 0.63853 0.52263 0.19701
 N2078 N 0.62117 0.53071 0.19438
 C2079 C 0.66643 0.51446 0.21666
 C2080 C 0.67751 0.51870 0.23228
 H2081 H 0.58367 0.55182 0.21819
 H2082 H 0.67271 0.50600 0.20551
 H2083 H 0.59334 0.54697 0.17623
 H2084 H 0.67162 0.52830 0.24272
 C2085 C 0.57298 1.05747 0.68933
 C2086 C 0.58260 1.04031 0.68547
 C2087 C 0.59958 1.03384 0.69619
 N2088 N 0.60909 1.01763 0.69110
 N2089 N 0.62509 1.01208 0.70002
 C2090 C 0.63215 1.02251 0.71441
 N2091 N 0.62252 1.03860 0.71963
 N2092 N 0.60653 1.04417 0.71069
 C2093 C 0.65054 1.01730 0.72353
 C2094 C 0.66215 1.00233 0.71705
 H2095 H 0.57793 1.03154 0.67394
 H2096 H 0.65575 1.02640 0.73462
 H2097 H 0.57716 1.06554 0.70153
 H2098 H 0.65702 0.99346 0.70576
 C2099 C 0.92775 0.45998 0.31164
 C2100 C 0.92281 0.45916 0.29277
 C2101 C 0.90447 0.46697 0.28563
 N2102 N 0.89791 0.46146 0.26867
 N2103 N 0.88080 0.46765 0.26238
 C2104 C 0.86974 0.47968 0.27281
 N2105 N 0.87644 0.48541 0.28964
 N2106 N 0.89345 0.47911 0.29598
 C2107 C 0.85053 0.48615 0.26664
 C2108 C 0.84036 0.47756 0.25210
 H2109 H 0.93205 0.45147 0.28307
 H2110 H 0.84351 0.49711 0.27494
 H2111 H 0.91845 0.46790 0.32110
 H2112 H 0.84695 0.46604 0.24421
 C2113 C 0.90976 0.95391 0.82040
 C2114 C 0.90450 0.95786 0.80198
 C2115 C 0.88539 0.96564 0.79676
 N2116 N 0.88042 0.96626 0.77849
 N2117 N 0.86282 0.97220 0.77337
 C2118 C 0.84952 0.97783 0.78633
 N2119 N 0.85457 0.97748 0.80462
 N2120 N 0.87217 0.97143 0.80976
 C2121 C 0.82971 0.98350 0.78077
 C2122 C 0.82278 0.97961 0.76295
 H2123 H 0.91440 0.95413 0.79075
 H2124 H 0.82007 0.98963 0.79118
 H2125 H 0.90025 0.95842 0.83167
 H2126 H 0.83217 0.97240 0.75302
 C2127 C 0.30519 0.28535 0.79985
 C2128 C 0.31378 0.28569 0.78215
 C2129 C 0.33397 0.27929 0.77897
 N2130 N 0.34344 0.28442 0.76301
 N2131 N 0.36184 0.27909 0.76008
 C2132 C 0.37143 0.26832 0.77294
 N2133 N 0.36188 0.26297 0.78880
 N2134 N 0.34352 0.26844 0.79181
 C2135 C 0.39178 0.26239 0.76976
 C2136 C 0.40344 0.27160 0.75645
 H2137 H 0.30581 0.29146 0.77041
 H2138 H 0.39777 0.25095 0.77826
 H2139 H 0.31344 0.27945 0.81137
 H2140 H 0.39764 0.28383 0.74891
 C2141 C 0.84940 0.31269 0.31853
 C2142 C 0.86349 0.32304 0.30850
 C2143 C 0.88180 0.31406 0.30203
 N2144 N 0.89446 0.32413 0.29110
 N2145 N 0.91133 0.31640 0.28569
 C2146 C 0.91624 0.29831 0.29109
 N2147 N 0.90359 0.28826 0.30205
 N2148 N 0.88670 0.29596 0.30739
 C2149 C 0.93510 0.28974 0.28568
 C2150 C 0.94756 0.29852 0.27274
 H2151 H 0.86153 0.33824 0.30600
 H2152 H 0.93924 0.27623 0.29206
 H2153 H 0.85197 0.29756 0.32107
 H2154 H 0.94302 0.31170 0.26595
 C2155 C 0.44119 0.80056 0.44275
 C2156 C 0.43558 0.79938 0.46146
 C2157 C 0.41798 0.78901 0.46737
 N2158 N 0.41047 0.79185 0.48468
 N2159 N 0.39381 0.78349 0.48983
 C2160 C 0.38416 0.77192 0.47787
 N2161 N 0.39186 0.76881 0.46068
 N2162 N 0.40845 0.77726 0.45549
 C2163 C 0.36528 0.76349 0.48294
 C2164 C 0.35467 0.76983 0.49834
 H2165 H 0.44359 0.80721 0.47189
 H2166 H 0.35903 0.75302 0.47364
 H2167 H 0.43314 0.79243 0.43254
 H2168 H 0.36062 0.78089 0.50717
 C2169 C 0.41806 0.30472 0.93071
 C2170 C 0.41161 0.28569 0.93150
 C2171 C 0.39284 0.28022 0.94023
 N2172 N 0.38583 0.26212 0.93830
 N2173 N 0.36883 0.25703 0.94603
 C2174 C 0.35826 0.26985 0.95606
 N2175 N 0.36532 0.28789 0.95807
 N2176 N 0.38224 0.29300 0.95027
 C2177 C 0.33949 0.26465 0.96488
 C2178 C 0.32960 0.24755 0.96130
 H2179 H 0.42043 0.27447 0.92541
 H2180 H 0.33288 0.27510 0.97407
 H2181 H 0.40931 0.31567 0.93737
 H2182 H 0.33562 0.23744 0.95141
 C2183 C 0.80477 0.45206 0.41451
 C2184 C 0.80606 0.46886 0.40384
 C2185 C 0.79891 0.47007 0.38457
 N2186 N 0.80344 0.48558 0.37385
 N2187 N 0.79752 0.48673 0.35622
 C2188 C 0.78679 0.47243 0.34867
 N2189 N 0.78211 0.45698 0.35944
 N2190 N 0.78813 0.45578 0.37705
 C2191 C 0.78015 0.47352 0.32923
 C2192 C 0.78710 0.48745 0.31678
 H2193 H 0.81307 0.48143 0.40947
 H2194 H 0.76983 0.46288 0.32453
 H2195 H 0.79725 0.43982 0.40877
 H2196 H 0.79808 0.49753 0.32129
 C2197 C 0.80715 0.95165 0.90908
 C2198 C 0.79134 0.94567 0.89844
 C2199 C 0.78712 0.95376 0.87988
 N2200 N 0.77217 0.94654 0.86988
 N2201 N 0.76832 0.95336 0.85290
 C2202 C 0.77927 0.96767 0.84526
 N2203 N 0.79418 0.97497 0.85529
 N2204 N 0.79806 0.96812 0.87229
 C2205 C 0.77523 0.97509 0.82637
 C2206 C 0.76109 0.96673 0.81520
 H2207 H 0.78173 0.93456 0.90373
 H2208 H 0.78376 0.98705 0.82107
 H2209 H 0.81601 0.96345 0.90392
 H2210 H 0.75296 0.95449 0.82047
 C2211 C 0.31415 0.80739 0.34329
 C2212 C 0.31603 0.78995 0.35281
 C2213 C 0.30940 0.78710 0.37222
 N2214 N 0.31431 0.77077 0.38142
 N2215 N 0.30882 0.76797 0.39910
 C2216 C 0.29814 0.78137 0.40826
 N2217 N 0.29307 0.79766 0.39902
 N2218 N 0.29865 0.80051 0.38133
 C2219 C 0.29208 0.77831 0.42785
 C2220 C 0.29987 0.76340 0.43850
 H2221 H 0.32308 0.77797 0.34602
 H2222 H 0.28160 0.78803 0.43401
 H2223 H 0.30654 0.81905 0.35007
 H2224 H 0.31102 0.75433 0.43242
 C2225 C 0.27574 0.28743 0.82049
 C2226 C 0.27926 0.27045 0.83021
 C2227 C 0.27102 0.26695 0.84891
 N2228 N 0.27547 0.25055 0.85816
 N2229 N 0.26924 0.24772 0.87560
 C2230 C 0.25834 0.26118 0.88446
 N2231 N 0.25366 0.27750 0.87512
 N2232 N 0.25990 0.28033 0.85766
 C2233 C 0.25280 0.25873 0.90422
 C2234 C 0.25994 0.24329 0.91448
 H2235 H 0.28888 0.25974 0.82434
 H2236 H 0.24435 0.26980 0.91103
 H2237 H 0.26505 0.29736 0.82602
 H2238 H 0.26873 0.23257 0.90751
 C2239 C 0.44521 0.29989 0.90692
 C2240 C 0.43442 0.29132 0.89285
 C2241 C 0.44377 0.28405 0.87575
 N2242 N 0.43310 0.27439 0.86305
 N2243 N 0.44119 0.26855 0.84711
 C2244 C 0.46024 0.27225 0.84324
 N2245 N 0.47092 0.28190 0.85595
 N2246 N 0.46285 0.28763 0.87193
 C2247 C 0.46900 0.26700 0.82518
 C2248 C 0.45916 0.25554 0.81251
 H2249 H 0.41870 0.29085 0.89386
 H2250 H 0.48312 0.27292 0.82150
 H2251 H 0.46087 0.30092 0.90520
 H2252 H 0.44540 0.24908 0.81658
 C2253 C 0.93952 0.32482 0.40923
 C2254 C 0.95889 0.32552 0.40320
 C2255 C 0.96567 0.31589 0.38616
 N2256 N 0.98435 0.31828 0.38029
 N2257 N 0.99066 0.31003 0.36467
 C2258 C 0.97854 0.29902 0.35437
 N2259 N 0.95990 0.29651 0.36031
 N2260 N 0.95356 0.30480 0.37592
 C2261 C 0.98513 0.29039 0.33674
 C2262 C 1.00325 0.29471 0.32885
 H2263 H 0.96946 0.33348 0.41116
 H2264 H 0.97506 0.28129 0.32932
 H2265 H 0.92920 0.31630 0.40150
 H2266 H 1.01300 0.30436 0.33601
 C2267 C 0.42436 0.40684 0.81685
 C2268 C 0.44247 0.39804 0.81492
 C2269 C 0.44515 0.38114 0.80292
 N2270 N 0.46259 0.37204 0.80235
 N2271 N 0.46518 0.35680 0.79150
 C2272 C 0.45048 0.35014 0.78072
 N2273 N 0.43308 0.35933 0.78119
 N2274 N 0.43047 0.37453 0.79209
 C2275 C 0.45306 0.33300 0.76904
 C2276 C 0.46953 0.32150 0.77069
 H2277 H 0.45505 0.40393 0.82186
 H2278 H 0.44141 0.32880 0.75982
 H2279 H 0.41209 0.40087 0.80946
 H2280 H 0.48064 0.32538 0.78062
 C2281 C 0.95007 0.43223 0.30978
 C2282 C 0.96932 0.42599 0.30943
 C2283 C 0.97514 0.40891 0.29885
 N2284 N 0.99368 0.40234 0.29984
 N2285 N 0.99900 0.38670 0.29054
 C2286 C 0.98601 0.37713 0.27983
 N2287 N 0.96753 0.38384 0.27869
 N2288 N 0.96220 0.39944 0.28802
 C2289 C 0.99139 0.35923 0.27040
 C2290 C 1.00894 0.35010 0.27414
 H2291 H 0.98038 0.43395 0.31679
 H2292 H 0.98067 0.35230 0.26172
 H2293 H 0.93928 0.42432 0.30201
 H2294 H 1.01921 0.35673 0.28351
 C2295 C 0.31065 0.91287 0.43831
 C2296 C 0.31226 0.90607 0.45660
 C2297 C 0.30632 0.88648 0.46205
 N2298 N 0.30969 0.87998 0.47963
 N2299 N 0.30432 0.86233 0.48478
 C2300 C 0.29530 0.85054 0.47255
 N2301 N 0.29186 0.85708 0.45500
 N2302 N 0.29728 0.87470 0.44983
 C2303 C 0.28933 0.83096 0.47796
 C2304 C 0.29462 0.82264 0.49495
 H2305 H 0.31786 0.91543 0.46728
 H2306 H 0.28109 0.82267 0.46802
 H2307 H 0.30465 0.90351 0.42782
 H2308 H 0.30353 0.83069 0.50454
 C2309 C 0.31608 0.40134 0.93487
 C2310 C 0.29778 0.39336 0.93811
 C2311 C 0.29541 0.37388 0.94585
 N2312 N 0.27736 0.36616 0.94757
 N2313 N 0.27494 0.34875 0.95501
 C2314 C 0.29045 0.33844 0.96114
 N2315 N 0.30850 0.34621 0.95952
 N2316 N 0.31094 0.36359 0.95200
 C2317 C 0.28785 0.31911 0.96925
 C2318 C 0.27010 0.30959 0.96792
 H2319 H 0.28491 0.40198 0.93574
 H2320 H 0.30020 0.31200 0.97557
 H2321 H 0.32892 0.39280 0.93765
 H2322 H 0.25822 0.31649 0.96062
 C2323 C 0.82535 0.34001 0.32223
 C2324 C 0.82151 0.34474 0.30368
 C2325 C 0.81126 0.36255 0.29840
 N2326 N 0.80850 0.36687 0.28012
 N2327 N 0.79914 0.38282 0.27514
 C2328 C 0.79205 0.39503 0.28825
 N2329 N 0.79471 0.39065 0.30654
 N2330 N 0.80412 0.37472 0.31152
 C2331 C 0.78223 0.41306 0.28288
 C2332 C 0.78196 0.41942 0.26439
 H2333 H 0.82556 0.33479 0.29279
 H2334 H 0.77639 0.42212 0.29378
 H2335 H 0.82063 0.34970 0.33311
 H2336 H 0.78874 0.41070 0.25371
   
