data_POSCAR
  _audit_creation_date              2014-09-24
  _audit_creation_method            'ToBaCCo'
  _symmetry_space_group_name_H-M    'P1'
  _symmetry_Int_Tables_number       1
  _symmetry_cell_setting            triclinic
  loop_
  _symmetry_equiv_pos_as_xyz
 x,y,z
_cell_length_a 48.9991
_cell_length_b 48.9577
_cell_length_c 48.8758
_cell_angle_alpha 90.267600
_cell_angle_beta 89.734000
_cell_angle_gamma 90.255000
loop_
  _atom_site_label
  _atom_site_type_symbol
  _atom_site_fract_x
  _atom_site_fract_y
  _atom_site_fract_z
N1 N 0.15557 0.22158 0.22196
 N2 N 0.16090 0.20026 0.23722
 C3 C 0.14196 0.19849 0.25722
 C4 C 0.12373 0.21984 0.25429
 C5 C 0.13310 0.23406 0.23167
 H6 H 0.14122 0.18258 0.27244
 H7 H 0.12415 0.25198 0.22266
 Cu8 Cu 0.19155 0.17651 0.22876
 Cu9 Cu 0.17753 0.23113 0.19008
 Cu10 Cu 0.23266 0.18938 0.17503
 N11 N 0.22276 0.15346 0.22042
 N12 N 0.23884 0.15871 0.19949
 C13 C 0.25851 0.13964 0.19816
 C14 C 0.25453 0.12134 0.21936
 C15 C 0.23161 0.13081 0.23306
 H16 H 0.27423 0.13892 0.18260
 H17 H 0.22204 0.12185 0.25083
 N18 N 0.22298 0.22142 0.15282
 N19 N 0.20211 0.23739 0.15869
 C20 C 0.20054 0.25710 0.13966
 C21 C 0.22137 0.25338 0.12079
 C22 C 0.23517 0.23054 0.12983
 H23 H 0.18503 0.27269 0.13927
 H24 H 0.25270 0.22112 0.12029
 H25 H 0.19105 0.19204 0.18143
 H26 H 0.21330 0.21367 0.20370
 N27 N 0.65358 0.72175 0.72192
 N28 N 0.65921 0.70074 0.73750
 C29 C 0.63978 0.69839 0.75692
 C30 C 0.62089 0.71901 0.75333
 C31 C 0.63037 0.73346 0.73088
 H32 H 0.63917 0.68253 0.77220
 H33 H 0.62110 0.75109 0.72161
 Cu34 Cu 0.69051 0.67760 0.72997
 Cu35 Cu 0.67665 0.73224 0.69104
 Cu36 Cu 0.73585 0.69470 0.68131
 N37 N 0.72200 0.65484 0.72194
 N38 N 0.73957 0.66151 0.70270
 C39 C 0.75907 0.64229 0.70113
 C40 C 0.75341 0.62237 0.72041
 C41 C 0.72968 0.63107 0.73321
 H42 H 0.77599 0.64280 0.68687
 H43 H 0.71866 0.62080 0.74935
 N44 N 0.72527 0.72510 0.65741
 N45 N 0.70288 0.73953 0.66118
 C46 C 0.70171 0.75900 0.64185
 C47 C 0.72427 0.75652 0.62484
 C48 C 0.73872 0.73476 0.63540
 H49 H 0.68567 0.77395 0.64040
 H50 H 0.75783 0.72669 0.62786
 H51 H 0.69373 0.69420 0.68331
 H52 H 0.71135 0.71735 0.70813
 N53 N 0.34699 0.77819 0.72003
 N54 N 0.34187 0.79920 0.73601
 C55 C 0.35992 0.79939 0.75674
 C56 C 0.37741 0.77741 0.75342
 C57 C 0.36850 0.76447 0.72983
 H58 H 0.35997 0.81410 0.77328
 H59 H 0.37661 0.74608 0.72068
 Cu60 Cu 0.31165 0.82384 0.72866
 Cu61 Cu 0.32470 0.76911 0.68857
 Cu62 Cu 0.26833 0.80948 0.67687
 N63 N 0.27918 0.84562 0.72202
 N64 N 0.26201 0.83943 0.70236
 C65 C 0.24104 0.85705 0.70304
 C66 C 0.24528 0.87562 0.72415
 C67 C 0.26980 0.86760 0.73575
 H68 H 0.22393 0.85618 0.68923
 H69 H 0.27996 0.87675 0.75310
 N70 N 0.27824 0.77833 0.65325
 N71 N 0.29979 0.76300 0.65777
 C72 C 0.30136 0.74365 0.63819
 C73 C 0.27981 0.74695 0.62036
 C74 C 0.26558 0.76919 0.63055
 H75 H 0.31728 0.72851 0.63681
 H76 H 0.24739 0.77810 0.62207
 H77 H 0.31011 0.80809 0.68120
 H78 H 0.28937 0.78614 0.70473
 N79 N 0.84630 0.27573 0.22477
 N80 N 0.84047 0.29653 0.24078
 C81 C 0.85955 0.29854 0.26044
 C82 C 0.87852 0.27789 0.25651
 C83 C 0.86931 0.26383 0.23360
 H84 H 0.85972 0.31409 0.27618
 H85 H 0.87857 0.24633 0.22386
 Cu86 Cu 0.80878 0.31925 0.23404
 Cu87 Cu 0.82389 0.26576 0.19345
 Cu88 Cu 0.76739 0.30615 0.18082
 N89 N 0.77754 0.34223 0.22621
 N90 N 0.76115 0.33674 0.20569
 C91 C 0.74099 0.35533 0.20531
 C92 C 0.74502 0.37364 0.22664
 C93 C 0.76846 0.36461 0.23945
 H94 H 0.72454 0.35535 0.19068
 H95 H 0.77809 0.37347 0.25726
 N96 N 0.77725 0.27434 0.15799
 N97 N 0.79873 0.25897 0.16280
 C98 C 0.80029 0.23938 0.14341
 C99 C 0.77879 0.24257 0.12544
 C100 C 0.76462 0.26496 0.13538
 H101 H 0.81620 0.22422 0.14220
 H102 H 0.74659 0.27395 0.12668
 H103 H 0.80915 0.30462 0.18629
 H104 H 0.78782 0.28188 0.20835
 N105 N 0.84576 0.72150 0.27836
 N106 N 0.83987 0.70052 0.26255
 C107 C 0.85883 0.69864 0.24259
 C108 C 0.87765 0.71957 0.24610
 C109 C 0.86864 0.73364 0.26904
 H110 H 0.85915 0.68295 0.22698
 H111 H 0.87795 0.75140 0.27834
 Cu112 Cu 0.80873 0.67713 0.27073
 Cu113 Cu 0.82333 0.73171 0.30986
 Cu114 Cu 0.76336 0.69469 0.31899
 N115 N 0.77740 0.65393 0.27887
 N116 N 0.75976 0.66105 0.29789
 C117 C 0.74025 0.64175 0.29983
 C118 C 0.74598 0.62122 0.28110
 C119 C 0.76978 0.62969 0.26815
 H120 H 0.72339 0.64256 0.31413
 H121 H 0.78083 0.61896 0.25228
 N122 N 0.77461 0.72478 0.34339
 N123 N 0.79748 0.73874 0.34013
 C124 C 0.79955 0.75731 0.36044
 C125 C 0.77702 0.75475 0.37745
 C126 C 0.76168 0.73389 0.36598
 H127 H 0.81643 0.77135 0.36290
 H128 H 0.74255 0.72581 0.37357
 H129 H 0.80544 0.69384 0.31739
 H130 H 0.78850 0.71717 0.29261
 N131 N 0.34041 0.22214 -0.22557
 N132 N 0.33656 0.19995 -0.24027
 C133 C 0.35687 0.19779 -0.25881
 C134 C 0.37452 0.21984 -0.25552
 C135 C 0.36330 0.23481 -0.23411
 H136 H 0.35868 0.18126 -0.27341
 H137 H 0.37087 0.25367 -0.22544
 Cu138 Cu 0.30541 0.17595 -0.23389
 Cu139 Cu 0.31488 0.23368 -0.19733
 Cu140 Cu 0.26560 0.18648 -0.17832
 N141 N 0.27592 0.15102 -0.22413
 N142 N 0.26048 0.15526 -0.20250
 C143 C 0.24122 0.13563 -0.20118
 C144 C 0.24490 0.11785 -0.22300
 C145 C 0.26718 0.12831 -0.23712
 H146 H 0.22545 0.13475 -0.18571
 H147 H 0.27594 0.12044 -0.25587
 N148 N 0.27373 0.21959 -0.15677
 N149 N 0.29196 0.23793 -0.16446
 C150 C 0.29191 0.25873 -0.14635
 C151 C 0.27271 0.25327 -0.12621
 C152 C 0.26160 0.22823 -0.13354
 H153 H 0.30470 0.27668 -0.14790
 H154 H 0.24555 0.21726 -0.12301
 H155 H 0.30658 0.19369 -0.18736
 H156 H 0.28028 0.21118 -0.20852
 N157 N 0.65224 0.27564 -0.22186
 N158 N 0.65963 0.29520 -0.23868
 C159 C 0.64048 0.29793 -0.25813
 C160 C 0.61988 0.27893 -0.25334
 C161 C 0.62820 0.26516 -0.23008
 H162 H 0.64154 0.31279 -0.27437
 H163 H 0.61763 0.24880 -0.21969
 Cu164 Cu 0.69336 0.31549 -0.23344
 Cu165 Cu 0.67431 0.26518 -0.19061
 Cu166 Cu 0.73515 0.30051 -0.18142
 N167 N 0.72220 0.34038 -0.22202
 N168 N 0.73870 0.33430 -0.20187
 C169 C 0.75735 0.35436 -0.19905
 C170 C 0.75219 0.37425 -0.21841
 C171 C 0.72962 0.36465 -0.23256
 H172 H 0.77346 0.35431 -0.18401
 H173 H 0.71941 0.37437 -0.24943
 N174 N 0.72283 0.27098 -0.15704
 N175 N 0.69963 0.25762 -0.16038
 C176 C 0.69679 0.23932 -0.14007
 C177 C 0.71917 0.24138 -0.12298
 C178 C 0.73524 0.26171 -0.13442
 H179 H 0.67945 0.22583 -0.13763
 H180 H 0.75442 0.26944 -0.12675
 H181 H 0.69354 0.30281 -0.18543
 H182 H 0.71082 0.27662 -0.20715
 N183 N 0.15284 0.77768 0.27691
 N184 N 0.15927 0.79727 0.25974
 C185 C 0.14103 0.79732 0.23919
 C186 C 0.12209 0.77669 0.24377
 C187 C 0.13031 0.76470 0.26798
 H188 H 0.14179 0.81098 0.22192
 H189 H 0.12108 0.74737 0.27808
 Cu190 Cu 0.19107 0.82052 0.26574
 Cu191 Cu 0.17523 0.76884 0.30840
 Cu192 Cu 0.23501 0.80602 0.31620
 N193 N 0.22177 0.84450 0.27425
 N194 N 0.23895 0.83851 0.29385
 C195 C 0.25893 0.85739 0.29456
 C196 C 0.25408 0.87657 0.27436
 C197 C 0.23015 0.86766 0.26193
 H198 H 0.27603 0.85674 0.30840
 H199 H 0.21982 0.87692 0.24487
 N200 N 0.22365 0.77700 0.34157
 N201 N 0.20087 0.76287 0.33867
 C202 C 0.19942 0.74396 0.35855
 C203 C 0.22223 0.74650 0.37501
 C204 C 0.23709 0.76775 0.36359
 H205 H 0.18321 0.72909 0.36052
 H206 H 0.25661 0.77551 0.37036
 H207 H 0.19313 0.80716 0.31350
 H208 H 0.21059 0.78199 0.29058
 N209 N 0.47083 0.40729 0.47349
 N210 N 0.44966 0.41297 0.48907
 C211 C 0.44781 0.39421 0.50909
 C212 C 0.46896 0.37573 0.50584
 C213 C 0.48314 0.38478 0.48301
 H214 H 0.43198 0.39376 0.52454
 H215 H 0.50099 0.37567 0.47381
 Cu216 Cu 0.42606 0.44361 0.48051
 Cu217 Cu 0.48090 0.42923 0.44175
 Cu218 Cu 0.44337 0.48825 0.43161
 N219 N 0.40280 0.47455 0.47203
 N220 N 0.40981 0.49188 0.45277
 C221 C 0.39052 0.51119 0.45070
 C222 C 0.37012 0.50568 0.46963
 C223 C 0.37865 0.48221 0.48280
 H224 H 0.39128 0.52781 0.43625
 H225 H 0.36804 0.47142 0.49890
 N226 N 0.47360 0.47701 0.40744
 N227 N 0.48777 0.45448 0.41113
 C228 C 0.50650 0.45229 0.39098
 C229 C 0.50385 0.47438 0.37363
 C230 C 0.48275 0.48959 0.38473
 H231 H 0.52075 0.43565 0.38893
 H232 H 0.47456 0.50842 0.37683
 H233 H 0.46589 0.46421 0.45849
 H234 H 0.44290 0.44620 0.43386
 N235 N -0.03073 -0.09382 0.97352
 N236 N -0.04867 -0.08569 0.99184
 C237 C -0.05069 -0.10467 1.01163
 C238 C -0.03299 -0.12586 1.00534
 C239 C -0.02072 -0.11816 0.98098
 H240 H -0.06419 -0.10320 1.02913
 H241 H -0.00569 -0.12939 0.96936
 Cu242 Cu -0.06819 -0.05152 0.98752
 Cu243 Cu -0.02104 -0.07221 0.94162
 Cu244 Cu -0.05538 -0.01113 0.93355
 N245 N -0.09387 -0.02361 0.97615
 N246 N -0.08861 -0.00779 0.95513
 C247 C -0.10912 0.01006 0.95208
 C248 C -0.12851 0.00512 0.97220
 C249 C -0.11812 -0.01650 0.98710
 H250 H -0.10983 0.02533 0.93621
 H251 H -0.12727 -0.02620 1.00472
 N252 N -0.02694 -0.02381 0.90803
 N253 N -0.01404 -0.04720 0.91092
 C254 C 0.00389 -0.05017 0.89017
 C255 C 0.00203 -0.02767 0.87326
 C256 C -0.01778 -0.01140 0.88523
 H257 H 0.01714 -0.06753 0.88747
 H258 H -0.02498 0.00809 0.87797
 H259 H -0.03050 -0.03519 0.95828
 H260 H -0.05831 -0.05249 0.93877
 N261 N 1.02831 0.59526 0.96951
 N262 N 1.05052 0.59135 0.98387
 C263 C 1.05218 0.61076 1.00342
 C264 C 1.02986 0.62785 1.00113
 C265 C 1.01516 0.61732 0.97933
 H266 H 1.06857 0.61245 1.01806
 H267 H 0.99634 0.62510 0.97110
 Cu268 Cu 1.07535 0.56143 0.97580
 Cu269 Cu 1.01833 0.57180 0.93889
 Cu270 Cu 1.06056 0.51698 0.92494
 N271 N 1.09763 0.52937 0.96857
 N272 N 1.09164 0.51196 0.94895
 C273 C 1.10964 0.49129 0.94932
 C274 C 1.12805 0.49597 0.97027
 C275 C 1.11972 0.52038 0.98204
 H276 H 1.10899 0.47386 0.93570
 H277 H 1.12870 0.53061 0.99946
 N278 N 1.02812 0.52539 0.90295
 N279 N 1.01167 0.54589 0.90868
 C280 C 0.99095 0.54574 0.89067
 C281 C 0.99463 0.52426 0.87249
 C282 C 1.01844 0.51180 0.88101
 H283 H 0.97436 0.56017 0.89088
 H284 H 1.02784 0.49389 0.87217
 H285 H 1.03747 0.53744 0.95403
 H286 H 1.05734 0.55889 0.92935
 N287 N 0.52528 0.09471 0.47745
 N288 N 0.54829 0.09155 0.49073
 C289 C 0.55102 0.11198 0.50907
 C290 C 0.52852 0.12889 0.50714
 C291 C 0.51263 0.11724 0.48680
 H292 H 0.56820 0.11449 0.52265
 H293 H 0.49323 0.12443 0.47938
 Cu294 Cu 0.57236 0.06101 0.48265
 Cu295 Cu 0.51307 0.06914 0.44944
 Cu296 Cu 0.55807 0.01779 0.43091
 N297 N 0.59513 0.02943 0.47491
 N298 N 0.58934 0.01255 0.45477
 C299 C 0.60785 -0.00767 0.45425
 C300 C 0.62647 -0.00316 0.47507
 C301 C 0.61765 0.02061 0.48777
 H302 H 0.60750 -0.02454 0.43995
 H303 H 0.62666 0.03054 0.50534
 N304 N 0.52510 0.02642 0.40976
 N305 N 0.50779 0.04571 0.41703
 C306 C 0.48780 0.04707 0.39827
 C307 C 0.49270 0.02763 0.37819
 C308 C 0.51653 0.01492 0.38623
 H309 H 0.47127 0.06158 0.39893
 H310 H 0.52714 -0.00123 0.37557
 H311 H 0.53544 0.03496 0.46153
 H312 H 0.55227 0.05942 0.43739
 N313 N -0.02760 0.09597 0.53025
 N314 N -0.04820 0.09069 0.51392
 C315 C -0.04824 0.10906 0.49350
 C316 C -0.02662 0.12700 0.49733
 C317 C -0.01399 0.11798 0.52092
 H318 H -0.06267 0.10907 0.47687
 H319 H 0.00420 0.12628 0.53027
 Cu320 Cu -0.07277 0.06018 0.52086
 Cu321 Cu -0.01862 0.07279 0.56117
 Cu322 Cu -0.05787 0.01426 0.56920
 N323 N -0.09690 0.02944 0.52843
 N324 N -0.09079 0.01142 0.54724
 C325 C -0.10982 -0.00846 0.54732
 C326 C -0.12913 -0.00256 0.52761
 C327 C -0.12021 0.02172 0.51604
 H328 H -0.10920 -0.02619 0.56036
 H329 H -0.12952 0.03257 0.49934
 N330 N -0.02776 0.02415 0.59396
 N331 N -0.01279 0.04640 0.59088
 C332 C 0.00659 0.04695 0.61032
 C333 C 0.00351 0.02413 0.62671
 C334 C -0.01855 0.01018 0.61569
 H335 H 0.02203 0.06263 0.61212
 H336 H -0.02696 -0.00904 0.62257
 H337 H -0.03407 0.03843 0.54313
 H338 H -0.05726 0.05628 0.56778
 N339 N 0.47504 0.59167 0.02813
 N340 N 0.45274 0.58780 0.01378
 C341 C 0.45129 0.60716 -0.00565
 C342 C 0.47379 0.62427 -0.00320
 C343 C 0.48841 0.61370 0.01850
 H344 H 0.43520 0.60849 -0.02059
 H345 H 0.50773 0.62097 0.02632
 Cu346 Cu 0.42797 0.55768 0.02206
 Cu347 Cu 0.48612 0.56677 0.05695
 Cu348 Cu 0.43951 0.51670 0.07564
 N349 N 0.40390 0.52699 0.03023
 N350 N 0.40846 0.51133 0.05147
 C351 C 0.38899 0.49195 0.05285
 C352 C 0.37110 0.49560 0.03135
 C353 C 0.38122 0.51811 0.01742
 H354 H 0.38793 0.47644 0.06848
 H355 H 0.37276 0.52730 -0.00069
 N356 N 0.47246 0.52517 0.09703
 N357 N 0.49060 0.54373 0.08959
 C358 C 0.51136 0.54365 0.10756
 C359 C 0.50605 0.52409 0.12729
 C360 C 0.48117 0.51284 0.11991
 H361 H 0.52921 0.55659 0.10613
 H362 H 0.47037 0.49650 0.13012
 H363 H 0.46374 0.53234 0.04532
 H364 H 0.44660 0.55790 0.06802
 N365 N 0.52728 -0.10160 0.03167
 N366 N 0.54775 -0.09593 0.01519
 C367 C 0.54815 -0.11437 -0.00535
 C368 C 0.52693 -0.13278 -0.00137
 C369 C 0.51414 -0.12394 0.02238
 H370 H 0.56253 -0.11411 -0.02214
 H371 H 0.49615 -0.13259 0.03188
 Cu372 Cu 0.57154 -0.06466 0.02185
 Cu373 Cu 0.51803 -0.07875 0.06294
 Cu374 Cu 0.55797 -0.02125 0.07385
 N375 N 0.59355 -0.03207 0.02824
 N376 N 0.58783 -0.01497 0.04823
 C377 C 0.60575 0.00592 0.04766
 C378 C 0.62391 0.00167 0.02627
 C379 C 0.61544 -0.02267 0.01436
 H380 H 0.60545 0.02297 0.06175
 H381 H 0.62438 -0.03273 -0.00322
 N382 N 0.52691 -0.03120 0.09758
 N383 N 0.51179 -0.05317 0.09344
 C384 C 0.49246 -0.05454 0.11304
 C385 C 0.49555 -0.03241 0.13047
 C386 C 0.51764 -0.01806 0.12002
 H387 H 0.47743 -0.07066 0.11465
 H388 H 0.52637 0.00054 0.12815
 H389 H 0.53409 -0.04307 0.04666
 H390 H 0.55682 -0.06315 0.06959
 N391 N 1.02614 0.40377 0.53010
 N392 N 1.04726 0.40929 0.51439
 C393 C 1.04905 0.39019 0.49458
 C394 C 1.02797 0.37160 0.49804
 C395 C 1.01383 0.38089 0.52087
 H396 H 1.06476 0.38967 0.47901
 H397 H 0.99597 0.37175 0.53012
 Cu398 Cu 1.07049 0.44076 0.52147
 Cu399 Cu 1.01645 0.42656 0.56153
 Cu400 Cu 1.05833 0.48249 0.57473
 N401 N 1.09382 0.47206 0.52896
 N402 N 1.08877 0.48854 0.54964
 C403 C 1.10718 0.50903 0.54954
 C404 C 1.12489 0.50514 0.52769
 C405 C 1.11572 0.48141 0.51511
 H406 H 1.10733 0.52573 0.56405
 H407 H 1.12403 0.47190 0.49694
 N408 N 1.02653 0.47294 0.59767
 N409 N 1.01025 0.45206 0.59233
 C410 C 0.98995 0.45163 0.61100
 C411 C 0.99373 0.47311 0.62918
 C412 C 1.01715 0.48616 0.62000
 H413 H 0.97353 0.43687 0.61120
 H414 H 1.02642 0.50430 0.62860
 H415 H 1.03350 0.46234 0.54702
 H416 H 1.05548 0.44065 0.56906
 C417 C 0.34523 -0.02530 0.25579
 C418 C 0.35930 -0.00064 0.25214
 C419 C 0.34487 0.02325 0.24638
 C420 C 0.31630 0.02265 0.24419
 C421 C 0.30237 -0.00226 0.24773
 C422 C 0.31668 -0.02636 0.25346
 C423 C 0.38928 -0.00019 0.25274
 C424 C 0.40399 -0.00649 0.22893
 C425 C 0.43262 -0.00634 0.22904
 C426 C 0.44635 0.00000 0.25341
 C427 C 0.43185 0.00602 0.27755
 C428 C 0.40317 0.00610 0.27698
 H429 H 0.35663 -0.04378 0.25976
 H430 H 0.35596 0.04225 0.24360
 H431 H 0.39305 -0.01117 0.21025
 H432 H 0.39159 0.01045 0.29541
 H433 H 0.28040 -0.00294 0.24572
 H434 H 0.46839 0.00008 0.25361
 C435 C 0.15250 -0.02918 0.74704
 C436 C 0.13827 -0.00465 0.75027
 C437 C 0.15263 0.01982 0.75407
 C438 C 0.18129 0.02002 0.75446
 C439 C 0.19542 -0.00476 0.75146
 C440 C 0.18114 -0.02948 0.74780
 C441 C 0.10831 -0.00460 0.74952
 C442 C 0.09327 -0.00872 0.77357
 C443 C 0.06462 -0.00880 0.77303
 C444 C 0.05120 -0.00499 0.74799
 C445 C 0.06614 -0.00098 0.72372
 C446 C 0.09477 -0.00057 0.72472
 H447 H 0.14120 -0.04807 0.74424
 H448 H 0.14143 0.03876 0.75627
 H449 H 0.10394 -0.01137 0.79272
 H450 H 0.10658 0.00242 0.70615
 H451 H 0.21752 -0.00481 0.75186
 H452 H 0.02910 -0.00516 0.74741
 C453 C 0.65450 0.47325 0.24729
 C454 C 0.64090 0.49796 0.25166
 C455 C 0.65577 0.52165 0.25783
 C456 C 0.68436 0.52082 0.25968
 C457 C 0.69781 0.49581 0.25559
 C458 C 0.68301 0.47189 0.24950
 C459 C 0.61097 0.49872 0.25074
 C460 C 0.59582 0.49511 0.27480
 C461 C 0.56720 0.49487 0.27414
 C462 C 0.55389 0.49830 0.24900
 C463 C 0.56893 0.50185 0.22470
 C464 C 0.59756 0.50221 0.22579
 H465 H 0.64275 0.45495 0.24291
 H466 H 0.64501 0.54071 0.26092
 H467 H 0.60642 0.49268 0.29403
 H468 H 0.60945 0.50464 0.20719
 H469 H 0.71980 0.49489 0.25738
 H470 H 0.53179 0.49801 0.24832
 C471 C 0.84188 0.47488 0.75912
 C472 C 0.85639 0.49849 0.75180
 C473 C 0.84229 0.52216 0.74444
 C474 C 0.81364 0.52250 0.74463
 C475 C 0.79933 0.49861 0.75169
 C476 C 0.81322 0.47467 0.75883
 C477 C 0.88639 0.49839 0.75169
 C478 C 0.90067 0.49566 0.72698
 C479 C 0.92933 0.49562 0.72660
 C480 C 0.94356 0.49828 0.75140
 C481 C 0.92938 0.50100 0.77635
 C482 C 0.90072 0.50108 0.77626
 H483 H 0.85300 0.45656 0.76435
 H484 H 0.85371 0.54042 0.73920
 H485 H 0.88941 0.49376 0.70802
 H486 H 0.88948 0.50306 0.79533
 H487 H 0.77728 0.49865 0.75162
 H488 H 0.96567 0.49826 0.75129
 C489 C 0.25282 0.34552 -0.02698
 C490 C 0.24932 0.35937 -0.00211
 C491 C 0.24466 0.34463 0.02194
 C492 C 0.24334 0.31597 0.02134
 C493 C 0.24675 0.30225 -0.00376
 C494 C 0.25140 0.31687 -0.02805
 C495 C 0.24911 0.38938 -0.00139
 C496 C 0.22473 0.40334 -0.00613
 C497 C 0.22382 0.43194 -0.00428
 C498 C 0.24785 0.44646 0.00182
 C499 C 0.27253 0.43268 0.00627
 C500 C 0.27292 0.40401 0.00482
 H501 H 0.25598 0.35713 -0.04557
 H502 H 0.24202 0.35557 0.04109
 H503 H 0.20632 0.39181 -0.01057
 H504 H 0.29173 0.39302 0.00825
 H505 H 0.24542 0.28020 -0.00445
 H506 H 0.24728 0.46850 0.00336
 C507 C 0.74104 0.15234 -0.02258
 C508 C 0.74760 0.13790 0.00114
 C509 C 0.75452 0.15207 0.02511
 C510 C 0.75472 0.18078 0.02555
 C511 C 0.74842 0.19503 0.00151
 C512 C 0.74159 0.18100 -0.02265
 C513 C 0.74701 0.10788 0.00071
 C514 C 0.77090 0.09322 -0.00470
 C515 C 0.77025 0.06458 -0.00661
 C516 C 0.74528 0.05079 -0.00296
 C517 C 0.72116 0.06535 0.00248
 C518 C 0.72228 0.09396 0.00438
 H519 H 0.73602 0.14117 -0.04109
 H520 H 0.75915 0.14071 0.04347
 H521 H 0.78995 0.10422 -0.00744
 H522 H 0.70381 0.10552 0.00815
 H523 H 0.74880 0.21710 0.00159
 H524 H 0.74457 0.02874 -0.00460
 C525 C 0.24400 0.65488 0.47319
 C526 C 0.24841 0.64099 0.49772
 C527 C 0.25433 0.65566 0.52162
 C528 C 0.25592 0.68431 0.52116
 C529 C 0.25179 0.69805 0.49634
 C530 C 0.24589 0.68347 0.47225
 C531 C 0.24749 0.61101 0.49805
 C532 C 0.27112 0.59606 0.49225
 C533 C 0.27028 0.56740 0.49122
 C534 C 0.24533 0.55391 0.49591
 C535 C 0.22149 0.56875 0.50172
 C536 C 0.22281 0.59738 0.50299
 H537 H 0.23971 0.64332 0.45472
 H538 H 0.25747 0.64471 0.54056
 H539 H 0.29015 0.60686 0.48866
 H540 H 0.20453 0.60912 0.50709
 H541 H 0.25339 0.72009 0.49571
 H542 H 0.24438 0.53184 0.49476
 C543 C 0.75392 0.84597 0.47646
 C544 C 0.74901 0.86095 0.50043
 C545 C 0.74508 0.84738 0.52527
 C546 C 0.74638 0.81878 0.52645
 C547 C 0.75115 0.80387 0.50227
 C548 C 0.75487 0.81732 0.47716
 C549 C 0.74883 0.89092 0.49975
 C550 C 0.72431 0.90498 0.49633
 C551 C 0.72393 0.93366 0.49663
 C552 C 0.74858 0.94812 0.50002
 C553 C 0.77335 0.93413 0.50328
 C554 C 0.77320 0.90544 0.50323
 H555 H 0.75660 0.85667 0.45729
 H556 H 0.74164 0.85918 0.54379
 H557 H 0.70547 0.89352 0.49398
 H558 H 0.79209 0.89430 0.50573
 H559 H 0.75206 0.78179 0.50300
 H560 H 0.74844 0.97024 0.50023
 C561 C -0.02328 0.25578 0.34644
 C562 C 0.00061 0.24933 0.36060
 C563 C 0.02448 0.24291 0.34609
 C564 C 0.02471 0.24309 0.31737
 C565 C 0.00057 0.24929 0.30339
 C566 C -0.02353 0.25553 0.31771
 C567 C 0.00065 0.24891 0.39066
 C568 C -0.00316 0.22421 0.40447
 C569 C -0.00203 0.22332 0.43314
 C570 C 0.00270 0.24759 0.44786
 C571 C 0.00631 0.27256 0.43422
 C572 C 0.00528 0.27301 0.40549
 H573 H -0.04174 0.26035 0.35782
 H574 H 0.04293 0.23824 0.35724
 H575 H -0.00649 0.20561 0.39282
 H576 H 0.00803 0.29206 0.39460
 H577 H 0.00052 0.24924 0.28129
 H578 H 0.00382 0.24698 0.46995
 C579 C -0.02475 0.74422 0.15334
 C580 C -0.00102 0.74971 0.13825
 C581 C 0.02379 0.75391 0.15177
 C582 C 0.02512 0.75231 0.18042
 C583 C 0.00118 0.74676 0.19537
 C584 C -0.02387 0.74272 0.18201
 C585 C -0.00195 0.74989 0.10820
 C586 C -0.00962 0.77357 0.09424
 C587 C -0.01030 0.77379 0.06551
 C588 C -0.00377 0.74980 0.05105
 C589 C 0.00381 0.72593 0.06482
 C590 C 0.00487 0.72623 0.09351
 H591 H -0.04387 0.74114 0.14268
 H592 H 0.04213 0.75781 0.13991
 H593 H -0.01441 0.79189 0.10579
 H594 H 0.01051 0.70796 0.10453
 H595 H 0.00211 0.74529 0.21743
 H596 H -0.00441 0.74975 0.02897
 C597 C 0.47364 0.24595 0.65578
 C598 C 0.49764 0.25296 0.64176
 C599 C 0.52134 0.25944 0.65642
 C600 C 0.52120 0.25893 0.68516
 C601 C 0.49687 0.25231 0.69898
 C602 C 0.47304 0.24577 0.68448
 C603 C 0.49806 0.25302 0.61168
 C604 C 0.49180 0.27691 0.59736
 C605 C 0.49205 0.27703 0.56861
 C606 C 0.49831 0.25280 0.55445
 C607 C 0.50457 0.22875 0.56860
 C608 C 0.50452 0.22908 0.59732
 H609 H 0.45538 0.24102 0.64431
 H610 H 0.53995 0.26429 0.64538
 H611 H 0.48714 0.29542 0.60866
 H612 H 0.50904 0.21063 0.60857
 H613 H 0.49648 0.25211 0.72110
 H614 H 0.49833 0.25264 0.53235
 C615 C 0.47382 0.75231 0.84636
 C616 C 0.49822 0.74675 0.85997
 C617 C 0.52185 0.74072 0.84497
 C618 C 0.52129 0.74017 0.81624
 C619 C 0.49656 0.74526 0.80278
 C620 C 0.47272 0.75123 0.81770
 C621 C 0.49885 0.74657 0.89000
 C622 C 0.49557 0.72196 0.90412
 C623 C 0.49620 0.72151 0.93283
 C624 C 0.49988 0.74614 0.94727
 C625 C 0.50299 0.77099 0.93324
 C626 C 0.50261 0.77097 0.90452
 H627 H 0.45553 0.75667 0.85814
 H628 H 0.54071 0.73681 0.85574
 H629 H 0.49281 0.70314 0.89267
 H630 H 0.50488 0.78996 0.89341
 H631 H 0.49577 0.74433 0.78067
 H632 H 0.50027 0.74599 0.96943
 C633 C 0.08070 0.24604 0.26404
 C634 C 0.09902 0.22550 0.27090
 C635 C 0.09220 0.21018 0.29457
 C636 C 0.06814 0.21585 0.30992
 C637 C 0.05003 0.23682 0.30192
 C638 C 0.05749 0.25117 0.27849
 C639 C 0.04941 0.27437 0.26072
 C640 C 0.07558 0.26851 0.24426
 H641 H 0.10528 0.19388 0.30140
 H642 H 0.06360 0.20355 0.32773
 H643 H 0.04990 0.29423 0.27181
 H644 H 0.03049 0.27013 0.24898
 H645 H 0.09105 0.28511 0.24580
 H646 H 0.07163 0.26072 0.22325
 C647 C 0.57645 0.74328 0.76199
 C648 C 0.59571 0.72387 0.76949
 C649 C 0.58951 0.70889 0.79354
 C650 C 0.56530 0.71398 0.80880
 C651 C 0.54638 0.73404 0.80038
 C652 C 0.55305 0.74785 0.77639
 C653 C 0.54422 0.77051 0.75831
 C654 C 0.57058 0.76528 0.74191
 H655 H 0.60329 0.69340 0.80087
 H656 H 0.56138 0.70206 0.82701
 H657 H 0.54408 0.79054 0.76912
 H658 H 0.52540 0.76546 0.74671
 H659 H 0.58549 0.78242 0.74320
 H660 H 0.56691 0.75707 0.72100
 C661 C 0.40603 0.78293 0.79579
 C662 C 0.39978 0.76863 0.77168
 C663 C 0.41553 0.74523 0.76564
 C664 C 0.43867 0.73885 0.78125
 C665 C 0.44653 0.75552 0.80344
 C666 C 0.42871 0.77639 0.81137
 C667 C 0.43473 0.80558 0.81786
 C668 C 0.41000 0.81283 0.80075
 H669 H 0.41099 0.73252 0.74810
 H670 H 0.45102 0.72151 0.77526
 H671 H 0.45437 0.81270 0.80883
 H672 H 0.43199 0.81021 0.83998
 H673 H 0.41528 0.82416 0.78176
 H674 H 0.39312 0.82178 0.81308
 C675 C -0.07977 0.25180 0.26521
 C676 C -0.09792 0.27272 0.27195
 C677 C -0.09074 0.28853 0.29538
 C678 C -0.06670 0.28296 0.31049
 C679 C -0.04887 0.26163 0.30257
 C680 C -0.05656 0.24680 0.27948
 C681 C -0.04870 0.22301 0.26214
 C682 C -0.07483 0.22866 0.24585
 H683 H -0.10347 0.30518 0.30230
 H684 H -0.06195 0.29560 0.32808
 H685 H -0.04937 0.20349 0.27364
 H686 H -0.02974 0.22674 0.25014
 H687 H -0.09044 0.21224 0.24785
 H688 H -0.07078 0.23575 0.22464
 C689 C -0.07813 0.74444 0.23722
 C690 C -0.09765 0.72515 0.22942
 C691 C -0.09214 0.71103 0.20459
 C692 C -0.06823 0.71668 0.18901
 C693 C -0.04892 0.73642 0.19790
 C694 C -0.05501 0.74951 0.22253
 C695 C -0.04537 0.77125 0.24161
 C696 C -0.07142 0.76545 0.25834
 H697 H -0.10622 0.69576 0.19697
 H698 H -0.06478 0.70535 0.17025
 H699 H -0.04514 0.79174 0.23191
 H700 H -0.02638 0.76554 0.25248
 H701 H -0.08607 0.78272 0.25836
 H702 H -0.06739 0.75626 0.27867
 C703 C 0.41540 0.24777 0.73595
 C704 C 0.39837 0.22572 0.72946
 C705 C 0.40690 0.20969 0.70663
 C706 C 0.43103 0.21622 0.69173
 C707 C 0.44767 0.23867 0.69939
 C708 C 0.43879 0.25359 0.72199
 C709 C 0.44534 0.27801 0.73898
 C710 C 0.41901 0.27147 0.75493
 H711 H 0.39507 0.19224 0.69992
 H712 H 0.43679 0.20349 0.67449
 H713 H 0.44427 0.29726 0.72708
 H714 H 0.46414 0.27533 0.75129
 H715 H 0.40288 0.28714 0.75235
 H716 H 0.42272 0.26495 0.77635
 C717 C 0.57665 0.25474 0.73845
 C718 C 0.59581 0.27481 0.73157
 C719 C 0.58921 0.29074 0.70824
 C720 C 0.56497 0.28580 0.69309
 C721 C 0.54638 0.26495 0.70081
 C722 C 0.55332 0.25028 0.72408
 C723 C 0.54516 0.22606 0.74055
 C724 C 0.57142 0.23109 0.75694
 H725 H 0.60261 0.30694 0.70138
 H726 H 0.56077 0.29843 0.67549
 H727 H 0.54554 0.20687 0.72833
 H728 H 0.52627 0.22956 0.75271
 H729 H 0.58677 0.21463 0.75424
 H730 H 0.56756 0.23758 0.77843
 C731 C 0.09343 0.78194 0.20151
 C732 C 0.09911 0.76821 0.22593
 C733 C 0.08228 0.74565 0.23257
 C734 C 0.05878 0.73965 0.21714
 C735 C 0.05160 0.75591 0.19458
 C736 C 0.07038 0.77583 0.18619
 C737 C 0.06577 0.80501 0.17903
 C738 C 0.09093 0.81180 0.19586
 H739 H 0.08636 0.73333 0.25037
 H740 H 0.04570 0.72296 0.22354
 H741 H 0.04655 0.81322 0.18797
 H742 H 0.06862 0.80880 0.15680
 H743 H 0.08633 0.82395 0.21459
 H744 H 0.10817 0.81964 0.18324
 C745 C 0.26226 0.07749 0.24480
 C746 C 0.27070 0.09666 0.22549
 C747 C 0.29566 0.09081 0.21188
 C748 C 0.31069 0.06685 0.21795
 C749 C 0.30110 0.04784 0.23761
 C750 C 0.27643 0.05432 0.25026
 C751 C 0.25672 0.04500 0.27156
 C752 C 0.24059 0.07112 0.26533
 H753 H 0.30377 0.10463 0.19666
 H754 H 0.32955 0.06309 0.20697
 H755 H 0.26589 0.04491 0.29232
 H756 H 0.24574 0.02600 0.26559
 H757 H 0.24037 0.08595 0.28262
 H758 H 0.22048 0.06710 0.25563
 C759 C 0.76108 0.57872 0.74614
 C760 C 0.76889 0.59705 0.72579
 C761 C 0.79256 0.58979 0.71061
 C762 C 0.80723 0.56554 0.71651
 C763 C 0.79858 0.54770 0.73764
 C764 C 0.77496 0.55539 0.75158
 C765 C 0.75735 0.54823 0.77543
 C766 C 0.74155 0.57455 0.76924
 H767 H 0.79997 0.60273 0.69430
 H768 H 0.82515 0.56075 0.70441
 H769 H 0.76868 0.54908 0.79506
 H770 H 0.74511 0.52939 0.77194
 H771 H 0.74373 0.59044 0.78541
 H772 H 0.72037 0.57075 0.76205
 C773 C 0.76009 0.41851 0.75676
 C774 C 0.76757 0.39995 0.77688
 C775 C 0.79101 0.40718 0.79233
 C776 C 0.80591 0.43153 0.78674
 C777 C 0.79772 0.44952 0.76570
 C778 C 0.77416 0.44196 0.75167
 C779 C 0.75720 0.44910 0.72755
 C780 C 0.74119 0.42263 0.73335
 H781 H 0.79817 0.39406 0.80848
 H782 H 0.82373 0.43621 0.79894
 H783 H 0.76904 0.44841 0.70811
 H784 H 0.74492 0.46786 0.73092
 H785 H 0.74381 0.40685 0.71713
 H786 H 0.71983 0.42621 0.74018
 C787 C 0.29484 -0.09507 0.28144
 C788 C 0.27059 -0.10090 0.26730
 C789 C 0.26407 -0.08353 0.24520
 C790 C 0.27955 -0.05977 0.23996
 C791 C 0.30204 -0.05276 0.25651
 C792 C 0.31016 -0.07179 0.27604
 C793 C 0.31719 -0.06752 0.30538
 C794 C 0.30034 -0.09290 0.31147
 H795 H 0.24648 -0.08745 0.23250
 H796 H 0.27335 -0.04646 0.22351
 H797 H 0.30827 -0.04848 0.31402
 H798 H 0.33935 -0.07028 0.30921
 H799 H 0.28160 -0.08861 0.32366
 H800 H 0.31290 -0.11012 0.31904
 C801 C 0.20330 -0.09773 0.71902
 C802 C 0.22816 -0.10272 0.73228
 C803 C 0.23491 -0.08515 0.75438
 C804 C 0.21911 -0.06182 0.76025
 C805 C 0.19597 -0.05561 0.74448
 C806 C 0.18758 -0.07498 0.72516
 C807 C 0.17930 -0.07106 0.69616
 C808 C 0.19658 -0.09585 0.68924
 H809 H 0.25304 -0.08841 0.76642
 H810 H 0.22562 -0.04813 0.77644
 H811 H 0.18737 -0.05174 0.68733
 H812 H 0.15709 -0.07462 0.69319
 H813 H 0.21470 -0.09091 0.67637
 H814 H 0.18421 -0.11354 0.68204
 C815 C 0.70364 0.40318 0.22037
 C816 C 0.72762 0.39711 0.23461
 C817 C 0.73424 0.41404 0.25714
 C818 C 0.71922 0.43792 0.26271
 C819 C 0.69709 0.44536 0.24602
 C820 C 0.68871 0.42658 0.22607
 C821 C 0.68214 0.43114 0.19670
 C822 C 0.69856 0.40562 0.19035
 H823 H 0.75173 0.40974 0.26978
 H824 H 0.72555 0.45101 0.27945
 H825 H 0.69154 0.45016 0.18852
 H826 H 0.65998 0.42868 0.19256
 H827 H 0.71753 0.40981 0.17847
 H828 H 0.68579 0.38856 0.18236
 C829 C 0.73903 0.57554 0.25815
 C830 C 0.73038 0.59563 0.27650
 C831 C 0.70558 0.58995 0.29053
 C832 C 0.69063 0.56556 0.28536
 C833 C 0.70007 0.54595 0.26616
 C834 C 0.72487 0.55201 0.25348
 C835 C 0.74377 0.54266 0.23145
 C836 C 0.75989 0.56919 0.23678
 H837 H 0.69740 0.60431 0.30526
 H838 H 0.67176 0.56212 0.29647
 H839 H 0.73376 0.54206 0.21110
 H840 H 0.75514 0.52395 0.23712
 H841 H 0.75921 0.58371 0.21938
 H842 H 0.78043 0.56574 0.24564
 C843 C 0.20229 0.08937 0.78185
 C844 C 0.22766 0.09406 0.76930
 C845 C 0.23565 0.07573 0.74836
 C846 C 0.22021 0.05200 0.74279
 C847 C 0.19625 0.04618 0.75781
 C848 C 0.18693 0.06619 0.77604
 C849 C 0.17743 0.06333 0.80490
 C850 C 0.19436 0.08858 0.81141
 H851 H 0.25447 0.07884 0.73714
 H852 H 0.22751 0.03780 0.72740
 H853 H 0.18515 0.04447 0.81475
 H854 H 0.15510 0.06672 0.80699
 H855 H 0.21193 0.08434 0.82504
 H856 H 0.18170 0.10642 0.81748
 C857 C 0.24590 0.26177 0.07618
 C858 C 0.22690 0.26974 0.09594
 C859 C 0.21287 0.29441 0.09049
 C860 C 0.21821 0.30960 0.06635
 C861 C 0.23759 0.30051 0.04673
 C862 C 0.25070 0.27611 0.05283
 C863 C 0.27201 0.25684 0.04286
 C864 C 0.26651 0.24053 0.06917
 H865 H 0.19784 0.30219 0.10476
 H866 H 0.20688 0.32819 0.06294
 H867 H 0.29259 0.26646 0.04219
 H868 H 0.26582 0.24574 0.02399
 H869 H 0.28402 0.24066 0.08354
 H870 H 0.25700 0.22021 0.06540
 C871 C 0.71785 0.79807 0.59540
 C872 C 0.73195 0.77393 0.60123
 C873 C 0.75420 0.76721 0.58401
 C874 C 0.75964 0.78232 0.56012
 C875 C 0.74315 0.80469 0.55301
 C876 C 0.72351 0.81315 0.57205
 C877 C 0.69427 0.82014 0.56777
 C878 C 0.68794 0.80351 0.59321
 H879 H 0.76662 0.74950 0.58803
 H880 H 0.77608 0.77587 0.54674
 H881 H 0.68585 0.81103 0.54869
 H882 H 0.69043 0.84234 0.57051
 H883 H 0.67586 0.78471 0.58886
 H884 H 0.68023 0.81619 0.61048
 C885 C 0.78462 0.79448 0.40943
 C886 C 0.77081 0.77045 0.40264
 C887 C 0.75040 0.76196 0.42150
 C888 C 0.74507 0.77712 0.44578
 C889 C 0.75970 0.80144 0.45177
 C890 C 0.77910 0.80929 0.43240
 C891 C 0.80082 0.82987 0.42671
 C892 C 0.80700 0.81323 0.40063
 H893 H 0.73877 0.74348 0.41788
 H894 H 0.72940 0.76988 0.45969
 H895 H 0.81747 0.82925 0.44206
 H896 H 0.79243 0.85046 0.42247
 H897 H 0.82733 0.80325 0.40100
 H898 H 0.80202 0.82416 0.38142
 C899 C 0.27826 0.29585 -0.09776
 C900 C 0.26488 0.27097 -0.10276
 C901 C 0.24338 0.26374 -0.08481
 C902 C 0.23814 0.27922 -0.06100
 C903 C 0.25416 0.30238 -0.05462
 C904 C 0.27292 0.31118 -0.07439
 C905 C 0.30209 0.31932 -0.07119
 C906 C 0.30804 0.30249 -0.09671
 H907 H 0.23133 0.24553 -0.08832
 H908 H 0.22223 0.27245 -0.04713
 H909 H 0.31142 0.31087 -0.05235
 H910 H 0.30522 0.34160 -0.07422
 H911 H 0.32083 0.28424 -0.09270
 H912 H 0.31474 0.31516 -0.11434
 C913 C 0.74495 0.23308 -0.07941
 C914 C 0.72429 0.22585 -0.09760
 C915 C 0.70838 0.20275 -0.09012
 C916 C 0.71381 0.18808 -0.06574
 C917 C 0.73511 0.19624 -0.04791
 C918 C 0.74981 0.21932 -0.05581
 C919 C 0.77363 0.23676 -0.04836
 C920 C 0.76808 0.25245 -0.07495
 H921 H 0.69195 0.19570 -0.10309
 H922 H 0.70121 0.17055 -0.06082
 H923 H 0.79310 0.22520 -0.04875
 H924 H 0.76992 0.24915 -0.02961
 H925 H 0.78450 0.25000 -0.09051
 H926 H 0.76100 0.27373 -0.07148
 C927 C 0.21577 0.70502 0.40461
 C928 C 0.23007 0.72911 0.39844
 C929 C 0.25284 0.73561 0.41492
 C930 C 0.25869 0.72027 0.43848
 C931 C 0.24211 0.69790 0.44598
 C932 C 0.22182 0.68973 0.42762
 C933 C 0.19260 0.68295 0.43295
 C934 C 0.18585 0.69979 0.40787
 H935 H 0.26540 0.75328 0.41057
 H936 H 0.27559 0.72652 0.45130
 H937 H 0.18487 0.69199 0.45239
 H938 H 0.18831 0.66079 0.43021
 H939 H 0.17420 0.71865 0.41278
 H940 H 0.17746 0.68728 0.39081
 C941 C 0.25431 0.73842 0.57653
 C942 C 0.27387 0.73061 0.59552
 C943 C 0.28803 0.70610 0.58934
 C944 C 0.28223 0.69088 0.56524
 C945 C 0.26229 0.69981 0.54642
 C946 C 0.24909 0.72407 0.55321
 C947 C 0.22729 0.74307 0.54421
 C948 C 0.23326 0.75941 0.57051
 H949 H 0.30347 0.69845 0.60301
 H950 H 0.29360 0.67236 0.56124
 H951 H 0.20683 0.73318 0.54415
 H952 H 0.23285 0.75427 0.52526
 H953 H 0.21612 0.75901 0.58548
 H954 H 0.24240 0.77986 0.56665
 C955 C 0.75252 0.23359 0.08218
 C956 C 0.77294 0.22632 0.10047
 C957 C 0.78796 0.20255 0.09338
 C958 C 0.78211 0.18753 0.06912
 C959 C 0.76126 0.19594 0.05104
 C960 C 0.74723 0.21945 0.05875
 C961 C 0.72424 0.23755 0.05087
 C962 C 0.73029 0.25364 0.07727
 H963 H 0.80415 0.19539 0.10643
 H964 H 0.79416 0.16962 0.06441
 H965 H 0.70427 0.22670 0.05126
 H966 H 0.72861 0.24942 0.03202
 H967 H 0.71369 0.25214 0.09278
 H968 H 0.73831 0.27458 0.07353
 C969 C 0.49512 0.33274 0.51539
 C970 C 0.47458 0.35113 0.52241
 C971 C 0.45924 0.34448 0.54620
 C972 C 0.46488 0.32051 0.56148
 C973 C 0.48585 0.30231 0.55331
 C974 C 0.50023 0.30962 0.52978
 C975 C 0.52346 0.30141 0.51183
 C976 C 0.51762 0.32747 0.49546
 H977 H 0.44292 0.35763 0.55316
 H978 H 0.45256 0.31610 0.57937
 H979 H 0.51925 0.28238 0.50008
 H980 H 0.54328 0.30199 0.52277
 H981 H 0.50990 0.32335 0.47448
 H982 H 0.53420 0.34298 0.49690
 C983 C -0.00895 0.82953 0.01241
 C984 C -0.02835 0.84860 0.02076
 C985 C -0.04315 0.84189 0.04486
 C986 C -0.03761 0.81750 0.05954
 C987 C -0.01725 0.79902 0.05044
 C988 C -0.00386 0.80613 0.02629
 C989 C 0.01980 0.79859 0.00862
 C990 C 0.01402 0.82500 -0.00719
 H991 H -0.05881 0.85541 0.05261
 H992 H -0.04930 0.81317 0.07787
 H993 H 0.01602 0.77981 -0.00366
 H994 H 0.03940 0.79915 0.01996
 H995 H 0.00679 0.82131 -0.02842
 H996 H 0.03040 0.84062 -0.00500
 C997 C 0.00207 0.66978 0.01146
 C998 C 0.02351 0.65236 0.01784
 C999 C 0.03902 0.65985 0.04118
 C1000 C 0.03266 0.68365 0.05669
 C1001 C 0.01076 0.70086 0.04919
 C1002 C -0.00374 0.69278 0.02605
 C1003 C -0.02757 0.69989 0.00871
 C1004 C -0.02095 0.67396 -0.00788
 H1005 H 0.05601 0.64746 0.04765
 H1006 H 0.04514 0.68871 0.07423
 H1007 H -0.02433 0.71898 -0.00310
 H1008 H -0.04718 0.69860 0.02015
 H1009 H -0.01372 0.67822 -0.02904
 H1010 H -0.03686 0.65781 -0.00605
 C1011 C 0.50203 0.17192 0.51610
 C1012 C 0.52285 0.15400 0.52311
 C1013 C 0.53833 0.16149 0.54647
 C1014 C 0.53245 0.18572 0.56147
 C1015 C 0.51114 0.20338 0.55337
 C1016 C 0.49675 0.19537 0.53015
 C1017 C 0.47332 0.20282 0.51243
 C1018 C 0.47934 0.17637 0.49643
 H1019 H 0.55481 0.14868 0.55341
 H1020 H 0.54477 0.19071 0.57913
 H1021 H 0.47726 0.22160 0.50032
 H1022 H 0.45357 0.20232 0.52370
 H1023 H 0.48690 0.17996 0.47526
 H1024 H 0.46293 0.16076 0.49842
 C1025 C -0.03141 0.15512 0.45466
 C1026 C -0.01801 0.14982 0.47935
 C1027 C 0.00431 0.16688 0.48614
 C1028 C 0.01040 0.19025 0.47050
 C1029 C -0.00553 0.19699 0.44757
 C1030 C -0.02518 0.17799 0.43912
 C1031 C -0.05421 0.18237 0.43136
 C1032 C -0.06117 0.15743 0.44846
 H1033 H 0.01629 0.16316 0.50424
 H1034 H 0.02684 0.20358 0.47701
 H1035 H -0.05758 0.17915 0.40911
 H1036 H -0.06264 0.20170 0.43985
 H1037 H -0.06874 0.13997 0.43597
 H1038 H -0.07364 0.16229 0.46690
 C1039 C 0.46818 0.65269 0.95439
 C1040 C 0.48150 0.64771 0.97919
 C1041 C 0.50315 0.66551 0.98631
 C1042 C 0.50870 0.68909 0.97077
 C1043 C 0.49298 0.69528 0.94755
 C1044 C 0.47398 0.67571 0.93889
 C1045 C 0.44494 0.67926 0.93075
 C1046 C 0.43845 0.65420 0.94784
 H1047 H 0.51493 0.66217 1.00463
 H1048 H 0.52462 0.70294 0.97751
 H1049 H 0.44193 0.67588 0.90846
 H1050 H 0.43587 0.69838 0.93906
 H1051 H 0.43148 0.63649 0.93534
 H1052 H 0.42564 0.65882 0.96611
 C1053 C 0.53100 0.83979 0.95512
 C1054 C 0.51861 0.84417 0.98067
 C1055 C 0.49742 0.82603 0.98833
 C1056 C 0.49152 0.80268 0.97245
 C1057 C 0.50647 0.79702 0.94840
 C1058 C 0.52490 0.81694 0.93934
 C1059 C 0.55367 0.81384 0.92981
 C1060 C 0.56048 0.83875 0.94717
 H1061 H 0.48625 0.82892 1.00723
 H1062 H 0.47598 0.78857 0.97955
 H1063 H 0.55583 0.81755 0.90748
 H1064 H 0.56324 0.79473 0.93727
 H1065 H 0.56678 0.85670 0.93476
 H1066 H 0.57400 0.83408 0.96474
 C1067 C 0.00312 0.32735 0.48895
 C1068 C 0.02239 0.34693 0.48130
 C1069 C 0.03667 0.34148 0.45655
 C1070 C 0.03139 0.31745 0.44104
 C1071 C 0.01183 0.29795 0.44987
 C1072 C -0.00163 0.30411 0.47430
 C1073 C -0.02313 0.29419 0.49351
 C1074 C -0.01768 0.32039 0.51016
 H1075 H 0.05189 0.35564 0.44898
 H1076 H 0.04296 0.31399 0.42243
 H1077 H -0.01711 0.27531 0.50441
 H1078 H -0.04364 0.29361 0.48389
 H1079 H -0.00836 0.31653 0.53046
 H1080 H -0.03514 0.33481 0.51022
 C1081 C 0.32485 0.51306 0.49313
 C1082 C 0.34465 0.52126 0.47428
 C1083 C 0.33883 0.54562 0.45982
 C1084 C 0.31459 0.56060 0.46505
 C1085 C 0.29528 0.55165 0.48478
 C1086 C 0.30146 0.52726 0.49789
 C1087 C 0.29240 0.50894 0.52043
 C1088 C 0.31877 0.49278 0.51501
 H1089 H 0.35295 0.55342 0.44467
 H1090 H 0.31102 0.57909 0.45357
 H1091 H 0.27358 0.49731 0.51526
 H1092 H 0.29215 0.51953 0.54059
 H1093 H 0.31510 0.47195 0.50662
 H1094 H 0.33356 0.49405 0.53215
 C1095 C 0.82569 0.01107 -0.00489
 C1096 C 0.84560 0.01999 -0.02330
 C1097 C 0.83952 0.04447 -0.03742
 C1098 C 0.81496 0.05892 -0.03227
 C1099 C 0.79552 0.04925 -0.01301
 C1100 C 0.80191 0.02469 -0.00031
 C1101 C 0.79269 0.00555 0.02146
 C1102 C 0.81949 -0.00996 0.01622
 H1103 H 0.85378 0.05286 -0.05212
 H1104 H 0.81124 0.07758 -0.04341
 H1105 H 0.77422 -0.00627 0.01551
 H1106 H 0.79175 0.01554 0.04191
 H1107 H 0.81646 -0.03059 0.00712
 H1108 H 0.83381 -0.00893 0.03377
 C1109 C 0.65245 0.04423 0.03127
 C1110 C 0.64692 0.01954 0.01771
 C1111 C 0.66408 0.01255 -0.00454
 C1112 C 0.68774 0.02798 -0.01035
 C1113 C 0.69470 0.05090 0.00581
 C1114 C 0.67561 0.05955 0.02533
 C1115 C 0.67976 0.06748 0.05450
 C1116 C 0.65449 0.05065 0.06114
 H1117 H 0.66016 -0.00555 -0.01668
 H1118 H 0.70107 0.02135 -0.02679
 H1119 H 0.67686 0.08975 0.05788
 H1120 H 0.69883 0.05894 0.06317
 H1121 H 0.63715 0.06330 0.06852
 H1122 H 0.65889 0.03230 0.07368
 C1123 C 0.15382 0.54745 0.53272
 C1124 C 0.14773 0.52306 0.51885
 C1125 C 0.16402 0.51648 0.49584
 C1126 C 0.18747 0.53195 0.48947
 C1127 C 0.19509 0.55450 0.50581
 C1128 C 0.17680 0.56284 0.52622
 C1129 C 0.18211 0.57005 0.55538
 C1130 C 0.15705 0.55313 0.56261
 H1131 H 0.15964 0.49866 0.48346
 H1132 H 0.20019 0.52561 0.47244
 H1133 H 0.17942 0.59224 0.55942
 H1134 H 0.20147 0.56124 0.56309
 H1135 H 0.14005 0.56564 0.57099
 H1136 H 0.16187 0.53446 0.57451
 C1137 C 0.15636 0.45348 -0.03460
 C1138 C 0.15070 0.47808 -0.02096
 C1139 C 0.16721 0.48484 0.00173
 C1140 C 0.19046 0.46927 0.00797
 C1141 C 0.19767 0.44647 -0.00821
 C1142 C 0.17914 0.43804 -0.02827
 C1143 C 0.18416 0.43045 -0.05742
 C1144 C 0.15930 0.44741 -0.06447
 H1145 H 0.16309 0.50281 0.01397
 H1146 H 0.20330 0.47570 0.02479
 H1147 H 0.18114 0.40822 -0.06115
 H1148 H 0.20360 0.43905 -0.06554
 H1149 H 0.14207 0.43489 -0.07241
 H1150 H 0.16429 0.46590 -0.07668
 C1151 C 0.65464 0.95424 0.46994
 C1152 C 0.64989 0.97944 0.48282
 C1153 C 0.66805 0.98726 0.50386
 C1154 C 0.69173 0.97196 0.50913
 C1155 C 0.69771 0.94832 0.49369
 C1156 C 0.67781 0.93903 0.47541
 C1157 C 0.68080 0.93000 0.44639
 C1158 C 0.65554 0.94673 0.44026
 H1159 H 0.66487 1.00587 0.51541
 H1160 H 0.70580 0.97917 0.52461
 H1161 H 0.67750 0.90764 0.44398
 H1162 H 0.69966 0.93810 0.43656
 H1163 H 0.63779 0.93393 0.43411
 H1164 H 0.65975 0.96458 0.42686
 C1165 C 0.84258 0.95464 0.53085
 C1166 C 0.84718 0.98041 0.51930
 C1167 C 0.82886 0.98896 0.49882
 C1168 C 0.80522 0.97358 0.49281
 C1169 C 0.79942 0.94918 0.50698
 C1170 C 0.81943 0.93943 0.52472
 C1171 C 0.81659 0.92919 0.55327
 C1172 C 0.84186 0.94591 0.56012
 H1173 H 0.83197 1.00806 0.48823
 H1174 H 0.79110 0.98126 0.47774
 H1175 H 0.81996 0.90679 0.55454
 H1176 H 0.79777 0.93668 0.56360
 H1177 H 0.85967 0.93304 0.56551
 H1178 H 0.83772 0.96314 0.57443
 C1179 C 0.32765 0.48698 0.00533
 C1180 C 0.34644 0.47918 0.02510
 C1181 C 0.34023 0.45457 0.03912
 C1182 C 0.31631 0.43927 0.03301
 C1183 C 0.29769 0.44820 0.01287
 C1184 C 0.30451 0.47253 -0.00020
 C1185 C 0.29567 0.49161 -0.02204
 C1186 C 0.32175 0.50804 -0.01572
 H1187 H 0.35374 0.44693 0.05471
 H1188 H 0.31229 0.42071 0.04432
 H1189 H 0.27666 0.50272 -0.01660
 H1190 H 0.29585 0.48184 -0.04262
 H1191 H 0.31771 0.52843 -0.00649
 H1192 H 0.33686 0.50780 -0.03275
 C1193 C 0.54364 0.46629 0.34192
 C1194 C 0.51984 0.48037 0.34858
 C1195 C 0.51187 0.50077 0.32971
 C1196 C 0.52723 0.50573 0.30549
 C1197 C 0.55123 0.49072 0.29958
 C1198 C 0.55863 0.47145 0.31901
 C1199 C 0.57847 0.44923 0.32449
 C1200 C 0.56163 0.44343 0.35050
 H1201 H 0.49363 0.51264 0.33326
 H1202 H 0.52036 0.52134 0.29153
 H1203 H 0.59931 0.45713 0.32882
 H1204 H 0.57731 0.43258 0.30899
 H1205 H 0.57270 0.44812 0.36977
 H1206 H 0.55099 0.42334 0.34990
 C1207 C 0.04104 -0.03697 0.84095
 C1208 C 0.01772 -0.02223 0.84792
 C1209 C 0.00999 -0.00170 0.82912
 C1210 C 0.02515 0.00283 0.80469
 C1211 C 0.04873 -0.01274 0.79853
 C1212 C 0.05587 -0.03221 0.81786
 C1213 C 0.07550 -0.05461 0.82336
 C1214 C 0.05885 -0.05995 0.84959
 H1215 H -0.00791 0.01062 0.83292
 H1216 H 0.01851 0.01861 0.79081
 H1217 H 0.09647 -0.04691 0.82742
 H1218 H 0.07400 -0.07137 0.80803
 H1219 H 0.07015 -0.05520 0.86870
 H1220 H 0.04797 -0.07993 0.84929
 C1221 C 0.04575 0.02873 0.65556
 C1222 C 0.02090 0.01560 0.64990
 C1223 C 0.01348 -0.00660 0.66680
 C1224 C 0.02874 -0.01284 0.69031
 C1225 C 0.05196 0.00275 0.69732
 C1226 C 0.06097 0.02227 0.67850
 C1227 C 0.06939 0.05119 0.68320
 C1228 C 0.05262 0.05842 0.65821
 H1229 H -0.00486 -0.01830 0.66286
 H1230 H 0.02174 -0.02913 0.70354
 H1231 H 0.09169 0.05423 0.68010
 H1232 H 0.06105 0.05976 0.70261
 H1233 H 0.06532 0.06583 0.64084
 H1234 H 0.03451 0.07116 0.66316
 C1235 C 0.54873 0.52903 0.15536
 C1236 C 0.52373 0.51594 0.15038
 C1237 C 0.51628 0.49438 0.16807
 C1238 C 0.53159 0.48890 0.19171
 C1239 C 0.55483 0.50469 0.19813
 C1240 C 0.56394 0.52342 0.17855
 C1241 C 0.57243 0.55250 0.18205
 C1242 C 0.55573 0.55875 0.15674
 H1243 H 0.49796 0.48251 0.16457
 H1244 H 0.52459 0.47307 0.20548
 H1245 H 0.59474 0.55535 0.17887
 H1246 H 0.56408 0.56188 0.20107
 H1247 H 0.56848 0.56536 0.13909
 H1248 H 0.53764 0.57175 0.16106
 C1249 C 0.48628 -0.00507 0.17323
 C1250 C 0.47913 -0.02598 0.15515
 C1251 C 0.45523 -0.04092 0.16211
 C1252 C 0.43992 -0.03456 0.18604
 C1253 C 0.44816 -0.01322 0.20390
 C1254 C 0.47185 0.00074 0.19637
 C1255 C 0.49003 0.02390 0.20425
 C1256 C 0.50644 0.01728 0.17816
 H1257 H 0.44813 -0.05745 0.14921
 H1258 H 0.42192 -0.04661 0.19066
 H1259 H 0.50154 0.01991 0.22335
 H1260 H 0.47938 0.04388 0.20347
 H1261 H 0.52723 0.00933 0.18230
 H1262 H 0.50532 0.03356 0.16244
 C1263 C 0.95054 0.46877 0.65699
 C1264 C 0.97602 0.48117 0.65256
 C1265 C 0.98384 0.50209 0.67100
 C1266 C 0.96820 0.50768 0.69464
 C1267 C 0.94421 0.49269 0.70028
 C1268 C 0.93499 0.47458 0.68009
 C1269 C 0.92534 0.44580 0.68278
 C1270 C 0.94245 0.43929 0.65760
 H1271 H 1.00272 0.51325 0.66811
 H1272 H 0.97546 0.52297 0.70896
 H1273 H 0.90303 0.44383 0.67918
 H1274 H 0.93285 0.43586 0.70170
 H1275 H 0.92992 0.43336 0.63961
 H1276 H 0.95993 0.42559 0.66195
 C1277 C 0.95119 0.52823 0.84549
 C1278 C 0.97658 0.51584 0.84961
 C1279 C 0.98404 0.49472 0.83127
 C1280 C 0.96819 0.48897 0.80792
 C1281 C 0.94434 0.50398 0.80250
 C1282 C 0.93543 0.52227 0.82268
 C1283 C 0.92605 0.55103 0.81992
 C1284 C 0.94338 0.55771 0.84477
 H1285 H 1.00280 0.48354 0.83396
 H1286 H 0.97519 0.47355 0.79360
 H1287 H 0.90379 0.55306 0.82385
 H1288 H 0.93353 0.56082 0.80080
 H1289 H 0.93103 0.56380 0.86291
 H1290 H 0.96096 0.57138 0.84005
 C1291 C 0.48431 0.00266 0.33390
 C1292 C 0.47672 0.02246 0.35301
 C1293 C 0.45292 0.03752 0.34654
 C1294 C 0.43813 0.03226 0.32210
 C1295 C 0.44676 0.01193 0.30326
 C1296 C 0.47032 -0.00215 0.31038
 C1297 C 0.48841 -0.02505 0.30179
 C1298 C 0.50432 -0.01954 0.32831
 H1299 H 0.44559 0.05335 0.36017
 H1300 H 0.42021 0.04437 0.31787
 H1301 H 0.50044 -0.02037 0.28305
 H1302 H 0.47753 -0.04502 0.30165
 H1303 H 0.52528 -0.01152 0.32470
 H1304 H 0.50269 -0.03643 0.34337
   
