data_POSCAR
  _audit_creation_date              2014-09-24
  _audit_creation_method            'ToBaCCo'
  _symmetry_space_group_name_H-M    'P1'
  _symmetry_Int_Tables_number       1
  _symmetry_cell_setting            triclinic
  loop_
  _symmetry_equiv_pos_as_xyz
 x,y,z
_cell_length_a 57.1234
_cell_length_b 58.5272
_cell_length_c 60.0207
_cell_angle_alpha 90.961300
_cell_angle_beta 90.115500
_cell_angle_gamma 91.435600
loop_
  _atom_site_label
  _atom_site_type_symbol
  _atom_site_fract_x
  _atom_site_fract_y
  _atom_site_fract_z
C1 C 0.38051 0.00106 0.24058
 C2 C 0.11671 -0.00855 0.75307
 C3 C 0.60884 0.49498 0.25492
 C4 C 0.88544 0.50650 0.75128
 C5 C 0.24396 0.35618 0.99848
 C6 C 0.74818 0.13801 0.99306
 C7 C 0.25927 0.63910 0.50098
 C8 C 0.74462 0.86458 0.50188
 C9 C -0.00261 0.25315 0.37406
 C10 C -0.00021 0.75272 0.12885
 C11 C 0.50550 0.25324 0.62943
 C12 C 0.51046 0.74577 0.88729
 C13 C -0.24975 0.64304 0.99815
 C14 C -0.25064 0.35303 0.49924
 C15 C 0.24057 -0.14243 0.00393
 C16 C 0.25254 1.14556 0.49419
 C17 C 0.10748 0.49650 0.25044
 C18 C -0.12025 0.99861 0.25321
 C19 C 0.39045 0.49734 -0.24577
 C20 C 0.61408 -0.00260 -0.25730
 C21 C 0.00044 0.24808 0.87924
 C22 C 0.49410 0.24598 0.11543
 C23 C 0.00853 0.75660 0.61611
 C24 C 0.49440 0.74463 0.39201
 Zr25 Zr 0.01676 -0.01254 1.03397
 O26 O 0.03900 0.00309 1.05837
 O27 O 0.01389 -0.04605 1.04529
 O28 O 0.00050 -0.01074 1.06571
 O29 O 0.06168 -0.01944 0.99599
 O30 O -0.03608 0.00180 1.05785
 O31 O 0.05127 -0.02514 1.03223
 O32 O -0.00981 -0.06412 1.01955
 O33 O -0.01823 -0.02183 1.02700
 O34 O 0.01673 -0.03096 1.00379
 O35 O -0.00112 0.01838 1.03237
 O36 O 0.03293 0.00935 1.01064
 Zr37 Zr -0.02150 0.01246 0.96990
 Zr38 Zr -0.03560 0.00898 1.02370
 Zr39 Zr 0.03096 -0.00889 0.98032
 Zr40 Zr -0.01805 -0.03904 0.99628
 O41 O 0.05983 0.01199 0.97058
 O42 O -0.05020 -0.05214 1.00898
 O43 O -0.00346 -0.01853 0.97123
 O44 O -0.03729 -0.00927 0.99341
 O45 O -0.02155 0.03112 1.00000
 O46 O 0.01340 0.02163 0.97714
 C47 C 0.00282 -0.06375 1.03733
 C48 C 0.06603 -0.02576 1.01596
 C49 C -0.02037 -0.00501 1.07143
 O50 O -0.06640 -0.01057 1.03025
 O51 O -0.06407 0.02504 1.00889
 O52 O -0.05527 0.02671 0.97191
 C53 C -0.06874 0.03063 0.98874
 O54 O 0.03754 0.04792 1.03346
 Zr55 Zr 0.01333 0.03902 1.00762
 O56 O -0.01954 0.04622 0.95903
 O57 O -0.04335 0.03893 1.04224
 O58 O -0.00175 0.06514 1.02741
 O59 O 0.04391 0.05418 0.99361
 O60 O 0.00195 0.06454 0.98627
 C61 C -0.01035 0.06428 0.96829
 O62 O -0.04474 -0.00293 0.94622
 O63 O 0.04080 -0.03997 0.96487
 O64 O -0.00592 0.00888 0.93789
 O65 O 0.02972 -0.00593 0.94564
 O66 O -0.00272 -0.06653 0.97859
 O67 O -0.03897 -0.04881 0.96821
 C68 C 0.01426 0.00127 0.93203
 H69 H 0.02594 -0.04504 1.00435
 H70 H -0.05368 -0.01321 0.98918
 H71 H 0.02070 0.03117 0.96545
 H72 H -0.00037 0.02681 1.04680
 H73 H -0.05002 -0.06902 1.00737
 H74 H -0.07621 -0.00109 1.04017
 H75 H -0.05900 0.03635 1.04899
 H76 H 0.00632 0.07977 1.02369
 H77 H -0.01157 -0.08070 0.98245
 H78 H 0.05630 -0.03710 0.95792
 H79 H 0.06989 0.00238 0.96102
 H80 H 0.04285 0.07095 0.99577
 H81 H -0.04530 -0.06455 0.97018
 H82 H -0.04867 0.00900 0.93537
 H83 H 0.04309 -0.00891 1.06909
 H84 H 0.04088 0.06461 1.03338
 Zr85 Zr 0.52227 0.47677 0.53677
 O86 O 0.54160 0.48524 0.56601
 O87 O 0.51956 0.44117 0.53859
 O88 O 0.50275 0.47053 0.56640
 O89 O 0.57109 0.48045 0.50256
 O90 O 0.46680 0.48459 0.55849
 O91 O 0.55729 0.46517 0.53490
 O92 O 0.49860 0.43028 0.50763
 O93 O 0.48844 0.46922 0.52456
 O94 O 0.52592 0.46705 0.50327
 O95 O 0.50347 0.50701 0.54114
 O96 O 0.53997 0.50445 0.52141
 Zr97 Zr 0.48973 0.51782 0.47830
 Zr98 Zr 0.47031 0.49978 0.52733
 Zr99 Zr 0.54174 0.49489 0.48763
 Zr100 Zr 0.49236 0.46079 0.49085
 O101 O 0.57069 0.51810 0.48630
 O102 O 0.45938 0.44449 0.49647
 O103 O 0.50867 0.48762 0.47349
 O104 O 0.47245 0.49018 0.49370
 O105 O 0.48590 0.52790 0.51168
 O106 O 0.52348 0.52516 0.49056
 C107 C 0.50968 0.42603 0.52570
 C108 C 0.57364 0.46885 0.52039
 C109 C 0.48127 0.47485 0.57146
 O110 O 0.44025 0.47790 0.52674
 O111 O 0.44187 0.51706 0.51379
 O112 O 0.45541 0.53081 0.48076
 C113 C 0.43938 0.52832 0.49575
 O114 O 0.54053 0.53562 0.55349
 Zr115 Zr 0.51972 0.53385 0.52408
 O116 O 0.49195 0.55348 0.47676
 O117 O 0.45928 0.52456 0.55088
 O118 O 0.50171 0.55387 0.54799
 O119 O 0.55136 0.55218 0.51741
 O120 O 0.51041 0.56450 0.50906
 C121 C 0.49986 0.56872 0.49072
 O122 O 0.46924 0.50968 0.44967
 O123 O 0.55421 0.46908 0.46590
 O124 O 0.50822 0.52222 0.44795
 O125 O 0.54376 0.50681 0.45495
 O126 O 0.51050 0.43892 0.46867
 O127 O 0.47513 0.45877 0.45943
 C128 C 0.52908 0.51651 0.44214
 H129 H 0.53548 0.45332 0.50108
 H130 H 0.45677 0.48719 0.48707
 H131 H 0.53161 0.53754 0.48234
 H132 H 0.50243 0.51148 0.55707
 H133 H 0.46023 0.42861 0.49059
 H134 H 0.42897 0.48435 0.53753
 H135 H 0.44322 0.51994 0.55548
 H136 H 0.50983 0.56901 0.54904
 H137 H 0.50168 0.42412 0.46788
 H138 H 0.57021 0.47394 0.46132
 H139 H 0.58194 0.51159 0.47554
 H140 H 0.54983 0.56782 0.52373
 H141 H 0.46904 0.44298 0.45675
 H142 H 0.46619 0.52425 0.44206
 H143 H 0.54488 0.47068 0.57353
 H144 H 0.54356 0.55183 0.55780
 Zr145 Zr 0.48692 1.02850 0.52072
 O146 O 0.46305 1.01933 0.54618
 O147 O 0.49584 1.06223 0.52975
 O148 O 0.50351 1.02717 0.55251
 O149 O 0.44391 1.04005 0.48204
 O150 O 0.53549 1.00570 0.54562
 O151 O 0.45497 1.04616 0.51827
 O152 O 0.52342 1.07299 0.50430
 O153 O 0.52280 1.03050 0.51355
 O154 O 0.49018 1.04414 0.48972
 O155 O 0.49815 0.99455 0.52066
 O156 O 0.46672 1.00799 0.49821
 Zr157 Zr 0.51867 0.99139 0.45815
 Zr158 Zr 0.53352 0.99662 0.51178
 Zr159 Zr 0.47187 1.02309 0.46710
 Zr160 Zr 0.52568 1.04496 0.48208
 O161 O 0.43949 1.00726 0.45780
 O162 O 0.55996 1.05281 0.49404
 O163 O 0.50724 1.02541 0.45782
 O164 O 0.53849 1.01182 0.48078
 O165 O 0.51538 0.97538 0.48901
 O166 O 0.48289 0.98949 0.46557
 C167 C 0.51054 1.07671 0.52146
 C168 C 0.44052 1.04801 0.50183
 C169 C 0.52231 1.01717 0.55879
 O170 O 0.56733 1.01090 0.51810
 O171 O 0.55829 0.97478 0.49800
 O172 O 0.54954 0.97206 0.46093
 C173 C 0.56205 0.96727 0.47812
 O174 O 0.45482 0.97254 0.52283
 Zr175 Zr 0.47983 0.97480 0.49673
 O176 O 0.51014 0.95760 0.44901
 O177 O 0.53551 0.96696 0.53135
 O178 O 0.48998 0.94788 0.51762
 O179 O 0.44664 0.96473 0.48347
 O180 O 0.48521 0.94580 0.47638
 C181 C 0.49733 0.94236 0.45864
 O182 O 0.54358 1.00052 0.43358
 O183 O 0.46823 1.05436 0.45038
 O184 O 0.50313 0.99404 0.42610
 O185 O 0.47224 1.01711 0.43259
 O186 O 0.51560 1.07348 0.46329
 O187 O 0.54764 1.04835 0.45372
 C188 C 0.48516 1.00517 0.41957
 H189 H 0.48381 1.05971 0.48960
 H190 H 0.55524 1.01237 0.47655
 H191 H 0.47368 0.98050 0.45436
 H192 H 0.49593 0.98763 0.53547
 H193 H 0.56318 1.06928 0.49151
 H194 H 0.57519 1.00048 0.52841
 H195 H 0.55136 0.96707 0.53812
 H196 H 0.47926 0.93463 0.51451
 H197 H 0.52702 1.08613 0.46653
 H198 H 0.45249 1.05387 0.44339
 H199 H 0.43157 1.01783 0.44767
 H200 H 0.44430 0.94820 0.48633
 H201 H 0.55647 1.06311 0.45469
 H202 H 0.54511 0.98709 0.42342
 H203 H 0.46149 1.03293 0.55612
 H204 H 0.44858 0.95664 0.52366
 Zr205 Zr -0.02086 0.51857 1.03025
 O206 O -0.04805 0.50770 1.05183
 O207 O -0.01264 0.55116 1.04316
 O208 O -0.00823 0.51425 1.06324
 O209 O -0.05573 0.53844 0.98784
 O210 O 0.02207 0.48992 1.05852
 O211 O -0.05188 0.53744 1.02567
 O212 O 0.01985 0.56211 1.02355
 O213 O 0.01579 0.51893 1.02792
 O214 O -0.01204 0.53712 1.00182
 O215 O -0.01142 0.48405 1.02826
 O216 O -0.03850 0.50169 1.00349
 Zr217 Zr 0.01799 0.48589 0.96902
 Zr218 Zr 0.02497 0.48468 1.02409
 Zr219 Zr -0.02781 0.51965 0.97515
 Zr220 Zr 0.02418 0.53646 0.99895
 O221 O -0.05983 0.50722 0.96122
 O222 O 0.05655 0.54084 1.01605
 O223 O 0.00863 0.52058 0.97070
 O224 O 0.03524 0.50277 0.99583
 O225 O 0.00932 0.46689 0.99728
 O226 O -0.01856 0.48562 0.97182
 C227 C 0.00420 0.56526 1.03861
 C228 C -0.06240 0.54360 1.00771
 C229 C 0.00843 0.50193 1.07072
 O230 O 0.05798 0.49629 1.03640
 O231 O 0.05090 0.46325 1.01142
 O232 O 0.04768 0.46510 0.97360
 C233 C 0.05751 0.45798 0.99155
 O234 O -0.05548 0.46446 1.02303
 Zr235 Zr -0.02701 0.46793 1.00048
 O236 O 0.00910 0.45365 0.95563
 O237 O 0.02248 0.45281 1.04019
 O238 O -0.02114 0.43826 1.01931
 O239 O -0.05865 0.46134 0.98268
 O240 O -0.02084 0.44102 0.97770
 C241 C -0.00637 0.43861 0.96147
 O242 O 0.04624 0.49632 0.94849
 O243 O -0.02632 0.55233 0.96056
 O244 O 0.00672 0.49176 0.93586
 O245 O -0.02324 0.51637 0.94068
 O246 O 0.01874 0.56747 0.98213
 O247 O 0.05045 0.54157 0.97437
 C248 C -0.00972 0.50435 0.92834
 H249 H -0.01743 0.55306 1.00235
 H250 H 0.05245 0.50284 0.99385
 H251 H -0.02671 0.47833 0.95888
 H252 H -0.01615 0.47584 1.04189
 H253 H 0.06092 0.55733 1.01586
 H254 H 0.06365 0.48433 1.04643
 H255 H 0.03706 0.45127 1.04897
 H256 H -0.03190 0.42600 1.01353
 H257 H 0.03003 0.57906 0.98833
 H258 H -0.04088 0.55377 0.95175
 H259 H -0.06541 0.51913 0.95108
 H260 H -0.06239 0.44476 0.98369
 H261 H 0.05985 0.55556 0.97814
 H262 H 0.04862 0.48384 0.93739
 H263 H -0.05055 0.52037 1.06268
 H264 H -0.06232 0.44878 1.02177
 Zr265 Zr -0.01336 0.47724 0.47375
 O266 O -0.03490 0.48500 0.44627
 O267 O -0.00840 0.44225 0.46876
 O268 O 0.00434 0.47404 0.44284
 O269 O -0.05842 0.47099 0.51195
 O270 O 0.03895 0.49349 0.44902
 O271 O -0.04758 0.46231 0.47631
 O272 O 0.01714 0.43290 0.49624
 O273 O 0.02200 0.47415 0.48249
 O274 O -0.01267 0.46483 0.50621
 O275 O 0.00184 0.51019 0.47090
 O276 O -0.03204 0.50089 0.49328
 Zr277 Zr 0.02053 0.51932 0.53342
 Zr278 Zr 0.03665 0.50724 0.48136
 Zr279 Zr -0.02939 0.48890 0.52589
 Zr280 Zr 0.02239 0.46308 0.51530
 O281 O -0.05987 0.50763 0.53258
 O282 O 0.05585 0.45218 0.50495
 O283 O 0.00546 0.48616 0.53648
 O284 O 0.03876 0.49542 0.51396
 O285 O 0.02000 0.53185 0.50097
 O286 O -0.01483 0.52186 0.52466
 C287 C 0.00418 0.42797 0.47920
 C288 C -0.06232 0.46173 0.49264
 C289 C 0.02482 0.48135 0.43674
 O290 O 0.06890 0.49053 0.47765
 O291 O 0.06448 0.52774 0.49412
 O292 O 0.05300 0.53746 0.52935
 C293 C 0.06764 0.53817 0.51295
 O294 O -0.03834 0.53384 0.46415
 Zr295 Zr -0.01527 0.53318 0.49196
 O296 O 0.01475 0.55415 0.53896
 O297 O 0.04240 0.53455 0.45922
 O298 O -0.00125 0.55757 0.46957
 O299 O -0.04820 0.54555 0.50223
 O300 O -0.00900 0.56370 0.51012
 C301 C 0.00294 0.56850 0.52783
 O302 O 0.04440 0.51256 0.55938
 O303 O -0.03747 0.45987 0.54531
 O304 O 0.00462 0.51916 0.56545
 O305 O -0.02821 0.49666 0.55998
 O306 O 0.00875 0.43782 0.53700
 O307 O 0.04332 0.46144 0.54453
 C308 C -0.01379 0.50821 0.57246
 H309 H -0.02078 0.44979 0.50770
 H310 H 0.05521 0.49442 0.51900
 H311 H -0.02341 0.53217 0.53483
 H312 H 0.00099 0.51552 0.45536
 H313 H 0.05717 0.43595 0.50910
 H314 H 0.07814 0.49904 0.46640
 H315 H 0.05823 0.53264 0.45284
 H316 H -0.01085 0.57141 0.47081
 H317 H 0.01855 0.42416 0.53535
 H318 H -0.05318 0.46212 0.55187
 H319 H -0.06909 0.49875 0.54356
 H320 H -0.04910 0.56161 0.49738
 H321 H 0.05079 0.44637 0.54503
 H322 H 0.04676 0.52699 0.56812
 H323 H -0.03789 0.47053 0.43775
 H324 H -0.04289 0.54977 0.46148
 Zr325 Zr 0.47024 -0.01501 -0.04291
 O326 O 0.44914 -0.00381 -0.06942
 O327 O 0.47149 -0.05009 -0.04956
 O328 O 0.48733 -0.01854 -0.07426
 O329 O 0.42515 -0.01761 -0.00456
 O330 O 0.52386 -0.00331 -0.06750
 O331 O 0.43510 -0.02769 -0.04010
 O332 O 0.49434 -0.06331 -0.02160
 O333 O 0.50488 -0.02241 -0.03441
 O334 O 0.46944 -0.02825 -0.01072
 O335 O 0.48919 0.01620 -0.04479
 O336 O 0.45445 0.01010 -0.02260
 Zr337 Zr 0.50853 0.02109 0.01795
 Zr338 Zr 0.52328 0.00897 -0.03455
 Zr339 Zr 0.45566 -0.00296 0.00970
 Zr340 Zr 0.50382 -0.03444 -0.00190
 O341 O 0.42743 0.01884 0.01638
 O342 O 0.53545 -0.04894 -0.01304
 O343 O 0.48968 -0.01026 0.02016
 O344 O 0.52391 -0.00407 -0.00233
 O345 O 0.50958 0.03457 -0.01413
 O346 O 0.47398 0.02824 0.00936
 C347 C 0.48159 -0.06615 -0.03918
 C348 C 0.42053 -0.02707 -0.02362
 C349 C 0.50842 -0.01303 -0.08033
 O350 O 0.55318 -0.01126 -0.03882
 O351 O 0.55289 0.02647 -0.02128
 O352 O 0.54266 0.03574 0.01441
 C353 C 0.55711 0.03592 -0.00213
 O354 O 0.45131 0.04420 -0.05004
 Zr355 Zr 0.47495 0.04039 -0.02304
 O356 O 0.50756 0.05630 0.02418
 O357 O 0.53240 0.03625 -0.05580
 O358 O 0.49083 0.06338 -0.04576
 O359 O 0.44466 0.05698 -0.01130
 O360 O 0.48679 0.06961 -0.00517
 C361 C 0.49909 0.07248 0.01266
 O362 O 0.53113 0.01057 0.04361
 O363 O 0.44438 -0.03130 0.02876
 O364 O 0.49256 0.02227 0.04998
 O365 O 0.45710 0.00450 0.04391
 O366 O 0.48751 -0.05869 0.01929
 O367 O 0.52457 -0.03941 0.02698
 C368 C 0.47267 0.01397 0.05677
 H369 H 0.45979 -0.04245 -0.00951
 H370 H 0.54009 -0.00702 0.00259
 H371 H 0.46687 0.03937 0.01977
 H372 H 0.48894 0.02216 -0.06012
 H373 H 0.53463 -0.06543 -0.00956
 H374 H 0.56347 -0.00333 -0.04967
 H375 H 0.54792 0.03281 -0.06223
 H376 H 0.48295 0.07821 -0.04412
 H377 H 0.49563 -0.07334 0.01720
 H378 H 0.42894 -0.02756 0.03519
 H379 H 0.41709 0.01078 0.02708
 H380 H 0.44610 0.07321 -0.01566
 H381 H 0.53035 -0.05522 0.02682
 H382 H 0.53529 0.02435 0.05278
 H383 H 0.44468 -0.01754 -0.07855
 H384 H 0.44814 0.06060 -0.05195
 Zr385 Zr 0.51671 0.51884 -0.02438
 O386 O 0.53692 0.51031 -0.05272
 O387 O 0.51555 0.55442 -0.02653
 O388 O 0.49901 0.52496 -0.05477
 O389 O 0.56369 0.51647 0.01201
 O390 O 0.46270 0.50903 -0.04926
 O391 O 0.55198 0.53064 -0.02129
 O392 O 0.49234 0.56497 0.00261
 O393 O 0.48252 0.52575 -0.01405
 O394 O 0.51895 0.52909 0.00912
 O395 O 0.49739 0.48812 -0.02950
 O396 O 0.53279 0.49174 -0.00789
 Zr397 Zr 0.47999 0.47754 0.03267
 Zr398 Zr 0.46378 0.49473 -0.01754
 Zr399 Zr 0.53309 0.50178 0.02580
 Zr400 Zr 0.48491 0.53460 0.01974
 O401 O 0.56124 0.47925 0.02922
 O402 O 0.45255 0.54998 0.01271
 O403 O 0.49950 0.50829 0.03817
 O404 O 0.46441 0.50468 0.01609
 O405 O 0.47762 0.46706 -0.00079
 O406 O 0.51418 0.47103 0.02221
 C407 C 0.50480 0.56933 -0.01468
 C408 C 0.56753 0.52749 -0.00607
 C409 C 0.47802 0.51946 -0.06132
 O410 O 0.43459 0.51622 -0.01902
 O411 O 0.43404 0.47735 -0.00531
 O412 O 0.44532 0.46393 0.02844
 C413 C 0.43018 0.46621 0.01264
 O414 O 0.53399 0.46004 -0.03974
 Zr415 Zr 0.51189 0.46183 -0.01134
 O416 O 0.48115 0.44194 0.03485
 O417 O 0.45305 0.46930 -0.04114
 O418 O 0.49432 0.44105 -0.03571
 O419 O 0.54281 0.44448 -0.00309
 O420 O 0.50132 0.43120 0.00382
 C421 C 0.48986 0.42681 0.02171
 O422 O 0.45843 0.48570 0.06019
 O423 O 0.54528 0.52824 0.04769
 O424 O 0.49699 0.47334 0.06383
 O425 O 0.53279 0.49057 0.05874
 O426 O 0.50275 0.55723 0.04235
 O427 O 0.46631 0.53658 0.05032
 C428 C 0.51750 0.48009 0.07081
 H429 H 0.52883 0.54305 0.01156
 H430 H 0.44848 0.50742 0.02187
 H431 H 0.52160 0.45896 0.03095
 H432 H 0.49711 0.48347 -0.04544
 H433 H 0.45356 0.56595 0.01846
 H434 H 0.42372 0.50943 -0.03035
 H435 H 0.43748 0.47363 -0.04677
 H436 H 0.50195 0.42603 -0.03610
 H437 H 0.49443 0.57189 0.04240
 H438 H 0.56087 0.52378 0.05315
 H439 H 0.57206 0.48626 0.04047
 H440 H 0.54118 0.42870 -0.00925
 H441 H 0.46097 0.55238 0.05280
 H442 H 0.45446 0.47115 0.06773
 H443 H 0.54118 0.52481 -0.06024
 H444 H 0.53652 0.44383 -0.04382
 Zr445 Zr 0.01609 1.02228 0.47230
 O446 O 0.03707 1.00826 0.44671
 O447 O 0.01518 1.05658 0.46343
 O448 O -0.00080 1.02303 0.44075
 O449 O 0.06148 1.02848 0.51049
 O450 O -0.03735 1.00852 0.44797
 O451 O 0.05118 1.03483 0.47443
 O452 O -0.00849 1.07249 0.48971
 O453 O -0.01840 1.03085 0.48013
 O454 O 0.01720 1.03872 0.50353
 O455 O -0.00311 0.99115 0.47209
 O456 O 0.03168 0.99903 0.49404
 Zr457 Zr -0.02221 0.99271 0.53486
 Zr458 Zr -0.03704 0.99973 0.48168
 Zr459 Zr 0.03089 1.01532 0.52543
 Zr460 Zr -0.01710 1.04601 0.51183
 O461 O 0.05939 0.99429 0.53282
 O462 O -0.04905 1.05953 0.50061
 O463 O -0.00300 1.02400 0.53542
 O464 O -0.03749 1.01587 0.51305
 O465 O -0.02360 0.97608 0.50370
 O466 O 0.01218 0.98439 0.52670
 C467 C 0.00443 1.07351 0.47218
 C468 C 0.06595 1.03569 0.49078
 C469 C -0.02178 1.01684 0.43472
 O470 O -0.06668 1.01987 0.47612
 O471 O -0.06653 0.98357 0.49584
 O472 O -0.05619 0.97745 0.53197
 C473 C -0.07059 0.97567 0.51536
 O474 O 0.03430 0.96209 0.46872
 Zr475 Zr 0.01083 0.96896 0.49529
 O476 O -0.02131 0.95847 0.54382
 O477 O -0.04673 0.97066 0.46200
 O478 O -0.00571 0.94410 0.47405
 O479 O 0.04089 0.95297 0.50790
 O480 O -0.00141 0.94188 0.51516
 C481 C -0.01314 0.94106 0.53344
 O482 O -0.04455 1.00642 0.55950
 O483 O 0.04180 1.04521 0.54332
 O484 O -0.00591 0.99357 0.56676
 O485 O 0.03016 1.00942 0.55977
 O486 O -0.00029 1.07267 0.53070
 O487 O -0.03700 1.05381 0.54074
 C488 C 0.01472 1.00078 0.57296
 H489 H 0.02690 1.05297 0.50380
 H490 H -0.05364 1.01937 0.51774
 H491 H 0.01932 0.97411 0.53759
 H492 H -0.00292 0.98371 0.45716
 H493 H -0.04811 1.07630 0.50314
 H494 H -0.07709 1.01101 0.46575
 H495 H -0.06222 0.97370 0.45536
 H496 H 0.00175 0.92929 0.47677
 H497 H -0.00859 1.08696 0.52766
 H498 H 0.05729 1.04209 0.54992
 H499 H 0.06986 1.00322 0.54308
 H500 H 0.03903 0.93637 0.50460
 H501 H -0.04259 1.06965 0.53989
 H502 H -0.04895 0.99372 0.56954
 H503 H 0.04167 1.02097 0.43676
 H504 H 0.03679 0.94543 0.46755
 Zr505 Zr 0.73240 0.27071 0.21336
 O506 O 0.74508 0.29369 0.18906
 O507 O 0.69684 0.26815 0.20551
 O508 O 0.72972 0.25617 0.18072
 O509 O 0.72634 0.31125 0.25549
 O510 O 0.74545 0.22102 0.18470
 O511 O 0.71935 0.30399 0.21858
 O512 O 0.68246 0.24157 0.22964
 O513 O 0.72503 0.23590 0.21838
 O514 O 0.71700 0.26801 0.24485
 O515 O 0.76476 0.25458 0.21078
 O516 O 0.75669 0.28607 0.23595
 Zr517 Zr 0.76682 0.23081 0.27169
 Zr518 Zr 0.75747 0.22018 0.21763
 Zr519 Zr 0.74155 0.28142 0.26742
 Zr520 Zr 0.71091 0.23342 0.25025
 O521 O 0.76279 0.30999 0.27722
 O522 O 0.69750 0.20227 0.23622
 O523 O 0.73425 0.24695 0.27446
 O524 O 0.74243 0.21594 0.24909
 O525 O 0.78232 0.23341 0.24021
 O526 O 0.77385 0.26562 0.26648
 C527 C 0.68021 0.25565 0.21355
 C528 C 0.71841 0.31682 0.23628
 C529 C 0.73543 0.23628 0.17313
 O530 O 0.73826 0.18952 0.21052
 O531 O 0.77652 0.19230 0.22846
 O532 O 0.78186 0.19828 0.26577
 C533 C 0.78437 0.18643 0.24756
 O534 O 0.79297 0.29373 0.21031
 Zr535 Zr 0.78810 0.26817 0.23473
 O536 O 0.80260 0.23304 0.27892
 O537 O 0.78607 0.21534 0.19584
 O538 O 0.81300 0.25597 0.21151
 O539 O 0.80405 0.29771 0.24977
 O540 O 0.81728 0.25711 0.25260
 C541 C 0.81955 0.24356 0.26907
 O542 O 0.75475 0.20661 0.29512
 O543 O 0.71139 0.28854 0.28653
 O544 O 0.76720 0.24447 0.30489
 O545 O 0.74809 0.27801 0.30151
 O546 O 0.68429 0.24618 0.27130
 O547 O 0.70469 0.21095 0.27718
 C548 C 0.75819 0.26284 0.31312
 H549 H 0.70221 0.27635 0.24628
 H550 H 0.73949 0.19959 0.25233
 H551 H 0.78467 0.27246 0.27780
 H552 H 0.77148 0.25645 0.19571
 H553 H 0.68043 0.20160 0.23912
 H554 H 0.74708 0.18111 0.19894
 H555 H 0.78325 0.20046 0.18803
 H556 H 0.82800 0.26437 0.21446
 H557 H 0.66964 0.23743 0.26774
 H558 H 0.71447 0.30331 0.29445
 H559 H 0.75376 0.31865 0.28846
 H560 H 0.82089 0.29773 0.24581
 H561 H 0.68855 0.20445 0.27608
 H562 H 0.76843 0.20257 0.30433
 H563 H 0.73146 0.29797 0.17987
 H564 H 0.80985 0.29775 0.20906
 Zr565 Zr 0.77226 0.73671 0.71806
 O566 O 0.75845 0.71583 0.69180
 O567 O 0.80766 0.73858 0.70999
 O568 O 0.77521 0.75298 0.68684
 O569 O 0.77513 0.69312 0.75602
 O570 O 0.76205 0.78881 0.69417
 O571 O 0.78352 0.70241 0.72014
 O572 O 0.82381 0.76221 0.73676
 O573 O 0.78192 0.77058 0.72658
 O574 O 0.78769 0.73618 0.74968
 O575 O 0.74122 0.75526 0.71697
 O576 O 0.74682 0.72148 0.73885
 Zr577 Zr 0.74009 0.77457 0.77993
 Zr578 Zr 0.75080 0.78857 0.72733
 Zr579 Zr 0.76203 0.72293 0.77069
 Zr580 Zr 0.79599 0.76984 0.75861
 O581 O 0.73919 0.69482 0.77726
 O582 O 0.81147 0.80133 0.74859
 O583 O 0.77151 0.75624 0.78127
 O584 O 0.76575 0.78938 0.75917
 O585 O 0.72473 0.77542 0.74826
 O586 O 0.73096 0.74075 0.77107
 C587 C 0.82498 0.74980 0.71886
 C588 C 0.78314 0.68833 0.73653
 C589 C 0.77051 0.77352 0.68107
 O590 O 0.77292 0.81764 0.72267
 O591 O 0.73538 0.81770 0.74122
 O592 O 0.72637 0.80789 0.77691
 C593 C 0.72662 0.82196 0.76051
 O594 O 0.71031 0.71879 0.71175
 Zr595 Zr 0.71682 0.74153 0.73917
 O596 O 0.70435 0.77281 0.78753
 O597 O 0.72236 0.79748 0.70685
 O598 O 0.69292 0.75763 0.71778
 O599 O 0.69908 0.71160 0.75036
 O600 O 0.68841 0.75203 0.75858
 C601 C 0.68689 0.76352 0.77692
 O602 O 0.75322 0.79677 0.80547
 O603 O 0.79141 0.71306 0.78945
 O604 O 0.73905 0.75887 0.81170
 O605 O 0.75436 0.72384 0.80474
 O606 O 0.82171 0.75353 0.77781
 O607 O 0.80350 0.78927 0.78811
 C608 C 0.74550 0.73889 0.81785
 H609 H 0.80193 0.72691 0.75015
 H610 H 0.76980 0.80520 0.76417
 H611 H 0.71970 0.73358 0.78152
 H612 H 0.73436 0.75494 0.70181
 H613 H 0.82850 0.80067 0.75161
 H614 H 0.76489 0.82760 0.71203
 H615 H 0.72650 0.81250 0.70036
 H616 H 0.67737 0.75005 0.71976
 H617 H 0.83689 0.76159 0.77513
 H618 H 0.78743 0.69792 0.79580
 H619 H 0.74752 0.68484 0.78766
 H620 H 0.68234 0.71282 0.74630
 H621 H 0.82009 0.79459 0.78796
 H622 H 0.73974 0.80078 0.81504
 H623 H 0.77179 0.71150 0.68219
 H624 H 0.69321 0.71632 0.70982
 Zr625 Zr 0.23702 0.22351 0.77830
 O626 O 0.25284 0.20061 0.80036
 O627 O 0.20259 0.22303 0.78974
 O628 O 0.23770 0.23679 0.81153
 O629 O 0.22953 0.18348 0.73543
 O630 O 0.25467 0.27233 0.80794
 O631 O 0.22447 0.18936 0.77281
 O632 O 0.18558 0.25056 0.76914
 O633 O 0.22855 0.25802 0.77554
 O634 O 0.21808 0.22613 0.74862
 O635 O 0.26914 0.24190 0.77841
 O636 O 0.25895 0.21083 0.75291
 Zr637 Zr 0.26386 0.26779 0.71894
 Zr638 Zr 0.26054 0.27614 0.77378
 Zr639 Zr 0.24030 0.21547 0.72322
 Zr640 Zr 0.21078 0.26054 0.74535
 O641 O 0.26090 0.18943 0.70903
 O642 O 0.19833 0.29068 0.76087
 O643 O 0.23147 0.24962 0.71845
 O644 O 0.24186 0.28026 0.74418
 O645 O 0.28290 0.26530 0.74856
 O646 O 0.27223 0.23340 0.72190
 C647 C 0.18536 0.23555 0.78459
 C648 C 0.22369 0.17667 0.75496
 C649 C 0.24588 0.25601 0.81957
 O650 O 0.24070 0.30413 0.78492
 O651 O 0.27643 0.30650 0.76190
 O652 O 0.27972 0.30041 0.72440
 C653 C 0.28302 0.31256 0.74231
 O654 O 0.29778 0.20434 0.77445
 Zr655 Zr 0.28993 0.23079 0.75200
 O656 O 0.29857 0.26869 0.70795
 O657 O 0.29197 0.28308 0.79166
 O658 O 0.31705 0.24318 0.77353
 O659 O 0.30509 0.20343 0.73397
 O660 O 0.31657 0.24555 0.73248
 C661 C 0.31682 0.25971 0.71631
 O662 O 0.24821 0.29195 0.69812
 O663 O 0.20796 0.20627 0.70783
 O664 O 0.26173 0.25549 0.68564
 O665 O 0.24222 0.22116 0.68879
 O666 O 0.18184 0.24621 0.72734
 O667 O 0.20098 0.28291 0.71960
 C668 C 0.25184 0.23720 0.67731
 H669 H 0.20347 0.21667 0.74847
 H670 H 0.23822 0.29649 0.74177
 H671 H 0.28196 0.22787 0.70939
 H672 H 0.27770 0.23983 0.79256
 H673 H 0.18101 0.29016 0.75971
 H674 H 0.25076 0.31309 0.79551
 H675 H 0.28968 0.29737 0.80040
 H676 H 0.33176 0.23600 0.76867
 H677 H 0.16762 0.25388 0.73278
 H678 H 0.21059 0.19223 0.69882
 H679 H 0.25064 0.18056 0.69853
 H680 H 0.32226 0.20477 0.73623
 H681 H 0.18475 0.28791 0.72213
 H682 H 0.26051 0.29749 0.68774
 H683 H 0.24040 0.19500 0.81056
 H684 H 0.31469 0.20108 0.77368
 Zr685 Zr 0.27447 0.76309 0.28181
 O686 O 0.26587 0.78300 0.31027
 O687 O 0.31080 0.76131 0.28494
 O688 O 0.27995 0.74550 0.31212
 O689 O 0.27325 0.80889 0.24587
 O690 O 0.26448 0.70983 0.30474
 O691 O 0.28716 0.79750 0.27948
 O692 O 0.32211 0.73972 0.25507
 O693 O 0.28117 0.72960 0.27103
 O694 O 0.28538 0.76511 0.24863
 O695 O 0.24270 0.74458 0.28567
 O696 O 0.24715 0.77912 0.26475
 Zr697 Zr 0.23254 0.72778 0.22276
 Zr698 Zr 0.24907 0.71169 0.27319
 Zr699 Zr 0.25784 0.77926 0.23133
 Zr700 Zr 0.29082 0.73182 0.23759
 O701 O 0.23525 0.80713 0.22803
 O702 O 0.30628 0.70038 0.24545
 O703 O 0.26434 0.74640 0.21855
 O704 O 0.25983 0.71215 0.23992
 O705 O 0.22122 0.72562 0.25583
 O706 O 0.22613 0.76121 0.23372
 C707 C 0.32640 0.75155 0.27294
 C708 C 0.28442 0.81262 0.26425
 C709 C 0.27491 0.72466 0.31756
 O710 O 0.26967 0.68215 0.27376
 O711 O 0.22913 0.68371 0.26051
 O712 O 0.21830 0.69405 0.22561
 C713 C 0.21858 0.67979 0.24182
 O714 O 0.21434 0.78063 0.29575
 Zr715 Zr 0.21622 0.75909 0.26697
 O716 O 0.19615 0.72980 0.21945
 O717 O 0.22341 0.70212 0.29691
 O718 O 0.19448 0.74199 0.29031
 O719 O 0.19890 0.78952 0.25892
 O720 O 0.18489 0.74934 0.25065
 C721 C 0.18055 0.73860 0.23220
 O722 O 0.24092 0.70668 0.19504
 O723 O 0.28529 0.79062 0.21027
 O724 O 0.22894 0.74443 0.19180
 O725 O 0.24641 0.77941 0.19816
 O726 O 0.31408 0.74860 0.21533
 O727 O 0.29306 0.71295 0.20714
 C728 C 0.23575 0.76454 0.18552
 H729 H 0.29978 0.77461 0.24669
 H730 H 0.26235 0.69651 0.23401
 H731 H 0.21401 0.76869 0.22479
 H732 H 0.23784 0.74429 0.30148
 H733 H 0.32271 0.70113 0.24020
 H734 H 0.26247 0.67177 0.28483
 H735 H 0.22727 0.68663 0.30200
 H736 H 0.17917 0.74959 0.29045
 H737 H 0.32900 0.74032 0.21543
 H738 H 0.28105 0.80592 0.20496
 H739 H 0.24262 0.81762 0.21715
 H740 H 0.18268 0.78813 0.26467
 H741 H 0.30912 0.70721 0.20537
 H742 H 0.22610 0.70310 0.18689
 H743 H 0.28075 0.78686 0.31820
 H744 H 0.19772 0.78306 0.29956
 Zr745 Zr 0.24134 0.76486 0.72548
 O746 O 0.25436 0.79006 0.70352
 O747 O 0.20761 0.75837 0.71294
 O748 O 0.24391 0.75145 0.69248
 O749 O 0.22676 0.80311 0.76765
 O750 O 0.26503 0.71929 0.69685
 O751 O 0.22415 0.79634 0.73018
 O752 O 0.19378 0.72895 0.73399
 O753 O 0.23769 0.72935 0.72843
 O754 O 0.22221 0.75900 0.75459
 O755 O 0.27569 0.75270 0.72649
 O756 O 0.26077 0.78135 0.75137
 Zr757 Zr 0.27219 0.72592 0.78610
 Zr758 Zr 0.27175 0.71747 0.73108
 Zr759 Zr 0.24205 0.77369 0.78044
 Zr760 Zr 0.21971 0.72372 0.75810
 O761 O 0.25841 0.80344 0.79448
 O762 O 0.21178 0.69179 0.74227
 O763 O 0.23783 0.73839 0.78545
 O764 O 0.25302 0.70984 0.76008
 O765 O 0.29172 0.73182 0.75716
 O766 O 0.27587 0.76143 0.78301
 C767 C 0.19193 0.74324 0.71809
 C768 C 0.22075 0.80877 0.74784
 C769 C 0.25399 0.73345 0.68480
 O770 O 0.25702 0.68565 0.72025
 O771 O 0.29238 0.69134 0.74325
 O772 O 0.29136 0.69547 0.78111
 C773 C 0.29787 0.68518 0.76299
 O774 O 0.29987 0.79418 0.73096
 Zr775 Zr 0.29415 0.76714 0.75366
 O776 O 0.30584 0.73186 0.79858
 O777 O 0.30362 0.71684 0.71317
 O778 O 0.32326 0.75846 0.73363
 O779 O 0.30428 0.79749 0.77133
 O780 O 0.32168 0.75844 0.77527
 C781 C 0.32283 0.74465 0.79174
 O782 O 0.25958 0.69950 0.80689
 O783 O 0.20861 0.77678 0.79515
 O784 O 0.26712 0.73788 0.81932
 O785 O 0.24437 0.76902 0.81491
 O786 O 0.18884 0.73265 0.77543
 O787 O 0.21288 0.69986 0.78374
 C788 C 0.25517 0.75472 0.82703
 H789 H 0.20647 0.76570 0.75424
 H790 H 0.25158 0.69314 0.76233
 H791 H 0.28423 0.76882 0.79579
 H792 H 0.28410 0.75616 0.71249
 H793 H 0.19464 0.68902 0.74336
 H794 H 0.26836 0.67882 0.70975
 H795 H 0.30374 0.70216 0.70470
 H796 H 0.33688 0.76786 0.73895
 H797 H 0.17602 0.72230 0.76994
 H798 H 0.20898 0.79123 0.80400
 H799 H 0.24689 0.81042 0.80469
 H800 H 0.32151 0.79936 0.76993
 H801 H 0.19762 0.69193 0.78091
 H802 H 0.27226 0.69636 0.81766
 H803 H 0.24155 0.79326 0.69292
 H804 H 0.31639 0.79965 0.73196
 Zr805 Zr 0.26846 0.23227 0.21766
 O806 O 0.25814 0.21016 0.19094
 O807 O 0.30479 0.23451 0.21341
 O808 O 0.27328 0.24758 0.18603
 O809 O 0.26913 0.19005 0.25733
 O810 O 0.25825 0.28306 0.19097
 O811 O 0.28035 0.19839 0.22186
 O812 O 0.31735 0.25882 0.24129
 O813 O 0.27637 0.26665 0.22581
 O814 O 0.28051 0.23321 0.25062
 O815 O 0.23702 0.24974 0.21346
 O816 O 0.24141 0.21694 0.23665
 Zr817 Zr 0.22944 0.27105 0.27527
 Zr818 Zr 0.24467 0.28363 0.22331
 Zr819 Zr 0.25335 0.21972 0.26966
 Zr820 Zr 0.28706 0.26731 0.25910
 O821 O 0.23050 0.19129 0.27482
 O822 O 0.30294 0.29842 0.24857
 O823 O 0.26096 0.25359 0.27988
 O824 O 0.25651 0.28595 0.25627
 O825 O 0.21706 0.27043 0.24240
 O826 O 0.22191 0.23674 0.26696
 C827 C 0.32089 0.24564 0.22435
 C828 C 0.27918 0.18500 0.23878
 C829 C 0.26805 0.26760 0.17904
 O830 O 0.26663 0.31291 0.21916
 O831 O 0.22767 0.31289 0.23502
 O832 O 0.21571 0.30401 0.27015
 C833 C 0.21733 0.31765 0.25347
 O834 O 0.20743 0.21234 0.20684
 Zr835 Zr 0.21088 0.23606 0.23393
 O836 O 0.19315 0.26863 0.27976
 O837 O 0.21769 0.29116 0.20057
 O838 O 0.18863 0.25065 0.20998
 O839 O 0.19312 0.20600 0.24475
 O840 O 0.18041 0.24638 0.25041
 C841 C 0.17693 0.25863 0.26801
 O842 O 0.23916 0.29454 0.30109
 O843 O 0.28089 0.21107 0.29138
 O844 O 0.22708 0.25682 0.30759
 O845 O 0.24274 0.22157 0.30294
 O846 O 0.31079 0.25291 0.28185
 O847 O 0.29093 0.28841 0.28811
 C848 C 0.23340 0.23726 0.31492
 H849 H 0.29482 0.22435 0.25293
 H850 H 0.25977 0.30200 0.26102
 H851 H 0.20993 0.22969 0.27677
 H852 H 0.23150 0.24870 0.19782
 H853 H 0.31958 0.29842 0.25330
 H854 H 0.25921 0.32237 0.20769
 H855 H 0.22193 0.30610 0.19396
 H856 H 0.17315 0.24270 0.21091
 H857 H 0.32591 0.26146 0.28063
 H858 H 0.27657 0.19608 0.29787
 H859 H 0.23789 0.18189 0.28634
 H860 H 0.17673 0.20657 0.23939
 H861 H 0.30715 0.29475 0.28891
 H862 H 0.22467 0.29832 0.30933
 H863 H 0.27256 0.20601 0.18278
 H864 H 0.19062 0.20909 0.20380
 Zr865 Zr 0.72753 0.72928 0.28476
 O866 O 0.74197 0.70689 0.30816
 O867 O 0.69350 0.73264 0.29695
 O868 O 0.73076 0.74480 0.31693
 O869 O 0.71588 0.68651 0.24540
 O870 O 0.75029 0.77847 0.31011
 O871 O 0.71216 0.69600 0.28226
 O872 O 0.67780 0.75902 0.27407
 O873 O 0.72141 0.76393 0.27939
 O874 O 0.70808 0.73072 0.25526
 O875 O 0.76087 0.74519 0.28268
 O876 O 0.74786 0.71305 0.26007
 Zr877 Zr 0.75603 0.76666 0.22138
 Zr878 Zr 0.75453 0.77940 0.27556
 Zr879 Zr 0.72884 0.71647 0.23043
 Zr880 Zr 0.70318 0.76512 0.24929
 O881 O 0.74699 0.68778 0.21823
 O882 O 0.69325 0.79726 0.26256
 O883 O 0.72245 0.75068 0.22302
 O884 O 0.73546 0.78237 0.24602
 O885 O 0.77567 0.76529 0.25078
 O886 O 0.76180 0.73205 0.22700
 C887 C 0.67695 0.74563 0.29086
 C888 C 0.70990 0.68194 0.26553
 C889 C 0.74097 0.76376 0.32325
 O890 O 0.73657 0.80894 0.28583
 O891 O 0.77032 0.80836 0.26127
 O892 O 0.77311 0.79930 0.22425
 C893 C 0.77636 0.81295 0.24120
 O894 O 0.78735 0.70638 0.28175
 Zr895 Zr 0.78013 0.73063 0.25684
 O896 O 0.79034 0.76356 0.20965
 O897 O 0.78722 0.78608 0.29132
 O898 O 0.80879 0.74382 0.27601
 O899 O 0.79185 0.70002 0.24161
 O900 O 0.80697 0.74001 0.23470
 C901 C 0.80778 0.75271 0.21745
 O902 O 0.74206 0.78992 0.19854
 O903 O 0.69566 0.70853 0.21614
 O904 O 0.75172 0.75184 0.18910
 O905 O 0.73057 0.71901 0.19565
 O906 O 0.67308 0.75124 0.23274
 O907 O 0.69439 0.78595 0.22198
 C908 C 0.74051 0.73348 0.18256
 H909 H 0.69284 0.72235 0.25612
 H910 H 0.73263 0.79852 0.24246
 H911 H 0.77060 0.72465 0.21478
 H912 H 0.76979 0.74367 0.29671
 H913 H 0.67596 0.79790 0.26158
 H914 H 0.74746 0.81808 0.29552
 H915 H 0.78607 0.80099 0.29927
 H916 H 0.82284 0.73528 0.27154
 H917 H 0.65951 0.76022 0.23772
 H918 H 0.69696 0.69354 0.20837
 H919 H 0.73589 0.67886 0.20858
 H920 H 0.80911 0.69991 0.24325
 H921 H 0.67857 0.79211 0.22428
 H922 H 0.75461 0.79361 0.18768
 H923 H 0.72946 0.70313 0.31906
 H924 H 0.80408 0.70237 0.28106
 Zr925 Zr 0.77489 0.26913 0.77873
 O926 O 0.76487 0.28968 0.80629
 O927 O 0.81114 0.26886 0.78253
 O928 O 0.78068 0.25288 0.80967
 O929 O 0.77398 0.31352 0.74113
 O930 O 0.76620 0.21669 0.80339
 O931 O 0.78694 0.30350 0.77553
 O932 O 0.82378 0.24672 0.75356
 O933 O 0.78292 0.23558 0.76926
 O934 O 0.78629 0.27031 0.74566
 O935 O 0.74364 0.24993 0.78275
 O936 O 0.74745 0.28390 0.76074
 Zr937 Zr 0.73522 0.23065 0.72020
 Zr938 Zr 0.75130 0.21690 0.77153
 Zr939 Zr 0.75870 0.28319 0.72751
 Zr940 Zr 0.79304 0.23691 0.73589
 O941 O 0.73551 0.31050 0.72368
 O942 O 0.80937 0.20640 0.74532
 O943 O 0.76648 0.25014 0.71590
 O944 O 0.76261 0.21638 0.73840
 O945 O 0.72354 0.22950 0.75321
 O946 O 0.72747 0.26419 0.72996
 C947 C 0.82730 0.25941 0.77104
 C948 C 0.78471 0.31796 0.75967
 C949 C 0.77597 0.23222 0.81590
 O950 O 0.77249 0.18783 0.77306
 O951 O 0.73127 0.18858 0.75987
 O952 O 0.72149 0.19677 0.72406
 C953 C 0.72099 0.18370 0.74124
 O954 O 0.71423 0.28608 0.79065
 Zr955 Zr 0.71711 0.26304 0.76309
 O956 O 0.69879 0.23027 0.71679
 O957 O 0.72587 0.20746 0.79553
 O958 O 0.69567 0.24677 0.78723
 O959 O 0.69841 0.29203 0.75312
 O960 O 0.68646 0.25056 0.74718
 C961 C 0.68276 0.23829 0.72950
 O962 O 0.74532 0.20915 0.69337
 O963 O 0.78580 0.29426 0.70592
 O964 O 0.73095 0.24640 0.68877
 O965 O 0.74689 0.28224 0.69445
 O966 O 0.81626 0.25332 0.71335
 O967 O 0.79640 0.21698 0.70620
 C968 C 0.73667 0.26673 0.68222
 H969 H 0.80047 0.28009 0.74352
 H970 H 0.76561 0.20061 0.73310
 H971 H 0.71505 0.27078 0.72070
 H972 H 0.73855 0.25011 0.79850
 H973 H 0.82591 0.20751 0.74042
 H974 H 0.76537 0.17768 0.78437
 H975 H 0.73010 0.19227 0.80114
 H976 H 0.68014 0.25393 0.78682
 H977 H 0.83141 0.24544 0.71403
 H978 H 0.78128 0.30932 0.70021
 H979 H 0.74265 0.32088 0.71257
 H980 H 0.68217 0.29013 0.75868
 H981 H 0.81259 0.21141 0.70508
 H982 H 0.73084 0.20461 0.68509
 H983 H 0.77940 0.29433 0.81444
 H984 H 0.69748 0.28846 0.79396
 C985 C 0.38347 1.00603 0.28271
 C986 C 0.39544 1.00665 0.30295
 C987 C 0.41943 1.00283 0.30376
 C988 C 0.43148 0.99824 0.28388
 C989 C 0.41951 0.99794 0.26338
 C990 C 0.39528 1.00249 0.26234
 N991 N 0.43071 1.00417 0.32511
 N992 N 0.45153 0.99804 0.32912
 C993 C 0.46091 1.00065 0.35132
 C994 C 0.48133 0.98944 0.35749
 C995 C 0.48971 0.99100 0.37957
 C996 C 0.47786 1.00405 0.39571
 C997 C 0.45782 1.01578 0.38911
 C998 C 0.44946 1.01405 0.36734
 H999 H 0.36476 1.00861 0.28287
 H1000 H 0.38590 1.00996 0.31819
 H1001 H 0.45003 0.99493 0.28420
 H1002 H 0.42928 0.99363 0.24856
 H1003 H 0.49045 0.97909 0.34535
 H1004 H 0.50519 0.98178 0.38404
 H1005 H 0.44818 1.02613 0.40087
 H1006 H 0.43384 1.02315 0.36309
 C1007 C -0.11238 0.50449 0.79379
 C1008 C -0.10031 0.50367 0.81399
 C1009 C -0.07599 0.50171 0.81436
 C1010 C -0.06383 0.49989 0.79418
 C1011 C -0.07584 0.50116 0.77388
 C1012 C -0.10031 0.50463 0.77327
 N1013 N -0.06418 0.50300 0.83543
 N1014 N -0.04308 0.49717 0.83849
 C1015 C -0.03248 0.50046 0.86005
 C1016 C -0.01472 0.48613 0.86721
 C1017 C -0.00616 0.48791 0.88919
 C1018 C -0.01503 0.50439 0.90408
 C1019 C -0.03162 0.51971 0.89613
 C1020 C -0.04034 0.51766 0.87452
 H1021 H -0.13124 0.50596 0.79414
 H1022 H -0.10994 0.50479 0.82947
 H1023 H -0.04503 0.49799 0.79411
 H1024 H -0.06570 0.49928 0.75882
 H1025 H -0.00832 0.47290 0.85614
 H1026 H 0.00657 0.47584 0.89476
 H1027 H -0.03867 0.53287 0.90690
 H1028 H -0.05363 0.52928 0.86922
 C1029 C 0.11356 -0.00108 0.79496
 C1030 C 0.10164 -0.00040 0.81507
 C1031 C 0.07867 -0.00869 0.81655
 C1032 C 0.06812 -0.01935 0.79779
 C1033 C 0.08044 -0.02058 0.77746
 C1034 C 0.10277 -0.00980 0.77526
 N1035 N 0.06735 -0.00611 0.83767
 N1036 N 0.04558 -0.00899 0.84158
 C1037 C 0.03715 -0.00528 0.86395
 C1038 C 0.01311 -0.00705 0.86882
 C1039 C 0.00511 -0.00391 0.89084
 C1040 C 0.02117 0.00078 0.90823
 C1041 C 0.04507 0.00315 0.90307
 C1042 C 0.05293 0.00023 0.88134
 H1043 H 0.13123 0.00599 0.79479
 H1044 H 0.11024 0.00717 0.82961
 H1045 H 0.05064 -0.02683 0.79889
 H1046 H 0.07233 -0.02966 0.76351
 H1047 H 0.00064 -0.01112 0.85565
 H1048 H -0.01340 -0.00595 0.89439
 H1049 H 0.05789 0.00697 0.91603
 H1050 H 0.07156 0.00195 0.87827
 C1051 C 0.56922 0.50163 0.27582
 C1052 C 0.55688 0.50560 0.29566
 C1053 C 0.56843 0.50582 0.31625
 C1054 C 0.59247 0.50144 0.31681
 C1055 C 0.60470 0.49717 0.29717
 C1056 C 0.59343 0.49695 0.27618
 N1057 N 0.55575 0.51058 0.33640
 N1058 N 0.56675 0.51520 0.35447
 C1059 C 0.55584 0.51898 0.37565
 C1060 C 0.57040 0.52379 0.39394
 C1061 C 0.56129 0.52452 0.41544
 C1062 C 0.53725 0.52058 0.41913
 C1063 C 0.52228 0.51723 0.40066
 C1064 C 0.53154 0.51630 0.37897
 H1065 H 0.55972 0.50308 0.26037
 H1066 H 0.53840 0.50918 0.29492
 H1067 H 0.60191 0.50143 0.33246
 H1068 H 0.62334 0.49435 0.29828
 H1069 H 0.58912 0.52595 0.39159
 H1070 H 0.57323 0.52723 0.42933
 H1071 H 0.50372 0.51392 0.40307
 H1072 H 0.51995 0.51258 0.36502
 C1073 C 0.60053 0.50965 0.21517
 C1074 C 0.58934 0.50760 0.19458
 C1075 C 0.57192 0.49088 0.19070
 C1076 C 0.56553 0.47607 0.20791
 C1077 C 0.57692 0.47794 0.22866
 C1078 C 0.59444 0.49504 0.23290
 N1079 N 0.56269 0.48859 0.16856
 N1080 N 0.54493 0.47626 0.16278
 C1081 C 0.53828 0.47497 0.13965
 C1082 C 0.51536 0.46846 0.13327
 C1083 C 0.50845 0.46925 0.11076
 C1084 C 0.52453 0.47632 0.09434
 C1085 C 0.54778 0.48156 0.10084
 C1086 C 0.55450 0.48099 0.12310
 H1087 H 0.61469 0.52216 0.21653
 H1088 H 0.59477 0.51877 0.18124
 H1089 H 0.55241 0.46267 0.20511
 H1090 H 0.57239 0.46572 0.24140
 H1091 H 0.50265 0.46360 0.14580
 H1092 H 0.49045 0.46504 0.10634
 H1093 H 0.56085 0.48674 0.08877
 H1094 H 0.57243 0.48563 0.12741
 C1095 C 0.11391 0.98767 0.71088
 C1096 C 0.10231 0.98828 0.69051
 C1097 C 0.07869 0.99360 0.68946
 C1098 C 0.06686 0.99922 0.70921
 C1099 C 0.07866 0.99892 0.72983
 C1100 C 0.10214 0.99181 0.73119
 N1101 N 0.06806 0.99420 0.66784
 N1102 N 0.04624 0.99599 0.66398
 C1103 C 0.03803 0.99680 0.64130
 C1104 C 0.01395 0.99549 0.63640
 C1105 C 0.00602 0.99630 0.61419
 C1106 C 0.02212 0.99879 0.59661
 C1107 C 0.04618 0.99996 0.60173
 C1108 C 0.05400 0.99893 0.62365
 H1109 H 0.13235 0.98381 0.71079
 H1110 H 0.11186 0.98464 0.67534
 H1111 H 0.04881 1.00439 0.70865
 H1112 H 0.06944 1.00482 0.74443
 H1113 H 0.00136 0.99381 0.64977
 H1114 H -0.01261 0.99539 0.61081
 H1115 H 0.05917 1.00166 0.58870
 H1116 H 0.07267 1.00001 0.62676
 C1117 C -0.08244 0.52724 0.72920
 C1118 C -0.06816 0.53029 0.71054
 C1119 C -0.06900 0.51442 0.69292
 C1120 C -0.08470 0.49560 0.69403
 C1121 C -0.09931 0.49270 0.71249
 C1122 C -0.09814 0.50821 0.73077
 N1123 N -0.05447 0.51801 0.67374
 N1124 N -0.05139 0.50186 0.65969
 C1125 C -0.03837 0.50420 0.63946
 C1126 C -0.03554 0.48457 0.62636
 C1127 C -0.02602 0.48607 0.60512
 C1128 C -0.01905 0.50732 0.59647
 C1129 C -0.02049 0.52703 0.61004
 C1130 C -0.03023 0.52550 0.63152
 H1131 H -0.08132 0.53987 0.74257
 H1132 H -0.05638 0.54504 0.70984
 H1133 H -0.08612 0.48335 0.68035
 H1134 H -0.11174 0.47851 0.71194
 H1135 H -0.04169 0.46812 0.63230
 H1136 H -0.02500 0.47062 0.59500
 H1137 H -0.01542 0.54360 0.60360
 H1138 H -0.03233 0.54093 0.64143
 C1139 C 0.39088 -0.01720 0.20224
 C1140 C 0.40279 -0.01672 0.18198
 C1141 C 0.41946 0.00046 0.17757
 C1142 C 0.42452 0.01717 0.19403
 C1143 C 0.41265 0.01669 0.21451
 C1144 C 0.39568 -0.00065 0.21918
 N1145 N 0.42953 0.00095 0.15570
 N1146 N 0.44475 0.01559 0.14902
 C1147 C 0.45270 0.01482 0.12624
 C1148 C 0.47037 0.03002 0.11884
 C1149 C 0.47748 0.02977 0.09635
 C1150 C 0.46671 0.01446 0.08091
 C1151 C 0.44927 -0.00088 0.08861
 C1152 C 0.44243 -0.00075 0.11084
 H1153 H 0.37723 -0.03014 0.20397
 H1154 H 0.39841 -0.02945 0.16924
 H1155 H 0.43713 0.03085 0.19088
 H1156 H 0.41630 0.03023 0.22663
 H1157 H 0.47851 0.04217 0.13045
 H1158 H 0.49097 0.04176 0.09098
 H1159 H 0.44075 -0.01317 0.07738
 H1160 H 0.42879 -0.01275 0.11589
 C1161 C 0.28873 0.35754 -0.00054
 C1162 C 0.31049 0.36853 0.00261
 C1163 C 0.31217 0.39220 0.00565
 C1164 C 0.29156 0.40485 0.00552
 C1165 C 0.26959 0.39381 0.00260
 C1166 C 0.26772 0.36985 -0.00092
 N1167 N 0.33496 0.40273 0.00905
 N1168 N 0.33844 0.42431 0.00940
 C1169 C 0.36132 0.43474 0.01241
 C1170 C 0.36467 0.45767 0.00677
 C1171 C 0.38700 0.46798 0.00763
 C1172 C 0.40643 0.45573 0.01475
 C1173 C 0.40297 0.43302 0.02151
 C1174 C 0.38059 0.42248 0.02011
 H1175 H 0.28822 0.33910 -0.00238
 H1176 H 0.32616 0.35850 0.00284
 H1177 H 0.29235 0.42319 0.00821
 H1178 H 0.25422 0.40411 0.00391
 H1179 H 0.35005 0.46735 0.00090
 H1180 H 0.38919 0.48551 0.00233
 H1181 H 0.41770 0.42317 0.02687
 H1182 H 0.37842 0.40476 0.02472
 C1183 C -0.23601 0.90555 0.50217
 C1184 C -0.21619 0.92002 0.50400
 C1185 C -0.19384 0.91106 0.50597
 C1186 C -0.19139 0.88729 0.50530
 C1187 C -0.21109 0.87277 0.50282
 C1188 C -0.23393 0.88150 0.50119
 N1189 N -0.17399 0.92643 0.50839
 N1190 N -0.15462 0.92035 0.51673
 C1191 C -0.13454 0.93559 0.51808
 C1192 C -0.11524 0.92975 0.53110
 C1193 C -0.09477 0.94353 0.53139
 C1194 C -0.09318 0.96312 0.51820
 C1195 C -0.11278 0.96923 0.50561
 C1196 C -0.13332 0.95574 0.50569
 H1197 H -0.25282 0.91354 0.50231
 H1198 H -0.21833 0.93835 0.50464
 H1199 H -0.17425 0.87995 0.50665
 H1200 H -0.20860 0.85449 0.50269
 H1201 H -0.11589 0.91425 0.54070
 H1202 H -0.07983 0.93827 0.54101
 H1203 H -0.11202 0.98422 0.49527
 H1204 H -0.14793 0.96062 0.49544
 C1205 C -0.21059 0.12962 1.00932
 C1206 C -0.18953 0.11804 1.00886
 C1207 C -0.18480 0.10228 0.99186
 C1208 C -0.20144 0.09838 0.97490
 C1209 C -0.22281 0.10977 0.97548
 C1210 C -0.22829 0.12503 0.99319
 N1211 N -0.16316 0.09037 0.99283
 N1212 N -0.15508 0.07805 0.97705
 C1213 C -0.13349 0.06621 0.97986
 C1214 C -0.12230 0.05635 0.96138
 C1215 C -0.10112 0.04490 0.96399
 C1216 C -0.09103 0.04278 0.98526
 C1217 C -0.10247 0.05259 1.00370
 C1218 C -0.12330 0.06422 1.00104
 H1219 H -0.21252 0.14239 1.02232
 H1220 H -0.17662 0.12158 1.02178
 H1221 H -0.19807 0.08642 0.96140
 H1222 H -0.23531 0.10647 0.96216
 H1223 H -0.12989 0.05768 0.94493
 H1224 H -0.09280 0.03754 0.94945
 H1225 H -0.09523 0.05149 1.02032
 H1226 H -0.13153 0.07153 1.01565
 C1227 C 0.30391 0.63776 0.49793
 C1228 C 0.32511 0.62673 0.49491
 C1229 C 0.32549 0.60316 0.49107
 C1230 C 0.30411 0.59083 0.48919
 C1231 C 0.28272 0.60197 0.49171
 C1232 C 0.28219 0.62556 0.49728
 N1233 N 0.34778 0.59232 0.48954
 N1234 N 0.34996 0.57080 0.49116
 C1235 C 0.37235 0.56008 0.49040
 C1236 C 0.37411 0.53793 0.49854
 C1237 C 0.39586 0.52756 0.49983
 C1238 C 0.41631 0.53889 0.49240
 C1239 C 0.41447 0.56076 0.48330
 C1240 C 0.39269 0.57142 0.48255
 H1241 H 0.30445 0.65600 0.50127
 H1242 H 0.34139 0.63657 0.49607
 H1243 H 0.30392 0.57265 0.48555
 H1244 H 0.26680 0.59196 0.48908
 H1245 H 0.35866 0.52896 0.50461
 H1246 H 0.39673 0.51066 0.50685
 H1247 H 0.42996 0.56993 0.47759
 H1248 H 0.39178 0.58853 0.47608
 C1249 C 0.23569 0.60533 0.51740
 C1250 C 0.21502 0.59233 0.52043
 C1251 C 0.19418 0.59831 0.50998
 C1252 C 0.19441 0.61737 0.49610
 C1253 C 0.21529 0.62991 0.49239
 C1254 C 0.23664 0.62381 0.50253
 N1255 N 0.17330 0.58448 0.51326
 N1256 N 0.15278 0.59256 0.51242
 C1257 C 0.13197 0.57832 0.51449
 C1258 C 0.11080 0.58811 0.52102
 C1259 C 0.08997 0.57482 0.52182
 C1260 C 0.08988 0.55162 0.51543
 C1261 C 0.11112 0.54181 0.50903
 C1262 C 0.13201 0.55491 0.50888
 H1263 H 0.25109 0.60089 0.52676
 H1264 H 0.21512 0.57788 0.53145
 H1265 H 0.17848 0.62244 0.48795
 H1266 H 0.21439 0.64480 0.48204
 H1267 H 0.11039 0.60615 0.52526
 H1268 H 0.07379 0.58287 0.52642
 H1269 H 0.11146 0.52401 0.50382
 H1270 H 0.14802 0.54696 0.50356
 C1271 C 0.70370 0.13147 -0.00814
 C1272 C 0.68322 0.11794 -0.00680
 C1273 C 0.68447 0.09413 -0.00513
 C1274 C 0.70648 0.08418 -0.00474
 C1275 C 0.72705 0.09775 -0.00543
 C1276 C 0.72614 0.12174 -0.00762
 N1277 N 0.66371 0.07978 -0.00416
 N1278 N 0.64409 0.08730 0.00242
 C1279 C 0.62303 0.07331 0.00240
 C1280 C 0.60372 0.08034 0.01494
 C1281 C 0.58254 0.06767 0.01430
 C1282 C 0.58013 0.04804 0.00060
 C1283 C 0.59961 0.04091 -0.01180
 C1284 C 0.62092 0.05327 -0.01073
 H1285 H 0.70209 0.14981 -0.00933
 H1286 H 0.66641 0.12606 -0.00725
 H1287 H 0.70772 0.06584 -0.00326
 H1288 H 0.74345 0.08920 -0.00365
 H1289 H 0.60503 0.09580 0.02508
 H1290 H 0.56783 0.07368 0.02387
 H1291 H 0.59830 0.02585 -0.02250
 H1292 H 0.63550 0.04755 -0.02069
 C1293 C 0.70254 0.87369 0.51562
 C1294 C 0.68089 0.88376 0.51262
 C1295 C 0.67644 0.89666 0.49378
 C1296 C 0.69402 0.89939 0.47771
 C1297 C 0.71584 0.88944 0.48074
 C1298 C 0.72086 0.87685 0.50007
 N1299 N 0.65400 0.90689 0.49183
 N1300 N 0.64722 0.91772 0.47483
 C1301 C 0.62470 0.92817 0.47464
 C1302 C 0.61739 0.94019 0.45590
 C1303 C 0.59628 0.95207 0.45630
 C1304 C 0.58241 0.95225 0.47562
 C1305 C 0.58936 0.93938 0.49395
 C1306 C 0.61016 0.92746 0.49347
 H1307 H 0.70437 0.86297 0.52994
 H1308 H 0.66730 0.88123 0.52496
 H1309 H 0.69092 0.90916 0.46289
 H1310 H 0.72899 0.89153 0.46792
 H1311 H 0.62834 0.94086 0.44121
 H1312 H 0.59138 0.96191 0.44198
 H1313 H 0.57893 0.93897 0.50901
 H1314 H 0.61516 0.91823 0.50814
 C1315 C 0.22061 0.38664 0.97810
 C1316 C 0.20020 0.39887 0.97418
 C1317 C 0.18044 0.39588 0.98770
 C1318 C 0.18149 0.38038 1.00528
 C1319 C 0.20182 0.36819 1.00923
 C1320 C 0.22215 0.37142 0.99608
 N1321 N 0.15953 0.40841 0.98328
 N1322 N 0.14121 0.40572 0.99516
 C1323 C 0.11982 0.41782 0.99221
 C1324 C 0.10210 0.41459 1.00795
 C1325 C 0.08158 0.42700 1.00702
 C1326 C 0.07804 0.44286 0.99006
 C1327 C 0.09536 0.44543 0.97355
 C1328 C 0.11624 0.43311 0.97470
 H1329 H 0.23527 0.38886 0.96687
 H1330 H 0.19969 0.41050 0.96035
 H1331 H 0.16641 0.37735 1.01583
 H1332 H 0.20108 0.35566 1.02225
 H1333 H 0.10450 0.40282 1.02145
 H1334 H 0.06858 0.42452 1.01993
 H1335 H 0.09321 0.45764 0.96039
 H1336 H 0.12966 0.43582 0.96225
 C1337 C -0.02917 0.28313 0.39294
 C1338 C -0.03216 0.30093 0.40827
 C1339 C -0.01405 0.30742 0.42283
 C1340 C 0.00650 0.29486 0.42324
 C1341 C 0.00955 0.27712 0.40794
 C1342 C -0.00754 0.27200 0.39147
 N1343 N -0.01575 0.32837 0.43498
 N1344 N 0.00098 0.33612 0.44710
 C1345 C 0.00038 0.35843 0.45682
 C1346 C 0.01904 0.36607 0.47029
 C1347 C 0.02030 0.38873 0.47779
 C1348 C 0.00296 0.40403 0.47159
 C1349 C -0.01599 0.39616 0.45842
 C1350 C -0.01733 0.37351 0.45115
 H1351 H -0.04380 0.27847 0.38224
 H1352 H -0.04829 0.31026 0.40825
 H1353 H 0.02060 0.29935 0.43470
 H1354 H 0.02582 0.26802 0.40820
 H1355 H 0.03287 0.35458 0.47452
 H1356 H 0.03505 0.39439 0.48802
 H1357 H -0.02979 0.40749 0.45369
 H1358 H -0.03186 0.36798 0.44060
 C1359 C 0.49544 -0.23430 -0.07653
 C1360 C 0.48792 -0.21465 -0.06540
 C1361 C 0.48620 -0.19417 -0.07681
 C1362 C 0.49175 -0.19343 -0.09950
 C1363 C 0.49970 -0.21270 -0.11043
 C1364 C 0.50241 -0.23337 -0.09909
 N1365 N 0.48082 -0.17369 -0.06496
 N1366 N 0.47567 -0.15592 -0.07559
 C1367 C 0.47367 -0.13416 -0.06504
 C1368 C 0.46743 -0.11573 -0.07807
 C1369 C 0.46944 -0.09353 -0.06951
 C1370 C 0.47799 -0.08957 -0.04779
 C1371 C 0.48328 -0.10823 -0.03441
 C1372 C 0.48107 -0.13042 -0.04296
 H1373 H 0.49552 -0.25002 -0.06737
 H1374 H 0.48346 -0.21538 -0.04790
 H1375 H 0.49064 -0.17773 -0.10870
 H1376 H 0.50412 -0.21142 -0.12791
 H1377 H 0.46195 -0.11855 -0.09521
 H1378 H 0.46512 -0.07947 -0.08014
 H1379 H 0.48955 -0.10569 -0.01749
 H1380 H 0.48615 -0.14450 -0.03269
 C1381 C 0.00474 -0.22787 1.09033
 C1382 C 0.00663 -0.20806 1.07774
 C1383 C 0.00657 -0.18658 1.08821
 C1384 C 0.00497 -0.18494 1.11146
 C1385 C 0.00278 -0.20454 1.12398
 C1386 C 0.00184 -0.22639 1.11367
 N1387 N 0.00734 -0.16654 1.07507
 N1388 N 0.00994 -0.14691 1.08422
 C1389 C 0.00919 -0.12644 1.07184
 C1390 C 0.01456 -0.10569 1.08273
 C1391 C 0.01269 -0.08520 1.07148
 C1392 C 0.00508 -0.08530 1.04920
 C1393 C -0.00020 -0.10622 1.03828
 C1394 C 0.00194 -0.12668 1.04950
 H1395 H 0.00588 -0.24408 1.08162
 H1396 H 0.00827 -0.20944 1.05979
 H1397 H 0.00502 -0.16849 1.11998
 H1398 H 0.00143 -0.20273 1.14193
 H1399 H 0.02000 -0.10542 1.10003
 H1400 H 0.01682 -0.06931 1.08030
 H1401 H -0.00591 -0.10679 1.02106
 H1402 H -0.00245 -0.14260 1.04085
 C1403 C 0.53374 0.28431 0.61351
 C1404 C 0.53821 0.30222 0.59900
 C1405 C 0.52105 0.30878 0.58404
 C1406 C 0.49958 0.29670 0.58295
 C1407 C 0.49498 0.27899 0.59754
 C1408 C 0.51150 0.27318 0.61389
 N1409 N 0.52486 0.32905 0.57166
 N1410 N 0.51013 0.33539 0.55731
 C1411 C 0.51240 0.35707 0.54706
 C1412 C 0.49558 0.36318 0.53147
 C1413 C 0.49508 0.38554 0.52387
 C1414 C 0.51132 0.40205 0.53207
 C1415 C 0.52884 0.39559 0.54696
 C1416 C 0.52944 0.37323 0.55434
 H1417 H 0.54790 0.27935 0.62420
 H1418 H 0.55499 0.31126 0.59964
 H1419 H 0.48608 0.30137 0.57132
 H1420 H 0.47816 0.27008 0.59650
 H1421 H 0.48230 0.35083 0.52591
 H1422 H 0.48146 0.39009 0.51231
 H1423 H 0.54180 0.40791 0.55324
 H1424 H 0.54260 0.36885 0.56645
 C1425 C 0.48120 1.22137 0.60879
 C1426 C 0.47992 1.20233 0.59463
 C1427 C 0.50003 1.19444 0.58426
 C1428 C 0.52141 1.20637 0.58718
 C1429 C 0.52276 1.22537 0.60138
 C1430 C 0.50296 1.23247 0.61344
 N1431 N 0.49852 1.17345 0.57205
 N1432 N 0.51605 1.16515 0.56211
 C1433 C 0.51431 1.14324 0.55150
 C1434 C 0.53289 1.13567 0.53846
 C1435 C 0.53179 1.11392 0.52858
 C1436 C 0.51216 1.09946 0.53201
 C1437 C 0.49361 1.10712 0.54521
 C1438 C 0.49461 1.12887 0.55480
 H1439 H 0.46501 1.22717 0.61594
 H1440 H 0.46326 1.19344 0.59199
 H1441 H 0.53714 1.20069 0.57898
 H1442 H 0.53952 1.23418 0.60360
 H1443 H 0.54820 1.14661 0.53599
 H1444 H 0.54634 1.10836 0.51848
 H1445 H 0.47816 1.09642 0.54793
 H1446 H 0.48010 1.13433 0.56498
 C1447 C -0.02053 0.72552 1.10055
 C1448 C -0.02318 0.70436 1.08958
 C1449 C -0.00777 0.68686 1.09411
 C1450 C 0.00953 0.69024 1.11042
 C1451 C 0.01195 0.71106 1.12158
 C1452 C -0.00220 0.72964 1.11608
 N1453 N -0.00985 0.66555 1.08236
 N1454 N 0.00746 0.65234 1.08165
 C1455 C 0.00623 0.63040 1.07116
 C1456 C 0.02711 0.61979 1.06556
 C1457 C 0.02654 0.59836 1.05511
 C1458 C 0.00502 0.58712 1.05076
 C1459 C -0.01592 0.59752 1.05698
 C1460 C -0.01534 0.61918 1.06694
 H1461 H -0.03271 0.73884 1.09685
 H1462 H -0.03701 0.70169 1.07739
 H1463 H 0.02099 0.67657 1.11488
 H1464 H 0.02475 0.71208 1.13484
 H1465 H 0.04379 0.62834 1.06898
 H1466 H 0.04287 0.59056 1.05046
 H1467 H -0.03272 0.58917 1.05356
 H1468 H -0.03163 0.62710 1.07144
 C1469 C 0.53153 0.72689 -0.08054
 C1470 C 0.53590 0.70829 -0.06702
 C1471 C 0.52416 0.68747 -0.07113
 C1472 C 0.50959 0.68473 -0.08977
 C1473 C 0.50573 0.70300 -0.10360
 C1474 C 0.51530 0.72489 -0.09836
 N1475 N 0.52654 0.66900 -0.05632
 N1476 N 0.50822 0.65778 -0.05075
 C1477 C 0.50903 0.63721 -0.03859
 C1478 C 0.48861 0.62925 -0.02822
 C1479 C 0.48758 0.60740 -0.01939
 C1480 C 0.50683 0.59313 -0.02152
 C1481 C 0.52759 0.60140 -0.03128
 C1482 C 0.52878 0.62347 -0.03958
 H1483 H 0.54033 0.74309 -0.07678
 H1484 H 0.54768 0.71032 -0.05294
 H1485 H 0.50128 0.66830 -0.09363
 H1486 H 0.49517 0.69970 -0.11831
 H1487 H 0.47325 0.63971 -0.02767
 H1488 H 0.47140 0.60125 -0.01196
 H1489 H 0.54266 0.59064 -0.03290
 H1490 H 0.54460 0.62931 -0.04786
 C1491 C -0.02212 1.22419 0.39946
 C1492 C -0.02214 1.20499 0.41276
 C1493 C -0.00180 1.19266 0.41519
 C1494 C 0.01897 1.20015 0.40494
 C1495 C 0.01915 1.21956 0.39182
 C1496 C -0.00169 1.23139 0.38804
 N1497 N -0.00285 1.17231 0.42780
 N1498 N 0.01381 1.15836 0.42786
 C1499 C 0.01205 1.13778 0.44012
 C1500 C 0.02846 1.12088 0.43634
 C1501 C 0.02608 1.09989 0.44684
 C1502 C 0.00732 1.09576 0.46149
 C1503 C -0.00873 1.11305 0.46575
 C1504 C -0.00646 1.13388 0.45506
 H1505 H -0.03823 1.23338 0.39776
 H1506 H -0.03816 1.19946 0.42091
 H1507 H 0.03509 1.19110 0.40717
 H1508 H 0.03575 1.22524 0.38505
 H1509 H 0.04278 1.12380 0.42485
 H1510 H 0.03886 1.08693 0.44347
 H1511 H -0.02331 1.11032 0.47699
 H1512 H -0.01930 1.14681 0.45829
 C1513 C 0.75355 0.64383 0.95582
 C1514 C 0.75249 0.65447 0.93525
 C1515 C 0.74859 0.67786 0.93396
 C1516 C 0.74579 0.69069 0.95369
 C1517 C 0.74685 0.68004 0.97445
 C1518 C 0.75123 0.65637 0.97597
 N1519 N 0.74702 0.68763 0.91227
 N1520 N 0.74365 0.70867 0.90849
 C1521 C 0.74232 0.71646 0.88590
 C1522 C 0.74128 0.73991 0.88140
 C1523 C 0.74143 0.74758 0.85926
 C1524 C 0.74269 0.73179 0.84138
 C1525 C 0.74276 0.70832 0.84611
 C1526 C 0.74261 0.70077 0.86796
 H1527 H 0.75601 0.62555 0.95609
 H1528 H 0.75440 0.64433 0.92013
 H1529 H 0.74232 0.70876 0.95305
 H1530 H 0.74339 0.69038 0.98909
 H1531 H 0.74091 0.75226 0.89502
 H1532 H 0.74134 0.76575 0.85617
 H1533 H 0.74334 0.69558 0.83283
 H1534 H 0.74307 0.68257 0.87078
 C1535 C 0.25517 0.14643 0.45187
 C1536 C 0.25294 0.15706 0.43142
 C1537 C 0.24987 0.18059 0.43040
 C1538 C 0.25076 0.19377 0.45014
 C1539 C 0.25320 0.18314 0.47080
 C1540 C 0.25392 0.15901 0.47212
 N1541 N 0.24502 0.19005 0.40908
 N1542 N 0.24113 0.21103 0.40559
 C1543 C 0.23579 0.21825 0.38340
 C1544 C 0.23707 0.24150 0.37799
 C1545 C 0.23451 0.24828 0.35575
 C1546 C 0.23059 0.23177 0.33876
 C1547 C 0.22762 0.20874 0.34459
 C1548 C 0.23019 0.20205 0.36657
 H1549 H 0.25637 0.12800 0.45196
 H1550 H 0.25270 0.14675 0.41626
 H1551 H 0.24911 0.21214 0.44964
 H1552 H 0.25397 0.19398 0.48551
 H1553 H 0.24114 0.25424 0.39080
 H1554 H 0.23702 0.26613 0.35168
 H1555 H 0.22433 0.19565 0.33190
 H1556 H 0.22855 0.18404 0.37026
 C1557 C 0.73341 0.34545 0.45905
 C1558 C 0.73398 0.33416 0.43841
 C1559 C 0.75063 0.31770 0.43382
 C1560 C 0.76724 0.31282 0.45022
 C1561 C 0.76669 0.32413 0.47108
 C1562 C 0.74920 0.34014 0.47628
 N1563 N 0.75013 0.30697 0.41212
 N1564 N 0.76434 0.29204 0.40503
 C1565 C 0.76196 0.28288 0.38264
 C1566 C 0.77867 0.26802 0.37376
 C1567 C 0.77721 0.26042 0.35136
 C1568 C 0.75903 0.26774 0.33753
 C1569 C 0.74188 0.28183 0.34687
 C1570 C 0.74329 0.28926 0.36900
 H1571 H 0.72069 0.35867 0.46100
 H1572 H 0.72144 0.33852 0.42570
 H1573 H 0.78061 0.30043 0.44691
 H1574 H 0.77986 0.32027 0.48337
 H1575 H 0.79314 0.26281 0.38401
 H1576 H 0.79070 0.24961 0.34465
 H1577 H 0.72743 0.28756 0.33686
 H1578 H 0.72992 0.30044 0.37528
 C1579 C 0.22219 0.84342 0.96635
 C1580 C 0.22232 0.82951 0.94727
 C1581 C 0.23965 0.81342 0.94402
 C1582 C 0.25701 0.81117 0.96034
 C1583 C 0.25680 0.82497 0.97969
 C1584 C 0.23912 0.84115 0.98334
 N1585 N 0.23950 0.80067 0.92342
 N1586 N 0.25516 0.78672 0.91744
 C1587 C 0.25379 0.77560 0.89589
 C1588 C 0.27271 0.76307 0.88779
 C1589 C 0.27277 0.75475 0.86566
 C1590 C 0.25387 0.75901 0.85139
 C1591 C 0.23438 0.77032 0.86005
 C1592 C 0.23430 0.77847 0.88198
 H1593 H 0.20909 0.85639 0.96715
 H1594 H 0.20914 0.83176 0.93454
 H1595 H 0.27083 0.79904 0.95803
 H1596 H 0.27065 0.82322 0.99185
 H1597 H 0.28785 0.76063 0.89829
 H1598 H 0.28807 0.74620 0.85938
 H1599 H 0.21944 0.77365 0.84954
 H1600 H 0.21929 0.78778 0.88777
 C1601 C 0.24289 0.85779 0.04634
 C1602 C 0.24126 0.84764 0.06712
 C1603 C 0.23691 0.82418 0.06885
 C1604 C 0.23420 0.81079 0.04935
 C1605 C 0.23586 0.82095 0.02835
 C1606 C 0.24073 0.84471 0.02640
 N1607 N 0.23514 0.81489 0.09073
 N1608 N 0.23111 0.79389 0.09492
 C1609 C 0.22997 0.78646 0.11764
 C1610 C 0.22796 0.76309 0.12241
 C1611 C 0.22872 0.75568 0.14458
 C1612 C 0.23159 0.77163 0.16224
 C1613 C 0.23251 0.79505 0.15732
 C1614 C 0.23171 0.80237 0.13539
 H1615 H 0.24576 0.87614 0.04575
 H1616 H 0.24315 0.85820 0.08203
 H1617 H 0.23045 0.79262 0.05035
 H1618 H 0.23256 0.81015 0.01387
 H1619 H 0.22649 0.75059 0.10895
 H1620 H 0.22800 0.73753 0.14783
 H1621 H 0.23441 0.80787 0.17048
 H1622 H 0.23299 0.82053 0.13234
 C1623 C 0.74357 0.31266 0.51743
 C1624 C 0.74066 0.29916 0.53641
 C1625 C 0.74060 0.30919 0.55775
 C1626 C 0.74387 0.33298 0.55988
 C1627 C 0.74717 0.34638 0.54111
 C1628 C 0.74746 0.33662 0.51940
 N1629 N 0.73730 0.29527 0.57710
 N1630 N 0.73200 0.30452 0.59571
 C1631 C 0.72969 0.29273 0.61638
 C1632 C 0.72282 0.30546 0.63503
 C1633 C 0.72356 0.29618 0.65622
 C1634 C 0.73114 0.27381 0.65929
 C1635 C 0.73663 0.26035 0.64046
 C1636 C 0.73602 0.26982 0.61903
 H1637 H 0.74212 0.30413 0.50140
 H1638 H 0.73787 0.28087 0.53443
 H1639 H 0.74397 0.34129 0.57613
 H1640 H 0.74946 0.36469 0.54349
 H1641 H 0.71789 0.32308 0.63322
 H1642 H 0.71920 0.30691 0.67043
 H1643 H 0.74278 0.24315 0.64244
 H1644 H 0.74148 0.25968 0.60480
 C1645 C 0.23120 0.17553 0.51784
 C1646 C 0.22832 0.18906 0.53706
 C1647 C 0.24498 0.18902 0.55414
 C1648 C 0.26411 0.17465 0.55216
 C1649 C 0.26662 0.16059 0.53336
 C1650 C 0.25078 0.16138 0.51521
 N1651 N 0.24129 0.20197 0.57425
 N1652 N 0.25840 0.20858 0.58660
 C1653 C 0.25512 0.21912 0.60805
 C1654 C 0.27400 0.23085 0.61838
 C1655 C 0.27241 0.23834 0.64060
 C1656 C 0.25208 0.23354 0.65294
 C1657 C 0.23286 0.22254 0.64231
 C1658 C 0.23425 0.21562 0.61997
 H1659 H 0.21795 0.17597 0.50493
 H1660 H 0.21307 0.19959 0.53864
 H1661 H 0.27661 0.17353 0.56567
 H1662 H 0.28070 0.14869 0.53382
 H1663 H 0.29026 0.23348 0.60942
 H1664 H 0.28753 0.24656 0.64852
 H1665 H 0.21702 0.21862 0.65154
 H1666 H 0.21953 0.20638 0.61243
 C1667 C 0.76794 0.67553 0.02266
 C1668 C 0.76879 0.68919 0.04207
 C1669 C 0.75167 0.68659 0.05852
 C1670 C 0.73379 0.66995 0.05537
 C1671 C 0.73301 0.65620 0.03616
 C1672 C 0.74970 0.65908 0.01900
 N1673 N 0.75325 0.70000 0.07878
 N1674 N 0.73698 0.69878 0.09321
 C1675 C 0.73752 0.71038 0.11441
 C1676 C 0.71873 0.70646 0.12879
 C1677 C 0.71939 0.71496 0.15059
 C1678 C 0.73890 0.72780 0.15849
 C1679 C 0.75733 0.73286 0.14371
 C1680 C 0.75674 0.72405 0.12176
 H1681 H 0.78167 0.67769 0.01041
 H1682 H 0.78297 0.70163 0.04440
 H1683 H 0.72066 0.66708 0.06807
 H1684 H 0.71956 0.64291 0.03536
 H1685 H 0.70383 0.69601 0.12330
 H1686 H 0.70485 0.71093 0.16152
 H1687 H 0.77262 0.74260 0.14943
 H1688 H 0.77149 0.72727 0.11087
 C1689 C 0.12217 0.53488 0.26911
 C1690 C 0.13515 0.55540 0.26868
 C1691 C 0.14928 0.56085 0.25051
 C1692 C 0.15085 0.54503 0.23276
 C1693 C 0.13830 0.52405 0.23340
 C1694 C 0.12368 0.51839 0.25166
 N1695 N 0.16155 0.58260 0.25086
 N1696 N 0.17058 0.59205 0.23381
 C1697 C 0.18263 0.61394 0.23576
 C1698 C 0.18827 0.62636 0.21660
 C1699 C 0.19963 0.64794 0.21835
 C1700 C 0.20592 0.65729 0.23935
 C1701 C 0.20030 0.64466 0.25847
 C1702 C 0.18873 0.62339 0.25672
 H1703 H 0.11041 0.53271 0.28300
 H1704 H 0.13356 0.56755 0.28237
 H1705 H 0.16170 0.54887 0.21847
 H1706 H 0.13954 0.51233 0.21932
 H1707 H 0.18369 0.61939 0.20030
 H1708 H 0.20375 0.65715 0.20330
 H1709 H 0.20473 0.65129 0.27494
 H1710 H 0.18469 0.61426 0.27183
 C1711 C 0.64668 0.02122 0.72363
 C1712 C 0.65961 0.04160 0.72023
 C1713 C 0.65593 0.06097 0.73366
 C1714 C 0.63877 0.05970 0.75036
 C1715 C 0.62567 0.03950 0.75360
 C1716 C 0.62979 0.01947 0.74079
 N1717 N 0.66949 0.08173 0.73010
 N1718 N 0.66887 0.09835 0.74408
 C1719 C 0.68176 0.11963 0.74204
 C1720 C 0.68329 0.13400 0.76083
 C1721 C 0.69590 0.15469 0.76022
 C1722 C 0.70700 0.16190 0.74057
 C1723 C 0.70493 0.14786 0.72134
 C1724 C 0.69260 0.12666 0.72213
 H1725 H 0.64973 0.00672 0.71268
 H1726 H 0.67251 0.04228 0.70705
 H1727 H 0.63508 0.07452 0.76067
 H1728 H 0.61187 0.04009 0.76585
 H1729 H 0.67491 0.12894 0.77621
 H1730 H 0.69688 0.16519 0.77525
 H1731 H 0.71328 0.15298 0.70597
 H1732 H 0.69147 0.11591 0.70730
 C1733 C 0.85672 0.02967 0.27482
 C1734 C 0.84577 0.05074 0.27649
 C1735 C 0.84333 0.06442 0.25788
 C1736 C 0.85130 0.05623 0.23717
 C1737 C 0.86229 0.03506 0.23542
 C1738 C 0.86632 0.02164 0.25445
 N1739 N 0.83255 0.08629 0.26048
 N1740 N 0.82992 0.09965 0.24419
 C1741 C 0.81921 0.12158 0.24616
 C1742 C 0.81590 0.13393 0.22676
 C1743 C 0.80499 0.15499 0.22751
 C1744 C 0.79713 0.16448 0.24782
 C1745 C 0.80098 0.15235 0.26752
 C1746 C 0.81184 0.13098 0.26670
 H1747 H 0.85748 0.01991 0.28980
 H1748 H 0.83917 0.05646 0.29249
 H1749 H 0.84904 0.06615 0.22229
 H1750 H 0.86746 0.02936 0.21899
 H1751 H 0.82158 0.12703 0.21087
 H1752 H 0.80263 0.16382 0.21198
 H1753 H 0.79518 0.15913 0.28341
 H1754 H 0.81432 0.12180 0.28199
 C1755 C 0.36070 0.52317 0.77336
 C1756 C 0.34984 0.54404 0.77701
 C1757 C 0.35503 0.56273 0.76359
 C1758 C 0.37126 0.56015 0.74618
 C1759 C 0.38216 0.53920 0.74242
 C1760 C 0.37685 0.52005 0.75575
 N1761 N 0.34376 0.58404 0.76808
 N1762 N 0.34819 0.60186 0.75679
 C1763 C 0.33688 0.62326 0.76050
 C1764 C 0.34131 0.64082 0.74548
 C1765 C 0.32932 0.66125 0.74711
 C1766 C 0.31275 0.66480 0.76405
 C1767 C 0.30910 0.64767 0.77991
 C1768 C 0.32096 0.62691 0.77806
 H1769 H 0.35667 0.50932 0.78456
 H1770 H 0.33754 0.54573 0.79061
 H1771 H 0.37583 0.57443 0.73567
 H1772 H 0.39528 0.53849 0.72951
 H1773 H 0.35357 0.63834 0.73197
 H1774 H 0.33260 0.67417 0.73470
 H1775 H 0.29631 0.64988 0.79302
 H1776 H 0.31733 0.61361 0.78997
 C1777 C 0.34940 0.47712 0.74839
 C1778 C 0.33526 0.45726 0.74667
 C1779 C 0.34512 0.43565 0.74709
 C1780 C 0.36948 0.43408 0.74927
 C1781 C 0.38359 0.45388 0.75168
 C1782 C 0.37384 0.47589 0.75188
 N1783 N 0.33007 0.41564 0.74596
 N1784 N 0.33724 0.39632 0.73909
 C1785 C 0.32252 0.37606 0.73912
 C1786 C 0.32791 0.35763 0.72500
 C1787 C 0.31447 0.33728 0.72538
 C1788 C 0.29580 0.33479 0.74044
 C1789 C 0.29041 0.35329 0.75462
 C1790 C 0.30345 0.37386 0.75376
 H1791 H 0.34089 0.49326 0.74676
 H1792 H 0.31653 0.45873 0.74462
 H1793 H 0.37754 0.41755 0.74963
 H1794 H 0.40229 0.45206 0.75367
 H1795 H 0.34264 0.35901 0.71373
 H1796 H 0.31917 0.32321 0.71447
 H1797 H 0.27616 0.35179 0.76642
 H1798 H 0.29909 0.38778 0.76498
 C1799 C 0.83788 0.97945 0.24946
 C1800 C 0.82343 0.95973 0.24754
 C1801 C 0.83285 0.93793 0.24902
 C1802 C 0.85673 0.93602 0.25377
 C1803 C 0.87105 0.95557 0.25637
 C1804 C 0.86215 0.97776 0.25362
 N1805 N 0.81801 0.91792 0.24607
 N1806 N 0.82605 0.89898 0.23906
 C1807 C 0.81197 0.87832 0.23751
 C1808 C 0.82002 0.85963 0.22498
 C1809 C 0.80773 0.83854 0.22494
 C1810 C 0.78754 0.83574 0.23800
 C1811 C 0.77921 0.85465 0.25010
 C1812 C 0.79114 0.87580 0.24968
 H1813 H 0.82998 0.99582 0.24707
 H1814 H 0.80494 0.96145 0.24412
 H1815 H 0.86434 0.91938 0.25540
 H1816 H 0.88955 0.95338 0.25935
 H1817 H 0.83613 0.86128 0.21560
 H1818 H 0.81463 0.82417 0.21568
 H1819 H 0.76367 0.85291 0.26031
 H1820 H 0.78463 0.88987 0.25961
 C1821 C 0.61577 0.95389 0.74541
 C1822 C 0.62705 0.93342 0.74937
 C1823 C 0.65117 0.93327 0.75320
 C1824 C 0.66392 0.95415 0.75321
 C1825 C 0.65256 0.97482 0.74954
 C1826 C 0.62822 0.97509 0.74508
 N1827 N 0.66203 0.91173 0.75703
 N1828 N 0.68416 0.90951 0.75762
 C1829 C 0.69488 0.88781 0.76093
 C1830 C 0.71843 0.88548 0.75515
 C1831 C 0.72895 0.86417 0.75601
 C1832 C 0.71633 0.84481 0.76335
 C1833 C 0.69304 0.84730 0.77033
 C1834 C 0.68228 0.86861 0.76889
 H1835 H 0.59701 0.95324 0.74273
 H1836 H 0.61690 0.91755 0.74944
 H1837 H 0.68256 0.95457 0.75650
 H1838 H 0.66293 0.99048 0.75085
 H1839 H 0.72840 0.90004 0.74903
 H1840 H 0.74687 0.86266 0.75038
 H1841 H 0.68285 0.83256 0.77574
 H1842 H 0.66408 0.86998 0.77359
 C1843 C 0.10836 0.45283 0.24893
 C1844 C 0.11942 0.43191 0.25048
 C1845 C 0.14375 0.43103 0.25210
 C1846 C 0.15701 0.45162 0.25205
 C1847 C 0.14592 0.47276 0.25085
 C1848 C 0.12125 0.47383 0.24909
 N1849 N 0.15427 0.40908 0.25415
 N1850 N 0.17621 0.40620 0.25221
 C1851 C 0.18649 0.38412 0.25414
 C1852 C 0.20887 0.38091 0.24539
 C1853 C 0.21892 0.35938 0.24562
 C1854 C 0.20706 0.34064 0.25522
 C1855 C 0.18499 0.34400 0.26489
 C1856 C 0.17463 0.36553 0.26411
 H1857 H 0.08942 0.45272 0.24806
 H1858 H 0.10892 0.41625 0.25056
 H1859 H 0.17589 0.45140 0.25355
 H1860 H 0.15682 0.48807 0.25201
 H1861 H 0.21827 0.39503 0.23774
 H1862 H 0.23599 0.35730 0.23812
 H1863 H 0.17544 0.32982 0.27228
 H1864 H 0.15736 0.36762 0.27114
 C1865 C 0.04436 0.26028 0.88030
 C1866 C 0.06710 0.25820 0.87244
 C1867 C 0.07247 0.24069 0.85746
 C1868 C 0.05526 0.22429 0.85133
 C1869 C 0.03240 0.22653 0.85891
 C1870 C 0.02618 0.24547 0.87230
 N1871 N 0.09471 0.24139 0.84691
 N1872 N 0.10219 0.22478 0.83533
 C1873 C 0.12325 0.22749 0.82293
 C1874 C 0.13616 0.20831 0.81717
 C1875 C 0.15665 0.21088 0.80475
 C1876 C 0.16385 0.23261 0.79742
 C1877 C 0.15061 0.25171 0.80281
 C1878 C 0.13056 0.24921 0.81569
 H1879 H 0.04127 0.27372 0.89240
 H1880 H 0.08051 0.27058 0.87765
 H1881 H 0.05920 0.21040 0.83992
 H1882 H 0.01923 0.21400 0.85349
 H1883 H 0.13047 0.19149 0.82252
 H1884 H 0.16667 0.19594 0.80060
 H1885 H 0.15599 0.26860 0.79738
 H1886 H 0.12054 0.26419 0.81970
 C1887 C 0.52024 0.71966 0.36723
 C1888 C 0.54137 0.71512 0.35651
 C1889 C 0.56089 0.72953 0.36019
 C1890 C 0.55985 0.74710 0.37623
 C1891 C 0.53900 0.75139 0.38718
 C1892 C 0.51826 0.73897 0.38152
 N1893 N 0.58121 0.72731 0.34666
 N1894 N 0.59346 0.74509 0.34224
 C1895 C 0.61420 0.74454 0.32919
 C1896 C 0.62238 0.76487 0.31974
 C1897 C 0.64267 0.76514 0.30694
 C1898 C 0.65538 0.74513 0.30400
 C1899 C 0.64736 0.72476 0.31378
 C1900 C 0.62668 0.72439 0.32613
 H1901 H 0.50509 0.70872 0.36364
 H1902 H 0.54218 0.70110 0.34456
 H1903 H 0.57517 0.75774 0.38006
 H1904 H 0.53937 0.76473 0.39984
 H1905 H 0.61285 0.78048 0.32217
 H1906 H 0.64867 0.78106 0.29967
 H1907 H 0.65692 0.70913 0.31163
 H1908 H 0.62064 0.70856 0.33352
 C1909 C 0.52381 0.22669 0.13985
 C1910 C 0.54354 0.22670 0.15342
 C1911 C 0.55628 0.24693 0.15749
 C1912 C 0.54868 0.26746 0.14858
 C1913 C 0.52877 0.26758 0.13516
 C1914 C 0.51651 0.24698 0.12976
 N1915 N 0.57731 0.24602 0.17013
 N1916 N 0.59143 0.26306 0.17174
 C1917 C 0.61288 0.26164 0.18368
 C1918 C 0.62969 0.27916 0.18149
 C1919 C 0.65162 0.27730 0.19135
 C1920 C 0.65685 0.25792 0.20378
 C1921 C 0.63962 0.24070 0.20660
 C1922 C 0.61780 0.24248 0.19651
 H1923 H 0.51428 0.21070 0.13688
 H1924 H 0.54916 0.21083 0.16048
 H1925 H 0.55807 0.28343 0.15205
 H1926 H 0.52305 0.28392 0.12944
 H1927 H 0.62597 0.29398 0.17163
 H1928 H 0.66450 0.29097 0.18916
 H1929 H 0.64319 0.22562 0.21613
 H1930 H 0.60494 0.22877 0.19847
 C1931 C 0.05037 0.77394 0.62174
 C1932 C 0.07236 0.77354 0.63177
 C1933 C 0.07719 0.75709 0.64754
 C1934 C 0.05989 0.74083 0.65324
 C1935 C 0.03794 0.74121 0.64333
 C1936 C 0.03248 0.75814 0.62784
 N1937 N 0.09980 0.75709 0.65755
 N1938 N 0.10509 0.74201 0.67152
 C1939 C 0.12738 0.74198 0.68208
 C1940 C 0.13150 0.72547 0.69801
 C1941 C 0.15267 0.72565 0.70953
 C1942 C 0.17003 0.74242 0.70516
 C1943 C 0.16601 0.75869 0.68872
 C1944 C 0.14480 0.75850 0.67727
 H1945 H 0.04786 0.78630 0.60883
 H1946 H 0.08581 0.78588 0.62701
 H1947 H 0.06334 0.72773 0.66526
 H1948 H 0.02504 0.72818 0.64772
 H1949 H 0.11812 0.71268 0.70174
 H1950 H 0.15527 0.71280 0.72201
 H1951 H 0.17907 0.77179 0.68494
 H1952 H 0.14191 0.77140 0.66491
 C1953 C 0.99062 0.76260 0.65557
 C1954 C 0.97127 0.76289 0.66972
 C1955 C 0.94895 0.75760 0.66139
 C1956 C 0.94588 0.75302 0.63855
 C1957 C 0.96506 0.75297 0.62439
 C1958 C 0.98797 0.75657 0.63274
 N1959 N 0.92945 0.75710 0.67618
 N1960 N 0.91002 0.74828 0.66972
 C1961 C 0.88959 0.74782 0.68322
 C1962 C 0.86970 0.73638 0.67485
 C1963 C 0.84888 0.73658 0.68675
 C1964 C 0.84762 0.74844 0.70727
 C1965 C 0.86784 0.75958 0.71592
 C1966 C 0.88878 0.75924 0.70395
 H1967 H 1.00744 0.76752 0.66263
 H1968 H 0.97368 0.76714 0.68721
 H1969 H 0.92864 0.74958 0.63157
 H1970 H 0.96211 0.74962 0.60679
 H1971 H 0.87027 0.72757 0.65885
 H1972 H 0.83367 0.72781 0.67956
 H1973 H 0.86741 0.76882 0.73169
 H1974 H 0.90409 0.76824 0.71063
 C1975 C 0.46302 0.21771 0.13177
 C1976 C 0.44533 0.21292 0.14708
 C1977 C 0.43984 0.22898 0.16355
 C1978 C 0.45306 0.24941 0.16550
 C1979 C 0.47048 0.25435 0.15013
 C1980 C 0.47491 0.23920 0.13219
 N1981 N 0.41911 0.22560 0.17630
 N1982 N 0.41339 0.24001 0.19125
 C1983 C 0.39117 0.23888 0.20183
 C1984 C 0.38587 0.25577 0.21758
 C1985 C 0.36304 0.25772 0.22533
 C1986 C 0.34522 0.24280 0.21722
 C1987 C 0.35085 0.22519 0.20212
 C1988 C 0.37369 0.22321 0.19450
 H1989 H 0.46709 0.20451 0.11971
 H1990 H 0.43545 0.19692 0.14574
 H1991 H 0.44930 0.26203 0.17831
 H1992 H 0.48007 0.27050 0.15172
 H1993 H 0.39925 0.26803 0.22312
 H1994 H 0.35925 0.27136 0.23709
 H1995 H 0.33754 0.21321 0.19587
 H1996 H 0.37745 0.21006 0.18221
 C1997 C 0.45192 0.75138 0.38279
 C1998 C 0.43354 0.75512 0.36830
 C1999 C 0.43726 0.75486 0.34541
 C2000 C 0.45978 0.75159 0.33693
 C2001 C 0.47847 0.74836 0.35149
 C2002 C 0.47469 0.74734 0.37474
 N2003 N 0.41755 0.75780 0.33139
 N2004 N 0.41736 0.75320 0.31064
 C2005 C 0.39616 0.75597 0.29852
 C2006 C 0.39125 0.74198 0.27990
 C2007 C 0.36866 0.74102 0.27087
 C2008 C 0.35090 0.75425 0.28037
 C2009 C 0.35653 0.76964 0.29787
 C2010 C 0.37893 0.77047 0.30687
 H2011 H 0.44838 0.75154 0.40051
 H2012 H 0.41620 0.75789 0.37492
 H2013 H 0.46295 0.75194 0.31916
 H2014 H 0.49573 0.74717 0.34435
 H2015 H 0.40445 0.73076 0.27333
 H2016 H 0.36488 0.72923 0.25716
 H2017 H 0.34343 0.78050 0.30520
 H2018 H 0.38252 0.78174 0.32102
 C2019 C 0.99095 0.25076 0.83680
 C2020 C 0.97456 0.25255 0.81962
 C2021 C 0.95077 0.25347 0.82462
 C2022 C 0.94330 0.25183 0.84675
 C2023 C 0.95941 0.24949 0.86374
 C2024 C 0.98357 0.24863 0.85921
 N2025 N 0.93389 0.25619 0.80746
 N2026 N 0.91592 0.26772 0.81196
 C2027 C 0.89602 0.26864 0.79784
 C2028 C 0.87833 0.28334 0.80421
 C2029 C 0.85623 0.28099 0.79467
 C2030 C 0.85151 0.26371 0.77862
 C2031 C 0.86984 0.25006 0.77098
 C2032 C 0.89206 0.25249 0.78061
 H2033 H 1.00924 0.25175 0.83234
 H2034 H 0.98045 0.25409 0.80256
 H2035 H 0.92487 0.25231 0.85088
 H2036 H 0.95302 0.24850 0.88068
 H2037 H 0.88129 0.29573 0.81759
 H2038 H 0.84261 0.29209 0.80059
 H2039 H 0.86672 0.23676 0.75849
 H2040 H 0.90559 0.24082 0.77567
 C2041 C 0.60420 0.98199 0.70293
 C2042 C 0.59285 0.98374 0.68245
 C2043 C 0.57662 1.00074 0.67887
 C2044 C 0.57151 1.01603 0.69634
 C2045 C 0.58288 1.01430 0.71704
 C2046 C 0.59928 0.99701 0.72091
 N2047 N 0.56701 1.00250 0.65686
 N2048 N 0.55183 1.01680 0.65088
 C2049 C 0.54427 1.01723 0.62794
 C2050 C 0.52573 1.03102 0.62143
 C2051 C 0.51835 1.03131 0.59899
 C2052 C 0.52961 1.01793 0.58270
 C2053 C 0.54831 1.00437 0.58946
 C2054 C 0.55546 1.00398 0.61163
 H2055 H 0.61757 0.96934 0.70406
 H2056 H 0.59730 0.97213 0.66895
 H2057 H 0.55928 1.02959 0.69386
 H2058 H 0.57928 1.02683 0.72998
 H2059 H 0.51691 1.04143 0.63373
 H2060 H 0.50391 1.04193 0.59443
 H2061 H 0.55750 0.99373 0.57761
 H2062 H 0.56989 0.99325 0.61596
 C2063 C 0.07784 0.51924 1.22808
 C2064 C 0.06387 0.52298 1.20935
 C2065 C 0.06351 0.50738 1.19146
 C2066 C 0.07801 0.48838 1.19223
 C2067 C 0.09228 0.48482 1.21071
 C2068 C 0.09190 0.49972 1.22949
 N2069 N 0.04901 0.51127 1.17235
 N2070 N 0.04456 0.49510 1.15842
 C2071 C 0.03160 0.49748 1.13816
 C2072 C 0.02755 0.47784 1.12507
 C2073 C 0.01831 0.47937 1.10369
 C2074 C 0.01280 0.50066 1.09491
 C2075 C 0.01535 0.52037 1.10851
 C2076 C 0.02484 0.51881 1.13009
 H2077 H 0.07756 0.53156 1.24174
 H2078 H 0.05314 0.53795 1.20887
 H2079 H 0.07868 0.47642 1.17830
 H2080 H 0.10374 0.47045 1.20981
 H2081 H 0.03265 0.46134 1.13110
 H2082 H 0.01651 0.46393 1.09353
 H2083 H 0.01149 0.53700 1.10197
 H2084 H 0.02789 0.53425 1.13996
 C2085 C -0.11060 -0.02070 1.21459
 C2086 C -0.09844 -0.02200 1.19461
 C2087 C -0.08119 -0.00586 1.18941
 C2088 C -0.07665 0.01242 1.20434
 C2089 C -0.08928 0.01406 1.22444
 C2090 C -0.10583 -0.00315 1.23081
 N2091 N -0.07059 -0.00776 1.16787
 N2092 N -0.05121 0.00162 1.16219
 C2093 C -0.04298 -0.00125 1.13968
 C2094 C -0.01950 0.00372 1.13435
 C2095 C -0.01157 0.00130 1.11228
 C2096 C -0.02722 -0.00561 1.09519
 C2097 C -0.05060 -0.01086 1.10068
 C2098 C -0.05834 -0.00889 1.12263
 H2099 H -0.12435 -0.03344 1.21630
 H2100 H -0.10282 -0.03565 1.18279
 H2101 H -0.06418 0.02587 1.20005
 H2102 H -0.08683 0.02944 1.23451
 H2103 H -0.00740 0.00958 1.14725
 H2104 H 0.00648 0.00573 1.10842
 H2105 H -0.06305 -0.01618 1.08786
 H2106 H -0.07657 -0.01282 1.12616
 C2107 C 0.43052 0.49025 0.73465
 C2108 C 0.44371 0.48636 0.71535
 C2109 C 0.43328 0.48688 0.69430
 C2110 C 0.40947 0.49213 0.69272
 C2111 C 0.39636 0.49653 0.71195
 C2112 C 0.40655 0.49579 0.73340
 N2113 N 0.44701 0.48184 0.67483
 N2114 N 0.43733 0.47648 0.65628
 C2115 C 0.45000 0.47222 0.63604
 C2116 C 0.43721 0.46560 0.61704
 C2117 C 0.44804 0.46440 0.59625
 C2118 C 0.47204 0.46979 0.59396
 C2119 C 0.48534 0.47483 0.61326
 C2120 C 0.47437 0.47611 0.63422
 H2121 H 0.43919 0.48794 0.75041
 H2122 H 0.46197 0.48209 0.71688
 H2123 H 0.40093 0.49270 0.67663
 H2124 H 0.37792 0.49999 0.71015
 H2125 H 0.41849 0.46245 0.61818
 H2126 H 0.43733 0.46051 0.58169
 H2127 H 0.50376 0.47940 0.61194
 H2128 H 0.48465 0.48122 0.64871
 C2129 C 0.39804 0.48324 -0.20562
 C2130 C 0.40846 0.48621 -0.18469
 C2131 C 0.42545 0.50339 -0.18084
 C2132 C 0.43233 0.51754 -0.19837
 C2133 C 0.42173 0.51479 -0.21936
 C2134 C 0.40447 0.49743 -0.22356
 N2135 N 0.43386 0.50696 -0.15852
 N2136 N 0.45122 0.51999 -0.15312
 C2137 C 0.45748 0.52300 -0.13005
 C2138 C 0.48054 0.52910 -0.12387
 C2139 C 0.48726 0.52934 -0.10131
 C2140 C 0.47084 0.52379 -0.08466
 C2141 C 0.44738 0.51942 -0.09100
 C2142 C 0.44084 0.51887 -0.11335
 H2143 H 0.38407 0.47053 -0.20711
 H2144 H 0.40270 0.47547 -0.17114
 H2145 H 0.44516 0.53123 -0.19565
 H2146 H 0.42654 0.52668 -0.23230
 H2147 H 0.49353 0.53255 -0.13656
 H2148 H 0.50544 0.53279 -0.09703
 H2149 H 0.43410 0.51539 -0.07872
 H2150 H 0.42281 0.51465 -0.11763
 C2151 C -0.11424 0.98852 0.29463
 C2152 C -0.10248 0.99007 0.31493
 C2153 C -0.08036 1.00042 0.31651
 C2154 C -0.06945 1.00826 0.29710
 C2155 C -0.08122 1.00662 0.27648
 C2156 C -0.10442 0.99738 0.27471
 N2157 N -0.07048 1.00360 0.33834
 N2158 N -0.05041 1.01255 0.34280
 C2159 C -0.04323 1.01546 0.36571
 C2160 C -0.01974 1.02047 0.37123
 C2161 C -0.01257 1.02184 0.39369
 C2162 C -0.02892 1.01837 0.41093
 C2163 C -0.05259 1.01445 0.40517
 C2164 C -0.05962 1.01295 0.38297
 H2165 H -0.13190 0.98142 0.29506
 H2166 H -0.11111 0.98389 0.32979
 H2167 H -0.05209 1.01610 0.29793
 H2168 H -0.07171 1.01296 0.26245
 H2169 H -0.00688 1.02265 0.35816
 H2170 H 0.00579 1.02490 0.39752
 H2171 H -0.06581 1.01196 0.41787
 H2172 H -0.07795 1.00951 0.37933
 C2173 C 0.06776 0.49206 0.27203
 C2174 C 0.05538 0.48829 0.29182
 C2175 C 0.06727 0.48546 0.31192
 C2176 C 0.09185 0.48648 0.31203
 C2177 C 0.10422 0.49045 0.29240
 C2178 C 0.09255 0.49382 0.27197
 N2179 N 0.05423 0.48199 0.33207
 N2180 N 0.06462 0.47724 0.35013
 C2181 C 0.05306 0.47484 0.37114
 C2182 C 0.06693 0.47119 0.38987
 C2183 C 0.05725 0.47190 0.41113
 C2184 C 0.03333 0.47604 0.41409
 C2185 C 0.01897 0.47821 0.39524
 C2186 C 0.02883 0.47778 0.37380
 H2187 H 0.05762 0.49299 0.25690
 H2188 H 0.03643 0.48725 0.29142
 H2189 H 0.10157 0.48429 0.32731
 H2190 H 0.12318 0.49094 0.29310
 H2191 H 0.08558 0.46885 0.38802
 H2192 H 0.06867 0.47012 0.42540
 H2193 H 0.00053 0.48162 0.39716
 H2194 H 0.01777 0.48060 0.35950
 C2195 C 0.61075 -0.00006 -0.21505
 C2196 C 0.59877 -0.00226 -0.19497
 C2197 C 0.57475 -0.00722 -0.19469
 C2198 C 0.56263 -0.00975 -0.21500
 C2199 C 0.57467 -0.00756 -0.23532
 C2200 C 0.59903 -0.00233 -0.23574
 N2201 N 0.56377 -0.01015 -0.17341
 N2202 N 0.54199 -0.01416 -0.17029
 C2203 C 0.53315 -0.01677 -0.14797
 C2204 C 0.50894 -0.01682 -0.14381
 C2205 C 0.50042 -0.01702 -0.12180
 C2206 C 0.51609 -0.01718 -0.10368
 C2207 C 0.54020 -0.01853 -0.10809
 C2208 C 0.54861 -0.01831 -0.12985
 H2209 H 0.62951 0.00309 -0.21448
 H2210 H 0.60839 -0.00050 -0.17944
 H2211 H 0.54407 -0.01395 -0.21517
 H2212 H 0.56491 -0.01085 -0.25052
 H2213 H 0.49674 -0.01581 -0.15756
 H2214 H 0.48177 -0.01589 -0.11894
 H2215 H 0.55277 -0.01899 -0.09457
 H2216 H 0.56735 -0.01872 -0.13244
 C2217 C 0.70580 0.63970 -0.00640
 C2218 C 0.68458 0.62761 -0.00912
 C2219 C 0.68391 0.60376 -0.00970
 C2220 C 0.70503 0.59205 -0.00822
 C2221 C 0.72647 0.60418 -0.00593
 C2222 C 0.72723 0.62833 -0.00415
 N2223 N 0.66157 0.59205 -0.01164
 N2224 N 0.65874 0.57077 -0.00809
 C2225 C 0.63615 0.55945 -0.00956
 C2226 C 0.63295 0.53814 0.00037
 C2227 C 0.61076 0.52750 0.00099
 C2228 C 0.59135 0.53773 -0.00887
 C2229 C 0.59476 0.55863 -0.01977
 C2230 C 0.61692 0.56954 -0.01991
 H2231 H 0.70551 0.65820 -0.00583
 H2232 H 0.66850 0.63690 -0.01048
 H2233 H 0.70501 0.57357 -0.00917
 H2234 H 0.74225 0.59442 -0.00591
 H2235 H 0.64757 0.53012 0.00836
 H2236 H 0.60869 0.51138 0.00944
 H2237 H 0.58012 0.56696 -0.02739
 H2238 H 0.61897 0.58595 -0.02783
 C2239 C 0.22593 1.11520 0.51258
 C2240 C 0.20577 1.10111 0.51344
 C2241 C 0.18864 1.10199 0.49681
 C2242 C 0.19155 1.11773 0.47964
 C2243 C 0.21156 1.13189 0.47879
 C2244 C 0.22982 1.13024 0.49469
 N2245 N 0.16823 1.08724 0.49798
 N2246 N 0.15266 1.08646 0.48272
 C2247 C 0.13195 1.07215 0.48407
 C2248 C 0.11519 1.07272 0.46701
 C2249 C 0.09407 1.06013 0.46860
 C2250 C 0.08935 1.04676 0.48740
 C2251 C 0.10663 1.04565 0.50412
 C2252 C 0.12768 1.05819 0.50248
 H2253 H 0.23884 1.11411 0.52573
 H2254 H 0.20354 1.08941 0.52710
 H2255 H 0.17820 1.11932 0.46697
 H2256 H 0.21220 1.14430 0.46570
 H2257 H 0.11827 1.08339 0.45269
 H2258 H 0.08114 1.06150 0.45549
 H2259 H 0.10370 1.03548 0.51881
 H2260 H 0.14036 1.05733 0.51585
 C2261 C 0.19639 -0.13855 1.00875
 C2262 C 0.17615 -0.12618 1.01254
 C2263 C 0.17716 -0.10234 1.01372
 C2264 C 0.19892 -0.09093 1.01126
 C2265 C 0.21936 -0.10331 1.00777
 C2266 C 0.21847 -0.12747 1.00596
 N2267 N 0.15584 -0.09033 1.01735
 N2268 N 0.15454 -0.06876 1.01551
 C2269 C 0.13292 -0.05709 1.01857
 C2270 C 0.13075 -0.03532 1.00962
 C2271 C 0.10916 -0.02459 1.00983
 C2272 C 0.08946 -0.03516 1.01964
 C2273 C 0.09195 -0.05635 1.02991
 C2274 C 0.11348 -0.06739 1.02916
 H2275 H 0.19488 -0.15703 1.00814
 H2276 H 0.15955 -0.13525 1.01454
 H2277 H 0.20020 -0.07247 1.01248
 H2278 H 0.23575 -0.09376 1.00714
 H2279 H 0.14556 -0.02716 1.00146
 H2280 H 0.10762 -0.00831 1.00168
 H2281 H 0.07693 -0.06496 1.03730
 H2282 H 0.11477 -0.08416 1.03634
 C2283 C 0.70496 0.35694 0.50197
 C2284 C 0.68455 0.36888 0.50627
 C2285 C 0.68549 0.39237 0.51074
 C2286 C 0.70744 0.40384 0.51093
 C2287 C 0.72810 0.39181 0.50688
 C2288 C 0.72728 0.36805 0.50198
 N2289 N 0.66389 0.40382 0.51504
 N2290 N 0.66242 0.42548 0.51659
 C2291 C 0.64047 0.43650 0.52035
 C2292 C 0.63883 0.45977 0.51574
 C2293 C 0.61724 0.47055 0.51687
 C2294 C 0.59685 0.45841 0.52330
 C2295 C 0.59868 0.43538 0.52922
 C2296 C 0.62027 0.42442 0.52754
 H2297 H 0.70341 0.33869 0.49880
 H2298 H 0.66784 0.35973 0.50615
 H2299 H 0.70868 0.42200 0.51462
 H2300 H 0.74456 0.40120 0.50822
 H2301 H 0.65417 0.46936 0.51025
 H2302 H 0.61633 0.48827 0.51209
 H2303 H 0.58321 0.42554 0.53391
 H2304 H 0.62106 0.40645 0.53135
 C2305 C -0.20866 0.36228 0.51473
 C2306 C -0.18729 0.37438 0.51426
 C2307 C -0.18283 0.39095 0.49827
 C2308 C -0.20035 0.39548 0.48260
 C2309 C -0.22214 0.38370 0.48337
 C2310 C -0.22703 0.36711 0.49977
 N2311 N -0.16051 0.40291 0.49891
 N2312 N -0.15182 0.41436 0.48289
 C2313 C -0.12942 0.42613 0.48526
 C2314 C -0.11733 0.43390 0.46637
 C2315 C -0.09532 0.44513 0.46849
 C2316 C -0.08526 0.44925 0.48966
 C2317 C -0.09757 0.44153 0.50852
 C2318 C -0.11922 0.43001 0.50636
 H2319 H -0.21020 0.34880 0.52673
 H2320 H -0.17383 0.37044 0.52624
 H2321 H -0.19730 0.40819 0.46997
 H2322 H -0.23529 0.38746 0.47102
 H2323 H -0.12487 0.43107 0.44996
 H2324 H -0.08636 0.45090 0.45365
 H2325 H -0.09037 0.44425 0.52509
 H2326 H -0.12810 0.42433 0.52127
 C2327 C 0.28349 -0.13018 0.01426
 C2328 C 0.30392 -0.11723 0.01063
 C2329 C 0.30582 -0.10268 -0.00750
 C2330 C 0.28690 -0.10136 -0.02233
 C2331 C 0.26609 -0.11398 -0.01844
 C2332 C 0.26359 -0.12810 0.00042
 N2333 N 0.32681 -0.08889 -0.00953
 N2334 N 0.33362 -0.07914 -0.02730
 C2335 C 0.35458 -0.06495 -0.02697
 C2336 C 0.36736 -0.06106 -0.04659
 C2337 C 0.38868 -0.04842 -0.04591
 C2338 C 0.39723 -0.03904 -0.02561
 C2339 C 0.38375 -0.04235 -0.00623
 C2340 C 0.36289 -0.05520 -0.00688
 H2341 H 0.28374 -0.14196 0.02789
 H2342 H 0.31856 -0.11872 0.02196
 H2343 H 0.28802 -0.09028 -0.03656
 H2344 H 0.25169 -0.11257 -0.03006
 H2345 H 0.36117 -0.06838 -0.06227
 H2346 H 0.39857 -0.04624 -0.06113
 H2347 H 0.38957 -0.03551 0.00977
 H2348 H 0.35329 -0.05763 0.00847
 C2349 C 0.27475 1.10708 0.49187
 C2350 C 0.29537 1.09478 0.49287
 C2351 C 0.31698 1.10597 0.49627
 C2352 C 0.31799 1.12994 0.49725
 C2353 C 0.29740 1.14236 0.49563
 C2354 C 0.27514 1.13117 0.49444
 N2355 N 0.33758 1.09255 0.49769
 N2356 N 0.35686 1.10002 0.50611
 C2357 C 0.37721 1.08605 0.50642
 C2358 C 0.39691 1.09295 0.51911
 C2359 C 0.41731 1.08002 0.51871
 C2360 C 0.41839 1.06024 0.50518
 C2361 C 0.39845 1.05316 0.49288
 C2362 C 0.37806 1.06578 0.49361
 H2363 H 0.25869 1.09745 0.48872
 H2364 H 0.29446 1.07632 0.49118
 H2365 H 0.33464 1.13903 0.49902
 H2366 H 0.29869 1.16085 0.49624
 H2367 H 0.39654 1.10853 0.52909
 H2368 H 0.43251 1.08597 0.52817
 H2369 H 0.39876 1.03796 0.48235
 H2370 H 0.36318 1.06001 0.48363
 C2371 C -0.22619 0.61365 1.01985
 C2372 C -0.20576 0.60168 1.02435
 C2373 C -0.18572 0.60480 1.01125
 C2374 C -0.18642 0.62031 0.99366
 C2375 C -0.20676 0.63223 0.98913
 C2376 C -0.22747 0.62865 1.00165
 N2377 N -0.16491 0.59227 1.01596
 N2378 N -0.14654 0.59497 1.00418
 C2379 C -0.12517 0.58293 1.00713
 C2380 C -0.10747 0.58638 0.99144
 C2381 C -0.08691 0.57409 0.99231
 C2382 C -0.08333 0.55812 1.00915
 C2383 C -0.10064 0.55528 1.02562
 C2384 C -0.12159 0.56750 1.02452
 H2385 H -0.24117 0.61123 1.03067
 H2386 H -0.20551 0.59008 1.03821
 H2387 H -0.17110 0.62350 0.98349
 H2388 H -0.20573 0.64471 0.97611
 H2389 H -0.10990 0.59827 0.97805
 H2390 H -0.07386 0.57683 0.97949
 H2391 H -0.09838 0.54302 1.03872
 H2392 H -0.13503 0.56463 1.03692
 C2393 C 0.02655 0.73216 0.58533
 C2394 C 0.02906 0.71168 0.57348
 C2395 C 0.01454 0.69290 0.57818
 C2396 C -0.00181 0.69432 0.59544
 C2397 C -0.00388 0.71446 0.60773
 C2398 C 0.00954 0.73418 0.60231
 N2399 N 0.01696 0.67204 0.56600
 N2400 N -0.00078 0.65885 0.56296
 C2401 C 0.00105 0.63686 0.55285
 C2402 C -0.01877 0.62679 0.54276
 C2403 C -0.01796 0.60462 0.53408
 C2404 C 0.00254 0.59209 0.53613
 C2405 C 0.02240 0.60217 0.54639
 C2406 C 0.02177 0.62460 0.55446
 H2407 H 0.03796 0.74656 0.58134
 H2408 H 0.04211 0.71052 0.56047
 H2409 H -0.01250 0.67955 0.59987
 H2410 H -0.01563 0.71404 0.62179
 H2411 H -0.03486 0.63611 0.54173
 H2412 H -0.03352 0.59704 0.52636
 H2413 H 0.03832 0.59271 0.54814
 H2414 H 0.03712 0.63211 0.56259
 C2415 C 0.47608 0.22407 0.08231
 C2416 C 0.47690 0.20789 0.06506
 C2417 C 0.49764 0.19660 0.06072
 C2418 C 0.51815 0.20313 0.07222
 C2419 C 0.51743 0.21940 0.08929
 C2420 C 0.49595 0.22886 0.09581
 N2421 N 0.49681 0.17656 0.04698
 N2422 N 0.51291 0.16206 0.04819
 C2423 C 0.51129 0.14065 0.03673
 C2424 C 0.52565 0.12320 0.04374
 C2425 C 0.52179 0.10095 0.03583
 C2426 C 0.50377 0.09605 0.02040
 C2427 C 0.49018 0.11389 0.01249
 C2428 C 0.49379 0.13605 0.02074
 H2429 H 0.45961 0.23213 0.08586
 H2430 H 0.46105 0.20317 0.05600
 H2431 H 0.53460 0.19511 0.06851
 H2432 H 0.53378 0.22415 0.09738
 H2433 H 0.53906 0.12667 0.05621
 H2434 H 0.53261 0.08755 0.04209
 H2435 H 0.47625 0.11061 0.00050
 H2436 H 0.48251 0.14941 0.01515
 C2437 C 0.00742 0.22566 0.91451
 C2438 C 0.00488 0.20622 0.92742
 C2439 C -0.00908 0.18778 0.91990
 C2440 C -0.02084 0.18897 0.89948
 C2441 C -0.01840 0.20834 0.88657
 C2442 C -0.00459 0.22733 0.89404
 N2443 N -0.00948 0.16730 0.93232
 N2444 N -0.02022 0.14933 0.92525
 C2445 C -0.01927 0.12851 0.93707
 C2446 C -0.02959 0.10872 0.92764
 C2447 C -0.02698 0.08771 0.93786
 C2448 C -0.01396 0.08637 0.95768
 C2449 C -0.00422 0.10646 0.96738
 C2450 C -0.00684 0.12734 0.95717
 H2451 H 0.01903 0.23941 0.92033
 H2452 H 0.01441 0.20521 0.94297
 H2453 H -0.03132 0.17462 0.89312
 H2454 H -0.02670 0.20778 0.87037
 H2455 H -0.03916 0.10953 0.91209
 H2456 H -0.03484 0.07254 0.93008
 H2457 H 0.00575 0.10608 0.98273
 H2458 H 0.00126 0.14248 0.96477
 C2459 C 0.47177 0.70765 0.40261
 C2460 C 0.46858 0.68886 0.41619
 C2461 C 0.48296 0.68609 0.43463
 C2462 C 0.50052 0.70249 0.43979
 C2463 C 0.50370 0.72144 0.42628
 C2464 C 0.48908 0.72465 0.40767
 N2465 N 0.48106 0.66511 0.44613
 N2466 N 0.49431 0.66034 0.46231
 C2467 C 0.49329 0.63808 0.47156
 C2468 C 0.50913 0.63268 0.48831
 C2469 C 0.51085 0.61012 0.49517
 C2470 C 0.49682 0.59276 0.48509
 C2471 C 0.48020 0.59845 0.46902
 C2472 C 0.47836 0.62093 0.46238
 H2473 H 0.46113 0.70810 0.38774
 H2474 H 0.45551 0.67584 0.41176
 H2475 H 0.51222 0.70031 0.45376
 H2476 H 0.51782 0.73355 0.43016
 H2477 H 0.52075 0.64578 0.49541
 H2478 H 0.52374 0.60616 0.50769
 H2479 H 0.46894 0.58546 0.46123
 H2480 H 0.46590 0.62471 0.44942
 C2481 C 0.48678 0.77158 0.42601
 C2482 C 0.48610 0.79355 0.43532
 C2483 C 0.49325 0.81241 0.42290
 C2484 C 0.50106 0.80926 0.40099
 C2485 C 0.50171 0.78746 0.39166
 C2486 C 0.49520 0.76808 0.40411
 N2487 N 0.49194 0.83472 0.43258
 N2488 N 0.49858 0.85221 0.42181
 C2489 C 0.49737 0.87470 0.43101
 C2490 C 0.50685 0.89287 0.41894
 C2491 C 0.50659 0.91501 0.42775
 C2492 C 0.49665 0.91921 0.44879
 C2493 C 0.48670 0.90091 0.46067
 C2494 C 0.48712 0.87878 0.45187
 H2495 H 0.47992 0.75766 0.43584
 H2496 H 0.47958 0.79594 0.45211
 H2497 H 0.50635 0.82366 0.39092
 H2498 H 0.50724 0.78562 0.37449
 H2499 H 0.51470 0.88979 0.40279
 H2500 H 0.51429 0.92878 0.41816
 H2501 H 0.47896 0.90359 0.47693
 H2502 H 0.47959 0.86490 0.46141
 C2503 C -0.01569 0.27285 0.91183
 C2504 C -0.01960 0.29418 0.92160
 C2505 C -0.01222 0.31407 0.91094
 C2506 C -0.00162 0.31263 0.88996
 C2507 C 0.00224 0.29142 0.88015
 C2508 C -0.00369 0.27106 0.89132
 N2509 N -0.01493 0.33554 0.92201
 N2510 N -0.00663 0.35387 0.91377
 C2511 C -0.00827 0.37530 0.92511
 C2512 C 0.00372 0.39423 0.91648
 C2513 C 0.00414 0.41500 0.92815
 C2514 C -0.00765 0.41704 0.94860
 C2515 C -0.02032 0.39814 0.95685
 C2516 C -0.02057 0.37737 0.94523
 H2517 H -0.02251 0.25799 0.92032
 H2518 H -0.02830 0.29522 0.93759
 H2519 H 0.00383 0.32787 0.88119
 H2520 H 0.01029 0.29080 0.86384
 H2521 H 0.01323 0.39271 0.90095
 H2522 H 0.01385 0.42935 0.92127
 H2523 H -0.02961 0.39922 0.97254
 H2524 H -0.03001 0.36288 0.95214
 C2525 C 0.46711 0.27934 0.10536
 C2526 C 0.46300 0.29923 0.09372
 C2527 C 0.48018 0.30841 0.07983
 C2528 C 0.50168 0.29759 0.07757
 C2529 C 0.50601 0.27797 0.08945
 C2530 C 0.48908 0.26875 0.10408
 N2531 N 0.47590 0.32924 0.06881
 N2532 N 0.48919 0.33614 0.05325
 C2533 C 0.48657 0.35789 0.04346
 C2534 C 0.50141 0.36401 0.02600
 C2535 C 0.50174 0.38627 0.01819
 C2536 C 0.48733 0.40274 0.02800
 C2537 C 0.47158 0.39622 0.04480
 C2538 C 0.47115 0.37390 0.05247
 H2539 H 0.45274 0.27223 0.11487
 H2540 H 0.44624 0.30735 0.09528
 H2541 H 0.51525 0.30444 0.06683
 H2542 H 0.52270 0.26986 0.08726
 H2543 H 0.51337 0.35174 0.01905
 H2544 H 0.51403 0.39078 0.00517
 H2545 H 0.46008 0.40850 0.05246
 H2546 H 0.45952 0.36944 0.06602
 C2547 C -0.00304 0.77582 0.57911
 C2548 C -0.00846 0.79535 0.56735
 C2549 C -0.00788 0.81669 0.57804
 C2550 C -0.00158 0.81854 0.60057
 C2551 C 0.00424 0.79923 0.61222
 C2552 C 0.00405 0.77751 0.60168
 N2553 N -0.01277 0.83654 0.56565
 N2554 N -0.01701 0.85529 0.57561
 C2555 C -0.01946 0.87601 0.56393
 C2556 C -0.02480 0.89575 0.57606
 C2557 C -0.02369 0.91695 0.56590
 C2558 C -0.01694 0.91858 0.54347
 C2559 C -0.01272 0.89857 0.53105
 C2560 C -0.01404 0.87738 0.54120
 H2561 H -0.00503 0.75955 0.57048
 H2562 H -0.01351 0.79381 0.54998
 H2563 H -0.00091 0.83496 0.60915
 H2564 H 0.00887 0.80117 0.62967
 H2565 H -0.02889 0.89477 0.59363
 H2566 H -0.02713 0.93210 0.57586
 H2567 H -0.00779 0.89931 0.51365
 H2568 H -0.00981 0.86225 0.53155
 C2569 C 0.24327 0.35663 0.04096
 C2570 C 0.24725 0.34686 0.06161
 C2571 C 0.25271 0.32382 0.06312
 C2572 C 0.25362 0.31035 0.04360
 C2573 C 0.24963 0.32011 0.02278
 C2574 C 0.24423 0.34353 0.02102
 N2575 N 0.25802 0.31509 0.08468
 N2576 N 0.26303 0.29440 0.08841
 C2577 C 0.26816 0.28736 0.11070
 C2578 C 0.26802 0.26405 0.11589
 C2579 C 0.26990 0.25717 0.13815
 C2580 C 0.27204 0.27362 0.15544
 C2581 C 0.27404 0.29684 0.14989
 C2582 C 0.27208 0.30363 0.12785
 H2583 H 0.24012 0.37478 0.04043
 H2584 H 0.24669 0.35749 0.07654
 H2585 H 0.25811 0.29253 0.04437
 H2586 H 0.25198 0.30941 0.00816
 H2587 H 0.26521 0.25127 0.10284
 H2588 H 0.26816 0.23918 0.14193
 H2589 H 0.27595 0.30993 0.16279
 H2590 H 0.27277 0.32172 0.12434
 C2591 C 0.74720 0.86571 0.54434
 C2592 C 0.75192 0.85611 0.56493
 C2593 C 0.75743 0.83308 0.56636
 C2594 C 0.75819 0.81959 0.54688
 C2595 C 0.75356 0.82917 0.52617
 C2596 C 0.74749 0.85242 0.52448
 N2597 N 0.76243 0.82413 0.58784
 N2598 N 0.76685 0.80326 0.59126
 C2599 C 0.77133 0.79560 0.61342
 C2600 C 0.77120 0.77214 0.61787
 C2601 C 0.77250 0.76456 0.63990
 C2602 C 0.77395 0.78048 0.65769
 C2603 C 0.77577 0.80390 0.65295
 C2604 C 0.77444 0.81138 0.63111
 H2605 H 0.74350 0.88375 0.54381
 H2606 H 0.75150 0.86675 0.57985
 H2607 H 0.76281 0.80179 0.54760
 H2608 H 0.75560 0.81833 0.51161
 H2609 H 0.76899 0.75977 0.60436
 H2610 H 0.77104 0.74642 0.64308
 H2611 H 0.77727 0.81660 0.66625
 H2612 H 0.77504 0.82958 0.62817
 C2613 C 0.27550 0.64651 0.54091
 C2614 C 0.27550 0.65811 0.56138
 C2615 C 0.25963 0.67535 0.56571
 C2616 C 0.24319 0.68068 0.54932
 C2617 C 0.24318 0.66906 0.52864
 C2618 C 0.26001 0.65237 0.52363
 N2619 N 0.26068 0.68651 0.58714
 N2620 N 0.24696 0.70202 0.59386
 C2621 C 0.24969 0.71172 0.61595
 C2622 C 0.23312 0.72683 0.62457
 C2623 C 0.23481 0.73492 0.64676
 C2624 C 0.25311 0.72788 0.66058
 C2625 C 0.27015 0.71355 0.65149
 C2626 C 0.26850 0.70560 0.62954
 H2627 H 0.28753 0.63266 0.53901
 H2628 H 0.28785 0.65342 0.57413
 H2629 H 0.23039 0.69365 0.55249
 H2630 H 0.23013 0.67327 0.51637
 H2631 H 0.21856 0.73182 0.61432
 H2632 H 0.22138 0.74589 0.65332
 H2633 H 0.28466 0.70801 0.66153
 H2634 H 0.28176 0.69423 0.62338
 C2635 C 0.74409 0.13993 0.03524
 C2636 C 0.74038 0.15108 0.05554
 C2637 C 0.73705 0.17458 0.05653
 C2638 C 0.73699 0.18696 0.03669
 C2639 C 0.74052 0.17573 0.01610
 C2640 C 0.74490 0.15200 0.01505
 N2641 N 0.73386 0.18494 0.07807
 N2642 N 0.73210 0.20629 0.08201
 C2643 C 0.72960 0.21443 0.10463
 C2644 C 0.73194 0.23788 0.10984
 C2645 C 0.73242 0.24555 0.13221
 C2646 C 0.73066 0.22975 0.14957
 C2647 C 0.72686 0.20650 0.14416
 C2648 C 0.72630 0.19894 0.12205
 H2649 H 0.74655 0.12164 0.03524
 H2650 H 0.74021 0.14129 0.07071
 H2651 H 0.73396 0.20514 0.03707
 H2652 H 0.73933 0.18571 0.00120
 H2653 H 0.73439 0.25009 0.09664
 H2654 H 0.73542 0.26356 0.13592
 H2655 H 0.72510 0.19394 0.15714
 H2656 H 0.72407 0.18079 0.11866
 C2657 C 0.73677 0.14740 0.95246
 C2658 C 0.74088 0.15886 0.93260
 C2659 C 0.75805 0.17617 0.93133
 C2660 C 0.77115 0.18216 0.95043
 C2661 C 0.76731 0.17044 0.97038
 C2662 C 0.74977 0.15299 0.97196
 N2663 N 0.76279 0.18573 0.90992
 N2664 N 0.77484 0.20397 0.90656
 C2665 C 0.77893 0.21114 0.88406
 C2666 C 0.78203 0.23441 0.87915
 C2667 C 0.78268 0.24156 0.85686
 C2668 C 0.78056 0.22541 0.83926
 C2669 C 0.77945 0.20204 0.84446
 C2670 C 0.77848 0.19503 0.86650
 H2671 H 0.72410 0.13339 0.95190
 H2672 H 0.73101 0.15374 0.91784
 H2673 H 0.78492 0.19518 0.94969
 H2674 H 0.77848 0.17459 0.98455
 H2675 H 0.78260 0.24706 0.89251
 H2676 H 0.78353 0.25967 0.85344
 H2677 H 0.77818 0.18904 0.83142
 H2678 H 0.77666 0.17694 0.86981
 C2679 C 0.26519 0.67858 0.48181
 C2680 C 0.26801 0.69153 0.46251
 C2681 C 0.26562 0.68125 0.44140
 C2682 C 0.25931 0.65792 0.43984
 C2683 C 0.25597 0.64507 0.45906
 C2684 C 0.25889 0.65503 0.48053
 N2685 N 0.27019 0.69448 0.42182
 N2686 N 0.27467 0.68470 0.40325
 C2687 C 0.27852 0.69652 0.38275
 C2688 C 0.28443 0.68355 0.36394
 C2689 C 0.28525 0.69339 0.34295
 C2690 C 0.28015 0.71656 0.34026
 C2691 C 0.27579 0.73008 0.35934
 C2692 C 0.27490 0.72009 0.38052
 H2693 H 0.26910 0.68703 0.49756
 H2694 H 0.27311 0.70943 0.46401
 H2695 H 0.25725 0.64952 0.42372
 H2696 H 0.25187 0.62697 0.45721
 H2697 H 0.28736 0.66542 0.36541
 H2698 H 0.28865 0.68254 0.32858
 H2699 H 0.27148 0.74789 0.35770
 H2700 H 0.27032 0.73048 0.39487
 C2701 C 0.72582 0.83043 0.48092
 C2702 C 0.72336 0.81559 0.46254
 C2703 C 0.73897 0.81708 0.44475
 C2704 C 0.75708 0.83379 0.44550
 C2705 C 0.75940 0.84888 0.46370
 C2706 C 0.74403 0.84729 0.48204
 N2707 N 0.73553 0.80242 0.42557
 N2708 N 0.75126 0.80113 0.41068
 C2709 C 0.74864 0.78824 0.39034
 C2710 C 0.76760 0.78827 0.37575
 C2711 C 0.76518 0.77899 0.35438
 C2712 C 0.74366 0.76934 0.34715
 C2713 C 0.72489 0.76792 0.36219
 C2714 C 0.72732 0.77748 0.38375
 H2715 H 0.71327 0.82897 0.49435
 H2716 H 0.70912 0.80302 0.46209
 H2717 H 0.76909 0.83567 0.43169
 H2718 H 0.77288 0.86210 0.46283
 H2719 H 0.78407 0.79647 0.38065
 H2720 H 0.77995 0.78013 0.34313
 H2721 H 0.70812 0.76068 0.35687
 H2722 H 0.71240 0.77734 0.39484
 C2723 C 0.22326 0.32339 0.97661
 C2724 C 0.22051 0.30877 0.95800
 C2725 C 0.23646 0.30982 0.94038
 C2726 C 0.25483 0.32622 0.94135
 C2727 C 0.25735 0.34109 0.95968
 C2728 C 0.24214 0.33947 0.97815
 N2729 N 0.23341 0.29491 0.92126
 N2730 N 0.25021 0.29213 0.90766
 C2731 C 0.24860 0.27900 0.88731
 C2732 C 0.26900 0.27685 0.87476
 C2733 C 0.26808 0.26760 0.85325
 C2734 C 0.24666 0.26013 0.84384
 C2735 C 0.22625 0.26086 0.85684
 C2736 C 0.22719 0.27035 0.87856
 H2737 H 0.21060 0.32216 0.98996
 H2738 H 0.20596 0.29656 0.95735
 H2739 H 0.26696 0.32797 0.92761
 H2740 H 0.27107 0.35410 0.95892
 H2741 H 0.28556 0.28348 0.88128
 H2742 H 0.28399 0.26735 0.84345
 H2743 H 0.20950 0.25555 0.84973
 H2744 H 0.21116 0.27196 0.88798
 C2745 C 0.84471 0.48483 0.75143
 C2746 C 0.83123 0.46452 0.75241
 C2747 C 0.84190 0.44332 0.75370
 C2748 C 0.86642 0.44263 0.75343
 C2749 C 0.87994 0.46284 0.75184
 C2750 C 0.86947 0.48448 0.75068
 N2751 N 0.82753 0.42284 0.75502
 N2752 N 0.83530 0.40416 0.76238
 C2753 C 0.82130 0.38338 0.76292
 C2754 C 0.82901 0.36503 0.77549
 C2755 C 0.81650 0.34410 0.77535
 C2756 C 0.79624 0.34095 0.76218
 C2757 C 0.78835 0.35952 0.74983
 C2758 C 0.80061 0.38058 0.75035
 H2759 H 0.83540 0.50065 0.75183
 H2760 H 0.81232 0.46535 0.75280
 H2761 H 0.87515 0.42646 0.75431
 H2762 H 0.89883 0.46165 0.75179
 H2763 H 0.84496 0.36687 0.78521
 H2764 H 0.82321 0.33010 0.78484
 H2765 H 0.77284 0.35765 0.73948
 H2766 H 0.79432 0.39442 0.74040
 C2767 C 0.34031 0.97941 0.24675
 C2768 C 0.32736 0.95920 0.25074
 C2769 C 0.33850 0.93830 0.25290
 C2770 C 0.36292 0.93782 0.25076
 C2771 C 0.37585 0.95786 0.24628
 C2772 C 0.36487 0.97913 0.24383
 N2773 N 0.32465 0.91782 0.25658
 N2774 N 0.33342 0.89943 0.26363
 C2775 C 0.31975 0.87860 0.26599
 C2776 C 0.32937 0.86006 0.27706
 C2777 C 0.31728 0.83887 0.27784
 C2778 C 0.29551 0.83575 0.26710
 C2779 C 0.28561 0.85458 0.25661
 C2780 C 0.29748 0.87580 0.25620
 H2781 H 0.33088 0.99515 0.24647
 H2782 H 0.30854 0.95990 0.25256
 H2783 H 0.37201 0.92191 0.25228
 H2784 H 0.39468 0.95683 0.24475
 H2785 H 0.34654 0.86189 0.28465
 H2786 H 0.32549 0.82465 0.28580
 H2787 H 0.26888 0.85272 0.24816
 H2788 H 0.28964 0.88974 0.24748
 C2789 C 0.15295 0.96918 0.76621
 C2790 C 0.16634 0.94940 0.76673
 C2791 C 0.15928 0.92962 0.75481
 C2792 C 0.13804 0.92959 0.74308
 C2793 C 0.12446 0.94918 0.74287
 C2794 C 0.13222 0.96990 0.75336
 N2795 N 0.17345 0.90963 0.75555
 N2796 N 0.17035 0.89261 0.74221
 C2797 C 0.18398 0.87228 0.74334
 C2798 C 0.18205 0.85573 0.72619
 C2799 C 0.19446 0.83536 0.72721
 C2800 C 0.20877 0.83097 0.74568
 C2801 C 0.21081 0.84774 0.76276
 C2802 C 0.19868 0.86820 0.76155
 H2803 H 0.15900 0.98394 0.77584
 H2804 H 0.18235 0.94953 0.77643
 H2805 H 0.13168 0.91430 0.73440
 H2806 H 0.10775 0.94799 0.73435
 H2807 H 0.17075 0.85858 0.71205
 H2808 H 0.19237 0.82280 0.71385
 H2809 H 0.22173 0.84500 0.77719
 H2810 H 0.20047 0.88061 0.77506
 C2811 C 0.63773 0.46770 0.23605
 C2812 C 0.64951 0.44700 0.23422
 C2813 C 0.64591 0.42998 0.25012
 C2814 C 0.63003 0.43373 0.26738
 C2815 C 0.61795 0.45416 0.26903
 C2816 C 0.62218 0.47208 0.25390
 N2817 N 0.65828 0.40893 0.24959
 N2818 N 0.66992 0.40182 0.23287
 C2819 C 0.68245 0.38082 0.23374
 C2820 C 0.69031 0.37039 0.21400
 C2821 C 0.70206 0.34959 0.21460
 C2822 C 0.70659 0.33914 0.23507
 C2823 C 0.69901 0.34996 0.25482
 C2824 C 0.68698 0.37042 0.25416
 H2825 H 0.64092 0.48053 0.22356
 H2826 H 0.66160 0.44444 0.22060
 H2827 H 0.62676 0.42056 0.27953
 H2828 H 0.60510 0.45543 0.28212
 H2829 H 0.68701 0.37820 0.19811
 H2830 H 0.70765 0.34174 0.19910
 H2831 H 0.70201 0.34241 0.27089
 H2832 H 0.68128 0.37813 0.26968
 C2833 C 0.65013 0.51523 0.25930
 C2834 C 0.66409 0.53519 0.26151
 C2835 C 0.65392 0.55669 0.26240
 C2836 C 0.62953 0.55808 0.26073
 C2837 C 0.61562 0.53828 0.25787
 C2838 C 0.62556 0.51636 0.25681
 N2839 N 0.66862 0.57689 0.26411
 N2840 N 0.66103 0.59576 0.27171
 C2841 C 0.67504 0.61647 0.27185
 C2842 C 0.66833 0.63505 0.28523
 C2843 C 0.68047 0.65612 0.28416
 C2844 C 0.69912 0.65906 0.26918
 C2845 C 0.70610 0.64027 0.25611
 C2846 C 0.69435 0.61910 0.25760
 H2847 H 0.65886 0.49912 0.25992
 H2848 H 0.68290 0.53387 0.26296
 H2849 H 0.62126 0.57452 0.26121
 H2850 H 0.59685 0.54001 0.25645
 H2851 H 0.65338 0.63330 0.29619
 H2852 H 0.67459 0.67038 0.29424
 H2853 H 0.72043 0.64208 0.24442
 H2854 H 0.69975 0.60508 0.24696
 C2855 C 0.11819 0.03484 0.75850
 C2856 C 0.12969 0.05610 0.76006
 C2857 C 0.15338 0.05842 0.75480
 C2858 C 0.16534 0.03913 0.74703
 C2859 C 0.15383 0.01760 0.74567
 C2860 C 0.13030 0.01484 0.75258
 N2861 N 0.16451 0.08059 0.75752
 N2862 N 0.18526 0.08524 0.75102
 C2863 C 0.19572 0.10770 0.75391
 C2864 C 0.21543 0.11363 0.74127
 C2865 C 0.22490 0.13589 0.74223
 C2866 C 0.21520 0.15259 0.75633
 C2867 C 0.19613 0.14639 0.76989
 C2868 C 0.18628 0.12417 0.76851
 H2869 H 0.09979 0.03386 0.76275
 H2870 H 0.12006 0.07088 0.76552
 H2871 H 0.18356 0.04064 0.74223
 H2872 H 0.16345 0.00325 0.73927
 H2873 H 0.22296 0.10116 0.73003
 H2874 H 0.23964 0.14019 0.73163
 H2875 H 0.18822 0.15896 0.78076
 H2876 H 0.17114 0.11996 0.77860
 C2877 C 0.34997 0.02440 0.21952
 C2878 C 0.33768 0.04445 0.21556
 C2879 C 0.34141 0.06397 0.22905
 C2880 C 0.35829 0.06335 0.24604
 C2881 C 0.37080 0.04355 0.24977
 C2882 C 0.36621 0.02317 0.23729
 N2883 N 0.32805 0.08418 0.22549
 N2884 N 0.32735 0.09980 0.24051
 C2885 C 0.31477 0.12066 0.23884
 C2886 C 0.31104 0.13314 0.25848
 C2887 C 0.29928 0.15370 0.25818
 C2888 C 0.29126 0.16272 0.23804
 C2889 C 0.29532 0.15042 0.21808
 C2890 C 0.30678 0.12932 0.21850
 H2891 H 0.34671 0.00966 0.20871
 H2892 H 0.32505 0.04467 0.20210
 H2893 H 0.36217 0.07838 0.25627
 H2894 H 0.38441 0.04471 0.26227
 H2895 H 0.31725 0.12679 0.27422
 H2896 H 0.29683 0.16277 0.27384
 H2897 H 0.28944 0.15696 0.20231
 H2898 H 0.30969 0.12004 0.20305
 C2899 C 0.87398 0.54665 0.76689
 C2900 C 0.86207 0.56706 0.76514
 C2901 C 0.84797 0.57120 0.74672
 C2902 C 0.84571 0.55441 0.72985
 C2903 C 0.85723 0.53360 0.73179
 C2904 C 0.87124 0.52895 0.75065
 N2905 N 0.83608 0.59249 0.74613
 N2906 N 0.82691 0.60086 0.72879
 C2907 C 0.81501 0.62224 0.73033
 C2908 C 0.81068 0.63492 0.71115
 C2909 C 0.80016 0.65639 0.71282
 C2910 C 0.79341 0.66528 0.73373
 C2911 C 0.79730 0.65210 0.75275
 C2912 C 0.80801 0.63101 0.75110
 H2913 H 0.88580 0.54543 0.78081
 H2914 H 0.86430 0.58007 0.77808
 H2915 H 0.83496 0.55729 0.71534
 H2916 H 0.85535 0.52101 0.71843
 H2917 H 0.81592 0.62840 0.69497
 H2918 H 0.79742 0.66604 0.69784
 H2919 H 0.79246 0.65823 0.76919
 H2920 H 0.81089 0.62159 0.76619
 C2921 C 0.97350 0.73677 0.15959
 C2922 C 0.95250 0.73567 0.17137
 C2923 C 0.93457 0.75054 0.16641
 C2924 C 0.93776 0.76660 0.14960
 C2925 C 0.95867 0.76778 0.13787
 C2926 C 0.97733 0.75333 0.14304
 N2927 N 0.91291 0.74851 0.17801
 N2928 N 0.89564 0.76076 0.17309
 C2929 C 0.87383 0.75866 0.18441
 C2930 C 0.85530 0.77216 0.17781
 C2931 C 0.83366 0.77025 0.18844
 C2932 C 0.83041 0.75477 0.20589
 C2933 C 0.84916 0.74128 0.21245
 C2934 C 0.87068 0.74319 0.20180
 H2935 H 0.98681 0.72452 0.16326
 H2936 H 0.94999 0.72291 0.18406
 H2937 H 0.92389 0.77795 0.14514
 H2938 H 0.95956 0.77959 0.12426
 H2939 H 0.85764 0.78413 0.16438
 H2940 H 0.81957 0.78094 0.18308
 H2941 H 0.84725 0.72917 0.22581
 H2942 H 0.88481 0.73257 0.20715
 C2943 C 0.47511 0.23929 0.65703
 C2944 C 0.45510 0.24168 0.66980
 C2945 C 0.44254 0.26169 0.66892
 C2946 C 0.45074 0.27999 0.65615
 C2947 C 0.47119 0.27789 0.64373
 C2948 C 0.48311 0.25701 0.64306
 N2949 N 0.42099 0.26241 0.68057
 N2950 N 0.40549 0.27704 0.67678
 C2951 C 0.38386 0.27557 0.68848
 C2952 C 0.36393 0.28524 0.67940
 C2953 C 0.34193 0.28046 0.68858
 C2954 C 0.33982 0.26604 0.70704
 C2955 C 0.36011 0.25757 0.71683
 C2956 C 0.38189 0.26229 0.70766
 H2957 H 0.48423 0.22331 0.65767
 H2958 H 0.44893 0.22760 0.67989
 H2959 H 0.44143 0.29587 0.65587
 H2960 H 0.47745 0.29274 0.63490
 H2961 H 0.36532 0.29552 0.66460
 H2962 H 0.32660 0.28753 0.68091
 H2963 H 0.35922 0.24681 0.73133
 H2964 H 0.39715 0.25490 0.71514
 C2965 C 0.49088 0.74825 0.84829
 C2966 C 0.47083 0.74737 0.83498
 C2967 C 0.44938 0.74031 0.84388
 C2968 C 0.44811 0.73356 0.86615
 C2969 C 0.46801 0.73450 0.87948
 C2970 C 0.48995 0.74151 0.87082
 N2971 N 0.42875 0.74177 0.83063
 N2972 N 0.40885 0.73622 0.83854
 C2973 C 0.38771 0.73844 0.82630
 C2974 C 0.36688 0.73047 0.83583
 C2975 C 0.34575 0.73270 0.82465
 C2976 C 0.34518 0.74315 0.80373
 C2977 C 0.36614 0.75140 0.79427
 C2978 C 0.38733 0.74899 0.80546
 H2979 H 0.50662 0.75550 0.84106
 H2980 H 0.47182 0.75311 0.81795
 H2981 H 0.43159 0.72836 0.87354
 H2982 H 0.46621 0.73033 0.89692
 H2983 H 0.36707 0.72249 0.85199
 H2984 H 0.32987 0.72630 0.83245
 H2985 H 0.36620 0.75942 0.77814
 H2986 H 0.40333 0.75542 0.79792
 C2987 C 0.97377 0.27071 0.34296
 C2988 C 0.95656 0.26980 0.32650
 C2989 C 0.94408 0.24944 0.32216
 C2990 C 0.95005 0.22952 0.33322
 C2991 C 0.96736 0.23032 0.34953
 C2992 C 0.97851 0.25129 0.35573
 N2993 N 0.92398 0.24990 0.30817
 N2994 N 0.90934 0.23322 0.30737
 C2995 C 0.88805 0.23446 0.29518
 C2996 C 0.87041 0.21806 0.29902
 C2997 C 0.84809 0.22080 0.29024
 C2998 C 0.84334 0.23992 0.27728
 C2999 C 0.86146 0.25570 0.27246
 C3000 C 0.88366 0.25307 0.28146
 H3001 H 0.98292 0.28683 0.34633
 H3002 H 0.95226 0.28520 0.31779
 H3003 H 0.94102 0.21340 0.32957
 H3004 H 0.97178 0.21439 0.35715
 H3005 H 0.87370 0.20371 0.30963
 H3006 H 0.83450 0.20818 0.29387
 H3007 H 0.85830 0.27050 0.26240
 H3008 H 0.89715 0.26591 0.27828
 C3009 C 0.03177 0.27966 0.36135
 C3010 C 0.05145 0.28368 0.34820
 C3011 C 0.05930 0.26671 0.33371
 C3012 C 0.04732 0.24555 0.33232
 C3013 C 0.02789 0.24134 0.34567
 C3014 C 0.02010 0.25803 0.36099
 N3015 N 0.08005 0.27094 0.32119
 N3016 N 0.08595 0.25754 0.30544
 C3017 C 0.10766 0.26038 0.29413
 C3018 C 0.11284 0.24520 0.27677
 C3019 C 0.13516 0.24531 0.26751
 C3020 C 0.15266 0.26056 0.27573
 C3021 C 0.14703 0.27660 0.29241
 C3022 C 0.12465 0.27655 0.30154
 H3023 H 0.02562 0.29384 0.37128
 H3024 H 0.06043 0.30019 0.34908
 H3025 H 0.05310 0.23216 0.32110
 H3026 H 0.01881 0.22492 0.34411
 H3027 H 0.09982 0.23267 0.27104
 H3028 H 0.13896 0.23278 0.25462
 H3029 H 0.16009 0.28872 0.29887
 H3030 H 0.12094 0.28848 0.31497
 C3031 C 0.54912 0.76902 0.88242
 C3032 C 0.56987 0.77346 0.87103
 C3033 C 0.57600 0.75968 0.85294
 C3034 C 0.56212 0.74036 0.84721
 C3035 C 0.54159 0.73564 0.85883
 C3036 C 0.53388 0.75079 0.87560
 N3037 N 0.59652 0.76542 0.84070
 N3038 N 0.59976 0.75703 0.82136
 C3039 C 0.62065 0.76164 0.80924
 C3040 C 0.62304 0.75161 0.78817
 C3041 C 0.64431 0.75329 0.77703
 C3042 C 0.66355 0.76499 0.78700
 C3043 C 0.66063 0.77624 0.80762
 C3044 C 0.63929 0.77457 0.81870
 H3045 H 0.54520 0.77996 0.89654
 H3046 H 0.58101 0.78790 0.87604
 H3047 H 0.56713 0.72895 0.83375
 H3048 H 0.53116 0.72059 0.85419
 H3049 H 0.60866 0.74171 0.78078
 H3050 H 0.64592 0.74457 0.76107
 H3051 H 0.67505 0.78553 0.81564
 H3052 H 0.63767 0.78260 0.83499
 C3053 C 0.53006 0.26820 0.66224
 C3054 C 0.54687 0.26582 0.67881
 C3055 C 0.55793 0.24505 0.68122
 C3056 C 0.55101 0.22616 0.66793
 C3057 C 0.53413 0.22843 0.65148
 C3058 C 0.52435 0.24990 0.64740
 N3059 N 0.57782 0.24420 0.69543
 N3060 N 0.59121 0.22720 0.69489
 C3061 C 0.61261 0.22752 0.70703
 C3062 C 0.62974 0.21208 0.70076
 C3063 C 0.65258 0.21510 0.70861
 C3064 C 0.65833 0.23348 0.72312
 C3065 C 0.64065 0.24786 0.73077
 C3066 C 0.61793 0.24499 0.72265
 H3067 H 0.52189 0.28458 0.66051
 H3068 H 0.55194 0.28043 0.68920
 H3069 H 0.55895 0.20972 0.66999
 H3070 H 0.52885 0.21318 0.64223
 H3071 H 0.62572 0.19859 0.68867
 H3072 H 0.66585 0.20352 0.70283
 H3073 H 0.64460 0.26203 0.74211
 H3074 H 0.60483 0.25704 0.72778
 C3075 C 0.04402 0.75248 0.13105
 C3076 C 0.06502 0.75119 0.14251
 C3077 C 0.06528 0.75221 0.16567
 C3078 C 0.04458 0.75631 0.17743
 C3079 C 0.02341 0.75780 0.16594
 C3080 C 0.02260 0.75428 0.14261
 N3081 N 0.08675 0.74794 0.17665
 N3082 N 0.08881 0.74729 0.19768
 C3083 C 0.11092 0.74221 0.20720
 C3084 C 0.11552 0.74814 0.22943
 C3085 C 0.13803 0.74593 0.23806
 C3086 C 0.15608 0.73749 0.22452
 C3087 C 0.15087 0.73000 0.20270
 C3088 C 0.12851 0.73241 0.19409
 H3089 H 0.04425 0.75073 0.11306
 H3090 H 0.08106 0.74850 0.13335
 H3091 H 0.04469 0.75792 0.19542
 H3092 H 0.00790 0.76134 0.17551
 H3093 H 0.10198 0.75548 0.23970
 H3094 H 0.14148 0.75163 0.25504
 H3095 H 0.16429 0.72325 0.19189
 H3096 H 0.12516 0.72726 0.17695
   
