data_POSCAR
  _audit_creation_date              2014-09-24
  _audit_creation_method            'ToBaCCo'
  _symmetry_space_group_name_H-M    'P1'
  _symmetry_Int_Tables_number       1
  _symmetry_cell_setting            triclinic
  loop_
  _symmetry_equiv_pos_as_xyz
 x,y,z
_cell_length_a 65.8345
_cell_length_b 65.6683
_cell_length_c 65.5517
_cell_angle_alpha 89.951400
_cell_angle_beta 89.992500
_cell_angle_gamma 89.987800
loop_
  _atom_site_label
  _atom_site_type_symbol
  _atom_site_fract_x
  _atom_site_fract_y
  _atom_site_fract_z
N1 N 0.36549 1.35342 0.31124
 N2 N 0.35484 1.36994 0.31484
 C3 C 0.35837 1.38356 0.29984
 C4 C 0.37175 1.37491 0.28585
 C5 C 0.37585 1.35573 0.29375
 H6 H 0.35115 1.39831 0.29890
 H7 H 0.38595 1.34433 0.28759
 Cu8 Cu 0.33637 1.37153 0.33807
 Cu9 Cu 0.36583 1.33032 0.32966
 Cu10 Cu 0.32754 1.32851 0.36523
 N11 N 0.31266 1.36853 0.35565
 N12 N 0.30877 1.35139 0.36523
 C13 C 0.29117 1.35321 0.37545
 C14 C 0.28354 1.37270 0.37238
 C15 C 0.29775 1.38199 0.35969
 H16 H 0.28484 1.34135 0.38494
 H17 H 0.29716 1.39720 0.35343
 N18 N 0.34841 1.30715 0.36291
 N19 N 0.36345 1.30824 0.34968
 C20 C 0.37609 1.29241 0.35265
 C21 C 0.36856 1.28068 0.36845
 C22 C 0.35093 1.29042 0.37455
 H23 H 0.38979 1.28963 0.34400
 H24 H 0.34112 1.28605 0.38704
 H25 H 0.33508 1.33483 0.33543
 H26 H 0.35326 1.34370 0.35572
 N27 N 0.36814 0.85614 0.81394
 N28 N 0.35180 0.86732 0.81128
 C29 C 0.35389 0.87840 0.79415
 C30 C 0.37268 0.87408 0.78567
 C31 C 0.38136 0.85995 0.79875
 H32 H 0.34270 0.88901 0.78842
 H33 H 0.39599 0.85263 0.79713
 Cu34 Cu 0.32967 0.86679 0.83086
 Cu35 Cu 0.37068 0.83736 0.83685
 Cu36 Cu 0.32452 0.82493 0.85940
 N37 N 0.30834 0.86466 0.85121
 N38 N 0.30600 0.84797 0.86203
 C39 C 0.28951 0.84998 0.87401
 C40 C 0.28122 0.86911 0.87071
 C41 C 0.29361 0.87798 0.85612
 H42 H 0.28413 0.83844 0.88448
 H43 H 0.29177 0.89284 0.84924
 N44 N 0.34909 0.80797 0.86199
 N45 N 0.36680 0.81310 0.85409
 C46 C 0.38061 0.79879 0.85900
 C47 C 0.37117 0.78389 0.87060
 C48 C 0.35116 0.79029 0.87218
 H49 H 0.39628 0.79904 0.85406
 H50 H 0.33901 0.78286 0.88040
 H51 H 0.34085 0.83140 0.83262
 H52 H 0.34680 0.84584 0.85638
 N53 N 0.86591 1.35533 0.81240
 N54 N 0.84896 1.36519 0.80864
 C55 C 0.85112 1.37608 0.79141
 C56 C 0.87068 1.37318 0.78396
 C57 C 0.87965 1.35997 0.79792
 H58 H 0.83938 1.38571 0.78511
 H59 H 0.89478 1.35360 0.79738
 Cu60 Cu 0.82595 1.36347 0.82709
 Cu61 Cu 0.86844 1.33677 0.83556
 Cu62 Cu 0.82249 1.32312 0.85782
 N63 N 0.80541 1.36215 0.84834
 N64 N 0.80365 1.34594 0.85997
 C65 C 0.78761 1.34831 0.87247
 C66 C 0.77900 1.36719 0.86866
 C67 C 0.79074 1.37556 0.85324
 H68 H 0.78279 1.33721 0.88367
 H69 H 0.78851 1.39010 0.84583
 N70 N 0.84748 1.30701 0.86090
 N71 N 0.86513 1.31256 0.85314
 C72 C 0.87923 1.29860 0.85826
 C73 C 0.87002 1.28352 0.86985
 C74 C 0.84986 1.28947 0.87121
 H75 H 0.89492 1.29914 0.85343
 H76 H 0.83778 1.28178 0.87930
 H77 H 0.83902 1.32888 0.83087
 H78 H 0.84369 1.34485 0.85392
 N79 N 0.86650 0.85366 0.31097
 N80 N 0.84998 0.86464 0.30873
 C81 C 0.85221 0.87694 0.29245
 C82 C 0.87136 0.87372 0.28410
 C83 C 0.87999 0.85886 0.29646
 H84 H 0.84082 0.88766 0.28737
 H85 H 0.89462 0.85165 0.29459
 Cu86 Cu 0.82714 0.86208 0.32737
 Cu87 Cu 0.86854 0.83218 0.33132
 Cu88 Cu 0.83044 0.83002 0.36753
 N89 N 0.80810 0.86328 0.35002
 N90 N 0.80899 0.85026 0.36525
 C91 C 0.79347 0.85384 0.37811
 C92 C 0.78242 0.87014 0.37070
 C93 C 0.79217 0.87583 0.35289
 H94 H 0.79058 0.84540 0.39198
 H95 H 0.78774 0.88792 0.34259
 N96 N 0.85349 0.81093 0.36714
 N97 N 0.86780 0.81149 0.35305
 C98 C 0.88072 0.79589 0.35613
 C99 C 0.87438 0.78517 0.37313
 C100 C 0.85713 0.79516 0.37978
 H101 H 0.89378 0.79252 0.34672
 H102 H 0.84761 0.79083 0.39250
 H103 H 0.83789 0.82781 0.33695
 H104 H 0.85094 0.84818 0.35204
 N105 N 0.63940 0.65341 0.30588
 N106 N 0.65477 0.64069 0.30507
 C107 C 0.65164 0.62733 0.28983
 C108 C 0.63322 0.63190 0.28068
 C109 C 0.62588 0.64856 0.29130
 H110 H 0.66195 0.61516 0.28577
 H111 H 0.61203 0.65690 0.28829
 Cu112 Cu 0.67749 0.64292 0.32389
 Cu113 Cu 0.63897 0.67619 0.32473
 Cu114 Cu 0.67054 0.67069 0.36665
 N115 N 0.69495 0.63985 0.34754
 N116 N 0.69175 0.65009 0.36445
 C117 C 0.70595 0.64486 0.37827
 C118 C 0.71880 0.63061 0.36952
 C119 C 0.71130 0.62781 0.34998
 H120 H 0.70722 0.65144 0.39333
 H121 H 0.71719 0.61768 0.33841
 N122 N 0.64838 0.69092 0.36541
 N123 N 0.63688 0.69338 0.34911
 C124 C 0.62439 0.70930 0.35209
 C125 C 0.62819 0.71734 0.37120
 C126 C 0.64344 0.70524 0.37926
 H127 H 0.61343 0.71473 0.34107
 H128 H 0.65098 0.70732 0.39376
 H129 H 0.66865 0.67709 0.33626
 H130 H 0.65124 0.65683 0.34591
 N131 N 0.63776 0.14955 0.80888
 N132 N 0.64701 0.13219 0.81244
 C133 C 0.64208 0.11879 0.79774
 C134 C 0.62917 0.12832 0.78391
 C135 C 0.62693 0.14796 0.79155
 H136 H 0.64798 0.10346 0.79699
 H137 H 0.61778 0.16016 0.78536
 Cu138 Cu 0.66555 0.12918 0.83528
 Cu139 Cu 0.64044 0.17277 0.82725
 Cu140 Cu 0.66178 0.16153 0.87441
 N141 N 0.68623 0.13021 0.85642
 N142 N 0.68439 0.14245 0.87217
 C143 C 0.70019 0.13951 0.88488
 C144 C 0.71280 0.12485 0.87646
 C145 C 0.70343 0.11930 0.85837
 H146 H 0.70255 0.14781 0.89893
 H147 H 0.70858 0.10800 0.84756
 N148 N 0.64507 0.18588 0.86946
 N149 N 0.63764 0.19058 0.85137
 C150 C 0.62741 0.20828 0.85282
 C151 C 0.62846 0.21510 0.87281
 C152 C 0.63983 0.20044 0.88289
 H153 H 0.61937 0.21538 0.84031
 H154 H 0.64425 0.20045 0.89877
 H155 H 0.66619 0.16522 0.84428
 H156 H 0.64155 0.15287 0.85095
 N157 N 1.13439 0.64834 0.81077
 N158 N 1.14845 0.63412 0.81110
 C159 C 1.14534 0.62129 0.79536
 C160 C 1.12862 0.62803 0.78449
 C161 C 1.12208 0.64524 0.79469
 H162 H 1.15476 0.60829 0.79177
 H163 H 1.10919 0.65468 0.79082
 Cu164 Cu 1.16982 0.63439 0.83163
 Cu165 Cu 1.13283 0.66966 0.83128
 Cu166 Cu 1.17001 0.66976 0.86871
 N167 N 1.19057 0.63458 0.85279
 N168 N 1.19024 0.64815 0.86751
 C169 C 1.20595 0.64473 0.88021
 C170 C 1.21685 0.62826 0.87295
 C171 C 1.20668 0.62221 0.85549
 H172 H 1.20947 0.65385 0.89347
 H173 H 1.21066 0.60963 0.84564
 N174 N 1.14823 0.69033 0.86729
 N175 N 1.13380 0.68998 0.85333
 C176 C 1.12103 0.70567 0.85660
 C177 C 1.12789 0.71655 0.87327
 C178 C 1.14519 0.70643 0.87964
 H179 H 1.10796 0.70924 0.84729
 H180 H 1.15472 0.71044 0.89245
 H181 H 1.16353 0.67046 0.83790
 H182 H 1.14740 0.65356 0.85412
 N183 N 1.13361 0.14681 0.31224
 N184 N 1.15039 0.13631 0.30952
 C185 C 1.14815 0.12416 0.29314
 C186 C 1.12888 0.12716 0.28518
 C187 C 1.12009 0.14163 0.29775
 H188 H 1.15968 0.11389 0.28749
 H189 H 1.10521 0.14839 0.29609
 Cu190 Cu 1.17380 0.13955 0.32732
 Cu191 Cu 1.13114 0.16751 0.33331
 Cu192 Cu 1.16984 0.16964 0.36875
 N193 N 1.19310 0.13797 0.34973
 N194 N 1.19125 0.14946 0.36603
 C195 C 1.20628 0.14501 0.37919
 C196 C 1.21831 0.12997 0.37067
 C197 C 1.20950 0.12590 0.35191
 H198 H 1.20848 0.15241 0.39375
 H199 H 1.21444 0.11477 0.34082
 N200 N 1.14681 0.18867 0.36883
 N201 N 1.13169 0.18751 0.35568
 C202 C 1.11850 0.20275 0.35943
 C203 C 1.12583 0.21415 0.37556
 C204 C 1.14379 0.20478 0.38113
 H205 H 1.10503 0.20589 0.35053
 H206 H 1.15401 0.20948 0.39314
 H207 H 1.16167 0.17285 0.33824
 H208 H 1.14977 0.15128 0.35275
 N209 N 0.63759 1.34840 0.69328
 N210 N 0.65042 1.36368 0.69202
 C211 C 0.64719 1.37643 0.70778
 C212 C 0.63160 1.36861 0.71960
 C213 C 0.62592 1.35077 0.70996
 H214 H 0.65553 1.39034 0.71051
 H215 H 0.61374 1.34064 0.71438
 Cu216 Cu 0.67005 1.36523 0.66991
 Cu217 Cu 0.63579 1.32746 0.67236
 Cu218 Cu 0.66861 1.33177 0.63114
 N219 N 0.68910 1.36687 0.64730
 N220 N 0.68804 1.35415 0.63186
 C221 C 0.70306 1.35839 0.61858
 C222 C 0.71429 1.37448 0.62621
 C223 C 0.70497 1.37948 0.64446
 H224 H 0.70616 1.34981 0.60485
 H225 H 0.70958 1.39130 0.65496
 N226 N 0.64803 1.31006 0.63346
 N227 N 0.63616 1.30798 0.64956
 C228 C 0.62455 1.29129 0.64712
 C229 C 0.62922 1.28248 0.62856
 C230 C 0.64415 1.29481 0.62028
 H231 H 0.61326 1.28608 0.65789
 H232 H 0.65189 1.29256 0.60592
 H233 H 0.66561 1.32917 0.66235
 H234 H 0.64664 1.34556 0.64895
 N235 N 0.63461 0.85191 1.18968
 N236 N 0.64861 0.86618 1.18947
 C237 C 0.64542 0.87890 1.20528
 C238 C 0.62869 0.87203 1.21606
 C239 C 0.62225 0.85486 1.20575
 H240 H 0.65476 0.89192 1.20896
 H241 H 0.60937 0.84536 1.20952
 Cu242 Cu 0.67000 0.86621 1.16897
 Cu243 Cu 0.63316 0.83076 1.16898
 Cu244 Cu 0.67032 0.83120 1.13153
 N245 N 0.69067 0.86635 1.14775
 N246 N 0.69039 0.85292 1.13289
 C247 C 0.70599 0.85662 1.12015
 C248 C 0.71677 0.87311 1.12752
 C249 C 0.70665 0.87889 1.14509
 H250 H 0.70952 0.84769 1.10675
 H251 H 0.71055 0.89141 1.15504
 N252 N 0.64871 0.81049 1.13280
 N253 N 0.63425 0.81065 1.14676
 C254 C 0.62157 0.79494 1.14334
 C255 C 0.62851 0.78424 1.12659
 C256 C 0.64577 0.79448 1.12033
 H257 H 0.60850 0.79122 1.15260
 H258 H 0.65533 0.79061 1.10749
 H259 H 0.66387 0.83018 1.16235
 H260 H 0.64765 0.84718 1.14631
 N261 N 1.13229 1.35338 1.18805
 N262 N 1.14620 1.36773 1.18782
 C263 C 1.14296 1.38044 1.20362
 C264 C 1.12629 1.37349 1.21442
 C265 C 1.11993 1.35627 1.20413
 H266 H 1.15227 1.39349 1.20730
 H267 H 1.10713 1.34668 1.20796
 Cu268 Cu 1.16760 1.36784 1.16737
 Cu269 Cu 1.13104 1.33213 1.16744
 Cu270 Cu 1.16835 1.33268 1.13012
 N271 N 1.18834 1.36806 1.14624
 N272 N 1.18823 1.35455 1.13145
 C273 C 1.20390 1.35826 1.11880
 C274 C 1.21453 1.37485 1.12617
 C275 C 1.20426 1.38067 1.14363
 H276 H 1.20759 1.34925 1.10550
 H277 H 1.20805 1.39324 1.15356
 N278 N 1.14689 1.31184 1.13141
 N279 N 1.13237 1.31195 1.14530
 C280 C 1.11985 1.29609 1.14191
 C281 C 1.12698 1.28537 1.12525
 C282 C 1.14416 1.29573 1.11900
 H283 H 1.10678 1.29230 1.15114
 H284 H 1.15382 1.29188 1.10624
 H285 H 1.16176 1.33175 1.16092
 H286 H 1.14548 1.34854 1.14473
 N287 N 1.13364 0.85187 0.68918
 N288 N 1.14768 0.86611 0.68887
 C289 C 1.14453 0.87894 0.70458
 C290 C 1.12780 0.87221 0.71543
 C291 C 1.12129 0.85498 0.70523
 H292 H 1.15394 0.89194 0.70819
 H293 H 1.10841 0.84552 0.70910
 Cu294 Cu 1.16908 0.86590 0.66839
 Cu295 Cu 1.13220 0.83050 0.66869
 Cu296 Cu 1.16947 0.83052 0.63133
 N297 N 1.18983 0.86579 0.64725
 N298 N 1.18957 0.85222 0.63251
 C299 C 1.20523 0.85574 0.61980
 C300 C 1.21604 0.87227 0.62706
 C301 C 1.20586 0.87825 0.64454
 H302 H 1.20878 0.84666 0.60652
 H303 H 1.20978 0.89084 0.65439
 N304 N 1.14783 0.80986 0.63275
 N305 N 1.13334 0.81016 0.64667
 C306 C 1.12068 0.79439 0.64337
 C307 C 1.12768 0.78353 0.62675
 C308 C 1.14494 0.79372 0.62043
 H309 H 1.10758 0.79076 0.65263
 H310 H 1.15454 0.78974 0.60766
 H311 H 1.16292 0.82981 0.66216
 H312 H 1.14676 0.84665 0.64590
 N313 N 0.36991 0.64277 0.68557
 N314 N 0.35474 0.62979 0.68640
 C315 C 0.35748 0.61726 0.70244
 C316 C 0.37542 0.62257 0.71207
 C317 C 0.38295 0.63878 0.70089
 H318 H 0.34713 0.60530 0.70693
 H319 H 0.39641 0.64759 0.70423
 Cu320 Cu 0.33257 0.63082 0.66683
 Cu321 Cu 0.37051 0.66519 0.66616
 Cu322 Cu 0.32936 0.66961 0.63343
 N323 N 0.31003 0.63313 0.64780
 N324 N 0.30850 0.64868 0.63526
 C325 C 0.29153 0.64662 0.62400
 C326 C 0.28199 0.62870 0.62964
 C327 C 0.29417 0.62053 0.64479
 H328 H 0.28682 0.65703 0.61212
 H329 H 0.29160 0.60650 0.65303
 N330 N 0.35211 0.68911 0.63373
 N331 N 0.36815 0.68696 0.64561
 C332 C 0.38124 0.70227 0.64184
 C333 C 0.37299 0.71473 0.62698
 C334 C 0.35451 0.70593 0.62221
 H335 H 0.39551 0.70451 0.64968
 H336 H 0.34373 0.71126 0.61098
 H337 H 0.33930 0.66715 0.66333
 H338 H 0.35295 0.65164 0.64377
 N339 N 0.37161 0.14138 1.18325
 N340 N 0.35744 0.12729 1.18312
 C341 C 0.35971 0.11530 1.19965
 C342 C 0.37611 0.12242 1.21078
 C343 C 0.38330 0.13898 1.19990
 H344 H 0.34996 0.10261 1.20347
 H345 H 0.39621 0.14846 1.20365
 Cu346 Cu 0.33726 0.12609 1.16146
 Cu347 Cu 0.37407 0.16123 1.16137
 Cu348 Cu 0.32824 0.17042 1.13720
 N349 N 0.31430 0.12938 1.14315
 N350 N 0.31060 0.14681 1.13401
 C351 C 0.29327 0.14521 1.12325
 C352 C 0.28571 0.12565 1.12567
 C353 C 0.29952 0.11604 1.13841
 H354 H 0.28675 0.15741 1.11430
 H355 H 0.29860 0.10069 1.14430
 N356 N 0.35150 0.18940 1.13597
 N357 N 0.36915 0.18548 1.14463
 C358 C 0.38220 0.20064 1.14036
 C359 C 0.37233 0.21490 1.12834
 C360 C 0.35285 0.20723 1.12589
 H361 H 0.39766 0.20130 1.14586
 H362 H 0.34069 0.21385 1.11700
 H363 H 0.34360 0.16263 1.16390
 H364 H 0.35272 0.15171 1.13924
 N365 N 0.86768 0.64541 1.18704
 N366 N 0.85556 0.62966 1.18487
 C367 C 0.85874 0.61657 1.20040
 C368 C 0.87353 0.62472 1.21304
 C369 C 0.87883 0.64301 1.20404
 H370 H 0.85053 0.60248 1.20262
 H371 H 0.89003 0.65377 1.20942
 Cu372 Cu 0.83618 0.62812 1.16250
 Cu373 Cu 0.86807 0.66796 1.16790
 Cu374 Cu 0.82889 0.66976 1.13307
 N375 N 0.81248 0.63101 1.14500
 N376 N 0.80942 0.64751 1.13406
 C377 C 0.79192 0.64555 1.12368
 C378 C 0.78353 0.62677 1.12825
 C379 C 0.79704 0.61792 1.14184
 H380 H 0.78599 0.65677 1.11317
 H381 H 0.79566 0.60317 1.14906
 N382 N 0.85032 0.69063 1.13439
 N383 N 0.86566 0.68953 1.14728
 C384 C 0.87833 0.70525 1.14387
 C385 C 0.87051 0.71691 1.12816
 C386 C 0.85270 0.70723 1.12255
 H387 H 0.89214 0.70813 1.15231
 H388 H 0.84253 0.71168 1.11039
 H389 H 0.83709 0.66503 1.16310
 H390 H 0.85421 0.65406 1.14301
 N391 N 0.86856 0.14428 0.68567
 N392 N 0.85214 0.13330 0.68868
 C393 C 0.85445 0.12222 0.70578
 C394 C 0.87342 0.12635 0.71389
 C395 C 0.88202 0.14035 0.70062
 H396 H 0.84320 0.11183 0.71180
 H397 H 0.89673 0.14756 0.70198
 Cu398 Cu 0.82943 0.13447 0.66986
 Cu399 Cu 0.87083 0.16309 0.66271
 Cu400 Cu 0.82475 0.17516 0.63977
 N401 N 0.80869 0.13557 0.64883
 N402 N 0.80647 0.15190 0.63744
 C403 C 0.79023 0.14945 0.62523
 C404 C 0.78196 0.13040 0.62900
 C405 C 0.79412 0.12202 0.64406
 H406 H 0.78496 0.16066 0.61437
 H407 H 0.79215 0.10741 0.65143
 N408 N 0.84928 0.19207 0.63699
 N409 N 0.86697 0.18711 0.64503
 C410 C 0.88074 0.20142 0.63998
 C411 C 0.87125 0.21612 0.62814
 C412 C 0.85129 0.20961 0.62657
 H413 H 0.89638 0.20135 0.64499
 H414 H 0.83914 0.21688 0.61822
 H415 H 0.84105 0.16965 0.66685
 H416 H 0.84681 0.15424 0.64366
 N417 N 1.35354 0.36779 0.68831
 N418 N 1.36938 0.35586 0.68591
 C419 C 1.38257 0.35920 0.70128
 C420 C 1.37440 0.37389 0.71407
 C421 C 1.35598 0.37898 0.70529
 H422 H 1.39675 0.35113 0.70332
 H423 H 1.34512 0.39001 0.71083
 Cu424 Cu 1.37083 0.33640 0.66350
 Cu425 Cu 1.33070 0.36782 0.66959
 Cu426 Cu 1.32848 0.32790 0.63561
 N427 N 1.36787 0.31239 0.64631
 N428 N 1.35094 0.30864 0.63640
 C429 C 1.35280 0.29094 0.62628
 C430 C 1.37211 0.28311 0.62975
 C431 C 1.38123 0.29729 0.64259
 H432 H 1.34115 0.28474 0.61650
 H433 H 1.39631 0.29663 0.64907
 N434 N 1.30749 0.34926 0.63698
 N435 N 1.30880 0.36493 0.64948
 C436 C 1.29313 0.37761 0.64598
 C437 C 1.28128 0.36949 0.63059
 C438 C 1.29081 0.35146 0.62528
 H439 H 1.29047 0.39170 0.65407
 H440 H 1.28627 0.34109 0.61333
 H441 H 1.33407 0.33670 0.66529
 H442 H 1.34409 0.35366 0.64450
 N443 N 1.35285 0.86733 1.18888
 N444 N 1.36940 0.85665 1.18560
 C445 C 1.38284 0.86052 1.20062
 C446 C 1.37406 0.87414 1.21430
 C447 C 1.35498 0.87804 1.20619
 H448 H 1.39757 0.85334 1.20181
 H449 H 1.34352 0.88822 1.21210
 Cu450 Cu 1.37127 0.83770 1.16275
 Cu451 Cu 1.32995 0.86723 1.17027
 Cu452 Cu 1.32870 0.82827 1.13534
 N453 N 1.36858 0.81365 1.14551
 N454 N 1.35161 0.80958 1.13581
 C455 C 1.35362 0.79185 1.12579
 C456 C 1.37305 0.78430 1.12912
 C457 C 1.38212 0.79871 1.14175
 H458 H 1.34191 0.78538 1.11624
 H459 H 1.39725 0.79827 1.14812
 N460 N 1.30724 0.84908 1.13714
 N461 N 1.30812 0.86439 1.15011
 C462 C 1.29228 0.87690 1.14677
 C463 C 1.28077 0.86902 1.13101
 C464 C 1.29065 0.85131 1.12532
 H465 H 1.28934 0.89077 1.15515
 H466 H 1.28646 0.84124 1.11297
 H467 H 1.33463 0.83638 1.16510
 H468 H 1.34363 0.85432 1.14459
 N469 N 0.85160 0.36509 1.18980
 N470 N 0.86874 0.35561 1.18592
 C471 C 0.88202 0.35941 1.20108
 C472 C 0.87263 0.37184 1.21544
 C473 C 0.85325 0.37500 1.20766
 H474 H 0.89722 0.35321 1.20166
 H475 H 0.84139 0.38442 1.21401
 Cu476 Cu 0.87201 0.33874 1.16174
 Cu477 Cu 0.82911 0.36556 1.17055
 Cu478 Cu 0.83195 0.33191 1.13035
 N479 N 0.87094 0.31633 1.14232
 N480 N 0.85514 0.31364 1.13037
 C481 C 0.85781 0.29662 1.11934
 C482 C 0.87632 0.28811 1.12457
 C483 C 0.88432 0.30110 1.13916
 H484 H 0.84700 0.29080 1.10839
 H485 H 0.89845 0.29926 1.14737
 N486 N 0.80965 0.35155 1.13340
 N487 N 0.80814 0.36391 1.14918
 C488 C 0.79122 0.37525 1.14711
 C489 C 0.78172 0.36987 1.12907
 C490 C 0.79385 0.35480 1.12078
 H491 H 0.78648 0.38702 1.15761
 H492 H 0.79129 0.34673 1.10665
 H493 H 0.83531 0.33610 1.16149
 H494 H 0.84482 0.35717 1.14460
 N495 N 0.85524 0.86928 0.68676
 N496 N 0.86800 0.85393 0.68793
 C497 C 0.88047 0.85684 0.70395
 C498 C 0.87531 0.87505 0.71324
 C499 C 0.85929 0.88257 0.70185
 H500 H 0.89227 0.84641 0.70868
 H501 H 0.85062 0.89623 0.70489
 Cu502 Cu 0.86658 0.83134 0.66882
 Cu503 Cu 0.83300 0.86986 0.66716
 Cu504 Cu 0.82906 0.82869 0.63422
 N505 N 0.86522 0.80921 0.64915
 N506 N 0.85008 0.80789 0.63615
 C507 C 0.85257 0.79117 0.62456
 C508 C 0.87034 0.78157 0.63046
 C509 C 0.87799 0.79347 0.64610
 H510 H 0.84252 0.78667 0.61232
 H511 H 0.89177 0.79077 0.65465
 N512 N 0.80948 0.85140 0.63448
 N513 N 0.81145 0.86746 0.64642
 C514 C 0.79615 0.88053 0.64256
 C515 C 0.78388 0.87225 0.62758
 C516 C 0.79279 0.85377 0.62284
 H517 H 0.79378 0.89480 0.65041
 H518 H 0.78761 0.84299 0.61153
 H519 H 0.83056 0.83866 0.66413
 H520 H 0.84692 0.85210 0.64515
 N521 N 0.64727 0.63228 0.68880
 N522 N 0.63379 0.64705 0.68927
 C523 C 0.62138 0.64418 0.70536
 C524 C 0.62730 0.62658 0.71535
 C525 C 0.64374 0.61940 0.70438
 H526 H 0.60889 0.65406 0.70947
 H527 H 0.65279 0.60608 0.70780
 Cu528 Cu 0.63384 0.66850 0.66876
 Cu529 Cu 0.66897 0.63134 0.66866
 Cu530 Cu 0.66930 0.66926 0.63184
 N531 N 0.63379 0.68931 0.64760
 N532 N 0.64805 0.68980 0.63356
 C533 C 0.64506 0.70606 0.62142
 C534 C 0.62789 0.71621 0.62806
 C535 C 0.62106 0.70512 0.64466
 H536 H 0.65455 0.71009 0.60857
 H537 H 0.60807 0.70861 0.65411
 N538 N 0.68949 0.64714 0.63268
 N539 N 0.68966 0.63301 0.64702
 C540 C 0.70575 0.62070 0.64403
 C541 C 0.71605 0.62726 0.62687
 C542 C 0.70530 0.64400 0.62001
 H543 H 0.70964 0.60781 0.65351
 H544 H 0.70905 0.65345 0.60704
 H545 H 0.66984 0.66222 0.66256
 H546 H 0.65304 0.64636 0.64601
 N547 N 0.64756 1.13301 1.18874
 N548 N 0.63654 1.14948 1.19128
 C549 C 0.62451 1.14702 1.20768
 C550 C 0.62797 1.12780 1.21586
 C551 C 0.64268 1.11933 1.20324
 H552 H 0.61382 1.15834 1.21297
 H553 H 0.64998 1.10469 1.20490
 Cu554 Cu 0.63868 1.17260 1.17292
 Cu555 Cu 0.66868 1.13136 1.16803
 Cu556 Cu 0.66978 1.16994 1.13211
 N557 N 0.63670 1.19178 1.15044
 N558 N 0.64933 1.19114 1.13492
 C559 C 0.64531 1.20679 1.12229
 C560 C 0.62913 1.21765 1.13019
 C561 C 0.62396 1.20765 1.14802
 H562 H 0.65341 1.20995 1.10829
 H563 H 0.61216 1.21192 1.15868
 N564 N 0.68912 1.14707 1.13202
 N565 N 0.68894 1.13257 1.14597
 C566 C 0.70470 1.11994 1.14263
 C567 C 0.71516 1.12668 1.12564
 C568 C 0.70482 1.14386 1.11924
 H569 H 0.70841 1.10685 1.15194
 H570 H 0.70892 1.15368 1.10664
 H571 H 0.67272 1.16217 1.16258
 H572 H 0.65219 1.14907 1.14779
 N573 N 0.14819 0.63410 1.18859
 N574 N 0.13839 0.65123 1.19175
 C575 C 0.12692 0.64930 1.20866
 C576 C 0.12947 0.62974 1.21645
 C577 C 0.14311 0.62060 1.20313
 H578 H 0.11712 0.66117 1.21446
 H579 H 0.14943 0.60545 1.20415
 Cu580 Cu 0.14088 0.67421 1.17308
 Cu581 Cu 0.16778 0.63101 1.16667
 Cu582 Cu 0.16626 0.66720 1.12871
 N583 N 0.13734 0.69228 1.14977
 N584 N 0.14637 0.68886 1.13223
 C585 C 0.14070 0.70325 1.11877
 C586 C 0.12751 0.71670 1.12839
 C587 C 0.12580 0.70914 1.14815
 H588 H 0.14643 0.70417 1.10335
 H589 H 0.11661 0.71512 1.16042
 N590 N 0.18552 0.64423 1.12840
 N591 N 0.18639 0.63070 1.14326
 C592 C 0.20231 0.61827 1.14006
 C593 C 0.21192 0.62418 1.12226
 C594 C 0.20079 0.64062 1.11519
 H595 H 0.20690 0.60613 1.15021
 H596 H 0.20429 0.64996 1.10206
 H597 H 0.17261 0.66157 1.15902
 H598 H 0.14954 0.64883 1.14784
 N599 N 0.14630 1.13235 0.68797
 N600 N 0.13368 1.14780 0.68916
 C601 C 0.12148 1.14518 0.70544
 C602 C 0.12646 1.12687 0.71483
 C603 C 0.14223 1.11911 0.70311
 H604 H 0.10966 1.15569 0.70989
 H605 H 0.15084 1.10538 0.70592
 Cu606 Cu 0.13434 1.16969 0.66915
 Cu607 Cu 0.16838 1.13158 0.66820
 Cu608 Cu 0.17080 1.17129 0.63332
 N609 N 0.13491 1.19100 0.64850
 N610 N 0.14995 1.19223 0.63538
 C611 C 0.14742 1.20888 0.62369
 C612 C 0.12952 1.21848 0.62943
 C613 C 0.12196 1.20655 0.64521
 H614 H 0.15748 1.21314 0.61138
 H615 H 0.10837 1.20926 0.65405
 N616 N 0.19037 1.14858 0.63364
 N617 N 0.18963 1.13364 0.64711
 C618 C 0.20538 1.12096 0.64384
 C619 C 0.21636 1.12811 0.62736
 C620 C 0.20639 1.14558 0.62121
 H621 H 0.20860 1.10743 0.65267
 H622 H 0.21079 1.15558 0.60887
 H623 H 0.17030 1.16264 0.66366
 H624 H 0.15357 1.14815 0.64585
 N625 N 1.35938 0.62648 0.31856
 N626 N 1.37187 0.64201 0.31718
 C627 C 1.38310 0.64013 0.30015
 C628 C 1.37749 0.62231 0.29038
 C629 C 1.36245 0.61395 0.30260
 H630 H 1.39466 0.65082 0.29537
 H631 H 1.35399 0.60011 0.29985
 Cu632 Cu 1.37280 0.66287 0.33813
 Cu633 Cu 1.33977 0.62434 0.34078
 Cu634 Cu 1.32877 0.67145 0.36222
 N635 N 1.36949 0.68590 0.35632
 N636 N 1.35200 0.68970 0.36517
 C637 C 1.35345 0.70725 0.37567
 C638 C 1.37312 0.71478 0.37357
 C639 C 1.38281 0.70064 0.36115
 H640 H 1.34112 0.71372 0.38440
 H641 H 1.39818 0.70123 0.35543
 N642 N 1.31067 0.64755 0.36463
 N643 N 1.31525 0.62950 0.35709
 C644 C 1.30044 0.61624 0.36196
 C645 C 1.28575 0.62638 0.37319
 C646 C 1.29282 0.64623 0.37458
 H647 H 1.30032 0.60044 0.35736
 H648 H 1.28575 0.65873 0.38262
 H649 H 1.33674 0.65451 0.33653
 H650 H 1.34830 0.64746 0.36154
 N651 N 1.35558 1.13117 0.81403
 N652 N 1.36663 1.14760 0.81116
 C653 C 1.37778 1.14531 0.79413
 C654 C 1.37363 1.12634 0.78591
 C655 C 1.35955 1.11772 0.79905
 H656 H 1.38822 1.15658 0.78823
 H657 H 1.35230 1.10302 0.79759
 Cu658 Cu 1.36540 1.17031 0.83001
 Cu659 Cu 1.33670 1.12884 0.83686
 Cu660 Cu 1.32457 1.17502 0.85974
 N661 N 1.36419 1.19102 0.85111
 N662 N 1.34781 1.19324 0.86235
 C663 C 1.35020 1.20942 0.87468
 C664 C 1.36926 1.21766 0.87116
 C665 C 1.37772 1.20553 0.85611
 H666 H 1.33894 1.21466 0.88548
 H667 H 1.39237 1.20748 0.84891
 N668 N 1.30768 1.15045 0.86239
 N669 N 1.31266 1.13271 0.85440
 C670 C 1.29840 1.11890 0.85946
 C671 C 1.28372 1.12842 0.87125
 C672 C 1.29019 1.14843 0.87279
 H673 H 1.29851 1.10320 0.85451
 H674 H 1.28294 1.16062 0.88114
 H675 H 1.33026 1.15871 0.83269
 H676 H 1.34544 1.15287 0.85600
 N677 N 0.85314 0.63208 0.81239
 N678 N 0.86695 0.64652 0.81242
 C679 C 0.87938 0.64386 0.79631
 C680 C 0.87315 0.62669 0.78582
 C681 C 0.85648 0.61957 0.79649
 H682 H 0.89213 0.65354 0.79256
 H683 H 0.84719 0.60654 0.79267
 Cu684 Cu 0.86747 0.66727 0.83360
 Cu685 Cu 0.83133 0.63105 0.83239
 Cu686 Cu 0.83083 0.66866 0.86943
 N687 N 0.86677 0.68842 0.85436
 N688 N 0.85214 0.68917 0.86799
 C689 C 0.85485 0.70562 0.87992
 C690 C 0.87223 0.71563 0.87356
 C691 C 0.87943 0.70426 0.85734
 H692 H 0.84504 0.70987 0.89244
 H693 H 0.89267 0.70757 0.84815
 N694 N 0.81058 0.64658 0.86831
 N695 N 0.81052 0.63256 0.85389
 C696 C 0.79446 0.62018 0.85673
 C697 C 0.78404 0.62656 0.87387
 C698 C 0.79472 0.64328 0.88088
 H699 H 0.79069 0.60732 0.84717
 H700 H 0.79091 0.65260 0.89392
 H701 H 0.83116 0.66195 0.83862
 H702 H 0.84694 0.64548 0.85562
 N703 N 0.85034 1.13562 0.31005
 N704 N 0.85999 1.15271 0.30619
 C705 C 0.87077 1.15060 0.28890
 C706 C 0.86783 1.13107 0.28149
 C707 C 0.85479 1.12197 0.29539
 H708 H 0.88045 1.16226 0.28250
 H709 H 0.84882 1.10664 0.29487
 Cu710 Cu 0.85867 1.17579 0.32460
 Cu711 Cu 0.83305 1.13238 0.33397
 Cu712 Cu 0.82311 1.17661 0.36099
 N713 N 0.85988 1.19512 0.34700
 N714 N 0.84615 1.19513 0.36155
 C715 C 0.85039 1.21012 0.37488
 C716 C 0.86768 1.22011 0.36823
 C717 C 0.87328 1.21020 0.35047
 H718 H 0.84124 1.21381 0.38807
 H719 H 0.88614 1.21368 0.34081
 N720 N 0.80659 1.15191 0.36367
 N721 N 0.81068 1.13482 0.35393
 C722 C 0.79652 1.12085 0.35886
 C723 C 0.78283 1.12962 0.37232
 C724 C 0.78979 1.14933 0.37503
 H725 H 0.79580 1.10567 0.35252
 H726 H 0.78316 1.16099 0.38456
 H727 H 0.82496 1.16223 0.33223
 H728 H 0.84399 1.15589 0.35240
 N729 N 0.64369 0.36935 0.31449
 N730 N 0.63160 0.35355 0.31279
 C731 C 0.61923 0.35631 0.29668
 C732 C 0.62360 0.37503 0.28783
 C733 C 0.63914 0.38294 0.29979
 H734 H 0.60790 0.34546 0.29184
 H735 H 0.64744 0.39692 0.29727
 Cu736 Cu 0.63350 0.33069 0.33150
 Cu737 Cu 0.66631 0.36974 0.33371
 Cu738 Cu 0.67199 0.32719 0.36482
 N739 N 0.63535 0.30819 0.35065
 N740 N 0.65116 0.30619 0.36270
 C741 C 0.64906 0.28909 0.37384
 C742 C 0.63065 0.28002 0.36884
 C743 C 0.62240 0.29269 0.35403
 H744 H 0.65968 0.28428 0.38545
 H745 H 0.60819 0.29068 0.34606
 N746 N 0.69110 0.35031 0.36493
 N747 N 0.68840 0.36689 0.35385
 C748 C 0.70347 0.38014 0.35795
 C749 C 0.71632 0.37147 0.37223
 C750 C 0.70799 0.35255 0.37628
 H751 H 0.70527 0.39484 0.35074
 H752 H 0.71366 0.34139 0.38698
 H753 H 0.66947 0.33853 0.33540
 H754 H 0.65346 0.35078 0.35543
 N755 N 0.64642 0.86845 0.81259
 N756 N 0.63304 0.85360 0.81228
 C757 C 0.62050 0.85632 0.79627
 C758 C 0.62622 0.87392 0.78617
 C759 C 0.64270 0.88125 0.79699
 H760 H 0.60804 0.84636 0.79230
 H761 H 0.65162 0.89462 0.79345
 Cu762 Cu 0.63335 0.83225 0.83285
 Cu763 Cu 0.66823 0.86960 0.83259
 Cu764 Cu 0.66903 0.83179 0.86955
 N765 N 0.63356 0.81151 0.85404
 N766 N 0.64789 0.81111 0.86801
 C767 C 0.64503 0.79486 0.88019
 C768 C 0.62786 0.78464 0.87364
 C769 C 0.62092 0.79567 0.85706
 H770 H 0.65460 0.79087 0.89299
 H771 H 0.60791 0.79210 0.84766
 N772 N 0.68907 0.85405 0.86849
 N773 N 0.68905 0.86813 0.85411
 C774 C 0.70504 0.88058 0.85697
 C775 C 0.71550 0.87416 0.87408
 C776 C 0.70492 0.85736 0.88105
 H777 H 0.70877 0.89348 0.84743
 H778 H 0.70881 0.84798 0.89404
 H779 H 0.66934 0.83874 0.83881
 H780 H 0.65255 0.85456 0.85542
 N781 N 0.15052 0.36452 0.80946
 N782 N 0.13975 0.34783 0.80726
 C783 C 0.12763 0.34986 0.79082
 C784 C 0.13092 0.36894 0.78236
 C785 C 0.14557 0.37778 0.79463
 H786 H 0.11695 0.33847 0.78566
 H787 H 0.15232 0.39268 0.79279
 Cu788 Cu 0.14212 0.32521 0.82633
 Cu789 Cu 0.17033 0.36774 0.83116
 Cu790 Cu 0.16840 0.33239 0.87004
 N791 N 0.13894 0.30732 0.84978
 N792 N 0.14835 0.31078 0.86710
 C793 C 0.14299 0.29640 0.88071
 C794 C 0.12963 0.28291 0.87139
 C795 C 0.12747 0.29046 0.85167
 H796 H 0.14908 0.29547 0.89599
 H797 H 0.11806 0.28443 0.83960
 N798 N 0.18785 0.35522 0.86978
 N799 N 0.18897 0.36830 0.85454
 C800 C 0.20483 0.38083 0.85764
 C801 C 0.21413 0.37547 0.87577
 C802 C 0.20290 0.35923 0.88313
 H803 H 0.20947 0.39280 0.84731
 H804 H 0.20610 0.35037 0.89666
 H805 H 0.17446 0.33733 0.83955
 H806 H 0.15201 0.35099 0.85078
 N807 N 0.14610 0.86773 0.31279
 N808 N 0.13125 0.85442 0.31412
 C809 C 0.11832 0.85731 0.29846
 C810 C 0.12532 0.87351 0.28691
 C811 C 0.14295 0.87977 0.29648
 H812 H 0.10472 0.84847 0.29578
 H813 H 0.15298 0.89189 0.29163
 Cu814 Cu 0.12979 0.83493 0.33643
 Cu815 Cu 0.16885 0.86788 0.33170
 Cu816 Cu 0.17038 0.82894 0.36716
 N817 N 0.13231 0.81171 0.35470
 N818 N 0.14861 0.80896 0.36591
 C819 C 0.14671 0.79148 0.37644
 C820 C 0.12799 0.78283 0.37189
 C821 C 0.11928 0.79626 0.35800
 H822 H 0.15789 0.78594 0.38716
 H823 H 0.10477 0.79475 0.35044
 N824 N 0.19090 0.85071 0.36602
 N825 N 0.19056 0.86531 0.35218
 C826 C 0.20671 0.87757 0.35504
 C827 C 0.21756 0.87049 0.37165
 C828 C 0.20708 0.85349 0.37828
 H829 H 0.21013 0.89091 0.34601
 H830 H 0.21111 0.84377 0.39097
 H831 H 0.16664 0.83688 0.33683
 H832 H 0.15471 0.85402 0.35626
 O833 O 1.07339 1.01942 1.10226
 O834 O 1.09708 1.01924 1.12604
 C835 C 1.08059 1.02630 1.11885
 C836 C 1.07005 1.04314 1.12951
 C837 C 1.07746 1.05053 1.14816
 H838 H 1.09024 1.04302 1.15537
 O839 O 0.92665 0.98164 1.10152
 O840 O 0.90276 0.98189 1.12511
 C841 C 0.91932 0.97484 1.11811
 C842 C 0.92978 0.95804 1.12896
 C843 C 0.92246 0.95096 1.14780
 H844 H 0.91004 0.95894 1.15507
 O845 O 1.02085 1.10119 1.07402
 O846 O 1.02121 1.12505 1.09766
 C847 C 1.02802 1.11769 1.08109
 C848 C 1.04470 1.12815 1.07011
 C849 C 1.05240 1.14676 1.07728
 H850 H 1.04598 1.15349 1.09091
 O851 O 0.97927 0.89911 1.07437
 O852 O 0.97894 0.87540 1.09822
 C853 C 0.97217 0.88262 1.08157
 C854 C 0.95552 0.87205 1.07068
 C855 C 0.94756 0.85366 1.07819
 H856 H 0.95388 0.84704 1.09193
 O857 O 1.10150 1.07300 1.01992
 O858 O 1.12531 1.09662 1.02009
 C859 C 1.11795 1.08013 1.02709
 C860 C 1.12833 1.06948 1.04410
 C861 C 1.14691 1.07677 1.05165
 H862 H 1.15417 1.08962 1.04429
 O863 O 0.89933 0.92717 1.01992
 O864 O 0.87546 0.90362 1.01993
 C865 C 0.88281 0.92008 1.02696
 C866 C 0.87232 0.93084 1.04381
 C867 C 0.85389 0.92339 1.05165
 H868 H 0.84729 0.90975 1.04518
 O869 O 0.98083 1.07404 1.10205
 O870 O 0.98103 1.09780 1.12579
 C871 C 0.97384 1.08137 1.11853
 C872 C 0.95670 1.07104 1.12890
 C873 C 0.94878 1.07873 1.14725
 H874 H 0.95601 1.09166 1.15448
 O875 O 1.01884 0.92695 1.10239
 O876 O 1.01853 0.90336 1.12634
 C877 C 1.02565 0.91981 1.11905
 C878 C 1.04253 0.93036 1.12964
 C879 C 1.04973 0.92314 1.14847
 H880 H 1.04186 0.91072 1.15591
 O881 O 1.10108 0.97967 1.07423
 O882 O 1.12484 0.97946 1.09794
 C883 C 1.11753 0.97253 1.08141
 C884 C 1.12789 0.95559 1.07071
 C885 C 1.14610 0.94745 1.07836
 H886 H 1.15275 0.95387 1.09202
 O887 O 0.89926 1.02129 1.07292
 O888 O 0.87525 1.02140 1.09638
 C889 C 0.88267 1.02831 1.07987
 C890 C 0.87229 1.04519 1.06909
 C891 C 0.85351 1.05248 1.07610
 H892 H 0.84597 1.04468 1.08853
 O893 O 0.92834 1.10318 1.01970
 O894 O 0.90497 1.12723 1.01981
 C895 C 0.92140 1.11979 1.02675
 C896 C 0.93218 1.13017 1.04365
 C897 C 0.92520 1.14895 1.05109
 H898 H 0.91260 1.15645 1.04356
 O899 O 1.07250 0.89856 1.02094
 O900 O 1.09590 0.87453 1.02091
 C901 C 1.07957 0.88200 1.02804
 C902 C 1.06896 0.87161 1.04509
 C903 C 1.07640 0.85317 1.05302
 H904 H 1.08995 0.84650 1.04648
 O905 O 0.92665 1.02138 1.10130
 O906 O 0.90269 1.02161 1.12481
 C907 C 0.91931 1.02848 1.11775
 C908 C 0.92994 1.04524 1.12844
 C909 C 0.92218 1.05322 1.14673
 H910 H 0.90849 1.04679 1.15326
 O911 O 1.07327 0.97967 1.10211
 O912 O 1.09694 0.97945 1.12591
 C913 C 1.08041 0.97257 1.11866
 C914 C 1.06955 0.95586 1.12929
 C915 C 1.07687 0.94806 1.14786
 H916 H 1.09057 0.95441 1.15440
 O917 O 1.01886 0.89897 1.07454
 O918 O 1.01861 0.87527 1.09838
 C919 C 1.02568 0.88239 1.08180
 C920 C 1.04246 0.87169 1.07120
 C921 C 1.04982 0.85301 1.07860
 H922 H 1.04223 0.84580 1.09135
 O923 O 0.98125 1.10201 1.07422
 O924 O 0.98156 1.12587 1.09787
 C925 C 0.97453 1.11870 1.08131
 C926 C 0.95802 1.12958 1.07045
 C927 C 0.95062 1.14826 1.07782
 H928 H 0.95727 1.15489 1.09138
 O929 O 0.90009 1.07572 1.01973
 O930 O 0.87662 1.09967 1.01990
 C931 C 0.88366 1.08302 1.02679
 C932 C 0.87292 1.07220 1.04345
 C933 C 0.85436 1.07960 1.05103
 H934 H 0.84786 1.09330 1.04454
 O935 O 1.10046 0.92631 1.02046
 O936 O 1.12390 0.90232 1.02043
 C937 C 1.11694 0.91898 1.02736
 C938 C 1.12768 0.92955 1.04413
 C939 C 1.14609 0.92186 1.05174
 H940 H 1.15313 0.90893 1.04432
 O941 O 0.97916 0.92712 1.10208
 O942 O 0.97880 0.90351 1.12602
 C943 C 0.97198 0.92005 1.11861
 C944 C 0.95523 0.93097 1.12903
 C945 C 0.94727 0.92370 1.14754
 H946 H 0.95352 0.90995 1.15416
 O947 O 1.02052 1.07368 1.10233
 O948 O 1.02081 1.09743 1.12609
 C949 C 1.02758 1.08080 1.11890
 C950 C 1.04423 1.06990 1.12951
 C951 C 1.05203 1.07722 1.14808
 H952 H 1.04553 1.09076 1.15488
 O953 O 0.89915 0.98149 1.07321
 O954 O 0.87520 0.98165 1.09673
 C955 C 0.88256 0.97457 1.08028
 C956 C 0.87210 0.95764 1.06966
 C957 C 0.85347 0.95023 1.07699
 H958 H 0.84614 0.95785 1.08965
 O959 O 1.10113 1.01948 1.07423
 O960 O 1.12491 1.01934 1.09791
 C961 C 1.11766 1.02643 1.08139
 C962 C 1.12822 1.04328 1.07066
 C963 C 1.14676 1.05091 1.07806
 H964 H 1.15358 1.04416 1.09149
 O965 O 0.92683 0.89902 1.01975
 O966 O 0.90302 0.87539 1.01970
 C967 C 0.91955 0.88250 1.02671
 C968 C 0.92999 0.87189 1.04366
 C969 C 0.92249 0.85332 1.05114
 H970 H 0.90983 0.84608 1.04350
 O971 O 1.07378 1.10102 1.01933
 O972 O 1.09752 1.12470 1.01944
 C973 C 1.08093 1.11757 1.02630
 C974 C 1.07027 1.12824 1.04308
 C975 C 1.07743 1.14707 1.05019
 H976 H 1.08992 1.15443 1.04236
 Cu977 Cu 1.08486 0.99958 1.08582
 Cu978 Cu 1.11333 0.99937 1.11432
 Cu979 Cu 0.91533 1.00143 1.08488
 Cu980 Cu 0.88656 1.00165 1.11310
 Cu981 Cu 1.00084 1.08533 1.08581
 Cu982 Cu 1.00120 1.11391 1.11425
 Cu983 Cu 0.99906 0.91541 1.08596
 Cu984 Cu 0.99871 0.88702 1.11465
 C985 C 1.05327 1.05276 1.12044
 H986 H 1.04764 1.04729 1.10592
 C987 C 1.06868 1.06766 1.15751
 C988 C 0.94639 0.94817 1.11989
 H989 H 0.95207 0.95352 1.10533
 C990 C 0.93091 0.93362 1.15717
 C991 C 1.05370 1.11905 1.05294
 H992 H 1.04819 1.10444 1.04762
 C993 C 1.06876 1.15640 1.06742
 C994 C 0.94669 0.88098 1.05335
 H995 H 0.95242 0.89541 1.04777
 C996 C 0.93103 0.84415 1.06852
 C997 C 1.11921 1.05260 1.05359
 H998 H 1.10475 1.04705 1.04801
 C999 C 1.15621 1.06768 1.06868
 C1000 C 0.88126 0.94802 1.05289
 H1001 H 0.89570 0.95357 1.04725
 C1002 C 0.84430 0.93297 1.06825
 C1003 C 0.94730 1.05415 1.11976
 H1004 H 0.95315 1.04831 1.10547
 C1005 C 0.93146 1.06998 1.15623
 C1006 C 1.05234 0.94692 1.12034
 H1007 H 1.04692 0.95249 1.10577
 C1008 C 1.06704 0.93172 1.15766
 C1009 C 1.11887 0.94660 1.05353
 H1010 H 1.10457 0.95247 1.04786
 C1011 C 1.15536 0.93057 1.06898
 C1012 C 0.88172 1.05496 1.05255
 H1013 H 0.89628 1.04948 1.04715
 C1014 C 0.84448 1.06984 1.06737
 C1015 C 0.94877 1.12073 1.05328
 H1016 H 0.95409 1.10613 1.04778
 C1017 C 0.93418 1.15807 1.06827
 C1018 C 1.05195 0.88070 1.05426
 H1019 H 1.04642 0.89516 1.04854
 C1020 C 1.06692 0.84365 1.06976
 O1021 O 1.07389 0.98034 0.89837
 O1022 O 1.09761 0.98011 0.87461
 C1023 C 1.08101 0.97332 0.88179
 C1024 C 1.07013 0.95672 0.87109
 C1025 C 1.07760 0.94889 0.85261
 H1026 H 1.09129 0.95528 0.84606
 O1027 O 0.92670 1.02103 0.89879
 O1028 O 0.90292 1.02120 0.87510
 C1029 C 0.91955 1.02800 0.88220
 C1030 C 0.93036 1.04461 0.87143
 C1031 C 0.92310 1.05203 0.85270
 H1032 H 0.91019 1.04472 0.84555
 O1033 O 0.98098 1.10243 0.92583
 O1034 O 0.98128 1.12603 0.90188
 C1035 C 0.97422 1.11903 0.91850
 C1036 C 0.95756 1.12987 0.92913
 C1037 C 0.94969 1.14819 0.92129
 H1038 H 0.95623 1.15477 0.90763
 O1039 O 1.01942 0.89970 0.92605
 O1040 O 1.01943 0.87603 0.90222
 C1041 C 1.02636 0.88316 0.91884
 C1042 C 1.04296 0.87240 0.92970
 C1043 C 1.05082 0.85401 0.92208
 H1044 H 1.04456 0.84760 0.90823
 O1045 O 1.10028 0.92603 0.98066
 O1046 O 1.12371 0.90202 0.98065
 C1047 C 1.11668 0.91862 0.97361
 C1048 C 1.12734 0.92907 0.95666
 C1049 C 1.14572 0.92131 0.94906
 H1050 H 1.15268 0.90828 0.95642
 O1051 O 0.89999 1.07577 0.97992
 O1052 O 0.87647 1.09968 0.98004
 C1053 C 0.88350 1.08308 0.97300
 C1054 C 0.87271 1.07238 0.95630
 C1055 C 0.85407 1.07975 0.94886
 H1056 H 0.84745 1.09328 0.95556
 O1057 O 1.02024 1.07355 0.89827
 O1058 O 1.02053 1.09708 0.87425
 C1059 C 1.02728 1.08049 0.88161
 C1060 C 1.04404 1.06964 0.87113
 C1061 C 1.05127 1.07661 0.85223
 H1062 H 1.04328 1.08886 0.84464
 O1063 O 0.97990 0.92793 0.89827
 O1064 O 0.97979 0.90434 0.87435
 C1065 C 0.97290 0.92088 0.88167
 C1066 C 0.95609 0.93163 0.87119
 C1067 C 0.94873 0.92454 0.85240
 H1068 H 0.95633 0.91194 0.84497
 O1069 O 1.10228 1.01942 0.92656
 O1070 O 1.12610 1.01921 0.90291
 C1071 C 1.11892 1.02620 0.91946
 C1072 C 1.12958 1.04288 0.93025
 C1073 C 1.14804 1.05061 0.92277
 H1074 H 1.15487 1.04392 0.90932
 O1075 O 0.89864 0.98172 0.92710
 O1076 O 0.87477 0.98186 0.90350
 C1077 C 0.88203 0.97486 0.92004
 C1078 C 0.87148 0.95806 0.93077
 C1079 C 0.85273 0.95081 0.92364
 H1080 H 0.84532 0.95855 0.91110
 O1081 O 1.07449 1.10091 0.97944
 O1082 O 1.09826 1.12456 0.97956
 C1083 C 1.08184 1.11737 0.97238
 C1084 C 1.07139 1.12795 0.95535
 C1085 C 1.07912 1.14629 0.94742
 H1086 H 1.09280 1.15272 0.95392
 O1087 O 0.92687 0.89926 0.97995
 O1088 O 0.90307 0.87563 0.97990
 C1089 C 0.91961 0.88277 0.97291
 C1090 C 0.93014 0.87224 0.95597
 C1091 C 0.92280 0.85362 0.94848
 H1092 H 0.91016 0.84631 0.95611
 O1093 O 0.92610 0.98130 0.89881
 O1094 O 0.90232 0.98143 0.87512
 C1095 C 0.91881 0.97434 0.88228
 C1096 C 0.92943 0.95754 0.87157
 C1097 C 0.92204 0.94996 0.85294
 H1098 H 0.90851 0.95659 0.84628
 O1099 O 1.07429 1.02011 0.89885
 O1100 O 1.09800 1.01996 0.87509
 C1101 C 1.08157 1.02714 0.88234
 C1102 C 1.07098 1.04403 0.87172
 C1103 C 1.07851 1.05182 0.85322
 H1104 H 1.09231 1.04547 0.84691
 O1105 O 0.97974 0.89957 0.92571
 O1106 O 0.97968 0.87590 0.90188
 C1107 C 0.97271 0.88308 0.91845
 C1108 C 0.95592 0.87248 0.92915
 C1109 C 0.94808 0.85406 0.92160
 H1110 H 0.95454 0.84748 0.90792
 O1111 O 1.02061 1.10162 0.92604
 O1112 O 1.02096 1.12524 0.90212
 C1113 C 1.02781 1.11803 0.91875
 C1114 C 1.04477 1.12840 0.92937
 C1115 C 1.05239 1.14697 0.92201
 H1116 H 1.04484 1.15436 0.90934
 O1117 O 0.89911 0.92722 0.98008
 O1118 O 0.87523 0.90367 0.98006
 C1119 C 0.88252 0.92019 0.97312
 C1120 C 0.87187 0.93111 0.95648
 C1121 C 0.85333 0.92379 0.94882
 H1122 H 0.84677 0.91012 0.95530
 O1123 O 1.10214 1.07285 0.98010
 O1124 O 1.12596 1.09645 0.98027
 C1125 C 1.11878 1.07991 0.97330
 C1126 C 1.12948 1.06915 0.95661
 C1127 C 1.14796 1.07662 0.94899
 H1128 H 1.15503 1.08969 0.95615
 O1129 O 1.01953 0.92754 0.89799
 O1130 O 1.01944 0.90395 0.87407
 C1131 C 1.02644 0.92044 0.88135
 C1132 C 1.04329 0.93105 0.87078
 C1133 C 1.05068 0.92374 0.85208
 H1134 H 1.04304 0.91114 0.84472
 O1135 O 0.98056 1.07422 0.89827
 O1136 O 0.98084 1.09775 0.87425
 C1137 C 0.97365 1.08137 0.88165
 C1138 C 0.95673 1.07080 0.87118
 C1139 C 0.94910 1.07816 0.85256
 H1140 H 0.95589 1.09150 0.84564
 O1141 O 0.89895 1.02149 0.92681
 O1142 O 0.87507 1.02165 0.90322
 C1143 C 0.88246 1.02863 0.91971
 C1144 C 0.87214 1.04562 0.93040
 C1145 C 0.85338 1.05302 0.92338
 H1146 H 0.84588 1.04542 0.91081
 O1147 O 1.10129 0.97967 0.92662
 O1148 O 1.12511 0.97937 0.90296
 C1149 C 1.11767 0.97239 0.91945
 C1150 C 1.12781 0.95526 0.93012
 C1151 C 1.14607 0.94710 0.92260
 H1152 H 1.15294 0.95363 0.90908
 O1153 O 1.07195 0.89866 0.98098
 O1154 O 1.09532 0.87461 0.98097
 C1155 C 1.07892 0.88204 0.97397
 C1156 C 1.06833 0.87171 0.95693
 C1157 C 1.07565 0.85312 0.94936
 H1158 H 1.08814 0.84564 0.95707
 O1159 O 0.92807 1.10335 0.97984
 O1160 O 0.90464 1.12735 0.97991
 C1161 C 0.92101 1.11994 0.97282
 C1162 C 0.93157 1.13029 0.95576
 C1163 C 0.92397 1.14861 0.94776
 H1164 H 0.91097 1.15580 0.95487
 Cu1165 Cu 1.08557 0.99992 0.91497
 Cu1166 Cu 1.11409 0.99965 0.88651
 Cu1167 Cu 0.91498 1.00137 0.91525
 Cu1168 Cu 0.88637 1.00156 0.88687
 Cu1169 Cu 1.08558 1.08459 0.99967
 Cu1170 Cu 1.11414 1.11296 0.99988
 Cu1171 Cu 1.08393 0.91477 1.00078
 Cu1172 Cu 1.11203 0.88594 1.00073
 Cu1173 Cu 0.91647 1.08711 0.99979
 Cu1174 Cu 0.88834 1.11591 0.99994
 Cu1175 Cu 0.91542 0.91553 0.99991
 Cu1176 Cu 0.88680 0.88721 0.99989
 Cu1177 Cu 1.00055 1.08560 0.91450
 Cu1178 Cu 1.00097 1.11388 0.88571
 Cu1179 Cu 0.99967 0.91604 0.91440
 Cu1180 Cu 0.99959 0.88768 0.88573
 C1181 C 1.05292 0.94774 0.88000
 H1182 H 1.04739 0.95335 0.89452
 C1183 C 1.06799 0.93239 0.84293
 C1184 C 0.94734 1.05394 0.88041
 H1185 H 0.95287 1.04844 0.89496
 C1186 C 0.93226 1.06890 0.84320
 C1187 C 0.94850 1.12117 0.94648
 H1188 H 0.95423 1.10688 0.95239
 C1189 C 0.93282 1.15760 0.93044
 C1190 C 1.05179 0.88108 0.94718
 H1191 H 1.04618 0.89551 0.95284
 C1192 C 1.06721 0.84423 0.93179
 C1193 C 1.11863 0.94619 0.94722
 H1194 H 1.10434 0.95212 0.95287
 C1195 C 1.15516 0.93011 0.93196
 C1196 C 0.88154 1.05524 0.94702
 H1197 H 0.89610 1.04972 0.95240
 C1198 C 0.84425 1.07017 0.93239
 C1199 C 1.05376 1.05309 0.88056
 H1200 H 1.04824 1.04763 0.89514
 C1201 C 1.06873 1.06810 0.84322
 C1202 C 0.94651 0.94831 0.88051
 H1203 H 0.95202 0.95375 0.89509
 C1204 C 0.93158 0.93343 0.84321
 C1205 C 1.12054 1.05213 0.94730
 H1206 H 1.10612 1.04650 0.95290
 C1207 C 1.15730 1.06754 0.93200
 C1208 C 0.88078 0.94830 0.94740
 H1209 H 0.89532 0.95373 0.95288
 C1210 C 0.84358 0.93354 0.93241
 C1211 C 1.05419 1.11918 0.94623
 H1212 H 1.04845 1.10480 0.95192
 C1213 C 1.06971 1.15599 0.93075
 C1214 C 0.94689 0.88139 0.94638
 H1215 H 0.95253 0.89583 0.95199
 C1216 C 0.93150 0.84445 0.93117
 O1217 O 0.97962 0.42644 0.39808
 O1218 O 0.97975 0.40267 0.37435
 C1219 C 0.97261 0.41911 0.38159
 C1220 C 0.95567 0.42959 0.37104
 C1221 C 0.94780 0.42190 0.35267
 H1222 H 0.95433 0.40824 0.34617
 O1223 O 1.02003 0.57256 0.39703
 O1224 O 1.01991 0.59631 0.37322
 C1225 C 1.02691 0.57977 0.38041
 C1226 C 1.04384 0.56930 0.36986
 C1227 C 1.05142 0.57685 0.35132
 H1228 H 1.04371 0.58943 0.34396
 O1229 O 0.89856 0.47971 0.42614
 O1230 O 0.87473 0.47973 0.40250
 C1231 C 0.88203 0.47272 0.41902
 C1232 C 0.87152 0.45590 0.42980
 C1233 C 0.85310 0.44808 0.42235
 H1234 H 0.84635 0.45465 0.40879
 O1235 O 1.10187 0.51997 0.42582
 O1236 O 1.12567 0.51980 0.40215
 C1237 C 1.11843 0.52686 0.41867
 C1238 C 1.12896 0.54366 0.42943
 C1239 C 1.14747 0.55141 0.42209
 H1240 H 1.15438 0.54471 0.40868
 O1241 O 0.92649 0.39864 0.48002
 O1242 O 0.90291 0.37480 0.47998
 C1243 C 0.91933 0.38214 0.47293
 C1244 C 0.92997 0.37171 0.45596
 C1245 C 0.92228 0.35347 0.44784
 H1246 H 0.90857 0.34696 0.45422
 O1247 O 1.07334 0.60055 0.47958
 O1248 O 1.09685 0.62446 0.47973
 C1249 C 1.08045 0.61715 0.47262
 C1250 C 1.06996 0.62761 0.45556
 C1251 C 1.07732 0.64623 0.44802
 H1252 H 1.08978 0.65363 0.45581
 O1253 O 0.92623 0.51959 0.39824
 O1254 O 0.90249 0.51967 0.37451
 C1255 C 0.91901 0.52662 0.38170
 C1256 C 0.92971 0.54336 0.37102
 C1257 C 0.92231 0.55094 0.35241
 H1258 H 0.90881 0.54429 0.34574
 O1259 O 1.07368 0.48043 0.39815
 O1260 O 1.09731 0.48013 0.37430
 C1261 C 1.08074 0.47333 0.38160
 C1262 C 1.06982 0.45666 0.37104
 C1263 C 1.07706 0.44895 0.35243
 H1264 H 1.09066 0.45540 0.34574
 O1265 O 1.01979 0.39919 0.42590
 O1266 O 1.01997 0.37536 0.40221
 C1267 C 1.02690 0.38269 0.41873
 C1268 C 1.04366 0.37219 0.42952
 C1269 C 1.05126 0.35354 0.42228
 H1270 H 1.04466 0.34676 0.40877
 O1271 O 0.98086 0.60063 0.42550
 O1272 O 0.98084 0.62447 0.40179
 C1273 C 0.97401 0.61730 0.41844
 C1274 C 0.95747 0.62807 0.42932
 C1275 C 0.95037 0.64696 0.42221
 H1276 H 0.95805 0.65425 0.40956
 O1277 O 0.89914 0.57357 0.47963
 O1278 O 0.87560 0.59746 0.47952
 C1279 C 0.88266 0.58083 0.47261
 C1280 C 0.87198 0.57011 0.45586
 C1281 C 0.85364 0.57777 0.44799
 H1282 H 0.84705 0.59141 0.45451
 O1283 O 1.10127 0.42691 0.48009
 O1284 O 1.12483 0.40304 0.48014
 C1285 C 1.11778 0.41965 0.47314
 C1286 C 1.12847 0.43025 0.45629
 C1287 C 1.14712 0.42289 0.44892
 H1288 H 1.15434 0.41020 0.45659
 O1289 O 0.98035 0.57268 0.39757
 O1290 O 0.98022 0.59644 0.37377
 C1291 C 0.97326 0.57991 0.38107
 C1292 C 0.95632 0.56932 0.37064
 C1293 C 0.94886 0.57651 0.35189
 H1294 H 0.95632 0.58920 0.34447
 O1295 O 1.01931 0.42732 0.39817
 O1296 O 1.01944 0.40357 0.37440
 C1297 C 1.02626 0.42020 0.38157
 C1298 C 1.04297 0.43095 0.37089
 C1299 C 1.05016 0.42378 0.35206
 H1300 H 1.04243 0.41123 0.34469
 O1301 O 1.10164 0.48021 0.42584
 O1302 O 1.12540 0.47993 0.40213
 C1303 C 1.11808 0.47303 0.41869
 C1304 C 1.12848 0.45615 0.42949
 C1305 C 1.14688 0.44825 0.42205
 H1306 H 1.15349 0.45472 0.40838
 O1307 O 0.89858 0.51948 0.42631
 O1308 O 0.87475 0.51955 0.40267
 C1309 C 0.88206 0.52651 0.41920
 C1310 C 0.87164 0.54344 0.42987
 C1311 C 0.85322 0.55118 0.42238
 H1312 H 0.84598 0.54387 0.40948
 O1313 O 0.92724 0.60115 0.47940
 O1314 O 0.90379 0.62513 0.47930
 C1315 C 0.92020 0.61771 0.47230
 C1316 C 0.93097 0.62815 0.45542
 C1317 C 0.92377 0.64679 0.44774
 H1318 H 0.91030 0.65355 0.45437
 O1319 O 1.07313 0.39927 0.48002
 O1320 O 1.09664 0.37534 0.48006
 C1321 C 1.08018 0.38266 0.47307
 C1322 C 1.06950 0.37209 0.45626
 C1323 C 1.07661 0.35327 0.44907
 H1324 H 1.08918 0.34591 0.45676
 O1325 O 1.07434 0.52014 0.39764
 O1326 O 1.09802 0.51997 0.37385
 C1327 C 1.08156 0.52706 0.38105
 C1328 C 1.07089 0.54384 0.37035
 C1329 C 1.07860 0.55196 0.35207
 H1330 H 1.09246 0.54576 0.34572
 O1331 O 0.92622 0.47987 0.39803
 O1332 O 0.90248 0.47990 0.37430
 C1333 C 0.91903 0.47294 0.38145
 C1334 C 0.92965 0.45611 0.37082
 C1335 C 0.92230 0.44853 0.35220
 H1336 H 0.90958 0.45602 0.34491
 O1337 O 1.02051 0.60020 0.42509
 O1338 O 1.02051 0.62401 0.40135
 C1339 C 1.02758 0.61668 0.41784
 C1340 C 1.04444 0.62717 0.42850
 C1341 C 1.05245 0.64546 0.42079
 H1342 H 1.04618 0.65180 0.40691
 O1343 O 0.98015 0.39895 0.42640
 O1344 O 0.98032 0.37511 0.40272
 C1345 C 0.97335 0.38230 0.41930
 C1346 C 0.95659 0.37164 0.42998
 C1347 C 0.94899 0.35316 0.42241
 H1348 H 0.95646 0.34598 0.40958
 O1349 O 1.10155 0.57302 0.47971
 O1350 O 1.12512 0.59688 0.47990
 C1351 C 1.11806 0.58033 0.47281
 C1352 C 1.12876 0.56981 0.45595
 C1353 C 1.14731 0.57730 0.44845
 H1354 H 1.15439 0.59026 0.45577
 O1355 O 0.89863 0.42646 0.48029
 O1356 O 0.87498 0.40268 0.48034
 C1357 C 0.88212 0.41926 0.47335
 C1358 C 0.87151 0.42988 0.45649
 C1359 C 0.85297 0.42244 0.44897
 H1360 H 0.84580 0.40958 0.45640
 Cu1361 Cu 0.99971 0.41537 0.41450
 Cu1362 Cu 0.99991 0.38680 0.38603
 Cu1363 Cu 1.00043 0.58412 0.41366
 Cu1364 Cu 1.00033 0.61269 0.38514
 Cu1365 Cu 0.91477 0.49964 0.41456
 Cu1366 Cu 0.88621 0.49972 0.38613
 Cu1367 Cu 1.08552 0.50024 0.41424
 Cu1368 Cu 1.11399 0.49992 0.38572
 C1369 C 0.94653 0.44673 0.37994
 H1370 H 0.95220 0.45243 0.39435
 C1371 C 0.93113 0.43127 0.34304
 C1372 C 1.05347 0.55260 0.37906
 H1373 H 1.04776 0.54679 0.39343
 C1374 C 1.06896 0.56849 0.34236
 C1375 C 0.88053 0.44677 0.44695
 H1376 H 0.89495 0.45244 0.45252
 C1377 C 0.84370 0.43133 0.43181
 C1378 C 1.11985 0.55286 0.44647
 H1379 H 1.10541 0.54720 0.45199
 C1380 C 1.15676 0.56825 0.43149
 C1381 C 0.94717 0.38063 0.44696
 H1382 H 0.95286 0.39497 0.45278
 C1383 C 0.93167 0.34404 0.43104
 C1384 C 1.05331 0.61839 0.44590
 H1385 H 1.04759 0.60400 0.45160
 C1386 C 1.06886 0.65522 0.43046
 C1387 C 0.94679 0.55258 0.37995
 H1388 H 0.95233 0.54707 0.39450
 C1389 C 0.93178 0.56750 0.34269
 C1390 C 1.05271 0.44760 0.38011
 H1391 H 1.04735 0.45310 0.39472
 C1392 C 1.06733 0.43251 0.34277
 C1393 C 1.05285 0.38129 0.44657
 H1394 H 1.04738 0.39589 0.45196
 C1395 C 1.06774 0.34393 0.43196
 C1396 C 0.94787 0.61895 0.44613
 H1397 H 0.95318 0.60433 0.45162
 C1398 C 0.93338 0.65639 0.43115
 C1399 C 0.88077 0.55286 0.44677
 H1400 H 0.89513 0.54713 0.45246
 C1401 C 0.84416 0.56844 0.43120
 C1402 C 1.11945 0.44709 0.44666
 H1403 H 1.10501 0.45277 0.45217
 C1404 C 1.15641 0.43164 0.43167
 O1405 O 1.01924 0.42671 0.60233
 O1406 O 1.01917 0.40292 0.62609
 C1407 C 1.02614 0.41949 0.61893
 C1408 C 1.04300 0.43002 0.62954
 C1409 C 1.05073 0.42230 0.64795
 H1410 H 1.04341 0.40937 0.65509
 O1411 O 0.98007 0.57289 0.60191
 O1412 O 0.98010 0.59669 0.62563
 C1413 C 0.97311 0.58015 0.61845
 C1414 C 0.95621 0.56962 0.62899
 C1415 C 0.94882 0.57690 0.64770
 H1416 H 0.95648 0.58948 0.65508
 O1417 O 0.89875 0.51986 0.57307
 O1418 O 0.87486 0.51998 0.59665
 C1419 C 0.88219 0.52687 0.58009
 C1420 C 0.87176 0.54371 0.56929
 C1421 C 0.85313 0.55122 0.57649
 H1422 H 0.84573 0.54364 0.58914
 O1423 O 1.10100 0.47971 0.57435
 O1424 O 1.12480 0.47967 0.59802
 C1425 C 1.11750 0.47267 0.58151
 C1426 C 1.12794 0.45578 0.57080
 C1427 C 1.14613 0.44764 0.57851
 H1428 H 1.15270 0.45400 0.59224
 O1429 O 1.07304 0.39913 0.51986
 O1430 O 1.09655 0.37521 0.51984
 C1431 C 1.08008 0.38251 0.52683
 C1432 C 1.06948 0.37197 0.54379
 C1433 C 1.07687 0.35337 0.55132
 H1434 H 1.08928 0.34598 0.54343
 O1435 O 0.92732 0.60135 0.51930
 O1436 O 0.90383 0.62530 0.51921
 C1437 C 0.92025 0.61795 0.52628
 C1438 C 0.93078 0.62836 0.54333
 C1439 C 0.92322 0.64679 0.55111
 H1440 H 0.91048 0.65408 0.54364
 O1441 O 0.92639 0.48030 0.60150
 O1442 O 0.90258 0.48038 0.62516
 C1443 C 0.91914 0.47339 0.61808
 C1444 C 0.92970 0.45655 0.62878
 C1445 C 0.92231 0.44912 0.64745
 H1446 H 0.90968 0.45680 0.65471
 O1447 O 1.07334 0.51952 0.60226
 O1448 O 1.09704 0.51954 0.62603
 C1449 C 1.08056 0.52654 0.61879
 C1450 C 1.06991 0.54339 0.62934
 C1451 C 1.07746 0.55128 0.64776
 H1452 H 1.09109 0.54479 0.65434
 O1453 O 0.98010 0.39852 0.57394
 O1454 O 0.98009 0.37463 0.59760
 C1455 C 0.97320 0.38187 0.58101
 C1456 C 0.95655 0.37123 0.57016
 C1457 C 0.94883 0.35270 0.57761
 H1458 H 0.95547 0.34585 0.59109
 O1459 O 1.01990 0.60041 0.57389
 O1460 O 1.01996 0.62431 0.59749
 C1461 C 1.02694 0.61695 0.58099
 C1462 C 1.04372 0.62744 0.57019
 C1463 C 1.05155 0.64590 0.57765
 H1464 H 1.04511 0.65251 0.59133
 O1465 O 0.89875 0.42617 0.52012
 O1466 O 0.87511 0.40239 0.52018
 C1467 C 0.88229 0.41893 0.52718
 C1468 C 0.87171 0.42965 0.54398
 C1469 C 0.85312 0.42235 0.55159
 H1470 H 0.84642 0.40883 0.54496
 O1471 O 1.10106 0.57271 0.51960
 O1472 O 1.12462 0.59657 0.51977
 C1473 C 1.11747 0.57998 0.52673
 C1474 C 1.12792 0.56944 0.54377
 C1475 C 1.14632 0.57704 0.55149
 H1476 H 1.15350 0.58990 0.54407
 O1477 O 1.01968 0.57282 0.60216
 O1478 O 1.01972 0.59665 0.62585
 C1479 C 1.02661 0.58003 0.61874
 C1480 C 1.04335 0.56937 0.62943
 C1481 C 1.05082 0.57675 0.64808
 H1482 H 1.04331 0.58950 0.65533
 O1483 O 0.97955 0.42643 0.60183
 O1484 O 0.97944 0.40264 0.62558
 C1485 C 0.97242 0.41914 0.61829
 C1486 C 0.95550 0.42978 0.62874
 C1487 C 0.94754 0.42223 0.64716
 H1488 H 0.95395 0.40855 0.65375
 O1489 O 1.10087 0.51950 0.57412
 O1490 O 1.12466 0.51956 0.59779
 C1491 C 1.11736 0.52656 0.58126
 C1492 C 1.12780 0.54347 0.57053
 C1493 C 1.14603 0.55152 0.57821
 H1494 H 1.15260 0.54507 0.59191
 O1495 O 0.89858 0.48013 0.57351
 O1496 O 0.87468 0.48023 0.59709
 C1497 C 0.88200 0.47320 0.58060
 C1498 C 0.87149 0.45636 0.56992
 C1499 C 0.85274 0.44908 0.57706
 H1500 H 0.84538 0.45672 0.58969
 O1501 O 1.07314 0.60053 0.51943
 O1502 O 1.09665 0.62445 0.51955
 C1503 C 1.08016 0.61713 0.52646
 C1504 C 1.06948 0.62764 0.54333
 C1505 C 1.07676 0.64631 0.55074
 H1506 H 1.08937 0.65365 0.54309
 O1507 O 0.92678 0.39848 0.51987
 O1508 O 0.90322 0.37462 0.51987
 C1509 C 0.91972 0.38187 0.52683
 C1510 C 0.93042 0.37126 0.54365
 C1511 C 0.92299 0.35271 0.55127
 H1512 H 0.91002 0.34558 0.54405
 O1513 O 1.07321 0.47977 0.60227
 O1514 O 1.09691 0.47970 0.62604
 C1515 C 1.08039 0.47274 0.61883
 C1516 C 1.06969 0.45591 0.62942
 C1517 C 1.07735 0.44780 0.64772
 H1518 H 1.09100 0.45419 0.65434
 O1519 O 0.92604 0.52006 0.60151
 O1520 O 0.90222 0.52017 0.62517
 C1521 C 0.91875 0.52713 0.61801
 C1522 C 0.92942 0.54390 0.62865
 C1523 C 0.92194 0.55169 0.64715
 H1524 H 0.90829 0.54523 0.65371
 O1525 O 0.98018 0.60072 0.57392
 O1526 O 0.98020 0.62459 0.59756
 C1527 C 0.97322 0.61731 0.58103
 C1528 C 0.95647 0.62792 0.57026
 C1529 C 0.94843 0.64617 0.57803
 H1530 H 0.95474 0.65260 0.59185
 O1531 O 1.01980 0.39914 0.57419
 O1532 O 1.01985 0.37529 0.59789
 C1533 C 1.02694 0.38269 0.58143
 C1534 C 1.04394 0.37232 0.57082
 C1535 C 1.05213 0.35416 0.57865
 H1536 H 1.04598 0.34796 0.59264
 O1537 O 1.10107 0.42684 0.51996
 O1538 O 1.12462 0.40295 0.51997
 C1539 C 1.11750 0.41950 0.52700
 C1540 C 1.12802 0.42993 0.54401
 C1541 C 1.14637 0.42222 0.55173
 H1542 H 1.15351 0.40936 0.54428
 O1543 O 0.89927 0.57373 0.51946
 O1544 O 0.87571 0.59761 0.51939
 C1545 C 0.88283 0.58105 0.52646
 C1546 C 0.87219 0.57042 0.54331
 C1547 C 0.85379 0.57802 0.55106
 H1548 H 0.84730 0.59169 0.54452
 Cu1549 Cu 0.99965 0.41508 0.58570
 Cu1550 Cu 0.99962 0.38647 0.61417
 Cu1551 Cu 0.99996 0.58433 0.58560
 Cu1552 Cu 1.00001 0.61297 0.61399
 Cu1553 Cu 0.91503 0.41482 0.50009
 Cu1554 Cu 0.88669 0.38622 0.50011
 Cu1555 Cu 1.08478 0.41545 0.49997
 Cu1556 Cu 1.11302 0.38674 0.49999
 Cu1557 Cu 0.91560 0.58506 0.49944
 Cu1558 Cu 0.88739 0.61379 0.49934
 Cu1559 Cu 1.08492 0.58430 0.49955
 Cu1560 Cu 1.11317 0.61298 0.49977
 Cu1561 Cu 0.91484 0.50008 0.58505
 Cu1562 Cu 0.88618 0.50019 0.61339
 Cu1563 Cu 1.08474 0.49961 0.58588
 Cu1564 Cu 1.11325 0.49962 0.61434
 C1565 C 1.05242 0.44699 0.62055
 H1566 H 1.04668 0.45286 0.60621
 C1567 C 1.06800 0.43095 0.65710
 C1568 C 0.94660 0.55293 0.61976
 H1569 H 0.95216 0.54732 0.60526
 C1570 C 0.93155 0.56819 0.65686
 C1571 C 0.88101 0.55323 0.55250
 H1572 H 0.89546 0.54759 0.54695
 C1573 C 0.84409 0.56852 0.56767
 C1574 C 1.11907 0.44687 0.55349
 H1575 H 1.10481 0.45276 0.54773
 C1576 C 1.15549 0.43084 0.56909
 C1577 C 1.05276 0.38113 0.55341
 H1578 H 1.04697 0.39547 0.54767
 C1579 C 1.06858 0.34441 0.56899
 C1580 C 0.94758 0.61920 0.55284
 H1581 H 0.95336 0.60488 0.54706
 C1582 C 0.93178 0.65574 0.56859
 C1583 C 0.94650 0.44697 0.61973
 H1584 H 0.95221 0.45255 0.60527
 C1585 C 0.93094 0.43181 0.65671
 C1586 C 1.05280 0.55249 0.62036
 H1587 H 1.04721 0.54682 0.60590
 C1588 C 1.06802 0.56797 0.65731
 C1589 C 0.94734 0.38028 0.55306
 H1590 H 0.95295 0.39475 0.54747
 C1591 C 0.93199 0.34338 0.56832
 C1592 C 1.05277 0.61847 0.55297
 H1593 H 1.04717 0.60398 0.54743
 C1594 C 1.06808 0.65549 0.56804
 C1595 C 0.88071 0.44671 0.55320
 H1596 H 0.89525 0.45216 0.54772
 C1597 C 0.84348 0.43196 0.56814
 C1598 C 1.11892 0.55249 0.55323
 H1599 H 1.10463 0.54668 0.54749
 C1600 C 1.15544 0.56831 0.56882
 O1601 O 0.47955 0.92651 0.39840
 O1602 O 0.47968 0.90284 0.37455
 C1603 C 0.47261 0.91932 0.38183
 C1604 C 0.45582 0.93001 0.37124
 C1605 C 0.44818 0.92265 0.35264
 H1606 H 0.45474 0.90905 0.34605
 O1607 O 0.51971 1.07242 0.39745
 O1608 O 0.51978 1.09603 0.37351
 C1609 C 0.52664 1.07947 0.38079
 C1610 C 0.54340 1.06874 0.37023
 C1611 C 0.55070 1.07591 0.35143
 H1612 H 0.54285 1.08832 0.34394
 O1613 O 0.39879 0.98002 0.42673
 O1614 O 0.37487 0.98002 0.40319
 C1615 C 0.38225 0.97300 0.41967
 C1616 C 0.37189 0.95601 0.43032
 C1617 C 0.35338 0.94837 0.42293
 H1618 H 0.34601 0.95595 0.41026
 O1619 O 0.60139 1.01958 0.42628
 O1620 O 0.62518 1.01955 0.40259
 C1621 C 0.61790 1.02658 0.41911
 C1622 C 0.62833 1.04347 0.42981
 C1623 C 0.64676 1.05132 0.42237
 H1624 H 0.65364 1.04466 0.40893
 O1625 O 0.42702 0.89772 0.48020
 O1626 O 0.40340 0.87391 0.48034
 C1627 C 0.41986 0.88113 0.47329
 C1628 C 0.43039 0.87060 0.45636
 C1629 C 0.42306 0.85198 0.44886
 H1630 H 0.41048 0.84462 0.45654
 O1631 O 0.57286 1.10088 0.48003
 O1632 O 0.59639 1.12477 0.47999
 C1633 C 0.57995 1.11744 0.47298
 C1634 C 0.56949 1.12782 0.45585
 C1635 C 0.57708 1.14624 0.44807
 H1636 H 0.58956 1.15364 0.45584
 O1637 O 0.42612 1.01992 0.39849
 O1638 O 0.40226 1.01994 0.37488
 C1639 C 0.41881 1.02691 0.38196
 C1640 C 0.42950 1.04357 0.37115
 C1641 C 0.42217 1.05103 0.35246
 H1642 H 0.40858 1.04444 0.34591
 O1643 O 0.57351 0.97982 0.39855
 O1644 O 0.59717 0.97968 0.37474
 C1645 C 0.58065 0.97274 0.38202
 C1646 C 0.56989 0.95596 0.37147
 C1647 C 0.57740 0.94812 0.35302
 H1648 H 0.59106 0.95457 0.34646
 O1649 O 0.51925 0.89897 0.42656
 O1650 O 0.51948 0.87520 0.40282
 C1651 C 0.52633 0.88246 0.41942
 C1652 C 0.54315 0.87198 0.43018
 C1653 C 0.55067 0.85337 0.42286
 H1654 H 0.54330 0.84610 0.41002
 O1655 O 0.48036 1.10078 0.42536
 O1656 O 0.48044 1.12445 0.40148
 C1657 C 0.47344 1.11732 0.41808
 C1658 C 0.45669 1.12802 0.42875
 C1659 C 0.44850 1.14610 0.42071
 H1660 H 0.45471 1.15239 0.40677
 O1661 O 0.39955 1.07433 0.48009
 O1662 O 0.37594 1.09815 0.47993
 C1663 C 0.38308 1.08155 0.47302
 C1664 C 0.37245 1.07079 0.45624
 C1665 C 0.35414 1.07845 0.44830
 H1666 H 0.34762 1.09217 0.45471
 O1667 O 0.60139 0.92683 0.48040
 O1668 O 0.62498 0.90298 0.48051
 C1669 C 0.61792 0.91958 0.47351
 C1670 C 0.62860 0.93015 0.45666
 C1671 C 0.64717 0.92268 0.44921
 H1672 H 0.65439 0.91002 0.45691
 O1673 O 0.48013 1.07276 0.39759
 O1674 O 0.48020 1.09636 0.37363
 C1675 C 0.47318 1.07989 0.38098
 C1676 C 0.45630 1.06926 0.37053
 C1677 C 0.44906 1.07621 0.35161
 H1678 H 0.45681 1.08864 0.34404
 O1679 O 0.51923 0.92660 0.39830
 O1680 O 0.51940 0.90292 0.37446
 C1681 C 0.52628 0.91948 0.38172
 C1682 C 0.54314 0.93015 0.37119
 C1683 C 0.55061 0.92284 0.35251
 H1684 H 0.54304 0.91019 0.34515
 O1685 O 0.60156 0.97982 0.42615
 O1686 O 0.62532 0.97969 0.40244
 C1687 C 0.61805 0.97274 0.41899
 C1688 C 0.62851 0.95591 0.42977
 C1689 C 0.64679 0.94787 0.42218
 H1690 H 0.65327 0.95420 0.40838
 O1691 O 0.39887 1.01984 0.42692
 O1692 O 0.37493 1.01986 0.40338
 C1693 C 0.38233 1.02688 0.41985
 C1694 C 0.37200 1.04390 0.43046
 C1695 C 0.35356 1.05161 0.42296
 H1696 H 0.34625 1.04416 0.41019
 O1697 O 0.42769 1.10187 0.48004
 O1698 O 0.40415 1.12575 0.47986
 C1699 C 0.42059 1.11837 0.47289
 C1700 C 0.43108 1.12863 0.45574
 C1701 C 0.42340 1.14690 0.44773
 H1702 H 0.41064 1.15421 0.45515
 O1703 O 0.57323 0.89925 0.48019
 O1704 O 0.59676 0.87534 0.48024
 C1705 C 0.58034 0.88268 0.47318
 C1706 C 0.56965 0.87214 0.45631
 C1707 C 0.57712 0.85365 0.44856
 H1708 H 0.59063 0.84693 0.45518
 O1709 O 0.57391 1.01956 0.39806
 O1710 O 0.59759 1.01950 0.37427
 C1711 C 0.58109 1.02651 0.38147
 C1712 C 0.57035 1.04320 0.37075
 C1713 C 0.57788 1.05104 0.35227
 H1714 H 0.59167 1.04474 0.34589
 O1715 O 0.42640 0.98022 0.39849
 O1716 O 0.40256 0.98022 0.37486
 C1717 C 0.41918 0.97332 0.38190
 C1718 C 0.42990 0.95663 0.37113
 C1719 C 0.42283 0.94943 0.35225
 H1720 H 0.41029 0.95717 0.34489
 O1721 O 0.52010 1.10033 0.42530
 O1722 O 0.52025 1.12401 0.40144
 C1723 C 0.52724 1.11675 0.41800
 C1724 C 0.54413 1.12724 0.42865
 C1725 C 0.55244 1.14527 0.42066
 H1726 H 0.54639 1.15139 0.40658
 O1727 O 0.47961 0.89828 0.42594
 O1728 O 0.47980 0.87453 0.40218
 C1729 C 0.47274 0.88170 0.41871
 C1730 C 0.45604 0.87099 0.42943
 C1731 C 0.44820 0.85257 0.42186
 H1732 H 0.45461 0.84607 0.40812
 O1733 O 0.60090 1.07314 0.48004
 O1734 O 0.62448 1.09700 0.47996
 C1735 C 0.61738 1.08039 0.47303
 C1736 C 0.62805 1.06975 0.45622
 C1737 C 0.64654 1.07726 0.44866
 H1738 H 0.65358 1.09027 0.45593
 O1739 O 0.39939 0.92575 0.48006
 O1740 O 0.37571 0.90201 0.48013
 C1741 C 0.38292 0.91852 0.47305
 C1742 C 0.37235 0.92917 0.45616
 C1743 C 0.35409 0.92145 0.44822
 H1744 H 0.34771 0.90767 0.45463
 Cu1745 Cu 0.49938 0.91496 0.41467
 Cu1746 Cu 0.49964 0.88650 0.38611
 Cu1747 Cu 0.50006 1.08422 0.41383
 Cu1748 Cu 0.50018 1.11262 0.38514
 Cu1749 Cu 0.41493 0.99998 0.41502
 Cu1750 Cu 0.38622 0.99999 0.38675
 Cu1751 Cu 0.58523 0.99972 0.41465
 Cu1752 Cu 0.61370 0.99959 0.38613
 C1753 C 0.44661 0.94703 0.38030
 H1754 H 0.45209 0.95245 0.39490
 C1755 C 0.43171 0.93228 0.34291
 C1756 C 0.55310 1.05216 0.37958
 H1757 H 0.54757 1.04661 0.39412
 C1758 C 0.56815 1.06741 0.34241
 C1759 C 0.38110 0.94649 0.44713
 H1760 H 0.39544 0.95222 0.45283
 C1761 C 0.34443 0.93094 0.43159
 C1762 C 0.61919 1.05270 0.44684
 H1763 H 0.60479 1.04700 0.45242
 C1764 C 0.65596 1.06826 0.43166
 C1765 C 0.44707 0.87981 0.44673
 H1766 H 0.45269 0.89426 0.45235
 C1767 C 0.43169 0.84288 0.43148
 C1768 C 0.55278 1.11863 0.44625
 H1769 H 0.54689 1.10439 0.45213
 C1770 C 0.56891 1.15501 0.43027
 C1771 C 0.44661 1.05274 0.38001
 H1772 H 0.45205 1.04737 0.39465
 C1773 C 0.43188 1.06732 0.34247
 C1774 C 0.55271 0.94691 0.38040
 H1775 H 0.54714 0.95253 0.39489
 C1776 C 0.56787 0.93157 0.34336
 C1777 C 0.55258 0.88112 0.44708
 H1778 H 0.54699 0.89559 0.45268
 C1779 C 0.56777 0.84416 0.43180
 C1780 C 0.44791 1.11946 0.44632
 H1781 H 0.45379 1.10525 0.45230
 C1782 C 0.43179 1.15564 0.43007
 C1783 C 0.38119 1.05344 0.44727
 H1784 H 0.39553 1.04771 0.45299
 C1785 C 0.34458 1.06899 0.43162
 C1786 C 0.61959 0.94698 0.44704
 H1787 H 0.60521 0.95274 0.45264
 C1788 C 0.65633 0.93126 0.43180
 O1789 O 0.51942 0.92722 0.60211
 O1790 O 0.51944 0.90364 0.62608
 C1791 C 0.52630 0.92021 0.61880
 C1792 C 0.54295 0.93102 0.62946
 C1793 C 0.55017 0.92388 0.64830
 H1794 H 0.54252 0.91127 0.65567
 O1795 O 0.48006 1.07296 0.60198
 O1796 O 0.48000 1.09662 0.62584
 C1797 C 0.47306 1.08009 0.61854
 C1798 C 0.45617 1.06943 0.62899
 C1799 C 0.44866 1.07664 0.64768
 H1800 H 0.45610 1.08934 0.65509
 O1801 O 0.39856 1.02001 0.57283
 O1802 O 0.37465 1.02001 0.59640
 C1803 C 0.38200 1.02700 0.57989
 C1804 C 0.37163 1.04396 0.56922
 C1805 C 0.35301 1.05146 0.57645
 H1806 H 0.34553 1.04373 0.58896
 O1807 O 0.60122 0.98035 0.57426
 O1808 O 0.62501 0.98024 0.59794
 C1809 C 0.61769 0.97325 0.58143
 C1810 C 0.62810 0.95633 0.57072
 C1811 C 0.64653 0.94849 0.57817
 H1812 H 0.65330 0.95508 0.59169
 O1813 O 0.57313 0.89906 0.52008
 O1814 O 0.59665 0.87515 0.52012
 C1815 C 0.58019 0.88246 0.52709
 C1816 C 0.56956 0.87196 0.54403
 C1817 C 0.57689 0.85333 0.55157
 H1818 H 0.58952 0.84599 0.54397
 O1819 O 0.42738 1.10225 0.51992
 O1820 O 0.40386 1.12616 0.51976
 C1821 C 0.42026 1.11884 0.52688
 C1822 C 0.43074 1.12924 0.54396
 C1823 C 0.42334 1.14779 0.55165
 H1824 H 0.41078 1.15521 0.54400
 O1825 O 0.42616 0.98030 0.60107
 O1826 O 0.40232 0.98029 0.62471
 C1827 C 0.41890 0.97335 0.61763
 C1828 C 0.42955 0.95662 0.62839
 C1829 C 0.42218 0.94923 0.64709
 H1830 H 0.40930 0.95660 0.65422
 O1831 O 0.57376 1.02038 0.60214
 O1832 O 0.59746 1.02033 0.62592
 C1833 C 0.58101 1.02741 0.61867
 C1834 C 0.57041 1.04431 0.62923
 C1835 C 0.57808 1.05232 0.64756
 H1836 H 0.59180 1.04592 0.65403
 O1837 O 0.48023 0.89869 0.57416
 O1838 O 0.48029 0.87500 0.59803
 C1839 C 0.47335 0.88211 0.58141
 C1840 C 0.45672 0.87136 0.57065
 C1841 C 0.44903 0.85286 0.57820
 H1842 H 0.45559 0.84622 0.59181
 O1843 O 0.51956 1.10087 0.57396
 O1844 O 0.51962 1.12465 0.59769
 C1845 C 0.52653 1.11743 0.58108
 C1846 C 0.54328 1.12798 0.57031
 C1847 C 0.55091 1.14652 0.57771
 H1848 H 0.54366 1.15371 0.59067
 O1849 O 0.39921 0.92573 0.51992
 O1850 O 0.37551 0.90201 0.52003
 C1851 C 0.38270 0.91857 0.52695
 C1852 C 0.37205 0.92938 0.54366
 C1853 C 0.35361 0.92190 0.55143
 H1854 H 0.34710 0.90820 0.54499
 O1855 O 0.60101 1.07316 0.51985
 O1856 O 0.62458 1.09701 0.51974
 C1857 C 0.61751 1.08043 0.52677
 C1858 C 0.62819 1.06988 0.54363
 C1859 C 0.64666 1.07747 0.55114
 H1860 H 0.65374 1.09036 0.54368
 O1861 O 0.51974 1.07343 0.60239
 O1862 O 0.51970 1.09713 0.62620
 C1863 C 0.52672 1.08063 0.61897
 C1864 C 0.54366 1.07011 0.62951
 C1865 C 0.55126 1.07759 0.64808
 H1866 H 0.54369 1.09028 0.65538
 O1867 O 0.47977 0.92681 0.60176
 O1868 O 0.47977 0.90322 0.62572
 C1869 C 0.47271 0.91965 0.61831
 C1870 C 0.45578 0.93028 0.62869
 C1871 C 0.44804 0.92294 0.64727
 H1872 H 0.45474 0.90955 0.65419
 O1873 O 0.60135 1.02011 0.57405
 O1874 O 0.62515 1.02011 0.59772
 C1875 C 0.61789 1.02709 0.58117
 C1876 C 0.62835 1.04391 0.57035
 C1877 C 0.64670 1.05190 0.57783
 H1878 H 0.65344 1.04543 0.59145
 O1879 O 0.39855 0.98023 0.57292
 O1880 O 0.37464 0.98024 0.59649
 C1881 C 0.38199 0.97324 0.58000
 C1882 C 0.37159 0.95630 0.56936
 C1883 C 0.35294 0.94887 0.57662
 H1884 H 0.34553 0.95653 0.58920
 O1885 O 0.57302 1.10089 0.51997
 O1886 O 0.59656 1.12478 0.51990
 C1887 C 0.58015 1.11744 0.52699
 C1888 C 0.56957 1.12793 0.54396
 C1889 C 0.57716 1.14634 0.55179
 H1890 H 0.59065 1.15302 0.54512
 O1891 O 0.42727 0.89807 0.51998
 O1892 O 0.40364 0.87426 0.52013
 C1893 C 0.42015 0.88153 0.52705
 C1894 C 0.43082 0.87105 0.54395
 C1895 C 0.42354 0.85242 0.55152
 H1896 H 0.41082 0.84510 0.54405
 O1897 O 0.57335 0.98062 0.60209
 O1898 O 0.59702 0.98048 0.62588
 C1899 C 0.58047 0.97359 0.61866
 C1900 C 0.56963 0.95689 0.62929
 C1901 C 0.57691 0.94923 0.64793
 H1902 H 0.59045 0.95576 0.65462
 O1903 O 0.42602 1.02000 0.60113
 O1904 O 0.40218 1.02001 0.62477
 C1905 C 0.41876 1.02695 0.61768
 C1906 C 0.42947 1.04359 0.62849
 C1907 C 0.42203 1.05116 0.64709
 H1908 H 0.40848 1.04455 0.65374
 O1909 O 0.47992 1.10131 0.57453
 O1910 O 0.47994 1.12505 0.59831
 C1911 C 0.47294 1.11786 0.58176
 C1912 C 0.45624 1.12857 0.57103
 C1913 C 0.44830 1.14686 0.57880
 H1914 H 0.45458 1.15315 0.59269
 O1915 O 0.51989 0.89924 0.57428
 O1916 O 0.52002 0.87557 0.59816
 C1917 C 0.52699 0.88280 0.58158
 C1918 C 0.54382 0.87227 0.57090
 C1919 C 0.55169 0.85387 0.57851
 H1920 H 0.54526 0.84733 0.59223
 O1921 O 0.60101 0.92692 0.52020
 O1922 O 0.62459 0.90306 0.52030
 C1923 C 0.61745 0.91965 0.52726
 C1924 C 0.62803 0.93024 0.54414
 C1925 C 0.64659 0.92282 0.55163
 H1926 H 0.65376 0.90998 0.54417
 O1927 O 0.39951 1.07442 0.51992
 O1928 O 0.37591 1.09826 0.51980
 C1929 C 0.38301 1.08169 0.52686
 C1930 C 0.37228 1.07098 0.54359
 C1931 C 0.35391 1.07860 0.55140
 H1932 H 0.34755 1.09240 0.54501
 Cu1933 Cu 0.49982 0.91535 0.58568
 Cu1934 Cu 0.49991 0.88699 0.61440
 Cu1935 Cu 0.49982 1.08476 0.58585
 Cu1936 Cu 0.49982 1.11323 0.61440
 Cu1937 Cu 0.41558 0.91420 0.50004
 Cu1938 Cu 0.38718 0.88567 0.50019
 Cu1939 Cu 0.58483 0.91540 0.50020
 Cu1940 Cu 0.61309 0.88673 0.50030
 Cu1941 Cu 0.41590 1.08584 0.50003
 Cu1942 Cu 0.38762 1.11449 0.49981
 Cu1943 Cu 0.58457 1.08464 0.49998
 Cu1944 Cu 0.61284 1.11330 0.49988
 Cu1945 Cu 0.41471 1.00014 0.58462
 Cu1946 Cu 0.38603 1.00014 0.61294
 Cu1947 Cu 0.58505 1.00038 0.58576
 Cu1948 Cu 0.61355 1.00027 0.61425
 C1949 C 0.55259 0.94773 0.62023
 H1950 H 0.54720 0.95321 0.60561
 C1951 C 0.56728 0.93271 0.65759
 C1952 C 0.44663 1.05274 0.61965
 H1953 H 0.45221 1.04726 0.60511
 C1954 C 0.43150 1.06771 0.65680
 C1955 C 0.38098 1.05362 0.55258
 H1956 H 0.39541 1.04798 0.54701
 C1957 C 0.34409 1.06894 0.56784
 C1958 C 0.61904 0.94717 0.55363
 H1959 H 0.60462 0.95285 0.54806
 C1960 C 0.65591 0.93171 0.56874
 C1961 C 0.55283 0.88115 0.55361
 H1962 H 0.54719 0.89558 0.54796
 C1963 C 0.56823 0.84423 0.56895
 C1964 C 0.44739 1.11994 0.55358
 H1965 H 0.45309 1.10558 0.54782
 C1966 C 0.43185 1.15667 0.56922
 C1967 C 0.44650 0.94720 0.61945
 H1968 H 0.45213 0.95270 0.60493
 C1969 C 0.43123 0.93231 0.65660
 C1970 C 0.55316 1.05328 0.62038
 H1971 H 0.54746 1.04753 0.60600
 C1972 C 0.56860 1.06895 0.65719
 C1973 C 0.44758 0.88025 0.55345
 H1974 H 0.45312 0.89473 0.54781
 C1975 C 0.43240 0.84327 0.56875
 C1976 C 0.55256 1.11895 0.55326
 H1977 H 0.54690 1.10453 0.54759
 C1978 C 0.56796 1.15575 0.56868
 C1979 C 0.38087 0.94664 0.55269
 H1980 H 0.39534 0.95220 0.54712
 C1981 C 0.34389 0.93153 0.56792
 C1982 C 0.61930 1.05293 0.55317
 H1983 H 0.60494 1.04715 0.54758
 C1984 C 0.65597 1.06873 0.56835
 O1985 O 0.47936 0.42573 0.89929
 O1986 O 0.47911 0.40209 0.87542
 C1987 C 0.47227 0.41864 0.88273
 C1988 C 0.45556 0.42949 0.87219
 C1989 C 0.44799 0.42232 0.85350
 H1990 H 0.45465 0.40888 0.84665
 O1991 O 0.51990 0.57254 0.89841
 O1992 O 0.52022 0.59591 0.87423
 C1993 C 0.52698 0.57938 0.88173
 C1994 C 0.54375 0.56846 0.87136
 C1995 C 0.55135 0.57563 0.85269
 H1996 H 0.54388 0.58829 0.84522
 O1997 O 0.39888 0.48050 0.92773
 O1998 O 0.37496 0.48059 0.90419
 C1999 C 0.38223 0.47366 0.92075
 C2000 C 0.37160 0.45698 0.93161
 C2001 C 0.35274 0.44986 0.92460
 H2002 H 0.34538 0.45755 0.91200
 O2003 O 0.60111 0.51834 0.92737
 O2004 O 0.62498 0.51806 0.90377
 C2005 C 0.61773 0.52515 0.92027
 C2006 C 0.62829 0.54202 0.93089
 C2007 C 0.64701 0.54931 0.92367
 H2008 H 0.65440 0.54158 0.91111
 O2009 O 0.42651 0.39833 0.98161
 O2010 O 0.40263 0.37478 0.98175
 C2011 C 0.41920 0.38181 0.97472
 C2012 C 0.42967 0.37110 0.95785
 C2013 C 0.42207 0.35259 0.95035
 H2014 H 0.40924 0.34548 0.95785
 O2015 O 0.57314 0.60093 0.98013
 O2016 O 0.59692 0.62458 0.98006
 C2017 C 0.58040 0.61743 0.97308
 C2018 C 0.56991 0.62798 0.95610
 C2019 C 0.57726 0.64664 0.94868
 H2020 H 0.58982 0.65397 0.95640
 O2021 O 0.42690 0.51967 0.89912
 O2022 O 0.40305 0.51972 0.87549
 C2023 C 0.41970 0.52654 0.88249
 C2024 C 0.43047 0.54307 0.87157
 C2025 C 0.42342 0.55003 0.85259
 H2026 H 0.41079 0.54233 0.84536
 O2027 O 0.57302 0.47883 0.89938
 O2028 O 0.59680 0.47855 0.87568
 C2029 C 0.58023 0.47170 0.88289
 C2030 C 0.56954 0.45486 0.87234
 C2031 C 0.57731 0.44676 0.85412
 H2032 H 0.59103 0.45313 0.84762
 O2033 O 0.51896 0.39752 0.92696
 O2034 O 0.51872 0.37376 0.90321
 C2035 C 0.52579 0.38092 0.91975
 C2036 C 0.54253 0.37023 0.93042
 C2037 C 0.55028 0.35181 0.92281
 H2038 H 0.54328 0.34482 0.90960
 O2039 O 0.48073 0.60164 0.92578
 O2040 O 0.48100 0.62508 0.90167
 C2041 C 0.47400 0.61821 0.91837
 C2042 C 0.45745 0.62920 0.92904
 C2043 C 0.44965 0.64753 0.92116
 H2044 H 0.45614 0.65401 0.90742
 O2045 O 0.40036 0.57536 0.98015
 O2046 O 0.37682 0.59926 0.97986
 C2047 C 0.38395 0.58262 0.97301
 C2048 C 0.37331 0.57179 0.95627
 C2049 C 0.35491 0.57933 0.94843
 H2050 H 0.34846 0.59310 0.95479
 O2051 O 0.59964 0.42500 0.98111
 O2052 O 0.62310 0.40103 0.98147
 C2053 C 0.61614 0.41762 0.97432
 C2054 C 0.62694 0.42809 0.95746
 C2055 C 0.64532 0.42030 0.94986
 H2056 H 0.65224 0.40727 0.95722
 O2057 O 0.48026 0.57331 0.89833
 O2058 O 0.48051 0.59664 0.87412
 C2059 C 0.47335 0.58031 0.88165
 C2060 C 0.45653 0.56955 0.87122
 C2061 C 0.44901 0.57656 0.85243
 H2062 H 0.45572 0.58991 0.84544
 O2063 O 0.51902 0.42564 0.89924
 O2064 O 0.51883 0.40196 0.87540
 C2065 C 0.52593 0.41844 0.88265
 C2066 C 0.54288 0.42895 0.87213
 C2067 C 0.55067 0.42129 0.85372
 H2068 H 0.54334 0.40841 0.84653
 O2069 O 0.60074 0.47854 0.92733
 O2070 O 0.62458 0.47824 0.90370
 C2071 C 0.61717 0.47130 0.92020
 C2072 C 0.62738 0.45425 0.93092
 C2073 C 0.64560 0.44606 0.92335
 H2074 H 0.65238 0.45252 0.90975
 O2075 O 0.39940 0.52033 0.92739
 O2076 O 0.37549 0.52040 0.90384
 C2077 C 0.38293 0.52748 0.92026
 C2078 C 0.37270 0.54466 0.93075
 C2079 C 0.35410 0.55218 0.92344
 H2080 H 0.34663 0.54446 0.91093
 O2081 O 0.42816 0.60320 0.98017
 O2082 O 0.40471 0.62718 0.97996
 C2083 C 0.42111 0.61973 0.97300
 C2084 C 0.43168 0.62995 0.95587
 C2085 C 0.42415 0.64828 0.94783
 H2086 H 0.41126 0.65561 0.95501
 O2087 O 0.57189 0.39704 0.98097
 O2088 O 0.59529 0.37301 0.98136
 C2089 C 0.57899 0.38040 0.97410
 C2090 C 0.56852 0.36994 0.95705
 C2091 C 0.57609 0.35153 0.94919
 H2092 H 0.58940 0.34463 0.95601
 O2093 O 0.57351 0.51864 0.89920
 O2094 O 0.59729 0.51840 0.87551
 C2095 C 0.58082 0.52556 0.88265
 C2096 C 0.57030 0.54243 0.87191
 C2097 C 0.57797 0.55016 0.85344
 H2098 H 0.59160 0.54358 0.84695
 O2099 O 0.42641 0.47996 0.89943
 O2100 O 0.40256 0.48003 0.87582
 C2101 C 0.41908 0.47298 0.88293
 C2102 C 0.42960 0.45610 0.87225
 C2103 C 0.42240 0.44886 0.85342
 H2104 H 0.40969 0.45642 0.84615
 O2105 O 0.52032 0.60090 0.92578
 O2106 O 0.52070 0.62438 0.90171
 C2107 C 0.52753 0.61725 0.91839
 C2108 C 0.54432 0.62777 0.92912
 C2109 C 0.55218 0.64621 0.92163
 H2110 H 0.54579 0.65280 0.90792
 O2111 O 0.47934 0.39794 0.92728
 O2112 O 0.47902 0.37418 0.90353
 C2113 C 0.47220 0.38145 0.92014
 C2114 C 0.45545 0.37099 0.93101
 C2115 C 0.44745 0.35261 0.92356
 H2116 H 0.45384 0.34587 0.90993
 O2117 O 0.60077 0.57284 0.98024
 O2118 O 0.62461 0.59643 0.98013
 C2119 C 0.61732 0.57990 0.97322
 C2120 C 0.62793 0.56900 0.95654
 C2121 C 0.64644 0.57634 0.94881
 H2122 H 0.65299 0.59003 0.95523
 O2123 O 0.39890 0.42644 0.98126
 O2124 O 0.37495 0.40296 0.98139
 C2125 C 0.38231 0.41940 0.97432
 C2126 C 0.37175 0.43025 0.95756
 C2127 C 0.35307 0.42310 0.95007
 H2128 H 0.34631 0.40961 0.95674
 Cu2129 Cu 0.49920 0.41408 0.91557
 Cu2130 Cu 0.49889 0.38562 0.88699
 Cu2131 Cu 0.50024 0.58476 0.91449
 Cu2132 Cu 0.50065 0.61284 0.88549
 Cu2133 Cu 0.41528 0.50009 0.91579
 Cu2134 Cu 0.38659 0.50019 0.88750
 Cu2135 Cu 0.58472 0.49863 0.91569
 Cu2136 Cu 0.61330 0.49830 0.88729
 C2137 C 0.44634 0.44647 0.88136
 H2138 H 0.45185 0.45183 0.89597
 C2139 C 0.43142 0.43190 0.84394
 C2140 C 0.55314 0.55167 0.88071
 H2141 H 0.54745 0.54616 0.89520
 C2142 C 0.56862 0.56679 0.84369
 C2143 C 0.38084 0.44725 0.94828
 H2144 H 0.39546 0.45256 0.95366
 C2145 C 0.34341 0.43280 0.93358
 C2146 C 0.61903 0.55178 0.94753
 H2147 H 0.60452 0.54632 0.95308
 C2148 C 0.65617 0.56661 0.93238
 C2149 C 0.44653 0.38003 0.94825
 H2150 H 0.45232 0.39443 0.95381
 C2151 C 0.43073 0.34329 0.93311
 C2152 C 0.55325 0.61883 0.94641
 H2153 H 0.54760 0.60437 0.95198
 C2154 C 0.56865 0.65583 0.93132
 C2155 C 0.44721 0.55274 0.88061
 H2156 H 0.45262 0.54753 0.89532
 C2157 C 0.43245 0.56689 0.84293
 C2158 C 0.55225 0.44592 0.88116
 H2159 H 0.54647 0.45178 0.89547
 C2160 C 0.56800 0.42996 0.84466
 C2161 C 0.55163 0.37905 0.94766
 H2162 H 0.54593 0.39341 0.95342
 C2163 C 0.56710 0.34236 0.93204
 C2164 C 0.44846 0.62066 0.94650
 H2165 H 0.45413 0.60634 0.95244
 C2166 C 0.43293 0.65711 0.93041
 C2167 C 0.38204 0.55440 0.94735
 H2168 H 0.39646 0.54877 0.95298
 C2169 C 0.34514 0.56963 0.93201
 C2170 C 0.61825 0.44522 0.94805
 H2171 H 0.60397 0.45118 0.95370
 C2172 C 0.65472 0.42907 0.93270
 O2173 O 0.51841 0.42766 1.10359
 O2174 O 0.51818 0.40432 1.12780
 C2175 C 0.52523 0.42072 1.12033
 C2176 C 0.54210 0.43137 1.13078
 C2177 C 0.54909 0.42457 1.14983
 H2178 H 0.54089 0.41256 1.15757
 O2179 O 0.48051 0.57377 1.10258
 O2180 O 0.48079 0.59737 1.12649
 C2181 C 0.47367 0.58091 1.11921
 C2182 C 0.45677 0.57032 1.12973
 C2183 C 0.44974 0.57715 1.14877
 H2184 H 0.45759 0.58948 1.15637
 O2185 O 0.39851 0.52161 1.07334
 O2186 O 0.37446 0.52197 1.09676
 C2187 C 0.38194 0.52876 1.08023
 C2188 C 0.37163 0.54556 1.06927
 C2189 C 0.35268 0.55274 1.07593
 H2190 H 0.34504 0.54501 1.08834
 O2191 O 0.60054 0.47955 1.07394
 O2192 O 0.62445 0.47944 1.09750
 C2193 C 0.61703 0.47244 1.08104
 C2194 C 0.62727 0.45534 1.07049
 C2195 C 0.64573 0.44761 1.07793
 H2196 H 0.65313 0.45510 1.09062
 O2197 O 0.57101 0.39782 1.02089
 O2198 O 0.59440 0.37378 1.02128
 C2199 C 0.57797 0.38130 1.02815
 C2200 C 0.56737 0.37119 1.04535
 C2201 C 0.57473 0.35273 1.05321
 H2202 H 0.58714 0.34514 1.04550
 O2203 O 0.42813 0.60316 1.02008
 O2204 O 0.40468 0.62713 1.01992
 C2205 C 0.42105 0.61974 1.02707
 C2206 C 0.43155 0.63006 1.04421
 C2207 C 0.42424 0.64863 1.05189
 H2208 H 0.41173 0.65612 1.04425
 O2209 O 0.42538 0.48164 1.10193
 O2210 O 0.40140 0.48198 1.12542
 C2211 C 0.41790 0.47478 1.11844
 C2212 C 0.42831 0.45796 1.12932
 C2213 C 0.42051 0.45034 1.14777
 H2214 H 0.40680 0.45692 1.15406
 O2215 O 0.57317 0.51949 1.10207
 O2216 O 0.59703 0.51936 1.12569
 C2217 C 0.58050 0.52642 1.11859
 C2218 C 0.57009 0.54334 1.12926
 C2219 C 0.57787 0.55098 1.14766
 H2220 H 0.59072 0.54349 1.15473
 O2221 O 0.47881 0.39944 1.07597
 O2222 O 0.47865 0.37594 1.10003
 C2223 C 0.47178 0.38297 1.08334
 C2224 C 0.45510 0.37226 1.07261
 C2225 C 0.44733 0.35381 1.08019
 H2226 H 0.45389 0.34710 1.09378
 O2227 O 0.52017 0.60137 1.07445
 O2228 O 0.52049 0.62517 1.09816
 C2229 C 0.52732 0.61786 1.08157
 C2230 C 0.54408 0.62829 1.07066
 C2231 C 0.55199 0.64675 1.07800
 H2232 H 0.54562 0.65347 1.09165
 O2233 O 0.39877 0.42685 1.02102
 O2234 O 0.37483 0.40336 1.02118
 C2235 C 0.38214 0.41993 1.02799
 C2236 C 0.37145 0.43103 1.04446
 C2237 C 0.35280 0.42389 1.05203
 H2238 H 0.34619 0.41021 1.04564
 O2239 O 0.60084 0.57300 1.02009
 O2240 O 0.62468 0.59659 1.01998
 C2241 C 0.61741 0.58010 1.02703
 C2242 C 0.62795 0.56943 1.04392
 C2243 C 0.64649 0.57683 1.05151
 H2244 H 0.65365 0.58976 1.04420
 O2245 O 0.52020 0.57370 1.10253
 O2246 O 0.52056 0.59740 1.12634
 C2247 C 0.52741 0.58086 1.11902
 C2248 C 0.54431 0.57012 1.12939
 C2249 C 0.55258 0.57779 1.14760
 H2250 H 0.54632 0.59153 1.15421
 O2251 O 0.47880 0.42799 1.10323
 O2252 O 0.47854 0.40460 1.12738
 C2253 C 0.47171 0.42110 1.11987
 C2254 C 0.45487 0.43198 1.13017
 C2255 C 0.44722 0.42497 1.14890
 H2256 H 0.45476 0.41242 1.15649
 O2257 O 0.60091 0.51939 1.07406
 O2258 O 0.62482 0.51928 1.09761
 C2259 C 0.61747 0.52634 1.08113
 C2260 C 0.62796 0.54319 1.07040
 C2261 C 0.64639 0.55096 1.07790
 H2262 H 0.65313 0.54429 1.09141
 O2263 O 0.39815 0.48187 1.07350
 O2264 O 0.37409 0.48225 1.09691
 C2265 C 0.38148 0.47510 1.08050
 C2266 C 0.37098 0.45822 1.06987
 C2267 C 0.35214 0.45111 1.07694
 H2268 H 0.34466 0.45899 1.08935
 O2269 O 0.57304 0.60097 1.01997
 O2270 O 0.59683 0.62461 1.01986
 C2271 C 0.58028 0.61751 1.02688
 C2272 C 0.56976 0.62821 1.04374
 C2273 C 0.57714 0.64690 1.05100
 H2274 H 0.58975 0.65413 1.04326
 O2275 O 0.42628 0.39869 1.02148
 O2276 O 0.40242 0.37512 1.02164
 C2277 C 0.41892 0.38231 1.02866
 C2278 C 0.42930 0.37193 1.04580
 C2279 C 0.42182 0.35344 1.05352
 H2280 H 0.40901 0.34617 1.04615
 O2281 O 0.57321 0.47980 1.10236
 O2282 O 0.59706 0.47965 1.12599
 C2283 C 0.58043 0.47283 1.11893
 C2284 C 0.56948 0.45641 1.12987
 C2285 C 0.57675 0.44888 1.14857
 H2286 H 0.59060 0.45512 1.15489
 O2287 O 0.42595 0.52138 1.10172
 O2288 O 0.40201 0.52175 1.12525
 C2289 C 0.41872 0.52844 1.11823
 C2290 C 0.42971 0.54486 1.12912
 C2291 C 0.42268 0.55211 1.14800
 H2292 H 0.40916 0.54551 1.15470
 O2293 O 0.48053 0.60187 1.07483
 O2294 O 0.48075 0.62558 1.09863
 C2295 C 0.47369 0.61846 1.08207
 C2296 C 0.45704 0.62926 1.07132
 C2297 C 0.44920 0.64761 1.07906
 H2298 H 0.45552 0.65390 1.09294
 O2299 O 0.51847 0.39956 1.07589
 O2300 O 0.51840 0.37612 1.10000
 C2301 C 0.52542 0.38310 1.08333
 C2302 C 0.54209 0.37226 1.07266
 C2303 C 0.55011 0.35408 1.08066
 H2304 H 0.54398 0.34796 1.09470
 O2305 O 0.59956 0.42495 1.02091
 O2306 O 0.62300 0.40097 1.02129
 C2307 C 0.61595 0.41764 1.02808
 C2308 C 0.62662 0.42838 1.04482
 C2309 C 0.64493 0.42068 1.05271
 H2310 H 0.65135 0.40691 1.04632
 O2311 O 0.39982 0.57575 1.01995
 O2312 O 0.37627 0.59963 1.01970
 C2313 C 0.38327 0.58304 1.02676
 C2314 C 0.37235 0.57229 1.04333
 C2315 C 0.35356 0.57952 1.05049
 H2316 H 0.34695 0.59302 1.04370
 Cu2317 Cu 0.49864 0.41599 1.08725
 Cu2318 Cu 0.49843 0.38790 1.11622
 Cu2319 Cu 0.50031 0.58530 1.08623
 Cu2320 Cu 0.50066 0.61376 1.11480
 Cu2321 Cu 0.41503 0.41491 1.00132
 Cu2322 Cu 0.38633 0.38667 1.00150
 Cu2323 Cu 0.58316 0.41358 1.00092
 Cu2324 Cu 0.61127 0.38477 1.00140
 Cu2325 Cu 0.41649 0.58700 1.00013
 Cu2326 Cu 0.38829 0.61573 0.99984
 Cu2327 Cu 0.58456 0.58457 1.00012
 Cu2328 Cu 0.61315 0.61292 1.00000
 Cu2329 Cu 0.41440 0.50162 1.08528
 Cu2330 Cu 0.38557 0.50206 1.11343
 Cu2331 Cu 0.58458 0.49956 1.08572
 Cu2332 Cu 0.61326 0.49942 1.11404
 C2333 C 0.55215 0.44755 1.12112
 H2334 H 0.54683 0.45285 1.10641
 C2335 C 0.56663 0.43297 1.15880
 C2336 C 0.44682 0.55400 1.12019
 H2337 H 0.45205 0.54877 1.10542
 C2338 C 0.43262 0.56822 1.15802
 C2339 C 0.38121 0.55525 1.05278
 H2340 H 0.39590 0.54987 1.04766
 C2341 C 0.34356 0.56984 1.06680
 C2342 C 0.61798 0.44579 1.05375
 H2343 H 0.60363 0.45155 1.04806
 C2344 C 0.65461 0.43017 1.06928
 C2345 C 0.55083 0.38067 1.05499
 H2346 H 0.54515 0.39499 1.04907
 C2347 C 0.56649 0.34418 1.07106
 C2348 C 0.44815 0.62067 1.05386
 H2349 H 0.45378 0.60628 1.04810
 C2350 C 0.43280 0.65748 1.06947
 C2351 C 0.44550 0.44870 1.12068
 H2352 H 0.45126 0.45413 1.10619
 C2353 C 0.42985 0.43382 1.15775
 C2354 C 0.55313 0.55283 1.12040
 H2355 H 0.54717 0.54712 1.10611
 C2356 C 0.56941 0.56835 1.15687
 C2357 C 0.44608 0.38109 1.05532
 H2358 H 0.45175 0.39549 1.04960
 C2359 C 0.43067 0.34429 1.07075
 C2360 C 0.55303 0.61918 1.05348
 H2361 H 0.54735 0.60469 1.04804
 C2362 C 0.56853 0.65623 1.06826
 C2363 C 0.38037 0.44827 1.05343
 H2364 H 0.39499 0.45357 1.04801
 C2365 C 0.34298 0.43383 1.06827
 C2366 C 0.61894 0.55245 1.05332
 H2367 H 0.60453 0.54680 1.04771
 C2368 C 0.65577 0.56779 1.06858
 C2369 C 1.10310 1.10089 1.23124
 C2370 C 1.12429 1.10126 1.23363
 C2371 C 1.13263 1.10960 1.25144
 C2372 C 1.11995 1.11776 1.26670
 C2373 C 1.09871 1.11724 1.26404
 C2374 C 1.09020 1.10875 1.24636
 C2375 C 1.09425 1.09224 1.21248
 C2376 C 1.07306 1.09183 1.21010
 C2377 C 1.06474 1.08363 1.19219
 C2378 C 1.07747 1.07604 1.17665
 C2379 C 1.09872 1.07668 1.17934
 C2380 C 1.10717 1.08466 1.19724
 C2381 C 1.06906 1.10803 1.24346
 C2382 C 1.06064 1.09967 1.22565
 C2383 C 1.13672 1.09343 1.21807
 C2384 C 1.12831 1.08532 1.20016
 H2385 H 1.05894 1.11401 1.25503
 H2386 H 1.04426 1.09944 1.22401
 H2387 H 1.15309 1.09366 1.21971
 H2388 H 1.13844 1.07952 1.18851
 H2389 H 1.14899 1.11011 1.25318
 H2390 H 1.08879 1.12327 1.27575
 H2391 H 1.04838 1.08302 1.19041
 H2392 H 1.10870 1.07126 1.16737
 C2393 C 1.10266 0.60230 0.73052
 C2394 C 1.10172 0.62343 0.73362
 C2395 C 1.11013 0.63172 0.75141
 C2396 C 1.11977 0.61909 0.76582
 C2397 C 1.12082 0.59796 0.76236
 C2398 C 1.11207 0.58944 0.74481
 C2399 C 1.09363 0.59348 0.71193
 C2400 C 1.09422 0.57232 0.70897
 C2401 C 1.08552 0.56401 0.69130
 C2402 C 1.07663 0.57674 0.67641
 C2403 C 1.07636 0.59798 0.67965
 C2404 C 1.08464 0.60639 0.69745
 C2405 C 1.11245 0.56834 0.74127
 C2406 C 1.10358 0.55992 0.72371
 C2407 C 1.09247 0.63585 0.71884
 C2408 C 1.08417 0.62748 0.70100
 H2409 H 1.11960 0.55824 0.75220
 H2410 H 1.10417 0.54356 0.72160
 H2411 H 1.09171 0.65218 0.72104
 H2412 H 1.07726 0.63761 0.68994
 H2413 H 1.10947 0.64803 0.75388
 H2414 H 1.12807 0.58814 0.77349
 H2415 H 1.08559 0.54764 0.68923
 H2416 H 1.07003 0.60805 0.66820
 C2417 C 0.60309 1.10318 0.73062
 C2418 C 0.61280 1.09034 0.74467
 C2419 C 0.62159 1.09877 0.76223
 C2420 C 0.62041 1.11993 0.76612
 C2421 C 0.61029 1.13249 0.75183
 C2422 C 0.60185 1.12423 0.73399
 C2423 C 0.59410 1.09441 0.71196
 C2424 C 0.58484 1.10731 0.69765
 C2425 C 0.57663 1.09895 0.67978
 C2426 C 0.57722 1.07773 0.67631
 C2427 C 0.58636 1.06502 0.69106
 C2428 C 0.59501 1.07329 0.70877
 C2429 C 0.59231 1.13665 0.71938
 C2430 C 0.58406 1.12836 0.70147
 C2431 C 0.61347 1.06928 0.74091
 C2432 C 0.60463 1.06089 0.72333
 H2433 H 0.59131 1.15295 0.72175
 H2434 H 0.57695 1.13850 0.69055
 H2435 H 0.62086 1.05917 0.75167
 H2436 H 0.60546 1.04457 0.72105
 H2437 H 0.62895 1.08864 0.77295
 H2438 H 0.60930 1.14876 0.75417
 H2439 H 0.57009 1.10904 0.66847
 H2440 H 0.58666 1.04867 0.68885
 C2441 C 0.60590 0.60368 1.22864
 C2442 C 0.62711 0.60317 1.23091
 C2443 C 0.63595 0.61209 1.24819
 C2444 C 0.62376 0.62181 1.26291
 C2445 C 0.60252 0.62221 1.26037
 C2446 C 0.59349 0.61303 1.24332
 C2447 C 0.59652 0.59440 1.21045
 C2448 C 0.57531 0.59475 1.20825
 C2449 C 0.56648 0.58595 1.19089
 C2450 C 0.57873 0.57714 1.17560
 C2451 C 0.60002 0.57708 1.17809
 C2452 C 0.60897 0.58552 1.19554
 C2453 C 0.57232 0.61307 1.24060
 C2454 C 0.56337 0.60401 1.22341
 C2455 C 0.63905 0.59396 1.21573
 C2456 C 0.63014 0.58537 1.19830
 H2457 H 0.56257 0.62018 1.25185
 H2458 H 0.54699 0.60439 1.22190
 H2459 H 0.65543 0.59351 1.21728
 H2460 H 0.63990 0.57853 1.18689
 H2461 H 0.65232 0.61190 1.24991
 H2462 H 0.59302 0.62948 1.27172
 H2463 H 0.55009 0.58589 1.18935
 H2464 H 0.60970 0.57078 1.16630
 C2465 C 0.89678 0.90035 1.23127
 C2466 C 0.87594 0.90258 1.23513
 C2467 C 0.86765 0.89418 1.25297
 C2468 C 0.87990 0.88293 1.26665
 C2469 C 0.90084 0.88082 1.26233
 C2470 C 0.90936 0.88971 1.24485
 C2471 C 0.90556 0.90917 1.21253
 C2472 C 0.92649 0.90732 1.20888
 C2473 C 0.93477 0.91576 1.19106
 C2474 C 0.92219 0.92546 1.17656
 C2475 C 0.90115 0.92697 1.18050
 C2476 C 0.89283 0.91912 1.19856
 C2477 C 0.93025 0.88813 1.24066
 C2478 C 0.93869 0.89692 1.22306
 C2479 C 0.86372 0.91292 1.22091
 C2480 C 0.87200 0.92091 1.20286
 H2481 H 0.94016 0.88004 1.25108
 H2482 H 0.95486 0.89536 1.22042
 H2483 H 0.84759 0.91468 1.22365
 H2484 H 0.86201 0.92859 1.19221
 H2485 H 0.85152 0.89587 1.25567
 H2486 H 0.91073 0.87265 1.27268
 H2487 H 0.95100 0.91477 1.18856
 H2488 H 0.89112 0.93391 1.16940
 C2489 C 0.89635 0.39822 0.73042
 C2490 C 0.87537 0.39982 0.73375
 C2491 C 0.86699 0.39174 0.75167
 C2492 C 0.87932 0.38159 0.76613
 C2493 C 0.90040 0.37997 0.76228
 C2494 C 0.90899 0.38847 0.74462
 C2495 C 0.90524 0.40690 0.71167
 C2496 C 0.92629 0.40570 0.70851
 C2497 C 0.93468 0.41412 0.69072
 C2498 C 0.92211 0.42331 0.67587
 C2499 C 0.90096 0.42409 0.67929
 C2500 C 0.89250 0.41616 0.69723
 C2501 C 0.93000 0.38746 0.74088
 C2502 C 0.93851 0.39604 0.72320
 C2503 C 0.86312 0.40935 0.71901
 C2504 C 0.87152 0.41726 0.70100
 H2505 H 0.93995 0.38004 0.75174
 H2506 H 0.95478 0.39498 0.72095
 H2507 H 0.84688 0.41061 0.72136
 H2508 H 0.86152 0.42439 0.68998
 H2509 H 0.85076 0.39299 0.75392
 H2510 H 0.91033 0.37253 0.77314
 H2511 H 0.95098 0.41364 0.68853
 H2512 H 0.89097 0.43061 0.66789
 C2513 C 0.39775 0.89898 0.73077
 C2514 C 0.37659 0.89852 0.73338
 C2515 C 0.36850 0.89041 0.75141
 C2516 C 0.38139 0.88261 0.76669
 C2517 C 0.40258 0.88305 0.76374
 C2518 C 0.41086 0.89134 0.74584
 C2519 C 0.40635 0.90762 0.71187
 C2520 C 0.42751 0.90827 0.70932
 C2521 C 0.43559 0.91654 0.69133
 C2522 C 0.42266 0.92395 0.67586
 C2523 C 0.40145 0.92306 0.67870
 C2524 C 0.39322 0.91502 0.69671
 C2525 C 0.43196 0.89222 0.74273
 C2526 C 0.44014 0.90059 0.72480
 C2527 C 0.36395 0.90612 0.71787
 C2528 C 0.37212 0.91418 0.69982
 H2529 H 0.44224 0.88641 0.75426
 H2530 H 0.45650 0.90099 0.72302
 H2531 H 0.34759 0.90580 0.71969
 H2532 H 0.36184 0.91984 0.68822
 H2533 H 0.35217 0.88993 0.75340
 H2534 H 0.41264 0.87725 0.77547
 H2535 H 0.45193 0.91736 0.68945
 H2536 H 0.39131 0.92833 0.66679
 C2537 C 0.39563 0.40005 1.23155
 C2538 C 0.39753 0.37911 1.23526
 C2539 C 0.38968 0.37094 1.25334
 C2540 C 0.37947 0.38340 1.26764
 C2541 C 0.37734 0.40440 1.26334
 C2542 C 0.38567 0.41282 1.24548
 C2543 C 0.40430 0.40875 1.21270
 C2544 C 0.40295 0.42978 1.20919
 C2545 C 0.41153 0.43800 1.19138
 C2546 C 0.42102 0.42525 1.17688
 C2547 C 0.42185 0.40410 1.18061
 C2548 C 0.41380 0.39584 1.19858
 C2549 C 0.38442 0.43380 1.24135
 C2550 C 0.39303 0.44215 1.22359
 C2551 C 0.40722 0.36668 1.22079
 C2552 C 0.41510 0.37488 1.20269
 H2553 H 0.37685 0.44387 1.25199
 H2554 H 0.39183 0.45841 1.22106
 H2555 H 0.40869 0.35046 1.22345
 H2556 H 0.42241 0.36476 1.19190
 H2557 H 0.39120 0.35473 1.25587
 H2558 H 0.36978 0.41438 1.27406
 H2559 H 0.41097 0.45431 1.18895
 H2560 H 0.42855 0.39395 1.16946
 C2561 C 0.89870 1.10194 0.76895
 C2562 C 0.91176 1.10936 0.75373
 C2563 C 0.90344 1.11749 0.73577
 C2564 C 0.88224 1.11798 0.73291
 C2565 C 0.86939 1.11041 0.74835
 C2566 C 0.87753 1.10247 0.76643
 C2567 C 0.90733 1.09346 0.78790
 C2568 C 0.89423 1.08625 0.80318
 C2569 C 0.90248 1.07831 0.82120
 C2570 C 0.92370 1.07731 0.82397
 C2571 C 0.93662 1.08457 0.80841
 C2572 C 0.92850 1.09274 0.79038
 C2573 C 0.86491 1.09509 0.78206
 C2574 C 0.87312 1.08717 0.80015
 C2575 C 0.93288 1.10844 0.75678
 C2576 C 0.94110 1.10022 0.77477
 H2577 H 0.84855 1.09546 0.78030
 H2578 H 0.86286 1.08166 0.81184
 H2579 H 0.94313 1.11408 0.74515
 H2580 H 0.95746 1.09977 0.77649
 H2581 H 0.91347 1.12312 0.72393
 H2582 H 0.85305 1.11095 0.74646
 H2583 H 0.89236 1.07318 0.83319
 H2584 H 0.95295 1.08369 0.81025
 C2585 C 0.89803 0.60017 0.26834
 C2586 C 0.88990 0.58688 0.25368
 C2587 C 0.88159 0.59498 0.23569
 C2588 C 0.88171 0.61615 0.23223
 C2589 C 0.88993 0.62921 0.24713
 C2590 C 0.89802 0.62132 0.26525
 C2591 C 0.90677 0.59178 0.28728
 C2592 C 0.91467 0.60509 0.30202
 C2593 C 0.92282 0.59707 0.32006
 C2594 C 0.92335 0.57585 0.32336
 C2595 C 0.91547 0.56272 0.30829
 C2596 C 0.90705 0.57061 0.29028
 C2597 C 0.90609 0.63416 0.28034
 C2598 C 0.91422 0.62619 0.29845
 C2599 C 0.89037 0.56579 0.25726
 C2600 C 0.89886 0.55779 0.27522
 H2601 H 0.90611 0.65052 0.27815
 H2602 H 0.92026 0.63662 0.30972
 H2603 H 0.88419 0.55537 0.24607
 H2604 H 0.89896 0.54143 0.27736
 H2605 H 0.87543 0.58481 0.22425
 H2606 H 0.88985 0.64554 0.24476
 H2607 H 0.92844 0.60737 0.33166
 H2608 H 0.91601 0.54637 0.31050
 C2609 C 0.39977 1.09889 0.26683
 C2610 C 0.40117 1.11983 0.26275
 C2611 C 0.39353 1.12741 0.24428
 C2612 C 0.38417 1.11427 0.23017
 C2613 C 0.38265 1.09334 0.23461
 C2614 C 0.39064 1.08552 0.25285
 C2615 C 0.40803 1.09079 0.28611
 C2616 C 0.40702 1.06980 0.29003
 C2617 C 0.41507 1.06216 0.30831
 C2618 C 0.42374 1.07541 0.32286
 C2619 C 0.42438 1.09648 0.31867
 C2620 C 0.41677 1.10421 0.30026
 C2621 C 0.38979 1.06462 0.25737
 C2622 C 0.39794 1.05688 0.27559
 C2623 C 0.41012 1.13277 0.27724
 C2624 C 0.41768 1.12511 0.29573
 H2625 H 0.38284 1.05414 0.24669
 H2626 H 0.39703 1.04065 0.27844
 H2627 H 0.41122 1.14897 0.27429
 H2628 H 0.42440 1.13562 0.30653
 H2629 H 0.39455 1.14357 0.24105
 H2630 H 0.37562 1.08313 0.22372
 H2631 H 0.41473 1.04591 0.31110
 H2632 H 0.43056 1.10695 0.32983
 C2633 C 0.39989 0.59810 0.76738
 C2634 C 0.41309 0.60645 0.75277
 C2635 C 0.40501 0.61446 0.73466
 C2636 C 0.38393 0.61384 0.73102
 C2637 C 0.37095 0.60517 0.74572
 C2638 C 0.37884 0.59745 0.76403
 C2639 C 0.40826 0.58999 0.78661
 C2640 C 0.39501 0.58209 0.80140
 C2641 C 0.40300 0.57468 0.81977
 C2642 C 0.42414 0.57477 0.82333
 C2643 C 0.43721 0.58262 0.80818
 C2644 C 0.42933 0.59041 0.78988
 C2645 C 0.36607 0.58928 0.77914
 C2646 C 0.37402 0.58182 0.79755
 C2647 C 0.43410 0.60663 0.75660
 C2648 C 0.44209 0.59866 0.77479
 H2649 H 0.34980 0.58876 0.77676
 H2650 H 0.36364 0.57574 0.80884
 H2651 H 0.44445 0.61297 0.74542
 H2652 H 0.45837 0.59908 0.77713
 H2653 H 0.41510 0.62097 0.72334
 H2654 H 0.35470 0.60486 0.74316
 H2655 H 0.39269 0.56913 0.83141
 H2656 H 0.45349 0.58255 0.81055
 C2657 C 1.10212 0.89800 0.76952
 C2658 C 1.10099 0.87689 0.76634
 C2659 C 1.10926 0.86857 0.74850
 C2660 C 1.11897 0.88116 0.73410
 C2661 C 1.12020 0.90228 0.73762
 C2662 C 1.11159 0.91082 0.75524
 C2663 C 1.09325 0.90684 0.78817
 C2664 C 1.09405 0.92798 0.79121
 C2665 C 1.08549 0.93632 0.80894
 C2666 C 1.07652 0.92362 0.82380
 C2667 C 1.07606 0.90239 0.82050
 C2668 C 1.08420 0.89396 0.80265
 C2669 C 1.11218 0.93190 0.75884
 C2670 C 1.10347 0.94035 0.77647
 C2671 C 1.09168 0.86450 0.78112
 C2672 C 1.08353 0.87289 0.79902
 H2673 H 1.11939 0.94197 0.74792
 H2674 H 1.10422 0.95669 0.77863
 H2675 H 1.09078 0.84818 0.77888
 H2676 H 1.07657 0.86279 0.81008
 H2677 H 1.10848 0.85228 0.74600
 H2678 H 1.12750 0.91207 0.72651
 H2679 H 1.08573 0.95267 0.81108
 H2680 H 1.06967 0.89234 0.83193
 C2681 C 1.10071 0.39879 0.26875
 C2682 C 1.10997 0.41175 0.25446
 C2683 C 1.11851 0.40337 0.23675
 C2684 C 1.11744 0.38227 0.23315
 C2685 C 1.10791 0.36952 0.24753
 C2686 C 1.09970 0.37768 0.26547
 C2687 C 1.09197 0.40746 0.28754
 C2688 C 1.08316 0.39444 0.30203
 C2689 C 1.07520 0.40270 0.32003
 C2690 C 1.07561 0.42391 0.32347
 C2691 C 1.08431 0.43675 0.30857
 C2692 C 1.09269 0.42859 0.29069
 C2693 C 1.09061 0.36515 0.28026
 C2694 C 1.08257 0.37338 0.29829
 C2695 C 1.11045 0.43282 0.25817
 C2696 C 1.10186 0.44111 0.27593
 H2697 H 1.08979 0.34884 0.27793
 H2698 H 1.07579 0.36318 0.30936
 H2699 H 1.11749 0.44299 0.24724
 H2700 H 1.10253 0.45743 0.27819
 H2701 H 1.12567 0.41327 0.22565
 H2702 H 1.10724 0.35324 0.24494
 H2703 H 1.06900 0.39255 0.33148
 H2704 H 1.08448 0.45310 0.31083
 C2705 C 0.60254 0.89752 0.27005
 C2706 C 0.60162 0.87640 0.26686
 C2707 C 0.61007 0.86818 0.24905
 C2708 C 0.61975 0.88088 0.23473
 C2709 C 0.62078 0.90199 0.23827
 C2710 C 0.61198 0.91044 0.25584
 C2711 C 0.59348 0.90627 0.28866
 C2712 C 0.59408 0.92741 0.29170
 C2713 C 0.58536 0.93565 0.30939
 C2714 C 0.57646 0.92287 0.32422
 C2715 C 0.57617 0.90164 0.32090
 C2716 C 0.58447 0.89330 0.30308
 C2717 C 0.61236 0.93152 0.25945
 C2718 C 0.60347 0.93988 0.27703
 C2719 C 0.59234 0.86393 0.28158
 C2720 C 0.58401 0.87222 0.29944
 H2721 H 0.61954 0.94166 0.24858
 H2722 H 0.60405 0.95622 0.27921
 H2723 H 0.59160 0.84760 0.27931
 H2724 H 0.57709 0.86206 0.31045
 H2725 H 0.60943 0.85189 0.24652
 H2726 H 0.62805 0.91186 0.22721
 H2727 H 0.58544 0.95201 0.31155
 H2728 H 0.56982 0.89154 0.33230
 C2729 C 0.60440 0.39479 0.77278
 C2730 C 0.60423 0.37356 0.77025
 C2731 C 0.61313 0.36508 0.75278
 C2732 C 0.62243 0.37766 0.73808
 C2733 C 0.62267 0.39891 0.74098
 C2734 C 0.61351 0.40758 0.75823
 C2735 C 0.59486 0.40381 0.79101
 C2736 C 0.59477 0.42505 0.79341
 C2737 C 0.58565 0.43355 0.81076
 C2738 C 0.57695 0.42095 0.82586
 C2739 C 0.57728 0.39963 0.82317
 C2740 C 0.58607 0.39101 0.80572
 C2741 C 0.61317 0.42876 0.76119
 C2742 C 0.60388 0.43736 0.77844
 C2743 C 0.59520 0.36125 0.78525
 C2744 C 0.58635 0.36982 0.80274
 H2745 H 0.62009 0.43880 0.75005
 H2746 H 0.60393 0.45377 0.78012
 H2747 H 0.59502 0.34485 0.78350
 H2748 H 0.57962 0.35978 0.81399
 H2749 H 0.61306 0.34871 0.75076
 H2750 H 0.62960 0.40871 0.72964
 H2751 H 0.58526 0.44995 0.81247
 H2752 H 0.57104 0.38971 0.83480
 C2753 C 1.23061 1.10085 1.10114
 C2754 C 1.24587 1.08762 1.10807
 C2755 C 1.26388 1.09580 1.11606
 C2756 C 1.26671 1.11706 1.11705
 C2757 C 1.25123 1.13008 1.10992
 C2758 C 1.23313 1.12205 1.10201
 C2759 C 1.21160 1.09233 1.09283
 C2760 C 1.19629 1.10557 1.08603
 C2761 C 1.17822 1.09742 1.07821
 C2762 C 1.17543 1.07616 1.07703
 C2763 C 1.19098 1.06310 1.08394
 C2764 C 1.20909 1.07112 1.09189
 C2765 C 1.21746 1.13482 1.09505
 C2766 C 1.19934 1.12672 1.08722
 C2767 C 1.24281 1.06647 1.10688
 C2768 C 1.22474 1.05836 1.09890
 H2769 H 1.21921 1.15121 1.09567
 H2770 H 1.18763 1.13710 1.08203
 H2771 H 1.25448 1.05609 1.11216
 H2772 H 1.22301 1.04197 1.09825
 H2773 H 1.27571 1.08560 1.12129
 H2774 H 1.25308 1.14644 1.11078
 H2775 H 1.16624 1.10762 1.07330
 H2776 H 1.18909 1.04674 1.08291
 C2777 C 1.22809 0.60297 0.60373
 C2778 C 1.23079 0.62418 0.60346
 C2779 C 1.24851 0.63252 0.61191
 C2780 C 1.26329 0.61983 0.62085
 C2781 C 1.26021 0.59860 0.62117
 C2782 C 1.24271 0.59007 0.61248
 C2783 C 1.20959 0.59409 0.59468
 C2784 C 1.20702 0.57287 0.59468
 C2785 C 1.18945 0.56450 0.58597
 C2786 C 1.17433 0.57721 0.57756
 C2787 C 1.17718 0.59850 0.57783
 C2788 C 1.19483 0.60700 0.58622
 C2789 C 1.23957 0.56891 0.61226
 C2790 C 1.22206 0.56045 0.60344
 C2791 C 1.21571 0.63660 0.59479
 C2792 C 1.19799 0.62817 0.58639
 H2793 H 1.25076 0.55879 0.61891
 H2794 H 1.22026 0.54405 0.60356
 H2795 H 1.21759 0.65299 0.59453
 H2796 H 1.18671 0.63829 0.57992
 H2797 H 1.25065 0.64888 0.61177
 H2798 H 1.27160 0.58869 0.62781
 H2799 H 1.18762 0.54810 0.58563
 H2800 H 1.16554 0.60851 0.57181
 C2801 C 0.72868 1.10401 0.60240
 C2802 C 0.74368 1.09125 0.61068
 C2803 C 0.76111 1.09996 0.61934
 C2804 C 0.76367 1.12127 0.61957
 C2805 C 0.74855 1.13382 0.61101
 C2806 C 0.73095 1.12527 0.60253
 C2807 C 0.71019 1.09495 0.59354
 C2808 C 0.69505 1.10773 0.58559
 C2809 C 0.67739 1.09907 0.57742
 C2810 C 0.67487 1.07774 0.57692
 C2811 C 0.69031 1.06515 0.58487
 C2812 C 0.70795 1.07368 0.59330
 C2813 C 0.71551 1.13756 0.59432
 C2814 C 0.69783 1.12894 0.58605
 C2815 C 0.74092 1.07003 0.61015
 C2816 C 0.72339 1.06140 0.60156
 H2817 H 0.71706 1.15399 0.59437
 H2818 H 0.68625 1.13897 0.57995
 H2819 H 0.75240 1.06001 0.61644
 H2820 H 0.72185 1.04497 0.60147
 H2821 H 0.77274 1.09016 0.62570
 H2822 H 0.75024 1.15022 0.61130
 H2823 H 0.66548 1.10896 0.57174
 H2824 H 0.68868 1.04874 0.58437
 C2825 C 0.72896 0.60152 1.10318
 C2826 C 0.74395 0.58841 1.11094
 C2827 C 0.76167 0.59673 1.11941
 C2828 C 0.76454 0.61799 1.11992
 C2829 C 0.74931 0.63089 1.11209
 C2830 C 0.73146 0.62274 1.10379
 C2831 C 0.71032 0.59287 1.09422
 C2832 C 0.69527 0.60600 1.08663
 C2833 C 0.67752 0.59771 1.07824
 C2834 C 0.67481 0.57644 1.07722
 C2835 C 0.69016 0.56350 1.08482
 C2836 C 0.70790 0.57165 1.09342
 C2837 C 0.71606 0.63539 1.09603
 C2838 C 0.69825 0.62716 1.08765
 C2839 C 0.74096 0.56725 1.10991
 C2840 C 0.72326 0.55901 1.10126
 H2841 H 0.71779 0.65179 1.09645
 H2842 H 0.68674 0.63745 1.08186
 H2843 H 0.75241 0.55696 1.11581
 H2844 H 0.72157 0.54260 1.10075
 H2845 H 0.77336 0.58666 1.12521
 H2846 H 0.75122 0.64726 1.11262
 H2847 H 0.66570 0.60784 1.07282
 H2848 H 0.68837 0.54713 1.08390
 C2849 C 1.22793 0.89510 0.89771
 C2850 C 1.24301 0.90796 0.88978
 C2851 C 1.26043 0.89936 0.88100
 C2852 C 1.26291 0.87806 0.88028
 C2853 C 1.24771 0.86538 0.88852
 C2854 C 1.23011 0.87383 0.89714
 C2855 C 1.20943 0.90406 0.90669
 C2856 C 1.19420 0.89120 0.91432
 C2857 C 1.17652 0.89979 0.92258
 C2858 C 1.17408 0.92112 0.92343
 C2859 C 1.18964 0.93378 0.91582
 C2860 C 1.20729 0.92533 0.90734
 C2861 C 1.21458 0.86145 0.90504
 C2862 C 1.19690 0.86998 0.91343
 C2863 C 1.24034 0.92917 0.89074
 C2864 C 1.22281 0.93771 0.89942
 H2865 H 1.21606 0.84502 0.90465
 H2866 H 1.18525 0.85989 0.91928
 H2867 H 1.25190 0.93926 0.88471
 H2868 H 1.22134 0.95414 0.89984
 H2869 H 1.27212 0.90926 0.87493
 H2870 H 1.24935 0.84898 0.88787
 H2871 H 1.16454 0.88986 0.92803
 H2872 H 1.18807 0.95019 0.91662
 C2873 C 1.22990 0.39775 0.39747
 C2874 C 1.24394 0.41062 0.38782
 C2875 C 1.26157 0.40223 0.37917
 C2876 C 1.26555 0.38111 0.38058
 C2877 C 1.25119 0.36852 0.39053
 C2878 C 1.23332 0.37671 0.39876
 C2879 C 1.21125 0.40645 0.40640
 C2880 C 1.19699 0.39349 0.41560
 C2881 C 1.17912 0.40178 0.42377
 C2882 C 1.17560 0.42298 0.42320
 C2883 C 1.19030 0.43576 0.41413
 C2884 C 1.20801 0.42755 0.40550
 C2885 C 1.21875 0.36423 0.40822
 C2886 C 1.20083 0.37246 0.41639
 C2887 C 1.24011 0.43167 0.38712
 C2888 C 1.22252 0.44001 0.39591
 H2889 H 1.22117 0.34794 0.40926
 H2890 H 1.18996 0.36228 0.42346
 H2891 H 1.25084 0.44181 0.37978
 H2892 H 1.22020 0.45632 0.39508
 H2893 H 1.27233 0.41234 0.37186
 H2894 H 1.25352 0.35225 0.39158
 H2895 H 1.16785 0.39164 0.43023
 H2896 H 1.18805 0.45210 0.41384
 C2897 C 0.72902 0.89631 0.39701
 C2898 C 0.74292 0.90895 0.38681
 C2899 C 0.76029 0.90026 0.37795
 C2900 C 0.76398 0.87922 0.37973
 C2901 C 0.75001 0.86682 0.39021
 C2902 C 0.73235 0.87525 0.39866
 C2903 C 0.71058 0.90529 0.40610
 C2904 C 0.69642 0.89258 0.41578
 C2905 C 0.67873 0.90112 0.42404
 C2906 C 0.67532 0.92233 0.42316
 C2907 C 0.68994 0.93487 0.41363
 C2908 C 0.70745 0.92639 0.40485
 C2909 C 0.71791 0.86304 0.40863
 C2910 C 0.70017 0.87154 0.41692
 C2911 C 0.73921 0.92999 0.38577
 C2912 C 0.72184 0.93859 0.39475
 H2913 H 0.72027 0.84676 0.40994
 H2914 H 0.68936 0.86157 0.42438
 H2915 H 0.74985 0.93992 0.37802
 H2916 H 0.71958 0.95489 0.39365
 H2917 H 0.77110 0.90988 0.37003
 H2918 H 0.75269 0.85058 0.39142
 H2919 H 0.66750 0.89115 0.43084
 H2920 H 0.68779 0.95121 0.41309
 C2921 C 0.72661 0.39361 0.89698
 C2922 C 0.72879 0.37234 0.89664
 C2923 C 0.74609 0.36378 0.88757
 C2924 C 0.76099 0.37632 0.87861
 C2925 C 0.75852 0.39763 0.87906
 C2926 C 0.74141 0.40636 0.88833
 C2927 C 0.70842 0.40270 0.90645
 C2928 C 0.70629 0.42396 0.90690
 C2929 C 0.68890 0.43252 0.91582
 C2930 C 0.67353 0.41997 0.92399
 C2931 C 0.67598 0.39863 0.92336
 C2932 C 0.69343 0.38993 0.91472
 C2933 C 0.73876 0.42758 0.88911
 C2934 C 0.72154 0.43624 0.89829
 C2935 C 0.71353 0.36007 0.90522
 C2936 C 0.69611 0.36871 0.91404
 H2937 H 0.75010 0.43759 0.88254
 H2938 H 0.72008 0.45267 0.89854
 H2939 H 0.71500 0.34364 0.90502
 H2940 H 0.68466 0.35870 0.92038
 H2941 H 0.74774 0.34737 0.88713
 H2942 H 0.76999 0.40742 0.87240
 H2943 H 0.68737 0.44894 0.91644
 H2944 H 0.66415 0.38875 0.92921
 C2945 C 0.77071 0.89924 1.10216
 C2946 C 0.76752 0.90006 1.12333
 C2947 C 0.74968 0.89173 1.13152
 C2948 C 0.73531 0.88229 1.11874
 C2949 C 0.73882 0.88147 1.09756
 C2950 C 0.75643 0.89010 1.08916
 C2951 C 0.78941 0.90804 1.09345
 C2952 C 0.79248 0.90748 1.07227
 C2953 C 0.81027 0.91592 1.06407
 C2954 C 0.82515 0.92454 1.07692
 C2955 C 0.82180 0.92479 1.09819
 C2956 C 0.80390 0.91674 1.10650
 C2957 C 0.76005 0.88979 1.06804
 C2958 C 0.77773 0.89842 1.05973
 C2959 C 0.78231 0.90904 1.13588
 C2960 C 0.80024 0.91715 1.12762
 H2961 H 0.74912 0.88284 1.05784
 H2962 H 0.77992 0.89787 1.04336
 H2963 H 0.78005 0.90971 1.15224
 H2964 H 0.81131 0.92384 1.13784
 H2965 H 0.74719 0.89222 1.14786
 H2966 H 0.72774 0.87439 1.08762
 H2967 H 0.81246 0.91587 1.04769
 H2968 H 0.83324 0.93094 1.10834
 C2969 C 0.76894 0.39958 0.60127
 C2970 C 0.75444 0.39104 0.58810
 C2971 C 0.73655 0.38282 0.59633
 C2972 C 0.73302 0.38340 0.61752
 C2973 C 0.74764 0.39223 0.63046
 C2974 C 0.76571 0.40018 0.62243
 C2975 C 0.78792 0.40796 0.59275
 C2976 C 0.80258 0.41610 0.60597
 C2977 C 0.82071 0.42380 0.59784
 C2978 C 0.82415 0.42374 0.57659
 C2979 C 0.80915 0.41562 0.56356
 C2980 C 0.79108 0.40757 0.57157
 C2981 C 0.78069 0.40857 0.63516
 C2982 C 0.79886 0.41632 0.62707
 C2983 C 0.75815 0.39089 0.56699
 C2984 C 0.77612 0.39909 0.55886
 H2985 H 0.77840 0.40907 0.65152
 H2986 H 0.81006 0.42257 0.63743
 H2987 H 0.74707 0.38440 0.55666
 H2988 H 0.77837 0.39869 0.54249
 H2989 H 0.72530 0.37619 0.58626
 H2990 H 0.74519 0.39250 0.64680
 H2991 H 0.83224 0.42957 0.60811
 H2992 H 0.81144 0.41570 0.54719
 C2993 C 0.27019 0.89796 0.60175
 C2994 C 0.25596 0.88874 0.58876
 C2995 C 0.23828 0.88024 0.59714
 C2996 C 0.23466 0.88127 0.61829
 C2997 C 0.24900 0.89077 0.63107
 C2998 C 0.26690 0.89897 0.62289
 C2999 C 0.28895 0.90666 0.59306
 C3000 C 0.30338 0.91546 0.60610
 C3001 C 0.32131 0.92345 0.59781
 C3002 C 0.32474 0.92307 0.57657
 C3003 C 0.30994 0.91432 0.56371
 C3004 C 0.29212 0.90594 0.57189
 C3005 C 0.28164 0.90802 0.63544
 C3006 C 0.29963 0.91604 0.62720
 C3007 C 0.25969 0.88824 0.56765
 C3008 C 0.27741 0.89678 0.55936
 H3009 H 0.27931 0.90883 0.65178
 H3010 H 0.31065 0.92280 0.63742
 H3011 H 0.24879 0.88122 0.55746
 H3012 H 0.27968 0.89610 0.54300
 H3013 H 0.22723 0.87311 0.58720
 H3014 H 0.24642 0.89141 0.64738
 H3015 H 0.33269 0.92968 0.60797
 H3016 H 0.31220 0.91416 0.54734
 C3017 C 0.26875 0.40081 1.10134
 C3018 C 0.25465 0.39159 1.08822
 C3019 C 0.23693 0.38303 1.09644
 C3020 C 0.23315 0.38399 1.11756
 C3021 C 0.24734 0.39353 1.13047
 C3022 C 0.26528 0.40179 1.12246
 C3023 C 0.28758 0.40951 1.09284
 C3024 C 0.30191 0.41827 1.10602
 C3025 C 0.31996 0.42616 1.09791
 C3026 C 0.32363 0.42568 1.07671
 C3027 C 0.30891 0.41704 1.06370
 C3028 C 0.29096 0.40875 1.07171
 C3029 C 0.27990 0.41085 1.13515
 C3030 C 0.29796 0.41886 1.12708
 C3031 C 0.25856 0.39110 1.06715
 C3032 C 0.27636 0.39963 1.05902
 H3033 H 0.27742 0.41164 1.15147
 H3034 H 0.30890 0.42561 1.13741
 H3035 H 0.24776 0.38408 1.05685
 H3036 H 0.27879 0.39894 1.04269
 H3037 H 0.22598 0.37587 1.08640
 H3038 H 0.24464 0.39412 1.14677
 H3039 H 0.33128 0.43235 1.10818
 H3040 H 0.31135 0.41681 1.04736
 C3041 C 0.76888 1.10185 0.90040
 C3042 C 0.76537 1.10129 0.87928
 C3043 C 0.74695 1.10875 0.87156
 C3044 C 0.73219 1.11697 0.88477
 C3045 C 0.73606 1.11760 0.90591
 C3046 C 0.75433 1.10991 0.91382
 C3047 C 0.78816 1.09382 0.90861
 C3048 C 0.79157 1.09410 0.92974
 C3049 C 0.80986 1.08626 0.93748
 C3050 C 0.82479 1.07839 0.92421
 C3051 C 0.82111 1.07846 0.90300
 C3052 C 0.80278 1.08600 0.89515
 C3053 C 0.75834 1.11002 0.93488
 C3054 C 0.77660 1.10219 0.94271
 C3055 C 0.78037 1.09332 0.86630
 C3056 C 0.79879 1.08587 0.87409
 H3057 H 0.74723 1.11616 0.94541
 H3058 H 0.77905 1.10251 0.95905
 H3059 H 0.77787 1.09285 0.84997
 H3060 H 0.80997 1.07988 0.86355
 H3061 H 0.74424 1.10841 0.85526
 H3062 H 0.72474 1.12373 0.91621
 H3063 H 0.81235 1.08608 0.95382
 H3064 H 0.83258 1.07286 0.89256
 C3065 C 0.77188 0.60353 0.39599
 C3066 C 0.76981 0.60413 0.37469
 C3067 C 0.75233 0.61284 0.36614
 C3068 C 0.73705 0.62109 0.37872
 C3069 C 0.73941 0.62038 0.40008
 C3070 C 0.75678 0.61155 0.40880
 C3071 C 0.79027 0.59442 0.40505
 C3072 C 0.79235 0.59375 0.42636
 C3073 C 0.80991 0.58510 0.43488
 C3074 C 0.82537 0.57728 0.42223
 C3075 C 0.82300 0.57819 0.40087
 C3076 C 0.80547 0.58665 0.39221
 C3077 C 0.75938 0.61058 0.43006
 C3078 C 0.77684 0.60180 0.43869
 C3079 C 0.78532 0.59613 0.36234
 C3080 C 0.80287 0.58757 0.37096
 H3081 H 0.74783 0.61668 0.44012
 H3082 H 0.77825 0.60138 0.45516
 H3083 H 0.78391 0.59653 0.34588
 H3084 H 0.81449 0.58162 0.36089
 H3085 H 0.75083 0.61350 0.34970
 H3086 H 0.72770 0.62650 0.40993
 H3087 H 0.81146 0.58431 0.45132
 H3088 H 0.83494 0.57261 0.39096
 C3089 C 0.27178 1.10335 0.39671
 C3090 C 0.26924 1.10327 0.37544
 C3091 C 0.25158 1.11177 0.36699
 C3092 C 0.23668 1.12055 0.37966
 C3093 C 0.23952 1.12050 0.40097
 C3094 C 0.25700 1.11183 0.40958
 C3095 C 0.29032 1.09446 0.40567
 C3096 C 0.29281 1.09440 0.42695
 C3097 C 0.31047 1.08591 0.43539
 C3098 C 0.32570 1.07771 0.42269
 C3099 C 0.32294 1.07804 0.40135
 C3100 C 0.30524 1.08627 0.39278
 C3101 C 0.26001 1.11150 0.43080
 C3102 C 0.27758 1.10288 0.43934
 C3103 C 0.28448 1.09484 0.36304
 C3104 C 0.30221 1.08654 0.37156
 H3105 H 0.24869 1.11796 0.44090
 H3106 H 0.27931 1.10294 0.45578
 H3107 H 0.28273 1.09473 0.34660
 H3108 H 0.31362 1.08026 0.36145
 H3109 H 0.24966 1.11190 0.35058
 H3110 H 0.22805 1.12701 0.41087
 H3111 H 0.31228 1.08555 0.45182
 H3112 H 0.33468 1.07217 0.39137
 C3113 C 0.27124 0.60290 0.89822
 C3114 C 0.26785 0.60172 0.87710
 C3115 C 0.24988 0.60980 0.86894
 C3116 C 0.23556 0.61937 0.88170
 C3117 C 0.23928 0.62056 0.90283
 C3118 C 0.25702 0.61218 0.91120
 C3119 C 0.29006 0.59431 0.90689
 C3120 C 0.29332 0.59522 0.92803
 C3121 C 0.31120 0.58693 0.93621
 C3122 C 0.32597 0.57808 0.92336
 C3123 C 0.32244 0.57753 0.90213
 C3124 C 0.30446 0.58543 0.89386
 C3125 C 0.26085 0.61286 0.93228
 C3126 C 0.27865 0.60444 0.94056
 C3127 C 0.28257 0.59259 0.86456
 C3128 C 0.30061 0.58468 0.87278
 H3129 H 0.24998 0.61993 0.94247
 H3130 H 0.28098 0.60526 0.95690
 H3131 H 0.28017 0.59164 0.84823
 H3132 H 0.31160 0.57785 0.86256
 H3133 H 0.24724 0.60902 0.85264
 H3134 H 0.22824 0.62773 0.91277
 H3135 H 0.31353 0.58722 0.95257
 H3136 H 0.33379 0.57121 0.89198
 C3137 C 1.10206 1.23083 1.09996
 C3138 C 1.08905 1.24513 1.10907
 C3139 C 1.09731 1.26293 1.11743
 C3140 C 1.11835 1.26662 1.11637
 C3141 C 1.13114 1.25225 1.10696
 C3142 C 1.12310 1.23421 1.09892
 C3143 C 1.09350 1.21191 1.09145
 C3144 C 1.10657 1.19740 1.08281
 C3145 C 1.09840 1.17929 1.07507
 C3146 C 1.07727 1.17576 1.07553
 C3147 C 1.06438 1.19066 1.08407
 C3148 C 1.07244 1.20866 1.09223
 C3149 C 1.13567 1.21940 1.08999
 C3150 C 1.12755 1.20125 1.08217
 C3151 C 1.06805 1.24132 1.10961
 C3152 C 1.05988 1.22343 1.10124
 H3153 H 1.15193 1.22180 1.08915
 H3154 H 1.13779 1.19017 1.07552
 H3155 H 1.05785 1.25226 1.11653
 H3156 H 1.04360 1.22109 1.10195
 H3157 H 1.08736 1.27404 1.12450
 H3158 H 1.14738 1.25490 1.10630
 H3159 H 1.10857 1.16784 1.06898
 H3160 H 1.04809 1.18832 1.08427
 C3161 C 1.10219 0.72924 0.60142
 C3162 C 1.08933 0.74363 0.61058
 C3163 C 1.09778 0.76134 0.61900
 C3164 C 1.11885 0.76483 0.61792
 C3165 C 1.13149 0.75035 0.60847
 C3166 C 1.12326 0.73240 0.60038
 C3167 C 1.09343 0.71046 0.59280
 C3168 C 1.10634 0.69587 0.58406
 C3169 C 1.09798 0.67792 0.57613
 C3170 C 1.07680 0.67463 0.57650
 C3171 C 1.06408 0.68959 0.58519
 C3172 C 1.07234 0.70743 0.59353
 C3173 C 1.13568 0.71750 0.59138
 C3174 C 1.12737 0.69949 0.58346
 C3175 C 1.06830 0.74003 0.61111
 C3176 C 1.05993 0.72228 0.60263
 H3177 H 1.15196 0.71974 0.59055
 H3178 H 1.13748 0.68834 0.57673
 H3179 H 1.05821 0.75105 0.61808
 H3180 H 1.04363 0.72012 0.60331
 H3181 H 1.08795 0.77252 0.62609
 H3182 H 1.14775 0.75284 0.60779
 H3183 H 1.10804 0.66641 0.56995
 H3184 H 1.04776 0.68744 0.58535
 C3185 C 0.60298 1.22862 0.60292
 C3186 C 0.60329 1.23112 0.62418
 C3187 C 0.61184 1.24883 0.63246
 C3188 C 0.62026 1.26385 0.61965
 C3189 C 0.61999 1.26100 0.59836
 C3190 C 0.61122 1.24346 0.58989
 C3191 C 0.59386 1.21009 0.59413
 C3192 C 0.59334 1.20767 0.57286
 C3193 C 0.58462 1.19002 0.56459
 C3194 C 0.57668 1.17473 0.57744
 C3195 C 0.57746 1.17744 0.59877
 C3196 C 0.58590 1.19513 0.60718
 C3197 C 0.61045 1.24048 0.56868
 C3198 C 0.60160 1.22292 0.56031
 C3199 C 0.59511 1.21584 0.63674
 C3200 C 0.58663 1.19811 0.62839
 H3201 H 0.61671 1.25184 0.55846
 H3202 H 0.60131 1.22123 0.54387
 H3203 H 0.59531 1.21758 0.65318
 H3204 H 0.58053 1.18667 0.63861
 H3205 H 0.61219 1.25075 0.64887
 H3206 H 0.62626 1.27256 0.58837
 H3207 H 0.58390 1.18826 0.54817
 H3208 H 0.57181 1.16565 0.60886
 C3209 C 0.60285 0.73008 1.10116
 C3210 C 0.59004 0.74451 1.11034
 C3211 C 0.59854 0.76219 1.11875
 C3212 C 0.61963 0.76563 1.11765
 C3213 C 0.63222 0.75113 1.10815
 C3214 C 0.62393 0.73320 1.10008
 C3215 C 0.59404 0.71130 1.09261
 C3216 C 0.60690 0.69665 1.08390
 C3217 C 0.59849 0.67868 1.07608
 C3218 C 0.57731 0.67542 1.07654
 C3219 C 0.56463 0.69044 1.08518
 C3220 C 0.57294 0.70830 1.09342
 C3221 C 0.63629 0.71826 1.09109
 C3222 C 0.62793 0.70024 1.08323
 C3223 C 0.56900 0.74096 1.11092
 C3224 C 0.56058 0.72321 1.10250
 H3225 H 0.65258 0.72046 1.09022
 H3226 H 0.63801 0.68905 1.07652
 H3227 H 0.55895 0.75201 1.11790
 H3228 H 0.54428 0.72108 1.10323
 H3229 H 0.58875 0.77339 1.12587
 H3230 H 0.64848 0.75359 1.10746
 H3231 H 0.60851 0.66713 1.06993
 H3232 H 0.54831 0.68832 1.08540
 C3233 C 0.89706 1.22975 0.89540
 C3234 C 0.90963 1.24559 0.88851
 C3235 C 0.90075 1.26314 0.88010
 C3236 C 0.87945 1.26492 0.87862
 C3237 C 0.86713 1.24879 0.88560
 C3238 C 0.87584 1.23120 0.89399
 C3239 C 0.90628 1.21129 0.90430
 C3240 C 0.89367 1.19548 0.91118
 C3241 C 0.90247 1.17800 0.91967
 C3242 C 0.92374 1.17624 0.92137
 C3243 C 0.93619 1.19222 0.91429
 C3244 C 0.92751 1.20981 0.90575
 C3245 C 0.86373 1.21503 0.90099
 C3246 C 0.87249 1.19746 0.90944
 C3247 C 0.93082 1.24355 0.89021
 C3248 C 0.93961 1.22597 0.89868
 H3249 H 0.84733 1.21596 0.89996
 H3250 H 0.86261 1.18535 0.91468
 H3251 H 0.94071 1.25566 0.88495
 H3252 H 0.95601 1.22504 0.89972
 H3253 H 0.91045 1.27543 0.87496
 H3254 H 0.85076 1.24975 0.88438
 H3255 H 0.89278 1.16564 0.92472
 H3256 H 0.95255 1.19106 0.91567
 C3257 C 0.90033 0.73084 0.39801
 C3258 C 0.89099 0.74493 0.41112
 C3259 C 0.88240 0.76267 0.40287
 C3260 C 0.88352 0.76652 0.38177
 C3261 C 0.89320 0.75239 0.36890
 C3262 C 0.90142 0.73438 0.37691
 C3263 C 0.90902 0.71196 0.40653
 C3264 C 0.91783 0.69763 0.39336
 C3265 C 0.92568 0.67951 0.40148
 C3266 C 0.92521 0.67582 0.42269
 C3267 C 0.91656 0.69059 0.43568
 C3268 C 0.90823 0.70856 0.42766
 C3269 C 0.91054 0.71976 0.36424
 C3270 C 0.91850 0.70163 0.37231
 C3271 C 0.89044 0.74097 0.43218
 C3272 C 0.89902 0.72315 0.44032
 H3273 H 0.91142 0.72228 0.34793
 H3274 H 0.92528 0.69069 0.36199
 H3275 H 0.88335 0.75175 0.44246
 H3276 H 0.89830 0.72070 0.45665
 H3277 H 0.87511 0.77359 0.41287
 H3278 H 0.89390 0.75517 0.35261
 H3279 H 0.93184 0.66818 0.39119
 H3280 H 0.91635 0.68818 0.45203
 C3281 C 0.39552 1.22738 0.39456
 C3282 C 0.40797 1.24205 0.38527
 C3283 C 0.39903 1.25938 0.37657
 C3284 C 0.37784 1.26223 0.37742
 C3285 C 0.36559 1.24744 0.38693
 C3286 C 0.37434 1.22988 0.39538
 C3287 C 0.40482 1.20906 0.40362
 C3288 C 0.39234 1.19425 0.41262
 C3289 C 0.40123 1.17679 0.42107
 C3290 C 0.42252 1.17421 0.42094
 C3291 C 0.43480 1.18933 0.41191
 C3292 C 0.42602 1.20671 0.40311
 C3293 C 0.36236 1.21475 0.40458
 C3294 C 0.37120 1.19718 0.41297
 C3295 C 0.42912 1.23913 0.38496
 C3296 C 0.43800 1.22179 0.39380
 H3297 H 0.34600 1.21646 0.40526
 H3298 H 0.36140 1.18585 0.41988
 H3299 H 0.43890 1.25036 0.37787
 H3300 H 0.45436 1.22016 0.39328
 H3301 H 0.40860 1.27079 0.36948
 H3302 H 0.34926 1.24944 0.38748
 H3303 H 0.39154 1.16512 0.42752
 H3304 H 0.45118 1.18769 0.41191
 C3305 C 0.39768 0.72971 0.89580
 C3306 C 0.41039 0.74540 0.88883
 C3307 C 0.40166 0.76308 0.88057
 C3308 C 0.38037 0.76515 0.87928
 C3309 C 0.36790 0.74918 0.88635
 C3310 C 0.37647 0.73145 0.89460
 C3311 C 0.40676 0.71111 0.90455
 C3312 C 0.39402 0.69544 0.91152
 C3313 C 0.40270 0.67783 0.91988
 C3314 C 0.42397 0.67582 0.92139
 C3315 C 0.43653 0.69166 0.91421
 C3316 C 0.42799 0.70937 0.90579
 C3317 C 0.36422 0.71540 0.90168
 C3318 C 0.37286 0.69770 0.90999
 C3319 C 0.43157 0.74310 0.89032
 C3320 C 0.44022 0.72540 0.89866
 H3321 H 0.34783 0.71654 0.90082
 H3322 H 0.36287 0.68570 0.91529
 H3323 H 0.44155 0.75510 0.88500
 H3324 H 0.45661 0.72426 0.89953
 H3325 H 0.41148 0.77524 0.87538
 H3326 H 0.35153 0.75038 0.88529
 H3327 H 0.39291 0.66559 0.92501
 H3328 H 0.45289 0.69032 0.91545
 C3329 C 1.10192 0.77075 0.89838
 C3330 C 1.12298 0.76760 0.89972
 C3331 C 1.13137 0.74969 0.89171
 C3332 C 1.11889 0.73520 0.88206
 C3333 C 1.09783 0.73867 0.88069
 C3334 C 1.08923 0.75636 0.88900
 C3335 C 1.09301 0.78951 0.90692
 C3336 C 1.07192 0.79252 0.90588
 C3337 C 1.06351 0.81032 0.91419
 C3338 C 1.07607 0.82521 0.92318
 C3339 C 1.09726 0.82196 0.92380
 C3340 C 1.10576 0.80407 0.91590
 C3341 C 1.06820 0.75995 0.88817
 C3342 C 1.05968 0.77768 0.89656
 C3343 C 1.13524 0.78250 0.90893
 C3344 C 1.12679 0.80048 0.91679
 H3345 H 1.05823 0.74894 0.88102
 H3346 H 1.04339 0.77982 0.89564
 H3347 H 1.15152 0.78028 0.90999
 H3348 H 1.13678 0.81161 0.92370
 H3349 H 1.14762 0.74722 0.89262
 H3350 H 1.08811 0.72749 0.87344
 H3351 H 1.04719 0.81245 0.91381
 H3352 H 1.10720 0.83344 0.93021
 C3353 C 1.10087 0.26918 0.39990
 C3354 C 1.12195 0.26598 0.40060
 C3355 C 1.12998 0.24781 0.39283
 C3356 C 1.11713 0.23307 0.38409
 C3357 C 1.09604 0.23658 0.38336
 C3358 C 1.08780 0.25457 0.39141
 C3359 C 1.09235 0.28823 0.40815
 C3360 C 1.07126 0.29135 0.40771
 C3361 C 1.06324 0.30947 0.41569
 C3362 C 1.07619 0.32456 0.42378
 C3363 C 1.09735 0.32117 0.42387
 C3364 C 1.10548 0.30299 0.41626
 C3365 C 1.06677 0.25826 0.39118
 C3366 C 1.05864 0.27630 0.39928
 C3367 C 1.13459 0.28106 0.40893
 C3368 C 1.12650 0.29930 0.41654
 H3369 H 1.05652 0.24709 0.38473
 H3370 H 1.04233 0.27852 0.39883
 H3371 H 1.15088 0.27879 0.40949
 H3372 H 1.13678 0.31058 0.42277
 H3373 H 1.14625 0.24536 0.39321
 H3374 H 1.08605 0.22523 0.37679
 H3375 H 1.04693 0.31173 0.41575
 H3376 H 1.10754 0.33278 0.42961
 C3377 C 0.60193 0.77102 0.39728
 C3378 C 0.60217 0.76862 0.37601
 C3379 C 0.61059 0.75092 0.36762
 C3380 C 0.61896 0.73577 0.38031
 C3381 C 0.61869 0.73846 0.40163
 C3382 C 0.61007 0.75603 0.41021
 C3383 C 0.59307 0.78963 0.40617
 C3384 C 0.59270 0.79201 0.42745
 C3385 C 0.58423 0.80976 0.43581
 C3386 C 0.57638 0.82515 0.42302
 C3387 C 0.57705 0.82248 0.40169
 C3388 C 0.58525 0.80473 0.39320
 C3389 C 0.60942 0.75895 0.43144
 C3390 C 0.60083 0.77661 0.43991
 C3391 C 0.59412 0.78403 0.36353
 C3392 C 0.58585 0.80182 0.37198
 H3393 H 0.61561 0.74750 0.44159
 H3394 H 0.60064 0.77826 0.45636
 H3395 H 0.59427 0.78237 0.34709
 H3396 H 0.57986 0.81337 0.36182
 H3397 H 0.61097 0.74916 0.35119
 H3398 H 0.62495 0.72682 0.41153
 H3399 H 0.58362 0.81152 0.45223
 H3400 H 0.57147 0.83436 0.39165
 C3401 C 0.60192 0.26923 0.89808
 C3402 C 0.60385 0.26737 0.87683
 C3403 C 0.61251 0.24964 0.86865
 C3404 C 0.61927 0.23383 0.88155
 C3405 C 0.61720 0.23603 0.90285
 C3406 C 0.60852 0.25368 0.91118
 C3407 C 0.59284 0.28786 0.90677
 C3408 C 0.59093 0.28973 0.92802
 C3409 C 0.58237 0.30751 0.93621
 C3410 C 0.57579 0.32337 0.92330
 C3411 C 0.57782 0.32118 0.90200
 C3412 C 0.58632 0.30346 0.89366
 C3413 C 0.60630 0.25608 0.93237
 C3414 C 0.59765 0.27379 0.94064
 C3415 C 0.59713 0.28332 0.86420
 C3416 C 0.58854 0.30106 0.87247
 H3417 H 0.61132 0.24417 0.94266
 H3418 H 0.59625 0.27503 0.95707
 H3419 H 0.59856 0.28209 0.84778
 H3420 H 0.58358 0.31299 0.86219
 H3421 H 0.61415 0.24832 0.85227
 H3422 H 0.62212 0.22398 0.91299
 H3423 H 0.58068 0.30894 0.95259
 H3424 H 0.57312 0.33341 0.89194
 C3425 C 0.89635 0.77087 1.10234
 C3426 C 0.87521 0.76805 1.10172
 C3427 C 0.86684 0.75025 1.11001
 C3428 C 0.87943 0.73551 1.11917
 C3429 C 0.90058 0.73865 1.11977
 C3430 C 0.90914 0.75625 1.11123
 C3431 C 0.90525 0.78952 1.09356
 C3432 C 0.92640 0.79223 1.09395
 C3433 C 0.93479 0.80998 1.08552
 C3434 C 0.92215 0.82511 1.07702
 C3435 C 0.90093 0.82213 1.07693
 C3436 C 0.89242 0.80431 1.08501
 C3437 C 0.93024 0.75951 1.11138
 C3438 C 0.93873 0.77716 1.10281
 C3439 C 0.86288 0.78316 1.09293
 C3440 C 0.87133 0.80102 1.08480
 H3441 H 0.94027 0.74831 1.11815
 H3442 H 0.95507 0.77907 1.10322
 H3443 H 0.84655 0.78119 1.09241
 H3444 H 0.86128 0.81233 1.07823
 H3445 H 0.85053 0.74804 1.10967
 H3446 H 0.91040 0.72729 1.12659
 H3447 H 0.95113 0.81192 1.08546
 H3448 H 0.89098 0.83380 1.07085
 C3449 C 0.89733 0.27030 0.60253
 C3450 C 0.91017 0.25464 0.60934
 C3451 C 0.90159 0.23695 0.61774
 C3452 C 0.88033 0.23485 0.61930
 C3453 C 0.86772 0.25077 0.61236
 C3454 C 0.87614 0.26852 0.60400
 C3455 C 0.90625 0.28894 0.59372
 C3456 C 0.89339 0.30462 0.58698
 C3457 C 0.90191 0.32233 0.57867
 C3458 C 0.92316 0.32443 0.57699
 C3459 C 0.93584 0.30854 0.58385
 C3460 C 0.92745 0.29075 0.59223
 C3461 C 0.86377 0.28455 0.59710
 C3462 C 0.87225 0.30230 0.58875
 C3463 C 0.93132 0.25699 0.60759
 C3464 C 0.93981 0.27473 0.59917
 H3465 H 0.84739 0.28336 0.59817
 H3466 H 0.86217 0.31430 0.58362
 H3467 H 0.94140 0.24501 0.61277
 H3468 H 0.95620 0.27592 0.59811
 H3469 H 0.91149 0.22480 0.62283
 H3470 H 0.85138 0.24954 0.61365
 H3471 H 0.89203 0.33460 0.57380
 H3472 H 0.95219 0.30994 0.58247
 C3473 C 0.39844 0.76941 0.60210
 C3474 C 0.37729 0.76665 0.60193
 C3475 C 0.36907 0.74866 0.60995
 C3476 C 0.38182 0.73359 0.61834
 C3477 C 0.40300 0.73668 0.61851
 C3478 C 0.41141 0.75452 0.61028
 C3479 C 0.40717 0.78827 0.59357
 C3480 C 0.42833 0.79095 0.59353
 C3481 C 0.43655 0.80888 0.58529
 C3482 C 0.42374 0.82416 0.57732
 C3483 C 0.40252 0.82121 0.57769
 C3484 C 0.39418 0.80326 0.58565
 C3485 C 0.43251 0.75777 0.61003
 C3486 C 0.44083 0.77565 0.60174
 C3487 C 0.36479 0.78199 0.59382
 C3488 C 0.37308 0.80001 0.58588
 H3489 H 0.44268 0.74638 0.61626
 H3490 H 0.45718 0.77753 0.60181
 H3491 H 0.34844 0.78006 0.59365
 H3492 H 0.36290 0.81148 0.57981
 H3493 H 0.35275 0.74656 0.60996
 H3494 H 0.41296 0.72510 0.62475
 H3495 H 0.45289 0.81084 0.58490
 H3496 H 0.39245 0.83298 0.57202
 C3497 C 0.39720 0.27009 1.10375
 C3498 C 0.41034 0.25477 1.11072
 C3499 C 0.40212 0.23677 1.11876
 C3500 C 0.38090 0.23399 1.11980
 C3501 C 0.36796 0.24955 1.11266
 C3502 C 0.37604 0.26765 1.10467
 C3503 C 0.40578 0.28907 1.09532
 C3504 C 0.39264 0.30443 1.08841
 C3505 C 0.40086 0.32245 1.08043
 C3506 C 0.42208 0.32515 1.07925
 C3507 C 0.43503 0.30955 1.08627
 C3508 C 0.42695 0.29149 1.09434
 C3509 C 0.36337 0.28338 1.09761
 C3510 C 0.37153 0.30147 1.08964
 C3511 C 0.43145 0.25774 1.10950
 C3512 C 0.43961 0.27578 1.10143
 H3513 H 0.34701 0.28170 1.09826
 H3514 H 0.36123 0.31321 1.08437
 H3515 H 0.44175 0.24601 1.11482
 H3516 H 0.45597 0.27745 1.10076
 H3517 H 0.41229 0.22489 1.12396
 H3518 H 0.35164 0.24773 1.11353
 H3519 H 0.39075 0.33447 1.07540
 H3520 H 0.45136 0.31137 1.08523
 C3521 C 1.10149 1.10177 0.76859
 C3522 C 1.11287 1.08932 0.75550
 C3523 C 1.12135 1.09777 0.73777
 C3524 C 1.11792 1.11840 0.73264
 C3525 C 1.10596 1.13048 0.74584
 C3526 C 1.09810 1.12236 0.76399
 C3527 C 1.09303 1.09311 0.78755
 C3528 C 1.08240 1.10578 0.80105
 C3529 C 1.07483 1.09762 0.81928
 C3530 C 1.07708 1.07669 0.82381
 C3531 C 1.08753 1.06416 0.80978
 C3532 C 1.09583 1.07236 0.79185
 C3533 C 1.08712 1.13450 0.77776
 C3534 C 1.07958 1.12640 0.79607
 C3535 C 1.11551 1.06864 0.76039
 C3536 C 1.10697 1.06026 0.77816
 H3537 H 1.08449 1.15046 0.77445
 H3538 H 1.07135 1.13634 0.80635
 H3539 H 1.12418 1.05882 0.75037
 H3540 H 1.10930 1.04423 0.78130
 H3541 H 1.13013 1.08803 0.72778
 H3542 H 1.10334 1.14642 0.74254
 H3543 H 1.06743 1.10772 0.83000
 H3544 H 1.08914 1.04800 0.81267
 C3545 C 1.10319 0.60378 0.26926
 C3546 C 1.11334 0.59123 0.25529
 C3547 C 1.12212 0.59994 0.23786
 C3548 C 1.12049 0.62108 0.23400
 C3549 C 1.10985 0.63333 0.24814
 C3550 C 1.10145 0.62481 0.26589
 C3551 C 1.09430 0.59473 0.28784
 C3552 C 1.08465 0.60736 0.30210
 C3553 C 1.07656 0.59874 0.31991
 C3554 C 1.07761 0.57753 0.32335
 C3555 C 1.08716 0.56509 0.30866
 C3556 C 1.09572 0.57363 0.29102
 C3557 C 1.09149 0.63694 0.28044
 C3558 C 1.08335 0.62839 0.29830
 C3559 C 1.11452 0.57018 0.25902
 C3560 C 1.10576 0.56151 0.27652
 H3561 H 1.09010 0.65321 0.27808
 H3562 H 1.07592 0.63831 0.30918
 H3563 H 1.12225 0.56030 0.24831
 H3564 H 1.10698 0.54521 0.27879
 H3565 H 1.12983 0.59002 0.22720
 H3566 H 1.10851 0.64959 0.24580
 H3567 H 1.06972 0.60865 0.33120
 H3568 H 1.08784 0.54875 0.31085
 C3569 C 0.60189 1.10199 0.26876
 C3570 C 0.61258 1.08947 0.25515
 C3571 C 0.62135 1.09811 0.23766
 C3572 C 0.61904 1.11910 0.23337
 C3573 C 0.60782 1.13127 0.24713
 C3574 C 0.59954 1.12287 0.26495
 C3575 C 0.59310 1.09308 0.28744
 C3576 C 0.58306 1.10575 0.30140
 C3577 C 0.57515 1.09732 0.31935
 C3578 C 0.57663 1.07621 0.32321
 C3579 C 0.58652 1.06369 0.30879
 C3580 C 0.59503 1.07210 0.29105
 C3581 C 0.58916 1.13503 0.27917
 C3582 C 0.58120 1.12664 0.29716
 C3583 C 0.61428 1.06853 0.25932
 C3584 C 0.60552 1.05997 0.27688
 H3585 H 0.58731 1.15120 0.27645
 H3586 H 0.57344 1.13658 0.30780
 H3587 H 0.62241 1.05867 0.24889
 H3588 H 0.60715 1.04376 0.27948
 H3589 H 0.62954 1.08829 0.22728
 H3590 H 0.60602 1.14744 0.24449
 H3591 H 0.56812 1.10732 0.33042
 H3592 H 0.58755 1.04742 0.31127
 C3593 C 0.60208 0.60096 0.76980
 C3594 C 0.61111 0.58807 0.75533
 C3595 C 0.61944 0.59655 0.73755
 C3596 C 0.61843 0.61769 0.73406
 C3597 C 0.60910 0.63036 0.74863
 C3598 C 0.60108 0.62210 0.76664
 C3599 C 0.59354 0.59218 0.78866
 C3600 C 0.58491 0.60513 0.80331
 C3601 C 0.57702 0.59675 0.82130
 C3602 C 0.57728 0.57551 0.82458
 C3603 C 0.58593 0.56274 0.80960
 C3604 C 0.59423 0.57102 0.79170
 C3605 C 0.59222 0.63455 0.78161
 C3606 C 0.58436 0.62621 0.79968
 C3607 C 0.61160 0.56698 0.75895
 C3608 C 0.60321 0.55859 0.77678
 H3609 H 0.59142 0.65088 0.77938
 H3610 H 0.57772 0.63636 0.81088
 H3611 H 0.61848 0.55686 0.74787
 H3612 H 0.60386 0.54224 0.77893
 H3613 H 0.62644 0.58669 0.72632
 H3614 H 0.60848 0.64667 0.74617
 H3615 H 0.57089 0.60684 0.83283
 H3616 H 0.58603 0.54638 0.81176
 C3617 C 0.89968 0.90013 0.76832
 C3618 C 0.90048 0.87901 0.76510
 C3619 C 0.89277 0.87094 0.74689
 C3620 C 0.88399 0.88379 0.73211
 C3621 C 0.88321 0.90494 0.73563
 C3622 C 0.89118 0.91322 0.75367
 C3623 C 0.90781 0.90870 0.78744
 C3624 C 0.90725 0.92984 0.79058
 C3625 C 0.91514 0.93790 0.80876
 C3626 C 0.92330 0.92495 0.82386
 C3627 C 0.92346 0.90373 0.82046
 C3628 C 0.91592 0.89556 0.80224
 C3629 C 0.89083 0.93429 0.75737
 C3630 C 0.89880 0.94247 0.77548
 C3631 C 0.90882 0.86637 0.78024
 C3632 C 0.91633 0.87450 0.79853
 H3633 H 0.88436 0.94456 0.74617
 H3634 H 0.89826 0.95880 0.77771
 H3635 H 0.90946 0.85004 0.77796
 H3636 H 0.92257 0.86421 0.80984
 H3637 H 0.89321 0.85463 0.74445
 H3638 H 0.87662 0.91494 0.72427
 H3639 H 0.91512 0.95425 0.81103
 H3640 H 0.92924 0.89352 0.83208
 C3641 C 0.89743 0.39668 0.26945
 C3642 C 0.87644 0.39789 0.26601
 C3643 C 0.86832 0.38969 0.24804
 C3644 C 0.88093 0.37988 0.23359
 C3645 C 0.90199 0.37852 0.23762
 C3646 C 0.91031 0.38712 0.25535
 C3647 C 0.90608 0.40562 0.28817
 C3648 C 0.92713 0.40483 0.29142
 C3649 C 0.93529 0.41354 0.30916
 C3650 C 0.92250 0.42260 0.32388
 C3651 C 0.90135 0.42301 0.32037
 C3652 C 0.89311 0.41477 0.30248
 C3653 C 0.93131 0.38650 0.25920
 C3654 C 0.93959 0.39531 0.27686
 C3655 C 0.86395 0.40726 0.28064
 C3656 C 0.87213 0.41545 0.29862
 H3657 H 0.94146 0.37923 0.24841
 H3658 H 0.95587 0.39456 0.27918
 H3659 H 0.84771 0.40823 0.27820
 H3660 H 0.86195 0.42248 0.30953
 H3661 H 0.85209 0.39069 0.24567
 H3662 H 0.91212 0.37132 0.22681
 H3663 H 0.95159 0.41336 0.31140
 H3664 H 0.89122 0.42946 0.33167
 C3665 C 0.39866 0.89872 0.26850
 C3666 C 0.37780 0.90054 0.26463
 C3667 C 0.36980 0.89253 0.24655
 C3668 C 0.38236 0.88219 0.23244
 C3669 C 0.40329 0.88019 0.23687
 C3670 C 0.41153 0.88870 0.25470
 C3671 C 0.40717 0.90745 0.28739
 C3672 C 0.42812 0.90611 0.29105
 C3673 C 0.43614 0.91461 0.30896
 C3674 C 0.42329 0.92393 0.32348
 C3675 C 0.40224 0.92487 0.31954
 C3676 C 0.39416 0.91693 0.30144
 C3677 C 0.43243 0.88752 0.25897
 C3678 C 0.44060 0.89620 0.27676
 C3679 C 0.36528 0.91028 0.27899
 C3680 C 0.37330 0.91820 0.29715
 H3681 H 0.44258 0.87991 0.24843
 H3682 H 0.45680 0.89502 0.27941
 H3683 H 0.34911 0.91170 0.27622
 H3684 H 0.36309 0.92549 0.30787
 H3685 H 0.35365 0.89399 0.24389
 H3686 H 0.41335 0.87256 0.22628
 H3687 H 0.45239 0.91403 0.31150
 H3688 H 0.39201 0.93149 0.33065
 C3689 C 0.39890 0.39851 0.76936
 C3690 C 0.37780 0.39841 0.76632
 C3691 C 0.36993 0.39030 0.74821
 C3692 C 0.38297 0.38213 0.73325
 C3693 C 0.40409 0.38210 0.73666
 C3694 C 0.41216 0.39043 0.75465
 C3695 C 0.40725 0.40724 0.78832
 C3696 C 0.42836 0.40755 0.79130
 C3697 C 0.43621 0.41591 0.80935
 C3698 C 0.42310 0.42367 0.82450
 C3699 C 0.40194 0.42314 0.82120
 C3700 C 0.39395 0.41506 0.80311
 C3701 C 0.43320 0.39097 0.75821
 C3702 C 0.44117 0.39945 0.77618
 C3703 C 0.36498 0.40643 0.78145
 C3704 C 0.37292 0.41455 0.79957
 H3705 H 0.44362 0.38485 0.74698
 H3706 H 0.45749 0.39958 0.77830
 H3707 H 0.34866 0.40640 0.77929
 H3708 H 0.36250 0.42053 0.81087
 H3709 H 0.35364 0.39014 0.74590
 H3710 H 0.41425 0.37598 0.72519
 H3711 H 0.45252 0.41646 0.81154
 H3712 H 0.39165 0.42868 0.83284
 C3713 C 1.09968 0.89841 1.23237
 C3714 C 1.10959 0.91135 1.24621
 C3715 C 1.11804 0.90307 1.26402
 C3716 C 1.11622 0.88212 1.26821
 C3717 C 1.10594 0.86941 1.25435
 C3718 C 1.09787 0.87745 1.23624
 C3719 C 1.09116 0.90696 1.21340
 C3720 C 1.08181 0.89394 1.19928
 C3721 C 1.07410 0.90208 1.18108
 C3722 C 1.07522 0.92319 1.17710
 C3723 C 1.08443 0.93603 1.19167
 C3724 C 1.09264 0.92796 1.20970
 C3725 C 1.08821 0.86493 1.22183
 C3726 C 1.08043 0.87302 1.20360
 C3727 C 1.11084 0.93228 1.24195
 C3728 C 1.10240 0.94047 1.22406
 H3729 H 1.08677 0.84873 1.22460
 H3730 H 1.07322 0.86281 1.19283
 H3731 H 1.11838 0.94243 1.25254
 H3732 H 1.10367 0.95670 1.22138
 H3733 H 1.12579 0.91294 1.27473
 H3734 H 1.10468 0.85324 1.25742
 H3735 H 1.06751 0.89188 1.16991
 H3736 H 1.08514 0.95231 1.18908
 C3737 C 1.10315 0.39537 0.72946
 C3738 C 1.11148 0.40810 0.74446
 C3739 C 1.12048 0.39936 0.76176
 C3740 C 1.12105 0.37803 0.76420
 C3741 C 1.11240 0.36550 0.74909
 C3742 C 1.10354 0.37409 0.73161
 C3743 C 1.09395 0.40449 0.71108
 C3744 C 1.08591 0.39175 0.69592
 C3745 C 1.07744 0.40049 0.67835
 C3746 C 1.07678 0.42183 0.67593
 C3747 C 1.08480 0.43436 0.69141
 C3748 C 1.09350 0.42577 0.70896
 C3749 C 1.09523 0.36185 0.71616
 C3750 C 1.08661 0.37052 0.69859
 C3751 C 1.11070 0.42933 0.74183
 C3752 C 1.10182 0.43802 0.72441
 H3753 H 1.09546 0.34541 0.71760
 H3754 H 1.08045 0.36053 0.68699
 H3755 H 1.11705 0.43932 0.75333
 H3756 H 1.10156 0.45445 0.72297
 H3757 H 1.12685 0.40917 0.77338
 H3758 H 1.11291 0.34908 0.75070
 H3759 H 1.07168 0.39065 0.66641
 H3760 H 1.08418 0.45078 0.68986
 C3761 C 0.60043 0.89911 0.73184
 C3762 C 0.60944 0.91213 0.74620
 C3763 C 0.61795 0.90379 0.76396
 C3764 C 0.61714 0.88265 0.76751
 C3765 C 0.60782 0.86986 0.75307
 C3766 C 0.59962 0.87799 0.73509
 C3767 C 0.59177 0.90775 0.71297
 C3768 C 0.58321 0.89468 0.69840
 C3769 C 0.57532 0.90292 0.68034
 C3770 C 0.57557 0.92413 0.67692
 C3771 C 0.58405 0.93702 0.69187
 C3772 C 0.59234 0.92889 0.70983
 C3773 C 0.59077 0.86541 0.72021
 C3774 C 0.58280 0.87361 0.70213
 C3775 C 0.60976 0.93321 0.74251
 C3776 C 0.60127 0.94146 0.72467
 H3777 H 0.59011 0.84908 0.72252
 H3778 H 0.57621 0.86337 0.69099
 H3779 H 0.61662 0.94342 0.75350
 H3780 H 0.60182 0.95780 0.72242
 H3781 H 0.62495 0.91374 0.77510
 H3782 H 0.60735 0.85355 0.75560
 H3783 H 0.56929 0.89274 0.66884
 H3784 H 0.58410 0.95337 0.68961
 C3785 C 0.59869 0.39995 1.23395
 C3786 C 0.59543 0.37935 1.23857
 C3787 C 0.60326 0.37132 1.25675
 C3788 C 0.61501 0.38350 1.27004
 C3789 C 0.61825 0.40417 1.26495
 C3790 C 0.60987 0.41252 1.24711
 C3791 C 0.59036 0.40848 1.21488
 C3792 C 0.59314 0.42920 1.21048
 C3793 C 0.58502 0.43725 1.19239
 C3794 C 0.57473 0.42459 1.17837
 C3795 C 0.57245 0.40371 1.18302
 C3796 C 0.57990 0.39568 1.20136
 C3797 C 0.61244 0.43319 1.24214
 C3798 C 0.60407 0.44142 1.22422
 C3799 C 0.58463 0.36709 1.22477
 C3800 C 0.57715 0.37507 1.20639
 H3801 H 0.62095 0.44310 1.25220
 H3802 H 0.60637 0.45745 1.22101
 H3803 H 0.58209 0.35113 1.22812
 H3804 H 0.56906 0.36505 1.19609
 H3805 H 0.60075 0.35536 1.25999
 H3806 H 0.62689 0.41398 1.27498
 H3807 H 0.58665 0.45338 1.18934
 H3808 H 0.56515 0.39354 1.17230
 C3809 C 0.89504 1.10487 1.22817
 C3810 C 0.88717 1.09201 1.24336
 C3811 C 0.87810 1.10063 1.26071
 C3812 C 0.87703 1.12194 1.26298
 C3813 C 0.88500 1.13458 1.24754
 C3814 C 0.89398 1.12613 1.23010
 C3815 C 0.90458 1.09592 1.20990
 C3816 C 0.91232 1.10881 1.19467
 C3817 C 0.92121 1.10023 1.17725
 C3818 C 0.92248 1.07892 1.17501
 C3819 C 0.91472 1.06623 1.19053
 C3820 C 0.90570 1.07466 1.20798
 C3821 C 0.90192 1.13853 1.21454
 C3822 C 0.91090 1.13001 1.19711
 C3823 C 0.88859 1.07080 1.24090
 C3824 C 0.89772 1.06227 1.22353
 H3825 H 0.90116 1.15496 1.21584
 H3826 H 0.91681 1.14011 1.18545
 H3827 H 0.88260 1.06070 1.25251
 H3828 H 0.89849 1.04584 1.22223
 H3829 H 0.87220 1.09073 1.27252
 H3830 H 0.88407 1.15098 1.24893
 H3831 H 0.92679 1.11015 1.16527
 H3832 H 0.91581 1.04983 1.18906
 C3833 C 0.89853 0.60167 0.73122
 C3834 C 0.89971 0.62274 0.73467
 C3835 C 0.89164 0.63082 0.75273
 C3836 C 0.88207 0.61803 0.76705
 C3837 C 0.88087 0.59696 0.76327
 C3838 C 0.88926 0.58866 0.74545
 C3839 C 0.90708 0.59308 0.71229
 C3840 C 0.90619 0.57198 0.70898
 C3841 C 0.91444 0.56388 0.69100
 C3842 C 0.92320 0.57676 0.67617
 C3843 C 0.92374 0.59795 0.67975
 C3844 C 0.91591 0.60614 0.69785
 C3845 C 0.88859 0.56763 0.74157
 C3846 C 0.89700 0.55942 0.72369
 C3847 C 0.90881 0.63531 0.71992
 C3848 C 0.91667 0.62717 0.70177
 H3849 H 0.88153 0.55742 0.75246
 H3850 H 0.89620 0.54311 0.72131
 H3851 H 0.90976 0.65160 0.72237
 H3852 H 0.92346 0.63741 0.69074
 H3853 H 0.89242 0.64708 0.75544
 H3854 H 0.87368 0.58701 0.77432
 H3855 H 0.91416 0.54755 0.68865
 H3856 H 0.92998 0.60813 0.66836
 C3857 C 0.39820 1.10114 0.73092
 C3858 C 0.39042 1.08802 0.74593
 C3859 C 0.38225 1.09631 0.76387
 C3860 C 0.38206 1.11756 0.76691
 C3861 C 0.38997 1.13046 0.75168
 C3862 C 0.39798 1.12234 0.73363
 C3863 C 0.40673 1.09254 0.71200
 C3864 C 0.41432 1.10570 0.69694
 C3865 C 0.42233 1.09748 0.67894
 C3866 C 0.42301 1.07623 0.67599
 C3867 C 0.41535 1.06324 0.69132
 C3868 C 0.40712 1.07133 0.70933
 C3869 C 0.40572 1.13502 0.71821
 C3870 C 0.41371 1.12684 0.70014
 C3871 C 0.39103 1.06687 0.74269
 C3872 C 0.39928 1.05867 0.72472
 H3873 H 0.40559 1.15141 0.72011
 H3874 H 0.41951 1.13715 0.68862
 H3875 H 0.38510 1.05657 0.75416
 H3876 H 0.39948 1.04228 0.72285
 H3877 H 0.37635 1.08624 0.77555
 H3878 H 0.38966 1.14682 0.75370
 H3879 H 0.42778 1.10765 0.66712
 H3880 H 0.41598 1.04687 0.68933
 C3881 C 0.40114 0.59912 1.23413
 C3882 C 0.39270 0.58556 1.24837
 C3883 C 0.38480 0.59322 1.26671
 C3884 C 0.38560 0.61424 1.27094
 C3885 C 0.39423 0.62758 1.25651
 C3886 C 0.40190 0.62012 1.23802
 C3887 C 0.40931 0.59118 1.21475
 C3888 C 0.41745 0.60479 1.20039
 C3889 C 0.42499 0.59721 1.18189
 C3890 C 0.42473 0.57613 1.17778
 C3891 C 0.41665 0.56270 1.19251
 C3892 C 0.40879 0.57016 1.21094
 C3893 C 0.41024 0.63325 1.22331
 C3894 C 0.41782 0.62573 1.20478
 C3895 C 0.39240 0.56461 1.24400
 C3896 C 0.40038 0.55704 1.22563
 H3897 H 0.41088 0.64950 1.22612
 H3898 H 0.42407 0.63638 1.19382
 H3899 H 0.38598 0.55398 1.25487
 H3900 H 0.39987 0.54078 1.22288
 H3901 H 0.37836 0.58282 1.27780
 H3902 H 0.39470 0.64380 1.25950
 H3903 H 0.43078 0.60778 1.17060
 H3904 H 0.41661 0.54644 1.18971
 C3905 C 1.10364 1.22968 0.89664
 C3906 C 1.10224 1.23317 0.87557
 C3907 C 1.11053 1.25105 0.86732
 C3908 C 1.12073 1.26526 0.87987
 C3909 C 1.12203 1.26130 0.90105
 C3910 C 1.11335 1.24369 0.90949
 C3911 C 1.09486 1.21094 0.90540
 C3912 C 1.09593 1.20762 0.92653
 C3913 C 1.08745 1.18982 0.93478
 C3914 C 1.07833 1.17513 0.92202
 C3915 C 1.07765 1.17871 0.90079
 C3916 C 1.08566 1.19666 0.89245
 C3917 C 1.11419 1.23982 0.93057
 C3918 C 1.10553 1.22215 0.93896
 C3919 C 1.09273 1.21860 0.86312
 C3920 C 1.08469 1.20060 0.87140
 H3921 H 1.12157 1.25055 0.94069
 H3922 H 1.10648 1.21977 0.95529
 H3923 H 1.09160 1.22106 0.84682
 H3924 H 1.07760 1.18971 0.86124
 H3925 H 1.10945 1.25343 0.85102
 H3926 H 1.12943 1.27199 0.91116
 H3927 H 1.08785 1.18751 0.95114
 H3928 H 1.07115 1.16744 0.89066
 C3929 C 1.10299 0.72884 0.39637
 C3930 C 1.09038 0.74247 0.38581
 C3931 C 1.09881 0.76017 0.37731
 C3932 C 1.11966 0.76471 0.37987
 C3933 C 1.13198 0.75080 0.39074
 C3934 C 1.12379 0.73277 0.39873
 C3935 C 1.09424 0.71009 0.40514
 C3936 C 1.10698 0.69619 0.41517
 C3937 C 1.09866 0.67825 0.42321
 C3938 C 1.07760 0.67437 0.42184
 C3939 C 1.06504 0.68873 0.41194
 C3940 C 1.07332 0.70645 0.40331
 C3941 C 1.13605 0.71855 0.40901
 C3942 C 1.12781 0.70049 0.41695
 C3943 C 1.06952 0.73820 0.38413
 C3944 C 1.06112 0.72057 0.39286
 H3945 H 1.15216 0.72135 0.41086
 H3946 H 1.13781 0.68988 0.42467
 H3947 H 1.05959 0.74863 0.37609
 H3948 H 1.04495 0.71793 0.39130
 H3949 H 1.08890 0.77062 0.36931
 H3950 H 1.14807 0.75359 0.39264
 H3951 H 1.10868 0.66723 0.43027
 H3952 H 1.04880 0.68626 0.41102
 C3953 C 0.60460 1.22721 0.39473
 C3954 C 0.59239 1.24052 0.38334
 C3955 C 0.60120 1.25780 0.37440
 C3956 C 0.62200 1.26229 0.37735
 C3957 C 0.63391 1.24877 0.38912
 C3958 C 0.62537 1.23108 0.39753
 C3959 C 0.59545 1.20885 0.40391
 C3960 C 0.60781 1.19518 0.41470
 C3961 C 0.59912 1.17755 0.42305
 C3962 C 0.57806 1.17382 0.42131
 C3963 C 0.56588 1.18801 0.41068
 C3964 C 0.57455 1.20533 0.40168
 C3965 C 0.63722 1.21711 0.40860
 C3966 C 0.62862 1.19938 0.41689
 C3967 C 0.57154 1.23639 0.38127
 C3968 C 0.56274 1.21919 0.39043
 H3969 H 0.65330 1.21986 0.41079
 H3970 H 0.63832 1.18895 0.42521
 H3971 H 0.56192 1.24660 0.37260
 H3972 H 0.54659 1.21663 0.38855
 H3973 H 0.59157 1.26800 0.36575
 H3974 H 0.64996 1.25157 0.39136
 H3975 H 0.60890 1.16667 0.43065
 H3976 H 0.54964 1.18570 0.40947
 C3977 C 0.60253 0.72995 0.89840
 C3978 C 0.58965 0.74431 0.88919
 C3979 C 0.59805 0.76214 0.88094
 C3980 C 0.61908 0.76580 0.88225
 C3981 C 0.63174 0.75133 0.89173
 C3982 C 0.62357 0.73327 0.89965
 C3983 C 0.59384 0.71106 0.90687
 C3984 C 0.60677 0.69652 0.91568
 C3985 C 0.59847 0.67848 0.92348
 C3986 C 0.57732 0.67505 0.92294
 C3987 C 0.56457 0.68995 0.91418
 C3988 C 0.57277 0.70789 0.90596
 C3989 C 0.63601 0.71841 0.90869
 C3990 C 0.62776 0.70029 0.91647
 C3991 C 0.56865 0.74056 0.88846
 C3992 C 0.56034 0.72270 0.89680
 H3993 H 0.65227 0.72076 0.90968
 H3994 H 0.63790 0.68919 0.92325
 H3995 H 0.55854 0.75154 0.88145
 H3996 H 0.54406 0.72043 0.89597
 H3997 H 0.58820 0.77330 0.87382
 H3998 H 0.64797 0.75395 0.89258
 H3999 H 0.60855 0.66702 0.92973
 H4000 H 0.54827 0.68770 0.91390
 C4001 C 0.90124 1.23254 1.10120
 C4002 C 0.91438 1.24740 1.10913
 C4003 C 0.90619 1.26550 1.11704
 C4004 C 0.88505 1.26885 1.11674
 C4005 C 0.87213 1.25373 1.10874
 C4006 C 0.88013 1.23553 1.10104
 C4007 C 0.90972 1.21351 1.09283
 C4008 C 0.89653 1.19861 1.08508
 C4009 C 0.90463 1.18054 1.07719
 C4010 C 0.92581 1.17734 1.07673
 C4011 C 0.93883 1.19250 1.08457
 C4012 C 0.93085 1.21058 1.09272
 C4013 C 0.86742 1.22026 1.09316
 C4014 C 0.87548 1.20208 1.08538
 C4015 C 0.93544 1.24389 1.10885
 C4016 C 0.94354 1.22582 1.10074
 H4017 H 0.85110 1.22238 1.09302
 H4018 H 0.86515 1.19069 1.07945
 H4019 H 0.94577 1.25523 1.11489
 H4020 H 0.95987 1.22375 1.10077
 H4021 H 0.91625 1.27710 1.12304
 H4022 H 0.85583 1.25598 1.10870
 H4023 H 0.89441 1.16885 1.07164
 H4024 H 0.95514 1.19034 1.08413
 C4025 C 0.89658 0.72799 0.60417
 C4026 C 0.87543 0.73070 0.60358
 C4027 C 0.86694 0.74831 0.61216
 C4028 C 0.87941 0.76298 0.62155
 C4029 C 0.90058 0.75990 0.62221
 C4030 C 0.90927 0.74250 0.61338
 C4031 C 0.90561 0.70961 0.59495
 C4032 C 0.92678 0.70704 0.59526
 C4033 C 0.93529 0.68957 0.58638
 C4034 C 0.92277 0.67455 0.57751
 C4035 C 0.90152 0.67741 0.57751
 C4036 C 0.89289 0.69496 0.58604
 C4037 C 0.93038 0.73936 0.61346
 C4038 C 0.93900 0.72197 0.60448
 C4039 C 0.86320 0.71573 0.59445
 C4040 C 0.87178 0.69811 0.58592
 H4041 H 0.94035 0.75046 0.62047
 H4042 H 0.95535 0.72016 0.60484
 H4043 H 0.84686 0.71761 0.59395
 H4044 H 0.86180 0.68691 0.57909
 H4045 H 0.85062 0.75044 0.61177
 H4046 H 0.91032 0.77121 0.62922
 H4047 H 0.95165 0.68775 0.58626
 H4048 H 0.89164 0.66584 0.57116
 C4049 C 0.39744 1.22959 0.60448
 C4050 C 0.41012 1.24347 0.61458
 C4051 C 0.40162 1.26103 0.62333
 C4052 C 0.38059 1.26511 0.62158
 C4053 C 0.36819 1.25086 0.61124
 C4054 C 0.37649 1.23307 0.60288
 C4055 C 0.40628 1.21105 0.59536
 C4056 C 0.39351 1.19695 0.58566
 C4057 C 0.40192 1.17923 0.57726
 C4058 C 0.42306 1.17568 0.57805
 C4059 C 0.43565 1.19020 0.58766
 C4060 C 0.42731 1.20777 0.59653
 C4061 C 0.36420 1.21865 0.59296
 C4062 C 0.37255 1.20084 0.58460
 C4063 C 0.43110 1.23960 0.61557
 C4064 C 0.43956 1.22212 0.60660
 H4065 H 0.34798 1.22111 0.59169
 H4066 H 0.36252 1.19009 0.57715
 H4067 H 0.44109 1.25022 0.62326
 H4068 H 0.45582 1.21977 0.60766
 H4069 H 0.41159 1.27169 0.63095
 H4070 H 0.35199 1.25326 0.60993
 H4071 H 0.39192 1.16808 0.57039
 H4072 H 0.45194 1.18794 0.58816
 C4073 C 0.39846 0.73059 1.10434
 C4074 C 0.37749 0.73398 1.10283
 C4075 C 0.36919 0.75183 1.11103
 C4076 C 0.38159 0.76626 1.12111
 C4077 C 0.40264 0.76228 1.12278
 C4078 C 0.41116 0.74463 1.11420
 C4079 C 0.40729 0.71197 1.09538
 C4080 C 0.42834 0.70875 1.09648
 C4081 C 0.43666 0.69111 1.08773
 C4082 C 0.42405 0.67650 1.07829
 C4083 C 0.40290 0.67998 1.07760
 C4084 C 0.39450 0.69775 1.08590
 C4085 C 0.43215 0.74081 1.11513
 C4086 C 0.44061 0.72324 1.10632
 C4087 C 0.36518 0.71942 1.09315
 C4088 C 0.37352 0.70155 1.08493
 H4089 H 0.44216 0.75155 1.12263
 H4090 H 0.45687 0.72094 1.10732
 H4091 H 0.34894 0.72182 1.09195
 H4092 H 0.36348 0.69070 1.07765
 H4093 H 0.35297 0.75413 1.10979
 H4094 H 0.41261 0.77307 1.13022
 H4095 H 0.45296 0.68885 1.08817
 H4096 H 0.39289 0.66875 1.07087
 C4097 C 0.89757 0.77040 0.89815
 C4098 C 0.91047 0.75596 0.88911
 C4099 C 0.90207 0.73811 0.88090
 C4100 C 0.88101 0.73453 0.88207
 C4101 C 0.86833 0.74909 0.89136
 C4102 C 0.87652 0.76716 0.89925
 C4103 C 0.90628 0.78929 0.90661
 C4104 C 0.89334 0.80389 0.91528
 C4105 C 0.90165 0.82191 0.92310
 C4106 C 0.92282 0.82527 0.92271
 C4107 C 0.93557 0.81031 0.91406
 C4108 C 0.92736 0.79239 0.90583
 C4109 C 0.86407 0.78209 0.90814
 C4110 C 0.87232 0.80019 0.91592
 C4111 C 0.93149 0.75964 0.88852
 C4112 C 0.93980 0.77750 0.89683
 H4113 H 0.84779 0.77980 0.90902
 H4114 H 0.86218 0.81135 0.92259
 H4115 H 0.94161 0.74859 0.88164
 H4116 H 0.95610 0.77971 0.89611
 H4117 H 0.91194 0.72688 0.87394
 H4118 H 0.85209 0.74655 0.89211
 H4119 H 0.89156 0.83340 0.92926
 H4120 H 0.95188 0.81250 0.91388
 C4121 C 0.89577 0.27231 0.39518
 C4122 C 0.89662 0.26963 0.37394
 C4123 C 0.88766 0.25233 0.36525
 C4124 C 0.87754 0.23802 0.37759
 C4125 C 0.87668 0.24100 0.39884
 C4126 C 0.88597 0.25804 0.40775
 C4127 C 0.90522 0.29046 0.40440
 C4128 C 0.90463 0.29301 0.42565
 C4129 C 0.91364 0.31031 0.43434
 C4130 C 0.92282 0.32526 0.42190
 C4131 C 0.92309 0.32242 0.40056
 C4132 C 0.91452 0.30498 0.39177
 C4133 C 0.88566 0.26113 0.42896
 C4134 C 0.89492 0.27827 0.43777
 C4135 C 0.90624 0.28441 0.36182
 C4136 C 0.91494 0.30184 0.37057
 H4137 H 0.87820 0.25021 0.43884
 H4138 H 0.89434 0.28006 0.45419
 H4139 H 0.90694 0.28255 0.34541
 H4140 H 0.92210 0.31294 0.36066
 H4141 H 0.88817 0.25025 0.34886
 H4142 H 0.86905 0.22994 0.40844
 H4143 H 0.91354 0.31209 0.45077
 H4144 H 0.92964 0.33392 0.39070
 C4145 C 0.39789 0.76881 0.39829
 C4146 C 0.37690 0.76538 0.39957
 C4147 C 0.36875 0.74731 0.39159
 C4148 C 0.38137 0.73281 0.38191
 C4149 C 0.40246 0.73676 0.38068
 C4150 C 0.41077 0.75458 0.38898
 C4151 C 0.40655 0.78769 0.40683
 C4152 C 0.42760 0.79096 0.40586
 C4153 C 0.43577 0.80887 0.41414
 C4154 C 0.42302 0.82369 0.42301
 C4155 C 0.40187 0.82017 0.42361
 C4156 C 0.39360 0.80213 0.41574
 C4157 C 0.43177 0.75841 0.38822
 C4158 C 0.44005 0.77624 0.39660
 C4159 C 0.36443 0.78015 0.40873
 C4160 C 0.37262 0.79826 0.41658
 H4161 H 0.44190 0.74751 0.38112
 H4162 H 0.45632 0.77857 0.39572
 H4163 H 0.34818 0.77774 0.40977
 H4164 H 0.36246 0.80928 0.42344
 H4165 H 0.35252 0.74492 0.39261
 H4166 H 0.41264 0.72590 0.37366
 H4167 H 0.45207 0.81116 0.41382
 H4168 H 0.39176 0.83154 0.42995
 C4169 C 0.39556 0.27068 0.89850
 C4170 C 0.40831 0.25572 0.89013
 C4171 C 0.39962 0.23837 0.88123
 C4172 C 0.37837 0.23586 0.88083
 C4173 C 0.36584 0.25094 0.88950
 C4174 C 0.37435 0.26845 0.89824
 C4175 C 0.40460 0.28911 0.90760
 C4176 C 0.39183 0.30422 0.91564
 C4177 C 0.40047 0.32185 0.92399
 C4178 C 0.42174 0.32436 0.92454
 C4179 C 0.43431 0.30891 0.91654
 C4180 C 0.42581 0.29131 0.90795
 C4181 C 0.36208 0.28386 0.90655
 C4182 C 0.37067 0.30147 0.91506
 C4183 C 0.42947 0.25844 0.89080
 C4184 C 0.43807 0.27591 0.89960
 H4185 H 0.34570 0.28233 0.90641
 H4186 H 0.36067 0.31303 0.92122
 H4187 H 0.43947 0.24698 0.88443
 H4188 H 0.45446 0.27743 0.89978
 H4189 H 0.40941 0.22677 0.87479
 H4190 H 0.34947 0.24928 0.88909
 H4191 H 0.39060 0.33375 0.92971
 H4192 H 0.45068 0.31054 0.91709
 C4193 C 1.10081 0.76976 1.10349
 C4194 C 1.09978 0.76633 1.12459
 C4195 C 1.10829 0.74850 1.13275
 C4196 C 1.11834 0.73429 1.12006
 C4197 C 1.11921 0.73818 1.09884
 C4198 C 1.11032 0.75573 1.09051
 C4199 C 1.09187 0.78848 1.09484
 C4200 C 1.09262 0.79176 1.07369
 C4201 C 1.08411 0.80958 1.06554
 C4202 C 1.07529 0.82437 1.07841
 C4203 C 1.07482 0.82079 1.09965
 C4204 C 1.08288 0.80280 1.10790
 C4205 C 1.11079 0.75955 1.06941
 C4206 C 1.10199 0.77720 1.06113
 C4207 C 1.09045 0.78092 1.13716
 C4208 C 1.08226 0.79891 1.12897
 H4209 H 1.11802 0.74880 1.05919
 H4210 H 1.10269 0.77954 1.04479
 H4211 H 1.08960 0.77851 1.15349
 H4212 H 1.07533 0.80982 1.13923
 H4213 H 1.10752 0.74614 1.14907
 H4214 H 1.12645 0.72750 1.08861
 H4215 H 1.08430 0.81187 1.04917
 H4216 H 1.06851 0.83211 1.10985
 C4217 C 1.10370 0.27152 0.60384
 C4218 C 1.12429 0.26719 0.60044
 C4219 C 1.13270 0.24937 0.60867
 C4220 C 1.12090 0.23623 0.62098
 C4221 C 1.10031 0.24118 0.62457
 C4222 C 1.09156 0.25855 0.61569
 C4223 C 1.09469 0.29002 0.59482
 C4224 C 1.07392 0.29397 0.59755
 C4225 C 1.06536 0.31141 0.58866
 C4226 C 1.07756 0.32539 0.57775
 C4227 C 1.09851 0.32123 0.57556
 C4228 C 1.10703 0.30342 0.58369
 C4229 C 1.07086 0.26312 0.61830
 C4230 C 1.06215 0.28041 0.60921
 C4231 C 1.13612 0.28086 0.58899
 C4232 C 1.12769 0.29878 0.58093
 H4233 H 1.06128 0.25317 0.62732
 H4234 H 1.04611 0.28330 0.61149
 H4235 H 1.15207 0.27776 0.58635
 H4236 H 1.13738 0.30899 0.57234
 H4237 H 1.14861 0.24621 0.60597
 H4238 H 1.09079 0.23124 0.63364
 H4239 H 1.04919 0.31398 0.59022
 H4240 H 1.10836 0.33191 0.56778
 C4241 C 0.60236 0.77065 0.60290
 C4242 C 0.62342 0.76743 0.60179
 C4243 C 0.63165 0.74949 0.60991
 C4244 C 0.61903 0.73502 0.61944
 C4245 C 0.59797 0.73860 0.62067
 C4246 C 0.58952 0.75631 0.61221
 C4247 C 0.59360 0.78939 0.59416
 C4248 C 0.57251 0.79246 0.59492
 C4249 C 0.56425 0.81024 0.58642
 C4250 C 0.57695 0.82512 0.57755
 C4251 C 0.59813 0.82180 0.57716
 C4252 C 0.60649 0.80390 0.58524
 C4253 C 0.56849 0.75996 0.61278
 C4254 C 0.56012 0.77768 0.60419
 C4255 C 0.63582 0.78226 0.59265
 C4256 C 0.62751 0.80024 0.58461
 H4257 H 0.55841 0.74900 0.61987
 H4258 H 0.54383 0.77987 0.60490
 H4259 H 0.65210 0.77999 0.59176
 H4260 H 0.63762 0.81133 0.57776
 H4261 H 0.64790 0.74694 0.60913
 H4262 H 0.58816 0.72744 0.62783
 H4263 H 0.54793 0.81240 0.58660
 H4264 H 0.60818 0.83324 0.57084
 C4265 C 0.60231 0.27157 1.10540
 C4266 C 0.62326 0.26824 1.10314
 C4267 C 0.63189 0.25042 1.11109
 C4268 C 0.61981 0.23625 1.12168
 C4269 C 0.59888 0.23994 1.12411
 C4270 C 0.58998 0.25749 1.11575
 C4271 C 0.59311 0.29014 1.09676
 C4272 C 0.57209 0.29326 1.09855
 C4273 C 0.56338 0.31081 1.08999
 C4274 C 0.57562 0.32543 1.08006
 C4275 C 0.59677 0.32212 1.07882
 C4276 C 0.60553 0.30441 1.08686
 C4277 C 0.56903 0.26121 1.11741
 C4278 C 0.56021 0.27873 1.10884
 C4279 C 0.63518 0.28284 1.09303
 C4280 C 0.62648 0.30070 1.08515
 H4281 H 0.55934 0.25044 1.12529
 H4282 H 0.54397 0.28095 1.11037
 H4283 H 0.65137 0.28049 1.09126
 H4284 H 0.63621 0.31161 1.07752
 H4285 H 0.64805 0.24776 1.10940
 H4286 H 0.58950 0.22898 1.13213
 H4287 H 0.54709 0.31295 1.09088
 H4288 H 0.60653 0.33340 1.07178
 C4289 C 1.22990 1.10227 0.89727
 C4290 C 1.23159 1.12352 0.89560
 C4291 C 1.24921 1.13195 0.88708
 C4292 C 1.26510 1.11932 0.88019
 C4293 C 1.26310 1.09800 0.88193
 C4294 C 1.24553 1.08941 0.89049
 C4295 C 1.21140 1.09334 0.90626
 C4296 C 1.20968 1.07209 0.90793
 C4297 C 1.19202 1.06369 0.91647
 C4298 C 1.17615 1.07640 0.92327
 C4299 C 1.17817 1.09769 0.92142
 C4300 C 1.19576 1.10624 0.91296
 C4301 C 1.24328 1.06821 0.89244
 C4302 C 1.22567 1.05970 0.90102
 C4303 C 1.21560 1.13592 0.90247
 C4304 C 1.19797 1.12742 0.91099
 H4305 H 1.25524 1.05811 0.88729
 H4306 H 1.22455 1.04328 0.90223
 H4307 H 1.21671 1.15234 0.90125
 H4308 H 1.18599 1.13752 0.91609
 H4309 H 1.25037 1.14833 0.88565
 H4310 H 1.27523 1.08809 0.87687
 H4311 H 1.19068 1.04730 0.91798
 H4312 H 1.16591 1.10759 0.92626
 C4313 C 1.23080 0.60158 0.39830
 C4314 C 1.24617 0.58837 0.39161
 C4315 C 1.26409 0.59655 0.38342
 C4316 C 1.26674 0.61782 0.38190
 C4317 C 1.25110 0.63082 0.38872
 C4318 C 1.23311 0.62279 0.39691
 C4319 C 1.21191 0.59305 0.40690
 C4320 C 1.19651 0.60627 0.41353
 C4321 C 1.17856 0.59808 0.42161
 C4322 C 1.17594 0.57682 0.42314
 C4323 C 1.19160 0.56380 0.41644
 C4324 C 1.20961 0.57183 0.40828
 C4325 C 1.21735 0.63553 0.40370
 C4326 C 1.19936 0.62741 0.41186
 C4327 C 1.24332 0.56722 0.39327
 C4328 C 1.22536 0.55909 0.40147
 H4329 H 1.21891 0.65192 0.40271
 H4330 H 1.18758 0.63778 0.41690
 H4331 H 1.25508 0.55685 0.38817
 H4332 H 1.22378 0.54270 0.40245
 H4333 H 1.27598 0.58632 0.37845
 H4334 H 1.25277 0.64718 0.38751
 H4335 H 1.16650 0.60825 0.42641
 H4336 H 1.18985 0.54744 0.41776
 C4337 C 0.72892 1.10323 0.39779
 C4338 C 0.74439 1.09041 0.39055
 C4339 C 0.76201 1.09908 0.38217
 C4340 C 0.76425 1.12041 0.38116
 C4341 C 0.74854 1.13299 0.38856
 C4342 C 0.73084 1.12449 0.39682
 C4343 C 0.71031 1.09422 0.40652
 C4344 C 0.69480 1.10708 0.41358
 C4345 C 0.67711 1.09848 0.42176
 C4346 C 0.67488 1.07716 0.42306
 C4347 C 0.69064 1.06449 0.41591
 C4348 C 0.70838 1.07296 0.40757
 C4349 C 0.71499 1.13685 0.40407
 C4350 C 0.69725 1.12829 0.41228
 C4351 C 0.74191 1.06919 0.39186
 C4352 C 0.72423 1.06061 0.40026
 H4353 H 0.71629 1.15328 0.40337
 H4354 H 0.68537 1.13836 0.41767
 H4355 H 0.75373 1.05911 0.38636
 H4356 H 0.72293 1.04418 0.40098
 H4357 H 0.77403 1.08924 0.37667
 H4358 H 0.74990 1.14939 0.38764
 H4359 H 0.66495 1.10839 0.42683
 H4360 H 0.68918 1.04809 0.41700
 C4361 C 0.72989 0.60058 0.89893
 C4362 C 0.74392 0.61005 0.91198
 C4363 C 0.76155 0.61874 0.90368
 C4364 C 0.76535 0.61761 0.88257
 C4365 C 0.75121 0.60789 0.86974
 C4366 C 0.73334 0.59952 0.87782
 C4367 C 0.71119 0.59166 0.90753
 C4368 C 0.69695 0.58264 0.89442
 C4369 C 0.67903 0.57451 0.90262
 C4370 C 0.67542 0.57498 0.92383
 C4371 C 0.69008 0.58388 0.93676
 C4372 C 0.70787 0.59243 0.92866
 C4373 C 0.71880 0.59022 0.86521
 C4374 C 0.70086 0.58202 0.87336
 C4375 C 0.74004 0.61057 0.93305
 C4376 C 0.72237 0.60182 0.94126
 H4377 H 0.72126 0.58936 0.84889
 H4378 H 0.68999 0.57508 0.86309
 H4379 H 0.75077 0.61777 0.94329
 H4380 H 0.71999 0.60253 0.95760
 H4381 H 0.77247 0.62604 0.91365
 H4382 H 0.75392 0.60717 0.85345
 H4383 H 0.66777 0.56814 0.89240
 H4384 H 0.68772 0.58410 0.95311
 C4385 C 1.22760 0.89524 1.10413
 C4386 C 1.23018 0.87401 1.10381
 C4387 C 1.24772 0.86550 1.11247
 C4388 C 1.26239 0.87805 1.12173
 C4389 C 1.25948 0.89929 1.12205
 C4390 C 1.24218 0.90799 1.11312
 C4391 C 1.20926 0.90430 1.09494
 C4392 C 1.20681 0.92554 1.09502
 C4393 C 1.18935 0.93407 1.08623
 C4394 C 1.17419 0.92151 1.07771
 C4395 C 1.17692 0.90019 1.07790
 C4396 C 1.19448 0.89153 1.08633
 C4397 C 1.23919 0.92918 1.11295
 C4398 C 1.22184 0.93781 1.10397
 C4399 C 1.21511 0.86174 1.09492
 C4400 C 1.19752 0.87035 1.08641
 H4401 H 1.25036 0.93918 1.11978
 H4402 H 1.22013 0.95422 1.10415
 H4403 H 1.21689 0.84534 1.09462
 H4404 H 1.18622 0.86033 1.07980
 H4405 H 1.24977 0.84912 1.11232
 H4406 H 1.27081 0.90908 1.12894
 H4407 H 1.18763 0.95048 1.08595
 H4408 H 1.16525 0.89028 1.07180
 C4409 C 1.22787 0.39562 0.60404
 C4410 C 1.23044 0.37439 0.60379
 C4411 C 1.24804 0.36590 0.61235
 C4412 C 1.26282 0.37849 0.62140
 C4413 C 1.25992 0.39974 0.62163
 C4414 C 1.24254 0.40840 0.61283
 C4415 C 1.20946 0.40464 0.59495
 C4416 C 1.20701 0.42588 0.59498
 C4417 C 1.18949 0.43439 0.58628
 C4418 C 1.17431 0.42180 0.57784
 C4419 C 1.17704 0.40048 0.57808
 C4420 C 1.19463 0.39185 0.58647
 C4421 C 1.23954 0.42959 0.61261
 C4422 C 1.22211 0.43819 0.60377
 C4423 C 1.21530 0.36208 0.59506
 C4424 C 1.19766 0.37066 0.58662
 H4425 H 1.25077 0.43962 0.61931
 H4426 H 1.22040 0.45460 0.60390
 H4427 H 1.21707 0.34568 0.59482
 H4428 H 1.18633 0.36062 0.58012
 H4429 H 1.25006 0.34953 0.61228
 H4430 H 1.27132 0.40957 0.62835
 H4431 H 1.18775 0.45079 0.58596
 H4432 H 1.16534 0.39057 0.57203
 C4433 C 0.72954 0.89769 0.60222
 C4434 C 0.74437 0.91071 0.61038
 C4435 C 0.76210 0.90231 0.61877
 C4436 C 0.76514 0.88107 0.61877
 C4437 C 0.75015 0.86826 0.61039
 C4438 C 0.73226 0.87648 0.60222
 C4439 C 0.71079 0.90642 0.59355
 C4440 C 0.69583 0.89337 0.58569
 C4441 C 0.67795 0.90173 0.57767
 C4442 C 0.67502 0.92301 0.57719
 C4443 C 0.69030 0.93586 0.58504
 C4444 C 0.70814 0.92764 0.59336
 C4445 C 0.71698 0.86392 0.59414
 C4446 C 0.69904 0.87222 0.58608
 C4447 C 0.74117 0.93187 0.60994
 C4448 C 0.72340 0.94019 0.60152
 H4449 H 0.71887 0.84753 0.59410
 H4450 H 0.68761 0.86199 0.58006
 H4451 H 0.75251 0.94208 0.61615
 H4452 H 0.72155 0.95658 0.60147
 H4453 H 0.77362 0.91230 0.62500
 H4454 H 0.75223 0.85189 0.61053
 H4455 H 0.66619 0.89163 0.57207
 H4456 H 0.68838 0.95224 0.58455
 C4457 C 0.72761 0.39562 1.10356
 C4458 C 0.73050 0.39601 1.12479
 C4459 C 0.74830 0.38765 1.13305
 C4460 C 0.76299 0.37870 1.12027
 C4461 C 0.75976 0.37830 1.09903
 C4462 C 0.74215 0.38687 1.09058
 C4463 C 0.70901 0.40454 1.09477
 C4464 C 0.70623 0.40438 1.07354
 C4465 C 0.68855 0.41297 1.06525
 C4466 C 0.67356 0.42144 1.07806
 C4467 C 0.67660 0.42131 1.09937
 C4468 C 0.69435 0.41302 1.10778
 C4469 C 0.73881 0.38694 1.06940
 C4470 C 0.72119 0.39561 1.06102
 C4471 C 0.71551 0.40469 1.13731
 C4472 C 0.69770 0.41299 1.12895
 H4473 H 0.74994 0.38028 1.05922
 H4474 H 0.71923 0.39538 1.04461
 H4475 H 0.71753 0.40504 1.15370
 H4476 H 0.68649 0.41949 1.13915
 H4477 H 0.75055 0.38784 1.14942
 H4478 H 0.77107 0.37165 1.08904
 H4479 H 0.68654 0.41319 1.04885
 H4480 H 0.66505 0.42738 1.10945
 C4481 C 0.76997 1.10219 1.10062
 C4482 C 0.76632 1.10060 1.12167
 C4483 C 0.74818 1.10837 1.12971
 C4484 C 0.73399 1.11808 1.11693
 C4485 C 0.73797 1.11975 1.09589
 C4486 C 0.75587 1.11162 1.08761
 C4487 C 0.78897 1.09390 1.09207
 C4488 C 0.79249 1.09515 1.07099
 C4489 C 0.81052 1.08707 1.06293
 C4490 C 0.82518 1.07814 1.07585
 C4491 C 0.82140 1.07732 1.09703
 C4492 C 0.80326 1.08494 1.10517
 C4493 C 0.75997 1.11268 1.06659
 C4494 C 0.77791 1.10448 1.05841
 C4495 C 0.78093 1.09139 1.13427
 C4496 C 0.79915 1.08380 1.12618
 H4497 H 0.74919 1.11985 1.05637
 H4498 H 0.78045 1.10557 1.04211
 H4499 H 0.77832 1.09013 1.15055
 H4500 H 0.81007 1.07689 1.13644
 H4501 H 0.74533 1.10727 1.14596
 H4502 H 0.72701 1.12708 1.08596
 H4503 H 0.81302 1.08759 1.04660
 H4504 H 0.83267 1.07098 1.10727
 C4505 C 0.77042 0.60211 0.60152
 C4506 C 0.76709 0.60097 0.62265
 C4507 C 0.74914 0.60903 0.63082
 C4508 C 0.73479 0.61855 0.61807
 C4509 C 0.73845 0.61978 0.59694
 C4510 C 0.75617 0.61138 0.58854
 C4511 C 0.78919 0.59348 0.59282
 C4512 C 0.79237 0.59428 0.57166
 C4513 C 0.81019 0.58589 0.56346
 C4514 C 0.82498 0.57709 0.57631
 C4515 C 0.82155 0.57668 0.59756
 C4516 C 0.80362 0.58464 0.60585
 C4517 C 0.75992 0.61199 0.56745
 C4518 C 0.77767 0.60349 0.55914
 C4519 C 0.78184 0.59188 0.63519
 C4520 C 0.79985 0.58395 0.62694
 H4521 H 0.74903 0.61904 0.55726
 H4522 H 0.77994 0.60423 0.54278
 H4523 H 0.77948 0.59097 0.65152
 H4524 H 0.81088 0.57715 0.63715
 H4525 H 0.74652 0.60824 0.64713
 H4526 H 0.72737 0.62694 0.58703
 H4527 H 0.81243 0.58608 0.54709
 H4528 H 0.83294 0.57042 0.60772
 C4529 C 0.27051 1.10265 0.60187
 C4530 C 0.26691 1.10093 0.62292
 C4531 C 0.24900 1.10905 0.63113
 C4532 C 0.23500 1.11925 0.61852
 C4533 C 0.23894 1.12106 0.59748
 C4534 C 0.25658 1.11256 0.58903
 C4535 C 0.28924 1.09396 0.59313
 C4536 C 0.29266 1.09531 0.57204
 C4537 C 0.31043 1.08686 0.56378
 C4538 C 0.32498 1.07750 0.57653
 C4539 C 0.32131 1.07657 0.59773
 C4540 C 0.30339 1.08453 0.60605
 C4541 C 0.26058 1.11372 0.56800
 C4542 C 0.27825 1.10513 0.55963
 C4543 C 0.28137 1.09123 0.63535
 C4544 C 0.29936 1.08328 0.62707
 H4545 H 0.24993 1.12127 0.55791
 H4546 H 0.28072 1.10630 0.54333
 H4547 H 0.27880 1.08987 0.65162
 H4548 H 0.31017 1.07602 0.63720
 H4549 H 0.24614 1.10781 0.64737
 H4550 H 0.22812 1.12876 0.58768
 H4551 H 0.31282 1.08746 0.54744
 H4552 H 0.33249 1.06990 0.60785
 C4553 C 0.26782 0.60097 1.09836
 C4554 C 0.26404 0.59989 1.11941
 C4555 C 0.24559 0.60728 1.12706
 C4556 C 0.23112 0.61602 1.11388
 C4557 C 0.23522 0.61718 1.09282
 C4558 C 0.25351 0.60948 1.08494
 C4559 C 0.28717 0.59308 1.09023
 C4560 C 0.29088 0.59384 1.06915
 C4561 C 0.30925 0.58612 1.06150
 C4562 C 0.32399 0.57795 1.07483
 C4563 C 0.32003 0.57761 1.09598
 C4564 C 0.30161 0.58494 1.10372
 C4565 C 0.25780 0.61008 1.06394
 C4566 C 0.27612 0.60231 1.05617
 C4567 C 0.27883 0.59156 1.13241
 C4568 C 0.29734 0.58430 1.12471
 H4569 H 0.24687 0.61656 1.05342
 H4570 H 0.27879 0.60302 1.03988
 H4571 H 0.27610 0.59072 1.14869
 H4572 H 0.30837 0.57805 1.13527
 H4573 H 0.24271 0.60660 1.14332
 H4574 H 0.22410 0.62379 1.08259
 H4575 H 0.31194 0.58628 1.04520
 H4576 H 0.33137 0.57185 1.10648
 C4577 C 0.76972 0.89992 0.89907
 C4578 C 0.76626 0.90102 0.87796
 C4579 C 0.74835 0.89276 0.86991
 C4580 C 0.73418 0.88309 0.88275
 C4581 C 0.73798 0.88192 0.90386
 C4582 C 0.75565 0.89051 0.91214
 C4583 C 0.78847 0.90871 0.90764
 C4584 C 0.79180 0.90790 0.92878
 C4585 C 0.80964 0.91635 0.93685
 C4586 C 0.82432 0.92519 0.92390
 C4587 C 0.82071 0.92569 0.90268
 C4588 C 0.80275 0.91767 0.89451
 C4589 C 0.75954 0.88993 0.93321
 C4590 C 0.77726 0.89858 0.94140
 C4591 C 0.78084 0.91025 0.86533
 C4592 C 0.79883 0.91834 0.87345
 H4593 H 0.74878 0.88278 0.94346
 H4594 H 0.77966 0.89783 0.95774
 H4595 H 0.77837 0.91114 0.84901
 H4596 H 0.80973 0.92523 0.86317
 H4597 H 0.74563 0.89351 0.85362
 H4598 H 0.72704 0.87464 0.91384
 H4599 H 0.81201 0.91611 0.95320
 H4600 H 0.83200 0.93200 0.89245
 C4601 C 0.77044 0.39709 0.39787
 C4602 C 0.75546 0.41009 0.38993
 C4603 C 0.73780 0.40163 0.38146
 C4604 C 0.73501 0.38035 0.38109
 C4605 C 0.75019 0.36758 0.38922
 C4606 C 0.76798 0.37586 0.39753
 C4607 C 0.78910 0.40588 0.40668
 C4608 C 0.80418 0.39287 0.41438
 C4609 C 0.82196 0.40128 0.42256
 C4610 C 0.82467 0.42257 0.42329
 C4611 C 0.80929 0.43539 0.41557
 C4612 C 0.79152 0.42712 0.40716
 C4613 C 0.78339 0.36333 0.40544
 C4614 C 0.80121 0.37169 0.41367
 C4615 C 0.75842 0.43127 0.39067
 C4616 C 0.77613 0.43964 0.39918
 H4617 H 0.78169 0.34692 0.40523
 H4618 H 0.81274 0.36149 0.41957
 H4619 H 0.74696 0.44146 0.38463
 H4620 H 0.77780 0.45605 0.39946
 H4621 H 0.72616 0.41162 0.37543
 H4622 H 0.74833 0.35119 0.38881
 H4623 H 0.83381 0.39123 0.42807
 H4624 H 0.81108 0.45178 0.41625
 C4625 C 0.27146 0.89631 0.39724
 C4626 C 0.25742 0.88659 0.41010
 C4627 C 0.23990 0.87790 0.40159
 C4628 C 0.23620 0.87933 0.38049
 C4629 C 0.25033 0.88931 0.36785
 C4630 C 0.26812 0.89764 0.37612
 C4631 C 0.29003 0.90527 0.40605
 C4632 C 0.30428 0.91456 0.39314
 C4633 C 0.32205 0.92279 0.40155
 C4634 C 0.32545 0.92222 0.42280
 C4635 C 0.31079 0.91302 0.43553
 C4636 C 0.29318 0.90433 0.42721
 C4637 C 0.28269 0.90718 0.36370
 C4638 C 0.30052 0.91539 0.37205
 C4639 C 0.26115 0.88584 0.43119
 C4640 C 0.27867 0.89467 0.43961
 H4641 H 0.28032 0.90824 0.34738
 H4642 H 0.31141 0.92254 0.36193
 H4643 H 0.25041 0.87844 0.44128
 H4644 H 0.28093 0.89381 0.45596
 H4645 H 0.22897 0.87040 0.41142
 H4646 H 0.24765 0.89028 0.35156
 H4647 H 0.33332 0.92936 0.39146
 H4648 H 0.31298 0.91272 0.45190
 C4649 C 0.26886 0.40035 0.90065
 C4650 C 0.25440 0.39175 0.91384
 C4651 C 0.23650 0.38351 0.90564
 C4652 C 0.23293 0.38418 0.88446
 C4653 C 0.24754 0.39303 0.87150
 C4654 C 0.26561 0.40098 0.87949
 C4655 C 0.28783 0.40878 0.90913
 C4656 C 0.30244 0.41698 0.89588
 C4657 C 0.32056 0.42471 0.90396
 C4658 C 0.32403 0.42464 0.92520
 C4659 C 0.30907 0.41648 0.93827
 C4660 C 0.29101 0.40838 0.93030
 C4661 C 0.28054 0.40942 0.86673
 C4662 C 0.29870 0.41721 0.87478
 C4663 C 0.25815 0.39158 0.93495
 C4664 C 0.27610 0.39984 0.94304
 H4665 H 0.27822 0.40994 0.85038
 H4666 H 0.30987 0.42350 0.86440
 H4667 H 0.24710 0.38504 0.94530
 H4668 H 0.27838 0.39942 0.95941
 H4669 H 0.22527 0.37684 0.91571
 H4670 H 0.24506 0.39336 0.85517
 H4671 H 0.33207 0.43050 0.89366
 H4672 H 0.31139 0.41655 0.95464
   
