data_POSCAR
  _audit_creation_date              2014-09-24
  _audit_creation_method            'ToBaCCo'
  _symmetry_space_group_name_H-M    'P1'
  _symmetry_Int_Tables_number       1
  _symmetry_cell_setting            triclinic
  loop_
  _symmetry_equiv_pos_as_xyz
 x,y,z
_cell_length_a 42.5571
_cell_length_b 42.5359
_cell_length_c 47.9295
_cell_angle_alpha 90.548800
_cell_angle_beta 89.542400
_cell_angle_gamma 90.325800
loop_
  _atom_site_label
  _atom_site_type_symbol
  _atom_site_fract_x
  _atom_site_fract_y
  _atom_site_fract_z
C1 C 0.41126 -0.04971 0.25015
 C2 C 0.42887 -0.02344 0.24176
 C3 C 0.44575 -0.02436 0.21675
 C4 C 0.44409 -0.05060 0.19921
 C5 C 0.42604 -0.07680 0.20724
 C6 C 0.40856 -0.07636 0.23255
 C7 C 0.42751 0.00637 0.25743
 C8 C 0.43733 0.00790 0.28511
 C9 C 0.43863 0.03683 0.29979
 C10 C 0.42825 0.06408 0.28553
 C11 C 0.41460 0.06190 0.25888
 C12 C 0.41634 0.03332 0.24435
 H13 H 0.39891 -0.04891 0.27001
 H14 H 0.45863 -0.00366 0.20999
 H15 H 0.44368 -0.01391 0.29499
 H16 H 0.40744 0.03167 0.22324
 H17 H 0.42356 -0.09629 0.19268
 H18 H 0.43051 0.08721 0.29485
 C19 C 0.08011 -0.03325 0.74015
 C20 C 0.06566 -0.00724 0.75306
 C21 C 0.05513 -0.00923 0.78059
 C22 C 0.05991 -0.03639 0.79599
 C23 C 0.07502 -0.06232 0.78338
 C24 C 0.08508 -0.06093 0.75523
 C25 C 0.06491 0.02350 0.73940
 C26 C 0.04698 0.02777 0.71552
 C27 C 0.04593 0.05722 0.70241
 C28 C 0.06515 0.08189 0.71300
 C29 C 0.08358 0.07758 0.73695
 C30 C 0.08227 0.04862 0.75057
 H31 H 0.08934 -0.03124 0.71909
 H32 H 0.04480 0.01125 0.79067
 H33 H 0.03440 0.00777 0.70683
 H34 H 0.09608 0.04516 0.76920
 H35 H 0.08036 -0.08277 0.79575
 H36 H 0.06573 0.10452 0.70280
 C37 C 0.58219 0.45999 0.24837
 C38 C 0.56728 0.48574 0.26116
 C39 C 0.55066 0.48191 0.28615
 C40 C 0.54869 0.45232 0.29864
 C41 C 0.56415 0.42661 0.28594
 C42 C 0.58105 0.43028 0.26067
 C43 C 0.56867 0.51652 0.24774
 C44 C 0.55282 0.52025 0.22272
 C45 C 0.55584 0.54793 0.20756
 C46 C 0.57556 0.57226 0.21761
 C47 C 0.59156 0.56885 0.24313
 C48 C 0.58757 0.54095 0.25830
 H49 H 0.59601 0.46351 0.22955
 H50 H 0.53958 0.50206 0.29608
 H51 H 0.53881 0.50095 0.21446
 H52 H 0.60037 0.53765 0.27750
 H53 H 0.56417 0.40409 0.29633
 H54 H 0.57909 0.59324 0.20532
 C55 C 0.91012 0.45851 0.75751
 C56 C 0.92651 0.48503 0.74772
 C57 C 0.94018 0.48445 0.72119
 C58 C 0.93647 0.45869 0.70347
 C59 C 0.91942 0.43227 0.71277
 C60 C 0.90639 0.43190 0.74005
 C61 C 0.92883 0.51475 0.76354
 C62 C 0.94530 0.51632 0.78861
 C63 C 0.95394 0.54571 0.80024
 C64 C 0.94826 0.57290 0.78421
 C65 C 0.92857 0.57203 0.76062
 C66 C 0.91849 0.54245 0.75099
 H67 H 0.89920 0.45906 0.77801
 H68 H 0.95277 0.50501 0.71369
 H69 H 0.95079 0.49452 0.79892
 H70 H 0.90285 0.54044 0.73336
 H71 H 0.91550 0.41260 0.69869
 H72 H 0.95827 0.59516 0.79085
 C73 C 0.25825 0.32796 1.03105
 C74 C 0.26149 0.34939 1.00896
 C75 C 0.28771 0.36959 1.00823
 C76 C 0.31046 0.36856 1.02926
 C77 C 0.30704 0.34704 1.05106
 C78 C 0.28039 0.32723 1.05299
 C79 C 0.23553 0.35381 0.98880
 C80 C 0.21156 0.37543 0.99540
 C81 C 0.18767 0.38149 0.97620
 C82 C 0.18719 0.36521 0.95077
 C83 C 0.21181 0.34508 0.94290
 C84 C 0.23579 0.33893 0.96229
 H85 H 0.23812 0.31224 1.03127
 H86 H 0.28976 0.38699 0.99192
 H87 H 0.21206 0.38822 1.01506
 H88 H 0.25499 0.32352 0.95651
 H89 H 0.32417 0.34758 1.06768
 H90 H 0.16856 0.37001 0.93611
 C91 C 0.74266 0.16217 1.03443
 C92 C 0.74059 0.14285 1.01068
 C93 C 0.71568 0.12130 1.00829
 C94 C 0.69349 0.11785 1.02997
 C95 C 0.69631 0.13691 1.05404
 C96 C 0.72139 0.15880 1.05706
 C97 C 0.76537 0.14386 0.98885
 C98 C 0.79114 0.12348 0.99026
 C99 C 0.81292 0.12127 0.96805
 C100 C 0.80874 0.14023 0.94448
 C101 C 0.78312 0.16101 0.94285
 C102 C 0.76219 0.16341 0.96569
 H103 H 0.76100 0.17992 1.03507
 H104 H 0.71391 0.10673 0.98968
 H105 H 0.79385 0.10877 1.00842
 H106 H 0.74262 0.17956 0.96496
 H107 H 0.67979 0.13329 1.07102
 H108 H 0.82492 0.13808 0.92700
 C109 C 0.24066 0.67182 0.52911
 C110 C 0.23903 0.65076 0.50639
 C111 C 0.21307 0.63030 0.50402
 C112 C 0.18931 0.62994 0.52463
 C113 C 0.19099 0.65152 0.54686
 C114 C 0.21655 0.67241 0.54938
 C115 C 0.26495 0.64870 0.48566
 C116 C 0.28863 0.62613 0.48857
 C117 C 0.31073 0.62074 0.46703
 C118 C 0.30871 0.63840 0.44237
 C119 C 0.28499 0.66112 0.43908
 C120 C 0.26416 0.66700 0.46152
 H121 H 0.26109 0.68690 0.53151
 H122 H 0.21192 0.61387 0.48662
 H123 H 0.28944 0.61227 0.50741
 H124 H 0.24611 0.68471 0.45961
 H125 H 0.17303 0.65110 0.56303
 H126 H 0.32501 0.63371 0.42538
 C127 C 0.76005 0.83150 0.53286
 C128 C 0.75990 0.85458 0.51198
 C129 C 0.78493 0.87627 0.51036
 C130 C 0.81082 0.87428 0.52850
 C131 C 0.81003 0.85151 0.54959
 C132 C 0.78503 0.82996 0.55196
 C133 C 0.73405 0.85583 0.49132
 C134 C 0.70995 0.87823 0.49423
 C135 C 0.68679 0.88110 0.47358
 C136 C 0.68757 0.86087 0.45027
 C137 C 0.71165 0.83862 0.44674
 C138 C 0.73484 0.83625 0.46745
 H139 H 0.74060 0.81504 0.53444
 H140 H 0.78486 0.89379 0.49408
 H141 H 0.70967 0.89392 0.51218
 H142 H 0.75415 0.82003 0.46450
 H143 H 0.82858 0.85125 0.56497
 H144 H 0.66989 0.86321 0.43427
 C145 C -0.03637 0.26274 0.33849
 C146 C -0.00945 0.24846 0.34883
 C147 C -0.01178 0.22004 0.36281
 C148 C -0.04093 0.20520 0.36639
 C149 C -0.06688 0.21730 0.35249
 C150 C -0.06534 0.24663 0.33910
 C151 C 0.02046 0.26511 0.35031
 C152 C 0.02396 0.28802 0.37098
 C153 C 0.05388 0.29794 0.37891
 C154 C 0.08043 0.28628 0.36520
 C155 C 0.07696 0.26341 0.34421
 C156 C 0.04696 0.25286 0.33670
 H157 H -0.03471 0.28658 0.33082
 H158 H 0.00889 0.21124 0.37322
 H159 H 0.00350 0.29632 0.38247
 H160 H 0.04437 0.23402 0.32150
 H161 H -0.08854 0.20374 0.35234
 H162 H 0.10365 0.29406 0.37149
 C163 C -0.04321 0.77635 0.17974
 C164 C -0.01378 0.77295 0.16726
 C165 C -0.00606 0.79016 0.14350
 C166 C -0.02738 0.81123 0.13216
 C167 C -0.05764 0.81285 0.14356
 C168 C -0.06562 0.79555 0.16727
 C169 C 0.00379 0.74423 0.17127
 C170 C -0.00482 0.71917 0.15390
 C171 C 0.01672 0.69576 0.14690
 C172 C 0.04645 0.69709 0.15904
 C173 C 0.05491 0.72109 0.17786
 C174 C 0.03332 0.74504 0.18382
 H175 H -0.04995 0.76099 0.19674
 H176 H 0.01585 0.78531 0.13261
 H177 H -0.02658 0.72089 0.14237
 H178 H 0.04019 0.76532 0.19623
 H179 H -0.07515 0.82718 0.13375
 H180 H 0.06378 0.67986 0.15273
 C181 C 0.46751 0.27127 0.68619
 C182 C 0.49537 0.27786 0.67216
 C183 C 0.50055 0.30738 0.66113
 C184 C 0.47761 0.33075 0.66334
 C185 C 0.45044 0.32495 0.67918
 C186 C 0.44493 0.29481 0.69007
 C187 C 0.51522 0.25254 0.66203
 C188 C 0.50532 0.23489 0.63897
 C189 C 0.52528 0.21260 0.62686
 C190 C 0.55609 0.21021 0.63647
 C191 C 0.56625 0.22837 0.65916
 C192 C 0.54563 0.24946 0.67210
 H193 H 0.46237 0.24717 0.69193
 H194 H 0.52070 0.31041 0.64740
 H195 H 0.48221 0.23879 0.63032
 H196 H 0.55348 0.26412 0.68935
 H197 H 0.43217 0.34257 0.68032
 H198 H 0.57224 0.19399 0.62638
 C199 C 0.45669 0.73725 0.83703
 C200 C 0.48114 0.72827 0.85440
 C201 C 0.47463 0.71180 0.87873
 C202 C 0.44357 0.70498 0.88665
 C203 C 0.41929 0.71225 0.86833
 C204 C 0.42575 0.72883 0.84382
 C205 C 0.51171 0.74348 0.85222
 C206 C 0.51651 0.77032 0.86847
 C207 C 0.54557 0.78544 0.86858
 C208 C 0.57031 0.77338 0.85267
 C209 C 0.56561 0.74617 0.83635
 C210 C 0.53627 0.73100 0.83618
 H211 H 0.46148 0.75203 0.81917
 H212 H 0.49401 0.70547 0.89210
 H213 H 0.49725 0.77982 0.88086
 H214 H 0.53269 0.70984 0.82380
 H215 H 0.39510 0.70699 0.87391
 H216 H 0.59277 0.78552 0.85235
 C217 C -0.30312 0.66065 0.99700
 C218 C -0.27418 0.67181 1.00703
 C219 C -0.27281 0.68664 1.03301
 C220 C -0.30005 0.69069 1.04907
 C221 C -0.32887 0.67831 1.03951
 C222 C -0.33054 0.66189 1.01366
 C223 C -0.24542 0.66825 0.99004
 C224 C -0.24557 0.67838 0.96252
 C225 C -0.21967 0.67367 0.94476
 C226 C -0.19220 0.65996 0.95585
 C227 C -0.19196 0.64894 0.98365
 C228 C -0.21852 0.65387 1.00071
 H229 H -0.30404 0.65037 0.97623
 H230 H -0.25049 0.69549 1.04064
 H231 H -0.26621 0.69034 0.95489
 H232 H -0.21865 0.64547 1.02200
 H233 H -0.34932 0.67991 1.05305
 H234 H -0.17192 0.65594 0.94249
 C235 C -0.28898 0.34053 0.50549
 C236 C -0.26255 0.32691 0.49267
 C237 C -0.26401 0.31655 0.46508
 C238 C -0.29262 0.31595 0.45076
 C239 C -0.31974 0.32770 0.46479
 C240 C -0.31734 0.34351 0.49093
 C241 C -0.23316 0.32363 0.50817
 C242 C -0.23321 0.30666 0.53288
 C243 C -0.20704 0.30710 0.55044
 C244 C -0.17944 0.32286 0.54162
 C245 C -0.17877 0.33884 0.51589
 C246 C -0.20563 0.33850 0.49910
 H247 H -0.28718 0.34937 0.52671
 H248 H -0.24267 0.30823 0.45510
 H249 H -0.25440 0.29423 0.53912
 H250 H -0.20561 0.35139 0.47970
 H251 H -0.34228 0.32640 0.45460
 H252 H -0.15916 0.32381 0.55512
 C253 C 0.21391 -0.15912 -0.00021
 C254 C 0.23721 -0.17814 -0.01228
 C255 C 0.23251 -0.19201 -0.03834
 C256 C 0.20478 -0.18681 -0.05315
 C257 C 0.18222 -0.16587 -0.04171
 C258 C 0.18653 -0.15218 -0.01501
 C259 C 0.26679 -0.18369 0.00226
 C260 C 0.26679 -0.20285 0.02563
 C261 C 0.29406 -0.20693 0.04168
 C262 C 0.32201 -0.19123 0.03265
 C263 C 0.32246 -0.17324 0.00787
 C264 C 0.29463 -0.16963 -0.00705
 H265 H 0.21748 -0.14906 0.02040
 H266 H 0.25103 -0.20637 -0.04739
 H267 H 0.24509 -0.21493 0.03094
 H268 H 0.29431 -0.15465 -0.02524
 H269 H 0.16103 -0.16081 -0.05318
 H270 H 0.34287 -0.19137 0.04544
 C271 C 0.20283 1.16408 0.49384
 C272 C 0.23081 1.17699 0.50424
 C273 C 0.23154 1.18993 0.53094
 C274 C 0.20504 1.18898 0.54812
 C275 C 0.17709 1.17488 0.53832
 C276 C 0.17600 1.16189 0.51105
 C277 C 0.26034 1.17432 0.48853
 C278 C 0.26372 1.18919 0.46300
 C279 C 0.29156 1.18640 0.44702
 C280 C 0.31609 1.16759 0.45780
 C281 C 0.31297 1.15317 0.48414
 C282 C 0.28519 1.15720 0.49945
 H283 H 0.20254 1.15381 0.47305
 H284 H 0.25341 1.19953 0.53894
 H285 H 0.24458 1.20385 0.45614
 H286 H 0.28254 1.14610 0.51962
 H287 H 0.15697 1.17272 0.55216
 H288 H 0.33694 1.16286 0.44540
 C289 C 0.07947 0.50052 0.21723
 C290 C 0.10019 0.49865 0.24007
 C291 C 0.12379 0.52161 0.24343
 C292 C 0.12714 0.54607 0.22426
 C293 C 0.10610 0.54805 0.20200
 C294 C 0.08202 0.52556 0.19807
 C295 C 0.09917 0.47190 0.25977
 C296 C 0.11921 0.44610 0.25534
 C297 C 0.12348 0.42355 0.27632
 C298 C 0.10592 0.42603 0.30114
 C299 C 0.08542 0.45136 0.30586
 C300 C 0.08247 0.47448 0.28515
 H301 H 0.06218 0.48210 0.21395
 H302 H 0.14014 0.51993 0.26057
 H303 H 0.13291 0.44458 0.23622
 H304 H 0.06819 0.49505 0.28923
 H305 H 0.10920 0.56674 0.18705
 H306 H 0.10924 0.40887 0.31742
 C307 C -0.08883 0.99733 0.21401
 C308 C -0.10624 0.99351 0.23877
 C309 C -0.12588 0.96706 0.24184
 C310 C -0.13123 0.94574 0.21936
 C311 C -0.11636 0.95317 0.19353
 C312 C -0.09349 0.97717 0.19084
 C313 C -0.10610 1.01880 0.26041
 C314 C -0.12233 1.04689 0.25522
 C315 C -0.12261 1.07185 0.27485
 C316 C -0.10639 1.06776 0.30005
 C317 C -0.09189 1.03907 0.30654
 C318 C -0.09134 1.01479 0.28632
 H319 H -0.07147 1.01602 0.21317
 H320 H -0.13679 0.96374 0.26202
 H321 H -0.13438 1.04942 0.23553
 H322 H -0.08001 0.99271 0.29089
 H323 H -0.12347 0.94129 0.17458
 H324 H -0.10702 1.08621 0.31580
 C325 C 0.41477 0.49855 -0.28122
 C326 C 0.39479 0.49491 -0.25788
 C327 C 0.37485 0.46848 -0.25659
 C328 C 0.37420 0.44610 -0.27848
 C329 C 0.39456 0.45002 -0.30150
 C330 C 0.41436 0.47678 -0.30384
 C331 C 0.39194 0.52054 -0.23651
 C332 C 0.37375 0.54721 -0.24250
 C333 C 0.36806 0.57083 -0.22211
 C334 C 0.38352 0.56843 -0.19636
 C335 C 0.40096 0.54165 -0.18950
 C336 C 0.40525 0.51774 -0.20977
 H337 H 0.43053 0.51863 -0.28171
 H338 H 0.35887 0.46595 -0.23902
 H339 H 0.36352 0.54919 -0.26304
 H340 H 0.41829 0.49683 -0.20459
 H341 H 0.39314 0.43320 -0.31858
 H342 H 0.37981 0.58620 -0.18033
 C343 C 0.58601 0.00379 -0.28775
 C344 C 0.60595 0.00039 -0.26456
 C345 C 0.63037 0.02217 -0.26016
 C346 C 0.63530 0.04690 -0.27878
 C347 C 0.61518 0.05028 -0.30149
 C348 C 0.58991 0.02925 -0.30645
 C349 C 0.60219 -0.02630 -0.24505
 C350 C 0.61941 -0.05410 -0.24943
 C351 C 0.61850 -0.07836 -0.22965
 C352 C 0.60004 -0.07460 -0.20549
 C353 C 0.58286 -0.04694 -0.20058
 C354 C 0.58421 -0.02274 -0.22045
 H355 H 0.56842 -0.01418 -0.29166
 H356 H 0.64585 0.01958 -0.24249
 H357 H 0.63419 -0.05650 -0.26784
 H358 H 0.57224 -0.00074 -0.21632
 H359 H 0.61916 0.07009 -0.31501
 H360 H 0.59966 -0.09305 -0.19004
 C361 C -0.00739 0.22393 0.92510
 C362 C -0.01621 0.25152 0.91178
 C363 C -0.04554 0.25348 0.89945
 C364 C -0.06471 0.22699 0.89799
 C365 C -0.05774 0.20044 0.91352
 C366 C -0.02856 0.19849 0.92678
 C367 C 0.00740 0.27355 0.90175
 C368 C 0.02140 0.26700 0.87589
 C369 C 0.03801 0.29035 0.86158
 C370 C 0.04143 0.32013 0.87388
 C371 C 0.02611 0.32701 0.89897
 C372 C 0.00941 0.30368 0.91320
 H373 H 0.01660 0.22141 0.93213
 H374 H -0.05084 0.27363 0.88658
 H375 H 0.01764 0.24416 0.86618
 H376 H -0.00382 0.30957 0.93194
 H377 H -0.07298 0.17999 0.91211
 H378 H 0.05457 0.33846 0.86331
 C379 C 0.50187 0.20567 0.07888
 C380 C 0.51136 0.23566 0.08780
 C381 C 0.53550 0.23875 0.10722
 C382 C 0.54945 0.21216 0.11837
 C383 C 0.54073 0.18229 0.10897
 C384 C 0.51659 0.17892 0.08946
 C385 C 0.49093 0.26279 0.08419
 C386 C 0.46261 0.26211 0.09901
 C387 C 0.44863 0.29010 0.10768
 C388 C 0.45980 0.31868 0.09772
 C389 C 0.48771 0.31968 0.08203
 C390 C 0.50336 0.29165 0.07525
 H391 H 0.48224 0.20312 0.06475
 H392 H 0.54167 0.26180 0.11547
 H393 H 0.45442 0.24017 0.10799
 H394 H 0.52620 0.29247 0.06511
 H395 H 0.55229 0.16175 0.11721
 H396 H 0.44849 0.34030 0.10436
 C397 C 0.00517 0.72106 0.57149
 C398 C 0.01763 0.74936 0.58200
 C399 C 0.04714 0.74949 0.59451
 C400 C 0.06149 0.72114 0.60098
 C401 C 0.04943 0.69293 0.59053
 C402 C 0.02121 0.69284 0.57568
 C403 C -0.00364 0.77389 0.59215
 C404 C -0.02232 0.76633 0.61528
 C405 C -0.03558 0.78977 0.63243
 C406 C -0.03137 0.82123 0.62460
 C407 C -0.01256 0.82908 0.60159
 C408 C 0.00121 0.80533 0.58523
 H409 H -0.01838 0.72053 0.56302
 H410 H 0.05556 0.77089 0.60457
 H411 H -0.02371 0.74192 0.62134
 H412 H 0.01659 0.81129 0.56792
 H413 H 0.06028 0.67090 0.59616
 H414 H -0.04301 0.83989 0.63615
 C415 C 0.49411 0.70335 0.41731
 C416 C 0.48862 0.73418 0.40868
 C417 C 0.46651 0.73980 0.38802
 C418 C 0.45100 0.71465 0.37528
 C419 C 0.45576 0.68403 0.38424
 C420 C 0.47777 0.67824 0.40492
 C421 C 0.51236 0.75838 0.41355
 C422 C 0.54111 0.75400 0.40014
 C423 C 0.56235 0.77887 0.39690
 C424 C 0.55505 0.80825 0.40835
 C425 C 0.52579 0.81299 0.42111
 C426 C 0.50445 0.78805 0.42403
 H427 H 0.51235 0.69878 0.43238
 H428 H 0.46360 0.76334 0.37995
 H429 H 0.54518 0.73192 0.38923
 H430 H 0.48119 0.79219 0.43265
 H431 H 0.44304 0.66469 0.37455
 H432 H 0.57088 0.82800 0.40530
 Zr433 Zr 0.02338 -0.03944 1.03947
 O434 O 0.05500 -0.02637 1.07142
 O435 O 0.01125 -0.08388 1.05265
 O436 O -0.00050 -0.03460 1.07891
 O437 O 0.08059 -0.06158 0.99039
 O438 O -0.04302 -0.00413 1.06914
 O439 O 0.06627 -0.06561 1.03632
 O440 O -0.02313 -0.10287 1.02038
 O441 O -0.02471 -0.04215 1.03037
 O442 O 0.01940 -0.06374 1.00142
 O443 O 0.00781 0.00726 1.03810
 O444 O 0.05098 -0.01414 1.01055
 Zr445 Zr -0.01797 0.00708 0.95938
 Zr446 Zr -0.03961 0.00449 1.02629
 Zr447 Zr 0.04397 -0.03728 0.97208
 Zr448 Zr -0.02803 -0.06515 0.99189
 O449 O 0.08837 -0.02051 0.95870
 O450 O -0.07346 -0.07366 1.00875
 O451 O -0.00332 -0.04031 0.96062
 O452 O -0.04499 -0.01916 0.98813
 O453 O -0.01442 0.03129 0.99746
 O454 O 0.02988 0.00934 0.96882
 C455 C -0.00631 -0.10555 1.04252
 C456 C 0.08477 -0.07143 1.01522
 C457 C -0.02584 -0.01956 1.08608
 O458 O -0.08464 -0.01422 1.03556
 O459 O -0.07462 0.03169 1.00720
 O460 O -0.05925 0.03468 0.96155
 C461 C -0.07823 0.04097 0.98195
 O462 O 0.07125 0.03553 1.03572
 Zr463 Zr 0.03321 0.03146 1.00760
 O464 O -0.00550 0.05317 0.94759
 O465 O -0.04260 0.04823 1.04749
 O466 O 0.02249 0.06870 1.03573
 O467 O 0.07579 0.04700 0.98893
 O468 O 0.02262 0.07115 0.98443
 C469 C 0.00852 0.07535 0.96138
 O470 O -0.05120 -0.00518 0.92839
 O471 O 0.04614 -0.08187 0.95221
 O472 O 0.00264 -0.00144 0.91948
 O473 O 0.04523 -0.03179 0.92881
 O474 O -0.01497 -0.10578 0.96867
 O475 O -0.05831 -0.07239 0.95733
 C476 C 0.02714 -0.01732 0.91201
 H477 H 0.02787 -0.08534 1.00183
 H478 H -0.06730 -0.02013 0.98250
 H479 H 0.04235 0.02061 0.95450
 H480 H 0.01031 0.01781 1.05644
 H481 H -0.07753 -0.09657 1.00732
 H482 H -0.09563 0.00149 1.04748
 H483 H -0.06365 0.04901 1.05646
 H484 H 0.03988 0.08419 1.03435
 H485 H -0.02993 -0.12284 0.97358
 H486 H 0.06730 -0.08346 0.94352
 H487 H 0.09654 -0.00722 0.97411
 H488 H 0.07945 0.06901 0.99508
 H489 H -0.07105 -0.09163 0.96035
 H490 H -0.05226 0.01263 0.91519
 H491 H 0.05653 -0.04467 1.08401
 H492 H 0.06293 0.03079 1.05455
 Zr493 Zr 0.52086 0.46016 0.54165
 O494 O 0.55729 0.48079 0.56545
 O495 O 0.51092 0.42125 0.56479
 O496 O 0.50290 0.47120 0.58232
 O497 O 0.56709 0.42268 0.49113
 O498 O 0.45922 0.50044 0.57367
 O499 O 0.56223 0.43167 0.53806
 O500 O 0.46786 0.39955 0.54421
 O501 O 0.47168 0.45796 0.53971
 O502 O 0.50937 0.42779 0.51012
 O503 O 0.50573 0.50629 0.53457
 O504 O 0.54358 0.47659 0.50546
 Zr505 Zr 0.46649 0.48962 0.46196
 Zr506 Zr 0.45672 0.50316 0.53002
 Zr507 Zr 0.52898 0.44566 0.47353
 Zr508 Zr 0.46078 0.42685 0.50757
 O509 O 0.57115 0.45985 0.45347
 O510 O 0.41715 0.42410 0.52910
 O511 O 0.48010 0.44272 0.46939
 O512 O 0.44409 0.47189 0.49799
 O513 O 0.47748 0.52147 0.49412
 O514 O 0.51545 0.49138 0.46448
 C515 C 0.48878 0.40107 0.56367
 C516 C 0.57611 0.41931 0.51637
 C517 C 0.47814 0.48657 0.59033
 O518 O 0.41230 0.48893 0.54564
 O519 O 0.42120 0.52990 0.51095
 O520 O 0.42706 0.51973 0.46433
 C521 C 0.41324 0.53319 0.48526
 O522 O 0.56556 0.52866 0.52403
 Zr523 Zr 0.52640 0.52159 0.49740
 O524 O 0.47546 0.53198 0.44131
 O525 O 0.45705 0.54870 0.54802
 O526 O 0.52204 0.56613 0.51726
 O527 O 0.56658 0.52810 0.47156
 O528 O 0.51379 0.55492 0.46788
 C529 C 0.49359 0.55499 0.44817
 O530 O 0.42862 0.47000 0.43924
 O531 O 0.52775 0.39788 0.46080
 O532 O 0.48194 0.47568 0.42135
 O533 O 0.52200 0.44220 0.43033
 O534 O 0.47031 0.38054 0.49320
 O535 O 0.42609 0.41248 0.47838
 C536 C 0.50385 0.45654 0.41339
 H537 H 0.51711 0.40633 0.51380
 H538 H 0.42104 0.47108 0.49546
 H539 H 0.52553 0.49899 0.44712
 H540 H 0.51154 0.52036 0.55030
 H541 H 0.41268 0.40156 0.53245
 H542 H 0.40404 0.50693 0.55670
 H543 H 0.46403 0.56313 0.53311
 H544 H 0.53701 0.58070 0.50800
 H545 H 0.45650 0.36615 0.50394
 H546 H 0.54697 0.39403 0.44947
 H547 H 0.57915 0.44130 0.44302
 H548 H 0.57085 0.55101 0.47090
 H549 H 0.41498 0.39359 0.48543
 H550 H 0.42354 0.48508 0.42430
 H551 H 0.56162 0.46601 0.58081
 H552 H 0.57718 0.54784 0.51841
 Zr553 Zr 0.47833 1.04952 0.54077
 O554 O 0.44586 1.03316 0.57102
 O555 O 0.48725 1.09481 0.55533
 O556 O 0.50047 1.04586 0.58054
 O557 O 0.42169 1.06708 0.49163
 O558 O 0.54513 1.01820 0.57084
 O559 O 0.43467 1.07388 0.53745
 O560 O 0.52173 1.11539 0.52376
 O561 O 0.52670 1.05438 0.53305
 O562 O 0.48321 1.07432 0.50350
 O563 O 0.49592 1.00350 0.53817
 O564 O 0.45347 1.02336 0.51038
 Zr565 Zr 0.52639 1.00673 0.46037
 Zr566 Zr 0.54370 1.00848 0.52805
 Zr567 Zr 0.46125 1.04733 0.47294
 Zr568 Zr 0.53105 1.07808 0.49536
 O569 O 0.42015 1.02481 0.45788
 O570 O 0.57440 1.08911 0.51473
 O571 O 0.50897 1.05305 0.46291
 O572 O 0.55062 1.03309 0.49086
 O573 O 0.52138 0.98151 0.49749
 O574 O 0.47816 1.00189 0.46822
 C575 C 0.50386 1.11746 0.54556
 C576 C 0.41635 1.07761 0.51627
 C577 C 0.52671 1.03296 0.58771
 O578 O 0.58828 1.02803 0.53740
 O579 O 0.57893 0.98016 0.50998
 O580 O 0.56804 0.97960 0.46347
 C581 C 0.58470 0.97152 0.48468
 O582 O 0.43863 0.97251 0.53780
 Zr583 Zr 0.47334 0.97869 0.50615
 O584 O 0.51714 0.96079 0.44627
 O585 O 0.54669 0.96581 0.55023
 O586 O 0.48664 0.93964 0.53052
 O587 O 0.43029 0.96548 0.48724
 O588 O 0.48366 0.94112 0.47935
 C589 C 0.50107 0.93845 0.45749
 O590 O 0.56106 1.02132 0.43128
 O591 O 0.45330 1.09265 0.45663
 O592 O 0.50830 1.01670 0.41999
 O593 O 0.46464 1.04563 0.42953
 O594 O 0.51746 1.11769 0.47186
 O595 O 0.56379 1.08700 0.46262
 C596 C 0.48454 1.03343 0.41244
 H597 H 0.47346 1.09537 0.50418
 H598 H 0.57325 1.03478 0.48609
 H599 H 0.46719 0.99069 0.45288
 H600 H 0.49284 0.99245 0.55608
 H601 H 0.57736 1.11219 0.51372
 H602 H 0.59889 1.01308 0.54990
 H603 H 0.56756 0.96560 0.55927
 H604 H 0.47265 0.92179 0.52552
 H605 H 0.53094 1.13565 0.47765
 H606 H 0.43266 1.09199 0.44718
 H607 H 0.40913 1.04022 0.44611
 H608 H 0.42783 0.94245 0.48941
 H609 H 0.57490 1.10707 0.46646
 H610 H 0.56391 1.00382 0.41766
 H611 H 0.44236 1.05083 0.58432
 H612 H 0.43002 0.95087 0.53670
 Zr613 Zr -0.02312 0.54671 1.03969
 O614 O -0.05842 0.52611 1.06497
 O615 O -0.01666 0.58956 1.05977
 O616 O -0.00457 0.54025 1.08090
 O617 O -0.07107 0.57504 0.98688
 O618 O 0.03921 0.51074 1.07301
 O619 O -0.06656 0.57118 1.03426
 O620 O 0.02401 0.61213 1.03595
 O621 O 0.02587 0.55122 1.03753
 O622 O -0.01275 0.57652 1.00626
 O623 O -0.00596 0.50079 1.03412
 O624 O -0.04348 0.52554 1.00402
 Zr625 Zr 0.03574 0.51431 0.96138
 Zr626 Zr 0.04282 0.50586 1.02985
 Zr627 Zr -0.03030 0.55459 0.97069
 Zr628 Zr 0.03587 0.58001 1.00373
 O629 O -0.07034 0.53574 0.95047
 O630 O 0.07698 0.58732 1.02768
 O631 O 0.01845 0.56041 0.96651
 O632 O 0.05555 0.53543 0.99693
 O633 O 0.02512 0.48391 0.99429
 O634 O -0.01325 0.50960 0.96329
 C635 C 0.00301 0.61190 1.05549
 C636 C -0.08097 0.57992 1.01185
 C637 C 0.02060 0.52604 1.08926
 O638 O 0.08645 0.52218 1.04541
 O639 O 0.07906 0.47826 1.01287
 O640 O 0.07616 0.48587 0.96593
 C641 C 0.08868 0.47360 0.98778
 O642 O -0.06264 0.47071 1.02354
 Zr643 Zr -0.02365 0.48104 0.99714
 O644 O 0.02933 0.47133 0.94106
 O645 O 0.04150 0.46086 1.04834
 O646 O -0.01339 0.43860 1.01797
 O647 O -0.06387 0.47113 0.97267
 O648 O -0.00972 0.44785 0.96665
 C649 C 0.01108 0.44826 0.94701
 O650 O 0.07414 0.53380 0.93904
 O651 O -0.03305 0.60157 0.95678
 O652 O 0.02282 0.52699 0.92035
 O653 O -0.02153 0.55579 0.92768
 O654 O 0.02555 0.62351 0.98469
 O655 O 0.07222 0.59269 0.97526
 C656 C -0.00017 0.54395 0.91173
 H657 H -0.02219 0.59764 1.00830
 H658 H 0.07868 0.53715 0.99494
 H659 H -0.02223 0.50065 0.94595
 H660 H -0.01163 0.48763 1.05035
 H661 H 0.08041 0.61032 1.02928
 H662 H 0.09511 0.50512 1.05696
 H663 H 0.06110 0.45866 1.05917
 H664 H -0.02589 0.42165 1.00898
 H665 H 0.03846 0.63993 0.99401
 H666 H -0.05205 0.60296 0.94503
 H667 H -0.07892 0.55264 0.93870
 H668 H -0.06639 0.44796 0.97181
 H669 H 0.08273 0.61213 0.98199
 H670 H 0.07979 0.51852 0.92408
 H671 H -0.06377 0.54200 1.07949
 H672 H -0.07010 0.44900 1.01973
 Zr673 Zr -0.01002 0.44672 0.46718
 O674 O -0.04429 0.45434 0.43625
 O675 O 0.00855 0.40353 0.45461
 O676 O 0.01104 0.45094 0.42713
 O677 O -0.06411 0.42313 0.51726
 O678 O 0.05145 0.48563 0.43401
 O679 O -0.05024 0.41686 0.47144
 O680 O 0.04863 0.39488 0.48502
 O681 O 0.03812 0.45065 0.47551
 O682 O -0.00268 0.42578 0.50584
 O683 O 0.00063 0.49511 0.46611
 O684 O -0.03917 0.47148 0.49539
 Zr685 Zr 0.02833 0.50380 0.54406
 Zr686 Zr 0.04830 0.49865 0.47649
 Zr687 Zr -0.02939 0.45188 0.53429
 Zr688 Zr 0.04478 0.43132 0.51483
 O689 O -0.07471 0.46800 0.54584
 O690 O 0.09243 0.42714 0.50205
 O691 O 0.01808 0.45519 0.54530
 O692 O 0.05706 0.47893 0.51560
 O693 O 0.02151 0.52472 0.50511
 O694 O -0.01954 0.49996 0.53536
 C695 C 0.03266 0.38843 0.46306
 C696 C -0.06848 0.41196 0.49272
 C697 C 0.03497 0.46705 0.41847
 O698 O 0.09471 0.48398 0.46734
 O699 O 0.08063 0.53113 0.49331
 O700 O 0.06725 0.53496 0.53952
 C701 C 0.08455 0.54204 0.51817
 O702 O -0.06070 0.51638 0.46443
 Zr703 Zr -0.02611 0.51916 0.49612
 O704 O 0.01266 0.54905 0.55443
 O705 O 0.04648 0.54000 0.45241
 O706 O -0.01753 0.55692 0.46844
 O707 O -0.07099 0.52817 0.51395
 O708 O -0.02175 0.56078 0.51977
 C709 C -0.00574 0.56783 0.54159
 O710 O 0.06284 0.49693 0.57495
 O711 O -0.02892 0.40876 0.55597
 O712 O 0.00814 0.49694 0.58454
 O713 O -0.03020 0.46006 0.57715
 O714 O 0.03482 0.38920 0.53660
 O715 O 0.07288 0.43040 0.55128
 C716 C -0.01437 0.47859 0.59289
 H717 H -0.00873 0.40327 0.50583
 H718 H 0.07942 0.48082 0.52079
 H719 H -0.03276 0.51093 0.54939
 H720 H -0.00358 0.50390 0.44747
 H721 H 0.09910 0.40530 0.50578
 H722 H 0.10379 0.49947 0.45417
 H723 H 0.06723 0.54213 0.44307
 H724 H -0.03384 0.57303 0.47205
 H725 H 0.05202 0.37431 0.53220
 H726 H -0.04985 0.40626 0.56494
 H727 H -0.08386 0.45241 0.55888
 H728 H -0.07650 0.55015 0.50946
 H729 H 0.08558 0.41097 0.55126
 H730 H 0.06252 0.51576 0.58733
 H731 H -0.04428 0.43559 0.42376
 H732 H -0.07165 0.53679 0.46315
 Zr733 Zr 0.48632 -0.05481 -0.04043
 O734 O 0.45085 -0.04135 -0.06851
 O735 O 0.49908 -0.09803 -0.05767
 O736 O 0.50571 -0.04587 -0.08062
 O737 O 0.43806 -0.08609 0.01126
 O738 O 0.54851 -0.01451 -0.07289
 O739 O 0.44467 -0.08328 -0.03591
 O740 O 0.54582 -0.10674 -0.03687
 O741 O 0.53532 -0.05294 -0.03563
 O742 O 0.49685 -0.08126 -0.00525
 O743 O 0.49912 -0.00696 -0.03736
 O744 O 0.46077 -0.03369 -0.00761
 Zr745 Zr 0.53360 -0.00981 0.03858
 Zr746 Zr 0.54776 -0.00576 -0.02974
 Zr747 Zr 0.47399 -0.05878 0.02794
 Zr748 Zr 0.54520 -0.07827 -0.00008
 O749 O 0.42955 -0.04492 0.04387
 O750 O 0.59212 -0.08075 -0.01524
 O751 O 0.52243 -0.05821 0.03518
 O752 O 0.55919 -0.03132 0.00583
 O753 O 0.52404 0.01665 0.00295
 O754 O 0.48519 -0.01139 0.03258
 C755 C 0.52556 -0.11193 -0.05639
 C756 C 0.42973 -0.09270 -0.01371
 C757 C 0.53055 -0.03091 -0.08890
 O758 O 0.59347 -0.01912 -0.04275
 O759 O 0.58198 0.02413 -0.01142
 O760 O 0.57267 0.02106 0.03549
 C761 C 0.58819 0.03129 0.01416
 O762 O 0.43847 0.01472 -0.03277
 Zr763 Zr 0.47562 0.01325 -0.00345
 O764 O 0.52076 0.03446 0.05437
 O765 O 0.54445 0.03817 -0.04972
 O766 O 0.48285 0.05439 -0.02738
 O767 O 0.43268 0.02155 0.01809
 O768 O 0.48309 0.05099 0.02419
 C769 C 0.50141 0.05491 0.04511
 O770 O 0.56975 -0.02354 0.06591
 O771 O 0.47772 -0.10395 0.04568
 O772 O 0.51536 -0.01875 0.07928
 O773 O 0.47574 -0.05403 0.07135
 O774 O 0.53611 -0.12448 0.01428
 O775 O 0.57523 -0.08782 0.03399
 C776 C 0.49246 -0.03663 0.08744
 H777 H 0.49004 -0.10345 -0.00724
 H778 H 0.58198 -0.03055 0.00970
 H779 H 0.47337 -0.00166 0.04809
 H780 H 0.49377 0.00433 -0.05464
 H781 H 0.59775 -0.10328 -0.01674
 H782 H 0.60182 -0.00195 -0.05458
 H783 H 0.56469 0.04143 -0.05965
 H784 H 0.46724 0.07014 -0.02096
 H785 H 0.55190 -0.13834 0.00525
 H786 H 0.45770 -0.10802 0.05574
 H787 H 0.42167 -0.06210 0.05594
 H788 H 0.42736 0.04398 0.01551
 H789 H 0.58775 -0.10687 0.02982
 H790 H 0.57178 -0.00671 0.08027
 H791 H 0.44880 -0.05868 -0.08238
 H792 H 0.42828 0.03558 -0.03182
 Zr793 Zr 0.49577 0.56220 -0.02987
 O794 O 0.52762 0.55616 -0.06365
 O795 O 0.47549 0.60507 -0.04001
 O796 O 0.47273 0.55604 -0.06879
 O797 O 0.54931 0.59171 0.01830
 O798 O 0.43606 0.51795 -0.06000
 O799 O 0.53547 0.59303 -0.02760
 O800 O 0.43545 0.61097 -0.00838
 O801 O 0.44826 0.55453 -0.01980
 O802 O 0.48783 0.58349 0.00911
 O803 O 0.48946 0.51308 -0.03024
 O804 O 0.52772 0.54096 -0.00254
 Zr805 Zr 0.46491 0.50415 0.04873
 Zr806 Zr 0.44266 0.50573 -0.01797
 Zr807 Zr 0.51741 0.56075 0.03670
 Zr808 Zr 0.44122 0.57400 0.01982
 O809 O 0.56415 0.54899 0.04707
 O810 O 0.39368 0.57404 0.00702
 O811 O 0.47070 0.55344 0.04941
 O812 O 0.43321 0.52557 0.02145
 O813 O 0.47252 0.48282 0.00964
 O814 O 0.51205 0.51206 0.03833
 C815 C 0.45133 0.61924 -0.02994
 C816 C 0.55335 0.60075 -0.00687
 C817 C 0.44949 0.53814 -0.07608
 O818 O 0.39428 0.51442 -0.02397
 O819 O 0.41501 0.46993 -0.00038
 O820 O 0.42847 0.46985 0.04564
 C821 C 0.41193 0.46002 0.02473
 O822 O 0.55191 0.49693 -0.03462
 Zr823 Zr 0.51918 0.49238 -0.00114
 O824 O 0.48511 0.46103 0.05861
 O825 O 0.44773 0.46479 -0.04299
 O826 O 0.51257 0.45271 -0.02764
 O827 O 0.56560 0.48873 0.01423
 O828 O 0.52062 0.45185 0.02360
 C829 C 0.50575 0.44406 0.04595
 O830 O 0.43118 0.50784 0.08123
 O831 O 0.51386 0.60450 0.05795
 O832 O 0.48516 0.51430 0.08849
 O833 O 0.51940 0.55449 0.07969
 O834 O 0.44781 0.61556 0.04380
 O835 O 0.40907 0.57599 0.05381
 C836 C 0.50565 0.53523 0.09619
 H837 H 0.49227 0.60636 0.00917
 H838 H 0.41121 0.52178 0.02742
 H839 H 0.52664 0.50295 0.05203
 H840 H 0.49370 0.50424 -0.04908
 H841 H 0.38508 0.59523 0.01110
 H842 H 0.38663 0.49853 -0.03761
 H843 H 0.42688 0.46031 -0.05124
 H844 H 0.53044 0.43831 -0.02470
 H845 H 0.42941 0.62914 0.04039
 H846 H 0.53470 0.60903 0.06622
 H847 H 0.57213 0.56576 0.05970
 H848 H 0.57323 0.46734 0.00953
 H849 H 0.42056 0.56929 0.07059
 H850 H 0.43374 0.48921 0.09331
 H851 H 0.52631 0.57525 -0.07532
 H852 H 0.56418 0.47731 -0.03656
 Zr853 Zr 0.00704 1.05259 0.46391
 O854 O 0.04313 1.03695 0.43661
 O855 O -0.00896 1.09211 0.44345
 O856 O -0.01186 1.04254 0.42383
 O857 O 0.05387 1.08996 0.51351
 O858 O -0.05295 1.00952 0.43351
 O859 O 0.04754 1.08245 0.46662
 O860 O -0.05470 1.10402 0.46583
 O861 O -0.04169 1.04896 0.46898
 O862 O -0.00565 1.08224 0.49716
 O863 O -0.00267 1.00456 0.46997
 O864 O 0.03253 1.03641 0.49835
 Zr865 Zr -0.04041 1.01381 0.54504
 Zr866 Zr -0.05130 1.00192 0.47683
 Zr867 Zr 0.01723 1.06468 0.53189
 Zr868 Zr -0.05398 1.07721 0.50277
 O869 O 0.06058 1.05387 0.55085
 O870 O -0.10036 1.07626 0.48705
 O871 O -0.03128 1.06215 0.53897
 O872 O -0.06572 1.03016 0.51062
 O873 O -0.02803 0.98424 0.51152
 O874 O 0.00830 1.01748 0.54009
 C875 C -0.03521 1.10678 0.44526
 C876 C 0.06230 1.09380 0.48808
 C877 C -0.03678 1.02695 0.41683
 O878 O -0.09840 1.00926 0.46462
 O879 O -0.08244 0.97020 0.49577
 O880 O -0.07692 0.97945 0.54253
 C881 C -0.08960 0.96527 0.52142
 O882 O 0.05824 0.98549 0.47704
 Zr883 Zr 0.02030 0.98935 0.50596
 O884 O -0.02551 0.97343 0.56520
 O885 O -0.04398 0.95766 0.45742
 O886 O 0.01440 0.94503 0.48601
 O887 O 0.06360 0.98618 0.52726
 O888 O 0.01463 0.95546 0.53756
 C889 C -0.00436 0.95325 0.55854
 O890 O -0.07934 1.02743 0.56996
 O891 O 0.01324 1.11224 0.54480
 O892 O -0.02500 1.02898 0.58519
 O893 O 0.01065 1.06725 0.57509
 O894 O -0.04768 1.12476 0.51533
 O895 O -0.08494 1.08630 0.53689
 C896 C -0.00523 1.05071 0.59255
 H897 H 0.00026 1.10441 0.49365
 H898 H -0.08859 1.02821 0.51418
 H899 H 0.02002 1.01079 0.55675
 H900 H 0.00381 0.99209 0.45337
 H901 H -0.10843 1.09801 0.48826
 H902 H -0.10430 0.99166 0.45196
 H903 H -0.06360 0.95241 0.44737
 H904 H 0.03011 0.93061 0.49395
 H905 H -0.06489 1.13694 0.50687
 H906 H 0.03235 1.11743 0.55565
 H907 H 0.06727 1.07281 0.56150
 H908 H 0.07038 0.96396 0.52606
 H909 H -0.09750 1.10530 0.53316
 H910 H -0.08195 1.01117 0.58450
 H911 H 0.04536 1.05304 0.42187
 H912 H 0.06778 0.96439 0.47846
 Zr913 Zr 0.70523 0.27382 0.20803
 O914 O 0.71731 0.30772 0.17777
 O915 O 0.66160 0.25959 0.19378
 O916 O 0.71149 0.25131 0.16835
 O917 O 0.69253 0.33217 0.25377
 O918 O 0.74518 0.21107 0.17753
 O919 O 0.67435 0.31348 0.21303
 O920 O 0.64824 0.21916 0.22239
 O921 O 0.70661 0.22528 0.21572
 O922 O 0.68060 0.26651 0.24539
 O923 O 0.75313 0.26178 0.21011
 O924 O 0.72881 0.30184 0.23773
 Zr925 Zr 0.75385 0.23320 0.28819
 Zr926 Zr 0.75409 0.21400 0.22042
 Zr927 Zr 0.70548 0.29227 0.27529
 Zr928 Zr 0.68349 0.21873 0.25357
 O929 O 0.72088 0.33426 0.29534
 O930 O 0.67823 0.17216 0.23818
 O931 O 0.70575 0.24445 0.28554
 O932 O 0.73050 0.20525 0.25811
 O933 O 0.77860 0.23990 0.25069
 O934 O 0.75254 0.28122 0.27981
 C935 C 0.64360 0.23684 0.20108
 C936 C 0.67379 0.33399 0.23318
 C937 C 0.72818 0.22717 0.16091
 O938 O 0.73899 0.16772 0.21064
 O939 O 0.78445 0.18105 0.23815
 O940 O 0.78573 0.19481 0.28428
 C941 C 0.79429 0.17755 0.26319
 O942 O 0.78035 0.32052 0.20868
 Zr943 Zr 0.77544 0.28766 0.24160
 O944 O 0.79690 0.25169 0.30281
 O945 O 0.79755 0.21496 0.19868
 O946 O 0.81640 0.27650 0.21809
 O947 O 0.77996 0.33361 0.25876
 O948 O 0.81305 0.28556 0.26920
 C949 C 0.81710 0.27105 0.29212
 O950 O 0.74759 0.19755 0.31831
 O951 O 0.65799 0.29719 0.28803
 O952 O 0.73786 0.24938 0.32848
 O953 O 0.70466 0.28923 0.31848
 O954 O 0.64216 0.22931 0.27655
 O955 O 0.67480 0.18526 0.28523
 C956 C 0.71792 0.27103 0.33582
 H957 H 0.65836 0.27304 0.24427
 H958 H 0.73135 0.18274 0.26309
 H959 H 0.76149 0.29429 0.29502
 H960 H 0.76387 0.26565 0.19206
 H961 H 0.65567 0.16644 0.23990
 H962 H 0.75496 0.15852 0.19784
 H963 H 0.79983 0.19427 0.18922
 H964 H 0.83270 0.29251 0.22235
 H965 H 0.62683 0.21235 0.27235
 H966 H 0.65564 0.31887 0.29534
 H967 H 0.70260 0.34379 0.30508
 H968 H 0.80238 0.33981 0.25748
 H969 H 0.68654 0.19256 0.30184
 H970 H 0.76526 0.19952 0.33164
 H971 H 0.69905 0.30907 0.16513
 H972 H 0.80058 0.33192 0.21059
 Zr973 Zr 0.80442 0.72603 0.70901
 O974 O 0.79830 0.69074 0.67809
 O975 O 0.84799 0.74472 0.69833
 O976 O 0.79939 0.74615 0.66875
 O977 O 0.82902 0.67400 0.75865
 O978 O 0.76573 0.78676 0.67632
 O979 O 0.83806 0.68933 0.71387
 O980 O 0.85793 0.78246 0.73081
 O981 O 0.79962 0.77432 0.71727
 O982 O 0.82389 0.73469 0.74827
 O983 O 0.75588 0.73499 0.70749
 O984 O 0.77990 0.69598 0.73653
 Zr985 Zr 0.74526 0.76325 0.78523
 Zr986 Zr 0.75120 0.78266 0.71807
 Zr987 Zr 0.79826 0.70707 0.77586
 Zr988 Zr 0.81774 0.78208 0.75707
 O989 O 0.78280 0.66136 0.78668
 O990 O 0.82191 0.82809 0.74076
 O991 O 0.79393 0.75470 0.78696
 O992 O 0.76982 0.79279 0.75747
 O993 O 0.72529 0.75515 0.74595
 O994 O 0.75011 0.71531 0.77642
 C995 C 0.86564 0.76608 0.70917
 C996 C 0.84396 0.67207 0.73531
 C997 C 0.78379 0.77025 0.66035
 O998 O 0.76334 0.83018 0.71059
 O999 O 0.71578 0.81226 0.73419
 O1000 O 0.71249 0.80028 0.78046
 C1001 C 0.70386 0.81583 0.75878
 O1002 O 0.73631 0.67260 0.70508
 Zr1003 Zr 0.73188 0.70758 0.73681
 O1004 O 0.70042 0.74615 0.79494
 O1005 O 0.71169 0.77865 0.69173
 O1006 O 0.69482 0.71401 0.70814
 O1007 O 0.72327 0.66281 0.75452
 O1008 O 0.68955 0.71117 0.75979
 C1009 C 0.68201 0.72737 0.78161
 O1010 O 0.75102 0.79847 0.81629
 O1011 O 0.84058 0.70879 0.79880
 O1012 O 0.75180 0.74361 0.82564
 O1013 O 0.79008 0.70690 0.81875
 O1014 O 0.85716 0.77453 0.78292
 O1015 O 0.81700 0.81378 0.79164
 C1016 C 0.77086 0.72219 0.83429
 H1017 H 0.84650 0.72964 0.74945
 H1018 H 0.76693 0.81520 0.76261
 H1019 H 0.73928 0.70188 0.79028
 H1020 H 0.74754 0.73034 0.68867
 H1021 H 0.84361 0.83555 0.74434
 H1022 H 0.74815 0.83818 0.69683
 H1023 H 0.70857 0.79958 0.68329
 H1024 H 0.67900 0.69728 0.71159
 H1025 H 0.87257 0.79156 0.77923
 H1026 H 0.84284 0.68819 0.80806
 H1027 H 0.79861 0.65271 0.79955
 H1028 H 0.70151 0.65658 0.74961
 H1029 H 0.83541 0.82807 0.79048
 H1030 H 0.73202 0.79777 0.82841
 H1031 H 0.81714 0.69153 0.66579
 H1032 H 0.71643 0.66051 0.70365
 Zr1033 Zr 0.19552 0.24397 0.78378
 O1034 O 0.20487 0.21405 0.81773
 O1035 O 0.14955 0.25726 0.79197
 O1036 O 0.19621 0.26904 0.82247
 O1037 O 0.17830 0.18394 0.73691
 O1038 O 0.22820 0.31107 0.81344
 O1039 O 0.16841 0.20160 0.78125
 O1040 O 0.13616 0.29005 0.75693
 O1041 O 0.19532 0.29157 0.77261
 O1042 O 0.17622 0.24603 0.74387
 O1043 O 0.24269 0.25884 0.78528
 O1044 O 0.22357 0.21435 0.75845
 Zr1045 Zr 0.25228 0.28023 0.70618
 Zr1046 Zr 0.24264 0.30555 0.77177
 Zr1047 Zr 0.20526 0.21913 0.71829
 Zr1048 Zr 0.17744 0.29293 0.73223
 O1049 O 0.22597 0.17474 0.71046
 O1050 O 0.16818 0.33929 0.74654
 O1051 O 0.20482 0.26579 0.70450
 O1052 O 0.22396 0.30930 0.73166
 O1053 O 0.27168 0.27847 0.74614
 O1054 O 0.25229 0.23290 0.71761
 C1055 C 0.12979 0.27458 0.77920
 C1056 C 0.16545 0.18137 0.76105
 C1057 C 0.21019 0.29495 0.82962
 O1058 O 0.22521 0.35178 0.77653
 O1059 O 0.27439 0.33815 0.75407
 O1060 O 0.28197 0.32054 0.70937
 C1061 C 0.28704 0.34011 0.72965
 O1062 O 0.26698 0.19886 0.79133
 Zr1063 Zr 0.26985 0.23145 0.75804
 O1064 O 0.29819 0.26510 0.69757
 O1065 O 0.28288 0.30880 0.79731
 O1066 O 0.30524 0.24067 0.78798
 O1067 O 0.28452 0.18782 0.74072
 O1068 O 0.31245 0.24315 0.73845
 C1069 C 0.31898 0.25455 0.71438
 O1070 O 0.24570 0.31269 0.67354
 O1071 O 0.16334 0.21308 0.69525
 O1072 O 0.24593 0.25839 0.66640
 O1073 O 0.21422 0.21627 0.67569
 O1074 O 0.13953 0.27935 0.70623
 O1075 O 0.17612 0.32087 0.69572
 C1076 C 0.23006 0.23368 0.65907
 H1077 H 0.15451 0.23769 0.74276
 H1078 H 0.22456 0.33129 0.72511
 H1079 H 0.26462 0.21977 0.70439
 H1080 H 0.25106 0.25704 0.80440
 H1081 H 0.14602 0.34397 0.74209
 H1082 H 0.23923 0.36282 0.78987
 H1083 H 0.28325 0.33039 0.80528
 H1084 H 0.32158 0.22432 0.78565
 H1085 H 0.12286 0.29539 0.70839
 H1086 H 0.16321 0.19124 0.68783
 H1087 H 0.21184 0.16315 0.69758
 H1088 H 0.30654 0.18475 0.74651
 H1089 H 0.15751 0.33471 0.69661
 H1090 H 0.26489 0.31212 0.66163
 H1091 H 0.18535 0.21292 0.82914
 H1092 H 0.28538 0.18472 0.79069
 Zr1093 Zr 0.29719 0.75865 0.27834
 O1094 O 0.28044 0.79426 0.30566
 O1095 O 0.34184 0.75133 0.29338
 O1096 O 0.29234 0.74097 0.31977
 O1097 O 0.32318 0.80736 0.22530
 O1098 O 0.26183 0.69713 0.31396
 O1099 O 0.32292 0.80112 0.27262
 O1100 O 0.35919 0.70833 0.26917
 O1101 O 0.30004 0.70958 0.27496
 O1102 O 0.32338 0.74863 0.24219
 O1103 O 0.25055 0.74245 0.27691
 O1104 O 0.27358 0.78103 0.24558
 Zr1105 Zr 0.25473 0.70363 0.20204
 Zr1106 Zr 0.25375 0.69370 0.27102
 Zr1107 Zr 0.29879 0.76825 0.20945
 Zr1108 Zr 0.32470 0.70007 0.23817
 O1109 O 0.27932 0.80954 0.19257
 O1110 O 0.33231 0.65697 0.25887
 O1111 O 0.30190 0.71942 0.20357
 O1112 O 0.27905 0.68194 0.23479
 O1113 O 0.22868 0.71339 0.23832
 O1114 O 0.25240 0.75262 0.20589
 C1115 C 0.36182 0.72956 0.28847
 C1116 C 0.33068 0.81591 0.25014
 C1117 C 0.27723 0.71672 0.32924
 O1118 O 0.27131 0.65030 0.28528
 O1119 O 0.22593 0.65656 0.25597
 O1120 O 0.22802 0.66171 0.20868
 C1121 C 0.21888 0.64754 0.23117
 O1122 O 0.22357 0.80111 0.27068
 Zr1123 Zr 0.22802 0.76225 0.24274
 O1124 O 0.20894 0.71158 0.18750
 O1125 O 0.20962 0.69421 0.29165
 O1126 O 0.18802 0.75364 0.26830
 O1127 O 0.21613 0.80278 0.21972
 O1128 O 0.19035 0.74953 0.21710
 C1129 C 0.18695 0.72924 0.19733
 O1130 O 0.26924 0.66699 0.17478
 O1131 O 0.34400 0.76999 0.19070
 O1132 O 0.26387 0.71927 0.16053
 O1133 O 0.29678 0.76144 0.16631
 O1134 O 0.36724 0.71003 0.21670
 O1135 O 0.33275 0.66598 0.20619
 C1136 C 0.28157 0.74176 0.15112
 H1137 H 0.34505 0.75719 0.24258
 H1138 H 0.28012 0.65889 0.23195
 H1139 H 0.24185 0.76241 0.18985
 H1140 H 0.23915 0.74789 0.29438
 H1141 H 0.35520 0.65284 0.25823
 H1142 H 0.25547 0.64167 0.29845
 H1143 H 0.20844 0.67494 0.30308
 H1144 H 0.17096 0.76751 0.26188
 H1145 H 0.38258 0.69390 0.22230
 H1146 H 0.34538 0.78984 0.18006
 H1147 H 0.29555 0.81867 0.18006
 H1148 H 0.19327 0.80623 0.22231
 H1149 H 0.35096 0.65281 0.21111
 H1150 H 0.25157 0.66278 0.16185
 H1151 H 0.29753 0.79888 0.31907
 H1152 H 0.20217 0.80994 0.26936
 Zr1153 Zr 0.20476 0.77899 0.70495
 O1154 O 0.22018 0.81430 0.67716
 O1155 O 0.16333 0.76417 0.68622
 O1156 O 0.21287 0.75873 0.66479
 O1157 O 0.17377 0.82896 0.75550
 O1158 O 0.24673 0.71856 0.67328
 O1159 O 0.17559 0.81972 0.70853
 O1160 O 0.14882 0.72125 0.71176
 O1161 O 0.20608 0.73019 0.71041
 O1162 O 0.17714 0.76878 0.74004
 O1163 O 0.25248 0.76717 0.70888
 O1164 O 0.22477 0.80517 0.73795
 Zr1165 Zr 0.24680 0.73283 0.78483
 Zr1166 Zr 0.25307 0.71867 0.71653
 Zr1167 Zr 0.19850 0.79223 0.77328
 Zr1168 Zr 0.17973 0.72053 0.74601
 O1169 O 0.21350 0.83565 0.79073
 O1170 O 0.17702 0.67451 0.72870
 O1171 O 0.19872 0.74386 0.78092
 O1172 O 0.22638 0.70701 0.75188
 O1173 O 0.27425 0.74260 0.74946
 O1174 O 0.24570 0.78148 0.77939
 C1175 C 0.14631 0.73980 0.69083
 C1176 C 0.16681 0.83582 0.73034
 C1177 C 0.22936 0.73469 0.65699
 O1178 O 0.23964 0.67346 0.70200
 O1179 O 0.28147 0.68410 0.73478
 O1180 O 0.27742 0.69363 0.78163
 C1181 C 0.28758 0.67769 0.76036
 O1182 O 0.27328 0.82933 0.71517
 Zr1183 Zr 0.27148 0.79103 0.74329
 O1184 O 0.29075 0.74579 0.80064
 O1185 O 0.29824 0.72222 0.69810
 O1186 O 0.31267 0.78626 0.71841
 O1187 O 0.27976 0.83286 0.76661
 O1188 O 0.30965 0.78154 0.76931
 C1189 C 0.31263 0.76301 0.79008
 O1190 O 0.23389 0.69561 0.81162
 O1191 O 0.15182 0.79135 0.78896
 O1192 O 0.23421 0.75001 0.82541
 O1193 O 0.19787 0.78759 0.81654
 O1194 O 0.13451 0.72916 0.76323
 O1195 O 0.17120 0.68906 0.77944
 C1196 C 0.21383 0.77086 0.83337
 H1197 H 0.15502 0.77536 0.73783
 H1198 H 0.22682 0.68418 0.75563
 H1199 H 0.25449 0.79302 0.79562
 H1200 H 0.26429 0.77251 0.69167
 H1201 H 0.15456 0.66821 0.72859
 H1202 H 0.25754 0.66501 0.69095
 H1203 H 0.30171 0.70234 0.68761
 H1204 H 0.32829 0.80180 0.72532
 H1205 H 0.12019 0.71286 0.75556
 H1206 H 0.14843 0.81135 0.79931
 H1207 H 0.19567 0.84400 0.80191
 H1208 H 0.30240 0.83803 0.76460
 H1209 H 0.15234 0.67612 0.77534
 H1210 H 0.25058 0.69409 0.82589
 H1211 H 0.20351 0.81645 0.66296
 H1212 H 0.29336 0.84091 0.71747
 Zr1213 Zr 0.30410 0.22632 0.20694
 O1214 O 0.29339 0.18969 0.17829
 O1215 O 0.34513 0.24488 0.18933
 O1216 O 0.29357 0.24380 0.16652
 O1217 O 0.33676 0.17812 0.25729
 O1218 O 0.25809 0.28276 0.17535
 O1219 O 0.33506 0.18709 0.21038
 O1220 O 0.35672 0.28754 0.21685
 O1221 O 0.29962 0.27497 0.21312
 O1222 O 0.32973 0.23799 0.24272
 O1223 O 0.25555 0.23492 0.21067
 O1224 O 0.28458 0.19892 0.23930
 Zr1225 Zr 0.25631 0.26931 0.28703
 Zr1226 Zr 0.25169 0.28328 0.21886
 Zr1227 Zr 0.30887 0.21307 0.27534
 Zr1228 Zr 0.32379 0.28594 0.24968
 O1229 O 0.29618 0.16847 0.29127
 O1230 O 0.32447 0.33207 0.23323
 O1231 O 0.30513 0.26131 0.28385
 O1232 O 0.27621 0.29642 0.25489
 O1233 O 0.23066 0.25802 0.25116
 O1234 O 0.26082 0.22087 0.28080
 C1235 C 0.36106 0.26969 0.19545
 C1236 C 0.34411 0.17148 0.23197
 C1237 C 0.27490 0.26588 0.15860
 O1238 O 0.26322 0.32917 0.20531
 O1239 O 0.22085 0.31613 0.23736
 O1240 O 0.22326 0.30633 0.28409
 C1241 C 0.21298 0.32163 0.26290
 O1242 O 0.23784 0.17213 0.21498
 Zr1243 Zr 0.23681 0.20990 0.24432
 O1244 O 0.21333 0.25293 0.30283
 O1245 O 0.20693 0.27763 0.20060
 O1246 O 0.19577 0.21286 0.21967
 O1247 O 0.23116 0.16709 0.26620
 O1248 O 0.19760 0.21613 0.27075
 C1249 C 0.19316 0.23365 0.29238
 O1250 O 0.26647 0.30671 0.31505
 O1251 O 0.35469 0.21729 0.29192
 O1252 O 0.26815 0.25281 0.32723
 O1253 O 0.30693 0.21697 0.31890
 O1254 O 0.36850 0.27978 0.26803
 O1255 O 0.32858 0.31792 0.28375
 C1256 C 0.28900 0.23293 0.33527
 H1257 H 0.35230 0.23281 0.24071
 H1258 H 0.27423 0.31912 0.25908
 H1259 H 0.25223 0.20861 0.29661
 H1260 H 0.24442 0.22867 0.19341
 H1261 H 0.34639 0.33997 0.23416
 H1262 H 0.24555 0.33634 0.19367
 H1263 H 0.20244 0.29744 0.19072
 H1264 H 0.18112 0.19607 0.22586
 H1265 H 0.38238 0.29685 0.26114
 H1266 H 0.35899 0.19760 0.30208
 H1267 H 0.31379 0.16148 0.30307
 H1268 H 0.20891 0.16052 0.26421
 H1269 H 0.34715 0.33160 0.28060
 H1270 H 0.24945 0.30706 0.32931
 H1271 H 0.31073 0.18904 0.16433
 H1272 H 0.21840 0.15939 0.21685
 Zr1273 Zr 0.70839 0.73264 0.28857
 O1274 O 0.72921 0.69982 0.31553
 O1275 O 0.66627 0.74073 0.30832
 O1276 O 0.71348 0.75421 0.32862
 O1277 O 0.68308 0.67794 0.23920
 O1278 O 0.73955 0.79997 0.31934
 O1279 O 0.68307 0.68905 0.28594
 O1280 O 0.64278 0.77812 0.28220
 O1281 O 0.70199 0.78103 0.28319
 O1282 O 0.67931 0.73789 0.25401
 O1283 O 0.75354 0.75209 0.28381
 O1284 O 0.73157 0.70917 0.25556
 Zr1285 Zr 0.74163 0.78404 0.20793
 Zr1286 Zr 0.74664 0.80007 0.27593
 Zr1287 Zr 0.70349 0.71736 0.22062
 Zr1288 Zr 0.67410 0.78581 0.24813
 O1289 O 0.72495 0.67603 0.20481
 O1290 O 0.66474 0.83021 0.26678
 O1291 O 0.69599 0.76520 0.21290
 O1292 O 0.71811 0.80694 0.24110
 O1293 O 0.77034 0.77900 0.24281
 O1294 O 0.74831 0.73585 0.21358
 C1295 C 0.64400 0.75975 0.30349
 C1296 C 0.67601 0.67152 0.26457
 C1297 C 0.72570 0.78088 0.33621
 O1298 O 0.72786 0.84410 0.28811
 O1299 O 0.77308 0.83614 0.25631
 O1300 O 0.76671 0.82707 0.20989
 C1301 C 0.77834 0.84286 0.23038
 O1302 O 0.78281 0.69335 0.27731
 Zr1303 Zr 0.77535 0.73090 0.24926
 O1304 O 0.78709 0.77886 0.19131
 O1305 O 0.79094 0.80357 0.29548
 O1306 O 0.81556 0.74173 0.27349
 O1307 O 0.79035 0.69135 0.22549
 O1308 O 0.81120 0.74754 0.22304
 C1309 C 0.81144 0.76648 0.20235
 O1310 O 0.72200 0.81793 0.18121
 O1311 O 0.65768 0.71112 0.20448
 O1312 O 0.73183 0.76505 0.16774
 O1313 O 0.70420 0.72019 0.17718
 O1314 O 0.63082 0.77063 0.23084
 O1315 O 0.66079 0.81622 0.21540
 C1316 C 0.71657 0.74002 0.16034
 H1317 H 0.65830 0.72815 0.25644
 H1318 H 0.71549 0.82958 0.23716
 H1319 H 0.75885 0.72585 0.19733
 H1320 H 0.76603 0.74883 0.30088
 H1321 H 0.64161 0.83259 0.26772
 H1322 H 0.74412 0.85481 0.29950
 H1323 H 0.79165 0.82438 0.30493
 H1324 H 0.83315 0.72883 0.26614
 H1325 H 0.61416 0.78424 0.23889
 H1326 H 0.65737 0.69059 0.19451
 H1327 H 0.70897 0.66482 0.19347
 H1328 H 0.81352 0.69035 0.22709
 H1329 H 0.64082 0.82673 0.22049
 H1330 H 0.73769 0.82211 0.16626
 H1331 H 0.71309 0.69468 0.32985
 H1332 H 0.80410 0.68463 0.27429
 Zr1333 Zr 0.79497 0.26371 0.78568
 O1334 O 0.77525 0.29866 0.81207
 O1335 O 0.83871 0.25810 0.80328
 O1336 O 0.78782 0.24558 0.82677
 O1337 O 0.82204 0.31351 0.73366
 O1338 O 0.76038 0.19997 0.81945
 O1339 O 0.81914 0.30760 0.78087
 O1340 O 0.85715 0.21371 0.78220
 O1341 O 0.80029 0.21481 0.78232
 O1342 O 0.82402 0.25509 0.75105
 O1343 O 0.74939 0.24480 0.78209
 O1344 O 0.77205 0.28462 0.75184
 Zr1345 Zr 0.76052 0.20655 0.70749
 Zr1346 Zr 0.75536 0.19627 0.77621
 Zr1347 Zr 0.80034 0.27335 0.71706
 Zr1348 Zr 0.82793 0.20665 0.74701
 O1349 O 0.78073 0.31441 0.69980
 O1350 O 0.83748 0.16266 0.76550
 O1351 O 0.80660 0.22485 0.71109
 O1352 O 0.78363 0.18602 0.74141
 O1353 O 0.73138 0.21453 0.74228
 O1354 O 0.75526 0.25520 0.71179
 C1355 C 0.85813 0.23532 0.80127
 C1356 C 0.82774 0.32274 0.75870
 C1357 C 0.77356 0.22043 0.83545
 O1358 O 0.77469 0.15397 0.79121
 O1359 O 0.73037 0.15797 0.75946
 O1360 O 0.73524 0.16367 0.71237
 C1361 C 0.72516 0.14900 0.73426
 O1362 O 0.71831 0.30109 0.77491
 Zr1363 Zr 0.72777 0.26317 0.74696
 O1364 O 0.71610 0.21203 0.68977
 O1365 O 0.71016 0.19394 0.79483
 O1366 O 0.68680 0.25089 0.76997
 O1367 O 0.71518 0.30362 0.72413
 O1368 O 0.69334 0.24883 0.71824
 C1369 C 0.69279 0.22894 0.69784
 O1370 O 0.78030 0.17125 0.68154
 O1371 O 0.84627 0.27595 0.69993
 O1372 O 0.76872 0.22361 0.66645
 O1373 O 0.79839 0.26787 0.67365
 O1374 O 0.87161 0.22087 0.72954
 O1375 O 0.84023 0.17415 0.71479
 C1376 C 0.78396 0.24811 0.65786
 H1377 H 0.84516 0.26470 0.75285
 H1378 H 0.78605 0.16307 0.73854
 H1379 H 0.74497 0.26499 0.69573
 H1380 H 0.73660 0.24955 0.79895
 H1381 H 0.86061 0.16005 0.76559
 H1382 H 0.75850 0.14412 0.80333
 H1383 H 0.70930 0.17436 0.80586
 H1384 H 0.66907 0.26297 0.76227
 H1385 H 0.88767 0.20616 0.73636
 H1386 H 0.84749 0.29567 0.68911
 H1387 H 0.79712 0.32407 0.68776
 H1388 H 0.69198 0.30536 0.72501
 H1389 H 0.86108 0.16498 0.71858
 H1390 H 0.76416 0.16563 0.66750
 H1391 H 0.79123 0.30366 0.82642
 H1392 H 0.69614 0.30762 0.77298
 C1393 C 0.44136 1.06085 0.34808
 C1394 C 0.45063 1.03791 0.32770
 C1395 C 0.47387 1.01595 0.33568
 C1396 C 0.48611 1.01546 0.36263
 C1397 C 0.47789 1.03853 0.38220
 C1398 C 0.45832 1.06354 0.37348
 C1399 C 0.41445 1.07996 0.34521
 C1400 C 0.40919 1.10543 0.36317
 C1401 C 0.43014 1.11185 0.38462
 C1402 C 0.45448 1.09099 0.38985
 H1403 H 0.39695 1.07519 0.32950
 H1404 H 0.38910 1.12048 0.36014
 H1405 H 0.42689 1.13238 0.39782
 H1406 H 0.47045 1.09645 0.40664
 H1407 H 0.48310 0.99871 0.32112
 H1408 H 0.50171 0.99656 0.36828
 C1409 C -0.03826 0.57324 0.84630
 C1410 C -0.03224 0.54778 0.82727
 C1411 C -0.01174 0.52382 0.83609
 C1412 C 0.00104 0.52395 0.86283
 C1413 C -0.00454 0.54894 0.88132
 C1414 C -0.02137 0.57534 0.87174
 C1415 C -0.06262 0.59526 0.84230
 C1416 C -0.06543 0.62185 0.85937
 C1417 C -0.04485 0.62648 0.88141
 C1418 C -0.02321 0.60326 0.88783
 H1419 H -0.08041 0.59168 0.82668
 H1420 H -0.08364 0.63888 0.85545
 H1421 H -0.04652 0.64747 0.89427
 H1422 H -0.00809 0.60705 0.90561
 H1423 H -0.00558 0.50440 0.82240
 H1424 H 0.01419 0.50366 0.86950
 C1425 C 0.07572 -0.02064 0.84467
 C1426 C 0.05347 -0.03442 0.82635
 C1427 C 0.02282 -0.04020 0.83597
 C1428 C 0.01414 -0.03319 0.86350
 C1429 C 0.03578 -0.01978 0.88209
 C1430 C 0.06670 -0.01281 0.87256
 C1431 C 0.10665 -0.01378 0.83559
 C1432 C 0.12803 0.00087 0.85343
 C1433 C 0.11899 0.00926 0.88043
 C1434 C 0.08864 0.00269 0.88994
 H1435 H 0.11456 -0.01963 0.81467
 H1436 H 0.15163 0.00602 0.84616
 H1437 H 0.13553 0.02111 0.89404
 H1438 H 0.08236 0.01051 0.91076
 H1439 H 0.00533 -0.04976 0.82188
 H1440 H -0.00948 -0.03883 0.87051
 C1441 C 0.50202 0.45697 0.33233
 C1442 C 0.53398 0.44965 0.32677
 C1443 C 0.55351 0.44210 0.34890
 C1444 C 0.54264 0.44348 0.37627
 C1445 C 0.51150 0.45213 0.38293
 C1446 C 0.49044 0.45755 0.36051
 C1447 C 0.48113 0.46301 0.31033
 C1448 C 0.44953 0.46914 0.31572
 C1449 C 0.43799 0.46862 0.34294
 C1450 C 0.45805 0.46256 0.36509
 H1451 H 0.48889 0.46253 0.28878
 H1452 H 0.43376 0.47362 0.29862
 H1453 H 0.41323 0.47254 0.34689
 H1454 H 0.44755 0.46074 0.38548
 H1455 H 0.57799 0.43647 0.34507
 H1456 H 0.55952 0.43885 0.39248
 C1457 C 0.50801 0.54603 0.17609
 C1458 C 0.54105 0.54860 0.17966
 C1459 C 0.56082 0.54615 0.15639
 C1460 C 0.54858 0.54064 0.12996
 C1461 C 0.51606 0.53760 0.12567
 C1462 C 0.49536 0.54079 0.14886
 C1463 C 0.48724 0.54921 0.19902
 C1464 C 0.45482 0.54744 0.19532
 C1465 C 0.44249 0.54291 0.16876
 C1466 C 0.46245 0.53987 0.14569
 H1467 H 0.49587 0.55352 0.21991
 H1468 H 0.43917 0.54999 0.21310
 H1469 H 0.41728 0.54201 0.16599
 H1470 H 0.45178 0.53716 0.12548
 H1471 H 0.58610 0.54731 0.15882
 H1472 H 0.56487 0.53866 0.11254
 C1473 C -0.00197 1.04720 0.67341
 C1474 C 0.02863 1.06045 0.67742
 C1475 C 0.04343 1.07494 0.65473
 C1476 C 0.03103 1.07259 0.62814
 C1477 C 0.00267 1.05641 0.62273
 C1478 C -0.01519 1.04549 0.64598
 C1479 C -0.02064 1.03764 0.69639
 C1480 C -0.05081 1.02561 0.69259
 C1481 C -0.06357 1.02393 0.66604
 C1482 C -0.04626 1.03421 0.64304
 H1483 H -0.01255 1.04029 0.71762
 H1484 H -0.06469 1.01833 0.71044
 H1485 H -0.08738 1.01543 0.66331
 H1486 H -0.05827 1.03460 0.62343
 H1487 H 0.06646 1.08566 0.65682
 H1488 H 0.04511 1.08234 0.61139
 C1489 C -0.06898 0.48197 0.65564
 C1490 C -0.05245 0.46253 0.67432
 C1491 C -0.02233 0.45198 0.66696
 C1492 C -0.00884 0.45966 0.64119
 C1493 C -0.02485 0.47860 0.62230
 C1494 C -0.05504 0.49018 0.62960
 C1495 C -0.09928 0.49336 0.66233
 C1496 C -0.11539 0.51240 0.64381
 C1497 C -0.10169 0.52056 0.61842
 C1498 C -0.07184 0.50963 0.61130
 H1499 H -0.11088 0.48745 0.68178
 H1500 H -0.13857 0.52097 0.64923
 H1501 H -0.11422 0.53551 0.60419
 H1502 H -0.06195 0.51678 0.59151
 H1503 H -0.00908 0.43788 0.68139
 H1504 H 0.01378 0.44982 0.63553
 C1505 C 0.43981 -0.02760 0.15136
 C1506 C 0.45583 -0.04707 0.17031
 C1507 C 0.48471 -0.06034 0.16256
 C1508 C 0.49760 -0.05506 0.13607
 C1509 C 0.48210 -0.03609 0.11689
 C1510 C 0.45315 -0.02184 0.12461
 C1511 C 0.41055 -0.01387 0.15844
 C1512 C 0.39522 0.00566 0.13984
 C1513 C 0.40847 0.01167 0.11384
 C1514 C 0.43697 -0.00201 0.10620
 H1515 H 0.39911 -0.01818 0.17829
 H1516 H 0.37296 0.01616 0.14564
 H1517 H 0.39658 0.02697 0.09947
 H1518 H 0.44630 0.00356 0.08596
 H1519 H 0.49729 -0.07488 0.17710
 H1520 H 0.51932 -0.06662 0.13020
 C1521 C 0.33630 0.41802 0.04879
 C1522 C 0.33648 0.39200 0.03002
 C1523 C 0.36174 0.38824 0.01147
 C1524 C 0.38653 0.40982 0.01107
 C1525 C 0.38696 0.43597 0.02918
 C1526 C 0.36155 0.44033 0.04822
 C1527 C 0.31092 0.42296 0.06747
 C1528 C 0.31028 0.44922 0.08507
 C1529 C 0.33453 0.47124 0.08417
 C1530 C 0.35980 0.46708 0.06583
 H1531 H 0.29117 0.40688 0.06840
 H1532 H 0.29065 0.45271 0.09925
 H1533 H 0.33365 0.49182 0.09760
 H1534 H 0.37749 0.48530 0.06536
 H1535 H 0.36212 0.36852 -0.00301
 H1536 H 0.40540 0.40637 -0.00395
 C1537 C -0.13138 0.88570 0.52668
 C1538 C -0.16346 0.89559 0.52652
 C1539 C -0.16974 0.92798 0.52504
 C1540 C -0.14552 0.95023 0.52521
 C1541 C -0.11405 0.94105 0.52617
 C1542 C -0.10671 0.90864 0.52638
 C1543 C -0.12309 0.85358 0.52463
 C1544 C -0.09172 0.84430 0.52412
 C1545 C -0.06784 0.86671 0.52448
 C1546 C -0.07516 0.89858 0.52511
 H1547 H -0.14059 0.83532 0.52241
 H1548 H -0.08592 0.81958 0.52287
 H1549 H -0.04352 0.85940 0.52379
 H1550 H -0.05588 0.91526 0.52452
 H1551 H -0.19374 0.93634 0.52471
 H1552 H -0.15138 0.97493 0.52393
 C1553 C -0.16426 0.06627 0.97460
 C1554 C -0.16011 0.09889 0.96936
 C1555 C -0.12943 0.11074 0.96596
 C1556 C -0.10322 0.09143 0.96907
 C1557 C -0.10674 0.05971 0.97611
 C1558 C -0.13745 0.04675 0.97852
 C1559 C -0.19449 0.05237 0.97531
 C1560 C -0.19832 0.02044 0.98075
 C1561 C -0.17226 0.00165 0.98533
 C1562 C -0.14209 0.01451 0.98408
 H1563 H -0.21541 0.06578 0.97111
 H1564 H -0.22163 0.01016 0.98115
 H1565 H -0.17542 -0.02315 0.98947
 H1566 H -0.12251 -0.00116 0.98703
 H1567 H -0.12570 0.13542 0.96155
 H1568 H -0.07993 0.10160 0.96690
 C1569 C 0.32932 0.56453 0.47647
 C1570 C 0.33592 0.59657 0.47027
 C1571 C 0.36743 0.60620 0.46779
 C1572 C 0.39206 0.58525 0.47225
 C1573 C 0.38613 0.55395 0.47949
 C1574 C 0.35457 0.54329 0.48150
 C1575 C 0.29818 0.55286 0.47715
 C1576 C 0.29199 0.52153 0.48362
 C1577 C 0.31654 0.50113 0.48925
 C1578 C 0.34757 0.51174 0.48810
 H1579 H 0.27837 0.56758 0.47231
 H1580 H 0.26799 0.51298 0.48409
 H1581 H 0.31152 0.47683 0.49424
 H1582 H 0.36598 0.49502 0.49221
 H1583 H 0.37306 0.63043 0.46294
 H1584 H 0.41602 0.59373 0.47054
 C1585 C 0.16899 0.57326 0.52353
 C1586 C 0.16333 0.60617 0.52398
 C1587 C 0.13213 0.61682 0.52474
 C1588 C 0.10682 0.59573 0.52398
 C1589 C 0.11187 0.56329 0.52219
 C1590 C 0.14311 0.55178 0.52205
 C1591 C 0.19975 0.56108 0.52524
 C1592 C 0.20500 0.52877 0.52421
 C1593 C 0.17985 0.50793 0.52182
 C1594 C 0.14919 0.51918 0.52092
 H1595 H 0.22002 0.57619 0.52784
 H1596 H 0.22871 0.51986 0.52546
 H1597 H 0.18410 0.48287 0.52104
 H1598 H 0.13037 0.50211 0.51968
 H1599 H 0.12730 0.64180 0.52551
 H1600 H 0.08310 0.60486 0.52402
 C1601 C 0.67301 0.06172 0.02155
 C1602 C 0.66744 0.09406 0.02753
 C1603 C 0.63622 0.10426 0.03055
 C1604 C 0.61089 0.08357 0.02670
 C1605 C 0.61583 0.05202 0.01933
 C1606 C 0.64708 0.04081 0.01688
 C1607 C 0.70378 0.04941 0.02083
 C1608 C 0.70900 0.01780 0.01457
 C1609 C 0.68383 -0.00228 0.00915
 C1610 C 0.65314 0.00895 0.01043
 H1611 H 0.72407 0.06383 0.02560
 H1612 H 0.73272 0.00876 0.01413
 H1613 H 0.68808 -0.02681 0.00432
 H1614 H 0.63429 -0.00763 0.00660
 H1615 H 0.63138 0.12869 0.03540
 H1616 H 0.58716 0.09244 0.02890
 C1617 C 0.65995 0.93098 0.45655
 C1618 C 0.66204 0.90580 0.47575
 C1619 C 0.63966 0.90356 0.49718
 C1620 C 0.61506 0.92503 0.49944
 C1621 C 0.61185 0.94976 0.48043
 C1622 C 0.63490 0.95324 0.45903
 C1623 C 0.68287 0.93510 0.43541
 C1624 C 0.68123 0.96029 0.41711
 C1625 C 0.65724 0.98219 0.41981
 C1626 C 0.63448 0.97898 0.44068
 H1627 H 0.70251 0.91925 0.43305
 H1628 H 0.69899 0.96311 0.40101
 H1629 H 0.65648 1.00203 0.40586
 H1630 H 0.61713 0.99728 0.44259
 H1631 H 0.64091 0.88460 0.51207
 H1632 H 0.59802 0.92200 0.51612
 C1633 C 0.16836 0.43694 0.96834
 C1634 C 0.16456 0.40702 0.98085
 C1635 C 0.13677 0.40014 0.99530
 C1636 C 0.11264 0.42212 0.99715
 C1637 C 0.11530 0.45154 0.98423
 C1638 C 0.14351 0.45933 0.96992
 C1639 C 0.19658 0.44518 0.95452
 C1640 C 0.20016 0.47455 0.94222
 C1641 C 0.17600 0.49644 0.94384
 C1642 C 0.14802 0.48912 0.95773
 H1643 H 0.21625 0.42921 0.95354
 H1644 H 0.22192 0.48050 0.93164
 H1645 H 0.17908 0.51934 0.93451
 H1646 H 0.13026 0.50713 0.95905
 H1647 H 0.13344 0.37730 1.00474
 H1648 H 0.09134 0.41587 1.00839
 C1649 C 0.04816 0.30875 0.43011
 C1650 C 0.05656 0.31899 0.40299
 C1651 C 0.06122 0.35084 0.39771
 C1652 C 0.05493 0.37293 0.41835
 C1653 C 0.04399 0.36358 0.44462
 C1654 C 0.04164 0.33140 0.45124
 C1655 C 0.04506 0.27650 0.43632
 C1656 C 0.03559 0.26695 0.46286
 C1657 C 0.02883 0.28924 0.48351
 C1658 C 0.03164 0.32125 0.47781
 H1659 H 0.05010 0.25855 0.42078
 H1660 H 0.03335 0.24215 0.46740
 H1661 H 0.02130 0.28169 0.50401
 H1662 H 0.02594 0.33786 0.49428
 H1663 H 0.06745 0.35875 0.37695
 H1664 H 0.05702 0.39765 0.41334
 C1665 C 0.52974 -0.15890 -0.12567
 C1666 C 0.54778 -0.18442 -0.11653
 C1667 C 0.56087 -0.18399 -0.08998
 C1668 C 0.55416 -0.15960 -0.07143
 C1669 C 0.53337 -0.13543 -0.07858
 C1670 C 0.52135 -0.13458 -0.10652
 C1671 C 0.51898 -0.15802 -0.15353
 C1672 C 0.49957 -0.13400 -0.16237
 C1673 C 0.49050 -0.11061 -0.14375
 C1674 C 0.50115 -0.11080 -0.11634
 H1675 H 0.52554 -0.17593 -0.16869
 H1676 H 0.49128 -0.13367 -0.18366
 H1677 H 0.47491 -0.09220 -0.15051
 H1678 H 0.49257 -0.09213 -0.10363
 H1679 H 0.57467 -0.20368 -0.08295
 H1680 H 0.56406 -0.16066 -0.05070
 C1681 C 0.01061 -0.15604 1.10331
 C1682 C -0.01913 -0.17082 1.10682
 C1683 C -0.04139 -0.16911 1.08529
 C1684 C -0.03606 -0.15022 1.06220
 C1685 C -0.00740 -0.13453 1.05910
 C1686 C 0.01741 -0.14097 1.07781
 C1687 C 0.03344 -0.15460 1.12465
 C1688 C 0.06360 -0.14305 1.11928
 C1689 C 0.07142 -0.13219 1.09285
 C1690 C 0.04850 -0.13094 1.07233
 H1691 H 0.02831 -0.16179 1.14574
 H1692 H 0.08099 -0.14272 1.13564
 H1693 H 0.09501 -0.12384 1.08846
 H1694 H 0.05501 -0.12189 1.05215
 H1695 H -0.06381 -0.18113 1.08697
 H1696 H -0.05510 -0.14625 1.04781
 C1697 C 0.50801 0.36888 0.63443
 C1698 C 0.47872 0.35582 0.64224
 C1699 C 0.45328 0.35775 0.62384
 C1700 C 0.45711 0.37084 0.59754
 C1701 C 0.48684 0.38059 0.58829
 C1702 C 0.51312 0.37757 0.60638
 C1703 C 0.53301 0.37104 0.65357
 C1704 C 0.56328 0.37859 0.64451
 C1705 C 0.56918 0.38342 0.61629
 C1706 C 0.54451 0.38256 0.59730
 H1707 H 0.52926 0.36601 0.67547
 H1708 H 0.58239 0.37960 0.65927
 H1709 H 0.59294 0.38786 0.60905
 H1710 H 0.55040 0.38514 0.57546
 H1711 H 0.43065 0.34762 0.62920
 H1712 H 0.43670 0.37332 0.58439
 C1713 C 0.48674 1.17413 0.60465
 C1714 C 0.51487 1.19221 0.60362
 C1715 C 0.53477 1.18978 0.58023
 C1716 C 0.52952 1.16710 0.55986
 C1717 C 0.50323 1.14735 0.56152
 C1718 C 0.47969 1.15361 0.58202
 C1719 C 0.46590 1.17487 0.62782
 C1720 C 0.43704 1.15922 0.62689
 C1721 C 0.42851 1.14237 0.60312
 C1722 C 0.44961 1.13948 0.58089
 H1723 H 0.47149 1.18713 0.64696
 H1724 H 0.42107 1.16052 0.64455
 H1725 H 0.40569 1.13107 0.60207
 H1726 H 0.44193 1.12666 0.56263
 H1727 H 0.55580 1.20416 0.57866
 H1728 H 0.54727 1.16370 0.54380
 C1729 C -0.01874 0.66104 1.11895
 C1730 C 0.01105 0.67528 1.12422
 C1731 C 0.03542 0.67133 1.10446
 C1732 C 0.03154 0.65269 1.08108
 C1733 C 0.00281 0.63801 1.07581
 C1734 C -0.02342 0.64436 1.09347
 C1735 C -0.04350 0.66139 1.13884
 C1736 C -0.07318 0.64965 1.13217
 C1737 C -0.07871 0.63701 1.10579
 C1738 C -0.05412 0.63425 1.08659
 H1739 H -0.04016 0.67038 1.15979
 H1740 H -0.09206 0.65072 1.14741
 H1741 H -0.10201 0.62879 1.10036
 H1742 H -0.05951 0.62466 1.06621
 H1743 H 0.05789 0.68314 1.10666
 H1744 H 0.05174 0.64884 1.06760
 C1745 C 0.45488 0.69808 -0.06340
 C1746 C 0.43747 0.69035 -0.08778
 C1747 C 0.41752 0.66392 -0.08754
 C1748 C 0.41969 0.64216 -0.06630
 C1749 C 0.44128 0.64679 -0.04485
 C1750 C 0.45754 0.67553 -0.04209
 C1751 C 0.46965 0.72769 -0.05982
 C1752 C 0.48829 0.73388 -0.03657
 C1753 C 0.49226 0.71094 -0.01638
 C1754 C 0.47694 0.68198 -0.01895
 H1755 H 0.46668 0.74624 -0.07487
 H1756 H 0.49974 0.75654 -0.03427
 H1757 H 0.50693 0.71574 0.00153
 H1758 H 0.47989 0.66495 -0.00255
 H1759 H 0.40337 0.65771 -0.10548
 H1760 H 0.40698 0.62008 -0.06821
 C1761 C -0.06883 1.17492 0.40369
 C1762 C -0.04359 1.17920 0.38420
 C1763 C -0.01959 1.15682 0.38300
 C1764 C -0.01849 1.13263 0.40183
 C1765 C -0.04210 1.12869 0.42211
 C1766 C -0.06945 1.14761 0.42065
 C1767 C -0.09237 1.19782 0.40841
 C1768 C -0.11860 1.19128 0.42500
 C1769 C -0.12163 1.16214 0.43760
 C1770 C -0.09726 1.14051 0.43559
 H1771 H -0.09063 1.22116 0.39998
 H1772 H -0.13682 1.20872 0.42775
 H1773 H -0.14266 1.15650 0.44943
 H1774 H -0.10111 1.11786 0.44476
 H1775 H -0.00083 1.15834 0.36762
 H1776 H 0.00185 1.11747 0.40080
 C1777 C 0.75077 0.67660 0.90017
 C1778 C 0.77800 0.68322 0.91659
 C1779 C 0.80175 0.70231 0.90517
 C1780 C 0.79790 0.71662 0.87931
 C1781 C 0.77041 0.71221 0.86377
 C1782 C 0.74689 0.69153 0.87389
 C1783 C 0.72850 0.65344 0.90823
 C1784 C 0.70232 0.64676 0.89189
 C1785 C 0.69819 0.66207 0.86673
 C1786 C 0.72039 0.68393 0.85758
 H1787 H 0.73148 0.63957 0.92680
 H1788 H 0.68547 0.62915 0.89855
 H1789 H 0.67804 0.65646 0.85393
 H1790 H 0.71690 0.69442 0.83743
 H1791 H 0.82287 0.70747 0.91686
 H1792 H 0.81687 0.73099 0.87109
 C1793 C 0.32037 0.21512 0.40840
 C1794 C 0.29293 0.20066 0.42019
 C1795 C 0.26512 0.20076 0.40428
 C1796 C 0.26417 0.21344 0.37781
 C1797 C 0.29107 0.22556 0.36523
 C1798 C 0.31953 0.22665 0.38040
 C1799 C 0.34789 0.22061 0.42412
 C1800 C 0.37455 0.23413 0.41197
 C1801 C 0.37418 0.24348 0.38426
 C1802 C 0.34686 0.24025 0.36866
 H1803 H 0.34896 0.21565 0.44613
 H1804 H 0.39548 0.23781 0.42429
 H1805 H 0.39489 0.25417 0.37506
 H1806 H 0.34711 0.24925 0.34762
 H1807 H 0.24383 0.18939 0.41161
 H1808 H 0.24248 0.21205 0.36634
 C1809 C 0.68737 0.31496 0.40010
 C1810 C 0.70686 0.30292 0.42137
 C1811 C 0.72662 0.27729 0.41440
 C1812 C 0.72940 0.26597 0.38698
 C1813 C 0.70996 0.27731 0.36601
 C1814 C 0.68578 0.29888 0.37397
 C1815 C 0.66975 0.34285 0.40349
 C1816 C 0.64652 0.35065 0.38444
 C1817 C 0.64063 0.33095 0.36175
 C1818 C 0.66001 0.30520 0.35658
 H1819 H 0.67388 0.35909 0.42053
 H1820 H 0.63253 0.37156 0.38770
 H1821 H 0.62147 0.33598 0.34779
 H1822 H 0.65424 0.28975 0.33938
 H1823 H 0.74114 0.26652 0.43003
 H1824 H 0.74724 0.24866 0.38214
 C1825 C 0.20874 0.76743 0.91407
 C1826 C 0.20168 0.79962 0.91996
 C1827 C 0.19502 0.81945 0.89771
 C1828 C 0.19912 0.80929 0.87030
 C1829 C 0.20864 0.77840 0.86366
 C1830 C 0.21168 0.75665 0.88578
 C1831 C 0.21075 0.74524 0.93578
 C1832 C 0.21622 0.71359 0.92997
 C1833 C 0.21874 0.70313 0.90250
 C1834 C 0.21601 0.72425 0.88063
 H1835 H 0.20711 0.75192 0.95739
 H1836 H 0.21767 0.69696 0.94685
 H1837 H 0.22205 0.67836 0.89808
 H1838 H 0.21591 0.71459 0.85985
 H1839 H 0.18933 0.84396 0.90140
 H1840 H 0.19574 0.82646 0.85407
 C1841 C 0.31587 0.75650 0.07825
 C1842 C 0.29163 0.77589 0.06725
 C1843 C 0.26341 0.77844 0.08301
 C1844 C 0.25957 0.76433 0.10886
 C1845 C 0.28389 0.74758 0.12082
 C1846 C 0.31225 0.74331 0.10556
 C1847 C 0.34278 0.74817 0.06242
 C1848 C 0.36664 0.73022 0.07395
 C1849 C 0.36396 0.71942 0.10117
 C1850 C 0.33692 0.72556 0.11681
 H1851 H 0.34535 0.75452 0.04076
 H1852 H 0.38723 0.72440 0.06158
 H1853 H 0.38258 0.70548 0.10995
 H1854 H 0.33517 0.71572 0.13753
 H1855 H 0.24444 0.79343 0.07641
 H1856 H 0.23812 0.76864 0.12061
 C1857 C 0.76351 0.29749 0.59603
 C1858 C 0.79004 0.29209 0.57836
 C1859 C 0.81248 0.26995 0.58640
 C1860 C 0.80916 0.25356 0.61142
 C1861 C 0.78240 0.25740 0.62832
 C1862 C 0.75871 0.27852 0.61999
 C1863 C 0.74204 0.32205 0.59096
 C1864 C 0.71508 0.32570 0.60735
 C1865 C 0.70912 0.30536 0.62931
 C1866 C 0.73076 0.28211 0.63575
 H1867 H 0.74604 0.33899 0.57462
 H1868 H 0.69866 0.34430 0.60289
 H1869 H 0.68788 0.30791 0.64167
 H1870 H 0.72519 0.26671 0.65285
 H1871 H 0.83292 0.26557 0.57335
 H1872 H 0.82799 0.23837 0.61804
 C1873 C 0.22627 0.17961 0.59603
 C1874 C 0.20954 0.19892 0.57743
 C1875 C 0.20332 0.23022 0.58488
 C1876 C 0.21257 0.24229 0.61077
 C1877 C 0.22874 0.22350 0.62965
 C1878 C 0.23631 0.19211 0.62211
 C1879 C 0.23347 0.14807 0.58911
 C1880 C 0.25049 0.12948 0.60735
 C1881 C 0.26075 0.14188 0.63268
 C1882 C 0.25384 0.17287 0.64006
 H1883 H 0.22588 0.13748 0.56965
 H1884 H 0.25585 0.10538 0.60176
 H1885 H 0.27419 0.12743 0.64666
 H1886 H 0.26271 0.18177 0.65972
 H1887 H 0.19150 0.24548 0.57040
 H1888 H 0.20603 0.26608 0.61652
 C1889 C 0.69016 0.73504 0.08426
 C1890 C 0.70306 0.70533 0.07707
 C1891 C 0.72158 0.68962 0.09642
 C1892 C 0.72689 0.70236 0.12272
 C1893 C 0.71407 0.73136 0.13062
 C1894 C 0.69560 0.74812 0.11138
 C1895 C 0.67215 0.75212 0.06511
 C1896 C 0.65918 0.78105 0.07268
 C1897 C 0.66389 0.79344 0.09934
 C1898 C 0.68188 0.77719 0.11861
 H1899 H 0.66794 0.74331 0.04421
 H1900 H 0.64531 0.79387 0.05781
 H1901 H 0.65361 0.81582 0.10510
 H1902 H 0.68499 0.78759 0.13909
 H1903 H 0.73185 0.66706 0.09114
 H1904 H 0.74068 0.68905 0.13737
 C1905 C 0.17995 0.56896 0.20892
 C1906 C 0.15318 0.56941 0.22680
 C1907 C 0.15008 0.59370 0.24647
 C1908 C 0.17197 0.61820 0.24768
 C1909 C 0.19781 0.61944 0.22922
 C1910 C 0.20259 0.59397 0.21028
 C1911 C 0.18467 0.54413 0.18965
 C1912 C 0.21119 0.54360 0.17239
 C1913 C 0.23355 0.56754 0.17413
 C1914 C 0.22947 0.59243 0.19293
 H1915 H 0.16811 0.52481 0.18796
 H1916 H 0.21458 0.52434 0.15777
 H1917 H 0.25429 0.56671 0.16093
 H1918 H 0.24785 0.60999 0.19403
 H1919 H 0.12989 0.59430 0.26037
 H1920 H 0.16802 0.63706 0.26263
 C1921 C 0.68834 0.07096 0.70822
 C1922 C 0.66109 0.07015 0.72548
 C1923 C 0.65682 0.09360 0.74574
 C1924 C 0.67824 0.11833 0.74839
 C1925 C 0.70479 0.12060 0.73088
 C1926 C 0.71056 0.09615 0.71112
 C1927 C 0.69396 0.04721 0.68808
 C1928 C 0.72102 0.04786 0.67150
 C1929 C 0.74307 0.07187 0.67484
 C1930 C 0.73809 0.09570 0.69453
 H1931 H 0.67769 0.02782 0.68520
 H1932 H 0.72509 0.02943 0.65619
 H1933 H 0.76427 0.07191 0.66221
 H1934 H 0.75631 0.11327 0.69692
 H1935 H 0.63609 0.09339 0.75902
 H1936 H 0.67343 0.13650 0.76382
 C1937 C 0.86974 0.13039 0.27690
 C1938 C 0.85893 0.09926 0.27062
 C1939 C 0.82792 0.09555 0.26104
 C1940 C 0.80740 0.12098 0.25964
 C1941 C 0.81688 0.15139 0.26742
 C1942 C 0.84853 0.15642 0.27545
 C1943 C 0.90186 0.13669 0.28205
 C1944 C 0.91259 0.16724 0.28665
 C1945 C 0.89184 0.19225 0.28561
 C1946 C 0.86013 0.18710 0.28024
 H1947 H 0.91932 0.11835 0.28135
 H1948 H 0.93730 0.17164 0.29034
 H1949 H 0.90064 0.21583 0.28807
 H1950 H 0.84512 0.20745 0.27893
 H1951 H 0.81877 0.07243 0.25585
 H1952 H 0.78362 0.11680 0.25252
 C1953 C 0.31635 0.59194 0.76123
 C1954 C 0.34671 0.59611 0.77344
 C1955 C 0.35503 0.62656 0.78292
 C1956 C 0.33535 0.65232 0.77926
 C1957 C 0.30675 0.64914 0.76540
 C1958 C 0.29676 0.61870 0.75668
 C1959 C 0.30354 0.56168 0.75583
 C1960 C 0.27382 0.55799 0.74426
 C1961 C 0.25562 0.58408 0.73855
 C1962 C 0.26665 0.61408 0.74507
 H1963 H 0.31551 0.54041 0.76147
 H1964 H 0.26452 0.53468 0.74031
 H1965 H 0.23236 0.58099 0.72991
 H1966 H 0.25084 0.63341 0.74179
 H1967 H 0.37760 0.63091 0.79256
 H1968 H 0.34292 0.67515 0.78681
 C1969 C 0.31776 0.42485 0.72242
 C1970 C 0.35075 0.41960 0.72175
 C1971 C 0.36161 0.38845 0.72106
 C1972 C 0.34071 0.36290 0.72251
 C1973 C 0.30819 0.36760 0.72480
 C1974 C 0.29650 0.39876 0.72436
 C1975 C 0.30531 0.45546 0.72045
 C1976 C 0.27295 0.46035 0.72111
 C1977 C 0.25233 0.43505 0.72372
 C1978 C 0.26386 0.40454 0.72524
 H1979 H 0.32031 0.47584 0.71784
 H1980 H 0.26375 0.48387 0.71932
 H1981 H 0.22724 0.43905 0.72418
 H1982 H 0.24694 0.38554 0.72658
 H1983 H 0.38661 0.38386 0.72002
 H1984 H 0.35008 0.33927 0.72276
 C1985 C 0.84838 0.89232 0.20345
 C1986 C 0.84770 0.91896 0.22199
 C1987 C 0.82353 0.91902 0.24246
 C1988 C 0.80142 0.89466 0.24437
 C1989 C 0.80001 0.87025 0.22452
 C1990 C 0.82230 0.87088 0.20212
 C1991 C 0.87494 0.88530 0.18676
 C1992 C 0.87240 0.86540 0.16378
 C1993 C 0.84457 0.84922 0.15897
 C1994 C 0.82027 0.85066 0.17857
 H1995 H 0.89760 0.89590 0.19079
 H1996 H 0.89192 0.86309 0.14948
 H1997 H 0.84234 0.83436 0.14063
 H1998 H 0.79990 0.83664 0.17400
 H1999 H 0.82063 0.93823 0.25710
 H2000 H 0.78451 0.89543 0.26139
 C2001 C 0.63422 0.87100 0.74495
 C2002 C 0.63842 0.89307 0.76697
 C2003 C 0.66177 0.88761 0.78684
 C2004 C 0.68178 0.86179 0.78449
 C2005 C 0.67916 0.84037 0.76223
 C2006 C 0.65446 0.84434 0.74269
 C2007 C 0.60974 0.87439 0.72552
 C2008 C 0.60536 0.85231 0.70423
 C2009 C 0.62478 0.82620 0.70218
 C2010 C 0.64878 0.82193 0.72138
 H2011 H 0.59354 0.89386 0.72675
 H2012 H 0.58651 0.85524 0.68946
 H2013 H 0.62092 0.80890 0.68584
 H2014 H 0.66215 0.80050 0.71973
 H2015 H 0.66504 0.90399 0.80404
 H2016 H 0.70026 0.85918 0.79971
 C2017 C 0.18003 0.40519 0.26854
 C2018 C 0.14769 0.39839 0.27336
 C2019 C 0.13827 0.36689 0.27648
 C2020 C 0.15984 0.34235 0.27395
 C2021 C 0.19151 0.34844 0.26792
 C2022 C 0.20187 0.38003 0.26520
 C2023 C 0.19142 0.43647 0.26772
 C2024 C 0.22305 0.44280 0.26235
 C2025 C 0.24408 0.41828 0.25816
 C2026 C 0.23376 0.38720 0.25974
 H2027 H 0.17627 0.45635 0.27160
 H2028 H 0.23132 0.46690 0.26162
 H2029 H 0.26863 0.42337 0.25405
 H2030 H 0.25106 0.36895 0.25695
 H2031 H 0.11383 0.36121 0.28062
 H2032 H 0.15160 0.31833 0.27604
 C2033 C 0.05363 0.30476 0.81198
 C2034 C 0.05295 0.28322 0.83440
 C2035 C 0.06978 0.25531 0.83208
 C2036 C 0.09123 0.25118 0.81076
 C2037 C 0.09805 0.27566 0.79211
 C2038 C 0.07682 0.30132 0.79055
 C2039 C 0.03163 0.32936 0.81043
 C2040 C 0.03292 0.35079 0.78867
 C2041 C 0.05583 0.34789 0.76796
 C2042 C 0.07752 0.32343 0.76872
 H2043 H 0.01287 0.33176 0.82566
 H2044 H 0.01583 0.36949 0.78768
 H2045 H 0.05641 0.36436 0.75088
 H2046 H 0.09346 0.32163 0.75128
 H2047 H 0.06863 0.23766 0.84821
 H2048 H 0.10515 0.22992 0.81098
 C2049 C 0.60421 0.74696 0.37305
 C2050 C 0.58739 0.77539 0.37573
 C2051 C 0.58818 0.79714 0.35391
 C2052 C 0.60499 0.79091 0.32961
 C2053 C 0.62007 0.76204 0.32577
 C2054 C 0.61766 0.73878 0.34693
 C2055 C 0.60684 0.72598 0.39558
 C2056 C 0.61941 0.69610 0.39154
 C2057 C 0.62909 0.68653 0.36503
 C2058 C 0.62801 0.70747 0.34285
 H2059 H 0.59871 0.73246 0.41631
 H2060 H 0.62078 0.68002 0.40885
 H2061 H 0.63757 0.66285 0.36163
 H2062 H 0.63464 0.69861 0.32246
 H2063 H 0.57495 0.81880 0.35525
 H2064 H 0.60652 0.80904 0.31393
 C2065 C 0.56521 0.20972 0.16902
 C2066 C 0.57237 0.21621 0.14072
 C2067 C 0.60077 0.23035 0.13355
 C2068 C 0.62253 0.23756 0.15379
 C2069 C 0.61720 0.23017 0.18196
 C2070 C 0.58774 0.21704 0.19001
 C2071 C 0.53563 0.19741 0.17698
 C2072 C 0.52829 0.19248 0.20498
 C2073 C 0.54992 0.20035 0.22554
 C2074 C 0.57922 0.21278 0.21824
 H2075 H 0.51772 0.19214 0.16178
 H2076 H 0.50543 0.18325 0.21079
 H2077 H 0.54376 0.19730 0.24730
 H2078 H 0.59436 0.22003 0.23498
 H2079 H 0.60595 0.23632 0.11205
 H2080 H 0.64397 0.24911 0.14709
 C2081 C 0.06984 0.72653 0.65249
 C2082 C 0.08216 0.72094 0.62524
 C2083 C 0.11450 0.71954 0.62076
 C2084 C 0.13487 0.72493 0.64274
 C2085 C 0.12331 0.73198 0.66953
 C2086 C 0.09069 0.73281 0.67478
 C2087 C 0.03716 0.72685 0.65786
 C2088 C 0.02541 0.73460 0.68426
 C2089 C 0.04594 0.74188 0.70586
 C2090 C 0.07833 0.74092 0.70130
 H2091 H 0.02052 0.72106 0.64175
 H2092 H 0.00028 0.73510 0.68792
 H2093 H 0.03674 0.74821 0.72626
 H2094 H 0.09350 0.74695 0.71856
 H2095 H 0.12398 0.71548 0.59999
 H2096 H 0.15992 0.72439 0.63869
 C2097 C 0.94386 0.80069 0.68068
 C2098 C 0.94600 0.78170 0.65605
 C2099 C 0.92737 0.75455 0.65449
 C2100 C 0.90366 0.74923 0.67350
 C2101 C 0.89649 0.77110 0.69477
 C2102 C 0.91833 0.79613 0.69990
 C2103 C 0.96775 0.82265 0.68751
 C2104 C 0.96529 0.84176 0.71112
 C2105 C 0.93958 0.83885 0.72886
 C2106 C 0.91656 0.81617 0.72365
 H2107 H 0.98897 0.82463 0.67507
 H2108 H 0.98360 0.85867 0.71592
 H2109 H 0.93792 0.85365 0.74731
 H2110 H 0.89860 0.81442 0.73931
 H2111 H 0.92870 0.73833 0.63702
 H2112 H 0.88943 0.72840 0.66995
 C2113 C 0.43918 0.27890 0.15837
 C2114 C 0.42800 0.28949 0.13223
 C2115 C 0.39649 0.29739 0.12908
 C2116 C 0.37540 0.29246 0.15080
 C2117 C 0.38529 0.27885 0.17564
 C2118 C 0.41736 0.27277 0.18013
 C2119 C 0.47152 0.27410 0.16325
 C2120 C 0.48174 0.26240 0.18868
 C2121 C 0.46010 0.25522 0.20964
 C2122 C 0.42813 0.26041 0.20554
 H2123 H 0.48916 0.27970 0.14768
 H2124 H 0.50658 0.25893 0.19213
 H2125 H 0.46816 0.24591 0.22925
 H2126 H 0.41204 0.25491 0.22242
 H2127 H 0.38802 0.30627 0.10941
 H2128 H 0.35094 0.29841 0.14800
 C2129 C 0.43978 0.71155 0.32390
 C2130 C 0.43098 0.72030 0.35143
 C2131 C 0.40255 0.73509 0.35671
 C2132 C 0.38154 0.73929 0.33542
 C2133 C 0.38809 0.72844 0.30821
 C2134 C 0.41819 0.71603 0.30184
 C2135 C 0.46985 0.69930 0.31777
 C2136 C 0.47844 0.69167 0.29042
 C2137 C 0.45763 0.69683 0.26872
 C2138 C 0.42794 0.70926 0.27425
 H2139 H 0.48714 0.69624 0.33390
 H2140 H 0.50160 0.68237 0.28599
 H2141 H 0.46473 0.69169 0.24743
 H2142 H 0.41343 0.71469 0.25667
 H2143 H 0.39620 0.74265 0.37766
 H2144 H 0.35933 0.75021 0.34072
 C2145 C 0.92602 0.21074 0.84830
 C2146 C 0.91504 0.22461 0.87364
 C2147 C 0.88853 0.24339 0.87382
 C2148 C 0.87211 0.24807 0.84958
 C2149 C 0.88086 0.23316 0.82435
 C2150 C 0.90898 0.21539 0.82325
 C2151 C 0.95445 0.19369 0.84708
 C2152 C 0.96577 0.18150 0.82191
 C2153 C 0.94959 0.18673 0.79735
 C2154 C 0.92175 0.20383 0.79788
 H2155 H 0.96851 0.18990 0.86534
 H2156 H 0.98758 0.16854 0.82140
 H2157 H 0.95899 0.17799 0.77772
 H2158 H 0.91146 0.20901 0.77809
 H2159 H 0.88112 0.25540 0.89279
 H2160 H 0.85165 0.26305 0.85105
 C2161 C 0.53797 1.02629 0.66766
 C2162 C 0.57104 1.03282 0.66908
 C2163 C 0.58613 1.04286 0.64440
 C2164 C 0.57043 1.04457 0.61921
 C2165 C 0.53883 1.03583 0.61678
 C2166 C 0.52215 1.02680 0.64120
 C2167 C 0.51967 1.02105 0.69192
 C2168 C 0.48787 1.01327 0.69011
 C2169 C 0.47336 1.01119 0.66426
 C2170 C 0.49019 1.01808 0.63999
 H2171 H 0.52937 1.02374 0.71256
 H2172 H 0.47437 1.00893 0.70894
 H2173 H 0.44874 1.00485 0.66304
 H2174 H 0.47780 1.01675 0.62044
 H2175 H 0.61114 1.04765 0.64378
 H2176 H 0.58376 1.05155 0.60090
 C2177 C 0.02966 0.52494 1.17023
 C2178 C 0.06311 0.52667 1.17167
 C2179 C 0.08003 0.53047 1.14677
 C2180 C 0.06510 0.53200 1.12124
 C2181 C 0.03235 0.52866 1.11869
 C2182 C 0.01421 0.52540 1.14354
 C2183 C 0.01109 0.52324 1.19465
 C2184 C -0.02154 0.52069 1.19307
 C2185 C -0.03632 0.51983 1.16724
 C2186 C -0.01872 0.52212 1.14267
 H2187 H 0.02150 0.52419 1.21514
 H2188 H -0.03547 0.51928 1.21202
 H2189 H -0.06163 0.51756 1.16626
 H2190 H -0.03118 0.52136 1.12314
 H2191 H 0.10546 0.53195 1.14692
 H2192 H 0.07982 0.53514 1.10292
 C2193 C -0.06667 0.00903 1.15306
 C2194 C -0.07534 -0.02021 1.16554
 C2195 C -0.06469 -0.04811 1.15226
 C2196 C -0.04629 -0.04763 1.12791
 C2197 C -0.03733 -0.01925 1.11565
 C2198 C -0.04641 0.00934 1.12900
 C2199 C -0.07976 0.03794 1.16212
 C2200 C -0.07017 0.06634 1.15043
 C2201 C -0.04804 0.06668 1.12897
 C2202 C -0.03643 0.03853 1.11814
 H2203 H -0.09827 0.03904 1.17762
 H2204 H -0.08014 0.08822 1.15798
 H2205 H -0.04041 0.08883 1.12019
 H2206 H -0.01962 0.03977 1.10112
 H2207 H -0.07034 -0.07087 1.16091
 H2208 H -0.04013 -0.06972 1.11789
 C2209 C 0.43587 0.51130 0.65773
 C2210 C 0.43273 0.48154 0.67131
 C2211 C 0.44815 0.45549 0.65894
 C2212 C 0.46550 0.45812 0.63414
 C2213 C 0.46849 0.48690 0.62044
 C2214 C 0.45513 0.51404 0.63317
 C2215 C 0.41817 0.53792 0.66614
 C2216 C 0.42248 0.56696 0.65338
 C2217 C 0.44376 0.57012 0.63146
 C2218 C 0.45973 0.54394 0.62121
 H2219 H 0.40001 0.53665 0.68192
 H2220 H 0.40907 0.58709 0.66047
 H2221 H 0.44729 0.59281 0.62185
 H2222 H 0.47573 0.54725 0.60381
 H2223 H 0.44676 0.43254 0.66850
 H2224 H 0.47523 0.43701 0.62477
 C2225 C 0.39152 0.54068 -0.13696
 C2226 C 0.41243 0.53852 -0.16019
 C2227 C 0.44486 0.53700 -0.15523
 C2228 C 0.45668 0.53787 -0.12798
 C2229 C 0.43651 0.54076 -0.10479
 C2230 C 0.40366 0.54329 -0.10935
 C2231 C 0.35857 0.54026 -0.14058
 C2232 C 0.33824 0.54472 -0.11797
 C2233 C 0.35019 0.54969 -0.09137
 C2234 C 0.38252 0.54904 -0.08702
 H2235 H 0.34818 0.53634 -0.16085
 H2236 H 0.31309 0.54471 -0.12116
 H2237 H 0.33434 0.55390 -0.07397
 H2238 H 0.39074 0.55373 -0.06611
 H2239 H 0.46121 0.53560 -0.17263
 H2240 H 0.48178 0.53585 -0.12497
 C2241 C -0.09676 1.04161 0.35956
 C2242 C -0.07882 1.03455 0.33515
 C2243 C -0.04726 1.02558 0.33813
 C2244 C -0.03339 1.02379 0.36453
 C2245 C -0.05047 1.03162 0.38871
 C2246 C -0.08198 1.04203 0.38612
 C2247 C -0.12930 1.04806 0.35825
 C2248 C -0.14595 1.05789 0.38189
 C2249 C -0.13073 1.06124 0.40729
 C2250 C -0.09914 1.05332 0.40950
 H2251 H -0.14227 1.04540 0.33907
 H2252 H -0.17071 1.06327 0.38041
 H2253 H -0.14353 1.06964 0.42546
 H2254 H -0.08827 1.05657 0.42961
 H2255 H -0.03315 1.02018 0.31982
 H2256 H -0.00929 1.01601 0.36610
 C2257 C 0.03739 0.45816 0.33805
 C2258 C 0.07034 0.45532 0.33391
 C2259 C 0.09004 0.45641 0.35718
 C2260 C 0.07793 0.46027 0.38404
 C2261 C 0.04555 0.46341 0.38888
 C2262 C 0.02495 0.46299 0.36563
 C2263 C 0.01643 0.45600 0.31544
 C2264 C -0.01576 0.46006 0.31954
 C2265 C -0.02766 0.46648 0.34609
 C2266 C -0.00760 0.46808 0.36893
 H2267 H 0.02464 0.45104 0.29445
 H2268 H -0.03153 0.45853 0.30196
 H2269 H -0.05261 0.47024 0.34903
 H2270 H -0.01785 0.47392 0.38895
 H2271 H 0.11526 0.45436 0.35453
 H2272 H 0.09416 0.46057 0.40135
 C2273 C 0.53466 -0.03505 -0.16949
 C2274 C 0.56707 -0.04229 -0.17293
 C2275 C 0.58563 -0.04557 -0.14915
 C2276 C 0.57304 -0.04171 -0.12253
 C2277 C 0.54127 -0.03440 -0.11838
 C2278 C 0.52174 -0.03078 -0.14201
 C2279 C 0.51467 -0.03241 -0.19267
 C2280 C 0.48310 -0.02456 -0.18906
 C2281 C 0.47080 -0.01942 -0.16241
 C2282 C 0.48985 -0.02245 -0.13906
 H2283 H 0.52315 -0.03647 -0.21371
 H2284 H 0.46811 -0.02236 -0.20707
 H2285 H 0.44631 -0.01316 -0.15979
 H2286 H 0.47941 -0.01798 -0.11882
 H2287 H 0.61038 -0.05110 -0.15121
 H2288 H 0.58839 -0.04476 -0.10482
 C2289 C 0.64012 0.61654 -0.00845
 C2290 C 0.64108 0.64700 0.00472
 C2291 C 0.61236 0.66269 0.00922
 C2292 C 0.58370 0.64907 0.00171
 C2293 C 0.58235 0.61943 -0.01114
 C2294 C 0.61074 0.60369 -0.01755
 C2295 C 0.66685 0.59680 -0.01010
 C2296 C 0.66549 0.56744 -0.02323
 C2297 C 0.63732 0.55629 -0.03402
 C2298 C 0.61007 0.57390 -0.03081
 H2299 H 0.68884 0.60295 -0.00039
 H2300 H 0.68633 0.55302 -0.02460
 H2301 H 0.63637 0.53342 -0.04410
 H2302 H 0.58837 0.56387 -0.03855
 H2303 H 0.61189 0.68579 0.01892
 H2304 H 0.56216 0.66098 0.00757
 C2305 C 0.14907 1.11155 0.49360
 C2306 C 0.14783 1.14401 0.50110
 C2307 C 0.11905 1.15973 0.49940
 C2308 C 0.09163 1.14377 0.49164
 C2309 C 0.09206 1.11163 0.48484
 C2310 C 0.12112 1.09555 0.48493
 C2311 C 0.17706 1.09405 0.49599
 C2312 C 0.17782 1.06219 0.48891
 C2313 C 0.15074 1.04690 0.47981
 C2314 C 0.12256 1.06325 0.47804
 H2315 H 0.19850 1.10447 0.50378
 H2316 H 0.19951 1.04921 0.49073
 H2317 H 0.15148 1.02214 0.47444
 H2318 H 0.10193 1.05043 0.47119
 H2319 H 0.11760 1.18441 0.50505
 H2320 H 0.06947 1.15618 0.49267
 C2321 C 0.16818 -0.09912 1.00492
 C2322 C 0.16216 -0.13109 0.99763
 C2323 C 0.13184 -0.14330 1.00182
 C2324 C 0.10736 -0.12424 1.01146
 C2325 C 0.11230 -0.09231 1.01766
 C2326 C 0.14313 -0.07985 1.01523
 C2327 C 0.19808 -0.08524 1.00079
 C2328 C 0.20340 -0.05368 1.00748
 C2329 C 0.17908 -0.03515 1.01795
 C2330 C 0.14913 -0.04795 1.02162
 H2331 H 0.21752 -0.09836 0.99204
 H2332 H 0.22649 -0.04346 1.00432
 H2333 H 0.18337 -0.01065 1.02300
 H2334 H 0.13070 -0.03281 1.02961
 H2335 H 0.12674 -0.16758 0.99641
 H2336 H 0.08379 -0.13395 1.01166
 C2337 C 0.66147 0.39319 0.51347
 C2338 C 0.65738 0.36207 0.50193
 C2339 C 0.62657 0.35008 0.50020
 C2340 C 0.60062 0.36785 0.50852
 C2341 C 0.60394 0.39854 0.51903
 C2342 C 0.63456 0.41089 0.52268
 C2343 C 0.69101 0.40878 0.51343
 C2344 C 0.69443 0.43905 0.52445
 C2345 C 0.66850 0.45518 0.53483
 C2346 C 0.63875 0.44154 0.53356
 H2347 H 0.71173 0.39861 0.50406
 H2348 H 0.71733 0.45027 0.52448
 H2349 H 0.67134 0.47873 0.54322
 H2350 H 0.61901 0.45523 0.54106
 H2351 H 0.62229 0.32663 0.49201
 H2352 H 0.57735 0.35819 0.50500
 C2353 C -0.15363 0.39124 0.50331
 C2354 C -0.15124 0.35825 0.50721
 C2355 C -0.12245 0.34339 0.50177
 C2356 C -0.09596 0.36072 0.49356
 C2357 C -0.09764 0.39333 0.49013
 C2358 C -0.12687 0.40861 0.49405
 C2359 C -0.18163 0.40771 0.50963
 C2360 C -0.18357 0.44007 0.50569
 C2361 C -0.15769 0.45681 0.49577
 C2362 C -0.12953 0.44137 0.49014
 H2363 H -0.20212 0.39600 0.51812
 H2364 H -0.20524 0.45226 0.51051
 H2365 H -0.15934 0.48192 0.49274
 H2366 H -0.10982 0.45525 0.48267
 H2367 H -0.12028 0.31826 0.50460
 H2368 H -0.07356 0.34889 0.49161
 C2369 C 0.37252 -0.16275 -0.02108
 C2370 C 0.35014 -0.15364 -0.00037
 C2371 C 0.35207 -0.12349 0.01122
 C2372 C 0.37640 -0.10308 0.00395
 C2373 C 0.40038 -0.11210 -0.01488
 C2374 C 0.39804 -0.14202 -0.02821
 C2375 C 0.37029 -0.19224 -0.03456
 C2376 C 0.39261 -0.20144 -0.05449
 C2377 C 0.41775 -0.18159 -0.06106
 C2378 C 0.42065 -0.15222 -0.04794
 H2379 H 0.35126 -0.20831 -0.02971
 H2380 H 0.39049 -0.22420 -0.06471
 H2381 H 0.43510 -0.18900 -0.07641
 H2382 H 0.44040 -0.13750 -0.05366
 H2383 H 0.33457 -0.11578 0.02632
 H2384 H 0.37737 -0.08032 0.01434
 C2385 C 0.33329 1.10043 0.50102
 C2386 C 0.33805 1.13297 0.49584
 C2387 C 0.36673 1.14696 0.50328
 C2388 C 0.39106 1.12908 0.51429
 C2389 C 0.38751 1.09663 0.51825
 C2390 C 0.35807 1.08237 0.51259
 C2391 C 0.30496 1.08500 0.49380
 C2392 C 0.30084 1.05296 0.49867
 C2393 C 0.32489 1.03554 0.51039
 C2394 C 0.35335 1.04996 0.51713
 H2395 H 0.28589 1.09732 0.48401
 H2396 H 0.27893 1.04153 0.49313
 H2397 H 0.32155 1.01067 0.51406
 H2398 H 0.37162 1.03569 0.52610
 H2399 H 0.37062 1.17180 0.49978
 H2400 H 0.41374 1.14020 0.51747
 C2401 C -0.16726 0.59839 1.00181
 C2402 C -0.16479 0.63074 0.99465
 C2403 C -0.13582 0.64608 0.99804
 C2404 C -0.10936 0.62983 1.00713
 C2405 C -0.11086 0.59766 1.01332
 C2406 C -0.14019 0.58194 1.01136
 C2407 C -0.19569 0.58151 0.99846
 C2408 C -0.19764 0.54967 1.00500
 C2409 C -0.17136 0.53388 1.01463
 C2410 C -0.14281 0.54971 1.01763
 H2411 H -0.21655 0.59252 0.99046
 H2412 H -0.21963 0.53712 1.00240
 H2413 H -0.17305 0.50915 1.01960
 H2414 H -0.12284 0.53662 1.02504
 H2415 H -0.13345 0.67072 0.99282
 H2416 H -0.08695 0.64204 1.00761
 C2417 C -0.00249 0.64031 0.58829
 C2418 C 0.00686 0.66254 0.56794
 C2419 C 0.00614 0.65446 0.53966
 C2420 C -0.00069 0.62384 0.53143
 C2421 C -0.00664 0.60057 0.55132
 C2422 C -0.00911 0.60887 0.57990
 C2423 C -0.00521 0.64862 0.61679
 C2424 C -0.01406 0.62630 0.63655
 C2425 C -0.02043 0.59545 0.62831
 C2426 C -0.01811 0.58672 0.60025
 H2427 H -0.00100 0.67245 0.62391
 H2428 H -0.01617 0.63301 0.65832
 H2429 H -0.02737 0.57824 0.64371
 H2430 H -0.02393 0.56271 0.59462
 H2431 H 0.01298 0.67142 0.52398
 H2432 H 0.00104 0.61776 0.50946
 C2433 C 0.49940 0.12255 0.09765
 C2434 C 0.50774 0.14738 0.07939
 C2435 C 0.51057 0.14159 0.05074
 C2436 C 0.50726 0.11141 0.04016
 C2437 C 0.50155 0.08614 0.05796
 C2438 C 0.49691 0.09141 0.08687
 C2439 C 0.49297 0.12804 0.12621
 C2440 C 0.48523 0.10323 0.14386
 C2441 C 0.48352 0.07262 0.13339
 C2442 C 0.48919 0.06667 0.10514
 H2443 H 0.49320 0.15154 0.13497
 H2444 H 0.48035 0.10780 0.16573
 H2445 H 0.47740 0.05345 0.14715
 H2446 H 0.48711 0.04269 0.09774
 H2447 H 0.51676 0.16037 0.03657
 H2448 H 0.51061 0.10754 0.01794
 C2449 C -0.00113 0.16445 0.96198
 C2450 C -0.01747 0.16778 0.93664
 C2451 C -0.02057 0.14191 0.91855
 C2452 C -0.00986 0.11256 0.92602
 C2453 C 0.00589 0.10820 0.95122
 C2454 C 0.01326 0.13524 0.96809
 C2455 C 0.00120 0.18955 0.98143
 C2456 C 0.02017 0.18714 1.00481
 C2457 C 0.03757 0.16009 1.00891
 C2458 C 0.03450 0.13456 0.99065
 H2459 H -0.01160 0.21119 0.97877
 H2460 H 0.02208 0.20666 1.01936
 H2461 H 0.05357 0.15885 1.02630
 H2462 H 0.05027 0.11534 0.99384
 H2463 H -0.03188 0.14423 0.89852
 H2464 H -0.01474 0.09295 0.91210
 C2465 C 0.49257 0.62129 0.39570
 C2466 C 0.48317 0.64598 0.41411
 C2467 C 0.47750 0.63992 0.44225
 C2468 C 0.48073 0.60995 0.45246
 C2469 C 0.48926 0.58509 0.43476
 C2470 C 0.49513 0.59025 0.40616
 C2471 C 0.50041 0.62679 0.36749
 C2472 C 0.50940 0.60208 0.34986
 C2473 C 0.51123 0.57159 0.36003
 C2474 C 0.50443 0.56563 0.38801
 H2475 H 0.50020 0.65017 0.35894
 H2476 H 0.51521 0.60665 0.32824
 H2477 H 0.51832 0.55253 0.34627
 H2478 H 0.50673 0.54175 0.39528
 H2479 H 0.47028 0.65857 0.45644
 H2480 H 0.47637 0.60604 0.47448
 C2481 C 0.51056 0.86813 0.40844
 C2482 C 0.51645 0.84489 0.42875
 C2483 C 0.51486 0.85228 0.45706
 C2484 C 0.50892 0.88275 0.46565
 C2485 C 0.50432 0.90662 0.44615
 C2486 C 0.50427 0.89945 0.41726
 C2487 C 0.51038 0.86079 0.37963
 C2488 C 0.50410 0.88390 0.36003
 C2489 C 0.49752 0.91451 0.36871
 C2490 C 0.49739 0.92230 0.39704
 H2491 H 0.51468 0.83715 0.37206
 H2492 H 0.50397 0.87795 0.33802
 H2493 H 0.49224 0.93226 0.35343
 H2494 H 0.49126 0.94613 0.40283
 H2495 H 0.51927 0.83451 0.47260
 H2496 H 0.50904 0.88794 0.48784
 C2497 C -0.00520 0.37640 0.90245
 C2498 C 0.02275 0.35967 0.90779
 C2499 C 0.04723 0.37369 0.92266
 C2500 C 0.04348 0.40349 0.93406
 C2501 C 0.01514 0.41952 0.93090
 C2502 C -0.00916 0.40668 0.91440
 C2503 C -0.02926 0.36365 0.88554
 C2504 C -0.05661 0.38057 0.88068
 C2505 C -0.06055 0.41031 0.89257
 C2506 C -0.03709 0.42337 0.90931
 H2507 H -0.02699 0.34074 0.87571
 H2508 H -0.07478 0.37062 0.86756
 H2509 H -0.08179 0.42338 0.88869
 H2510 H -0.04079 0.44671 0.91786
 H2511 H 0.06885 0.36106 0.92626
 H2512 H 0.06223 0.41351 0.94656
 C2513 C 0.50545 0.37473 0.09485
 C2514 C 0.50132 0.35044 0.07467
 C2515 C 0.50618 0.35678 0.04641
 C2516 C 0.51101 0.38743 0.03760
 C2517 C 0.51090 0.41240 0.05688
 C2518 C 0.51018 0.40610 0.08583
 C2519 C 0.50443 0.36857 0.12376
 C2520 C 0.50683 0.39301 0.14323
 C2521 C 0.51167 0.42374 0.13439
 C2522 C 0.51378 0.43029 0.10599
 H2523 H 0.50198 0.34488 0.13154
 H2524 H 0.50566 0.38798 0.16532
 H2525 H 0.51427 0.44252 0.14962
 H2526 H 0.51869 0.45430 0.10003
 H2527 H 0.50355 0.33832 0.03085
 H2528 H 0.51186 0.39188 0.01538
 C2529 C 0.02179 0.87667 0.59157
 C2530 C -0.00821 0.86236 0.59444
 C2531 C -0.03529 0.88011 0.59039
 C2532 C -0.03315 0.91074 0.58125
 C2533 C -0.00393 0.92419 0.57484
 C2534 C 0.02396 0.90796 0.58149
 C2535 C 0.04955 0.86095 0.59915
 C2536 C 0.07877 0.87564 0.59645
 C2537 C 0.08088 0.90627 0.58657
 C2538 C 0.05376 0.92245 0.57933
 H2539 H 0.04890 0.83756 0.60778
 H2540 H 0.09985 0.86336 0.60242
 H2541 H 0.10359 0.91772 0.58495
 H2542 H 0.05627 0.94666 0.57303
 H2543 H -0.05841 0.86972 0.59318
 H2544 H -0.05475 0.92322 0.57725
 C2545 C 0.24705 0.30566 0.09215
 C2546 C 0.27615 0.30824 0.07716
 C2547 C 0.30239 0.29208 0.08767
 C2548 C 0.30085 0.27535 0.11259
 C2549 C 0.27312 0.27417 0.12835
 C2550 C 0.24535 0.28683 0.11672
 C2551 C 0.22014 0.32329 0.08509
 C2552 C 0.19160 0.31892 0.09903
 C2553 C 0.18923 0.29748 0.12064
 C2554 C 0.21582 0.28167 0.12954
 H2555 H 0.22076 0.34131 0.06944
 H2556 H 0.17118 0.33223 0.09299
 H2557 H 0.16686 0.29364 0.13100
 H2558 H 0.21310 0.26514 0.14640
 H2559 H 0.32471 0.29269 0.07664
 H2560 H 0.32200 0.26453 0.12025
 C2561 C 0.81016 0.78990 0.58447
 C2562 C 0.78403 0.80832 0.57642
 C2563 C 0.75796 0.80987 0.59421
 C2564 C 0.75832 0.79586 0.62030
 C2565 C 0.78504 0.78023 0.63033
 C2566 C 0.81133 0.77662 0.61187
 C2567 C 0.83524 0.78449 0.56566
 C2568 C 0.86175 0.76807 0.57382
 C2569 C 0.86380 0.75670 0.60081
 C2570 C 0.83910 0.76101 0.61975
 H2571 H 0.83425 0.79246 0.54434
 H2572 H 0.88085 0.76422 0.55915
 H2573 H 0.88457 0.74414 0.60701
 H2574 H 0.84252 0.75195 0.64035
 H2575 H 0.73760 0.82351 0.58851
 H2576 H 0.73754 0.79845 0.63330
 C2577 C 0.22179 0.72426 0.57695
 C2578 C 0.22005 0.69092 0.57565
 C2579 C 0.22134 0.67386 0.60036
 C2580 C 0.22435 0.68890 0.62594
 C2581 C 0.22647 0.72178 0.62814
 C2582 C 0.22535 0.73987 0.60340
 C2583 C 0.21971 0.74246 0.55262
 C2584 C 0.22201 0.77515 0.55407
 C2585 C 0.22656 0.79026 0.57963
 C2586 C 0.22835 0.77289 0.60410
 H2587 H 0.21618 0.73164 0.53236
 H2588 H 0.22047 0.78884 0.53521
 H2589 H 0.22874 0.81562 0.58051
 H2590 H 0.23247 0.78558 0.62335
 H2591 H 0.22000 0.64840 0.59986
 H2592 H 0.22470 0.67441 0.64439
 C2593 C 0.75447 0.18481 0.09429
 C2594 C 0.72472 0.17712 0.08207
 C2595 C 0.69744 0.18873 0.09546
 C2596 C 0.69899 0.20694 0.11979
 C2597 C 0.72778 0.21544 0.13150
 C2598 C 0.75583 0.20568 0.11785
 C2599 C 0.78280 0.17025 0.08552
 C2600 C 0.81166 0.17936 0.09663
 C2601 C 0.81305 0.20246 0.11727
 C2602 C 0.78545 0.21535 0.12801
 H2603 H 0.78307 0.15099 0.07070
 H2604 H 0.83307 0.16832 0.08924
 H2605 H 0.83554 0.20978 0.12556
 H2606 H 0.78743 0.23287 0.14444
 H2607 H 0.67435 0.18386 0.08707
 H2608 H 0.67737 0.21306 0.13027
 C2609 C 0.74881 0.17979 0.90256
 C2610 C 0.77800 0.17950 0.91688
 C2611 C 0.80334 0.19682 0.90585
 C2612 C 0.80081 0.21262 0.88057
 C2613 C 0.77267 0.21260 0.86573
 C2614 C 0.74580 0.19798 0.87785
 C2615 C 0.72282 0.16137 0.91131
 C2616 C 0.69394 0.16340 0.89794
 C2617 C 0.69036 0.18341 0.87544
 C2618 C 0.71601 0.20047 0.86536
 H2619 H 0.72447 0.14482 0.92816
 H2620 H 0.67420 0.14943 0.90515
 H2621 H 0.66775 0.18532 0.86543
 H2622 H 0.71233 0.21584 0.84784
 H2623 H 0.82580 0.19706 0.91634
 H2624 H 0.82154 0.22320 0.87170
 C2625 C 0.25182 0.68034 0.39815
 C2626 C 0.28128 0.67785 0.41186
 C2627 C 0.30789 0.69170 0.39931
 C2628 C 0.30605 0.70654 0.37343
 C2629 C 0.27734 0.70925 0.35961
 C2630 C 0.24968 0.69791 0.37301
 C2631 C 0.22452 0.66474 0.40803
 C2632 C 0.19547 0.66929 0.39549
 C2633 C 0.19298 0.68902 0.37268
 C2634 C 0.21977 0.70311 0.36141
 H2635 H 0.22522 0.64845 0.42514
 H2636 H 0.17476 0.65754 0.40362
 H2637 H 0.17028 0.69296 0.36334
 H2638 H 0.21689 0.71829 0.34364
 H2639 H 0.33060 0.69016 0.40924
 H2640 H 0.32750 0.71442 0.36352
 C2641 C 0.71626 0.78799 0.41700
 C2642 C 0.71462 0.82126 0.41956
 C2643 C 0.71624 0.83932 0.39539
 C2644 C 0.71968 0.82541 0.36924
 C2645 C 0.72217 0.79263 0.36574
 C2646 C 0.72074 0.77353 0.39002
 C2647 C 0.71312 0.76870 0.44063
 C2648 C 0.71562 0.73614 0.43820
 C2649 C 0.72154 0.72220 0.41233
 C2650 C 0.72429 0.74059 0.38850
 H2651 H 0.70850 0.77855 0.46113
 H2652 H 0.71327 0.72165 0.45655
 H2653 H 0.72406 0.69694 0.41072
 H2654 H 0.72979 0.72860 0.36921
 H2655 H 0.71500 0.86473 0.39674
 H2656 H 0.72025 0.84083 0.35138
 C2657 C 0.20931 0.35329 0.89047
 C2658 C 0.21272 0.33281 0.91353
 C2659 C 0.21329 0.30022 0.90854
 C2660 C 0.21069 0.28790 0.88139
 C2661 C 0.20641 0.30773 0.85851
 C2662 C 0.20389 0.34062 0.86333
 C2663 C 0.21149 0.38630 0.89371
 C2664 C 0.20506 0.40625 0.87161
 C2665 C 0.19656 0.39380 0.84583
 C2666 C 0.19595 0.36133 0.84164
 H2667 H 0.21846 0.39696 0.91322
 H2668 H 0.20633 0.43148 0.87463
 H2669 H 0.19077 0.40933 0.82889
 H2670 H 0.18870 0.35261 0.82142
 H2671 H 0.21572 0.28418 0.92580
 H2672 H 0.21281 0.26276 0.87817
 C2673 C 0.89532 0.38237 0.76870
 C2674 C 0.88592 0.40521 0.74904
 C2675 C 0.85634 0.40236 0.73678
 C2676 C 0.83679 0.37683 0.74251
 C2677 C 0.84602 0.35276 0.76054
 C2678 C 0.87535 0.35585 0.77444
 C2679 C 0.92471 0.38469 0.78201
 C2680 C 0.93431 0.36169 0.80060
 C2681 C 0.91511 0.33582 0.80601
 C2682 C 0.88604 0.33271 0.79297
 H2683 H 0.94054 0.40417 0.77805
 H2684 H 0.95688 0.36382 0.81073
 H2685 H 0.92284 0.31796 0.82033
 H2686 H 0.87223 0.31209 0.79770
 H2687 H 0.84862 0.41971 0.72195
 H2688 H 0.81468 0.37500 0.73151
 C2689 C 0.35687 0.90173 0.24980
 C2690 C 0.38844 0.89805 0.23958
 C2691 C 0.39999 0.86738 0.23572
 C2692 C 0.38163 0.84110 0.24167
 C2693 C 0.35092 0.84416 0.25182
 C2694 C 0.33850 0.87449 0.25659
 C2695 C 0.34180 0.93134 0.25081
 C2696 C 0.31101 0.93430 0.26063
 C2697 C 0.29403 0.90788 0.26877
 C2698 C 0.30739 0.87817 0.26643
 H2699 H 0.35294 0.95244 0.24316
 H2700 H 0.30009 0.95722 0.26150
 H2701 H 0.27009 0.91035 0.27625
 H2702 H 0.29309 0.85807 0.27216
 H2703 H 0.42373 0.86354 0.22812
 H2704 H 0.39113 0.81797 0.23728
 C2705 C 0.09557 0.88998 0.72505
 C2706 C 0.10595 0.91420 0.74345
 C2707 C 0.13732 0.91469 0.75178
 C2708 C 0.15770 0.89063 0.74407
 C2709 C 0.14742 0.86467 0.72817
 C2710 C 0.11634 0.86475 0.71761
 C2711 C 0.06478 0.88982 0.71446
 C2712 C 0.05460 0.86552 0.69689
 C2713 C 0.07447 0.84058 0.69026
 C2714 C 0.10498 0.83995 0.70067
 H2715 H 0.04852 0.90855 0.71950
 H2716 H 0.03115 0.86601 0.68841
 H2717 H 0.06620 0.82165 0.67690
 H2718 H 0.11959 0.82017 0.69497
 H2719 H 0.14585 0.93333 0.76537
 H2720 H 0.18130 0.89111 0.75244
 C2721 C 0.60406 0.39234 0.22326
 C2722 C 0.60311 0.40537 0.25075
 C2723 C 0.62616 0.39689 0.26951
 C2724 C 0.64916 0.37560 0.26220
 C2725 C 0.65024 0.36037 0.23586
 C2726 C 0.62781 0.36969 0.21563
 C2727 C 0.58192 0.40128 0.20317
 C2728 C 0.58363 0.38942 0.17601
 C2729 C 0.60682 0.36800 0.16845
 C2730 C 0.62869 0.35812 0.18796
 H2731 H 0.56331 0.41765 0.20821
 H2732 H 0.56716 0.39719 0.16056
 H2733 H 0.60803 0.35917 0.14721
 H2734 H 0.64663 0.34228 0.18060
 H2735 H 0.62679 0.40738 0.29022
 H2736 H 0.66599 0.37079 0.27831
 C2737 C 0.64761 0.58840 0.25053
 C2738 C 0.61466 0.59307 0.25278
 C2739 C 0.60354 0.62159 0.26388
 C2740 C 0.62431 0.64590 0.27125
 C2741 C 0.65687 0.64251 0.26769
 C2742 C 0.66872 0.61319 0.25815
 C2743 C 0.66011 0.56003 0.23978
 C2744 C 0.69250 0.55598 0.23714
 C2745 C 0.71305 0.58005 0.24487
 C2746 C 0.70137 0.60846 0.25517
 H2747 H 0.64508 0.54084 0.23315
 H2748 H 0.70172 0.53406 0.22894
 H2749 H 0.73816 0.57673 0.24276
 H2750 H 0.71807 0.62665 0.26099
 H2751 H 0.57849 0.62549 0.26588
 H2752 H 0.61472 0.66840 0.27767
 C2753 C 0.13851 0.09802 0.74838
 C2754 C 0.10547 0.10266 0.74711
 C2755 C 0.09311 0.13184 0.75551
 C2756 C 0.11283 0.15666 0.76371
 C2757 C 0.14552 0.15297 0.76400
 C2758 C 0.15839 0.12307 0.75759
 C2759 C 0.15256 0.06958 0.73937
 C2760 C 0.18498 0.06541 0.74084
 C2761 C 0.20416 0.08949 0.75087
 C2762 C 0.19113 0.11814 0.75900
 H2763 H 0.13889 0.05043 0.73071
 H2764 H 0.19530 0.04341 0.73402
 H2765 H 0.22931 0.08610 0.75201
 H2766 H 0.20684 0.13644 0.76649
 H2767 H 0.06800 0.13577 0.75477
 H2768 H 0.10265 0.17956 0.76778
 C2769 C 0.36433 0.08607 0.23967
 C2770 C 0.39670 0.08878 0.24691
 C2771 C 0.41174 0.11803 0.24392
 C2772 C 0.39515 0.14454 0.23539
 C2773 C 0.36312 0.14260 0.22890
 C2774 C 0.34791 0.11295 0.22986
 C2775 C 0.34720 0.05780 0.24352
 C2776 C 0.31556 0.05558 0.23638
 C2777 C 0.30003 0.08150 0.22584
 C2778 C 0.31585 0.11003 0.22285
 H2779 H 0.35760 0.03724 0.25258
 H2780 H 0.30296 0.03366 0.23929
 H2781 H 0.27545 0.07964 0.22039
 H2782 H 0.30282 0.12982 0.21500
 H2783 H 0.43625 0.12068 0.24941
 H2784 H 0.40688 0.16722 0.23574
 C2785 C 0.90386 0.60523 0.72119
 C2786 C 0.91457 0.60175 0.74918
 C2787 C 0.90761 0.62588 0.76826
 C2788 C 0.88730 0.64981 0.76161
 C2789 C 0.87140 0.65031 0.73608
 C2790 C 0.88103 0.62888 0.71484
 C2791 C 0.91573 0.58629 0.69927
 C2792 C 0.90395 0.58881 0.67234
 C2793 C 0.88016 0.61011 0.66669
 C2794 C 0.86871 0.63002 0.68768
 H2795 H 0.93464 0.56990 0.70269
 H2796 H 0.91332 0.57414 0.65574
 H2797 H 0.87091 0.61160 0.64577
 H2798 H 0.85067 0.64650 0.68222
 H2799 H 0.91596 0.62554 0.78944
 H2800 H 0.88230 0.66711 0.77771
 C2801 C 0.89370 0.80044 0.20337
 C2802 C 0.90321 0.79309 0.17575
 C2803 C 0.88158 0.78014 0.15680
 C2804 C 0.85151 0.77191 0.16551
 C2805 C 0.84228 0.77723 0.19310
 C2806 C 0.86270 0.79295 0.21200
 C2807 C 0.91381 0.81665 0.22202
 C2808 C 0.90339 0.82534 0.24861
 C2809 C 0.87287 0.81823 0.25707
 C2810 C 0.85267 0.80224 0.23904
 H2811 H 0.93742 0.82347 0.21596
 H2812 H 0.91893 0.83797 0.26259
 H2813 H 0.86469 0.82537 0.27760
 H2814 H 0.82900 0.79800 0.24633
 H2815 H 0.88862 0.77458 0.13553
 H2816 H 0.83566 0.76063 0.15089
 C2817 C 0.40754 0.26487 0.72140
 C2818 C 0.41304 0.28528 0.69871
 C2819 C 0.38862 0.29196 0.68039
 C2820 C 0.35888 0.27975 0.68466
 C2821 C 0.35252 0.25940 0.70690
 C2822 C 0.37781 0.24980 0.72419
 C2823 C 0.43116 0.25883 0.74117
 C2824 C 0.42670 0.23607 0.76153
 C2825 C 0.39893 0.21875 0.76234
 C2826 C 0.37481 0.22529 0.74378
 H2827 H 0.45326 0.27153 0.74092
 H2828 H 0.44518 0.23128 0.77627
 H2829 H 0.39604 0.20012 0.77739
 H2830 H 0.35459 0.21002 0.74430
 H2831 H 0.39259 0.30655 0.66228
 H2832 H 0.34055 0.28714 0.67065
 C2833 C 0.39427 0.73074 0.79945
 C2834 C 0.39939 0.74040 0.82738
 C2835 C 0.37764 0.75988 0.84111
 C2836 C 0.35010 0.76856 0.82816
 C2837 C 0.34409 0.75863 0.80094
 C2838 C 0.36645 0.74039 0.78591
 C2839 C 0.41529 0.71052 0.78515
 C2840 C 0.40938 0.70080 0.75782
 C2841 C 0.38240 0.71068 0.74435
 C2842 C 0.36099 0.73012 0.75820
 H2843 H 0.43625 0.70175 0.79494
 H2844 H 0.42570 0.68533 0.74711
 H2845 H 0.37780 0.70287 0.72320
 H2846 H 0.34004 0.73656 0.74709
 H2847 H 0.38149 0.76737 0.86251
 H2848 H 0.33290 0.78225 0.83974
 C2849 C 0.90522 0.27603 0.30260
 C2850 C 0.90688 0.25976 0.32847
 C2851 C 0.87901 0.25543 0.34403
 C2852 C 0.85003 0.26242 0.33312
 C2853 C 0.84756 0.27557 0.30668
 C2854 C 0.87544 0.28665 0.29315
 C2855 C 0.93141 0.27941 0.28440
 C2856 C 0.92960 0.29767 0.26052
 C2857 C 0.90166 0.31243 0.25396
 C2858 C 0.87478 0.30693 0.26996
 H2859 H 0.95332 0.26746 0.28773
 H2860 H 0.95006 0.30065 0.24723
 H2861 H 0.90061 0.32766 0.23603
 H2862 H 0.85405 0.31975 0.26442
 H2863 H 0.87930 0.24511 0.36458
 H2864 H 0.82929 0.25570 0.34494
 C2865 C 0.12747 0.23279 0.34593
 C2866 C 0.10489 0.24986 0.33077
 C2867 C 0.10990 0.25617 0.30252
 C2868 C 0.13809 0.24815 0.28970
 C2869 C 0.16184 0.23379 0.30491
 C2870 C 0.15631 0.22467 0.33275
 C2871 C 0.12204 0.22361 0.37380
 C2872 C 0.14471 0.20682 0.38824
 C2873 C 0.17291 0.19867 0.37517
 C2874 C 0.17872 0.20744 0.34762
 H2875 H 0.10018 0.22891 0.38447
 H2876 H 0.14024 0.19979 0.40956
 H2877 H 0.19022 0.18530 0.38636
 H2878 H 0.20045 0.20008 0.33775
 H2879 H 0.09254 0.26890 0.29073
 H2880 H 0.14224 0.25519 0.26829
 C2881 C 0.59431 0.74025 0.79052
 C2882 C 0.59188 0.73433 0.81946
 C2883 C 0.61731 0.72193 0.83379
 C2884 C 0.64587 0.71756 0.82039
 C2885 C 0.64974 0.72518 0.79227
 C2886 C 0.62367 0.73570 0.77671
 C2887 C 0.56873 0.75216 0.77538
 C2888 C 0.57191 0.75899 0.74711
 C2889 C 0.60063 0.75470 0.73360
 C2890 C 0.62644 0.74364 0.74824
 H2891 H 0.54612 0.75624 0.78516
 H2892 H 0.55207 0.76791 0.73569
 H2893 H 0.60301 0.76020 0.71169
 H2894 H 0.64841 0.74161 0.73702
 H2895 H 0.61561 0.71762 0.85601
 H2896 H 0.66562 0.71006 0.83256
 C2897 C 0.61360 0.19763 0.67423
 C2898 C 0.59906 0.22658 0.66819
 C2899 C 0.61649 0.25451 0.66909
 C2900 C 0.64767 0.25431 0.67698
 C2901 C 0.66275 0.22610 0.68316
 C2902 C 0.64625 0.19713 0.68017
 C2903 C 0.59621 0.16925 0.67514
 C2904 C 0.61121 0.14067 0.67862
 C2905 C 0.64355 0.13987 0.68199
 C2906 C 0.66087 0.16774 0.68350
 H2907 H 0.57093 0.16874 0.67316
 H2908 H 0.59759 0.11913 0.67839
 H2909 H 0.65524 0.11757 0.68360
 H2910 H 0.68572 0.16570 0.68635
 H2911 H 0.60571 0.27675 0.66406
 H2912 H 0.65997 0.27657 0.67906
 C2913 C 0.10565 0.69573 0.19167
 C2914 C 0.08824 0.72328 0.18645
 C2915 C 0.10431 0.75182 0.18279
 C2916 C 0.13689 0.75307 0.18430
 C2917 C 0.15458 0.72555 0.18709
 C2918 C 0.13875 0.69619 0.18828
 C2919 C 0.09058 0.66727 0.19889
 C2920 C 0.10667 0.63902 0.19695
 C2921 C 0.13803 0.63895 0.18868
 C2922 C 0.15447 0.66721 0.18575
 H2923 H 0.06588 0.66659 0.20448
 H2924 H 0.09438 0.61719 0.20088
 H2925 H 0.14975 0.61695 0.18481
 H2926 H 0.17883 0.66585 0.17975
 H2927 H 0.09174 0.77322 0.17829
 H2928 H 0.14849 0.77579 0.18340
   
