data_POSCAR
  _audit_creation_date              2014-09-24
  _audit_creation_method            'ToBaCCo'
  _symmetry_space_group_name_H-M    'P1'
  _symmetry_Int_Tables_number       1
  _symmetry_cell_setting            triclinic
  loop_
  _symmetry_equiv_pos_as_xyz
 x,y,z
_cell_length_a 66.4199
_cell_length_b 67.3553
_cell_length_c 67.5424
_cell_angle_alpha 90.252000
_cell_angle_beta 90.061000
_cell_angle_gamma 90.004900
loop_
  _atom_site_label
  _atom_site_type_symbol
  _atom_site_fract_x
  _atom_site_fract_y
  _atom_site_fract_z
C1 C 0.30091 0.37106 0.00253
 C2 C 0.31332 0.37037 0.01925
 C3 C 0.33168 0.36024 0.01826
 C4 C 0.33774 0.35049 0.00073
 C5 C 0.32534 0.35212 -0.01621
 C6 C 0.30697 0.36259 -0.01557
 C7 C 0.35685 0.33864 0.00025
 C8 C 0.36732 0.33539 -0.01765
 C9 C 0.38499 0.32379 -0.01834
 C10 C 0.39273 0.31645 -0.00036
 C11 C 0.38274 0.31958 0.01762
 C12 C 0.36462 0.33021 0.01775
 H13 H 0.28697 0.37938 0.00344
 H14 H 0.34137 0.36052 0.03114
 H15 H 0.32935 0.34450 -0.02976
 H16 H 0.36215 0.34246 -0.03105
 H17 H 0.40576 0.30681 -0.00033
 H18 H 0.35665 0.33176 0.03161
 C19 C 0.68277 0.61719 0.00135
 C20 C 0.67528 0.62375 0.01958
 C21 C 0.66456 0.64166 0.02052
 C22 C 0.66239 0.65387 0.00368
 C23 C 0.67071 0.64708 -0.01443
 C24 C 0.68033 0.62854 -0.01581
 C25 C 0.65213 0.67378 0.00513
 C26 C 0.64419 0.68315 -0.01187
 C27 C 0.63624 0.70257 -0.01104
 C28 C 0.63500 0.71205 0.00753
 C29 C 0.64110 0.70240 0.02480
 C30 C 0.65025 0.68372 0.02350
 H31 H 0.69140 0.60355 0.00067
 H32 H 0.65803 0.64580 0.03457
 H33 H 0.66997 0.65606 -0.02759
 H34 H 0.64474 0.67564 -0.02599
 H35 H 0.62758 0.72631 0.00893
 H36 H 0.65586 0.67730 0.03704
 C37 C 0.70330 0.37028 1.00210
 C38 C 0.69351 0.36660 0.98410
 C39 C 0.67852 0.35196 0.98312
 C40 C 0.67387 0.34008 0.99967
 C41 C 0.68453 0.34371 1.01749
 C42 C 0.69875 0.35908 1.01893
 C43 C 0.65794 0.32418 0.99838
 C44 C 0.64831 0.31705 1.01561
 C45 C 0.63401 0.30155 1.01479
 C46 C 0.62794 0.29467 0.99600
 C47 C 0.63654 0.30205 0.97864
 C48 C 0.65209 0.31604 0.97992
 H49 H 0.71453 0.38192 1.00300
 H50 H 0.67040 0.35032 0.96935
 H51 H 0.68226 0.33454 1.03036
 H52 H 0.65249 0.32305 1.02982
 H53 H 0.61595 0.28386 0.99463
 H54 H 0.65921 0.32064 0.96632
 C55 C 0.30969 0.61666 0.99469
 C56 C 0.31502 0.62527 0.97660
 C57 C 0.32913 0.64077 0.97639
 C58 C 0.33907 0.64692 0.99388
 C59 C 0.33357 0.63771 1.01187
 C60 C 0.31859 0.62302 1.01240
 C61 C 0.35527 0.66255 0.99322
 C62 C 0.36043 0.67369 1.01031
 C63 C 0.37644 0.68751 1.01020
 C64 C 0.38610 0.69119 0.99203
 C65 C 0.38092 0.68086 0.97476
 C66 C 0.36596 0.66627 0.97554
 H67 H 0.29813 0.60530 0.99503
 H68 H 0.33240 0.64773 0.96238
 H69 H 0.34107 0.64141 1.02559
 H70 H 0.35241 0.67111 1.02389
 H71 H 0.39705 0.70302 0.99085
 H72 H 0.36310 0.65774 0.96225
 C73 C 0.00244 0.30733 0.37807
 C74 C 0.02046 0.31756 0.37478
 C75 C 0.02057 0.33373 0.36180
 C76 C 0.00318 0.33919 0.35109
 C77 C -0.01472 0.32835 0.35440
 C78 C -0.01528 0.31273 0.36814
 C79 C 0.00386 0.35619 0.33674
 C80 C -0.01372 0.36693 0.33178
 C81 C -0.01303 0.38335 0.31886
 C82 C 0.00588 0.38941 0.31166
 C83 C 0.02348 0.37900 0.31625
 C84 C 0.02228 0.36211 0.32819
 H85 H 0.00221 0.29509 0.38842
 H86 H 0.03435 0.34216 0.36049
 H87 H -0.02826 0.33165 0.34616
 H88 H -0.02786 0.36318 0.33868
 H89 H 0.00702 0.40151 0.30123
 H90 H 0.03594 0.35384 0.33087
 C91 C -0.00211 0.68719 0.61438
 C92 C 0.01592 0.67742 0.61883
 C93 C 0.01608 0.66277 0.63354
 C94 C -0.00147 0.65836 0.64454
 C95 C -0.01916 0.66931 0.64037
 C96 C -0.01976 0.68303 0.62483
 C97 C -0.00161 0.64192 0.65960
 C98 C -0.01989 0.63270 0.66509
 C99 C -0.02049 0.61708 0.67889
 C100 C -0.00211 0.60981 0.68621
 C101 C 0.01630 0.61832 0.68077
 C102 C 0.01643 0.63476 0.66810
 H103 H -0.00235 0.69842 0.60294
 H104 H 0.02989 0.65462 0.63578
 H105 H -0.03278 0.66703 0.64876
 H106 H -0.03375 0.63684 0.65789
 H107 H -0.00192 0.59819 0.69722
 H108 H 0.03073 0.64160 0.66480
 C109 C 0.99513 0.69561 0.37258
 C110 C 0.97850 0.68393 0.36742
 C111 C 0.97956 0.67142 0.35087
 C112 C 0.99695 0.67089 0.33892
 C113 C 1.01345 0.68307 0.34429
 C114 C 1.01290 0.69539 0.36125
 C115 C 0.99773 0.65828 0.32053
 C116 C 1.01638 0.65158 0.31296
 C117 C 1.01756 0.64170 0.29458
 C118 C 0.99955 0.63694 0.28471
 C119 C 0.98076 0.64145 0.29296
 C120 C 0.97994 0.65297 0.31029
 H121 H 0.99411 0.70462 0.38585
 H122 H 0.96674 0.66206 0.34762
 H123 H 1.02632 0.68395 0.33458
 H124 H 1.03013 0.65474 0.32093
 H125 H 1.00002 0.62844 0.27106
 H126 H 0.96534 0.65738 0.31579
 C127 C 0.99876 0.30708 0.62390
 C128 C 0.98041 0.30970 0.63373
 C129 C 0.98000 0.32019 0.65170
 C130 C 0.99763 0.32894 0.65951
 C131 C 1.01593 0.32623 0.64916
 C132 C 1.01663 0.31498 0.63163
 C133 C 0.99689 0.34062 0.67843
 C134 C 1.01403 0.34219 0.69072
 C135 C 1.01347 0.35292 0.70865
 C136 C 0.99520 0.36173 0.71445
 C137 C 0.97822 0.36103 0.70218
 C138 C 0.97909 0.35048 0.68428
 H139 H 0.99923 0.29813 0.61053
 H140 H 0.96584 0.32146 0.65949
 H141 H 1.02972 0.33296 0.65444
 H142 H 1.02771 0.33440 0.68685
 H143 H 0.99442 0.37042 0.72796
 H144 H 0.96602 0.35067 0.67471
 C145 C 0.37006 0.00042 0.29758
 C146 C 0.36309 0.01899 0.30383
 C147 C 0.34856 0.02012 0.31875
 C148 C 0.34216 0.00295 0.32885
 C149 C 0.35012 -0.01562 0.32282
 C150 C 0.36334 -0.01725 0.30650
 C151 C 0.32717 0.00449 0.34546
 C152 C 0.31481 -0.01177 0.35056
 C153 C 0.30085 -0.01036 0.36609
 C154 C 0.29859 0.00772 0.37617
 C155 C 0.31028 0.02423 0.37117
 C156 C 0.32484 0.02240 0.35624
 H157 H 0.38135 -0.00003 0.28604
 H158 H 0.34263 0.03457 0.32253
 H159 H 0.34541 -0.02892 0.33033
 H160 H 0.31546 -0.02552 0.34228
 H161 H 0.28755 0.00898 0.38790
 H162 H 0.33439 0.03505 0.35339
 C163 C 0.63709 0.00117 0.70598
 C164 C 0.63770 0.01800 0.69397
 C165 C 0.64807 0.01733 0.67596
 C166 C 0.65783 -0.00021 0.66969
 C167 C 0.65631 -0.01728 0.68174
 C168 C 0.64579 -0.01683 0.69984
 C169 C 0.66920 -0.00075 0.65053
 C170 C 0.67160 -0.01873 0.63997
 C171 C 0.68268 -0.01944 0.62233
 C172 C 0.69065 -0.00186 0.61462
 C173 C 0.68815 0.01630 0.62449
 C174 C 0.67787 0.01668 0.64266
 H175 H 0.62844 0.00189 0.71957
 H176 H 0.64775 0.03033 0.66662
 H177 H 0.66399 -0.03081 0.67755
 H178 H 0.66477 -0.03230 0.64520
 H179 H 0.69956 -0.00243 0.60120
 H180 H 0.67671 0.03064 0.65054
 C181 C 0.37786 1.00090 0.69450
 C182 C 0.37450 0.98322 0.68400
 C183 C 0.35943 0.98265 0.66944
 C184 C 0.34697 0.99926 0.66585
 C185 C 0.35048 1.01676 0.67699
 C186 C 0.36612 1.01779 0.69097
 C187 C 0.33049 0.99827 0.65058
 C188 C 0.32328 1.01567 0.64128
 C189 C 0.30732 1.01501 0.62743
 C190 C 0.30000 0.99622 0.62168
 C191 C 0.30732 0.97874 0.63012
 C192 C 0.32186 0.97987 0.64509
 H193 H 0.38968 1.00151 0.70556
 H194 H 0.35784 0.96921 0.66078
 H195 H 0.34091 1.02961 0.67530
 H196 H 0.32966 1.02983 0.64532
 H197 H 0.28887 0.99490 0.61003
 H198 H 0.32653 0.96622 0.65209
 C199 C 0.61475 0.99291 0.31256
 C200 C 0.62113 0.97565 0.32207
 C201 C 0.63791 0.97633 0.33453
 C202 C 0.64916 0.99396 0.33686
 C203 C 0.64287 1.01106 0.32639
 C204 C 0.62514 1.01102 0.31478
 C205 C 0.66691 0.99458 0.35069
 C206 C 0.67308 1.01259 0.35961
 C207 C 0.68905 1.01311 0.37320
 C208 C 0.69838 0.99537 0.37877
 C209 C 0.69245 0.97724 0.37039
 C210 C 0.67733 0.97704 0.35586
 H211 H 0.60224 0.99171 0.30234
 H212 H 0.64174 0.96301 0.34255
 H213 H 0.65138 1.02460 0.32785
 H214 H 0.66523 1.02631 0.35665
 H215 H 0.71058 0.99568 0.38944
 H216 H 0.67351 0.96298 0.34907
 O217 O 0.83505 0.80096 0.48295
 O218 O 0.80554 0.83171 0.51720
 O219 O 0.83286 0.80426 0.52107
 O220 O 0.80841 0.82897 0.47912
 O221 O 0.78416 0.80660 0.47931
 O222 O 0.80914 0.78134 0.52115
 O223 O 0.78155 0.80907 0.51757
 O224 O 0.81112 0.77825 0.48285
 Cu225 Cu 0.82285 0.81872 0.50009
 Cu226 Cu 0.79408 0.79152 0.50024
 C227 C 0.82830 0.78426 0.47718
 C228 C 0.78838 0.82584 0.52304
 C229 C 0.82545 0.78842 0.52810
 C230 C 0.79195 0.82229 0.47223
 O231 O 0.16835 0.19883 0.48122
 O232 O 0.19239 0.16864 0.51951
 O233 O 0.16537 0.19672 0.51930
 O234 O 0.19556 0.17118 0.48144
 O235 O 0.21950 0.19365 0.48481
 O236 O 0.18919 0.21925 0.52299
 O237 O 0.21651 0.19090 0.52298
 O238 O 0.19182 0.22177 0.48482
 Cu239 Cu 0.17806 0.18159 0.50007
 Cu240 Cu 0.20667 0.20867 0.50424
 C241 C 0.17568 0.21560 0.47670
 C242 C 0.20872 0.17429 0.52753
 C243 C 0.17189 0.21254 0.52737
 C244 C 0.21279 0.17786 0.47681
 O245 O 0.17991 0.84406 0.48132
 O246 O 0.15541 0.81138 0.51721
 O247 O 0.18240 0.83939 0.51938
 O248 O 0.15315 0.81610 0.47934
 O249 O 0.17724 0.79402 0.47476
 O250 O 0.20643 0.81714 0.51536
 O251 O 0.17911 0.78886 0.51282
 O252 O 0.20423 0.82214 0.47714
 Cu253 Cu 0.16536 0.82996 0.49979
 Cu254 Cu 0.19421 0.80332 0.49467
 C255 C 0.19624 0.83879 0.47309
 C256 C 0.16273 0.79438 0.52086
 C257 C 0.19949 0.83241 0.52414
 C258 C 0.16008 0.80104 0.47024
 O259 O 0.84196 0.18738 0.51390
 O260 O 0.81366 0.16081 0.47515
 O261 O 0.84135 0.18817 0.47541
 O262 O 0.81502 0.15938 0.51333
 O263 O 0.79107 0.18201 0.51486
 O264 O 0.81776 0.21118 0.47663
 O265 O 0.78979 0.18355 0.47659
 O266 O 0.81817 0.21019 0.51524
 Cu267 Cu 0.83041 0.17172 0.49429
 Cu268 Cu 0.80185 0.19908 0.49593
 C269 C 0.83492 0.20336 0.52118
 C270 C 0.79668 0.16741 0.46954
 C271 C 0.83424 0.20462 0.46956
 C272 C 0.79844 0.16551 0.52041
 O273 O 0.48193 0.84075 0.80801
 O274 O 0.51863 0.81731 0.84078
 O275 O 0.52022 0.84443 0.81327
 O276 O 0.48068 0.81327 0.83486
 O277 O 0.48640 0.79016 0.81232
 O278 O 0.52675 0.82122 0.79098
 O279 O 0.52483 0.79421 0.81829
 O280 O 0.48799 0.81833 0.78487
 Cu281 Cu 0.49978 0.83124 0.82643
 Cu282 Cu 0.50694 0.80366 0.79925
 C283 C 0.47891 0.83392 0.79074
 C284 C 0.52775 0.80164 0.83540
 C285 C 0.53021 0.83822 0.79845
 C286 C 0.47709 0.79619 0.82766
 O287 O 0.52318 0.18338 0.15967
 O288 O 0.48247 0.15812 0.18624
 O289 O 0.48444 0.18523 0.15907
 O290 O 0.52157 0.15603 0.18652
 O291 O 0.52264 0.17892 0.20996
 O292 O 0.48525 0.20851 0.18213
 O293 O 0.48342 0.18111 0.20957
 O294 O 0.52423 0.20661 0.18277
 Cu295 Cu 0.50281 0.16834 0.17062
 Cu296 Cu 0.50397 0.19608 0.19851
 C297 C 0.53046 0.19947 0.16645
 C298 C 0.47602 0.16519 0.20249
 C299 C 0.47874 0.20201 0.16561
 C300 C 0.52845 0.16234 0.20293
 O301 O 0.51654 0.16277 0.80872
 O302 O 0.47960 0.19288 0.83576
 O303 O 0.47751 0.16396 0.81002
 O304 O 0.51847 0.19069 0.83500
 O305 O 0.51897 0.21291 0.81109
 O306 O 0.47753 0.18595 0.78593
 O307 O 0.47999 0.21519 0.81195
 O308 O 0.51670 0.18460 0.78445
 Cu309 Cu 0.49791 0.17536 0.82473
 Cu310 Cu 0.49825 0.20187 0.79590
 C311 C 0.52293 0.16846 0.79196
 C312 C 0.47383 0.20940 0.82876
 C313 C 0.47064 0.17013 0.79361
 C314 C 0.52570 0.20639 0.82747
 O315 O 0.47320 0.81226 0.16330
 O316 O 0.51084 0.83817 0.19357
 O317 O 0.51216 0.81330 0.16388
 O318 O 0.47201 0.83738 0.19231
 O319 O 0.47182 0.81259 0.21355
 O320 O 0.51312 0.78869 0.18531
 O321 O 0.51076 0.81363 0.21508
 O322 O 0.47371 0.78701 0.18399
 Cu323 Cu 0.49210 0.82772 0.17614
 Cu324 Cu 0.49235 0.79790 0.20156
 C325 C 0.46710 0.79515 0.16833
 C326 C 0.51692 0.83063 0.20971
 C327 C 0.51952 0.79692 0.16960
 C328 C 0.46511 0.82931 0.20783
 O329 O 0.83276 0.52318 0.80784
 O330 O 0.80602 0.48685 0.83869
 O331 O 0.83264 0.48479 0.81085
 O332 O 0.80671 0.52516 0.83670
 O333 O 0.78195 0.52410 0.81494
 O334 O 0.80848 0.48347 0.78842
 O335 O 0.78143 0.48562 0.81671
 O336 O 0.80826 0.52186 0.78578
 Cu337 Cu 0.82198 0.50520 0.82568
 Cu338 Cu 0.79256 0.50369 0.79924
 C339 C 0.82527 0.52844 0.79136
 C340 C 0.78906 0.48014 0.83305
 C341 C 0.82521 0.47728 0.79522
 C342 C 0.78972 0.53127 0.83065
 O343 O 0.16751 0.52052 0.18915
 O344 O 0.19732 0.48172 0.16532
 O345 O 0.16938 0.48256 0.19168
 O346 O 0.19599 0.52009 0.16225
 O347 O 0.21926 0.52267 0.18546
 O348 O 0.19214 0.48551 0.21532
 O349 O 0.22066 0.48438 0.18848
 O350 O 0.19059 0.52415 0.21242
 Cu351 Cu 0.18030 0.50109 0.17471
 Cu352 Cu 0.20796 0.50454 0.20282
 C353 C 0.17359 0.52864 0.20503
 C354 C 0.21401 0.47636 0.17270
 C355 C 0.17607 0.47771 0.20860
 C356 C 0.21243 0.52744 0.16856
 O357 O 0.83834 0.48204 0.18863
 O358 O 0.80569 0.51355 0.15798
 O359 O 0.83411 0.52005 0.18364
 O360 O 0.81101 0.47577 0.16179
 O361 O 0.78758 0.47587 0.18491
 O362 O 0.81182 0.51999 0.20784
 O363 O 0.78295 0.51406 0.18176
 O364 O 0.81532 0.48181 0.21214
 Cu365 Cu 0.82459 0.49786 0.17070
 Cu366 Cu 0.79711 0.49793 0.19905
 C367 C 0.83248 0.47660 0.20567
 C368 C 0.78864 0.51906 0.16453
 C369 C 0.82722 0.52748 0.19954
 C370 C 0.79518 0.46841 0.16925
 O371 O 0.15579 0.47755 0.81934
 O372 O 0.18682 0.51761 0.83987
 O373 O 0.15810 0.51534 0.81406
 O374 O 0.18492 0.47974 0.84534
 O375 O 0.20703 0.47429 0.82153
 O376 O 0.18023 0.51066 0.79017
 O377 O 0.20949 0.51269 0.81652
 O378 O 0.17817 0.47230 0.79572
 Cu379 Cu 0.16920 0.49800 0.83203
 Cu380 Cu 0.19601 0.49210 0.80356
 C381 C 0.16154 0.46818 0.80401
 C382 C 0.20353 0.52193 0.83190
 C383 C 0.16438 0.51901 0.79672
 C384 C 0.20052 0.47098 0.83888
 C385 C 0.29128 0.39985 0.07138
 C386 C 0.29970 0.38076 0.07280
 C387 C 0.30762 0.37136 0.05599
 C388 C 0.30716 0.38090 0.03754
 C389 C 0.29973 0.40036 0.03639
 C390 C 0.29193 0.40974 0.05312
 C391 C 0.28049 0.40898 0.08831
 C392 C 0.26202 0.41852 0.08501
 C393 C 0.25160 0.42733 0.10060
 C394 C 0.25929 0.42674 0.11997
 C395 C 0.27776 0.41714 0.12339
 C396 C 0.28823 0.40821 0.10769
 C397 C 0.24808 0.43678 0.13613
 C398 C 0.25804 0.44900 0.14996
 C399 C 0.24698 0.46107 0.16294
 C400 C 0.22585 0.46115 0.16212
 C401 C 0.21598 0.44790 0.14929
 C402 C 0.22697 0.43575 0.13655
 H403 H 0.29933 0.37277 0.08668
 H404 H 0.31329 0.35633 0.05721
 H405 H 0.29964 0.40820 0.02242
 H406 H 0.28600 0.42465 0.05169
 H407 H 0.25550 0.41909 0.07032
 H408 H 0.23761 0.43492 0.09739
 H409 H 0.28401 0.41644 0.13818
 H410 H 0.30248 0.40098 0.11061
 H411 H 0.27431 0.45012 0.14994
 H412 H 0.25492 0.47119 0.17269
 H413 H 0.19969 0.44745 0.14859
 H414 H 0.21890 0.42610 0.12643
 C415 C 0.69720 0.59120 0.06962
 C416 C 0.68793 0.58119 0.05374
 C417 C 0.67966 0.59179 0.03797
 C418 C 0.68039 0.61263 0.03781
 C419 C 0.68836 0.62267 0.05432
 C420 C 0.69672 0.61207 0.07006
 C421 C 0.70903 0.58003 0.08458
 C422 C 0.70925 0.58586 0.10460
 C423 C 0.72178 0.57621 0.11819
 C424 C 0.73441 0.56064 0.11198
 C425 C 0.73379 0.55454 0.09208
 C426 C 0.72129 0.56412 0.07855
 C427 C 0.74855 0.55097 0.12598
 C428 C 0.76819 0.54619 0.11988
 C429 C 0.78132 0.53626 0.13258
 C430 C 0.77514 0.53088 0.15171
 C431 C 0.75567 0.53610 0.15802
 C432 C 0.74251 0.54609 0.14528
 H433 H 0.68765 0.56512 0.05319
 H434 H 0.67333 0.58369 0.02555
 H435 H 0.68929 0.63873 0.05449
 H436 H 0.70388 0.62023 0.08198
 H437 H 0.69987 0.59798 0.10971
 H438 H 0.72199 0.58128 0.13342
 H439 H 0.74311 0.54239 0.08691
 H440 H 0.72173 0.55944 0.06320
 H441 H 0.77342 0.55011 0.10523
 H442 H 0.79624 0.53256 0.12728
 H443 H 0.75044 0.53214 0.17266
 H444 H 0.72743 0.54948 0.15034
 C445 C 0.71469 0.39810 0.93303
 C446 C 0.70959 0.40849 0.95040
 C447 C 0.70218 0.39835 0.96686
 C448 C 0.69951 0.37767 0.96616
 C449 C 0.70387 0.36739 0.94854
 C450 C 0.71152 0.37750 0.93216
 C451 C 0.72437 0.40860 0.91635
 C452 C 0.74186 0.40080 0.90758
 C453 C 0.75200 0.41141 0.89293
 C454 C 0.74472 0.42989 0.88660
 C455 C 0.72688 0.43741 0.89492
 C456 C 0.71688 0.42692 0.90976
 C457 C 0.75621 0.44177 0.87209
 C458 C 0.74640 0.45110 0.85623
 C459 C 0.75719 0.46311 0.84316
 C460 C 0.77793 0.46625 0.84591
 C461 C 0.78777 0.45669 0.86163
 C462 C 0.77703 0.44448 0.87452
 H463 H 0.71203 0.42435 0.95149
 H464 H 0.69881 0.40660 0.98024
 H465 H 0.70206 0.35143 0.94769
 H466 H 0.71521 0.36919 0.91889
 H467 H 0.74805 0.38680 0.91252
 H468 H 0.76566 0.40526 0.88665
 H469 H 0.72105 0.45170 0.89038
 H470 H 0.70337 0.43318 0.91623
 H471 H 0.73037 0.44914 0.85400
 H472 H 0.74920 0.47033 0.83121
 H473 H 0.80374 0.45881 0.86411
 H474 H 0.78491 0.43759 0.88674
 C475 C 0.28852 0.60252 0.92288
 C476 C 0.29579 0.58960 0.93751
 C477 C 0.30448 0.59706 0.95481
 C478 C 0.30612 0.61762 0.95792
 C479 C 0.29918 0.63060 0.94317
 C480 C 0.29039 0.62312 0.92584
 C481 C 0.27804 0.59435 0.90522
 C482 C 0.25995 0.60286 0.89857
 C483 C 0.24858 0.59352 0.88382
 C484 C 0.25505 0.57548 0.87540
 C485 C 0.27374 0.56765 0.88120
 C486 C 0.28511 0.57698 0.89594
 C487 C 0.24147 0.56376 0.86238
 C488 C 0.24901 0.55286 0.84620
 C489 C 0.23650 0.53984 0.83565
 C490 C 0.21627 0.53740 0.84119
 C491 C 0.20856 0.54895 0.85681
 C492 C 0.22100 0.56197 0.86726
 H493 H 0.29429 0.57367 0.93583
 H494 H 0.30993 0.58670 0.96580
 H495 H 0.30018 0.64653 0.94523
 H496 H 0.28500 0.63343 0.91477
 H497 H 0.25407 0.61618 0.90548
 H498 H 0.23436 0.60004 0.87946
 H499 H 0.27909 0.55372 0.87511
 H500 H 0.29916 0.57026 0.90054
 H501 H 0.26469 0.55408 0.84199
 H502 H 0.24285 0.53117 0.82364
 H503 H 0.19302 0.54748 0.86140
 H504 H 0.21477 0.56993 0.87980
 C505 C 0.07469 0.29570 0.40201
 C506 C 0.07459 0.30135 0.38202
 C507 C 0.05713 0.30900 0.37336
 C508 C 0.03936 0.31096 0.38447
 C509 C 0.03957 0.30571 0.40458
 C510 C 0.05709 0.29824 0.41328
 C511 C 0.09267 0.28611 0.41083
 C512 C 0.09910 0.29115 0.43003
 C513 C 0.11495 0.28085 0.43895
 C514 C 0.12453 0.26517 0.42891
 C515 C 0.11853 0.26056 0.40948
 C516 C 0.10283 0.27099 0.40050
 C517 C 0.13943 0.25257 0.43933
 C518 C 0.13767 0.23181 0.43844
 C519 C 0.15007 0.21979 0.45000
 C520 C 0.16465 0.22825 0.46254
 C521 C 0.16711 0.24897 0.46271
 C522 C 0.15449 0.26105 0.45132
 H523 H 0.08799 0.29968 0.37304
 H524 H 0.05734 0.31280 0.35780
 H525 H 0.02613 0.30723 0.41352
 H526 H 0.05668 0.29383 0.42867
 H527 H 0.09164 0.30286 0.43826
 H528 H 0.11914 0.28458 0.45401
 H529 H 0.12574 0.24861 0.40139
 H530 H 0.09809 0.26668 0.38574
 H531 H 0.12608 0.22489 0.42949
 H532 H 0.14784 0.20387 0.44954
 H533 H 0.17817 0.25589 0.47230
 H534 H 0.15622 0.27702 0.45215
 C535 C 0.06749 0.70113 0.58905
 C536 C 0.05054 0.69490 0.57820
 C537 C 0.03423 0.68608 0.58773
 C538 C 0.03457 0.68318 0.60830
 C539 C 0.05209 0.68798 0.61895
 C540 C 0.06843 0.69692 0.60941
 C541 C 0.08299 0.71378 0.57955
 C542 C 0.10360 0.71145 0.58374
 C543 C 0.11784 0.72428 0.57537
 C544 C 0.11164 0.73980 0.56291
 C545 C 0.09107 0.74190 0.55859
 C546 C 0.07694 0.72909 0.56680
 C547 C 0.12629 0.75396 0.55434
 C548 C 0.12166 0.77429 0.55377
 C549 C 0.13405 0.78751 0.54366
 C550 C 0.15141 0.78073 0.53388
 C551 C 0.15669 0.76057 0.53536
 C552 C 0.14423 0.74728 0.54553
 H553 H 0.04959 0.69753 0.56242
 H554 H 0.02102 0.68218 0.57915
 H555 H 0.05266 0.68596 0.63484
 H556 H 0.08124 0.70163 0.61816
 H557 H 0.10869 0.69974 0.59347
 H558 H 0.13361 0.72236 0.57894
 H559 H 0.08588 0.75353 0.54880
 H560 H 0.06117 0.73149 0.56353
 H561 H 0.10815 0.77991 0.56079
 H562 H 0.12965 0.80298 0.54301
 H563 H 0.16998 0.75490 0.52798
 H564 H 0.14813 0.73168 0.54572
 C565 C 0.92631 0.69895 0.40127
 C566 C 0.92527 0.69826 0.38047
 C567 C 0.94182 0.69180 0.36937
 C568 C 0.95968 0.68607 0.37890
 C569 C 0.96017 0.68528 0.39964
 C570 C 0.94360 0.69152 0.41072
 C571 C 0.91065 0.70958 0.41290
 C572 C 0.91648 0.72234 0.42840
 C573 C 0.90229 0.73390 0.43830
 C574 C 0.88187 0.73313 0.43294
 C575 C 0.87584 0.71996 0.41786
 C576 C 0.89012 0.70834 0.40786
 C577 C 0.86723 0.74649 0.44286
 C578 C 0.84831 0.73954 0.44901
 C579 C 0.83529 0.75197 0.45967
 C580 C 0.84097 0.77157 0.46430
 C581 C 0.85958 0.77867 0.45746
 C582 C 0.87252 0.76630 0.44686
 H583 H 0.91224 0.70398 0.37273
 H584 H 0.94118 0.69264 0.35337
 H585 H 0.97374 0.68070 0.40727
 H586 H 0.94467 0.69140 0.42672
 H587 H 0.93217 0.72395 0.43246
 H588 H 0.90734 0.74366 0.45009
 H589 H 0.86020 0.71908 0.41341
 H590 H 0.88515 0.69856 0.39606
 H591 H 0.84387 0.72432 0.44617
 H592 H 0.82105 0.74606 0.46475
 H593 H 0.86436 0.79373 0.46062
 H594 H 0.88683 0.77220 0.44193
 C595 C 0.92818 0.28229 0.60778
 C596 C 0.94114 0.29401 0.59629
 C597 C 0.95779 0.30326 0.60488
 C598 C 0.96183 0.30107 0.62516
 C599 C 0.94855 0.28988 0.63683
 C600 C 0.93192 0.28048 0.62819
 C601 C 0.91161 0.27113 0.59812
 C602 C 0.90833 0.25105 0.60265
 C603 C 0.89434 0.23987 0.59188
 C604 C 0.88328 0.24858 0.57644
 C605 C 0.88594 0.26888 0.57251
 C606 C 0.89997 0.28003 0.58322
 C607 C 0.87005 0.23633 0.56358
 C608 C 0.85144 0.24369 0.55696
 C609 C 0.83979 0.23277 0.54354
 C610 C 0.84655 0.21430 0.53641
 C611 C 0.86492 0.20673 0.54344
 C612 C 0.87652 0.21761 0.55689
 H613 H 0.93879 0.29548 0.58050
 H614 H 0.96772 0.31194 0.59561
 H615 H 0.95141 0.28788 0.65249
 H616 H 0.92209 0.27163 0.63740
 H617 H 0.91719 0.24376 0.61396
 H618 H 0.89244 0.22431 0.59537
 H619 H 0.87776 0.27597 0.56060
 H620 H 0.90204 0.29553 0.57956
 H621 H 0.84598 0.25798 0.56204
 H622 H 0.82567 0.23899 0.53848
 H623 H 0.87054 0.19254 0.53825
 H624 H 0.89091 0.21167 0.56153
 C625 C 0.38919 0.07135 0.27823
 C626 C 0.36815 0.06944 0.27948
 C627 C 0.35953 0.05257 0.28808
 C628 C 0.37184 0.03724 0.29525
 C629 C 0.39284 0.03926 0.29411
 C630 C 0.40142 0.05614 0.28576
 C631 C 0.39860 0.08863 0.26838
 C632 C 0.41566 0.09774 0.27671
 C633 C 0.42610 0.11237 0.26633
 C634 C 0.41974 0.11810 0.24736
 C635 C 0.40215 0.10963 0.23940
 C636 C 0.39161 0.09508 0.24986
 C637 C 0.43244 0.13155 0.23533
 C638 C 0.43663 0.12683 0.21548
 C639 C 0.45037 0.13810 0.20468
 C640 C 0.46015 0.15442 0.21344
 C641 C 0.45537 0.15964 0.23305
 C642 C 0.44171 0.14826 0.24392
 H643 H 0.35840 0.08100 0.27382
 H644 H 0.34330 0.05131 0.28877
 H645 H 0.40264 0.02772 0.29973
 H646 H 0.41766 0.05710 0.28477
 H647 H 0.42124 0.09317 0.29106
 H648 H 0.43969 0.11851 0.27277
 H649 H 0.39682 0.11391 0.22488
 H650 H 0.37856 0.08822 0.24307
 H651 H 0.42991 0.11390 0.20855
 H652 H 0.45367 0.13373 0.18958
 H653 H 0.46262 0.17217 0.24020
 H654 H 0.43862 0.15233 0.25914
 C655 C 0.60486 0.06806 0.71629
 C656 C 0.59517 0.04984 0.71270
 C657 C 0.60575 0.03386 0.70475
 C658 C 0.62619 0.03578 0.69995
 C659 C 0.63566 0.05426 0.70231
 C660 C 0.62508 0.07030 0.71051
 C661 C 0.59415 0.08402 0.72725
 C662 C 0.59638 0.10412 0.72213
 C663 C 0.58610 0.11890 0.73272
 C664 C 0.57352 0.11385 0.74866
 C665 C 0.57140 0.09376 0.75372
 C666 C 0.58165 0.07907 0.74324
 C667 C 0.56224 0.12921 0.75992
 C668 C 0.55977 0.12733 0.78049
 C669 C 0.54740 0.14041 0.79091
 C670 C 0.53739 0.15584 0.78107
 C671 C 0.54060 0.15839 0.76068
 C672 C 0.55288 0.14514 0.75017
 H673 H 0.57946 0.04780 0.71647
 H674 H 0.59810 0.01978 0.70273
 H675 H 0.65145 0.05599 0.69869
 H676 H 0.63297 0.08413 0.71315
 H677 H 0.60586 0.10837 0.70983
 H678 H 0.58813 0.13427 0.72855
 H679 H 0.56157 0.08930 0.76569
 H680 H 0.57988 0.06379 0.74782
 H681 H 0.56717 0.11551 0.78852
 H682 H 0.54545 0.13824 0.80667
 H683 H 0.53306 0.17016 0.75271
 H684 H 0.55438 0.14691 0.73432
 C685 C 0.40758 0.93235 0.70428
 C686 C 0.41757 0.95029 0.70030
 C687 C 0.40704 0.96653 0.69277
 C688 C 0.38629 0.96518 0.68899
 C689 C 0.37654 0.94687 0.69175
 C690 C 0.38709 0.93060 0.69934
 C691 C 0.41798 0.91635 0.71537
 C692 C 0.41511 0.89618 0.71061
 C693 C 0.42407 0.88131 0.72211
 C694 C 0.43577 0.88639 0.73872
 C695 C 0.43891 0.90653 0.74319
 C696 C 0.43015 0.92131 0.73168
 C697 C 0.44452 0.87102 0.75181
 C698 C 0.44336 0.87344 0.77242
 C699 C 0.45367 0.86065 0.78502
 C700 C 0.46541 0.84508 0.77733
 C701 C 0.46560 0.84184 0.75674
 C702 C 0.45518 0.85472 0.74406
 H703 H 0.43345 0.95195 0.70358
 H704 H 0.41502 0.98034 0.69040
 H705 H 0.36053 0.94545 0.68909
 H706 H 0.37896 0.91703 0.70238
 H707 H 0.40587 0.89194 0.69806
 H708 H 0.42143 0.86588 0.71837
 H709 H 0.44811 0.91088 0.75573
 H710 H 0.43243 0.93667 0.73592
 H711 H 0.43489 0.88562 0.77881
 H712 H 0.45298 0.86342 0.80081
 H713 H 0.47453 0.82997 0.75039
 H714 H 0.45629 0.85253 0.72821
 C715 C 0.59049 0.92378 0.30124
 C716 C 0.57959 0.93956 0.30971
 C717 C 0.58960 0.95590 0.31777
 C718 C 0.61071 0.95671 0.31772
 C719 C 0.62165 0.94023 0.31085
 C720 C 0.61162 0.92390 0.30262
 C721 C 0.58000 0.90864 0.28899
 C722 C 0.58589 0.88858 0.28914
 C723 C 0.57674 0.87485 0.27635
 C724 C 0.56172 0.88102 0.26305
 C725 C 0.55563 0.90098 0.26320
 C726 C 0.56467 0.91460 0.27597
 C727 C 0.55232 0.86696 0.24885
 C728 C 0.54863 0.87292 0.22928
 C729 C 0.53786 0.86071 0.21635
 C730 C 0.53055 0.84223 0.22266
 C731 C 0.53512 0.83580 0.24194
 C732 C 0.54594 0.84806 0.25493
 H733 H 0.56329 0.93966 0.30928
 H734 H 0.58087 0.96836 0.32323
 H735 H 0.63795 0.94059 0.31056
 H736 H 0.62043 0.91201 0.29614
 H737 H 0.59763 0.88356 0.29907
 H738 H 0.58171 0.85955 0.27651
 H739 H 0.54387 0.90610 0.25335
 H740 H 0.56001 0.92999 0.27521
 H741 H 0.55375 0.88724 0.22408
 H742 H 0.53477 0.86604 0.20154
 H743 H 0.52969 0.82162 0.24724
 H744 H 0.54855 0.84313 0.26995
 C745 C 0.41084 0.30032 0.92917
 C746 C 0.39066 0.30653 0.92926
 C747 C 0.38240 0.31558 0.94610
 C748 C 0.39408 0.31831 0.96342
 C749 C 0.41477 0.31364 0.96243
 C750 C 0.42299 0.30484 0.94557
 C751 C 0.41877 0.28753 0.91300
 C752 C 0.43100 0.27120 0.91771
 C753 C 0.43804 0.25852 0.90293
 C754 C 0.43296 0.26172 0.88301
 C755 C 0.42084 0.27811 0.87817
 C756 C 0.41372 0.29087 0.89306
 C757 C 0.44079 0.24803 0.86756
 C758 C 0.44875 0.25537 0.84976
 C759 C 0.45858 0.24261 0.83651
 C760 C 0.46068 0.22232 0.84088
 C761 C 0.45166 0.21484 0.85810
 C762 C 0.44177 0.22753 0.87124
 H763 H 0.38090 0.30325 0.91683
 H764 H 0.36642 0.31870 0.94595
 H765 H 0.42476 0.31662 0.97476
 H766 H 0.43882 0.30097 0.94562
 H767 H 0.43488 0.26797 0.93293
 H768 H 0.44765 0.24624 0.90712
 H769 H 0.41666 0.28091 0.86294
 H770 H 0.40436 0.30336 0.88898
 H771 H 0.44829 0.27110 0.84656
 H772 H 0.46541 0.24881 0.82336
 H773 H 0.45280 0.19924 0.86177
 H774 H 0.43535 0.22137 0.88460
 C775 C 0.61223 0.73226 0.93866
 C776 C 0.61119 0.71145 0.94011
 C777 C 0.61973 0.70156 0.95623
 C778 C 0.62902 0.71224 0.97176
 C779 C 0.63048 0.73303 0.96995
 C780 C 0.62254 0.74281 0.95354
 C781 C 0.60170 0.74304 0.92238
 C782 C 0.59351 0.76200 0.92581
 C783 C 0.58280 0.77183 0.91106
 C784 C 0.57936 0.76280 0.89255
 C785 C 0.58784 0.74399 0.88891
 C786 C 0.59902 0.73432 0.90357
 C787 C 0.56635 0.77273 0.87756
 C788 C 0.56981 0.77042 0.85710
 C789 C 0.55725 0.77968 0.84325
 C790 C 0.54127 0.79175 0.84962
 C791 C 0.53785 0.79412 0.86997
 C792 C 0.55004 0.78455 0.88374
 H793 H 0.60307 0.70276 0.92921
 H794 H 0.61772 0.68564 0.95705
 H795 H 0.63830 0.74186 0.98098
 H796 H 0.62447 0.75873 0.95264
 H797 H 0.59485 0.76918 0.94011
 H798 H 0.57703 0.78651 0.91431
 H799 H 0.58543 0.73646 0.87492
 H800 H 0.60540 0.71993 0.90015
 H801 H 0.58234 0.76165 0.85175
 H802 H 0.56019 0.77767 0.82760
 H803 H 0.52539 0.80305 0.87529
 H804 H 0.54639 0.78621 0.89927
 C805 C 0.39618 0.71885 0.06168
 C806 C 0.40945 0.71471 0.04611
 C807 C 0.40299 0.70423 0.02948
 C808 C 0.38289 0.69753 0.02770
 C809 C 0.36978 0.70116 0.04382
 C810 C 0.37637 0.71169 0.06057
 C811 C 0.40318 0.73100 0.07869
 C812 C 0.39893 0.72549 0.09829
 C813 C 0.40699 0.73636 0.11417
 C814 C 0.41925 0.75301 0.11068
 C815 C 0.42297 0.75875 0.09105
 C816 C 0.41501 0.74790 0.07528
 C817 C 0.42907 0.76398 0.12718
 C818 C 0.43105 0.78473 0.12630
 C819 C 0.44279 0.79488 0.14014
 C820 C 0.45270 0.78457 0.15533
 C821 C 0.44976 0.76398 0.15699
 C822 C 0.43808 0.75376 0.14300
 H823 H 0.42501 0.71948 0.04686
 H824 H 0.41419 0.70090 0.01833
 H825 H 0.35410 0.69689 0.04330
 H826 H 0.36579 0.71480 0.07237
 H827 H 0.38990 0.71247 0.10132
 H828 H 0.40376 0.73168 0.12915
 H829 H 0.43257 0.77131 0.08782
 H830 H 0.41832 0.75264 0.06032
 H831 H 0.42393 0.79307 0.11454
 H832 H 0.44452 0.81080 0.13864
 H833 H 0.45720 0.75565 0.16855
 H834 H 0.43693 0.73776 0.14401
 C835 C 0.61135 0.27436 0.06708
 C836 C 0.61293 0.26362 0.04934
 C837 C 0.62015 0.27263 0.03223
 C838 C 0.62620 0.29275 0.03227
 C839 C 0.62460 0.30344 0.05028
 C840 C 0.61713 0.29438 0.06739
 C841 C 0.60313 0.26459 0.08494
 C842 C 0.58819 0.27392 0.09637
 C843 C 0.57863 0.26364 0.11166
 C844 C 0.58390 0.24387 0.11583
 C845 C 0.59965 0.23499 0.10511
 C846 C 0.60913 0.24522 0.08981
 C847 C 0.57185 0.23199 0.12998
 C848 C 0.56632 0.21244 0.12508
 C849 C 0.55344 0.20169 0.13730
 C850 C 0.54577 0.21021 0.15475
 C851 C 0.55184 0.22952 0.16006
 C852 C 0.56472 0.24033 0.14775
 H853 H 0.60841 0.24818 0.04864
 H854 H 0.62173 0.26335 0.01922
 H855 H 0.62831 0.31905 0.05119
 H856 H 0.61595 0.30302 0.08090
 H857 H 0.58320 0.28880 0.09284
 H858 H 0.56642 0.27082 0.11952
 H859 H 0.60432 0.21992 0.10825
 H860 H 0.62088 0.23783 0.08147
 H861 H 0.57129 0.20569 0.11135
 H862 H 0.54907 0.18686 0.13277
 H863 H 0.54619 0.23648 0.17342
 H864 H 0.56889 0.25529 0.15200
 C865 C 0.28103 0.06669 0.60185
 C866 C 0.26974 0.04935 0.60458
 C867 C 0.27833 0.03262 0.61316
 C868 C 0.29865 0.03255 0.61940
 C869 C 0.30971 0.05038 0.61736
 C870 C 0.30101 0.06718 0.60863
 C871 C 0.27183 0.08385 0.59150
 C872 C 0.27470 0.10344 0.59824
 C873 C 0.26475 0.11927 0.58901
 C874 C 0.25174 0.11572 0.57294
 C875 C 0.24949 0.09622 0.56583
 C876 C 0.25942 0.08052 0.57496
 C877 C 0.24022 0.13201 0.56352
 C878 C 0.21997 0.12900 0.55833
 C879 C 0.20952 0.14319 0.54745
 C880 C 0.21905 0.16080 0.54150
 C881 C 0.23899 0.16436 0.54761
 C882 C 0.24949 0.15007 0.55857
 H883 H 0.25406 0.04872 0.60017
 H884 H 0.26861 0.01995 0.61543
 H885 H 0.32543 0.05125 0.62143
 H886 H 0.31012 0.08035 0.60661
 H887 H 0.28413 0.10644 0.61100
 H888 H 0.26676 0.13417 0.59476
 H889 H 0.24000 0.09311 0.55314
 H890 H 0.25732 0.06568 0.56907
 H891 H 0.21232 0.11539 0.56233
 H892 H 0.19412 0.14006 0.54318
 H893 H 0.24674 0.17779 0.54324
 H894 H 0.26510 0.15276 0.56238
 C895 C 0.71338 0.06735 0.39684
 C896 C 0.70910 0.06562 0.37653
 C897 C 0.70046 0.04825 0.36895
 C898 C 0.69623 0.03221 0.38151
 C899 C 0.70005 0.03414 0.40188
 C900 C 0.70844 0.05158 0.40948
 C901 C 0.72406 0.08498 0.40475
 C902 C 0.71790 0.09383 0.42261
 C903 C 0.72916 0.10920 0.43107
 C904 C 0.74690 0.11586 0.42194
 C905 C 0.75272 0.10743 0.40378
 C906 C 0.74133 0.09220 0.39520
 C907 C 0.76001 0.13046 0.43216
 C908 C 0.78078 0.12690 0.43386
 C909 C 0.79286 0.13934 0.44543
 C910 C 0.78445 0.15571 0.45538
 C911 C 0.76385 0.15981 0.45291
 C912 C 0.75172 0.14723 0.44150
 H913 H 0.71266 0.07762 0.36651
 H914 H 0.69774 0.04705 0.35318
 H915 H 0.69679 0.02202 0.41187
 H916 H 0.71176 0.05246 0.42517
 H917 H 0.70457 0.08860 0.43019
 H918 H 0.72444 0.11531 0.44518
 H919 H 0.76628 0.11239 0.39640
 H920 H 0.74649 0.08552 0.38150
 H921 H 0.78751 0.11397 0.42695
 H922 H 0.80869 0.13582 0.44702
 H923 H 0.75693 0.17231 0.46041
 H924 H 0.73578 0.15038 0.44028
 C925 C 0.70276 0.92743 0.59320
 C926 C 0.69419 0.94297 0.58221
 C927 C 0.68657 0.95978 0.59174
 C928 C 0.68727 0.96138 0.61246
 C929 C 0.69451 0.94527 0.62353
 C930 C 0.70221 0.92845 0.61398
 C931 C 0.71401 0.91132 0.58303
 C932 C 0.71306 0.89157 0.58965
 C933 C 0.72489 0.87684 0.58071
 C934 C 0.73803 0.88166 0.56515
 C935 C 0.73865 0.90131 0.55834
 C936 C 0.72681 0.91595 0.56716
 C937 C 0.75132 0.86648 0.55605
 C938 C 0.77139 0.87123 0.55156
 C939 C 0.78360 0.85772 0.54149
 C940 C 0.77603 0.83911 0.53565
 C941 C 0.75619 0.83401 0.54084
 C942 C 0.74396 0.84757 0.55099
 H943 H 0.69400 0.94241 0.56618
 H944 H 0.68075 0.97186 0.58288
 H945 H 0.69536 0.94619 0.63952
 H946 H 0.70883 0.91678 0.62285
 H947 H 0.70325 0.88756 0.60178
 H948 H 0.72415 0.86180 0.58626
 H949 H 0.74840 0.90541 0.54618
 H950 H 0.72814 0.93106 0.56190
 H951 H 0.77759 0.88555 0.55563
 H952 H 0.79885 0.86208 0.53787
 H953 H 0.74992 0.81979 0.53654
 H954 H 0.72852 0.84356 0.55422
 C955 C 0.26694 0.94050 0.38893
 C956 C 0.28723 0.93799 0.38353
 C957 C 0.29805 0.95371 0.37523
 C958 C 0.28879 0.97221 0.37223
 C959 C 0.26825 0.97437 0.37666
 C960 C 0.25744 0.95868 0.38488
 C961 C 0.25607 0.92480 0.39997
 C962 C 0.24371 0.93002 0.41604
 C963 C 0.23380 0.91546 0.42693
 C964 C 0.23595 0.89528 0.42203
 C965 C 0.24836 0.88998 0.40600
 C966 C 0.25833 0.90461 0.39507
 C967 C 0.22539 0.87998 0.43390
 C968 C 0.23510 0.86226 0.43931
 C969 C 0.22552 0.84860 0.45171
 C970 C 0.20606 0.85243 0.45894
 C971 C 0.19617 0.86987 0.45304
 C972 C 0.20569 0.88344 0.44064
 H973 H 0.29499 0.92420 0.38659
 H974 H 0.31390 0.95170 0.37205
 H975 H 0.26066 0.98836 0.37414
 H976 H 0.24171 0.96090 0.38844
 H977 H 0.24205 0.94539 0.42050
 H978 H 0.22474 0.92002 0.43947
 H979 H 0.25016 0.87456 0.40177
 H980 H 0.26766 0.90016 0.38269
 H981 H 0.25034 0.85925 0.43448
 H982 H 0.23353 0.83529 0.45600
 H983 H 0.18109 0.87318 0.45818
 H984 H 0.19765 0.89675 0.43642
 C985 C 0.06442 0.37082 0.74199
 C986 C 0.04672 0.36458 0.75158
 C987 C 0.03016 0.35792 0.74070
 C988 C 0.03108 0.35629 0.71994
 C989 C 0.04961 0.36016 0.71058
 C990 C 0.06587 0.36778 0.72138
 C991 C 0.08022 0.38224 0.75304
 C992 C 0.10025 0.38324 0.74626
 C993 C 0.11410 0.39622 0.75509
 C994 C 0.10849 0.40815 0.77133
 C995 C 0.08893 0.40607 0.77896
 C996 C 0.07494 0.39368 0.76976
 C997 C 0.12245 0.42339 0.77977
 C998 C 0.11469 0.44107 0.78797
 C999 C 0.12747 0.45537 0.79607
 C1000 C 0.14837 0.45273 0.79560
 C1001 C 0.15635 0.43543 0.78705
 C1002 C 0.14351 0.42075 0.77944
 H1003 H 0.04526 0.36543 0.76750
 H1004 H 0.01656 0.35408 0.74864
 H1005 H 0.05102 0.35927 0.69463
 H1006 H 0.07903 0.37243 0.71322
 H1007 H 0.10523 0.37435 0.73383
 H1008 H 0.12898 0.39733 0.74869
 H1009 H 0.08413 0.41438 0.79186
 H1010 H 0.05974 0.39382 0.77546
 H1011 H 0.09871 0.44414 0.78790
 H1012 H 0.12101 0.46877 0.80231
 H1013 H 0.17248 0.43309 0.78664
 H1014 H 0.15012 0.40730 0.77355
 C1015 C 0.07145 0.61978 0.26871
 C1016 C 0.06931 0.62047 0.28945
 C1017 C 0.05212 0.62883 0.29814
 C1018 C 0.03622 0.63594 0.28628
 C1019 C 0.03899 0.63625 0.26562
 C1020 C 0.05648 0.62874 0.25704
 C1021 C 0.08816 0.60839 0.25912
 C1022 C 0.08489 0.59894 0.24078
 C1023 C 0.09974 0.58721 0.23213
 C1024 C 0.11815 0.58385 0.24181
 C1025 C 0.12176 0.59362 0.25993
 C1026 C 0.10699 0.60587 0.26842
 C1027 C 0.13289 0.56952 0.23322
 C1028 C 0.15385 0.57230 0.23507
 C1029 C 0.16733 0.55886 0.22626
 C1030 C 0.16004 0.54271 0.21517
 C1031 C 0.13921 0.53977 0.21366
 C1032 C 0.12584 0.55279 0.22278
 H1033 H 0.08036 0.61365 0.29903
 H1034 H 0.05065 0.62812 0.31409
 H1035 H 0.02767 0.64257 0.25595
 H1036 H 0.05795 0.62960 0.24112
 H1037 H 0.07058 0.59998 0.23320
 H1038 H 0.09656 0.58048 0.21788
 H1039 H 0.13574 0.59139 0.26785
 H1040 H 0.11030 0.61314 0.28236
 H1041 H 0.15983 0.58504 0.24293
 H1042 H 0.18338 0.56136 0.22766
 H1043 H 0.13320 0.52715 0.20559
 H1044 H 0.10991 0.54962 0.22166
 C1045 C 0.93571 0.41109 0.29345
 C1046 C 0.93448 0.39148 0.30036
 C1047 C 0.95092 0.38264 0.30991
 C1048 C 0.96920 0.39310 0.31239
 C1049 C 0.96966 0.41325 0.30675
 C1050 C 0.95318 0.42208 0.29753
 C1051 C 0.91959 0.41972 0.28084
 C1052 C 0.92479 0.43164 0.26459
 C1053 C 0.90997 0.43967 0.25239
 C1054 C 0.88950 0.43586 0.25594
 C1055 C 0.88421 0.42390 0.27216
 C1056 C 0.89911 0.41589 0.28447
 C1057 C 0.87391 0.44471 0.24285
 C1058 C 0.85594 0.45242 0.25074
 C1059 C 0.84213 0.46223 0.23856
 C1060 C 0.84606 0.46462 0.21825
 C1061 C 0.86367 0.45631 0.21026
 C1062 C 0.87736 0.44639 0.22238
 H1063 H 0.92123 0.38257 0.29744
 H1064 H 0.94969 0.36711 0.31377
 H1065 H 0.98277 0.42241 0.30947
 H1066 H 0.95431 0.43750 0.29319
 H1067 H 0.94040 0.43461 0.26110
 H1068 H 0.91459 0.44908 0.24026
 H1069 H 0.86858 0.42057 0.27522
 H1070 H 0.89460 0.40684 0.29691
 H1071 H 0.85289 0.45153 0.26645
 H1072 H 0.82871 0.46851 0.24516
 H1073 H 0.86702 0.45771 0.19463
 H1074 H 0.89081 0.44021 0.21573
 C1075 C 0.92506 0.59477 0.70321
 C1076 C 0.94175 0.58228 0.70076
 C1077 C 0.95946 0.58940 0.69228
 C1078 C 0.96094 0.60925 0.68575
 C1079 C 0.94364 0.62138 0.68729
 C1080 C 0.92605 0.61429 0.69616
 C1081 C 0.90724 0.58768 0.71423
 C1082 C 0.89958 0.59884 0.73014
 C1083 C 0.88440 0.59108 0.74215
 C1084 C 0.87641 0.57215 0.73826
 C1085 C 0.88345 0.56138 0.72181
 C1086 C 0.89884 0.56901 0.70999
 C1087 C 0.86192 0.56295 0.75209
 C1088 C 0.84485 0.55294 0.74491
 C1089 C 0.83236 0.54249 0.75785
 C1090 C 0.83690 0.54160 0.77816
 C1091 C 0.85362 0.55216 0.78541
 C1092 C 0.86593 0.56284 0.77251
 H1093 H 0.94133 0.56712 0.70604
 H1094 H 0.97187 0.57912 0.69066
 H1095 H 0.94395 0.63681 0.68292
 H1096 H 0.91330 0.62418 0.69786
 H1097 H 0.90595 0.61320 0.73379
 H1098 H 0.87915 0.59968 0.75471
 H1099 H 0.87765 0.54668 0.71861
 H1100 H 0.90447 0.56017 0.69776
 H1101 H 0.84140 0.55290 0.72924
 H1102 H 0.81961 0.53446 0.75182
 H1103 H 0.85747 0.55177 0.80099
 H1104 H 0.87910 0.57031 0.77838
 C1105 C 0.70761 0.60522 0.93116
 C1106 C 0.70848 0.62568 0.93520
 C1107 C 0.69907 0.63351 0.95209
 C1108 C 0.68852 0.62100 0.96510
 C1109 C 0.68678 0.60073 0.96034
 C1110 C 0.69629 0.59293 0.94363
 C1111 C 0.71973 0.59631 0.91501
 C1112 C 0.73185 0.57973 0.91904
 C1113 C 0.74358 0.57118 0.90420
 C1114 C 0.74335 0.57886 0.88492
 C1115 C 0.73110 0.59533 0.88074
 C1116 C 0.71953 0.60415 0.89576
 C1117 C 0.75592 0.56935 0.86946
 C1118 C 0.74758 0.56335 0.85127
 C1119 C 0.75884 0.55171 0.83805
 C1120 C 0.77865 0.54605 0.84278
 C1121 C 0.78730 0.55320 0.86044
 C1122 C 0.77604 0.56464 0.87363
 H1123 H 0.71722 0.63543 0.92584
 H1124 H 0.70081 0.64915 0.95541
 H1125 H 0.67836 0.59079 0.96979
 H1126 H 0.69513 0.57715 0.94065
 H1127 H 0.73243 0.57353 0.93380
 H1128 H 0.75273 0.55836 0.90776
 H1129 H 0.73071 0.60151 0.86597
 H1130 H 0.71026 0.61690 0.89231
 H1131 H 0.73205 0.56678 0.84776
 H1132 H 0.75176 0.54646 0.82455
 H1133 H 0.80256 0.54928 0.86451
 H1134 H 0.78289 0.56933 0.88745
 C1135 C 0.27249 0.38030 0.93476
 C1136 C 0.26297 0.37369 0.95213
 C1137 C 0.27423 0.36705 0.96822
 C1138 C 0.29537 0.36587 0.96718
 C1139 C 0.30470 0.37009 0.94895
 C1140 C 0.29348 0.37766 0.93312
 C1141 C 0.26086 0.39150 0.91943
 C1142 C 0.26719 0.39230 0.89955
 C1143 C 0.25738 0.40462 0.88593
 C1144 C 0.24068 0.41614 0.89170
 C1145 C 0.23375 0.41449 0.91128
 C1146 C 0.24386 0.40272 0.92497
 C1147 C 0.23080 0.43030 0.87776
 C1148 C 0.22201 0.44792 0.88502
 C1149 C 0.21210 0.46095 0.87234
 C1150 C 0.21126 0.45708 0.85196
 C1151 C 0.22052 0.43992 0.84443
 C1152 C 0.22999 0.42652 0.85723
 H1153 H 0.24677 0.37424 0.95367
 H1154 H 0.26630 0.36289 0.98157
 H1155 H 0.32092 0.36950 0.94745
 H1156 H 0.30155 0.38255 0.92014
 H1157 H 0.27990 0.38365 0.89446
 H1158 H 0.26328 0.40548 0.87103
 H1159 H 0.22059 0.42255 0.91626
 H1160 H 0.23857 0.40304 0.94010
 H1161 H 0.22289 0.45186 0.90054
 H1162 H 0.20534 0.47427 0.87844
 H1163 H 0.21996 0.43663 0.82873
 H1164 H 0.23632 0.41306 0.85105
 C1165 C 0.29397 0.59901 0.06606
 C1166 C 0.30038 0.58632 0.05075
 C1167 C 0.30899 0.59407 0.03357
 C1168 C 0.31160 0.61464 0.03146
 C1169 C 0.30597 0.62729 0.04709
 C1170 C 0.29709 0.61955 0.06418
 C1171 C 0.28303 0.59084 0.08334
 C1172 C 0.26491 0.59955 0.08969
 C1173 C 0.25360 0.59084 0.10480
 C1174 C 0.26031 0.57340 0.11403
 C1175 C 0.27877 0.56506 0.10812
 C1176 C 0.28994 0.57362 0.09284
 C1177 C 0.24765 0.56326 0.12898
 C1178 C 0.25623 0.55567 0.14639
 C1179 C 0.24456 0.54475 0.15969
 C1180 C 0.22413 0.54096 0.15571
 C1181 C 0.21543 0.54901 0.13855
 C1182 C 0.22705 0.56015 0.12539
 H1183 H 0.29801 0.57044 0.05174
 H1184 H 0.31329 0.58401 0.02175
 H1185 H 0.30770 0.64321 0.04575
 H1186 H 0.29240 0.62963 0.07583
 H1187 H 0.25914 0.61272 0.08250
 H1188 H 0.23948 0.59761 0.10915
 H1189 H 0.28421 0.55153 0.11486
 H1190 H 0.30391 0.56667 0.08829
 H1191 H 0.27204 0.55799 0.14958
 H1192 H 0.25172 0.53869 0.17275
 H1193 H 0.19974 0.54635 0.13507
 H1194 H 0.22009 0.56569 0.11200
 C1195 C 0.72613 0.37778 0.07371
 C1196 C 0.70558 0.37285 0.07301
 C1197 C 0.69686 0.36591 0.05542
 C1198 C 0.70848 0.36398 0.03814
 C1199 C 0.72917 0.36822 0.03904
 C1200 C 0.73791 0.37499 0.05664
 C1201 C 0.73505 0.38724 0.09159
 C1202 C 0.75457 0.38222 0.09786
 C1203 C 0.76398 0.39296 0.11302
 C1204 C 0.75414 0.40905 0.12217
 C1205 C 0.73422 0.41337 0.11661
 C1206 C 0.72477 0.40257 0.10150
 C1207 C 0.76524 0.42248 0.13590
 C1208 C 0.75571 0.43119 0.15240
 C1209 C 0.76569 0.44553 0.16387
 C1210 C 0.78533 0.45152 0.15898
 C1211 C 0.79508 0.44222 0.14298
 C1212 C 0.78518 0.42790 0.13161
 H1213 H 0.69618 0.37470 0.08598
 H1214 H 0.68085 0.36286 0.05510
 H1215 H 0.73851 0.36669 0.02599
 H1216 H 0.75373 0.37885 0.05664
 H1217 H 0.76273 0.37025 0.09072
 H1218 H 0.77919 0.38900 0.11722
 H1219 H 0.72629 0.42581 0.12316
 H1220 H 0.70981 0.40693 0.09686
 H1221 H 0.74042 0.42717 0.15621
 H1222 H 0.75778 0.45242 0.17611
 H1223 H 0.81023 0.44643 0.13882
 H1224 H 0.79289 0.42175 0.11887
 C1225 C 0.92502 0.71067 0.60598
 C1226 C 0.93812 0.70180 0.59223
 C1227 C 0.95591 0.69282 0.59848
 C1228 C 0.96104 0.69238 0.61864
 C1229 C 0.94784 0.70094 0.63251
 C1230 C 0.93004 0.71015 0.62621
 C1231 C 0.90672 0.72107 0.59887
 C1232 C 0.90185 0.74010 0.60600
 C1233 C 0.88628 0.75101 0.59728
 C1234 C 0.87522 0.74305 0.58134
 C1235 C 0.87938 0.72358 0.57500
 C1236 C 0.89497 0.71274 0.58365
 C1237 C 0.86083 0.75554 0.57004
 C1238 C 0.84286 0.74748 0.56244
 C1239 C 0.83079 0.75849 0.54952
 C1240 C 0.83650 0.77775 0.54386
 C1241 C 0.85394 0.78612 0.55224
 C1242 C 0.86594 0.77516 0.56519
 H1243 H 0.93482 0.70222 0.57653
 H1244 H 0.96570 0.68614 0.58750
 H1245 H 0.95149 0.70084 0.64814
 H1246 H 0.92018 0.71682 0.63712
 H1247 H 0.91070 0.74693 0.61766
 H1248 H 0.88327 0.76589 0.60262
 H1249 H 0.87128 0.71708 0.56266
 H1250 H 0.89823 0.69800 0.57804
 H1251 H 0.83841 0.73248 0.56610
 H1252 H 0.81741 0.75164 0.54338
 H1253 H 0.85875 0.80094 0.54824
 H1254 H 0.87979 0.78172 0.57059
 C1255 C 0.93054 0.28271 0.38613
 C1256 C 0.94802 0.27188 0.38154
 C1257 C 0.96534 0.28154 0.37492
 C1258 C 0.96560 0.30226 0.37269
 C1259 C 0.94787 0.31303 0.37641
 C1260 C 0.93053 0.30336 0.38314
 C1261 C 0.91301 0.27257 0.39533
 C1262 C 0.90301 0.28121 0.41156
 C1263 C 0.88823 0.27064 0.42183
 C1264 C 0.88313 0.25119 0.41611
 C1265 C 0.89242 0.24294 0.39928
 C1266 C 0.90719 0.25350 0.38902
 C1267 C 0.86948 0.23899 0.42856
 C1268 C 0.87440 0.21914 0.43263
 C1269 C 0.86266 0.20794 0.44557
 C1270 C 0.84564 0.21626 0.45475
 C1271 C 0.84034 0.23595 0.45028
 C1272 C 0.85220 0.24723 0.43737
 H1273 H 0.94862 0.25599 0.38386
 H1274 H 0.97872 0.27283 0.37196
 H1275 H 0.94767 0.32904 0.37492
 H1276 H 0.91722 0.31208 0.38636
 H1277 H 0.90731 0.29577 0.41695
 H1278 H 0.88152 0.27733 0.43485
 H1279 H 0.88854 0.22813 0.39428
 H1280 H 0.91435 0.24658 0.37635
 H1281 H 0.88777 0.21242 0.42635
 H1282 H 0.86718 0.19281 0.44865
 H1283 H 0.82731 0.24279 0.45711
 H1284 H 0.84794 0.26245 0.43439
 C1285 C 0.07000 0.29400 0.60257
 C1286 C 0.05443 0.30286 0.59161
 C1287 C 0.03761 0.31080 0.60114
 C1288 C 0.03602 0.31016 0.62185
 C1289 C 0.05220 0.30262 0.63293
 C1290 C 0.06904 0.29457 0.62337
 C1291 C 0.08612 0.28263 0.59231
 C1292 C 0.10618 0.28310 0.59898
 C1293 C 0.12095 0.27154 0.58964
 C1294 C 0.11589 0.25914 0.57358
 C1295 C 0.09588 0.25886 0.56684
 C1296 C 0.08120 0.27042 0.57608
 C1297 C 0.13123 0.24652 0.56365
 C1298 C 0.12632 0.22712 0.55765
 C1299 C 0.13987 0.21581 0.54657
 C1300 C 0.15872 0.22361 0.54125
 C1301 C 0.16404 0.24268 0.54804
 C1302 C 0.15043 0.25402 0.55915
 H1303 H 0.05496 0.30308 0.57559
 H1304 H 0.02547 0.31681 0.59228
 H1305 H 0.05128 0.30182 0.64891
 H1306 H 0.08073 0.28777 0.63222
 H1307 H 0.11044 0.29243 0.61139
 H1308 H 0.13625 0.27201 0.59518
 H1309 H 0.09155 0.24973 0.55431
 H1310 H 0.06584 0.26944 0.57076
 H1311 H 0.11180 0.22077 0.56125
 H1312 H 0.13535 0.20112 0.54173
 H1313 H 0.17844 0.24912 0.54416
 H1314 H 0.15460 0.26896 0.56351
 C1315 C 0.06310 0.72941 0.38114
 C1316 C 0.04340 0.73608 0.38438
 C1317 C 0.02697 0.72518 0.37746
 C1318 C 0.02969 0.70723 0.36690
 C1319 C 0.04964 0.70112 0.36286
 C1320 C 0.06610 0.71195 0.37012
 C1321 C 0.08022 0.74015 0.39036
 C1322 C 0.09487 0.72977 0.40118
 C1323 C 0.10933 0.74006 0.41227
 C1324 C 0.10950 0.76095 0.41266
 C1325 C 0.09551 0.77126 0.40091
 C1326 C 0.08099 0.76098 0.38997
 C1327 C 0.12314 0.77191 0.42637
 C1328 C 0.11606 0.78865 0.43674
 C1329 C 0.12823 0.79831 0.45062
 C1330 C 0.14778 0.79143 0.45458
 C1331 C 0.15506 0.77491 0.44398
 C1332 C 0.14287 0.76527 0.43001
 H1333 H 0.04063 0.74951 0.39283
 H1334 H 0.01213 0.73121 0.38017
 H1335 H 0.05271 0.68733 0.35515
 H1336 H 0.08119 0.70652 0.36737
 H1337 H 0.09450 0.71372 0.40189
 H1338 H 0.11973 0.73165 0.42130
 H1339 H 0.09552 0.78733 0.40051
 H1340 H 0.07004 0.76933 0.38151
 H1341 H 0.10083 0.79396 0.43461
 H1342 H 0.12211 0.81093 0.45856
 H1343 H 0.17009 0.76930 0.44664
 H1344 H 0.14887 0.75255 0.42212
 C1345 C 0.62723 0.93322 0.73302
 C1346 C 0.62994 0.93173 0.71236
 C1347 C 0.63789 0.94761 0.70156
 C1348 C 0.64240 0.96577 0.71100
 C1349 C 0.64120 0.96664 0.73179
 C1350 C 0.63421 0.95047 0.74263
 C1351 C 0.61550 0.91792 0.74418
 C1352 C 0.60431 0.92343 0.76104
 C1353 C 0.59190 0.90984 0.77061
 C1354 C 0.58956 0.89042 0.76328
 C1355 C 0.60112 0.88463 0.74677
 C1356 C 0.61409 0.89811 0.73751
 C1357 C 0.57451 0.87672 0.77241
 C1358 C 0.57737 0.85598 0.77237
 C1359 C 0.56291 0.84336 0.78066
 C1360 C 0.54559 0.85123 0.78960
 C1361 C 0.54275 0.87184 0.78981
 C1362 C 0.55684 0.88439 0.78107
 H1363 H 0.62478 0.91885 0.70420
 H1364 H 0.63849 0.94624 0.68559
 H1365 H 0.64555 0.97995 0.73977
 H1366 H 0.63367 0.95190 0.75858
 H1367 H 0.60443 0.93850 0.76662
 H1368 H 0.58385 0.91481 0.78364
 H1369 H 0.59975 0.86986 0.74055
 H1370 H 0.62272 0.89299 0.72492
 H1371 H 0.59084 0.84945 0.76614
 H1372 H 0.56543 0.82747 0.78040
 H1373 H 0.52933 0.87825 0.79633
 H1374 H 0.55359 0.90012 0.78085
 C1375 C 0.38283 0.92710 0.28310
 C1376 C 0.37826 0.92893 0.30331
 C1377 C 0.37148 0.94708 0.31110
 C1378 C 0.36965 0.96403 0.29892
 C1379 C 0.37422 0.96182 0.27860
 C1380 C 0.38060 0.94369 0.27087
 C1381 C 0.39075 0.90834 0.27458
 C1382 C 0.38348 0.90141 0.25629
 C1383 C 0.39315 0.88588 0.24641
 C1384 C 0.41041 0.87701 0.25454
 C1385 C 0.41684 0.88298 0.27351
 C1386 C 0.40706 0.89851 0.28347
 C1387 C 0.42288 0.86333 0.24233
 C1388 C 0.43231 0.84660 0.25060
 C1389 C 0.44546 0.83494 0.23921
 C1390 C 0.44958 0.83998 0.21944
 C1391 C 0.43971 0.85638 0.21110
 C1392 C 0.42652 0.86787 0.22237
 H1393 H 0.37995 0.91633 0.31307
 H1394 H 0.36868 0.94790 0.32685
 H1395 H 0.37225 0.97391 0.26828
 H1396 H 0.38414 0.94273 0.25524
 H1397 H 0.37071 0.90853 0.24928
 H1398 H 0.38758 0.88131 0.23202
 H1399 H 0.43016 0.87652 0.28011
 H1400 H 0.41302 0.90363 0.29752
 H1401 H 0.42970 0.84269 0.26591
 H1402 H 0.45289 0.82241 0.24605
 H1403 H 0.44253 0.86066 0.19591
 H1404 H 0.41979 0.88083 0.21563
 C1405 C 0.60259 0.06144 0.28394
 C1406 C 0.58960 0.04657 0.29069
 C1407 C 0.59699 0.03042 0.30121
 C1408 C 0.61777 0.02842 0.30532
 C1409 C 0.63063 0.04406 0.29942
 C1410 C 0.62311 0.06033 0.28882
 C1411 C 0.59456 0.07746 0.27116
 C1412 C 0.59973 0.09746 0.27430
 C1413 C 0.59096 0.11241 0.26274
 C1414 C 0.57711 0.10754 0.24771
 C1415 C 0.57235 0.08748 0.24439
 C1416 C 0.58098 0.07266 0.25593
 C1417 C 0.56692 0.12310 0.23583
 C1418 C 0.56342 0.11999 0.21553
 C1419 C 0.55151 0.13314 0.20477
 C1420 C 0.54289 0.14983 0.21398
 C1421 C 0.54728 0.15360 0.23402
 C1422 C 0.55917 0.14033 0.24486
 H1423 H 0.57359 0.04741 0.28776
 H1424 H 0.58610 0.01972 0.30645
 H1425 H 0.64671 0.04337 0.30181
 H1426 H 0.63347 0.07163 0.28373
 H1427 H 0.61012 0.10156 0.28598
 H1428 H 0.59499 0.12775 0.26555
 H1429 H 0.56153 0.08323 0.23314
 H1430 H 0.57691 0.05735 0.25300
 H1431 H 0.56954 0.10708 0.20806
 H1432 H 0.54867 0.12995 0.18928
 H1433 H 0.54086 0.16636 0.24152
 H1434 H 0.56151 0.14306 0.26050
 C1435 C 0.38435 0.07138 0.72102
 C1436 C 0.37919 0.07176 0.70083
 C1437 C 0.37235 0.05455 0.69125
 C1438 C 0.37074 0.03659 0.70163
 C1439 C 0.37515 0.03641 0.72197
 C1440 C 0.38184 0.05360 0.73157
 C1441 C 0.39367 0.08893 0.73084
 C1442 C 0.38872 0.09395 0.75045
 C1443 C 0.39919 0.10897 0.76045
 C1444 C 0.41491 0.11929 0.75109
 C1445 C 0.41925 0.11486 0.73118
 C1446 C 0.40874 0.09987 0.72117
 C1447 C 0.42775 0.13344 0.76245
 C1448 C 0.43522 0.15087 0.75369
 C1449 C 0.44867 0.16319 0.76399
 C1450 C 0.45498 0.15830 0.78324
 C1451 C 0.44704 0.14120 0.79217
 C1452 C 0.43362 0.12894 0.78192
 H1453 H 0.38077 0.08529 0.69237
 H1454 H 0.36915 0.05509 0.67553
 H1455 H 0.37385 0.02281 0.73038
 H1456 H 0.38586 0.05275 0.74708
 H1457 H 0.37695 0.08602 0.75819
 H1458 H 0.39520 0.11228 0.77565
 H1459 H 0.43143 0.12232 0.72360
 H1460 H 0.41308 0.09620 0.70614
 H1461 H 0.43082 0.15487 0.73879
 H1462 H 0.45449 0.17628 0.75670
 H1463 H 0.45157 0.13696 0.80696
 H1464 H 0.42842 0.11550 0.78902
 C1465 C 0.61846 0.72959 0.07786
 C1466 C 0.63258 0.73966 0.06598
 C1467 C 0.64079 0.73053 0.04918
 C1468 C 0.63556 0.71097 0.04424
 C1469 C 0.62267 0.70039 0.05678
 C1470 C 0.61406 0.70962 0.07329
 C1471 C 0.60697 0.74029 0.09366
 C1472 C 0.59940 0.73018 0.11028
 C1473 C 0.58637 0.73967 0.12359
 C1474 C 0.58085 0.75964 0.12085
 C1475 C 0.58942 0.77005 0.10494
 C1476 C 0.60206 0.76048 0.09143
 C1477 C 0.56542 0.76932 0.13375
 C1478 C 0.55202 0.78332 0.12571
 C1479 C 0.53737 0.79234 0.13747
 C1480 C 0.53539 0.78735 0.15753
 C1481 C 0.54853 0.77321 0.16564
 C1482 C 0.56351 0.76440 0.15392
 H1483 H 0.63687 0.75481 0.06928
 H1484 H 0.65078 0.73893 0.03970
 H1485 H 0.61822 0.68535 0.05307
 H1486 H 0.60307 0.70138 0.08174
 H1487 H 0.60316 0.71478 0.11284
 H1488 H 0.58008 0.73109 0.13559
 H1489 H 0.58605 0.78558 0.10260
 H1490 H 0.60728 0.76884 0.07879
 H1491 H 0.55251 0.78710 0.11016
 H1492 H 0.52729 0.80299 0.13072
 H1493 H 0.54739 0.76916 0.18110
 H1494 H 0.57367 0.75389 0.16073
 C1495 C 0.40776 0.29047 0.06861
 C1496 C 0.38681 0.29073 0.06567
 C1497 C 0.37851 0.30077 0.04949
 C1498 C 0.39102 0.31079 0.03605
 C1499 C 0.41186 0.31135 0.03964
 C1500 C 0.42013 0.30127 0.05570
 C1501 C 0.41690 0.27778 0.08405
 C1502 C 0.43342 0.26569 0.07924
 C1503 C 0.44191 0.25320 0.09335
 C1504 C 0.43417 0.25256 0.11267
 C1505 C 0.41780 0.26481 0.11765
 C1506 C 0.40911 0.27721 0.10339
 C1507 C 0.44337 0.23903 0.12735
 C1508 C 0.44867 0.24581 0.14635
 C1509 C 0.45954 0.23354 0.15922
 C1510 C 0.46513 0.21426 0.15332
 C1511 C 0.45885 0.20722 0.13468
 C1512 C 0.44815 0.21947 0.12185
 H1513 H 0.37696 0.28240 0.07533
 H1514 H 0.36242 0.29995 0.04702
 H1515 H 0.42182 0.31929 0.02976
 H1516 H 0.43629 0.30160 0.05783
 H1517 H 0.43958 0.26564 0.06439
 H1518 H 0.45467 0.24409 0.08919
 H1519 H 0.41155 0.26453 0.13245
 H1520 H 0.39642 0.28644 0.10747
 H1521 H 0.44520 0.26086 0.15090
 H1522 H 0.46413 0.23938 0.17349
 H1523 H 0.46276 0.19241 0.12970
 H1524 H 0.44395 0.21379 0.10740
 C1525 C 0.61226 0.28069 0.92340
 C1526 C 0.59962 0.28852 0.93815
 C1527 C 0.60765 0.29576 0.95585
 C1528 C 0.62851 0.29547 0.95920
 C1529 C 0.64129 0.28827 0.94425
 C1530 C 0.63321 0.28079 0.92654
 C1531 C 0.60328 0.27136 0.90549
 C1532 C 0.60996 0.25268 0.89890
 C1533 C 0.59956 0.24253 0.88396
 C1534 C 0.58233 0.25090 0.87520
 C1535 C 0.57637 0.27008 0.88100
 C1536 C 0.58670 0.28017 0.89601
 C1537 C 0.56951 0.23902 0.86155
 C1538 C 0.56047 0.24769 0.84485
 C1539 C 0.54676 0.23689 0.83327
 C1540 C 0.54168 0.21729 0.83830
 C1541 C 0.55121 0.20847 0.85464
 C1542 C 0.56499 0.21918 0.86608
 H1543 H 0.58343 0.28842 0.93630
 H1544 H 0.59750 0.30142 0.96708
 H1545 H 0.65743 0.28787 0.94652
 H1546 H 0.64330 0.27492 0.91537
 H1547 H 0.62261 0.24547 0.90600
 H1548 H 0.60463 0.22786 0.87963
 H1549 H 0.56309 0.27687 0.87464
 H1550 H 0.58135 0.29466 0.90064
 H1551 H 0.56378 0.26291 0.84092
 H1552 H 0.53968 0.24409 0.82076
 H1553 H 0.54768 0.19339 0.85889
 H1554 H 0.57148 0.21216 0.87899
 C1555 C 0.40849 0.70436 0.92248
 C1556 C 0.38791 0.69950 0.92240
 C1557 C 0.37909 0.69055 0.93895
 C1558 C 0.39072 0.68636 0.95582
 C1559 C 0.41156 0.68984 0.95524
 C1560 C 0.42034 0.69873 0.93876
 C1561 C 0.41721 0.71712 0.90680
 C1562 C 0.42955 0.73318 0.91222
 C1563 C 0.43729 0.74590 0.89791
 C1564 C 0.43294 0.74290 0.87778
 C1565 C 0.42080 0.72670 0.87221
 C1566 C 0.41284 0.71401 0.88664
 C1567 C 0.44143 0.75671 0.86291
 C1568 C 0.45116 0.74954 0.84585
 C1569 C 0.46184 0.76254 0.83357
 C1570 C 0.46290 0.78292 0.83814
 C1571 C 0.45198 0.79018 0.85444
 C1572 C 0.44138 0.77723 0.86667
 H1573 H 0.37841 0.70373 0.91008
 H1574 H 0.36297 0.68810 0.93906
 H1575 H 0.42092 0.68644 0.96793
 H1576 H 0.43633 0.70191 0.93905
 H1577 H 0.43294 0.73617 0.92764
 H1578 H 0.44684 0.75808 0.90262
 H1579 H 0.41722 0.72408 0.85678
 H1580 H 0.40338 0.70172 0.88207
 H1581 H 0.45145 0.73378 0.84263
 H1582 H 0.47011 0.75649 0.82112
 H1583 H 0.45229 0.80580 0.85829
 H1584 H 0.43368 0.78320 0.87950
 C1585 C 0.71831 0.92300 0.39237
 C1586 C 0.71661 0.92610 0.37186
 C1587 C 0.70807 0.94364 0.36458
 C1588 C 0.70139 0.95848 0.37771
 C1589 C 0.70311 0.95533 0.39818
 C1590 C 0.71141 0.93779 0.40542
 C1591 C 0.72777 0.90478 0.40038
 C1592 C 0.71925 0.89512 0.41675
 C1593 C 0.72929 0.87938 0.42584
 C1594 C 0.74812 0.87301 0.41882
 C1595 C 0.75624 0.88209 0.40190
 C1596 C 0.74611 0.89777 0.39271
 C1597 C 0.75996 0.85829 0.43027
 C1598 C 0.78044 0.86176 0.43420
 C1599 C 0.79104 0.84954 0.44720
 C1600 C 0.78145 0.83347 0.45648
 C1601 C 0.76126 0.82935 0.45175
 C1602 C 0.75060 0.84170 0.43883
 H1603 H 0.72178 0.91490 0.36148
 H1604 H 0.70695 0.94575 0.34874
 H1605 H 0.69788 0.96643 0.40862
 H1606 H 0.71277 0.93593 0.42128
 H1607 H 0.70502 0.90008 0.42283
 H1608 H 0.72273 0.87283 0.43895
 H1609 H 0.77065 0.87737 0.39607
 H1610 H 0.75305 0.90499 0.38015
 H1611 H 0.78802 0.87454 0.42801
 H1612 H 0.80660 0.85308 0.45048
 H1613 H 0.75345 0.81708 0.45864
 H1614 H 0.73488 0.83855 0.43590
 C1615 C 0.28284 0.92420 0.60706
 C1616 C 0.29129 0.93843 0.59440
 C1617 C 0.29972 0.95580 0.60204
 C1618 C 0.29999 0.95936 0.62253
 C1619 C 0.29227 0.94487 0.63533
 C1620 C 0.28363 0.92747 0.62765
 C1621 C 0.27209 0.90682 0.59850
 C1622 C 0.25308 0.90126 0.60571
 C1623 C 0.24161 0.88691 0.59577
 C1624 C 0.24894 0.87777 0.57846
 C1625 C 0.26843 0.88254 0.57192
 C1626 C 0.27986 0.89690 0.58182
 C1627 C 0.23576 0.86471 0.56625
 C1628 C 0.24354 0.84786 0.55657
 C1629 C 0.23158 0.83690 0.54340
 C1630 C 0.21160 0.84263 0.53957
 C1631 C 0.20363 0.85905 0.54980
 C1632 C 0.21555 0.86994 0.56298
 H1633 H 0.29069 0.93650 0.57848
 H1634 H 0.30574 0.96670 0.59188
 H1635 H 0.29229 0.94732 0.65119
 H1636 H 0.27733 0.91669 0.63775
 H1637 H 0.24664 0.90870 0.61845
 H1638 H 0.22676 0.88336 0.60132
 H1639 H 0.27447 0.87590 0.55856
 H1640 H 0.29456 0.90071 0.57605
 H1641 H 0.25900 0.84333 0.55895
 H1642 H 0.23816 0.82429 0.53580
 H1643 H 0.18829 0.86386 0.54722
 H1644 H 0.20915 0.88299 0.56998
 C1645 C 0.29327 0.07930 0.39887
 C1646 C 0.29714 0.07847 0.37842
 C1647 C 0.30373 0.06082 0.36957
 C1648 C 0.30637 0.04361 0.38096
 C1649 C 0.30336 0.04468 0.40152
 C1650 C 0.29695 0.06236 0.41039
 C1651 C 0.28380 0.09710 0.40795
 C1652 C 0.28996 0.10400 0.42666
 C1653 C 0.27942 0.11927 0.43618
 C1654 C 0.26239 0.12781 0.42725
 C1655 C 0.25672 0.12145 0.40821
 C1656 C 0.26735 0.10631 0.39863
 C1657 C 0.24966 0.14206 0.43843
 C1658 C 0.22866 0.13955 0.43881
 C1659 C 0.21665 0.15161 0.45081
 C1660 C 0.22533 0.16660 0.46256
 C1661 C 0.24625 0.16965 0.46160
 C1662 C 0.25832 0.15740 0.44975
 H1663 H 0.29459 0.09135 0.36922
 H1664 H 0.30583 0.06036 0.35367
 H1665 H 0.30544 0.03166 0.41066
 H1666 H 0.29394 0.06249 0.42615
 H1667 H 0.30266 0.09726 0.43412
 H1668 H 0.28404 0.12378 0.45091
 H1669 H 0.24375 0.12788 0.40093
 H1670 H 0.26214 0.10119 0.38429
 H1671 H 0.22159 0.12771 0.43042
 H1672 H 0.20059 0.14890 0.45121
 H1673 H 0.25337 0.18105 0.47054
 H1674 H 0.27445 0.15972 0.44962
 C1675 C 0.71656 0.06703 0.59783
 C1676 C 0.71725 0.06453 0.61847
 C1677 C 0.70745 0.04843 0.62735
 C1678 C 0.69675 0.03463 0.61573
 C1679 C 0.69525 0.03780 0.59523
 C1680 C 0.70506 0.05377 0.58639
 C1681 C 0.72880 0.08251 0.58795
 C1682 C 0.74005 0.07756 0.57104
 C1683 C 0.75175 0.09181 0.56156
 C1684 C 0.75246 0.11142 0.56869
 C1685 C 0.74115 0.11648 0.58556
 C1686 C 0.72953 0.10209 0.59522
 C1687 C 0.76495 0.12634 0.55826
 C1688 C 0.75722 0.14517 0.55360
 C1689 C 0.76833 0.15828 0.54183
 C1690 C 0.78742 0.15282 0.53463
 C1691 C 0.79546 0.13433 0.54012
 C1692 C 0.78435 0.12126 0.55176
 H1693 H 0.72610 0.07449 0.62762
 H1694 H 0.70897 0.04631 0.64317
 H1695 H 0.68673 0.02768 0.58594
 H1696 H 0.70393 0.05558 0.57050
 H1697 H 0.73997 0.06254 0.56525
 H1698 H 0.76011 0.08754 0.54846
 H1699 H 0.74150 0.13148 0.59138
 H1700 H 0.72094 0.10630 0.60819
 H1701 H 0.74225 0.14942 0.55837
 H1702 H 0.76173 0.17242 0.53788
 H1703 H 0.81016 0.12969 0.53498
 H1704 H 0.79081 0.10697 0.55540
 C1705 C 0.92829 0.61513 0.26584
 C1706 C 0.92757 0.63492 0.27256
 C1707 C 0.94447 0.64361 0.28162
 C1708 C 0.96230 0.63261 0.28410
 C1709 C 0.96261 0.61264 0.27803
 C1710 C 0.94588 0.60404 0.26900
 C1711 C 0.91118 0.60588 0.25506
 C1712 C 0.91498 0.59431 0.23814
 C1713 C 0.89945 0.58408 0.22870
 C1714 C 0.87962 0.58519 0.23585
 C1715 C 0.87564 0.59721 0.25249
 C1716 C 0.89129 0.60757 0.26196
 C1717 C 0.86364 0.57289 0.22637
 C1718 C 0.84967 0.56231 0.23788
 C1719 C 0.83686 0.54827 0.22905
 C1720 C 0.83795 0.54450 0.20860
 C1721 C 0.85100 0.55599 0.19698
 C1722 C 0.86358 0.57010 0.20574
 H1723 H 0.91417 0.64378 0.27030
 H1724 H 0.94378 0.65902 0.28620
 H1725 H 0.97587 0.60357 0.28030
 H1726 H 0.94670 0.58862 0.26445
 H1727 H 0.93012 0.59291 0.23235
 H1728 H 0.90315 0.57473 0.21614
 H1729 H 0.86049 0.59847 0.25826
 H1730 H 0.88796 0.61636 0.27501
 H1731 H 0.84940 0.56404 0.25382
 H1732 H 0.82695 0.53960 0.23835
 H1733 H 0.85195 0.55363 0.18114
 H1734 H 0.87380 0.57836 0.19639
 C1735 C 0.92677 0.39357 0.72311
 C1736 C 0.92453 0.37383 0.71652
 C1737 C 0.94106 0.36337 0.70887
 C1738 C 0.96006 0.37246 0.70784
 C1739 C 0.96202 0.39244 0.71346
 C1740 C 0.94556 0.40290 0.72089
 C1741 C 0.91015 0.40413 0.73346
 C1742 C 0.91449 0.41595 0.75012
 C1743 C 0.89925 0.42613 0.76002
 C1744 C 0.87914 0.42465 0.75371
 C1745 C 0.87467 0.41277 0.73709
 C1746 C 0.89003 0.40253 0.72710
 C1747 C 0.86323 0.43591 0.76443
 C1748 C 0.84793 0.44601 0.75414
 C1749 C 0.83472 0.45873 0.76425
 C1750 C 0.83672 0.46166 0.78477
 C1751 C 0.85125 0.45071 0.79515
 C1752 C 0.86423 0.43789 0.78513
 H1753 H 0.91027 0.36622 0.71809
 H1754 H 0.93924 0.34796 0.70460
 H1755 H 0.97644 0.39987 0.71242
 H1756 H 0.94766 0.41824 0.72529
 H1757 H 0.92974 0.41725 0.75565
 H1758 H 0.90332 0.43541 0.77252
 H1759 H 0.85930 0.41126 0.73193
 H1760 H 0.88622 0.39360 0.71427
 H1761 H 0.84681 0.44486 0.73818
 H1762 H 0.82366 0.46704 0.75590
 H1763 H 0.85294 0.45244 0.81101
 H1764 H 0.87546 0.42991 0.79358
 C1765 C 0.06835 0.59241 0.70826
 C1766 C 0.06676 0.61317 0.70682
 C1767 C 0.05028 0.62178 0.69710
 C1768 C 0.03523 0.60973 0.68869
 C1769 C 0.03759 0.58901 0.68910
 C1770 C 0.05393 0.58046 0.69879
 C1771 C 0.08384 0.58306 0.72099
 C1772 C 0.07809 0.56816 0.73430
 C1773 C 0.09225 0.55924 0.74660
 C1774 C 0.11256 0.56493 0.74585
 C1775 C 0.11847 0.57973 0.73244
 C1776 C 0.10415 0.58888 0.72022
 C1777 C 0.12725 0.55523 0.75921
 C1778 C 0.14546 0.54748 0.75194
 C1779 C 0.15800 0.53620 0.76425
 C1780 C 0.15256 0.53263 0.78405
 C1781 C 0.13483 0.54128 0.79147
 C1782 C 0.12233 0.55239 0.77919
 H1783 H 0.07767 0.62270 0.71406
 H1784 H 0.04880 0.63779 0.69703
 H1785 H 0.02643 0.57938 0.68235
 H1786 H 0.05501 0.56443 0.69935
 H1787 H 0.06250 0.56356 0.73538
 H1788 H 0.08733 0.54773 0.75664
 H1789 H 0.13405 0.58438 0.73165
 H1790 H 0.10895 0.60032 0.71004
 H1791 H 0.14954 0.54942 0.73655
 H1792 H 0.17158 0.52978 0.75811
 H1793 H 0.13025 0.53899 0.80667
 H1794 H 0.10853 0.55846 0.78523
 C1795 C 0.07887 0.40014 0.29081
 C1796 C 0.07443 0.37971 0.29075
 C1797 C 0.05671 0.37268 0.29948
 C1798 C 0.04306 0.38596 0.30830
 C1799 C 0.04779 0.40628 0.30882
 C1800 C 0.06547 0.41328 0.30019
 C1801 C 0.09663 0.40805 0.28007
 C1802 C 0.10773 0.42404 0.28791
 C1803 C 0.12268 0.43325 0.27667
 C1804 C 0.12688 0.42667 0.25734
 C1805 C 0.11653 0.41002 0.24990
 C1806 C 0.10157 0.40081 0.26114
 C1807 C 0.14069 0.43818 0.24444
 C1808 C 0.13541 0.44188 0.22465
 C1809 C 0.14723 0.45426 0.21291
 C1810 C 0.16465 0.46326 0.22066
 C1811 C 0.17033 0.45908 0.24025
 C1812 C 0.15845 0.44669 0.25204
 H1813 H 0.08455 0.36922 0.28375
 H1814 H 0.05339 0.35695 0.29880
 H1815 H 0.03763 0.41682 0.31571
 H1816 H 0.06829 0.42912 0.30027
 H1817 H 0.10447 0.42978 0.30256
 H1818 H 0.13028 0.44611 0.28279
 H1819 H 0.11963 0.40443 0.23516
 H1820 H 0.09323 0.38860 0.25463
 H1821 H 0.12168 0.43582 0.21842
 H1822 H 0.14241 0.45715 0.19787
 H1823 H 0.18370 0.46574 0.24664
 H1824 H 0.16302 0.44395 0.26718
   
