data_POSCAR
  _audit_creation_date              2014-09-24
  _audit_creation_method            'ToBaCCo'
  _symmetry_space_group_name_H-M    'P1'
  _symmetry_Int_Tables_number       1
  _symmetry_cell_setting            triclinic
  loop_
  _symmetry_equiv_pos_as_xyz
 x,y,z
_cell_length_a 79.6163
_cell_length_b 79.7340
_cell_length_c 79.6382
_cell_angle_alpha 90.048700
_cell_angle_beta 89.979300
_cell_angle_gamma 89.956100
loop_
  _atom_site_label
  _atom_site_type_symbol
  _atom_site_fract_x
  _atom_site_fract_y
  _atom_site_fract_z
N1 N 0.35853 0.31321 0.32489
 N2 N 0.35884 0.32520 0.31357
 C3 C 0.37209 0.32273 0.30331
 C4 C 0.38045 0.30836 0.30843
 C5 C 0.37146 0.30269 0.32218
 H6 H 0.37516 0.33050 0.29262
 H7 H 0.37410 0.29170 0.32966
 Cu8 Cu 0.34119 0.34211 0.31298
 Cu9 Cu 0.34115 0.31171 0.34208
 Cu10 Cu 0.30940 0.34150 0.34057
 N11 N 0.32350 0.35900 0.31227
 N12 N 0.31093 0.35837 0.32295
 C13 C 0.30015 0.37091 0.31963
 C14 C 0.30625 0.37999 0.30614
 C15 C 0.32115 0.37208 0.30181
 H16 H 0.28879 0.37335 0.32666
 H17 H 0.32947 0.37542 0.29162
 N18 N 0.31017 0.32350 0.35748
 N19 N 0.32243 0.31238 0.35830
 C20 C 0.31965 0.30216 0.37147
 C21 C 0.30489 0.30702 0.37927
 C22 C 0.29922 0.32057 0.37003
 H23 H 0.32769 0.29183 0.37506
 H24 H 0.28812 0.32797 0.37251
 H25 H 0.32262 0.32303 0.32801
 H26 H 0.33486 0.33683 0.34243
 N27 N 0.35745 0.81154 -0.17743
 N28 N 0.35926 0.82461 -0.18729
 C29 C 0.37272 0.82219 -0.19725
 C30 C 0.37982 0.80669 -0.19349
 C31 C 0.36964 0.80033 -0.18081
 H32 H 0.37684 0.83106 -0.20662
 H33 H 0.37107 0.78859 -0.17422
 Cu34 Cu 0.34393 0.84363 -0.18638
 Cu35 Cu 0.33992 0.81038 -0.16041
 Cu36 Cu 0.31009 0.84184 -0.16100
 N37 N 0.32552 0.85964 -0.18821
 N38 N 0.31224 0.85867 -0.17850
 C39 C 0.30149 0.87105 -0.18249
 C40 C 0.30839 0.88050 -0.19542
 C41 C 0.32373 0.87278 -0.19867
 H42 H 0.28969 0.87312 -0.17612
 H43 H 0.33289 0.87626 -0.20805
 N44 N 0.31006 0.82373 -0.14425
 N45 N 0.32126 0.81153 -0.14417
 C46 C 0.31799 0.80122 -0.13117
 C47 C 0.30413 0.80730 -0.12259
 C48 C 0.29945 0.82158 -0.13126
 H49 H 0.32545 0.79038 -0.12788
 H50 H 0.28909 0.82983 -0.12830
 H51 H 0.32345 0.82426 -0.17481
 H52 H 0.33531 0.83577 -0.15807
 N53 N 0.85751 0.31238 -0.17611
 N54 N 0.85712 0.32390 -0.18790
 C55 C 0.86971 0.32102 -0.19884
 C56 C 0.87853 0.30700 -0.19356
 C57 C 0.87042 0.30189 -0.17906
 H58 H 0.87239 0.32864 -0.20973
 H59 H 0.87347 0.29111 -0.17140
 Cu60 Cu 0.84041 0.34174 -0.18763
 Cu61 Cu 0.84079 0.31132 -0.15824
 Cu62 Cu 0.80767 0.33937 -0.16118
 N63 N 0.82281 0.35873 -0.18754
 N64 N 0.80991 0.35749 -0.17734
 C65 C 0.79924 0.37023 -0.18022
 C66 C 0.80579 0.38023 -0.19292
 C67 C 0.82087 0.37247 -0.19718
 H68 H 0.78767 0.37204 -0.17338
 H69 H 0.82961 0.37624 -0.20684
 N70 N 0.80982 0.32301 -0.14284
 N71 N 0.82239 0.31228 -0.14168
 C72 C 0.82016 0.30273 -0.12790
 C73 C 0.80559 0.30786 -0.11990
 C74 C 0.79942 0.32078 -0.12970
 H75 H 0.82858 0.29290 -0.12385
 H76 H 0.78808 0.32791 -0.12750
 H77 H 0.82271 0.32138 -0.17320
 H78 H 0.83331 0.33630 -0.15848
 N79 N 0.85748 0.81165 0.32349
 N80 N 0.85769 0.82331 0.31184
 C81 C 0.87080 0.82049 0.30149
 C82 C 0.87933 0.80641 0.30709
 C83 C 0.87050 0.80116 0.32109
 H84 H 0.87412 0.82826 0.29088
 H85 H 0.87325 0.79040 0.32887
 Cu86 Cu 0.84103 0.84127 0.31162
 Cu87 Cu 0.84034 0.81068 0.34089
 Cu88 Cu 0.80971 0.84144 0.34001
 N89 N 0.82340 0.85829 0.31121
 N90 N 0.81104 0.85793 0.32211
 C91 C 0.80039 0.87061 0.31894
 C92 C 0.80637 0.87968 0.30531
 C93 C 0.82111 0.87143 0.30078
 H94 H 0.78930 0.87313 0.32632
 H95 H 0.82943 0.87452 0.29053
 N96 N 0.81043 0.82375 0.35718
 N97 N 0.82194 0.81184 0.35741
 C98 C 0.81896 0.80163 0.37055
 C99 C 0.80499 0.80748 0.37908
 C100 C 0.79993 0.82153 0.37025
 H101 H 0.82660 0.79093 0.37391
 H102 H 0.78930 0.82948 0.37309
 H103 H 0.82214 0.82271 0.32693
 H104 H 0.83512 0.83603 0.34124
 N105 N 0.64262 0.68996 0.32287
 N106 N 0.64189 0.67709 0.31257
 C107 C 0.62861 0.67896 0.30230
 C108 C 0.62056 0.69382 0.30635
 C109 C 0.62984 0.70049 0.31946
 H110 H 0.62514 0.67027 0.29248
 H111 H 0.62732 0.71198 0.32623
 Cu112 Cu 0.65868 0.65947 0.31352
 Cu113 Cu 0.65983 0.69175 0.34026
 Cu114 Cu 0.68996 0.66007 0.34151
 N115 N 0.67573 0.64208 0.31360
 N116 N 0.68818 0.64251 0.32442
 C117 C 0.69852 0.62946 0.32145
 C118 C 0.69214 0.62032 0.30807
 C119 C 0.67767 0.62874 0.30344
 H120 H 0.70977 0.62676 0.32856
 H121 H 0.66938 0.62556 0.29318
 N122 N 0.68944 0.67898 0.35759
 N123 N 0.67819 0.69115 0.35689
 C124 C 0.68111 0.70204 0.36949
 C125 C 0.69477 0.69646 0.37864
 C126 C 0.69972 0.68179 0.37074
 H127 H 0.67355 0.71300 0.37211
 H128 H 0.71007 0.67377 0.37430
 H129 H 0.67811 0.67839 0.32756
 H130 H 0.66482 0.66643 0.34263
 N131 N 0.64263 0.18908 -0.17608
 N132 N 0.64071 0.17579 -0.18564
 C133 C 0.62735 0.17815 -0.19575
 C134 C 0.62056 0.19382 -0.19234
 C135 C 0.63063 0.20036 -0.17978
 H136 H 0.62301 0.16919 -0.20497
 H137 H 0.62917 0.21230 -0.17352
 Cu138 Cu 0.65580 0.15664 -0.18401
 Cu139 Cu 0.66011 0.19061 -0.15916
 Cu140 Cu 0.69016 0.15939 -0.15928
 N141 N 0.67448 0.14102 -0.18605
 N142 N 0.68795 0.14231 -0.17663
 C143 C 0.69884 0.13009 -0.18081
 C144 C 0.69182 0.12042 -0.19354
 C145 C 0.67627 0.12785 -0.19648
 H146 H 0.71082 0.12828 -0.17472
 H147 H 0.66694 0.12415 -0.20561
 N148 N 0.69005 0.17782 -0.14277
 N149 N 0.67871 0.18988 -0.14296
 C150 C 0.68187 0.20062 -0.13031
 C151 C 0.69585 0.19504 -0.12164
 C152 C 0.70069 0.18051 -0.12988
 H153 H 0.67431 0.21148 -0.12735
 H154 H 0.71122 0.17253 -0.12676
 H155 H 0.67654 0.17627 -0.17342
 H156 H 0.66505 0.16522 -0.15610
 N157 N 0.14300 0.68883 -0.17828
 N158 N 0.14237 0.67622 -0.18888
 C159 C 0.12901 0.67821 -0.19904
 C160 C 0.12085 0.69290 -0.19462
 C161 C 0.13012 0.69933 -0.18139
 H162 H 0.12558 0.66972 -0.20905
 H163 H 0.12752 0.71063 -0.17434
 Cu164 Cu 0.15924 0.65861 -0.18860
 Cu165 Cu 0.16017 0.69036 -0.16093
 Cu166 Cu 0.19019 0.65873 -0.15994
 N167 N 0.17621 0.64111 -0.18813
 N168 N 0.18847 0.64133 -0.17708
 C169 C 0.19868 0.62814 -0.17990
 C170 C 0.19244 0.61913 -0.19340
 C171 C 0.17816 0.62774 -0.19827
 H172 H 0.20975 0.62527 -0.17258
 H173 H 0.16999 0.62468 -0.20867
 N174 N 0.18973 0.67746 -0.14373
 N175 N 0.17849 0.68962 -0.14431
 C176 C 0.18150 0.70048 -0.13172
 C177 C 0.19525 0.69489 -0.12271
 C178 C 0.20014 0.68024 -0.13068
 H179 H 0.17400 0.71147 -0.12906
 H180 H 0.21056 0.67224 -0.12728
 H181 H 0.17851 0.67722 -0.17382
 H182 H 0.16496 0.66490 -0.15921
 N183 N 0.14089 0.18776 0.32419
 N184 N 0.14040 0.17576 0.31288
 C185 C 0.12706 0.17825 0.30277
 C186 C 0.11880 0.19264 0.30799
 C187 C 0.12795 0.19831 0.32164
 H188 H 0.12386 0.17046 0.29214
 H189 H 0.12543 0.20932 0.32916
 Cu190 Cu 0.15783 0.15869 0.31213
 Cu191 Cu 0.15845 0.18909 0.34117
 Cu192 Cu 0.18994 0.15897 0.33939
 N193 N 0.17530 0.14166 0.31127
 N194 N 0.18802 0.14209 0.32176
 C195 C 0.19845 0.12924 0.31836
 C196 C 0.19190 0.12021 0.30503
 C197 C 0.17717 0.12846 0.30086
 H198 H 0.20981 0.12651 0.32528
 H199 H 0.16858 0.12521 0.29088
 N200 N 0.18947 0.17705 0.35630
 N201 N 0.17731 0.18828 0.35717
 C202 C 0.18016 0.19845 0.37037
 C203 C 0.19486 0.19345 0.37815
 C204 C 0.20045 0.17988 0.36886
 H205 H 0.17219 0.20880 0.37401
 H206 H 0.21147 0.17236 0.37134
 H207 H 0.17682 0.17752 0.32696
 H208 H 0.16457 0.16387 0.34150
 N209 N 0.64230 0.31124 0.67649
 N210 N 0.64150 0.32389 0.68705
 C211 C 0.62836 0.32155 0.69747
 C212 C 0.62062 0.30657 0.69323
 C213 C 0.62982 0.30041 0.67985
 H214 H 0.62487 0.32991 0.70758
 H215 H 0.62751 0.28898 0.67292
 Cu216 Cu 0.65831 0.34159 0.68631
 Cu217 Cu 0.65928 0.30966 0.65897
 Cu218 Cu 0.68897 0.34145 0.65742
 N219 N 0.67517 0.35925 0.68575
 N220 N 0.68726 0.35890 0.67451
 C221 C 0.69775 0.37182 0.67726
 C222 C 0.69196 0.38081 0.69097
 C223 C 0.67754 0.37249 0.69601
 H224 H 0.70883 0.37441 0.66986
 H225 H 0.66971 0.37555 0.70668
 N226 N 0.68850 0.32263 0.64132
 N227 N 0.67738 0.31039 0.64214
 C228 C 0.68039 0.29940 0.62966
 C229 C 0.69401 0.30500 0.62046
 C230 C 0.69882 0.31978 0.62821
 H231 H 0.67299 0.28831 0.62720
 H232 H 0.70915 0.32780 0.62462
 H233 H 0.67762 0.32301 0.67154
 H234 H 0.66385 0.33509 0.65695
 N235 N 0.64272 0.81005 1.17653
 N236 N 0.64143 0.82274 1.18697
 C237 C 0.62826 0.82012 1.19725
 C238 C 0.62091 0.80494 1.19303
 C239 C 0.63047 0.79891 1.17982
 H240 H 0.62440 0.82856 1.20715
 H241 H 0.62844 0.78746 1.17284
 Cu242 Cu 0.65698 0.84155 1.18630
 Cu243 Cu 0.65964 0.80929 1.15899
 Cu244 Cu 0.68892 0.84127 1.15827
 N245 N 0.67476 0.85827 1.18672
 N246 N 0.68721 0.85810 1.17590
 C247 C 0.69770 0.87088 1.17934
 C248 C 0.69149 0.87959 1.19307
 C249 C 0.67689 0.87119 1.19740
 H250 H 0.70894 0.87370 1.17227
 H251 H 0.66858 0.87410 1.20773
 N252 N 0.68856 0.82305 1.14155
 N253 N 0.67760 0.81066 1.14212
 C254 C 0.68071 0.80000 1.12938
 C255 C 0.69424 0.80596 1.12028
 C256 C 0.69887 0.82064 1.12834
 H257 H 0.67347 0.78885 1.12673
 H258 H 0.70914 0.82883 1.12496
 H259 H 0.67713 0.82312 1.17251
 H260 H 0.66380 0.83489 1.15714
 N261 N 0.14249 0.31115 1.17773
 N262 N 0.14200 0.32378 1.18832
 C263 C 0.12879 0.32183 1.19868
 C264 C 0.12056 0.30715 1.19441
 C265 C 0.12965 0.30068 1.18105
 H266 H 0.12549 0.33035 1.20871
 H267 H 0.12695 0.28938 1.17404
 Cu268 Cu 0.15881 0.34138 1.18761
 Cu269 Cu 0.15947 0.30957 1.16011
 Cu270 Cu 0.18937 0.34133 1.15868
 N271 N 0.17568 0.35893 1.18707
 N272 N 0.18778 0.35873 1.17584
 C273 C 0.19803 0.37189 1.17855
 C274 C 0.19197 0.38086 1.19217
 C275 C 0.17776 0.37225 1.19723
 H276 H 0.20900 0.37476 1.17109
 H277 H 0.16975 0.37528 1.20776
 N278 N 0.18878 0.32258 1.14251
 N279 N 0.17761 0.31036 1.14324
 C280 C 0.18059 0.29948 1.13065
 C281 C 0.19423 0.30513 1.12148
 C282 C 0.19908 0.31982 1.12937
 H283 H 0.17317 0.28843 1.12810
 H284 H 0.20943 0.32784 1.12586
 H285 H 0.17794 0.32276 1.17266
 H286 H 0.16419 0.33498 1.15819
 N287 N 0.14307 0.81092 0.67685
 N288 N 0.14232 0.82316 0.68790
 C289 C 0.12911 0.82056 0.69814
 C290 C 0.12120 0.80586 0.69329
 C291 C 0.13044 0.80010 0.67974
 H292 H 0.12563 0.82862 0.70850
 H293 H 0.12802 0.78900 0.67234
 Cu294 Cu 0.15906 0.84095 0.68796
 Cu295 Cu 0.16005 0.81003 0.65924
 Cu296 Cu 0.18941 0.84211 0.65882
 N297 N 0.17574 0.85881 0.68780
 N298 N 0.18766 0.85896 0.67638
 C299 C 0.19801 0.87194 0.67931
 C300 C 0.19234 0.88045 0.69335
 C301 C 0.17811 0.87181 0.69839
 H302 H 0.20890 0.87491 0.67178
 H303 H 0.17037 0.87450 0.70922
 N304 N 0.18916 0.82392 0.64214
 N305 N 0.17820 0.81152 0.64243
 C306 C 0.18147 0.80106 0.62953
 C307 C 0.19509 0.80724 0.62067
 C308 C 0.19961 0.82174 0.62904
 H309 H 0.17428 0.78995 0.62660
 H310 H 0.20987 0.83002 0.62591
 H311 H 0.17825 0.82295 0.67230
 H312 H 0.16425 0.83550 0.65832
 N313 N 0.35667 0.68840 0.67819
 N314 N 0.35736 0.67591 0.68892
 C315 C 0.37077 0.67796 0.69899
 C316 C 0.37897 0.69254 0.69437
 C317 C 0.36962 0.69888 0.68112
 H318 H 0.37421 0.66958 0.70907
 H319 H 0.37220 0.71010 0.67396
 Cu320 Cu 0.34046 0.65838 0.68889
 Cu321 Cu 0.33927 0.68978 0.66092
 Cu322 Cu 0.30913 0.65820 0.66096
 N323 N 0.32347 0.64093 0.68916
 N324 N 0.31103 0.64108 0.67833
 C325 C 0.30083 0.62799 0.68143
 C326 C 0.30725 0.61910 0.69492
 C327 C 0.32165 0.62770 0.69948
 H328 H 0.28967 0.62507 0.67428
 H329 H 0.33000 0.62469 0.70975
 N330 N 0.30938 0.67661 0.64445
 N331 N 0.32065 0.68875 0.64452
 C332 C 0.31752 0.69914 0.63154
 C333 C 0.30369 0.69318 0.62284
 C334 C 0.29888 0.67890 0.63143
 H335 H 0.32504 0.70996 0.62834
 H336 H 0.28849 0.67074 0.62836
 H337 H 0.32114 0.67700 0.67424
 H338 H 0.33435 0.66443 0.65955
 N339 N 0.35750 0.18831 1.17723
 N340 N 0.35821 0.17606 1.18825
 C341 C 0.37147 0.17860 1.19847
 C342 C 0.37942 0.19329 1.19364
 C343 C 0.37017 0.19908 1.18011
 H344 H 0.37492 0.17055 1.20882
 H345 H 0.37260 0.21019 1.17274
 Cu346 Cu 0.34130 0.15840 1.18832
 Cu347 Cu 0.34046 0.18936 1.15968
 Cu348 Cu 0.31086 0.15751 1.15928
 N349 N 0.32444 0.14068 1.18820
 N350 N 0.31248 0.14064 1.17682
 C351 C 0.30204 0.12774 1.17976
 C352 C 0.30768 0.11914 1.19374
 C353 C 0.32201 0.12767 1.19875
 H354 H 0.29112 0.12485 1.17224
 H355 H 0.32978 0.12488 1.20952
 N356 N 0.31124 0.17569 1.14260
 N357 N 0.32226 0.18804 1.14292
 C358 C 0.31909 0.19849 1.13000
 C359 C 0.30550 0.19234 1.12107
 C360 C 0.30087 0.17788 1.12945
 H361 H 0.32637 0.20954 1.12705
 H362 H 0.29061 0.16962 1.12624
 H363 H 0.32220 0.17655 1.17276
 H364 H 0.33607 0.16392 1.15870
 N365 N 0.85829 0.68839 1.17678
 N366 N 0.85774 0.67679 1.18848
 C367 C 0.87040 0.67938 1.19941
 C368 C 0.87944 0.69328 1.19419
 C369 C 0.87136 0.69865 1.17977
 H370 H 0.87303 0.67160 1.21020
 H371 H 0.87463 0.70935 1.17212
 Cu372 Cu 0.84070 0.65929 1.18806
 Cu373 Cu 0.84189 0.68952 1.15867
 Cu374 Cu 0.81098 0.65893 1.15803
 N375 N 0.82311 0.64233 1.18769
 N376 N 0.81145 0.64236 1.17601
 C377 C 0.80077 0.62959 1.17879
 C378 C 0.80602 0.62099 1.19296
 C379 C 0.82027 0.62944 1.19825
 H380 H 0.79007 0.62667 1.17097
 H381 H 0.82785 0.62655 1.20913
 N382 N 0.81260 0.67676 1.14096
 N383 N 0.82421 0.68856 1.14137
 C384 C 0.82172 0.69913 1.12842
 C385 C 0.80794 0.69369 1.11934
 C386 C 0.80251 0.67945 1.12765
 H387 H 0.82945 0.70992 1.12568
 H388 H 0.79178 0.67180 1.12440
 H389 H 0.82268 0.67771 1.17154
 H390 H 0.83637 0.66420 1.15812
 N391 N 0.85641 0.18879 0.67662
 N392 N 0.85633 0.17737 0.68852
 C393 C 0.86934 0.18023 0.69896
 C394 C 0.87810 0.19408 0.69319
 C395 C 0.86950 0.19917 0.67898
 H396 H 0.87248 0.17259 0.70973
 H397 H 0.87250 0.20969 0.67098
 Cu398 Cu 0.83956 0.15956 0.68871
 Cu399 Cu 0.83969 0.18942 0.65881
 Cu400 Cu 0.80942 0.15829 0.65918
 N401 N 0.82213 0.14239 0.68898
 N402 N 0.81040 0.14209 0.67738
 C403 C 0.79984 0.12932 0.68047
 C404 C 0.80519 0.12106 0.69477
 C405 C 0.81945 0.12969 0.69982
 H406 H 0.78913 0.12618 0.67275
 H407 H 0.82711 0.12706 0.71071
 N408 N 0.81043 0.17580 0.64183
 N409 N 0.82172 0.18791 0.64186
 C410 C 0.81881 0.19813 0.62871
 C411 C 0.80510 0.19208 0.61991
 C412 C 0.80015 0.17791 0.62859
 H413 H 0.82626 0.20902 0.62558
 H414 H 0.78964 0.16987 0.62559
 H415 H 0.82102 0.17749 0.67225
 H416 H 0.83476 0.16404 0.65879
 N417 N 0.31142 0.35701 0.67656
 N418 N 0.32312 0.35687 0.68821
 C419 C 0.32062 0.36995 0.69865
 C420 C 0.30653 0.37864 0.69332
 C421 C 0.30104 0.37004 0.67926
 H422 H 0.32828 0.37278 0.70949
 H423 H 0.29036 0.37312 0.67147
 Cu424 Cu 0.34017 0.33933 0.68879
 Cu425 Cu 0.31036 0.34035 0.65874
 Cu426 Cu 0.34113 0.30970 0.65867
 N427 N 0.35762 0.32218 0.68823
 N428 N 0.35800 0.31086 0.67623
 C429 C 0.37136 0.30081 0.67847
 C430 C 0.37984 0.30600 0.69270
 C431 C 0.37074 0.31959 0.69862
 H432 H 0.37456 0.29035 0.67043
 H433 H 0.37363 0.32717 0.70950
 N434 N 0.32302 0.31057 0.64193
 N435 N 0.31142 0.32239 0.64178
 C436 C 0.30097 0.31965 0.62876
 C437 C 0.30619 0.30534 0.62040
 C438 C 0.32019 0.29993 0.62912
 H439 H 0.29019 0.32732 0.62573
 H440 H 0.32786 0.28913 0.62621
 H441 H 0.32202 0.32134 0.67190
 H442 H 0.33576 0.33511 0.65880
 N443 N 0.31176 0.85839 0.17537
 N444 N 0.32333 0.85836 0.18713
 C445 C 0.32081 0.87158 0.19737
 C446 C 0.30681 0.88025 0.19182
 C447 C 0.30139 0.87150 0.17782
 H448 H 0.32837 0.87449 0.20826
 H449 H 0.29078 0.87452 0.16991
 Cu450 Cu 0.34034 0.84089 0.18816
 Cu451 Cu 0.31098 0.84147 0.15778
 Cu452 Cu 0.34185 0.81083 0.15846
 N453 N 0.35774 0.82376 0.18813
 N454 N 0.35844 0.81224 0.17635
 C455 C 0.37172 0.80219 0.17921
 C456 C 0.37975 0.80765 0.19363
 C457 C 0.37052 0.82138 0.19894
 H458 H 0.37512 0.79154 0.17152
 H459 H 0.37303 0.82916 0.20977
 N460 N 0.32394 0.81153 0.14142
 N461 N 0.31229 0.82330 0.14107
 C462 C 0.30197 0.82043 0.12798
 C463 C 0.30731 0.80610 0.11974
 C464 C 0.32126 0.80079 0.12863
 H465 H 0.29118 0.82804 0.12483
 H466 H 0.32900 0.78999 0.12587
 H467 H 0.32256 0.82256 0.17125
 H468 H 0.33643 0.83620 0.15816
 N469 N 0.81263 0.36027 0.17497
 N470 N 0.82448 0.36050 0.18643
 C471 C 0.82139 0.37306 0.19732
 C472 C 0.80679 0.38115 0.19240
 C473 C 0.80157 0.37264 0.17815
 H474 H 0.82922 0.37609 0.20799
 H475 H 0.79081 0.37550 0.17038
 Cu476 Cu 0.84320 0.34486 0.18567
 Cu477 Cu 0.81316 0.34472 0.15616
 Cu478 Cu 0.84012 0.31083 0.16072
 N479 N 0.85839 0.32594 0.18786
 N480 N 0.85699 0.31255 0.17834
 C481 C 0.86921 0.30160 0.18239
 C482 C 0.87883 0.30850 0.19515
 C483 C 0.87152 0.32397 0.19830
 H484 H 0.87122 0.28973 0.17615
 H485 H 0.87544 0.33314 0.20749
 N486 N 0.82230 0.31172 0.14354
 N487 N 0.81232 0.32479 0.14161
 C488 C 0.80200 0.32197 0.12853
 C489 C 0.80566 0.30637 0.12181
 C490 C 0.81859 0.30023 0.13170
 H491 H 0.79247 0.33065 0.12429
 H492 H 0.82514 0.28846 0.13011
 H493 H 0.82280 0.32681 0.17193
 H494 H 0.83793 0.33597 0.15658
 N495 N 0.81104 0.85867 0.67774
 N496 N 0.82192 0.85768 0.69011
 C497 C 0.81911 0.87031 0.70097
 C498 C 0.80577 0.87978 0.69513
 C499 C 0.80098 0.87203 0.68030
 H500 H 0.82645 0.87265 0.71214
 H501 H 0.79082 0.87572 0.67208
 Cu502 Cu 0.83911 0.84039 0.69095
 Cu503 Cu 0.81068 0.84240 0.65949
 Cu504 Cu 0.84267 0.81299 0.65891
 N505 N 0.85742 0.82429 0.68969
 N506 N 0.85898 0.81388 0.67700
 C507 C 0.87272 0.80431 0.67934
 C508 C 0.88016 0.80892 0.69436
 C509 C 0.87009 0.82167 0.70057
 H510 H 0.87676 0.79446 0.67091
 H511 H 0.87194 0.82862 0.71207
 N512 N 0.82497 0.81392 0.64173
 N513 N 0.81253 0.82487 0.64210
 C514 C 0.80214 0.82178 0.62910
 C515 C 0.80842 0.80830 0.62007
 C516 C 0.82290 0.80369 0.62846
 H517 H 0.79091 0.82887 0.62631
 H518 H 0.83112 0.79336 0.62532
 H519 H 0.82247 0.82300 0.67199
 H520 H 0.83626 0.83819 0.66057
 N521 N 0.68908 0.64256 0.67784
 N522 N 0.67633 0.64201 0.68832
 C523 C 0.67821 0.62876 0.69861
 C524 C 0.69294 0.62052 0.69439
 C525 C 0.69952 0.62968 0.68115
 H526 H 0.66961 0.62545 0.70856
 H527 H 0.71091 0.62703 0.67423
 Cu528 Cu 0.65882 0.65895 0.68755
 Cu529 Cu 0.69086 0.65972 0.66043
 Cu530 Cu 0.65935 0.69003 0.65934
 N531 N 0.64149 0.67611 0.68748
 N532 N 0.64187 0.68844 0.67654
 C533 C 0.62884 0.69883 0.67951
 C534 C 0.61977 0.69262 0.69302
 C535 C 0.62821 0.67819 0.69772
 H536 H 0.62612 0.70999 0.67231
 H537 H 0.62508 0.67000 0.70806
 N538 N 0.67817 0.68936 0.64313
 N539 N 0.69029 0.67806 0.64377
 C540 C 0.70120 0.68095 0.63117
 C541 C 0.69566 0.69466 0.62207
 C542 C 0.68101 0.69965 0.63002
 H543 H 0.71216 0.67339 0.62853
 H544 H 0.67306 0.71007 0.62654
 H545 H 0.67775 0.67815 0.67318
 H546 H 0.66551 0.66488 0.65831
 N547 N 0.68813 0.14180 0.17756
 N548 N 0.67553 0.14139 0.18819
 C549 C 0.67752 0.12823 0.19857
 C550 C 0.69218 0.11993 0.19425
 C551 C 0.69860 0.12894 0.18084
 H552 H 0.66903 0.12505 0.20868
 H553 H 0.70990 0.12621 0.17382
 Cu554 Cu 0.65774 0.15808 0.18779
 Cu555 Cu 0.68975 0.15876 0.16014
 Cu556 Cu 0.65994 0.19043 0.16045
 N557 N 0.64186 0.17658 0.18832
 N558 N 0.64281 0.18932 0.17791
 C559 C 0.63015 0.20008 0.18124
 C560 C 0.62074 0.19367 0.19441
 C561 C 0.62862 0.17877 0.19857
 H562 H 0.62776 0.21149 0.17432
 H563 H 0.62504 0.17018 0.20842
 N564 N 0.67824 0.18922 0.14373
 N565 N 0.68938 0.17696 0.14351
 C566 C 0.69967 0.17905 0.13027
 C567 C 0.69486 0.19335 0.12172
 C568 C 0.68126 0.19953 0.13066
 H569 H 0.70992 0.17076 0.12707
 H570 H 0.67381 0.21044 0.12756
 H571 H 0.67743 0.17705 0.17412
 H572 H 0.66443 0.16503 0.15870
 N573 N 0.18756 0.64166 0.17571
 N574 N 0.17652 0.64268 0.18793
 C575 C 0.17911 0.62999 0.19878
 C576 C 0.19245 0.62044 0.19298
 C577 C 0.19747 0.62822 0.17828
 H578 H 0.17178 0.62775 0.20998
 H579 H 0.20780 0.62461 0.17025
 Cu580 Cu 0.15982 0.66049 0.18826
 Cu581 Cu 0.18880 0.65825 0.15784
 Cu582 Cu 0.16003 0.69102 0.15914
 N583 N 0.14336 0.67850 0.18861
 N584 N 0.14363 0.69060 0.17741
 C585 C 0.13075 0.70117 0.18043
 C586 C 0.12186 0.69528 0.19418
 C587 C 0.13028 0.68089 0.19904
 H588 H 0.12774 0.71199 0.17284
 H589 H 0.12704 0.67273 0.20937
 N590 N 0.17757 0.68901 0.14165
 N591 N 0.18817 0.67628 0.14098
 C592 C 0.19819 0.67814 0.12750
 C593 C 0.19378 0.69275 0.11926
 C594 C 0.18066 0.69934 0.12862
 H595 H 0.20816 0.66960 0.12405
 H596 H 0.17372 0.71068 0.12596
 H597 H 0.17860 0.67787 0.17153
 H598 H 0.16377 0.66547 0.15832
 N599 N 0.18639 0.14070 0.67611
 N600 N 0.17428 0.14064 0.68733
 C601 C 0.17652 0.12748 0.69774
 C602 C 0.19088 0.11894 0.69279
 C603 C 0.19674 0.12770 0.67899
 H604 H 0.16864 0.12461 0.70842
 H605 H 0.20778 0.12488 0.67161
 Cu606 Cu 0.15763 0.15859 0.68754
 Cu607 Cu 0.18832 0.15782 0.65881
 Cu608 Cu 0.15907 0.19008 0.65958
 N609 N 0.14103 0.17655 0.68788
 N610 N 0.14197 0.18902 0.67712
 C611 C 0.12947 0.19996 0.68023
 C612 C 0.12012 0.19405 0.69364
 C613 C 0.12783 0.17913 0.69816
 H614 H 0.12723 0.21126 0.67309
 H615 H 0.12423 0.17092 0.70833
 N616 N 0.17731 0.18874 0.64282
 N617 N 0.18822 0.17627 0.64239
 C618 C 0.19861 0.17846 0.62925
 C619 C 0.19411 0.19303 0.62098
 C620 C 0.18058 0.19926 0.62998
 H621 H 0.20876 0.17008 0.62593
 H622 H 0.17338 0.21038 0.62709
 H623 H 0.17708 0.17679 0.67252
 H624 H 0.16322 0.16463 0.65809
 N625 N 0.31268 0.64133 0.32225
 N626 N 0.32371 0.64283 0.31006
 C627 C 0.32137 0.63029 0.29895
 C628 C 0.30823 0.62038 0.30455
 C629 C 0.30304 0.62780 0.31938
 H630 H 0.32883 0.62834 0.28777
 H631 H 0.29284 0.62380 0.32739
 Cu632 Cu 0.34025 0.66079 0.31044
 Cu633 Cu 0.31123 0.65719 0.34079
 Cu634 Cu 0.34028 0.68957 0.34121
 N635 N 0.35666 0.67888 0.31081
 N636 N 0.35672 0.68989 0.32310
 C637 C 0.36964 0.70052 0.32095
 C638 C 0.37816 0.69601 0.30649
 C639 C 0.36953 0.68223 0.30033
 H640 H 0.37262 0.71077 0.32932
 H641 H 0.37270 0.67492 0.28934
 N642 N 0.32265 0.68705 0.35837
 N643 N 0.31178 0.67456 0.35837
 C644 C 0.30144 0.67628 0.37164
 C645 C 0.30593 0.69059 0.38037
 C646 C 0.31943 0.69710 0.37159
 H647 H 0.29115 0.66794 0.37455
 H648 H 0.32647 0.70827 0.37468
 H649 H 0.32154 0.67731 0.32812
 H650 H 0.33624 0.66402 0.34061
 N651 N 0.31171 0.14201 0.82361
 N652 N 0.32328 0.14196 0.81184
 C653 C 0.32054 0.12890 0.80145
 C654 C 0.30640 0.12040 0.80695
 C655 C 0.30115 0.12910 0.82105
 H656 H 0.32806 0.12595 0.79054
 H657 H 0.29052 0.12617 0.82897
 Cu658 Cu 0.34050 0.15926 0.81107
 Cu659 Cu 0.31112 0.15871 0.84141
 Cu660 Cu 0.34214 0.18914 0.84088
 N661 N 0.35800 0.17629 0.81110
 N662 N 0.35866 0.18778 0.82293
 C663 C 0.37192 0.19784 0.82014
 C664 C 0.38001 0.19246 0.80572
 C665 C 0.37080 0.17875 0.80030
 H666 H 0.37526 0.20847 0.82788
 H667 H 0.37335 0.17104 0.78942
 N668 N 0.32429 0.18839 0.85799
 N669 N 0.31262 0.17666 0.85832
 C670 C 0.30240 0.17945 0.87151
 C671 C 0.30782 0.19369 0.87981
 C672 C 0.32172 0.19904 0.87087
 H673 H 0.29162 0.17186 0.87467
 H674 H 0.32948 0.20980 0.87367
 H675 H 0.32279 0.17761 0.82804
 H676 H 0.33657 0.16384 0.84107
 N677 N 0.81175 0.64161 0.82211
 N678 N 0.82349 0.64197 0.81051
 C679 C 0.82127 0.62897 0.79997
 C680 C 0.80732 0.62000 0.80515
 C681 C 0.80157 0.62843 0.81924
 H682 H 0.82910 0.62629 0.78921
 H683 H 0.79095 0.62507 0.82700
 Cu684 Cu 0.84053 0.65941 0.81014
 Cu685 Cu 0.81081 0.65809 0.84020
 Cu686 Cu 0.84170 0.68877 0.84036
 N687 N 0.85784 0.67659 0.81052
 N688 N 0.85841 0.68785 0.82255
 C689 C 0.87163 0.69803 0.81997
 C690 C 0.87975 0.69295 0.80546
 C691 C 0.87063 0.67930 0.79979
 H692 H 0.87492 0.70854 0.82790
 H693 H 0.87324 0.67180 0.78878
 N694 N 0.82372 0.68765 0.85729
 N695 N 0.81207 0.67588 0.85740
 C696 C 0.80171 0.67858 0.87052
 C697 C 0.80701 0.69281 0.87895
 C698 C 0.82099 0.69821 0.87020
 H699 H 0.79089 0.67097 0.87353
 H700 H 0.82868 0.70898 0.87312
 H701 H 0.82242 0.67724 0.82725
 H702 H 0.83618 0.66337 0.84018
 N703 N 0.81121 0.14180 0.32223
 N704 N 0.82406 0.14057 0.31194
 C705 C 0.82163 0.12739 0.30164
 C706 C 0.80643 0.11994 0.30567
 C707 C 0.80018 0.12949 0.31881
 H708 H 0.83023 0.12360 0.29183
 H709 H 0.78862 0.12745 0.32563
 Cu710 Cu 0.84281 0.15622 0.31275
 Cu711 Cu 0.80995 0.15884 0.33968
 Cu712 Cu 0.84150 0.18849 0.34016
 N713 N 0.85917 0.17439 0.31213
 N714 N 0.85845 0.18695 0.32279
 C715 C 0.87089 0.19781 0.31942
 C716 C 0.87998 0.19181 0.30588
 C717 C 0.87220 0.17684 0.30160
 H718 H 0.87319 0.20920 0.32640
 H719 H 0.87557 0.16854 0.29140
 N720 N 0.82330 0.18809 0.35675
 N721 N 0.81100 0.17703 0.35642
 C722 C 0.80047 0.18018 0.36931
 C723 C 0.80655 0.19380 0.37822
 C724 C 0.82102 0.19847 0.36987
 H725 H 0.78943 0.17285 0.37227
 H726 H 0.82925 0.20875 0.37308
 H727 H 0.82357 0.17601 0.32591
 H728 H 0.83537 0.16319 0.34170
 N729 N 0.68919 0.35776 0.32263
 N730 N 0.67631 0.35915 0.31243
 C731 C 0.67876 0.37242 0.30226
 C732 C 0.69404 0.37971 0.30629
 C733 C 0.70028 0.37002 0.31928
 H734 H 0.67014 0.37637 0.29255
 H735 H 0.71189 0.37194 0.32606
 Cu736 Cu 0.65752 0.34357 0.31328
 Cu737 Cu 0.69034 0.34059 0.33985
 Cu738 Cu 0.65870 0.31094 0.34041
 N739 N 0.64111 0.32551 0.31257
 N740 N 0.64163 0.31278 0.32302
 C741 C 0.62890 0.30224 0.31950
 C742 C 0.61985 0.30872 0.30613
 C743 C 0.62801 0.32352 0.30208
 H744 H 0.62631 0.29080 0.32631
 H745 H 0.62480 0.33210 0.29208
 N746 N 0.67715 0.31125 0.35692
 N747 N 0.68938 0.32238 0.35643
 C748 C 0.70017 0.31929 0.36906
 C749 C 0.69446 0.30559 0.37802
 C750 C 0.67978 0.30083 0.36998
 H751 H 0.71121 0.32669 0.37177
 H752 H 0.67172 0.29046 0.37332
 H753 H 0.67642 0.32330 0.32615
 H754 H 0.66476 0.33605 0.34211
 N755 N 0.68624 0.85973 0.82555
 N756 N 0.67641 0.85828 0.81238
 C757 C 0.68069 0.86993 0.80095
 C758 C 0.69383 0.87935 0.80735
 C759 C 0.69698 0.87253 0.82305
 H760 H 0.67433 0.87177 0.78910
 H761 H 0.70636 0.87652 0.83203
 Cu762 Cu 0.65807 0.84225 0.81206
 Cu763 Cu 0.68382 0.84507 0.84500
 Cu764 Cu 0.66238 0.80811 0.83606
 N765 N 0.64169 0.82427 0.81142
 N766 N 0.64342 0.81078 0.82072
 C767 C 0.63069 0.80016 0.81740
 C768 C 0.62031 0.80749 0.80546
 C769 C 0.62778 0.82280 0.80199
 H770 H 0.62908 0.78809 0.82337
 H771 H 0.62357 0.83209 0.79305
 N772 N 0.67756 0.81068 0.85549
 N773 N 0.68523 0.82489 0.85917
 C774 C 0.69424 0.82281 0.87330
 C775 C 0.69216 0.80648 0.87891
 C776 C 0.68145 0.79919 0.86725
 H777 H 0.70197 0.83246 0.87888
 H778 H 0.67662 0.78654 0.86739
 H779 H 0.67907 0.82682 0.82811
 H780 H 0.66062 0.83292 0.84119
 N781 N 0.18680 0.35822 0.82531
 N782 N 0.17476 0.35868 0.81403
 C783 C 0.17729 0.37192 0.80383
 C784 C 0.19175 0.38011 0.80895
 C785 C 0.19742 0.37105 0.82264
 H786 H 0.16949 0.37509 0.79318
 H787 H 0.20847 0.37356 0.83011
 Cu788 Cu 0.15766 0.34128 0.81345
 Cu789 Cu 0.18811 0.34084 0.84244
 Cu790 Cu 0.15797 0.30941 0.84093
 N791 N 0.14060 0.32385 0.81273
 N792 N 0.14108 0.31117 0.82326
 C793 C 0.12823 0.30073 0.81991
 C794 C 0.11914 0.30724 0.80660
 C795 C 0.12737 0.32194 0.80238
 H796 H 0.12552 0.28941 0.82687
 H797 H 0.12406 0.33049 0.79239
 N798 N 0.17606 0.31004 0.85787
 N799 N 0.18730 0.32218 0.85861
 C800 C 0.19750 0.31945 0.87181
 C801 C 0.19250 0.30487 0.87976
 C802 C 0.17889 0.29922 0.87054
 H803 H 0.20788 0.32743 0.87534
 H804 H 0.17138 0.28823 0.87311
 H805 H 0.17652 0.32240 0.82838
 H806 H 0.16285 0.33475 0.84286
 N807 N 0.18879 0.85754 0.32474
 N808 N 0.17633 0.85854 0.31398
 C809 C 0.17890 0.87177 0.30380
 C810 C 0.19381 0.87946 0.30839
 C811 C 0.19973 0.87005 0.32175
 H812 H 0.17067 0.87536 0.29362
 H813 H 0.21106 0.87222 0.32889
 Cu814 Cu 0.15797 0.84246 0.31402
 Cu815 Cu 0.18980 0.84023 0.34187
 Cu816 Cu 0.15963 0.80910 0.34012
 N817 N 0.14226 0.82388 0.31226
 N818 N 0.14303 0.81080 0.32225
 C819 C 0.13056 0.80009 0.31828
 C820 C 0.12143 0.80685 0.30510
 C821 C 0.12928 0.82195 0.30162
 H822 H 0.12807 0.78847 0.32480
 H823 H 0.12583 0.83088 0.29202
 N824 N 0.17743 0.80966 0.35731
 N825 N 0.18877 0.82169 0.35811
 C826 C 0.19886 0.81890 0.37137
 C827 C 0.19370 0.80436 0.37932
 C828 C 0.18008 0.79884 0.37003
 H829 H 0.20931 0.82679 0.37491
 H830 H 0.17246 0.78791 0.37253
 H831 H 0.17737 0.82279 0.32706
 H832 H 0.16442 0.83440 0.34289
 C833 C 0.25699 1.01488 0.24530
 C834 C 0.24305 1.01469 0.25632
 C835 C 0.23662 0.99928 0.26184
 C836 C 0.24372 0.98406 0.25659
 C837 C 0.25740 0.98425 0.24527
 C838 C 0.26407 0.99965 0.24001
 H839 H 0.27439 0.99979 0.23112
 H840 H 0.22622 0.99914 0.27064
 C841 C 0.25713 0.51407 0.74540
 C842 C 0.24295 0.51411 0.75610
 C843 C 0.23607 0.49881 0.76136
 C844 C 0.24301 0.48347 0.75623
 C845 C 0.25691 0.48342 0.74518
 C846 C 0.26395 0.49871 0.74010
 H847 H 0.27449 0.49866 0.73147
 H848 H 0.22553 0.49883 0.76999
 C849 C 0.75755 -0.01599 0.25388
 C850 C 0.74328 -0.01600 0.24334
 C851 C 0.73632 -0.00070 0.23821
 C852 C 0.74318 0.01462 0.24342
 C853 C 0.75738 0.01466 0.25411
 C854 C 0.76459 -0.00067 0.25896
 H855 H 0.77520 -0.00070 0.26749
 H856 H 0.72555 -0.00073 0.22986
 C857 C 0.75688 0.48423 0.75500
 C858 C 0.74292 0.48425 0.74406
 C859 C 0.73597 0.49959 0.73896
 C860 C 0.74289 0.51491 0.74419
 C861 C 0.75712 0.51486 0.75483
 C862 C 0.76397 0.49950 0.76004
 H863 H 0.77456 0.49944 0.76861
 H864 H 0.72538 0.49960 0.73039
 C865 C 0.25673 0.48483 0.25447
 C866 C 0.24356 0.48516 0.24259
 C867 C 0.23759 0.50061 0.23668
 C868 C 0.24437 0.51577 0.24245
 C869 C 0.25748 0.51547 0.25439
 C870 C 0.26355 0.50001 0.26022
 H871 H 0.27357 0.49980 0.26943
 H872 H 0.22748 0.50084 0.22756
 C873 C 0.75567 1.01601 0.74573
 C874 C 0.74250 1.01564 0.75761
 C875 C 0.73661 1.00017 0.76354
 C876 C 0.74347 0.98503 0.75772
 C877 C 0.75649 0.98539 0.74564
 C878 C 0.76250 1.00088 0.73986
 H879 H 0.77250 1.00117 0.73062
 H880 H 0.72654 0.99992 0.77270
 C881 C 0.75651 0.51631 0.24495
 C882 C 0.74282 0.51601 0.25627
 C883 C 0.73650 0.50054 0.26176
 C884 C 0.74350 0.48537 0.25624
 C885 C 0.75702 0.48566 0.24472
 C886 C 0.76355 0.50113 0.23944
 H887 H 0.77373 0.50135 0.23039
 H888 H 0.72627 0.50031 0.27075
 C889 C 0.25706 -0.01506 0.75576
 C890 C 0.24283 -0.01534 0.74515
 C891 C 0.23548 -0.00015 0.74011
 C892 C 0.24215 0.01530 0.74526
 C893 C 0.25619 0.01554 0.75616
 C894 C 0.26357 0.00036 0.76112
 H895 H 0.27421 0.00053 0.76961
 H896 H 0.22492 -0.00035 0.73151
 C897 C 0.24459 0.25599 1.01568
 C898 C 0.25609 0.24247 1.01542
 C899 C 0.26173 0.23619 0.99997
 C900 C 0.25617 0.24308 0.98478
 C901 C 0.24444 0.25640 0.98501
 C902 C 0.23902 0.26289 1.00047
 H903 H 0.22982 0.27293 1.00065
 H904 H 0.27085 0.22608 0.99977
 C905 C 0.24503 0.75625 0.51561
 C906 C 0.25553 0.74195 0.51590
 C907 C 0.26048 0.73457 0.50069
 C908 C 0.25522 0.74112 0.48524
 C909 C 0.24452 0.75528 0.48494
 C910 C 0.23977 0.76282 0.50014
 H911 H 0.23134 0.77351 0.49994
 H912 H 0.26886 0.72384 0.50089
 C913 C 0.25574 0.75780 -0.01602
 C914 C 0.24468 0.74393 -0.01648
 C915 C 0.23948 0.73653 -0.00138
 C916 C 0.24484 0.74278 0.01419
 C917 C 0.25592 0.75663 0.01464
 C918 C 0.26111 0.76406 -0.00046
 H919 H 0.26985 0.77447 -0.00012
 H920 H 0.23073 0.72612 -0.00174
 C921 C 0.25524 0.25649 0.48460
 C922 C 0.24320 0.24348 0.48432
 C923 C 0.23725 0.23687 0.49949
 C924 C 0.24313 0.24285 0.51497
 C925 C 0.25519 0.25586 0.51526
 C926 C 0.26107 0.26254 0.50007
 H927 H 0.27036 0.27248 0.50028
 H928 H 0.22803 0.22687 0.49924
 C929 C 0.74464 0.75677 1.01451
 C930 C 0.75641 0.74347 1.01440
 C931 C 0.76179 0.73682 0.99901
 C932 C 0.75594 0.74332 0.98373
 C933 C 0.74416 0.75663 0.98382
 C934 C 0.73878 0.76328 0.99924
 H935 H 0.72949 0.77323 0.99936
 H936 H 0.77105 0.72684 0.99891
 C937 C 0.74323 0.25511 0.51453
 C938 C 0.75563 0.24242 0.51446
 C939 C 0.76214 0.23676 0.49913
 C940 C 0.75646 0.24334 0.48384
 C941 C 0.74382 0.25578 0.48386
 C942 C 0.73740 0.26158 0.49922
 H943 H 0.72779 0.27123 0.49926
 H944 H 0.77176 0.22712 0.49909
 C945 C 0.75594 0.25756 -0.01441
 C946 C 0.74496 0.24364 -0.01508
 C947 C 0.73953 0.23619 -0.00008
 C948 C 0.74457 0.24248 0.01559
 C949 C 0.75562 0.25635 0.01625
 C950 C 0.76104 0.26380 0.00124
 H951 H 0.76974 0.27425 0.00173
 H952 H 0.73082 0.22576 -0.00059
 C953 C 0.75623 0.75783 0.48523
 C954 C 0.74379 0.74519 0.48525
 C955 C 0.73813 0.73868 0.50062
 C956 C 0.74471 0.74442 0.51594
 C957 C 0.75735 0.75685 0.51585
 C958 C 0.76288 0.76345 0.50051
 H959 H 0.77250 0.77308 0.50046
 H960 H 0.72851 0.72906 0.50065
 C961 C 1.01496 0.24305 0.25495
 C962 C 1.01501 0.25712 0.24416
 C963 C 0.99970 0.26399 0.23884
 C964 C 0.98433 0.25715 0.24399
 C965 C 0.98427 0.24300 0.25469
 C966 C 0.99959 0.23599 0.25985
 H967 H 0.99954 0.22546 0.26846
 H968 H 0.99975 0.27464 0.23038
 C969 C 0.51550 0.24440 0.75716
 C970 C 0.51577 0.25677 0.74446
 C971 C 0.50058 0.26269 0.73784
 C972 C 0.48512 0.25652 0.74354
 C973 C 0.48483 0.24423 0.75631
 C974 C 0.50003 0.23833 0.76298
 H975 H 0.49982 0.22885 0.77273
 H976 H 0.50080 0.27210 0.72802
 C977 C -0.01669 0.25540 0.75633
 C978 C -0.01613 0.24294 0.74371
 C979 C -0.00051 0.23706 0.73804
 C980 C 0.01457 0.24355 0.74442
 C981 C 0.01400 0.25626 0.75681
 C982 C -0.00162 0.26189 0.76272
 H983 H -0.00206 0.27159 0.77227
 H984 H -0.00009 0.22747 0.72838
 C985 C 0.48439 0.25762 0.25564
 C986 C 0.48437 0.24376 0.24455
 C987 C 0.49972 0.23685 0.23933
 C988 C 0.51510 0.24373 0.24453
 C989 C 0.51509 0.25785 0.25530
 C990 C 0.49973 0.26462 0.26068
 H991 H 0.49973 0.27512 0.26934
 H992 H 0.49971 0.22634 0.23067
 C993 C 1.01540 0.74372 0.75619
 C994 C 1.01572 0.75667 0.74408
 C995 C 1.00052 0.76341 0.73826
 C996 C 0.98504 0.75749 0.74420
 C997 C 0.98475 0.74458 0.75634
 C998 C 0.99992 0.73789 0.76222
 H999 H 0.99968 0.72794 0.77149
 H1000 H 1.00074 0.77330 0.72892
 C1001 C 0.51508 0.74361 0.25630
 C1002 C 0.51520 0.75608 0.24371
 C1003 C 0.49992 0.76260 0.23786
 C1004 C 0.48454 0.75702 0.24437
 C1005 C 0.48444 0.74474 0.25715
 C1006 C 0.49971 0.73815 0.26291
 H1007 H 0.49962 0.72864 0.27265
 H1008 H 0.50000 0.77210 0.22812
 C1009 C -0.01515 0.75706 0.25630
 C1010 C -0.01541 0.74443 0.24385
 C1011 C -0.00018 0.73829 0.23744
 C1012 C 0.01531 0.74454 0.24307
 C1013 C 0.01554 0.75749 0.25520
 C1014 C 0.00031 0.76353 0.26171
 H1015 H 0.00050 0.77332 0.27117
 H1016 H -0.00038 0.72843 0.22805
 C1017 C 0.48413 0.75728 0.75488
 C1018 C 0.48432 0.74313 0.74418
 C1019 C 0.49976 0.73640 0.73902
 C1020 C 0.51503 0.74353 0.74411
 C1021 C 0.51485 0.75781 0.75468
 C1022 C 0.49938 0.76459 0.75978
 H1023 H 0.49921 0.77525 0.76825
 H1024 H 0.49988 0.72568 0.73062
 C1025 C 0.42383 0.28496 0.28585
 C1026 C 0.42066 0.30226 0.28339
 C1027 C 0.40641 0.30979 0.29063
 C1028 C 0.39535 0.30040 0.30061
 C1029 C 0.39865 0.28331 0.30317
 C1030 C 0.41263 0.27566 0.29588
 C1031 C 0.43915 0.27739 0.27787
 C1032 C 0.44314 0.26020 0.27911
 C1033 C 0.45773 0.25385 0.27175
 C1034 C 0.46865 0.26440 0.26293
 C1035 C 0.46477 0.28148 0.26145
 C1036 C 0.45007 0.28801 0.26872
 C1037 C 0.43181 0.31200 0.27392
 C1038 C 0.44626 0.30506 0.26686
 H1039 H 0.42942 0.32526 0.27208
 H1040 H 0.45457 0.31318 0.25978
 H1041 H 0.40414 0.32305 0.28874
 H1042 H 0.39028 0.27570 0.31070
 H1043 H 0.46061 0.24064 0.27311
 H1044 H 0.47318 0.28964 0.25454
 H1045 H 0.41445 0.26249 0.29835
 H1046 H 0.43524 0.25145 0.28572
 C1047 C 0.42318 0.78397 0.78483
 C1048 C 0.41869 0.80061 0.78062
 C1049 C 0.40423 0.80796 0.78762
 C1050 C 0.39420 0.79918 0.79925
 C1051 C 0.39900 0.78275 0.80360
 C1052 C 0.41318 0.77525 0.79649
 C1053 C 0.43861 0.77652 0.77695
 C1054 C 0.44363 0.75976 0.77956
 C1055 C 0.45829 0.75355 0.77222
 C1056 C 0.46831 0.76386 0.76212
 C1057 C 0.46339 0.78047 0.75922
 C1058 C 0.44853 0.78680 0.76635
 C1059 C 0.42881 0.80994 0.76967
 C1060 C 0.44351 0.80326 0.76287
 H1061 H 0.42544 0.82273 0.76649
 H1062 H 0.45101 0.81109 0.75466
 H1063 H 0.40113 0.82070 0.78415
 H1064 H 0.39180 0.77541 0.81244
 H1065 H 0.46195 0.74067 0.77456
 H1066 H 0.47108 0.78839 0.75126
 H1067 H 0.41615 0.76267 0.80045
 H1068 H 0.43642 0.75122 0.78719
 C1069 C -0.07804 0.28456 0.78295
 C1070 C -0.08122 0.28214 0.80028
 C1071 C -0.09551 0.28929 0.80777
 C1072 C -0.10661 0.29921 0.79837
 C1073 C -0.10333 0.30177 0.78126
 C1074 C -0.08930 0.29450 0.77361
 C1075 C -0.06261 0.27671 0.77546
 C1076 C -0.05857 0.27784 0.75824
 C1077 C -0.04379 0.27072 0.75201
 C1078 C -0.03273 0.26229 0.76275
 C1079 C -0.03670 0.26084 0.77982
 C1080 C -0.05157 0.26783 0.78621
 C1081 C -0.06999 0.27284 0.81011
 C1082 C -0.05542 0.26598 0.80326
 H1083 H -0.07240 0.27103 0.82338
 H1084 H -0.04703 0.25909 0.81146
 H1085 H -0.09774 0.28743 0.82106
 H1086 H -0.11173 0.30928 0.77367
 H1087 H -0.04085 0.27198 0.73879
 H1088 H -0.02816 0.25421 0.78810
 H1089 H -0.08745 0.29697 0.76043
 H1090 H -0.06660 0.28420 0.74939
 C1091 C -0.07565 0.78412 0.28675
 C1092 C -0.08667 0.79328 0.27623
 C1093 C -0.10123 0.80069 0.28295
 C1094 C -0.10526 0.79876 0.30000
 C1095 C -0.09454 0.78934 0.31028
 C1096 C -0.07992 0.78216 0.30382
 C1097 C -0.05999 0.77682 0.27922
 C1098 C -0.04772 0.76845 0.28885
 C1099 C -0.03325 0.76207 0.28129
 C1100 C -0.03072 0.76370 0.26399
 C1101 C -0.04277 0.77202 0.25424
 C1102 C -0.05728 0.77873 0.26174
 C1103 C -0.08317 0.79484 0.25906
 C1104 C -0.06890 0.78757 0.25194
 H1105 H -0.09166 0.80173 0.25096
 H1106 H -0.06682 0.78907 0.23858
 H1107 H -0.10959 0.80770 0.27482
 H1108 H -0.09731 0.78769 0.32349
 H1109 H -0.02399 0.75574 0.28898
 H1110 H -0.04067 0.77350 0.24087
 H1111 H -0.07221 0.77509 0.31239
 H1112 H -0.04891 0.76685 0.30223
 C1113 C 0.57564 0.71372 0.28359
 C1114 C 0.58689 0.72449 0.29216
 C1115 C 0.60147 0.71794 0.29964
 C1116 C 0.60520 0.70077 0.29850
 C1117 C 0.59418 0.69020 0.28976
 C1118 C 0.57960 0.69654 0.28243
 C1119 C 0.56001 0.72111 0.27614
 C1120 C 0.54768 0.71132 0.26805
 C1121 C 0.53320 0.71874 0.26159
 C1122 C 0.53071 0.73606 0.26289
 C1123 C 0.54285 0.74598 0.27086
 C1124 C 0.55741 0.73863 0.27757
 C1125 C 0.58356 0.74172 0.29315
 C1126 C 0.56920 0.74865 0.28591
 H1127 H 0.59221 0.74999 0.29961
 H1128 H 0.56721 0.76205 0.28702
 H1129 H 0.61001 0.72628 0.30615
 H1130 H 0.59666 0.67689 0.28876
 H1131 H 0.52389 0.71094 0.25549
 H1132 H 0.54078 0.75937 0.27207
 H1133 H 0.57166 0.68773 0.27592
 H1134 H 0.54885 0.69792 0.26670
 C1135 C 0.57669 0.21721 0.78603
 C1136 C 0.57930 0.19972 0.78433
 C1137 C 0.59373 0.19220 0.79118
 C1138 C 0.60562 0.20182 0.79993
 C1139 C 0.60300 0.21915 0.80153
 C1140 C 0.58879 0.22676 0.79468
 C1141 C 0.56106 0.22473 0.77867
 C1142 C 0.55737 0.24203 0.77950
 C1143 C 0.54258 0.24836 0.77257
 C1144 C 0.53114 0.23766 0.76462
 C1145 C 0.53460 0.22046 0.76373
 C1146 C 0.54948 0.21394 0.77058
 C1147 C 0.56743 0.18980 0.77599
 C1148 C 0.55282 0.19674 0.76931
 H1149 H 0.56942 0.17641 0.77468
 H1150 H 0.54399 0.18850 0.76305
 H1151 H 0.59547 0.17878 0.78996
 H1152 H 0.61200 0.22696 0.80804
 H1153 H 0.54000 0.26168 0.77344
 H1154 H 0.52577 0.21219 0.75749
 H1155 H 0.58752 0.24012 0.79640
 H1156 H 0.56570 0.25089 0.78543
 C1157 C 1.07583 0.71320 0.78315
 C1158 C 1.08704 0.72378 0.79199
 C1159 C 1.10164 0.71709 0.79930
 C1160 C 1.10545 0.69997 0.79773
 C1161 C 1.09446 0.68959 0.78873
 C1162 C 1.07985 0.69606 0.78156
 C1163 C 1.06020 0.72074 0.77586
 C1164 C 1.04790 0.71113 0.76750
 C1165 C 1.03346 0.71870 0.76113
 C1166 C 1.03095 0.73599 0.76279
 C1167 C 1.04304 0.74571 0.77108
 C1168 C 1.05757 0.73822 0.77769
 C1169 C 1.08367 0.74097 0.79341
 C1170 C 1.06931 0.74805 0.78631
 H1171 H 1.09229 0.74910 0.80009
 H1172 H 1.06729 0.76142 0.78774
 H1173 H 1.11016 0.72530 0.80601
 H1174 H 1.09699 0.67632 0.78739
 H1175 H 1.02419 0.71103 0.75478
 H1176 H 1.04097 0.75908 0.77257
 H1177 H 1.07193 0.68740 0.77484
 H1178 H 1.04908 0.69777 0.76585
 C1179 C 1.07529 0.21588 0.28558
 C1180 C 1.07869 0.19866 0.28285
 C1181 C 1.09292 0.19119 0.29011
 C1182 C 1.10381 0.20055 0.30033
 C1183 C 1.10030 0.21756 0.30316
 C1184 C 1.08629 0.22515 0.29588
 C1185 C 1.06001 0.22341 0.27754
 C1186 C 1.05575 0.24050 0.27913
 C1187 C 1.04123 0.24682 0.27166
 C1188 C 1.03064 0.23632 0.26235
 C1189 C 1.03476 0.21933 0.26057
 C1190 C 1.04939 0.21284 0.26797
 C1191 C 1.06780 0.18896 0.27304
 C1192 C 1.05341 0.19587 0.26585
 H1193 H 1.07037 0.17577 0.27098
 H1194 H 1.04532 0.18779 0.25847
 H1195 H 1.09534 0.17798 0.28801
 H1196 H 1.10851 0.22514 0.31087
 H1197 H 1.03812 0.25995 0.27331
 H1198 H 1.02657 0.21122 0.25333
 H1199 H 1.08431 0.23826 0.29855
 H1200 H 1.06339 0.24921 0.28611
 C1201 C 0.57711 0.28348 0.71566
 C1202 C 0.57980 0.30096 0.71727
 C1203 C 0.59415 0.30839 0.71019
 C1204 C 0.60579 0.29869 0.70119
 C1205 C 0.60304 0.28140 0.69955
 C1206 C 0.58896 0.27386 0.70671
 C1207 C 0.56159 0.27605 0.72330
 C1208 C 0.55795 0.25874 0.72273
 C1209 C 0.54314 0.25252 0.72971
 C1210 C 0.53166 0.26334 0.73745
 C1211 C 0.53516 0.28053 0.73824
 C1212 C 0.55006 0.28694 0.73135
 C1213 C 0.56804 0.31098 0.72569
 C1214 C 0.55344 0.30414 0.73248
 H1215 H 0.57007 0.32437 0.72690
 H1216 H 0.54465 0.31245 0.73872
 H1217 H 0.59602 0.32180 0.71136
 H1218 H 0.61188 0.27357 0.69281
 H1219 H 0.54053 0.23921 0.72893
 H1220 H 0.52628 0.28888 0.74432
 H1221 H 0.58757 0.26053 0.70496
 H1222 H 0.56630 0.24980 0.71695
 C1223 C 0.57674 0.78211 0.21460
 C1224 C 0.57988 0.79946 0.21677
 C1225 C 0.59439 0.80675 0.20991
 C1226 C 0.60584 0.79709 0.20062
 C1227 C 0.60266 0.77993 0.19841
 C1228 C 0.58836 0.77250 0.20532
 C1229 C 0.56107 0.77484 0.22210
 C1230 C 0.55692 0.75767 0.22097
 C1231 C 0.54206 0.75160 0.22801
 C1232 C 0.53102 0.76245 0.23635
 C1233 C 0.53499 0.77950 0.23760
 C1234 C 0.54993 0.78575 0.23068
 C1235 C 0.56845 0.80949 0.22561
 C1236 C 0.55376 0.80280 0.23233
 H1237 H 0.57084 0.82277 0.22725
 H1238 H 0.54526 0.81112 0.23896
 H1239 H 0.59653 0.82007 0.21153
 H1240 H 0.61131 0.77211 0.19142
 H1241 H 0.53910 0.73839 0.22688
 H1242 H 0.52646 0.78787 0.24415
 H1243 H 0.58663 0.75927 0.20314
 H1244 H 0.56494 0.74873 0.21472
 C1245 C 1.07575 0.28713 0.21730
 C1246 C 1.08666 0.27653 0.20808
 C1247 C 1.10121 0.28312 0.20060
 C1248 C 1.10523 0.30017 0.20228
 C1249 C 1.09450 0.31058 0.21159
 C1250 C 1.07996 0.30421 0.21898
 C1251 C 1.06016 0.27970 0.22478
 C1252 C 1.04822 0.28931 0.23368
 C1253 C 1.03371 0.28188 0.24006
 C1254 C 1.03078 0.26471 0.23787
 C1255 C 1.04259 0.25497 0.22917
 C1256 C 1.05718 0.26233 0.22257
 C1257 C 1.08301 0.25942 0.20642
 C1258 C 1.06863 0.25247 0.21356
 H1259 H 1.09140 0.25128 0.19945
 H1260 H 1.06636 0.23917 0.21188
 H1261 H 1.10951 0.27488 0.19362
 H1262 H 1.09717 0.32382 0.21300
 H1263 H 1.02469 0.28956 0.24676
 H1264 H 1.04021 0.24171 0.22727
 H1265 H 1.07223 0.31290 0.22590
 H1266 H 1.04972 0.30258 0.23573
 C1267 C 1.07718 0.78295 0.71500
 C1268 C 1.08037 0.80027 0.71732
 C1269 C 1.09482 0.80760 0.71039
 C1270 C 1.10613 0.79801 0.70086
 C1271 C 1.10287 0.78090 0.69845
 C1272 C 1.08865 0.77343 0.70545
 C1273 C 1.06159 0.77561 0.72262
 C1274 C 1.05747 0.75844 0.72142
 C1275 C 1.04264 0.75231 0.72848
 C1276 C 1.03162 0.76309 0.73693
 C1277 C 1.03561 0.78014 0.73833
 C1278 C 1.05052 0.78644 0.73137
 C1279 C 1.06902 0.81022 0.72636
 C1280 C 1.05437 0.80348 0.73313
 H1281 H 1.07143 0.82349 0.72810
 H1282 H 1.04592 0.81175 0.73989
 H1283 H 1.09705 0.82089 0.71215
 H1284 H 1.11142 0.77315 0.69126
 H1285 H 1.03966 0.73912 0.72720
 H1286 H 1.02710 0.78846 0.74496
 H1287 H 1.08685 0.76023 0.70313
 H1288 H 1.06545 0.74954 0.71507
 C1289 C 0.42393 0.71272 0.71688
 C1290 C 0.41301 0.72326 0.70762
 C1291 C 0.39845 0.71661 0.70018
 C1292 C 0.39443 0.69957 0.70198
 C1293 C 0.40522 0.68922 0.71127
 C1294 C 0.41976 0.69565 0.71860
 C1295 C 0.43947 0.72024 0.72443
 C1296 C 0.45137 0.71072 0.73344
 C1297 C 0.46579 0.71824 0.73995
 C1298 C 0.46865 0.73542 0.73777
 C1299 C 0.45689 0.74506 0.72892
 C1300 C 0.44239 0.73761 0.72220
 C1301 C 0.41664 0.74036 0.70590
 C1302 C 0.43097 0.74739 0.71309
 H1303 H 0.40826 0.74845 0.69887
 H1304 H 0.43321 0.76068 0.71137
 H1305 H 0.39013 0.72479 0.69319
 H1306 H 0.40257 0.67599 0.71276
 H1307 H 0.47478 0.71062 0.74674
 H1308 H 0.45922 0.75832 0.72699
 H1309 H 0.42751 0.68700 0.72554
 H1310 H 0.44992 0.69744 0.73551
 C1311 C 0.42329 0.21652 0.21539
 C1312 C 0.42021 0.19920 0.21777
 C1313 C 0.40580 0.19173 0.21083
 C1314 C 0.39445 0.20121 0.20124
 C1315 C 0.39762 0.21833 0.19880
 C1316 C 0.41178 0.22592 0.20579
 C1317 C 0.43880 0.22402 0.22301
 C1318 C 0.44278 0.24121 0.22173
 C1319 C 0.45749 0.24752 0.22882
 C1320 C 0.46859 0.23694 0.23741
 C1321 C 0.46477 0.21985 0.23886
 C1322 C 0.44994 0.21335 0.23185
 C1323 C 0.43161 0.18939 0.22688
 C1324 C 0.44620 0.19629 0.23367
 H1325 H 0.42929 0.17612 0.22867
 H1326 H 0.45468 0.18812 0.24049
 H1327 H 0.40363 0.17844 0.21264
 H1328 H 0.38905 0.22600 0.19159
 H1329 H 0.46033 0.26074 0.22745
 H1330 H 0.47332 0.21165 0.24557
 H1331 H 0.41349 0.23911 0.20342
 H1332 H 0.43475 0.25000 0.21530
 C1333 C -0.07663 0.71491 0.21741
 C1334 C -0.07987 0.71739 0.20011
 C1335 C -0.09429 0.71045 0.19270
 C1336 C -0.10548 0.70070 0.20217
 C1337 C -0.10210 0.69802 0.21924
 C1338 C -0.08793 0.70506 0.22681
 C1339 C -0.06113 0.72267 0.22484
 C1340 C -0.05706 0.72157 0.24205
 C1341 C -0.04231 0.72877 0.24824
 C1342 C -0.03130 0.73721 0.23746
 C1343 C -0.03527 0.73855 0.22039
 C1344 C -0.05012 0.73152 0.21404
 C1345 C -0.06862 0.72657 0.19022
 C1346 C -0.05399 0.73335 0.19700
 H1347 H -0.07107 0.72841 0.17696
 H1348 H -0.04560 0.74020 0.18877
 H1349 H -0.09658 0.71238 0.17943
 H1350 H -0.11055 0.69060 0.22687
 H1351 H -0.03937 0.72759 0.26147
 H1352 H -0.02678 0.74520 0.21208
 H1353 H -0.08601 0.70254 0.23997
 H1354 H -0.06506 0.71523 0.25093
 C1355 C -0.07660 0.21584 0.71335
 C1356 C -0.08769 0.20683 0.72393
 C1357 C -0.10236 0.19962 0.71727
 C1358 C -0.10641 0.20157 0.70023
 C1359 C -0.09559 0.21082 0.68989
 C1360 C -0.08087 0.21781 0.69630
 C1361 C -0.06086 0.22298 0.72083
 C1362 C -0.04858 0.23129 0.71117
 C1363 C -0.03411 0.23766 0.71870
 C1364 C -0.03157 0.23604 0.73601
 C1365 C -0.04359 0.22771 0.74577
 C1366 C -0.05813 0.22106 0.73830
 C1367 C -0.08415 0.20522 0.74108
 C1368 C -0.06978 0.21233 0.74814
 H1369 H -0.09268 0.19843 0.74922
 H1370 H -0.06768 0.21080 0.76150
 H1371 H -0.11078 0.19274 0.72545
 H1372 H -0.09834 0.21247 0.67669
 H1373 H -0.02488 0.24402 0.71100
 H1374 H -0.04149 0.22624 0.75914
 H1375 H -0.07310 0.22476 0.68769
 H1376 H -0.04979 0.23290 0.69779
 C1377 C 0.28323 0.42354 0.28363
 C1378 C 0.30062 0.42041 0.28148
 C1379 C 0.30801 0.40608 0.28862
 C1380 C 0.29839 0.39485 0.29817
 C1381 C 0.28119 0.39800 0.30030
 C1382 C 0.27368 0.41209 0.29311
 C1383 C 0.27585 0.43905 0.27592
 C1384 C 0.25865 0.44317 0.27712
 C1385 C 0.25248 0.45795 0.27004
 C1386 C 0.26323 0.46892 0.26154
 C1387 C 0.28032 0.46494 0.26014
 C1388 C 0.28667 0.45008 0.26716
 C1389 C 0.31057 0.43171 0.27242
 C1390 C 0.30376 0.44626 0.26549
 H1391 H 0.32388 0.42935 0.27078
 H1392 H 0.31204 0.45468 0.25873
 H1393 H 0.32135 0.40391 0.28703
 H1394 H 0.27339 0.38949 0.30744
 H1395 H 0.23927 0.46093 0.27137
 H1396 H 0.28864 0.47343 0.25351
 H1397 H 0.26042 0.41379 0.29525
 H1398 H 0.24976 0.43524 0.28351
 C1399 C 0.28785 -0.07575 0.78178
 C1400 C 0.27813 -0.08544 0.79301
 C1401 C 0.28499 -0.09983 0.80050
 C1402 C 0.30146 -0.10516 0.79677
 C1403 C 0.31081 -0.09576 0.78510
 C1404 C 0.30418 -0.08127 0.77778
 C1405 C 0.28026 -0.06007 0.77460
 C1406 C 0.28932 -0.04881 0.76439
 C1407 C 0.28174 -0.03423 0.75831
 C1408 C 0.26493 -0.03065 0.76204
 C1409 C 0.25578 -0.04171 0.77217
 C1410 C 0.26336 -0.05622 0.77865
 C1411 C 0.26154 -0.08082 0.79664
 C1412 C 0.25424 -0.06666 0.78944
 H1413 H 0.25402 -0.08832 0.80514
 H1414 H 0.24134 -0.06367 0.79261
 H1415 H 0.27724 -0.10692 0.80910
 H1416 H 0.32347 -0.09931 0.78169
 H1417 H 0.28897 -0.02572 0.75056
 H1418 H 0.24284 -0.03877 0.77527
 H1419 H 0.31203 -0.07463 0.76898
 H1420 H 0.30230 -0.05088 0.76116
 C1421 C 0.78358 0.42374 0.78547
 C1422 C 0.80023 0.41915 0.78131
 C1423 C 0.80746 0.40467 0.78833
 C1424 C 0.79855 0.39478 0.79998
 C1425 C 0.78219 0.39982 0.80443
 C1426 C 0.77480 0.41397 0.79727
 C1427 C 0.77617 0.43905 0.77743
 C1428 C 0.75929 0.44392 0.77976
 C1429 C 0.75308 0.45846 0.77226
 C1430 C 0.76350 0.46851 0.76233
 C1431 C 0.78023 0.46371 0.75967
 C1432 C 0.78654 0.44893 0.76691
 C1433 C 0.80967 0.42920 0.77040
 C1434 C 0.80307 0.44390 0.76357
 H1435 H 0.82248 0.42579 0.76727
 H1436 H 0.81098 0.45137 0.75540
 H1437 H 0.82020 0.40142 0.78487
 H1438 H 0.77477 0.39276 0.81332
 H1439 H 0.74011 0.46201 0.77438
 H1440 H 0.78822 0.47141 0.75180
 H1441 H 0.76225 0.41711 0.80129
 H1442 H 0.75066 0.43667 0.78723
 C1443 C 0.78409 -0.07690 0.28359
 C1444 C 0.80038 -0.08203 0.27867
 C1445 C 0.80759 -0.09658 0.28561
 C1446 C 0.79905 -0.10595 0.29795
 C1447 C 0.78299 -0.10048 0.30297
 C1448 C 0.77562 -0.08629 0.29589
 C1449 C 0.77674 -0.06144 0.27579
 C1450 C 0.76022 -0.05596 0.27907
 C1451 C 0.75407 -0.04129 0.27181
 C1452 C 0.76420 -0.03172 0.26113
 C1453 C 0.78057 -0.03709 0.25755
 C1454 C 0.78682 -0.05201 0.26460
 C1455 C 0.80951 -0.07241 0.26711
 C1456 C 0.80297 -0.05760 0.26042
 H1457 H 0.82203 -0.07624 0.26338
 H1458 H 0.81065 -0.05049 0.25173
 H1459 H 0.82007 -0.10023 0.28164
 H1460 H 0.77579 -0.10719 0.31230
 H1461 H 0.74137 -0.03729 0.27463
 H1462 H 0.78832 -0.02974 0.24912
 H1463 H 0.76333 -0.08282 0.30042
 H1464 H 0.75179 -0.06282 0.28713
 C1465 C 0.28721 0.57446 0.71803
 C1466 C 0.27670 0.58505 0.70838
 C1467 C 0.28331 0.59953 0.70081
 C1468 C 0.30029 0.60379 0.70283
 C1469 C 0.31062 0.59337 0.71255
 C1470 C 0.30422 0.57890 0.72003
 C1471 C 0.27976 0.55895 0.72562
 C1472 C 0.28928 0.54730 0.73495
 C1473 C 0.28182 0.53287 0.74145
 C1474 C 0.26471 0.52975 0.73896
 C1475 C 0.25506 0.54124 0.72979
 C1476 C 0.26244 0.55574 0.72307
 C1477 C 0.25966 0.58118 0.70637
 C1478 C 0.25267 0.56688 0.71362
 H1479 H 0.25159 0.58933 0.69906
 H1480 H 0.23943 0.56444 0.71167
 H1481 H 0.27513 0.60758 0.69352
 H1482 H 0.32379 0.59625 0.71425
 H1483 H 0.28944 0.52407 0.74848
 H1484 H 0.24186 0.53869 0.72763
 H1485 H 0.31283 0.57142 0.72729
 H1486 H 0.30251 0.54898 0.73726
 C1487 C 0.28423 1.07584 0.21621
 C1488 C 0.30145 1.07923 0.21911
 C1489 C 0.30899 1.09350 0.21199
 C1490 C 0.29970 1.10437 0.20171
 C1491 C 0.28266 1.10094 0.19886
 C1492 C 0.27500 1.08694 0.20601
 C1493 C 0.27667 1.06042 0.22389
 C1494 C 0.25959 1.05611 0.22199
 C1495 C 0.25326 1.04141 0.22906
 C1496 C 0.26372 1.03069 0.23824
 C1497 C 0.28069 1.03486 0.24034
 C1498 C 0.28720 1.04967 0.23335
 C1499 C 0.31108 1.06824 0.22888
 C1500 C 0.30414 1.05373 0.23575
 H1501 H 0.32427 1.07080 0.23109
 H1502 H 0.31218 1.04555 0.24307
 H1503 H 0.32221 1.09591 0.21417
 H1504 H 0.27509 1.10918 0.19115
 H1505 H 0.24015 1.03829 0.22721
 H1506 H 0.28877 1.02658 0.24750
 H1507 H 0.26188 1.08503 0.20327
 H1508 H 0.25091 1.06384 0.21507
 C1509 C 0.78295 0.57737 0.21528
 C1510 C 0.80007 0.58108 0.21835
 C1511 C 0.80744 0.59541 0.21121
 C1512 C 0.79812 0.60605 0.20072
 C1513 C 0.78122 0.60224 0.19755
 C1514 C 0.77370 0.58816 0.20475
 C1515 C 0.77556 0.56194 0.22315
 C1516 C 0.75852 0.55745 0.22138
 C1517 C 0.75236 0.54275 0.22863
 C1518 C 0.76299 0.53220 0.23782
 C1519 C 0.77990 0.53659 0.23985
 C1520 C 0.78621 0.55142 0.23275
 C1521 C 0.80981 0.57034 0.22829
 C1522 C 0.80307 0.55576 0.23521
 H1523 H 0.82292 0.57314 0.23061
 H1524 H 0.81119 0.54777 0.24264
 H1525 H 0.82058 0.59804 0.21357
 H1526 H 0.77367 0.61025 0.18959
 H1527 H 0.73928 0.53948 0.22689
 H1528 H 0.78810 0.52846 0.24706
 H1529 H 0.76068 0.58590 0.20179
 H1530 H 0.74974 0.56506 0.21445
 C1531 C 0.78205 1.07752 0.71714
 C1532 C 0.79905 1.08141 0.72059
 C1533 C 0.80646 1.09579 0.71354
 C1534 C 0.79726 1.10625 0.70276
 C1535 C 0.78043 1.10232 0.69936
 C1536 C 0.77290 1.08821 0.70645
 C1537 C 0.77466 1.06198 0.72475
 C1538 C 0.75774 1.05724 0.72245
 C1539 C 0.75160 1.04240 0.72942
 C1540 C 0.76213 1.03196 0.73882
 C1541 C 0.77889 1.03659 0.74141
 C1542 C 0.78519 1.05156 0.73459
 C1543 C 0.80866 1.07079 0.73080
 C1544 C 0.80191 1.05613 0.73753
 H1545 H 0.82167 1.07375 0.73345
 H1546 H 0.80993 1.04823 0.74517
 H1547 H 0.81952 1.09855 0.71613
 H1548 H 0.77295 1.11021 0.69123
 H1549 H 0.73862 1.03894 0.72730
 H1550 H 0.78698 1.02854 0.74882
 H1551 H 0.75997 1.08586 0.70324
 H1552 H 0.74904 1.06474 0.71531
 C1553 C 0.71238 0.57585 0.28468
 C1554 C 0.72297 0.58670 0.29396
 C1555 C 0.71630 0.60108 0.30172
 C1556 C 0.69918 0.60501 0.30019
 C1557 C 0.68878 0.59432 0.29085
 C1558 C 0.69523 0.57994 0.28323
 C1559 C 0.71992 0.56047 0.27684
 C1560 C 0.71032 0.54857 0.26791
 C1561 C 0.71787 0.53429 0.26115
 C1562 C 0.73514 0.53156 0.26296
 C1563 C 0.74486 0.54332 0.27171
 C1564 C 0.73739 0.55767 0.27872
 C1565 C 0.74016 0.58320 0.29534
 C1566 C 0.74723 0.56905 0.28781
 H1567 H 0.74830 0.59154 0.30235
 H1568 H 0.76059 0.56691 0.28926
 H1569 H 0.72452 0.60935 0.30872
 H1570 H 0.67550 0.59694 0.28955
 H1571 H 0.71019 0.52529 0.25444
 H1572 H 0.75820 0.54108 0.27334
 H1573 H 0.68655 0.57226 0.27626
 H1574 H 0.69697 0.54993 0.26613
 C1575 C 0.71222 1.07659 0.78364
 C1576 C 0.72211 1.08644 0.79460
 C1577 C 0.71531 1.10090 0.80207
 C1578 C 0.69876 1.10611 0.79858
 C1579 C 0.68928 1.09658 0.78710
 C1580 C 0.69585 1.08206 0.77980
 C1581 C 0.71969 1.06081 0.77655
 C1582 C 0.71044 1.04940 0.76665
 C1583 C 0.71790 1.03474 0.76061
 C1584 C 0.73475 1.03120 0.76409
 C1585 C 0.74410 1.04237 0.77392
 C1586 C 0.73665 1.05699 0.78036
 C1587 C 0.73876 1.08186 0.79800
 C1588 C 0.74594 1.06759 0.79085
 H1589 H 0.74641 1.08948 0.80627
 H1590 H 0.75889 1.06464 0.79383
 H1591 H 0.72316 1.10810 0.81049
 H1592 H 0.67657 1.10005 0.78383
 H1593 H 0.71053 1.02615 0.75307
 H1594 H 0.75710 1.03947 0.77678
 H1595 H 0.68789 1.07533 0.77116
 H1596 H 0.69740 1.05144 0.76361
 C1597 C 0.21268 0.57445 0.78360
 C1598 C 0.22314 0.58507 0.79328
 C1599 C 0.21646 0.59953 0.80088
 C1600 C 0.19947 0.60376 0.79883
 C1601 C 0.18919 0.59328 0.78911
 C1602 C 0.19565 0.57883 0.78162
 C1603 C 0.22021 0.55898 0.77593
 C1604 C 0.21074 0.54735 0.76653
 C1605 C 0.21825 0.53295 0.75999
 C1606 C 0.23537 0.52983 0.76251
 C1607 C 0.24498 0.54134 0.77171
 C1608 C 0.23753 0.55582 0.77848
 C1609 C 0.24020 0.58124 0.79527
 C1610 C 0.24725 0.56697 0.78797
 H1611 H 0.24823 0.58940 0.80261
 H1612 H 0.26051 0.56456 0.78992
 H1613 H 0.22459 0.60762 0.80818
 H1614 H 0.17600 0.59612 0.78741
 H1615 H 0.21066 0.52415 0.75293
 H1616 H 0.25818 0.53880 0.77387
 H1617 H 0.18706 0.57132 0.77436
 H1618 H 0.19751 0.54900 0.76421
 C1619 C 0.21229 1.07538 0.28248
 C1620 C 0.22280 1.08644 0.29159
 C1621 C 0.21608 1.10102 0.29888
 C1622 C 0.19898 1.10493 0.29712
 C1623 C 0.18867 1.09412 0.28782
 C1624 C 0.19518 1.07954 0.28062
 C1625 C 0.21987 1.05971 0.27530
 C1626 C 0.21037 1.04755 0.26662
 C1627 C 0.21798 1.03303 0.26045
 C1628 C 0.23521 1.03031 0.26264
 C1629 C 0.24481 1.04228 0.27122
 C1630 C 0.23729 1.05688 0.27760
 C1631 C 0.23994 1.08292 0.29338
 C1632 C 0.24705 1.06851 0.28645
 H1633 H 0.24801 1.09144 0.30026
 H1634 H 0.26038 1.06635 0.28820
 H1635 H 0.22425 1.10940 0.30580
 H1636 H 0.17542 1.09676 0.28630
 H1637 H 0.21039 1.02387 0.25386
 H1638 H 0.25812 1.04006 0.27315
 H1639 H 0.18659 1.07172 0.27369
 H1640 H 0.19706 1.04891 0.26457
 C1641 C 0.71542 0.42390 0.71388
 C1642 C 0.69807 0.42080 0.71628
 C1643 C 0.69052 0.40665 0.70893
 C1644 C 0.69993 0.39563 0.69889
 C1645 C 0.71706 0.39885 0.69641
 C1646 C 0.72473 0.41273 0.70381
 C1647 C 0.72301 0.43912 0.72194
 C1648 C 0.74024 0.44304 0.72071
 C1649 C 0.74662 0.45756 0.72808
 C1650 C 0.73607 0.46851 0.73692
 C1651 C 0.71896 0.46469 0.73842
 C1652 C 0.71239 0.45004 0.73112
 C1653 C 0.68833 0.43194 0.72580
 C1654 C 0.69530 0.44630 0.73295
 H1655 H 0.67504 0.42960 0.72761
 H1656 H 0.68718 0.45461 0.74005
 H1657 H 0.67722 0.40444 0.71077
 H1658 H 0.72469 0.39050 0.68886
 H1659 H 0.75985 0.46041 0.72667
 H1660 H 0.71080 0.47313 0.74533
 H1661 H 0.73793 0.41448 0.70138
 H1662 H 0.74900 0.43513 0.71408
 C1663 C 0.71242 -0.07639 0.21675
 C1664 C 0.72259 -0.08681 0.20654
 C1665 C 0.71570 -0.10112 0.19887
 C1666 C 0.69878 -0.10540 0.20132
 C1667 C 0.68883 -0.09522 0.21171
 C1668 C 0.69551 -0.08092 0.21931
 C1669 C 0.72012 -0.06095 0.22428
 C1670 C 0.71088 -0.04934 0.23396
 C1671 C 0.71851 -0.03489 0.24025
 C1672 C 0.73553 -0.03174 0.23723
 C1673 C 0.74493 -0.04324 0.22780
 C1674 C 0.73734 -0.05772 0.22121
 C1675 C 0.73956 -0.08291 0.20403
 C1676 C 0.74680 -0.06874 0.21130
 H1677 H 0.74738 -0.09093 0.19629
 H1678 H 0.75997 -0.06626 0.20893
 H1679 H 0.72363 -0.10899 0.19110
 H1680 H 0.67573 -0.09813 0.21382
 H1681 H 0.71109 -0.02610 0.24751
 H1682 H 0.75806 -0.04067 0.22526
 H1683 H 0.68718 -0.07362 0.22710
 H1684 H 0.69772 -0.05103 0.23664
 C1685 C 0.21265 0.42533 0.21503
 C1686 C 0.22297 0.41465 0.20524
 C1687 C 0.21613 0.40027 0.19767
 C1688 C 0.19914 0.39615 0.19991
 C1689 C 0.18903 0.40664 0.20980
 C1690 C 0.19563 0.42103 0.21724
 C1691 C 0.22033 0.44073 0.22262
 C1692 C 0.21095 0.45255 0.23189
 C1693 C 0.21861 0.46687 0.23841
 C1694 C 0.23578 0.46966 0.23602
 C1695 C 0.24531 0.45800 0.22694
 C1696 C 0.23770 0.44366 0.22010
 C1697 C 0.24005 0.41830 0.20317
 C1698 C 0.24728 0.43242 0.21055
 H1699 H 0.24798 0.41009 0.19576
 H1700 H 0.26056 0.43468 0.20858
 H1701 H 0.22415 0.39214 0.19026
 H1702 H 0.17586 0.40385 0.21169
 H1703 H 0.21110 0.47582 0.24539
 H1704 H 0.25858 0.46031 0.22493
 H1705 H 0.18718 0.42854 0.22469
 H1706 H 0.19767 0.45113 0.23411
 C1707 C 0.21569 -0.07632 0.71604
 C1708 C 0.19848 -0.07976 0.71895
 C1709 C 0.19096 -0.09400 0.71175
 C1710 C 0.20028 -0.10480 0.70139
 C1711 C 0.21732 -0.10134 0.69856
 C1712 C 0.22494 -0.08737 0.70579
 C1713 C 0.22322 -0.06092 0.72378
 C1714 C 0.24026 -0.05654 0.72179
 C1715 C 0.24656 -0.04184 0.72887
 C1716 C 0.23612 -0.03120 0.73819
 C1717 C 0.21919 -0.03545 0.74041
 C1718 C 0.21269 -0.05025 0.73337
 C1719 C 0.18883 -0.06883 0.72881
 C1720 C 0.19577 -0.05436 0.73579
 H1721 H 0.17566 -0.07143 0.73104
 H1722 H 0.18772 -0.04623 0.74319
 H1723 H 0.17775 -0.09645 0.71391
 H1724 H 0.22490 -0.10955 0.69082
 H1725 H 0.25963 -0.03863 0.72687
 H1726 H 0.21112 -0.02722 0.74765
 H1727 H 0.23806 -0.08544 0.70306
 H1728 H 0.24893 -0.06417 0.71474
 C1729 C 0.28188 0.28578 0.42344
 C1730 C 0.29930 0.28374 0.42047
 C1731 C 0.30666 0.29048 0.40594
 C1732 C 0.29700 0.29959 0.39437
 C1733 C 0.27980 0.30177 0.39744
 C1734 C 0.27229 0.29493 0.41172
 C1735 C 0.27449 0.27831 0.43907
 C1736 C 0.25720 0.27908 0.44290
 C1737 C 0.25100 0.27201 0.45768
 C1738 C 0.26184 0.26404 0.46897
 C1739 C 0.27902 0.26315 0.46534
 C1740 C 0.28539 0.27005 0.45044
 C1741 C 0.30932 0.27518 0.43210
 C1742 C 0.30254 0.26861 0.44682
 H1743 H 0.32266 0.27367 0.42986
 H1744 H 0.31086 0.26221 0.45548
 H1745 H 0.32002 0.28893 0.40386
 H1746 H 0.27202 0.30865 0.38868
 H1747 H 0.23768 0.27281 0.46036
 H1748 H 0.28737 0.25684 0.47404
 H1749 H 0.25902 0.29706 0.41336
 H1750 H 0.24825 0.28500 0.43466
 C1751 C 0.28212 0.78768 -0.07711
 C1752 C 0.29141 0.77707 -0.08796
 C1753 C 0.29856 0.78353 -0.10273
 C1754 C 0.29640 0.80044 -0.10710
 C1755 C 0.28686 0.81082 -0.09654
 C1756 C 0.27984 0.80458 -0.08174
 C1757 C 0.27510 0.78040 -0.06122
 C1758 C 0.26643 0.79007 -0.04916
 C1759 C 0.26025 0.78270 -0.03451
 C1760 C 0.26241 0.76553 -0.03158
 C1761 C 0.27114 0.75580 -0.04337
 C1762 C 0.27754 0.76308 -0.05808
 C1763 C 0.29343 0.76006 -0.08405
 C1764 C 0.28653 0.75319 -0.06951
 H1765 H 0.30043 0.75190 -0.09240
 H1766 H 0.28841 0.73995 -0.06710
 H1767 H 0.30566 0.77530 -0.11093
 H1768 H 0.28500 0.82393 -0.09954
 H1769 H 0.25360 0.79040 -0.02547
 H1770 H 0.27307 0.74255 -0.04096
 H1771 H 0.27269 0.81321 -0.07415
 H1772 H 0.26438 0.80335 -0.05071
 C1773 C 0.78352 0.28804 -0.07463
 C1774 C 0.79344 0.27766 -0.08514
 C1775 C 0.80082 0.28427 -0.09973
 C1776 C 0.79812 0.30103 -0.10433
 C1777 C 0.78800 0.31118 -0.09411
 C1778 C 0.78085 0.30484 -0.07942
 C1779 C 0.77617 0.28059 -0.05897
 C1780 C 0.76696 0.29007 -0.04717
 C1781 C 0.76045 0.28255 -0.03275
 C1782 C 0.76281 0.26540 -0.02981
 C1783 C 0.77204 0.25585 -0.04135
 C1784 C 0.77883 0.26331 -0.05580
 C1785 C 0.79575 0.26071 -0.08116
 C1786 C 0.78846 0.25365 -0.06691
 H1787 H 0.80322 0.25272 -0.08927
 H1788 H 0.79053 0.24044 -0.06445
 H1789 H 0.80837 0.27623 -0.10772
 H1790 H 0.78575 0.32418 -0.09736
 H1791 H 0.75342 0.29011 -0.02388
 H1792 H 0.77413 0.24263 -0.03892
 H1793 H 0.77321 0.31328 -0.07209
 H1794 H 0.76476 0.30332 -0.04874
 C1795 C 0.78274 0.78763 0.42427
 C1796 C 0.79188 0.77701 0.41332
 C1797 C 0.79923 0.78357 0.39868
 C1798 C 0.79730 0.80056 0.39452
 C1799 C 0.78791 0.81095 0.40519
 C1800 C 0.78076 0.80464 0.41988
 C1801 C 0.77552 0.78027 0.44002
 C1802 C 0.76711 0.78999 0.45221
 C1803 C 0.76085 0.78260 0.46678
 C1804 C 0.76265 0.76536 0.46951
 C1805 C 0.77097 0.75551 0.45753
 C1806 C 0.77755 0.76285 0.44291
 C1807 C 0.79354 0.75990 0.41698
 C1808 C 0.78638 0.75295 0.43136
 H1809 H 0.80042 0.75173 0.40854
 H1810 H 0.78797 0.73963 0.43358
 H1811 H 0.80622 0.77535 0.39038
 H1812 H 0.78627 0.82412 0.40234
 H1813 H 0.75451 0.79035 0.47599
 H1814 H 0.77259 0.74220 0.45979
 H1815 H 0.77372 0.81329 0.42755
 H1816 H 0.76540 0.80333 0.45086
 C1817 C 0.71503 0.28180 0.57623
 C1818 C 0.71753 0.29911 0.57938
 C1819 C 0.71088 0.30653 0.59393
 C1820 C 0.70147 0.29703 0.60539
 C1821 C 0.69897 0.27991 0.60222
 C1822 C 0.70568 0.27236 0.58790
 C1823 C 0.72227 0.27438 0.56050
 C1824 C 0.72080 0.25724 0.55636
 C1825 C 0.72760 0.25101 0.54145
 C1826 C 0.73602 0.26169 0.53034
 C1827 C 0.73760 0.27873 0.53428
 C1828 C 0.73092 0.28512 0.54929
 C1829 C 0.72644 0.30897 0.56788
 C1830 C 0.73291 0.30214 0.55312
 H1831 H 0.72832 0.32222 0.57026
 H1832 H 0.73960 0.31034 0.54457
 H1833 H 0.71272 0.31981 0.59611
 H1834 H 0.69190 0.27223 0.61091
 H1835 H 0.72622 0.23782 0.53851
 H1836 H 0.74422 0.28695 0.52570
 H1837 H 0.70328 0.25917 0.58618
 H1838 H 0.71449 0.24841 0.56443
 C1839 C 0.71594 0.78327 1.07612
 C1840 C 0.71809 0.80062 1.07926
 C1841 C 0.71122 0.80791 1.09380
 C1842 C 0.70192 0.79823 1.10520
 C1843 C 0.69975 0.78107 1.10199
 C1844 C 0.70668 0.77366 1.08771
 C1845 C 0.72343 0.77596 1.06045
 C1846 C 0.72233 0.75877 1.05638
 C1847 C 0.72928 0.75263 1.04152
 C1848 C 0.73753 0.76341 1.03037
 C1849 C 0.73877 0.78050 1.03425
 C1850 C 0.73192 0.78682 1.04923
 C1851 C 0.72687 0.81062 1.06778
 C1852 C 0.73354 0.80390 1.05305
 H1853 H 0.72849 0.82391 1.07015
 H1854 H 0.74010 0.81220 1.04451
 H1855 H 0.71281 0.82123 1.09602
 H1856 H 0.69278 0.77324 1.11062
 H1857 H 0.72810 0.73941 1.03863
 H1858 H 0.74523 0.78883 1.02564
 H1859 H 0.70452 0.76043 1.08598
 H1860 H 0.71617 0.74985 1.06445
 C1861 C 0.21575 0.28230 1.07729
 C1862 C 0.21828 0.29955 1.08065
 C1863 C 0.21140 0.30686 1.09516
 C1864 C 0.20176 0.29730 1.10637
 C1865 C 0.19920 0.28024 1.10297
 C1866 C 0.20611 0.27280 1.08868
 C1867 C 0.22326 0.27499 1.06162
 C1868 C 0.22173 0.25791 1.05729
 C1869 C 0.22873 0.25179 1.04242
 C1870 C 0.23745 0.26250 1.03157
 C1871 C 0.23911 0.27949 1.03573
 C1872 C 0.23220 0.28578 1.05069
 C1873 C 0.22748 0.30947 1.06942
 C1874 C 0.23421 0.30275 1.05473
 H1875 H 0.22939 0.32268 1.07197
 H1876 H 0.24112 0.31098 1.04639
 H1877 H 0.21330 0.32011 1.09750
 H1878 H 0.19194 0.27251 1.11145
 H1879 H 0.22721 0.23866 1.03930
 H1880 H 0.24592 0.28776 1.02733
 H1881 H 0.20367 0.25964 1.08678
 H1882 H 0.21519 0.24905 1.06513
 C1883 C 0.21799 0.78686 0.57600
 C1884 C 0.20835 0.77646 0.58671
 C1885 C 0.20087 0.78318 0.60121
 C1886 C 0.20298 0.80014 0.60539
 C1887 C 0.21272 0.81035 0.59487
 C1888 C 0.22011 0.80384 0.58038
 C1889 C 0.22545 0.77930 0.56044
 C1890 C 0.23479 0.78869 0.54869
 C1891 C 0.24119 0.78113 0.53424
 C1892 C 0.23857 0.76405 0.53121
 C1893 C 0.22935 0.75454 0.54277
 C1894 C 0.22276 0.76202 0.55731
 C1895 C 0.20622 0.75945 0.58290
 C1896 C 0.21333 0.75237 0.56855
 H1897 H 0.19891 0.75146 0.59113
 H1898 H 0.21129 0.73914 0.56615
 H1899 H 0.19357 0.77509 0.60935
 H1900 H 0.21448 0.82351 0.59767
 H1901 H 0.24826 0.78863 0.52537
 H1902 H 0.22709 0.74136 0.54028
 H1903 H 0.22739 0.81237 0.57281
 H1904 H 0.23719 0.80190 0.55031
 C1905 C 0.28168 0.71275 0.57737
 C1906 C 0.29131 0.72330 0.58794
 C1907 C 0.29850 0.71687 0.60272
 C1908 C 0.29609 0.70004 0.60730
 C1909 C 0.28635 0.68971 0.59689
 C1910 C 0.27926 0.69592 0.58214
 C1911 C 0.27451 0.71998 0.56153
 C1912 C 0.26525 0.71037 0.54990
 C1913 C 0.25908 0.71760 0.53521
 C1914 C 0.26184 0.73459 0.53177
 C1915 C 0.27100 0.74432 0.54322
 C1916 C 0.27738 0.73715 0.55801
 C1917 C 0.29368 0.74019 0.58373
 C1918 C 0.28680 0.74698 0.56914
 H1919 H 0.30098 0.74830 0.59185
 H1920 H 0.28900 0.76012 0.56645
 H1921 H 0.30583 0.72505 0.61075
 H1922 H 0.28437 0.67664 0.59998
 H1923 H 0.25204 0.70992 0.52646
 H1924 H 0.27337 0.75742 0.54045
 H1925 H 0.27198 0.68729 0.57470
 H1926 H 0.26273 0.69723 0.55179
 C1927 C 0.28315 0.21237 1.07601
 C1928 C 0.29224 0.22297 1.08700
 C1929 C 0.29959 0.21637 1.10163
 C1930 C 0.29780 0.19933 1.10566
 C1931 C 0.28855 0.18895 1.09489
 C1932 C 0.28134 0.19532 1.08026
 C1933 C 0.27582 0.21979 1.06034
 C1934 C 0.26724 0.21014 1.04823
 C1935 C 0.26084 0.21760 1.03375
 C1936 C 0.26271 0.23483 1.03102
 C1937 C 0.27124 0.24459 1.04291
 C1938 C 0.27787 0.23720 1.05747
 C1939 C 0.29386 0.24008 1.08340
 C1940 C 0.28673 0.24707 1.06902
 H1941 H 0.30072 0.24823 1.09186
 H1942 H 0.28831 0.26039 1.06682
 H1943 H 0.30650 0.22459 1.10998
 H1944 H 0.28703 0.17574 1.09760
 H1945 H 0.25432 0.20989 1.02463
 H1946 H 0.27291 0.25789 1.04066
 H1947 H 0.27442 0.18665 1.07252
 H1948 H 0.26543 0.19682 1.04959
 C1949 C 0.78634 0.71669 1.07529
 C1950 C 0.78379 0.69943 1.07858
 C1951 C 0.79073 0.69206 1.09303
 C1952 C 0.80052 0.70154 1.10419
 C1953 C 0.80324 0.71857 1.10076
 C1954 C 0.79622 0.72609 1.08656
 C1955 C 0.77858 0.72411 1.05980
 C1956 C 0.77978 0.74128 1.05572
 C1957 C 0.77251 0.74751 1.04105
 C1958 C 0.76386 0.73682 1.03009
 C1959 C 0.76249 0.71976 1.03402
 C1960 C 0.76961 0.71337 1.04883
 C1961 C 0.77452 0.68957 1.06735
 C1962 C 0.76772 0.69635 1.05273
 H1963 H 0.77263 0.67634 1.06983
 H1964 H 0.76078 0.68815 1.04439
 H1965 H 0.78875 0.67882 1.09538
 H1966 H 0.81066 0.72623 1.10918
 H1967 H 0.77374 0.76072 1.03815
 H1968 H 0.75569 0.71151 1.02559
 H1969 H 0.79878 0.73922 1.08463
 H1970 H 0.78623 0.75012 1.06367
 C1971 C 0.78264 0.21224 0.57498
 C1972 C 0.79172 0.22281 0.58601
 C1973 C 0.79915 0.21616 0.60056
 C1974 C 0.79741 0.19910 0.60452
 C1975 C 0.78815 0.18873 0.59374
 C1976 C 0.78090 0.19515 0.57916
 C1977 C 0.77526 0.21972 0.55937
 C1978 C 0.76678 0.21008 0.54719
 C1979 C 0.76038 0.21758 0.53273
 C1980 C 0.76212 0.23483 0.53011
 C1981 C 0.77049 0.24461 0.54210
 C1982 C 0.77718 0.23717 0.55662
 C1983 C 0.79323 0.23997 0.58252
 C1984 C 0.78599 0.24701 0.56822
 H1985 H 0.80007 0.24810 0.59101
 H1986 H 0.78749 0.26036 0.56611
 H1987 H 0.80606 0.22435 0.60894
 H1988 H 0.78667 0.17551 0.59643
 H1989 H 0.75400 0.20988 0.52351
 H1990 H 0.77204 0.25794 0.53993
 H1991 H 0.77396 0.18652 0.57139
 H1992 H 0.76510 0.19673 0.54844
 C1993 C 0.71539 0.71911 0.42335
 C1994 C 0.71795 0.70185 0.42000
 C1995 C 0.71142 0.69461 0.40530
 C1996 C 0.70206 0.70424 0.39389
 C1997 C 0.69945 0.72130 0.39730
 C1998 C 0.70605 0.72868 0.41177
 C1999 C 0.72258 0.72635 0.43920
 C2000 C 0.72112 0.74346 0.44351
 C2001 C 0.72795 0.74952 0.45848
 C2002 C 0.73639 0.73873 0.46947
 C2003 C 0.73792 0.72172 0.46537
 C2004 C 0.73122 0.71548 0.45031
 C2005 C 0.72681 0.69186 0.43142
 C2006 C 0.73322 0.69850 0.44628
 H2007 H 0.72873 0.67863 0.42888
 H2008 H 0.73989 0.69021 0.45475
 H2009 H 0.71333 0.68136 0.40295
 H2010 H 0.69239 0.72907 0.38868
 H2011 H 0.72662 0.76270 0.46152
 H2012 H 0.74456 0.71339 0.47385
 H2013 H 0.70359 0.74184 0.41367
 H2014 H 0.71482 0.75237 0.43553
 C2015 C 0.71733 0.21768 -0.07737
 C2016 C 0.72011 0.20049 -0.08091
 C2017 C 0.71335 0.19324 -0.09551
 C2018 C 0.70354 0.20280 -0.10660
 C2019 C 0.70081 0.21981 -0.10305
 C2020 C 0.70763 0.22719 -0.08870
 C2021 C 0.72460 0.22490 -0.06157
 C2022 C 0.72275 0.24190 -0.05703
 C2023 C 0.72945 0.24792 -0.04201
 C2024 C 0.73823 0.23722 -0.03119
 C2025 C 0.74026 0.22032 -0.03558
 C2026 C 0.73362 0.21412 -0.05069
 C2027 C 0.72939 0.19058 -0.06975
 C2028 C 0.73593 0.19722 -0.05493
 H2029 H 0.73150 0.17742 -0.07243
 H2030 H 0.74288 0.18898 -0.04664
 H2031 H 0.71539 0.18004 -0.09800
 H2032 H 0.69345 0.22755 -0.11144
 H2033 H 0.72763 0.26099 -0.03871
 H2034 H 0.74711 0.21204 -0.02722
 H2035 H 0.70502 0.24031 -0.08669
 H2036 H 0.71613 0.25076 -0.06481
 C2037 C 0.21654 0.71771 -0.07842
 C2038 C 0.21931 0.70051 -0.08189
 C2039 C 0.21255 0.69321 -0.09645
 C2040 C 0.20279 0.70272 -0.10761
 C2041 C 0.20003 0.71975 -0.10412
 C2042 C 0.20683 0.72718 -0.08979
 C2043 C 0.22387 0.72500 -0.06268
 C2044 C 0.22203 0.74202 -0.05819
 C2045 C 0.22885 0.74811 -0.04325
 C2046 C 0.23772 0.73745 -0.03246
 C2047 C 0.23970 0.72053 -0.03677
 C2048 C 0.23295 0.71426 -0.05180
 C2049 C 0.22862 0.69064 -0.07072
 C2050 C 0.23523 0.69735 -0.05596
 H2051 H 0.23072 0.67747 -0.07335
 H2052 H 0.24222 0.68914 -0.04767
 H2053 H 0.21460 0.67999 -0.09887
 H2054 H 0.19269 0.72745 -0.11256
 H2055 H 0.22708 0.76119 -0.04001
 H2056 H 0.24662 0.71229 -0.02844
 H2057 H 0.20423 0.74030 -0.08783
 H2058 H 0.21536 0.75084 -0.06598
 C2059 C 0.21745 0.21461 0.42258
 C2060 C 0.20005 0.21659 0.41947
 C2061 C 0.19285 0.20983 0.40488
 C2062 C 0.20263 0.20076 0.39337
 C2063 C 0.21981 0.19858 0.39659
 C2064 C 0.22716 0.20545 0.41095
 C2065 C 0.22465 0.22214 0.43827
 C2066 C 0.24191 0.22149 0.44223
 C2067 C 0.24792 0.22850 0.45714
 C2068 C 0.23689 0.23630 0.46840
 C2069 C 0.21976 0.23715 0.46459
 C2070 C 0.21359 0.23030 0.44958
 C2071 C 0.18988 0.22509 0.43103
 C2072 C 0.19647 0.23167 0.44583
 H2073 H 0.17655 0.22654 0.42868
 H2074 H 0.18804 0.23799 0.45445
 H2075 H 0.17950 0.21135 0.40271
 H2076 H 0.22766 0.19169 0.38789
 H2077 H 0.26120 0.22774 0.45997
 H2078 H 0.21127 0.24332 0.47329
 H2079 H 0.24042 0.20333 0.41273
 H2080 H 0.25098 0.21568 0.43402
 C2081 C 0.28368 0.42249 0.71541
 C2082 C 0.30091 0.41902 0.71809
 C2083 C 0.30825 0.40460 0.71106
 C2084 C 0.29875 0.39368 0.70102
 C2085 C 0.28174 0.39727 0.69822
 C2086 C 0.27427 0.41142 0.70533
 C2087 C 0.27629 0.43796 0.72320
 C2088 C 0.25915 0.44220 0.72178
 C2089 C 0.25294 0.45687 0.72903
 C2090 C 0.26360 0.46766 0.73791
 C2091 C 0.28064 0.46358 0.73952
 C2092 C 0.28702 0.44876 0.73239
 C2093 C 0.31077 0.43007 0.72758
 C2094 C 0.30401 0.44468 0.73445
 H2095 H 0.32398 0.42747 0.72958
 H2096 H 0.31220 0.45290 0.74154
 H2097 H 0.32147 0.40208 0.71311
 H2098 H 0.27407 0.38902 0.69063
 H2099 H 0.23976 0.45992 0.72757
 H2100 H 0.28887 0.47189 0.74647
 H2101 H 0.26116 0.41347 0.70266
 H2102 H 0.25031 0.43440 0.71515
 C2103 C 0.28411 0.92401 0.21417
 C2104 C 0.30138 0.92055 0.21668
 C2105 C 0.30867 0.90622 0.20945
 C2106 C 0.29910 0.89536 0.19941
 C2107 C 0.28211 0.89903 0.19663
 C2108 C 0.27467 0.91310 0.20394
 C2109 C 0.27674 0.93930 0.22232
 C2110 C 0.25955 0.94341 0.22126
 C2111 C 0.25335 0.95791 0.22886
 C2112 C 0.26407 0.96863 0.23773
 C2113 C 0.28116 0.96465 0.23902
 C2114 C 0.28753 0.95001 0.23155
 C2115 C 0.31130 0.93150 0.22621
 C2116 C 0.30456 0.94599 0.23335
 H2117 H 0.32453 0.92890 0.22806
 H2118 H 0.31280 0.95414 0.24047
 H2119 H 0.32190 0.90369 0.21144
 H2120 H 0.27442 0.89085 0.18899
 H2121 H 0.24012 0.96088 0.22766
 H2122 H 0.28944 0.97293 0.24597
 H2123 H 0.26155 0.91521 0.20133
 H2124 H 0.25067 0.93563 0.21465
 C2125 C 0.78377 0.42489 0.21457
 C2126 C 0.80102 0.42146 0.21721
 C2127 C 0.80837 0.40705 0.21018
 C2128 C 0.79888 0.39607 0.20019
 C2129 C 0.78185 0.39960 0.19743
 C2130 C 0.77435 0.41376 0.20455
 C2131 C 0.77640 0.44038 0.22236
 C2132 C 0.75924 0.44459 0.22103
 C2133 C 0.75305 0.45926 0.22833
 C2134 C 0.76374 0.47006 0.23715
 C2135 C 0.78080 0.46603 0.23864
 C2136 C 0.78716 0.45122 0.23148
 C2137 C 0.81090 0.43255 0.22662
 C2138 C 0.80415 0.44717 0.23348
 H2139 H 0.82412 0.42996 0.22859
 H2140 H 0.81237 0.45540 0.24053
 H2141 H 0.82161 0.40463 0.21218
 H2142 H 0.77421 0.39132 0.18984
 H2143 H 0.73984 0.46225 0.22702
 H2144 H 0.78904 0.47435 0.24557
 H2145 H 0.76123 0.41579 0.20192
 H2146 H 0.75038 0.43676 0.21446
 C2147 C 0.78509 0.92412 0.71841
 C2148 C 0.78287 0.92122 0.70100
 C2149 C 0.78940 0.90664 0.69352
 C2150 C 0.79845 0.89493 0.70307
 C2151 C 0.80073 0.89790 0.72028
 C2152 C 0.79412 0.91223 0.72788
 C2153 C 0.77789 0.93982 0.72593
 C2154 C 0.77893 0.94361 0.74321
 C2155 C 0.77207 0.95844 0.74955
 C2156 C 0.76403 0.96982 0.73887
 C2157 C 0.76293 0.96625 0.72168
 C2158 C 0.76963 0.95131 0.71517
 C2159 C 0.77434 0.93299 0.69112
 C2160 C 0.76797 0.94776 0.69802
 H2161 H 0.77268 0.93082 0.67779
 H2162 H 0.76157 0.95651 0.68981
 H2163 H 0.78774 0.90461 0.68017
 H2164 H 0.80753 0.88903 0.72800
 H2165 H 0.77303 0.96106 0.76287
 H2166 H 0.75656 0.97502 0.71344
 H2167 H 0.79634 0.91377 0.74114
 H2168 H 0.78490 0.93530 0.75206
 C2169 C 0.71292 0.57565 0.71724
 C2170 C 0.72351 0.58640 0.70787
 C2171 C 0.71694 0.60098 0.70041
 C2172 C 0.69991 0.60516 0.70226
 C2173 C 0.68951 0.59456 0.71170
 C2174 C 0.69587 0.58002 0.71907
 C2175 C 0.72034 0.56004 0.72471
 C2176 C 0.71076 0.54828 0.73382
 C2177 C 0.71819 0.53377 0.74022
 C2178 C 0.73533 0.53066 0.73782
 C2179 C 0.74503 0.54227 0.72885
 C2180 C 0.73768 0.55688 0.72227
 C2181 C 0.74059 0.58257 0.70599
 C2182 C 0.74753 0.56817 0.71309
 H2183 H 0.74872 0.59084 0.69889
 H2184 H 0.76080 0.56576 0.71123
 H2185 H 0.72518 0.60914 0.69333
 H2186 H 0.67629 0.59734 0.71325
 H2187 H 0.71052 0.52491 0.74710
 H2188 H 0.75825 0.53975 0.72676
 H2189 H 0.68719 0.57239 0.72611
 H2190 H 0.69751 0.54993 0.73606
 C2191 C 0.71259 0.07525 0.21701
 C2192 C 0.72304 0.08609 0.20759
 C2193 C 0.71632 0.10060 0.20018
 C2194 C 0.69928 0.10467 0.20215
 C2195 C 0.68902 0.09405 0.21172
 C2196 C 0.69553 0.07954 0.21904
 C2197 C 0.72016 0.05966 0.22436
 C2198 C 0.71069 0.04774 0.23338
 C2199 C 0.71826 0.03325 0.23962
 C2200 C 0.73543 0.03032 0.23718
 C2201 C 0.74502 0.04210 0.22833
 C2202 C 0.73752 0.05666 0.22185
 C2203 C 0.74014 0.08240 0.20561
 C2204 C 0.74724 0.06806 0.21266
 H2205 H 0.74817 0.09074 0.19847
 H2206 H 0.76052 0.06577 0.21074
 H2207 H 0.72445 0.10881 0.19303
 H2208 H 0.67581 0.09678 0.21339
 H2209 H 0.71068 0.02425 0.24644
 H2210 H 0.75827 0.03973 0.22624
 H2211 H 0.68697 0.07189 0.22618
 H2212 H 0.69743 0.04925 0.23563
 C2213 C 0.21444 0.57667 0.21603
 C2214 C 0.21613 0.57949 0.19856
 C2215 C 0.20904 0.59382 0.19118
 C2216 C 0.19991 0.60536 0.20087
 C2217 C 0.19795 0.60239 0.21811
 C2218 C 0.20515 0.58829 0.22563
 C2219 C 0.22238 0.56129 0.22343
 C2220 C 0.22209 0.55768 0.24077
 C2221 C 0.22941 0.54300 0.24695
 C2222 C 0.23719 0.53163 0.23603
 C2223 C 0.23774 0.53515 0.21882
 C2224 C 0.23058 0.54992 0.21247
 C2225 C 0.22471 0.56789 0.18849
 C2226 C 0.23163 0.55335 0.19527
 H2227 H 0.22594 0.57001 0.17510
 H2228 H 0.23799 0.54468 0.18691
 H2229 H 0.21039 0.59581 0.17779
 H2230 H 0.19101 0.61110 0.22591
 H2231 H 0.22884 0.54040 0.26029
 H2232 H 0.24388 0.52637 0.21040
 H2233 H 0.20320 0.58670 0.23893
 H2234 H 0.21628 0.56597 0.24976
 C2235 C 0.21433 0.07572 0.71544
 C2236 C 0.19696 0.07877 0.71782
 C2237 C 0.18939 0.09300 0.71063
 C2238 C 0.19882 0.10414 0.70077
 C2239 C 0.21599 0.10100 0.69838
 C2240 C 0.22367 0.08706 0.70562
 C2241 C 0.22195 0.06039 0.72327
 C2242 C 0.23918 0.05648 0.72194
 C2243 C 0.24562 0.04192 0.72918
 C2244 C 0.23514 0.03093 0.73800
 C2245 C 0.21800 0.03467 0.73950
 C2246 C 0.21136 0.04936 0.73233
 C2247 C 0.18724 0.06749 0.72716
 C2248 C 0.19426 0.05306 0.73416
 H2249 H 0.17394 0.06978 0.72896
 H2250 H 0.18615 0.04466 0.74115
 H2251 H 0.17607 0.09520 0.71242
 H2252 H 0.22364 0.10945 0.69101
 H2253 H 0.25886 0.03913 0.72775
 H2254 H 0.20988 0.02618 0.74637
 H2255 H 0.23689 0.08539 0.70326
 H2256 H 0.24792 0.06442 0.71535
 C2257 C 0.28736 0.57620 0.28126
 C2258 C 0.28540 0.57903 0.29871
 C2259 C 0.29218 0.59346 0.30615
 C2260 C 0.30120 0.60514 0.29656
 C2261 C 0.30343 0.60217 0.27935
 C2262 C 0.29657 0.58793 0.27176
 C2263 C 0.27970 0.56071 0.27378
 C2264 C 0.28027 0.55706 0.25645
 C2265 C 0.27302 0.54239 0.25017
 C2266 C 0.26508 0.53106 0.26098
 C2267 C 0.26435 0.53456 0.27819
 C2268 C 0.27142 0.54932 0.28464
 C2269 C 0.27683 0.56738 0.30868
 C2270 C 0.27011 0.55278 0.30182
 H2271 H 0.27538 0.56953 0.32205
 H2272 H 0.26370 0.54411 0.31010
 H2273 H 0.29064 0.59544 0.31952
 H2274 H 0.31029 0.61099 0.27163
 H2275 H 0.27368 0.53982 0.23683
 H2276 H 0.25805 0.52583 0.28651
 H2277 H 0.29869 0.58635 0.25848
 H2278 H 0.28616 0.56535 0.24754
 C2279 C 0.28318 0.07663 0.78522
 C2280 C 0.30039 0.08004 0.78232
 C2281 C 0.30784 0.09444 0.78925
 C2282 C 0.29848 0.10541 0.79938
 C2283 C 0.28149 0.10189 0.80239
 C2284 C 0.27390 0.08776 0.79539
 C2285 C 0.27569 0.06117 0.77755
 C2286 C 0.25857 0.05696 0.77920
 C2287 C 0.25229 0.04223 0.77212
 C2288 C 0.26287 0.03138 0.76320
 C2289 C 0.27988 0.03547 0.76132
 C2290 C 0.28632 0.05032 0.76828
 C2291 C 0.31013 0.06896 0.77274
 C2292 C 0.30328 0.05435 0.76599
 H2293 H 0.32332 0.07153 0.77057
 H2294 H 0.31139 0.04610 0.75882
 H2295 H 0.32104 0.09688 0.78704
 H2296 H 0.27393 0.11018 0.81007
 H2297 H 0.23913 0.03919 0.77376
 H2298 H 0.28804 0.02712 0.75431
 H2299 H 0.26082 0.08576 0.79821
 H2300 H 0.24980 0.06481 0.78589
 C2301 C 0.78722 0.57529 0.78220
 C2302 C 0.77681 0.58573 0.79216
 C2303 C 0.78345 0.60021 0.79973
 C2304 C 0.80033 0.60466 0.79733
 C2305 C 0.81053 0.59442 0.78727
 C2306 C 0.80413 0.57992 0.77984
 C2307 C 0.77975 0.55975 0.77464
 C2308 C 0.78923 0.54819 0.76513
 C2309 C 0.78177 0.53375 0.75864
 C2310 C 0.76470 0.53053 0.76131
 C2311 C 0.75510 0.54193 0.77068
 C2312 C 0.76250 0.55643 0.77742
 C2313 C 0.75983 0.58171 0.79443
 C2314 C 0.75281 0.56744 0.78713
 H2315 H 0.75183 0.58974 0.80196
 H2316 H 0.73961 0.56490 0.78927
 H2317 H 0.77537 0.60815 0.80728
 H2318 H 0.82363 0.59745 0.78528
 H2319 H 0.78936 0.52502 0.75146
 H2320 H 0.74194 0.53930 0.77298
 H2321 H 0.81264 0.57259 0.77230
 H2322 H 0.80243 0.54993 0.76268
 C2323 C 0.78372 0.07593 0.28363
 C2324 C 0.80099 0.07934 0.28112
 C2325 C 0.80827 0.09377 0.28818
 C2326 C 0.79864 0.10492 0.29789
 C2327 C 0.78153 0.10151 0.30030
 C2328 C 0.77414 0.08727 0.29327
 C2329 C 0.77647 0.06030 0.27602
 C2330 C 0.75944 0.05578 0.27778
 C2331 C 0.75335 0.04101 0.27063
 C2332 C 0.76400 0.03041 0.26148
 C2333 C 0.78097 0.03470 0.25967
 C2334 C 0.78725 0.04956 0.26679
 C2335 C 0.81093 0.06827 0.27172
 C2336 C 0.80422 0.05370 0.26474
 H2337 H 0.82415 0.07087 0.26980
 H2338 H 0.81247 0.04552 0.25764
 H2339 H 0.82154 0.09611 0.28632
 H2340 H 0.77370 0.10992 0.30755
 H2341 H 0.74026 0.03776 0.27236
 H2342 H 0.78923 0.02649 0.25260
 H2343 H 0.76094 0.08540 0.29560
 H2344 H 0.75061 0.06340 0.28465
 C2345 C 0.71698 0.42376 0.28470
 C2346 C 0.69958 0.42074 0.28262
 C2347 C 0.69223 0.40627 0.28949
 C2348 C 0.70189 0.39475 0.29866
 C2349 C 0.71912 0.39781 0.30073
 C2350 C 0.72659 0.41206 0.29384
 C2351 C 0.72433 0.43941 0.27726
 C2352 C 0.74154 0.44345 0.27840
 C2353 C 0.74770 0.45830 0.27149
 C2354 C 0.73692 0.46946 0.26324
 C2355 C 0.71980 0.46559 0.26195
 C2356 C 0.71346 0.45064 0.26879
 C2357 C 0.68958 0.43226 0.27388
 C2358 C 0.69636 0.44692 0.26718
 H2359 H 0.67626 0.42997 0.27230
 H2360 H 0.68805 0.45548 0.26064
 H2361 H 0.67887 0.40420 0.28794
 H2362 H 0.72695 0.38910 0.30760
 H2363 H 0.76093 0.46119 0.27273
 H2364 H 0.71146 0.47420 0.25550
 H2365 H 0.73987 0.41368 0.29591
 H2366 H 0.75046 0.43538 0.28460
 C2367 C 0.71607 0.92293 0.78418
 C2368 C 0.71742 0.92039 0.80173
 C2369 C 0.71052 0.90597 0.80915
 C2370 C 0.70198 0.89405 0.79939
 C2371 C 0.70081 0.89652 0.78199
 C2372 C 0.70778 0.91070 0.77446
 C2373 C 0.72325 0.93870 0.77681
 C2374 C 0.72261 0.94241 0.75950
 C2375 C 0.72918 0.95743 0.75334
 C2376 C 0.73657 0.96906 0.76424
 C2377 C 0.73735 0.96553 0.78144
 C2378 C 0.73085 0.95044 0.78778
 C2379 C 0.72539 0.93237 0.81182
 C2380 C 0.73191 0.94709 0.80501
 H2381 H 0.72646 0.93043 0.82524
 H2382 H 0.73781 0.95604 0.81339
 H2383 H 0.71142 0.90430 0.82262
 H2384 H 0.69450 0.88745 0.77410
 H2385 H 0.72840 0.96005 0.74002
 H2386 H 0.74315 0.97452 0.78986
 H2387 H 0.70639 0.91188 0.76105
 H2388 H 0.71707 0.93396 0.75050
 C2389 C 0.21535 0.42324 0.78637
 C2390 C 0.19800 0.42021 0.78398
 C2391 C 0.19040 0.40606 0.79123
 C2392 C 0.19978 0.39494 0.80117
 C2393 C 0.21692 0.39810 0.80369
 C2394 C 0.22464 0.41200 0.79638
 C2395 C 0.22300 0.43844 0.77836
 C2396 C 0.24025 0.44227 0.77953
 C2397 C 0.24668 0.45678 0.77218
 C2398 C 0.23614 0.46778 0.76342
 C2399 C 0.21901 0.46405 0.76198
 C2400 C 0.21240 0.44943 0.76925
 C2401 C 0.18827 0.43142 0.77455
 C2402 C 0.19529 0.44578 0.76746
 H2403 H 0.17498 0.42914 0.77275
 H2404 H 0.18719 0.45414 0.76042
 H2405 H 0.17710 0.40390 0.78939
 H2406 H 0.22451 0.38970 0.81119
 H2407 H 0.25993 0.45955 0.77351
 H2408 H 0.21087 0.47253 0.75512
 H2409 H 0.23784 0.41371 0.79882
 H2410 H 0.24900 0.43430 0.78609
 C2411 C 0.21695 0.92311 0.28621
 C2412 C 0.19960 0.91997 0.28393
 C2413 C 0.19218 0.90566 0.29104
 C2414 C 0.20173 0.89444 0.30071
 C2415 C 0.21887 0.89768 0.30310
 C2416 C 0.22641 0.91177 0.29594
 C2417 C 0.22438 0.93853 0.27838
 C2418 C 0.24160 0.94254 0.27949
 C2419 C 0.24782 0.95722 0.27226
 C2420 C 0.23710 0.96822 0.26373
 C2421 C 0.22000 0.96432 0.26239
 C2422 C 0.21360 0.94954 0.26951
 C2423 C 0.18970 0.93122 0.27474
 C2424 C 0.19652 0.94574 0.26779
 H2425 H 0.17641 0.92884 0.27302
 H2426 H 0.18828 0.95411 0.26093
 H2427 H 0.17887 0.90346 0.28929
 H2428 H 0.22659 0.88922 0.31040
 H2429 H 0.26106 0.96012 0.27351
 H2430 H 0.21171 0.97279 0.25569
 H2431 H 0.23963 0.91356 0.29827
 H2432 H 0.25047 0.93458 0.28590
 C2433 C 0.42490 0.28392 0.71302
 C2434 C 0.41379 0.29295 0.72358
 C2435 C 0.39923 0.30034 0.71687
 C2436 C 0.39534 0.29858 0.69977
 C2437 C 0.40626 0.28943 0.68941
 C2438 C 0.42085 0.28224 0.69588
 C2439 C 0.44046 0.27648 0.72058
 C2440 C 0.45267 0.26798 0.71097
 C2441 C 0.46705 0.26147 0.71854
 C2442 C 0.46956 0.26314 0.73585
 C2443 C 0.45754 0.27154 0.74559
 C2444 C 0.44310 0.27832 0.73807
 C2445 C 0.41719 0.29441 0.74078
 C2446 C 0.43146 0.28714 0.74789
 H2447 H 0.40865 0.30122 0.74890
 H2448 H 0.43349 0.28858 0.76127
 H2449 H 0.39076 0.30717 0.72504
 H2450 H 0.40365 0.28797 0.67616
 H2451 H 0.47628 0.25505 0.71087
 H2452 H 0.45963 0.27303 0.75896
 H2453 H 0.42869 0.27538 0.68724
 H2454 H 0.45149 0.26633 0.69759
 C2455 C 0.42369 0.78644 0.21715
 C2456 C 0.42049 0.78368 0.19987
 C2457 C 0.40609 0.79051 0.19234
 C2458 C 0.39485 0.80037 0.20167
 C2459 C 0.39818 0.80330 0.21871
 C2460 C 0.41234 0.79640 0.22639
 C2461 C 0.43915 0.77882 0.22473
 C2462 C 0.44318 0.78028 0.24193
 C2463 C 0.45787 0.77314 0.24829
 C2464 C 0.46885 0.76439 0.23771
 C2465 C 0.46496 0.76272 0.22066
 C2466 C 0.45017 0.76972 0.21413
 C2467 C 0.43176 0.77430 0.19016
 C2468 C 0.44635 0.76758 0.19710
 H2469 H 0.42935 0.77224 0.17693
 H2470 H 0.45474 0.76055 0.18902
 H2471 H 0.40382 0.78838 0.17910
 H2472 H 0.38969 0.81078 0.22625
 H2473 H 0.46076 0.77455 0.26151
 H2474 H 0.47342 0.75582 0.21251
 H2475 H 0.41419 0.79912 0.23952
 H2476 H 0.43520 0.78685 0.25067
 C2477 C 0.92355 0.28787 0.21787
 C2478 C 0.91244 0.27741 0.20878
 C2479 C 0.89785 0.28417 0.20150
 C2480 C 0.89404 0.30129 0.20316
 C2481 C 0.90498 0.31156 0.21237
 C2482 C 0.91951 0.30499 0.21962
 C2483 C 0.93919 0.28027 0.22510
 C2484 C 0.95128 0.28970 0.23395
 C2485 C 0.96581 0.28210 0.24011
 C2486 C 0.96862 0.26493 0.23774
 C2487 C 0.95668 0.25537 0.22905
 C2488 C 0.94205 0.26289 0.22270
 C2489 C 0.91596 0.26029 0.20695
 C2490 C 0.93041 0.25318 0.21380
 H2491 H 0.90743 0.25225 0.20005
 H2492 H 0.93259 0.23988 0.21198
 H2493 H 0.88945 0.27601 0.19460
 H2494 H 0.90251 0.32482 0.21382
 H2495 H 0.97491 0.28965 0.24683
 H2496 H 0.95895 0.24211 0.22701
 H2497 H 0.92741 0.31359 0.22646
 H2498 H 0.94986 0.30296 0.23617
 C2499 C 0.92426 0.78748 0.71742
 C2500 C 0.92144 0.78567 0.69996
 C2501 C 0.90702 0.79261 0.69255
 C2502 C 0.89535 0.80161 0.70223
 C2503 C 0.89829 0.80358 0.71948
 C2504 C 0.91250 0.79661 0.72701
 C2505 C 0.93974 0.77976 0.72486
 C2506 C 0.94343 0.78033 0.74218
 C2507 C 0.95811 0.77306 0.74843
 C2508 C 0.96943 0.76508 0.73760
 C2509 C 0.96591 0.76436 0.72039
 C2510 C 0.95113 0.77148 0.71397
 C2511 C 0.93308 0.77709 0.68994
 C2512 C 0.94767 0.77026 0.69678
 H2513 H 0.93096 0.77574 0.67657
 H2514 H 0.95634 0.76384 0.68847
 H2515 H 0.90505 0.79119 0.67917
 H2516 H 0.88948 0.81037 0.72730
 H2517 H 0.96071 0.77376 0.76176
 H2518 H 0.97464 0.75805 0.71204
 H2519 H 0.91403 0.79857 0.74031
 H2520 H 0.93517 0.78626 0.75112
 C2521 C 0.57549 0.28825 0.28262
 C2522 C 0.58618 0.27784 0.29226
 C2523 C 0.60059 0.28456 0.29991
 C2524 C 0.60469 0.30158 0.29800
 C2525 C 0.59418 0.31180 0.28824
 C2526 C 0.57979 0.30528 0.28067
 C2527 C 0.56001 0.28069 0.27498
 C2528 C 0.54827 0.29012 0.26568
 C2529 C 0.53385 0.28259 0.25920
 C2530 C 0.53082 0.26548 0.26167
 C2531 C 0.54243 0.25591 0.27080
 C2532 C 0.55693 0.26338 0.27751
 C2533 C 0.58243 0.26078 0.29422
 C2534 C 0.56817 0.25370 0.28694
 H2535 H 0.59064 0.25278 0.30153
 H2536 H 0.56582 0.24045 0.28888
 H2537 H 0.60869 0.27645 0.30722
 H2538 H 0.59690 0.32499 0.28661
 H2539 H 0.52497 0.29015 0.25221
 H2540 H 0.53996 0.24271 0.27295
 H2541 H 0.57223 0.31382 0.27340
 H2542 H 0.54985 0.30334 0.26339
 C2543 C 0.57512 0.78774 0.78284
 C2544 C 0.58607 0.77704 0.79186
 C2545 C 0.60072 0.78352 0.79930
 C2546 C 0.60473 0.80061 0.79788
 C2547 C 0.59376 0.81117 0.78900
 C2548 C 0.57920 0.80488 0.78160
 C2549 C 0.55962 0.78035 0.77509
 C2550 C 0.54791 0.78995 0.76591
 C2551 C 0.53353 0.78254 0.75919
 C2552 C 0.53050 0.76538 0.76132
 C2553 C 0.54208 0.75566 0.77034
 C2554 C 0.55658 0.76298 0.77720
 C2555 C 0.58236 0.75993 0.79340
 C2556 C 0.56793 0.75306 0.78624
 H2557 H 0.59072 0.75172 0.80030
 H2558 H 0.56561 0.73977 0.78785
 H2559 H 0.60906 0.77516 0.80603
 H2560 H 0.59630 0.82444 0.78784
 H2561 H 0.52471 0.79022 0.75226
 H2562 H 0.53963 0.74241 0.77223
 H2563 H 0.57133 0.81368 0.77501
 H2564 H 0.54953 0.80320 0.76381
 C2565 C 0.07422 0.28694 0.78413
 C2566 C 0.08552 0.27634 0.79283
 C2567 C 0.10010 0.28303 0.80017
 C2568 C 0.10381 0.30018 0.79877
 C2569 C 0.09278 0.31058 0.78983
 C2570 C 0.07817 0.30410 0.78264
 C2571 C 0.05859 0.27938 0.77684
 C2572 C 0.04617 0.28898 0.76867
 C2573 C 0.03177 0.28138 0.76224
 C2574 C 0.02942 0.26404 0.76367
 C2575 C 0.04160 0.25433 0.77183
 C2576 C 0.05609 0.26186 0.77849
 C2577 C 0.08226 0.25912 0.79409
 C2578 C 0.06794 0.25202 0.78696
 H2579 H 0.09096 0.25098 0.80066
 H2580 H 0.06602 0.23863 0.78825
 H2581 H 0.10866 0.27481 0.80680
 H2582 H 0.09527 0.32386 0.78859
 H2583 H 0.02243 0.28905 0.75600
 H2584 H 0.03966 0.24093 0.77315
 H2585 H 0.07020 0.31277 0.77598
 H2586 H 0.04724 0.30238 0.76719
 C2587 C 0.07664 0.78697 0.28188
 C2588 C 0.08761 0.77627 0.29088
 C2589 C 0.10219 0.78278 0.29839
 C2590 C 0.10620 0.79988 0.29695
 C2591 C 0.09545 0.81036 0.28776
 C2592 C 0.08089 0.80406 0.28034
 C2593 C 0.06095 0.77965 0.27447
 C2594 C 0.04889 0.78940 0.26593
 C2595 C 0.03429 0.78208 0.25962
 C2596 C 0.03139 0.76487 0.26151
 C2597 C 0.04329 0.75498 0.26988
 C2598 C 0.05798 0.76225 0.27644
 C2599 C 0.08395 0.75914 0.29233
 C2600 C 0.06951 0.75227 0.28519
 H2601 H 0.09237 0.75091 0.29913
 H2602 H 0.06725 0.73896 0.28671
 H2603 H 0.11048 0.77447 0.30525
 H2604 H 0.09809 0.82361 0.28649
 H2605 H 0.02517 0.78987 0.25322
 H2606 H 0.04093 0.74170 0.27155
 H2607 H 0.07316 0.81281 0.27352
 H2608 H 0.05035 0.80271 0.26412
 C2609 C 0.57534 0.71314 0.71644
 C2610 C 0.58594 0.72352 0.70666
 C2611 C 0.60032 0.71677 0.69893
 C2612 C 0.60448 0.69977 0.70093
 C2613 C 0.59400 0.68957 0.71073
 C2614 C 0.57964 0.69611 0.71835
 C2615 C 0.55995 0.72074 0.72424
 C2616 C 0.54836 0.71135 0.73377
 C2617 C 0.53398 0.71889 0.74035
 C2618 C 0.53083 0.73597 0.73778
 C2619 C 0.54234 0.74553 0.72851
 C2620 C 0.55680 0.73804 0.72168
 C2621 C 0.58215 0.74057 0.70469
 C2622 C 0.56793 0.74768 0.71209
 H2623 H 0.59029 0.74855 0.69728
 H2624 H 0.56554 0.76092 0.71013
 H2625 H 0.60840 0.72484 0.69155
 H2626 H 0.59676 0.67639 0.71239
 H2627 H 0.52520 0.71134 0.74748
 H2628 H 0.53981 0.75871 0.72632
 H2629 H 0.57213 0.68757 0.72567
 H2630 H 0.55001 0.69815 0.73614
 C2631 C 0.57577 0.21379 0.21717
 C2632 C 0.58659 0.22435 0.20782
 C2633 C 0.60119 0.21775 0.20035
 C2634 C 0.60532 0.20072 0.20216
 C2635 C 0.59460 0.19036 0.21151
 C2636 C 0.58005 0.19674 0.21889
 C2637 C 0.56018 0.22122 0.22473
 C2638 C 0.54844 0.21166 0.23390
 C2639 C 0.53395 0.21909 0.24038
 C2640 C 0.53084 0.23620 0.23803
 C2641 C 0.54245 0.24589 0.22903
 C2642 C 0.55704 0.23854 0.22235
 C2643 C 0.58278 0.24141 0.20601
 C2644 C 0.56836 0.24835 0.21315
 H2645 H 0.59107 0.24953 0.19892
 H2646 H 0.56596 0.26161 0.21134
 H2647 H 0.60942 0.22595 0.19330
 H2648 H 0.59728 0.17714 0.21300
 H2649 H 0.52510 0.21144 0.24731
 H2650 H 0.53994 0.25910 0.22699
 H2651 H 0.57237 0.18806 0.22586
 H2652 H 0.55009 0.19844 0.23613
 C2653 C 0.07627 0.71500 0.21596
 C2654 C 0.08717 0.72565 0.20681
 C2655 C 0.10195 0.71916 0.19961
 C2656 C 0.10626 0.70220 0.20164
 C2657 C 0.09554 0.69178 0.21092
 C2658 C 0.08076 0.69803 0.21795
 C2659 C 0.06046 0.72229 0.22317
 C2660 C 0.04847 0.71257 0.23182
 C2661 C 0.03390 0.71990 0.23819
 C2662 C 0.03093 0.73709 0.23623
 C2663 C 0.04268 0.74693 0.22760
 C2664 C 0.05735 0.73965 0.22098
 C2665 C 0.08330 0.74270 0.20501
 C2666 C 0.06879 0.74957 0.21205
 H2667 H 0.09167 0.75089 0.19810
 H2668 H 0.06641 0.76285 0.21035
 H2669 H 0.11023 0.72739 0.19264
 H2670 H 0.09842 0.67862 0.21260
 H2671 H 0.02490 0.71214 0.24480
 H2672 H 0.04027 0.76021 0.22588
 H2673 H 0.07310 0.68933 0.22491
 H2674 H 0.05000 0.69928 0.23373
 C2675 C 0.07628 0.21718 0.71570
 C2676 C 0.07930 0.19979 0.71775
 C2677 C 0.09371 0.19239 0.71073
 C2678 C 0.10513 0.20198 0.70137
 C2679 C 0.10204 0.21917 0.69925
 C2680 C 0.08787 0.22670 0.70635
 C2681 C 0.06069 0.22457 0.72334
 C2682 C 0.05670 0.24179 0.72238
 C2683 C 0.04182 0.24795 0.72936
 C2684 C 0.03062 0.23714 0.73750
 C2685 C 0.03450 0.22005 0.73871
 C2686 C 0.04946 0.21372 0.73182
 C2687 C 0.06782 0.18984 0.72658
 C2688 C 0.05318 0.19662 0.73336
 H2689 H 0.07011 0.17652 0.72813
 H2690 H 0.04462 0.18834 0.73993
 H2691 H 0.09580 0.17905 0.71228
 H2692 H 0.11068 0.22693 0.69221
 H2693 H 0.03893 0.26118 0.72823
 H2694 H 0.02586 0.21170 0.74509
 H2695 H 0.08621 0.23995 0.70424
 H2696 H 0.06482 0.25070 0.71626
 C2697 C 0.42332 0.71840 0.28676
 C2698 C 0.41236 0.70940 0.27605
 C2699 C 0.39768 0.70207 0.28255
 C2700 C 0.39355 0.70381 0.29959
 C2701 C 0.40425 0.71305 0.31008
 C2702 C 0.41894 0.72021 0.30380
 C2703 C 0.43910 0.72560 0.27944
 C2704 C 0.45127 0.73394 0.28923
 C2705 C 0.46588 0.74017 0.28189
 C2706 C 0.46867 0.73840 0.26463
 C2707 C 0.45672 0.73016 0.25472
 C2708 C 0.44204 0.72364 0.26201
 C2709 C 0.41604 0.70784 0.25891
 C2710 C 0.43049 0.71493 0.25202
 H2711 H 0.40760 0.70105 0.25068
 H2712 H 0.43275 0.71340 0.23869
 H2713 H 0.38938 0.69519 0.27426
 H2714 H 0.40144 0.71454 0.32329
 H2715 H 0.47508 0.74646 0.28970
 H2716 H 0.45902 0.72857 0.24139
 H2717 H 0.42663 0.72711 0.31253
 H2718 H 0.44987 0.73563 0.30259
 C2719 C 0.42386 0.21431 0.78266
 C2720 C 0.42055 0.21679 0.79995
 C2721 C 0.40620 0.20971 0.80732
 C2722 C 0.39511 0.19986 0.79782
 C2723 C 0.39857 0.19717 0.78076
 C2724 C 0.41270 0.20431 0.77324
 C2725 C 0.43927 0.22222 0.77526
 C2726 C 0.44341 0.22107 0.75807
 C2727 C 0.45810 0.22839 0.75190
 C2728 C 0.46896 0.23702 0.76269
 C2729 C 0.46491 0.23843 0.77973
 C2730 C 0.45013 0.23125 0.78606
 C2731 C 0.43165 0.22614 0.80986
 C2732 C 0.44619 0.23310 0.80309
 H2733 H 0.42914 0.22799 0.82311
 H2734 H 0.45446 0.24009 0.81133
 H2735 H 0.40385 0.21164 0.82059
 H2736 H 0.39021 0.18968 0.77310
 H2737 H 0.46112 0.22714 0.73869
 H2738 H 0.47329 0.24522 0.78804
 H2739 H 0.41467 0.20179 0.76008
 H2740 H 0.43552 0.21458 0.74918
 C2741 C 0.92359 0.71500 0.78260
 C2742 C 0.92052 0.71697 0.80001
 C2743 C 0.90613 0.70991 0.80732
 C2744 C 0.89481 0.70053 0.79764
 C2745 C 0.89802 0.69833 0.78047
 C2746 C 0.91216 0.70550 0.77300
 C2747 C 0.93904 0.72286 0.77526
 C2748 C 0.94287 0.72230 0.75796
 C2749 C 0.95761 0.72952 0.75183
 C2750 C 0.96885 0.73746 0.76275
 C2751 C 0.96513 0.73830 0.77991
 C2752 C 0.95027 0.73125 0.78621
 C2753 C 0.93195 0.72576 0.81007
 C2754 C 0.94659 0.73259 0.80335
 H2755 H 0.92965 0.72721 0.82341
 H2756 H 0.95513 0.73910 0.81171
 H2757 H 0.90394 0.71145 0.82067
 H2758 H 0.88946 0.69120 0.77268
 H2759 H 0.96037 0.72875 0.73853
 H2760 H 0.97380 0.74458 0.78833
 H2761 H 0.91394 0.70334 0.75976
 H2762 H 0.93468 0.71636 0.74897
 C2763 C 0.92328 0.21542 0.28350
 C2764 C 0.92016 0.19813 0.28085
 C2765 C 0.90590 0.19052 0.28794
 C2766 C 0.89471 0.19986 0.29786
 C2767 C 0.89779 0.21700 0.30035
 C2768 C 0.91181 0.22470 0.29327
 C2769 C 0.93875 0.22302 0.27596
 C2770 C 0.94297 0.24009 0.27792
 C2771 C 0.95768 0.24649 0.27093
 C2772 C 0.96850 0.23612 0.26173
 C2773 C 0.96449 0.21914 0.25966
 C2774 C 0.94969 0.21254 0.26663
 C2775 C 0.93139 0.18851 0.27131
 C2776 C 0.94585 0.19555 0.26438
 H2777 H 0.92903 0.17528 0.26926
 H2778 H 0.95419 0.18753 0.25720
 H2779 H 0.90375 0.17725 0.28601
 H2780 H 0.88928 0.22462 0.30772
 H2781 H 0.96073 0.25959 0.27284
 H2782 H 0.97289 0.21111 0.25256
 H2783 H 0.91343 0.23789 0.29570
 H2784 H 0.93519 0.24871 0.28486
 C2785 C 0.28423 0.28231 0.57660
 C2786 C 0.28164 0.29957 0.57995
 C2787 C 0.28862 0.30694 0.59437
 C2788 C 0.29850 0.29745 0.60543
 C2789 C 0.30118 0.28041 0.60201
 C2790 C 0.29412 0.27290 0.58785
 C2791 C 0.27658 0.27493 0.56107
 C2792 C 0.27798 0.25779 0.55685
 C2793 C 0.27093 0.25163 0.54205
 C2794 C 0.26228 0.26234 0.53114
 C2795 C 0.26064 0.27934 0.53523
 C2796 C 0.26758 0.28568 0.55013
 C2797 C 0.27232 0.30943 0.56878
 C2798 C 0.26555 0.30266 0.55413
 H2799 H 0.27037 0.32265 0.57131
 H2800 H 0.25859 0.31087 0.54580
 H2801 H 0.28666 0.32018 0.59674
 H2802 H 0.30865 0.27275 0.61039
 H2803 H 0.27236 0.23846 0.53899
 H2804 H 0.25385 0.28760 0.52681
 H2805 H 0.29668 0.25976 0.58591
 H2806 H 0.28448 0.24894 0.56476
 C2807 C 0.28530 0.78302 0.07594
 C2808 C 0.28246 0.80019 0.07947
 C2809 C 0.28953 0.80757 0.09384
 C2810 C 0.29971 0.79818 0.10472
 C2811 C 0.30267 0.78122 0.10110
 C2812 C 0.29554 0.77370 0.08696
 C2813 C 0.27751 0.77563 0.06045
 C2814 C 0.27916 0.75857 0.05604
 C2815 C 0.27199 0.75243 0.04128
 C2816 C 0.26298 0.76308 0.03060
 C2817 C 0.26108 0.78000 0.03491
 C2818 C 0.26814 0.78632 0.04977
 C2819 C 0.27277 0.80998 0.06855
 C2820 C 0.26587 0.80322 0.05396
 H2821 H 0.27062 0.82314 0.07123
 H2822 H 0.25863 0.81138 0.04583
 H2823 H 0.28735 0.82075 0.09633
 H2824 H 0.31038 0.77363 0.10931
 H2825 H 0.27366 0.73933 0.03806
 H2826 H 0.25402 0.78823 0.02667
 H2827 H 0.29830 0.76062 0.08487
 H2828 H 0.28595 0.74978 0.06376
 C2829 C 0.78366 0.28292 0.07813
 C2830 C 0.78141 0.30028 0.08115
 C2831 C 0.78842 0.30776 0.09548
 C2832 C 0.79786 0.29827 0.10695
 C2833 C 0.80001 0.28106 0.10396
 C2834 C 0.79300 0.27346 0.08979
 C2835 C 0.77620 0.27549 0.06250
 C2836 C 0.77773 0.25837 0.05829
 C2837 C 0.77092 0.25219 0.04337
 C2838 C 0.76235 0.26285 0.03234
 C2839 C 0.76063 0.27986 0.03641
 C2840 C 0.76741 0.28623 0.05138
 C2841 C 0.77234 0.31013 0.06976
 C2842 C 0.76553 0.30327 0.05518
 H2843 H 0.77060 0.32342 0.07208
 H2844 H 0.75875 0.31147 0.04671
 H2845 H 0.78677 0.32110 0.09748
 H2846 H 0.80707 0.27335 0.11262
 H2847 H 0.77252 0.23904 0.04031
 H2848 H 0.75396 0.28811 0.02789
 H2849 H 0.79514 0.26020 0.08821
 H2850 H 0.78421 0.24956 0.06625
 C2851 C 0.78791 0.78482 0.57578
 C2852 C 0.77733 0.79388 0.58684
 C2853 C 0.78408 0.80168 0.60117
 C2854 C 0.80127 0.80034 0.60486
 C2855 C 0.81165 0.79113 0.59402
 C2856 C 0.80512 0.78351 0.57968
 C2857 C 0.78031 0.77704 0.56041
 C2858 C 0.78992 0.76849 0.54823
 C2859 C 0.78233 0.76184 0.53393
 C2860 C 0.76500 0.76336 0.53148
 C2861 C 0.75524 0.77170 0.54351
 C2862 C 0.76277 0.77866 0.55787
 C2863 C 0.76007 0.79503 0.58359
 C2864 C 0.75293 0.78747 0.56950
 H2865 H 0.75193 0.80186 0.59211
 H2866 H 0.73951 0.78873 0.56756
 H2867 H 0.77588 0.80855 0.60958
 H2868 H 0.82497 0.78995 0.59648
 H2869 H 0.79003 0.75547 0.52469
 H2870 H 0.74184 0.77308 0.54147
 H2871 H 0.81379 0.77663 0.57187
 H2872 H 0.80333 0.76698 0.54935
 C2873 C 0.28264 0.71067 0.42496
 C2874 C 0.29207 0.72119 0.41419
 C2875 C 0.29968 0.71456 0.39974
 C2876 C 0.29789 0.69753 0.39563
 C2877 C 0.28831 0.68720 0.40616
 C2878 C 0.28081 0.69362 0.42063
 C2879 C 0.27506 0.71817 0.44048
 C2880 C 0.26603 0.70864 0.45235
 C2881 C 0.25951 0.71617 0.46678
 C2882 C 0.26171 0.73335 0.46965
 C2883 C 0.27061 0.74298 0.45795
 C2884 C 0.27734 0.73553 0.44347
 C2885 C 0.29384 0.73828 0.41788
 C2886 C 0.28655 0.74531 0.43215
 H2887 H 0.30098 0.74636 0.40959
 H2888 H 0.28830 0.75860 0.43444
 H2889 H 0.30681 0.72275 0.39157
 H2890 H 0.28678 0.67400 0.40335
 H2891 H 0.25269 0.70857 0.47575
 H2892 H 0.27254 0.75624 0.46032
 H2893 H 0.27366 0.68502 0.42823
 H2894 H 0.26397 0.69537 0.45086
 C2895 C 0.28588 0.21663 0.92369
 C2896 C 0.28344 0.19935 0.92038
 C2897 C 0.29049 0.19201 0.90598
 C2898 C 0.30031 0.20154 0.89490
 C2899 C 0.30296 0.21857 0.89835
 C2900 C 0.29581 0.22606 0.91250
 C2901 C 0.27802 0.22400 0.93914
 C2902 C 0.27908 0.24119 0.94322
 C2903 C 0.27183 0.24735 0.95794
 C2904 C 0.26335 0.23657 0.96892
 C2905 C 0.26201 0.21952 0.96494
 C2906 C 0.26912 0.21320 0.95010
 C2907 C 0.27418 0.18944 0.93155
 C2908 C 0.26731 0.19618 0.94617
 H2909 H 0.27237 0.17620 0.92904
 H2910 H 0.26041 0.18793 0.95450
 H2911 H 0.28860 0.17877 0.90361
 H2912 H 0.31042 0.22624 0.88998
 H2913 H 0.27301 0.26056 0.96089
 H2914 H 0.25531 0.21122 0.97339
 H2915 H 0.29833 0.23920 0.91448
 H2916 H 0.28544 0.25008 0.93526
 C2917 C 0.78511 0.71613 0.92267
 C2918 C 0.78263 0.69882 0.91953
 C2919 C 0.78958 0.69134 0.90513
 C2920 C 0.79935 0.70076 0.89392
 C2921 C 0.80196 0.71785 0.89718
 C2922 C 0.79491 0.72547 0.91130
 C2923 C 0.77743 0.72366 0.93815
 C2924 C 0.77860 0.74088 0.94206
 C2925 C 0.77150 0.74721 0.95678
 C2926 C 0.76305 0.73658 0.96793
 C2927 C 0.76166 0.71948 0.96414
 C2928 C 0.76862 0.71299 0.94929
 C2929 C 0.77347 0.68903 0.93090
 C2930 C 0.76675 0.69593 0.94553
 H2931 H 0.77162 0.67577 0.92854
 H2932 H 0.75992 0.68778 0.95401
 H2933 H 0.78769 0.67807 0.90288
 H2934 H 0.80935 0.72546 0.88870
 H2935 H 0.77273 0.76045 0.95958
 H2936 H 0.75502 0.71128 0.97273
 H2937 H 0.79742 0.73863 0.91311
 H2938 H 0.78491 0.74968 0.93397
 C2939 C 0.78645 0.21635 0.42317
 C2940 C 0.77578 0.20744 0.41209
 C2941 C 0.78240 0.19998 0.39751
 C2942 C 0.79952 0.20152 0.39361
 C2943 C 0.80997 0.21060 0.40447
 C2944 C 0.80358 0.21789 0.41905
 C2945 C 0.77901 0.22375 0.43881
 C2946 C 0.78874 0.23210 0.45102
 C2947 C 0.78129 0.23850 0.46551
 C2948 C 0.76400 0.23688 0.46815
 C2949 C 0.75413 0.22867 0.45612
 C2950 C 0.76152 0.22200 0.44155
 C2951 C 0.75858 0.20612 0.41556
 C2952 C 0.75158 0.21336 0.42990
 H2953 H 0.75038 0.19941 0.40703
 H2954 H 0.73820 0.21199 0.43201
 H2955 H 0.77415 0.19320 0.38909
 H2956 H 0.82325 0.21191 0.40185
 H2957 H 0.78906 0.24478 0.47475
 H2958 H 0.74076 0.22723 0.45830
 H2959 H 0.81230 0.22467 0.42686
 H2960 H 0.80212 0.23369 0.44976
 C2961 C 0.71736 0.28430 0.42223
 C2962 C 0.70003 0.28189 0.41902
 C2963 C 0.69269 0.28860 0.40445
 C2964 C 0.70230 0.29799 0.39307
 C2965 C 0.71944 0.30040 0.39632
 C2966 C 0.72691 0.29362 0.41064
 C2967 C 0.72470 0.27700 0.43797
 C2968 C 0.74187 0.27837 0.44214
 C2969 C 0.74803 0.27151 0.45704
 C2970 C 0.73727 0.26311 0.46810
 C2971 C 0.72020 0.26164 0.46412
 C2972 C 0.71387 0.26839 0.44913
 C2973 C 0.69008 0.27301 0.43047
 C2974 C 0.69683 0.26649 0.44524
 H2975 H 0.67681 0.27120 0.42805
 H2976 H 0.68856 0.25984 0.45375
 H2977 H 0.67939 0.28682 0.40220
 H2978 H 0.72721 0.30745 0.38769
 H2979 H 0.76125 0.27280 0.46000
 H2980 H 0.71191 0.25504 0.47267
 H2981 H 0.74012 0.29596 0.41241
 H2982 H 0.75077 0.28465 0.43412
 C2983 C 0.71418 0.78337 0.92286
 C2984 C 0.71524 0.80092 0.92043
 C2985 C 0.70807 0.80833 0.90612
 C2986 C 0.69975 0.79856 0.89402
 C2987 C 0.69876 0.78115 0.89648
 C2988 C 0.70585 0.77365 0.91065
 C2989 C 0.72192 0.77598 0.93838
 C2990 C 0.72150 0.75867 0.94203
 C2991 C 0.72874 0.75246 0.95673
 C2992 C 0.73669 0.76328 0.96810
 C2993 C 0.73717 0.78050 0.96465
 C2994 C 0.72991 0.78690 0.94991
 C2995 C 0.72340 0.81101 0.93230
 C2996 C 0.73057 0.80415 0.94671
 H2997 H 0.72424 0.82444 0.93044
 H2998 H 0.73671 0.81252 0.95552
 H2999 H 0.70889 0.82179 0.90457
 H3000 H 0.69259 0.77319 0.88739
 H3001 H 0.72802 0.73915 0.95932
 H3002 H 0.74330 0.78889 0.97344
 H3003 H 0.70466 0.76023 0.91176
 H3004 H 0.71557 0.74973 0.93379
 C3005 C 0.21414 0.28245 0.92405
 C3006 C 0.21637 0.29974 0.92072
 C3007 C 0.20940 0.30691 0.90621
 C3008 C 0.19993 0.29718 0.89497
 C3009 C 0.19753 0.28012 0.89842
 C3010 C 0.20456 0.27281 0.91272
 C3011 C 0.22193 0.27526 0.93962
 C3012 C 0.22095 0.25811 0.94379
 C3013 C 0.22830 0.25208 0.95849
 C3014 C 0.23684 0.26293 0.96936
 C3015 C 0.23793 0.28000 0.96539
 C3016 C 0.23070 0.28621 0.95056
 C3017 C 0.22538 0.30983 0.93195
 C3018 C 0.23229 0.30323 0.94660
 H3019 H 0.22703 0.32308 0.92942
 H3020 H 0.23905 0.31160 0.95493
 H3021 H 0.21111 0.32018 0.90385
 H3022 H 0.19036 0.27229 0.88995
 H3023 H 0.22724 0.23886 0.96146
 H3024 H 0.24461 0.28838 0.97379
 H3025 H 0.20227 0.25963 0.91465
 H3026 H 0.21461 0.24913 0.93590
 C3027 C 0.21509 0.78159 0.42361
 C3028 C 0.21794 0.79875 0.42004
 C3029 C 0.21102 0.80604 0.40556
 C3030 C 0.20105 0.79656 0.39454
 C3031 C 0.19811 0.77961 0.39819
 C3032 C 0.20505 0.77219 0.41248
 C3033 C 0.22275 0.77429 0.43920
 C3034 C 0.22097 0.75729 0.44371
 C3035 C 0.22814 0.75118 0.45849
 C3036 C 0.23730 0.76180 0.46908
 C3037 C 0.23923 0.77871 0.46473
 C3038 C 0.23214 0.78499 0.44986
 C3039 C 0.22754 0.80858 0.43101
 C3040 C 0.23441 0.80188 0.44563
 H3041 H 0.22969 0.82173 0.42830
 H3042 H 0.24164 0.81005 0.45375
 H3043 H 0.21320 0.81921 0.40306
 H3044 H 0.19057 0.77195 0.38989
 H3045 H 0.22638 0.73812 0.46176
 H3046 H 0.24637 0.78692 0.47290
 H3047 H 0.20233 0.75912 0.41456
 H3048 H 0.21409 0.74850 0.43608
 C3049 C 0.71850 0.71566 0.57763
 C3050 C 0.70119 0.71812 0.58092
 C3051 C 0.69390 0.71146 0.59552
 C3052 C 0.70350 0.70203 0.60689
 C3053 C 0.72061 0.69947 0.60352
 C3054 C 0.72805 0.70622 0.58915
 C3055 C 0.72581 0.72303 0.56189
 C3056 C 0.74298 0.72175 0.55768
 C3057 C 0.74909 0.72870 0.54279
 C3058 C 0.73827 0.73709 0.53176
 C3059 C 0.72121 0.73849 0.53579
 C3060 C 0.71493 0.73167 0.55079
 C3061 C 0.69120 0.72703 0.56952
 C3062 C 0.69790 0.73355 0.55473
 H3063 H 0.67794 0.72887 0.57200
 H3064 H 0.68960 0.74023 0.54627
 H3065 H 0.68061 0.71332 0.59783
 H3066 H 0.72836 0.69234 0.61210
 H3067 H 0.76231 0.72746 0.53980
 H3068 H 0.71286 0.74508 0.52730
 H3069 H 0.74124 0.70379 0.58727
 H3070 H 0.75191 0.71548 0.56569
 C3071 C 0.71678 0.21272 0.07610
 C3072 C 0.70765 0.22344 0.08697
 C3073 C 0.70041 0.21705 0.10175
 C3074 C 0.70235 0.20011 0.10608
 C3075 C 0.71159 0.18958 0.09539
 C3076 C 0.71867 0.19574 0.08060
 C3077 C 0.72410 0.21996 0.06033
 C3078 C 0.73283 0.21022 0.04837
 C3079 C 0.73939 0.21757 0.03388
 C3080 C 0.73754 0.23479 0.03101
 C3081 C 0.72874 0.24459 0.04269
 C3082 C 0.72199 0.23733 0.05726
 C3083 C 0.70592 0.24049 0.08312
 C3084 C 0.71303 0.24731 0.06865
 H3085 H 0.69902 0.24874 0.09147
 H3086 H 0.71139 0.26059 0.06628
 H3087 H 0.69350 0.22537 0.11001
 H3088 H 0.71320 0.17642 0.09830
 H3089 H 0.74609 0.20982 0.02493
 H3090 H 0.72704 0.25788 0.04033
 H3091 H 0.72559 0.18699 0.07294
 H3092 H 0.73467 0.19691 0.04988
 C3093 C 0.21660 0.71257 0.07427
 C3094 C 0.20760 0.72327 0.08527
 C3095 C 0.20004 0.71673 0.09982
 C3096 C 0.20149 0.69964 0.10378
 C3097 C 0.21055 0.68912 0.09292
 C3098 C 0.21796 0.69544 0.07837
 C3099 C 0.22428 0.71999 0.05875
 C3100 C 0.23303 0.71033 0.04674
 C3101 C 0.23975 0.71780 0.03239
 C3102 C 0.23806 0.73506 0.02970
 C3103 C 0.22940 0.74483 0.04153
 C3104 C 0.22248 0.73744 0.05596
 C3105 C 0.20626 0.74043 0.08174
 C3106 C 0.21361 0.74737 0.06746
 H3107 H 0.19944 0.74864 0.09019
 H3108 H 0.21222 0.76072 0.06531
 H3109 H 0.19326 0.72504 0.10820
 H3110 H 0.21177 0.67586 0.09553
 H3111 H 0.24636 0.71008 0.02334
 H3112 H 0.22783 0.75816 0.03932
 H3113 H 0.22472 0.68668 0.07056
 H3114 H 0.23474 0.69699 0.04808
 C3115 C 0.21627 0.21293 0.57575
 C3116 C 0.20739 0.22361 0.58686
 C3117 C 0.20011 0.21706 0.60154
 C3118 C 0.20178 0.19999 0.60554
 C3119 C 0.21087 0.18954 0.59466
 C3120 C 0.21799 0.19586 0.57997
 C3121 C 0.22349 0.22030 0.56000
 C3122 C 0.23182 0.21057 0.54776
 C3123 C 0.23814 0.21799 0.53322
 C3124 C 0.23646 0.23525 0.53056
 C3125 C 0.22817 0.24509 0.54258
 C3126 C 0.22159 0.23774 0.55720
 C3127 C 0.20590 0.24075 0.58330
 C3128 C 0.21296 0.24768 0.56887
 H3129 H 0.19920 0.24896 0.59185
 H3130 H 0.21149 0.26103 0.56672
 H3131 H 0.19334 0.22532 0.60997
 H3132 H 0.21231 0.17631 0.59734
 H3133 H 0.24449 0.21023 0.52402
 H3134 H 0.22665 0.25843 0.54039
 H3135 H 0.22479 0.18715 0.57216
 H3136 H 0.23348 0.19722 0.54906
   
